# Generated by pormake.
# Topology ukt, (4)-cn, num edge types: 1
# Building blocks:
#     Node 0, Type 0, BuildingBlock: NAHDIM_clean_sbu_0, # of connection points: 4
#     Node 1, Type 0, BuildingBlock: NAHDIM_clean_sbu_0, # of connection points: 4
#     Node 2, Type 0, BuildingBlock: NAHDIM_clean_sbu_0, # of connection points: 4
#     Node 3, Type 0, BuildingBlock: NAHDIM_clean_sbu_0, # of connection points: 4
#     Node 4, Type 0, BuildingBlock: NAHDIM_clean_sbu_0, # of connection points: 4
#     Node 5, Type 0, BuildingBlock: NAHDIM_clean_sbu_0, # of connection points: 4
#     Node 6, Type 0, BuildingBlock: NAHDIM_clean_sbu_0, # of connection points: 4
#     Node 7, Type 0, BuildingBlock: NAHDIM_clean_sbu_0, # of connection points: 4
#     Node 8, Type 0, BuildingBlock: NAHDIM_clean_sbu_0, # of connection points: 4
#     Node 9, Type 0, BuildingBlock: NAHDIM_clean_sbu_0, # of connection points: 4
#     Node 10, Type 0, BuildingBlock: NAHDIM_clean_sbu_0, # of connection points: 4
#     Node 11, Type 0, BuildingBlock: NAHDIM_clean_sbu_0, # of connection points: 4
#     Node 12, Type 0, BuildingBlock: NAHDIM_clean_sbu_0, # of connection points: 4
#     Node 13, Type 0, BuildingBlock: NAHDIM_clean_sbu_0, # of connection points: 4
#     Node 14, Type 0, BuildingBlock: NAHDIM_clean_sbu_0, # of connection points: 4
#     Node 15, Type 0, BuildingBlock: NAHDIM_clean_sbu_0, # of connection points: 4
#     Edge 16, Type (0, 0), BuildingBlock: UVAHIK_clean_linker_0, # of connection points: 2
#     Edge 17, Type (0, 0), BuildingBlock: UVAHIK_clean_linker_0, # of connection points: 2
#     Edge 18, Type (0, 0), BuildingBlock: UVAHIK_clean_linker_0, # of connection points: 2
#     Edge 19, Type (0, 0), BuildingBlock: UVAHIK_clean_linker_0, # of connection points: 2
#     Edge 20, Type (0, 0), BuildingBlock: UVAHIK_clean_linker_0, # of connection points: 2
#     Edge 21, Type (0, 0), BuildingBlock: UVAHIK_clean_linker_0, # of connection points: 2
#     Edge 22, Type (0, 0), BuildingBlock: UVAHIK_clean_linker_0, # of connection points: 2
#     Edge 23, Type (0, 0), BuildingBlock: UVAHIK_clean_linker_0, # of connection points: 2
#     Edge 24, Type (0, 0), BuildingBlock: UVAHIK_clean_linker_0, # of connection points: 2
#     Edge 25, Type (0, 0), BuildingBlock: UVAHIK_clean_linker_0, # of connection points: 2
#     Edge 26, Type (0, 0), BuildingBlock: UVAHIK_clean_linker_0, # of connection points: 2
#     Edge 27, Type (0, 0), BuildingBlock: UVAHIK_clean_linker_0, # of connection points: 2
#     Edge 28, Type (0, 0), BuildingBlock: UVAHIK_clean_linker_0, # of connection points: 2
#     Edge 29, Type (0, 0), BuildingBlock: UVAHIK_clean_linker_0, # of connection points: 2
#     Edge 30, Type (0, 0), BuildingBlock: UVAHIK_clean_linker_0, # of connection points: 2
#     Edge 31, Type (0, 0), BuildingBlock: UVAHIK_clean_linker_0, # of connection points: 2
#     Edge 32, Type (0, 0), BuildingBlock: UVAHIK_clean_linker_0, # of connection points: 2
#     Edge 33, Type (0, 0), BuildingBlock: UVAHIK_clean_linker_0, # of connection points: 2
#     Edge 34, Type (0, 0), BuildingBlock: UVAHIK_clean_linker_0, # of connection points: 2
#     Edge 35, Type (0, 0), BuildingBlock: UVAHIK_clean_linker_0, # of connection points: 2
#     Edge 36, Type (0, 0), BuildingBlock: UVAHIK_clean_linker_0, # of connection points: 2
#     Edge 37, Type (0, 0), BuildingBlock: UVAHIK_clean_linker_0, # of connection points: 2
#     Edge 38, Type (0, 0), BuildingBlock: UVAHIK_clean_linker_0, # of connection points: 2
#     Edge 39, Type (0, 0), BuildingBlock: UVAHIK_clean_linker_0, # of connection points: 2
#     Edge 40, Type (0, 0), BuildingBlock: UVAHIK_clean_linker_0, # of connection points: 2
#     Edge 41, Type (0, 0), BuildingBlock: UVAHIK_clean_linker_0, # of connection points: 2
#     Edge 42, Type (0, 0), BuildingBlock: UVAHIK_clean_linker_0, # of connection points: 2
#     Edge 43, Type (0, 0), BuildingBlock: UVAHIK_clean_linker_0, # of connection points: 2
#     Edge 44, Type (0, 0), BuildingBlock: UVAHIK_clean_linker_0, # of connection points: 2
#     Edge 45, Type (0, 0), BuildingBlock: UVAHIK_clean_linker_0, # of connection points: 2
#     Edge 46, Type (0, 0), BuildingBlock: UVAHIK_clean_linker_0, # of connection points: 2
#     Edge 47, Type (0, 0), BuildingBlock: UVAHIK_clean_linker_0, # of connection points: 2
# Relax obj value: 0.322
# Max RMSD: 0.219
# Mean RMSD: 0.219
data_MOF--net-ukt--node1-NAHDIM_clean_sbu_0--edge1-UVAHIK_clean_linker_0
_symmetry_space_group_name_H-M    P1
_symmetry_Int_Tables_number       1
_symmetry_cell_setting            triclinic
loop_
_symmetry_equiv_pos_as_xyz
'x, y, z'
_cell_length_a     54.422593
_cell_length_b     54.369707
_cell_length_c     45.474218
_cell_angle_alpha  90.020546
_cell_angle_beta   89.998339
_cell_angle_gamma 89.92233
loop_
_atom_site_label
_atom_site_type_symbol
_atom_site_fract_x
_atom_site_fract_y
_atom_site_fract_z
_atom_type_partial_charge
C0 C 0.5009 0.10886 0.07204 0.0
O1 O 0.50376 0.10798 0.10068 0.0
O2 O 0.51628 0.16223 0.11862 0.0
Zn3 Zn 0.52976 0.15211 0.07916 0.0
O4 O 0.56201 0.13489 0.08484 0.0
C5 C 0.52628 0.20259 0.05925 0.0
O6 O 0.51108 0.20476 0.08155 0.0
O7 O 0.5086 0.12759 0.05815 0.0
C8 C 0.58232 0.14591 0.0886 0.0
O9 O 0.58268 0.17006 0.08958 0.0
C10 C 0.52272 0.1509 0.14183 0.0
O11 O 0.53739 0.13179 0.13966 0.0
O12 O 0.53581 0.18175 0.05373 0.0
C13 C 0.37994 0.50709 0.04744 0.0
O14 O 0.37866 0.51518 0.07461 0.0
O15 O 0.31948 0.51835 0.08412 0.0
Zn16 Zn 0.33437 0.53124 0.04649 0.0
O17 O 0.35038 0.56398 0.05353 0.0
C18 C 0.29144 0.52172 0.00923 0.0
O19 O 0.29066 0.50012 0.02214 0.0
O20 O 0.36139 0.50981 0.0308 0.0
C21 C 0.33862 0.58416 0.0538 0.0
O22 O 0.31463 0.58389 0.05056 0.0
C23 C 0.32688 0.52666 0.1087 0.0
O24 O 0.3446 0.54303 0.10914 0.0
O25 O 0.30834 0.53676 0.01604 0.0
C26 C 0.99249 0.37844 0.05347 0.0
O27 O 0.99097 0.37678 0.08222 0.0
O28 O 0.97449 0.31968 0.09044 0.0
Zn29 Zn 0.9589 0.33913 0.05788 0.0
O30 O 0.93192 0.36085 0.07308 0.0
C31 C 0.95685 0.30342 0.01065 0.0
O32 O 0.98087 0.30584 0.01071 0.0
O33 O 0.98214 0.36211 0.03783 0.0
C34 C 0.9109 0.35315 0.08087 0.0
O35 O 0.90656 0.32939 0.08093 0.0
C36 C 0.97388 0.3267 0.11708 0.0
O37 O 0.9636 0.34789 0.12362 0.0
O38 O 0.94407 0.31591 0.02863 0.0
C39 C 0.11637 0.98985 0.05153 0.0
O40 O 0.11752 0.9815 0.0786 0.0
O41 O 0.17887 0.98108 0.08563 0.0
Zn42 Zn 0.16215 0.96609 0.05043 0.0
O43 O 0.14636 0.93396 0.06118 0.0
C44 C 0.20289 0.97387 0.00963 0.0
O45 O 0.20373 0.99614 0.02079 0.0
O46 O 0.13489 0.98711 0.03485 0.0
C47 C 0.15812 0.9138 0.06222 0.0
O48 O 0.18192 0.91382 0.05736 0.0
C49 C 0.17284 0.97446 0.11144 0.0
O50 O 0.15508 0.95837 0.11482 0.0
O51 O 0.18675 0.95887 0.01877 0.0
C52 C 0.51151 0.36987 0.43631 0.0
O53 O 0.52184 0.36666 0.41047 0.0
O54 O 0.52165 0.30344 0.41237 0.0
Zn55 Zn 0.5347 0.32432 0.44539 0.0
O56 O 0.56688 0.33944 0.43366 0.0
C57 C 0.52536 0.28958 0.49326 0.0
O58 O 0.50279 0.28897 0.48302 0.0
O59 O 0.51276 0.35265 0.45513 0.0
C60 C 0.58735 0.32898 0.4386 0.0
O61 O 0.58755 0.30669 0.44976 0.0
C62 C 0.52863 0.28115 0.41112 0.0
O63 O 0.54369 0.27274 0.43132 0.0
O64 O 0.54097 0.30372 0.48127 0.0
C65 C 0.11189 0.51251 0.41525 0.0
O66 O 0.11333 0.52427 0.39006 0.0
O67 O 0.17644 0.52059 0.3838 0.0
Zn68 Zn 0.15929 0.53258 0.42034 0.0
O69 O 0.14484 0.56613 0.41321 0.0
C70 C 0.20192 0.52218 0.4575 0.0
O71 O 0.20675 0.50481 0.43826 0.0
O72 O 0.13078 0.51155 0.43163 0.0
C73 C 0.15591 0.58602 0.41943 0.0
O74 O 0.17853 0.58508 0.42944 0.0
C75 C 0.19666 0.53083 0.37714 0.0
O76 O 0.20522 0.54831 0.39424 0.0
O77 O 0.18276 0.53529 0.4544 0.0
C78 C 0.98479 0.11532 0.42584 0.0
O79 O 0.97588 0.1146 0.39903 0.0
O80 O 0.97417 0.17714 0.38827 0.0
Zn81 Zn 0.95995 0.16086 0.42408 0.0
O82 O 0.92811 0.14402 0.41462 0.0
C83 C 0.96694 0.2036 0.4619 0.0
O84 O 0.98892 0.20458 0.45001 0.0
O85 O 0.98184 0.13474 0.44099 0.0
C86 C 0.90775 0.15545 0.41502 0.0
O87 O 0.90771 0.17937 0.41922 0.0
C88 C 0.97052 0.16887 0.36251 0.0
O89 O 0.95754 0.14873 0.35901 0.0
O90 O 0.95239 0.18645 0.4545 0.0
C91 C 0.37976 0.99037 0.42203 0.0
O92 O 0.37868 0.98251 0.39474 0.0
O93 O 0.31922 0.98211 0.38563 0.0
Zn94 Zn 0.33346 0.96754 0.42263 0.0
O95 O 0.34866 0.9345 0.41464 0.0
C96 C 0.28484 0.96213 0.44664 0.0
O97 O 0.27853 0.96518 0.41899 0.0
O98 O 0.36103 0.98783 0.43842 0.0
C99 C 0.33704 0.91428 0.41357 0.0
O100 O 0.31303 0.91433 0.41662 0.0
C101 C 0.32509 0.97373 0.3605 0.0
O102 O 0.34137 0.95594 0.35873 0.0
O103 O 0.30742 0.96307 0.45361 0.0
C104 C 0.48637 0.88032 0.9188 0.0
O105 O 0.48203 0.88142 0.89043 0.0
O106 O 0.472 0.82123 0.87775 0.0
Zn107 Zn 0.45669 0.83783 0.91275 0.0
O108 O 0.42719 0.85767 0.90095 0.0
C109 C 0.45968 0.79763 0.95464 0.0
O110 O 0.48346 0.79934 0.95013 0.0
O111 O 0.47908 0.86162 0.93306 0.0
C112 C 0.40611 0.84817 0.89727 0.0
O113 O 0.4037 0.82417 0.89906 0.0
C114 C 0.47051 0.83014 0.85198 0.0
O115 O 0.45938 0.85133 0.848 0.0
O116 O 0.44525 0.8122 0.94128 0.0
C117 C 0.62274 0.48525 0.93205 0.0
O118 O 0.62594 0.47239 0.90787 0.0
O119 O 0.68508 0.46937 0.9061 0.0
Zn120 Zn 0.66757 0.46224 0.94399 0.0
O121 O 0.65177 0.42877 0.94318 0.0
C122 C 0.70768 0.47794 0.98279 0.0
O123 O 0.70917 0.49741 0.96578 0.0
O124 O 0.64002 0.48596 0.9508 0.0
C125 C 0.63702 0.42512 0.96442 0.0
O126 O 0.6341 0.44255 0.98415 0.0
C127 C 0.70589 0.4595 0.90144 0.0
O128 O 0.7152 0.44472 0.92141 0.0
O129 O 0.6913 0.46188 0.97771 0.0
C130 C 0.0004 0.6214 0.93815 0.0
O131 O -0.00044 0.62372 0.90943 0.0
O132 O 0.01898 0.67771 0.89794 0.0
Zn133 Zn 0.03463 0.6608 0.93247 0.0
O134 O 0.06339 0.6404 0.91951 0.0
C135 C 0.0332 0.70022 0.97545 0.0
O136 O 0.00927 0.69831 0.97242 0.0
O137 O 0.01233 0.63713 0.95304 0.0
C138 C 0.08437 0.64932 0.91368 0.0
O139 O 0.0874 0.67329 0.91435 0.0
C140 C 0.01993 0.66857 0.87224 0.0
O141 O 0.03067 0.64718 0.86825 0.0
O142 O 0.04716 0.68604 0.96081 0.0
C143 C 0.87626 0.02056 0.92868 0.0
O144 O 0.87367 0.02943 0.90198 0.0
O145 O 0.81088 0.02403 0.90045 0.0
Zn146 Zn 0.82891 0.04094 0.93325 0.0
O147 O 0.84183 0.07353 0.91945 0.0
C148 C 0.79352 0.03121 0.98019 0.0
O149 O 0.79481 0.00823 0.97135 0.0
O150 O 0.85826 0.02183 0.94639 0.0
C151 C 0.82953 0.09331 0.92165 0.0
O152 O 0.80685 0.09236 0.93148 0.0
C153 C 0.78829 0.02897 0.8966 0.0
O154 O 0.77745 0.04464 0.91438 0.0
O155 O 0.80657 0.04738 0.9675 0.0
C156 C 0.47451 0.61265 0.54902 0.0
O157 O 0.46544 0.61359 0.57575 0.0
O158 O 0.46894 0.67776 0.58119 0.0
Zn159 Zn 0.45224 0.65927 0.54853 0.0
O160 O 0.42072 0.64407 0.56273 0.0
C161 C 0.45812 0.69913 0.50639 0.0
O162 O 0.48082 0.69984 0.51618 0.0
O163 O 0.4726 0.63147 0.53262 0.0
C164 C 0.40032 0.6553 0.56066 0.0
O165 O 0.40004 0.6781 0.55111 0.0
C166 C 0.46658 0.67165 0.60801 0.0
O167 O 0.4536 0.6521 0.61472 0.0
O168 O 0.4435 0.68301 0.51642 0.0
C169 C 0.88085 0.49347 0.56167 0.0
O170 O 0.88188 0.48402 0.58822 0.0
O171 O 0.82389 0.47788 0.60362 0.0
Zn172 Zn 0.83636 0.46771 0.56359 0.0
O173 O 0.85446 0.43563 0.56649 0.0
C174 C 0.78621 0.4659 0.54228 0.0
O175 O 0.78099 0.47438 0.5686 0.0
O176 O 0.86116 0.49107 0.54696 0.0
C177 C 0.84414 0.41477 0.56836 0.0
O178 O 0.82005 0.41355 0.56944 0.0
C179 C 0.83276 0.4684 0.62687 0.0
O180 O 0.85103 0.4527 0.6247 0.0
O181 O 0.80853 0.46258 0.53516 0.0
C182 C 0.01809 0.88253 0.56647 0.0
O183 O 0.02671 0.88245 0.59344 0.0
O184 O 0.02286 0.81773 0.6007 0.0
Zn185 Zn 0.04008 0.83567 0.56812 0.0
O186 O 0.07139 0.8513 0.58217 0.0
C187 C 0.03473 0.79694 0.52394 0.0
O188 O 0.01128 0.7975 0.5308 0.0
O189 O 0.02002 0.86313 0.55106 0.0
C190 C 0.09175 0.83987 0.58184 0.0
O191 O 0.09201 0.81639 0.57499 0.0
C192 C 0.02433 0.8245 0.62738 0.0
O193 O 0.03688 0.84436 0.63399 0.0
O194 O 0.04943 0.81163 0.53661 0.0
C195 C 0.61383 0.00065 0.56285 0.0
O196 O 0.61359 0.0059 0.59103 0.0
O197 O 0.67096 0.01133 0.60508 0.0
Zn198 Zn 0.65839 0.02662 0.56757 0.0
O199 O 0.64106 0.05845 0.57634 0.0
C200 C 0.70789 0.03637 0.54899 0.0
O201 O 0.71224 0.03392 0.57725 0.0
O202 O 0.63284 0.00587 0.54791 0.0
C203 C 0.65135 0.07905 0.58088 0.0
O204 O 0.67544 0.08047 0.58065 0.0
C205 C 0.66197 0.01766 0.62976 0.0
O206 O 0.6438 0.03356 0.63045 0.0
O207 O 0.68612 0.03354 0.53953 0.0
C208 C 0.55045 0.22229 0.0187 0.0
C209 C 0.534 0.22453 0.0424 0.0
C210 C 0.5594 0.2432 0.00443 0.0
C211 C 0.54924 0.31044 0.99572 0.0
H212 H 0.61953 0.3119 0.98173 0.0
C213 C 0.60433 0.39997 0.98818 0.0
C214 C 0.62334 0.4018 0.9674 0.0
C215 C 0.59182 0.37787 0.99214 0.0
C216 C 0.59982 0.31165 0.98498 0.0
H217 H 0.51344 0.25047 0.06907 0.0
H218 H 0.52933 0.28689 0.04457 0.0
H219 H 0.60021 0.2739 -0.00189 0.0
H220 H 0.64385 0.382 0.93402 0.0
H221 H 0.62199 0.34309 0.94121 0.0
H222 H 0.54908 0.3485 0.98362 0.0
C223 C 0.53507 0.26898 0.03667 0.0
C224 C 0.58871 0.28987 0.99435 0.0
C225 C 0.52607 0.24808 0.05088 0.0
C226 C 0.6293 0.38112 0.95025 0.0
C227 C 0.61687 0.35886 0.95442 0.0
C228 C 0.56036 0.33224 0.98647 0.0
C229 C 0.55214 0.26681 0.01358 0.0
C230 C 0.56337 0.28915 0.00045 0.0
C231 C 0.59809 0.35701 0.97554 0.0
C232 C 0.58585 0.33321 0.98163 0.0
H233 H 0.55681 0.20439 0.0115 0.0
H234 H 0.57224 0.24087 0.98644 0.0
H235 H 0.52961 0.31039 -0.00035 0.0
H236 H 0.59921 0.41558 0.00167 0.0
H237 H 0.57768 0.37695 0.00887 0.0
C238 C 0.10242 0.60701 0.91155 0.0
C239 C 0.10574 0.63265 0.91074 0.0
C240 C 0.12262 0.59125 0.91351 0.0
C241 C 0.1907 0.58794 0.90847 0.0
H242 H 0.18383 0.54168 0.97284 0.0
C243 C 0.27229 0.55332 0.97656 0.0
C244 C 0.27163 0.52969 0.98907 0.0
C245 C 0.2525 0.56211 0.96016 0.0
C246 C 0.186 0.55402 0.95434 0.0
H247 H 0.13294 0.66175 0.90924 0.0
H248 H 0.16819 0.63425 0.91296 0.0
H249 H 0.14809 0.56416 0.95552 0.0
H250 H 0.25021 0.49622 0.99273 0.0
H251 H 0.21562 0.51155 0.96377 0.0
H252 H 0.22886 0.57831 0.90802 0.0
C253 C 0.14997 0.62631 0.91191 0.0
C254 C 0.16546 0.56697 0.9444 0.0
C255 C 0.12975 0.6421 0.90995 0.0
C256 C 0.25121 0.51458 0.98358 0.0
C257 C 0.23136 0.5234 0.9671 0.0
C258 C 0.21126 0.5749 0.91835 0.0
C259 C 0.14659 0.60077 0.91466 0.0
C260 C 0.1677 0.58455 0.9219 0.0
C261 C 0.23155 0.54749 0.95578 0.0
C262 C 0.20927 0.55831 0.94197 0.0
H263 H 0.08416 0.59911 0.91185 0.0
H264 H 0.11945 0.57163 0.91509 0.0
H265 H 0.19291 0.6011 0.8908 0.0
H266 H 0.28778 0.56543 0.98025 0.0
H267 H 0.25318 0.58085 0.95214 0.0
C268 C 0.86648 0.11817 0.90802 0.0
C269 C 0.842 0.11725 0.91782 0.0
C270 C 0.8796 0.14022 0.9089 0.0
C271 C 0.87379 0.20776 0.92116 0.0
H272 H 0.93721 0.19991 0.95891 0.0
C273 C 0.91904 0.28294 0.99131 0.0
C274 C 0.94477 0.28514 0.99138 0.0
C275 C 0.90759 0.26439 0.97515 0.0
C276 C 0.9198 0.2025 0.94778 0.0
H277 H 0.81158 0.13908 0.93429 0.0
H278 H 0.83455 0.1774 0.93631 0.0
H279 H 0.91485 0.1638 0.94256 0.0
H280 H 0.97861 0.27026 0.97345 0.0
H281 H 0.95855 0.2378 0.94515 0.0
H282 H 0.87843 0.24651 0.92758 0.0
C283 C 0.84359 0.16118 0.92767 0.0
C284 C 0.90695 0.18175 0.93836 0.0
C285 C 0.83043 0.13914 0.92668 0.0
C286 C 0.95876 0.26896 0.974 0.0
C287 C 0.94729 0.25033 0.95787 0.0
C288 C 0.88665 0.22854 0.93065 0.0
C289 C 0.86855 0.16179 0.91968 0.0
C290 C 0.88353 0.18409 0.92559 0.0
C291 C 0.92161 0.24757 0.95871 0.0
C292 C 0.90953 0.22607 0.94473 0.0
H293 H 0.87585 0.10167 0.90073 0.0
H294 H 0.89866 0.14019 0.90205 0.0
H295 H 0.85596 0.2102 0.91098 0.0
H296 H 0.9077 0.29516 0.00437 0.0
H297 H 0.88781 0.2626 0.97658 0.0
C298 C 0.36048 0.85421 0.89794 0.0
C299 C 0.38419 0.86427 0.89606 0.0
C300 C 0.34007 0.86949 0.90178 0.0
C301 C 0.32542 0.929 0.93465 0.0
H302 H 0.25987 0.91519 0.90572 0.0
C303 C 0.24135 0.9807 0.98026 0.0
C304 C 0.22172 0.96539 0.98844 0.0
C305 C 0.26029 0.97168 0.96245 0.0
C306 C 0.27808 0.91928 0.91398 0.0
H307 H 0.40487 0.89836 0.89437 0.0
H308 H 0.36922 0.92497 0.90082 0.0
H309 H 0.295 0.89302 0.88521 0.0
H310 H 0.20602 0.92896 0.98321 0.0
H311 H 0.23907 0.91322 0.95269 0.0
H312 H 0.30856 0.95446 0.96424 0.0
C313 C 0.36647 0.90526 0.8999 0.0
C314 C 0.29818 0.9066 0.90222 0.0
C315 C 0.38688 0.88999 0.89608 0.0
C316 C 0.2209 0.94125 0.97742 0.0
C317 C 0.23978 0.93226 0.95966 0.0
C318 C 0.30536 0.94162 0.94643 0.0
C319 C 0.34295 0.89514 0.90377 0.0
C320 C 0.322 0.91091 0.91294 0.0
C321 C 0.25995 0.9472 0.95243 0.0
C322 C 0.28139 0.93646 0.93677 0.0
H323 H 0.35777 0.83448 0.89792 0.0
H324 H 0.32222 0.86109 0.9049 0.0
H325 H 0.34348 0.93251 0.94374 0.0
H326 H 0.24244 -0.00056 0.98824 0.0
H327 H 0.27543 0.98374 0.95697 0.0
C328 C 0.55853 0.27111 0.52418 0.0
C329 C 0.53393 0.27103 0.51475 0.0
C330 C 0.56798 0.25147 0.54036 0.0
C331 C 0.55781 0.18552 0.54836 0.0
H332 H 0.61124 0.19044 0.60448 0.0
C333 C 0.61033 0.09951 0.58511 0.0
C334 C 0.63606 0.10145 0.58353 0.0
C335 C 0.59559 0.12052 0.58421 0.0
C336 C 0.59633 0.18879 0.58884 0.0
H337 H 0.49945 0.25117 0.51692 0.0
H338 H 0.51593 0.2169 0.5455 0.0
H339 H 0.58849 0.22739 0.59037 0.0
H340 H 0.66653 0.12705 0.58137 0.0
H341 H 0.64077 0.16374 0.57929 0.0
H342 H 0.5661 0.14719 0.54593 0.0
C343 C 0.52801 0.232 0.53987 0.0
C344 C 0.58329 0.20992 0.58078 0.0
C345 C 0.51853 0.25169 0.52363 0.0
C346 C 0.64677 0.12493 0.58256 0.0
C347 C 0.63199 0.14598 0.58155 0.0
C348 C 0.57079 0.16444 0.55643 0.0
C349 C 0.55304 0.23129 0.54756 0.0
C350 C 0.56428 0.20861 0.55988 0.0
C351 C 0.60622 0.14395 0.58161 0.0
C352 C 0.59058 0.16591 0.57622 0.0
H353 H 0.57088 0.2858 0.51787 0.0
H354 H 0.58738 0.25147 0.54567 0.0
H355 H 0.54358 0.18386 0.53183 0.0
H356 H 0.60149 0.0817 0.58625 0.0
H357 H 0.57581 0.11837 0.58482 0.0
C358 C 0.35543 0.65047 0.55118 0.0
C359 C 0.37716 0.64141 0.56379 0.0
C360 C 0.33457 0.63564 0.54944 0.0
C361 C 0.31831 0.56974 0.5475 0.0
H362 H 0.25295 0.59704 0.53872 0.0
C363 C 0.21354 0.5435 0.50414 0.0
C364 C 0.22041 0.52938 0.47961 0.0
C365 C 0.23139 0.55355 0.52264 0.0
C366 C 0.2709 0.5888 0.5417 0.0
H367 H 0.39351 0.61051 0.58674 0.0
H368 H 0.35678 0.58493 0.58478 0.0
H369 H 0.2855 0.6224 0.55859 0.0
H370 H 0.25123 0.5137 0.45595 0.0
H371 H 0.28237 0.53203 0.4872 0.0
H372 H 0.30358 0.53598 0.5312 0.0
C373 C 0.35607 0.60315 0.57522 0.0
C374 C 0.28975 0.60358 0.55267 0.0
C375 C 0.37708 0.61788 0.57656 0.0
C376 C 0.24538 0.52441 0.47479 0.0
C377 C 0.26327 0.53487 0.49292 0.0
C378 C 0.29935 0.55482 0.53704 0.0
C379 C 0.3348 0.61151 0.56071 0.0
C380 C 0.31392 0.59457 0.55457 0.0
C381 C 0.25654 0.55016 0.51663 0.0
C382 C 0.2756 0.56443 0.53285 0.0
H383 H 0.3549 0.6685 0.54108 0.0
H384 H 0.31875 0.64271 0.53773 0.0
H385 H 0.33665 0.56207 0.5485 0.0
H386 H 0.19435 0.54736 0.50856 0.0
H387 H 0.22544 0.56463 0.5411 0.0
C388 C 0.8481 0.36892 0.56455 0.0
C389 C 0.85922 0.39217 0.56652 0.0
C390 C 0.86238 0.3479 0.55973 0.0
C391 C 0.92084 0.33016 0.52606 0.0
H392 H 0.90647 0.26619 0.5595 0.0
C393 C 0.97304 0.24382 0.48795 0.0
C394 C 0.95808 0.22351 0.48139 0.0
C395 C 0.96363 0.26374 0.50385 0.0
C396 C 0.91067 0.28393 0.54993 0.0
H397 H 0.89416 0.41142 0.56662 0.0
H398 H 0.91896 0.37477 0.55838 0.0
H399 H 0.88466 0.3025 0.57754 0.0
H400 H 0.92183 0.20769 0.48755 0.0
H401 H 0.90539 0.24244 0.51472 0.0
H402 H 0.94615 0.31166 0.49775 0.0
C403 C 0.89921 0.37283 0.56008 0.0
C404 C 0.89818 0.3047 0.56026 0.0
C405 C 0.88497 0.39381 0.56491 0.0
C406 C 0.93387 0.22307 0.49215 0.0
C407 C 0.92446 0.24295 0.50796 0.0
C408 C 0.93324 0.30943 0.51568 0.0
C409 C 0.88804 0.34973 0.55678 0.0
C410 C 0.90285 0.32797 0.54807 0.0
C411 C 0.93906 0.26375 0.51349 0.0
C412 C 0.92799 0.286 0.5271 0.0
H413 H 0.82832 0.36702 0.56576 0.0
H414 H 0.8532 0.33038 0.55704 0.0
H415 H 0.9246 0.34777 0.51589 0.0
H416 H 0.99183 0.24465 0.48015 0.0
H417 H 0.97545 0.27934 0.50812 0.0
C418 C 0.11457 0.87927 0.58957 0.0
C419 C 0.1149 0.85407 0.58265 0.0
C420 C 0.13521 0.89387 0.58436 0.0
C421 C 0.20114 0.89214 0.56125 0.0
H422 H 0.18299 0.95085 0.51794 0.0
C423 C 0.24137 0.95311 0.46063 0.0
C424 C 0.26616 0.95523 0.46877 0.0
C425 C 0.22399 0.94443 0.48064 0.0
C426 C 0.18839 0.93456 0.53004 0.0
H427 H 0.13781 0.82403 0.56727 0.0
H428 H 0.17353 0.84949 0.55758 0.0
H429 H 0.15156 0.92774 0.54383 0.0
H430 H 0.29201 0.95084 0.50475 0.0
H431 H 0.26154 0.93583 0.53981 0.0
H432 H 0.23775 0.89816 0.54573 0.0
C433 C 0.15749 0.85804 0.56731 0.0
C434 C 0.17041 0.92146 0.54528 0.0
C435 C 0.13691 0.8434 0.57273 0.0
C436 C 0.27305 0.94932 0.49774 0.0
C437 C 0.25564 0.9406 0.51779 0.0
C438 C 0.21913 0.90521 0.54588 0.0
C439 C 0.15656 0.88361 0.57194 0.0
C440 C 0.17642 0.89967 0.56035 0.0
C441 C 0.23097 0.9377 0.50931 0.0
C442 C 0.21279 0.92614 0.52935 0.0
H443 H 0.09797 0.88798 0.59764 0.0
H444 H 0.13407 0.91341 0.58883 0.0
H445 H 0.20645 0.87563 0.57298 0.0
H446 H 0.23543 0.95751 0.43851 0.0
H447 H 0.20523 0.94209 0.47322 0.0
C448 C 0.46483 0.75995 0.98588 0.0
C449 C 0.44947 0.77798 0.97351 0.0
C450 C 0.45479 0.74032 0.0017 0.0
C451 C 0.3977 0.71841 0.03808 0.0
H452 H 0.42133 0.65396 0.01495 0.0
C453 C 0.34012 0.63 0.04862 0.0
C454 C 0.35225 0.60766 0.0542 0.0
C455 C 0.35351 0.65173 0.04525 0.0
C456 C 0.4148 0.67179 0.02218 0.0
H457 H 0.41163 0.79013 0.96909 0.0
H458 H 0.39421 0.75589 0.9963 0.0
H459 H 0.44242 0.69049 -0.00259 0.0
H460 H 0.38778 0.59088 0.06262 0.0
H461 H 0.41105 0.62884 0.0571 0.0
H462 H 0.36959 0.69961 0.06215 0.0
C463 C 0.41399 0.75696 0.99408 0.0
C464 C 0.42691 0.69276 0.0121 0.0
C465 C 0.42399 0.7765 0.97824 0.0
C466 C 0.37789 0.60775 0.05798 0.0
C467 C 0.39125 0.62947 0.05469 0.0
C468 C 0.38557 0.69741 0.04819 0.0
C469 C 0.42922 0.73841 0.00555 0.0
C470 C 0.41819 0.71631 0.0194 0.0
C471 C 0.37929 0.65158 0.0475 0.0
C472 C 0.39369 0.67387 0.03985 0.0
H473 H 0.48454 0.76064 0.98277 0.0
H474 H 0.46702 0.72645 0.01056 0.0
H475 H 0.39076 0.73632 0.04445 0.0
H476 H 0.32038 0.63056 0.04563 0.0
H477 H 0.34373 0.6684 0.03946 0.0
C478 C 0.74757 0.48795 0.00782 0.0
C479 C 0.72692 0.47265 0.00491 0.0
C480 C 0.76737 0.48077 0.02549 0.0
C481 C 0.78783 0.43349 0.08021 0.0
H482 H 0.84975 0.43896 0.03866 0.0
C483 C 0.8663 0.36292 0.0882 0.0
C484 C 0.89065 0.37102 0.08496 0.0
C485 C 0.84683 0.37969 0.08694 0.0
C486 C 0.83277 0.43769 0.05099 0.0
H487 H 0.7101 0.43873 0.01996 0.0
H488 H 0.7446 0.42604 0.05 0.0
H489 H 0.81422 0.46145 0.02096 0.0
H490 H 0.91379 0.40331 0.08042 0.0
H491 H 0.87982 0.43248 0.07827 0.0
H492 H 0.8063 0.4085 0.10925 0.0
C493 C 0.74557 0.44369 0.03904 0.0
C494 C 0.81234 0.45068 0.04085 0.0
C495 C 0.7258 0.45088 0.02152 0.0
C496 C 0.89522 0.39641 0.08261 0.0
C497 C 0.87577 0.41314 0.0813 0.0
C498 C 0.80828 0.42035 0.09026 0.0
C499 C 0.76692 0.45816 0.04054 0.0
C500 C 0.78941 0.44813 0.05476 0.0
C501 C 0.85135 0.40487 0.08241 0.0
C502 C 0.83078 0.42178 0.07522 0.0
H503 H 0.7489 0.50495 0.99553 0.0
H504 H 0.78338 0.49255 0.02657 0.0
H505 H 0.77055 0.43149 0.09178 0.0
H506 H 0.86216 0.34351 0.09019 0.0
H507 H 0.82821 0.37271 0.08767 0.0
C508 C 0.02909 0.73758 0.00748 0.0
C509 C 0.04403 0.71972 0.99404 0.0
C510 C 0.03965 0.75718 0.02286 0.0
C511 C 0.0981 0.77955 0.05563 0.0
H512 H 0.07338 0.84373 0.0331 0.0
C513 C 0.15627 0.86783 0.05963 0.0
C514 C 0.14452 0.8904 0.06507 0.0
C515 C 0.14266 0.84609 0.05823 0.0
C516 C 0.08024 0.82599 0.04021 0.0
H517 H 0.08171 0.7078 0.98736 0.0
H518 H 0.10003 0.74201 0.01381 0.0
H519 H 0.05155 0.80703 0.01758 0.0
H520 H 0.10959 0.90763 0.07549 0.0
H521 H 0.08595 0.86966 0.07346 0.0
H522 H 0.12728 0.79862 0.07748 0.0
C523 C 0.08018 0.74082 0.01275 0.0
C524 C 0.06769 0.80491 0.03128 0.0
C525 C 0.06966 0.7213 -0.00266 0.0
C526 C 0.11915 0.89057 0.07087 0.0
C527 C 0.10557 0.86883 0.0696 0.0
C528 C 0.11065 0.80067 0.06462 0.0
C529 C 0.06533 0.75924 0.02519 0.0
C530 C 0.07679 0.78145 0.03828 0.0
C531 C 0.11705 0.84645 0.06238 0.0
C532 C 0.10217 0.82412 0.05642 0.0
H533 H 0.00928 0.7368 0.00549 0.0
H534 H 0.02772 0.77096 0.0325 0.0
H535 H 0.10535 0.76171 0.06174 0.0
H536 H 0.1758 0.86707 0.05512 0.0
H537 H 0.15206 0.82921 0.05237 0.0
C538 C 0.62825 0.1434 0.08626 0.0
C539 C 0.60542 0.13158 0.08879 0.0
C540 C 0.64978 0.12965 0.08278 0.0
C541 C 0.66926 0.06994 0.05359 0.0
H542 H 0.73331 0.09018 0.08192 0.0
C543 C 0.757 0.02252 0.01219 0.0
C544 C 0.77497 0.039 0.00205 0.0
C545 C 0.73767 0.03088 0.02984 0.0
C546 C 0.71553 0.08428 0.0739 0.0
H547 H 0.58743 0.09606 0.09176 0.0
H548 H 0.62498 0.07212 0.08609 0.0
H549 H 0.69642 0.11064 0.10046 0.0
H550 H 0.7876 0.07683 0.00397 0.0
H551 H 0.75388 0.09137 0.03433 0.0
H552 H 0.68827 0.04424 0.02626 0.0
C553 C 0.62621 0.09201 0.08611 0.0
C554 C 0.69443 0.09601 0.08448 0.0
C555 C 0.60471 0.10574 0.08946 0.0
C556 C 0.77398 0.06367 0.01127 0.0
C557 C 0.75473 0.07198 0.02892 0.0
C558 C 0.69032 0.05822 0.04305 0.0
C559 C 0.6489 0.10379 0.0819 0.0
C560 C 0.6711 0.08936 0.07389 0.0
C561 C 0.736 0.05584 0.03777 0.0
C562 C 0.71372 0.06567 0.05252 0.0
H563 H 0.62942 0.16328 0.08572 0.0
H564 H 0.66691 0.13932 0.07932 0.0
H565 H 0.65163 0.06459 0.04462 0.0
H566 H 0.75733 0.00338 0.00562 0.0
H567 H 0.72366 0.01795 0.03664 0.0
C568 C 0.42358 0.71919 0.47914 0.0
C569 C 0.44862 0.71865 0.48676 0.0
C570 C 0.4138 0.73911 0.46372 0.0
C571 C 0.42536 0.80482 0.45252 0.0
H572 H 0.37029 0.79966 0.39873 0.0
C573 C 0.37664 0.89114 0.40957 0.0
C574 C 0.35091 0.89088 0.41238 0.0
C575 C 0.39017 0.86942 0.41212 0.0
C576 C 0.38565 0.80137 0.41373 0.0
H577 H 0.48331 0.73791 0.48256 0.0
H578 H 0.46627 0.77259 0.45523 0.0
H579 H 0.39186 0.76247 0.41446 0.0
H580 H 0.31911 0.86741 0.41839 0.0
H581 H 0.34279 0.82949 0.42314 0.0
H582 H 0.41884 0.84357 0.45243 0.0
C583 C 0.45412 0.75779 0.46172 0.0
C584 C 0.398 0.78009 0.42275 0.0
C585 C 0.46391 0.73787 0.47725 0.0
C586 C 0.33891 0.86824 0.4162 0.0
C587 C 0.35248 0.84648 0.41877 0.0
C588 C 0.4131 0.82605 0.44343 0.0
C589 C 0.42882 0.75894 0.45544 0.0
C590 C 0.41768 0.78154 0.44274 0.0
C591 C 0.3783 0.84695 0.41752 0.0
C592 C 0.39281 0.82454 0.42439 0.0
H593 H 0.41127 0.70466 0.48605 0.0
H594 H 0.39421 0.73947 0.45958 0.0
H595 H 0.44013 0.80663 0.46832 0.0
H596 H 0.38646 0.90824 0.40629 0.0
H597 H 0.41002 0.87031 0.41057 0.0
C598 C 0.77195 0.44684 0.49508 0.0
C599 C 0.76637 0.45733 0.52256 0.0
C600 C 0.7535 0.43605 0.47805 0.0
C601 C 0.7155 0.39803 0.46033 0.0
H602 H 0.64828 0.42168 0.46049 0.0
C603 C 0.63217 0.33427 0.44891 0.0
C604 C 0.61031 0.34339 0.43662 0.0
C605 C 0.65274 0.34942 0.45163 0.0
C606 C 0.66701 0.41496 0.45964 0.0
H607 H 0.73686 0.46577 0.55302 0.0
H608 H 0.70485 0.44666 0.52365 0.0
H609 H 0.68085 0.44788 0.47932 0.0
H610 H 0.59352 0.37491 0.41528 0.0
H611 H 0.6296 0.40119 0.41951 0.0
H612 H 0.70161 0.36502 0.44085 0.0
C613 C 0.72339 0.447 0.51501 0.0
C614 C 0.68565 0.42989 0.47083 0.0
C615 C 0.7418 0.45783 0.53198 0.0
C616 C 0.61001 0.36742 0.42519 0.0
C617 C 0.63064 0.38253 0.42776 0.0
C618 C 0.69686 0.38313 0.44901 0.0
C619 C 0.7291 0.43549 0.48814 0.0
C620 C 0.70999 0.42131 0.47214 0.0
C621 C 0.65196 0.37398 0.44192 0.0
C622 C 0.67229 0.39113 0.44935 0.0
H623 H 0.79068 0.44631 0.48707 0.0
H624 H 0.75844 0.42768 0.45725 0.0
H625 H 0.73402 0.39076 0.46114 0.0
H626 H 0.63303 0.31583 0.45788 0.0
H627 H 0.66875 0.34226 0.4629 0.0
C628 C 0.11693 0.60999 0.41313 0.0
C629 C 0.14228 0.60958 0.41914 0.0
C630 C 0.10339 0.63164 0.41662 0.0
C631 C 0.10847 0.69911 0.4263 0.0
H632 H 0.05079 0.69116 0.47545 0.0
C633 C 0.06992 0.77678 0.49811 0.0
C634 C 0.04455 0.77801 0.50371 0.0
C635 C 0.07973 0.75764 0.48138 0.0
C636 C 0.06649 0.69376 0.46116 0.0
H637 H 0.17353 0.63192 0.43182 0.0
H638 H 0.14989 0.66966 0.43796 0.0
H639 H 0.07209 0.65499 0.45695 0.0
H640 H 0.00941 0.76074 0.49487 0.0
H641 H 0.02656 0.72736 0.46527 0.0
H642 H 0.10319 0.73791 0.43113 0.0
C643 C 0.1405 0.65327 0.43047 0.0
C644 C 0.07874 0.67299 0.45058 0.0
C645 C 0.15403 0.63159 0.42713 0.0
C646 C 0.02906 0.76022 0.49113 0.0
C647 C 0.0389 0.74104 0.47429 0.0
C648 C 0.09613 0.71991 0.43675 0.0
C649 C 0.11493 0.65336 0.42599 0.0
C650 C 0.10021 0.67543 0.43365 0.0
C651 C 0.06441 0.73928 0.46971 0.0
C652 C 0.07538 0.71746 0.45497 0.0
H653 H 0.10733 0.59338 0.40676 0.0
H654 H 0.08377 0.63124 0.41266 0.0
H655 H 0.12476 0.70154 0.41294 0.0
H656 H 0.0824 0.79019 0.50742 0.0
H657 H 0.09948 0.7567 0.47869 0.0
C658 C 0.75167 0.04777 0.53953 0.0
C659 C 0.72774 0.04416 0.52883 0.0
C660 C 0.77011 0.05666 0.52108 0.0
C661 C 0.77888 0.09327 0.45419 0.0
H662 H 0.84627 0.07124 0.46282 0.0
C663 C 0.88473 0.11572 0.41242 0.0
C664 C 0.88457 0.14135 0.41646 0.0
C665 C 0.86394 0.10175 0.41905 0.0
C666 C 0.82751 0.07736 0.45963 0.0
H667 H 0.70455 0.04641 0.49008 0.0
H668 H 0.73689 0.06184 0.45778 0.0
H669 H 0.8136 0.04948 0.48829 0.0
H670 H 0.8619 0.17262 0.42849 0.0
H671 H 0.82583 0.14827 0.44055 0.0
H672 H 0.79289 0.12132 0.42572 0.0
C673 C 0.74127 0.05802 0.48056 0.0
C674 C 0.80882 0.06506 0.47458 0.0
C675 C 0.7228 0.04907 0.49904 0.0
C676 C 0.86265 0.1529 0.42522 0.0
C677 C 0.8419 0.13891 0.43201 0.0
C678 C 0.79761 0.10557 0.43917 0.0
C679 C 0.76507 0.06214 0.49147 0.0
C680 C 0.78438 0.07326 0.47265 0.0
C681 C 0.84259 0.1131 0.42999 0.0
C682 C 0.82222 0.09811 0.44229 0.0
H683 H 0.7561 0.0442 0.56236 0.0
H684 H 0.78815 0.05997 0.5303 0.0
H685 H 0.76025 0.10012 0.45234 0.0
H686 H 0.90125 0.10628 0.40533 0.0
H687 H 0.86489 0.08195 0.41663 0.0
C688 C 0.49307 0.90355 0.96561 0.0
C689 C 0.49402 0.90272 0.93473 0.0
C690 C 0.4953 0.92594 0.9804 0.0
C691 C 0.48395 0.99152 0.96755 0.0
H692 H 0.5159 -0.00013 0.04307 0.0
C693 C 0.49605 0.08563 0.02488 0.0
C694 C 0.49437 0.08628 0.05572 0.0
C695 C 0.49463 0.06328 0.00985 0.0
C696 C 0.5066 -0.00229 0.02217 0.0
H697 H 0.5002 0.92437 0.89534 0.0
H698 H 0.50451 0.96336 0.92124 0.0
H699 H 0.51944 0.9607 0.01725 0.0
H700 H 0.48799 0.06424 0.09476 0.0
H701 H 0.48515 0.02531 0.06843 0.0
H702 H 0.47109 0.02852 0.97248 0.0
C703 C 0.50137 0.9468 0.93393 0.0
C704 C 0.50874 0.97533 0.00733 0.0
C705 C 0.49911 0.92442 0.91913 0.0
C706 C 0.48957 0.06435 0.07101 0.0
C707 C 0.48817 0.04201 0.05598 0.0
C708 C 0.48183 0.01391 0.98237 0.0
C709 C 0.49862 0.94791 0.96462 0.0
C710 C 0.49742 0.97198 0.97987 0.0
C711 C 0.49146 0.04116 0.02535 0.0
C712 C 0.49307 0.01722 0.00988 0.0
H713 H 0.48923 0.88714 0.9783 0.0
H714 H 0.49306 0.92619 0.00407 0.0
H715 H 0.47459 0.98936 0.94669 0.0
H716 H 0.4997 0.10221 0.01242 0.0
H717 H 0.49728 0.06322 0.98624 0.0
C718 C 0.40667 0.49588 0.00455 0.0
C719 C 0.40405 0.50029 0.03487 0.0
C720 C 0.43004 0.494 0.99196 0.0
C721 C 0.49249 0.51611 0.00454 0.0
H722 H 0.5117 0.4678 0.9462 0.0
C723 C 0.59289 0.5009 0.96941 0.0
C724 C 0.59779 0.49338 0.94044 0.0
C725 C 0.56873 0.50393 0.97903 0.0
C726 C 0.50648 0.48171 0.96206 0.0
H727 H 0.42384 0.50437 0.07603 0.0
H728 H 0.46448 0.50098 0.05405 0.0
H729 H 0.47048 0.46635 0.96729 0.0
H730 H 0.58127 0.48495 0.89821 0.0
H731 H 0.53908 0.49083 0.91483 0.0
H732 H 0.5283 0.53161 -0.00068 0.0
C733 C 0.44849 0.49945 0.03998 0.0
C734 C 0.48293 0.48075 0.97425 0.0
C735 C 0.42519 0.5012 0.05257 0.0
C736 C 0.57809 0.49057 0.92075 0.0
C737 C 0.55391 0.49371 0.93033 0.0
C738 C 0.51594 0.51719 0.99223 0.0
C739 C 0.45115 0.4966 0.00946 0.0
C740 C 0.47585 0.49774 0.9959 0.0
C741 C 0.54893 0.49967 0.95982 0.0
C742 C 0.52333 0.49983 0.9711 0.0
H743 H 0.39073 0.49504 0.99032 0.0
H744 H 0.43158 0.49175 0.96837 0.0
H745 H 0.48731 0.52978 0.02074 0.0
H746 H 0.60764 0.50317 0.98518 0.0
H747 H 0.56559 0.50835 0.00194 0.0
C748 C 0.9859 0.57796 0.93428 0.0
C749 C 0.9936 0.59776 0.95189 0.0
C750 C 0.98489 0.55421 0.94584 0.0
C751 C 0.01433 0.51767 0.00369 0.0
H752 H 0.96619 0.46843 0.98197 0.0
C753 C 0.00717 0.42179 0.05767 0.0
C754 C -0.00013 0.40197 0.03987 0.0
C755 C 0.00858 0.4455 0.04604 0.0
C756 C 0.97998 0.48191 0.98785 0.0
H757 H 0.00403 0.60854 0.99612 0.0
H758 H 0.00179 0.56713 0.0164 0.0
H759 H 0.96092 0.51072 0.96529 0.0
H760 H 0.99058 0.39109 0.9953 0.0
H761 H 0.99335 0.43246 0.97499 0.0
H762 H 0.03331 0.48884 0.02637 0.0
C763 C -0.00276 0.56989 0.99345 0.0
C764 C 0.97688 0.50614 0.97844 0.0
C765 C -0.00172 0.59364 0.98188 0.0
C766 C 0.99602 0.406 0.00968 0.0
C767 C -0.00261 0.42972 -0.00192 0.0
C768 C 0.0174 0.49344 0.01315 0.0
C769 C 0.99144 0.54982 0.97527 0.0
C770 C 0.99401 0.52429 0.98628 0.0
C771 C 0.00275 0.44982 0.0164 0.0
C772 C 0.00028 0.47531 0.00529 0.0
H773 H 0.98207 0.58051 0.91111 0.0
H774 H 0.98037 0.53913 0.93125 0.0
H775 H 0.02814 0.53112 0.00958 0.0
H776 H 0.01039 0.41929 0.08098 0.0
H777 H 0.01278 0.46063 0.06071 0.0
C778 C 0.09003 0.00248 0.00895 0.0
C779 C 0.0925 -0.00234 0.03918 0.0
C780 C 0.06678 0.00577 0.99652 0.0
C781 C 0.00284 0.9879 0.00939 0.0
H782 H 0.98778 0.03606 0.94918 0.0
C783 C 0.90432 0.00749 0.96932 0.0
C784 C 0.90081 0.01332 0.93952 0.0
C785 C 0.92796 0.00419 0.98054 0.0
C786 C 0.99182 0.02226 0.96565 0.0
H787 H 0.07266 0.99417 0.08038 0.0
H788 H 0.03218 0.00015 0.05869 0.0
H789 H 0.02863 0.03534 0.9713 0.0
H790 H 0.91926 0.01884 0.89773 0.0
H791 H 0.96052 0.01264 0.91725 0.0
H792 H 0.96614 0.97473 0.00374 0.0
C793 C 0.04818 0.00087 0.04454 0.0
C794 C 0.01517 0.02194 0.9784 0.0
C795 C 0.07139 -0.00236 0.05697 0.0
C796 C 0.92135 0.01452 0.92085 0.0
C797 C 0.94501 0.01119 0.93207 0.0
C798 C 0.97955 0.98816 0.9966 0.0
C799 C 0.0456 0.00427 0.01408 0.0
C800 C 0.02085 0.00487 0.00054 0.0
C801 C 0.94859 0.00656 0.96217 0.0
C802 C 0.97373 0.00543 0.9747 0.0
H803 H 0.10595 0.00264 0.99465 0.0
H804 H 0.06535 0.00833 0.97296 0.0
H805 H 0.00686 0.97418 0.02598 0.0
H806 H 0.88888 0.00643 0.98431 0.0
H807 H 0.9301 0.00082 0.00387 0.0
C808 C 0.4832 0.56787 0.55485 0.0
C809 C 0.48289 0.58887 0.53687 0.0
C810 C 0.48762 0.5447 0.54281 0.0
C811 C 0.48237 0.51128 0.4729 0.0
H812 H 0.51802 0.46069 0.51529 0.0
C813 C 0.50502 0.41459 0.42586 0.0
C814 C 0.50337 0.39466 0.44546 0.0
C815 C 0.50149 0.43865 0.43585 0.0
C816 C 0.50778 0.47457 0.50336 0.0
H817 H 0.48828 0.6022 0.49237 0.0
H818 H 0.49643 0.56165 0.47138 0.0
H819 H 0.51682 0.50242 0.53471 0.0
H820 H 0.49506 0.38422 0.49044 0.0
H821 H 0.48874 0.42616 0.50773 0.0
H822 H 0.47346 0.48328 0.44148 0.0
C823 C 0.49275 0.56311 0.49473 0.0
C824 C 0.50716 0.49848 0.51443 0.0
C825 C 0.48831 0.58635 0.50679 0.0
C826 C 0.49664 0.39916 0.47481 0.0
C827 C 0.49322 0.42319 0.48479 0.0
C828 C 0.48311 0.48733 0.46174 0.0
C829 C 0.49193 0.54199 0.51252 0.0
C830 C 0.49422 0.51706 0.49952 0.0
C831 C 0.49631 0.4432 0.46561 0.0
C832 C 0.49558 0.46869 0.47706 0.0
H833 H 0.47912 0.56916 0.57812 0.0
H834 H 0.48663 0.52881 0.55711 0.0
H835 H 0.47194 0.52508 0.4611 0.0
H836 H 0.5101 0.41174 0.40308 0.0
H837 H 0.50399 0.45372 0.42058 0.0
C838 C 0.06622 0.50924 0.41052 0.0
C839 C 0.08765 0.50546 0.42717 0.0
C840 C 0.04308 0.50684 0.4235 0.0
C841 C 0.01088 0.48353 0.48987 0.0
H842 H 0.96465 0.53596 0.47252 0.0
C843 C 0.92628 0.49951 0.56184 0.0
C844 C 0.90378 0.50101 0.54679 0.0
C845 C 0.94842 0.50151 0.54661 0.0
C846 C 0.97732 0.52113 0.47741 0.0
H847 H 0.10158 0.4947 0.47001 0.0
H848 H 0.06137 0.49082 0.49267 0.0
H849 H 0.00354 0.53382 0.44587 0.0
H850 H 0.88685 0.50779 0.50433 0.0
H851 H 0.92565 0.51148 0.47776 0.0
H852 H 0.98483 0.47112 0.52177 0.0
C853 C 0.06233 0.49546 0.46954 0.0
C854 C -0.00049 0.51978 0.46204 0.0
C855 C 0.08544 0.49777 0.45655 0.0
C856 C 0.90388 0.50645 0.51656 0.0
C857 C 0.92609 0.50856 0.50132 0.0
C858 C 0.98879 0.48498 0.50534 0.0
C859 C 0.04091 0.50064 0.45339 0.0
C860 C 0.01663 0.50105 0.46826 0.0
C861 C 0.94853 0.50522 0.51605 0.0
C862 C 0.97189 0.50391 0.49945 0.0
H863 H 0.06729 0.51502 0.38776 0.0
H864 H 0.0269 0.51042 0.4103 0.0
H865 H 0.02345 0.46864 0.49485 0.0
H866 H 0.92686 0.49556 0.58518 0.0
H867 H 0.9655 0.4994 0.5586 0.0
C868 C 0.00652 0.90743 0.52228 0.0
C869 C 0.01068 0.90601 0.55273 0.0
C870 C 0.00343 0.93025 0.50866 0.0
C871 C 0.98994 0.99583 0.52266 0.0
H872 H 0.02778 0.00612 0.45142 0.0
C873 C -0.00196 0.09157 0.47027 0.0
C874 C 0.99356 0.09244 0.43986 0.0
C875 C 0.00215 0.06907 0.48425 0.0
C876 C 0.017 0.00348 0.47118 0.0
H877 H 0.01339 0.92725 0.59302 0.0
H878 H 0.00803 0.96698 0.56925 0.0
H879 H 0.02823 0.96592 0.47518 0.0
H880 H 0.99151 0.07061 0.39997 0.0
H881 H -0.00144 0.03144 0.42435 0.0
H882 H 0.97861 0.03335 0.5186 0.0
C883 C 0.00715 0.95051 0.55589 0.0
C884 C 0.01715 0.98044 0.48471 0.0
C885 C 0.0103 0.92772 0.56949 0.0
C886 C 0.9948 0.07056 0.42346 0.0
C887 C -0.00106 0.04809 0.43742 0.0
C888 C 0.98977 0.01887 0.50912 0.0
C889 C 0.00432 0.95205 0.52525 0.0
C890 C 0.00357 0.97636 0.51054 0.0
C891 C 0.00195 0.04703 0.46807 0.0
C892 C 0.00325 0.02293 0.4832 0.0
H893 H 0.00661 0.89103 0.50876 0.0
H894 H 0.00081 0.93086 0.48506 0.0
H895 H 0.97911 0.99317 0.54239 0.0
H896 H -0.00266 0.10813 0.48351 0.0
H897 H 0.00489 0.06885 0.50785 0.0
C898 C 0.56874 0.99248 0.56399 0.0
C899 C 0.59064 0.99433 0.54777 0.0
C900 C 0.54612 0.99142 0.54964 0.0
C901 C 0.51575 0.98032 0.47852 0.0
H902 H 0.46726 0.02619 0.5088 0.0
C903 C 0.42497 0.99739 0.41752 0.0
C904 C 0.40373 0.99692 0.43507 0.0
C905 C 0.44817 -0.0009 0.43044 0.0
C906 C 0.48052 0.01317 0.50021 0.0
H907 H 0.60611 0.99465 0.50377 0.0
H908 H 0.56652 0.99268 0.47874 0.0
H909 H 0.50681 0.02213 0.53345 0.0
H910 H 0.39007 -0.00053 0.47981 0.0
H911 H 0.43047 0.0022 0.50233 0.0
H912 H 0.48936 0.97111 0.44549 0.0
C913 C 0.56689 0.99217 0.50254 0.0
C914 C 0.50313 0.01078 0.51437 0.0
C915 C 0.58956 0.99331 0.5169 0.0
C916 C 0.40607 -0.00024 0.46566 0.0
C917 C 0.42927 0.00139 0.47858 0.0
C918 C 0.49307 0.98262 0.46442 0.0
C919 C 0.54494 0.99206 0.5188 0.0
C920 C 0.52091 0.99423 0.50378 0.0
C921 C 0.45059 0.00036 0.46117 0.0
C922 C 0.47516 -0.001 0.47519 0.0
H923 H 0.56894 0.993 0.5878 0.0
H924 H 0.52948 0.9908 0.5627 0.0
H925 H 0.52908 0.96733 0.47 0.0
H926 H 0.42377 0.99544 0.39386 0.0
H927 H 0.46425 -0.00118 0.4164 0.0
C928 C 0.52727 0.24005 0.38676 0.0
C929 C 0.52137 0.2652 0.3863 0.0
C930 C 0.52257 0.22527 0.36234 0.0
C931 C 0.48946 0.22224 0.29109 0.0
H932 H 0.54442 0.18069 0.26901 0.0
C933 C 0.50477 0.18378 0.17392 0.0
C934 C 0.51593 0.16057 0.17108 0.0
C935 C 0.50124 0.1942 0.2017 0.0
C936 C 0.52867 0.19179 0.27509 0.0
H937 H 0.50487 0.29438 0.36041 0.0
H938 H 0.4971 0.26861 0.31745 0.0
H939 H 0.54584 0.20331 0.31494 0.0
H940 H 0.53054 0.12936 0.19513 0.0
H941 H 0.52406 0.14739 0.24354 0.0
H942 H 0.47264 0.21107 0.25061 0.0
C943 C 0.50509 0.26026 0.33684 0.0
C944 C 0.5295 0.20479 0.30146 0.0
C945 C 0.50968 0.27505 0.36139 0.0
C946 C 0.52219 0.14741 0.19658 0.0
C947 C 0.51856 0.15778 0.22431 0.0
C948 C 0.48864 0.20918 0.26459 0.0
C949 C 0.51201 0.23533 0.33684 0.0
C950 C 0.51003 0.22033 0.30967 0.0
C951 C 0.50873 0.18158 0.22714 0.0
C952 C 0.50836 0.19399 0.2562 0.0
H953 H 0.53599 0.23182 0.40578 0.0
H954 H 0.52766 0.20602 0.36324 0.0
H955 H 0.47407 0.23388 0.29697 0.0
H956 H 0.49969 0.19436 0.15468 0.0
H957 H 0.49378 0.21264 0.20311 0.0
C958 C 0.23416 0.53267 0.34568 0.0
C959 C 0.21038 0.52352 0.3505 0.0
C960 C 0.24693 0.52676 0.32006 0.0
C961 C 0.23683 0.50987 0.24351 0.0
H962 H 0.30721 0.49855 0.24437 0.0
C963 C 0.29349 0.50468 0.13625 0.0
C964 C 0.31474 0.51936 0.13644 0.0
C965 C 0.28104 0.4996 0.16247 0.0
C966 C 0.28755 0.50169 0.24376 0.0
H967 H 0.18151 0.50053 0.33248 0.0
H968 H 0.20388 0.49033 0.28739 0.0
H969 H 0.28454 0.49983 0.29064 0.0
H970 H 0.34012 0.53939 0.16437 0.0
H971 H 0.31838 0.53076 0.20982 0.0
H972 H 0.23997 0.51271 0.19673 0.0
C973 C 0.21255 0.50213 0.30353 0.0
C974 C 0.27459 0.5024 0.27023 0.0
C975 C 0.1998 0.50791 0.32935 0.0
C976 C 0.32376 0.52808 0.16343 0.0
C977 C 0.3114 0.52295 0.18956 0.0
C978 C 0.24982 0.50922 0.217 0.0
C979 C 0.23619 0.51164 0.29856 0.0
C980 C 0.24922 0.5072 0.27043 0.0
C981 C 0.2897 0.50897 0.18936 0.0
C982 C 0.27543 0.50583 0.21692 0.0
H983 H 0.24287 0.54468 0.36157 0.0
H984 H 0.26497 0.53467 0.31668 0.0
H985 H 0.21732 0.5138 0.24298 0.0
H986 H 0.28612 0.49762 0.1158 0.0
H987 H 0.26448 0.48859 0.16166 0.0
C988 C 0.98762 0.28527 0.13442 0.0
C989 C 0.9822 0.31001 0.14069 0.0
C990 C 0.99254 0.26873 0.15714 0.0
C991 C 0.00909 0.2631 0.23533 0.0
H992 H 0.96586 0.20649 0.23392 0.0
C993 C 0.98502 0.20789 0.33933 0.0
C994 C 0.9789 0.18291 0.33665 0.0
C995 C 0.99041 0.22186 0.3144 0.0
C996 C 0.97855 0.2218 0.23448 0.0
H997 H 0.9792 0.33715 0.1755 0.0
H998 H 0.98797 0.30821 0.21519 0.0
H999 H 0.96721 0.23392 0.19186 0.0
H1000 H 0.97523 0.15253 0.30611 0.0
H1001 H 0.98553 0.17663 0.26269 0.0
H1002 H 0.02036 0.25108 0.27805 0.0
C1003 C 0.98834 0.30166 0.1927 0.0
C1004 C 0.97923 0.23759 0.21034 0.0
C1005 C 0.98316 0.31817 0.16999 0.0
C1006 C 0.97954 0.17184 0.30877 0.0
C1007 C 0.98532 0.18571 0.28388 0.0
C1008 C 0.00867 0.2471 0.25939 0.0
C1009 C 0.99242 0.27667 0.18652 0.0
C1010 C 0.99412 0.25863 0.21077 0.0
C1011 C 0.99016 0.21106 0.28628 0.0
C1012 C 0.99297 0.22654 0.25952 0.0
H1013 H 0.98713 0.27842 0.11205 0.0
H1014 H 0.99583 0.24958 0.15182 0.0
H1015 H 0.02088 0.27912 0.23605 0.0
H1016 H 0.98462 0.21694 0.36055 0.0
H1017 H 0.9937 0.24136 0.31715 0.0
C1018 C 0.29411 0.00079 0.33559 0.0
C1019 C 0.31206 0.98223 0.33385 0.0
C1020 C 0.28013 0.00702 0.3109 0.0
C1021 C 0.24152 0.00121 0.26337 0.0
H1022 H 0.26709 0.99655 0.18399 0.0
C1023 C 0.1817 0.97371 0.1653 0.0
C1024 C 0.18702 0.983 0.13721 0.0
C1025 C 0.19648 0.97975 0.18929 0.0
C1026 C 0.25964 -0.0016 0.20597 0.0
H1027 H 0.33014 0.9564 0.30457 0.0
H1028 H 0.30551 0.96683 0.26185 0.0
H1029 H 0.2954 0.99697 0.22541 0.0
H1030 H 0.21128 0.00696 0.1125 0.0
H1031 H 0.23695 0.01779 0.15457 0.0
H1032 H 0.20575 0.00253 0.24395 0.0
C1033 C 0.30242 0.97691 0.28207 0.0
C1034 C 0.27588 -0.00168 0.22974 0.0
C1035 C 0.31644 0.97077 0.30667 0.0
C1036 C 0.20681 -0.00065 0.13385 0.0
C1037 C 0.22158 0.00547 0.15791 0.0
C1038 C 0.22529 0.00144 0.2396 0.0
C1039 C 0.28377 0.99476 0.28401 0.0
C1040 C 0.26696 -0.00108 0.25875 0.0
C1041 C 0.21686 0.99534 0.18579 0.0
C1042 C 0.23412 -0.00078 0.21067 0.0
H1043 H 0.29042 0.0101 0.35618 0.0
H1044 H 0.26615 0.0211 0.31302 0.0
H1045 H 0.23397 0.00157 0.28541 0.0
H1046 H 0.16658 0.96109 0.16868 0.0
H1047 H 0.19249 0.97132 0.21032 0.0
C1048 C 0.48137 0.8267 0.79872 0.0
C1049 C 0.47892 0.81563 0.82644 0.0
C1050 C 0.48689 0.81248 0.77398 0.0
C1051 C 0.50587 0.74932 0.75007 0.0
H1052 H 0.46733 0.76582 0.68111 0.0
C1053 C 0.47567 0.68009 0.66096 0.0
C1054 C 0.47601 0.68786 0.6315 0.0
C1055 C 0.48199 0.69635 0.68351 0.0
C1056 C 0.47856 0.76119 0.69999 0.0
H1057 H 0.48122 0.78115 0.85026 0.0
H1058 H 0.48985 0.75625 0.80713 0.0
H1059 H 0.4674 0.79349 0.723 0.0
H1060 H 0.48435 0.7184 0.60244 0.0
H1061 H 0.49499 0.74688 0.64194 0.0
H1062 H 0.51574 0.71618 0.72731 0.0
C1063 C 0.48818 0.77596 0.80439 0.0
C1064 C 0.47869 0.77711 0.72405 0.0
C1065 C 0.48304 0.79023 0.82917 0.0
C1066 C 0.48383 0.71188 0.62493 0.0
C1067 C 0.48985 0.72821 0.64751 0.0
C1068 C 0.50545 0.73322 0.7261 0.0
C1069 C 0.48967 0.78682 0.77637 0.0
C1070 C 0.49199 0.77119 0.74963 0.0
C1071 C 0.4885 0.72074 0.67702 0.0
C1072 C 0.49146 0.73885 0.70104 0.0
H1073 H 0.47861 0.84631 0.79602 0.0
H1074 H 0.48846 0.82158 0.75289 0.0
H1075 H 0.5167 0.74438 0.76915 0.0
H1076 H 0.46986 0.66166 0.6667 0.0
H1077 H 0.48061 0.69019 0.7061 0.0
C1078 C 0.8311 0.46245 0.68132 0.0
C1079 C 0.82135 0.47326 0.6558 0.0
C1080 C 0.81925 0.4652 0.70833 0.0
C1081 C 0.75807 0.47663 0.73916 0.0
H1082 H 0.79397 0.48253 0.81249 0.0
C1083 C 0.70914 0.47946 0.8519 0.0
C1084 C 0.71944 0.46449 0.87389 0.0
C1085 C 0.72182 0.48374 0.82567 0.0
C1086 C 0.78371 0.48077 0.79219 0.0
H1087 H 0.79195 0.49622 0.63881 0.0
H1088 H 0.77132 0.50115 0.68614 0.0
H1089 H 0.81602 0.48507 0.76587 0.0
H1090 H 0.75126 0.44254 0.88576 0.0
H1091 H 0.77323 0.44983 0.83996 0.0
H1092 H 0.72584 0.47185 0.76547 0.0
C1093 C 0.788 0.49029 0.68512 0.0
C1094 C 0.79633 0.48224 0.76551 0.0
C1095 C 0.7999 0.48758 0.65806 0.0
C1096 C 0.7428 0.45416 0.86927 0.0
C1097 C 0.75548 0.45849 0.8431 0.0
C1098 C 0.74545 0.47519 0.76585 0.0
C1099 C 0.79736 0.47882 0.71046 0.0
C1100 C 0.78371 0.47976 0.7387 0.0
C1101 C 0.74509 0.47322 0.82094 0.0
C1102 C 0.75819 0.47681 0.79266 0.0
H1103 H 0.84761 0.45132 0.68036 0.0
H1104 H 0.82679 0.45587 0.72735 0.0
H1105 H 0.74785 0.47432 0.71891 0.0
H1106 H 0.69121 0.48777 0.85483 0.0
H1107 H 0.71344 0.49536 0.80912 0.0
C1108 C 0.00611 0.7848 0.64453 0.0
C1109 C 0.01436 0.8087 0.65094 0.0
C1110 C -0.00042 0.76877 0.66719 0.0
C1111 C 0.98399 0.76452 0.74593 0.0
H1112 H 0.02106 0.70363 0.74298 0.0
C1113 C 0.0073 0.70834 0.84922 0.0
C1114 C 0.01111 0.68287 0.84676 0.0
C1115 C 0.00178 0.72238 0.82439 0.0
C1116 C 0.01002 0.72019 0.74399 0.0
H1117 H 0.02069 0.83507 0.68594 0.0
H1118 H 0.00918 0.80704 0.72549 0.0
H1119 H 0.02122 0.73097 0.70083 0.0
H1120 H 0.01039 0.65183 0.81685 0.0
H1121 H -0.00011 0.67617 0.77364 0.0
H1122 H 0.97298 0.75388 0.78926 0.0
C1123 C 0.00781 0.80074 0.70295 0.0
C1124 C 0.01021 0.73592 0.71978 0.0
C1125 C 0.01457 0.81671 0.68032 0.0
C1126 C 0.0079 0.6715 0.81932 0.0
C1127 C 0.002 0.68548 0.79454 0.0
C1128 C 0.98353 0.74862 0.77007 0.0
C1129 C 0.00091 0.77642 0.69663 0.0
C1130 C -0.00231 0.75849 0.72078 0.0
C1131 C -0.0004 0.7112 0.7966 0.0
C1132 C -0.00291 0.72654 0.76968 0.0
H1133 H 0.00561 0.77811 0.6221 0.0
H1134 H 0.99413 0.75015 0.66174 0.0
H1135 H 0.97399 0.78174 0.7471 0.0
H1136 H 0.00969 0.71764 0.8701 0.0
H1137 H 0.00041 0.74214 0.82684 0.0
C1138 C 0.66294 0.01591 0.6846 0.0
C1139 C 0.67324 0.00908 0.65748 0.0
C1140 C 0.6749 0.01021 0.71086 0.0
C1141 C 0.73687 0.00028 0.73869 0.0
H1142 H 0.70259 0.98672 0.81167 0.0
C1143 C 0.78687 0.00427 0.85006 0.0
C1144 C 0.77476 0.01868 0.87126 0.0
C1145 C 0.77447 0.99647 0.8248 0.0
C1146 C 0.71242 0.99046 0.79145 0.0
H1147 H 0.70352 0.98976 0.63666 0.0
H1148 H 0.72441 0.97976 0.68268 0.0
H1149 H 0.6804 0.98445 0.76507 0.0
H1150 H 0.73986 0.0352 0.8833 0.0
H1151 H 0.7184 0.02189 0.83923 0.0
H1152 H 0.76861 0.00729 0.76504 0.0
C1153 C 0.7072 0.98975 0.68354 0.0
C1154 C 0.69973 0.98915 0.7648 0.0
C1155 C 0.69518 0.9954 0.65722 0.0
C1156 C 0.74976 0.02422 0.86733 0.0
C1157 C 0.73738 0.01639 0.84216 0.0
C1158 C 0.74955 0.00159 0.76532 0.0
C1159 C 0.69744 -0.00243 0.7106 0.0
C1160 C 0.71165 0.99478 0.73823 0.0
C1161 C 0.74971 0.00285 0.82034 0.0
C1162 C 0.73728 0.99743 0.79205 0.0
H1163 H 0.64601 0.02638 0.68558 0.0
H1164 H 0.66703 0.01677 0.7313 0.0
H1165 H 0.74652 0.00501 0.71865 0.0
H1166 H 0.8061 -0.00044 0.85255 0.0
H1167 H 0.78439 0.98584 0.8085 0.0
loop_
_geom_bond_atom_site_label_1
_geom_bond_atom_site_label_2
_geom_bond_distance
_geom_bond_site_symmetry_2
_ccdc_geom_bond_type
C0 O1 1.160 . S
C0 O7 1.185 . S
O1 C0 1.160 . S
O2 Zn3 1.899 . S
O2 C10 1.284 . S
Zn3 O2 1.899 . S
Zn3 O4 2.032 . S
Zn3 O7 2.086 . S
Zn3 O12 1.977 . S
O4 Zn3 2.032 . S
O4 C8 1.278 . S
C5 O6 1.203 . S
C5 O12 1.267 . S
O6 C5 1.203 . S
O7 C0 1.185 . S
O7 Zn3 2.086 . S
C8 O4 1.278 . S
C8 O9 1.211 . S
O9 C8 1.211 . S
C10 O2 1.284 . S
C10 O11 1.273 . S
O11 C10 1.273 . S
O12 Zn3 1.977 . S
O12 C5 1.267 . S
C13 O14 1.160 . S
C13 O20 1.185 . S
O14 C13 1.160 . S
O15 Zn16 1.899 . S
O15 C23 1.284 . S
Zn16 O15 1.899 . S
Zn16 O17 2.032 . S
Zn16 O20 2.086 . S
Zn16 O25 1.977 . S
O17 Zn16 2.032 . S
O17 C21 1.278 . S
C18 O19 1.203 . S
C18 O25 1.267 . S
O19 C18 1.203 . S
O20 C13 1.185 . S
O20 Zn16 2.086 . S
C21 O17 1.278 . S
C21 O22 1.211 . S
O22 C21 1.211 . S
C23 O15 1.284 . S
C23 O24 1.273 . S
O24 C23 1.273 . S
O25 Zn16 1.977 . S
O25 C18 1.267 . S
C26 O27 1.160 . S
C26 O33 1.185 . S
O27 C26 1.160 . S
O28 Zn29 1.899 . S
O28 C36 1.284 . S
Zn29 O28 1.899 . S
Zn29 O30 2.032 . S
Zn29 O33 2.086 . S
Zn29 O38 1.977 . S
O30 Zn29 2.032 . S
O30 C34 1.278 . S
C31 O32 1.203 . S
C31 O38 1.267 . S
O32 C31 1.203 . S
O33 C26 1.185 . S
O33 Zn29 2.086 . S
C34 O30 1.278 . S
C34 O35 1.211 . S
O35 C34 1.211 . S
C36 O28 1.284 . S
C36 O37 1.273 . S
O37 C36 1.273 . S
O38 Zn29 1.977 . S
O38 C31 1.267 . S
C39 O40 1.160 . S
C39 O46 1.185 . S
O40 C39 1.160 . S
O41 Zn42 1.899 . S
O41 C49 1.284 . S
Zn42 O41 1.899 . S
Zn42 O43 2.032 . S
Zn42 O46 2.086 . S
Zn42 O51 1.977 . S
O43 Zn42 2.032 . S
O43 C47 1.278 . S
C44 O45 1.203 . S
C44 O51 1.267 . S
O45 C44 1.203 . S
O46 C39 1.185 . S
O46 Zn42 2.086 . S
C47 O43 1.278 . S
C47 O48 1.211 . S
O48 C47 1.211 . S
C49 O41 1.284 . S
C49 O50 1.273 . S
O50 C49 1.273 . S
O51 Zn42 1.977 . S
O51 C44 1.267 . S
C52 O53 1.160 . S
C52 O59 1.185 . S
O53 C52 1.160 . S
O54 Zn55 1.899 . S
O54 C62 1.284 . S
Zn55 O54 1.899 . S
Zn55 O56 2.032 . S
Zn55 O59 2.086 . S
Zn55 O64 1.977 . S
O56 Zn55 2.032 . S
O56 C60 1.278 . S
C57 O58 1.203 . S
C57 O64 1.267 . S
O58 C57 1.203 . S
O59 C52 1.185 . S
O59 Zn55 2.086 . S
C60 O56 1.278 . S
C60 O61 1.211 . S
O61 C60 1.211 . S
C62 O54 1.284 . S
C62 O63 1.273 . S
O63 C62 1.273 . S
O64 Zn55 1.977 . S
O64 C57 1.267 . S
C65 O66 1.160 . S
C65 O72 1.185 . S
O66 C65 1.160 . S
O67 Zn68 1.899 . S
O67 C75 1.284 . S
Zn68 O67 1.899 . S
Zn68 O69 2.032 . S
Zn68 O72 2.086 . S
Zn68 O77 1.977 . S
O69 Zn68 2.032 . S
O69 C73 1.278 . S
C70 O71 1.203 . S
C70 O77 1.267 . S
O71 C70 1.203 . S
O72 C65 1.185 . S
O72 Zn68 2.086 . S
C73 O69 1.278 . S
C73 O74 1.211 . S
O74 C73 1.211 . S
C75 O67 1.284 . S
C75 O76 1.273 . S
O76 C75 1.273 . S
O77 Zn68 1.977 . S
O77 C70 1.267 . S
C78 O79 1.160 . S
C78 O85 1.185 . S
O79 C78 1.160 . S
O80 Zn81 1.899 . S
O80 C88 1.284 . S
Zn81 O80 1.899 . S
Zn81 O82 2.032 . S
Zn81 O85 2.086 . S
Zn81 O90 1.977 . S
O82 Zn81 2.032 . S
O82 C86 1.278 . S
C83 O84 1.203 . S
C83 O90 1.267 . S
O84 C83 1.203 . S
O85 C78 1.185 . S
O85 Zn81 2.086 . S
C86 O82 1.278 . S
C86 O87 1.211 . S
O87 C86 1.211 . S
C88 O80 1.284 . S
C88 O89 1.273 . S
O89 C88 1.273 . S
O90 Zn81 1.977 . S
O90 C83 1.267 . S
C91 O92 1.160 . S
C91 O98 1.185 . S
O92 C91 1.160 . S
O93 Zn94 1.899 . S
O93 C101 1.284 . S
Zn94 O93 1.899 . S
Zn94 O95 2.032 . S
Zn94 O98 2.086 . S
Zn94 O103 1.977 . S
O95 Zn94 2.032 . S
O95 C99 1.278 . S
C96 O97 1.203 . S
C96 O103 1.267 . S
O97 C96 1.203 . S
O98 C91 1.185 . S
O98 Zn94 2.086 . S
C99 O95 1.278 . S
C99 O100 1.211 . S
O100 C99 1.211 . S
C101 O93 1.284 . S
C101 O102 1.273 . S
O102 C101 1.273 . S
O103 Zn94 1.977 . S
O103 C96 1.267 . S
C104 O105 1.160 . S
C104 O111 1.185 . S
O105 C104 1.160 . S
O106 Zn107 1.899 . S
O106 C114 1.284 . S
Zn107 O106 1.899 . S
Zn107 O108 2.032 . S
Zn107 O111 2.086 . S
Zn107 O116 1.977 . S
O108 Zn107 2.032 . S
O108 C112 1.278 . S
C109 O110 1.203 . S
C109 O116 1.267 . S
O110 C109 1.203 . S
O111 C104 1.185 . S
O111 Zn107 2.086 . S
C112 O108 1.278 . S
C112 O113 1.211 . S
O113 C112 1.211 . S
C114 O106 1.284 . S
C114 O115 1.273 . S
O115 C114 1.273 . S
O116 Zn107 1.977 . S
O116 C109 1.267 . S
C117 O118 1.160 . S
C117 O124 1.185 . S
O118 C117 1.160 . S
O119 Zn120 1.899 . S
O119 C127 1.284 . S
Zn120 O119 1.899 . S
Zn120 O121 2.032 . S
Zn120 O124 2.086 . S
Zn120 O129 1.977 . S
O121 Zn120 2.032 . S
O121 C125 1.278 . S
C122 O123 1.203 . S
C122 O129 1.267 . S
O123 C122 1.203 . S
O124 C117 1.185 . S
O124 Zn120 2.086 . S
C125 O121 1.278 . S
C125 O126 1.211 . S
O126 C125 1.211 . S
C127 O119 1.284 . S
C127 O128 1.273 . S
O128 C127 1.273 . S
O129 Zn120 1.977 . S
O129 C122 1.267 . S
C130 O131 1.160 . S
C130 O137 1.185 . S
O131 C130 1.160 . S
O132 Zn133 1.899 . S
O132 C140 1.284 . S
Zn133 O132 1.899 . S
Zn133 O134 2.032 . S
Zn133 O137 2.086 . S
Zn133 O142 1.977 . S
O134 Zn133 2.032 . S
O134 C138 1.278 . S
C135 O136 1.203 . S
C135 O142 1.267 . S
O136 C135 1.203 . S
O137 C130 1.185 . S
O137 Zn133 2.086 . S
C138 O134 1.278 . S
C138 O139 1.211 . S
O139 C138 1.211 . S
C140 O132 1.284 . S
C140 O141 1.273 . S
O141 C140 1.273 . S
O142 Zn133 1.977 . S
O142 C135 1.267 . S
C143 O144 1.160 . S
C143 O150 1.185 . S
O144 C143 1.160 . S
O145 Zn146 1.899 . S
O145 C153 1.284 . S
Zn146 O145 1.899 . S
Zn146 O147 2.032 . S
Zn146 O150 2.086 . S
Zn146 O155 1.977 . S
O147 Zn146 2.032 . S
O147 C151 1.278 . S
C148 O149 1.203 . S
C148 O155 1.267 . S
O149 C148 1.203 . S
O150 C143 1.185 . S
O150 Zn146 2.086 . S
C151 O147 1.278 . S
C151 O152 1.211 . S
O152 C151 1.211 . S
C153 O145 1.284 . S
C153 O154 1.273 . S
O154 C153 1.273 . S
O155 Zn146 1.977 . S
O155 C148 1.267 . S
C156 O157 1.160 . S
C156 O163 1.185 . S
O157 C156 1.160 . S
O158 Zn159 1.899 . S
O158 C166 1.284 . S
Zn159 O158 1.899 . S
Zn159 O160 2.032 . S
Zn159 O163 2.086 . S
Zn159 O168 1.977 . S
O160 Zn159 2.032 . S
O160 C164 1.278 . S
C161 O162 1.203 . S
C161 O168 1.267 . S
O162 C161 1.203 . S
O163 C156 1.185 . S
O163 Zn159 2.086 . S
C164 O160 1.278 . S
C164 O165 1.211 . S
O165 C164 1.211 . S
C166 O158 1.284 . S
C166 O167 1.273 . S
O167 C166 1.273 . S
O168 Zn159 1.977 . S
O168 C161 1.267 . S
C169 O170 1.160 . S
C169 O176 1.185 . S
O170 C169 1.160 . S
O171 Zn172 1.899 . S
O171 C179 1.284 . S
Zn172 O171 1.899 . S
Zn172 O173 2.032 . S
Zn172 O176 2.086 . S
Zn172 O181 1.977 . S
O173 Zn172 2.032 . S
O173 C177 1.278 . S
C174 O175 1.203 . S
C174 O181 1.267 . S
O175 C174 1.203 . S
O176 C169 1.185 . S
O176 Zn172 2.086 . S
C177 O173 1.278 . S
C177 O178 1.211 . S
O178 C177 1.211 . S
C179 O171 1.284 . S
C179 O180 1.273 . S
O180 C179 1.273 . S
O181 Zn172 1.977 . S
O181 C174 1.267 . S
C182 O183 1.160 . S
C182 O189 1.185 . S
O183 C182 1.160 . S
O184 Zn185 1.899 . S
O184 C192 1.284 . S
Zn185 O184 1.899 . S
Zn185 O186 2.032 . S
Zn185 O189 2.086 . S
Zn185 O194 1.977 . S
O186 Zn185 2.032 . S
O186 C190 1.278 . S
C187 O188 1.203 . S
C187 O194 1.267 . S
O188 C187 1.203 . S
O189 C182 1.185 . S
O189 Zn185 2.086 . S
C190 O186 1.278 . S
C190 O191 1.211 . S
O191 C190 1.211 . S
C192 O184 1.284 . S
C192 O193 1.273 . S
O193 C192 1.273 . S
O194 Zn185 1.977 . S
O194 C187 1.267 . S
C195 O196 1.160 . S
C195 O202 1.185 . S
O196 C195 1.160 . S
O197 Zn198 1.899 . S
O197 C205 1.284 . S
Zn198 O197 1.899 . S
Zn198 O199 2.032 . S
Zn198 O202 2.086 . S
Zn198 O207 1.977 . S
O199 Zn198 2.032 . S
O199 C203 1.278 . S
C200 O201 1.203 . S
C200 O207 1.267 . S
O201 C200 1.203 . S
O202 C195 1.185 . S
O202 Zn198 2.086 . S
C203 O199 1.278 . S
C203 O204 1.211 . S
O204 C203 1.211 . S
C205 O197 1.284 . S
C205 O206 1.273 . S
O206 C205 1.273 . S
O207 Zn198 1.977 . S
O207 C200 1.267 . S
C208 C209 1.349 . S
C208 C210 1.327 . S
C208 H233 0.950 . S
C209 C208 1.349 . S
C209 C225 1.349 . S
C210 C208 1.327 . S
C210 C229 1.429 . S
C210 H234 0.950 1_554 S
C211 C228 1.574 1_554 S
C211 C230 1.368 1_554 S
C211 H235 0.949 . S
H212 C216 0.949 . S
C213 C214 1.349 . S
C213 C215 1.327 . S
C213 H236 0.950 . S
C214 C213 1.349 . S
C214 C226 1.349 . S
C215 C213 1.327 . S
C215 C231 1.429 . S
C215 H237 0.950 . S
C216 H212 0.949 . S
C216 C224 1.574 . S
C216 C232 1.368 . S
H217 C225 0.950 . S
H218 C223 0.950 . S
H219 C224 0.949 . S
H220 C226 0.950 . S
H221 C227 0.950 . S
H222 C228 0.949 . S
C223 H218 0.950 . S
C223 C225 1.327 . S
C223 C229 1.429 . S
C224 C216 1.574 . S
C224 H219 0.949 . S
C224 C230 1.368 . S
C225 C209 1.349 . S
C225 H217 0.950 . S
C225 C223 1.327 . S
C226 C214 1.349 . S
C226 H220 0.950 . S
C226 C227 1.327 . S
C227 H221 0.950 . S
C227 C226 1.327 . S
C227 C231 1.429 . S
C228 C211 1.574 1_556 S
C228 H222 0.949 . S
C228 C232 1.368 . S
C229 C210 1.429 . S
C229 C223 1.429 . S
C229 C230 1.523 1_554 S
C230 C211 1.368 1_556 S
C230 C224 1.368 . S
C230 C229 1.523 1_556 S
C231 C215 1.429 . S
C231 C227 1.429 . S
C231 C232 1.523 . S
C232 C216 1.368 . S
C232 C228 1.368 . S
C232 C231 1.523 . S
H233 C208 0.950 . S
H234 C210 0.950 1_556 S
H235 C211 0.949 . S
H236 C213 0.950 . S
H237 C215 0.950 . S
C238 C239 1.349 . S
C238 C240 1.327 . S
C238 H263 0.950 . S
C239 C238 1.349 . S
C239 C255 1.349 . S
C240 C238 1.327 . S
C240 C259 1.429 . S
C240 H264 0.950 1_556 S
C241 C258 1.574 . S
C241 C260 1.368 . S
C241 H265 0.949 . S
H242 C246 0.949 . S
C243 C244 1.349 . S
C243 C245 1.327 1_554 S
C243 H266 0.950 1_554 S
C244 C243 1.349 . S
C244 C256 1.349 . S
C245 C243 1.327 1_556 S
C245 C261 1.429 1_556 S
C245 H267 0.950 . S
C246 H242 0.949 . S
C246 C254 1.574 . S
C246 C262 1.368 1_554 S
H247 C255 0.950 . S
H248 C253 0.950 . S
H249 C254 0.949 . S
H250 C256 0.950 . S
H251 C257 0.950 . S
H252 C258 0.949 . S
C253 H248 0.950 . S
C253 C255 1.327 . S
C253 C259 1.429 . S
C254 C246 1.574 . S
C254 H249 0.949 . S
C254 C260 1.368 1_554 S
C255 C239 1.349 . S
C255 H247 0.950 . S
C255 C253 1.327 . S
C256 C244 1.349 . S
C256 H250 0.950 . S
C256 C257 1.327 . S
C257 H251 0.950 . S
C257 C256 1.327 . S
C257 C261 1.429 . S
C258 C241 1.574 . S
C258 H252 0.949 . S
C258 C262 1.368 . S
C259 C240 1.429 . S
C259 C253 1.429 . S
C259 C260 1.523 . S
C260 C241 1.368 . S
C260 C254 1.368 1_556 S
C260 C259 1.523 . S
C261 C245 1.429 1_554 S
C261 C257 1.429 . S
C261 C262 1.523 1_554 S
C262 C246 1.368 1_556 S
C262 C258 1.368 . S
C262 C261 1.523 1_556 S
H263 C238 0.950 . S
H264 C240 0.950 1_554 S
H265 C241 0.949 . S
H266 C243 0.950 1_556 S
H267 C245 0.950 . S
C268 C269 1.349 . S
C268 C270 1.327 . S
C268 H293 0.950 . S
C269 C268 1.349 . S
C269 C285 1.349 . S
C270 C268 1.327 . S
C270 C289 1.429 . S
C270 H294 0.950 . S
C271 C288 1.574 . S
C271 C290 1.368 . S
C271 H295 0.949 . S
H272 C276 0.949 . S
C273 C274 1.349 . S
C273 C275 1.327 1_554 S
C273 H296 0.950 . S
C274 C273 1.349 . S
C274 C286 1.349 . S
C275 C273 1.327 1_556 S
C275 C291 1.429 1_556 S
C275 H297 0.950 . S
C276 H272 0.949 . S
C276 C284 1.569 1_554 S
C276 C292 1.368 1_554 S
H277 C285 0.950 . S
H278 C283 0.950 . S
H279 C284 0.944 1_554 S
H280 C286 0.950 . S
H281 C287 0.950 . S
H282 C288 0.949 . S
C283 H278 0.950 . S
C283 C285 1.327 . S
C283 C289 1.429 . S
C284 C276 1.569 1_556 S
C284 H279 0.944 1_556 S
C284 C290 1.379 . S
C285 C269 1.349 . S
C285 H277 0.950 . S
C285 C283 1.327 . S
C286 C274 1.349 . S
C286 H280 0.950 . S
C286 C287 1.327 . S
C287 H281 0.950 . S
C287 C286 1.327 . S
C287 C291 1.429 . S
C288 C271 1.574 . S
C288 H282 0.949 . S
C288 C292 1.368 . S
C289 C270 1.429 . S
C289 C283 1.429 . S
C289 C290 1.523 . S
C290 C271 1.368 . S
C290 C284 1.379 . S
C290 C289 1.523 . S
C291 C275 1.429 1_554 S
C291 C287 1.429 . S
C291 C292 1.523 1_554 S
C292 C276 1.368 1_556 S
C292 C288 1.368 . S
C292 C291 1.523 1_556 S
H293 C268 0.950 . S
H294 C270 0.950 . S
H295 C271 0.949 . S
H296 C273 0.950 . S
H297 C275 0.950 . S
C298 C299 1.349 . S
C298 C300 1.327 . S
C298 H323 0.950 . S
C299 C298 1.349 . S
C299 C315 1.349 . S
C300 C298 1.327 . S
C300 C319 1.429 . S
C300 H324 0.950 . S
C301 C318 1.574 . S
C301 C320 1.368 1_554 S
C301 H325 0.949 . S
H302 C306 0.949 . S
C303 C304 1.349 . S
C303 C305 1.327 . S
C303 H326 0.950 . S
C304 C303 1.349 . S
C304 C316 1.349 . S
C305 C303 1.327 . S
C305 C321 1.429 . S
C305 H327 0.950 . S
C306 H302 0.949 . S
C306 C314 1.574 . S
C306 C322 1.368 . S
H307 C315 0.950 . S
H308 C313 0.950 1_554 S
H309 C314 0.949 . S
H310 C316 0.950 1_556 S
H311 C317 0.950 . S
H312 C318 0.949 . S
C313 H308 0.950 1_556 S
C313 C315 1.327 . S
C313 C319 1.429 . S
C314 C306 1.574 . S
C314 H309 0.949 . S
C314 C320 1.368 . S
C315 C299 1.349 . S
C315 H307 0.950 . S
C315 C313 1.327 . S
C316 C304 1.349 . S
C316 H310 0.950 1_554 S
C316 C317 1.327 1_554 S
C317 H311 0.950 . S
C317 C316 1.327 1_556 S
C317 C321 1.429 1_556 S
C318 C301 1.574 . S
C318 H312 0.949 . S
C318 C322 1.368 1_554 S
C319 C300 1.429 . S
C319 C313 1.429 . S
C319 C320 1.523 . S
C320 C301 1.368 1_556 S
C320 C314 1.368 . S
C320 C319 1.523 . S
C321 C305 1.429 . S
C321 C317 1.429 1_554 S
C321 C322 1.523 1_554 S
C322 C306 1.368 . S
C322 C318 1.368 1_556 S
C322 C321 1.523 1_556 S
H323 C298 0.950 . S
H324 C300 0.950 . S
H325 C301 0.949 . S
H326 C303 0.950 . S
H327 C305 0.950 . S
C328 C329 1.349 . S
C328 C330 1.327 . S
C328 H353 0.950 . S
C329 C328 1.349 . S
C329 C345 1.349 . S
C330 C328 1.327 . S
C330 C349 1.429 . S
C330 H354 0.950 . S
C331 C348 1.574 . S
C331 C350 1.368 . S
C331 H355 0.949 . S
H332 C336 0.949 . S
C333 C334 1.349 . S
C333 C335 1.327 . S
C333 H356 0.950 . S
C334 C333 1.349 . S
C334 C346 1.349 . S
C335 C333 1.327 . S
C335 C351 1.429 . S
C335 H357 0.950 . S
C336 H332 0.949 . S
C336 C344 1.574 . S
C336 C352 1.368 . S
H337 C345 0.950 . S
H338 C343 0.950 . S
H339 C344 0.949 . S
H340 C346 0.950 . S
H341 C347 0.950 . S
H342 C348 0.949 . S
C343 H338 0.950 . S
C343 C345 1.327 . S
C343 C349 1.429 . S
C344 C336 1.574 . S
C344 H339 0.949 . S
C344 C350 1.368 . S
C345 C329 1.349 . S
C345 H337 0.950 . S
C345 C343 1.327 . S
C346 C334 1.349 . S
C346 H340 0.950 . S
C346 C347 1.327 . S
C347 H341 0.950 . S
C347 C346 1.327 . S
C347 C351 1.429 . S
C348 C331 1.574 . S
C348 H342 0.949 . S
C348 C352 1.368 . S
C349 C330 1.429 . S
C349 C343 1.429 . S
C349 C350 1.523 . S
C350 C331 1.368 . S
C350 C344 1.368 . S
C350 C349 1.523 . S
C351 C335 1.429 . S
C351 C347 1.429 . S
C351 C352 1.523 . S
C352 C336 1.368 . S
C352 C348 1.368 . S
C352 C351 1.523 . S
H353 C328 0.950 . S
H354 C330 0.950 . S
H355 C331 0.949 . S
H356 C333 0.950 . S
H357 C335 0.950 . S
C358 C359 1.349 . S
C358 C360 1.327 . S
C358 H383 0.950 . S
C359 C358 1.349 . S
C359 C375 1.349 . S
C360 C358 1.327 . S
C360 C379 1.429 . S
C360 H384 0.950 . S
C361 C378 1.574 . S
C361 C380 1.368 . S
C361 H385 0.949 . S
H362 C366 0.949 . S
C363 C364 1.349 . S
C363 C365 1.327 . S
C363 H386 0.950 . S
C364 C363 1.349 . S
C364 C376 1.349 . S
C365 C363 1.327 . S
C365 C381 1.429 . S
C365 H387 0.950 . S
C366 H362 0.949 . S
C366 C374 1.574 . S
C366 C382 1.368 . S
H367 C375 0.950 . S
H368 C373 0.950 . S
H369 C374 0.949 . S
H370 C376 0.950 . S
H371 C377 0.950 . S
H372 C378 0.949 . S
C373 H368 0.950 . S
C373 C375 1.327 . S
C373 C379 1.429 . S
C374 C366 1.574 . S
C374 H369 0.949 . S
C374 C380 1.368 . S
C375 C359 1.349 . S
C375 H367 0.950 . S
C375 C373 1.327 . S
C376 C364 1.349 . S
C376 H370 0.950 . S
C376 C377 1.327 . S
C377 H371 0.950 . S
C377 C376 1.327 . S
C377 C381 1.429 . S
C378 C361 1.574 . S
C378 H372 0.949 . S
C378 C382 1.368 . S
C379 C360 1.429 . S
C379 C373 1.429 . S
C379 C380 1.523 . S
C380 C361 1.368 . S
C380 C374 1.368 . S
C380 C379 1.523 . S
C381 C365 1.429 . S
C381 C377 1.429 . S
C381 C382 1.523 . S
C382 C366 1.368 . S
C382 C378 1.368 . S
C382 C381 1.523 . S
H383 C358 0.950 . S
H384 C360 0.950 . S
H385 C361 0.949 . S
H386 C363 0.950 . S
H387 C365 0.950 . S
C388 C389 1.349 . S
C388 C390 1.327 . S
C388 H413 0.950 . S
C389 C388 1.349 . S
C389 C405 1.349 . S
C390 C388 1.327 . S
C390 C409 1.429 . S
C390 H414 0.950 . S
C391 C408 1.574 . S
C391 C410 1.368 . S
C391 H415 0.949 . S
H392 C396 0.949 . S
C393 C394 1.349 . S
C393 C395 1.327 . S
C393 H416 0.950 . S
C394 C393 1.349 . S
C394 C406 1.349 . S
C395 C393 1.327 . S
C395 C411 1.429 . S
C395 H417 0.950 . S
C396 H392 0.949 . S
C396 C404 1.574 . S
C396 C412 1.368 . S
H397 C405 0.950 . S
H398 C403 0.950 . S
H399 C404 0.949 . S
H400 C406 0.950 . S
H401 C407 0.950 . S
H402 C408 0.949 . S
C403 H398 0.950 . S
C403 C405 1.327 . S
C403 C409 1.429 . S
C404 C396 1.574 . S
C404 H399 0.949 . S
C404 C410 1.368 . S
C405 C389 1.349 . S
C405 H397 0.950 . S
C405 C403 1.327 . S
C406 C394 1.349 . S
C406 H400 0.950 . S
C406 C407 1.327 . S
C407 H401 0.950 . S
C407 C406 1.327 . S
C407 C411 1.429 . S
C408 C391 1.574 . S
C408 H402 0.949 . S
C408 C412 1.368 . S
C409 C390 1.429 . S
C409 C403 1.429 . S
C409 C410 1.523 . S
C410 C391 1.368 . S
C410 C404 1.368 . S
C410 C409 1.523 . S
C411 C395 1.429 . S
C411 C407 1.429 . S
C411 C412 1.523 . S
C412 C396 1.368 . S
C412 C408 1.368 . S
C412 C411 1.523 . S
H413 C388 0.950 . S
H414 C390 0.950 . S
H415 C391 0.949 . S
H416 C393 0.950 . S
H417 C395 0.950 . S
C418 C419 1.349 . S
C418 C420 1.327 . S
C418 H443 0.950 . S
C419 C418 1.349 . S
C419 C435 1.349 . S
C420 C418 1.327 . S
C420 C439 1.429 . S
C420 H444 0.950 . S
C421 C438 1.574 . S
C421 C440 1.368 . S
C421 H445 0.949 . S
H422 C426 0.949 . S
C423 C424 1.349 . S
C423 C425 1.327 . S
C423 H446 0.950 . S
C424 C423 1.349 . S
C424 C436 1.349 . S
C425 C423 1.327 . S
C425 C441 1.429 . S
C425 H447 0.950 . S
C426 H422 0.949 . S
C426 C434 1.574 . S
C426 C442 1.368 . S
H427 C435 0.950 . S
H428 C433 0.950 . S
H429 C434 0.949 . S
H430 C436 0.950 . S
H431 C437 0.950 . S
H432 C438 0.949 . S
C433 H428 0.950 . S
C433 C435 1.327 . S
C433 C439 1.429 . S
C434 C426 1.574 . S
C434 H429 0.949 . S
C434 C440 1.368 . S
C435 C419 1.349 . S
C435 H427 0.950 . S
C435 C433 1.327 . S
C436 C424 1.349 . S
C436 H430 0.950 . S
C436 C437 1.327 . S
C437 H431 0.950 . S
C437 C436 1.327 . S
C437 C441 1.429 . S
C438 C421 1.574 . S
C438 H432 0.949 . S
C438 C442 1.368 . S
C439 C420 1.429 . S
C439 C433 1.429 . S
C439 C440 1.523 . S
C440 C421 1.368 . S
C440 C434 1.368 . S
C440 C439 1.523 . S
C441 C425 1.429 . S
C441 C437 1.429 . S
C441 C442 1.523 . S
C442 C426 1.368 . S
C442 C438 1.368 . S
C442 C441 1.523 . S
H443 C418 0.950 . S
H444 C420 0.950 . S
H445 C421 0.949 . S
H446 C423 0.950 . S
H447 C425 0.950 . S
C448 C449 1.349 . S
C448 C450 1.327 . S
C448 H473 0.950 . S
C449 C448 1.349 . S
C449 C465 1.349 . S
C450 C448 1.327 . S
C450 C469 1.429 . S
C450 H474 0.950 . S
C451 C468 1.574 . S
C451 C470 1.368 . S
C451 H475 0.949 . S
H452 C456 0.949 . S
C453 C454 1.349 . S
C453 C455 1.327 . S
C453 H476 0.950 . S
C454 C453 1.349 . S
C454 C466 1.349 . S
C455 C453 1.327 . S
C455 C471 1.429 . S
C455 H477 0.950 . S
C456 H452 0.949 . S
C456 C464 1.574 . S
C456 C472 1.368 1_556 S
H457 C465 0.950 1_554 S
H458 C463 0.950 . S
H459 C464 0.949 . S
H460 C466 0.950 . S
H461 C467 0.950 . S
H462 C468 0.949 . S
C463 H458 0.950 . S
C463 C465 1.327 1_554 S
C463 C469 1.429 1_554 S
C464 C456 1.574 . S
C464 H459 0.949 . S
C464 C470 1.368 1_556 S
C465 C449 1.349 . S
C465 H457 0.950 1_556 S
C465 C463 1.327 1_556 S
C466 C454 1.349 . S
C466 H460 0.950 . S
C466 C467 1.327 . S
C467 H461 0.950 . S
C467 C466 1.327 . S
C467 C471 1.429 . S
C468 C451 1.574 . S
C468 H462 0.949 . S
C468 C472 1.368 . S
C469 C450 1.429 . S
C469 C463 1.429 1_556 S
C469 C470 1.523 1_556 S
C470 C451 1.368 . S
C470 C464 1.368 1_554 S
C470 C469 1.523 1_554 S
C471 C455 1.429 . S
C471 C467 1.429 . S
C471 C472 1.523 . S
C472 C456 1.368 1_554 S
C472 C468 1.368 . S
C472 C471 1.523 . S
H473 C448 0.950 . S
H474 C450 0.950 . S
H475 C451 0.949 . S
H476 C453 0.950 . S
H477 C455 0.950 . S
C478 C479 1.349 . S
C478 C480 1.327 . S
C478 H503 0.950 . S
C479 C478 1.349 . S
C479 C495 1.349 . S
C480 C478 1.327 . S
C480 C499 1.429 . S
C480 H504 0.950 . S
C481 C498 1.574 . S
C481 C500 1.368 . S
C481 H505 0.949 . S
H482 C486 0.949 . S
C483 C484 1.349 . S
C483 C485 1.327 . S
C483 H506 0.950 . S
C484 C483 1.349 . S
C484 C496 1.349 . S
C485 C483 1.327 . S
C485 C501 1.429 . S
C485 H507 0.950 . S
C486 H482 0.949 . S
C486 C494 1.574 . S
C486 C502 1.368 1_556 S
H487 C495 0.950 1_554 S
H488 C493 0.950 . S
H489 C494 0.949 . S
H490 C496 0.950 . S
H491 C497 0.950 1_556 S
H492 C498 0.949 . S
C493 H488 0.950 . S
C493 C495 1.327 1_554 S
C493 C499 1.429 1_554 S
C494 C486 1.574 . S
C494 H489 0.949 . S
C494 C500 1.368 1_556 S
C495 C479 1.349 . S
C495 H487 0.950 1_556 S
C495 C493 1.327 1_556 S
C496 C484 1.349 . S
C496 H490 0.950 . S
C496 C497 1.327 . S
C497 H491 0.950 1_554 S
C497 C496 1.327 . S
C497 C501 1.429 . S
C498 C481 1.574 . S
C498 H492 0.949 . S
C498 C502 1.368 . S
C499 C480 1.429 . S
C499 C493 1.429 1_556 S
C499 C500 1.523 1_556 S
C500 C481 1.368 . S
C500 C494 1.368 1_554 S
C500 C499 1.523 1_554 S
C501 C485 1.429 . S
C501 C497 1.429 . S
C501 C502 1.523 . S
C502 C486 1.368 1_554 S
C502 C498 1.368 . S
C502 C501 1.523 . S
H503 C478 0.950 . S
H504 C480 0.950 . S
H505 C481 0.949 . S
H506 C483 0.950 . S
H507 C485 0.950 . S
C508 C509 1.349 . S
C508 C510 1.327 . S
C508 H533 0.950 . S
C509 C508 1.349 . S
C509 C525 1.349 . S
C510 C508 1.327 . S
C510 C529 1.429 . S
C510 H534 0.950 . S
C511 C528 1.574 . S
C511 C530 1.368 . S
C511 H535 0.949 . S
H512 C516 0.949 . S
C513 C514 1.349 . S
C513 C515 1.327 . S
C513 H536 0.950 . S
C514 C513 1.349 . S
C514 C526 1.349 . S
C515 C513 1.327 . S
C515 C531 1.429 . S
C515 H537 0.950 . S
C516 H512 0.949 . S
C516 C524 1.574 . S
C516 C532 1.368 1_556 S
H517 C525 0.950 1_554 S
H518 C523 0.950 . S
H519 C524 0.949 . S
H520 C526 0.950 . S
H521 C527 0.950 1_556 S
H522 C528 0.949 . S
C523 H518 0.950 . S
C523 C525 1.327 1_554 S
C523 C529 1.429 1_554 S
C524 C516 1.574 . S
C524 H519 0.949 . S
C524 C530 1.368 1_556 S
C525 C509 1.349 . S
C525 H517 0.950 1_556 S
C525 C523 1.327 1_556 S
C526 C514 1.349 . S
C526 H520 0.950 . S
C526 C527 1.327 . S
C527 H521 0.950 1_554 S
C527 C526 1.327 . S
C527 C531 1.429 . S
C528 C511 1.574 . S
C528 H522 0.949 . S
C528 C532 1.368 . S
C529 C510 1.429 . S
C529 C523 1.429 1_556 S
C529 C530 1.523 1_556 S
C530 C511 1.368 . S
C530 C524 1.368 1_554 S
C530 C529 1.523 1_554 S
C531 C515 1.429 . S
C531 C527 1.429 . S
C531 C532 1.523 . S
C532 C516 1.368 1_554 S
C532 C528 1.368 . S
C532 C531 1.523 . S
H533 C508 0.950 . S
H534 C510 0.950 . S
H535 C511 0.949 . S
H536 C513 0.950 . S
H537 C515 0.950 . S
C538 C539 1.349 . S
C538 C540 1.327 . S
C538 H563 0.950 . S
C539 C538 1.349 . S
C539 C555 1.349 . S
C540 C538 1.327 . S
C540 C559 1.429 . S
C540 H564 0.950 . S
C541 C558 1.574 . S
C541 C560 1.368 1_556 S
C541 H565 0.949 . S
H542 C546 0.949 . S
C543 C544 1.349 . S
C543 C545 1.327 . S
C543 H566 0.950 . S
C544 C543 1.349 . S
C544 C556 1.349 . S
C545 C543 1.327 . S
C545 C561 1.429 . S
C545 H567 0.950 . S
C546 H542 0.949 . S
C546 C554 1.574 . S
C546 C562 1.368 . S
H547 C555 0.950 . S
H548 C553 0.950 . S
H549 C554 0.949 . S
H550 C556 0.950 1_554 S
H551 C557 0.950 . S
H552 C558 0.949 . S
C553 H548 0.950 . S
C553 C555 1.327 . S
C553 C559 1.429 . S
C554 C546 1.574 . S
C554 H549 0.949 . S
C554 C560 1.368 . S
C555 C539 1.349 . S
C555 H547 0.950 . S
C555 C553 1.327 . S
C556 C544 1.349 . S
C556 H550 0.950 1_556 S
C556 C557 1.327 1_556 S
C557 H551 0.950 . S
C557 C556 1.327 1_554 S
C557 C561 1.429 1_554 S
C558 C541 1.574 . S
C558 H552 0.949 . S
C558 C562 1.368 1_556 S
C559 C540 1.429 . S
C559 C553 1.429 . S
C559 C560 1.523 . S
C560 C541 1.368 1_554 S
C560 C554 1.368 . S
C560 C559 1.523 . S
C561 C545 1.429 . S
C561 C557 1.429 1_556 S
C561 C562 1.523 1_556 S
C562 C546 1.368 . S
C562 C558 1.368 1_554 S
C562 C561 1.523 1_554 S
H563 C538 0.950 . S
H564 C540 0.950 . S
H565 C541 0.949 . S
H566 C543 0.950 . S
H567 C545 0.950 . S
C568 C569 1.349 . S
C568 C570 1.327 . S
C568 H593 0.950 . S
C569 C568 1.349 . S
C569 C585 1.349 . S
C570 C568 1.327 . S
C570 C589 1.429 . S
C570 H594 0.950 . S
C571 C588 1.574 . S
C571 C590 1.368 . S
C571 H595 0.949 . S
H572 C576 0.949 . S
C573 C574 1.349 . S
C573 C575 1.327 . S
C573 H596 0.950 . S
C574 C573 1.349 . S
C574 C586 1.349 . S
C575 C573 1.327 . S
C575 C591 1.429 . S
C575 H597 0.950 . S
C576 H572 0.949 . S
C576 C584 1.574 . S
C576 C592 1.368 . S
H577 C585 0.950 . S
H578 C583 0.950 . S
H579 C584 0.949 . S
H580 C586 0.950 . S
H581 C587 0.950 . S
H582 C588 0.949 . S
C583 H578 0.950 . S
C583 C585 1.327 . S
C583 C589 1.429 . S
C584 C576 1.574 . S
C584 H579 0.949 . S
C584 C590 1.368 . S
C585 C569 1.349 . S
C585 H577 0.950 . S
C585 C583 1.327 . S
C586 C574 1.349 . S
C586 H580 0.950 . S
C586 C587 1.327 . S
C587 H581 0.950 . S
C587 C586 1.327 . S
C587 C591 1.429 . S
C588 C571 1.574 . S
C588 H582 0.949 . S
C588 C592 1.368 . S
C589 C570 1.429 . S
C589 C583 1.429 . S
C589 C590 1.523 . S
C590 C571 1.368 . S
C590 C584 1.368 . S
C590 C589 1.523 . S
C591 C575 1.429 . S
C591 C587 1.429 . S
C591 C592 1.523 . S
C592 C576 1.368 . S
C592 C588 1.368 . S
C592 C591 1.523 . S
H593 C568 0.950 . S
H594 C570 0.950 . S
H595 C571 0.949 . S
H596 C573 0.950 . S
H597 C575 0.950 . S
C598 C599 1.349 . S
C598 C600 1.327 . S
C598 H623 0.950 . S
C599 C598 1.349 . S
C599 C615 1.349 . S
C600 C598 1.327 . S
C600 C619 1.429 . S
C600 H624 0.950 . S
C601 C618 1.574 . S
C601 C620 1.368 . S
C601 H625 0.949 . S
H602 C606 0.949 . S
C603 C604 1.349 . S
C603 C605 1.327 . S
C603 H626 0.950 . S
C604 C603 1.349 . S
C604 C616 1.349 . S
C605 C603 1.327 . S
C605 C621 1.429 . S
C605 H627 0.950 . S
C606 H602 0.949 . S
C606 C614 1.574 . S
C606 C622 1.368 . S
H607 C615 0.950 . S
H608 C613 0.950 . S
H609 C614 0.949 . S
H610 C616 0.950 . S
H611 C617 0.950 . S
H612 C618 0.949 . S
C613 H608 0.950 . S
C613 C615 1.327 . S
C613 C619 1.429 . S
C614 C606 1.574 . S
C614 H609 0.949 . S
C614 C620 1.368 . S
C615 C599 1.349 . S
C615 H607 0.950 . S
C615 C613 1.327 . S
C616 C604 1.349 . S
C616 H610 0.950 . S
C616 C617 1.327 . S
C617 H611 0.950 . S
C617 C616 1.327 . S
C617 C621 1.429 . S
C618 C601 1.574 . S
C618 H612 0.949 . S
C618 C622 1.368 . S
C619 C600 1.429 . S
C619 C613 1.429 . S
C619 C620 1.523 . S
C620 C601 1.368 . S
C620 C614 1.368 . S
C620 C619 1.523 . S
C621 C605 1.429 . S
C621 C617 1.429 . S
C621 C622 1.523 . S
C622 C606 1.368 . S
C622 C618 1.368 . S
C622 C621 1.523 . S
H623 C598 0.950 . S
H624 C600 0.950 . S
H625 C601 0.949 . S
H626 C603 0.950 . S
H627 C605 0.950 . S
C628 C629 1.349 . S
C628 C630 1.327 . S
C628 H653 0.950 . S
C629 C628 1.349 . S
C629 C645 1.349 . S
C630 C628 1.327 . S
C630 C649 1.429 . S
C630 H654 0.950 . S
C631 C648 1.574 . S
C631 C650 1.368 . S
C631 H655 0.949 . S
H632 C636 0.949 . S
C633 C634 1.349 . S
C633 C635 1.327 . S
C633 H656 0.950 . S
C634 C633 1.349 . S
C634 C646 1.349 . S
C635 C633 1.327 . S
C635 C651 1.429 . S
C635 H657 0.950 . S
C636 H632 0.949 . S
C636 C644 1.574 . S
C636 C652 1.368 . S
H637 C645 0.950 . S
H638 C643 0.950 . S
H639 C644 0.949 . S
H640 C646 0.950 . S
H641 C647 0.950 . S
H642 C648 0.949 . S
C643 H638 0.950 . S
C643 C645 1.327 . S
C643 C649 1.429 . S
C644 C636 1.574 . S
C644 H639 0.949 . S
C644 C650 1.368 . S
C645 C629 1.349 . S
C645 H637 0.950 . S
C645 C643 1.327 . S
C646 C634 1.349 . S
C646 H640 0.950 . S
C646 C647 1.327 . S
C647 H641 0.950 . S
C647 C646 1.327 . S
C647 C651 1.429 . S
C648 C631 1.574 . S
C648 H642 0.949 . S
C648 C652 1.368 . S
C649 C630 1.429 . S
C649 C643 1.429 . S
C649 C650 1.523 . S
C650 C631 1.368 . S
C650 C644 1.368 . S
C650 C649 1.523 . S
C651 C635 1.429 . S
C651 C647 1.429 . S
C651 C652 1.523 . S
C652 C636 1.368 . S
C652 C648 1.368 . S
C652 C651 1.523 . S
H653 C628 0.950 . S
H654 C630 0.950 . S
H655 C631 0.949 . S
H656 C633 0.950 . S
H657 C635 0.950 . S
C658 C659 1.349 . S
C658 C660 1.327 . S
C658 H683 0.950 . S
C659 C658 1.349 . S
C659 C675 1.349 . S
C660 C658 1.327 . S
C660 C679 1.429 . S
C660 H684 0.950 . S
C661 C678 1.574 . S
C661 C680 1.368 . S
C661 H685 0.949 . S
H662 C666 0.949 . S
C663 C664 1.349 . S
C663 C665 1.327 . S
C663 H686 0.950 . S
C664 C663 1.349 . S
C664 C676 1.349 . S
C665 C663 1.327 . S
C665 C681 1.429 . S
C665 H687 0.950 . S
C666 H662 0.949 . S
C666 C674 1.574 . S
C666 C682 1.368 . S
H667 C675 0.950 . S
H668 C673 0.950 . S
H669 C674 0.949 . S
H670 C676 0.950 . S
H671 C677 0.950 . S
H672 C678 0.949 . S
C673 H668 0.950 . S
C673 C675 1.327 . S
C673 C679 1.429 . S
C674 C666 1.574 . S
C674 H669 0.949 . S
C674 C680 1.368 . S
C675 C659 1.349 . S
C675 H667 0.950 . S
C675 C673 1.327 . S
C676 C664 1.349 . S
C676 H670 0.950 . S
C676 C677 1.327 . S
C677 H671 0.950 . S
C677 C676 1.327 . S
C677 C681 1.429 . S
C678 C661 1.574 . S
C678 H672 0.949 . S
C678 C682 1.368 . S
C679 C660 1.429 . S
C679 C673 1.429 . S
C679 C680 1.523 . S
C680 C661 1.368 . S
C680 C674 1.368 . S
C680 C679 1.523 . S
C681 C665 1.429 . S
C681 C677 1.429 . S
C681 C682 1.523 . S
C682 C666 1.368 . S
C682 C678 1.368 . S
C682 C681 1.523 . S
H683 C658 0.950 . S
H684 C660 0.950 . S
H685 C661 0.949 . S
H686 C663 0.950 . S
H687 C665 0.950 . S
C688 C689 1.349 . S
C688 C690 1.327 . S
C688 H713 0.950 . S
C689 C688 1.349 . S
C689 C705 1.349 . S
C690 C688 1.327 . S
C690 C709 1.429 . S
C690 H714 0.950 . S
C691 C708 1.574 1_565 S
C691 C710 1.368 1_554 S
C691 H715 0.949 . S
H692 C696 0.949 . S
C693 C694 1.349 . S
C693 C695 1.327 . S
C693 H716 0.950 . S
C694 C693 1.349 . S
C694 C706 1.349 . S
C695 C693 1.327 . S
C695 C711 1.429 . S
C695 H717 0.950 . S
C696 H692 0.949 . S
C696 C704 1.574 1_545 S
C696 C712 1.368 1_556 S
H697 C705 0.950 . S
H698 C703 0.950 1_554 S
H699 C704 0.949 . S
H700 C706 0.950 . S
H701 C707 0.950 1_556 S
H702 C708 0.949 . S
C703 H698 0.950 1_556 S
C703 C705 1.327 . S
C703 C709 1.429 . S
C704 C696 1.574 1_565 S
C704 H699 0.949 . S
C704 C710 1.368 . S
C705 C689 1.349 . S
C705 H697 0.950 . S
C705 C703 1.327 . S
C706 C694 1.349 . S
C706 H700 0.950 . S
C706 C707 1.327 . S
C707 H701 0.950 1_554 S
C707 C706 1.327 . S
C707 C711 1.429 . S
C708 C691 1.574 1_545 S
C708 H702 0.949 . S
C708 C712 1.368 . S
C709 C690 1.429 . S
C709 C703 1.429 . S
C709 C710 1.523 . S
C710 C691 1.368 1_556 S
C710 C704 1.368 . S
C710 C709 1.523 . S
C711 C695 1.429 . S
C711 C707 1.429 . S
C711 C712 1.523 . S
C712 C696 1.368 1_554 S
C712 C708 1.368 . S
C712 C711 1.523 . S
H713 C688 0.950 . S
H714 C690 0.950 . S
H715 C691 0.949 . S
H716 C693 0.950 . S
H717 C695 0.950 . S
C718 C719 1.349 . S
C718 C720 1.327 . S
C718 H743 0.950 . S
C719 C718 1.349 . S
C719 C735 1.349 . S
C720 C718 1.327 . S
C720 C739 1.429 . S
C720 H744 0.950 . S
C721 C738 1.574 . S
C721 C740 1.368 . S
C721 H745 0.949 . S
H722 C726 0.949 . S
C723 C724 1.349 . S
C723 C725 1.327 . S
C723 H746 0.950 . S
C724 C723 1.349 . S
C724 C736 1.349 . S
C725 C723 1.327 . S
C725 C741 1.429 . S
C725 H747 0.950 . S
C726 H722 0.949 . S
C726 C734 1.574 . S
C726 C742 1.368 . S
H727 C735 0.950 . S
H728 C733 0.950 . S
H729 C734 0.949 . S
H730 C736 0.950 . S
H731 C737 0.950 . S
H732 C738 0.949 . S
C733 H728 0.950 . S
C733 C735 1.327 . S
C733 C739 1.429 . S
C734 C726 1.574 . S
C734 H729 0.949 . S
C734 C740 1.368 1_556 S
C735 C719 1.349 . S
C735 H727 0.950 . S
C735 C733 1.327 . S
C736 C724 1.349 . S
C736 H730 0.950 . S
C736 C737 1.327 . S
C737 H731 0.950 . S
C737 C736 1.327 . S
C737 C741 1.429 . S
C738 C721 1.574 . S
C738 H732 0.949 . S
C738 C742 1.368 1_554 S
C739 C720 1.429 . S
C739 C733 1.429 . S
C739 C740 1.523 . S
C740 C721 1.368 . S
C740 C734 1.368 1_554 S
C740 C739 1.523 . S
C741 C725 1.429 . S
C741 C737 1.429 . S
C741 C742 1.523 . S
C742 C726 1.368 . S
C742 C738 1.368 1_556 S
C742 C741 1.523 . S
H743 C718 0.950 . S
H744 C720 0.950 . S
H745 C721 0.949 . S
H746 C723 0.950 . S
H747 C725 0.950 . S
C748 C749 1.349 . S
C748 C750 1.327 . S
C748 H773 0.950 . S
C749 C748 1.349 . S
C749 C765 1.349 . S
C750 C748 1.327 . S
C750 C769 1.429 . S
C750 H774 0.950 . S
C751 C768 1.574 . S
C751 C770 1.368 1_654 S
C751 H775 0.949 . S
H752 C756 0.949 . S
C753 C754 1.349 . S
C753 C755 1.327 . S
C753 H776 0.950 . S
C754 C753 1.349 . S
C754 C766 1.349 . S
C755 C753 1.327 . S
C755 C771 1.429 . S
C755 H777 0.950 . S
C756 H752 0.949 . S
C756 C764 1.574 . S
C756 C772 1.368 1_456 S
H757 C765 0.950 1_655 S
H758 C763 0.975 1_554 S
H759 C764 0.949 . S
H760 C766 0.950 1_455 S
H761 C767 0.975 1_556 S
H762 C768 0.949 . S
C763 H758 0.975 1_556 S
C763 C765 1.320 1_655 S
C763 C769 1.413 1_655 S
C764 C756 1.574 . S
C764 H759 0.949 . S
C764 C770 1.368 . S
C765 C749 1.349 . S
C765 H757 0.950 1_455 S
C765 C763 1.320 1_455 S
C766 C754 1.349 . S
C766 H760 0.950 1_655 S
C766 C767 1.320 1_655 S
C767 H761 0.975 1_554 S
C767 C766 1.320 1_455 S
C767 C771 1.413 1_455 S
C768 C751 1.574 . S
C768 H762 0.949 . S
C768 C772 1.368 . S
C769 C750 1.429 . S
C769 C763 1.413 1_455 S
C769 C770 1.523 . S
C770 C751 1.368 1_456 S
C770 C764 1.368 . S
C770 C769 1.523 . S
C771 C755 1.429 . S
C771 C767 1.413 1_655 S
C771 C772 1.523 . S
C772 C756 1.368 1_654 S
C772 C768 1.368 . S
C772 C771 1.523 . S
H773 C748 0.950 . S
H774 C750 0.950 . S
H775 C751 0.949 . S
H776 C753 0.950 . S
H777 C755 0.950 . S
C778 C779 1.349 1_545 S
C778 C780 1.327 . S
C778 H803 0.950 . S
C779 C778 1.349 1_565 S
C779 C795 1.349 . S
C780 C778 1.327 . S
C780 C799 1.429 1_545 S
C780 H804 0.950 . S
C781 C798 1.574 1_455 S
C781 C800 1.368 1_556 S
C781 H805 0.949 . S
H782 C786 0.949 . S
C783 C784 1.349 1_565 S
C783 C785 1.327 . S
C783 H806 0.950 . S
C784 C783 1.349 1_545 S
C784 C796 1.349 . S
C785 C783 1.327 . S
C785 C801 1.429 1_565 S
C785 H807 0.950 . S
C786 H782 0.949 . S
C786 C794 1.574 1_655 S
C786 C802 1.368 1_554 S
H787 C795 0.950 . S
H788 C793 0.950 . S
H789 C794 0.949 . S
H790 C796 0.950 . S
H791 C797 0.950 . S
H792 C798 0.949 . S
C793 H788 0.950 . S
C793 C795 1.327 . S
C793 C799 1.429 . S
C794 C786 1.574 1_455 S
C794 H789 0.949 . S
C794 C800 1.368 1_545 S
C795 C779 1.349 . S
C795 H787 0.950 . S
C795 C793 1.327 . S
C796 C784 1.349 . S
C796 H790 0.950 . S
C796 C797 1.327 . S
C797 H791 0.950 . S
C797 C796 1.327 . S
C797 C801 1.429 . S
C798 C781 1.574 1_655 S
C798 H792 0.949 . S
C798 C802 1.368 1_565 S
C799 C780 1.429 1_565 S
C799 C793 1.429 . S
C799 C800 1.523 . S
C800 C781 1.368 1_554 S
C800 C794 1.368 1_565 S
C800 C799 1.523 . S
C801 C785 1.429 1_545 S
C801 C797 1.429 . S
C801 C802 1.523 . S
C802 C786 1.368 1_556 S
C802 C798 1.368 1_545 S
C802 C801 1.523 . S
H803 C778 0.950 . S
H804 C780 0.950 . S
H805 C781 0.949 . S
H806 C783 0.950 . S
H807 C785 0.950 . S
C808 C809 1.349 . S
C808 C810 1.327 . S
C808 H833 0.950 . S
C809 C808 1.349 . S
C809 C825 1.349 . S
C810 C808 1.327 . S
C810 C829 1.429 . S
C810 H834 0.950 . S
C811 C828 1.574 . S
C811 C830 1.368 . S
C811 H835 0.949 . S
H812 C816 0.949 . S
C813 C814 1.349 . S
C813 C815 1.327 . S
C813 H836 0.950 . S
C814 C813 1.349 . S
C814 C826 1.349 . S
C815 C813 1.327 . S
C815 C831 1.429 . S
C815 H837 0.950 . S
C816 H812 0.949 . S
C816 C824 1.574 . S
C816 C832 1.368 . S
H817 C825 0.950 . S
H818 C823 0.950 . S
H819 C824 0.949 . S
H820 C826 0.950 . S
H821 C827 0.950 . S
H822 C828 0.949 . S
C823 H818 0.950 . S
C823 C825 1.327 . S
C823 C829 1.429 . S
C824 C816 1.574 . S
C824 H819 0.949 . S
C824 C830 1.368 . S
C825 C809 1.349 . S
C825 H817 0.950 . S
C825 C823 1.327 . S
C826 C814 1.349 . S
C826 H820 0.950 . S
C826 C827 1.327 . S
C827 H821 0.950 . S
C827 C826 1.327 . S
C827 C831 1.429 . S
C828 C811 1.574 . S
C828 H822 0.949 . S
C828 C832 1.368 . S
C829 C810 1.429 . S
C829 C823 1.429 . S
C829 C830 1.523 . S
C830 C811 1.368 . S
C830 C824 1.368 . S
C830 C829 1.523 . S
C831 C815 1.429 . S
C831 C827 1.429 . S
C831 C832 1.523 . S
C832 C816 1.368 . S
C832 C828 1.368 . S
C832 C831 1.523 . S
H833 C808 0.950 . S
H834 C810 0.950 . S
H835 C811 0.949 . S
H836 C813 0.950 . S
H837 C815 0.950 . S
C838 C839 1.349 . S
C838 C840 1.327 . S
C838 H863 0.950 . S
C839 C838 1.349 . S
C839 C855 1.349 . S
C840 C838 1.327 . S
C840 C859 1.429 . S
C840 H864 0.950 . S
C841 C858 1.574 1_455 S
C841 C860 1.368 . S
C841 H865 0.949 . S
H842 C846 0.949 . S
C843 C844 1.349 . S
C843 C845 1.327 . S
C843 H866 0.950 . S
C844 C843 1.349 . S
C844 C856 1.349 . S
C845 C843 1.327 . S
C845 C861 1.429 . S
C845 H867 0.950 . S
C846 H842 0.949 . S
C846 C854 1.574 1_655 S
C846 C862 1.368 . S
H847 C855 0.950 . S
H848 C853 0.950 . S
H849 C854 0.949 . S
H850 C856 0.950 . S
H851 C857 0.950 . S
H852 C858 0.949 . S
C853 H848 0.950 . S
C853 C855 1.327 . S
C853 C859 1.429 . S
C854 C846 1.574 1_455 S
C854 H849 0.949 . S
C854 C860 1.368 . S
C855 C839 1.349 . S
C855 H847 0.950 . S
C855 C853 1.327 . S
C856 C844 1.349 . S
C856 H850 0.950 . S
C856 C857 1.327 . S
C857 H851 0.950 . S
C857 C856 1.327 . S
C857 C861 1.429 . S
C858 C841 1.574 1_655 S
C858 H852 0.949 . S
C858 C862 1.368 . S
C859 C840 1.429 . S
C859 C853 1.429 . S
C859 C860 1.523 . S
C860 C841 1.368 . S
C860 C854 1.368 . S
C860 C859 1.523 . S
C861 C845 1.429 . S
C861 C857 1.429 . S
C861 C862 1.523 . S
C862 C846 1.368 . S
C862 C858 1.368 . S
C862 C861 1.523 . S
H863 C838 0.950 . S
H864 C840 0.950 . S
H865 C841 0.949 . S
H866 C843 0.950 . S
H867 C845 0.950 . S
C868 C869 1.349 . S
C868 C870 1.327 1_455 S
C868 H893 0.950 1_455 S
C869 C868 1.349 . S
C869 C885 1.349 . S
C870 C868 1.327 1_655 S
C870 C889 1.429 1_655 S
C870 H894 0.950 . S
C871 C888 1.574 1_565 S
C871 C890 1.368 . S
C871 H895 0.949 . S
H872 C876 0.949 . S
C873 C874 1.349 . S
C873 C875 1.327 1_655 S
C873 H896 0.950 1_655 S
C874 C873 1.349 . S
C874 C886 1.349 . S
C875 C873 1.327 1_455 S
C875 C891 1.429 1_455 S
C875 H897 0.950 . S
C876 H872 0.949 . S
C876 C884 1.574 1_545 S
C876 C892 1.368 . S
H877 C885 0.950 . S
H878 C883 0.950 . S
H879 C884 0.949 . S
H880 C886 0.950 . S
H881 C887 0.950 . S
H882 C888 0.949 . S
C883 H878 0.950 . S
C883 C885 1.327 . S
C883 C889 1.429 . S
C884 C876 1.574 1_565 S
C884 H879 0.949 . S
C884 C890 1.368 1_655 S
C885 C869 1.349 . S
C885 H877 0.950 . S
C885 C883 1.327 . S
C886 C874 1.349 . S
C886 H880 0.950 . S
C886 C887 1.327 . S
C887 H881 0.950 . S
C887 C886 1.327 . S
C887 C891 1.429 . S
C888 C871 1.574 1_545 S
C888 H882 0.949 . S
C888 C892 1.368 1_455 S
C889 C870 1.429 1_455 S
C889 C883 1.429 . S
C889 C890 1.523 . S
C890 C871 1.368 . S
C890 C884 1.368 1_455 S
C890 C889 1.523 . S
C891 C875 1.429 1_655 S
C891 C887 1.429 . S
C891 C892 1.523 . S
C892 C876 1.368 . S
C892 C888 1.368 1_655 S
C892 C891 1.523 . S
H893 C868 0.950 1_655 S
H894 C870 0.950 . S
H895 C871 0.949 . S
H896 C873 0.950 1_455 S
H897 C875 0.950 . S
C898 C899 1.349 . S
C898 C900 1.327 . S
C898 H923 0.950 . S
C899 C898 1.349 . S
C899 C915 1.349 . S
C900 C898 1.327 . S
C900 C919 1.429 . S
C900 H924 0.950 . S
C901 C918 1.574 . S
C901 C920 1.368 . S
C901 H925 0.949 . S
H902 C906 0.949 . S
C903 C904 1.349 . S
C903 C905 1.327 . S
C903 H926 0.950 . S
C904 C903 1.349 . S
C904 C916 1.349 . S
C905 C903 1.327 . S
C905 C921 1.429 . S
C905 H927 0.950 . S
C906 H902 0.949 . S
C906 C914 1.574 . S
C906 C922 1.368 . S
H907 C915 0.950 . S
H908 C913 0.950 . S
H909 C914 0.949 . S
H910 C916 0.950 . S
H911 C917 0.950 . S
H912 C918 0.949 . S
C913 H908 0.950 . S
C913 C915 1.327 . S
C913 C919 1.429 . S
C914 C906 1.574 . S
C914 H909 0.949 . S
C914 C920 1.368 1_565 S
C915 C899 1.349 . S
C915 H907 0.950 . S
C915 C913 1.327 . S
C916 C904 1.349 . S
C916 H910 0.950 . S
C916 C917 1.327 . S
C917 H911 0.950 . S
C917 C916 1.327 . S
C917 C921 1.429 . S
C918 C901 1.574 . S
C918 H912 0.949 . S
C918 C922 1.368 1_545 S
C919 C900 1.429 . S
C919 C913 1.429 . S
C919 C920 1.523 . S
C920 C901 1.368 . S
C920 C914 1.368 1_545 S
C920 C919 1.523 . S
C921 C905 1.429 . S
C921 C917 1.429 . S
C921 C922 1.523 . S
C922 C906 1.368 . S
C922 C918 1.368 1_565 S
C922 C921 1.523 . S
H923 C898 0.950 . S
H924 C900 0.950 . S
H925 C901 0.949 . S
H926 C903 0.950 . S
H927 C905 0.950 . S
C928 C929 1.349 . S
C928 C930 1.327 . S
C928 H953 0.950 . S
C929 C928 1.349 . S
C929 C945 1.349 . S
C930 C928 1.327 . S
C930 C949 1.429 . S
C930 H954 0.950 . S
C931 C948 1.574 . S
C931 C950 1.368 . S
C931 H955 0.949 . S
H932 C936 0.949 . S
C933 C934 1.349 . S
C933 C935 1.327 . S
C933 H956 0.950 . S
C934 C933 1.349 . S
C934 C946 1.349 . S
C935 C933 1.327 . S
C935 C951 1.429 . S
C935 H957 0.950 . S
C936 H932 0.949 . S
C936 C944 1.574 . S
C936 C952 1.368 . S
H937 C945 0.950 . S
H938 C943 0.950 . S
H939 C944 0.949 . S
H940 C946 0.950 . S
H941 C947 0.950 . S
H942 C948 0.949 . S
C943 H938 0.950 . S
C943 C945 1.327 . S
C943 C949 1.429 . S
C944 C936 1.574 . S
C944 H939 0.949 . S
C944 C950 1.368 . S
C945 C929 1.349 . S
C945 H937 0.950 . S
C945 C943 1.327 . S
C946 C934 1.349 . S
C946 H940 0.950 . S
C946 C947 1.327 . S
C947 H941 0.950 . S
C947 C946 1.327 . S
C947 C951 1.429 . S
C948 C931 1.574 . S
C948 H942 0.949 . S
C948 C952 1.368 . S
C949 C930 1.429 . S
C949 C943 1.429 . S
C949 C950 1.523 . S
C950 C931 1.368 . S
C950 C944 1.368 . S
C950 C949 1.523 . S
C951 C935 1.429 . S
C951 C947 1.429 . S
C951 C952 1.523 . S
C952 C936 1.368 . S
C952 C948 1.368 . S
C952 C951 1.523 . S
H953 C928 0.950 . S
H954 C930 0.950 . S
H955 C931 0.949 . S
H956 C933 0.950 . S
H957 C935 0.950 . S
C958 C959 1.349 . S
C958 C960 1.327 . S
C958 H983 0.950 . S
C959 C958 1.349 . S
C959 C975 1.349 . S
C960 C958 1.327 . S
C960 C979 1.429 . S
C960 H984 0.950 . S
C961 C978 1.574 . S
C961 C980 1.368 . S
C961 H985 0.949 . S
H962 C966 0.949 . S
C963 C964 1.349 . S
C963 C965 1.327 . S
C963 H986 0.950 . S
C964 C963 1.349 . S
C964 C976 1.349 . S
C965 C963 1.327 . S
C965 C981 1.429 . S
C965 H987 0.950 . S
C966 H962 0.949 . S
C966 C974 1.574 . S
C966 C982 1.368 . S
H967 C975 0.950 . S
H968 C973 0.950 . S
H969 C974 0.949 . S
H970 C976 0.950 . S
H971 C977 0.950 . S
H972 C978 0.949 . S
C973 H968 0.950 . S
C973 C975 1.327 . S
C973 C979 1.429 . S
C974 C966 1.574 . S
C974 H969 0.949 . S
C974 C980 1.368 . S
C975 C959 1.349 . S
C975 H967 0.950 . S
C975 C973 1.327 . S
C976 C964 1.349 . S
C976 H970 0.950 . S
C976 C977 1.327 . S
C977 H971 0.950 . S
C977 C976 1.327 . S
C977 C981 1.429 . S
C978 C961 1.574 . S
C978 H972 0.949 . S
C978 C982 1.368 . S
C979 C960 1.429 . S
C979 C973 1.429 . S
C979 C980 1.523 . S
C980 C961 1.368 . S
C980 C974 1.368 . S
C980 C979 1.523 . S
C981 C965 1.429 . S
C981 C977 1.429 . S
C981 C982 1.523 . S
C982 C966 1.368 . S
C982 C978 1.368 . S
C982 C981 1.523 . S
H983 C958 0.950 . S
H984 C960 0.950 . S
H985 C961 0.949 . S
H986 C963 0.950 . S
H987 C965 0.950 . S
C988 C989 1.349 . S
C988 C990 1.327 . S
C988 H1013 0.950 . S
C989 C988 1.349 . S
C989 C1005 1.349 . S
C990 C988 1.327 . S
C990 C1009 1.429 . S
C990 H1014 0.950 . S
C991 C1008 1.574 . S
C991 C1010 1.368 . S
C991 H1015 0.949 . S
H992 C996 0.949 . S
C993 C994 1.349 . S
C993 C995 1.327 . S
C993 H1016 0.950 . S
C994 C993 1.349 . S
C994 C1006 1.349 . S
C995 C993 1.327 . S
C995 C1011 1.429 . S
C995 H1017 0.950 . S
C996 H992 0.949 . S
C996 C1004 1.574 . S
C996 C1012 1.368 . S
H997 C1005 0.950 . S
H998 C1003 0.950 . S
H999 C1004 0.949 . S
H1000 C1006 0.950 . S
H1001 C1007 0.950 . S
H1002 C1008 0.949 . S
C1003 H998 0.950 . S
C1003 C1005 1.327 . S
C1003 C1009 1.429 . S
C1004 C996 1.574 . S
C1004 H999 0.949 . S
C1004 C1010 1.368 . S
C1005 C989 1.349 . S
C1005 H997 0.950 . S
C1005 C1003 1.327 . S
C1006 C994 1.349 . S
C1006 H1000 0.950 . S
C1006 C1007 1.327 . S
C1007 H1001 0.950 . S
C1007 C1006 1.327 . S
C1007 C1011 1.429 . S
C1008 C991 1.574 . S
C1008 H1002 0.949 . S
C1008 C1012 1.368 . S
C1009 C990 1.429 . S
C1009 C1003 1.429 . S
C1009 C1010 1.523 . S
C1010 C991 1.368 . S
C1010 C1004 1.368 . S
C1010 C1009 1.523 . S
C1011 C995 1.429 . S
C1011 C1007 1.429 . S
C1011 C1012 1.523 . S
C1012 C996 1.368 . S
C1012 C1008 1.368 . S
C1012 C1011 1.523 . S
H1013 C988 0.950 . S
H1014 C990 0.950 . S
H1015 C991 0.949 . S
H1016 C993 0.950 . S
H1017 C995 0.950 . S
C1018 C1019 1.349 . S
C1018 C1020 1.327 . S
C1018 H1043 0.950 . S
C1019 C1018 1.349 . S
C1019 C1035 1.349 . S
C1020 C1018 1.327 . S
C1020 C1039 1.429 . S
C1020 H1044 0.950 . S
C1021 C1038 1.574 . S
C1021 C1040 1.368 . S
C1021 H1045 0.949 . S
H1022 C1026 0.949 . S
C1023 C1024 1.349 . S
C1023 C1025 1.327 . S
C1023 H1046 0.950 . S
C1024 C1023 1.349 . S
C1024 C1036 1.349 . S
C1025 C1023 1.327 . S
C1025 C1041 1.429 . S
C1025 H1047 0.950 . S
C1026 H1022 0.949 . S
C1026 C1034 1.574 . S
C1026 C1042 1.368 . S
H1027 C1035 0.950 . S
H1028 C1033 0.950 . S
H1029 C1034 0.949 . S
H1030 C1036 0.950 . S
H1031 C1037 0.950 . S
H1032 C1038 0.949 . S
C1033 H1028 0.950 . S
C1033 C1035 1.327 . S
C1033 C1039 1.429 . S
C1034 C1026 1.574 . S
C1034 H1029 0.949 . S
C1034 C1040 1.368 . S
C1035 C1019 1.349 . S
C1035 H1027 0.950 . S
C1035 C1033 1.327 . S
C1036 C1024 1.349 . S
C1036 H1030 0.950 . S
C1036 C1037 1.327 . S
C1037 H1031 0.950 . S
C1037 C1036 1.327 . S
C1037 C1041 1.429 . S
C1038 C1021 1.574 . S
C1038 H1032 0.949 . S
C1038 C1042 1.368 . S
C1039 C1020 1.429 . S
C1039 C1033 1.429 . S
C1039 C1040 1.523 . S
C1040 C1021 1.368 . S
C1040 C1034 1.368 . S
C1040 C1039 1.523 . S
C1041 C1025 1.429 . S
C1041 C1037 1.429 . S
C1041 C1042 1.523 . S
C1042 C1026 1.368 . S
C1042 C1038 1.368 . S
C1042 C1041 1.523 . S
H1043 C1018 0.950 . S
H1044 C1020 0.950 . S
H1045 C1021 0.949 . S
H1046 C1023 0.950 . S
H1047 C1025 0.950 . S
C1048 C1049 1.349 . S
C1048 C1050 1.327 . S
C1048 H1073 0.950 . S
C1049 C1048 1.349 . S
C1049 C1065 1.349 . S
C1050 C1048 1.327 . S
C1050 C1069 1.429 . S
C1050 H1074 0.950 . S
C1051 C1068 1.574 . S
C1051 C1070 1.368 . S
C1051 H1075 0.949 . S
H1052 C1056 0.949 . S
C1053 C1054 1.349 . S
C1053 C1055 1.327 . S
C1053 H1076 0.950 . S
C1054 C1053 1.349 . S
C1054 C1066 1.349 . S
C1055 C1053 1.327 . S
C1055 C1071 1.429 . S
C1055 H1077 0.950 . S
C1056 H1052 0.949 . S
C1056 C1064 1.574 . S
C1056 C1072 1.368 . S
H1057 C1065 0.950 . S
H1058 C1063 0.950 . S
H1059 C1064 0.949 . S
H1060 C1066 0.950 . S
H1061 C1067 0.950 . S
H1062 C1068 0.949 . S
C1063 H1058 0.950 . S
C1063 C1065 1.327 . S
C1063 C1069 1.429 . S
C1064 C1056 1.574 . S
C1064 H1059 0.949 . S
C1064 C1070 1.368 . S
C1065 C1049 1.349 . S
C1065 H1057 0.950 . S
C1065 C1063 1.327 . S
C1066 C1054 1.349 . S
C1066 H1060 0.950 . S
C1066 C1067 1.327 . S
C1067 H1061 0.950 . S
C1067 C1066 1.327 . S
C1067 C1071 1.429 . S
C1068 C1051 1.574 . S
C1068 H1062 0.949 . S
C1068 C1072 1.368 . S
C1069 C1050 1.429 . S
C1069 C1063 1.429 . S
C1069 C1070 1.523 . S
C1070 C1051 1.368 . S
C1070 C1064 1.368 . S
C1070 C1069 1.523 . S
C1071 C1055 1.429 . S
C1071 C1067 1.429 . S
C1071 C1072 1.523 . S
C1072 C1056 1.368 . S
C1072 C1068 1.368 . S
C1072 C1071 1.523 . S
H1073 C1048 0.950 . S
H1074 C1050 0.950 . S
H1075 C1051 0.949 . S
H1076 C1053 0.950 . S
H1077 C1055 0.950 . S
C1078 C1079 1.349 . S
C1078 C1080 1.327 . S
C1078 H1103 0.950 . S
C1079 C1078 1.349 . S
C1079 C1095 1.349 . S
C1080 C1078 1.327 . S
C1080 C1099 1.429 . S
C1080 H1104 0.950 . S
C1081 C1098 1.574 . S
C1081 C1100 1.368 . S
C1081 H1105 0.949 . S
H1082 C1086 0.949 . S
C1083 C1084 1.349 . S
C1083 C1085 1.327 . S
C1083 H1106 0.950 . S
C1084 C1083 1.349 . S
C1084 C1096 1.349 . S
C1085 C1083 1.327 . S
C1085 C1101 1.429 . S
C1085 H1107 0.950 . S
C1086 H1082 0.949 . S
C1086 C1094 1.574 . S
C1086 C1102 1.368 . S
H1087 C1095 0.950 . S
H1088 C1093 0.950 . S
H1089 C1094 0.949 . S
H1090 C1096 0.950 . S
H1091 C1097 0.950 . S
H1092 C1098 0.949 . S
C1093 H1088 0.950 . S
C1093 C1095 1.327 . S
C1093 C1099 1.429 . S
C1094 C1086 1.574 . S
C1094 H1089 0.949 . S
C1094 C1100 1.368 . S
C1095 C1079 1.349 . S
C1095 H1087 0.950 . S
C1095 C1093 1.327 . S
C1096 C1084 1.349 . S
C1096 H1090 0.950 . S
C1096 C1097 1.327 . S
C1097 H1091 0.950 . S
C1097 C1096 1.327 . S
C1097 C1101 1.429 . S
C1098 C1081 1.574 . S
C1098 H1092 0.949 . S
C1098 C1102 1.368 . S
C1099 C1080 1.429 . S
C1099 C1093 1.429 . S
C1099 C1100 1.523 . S
C1100 C1081 1.368 . S
C1100 C1094 1.368 . S
C1100 C1099 1.523 . S
C1101 C1085 1.429 . S
C1101 C1097 1.429 . S
C1101 C1102 1.523 . S
C1102 C1086 1.368 . S
C1102 C1098 1.368 . S
C1102 C1101 1.523 . S
H1103 C1078 0.950 . S
H1104 C1080 0.950 . S
H1105 C1081 0.949 . S
H1106 C1083 0.950 . S
H1107 C1085 0.950 . S
C1108 C1109 1.349 . S
C1108 C1110 1.327 . S
C1108 H1133 0.950 . S
C1109 C1108 1.349 . S
C1109 C1125 1.349 . S
C1110 C1108 1.327 . S
C1110 C1129 1.429 . S
C1110 H1134 0.950 . S
C1111 C1128 1.574 . S
C1111 C1130 1.368 . S
C1111 H1135 0.949 . S
H1112 C1116 0.949 . S
C1113 C1114 1.349 . S
C1113 C1115 1.327 . S
C1113 H1136 0.950 . S
C1114 C1113 1.349 . S
C1114 C1126 1.349 . S
C1115 C1113 1.327 . S
C1115 C1131 1.429 . S
C1115 H1137 0.950 . S
C1116 H1112 0.949 . S
C1116 C1124 1.574 . S
C1116 C1132 1.368 . S
H1117 C1125 0.950 . S
H1118 C1123 0.950 . S
H1119 C1124 0.949 . S
H1120 C1126 0.950 . S
H1121 C1127 0.950 . S
H1122 C1128 0.949 . S
C1123 H1118 0.950 . S
C1123 C1125 1.327 . S
C1123 C1129 1.429 . S
C1124 C1116 1.574 . S
C1124 H1119 0.949 . S
C1124 C1130 1.368 . S
C1125 C1109 1.349 . S
C1125 H1117 0.950 . S
C1125 C1123 1.327 . S
C1126 C1114 1.349 . S
C1126 H1120 0.950 . S
C1126 C1127 1.327 . S
C1127 H1121 0.950 . S
C1127 C1126 1.327 . S
C1127 C1131 1.429 . S
C1128 C1111 1.574 . S
C1128 H1122 0.949 . S
C1128 C1132 1.368 . S
C1129 C1110 1.429 . S
C1129 C1123 1.429 . S
C1129 C1130 1.523 . S
C1130 C1111 1.368 . S
C1130 C1124 1.368 . S
C1130 C1129 1.523 . S
C1131 C1115 1.429 . S
C1131 C1127 1.429 . S
C1131 C1132 1.523 . S
C1132 C1116 1.368 . S
C1132 C1128 1.368 . S
C1132 C1131 1.523 . S
H1133 C1108 0.950 . S
H1134 C1110 0.950 . S
H1135 C1111 0.949 . S
H1136 C1113 0.950 . S
H1137 C1115 0.950 . S
C1138 C1139 1.349 . S
C1138 C1140 1.327 . S
C1138 H1163 0.950 . S
C1139 C1138 1.349 . S
C1139 C1155 1.349 . S
C1140 C1138 1.327 . S
C1140 C1159 1.429 . S
C1140 H1164 0.950 . S
C1141 C1158 1.574 . S
C1141 C1160 1.368 . S
C1141 H1165 0.949 . S
H1142 C1146 0.949 . S
C1143 C1144 1.349 . S
C1143 C1145 1.327 . S
C1143 H1166 0.950 . S
C1144 C1143 1.349 . S
C1144 C1156 1.349 . S
C1145 C1143 1.327 . S
C1145 C1161 1.429 . S
C1145 H1167 0.950 . S
C1146 H1142 0.949 . S
C1146 C1154 1.574 . S
C1146 C1162 1.368 . S
H1147 C1155 0.950 . S
H1148 C1153 0.950 . S
H1149 C1154 0.949 . S
H1150 C1156 0.950 . S
H1151 C1157 0.950 . S
H1152 C1158 0.949 . S
C1153 H1148 0.950 . S
C1153 C1155 1.327 . S
C1153 C1159 1.429 . S
C1154 C1146 1.574 . S
C1154 H1149 0.949 . S
C1154 C1160 1.368 . S
C1155 C1139 1.349 . S
C1155 H1147 0.950 . S
C1155 C1153 1.327 . S
C1156 C1144 1.349 . S
C1156 H1150 0.950 . S
C1156 C1157 1.327 . S
C1157 H1151 0.950 . S
C1157 C1156 1.327 . S
C1157 C1161 1.429 . S
C1158 C1141 1.574 . S
C1158 H1152 0.949 . S
C1158 C1162 1.368 . S
C1159 C1140 1.429 . S
C1159 C1153 1.429 . S
C1159 C1160 1.523 . S
C1160 C1141 1.368 . S
C1160 C1154 1.368 . S
C1160 C1159 1.523 . S
C1161 C1145 1.429 . S
C1161 C1157 1.429 . S
C1161 C1162 1.523 . S
C1162 C1146 1.368 . S
C1162 C1158 1.368 . S
C1162 C1161 1.523 . S
H1163 C1138 0.950 . S
H1164 C1140 0.950 . S
H1165 C1141 0.949 . S
H1166 C1143 0.950 . S
H1167 C1145 0.950 . S
C209 C5 0.519 . S
C214 C125 0.437 . S
C239 C138 0.437 . S
C244 C18 0.519 . S
C269 C151 0.437 . S
C274 C31 0.519 . S
C299 C112 0.437 . S
C304 C44 0.519 . S
C329 C57 0.519 . S
C334 C203 0.437 . S
C359 C164 0.437 . S
C364 C70 0.519 . S
C389 C177 0.437 . S
C394 C83 0.519 . S
C419 C190 0.437 . S
C424 C96 0.519 . S
C449 C109 0.519 . S
C454 C21 0.437 . S
C479 C122 0.519 . S
C484 C34 0.437 . S
C509 C135 0.519 . S
C514 C47 0.437 . S
C539 C8 0.437 . S
C544 C148 0.519 . S
C569 C161 0.519 . S
C574 C99 0.437 . S
C599 C174 0.519 . S
C604 C60 0.437 . S
C629 C73 0.437 . S
C634 C187 0.519 . S
C659 C200 0.519 . S
C664 C86 0.437 . S
C689 C104 1.415 . S
C694 C0 1.415 . S
C719 C13 1.415 . S
C724 C117 1.415 . S
C749 C130 1.415 . S
C754 C26 1.415 . S
C779 C39 1.415 . S
C784 C143 1.415 . S
C809 C156 1.415 . S
C814 C52 1.415 . S
C839 C65 1.415 . S
C844 C169 1.415 . S
C869 C182 1.415 . S
C874 C78 1.415 . S
C899 C195 1.415 . S
C904 C91 1.415 . S
C929 C62 1.619 . S
C934 C10 1.619 . S
C959 C75 1.619 . S
C964 C23 1.619 . S
C989 C36 1.619 . S
C994 C88 1.619 . S
C1019 C101 1.619 . S
C1024 C49 1.619 . S
C1049 C114 1.619 . S
C1054 C166 1.619 . S
C1079 C179 1.619 . S
C1084 C127 1.619 . S
C1109 C192 1.619 . S
C1114 C140 1.619 . S
C1139 C205 1.619 . S
C1144 C153 1.619 . S
