# Generated by pormake.
# Topology crb, (4)-cn, num edge types: 1
# Building blocks:
#     Node 0, Type 0, BuildingBlock: QUQFOY_clean_sbu_1, # of connection points: 4
#     Node 1, Type 0, BuildingBlock: QUQFOY_clean_sbu_1, # of connection points: 4
#     Node 2, Type 0, BuildingBlock: QUQFOY_clean_sbu_1, # of connection points: 4
#     Node 3, Type 0, BuildingBlock: QUQFOY_clean_sbu_1, # of connection points: 4
#     Node 4, Type 0, BuildingBlock: QUQFOY_clean_sbu_1, # of connection points: 4
#     Node 5, Type 0, BuildingBlock: QUQFOY_clean_sbu_1, # of connection points: 4
#     Node 6, Type 0, BuildingBlock: QUQFOY_clean_sbu_1, # of connection points: 4
#     Node 7, Type 0, BuildingBlock: QUQFOY_clean_sbu_1, # of connection points: 4
#     Edge 8, Type (0, 0), BuildingBlock: FUNLAD_clean_linker_1, # of connection points: 2
#     Edge 9, Type (0, 0), BuildingBlock: FUNLAD_clean_linker_1, # of connection points: 2
#     Edge 10, Type (0, 0), BuildingBlock: FUNLAD_clean_linker_1, # of connection points: 2
#     Edge 11, Type (0, 0), BuildingBlock: FUNLAD_clean_linker_1, # of connection points: 2
#     Edge 12, Type (0, 0), BuildingBlock: FUNLAD_clean_linker_1, # of connection points: 2
#     Edge 13, Type (0, 0), BuildingBlock: FUNLAD_clean_linker_1, # of connection points: 2
#     Edge 14, Type (0, 0), BuildingBlock: FUNLAD_clean_linker_1, # of connection points: 2
#     Edge 15, Type (0, 0), BuildingBlock: FUNLAD_clean_linker_1, # of connection points: 2
#     Edge 16, Type (0, 0), BuildingBlock: FUNLAD_clean_linker_1, # of connection points: 2
#     Edge 17, Type (0, 0), BuildingBlock: FUNLAD_clean_linker_1, # of connection points: 2
#     Edge 18, Type (0, 0), BuildingBlock: FUNLAD_clean_linker_1, # of connection points: 2
#     Edge 19, Type (0, 0), BuildingBlock: FUNLAD_clean_linker_1, # of connection points: 2
#     Edge 20, Type (0, 0), BuildingBlock: FUNLAD_clean_linker_1, # of connection points: 2
#     Edge 21, Type (0, 0), BuildingBlock: FUNLAD_clean_linker_1, # of connection points: 2
#     Edge 22, Type (0, 0), BuildingBlock: FUNLAD_clean_linker_1, # of connection points: 2
#     Edge 23, Type (0, 0), BuildingBlock: FUNLAD_clean_linker_1, # of connection points: 2
# Relax obj value: 0.154
# Max RMSD: 0.215
# Mean RMSD: 0.215
data_MOF--net-crb--node1-QUQFOY_clean_sbu_1--edge1-FUNLAD_clean_linker_1
_symmetry_space_group_name_H-M    P1
_symmetry_Int_Tables_number       1
_symmetry_cell_setting            triclinic
loop_
_symmetry_equiv_pos_as_xyz
'x, y, z'
_cell_length_a     42.089326
_cell_length_b     52.974699
_cell_length_c     24.218454
_cell_angle_alpha  90.046963
_cell_angle_beta   90.093746
_cell_angle_gamma 90.032346
loop_
_atom_site_label
_atom_site_type_symbol
_atom_site_fract_x
_atom_site_fract_y
_atom_site_fract_z
_atom_type_partial_charge
O0 O 0.30419 0.31102 0.04537 0.0
Cd1 Cd 0.31897 0.3263 0.11993 0.0
Cd2 Cd 0.31628 0.37064 0.0512 0.0
O3 O 0.29402 0.34583 0.99809 0.0
O4 O 0.32486 0.29578 0.16668 0.0
O5 O 0.28857 0.32478 0.18462 0.0
C6 C 0.30226 0.30381 0.19756 0.0
C7 C 0.29513 0.41024 0.0709 0.0
C8 C 0.29362 0.32194 0.00233 0.0
C9 C 0.37894 0.35657 0.09792 0.0
O10 O 0.36495 0.36854 0.05959 0.0
O11 O 0.36388 0.34129 0.12848 0.0
O12 O 0.30797 0.40544 0.02372 0.0
O13 O 0.29289 0.3921 0.1063 0.0
O14 O 0.6993 0.30612 0.14274 0.0
Cd15 Cd 0.68236 0.32013 0.06895 0.0
Cd16 Cd 0.68457 0.36635 0.14347 0.0
O17 O 0.70603 0.34019 0.19446 0.0
O18 O 0.676 0.28789 0.02817 0.0
O19 O 0.71025 0.31698 0.00127 0.0
C20 C 0.69729 0.29515 0.99379 0.0
C21 C 0.70457 0.40742 0.14054 0.0
C22 C 0.70845 0.31652 0.18728 0.0
C23 C 0.62248 0.35115 0.09077 0.0
O24 O 0.63641 0.36399 0.12796 0.0
O25 O 0.63731 0.33488 0.06232 0.0
O26 O 0.68942 0.39915 0.18296 0.0
O27 O 0.70951 0.39206 0.09997 0.0
O28 O 0.70246 0.69705 0.02797 0.0
Cd29 Cd 0.68306 0.68152 0.09813 0.0
Cd30 Cd 0.68881 0.63635 0.03137 0.0
O31 O 0.71156 0.66209 0.9806 0.0
O32 O 0.68461 0.70987 0.15201 0.0
O33 O 0.71075 0.67407 0.16416 0.0
C34 C 0.70356 0.69638 0.18158 0.0
C35 C 0.70819 0.59505 0.03553 0.0
C36 C 0.71333 0.68593 0.98555 0.0
C37 C 0.62336 0.65298 0.06989 0.0
O38 O 0.64003 0.63816 0.04064 0.0
O39 O 0.63608 0.6709 0.09694 0.0
O40 O 0.69482 0.60372 0.99171 0.0
O41 O 0.71188 0.61014 0.07699 0.0
O42 O 0.29295 0.70186 0.15219 0.0
Cd43 Cd 0.31448 0.68867 0.08176 0.0
Cd44 Cd 0.31711 0.64481 0.14272 0.0
O45 O 0.29289 0.66646 0.2003 0.0
O46 O 0.30689 0.71598 0.02726 0.0
O47 O 0.28853 0.67713 0.01637 0.0
C48 C 0.29112 0.69993 0.99811 0.0
C49 C 0.29792 0.60525 0.11691 0.0
C50 C 0.28608 0.68974 0.19579 0.0
C51 C 0.3791 0.6676 0.106 0.0
O52 O 0.36552 0.65011 0.13308 0.0
O53 O 0.36298 0.68464 0.08221 0.0
O54 O 0.31183 0.6087 0.16383 0.0
O55 O 0.29395 0.62454 0.08505 0.0
O56 O 0.79 0.80935 0.53001 0.0
Cd57 Cd 0.81094 0.82516 0.59909 0.0
Cd58 Cd 0.80465 0.86777 0.53552 0.0
O59 O 0.77838 0.84436 0.48487 0.0
O60 O 0.80972 0.7972 0.65386 0.0
O61 O 0.78413 0.83327 0.66573 0.0
C62 C 0.7912 0.811 0.6835 0.0
C63 C 0.78483 0.90631 0.56619 0.0
C64 C 0.77722 0.82049 0.48917 0.0
C65 C 0.87074 0.85121 0.56319 0.0
O66 O 0.85358 0.86505 0.53252 0.0
O67 O 0.85821 0.83516 0.59548 0.0
O68 O 0.79445 0.9034 0.51603 0.0
O69 O 0.78532 0.88697 0.59865 0.0
O70 O 0.19592 0.80823 0.64942 0.0
Cd71 Cd 0.17636 0.82519 0.58066 0.0
Cd72 Cd 0.18084 0.86774 0.65291 0.0
O73 O 0.20704 0.8423 0.69852 0.0
O74 O 0.17762 0.79753 0.52504 0.0
O75 O 0.20475 0.83305 0.51587 0.0
C76 C 0.19733 0.811 0.49709 0.0
C77 C 0.19808 0.90959 0.64761 0.0
C78 C 0.20838 0.81857 0.69156 0.0
C79 C 0.11584 0.85058 0.61588 0.0
O80 O 0.13207 0.86347 0.64999 0.0
O81 O 0.12922 0.83563 0.58211 0.0
O82 O 0.18674 0.90039 0.6926 0.0
O83 O 0.2007 0.89481 0.60539 0.0
O84 O 0.20631 0.19829 0.54449 0.0
Cd85 Cd 0.18686 0.18538 0.61723 0.0
Cd86 Cd 0.17992 0.14055 0.54952 0.0
O87 O 0.19916 0.16468 0.49155 0.0
O88 O 0.19479 0.21398 0.66888 0.0
O89 O 0.21475 0.17587 0.682 0.0
C90 C 0.21179 0.19894 0.69838 0.0
C91 C 0.19535 0.09815 0.54948 0.0
C92 C 0.20845 0.18731 0.49798 0.0
C93 C 0.12106 0.16389 0.59977 0.0
O94 O 0.1333 0.14629 0.57124 0.0
O95 O 0.13815 0.18113 0.6209 0.0
O96 O 0.1781 0.10741 0.51061 0.0
O97 O 0.20496 0.11315 0.58815 0.0
O98 O 0.79794 0.19816 0.62554 0.0
Cd99 Cd 0.81723 0.17822 0.5611 0.0
Cd100 Cd 0.80816 0.13917 0.63432 0.0
O101 O 0.78596 0.1666 0.68137 0.0
O102 O 0.81757 0.20375 0.50106 0.0
O103 O 0.78898 0.16874 0.49702 0.0
C104 C 0.79723 0.18996 0.47513 0.0
C105 C 0.78451 0.1007 0.61286 0.0
C106 C 0.78596 0.19006 0.67013 0.0
C107 C 0.87523 0.15112 0.6019 0.0
O108 O 0.85712 0.13861 0.63358 0.0
O109 O 0.8639 0.16704 0.56794 0.0
O110 O 0.795 0.10535 0.66194 0.0
O111 O 0.78594 0.11847 0.57645 0.0
H112 H 0.28035 0.44019 0.12902 0.0
C113 C 0.28631 0.43632 0.08619 0.0
H114 H 0.29609 0.45171 0.0078 0.0
H115 H 0.2358 0.55017 0.1458 0.0
H116 H 0.18621 0.52669 0.14896 0.0
H117 H 0.18331 0.48296 0.11417 0.0
H118 H 0.22999 0.46231 0.07649 0.0
C119 C 0.28922 0.45552 0.05024 0.0
C120 C 0.28981 0.48233 0.06896 0.0
C121 C 0.26212 0.49424 0.08981 0.0
C122 C 0.26361 0.51967 0.10883 0.0
C123 C 0.23584 0.53099 0.13043 0.0
C124 C 0.20726 0.51773 0.13243 0.0
C125 C 0.20564 0.49309 0.11291 0.0
C126 C 0.23265 0.48141 0.09166 0.0
H127 H 0.27906 0.57739 0.05707 0.0
C128 C 0.28883 0.57967 0.09835 0.0
H129 H 0.30583 0.56115 0.16977 0.0
H130 H 0.34742 0.46536 0.03085 0.0
H131 H 0.3963 0.48931 0.02553 0.0
H132 H 0.39842 0.53363 0.05665 0.0
H133 H 0.35159 0.5542 0.09352 0.0
C134 C 0.2951 0.55916 0.12916 0.0
C135 C 0.2926 0.53321 0.10611 0.0
C136 C 0.32007 0.52153 0.08404 0.0
C137 C 0.31871 0.49608 0.0655 0.0
C138 C 0.3468 0.48476 0.04474 0.0
C139 C 0.37514 0.49827 0.04161 0.0
C140 C 0.37634 0.5232 0.05919 0.0
C141 C 0.34925 0.53477 0.08031 0.0
H142 H 0.4231 0.35123 0.14471 0.0
C143 C 0.4133 0.35928 0.10705 0.0
H144 H 0.42389 0.37724 0.03135 0.0
H145 H 0.5607 0.41462 0.10427 0.0
H146 H 0.53347 0.45427 0.08781 0.0
H147 H 0.47597 0.45514 0.06794 0.0
H148 H 0.44542 0.41634 0.0636 0.0
C149 C 0.4331 0.36897 0.06917 0.0
C150 C 0.46812 0.36837 0.07827 0.0
C151 C 0.4855 0.39126 0.08145 0.0
C152 C 0.51854 0.39079 0.09398 0.0
C153 C 0.53549 0.41389 0.09565 0.0
C154 C 0.52015 0.43679 0.08624 0.0
C155 C 0.48778 0.43728 0.07501 0.0
C156 C 0.47053 0.41485 0.07262 0.0
H157 H 0.57825 0.34453 0.04479 0.0
C158 C 0.58828 0.35425 0.08036 0.0
H159 H 0.57838 0.37705 0.14992 0.0
H160 H 0.44392 0.32065 0.06291 0.0
H161 H 0.47006 0.28123 0.08534 0.0
H162 H 0.52494 0.28089 0.1213 0.0
H163 H 0.5543 0.31989 0.13279 0.0
C164 C 0.56888 0.3669 0.11454 0.0
C165 C 0.53398 0.36747 0.10427 0.0
C166 C 0.51635 0.34462 0.10242 0.0
C167 C 0.48388 0.34497 0.08647 0.0
C168 C 0.46792 0.32165 0.07878 0.0
C169 C 0.48276 0.29883 0.09091 0.0
C170 C 0.5137 0.29863 0.11081 0.0
C171 C 0.5304 0.32118 0.11663 0.0
H172 H 0.70961 0.44565 0.17486 0.0
C173 C 0.71356 0.43429 0.13809 0.0
H174 H 0.72455 0.43504 0.05301 0.0
H175 H 0.66158 0.54564 0.05909 0.0
H176 H 0.61649 0.52112 0.02793 0.0
H177 H 0.61943 0.47468 0.02253 0.0
H178 H 0.66745 0.45253 0.04914 0.0
C179 C 0.72224 0.44574 0.09108 0.0
C180 C 0.72241 0.4738 0.08799 0.0
C181 C 0.69472 0.48654 0.0698 0.0
C182 C 0.69347 0.51336 0.07092 0.0
C183 C 0.66457 0.52542 0.05647 0.0
C184 C 0.63829 0.51153 0.03906 0.0
C185 C 0.63991 0.48539 0.03617 0.0
C186 C 0.66765 0.47293 0.05156 0.0
H187 H 0.71525 0.55731 -0.0 0.0
C188 C 0.71631 0.56803 0.03827 0.0
H189 H 0.72076 0.56588 0.12508 0.0
H190 H 0.77898 0.45512 0.12507 0.0
H191 H 0.82457 0.4796 0.15586 0.0
H192 H 0.82313 0.52616 0.15525 0.0
H193 H 0.77609 0.5486 0.12411 0.0
C194 C 0.71989 0.55563 0.08622 0.0
C195 C 0.72059 0.52747 0.08762 0.0
C196 C 0.74826 0.51467 0.10588 0.0
C197 C 0.74914 0.4878 0.10614 0.0
C198 C 0.77707 0.4755 0.1244 0.0
C199 C 0.80339 0.48931 0.142 0.0
C200 C 0.80258 0.51553 0.14164 0.0
C201 C 0.77543 0.52818 0.12372 0.0
H202 H 0.42444 0.68515 0.08238 0.0
C203 C 0.41394 0.66851 0.10131 0.0
H204 H 0.42294 0.63293 0.13753 0.0
H205 H 0.55247 0.66957 0.9956 0.0
H206 H 0.51947 0.66568 0.91405 0.0
H207 H 0.46299 0.65372 0.92174 0.0
H208 H 0.43905 0.64633 0.01128 0.0
C209 C 0.43289 0.64955 0.11773 0.0
C210 C 0.46803 0.65158 0.11214 0.0
C211 C 0.48213 0.65416 0.05923 0.0
C212 C 0.51516 0.65937 0.05458 0.0
C213 C 0.52796 0.66413 0.00151 0.0
C214 C 0.50919 0.66219 0.95428 0.0
C215 C 0.47737 0.65558 0.95862 0.0
C216 C 0.46387 0.6516 0.01034 0.0
H217 H 0.579 0.63223 0.05247 0.0
C218 C 0.58877 0.64888 0.0726 0.0
H219 H 0.57876 0.68139 0.11997 0.0
H220 H 0.4488 0.64627 0.21954 0.0
H221 H 0.48245 0.6472 0.30084 0.0
H222 H 0.54031 0.65353 0.29251 0.0
H223 H 0.56483 0.65922 0.20289 0.0
C224 C 0.56921 0.66501 0.09855 0.0
C225 C 0.53446 0.66012 0.10269 0.0
C226 C 0.52059 0.65636 0.15539 0.0
C227 C 0.48731 0.65223 0.16014 0.0
C228 C 0.47399 0.64916 0.21341 0.0
C229 C 0.49303 0.64967 0.26049 0.0
C230 C 0.5256 0.65326 0.2558 0.0
C231 C 0.53935 0.65657 0.20404 0.0
H232 H 0.7713 0.93355 0.63127 0.0
C233 C 0.77614 0.93152 0.58742 0.0
H234 H 0.78209 0.95046 0.51126 0.0
H235 H 0.71619 0.05156 0.59622 0.0
H236 H 0.67107 0.03297 0.54863 0.0
H237 H 0.67329 0.98918 0.51407 0.0
H238 H 0.7206 0.96361 0.5273 0.0
C239 C 0.77748 0.95218 0.55523 0.0
C240 C 0.77547 0.97812 0.57862 0.0
C241 C 0.74789 0.99293 0.56991 0.0
C242 C 0.74682 0.01835 0.58902 0.0
C243 C 0.71859 0.03242 0.58126 0.0
C244 C 0.69245 0.02192 0.55432 0.0
C245 C 0.69369 0.99724 0.53491 0.0
C246 C 0.72099 0.9828 0.54264 0.0
H247 H 0.77086 0.07097 0.55339 0.0
C248 C 0.77449 0.07496 0.59698 0.0
H249 H 0.77829 0.05986 0.67721 0.0
H250 H 0.8326 0.95522 0.60042 0.0
H251 H 0.87764 0.97372 0.64767 0.0
H252 H 0.87585 0.01769 0.68094 0.0
H253 H 0.82907 0.04342 0.66697 0.0
C254 C 0.77378 0.05598 0.63383 0.0
C255 C 0.77361 0.02904 0.61592 0.0
C256 C 0.80105 0.01405 0.62538 0.0
C257 C 0.80205 0.98864 0.60646 0.0
C258 C 0.83021 0.97445 0.61476 0.0
C259 C 0.85638 0.98488 0.64163 0.0
C260 C 0.85537 0.00963 0.66034 0.0
C261 C 0.82822 0.02416 0.6522 0.0
H262 H 0.07002 0.86188 0.65228 0.0
C263 C 0.08095 0.85266 0.61697 0.0
H264 H 0.07333 0.83409 0.541 0.0
H265 H 0.93506 0.79565 0.5871 0.0
H266 H 0.96444 0.75657 0.57854 0.0
H267 H 0.0229 0.75677 0.57181 0.0
H268 H 0.05227 0.79607 0.57291 0.0
C269 C 0.06257 0.84355 0.57613 0.0
C270 C 0.02725 0.8438 0.58008 0.0
C271 C 0.01048 0.82057 0.58037 0.0
C272 C 0.97684 0.82041 0.58569 0.0
C273 C 0.96065 0.79693 0.58437 0.0
C274 C 0.97722 0.77431 0.5793 0.0
C275 C 0.01011 0.77443 0.57542 0.0
C276 C 0.02667 0.79719 0.57596 0.0
H277 H 0.91571 0.86426 0.52612 0.0
C278 C 0.90558 0.85354 0.56007 0.0
H279 H 0.91486 0.83184 0.63131 0.0
H280 H 0.05119 0.89184 0.57131 0.0
H281 H 0.02226 0.93086 0.58532 0.0
H282 H 0.9649 0.93033 0.60607 0.0
H283 H 0.93602 0.89083 0.61118 0.0
C284 C 0.92484 0.84285 0.59767 0.0
C285 C 0.96005 0.84345 0.59188 0.0
C286 C 0.97688 0.86668 0.59252 0.0
C287 C 0.01035 0.86691 0.58446 0.0
C288 C 0.02613 0.89047 0.58054 0.0
C289 C 0.00975 0.91304 0.588 0.0
C290 C 0.97743 0.91275 0.59939 0.0
C291 C 0.96108 0.88991 0.60172 0.0
H292 H 0.19165 0.05955 0.51692 0.0
C293 C 0.20145 0.07076 0.55053 0.0
H294 H 0.2251 0.06951 0.62769 0.0
H295 H 0.15143 0.95977 0.61876 0.0
H296 H 0.10615 0.98482 0.64668 0.0
H297 H 0.11014 0.03117 0.65382 0.0
H298 H 0.15937 0.05271 0.63198 0.0
C299 C 0.21534 0.05893 0.59317 0.0
C300 C 0.21461 0.03087 0.59627 0.0
C301 C 0.18611 0.01846 0.61166 0.0
C302 C 0.18427 0.99167 0.61006 0.0
C303 C 0.15477 0.97995 0.62188 0.0
C304 C 0.12841 0.99414 0.63747 0.0
C305 C 0.13063 0.02023 0.64129 0.0
C306 C 0.15902 0.03235 0.62844 0.0
H307 H 0.20395 0.94751 0.68306 0.0
C308 C 0.20551 0.93675 0.64489 0.0
H309 H 0.21188 0.9388 0.55843 0.0
H310 H 0.27271 0.04881 0.56532 0.0
H311 H 0.3187 0.02374 0.53938 0.0
H312 H 0.31619 0.9772 0.53953 0.0
H313 H 0.26766 0.95538 0.56533 0.0
C314 C 0.21014 0.94908 0.59715 0.0
C315 C 0.21152 0.97722 0.59589 0.0
C316 C 0.24008 0.98966 0.58095 0.0
C317 C 0.24161 0.01652 0.58116 0.0
C318 C 0.27035 0.02846 0.56585 0.0
C319 C 0.29689 0.01431 0.55096 0.0
C320 C 0.29547 0.98809 0.55105 0.0
C321 C 0.26748 0.97581 0.56591 0.0
H322 H 0.91843 0.13112 0.62923 0.0
C323 C 0.90977 0.14708 0.60536 0.0
H324 H 0.92217 0.17874 0.55704 0.0
H325 H 0.05472 0.14742 0.69427 0.0
H326 H 0.02546 0.15699 0.77786 0.0
H327 H 0.96882 0.16881 0.77369 0.0
H328 H 0.94096 0.17042 0.68617 0.0
C329 C 0.93057 0.1629 0.58154 0.0
C330 C 0.9654 0.15839 0.58435 0.0
C331 C 0.98168 0.15897 0.63573 0.0
C332 C 0.0148 0.15377 0.63783 0.0
C333 C 0.02998 0.15257 0.69 0.0
C334 C 0.01341 0.15782 0.73838 0.0
C335 C 0.98149 0.16435 0.73606 0.0
C336 C 0.9657 0.16499 0.68549 0.0
H337 H 0.07619 0.18239 0.62344 0.0
C338 C 0.08632 0.16526 0.60612 0.0
H339 H 0.07697 0.12957 0.57081 0.0
H340 H 0.94128 0.15528 0.47933 0.0
H341 H 0.9711 0.14786 0.3954 0.0
H342 H 0.02916 0.14169 0.39836 0.0
H343 H 0.05766 0.14263 0.48524 0.0
C344 C 0.06705 0.14656 0.58913 0.0
C345 C 0.03195 0.14976 0.58821 0.0
C346 C 0.01573 0.14947 0.53682 0.0
C347 C 0.98239 0.15359 0.53495 0.0
C348 C 0.96668 0.15271 0.48316 0.0
C349 C 0.9835 0.1484 0.43458 0.0
C350 C 0.01617 0.14489 0.43626 0.0
C351 C 0.03222 0.14542 0.48657 0.0
H352 H 0.21298 0.19448 0.40884 0.0
C353 C 0.21947 0.20156 0.44946 0.0
H354 H 0.2423 0.23024 0.49486 0.0
H355 H 0.27659 0.24249 0.22312 0.0
H356 H 0.29641 0.19956 0.22618 0.0
H357 H 0.29521 0.17518 0.31292 0.0
H358 H 0.27266 0.19317 0.39609 0.0
C359 C 0.23603 0.22318 0.45412 0.0
C360 C 0.24327 0.23934 0.40523 0.0
C361 C 0.25949 0.22935 0.35873 0.0
C362 C 0.2633 0.24431 0.31047 0.0
C363 C 0.2756 0.23272 0.26226 0.0
C364 C 0.28671 0.20798 0.26324 0.0
C365 C 0.28582 0.19419 0.31193 0.0
C366 C 0.27244 0.20466 0.35925 0.0
H367 H 0.31169 0.27783 0.26597 0.0
C368 C 0.29326 0.28912 0.24647 0.0
H369 H 0.24452 0.29807 0.24407 0.0
H370 H 0.21 0.2644 0.48599 0.0
H371 H 0.19445 0.30834 0.48527 0.0
H372 H 0.20704 0.33566 0.40587 0.0
H373 H 0.23472 0.31902 0.32621 0.0
C374 C 0.26313 0.28711 0.26393 0.0
C375 C 0.25473 0.27026 0.31116 0.0
C376 C 0.23929 0.28047 0.35813 0.0
C377 C 0.233 0.26489 0.40474 0.0
C378 C 0.21629 0.27541 0.45006 0.0
C379 C 0.20706 0.30065 0.45015 0.0
C380 C 0.21409 0.31601 0.40542 0.0
C381 C 0.22999 0.30617 0.35986 0.0
H382 H 0.73142 0.31036 0.26822 0.0
C383 C 0.7223 0.30091 0.23161 0.0
H384 H 0.71543 0.26593 0.19117 0.0
H385 H 0.82369 0.20893 0.32183 0.0
H386 H 0.8447 0.20897 0.22845 0.0
H387 H 0.81762 0.2325 0.15416 0.0
H388 H 0.76942 0.25608 0.17262 0.0
C389 C 0.7238 0.27558 0.22804 0.0
C390 C 0.73889 0.26016 0.2722 0.0
C391 C 0.76697 0.24636 0.26045 0.0
C392 C 0.78276 0.23296 0.30331 0.0
C393 C 0.8109 0.21953 0.29075 0.0
C394 C 0.82318 0.21938 0.23737 0.0
C395 C 0.80792 0.23261 0.19553 0.0
C396 C 0.7802 0.24603 0.2067 0.0
H397 H 0.76361 0.1877 0.40486 0.0
C398 C 0.78209 0.1991 0.42395 0.0
H399 H 0.80722 0.23369 0.42244 0.0
H400 H 0.68238 0.2806 0.30648 0.0
H401 H 0.66148 0.28038 0.3997 0.0
H402 H 0.69045 0.25908 0.47503 0.0
H403 H 0.74022 0.23753 0.45735 0.0
C404 C 0.78891 0.22206 0.4036 0.0
C405 C 0.77046 0.23339 0.35765 0.0
C406 C 0.74175 0.24636 0.36901 0.0
C407 C 0.72563 0.25939 0.32601 0.0
C408 C 0.69629 0.27127 0.33799 0.0
C409 C 0.68387 0.27111 0.39127 0.0
C410 C 0.70014 0.25907 0.43365 0.0
C411 C 0.72871 0.24676 0.4229 0.0
H412 H 0.74979 0.81578 0.41204 0.0
C413 C 0.76178 0.80565 0.44509 0.0
H414 H 0.7765 0.7699 0.4745 0.0
H415 H 0.66111 0.7361 0.30402 0.0
H416 H 0.62615 0.75047 0.3771 0.0
H417 H 0.6477 0.7719 0.45954 0.0
H418 H 0.70439 0.7791 0.46937 0.0
C419 C 0.76349 0.78033 0.44317 0.0
C420 C 0.75054 0.76611 0.39526 0.0
C421 C 0.71741 0.762 0.39023 0.0
C422 C 0.70504 0.74963 0.34271 0.0
C423 C 0.67181 0.74563 0.33893 0.0
C424 C 0.65147 0.7537 0.38069 0.0
C425 C 0.6636 0.76577 0.4271 0.0
C426 C 0.69617 0.76987 0.43212 0.0
H427 H 0.73208 0.6942 0.25836 0.0
C428 C 0.71714 0.70642 0.23333 0.0
H429 H 0.69673 0.7426 0.22449 0.0
H430 H 0.81537 0.76954 0.39435 0.0
H431 H 0.85053 0.75572 0.32104 0.0
H432 H 0.82904 0.73601 0.23656 0.0
H433 H 0.77247 0.72971 0.22513 0.0
C434 C 0.71221 0.7305 0.24878 0.0
C435 C 0.72583 0.74138 0.30032 0.0
C436 C 0.75909 0.74522 0.30576 0.0
C437 C 0.77145 0.75722 0.3538 0.0
C438 C 0.80472 0.76069 0.35854 0.0
C439 C 0.82517 0.75288 0.31675 0.0
C440 C 0.81308 0.74174 0.26924 0.0
C441 C 0.78047 0.73804 0.26343 0.0
H442 H 0.22992 0.8123 0.42547 0.0
C443 C 0.21209 0.80098 0.4464 0.0
H444 H 0.18704 0.76634 0.44773 0.0
H445 H 0.21621 0.74413 0.19444 0.0
H446 H 0.16554 0.76526 0.18277 0.0
H447 H 0.14004 0.78723 0.26087 0.0
H448 H 0.16511 0.78816 0.35125 0.0
C449 C 0.20501 0.77778 0.42753 0.0
C450 C 0.22173 0.76648 0.37956 0.0
C451 C 0.20693 0.76626 0.32702 0.0
C452 C 0.22179 0.75377 0.28194 0.0
C453 C 0.2062 0.75356 0.23003 0.0
C454 C 0.17705 0.76556 0.22277 0.0
C455 C 0.16268 0.77791 0.26675 0.0
C456 C 0.1773 0.77828 0.3184 0.0
H457 H 0.26372 0.69194 0.27823 0.0
C458 C 0.27078 0.70294 0.24239 0.0
H459 H 0.27289 0.73924 0.20636 0.0
H460 H 0.25619 0.76315 0.47527 0.0
H461 H 0.308 0.74376 0.48628 0.0
H462 H 0.33519 0.72411 0.407 0.0
H463 H 0.31054 0.72336 0.31654 0.0
C464 C 0.26645 0.72811 0.24232 0.0
C465 C 0.25142 0.74151 0.28958 0.0
C466 C 0.26678 0.74254 0.34178 0.0
C467 C 0.25163 0.75467 0.38705 0.0
C468 C 0.26689 0.75461 0.43923 0.0
C469 C 0.29663 0.74354 0.44615 0.0
C470 C 0.3119 0.73242 0.40155 0.0
C471 C 0.29733 0.73194 0.34987 0.0
H472 H 0.23587 0.81264 0.76798 0.0
C473 C 0.22405 0.80302 0.73399 0.0
H474 H 0.2103 0.7676 0.70104 0.0
H475 H 0.32823 0.73875 0.87301 0.0
H476 H 0.36225 0.75485 0.80026 0.0
H477 H 0.33929 0.77447 0.7169 0.0
H478 H 0.28211 0.77812 0.70583 0.0
C479 C 0.22307 0.77766 0.73328 0.0
C480 C 0.23688 0.76295 0.77963 0.0
C481 C 0.27026 0.76074 0.78515 0.0
C482 C 0.28344 0.74937 0.8331 0.0
C483 C 0.31692 0.74745 0.83767 0.0
C484 C 0.33673 0.75652 0.79612 0.0
C485 C 0.3238 0.76757 0.74919 0.0
C486 C 0.29097 0.76966 0.74348 0.0
H487 H 0.26385 0.69344 0.92104 0.0
C488 C 0.27625 0.70755 0.94554 0.0
H489 H 0.29055 0.74565 0.952 0.0
H490 H 0.17194 0.7617 0.77826 0.0
H491 H 0.13766 0.74534 0.85036 0.0
H492 H 0.16034 0.72707 0.93536 0.0
H493 H 0.21728 0.72478 0.94859 0.0
C494 C 0.27742 0.73165 0.92832 0.0
C495 C 0.2632 0.74019 0.87533 0.0
C496 C 0.22971 0.74143 0.86865 0.0
C497 C 0.21658 0.7525 0.82023 0.0
C498 C 0.18313 0.75363 0.81443 0.0
C499 C 0.16318 0.74433 0.85548 0.0
C500 C 0.17596 0.734 0.90329 0.0
C501 C 0.20878 0.73265 0.91018 0.0
H502 H 0.27106 0.31688 0.92078 0.0
C503 C 0.28113 0.30686 0.95585 0.0
H504 H 0.29189 0.27112 0.98995 0.0
H505 H 0.19017 0.21365 0.8427 0.0
H506 H 0.16844 0.2081 0.93462 0.0
H507 H 0.1928 0.22929 0.01496 0.0
H508 H 0.239 0.25619 0.00391 0.0
C509 C 0.28251 0.28148 0.95483 0.0
C510 C 0.26977 0.26686 0.90708 0.0
C511 C 0.24313 0.2508 0.9145 0.0
C512 C 0.22911 0.23852 0.86818 0.0
C513 C 0.20193 0.22323 0.87648 0.0
C514 C 0.18917 0.21992 0.92902 0.0
C515 C 0.20289 0.23185 0.97426 0.0
C516 C 0.22946 0.24721 0.96732 0.0
H517 H 0.24147 0.19476 0.77354 0.0
C518 C 0.22753 0.20797 0.74922 0.0
H519 H 0.21201 0.2457 0.74033 0.0
H520 H 0.32439 0.29221 0.88 0.0
H521 H 0.34659 0.29712 0.78832 0.0
H522 H 0.32106 0.27713 0.70759 0.0
H523 H 0.27337 0.25183 0.71827 0.0
C524 C 0.22514 0.2322 0.76526 0.0
C525 C 0.2419 0.24221 0.81469 0.0
C526 C 0.26941 0.25729 0.80766 0.0
C527 C 0.28366 0.26932 0.85399 0.0
C528 C 0.31188 0.28342 0.84601 0.0
C529 C 0.32505 0.28621 0.79363 0.0
C530 C 0.31071 0.27492 0.7482 0.0
C531 C 0.28328 0.26053 0.75489 0.0
H532 H 0.6931 0.26068 0.94408 0.0
C533 C 0.7063 0.27825 0.94831 0.0
H534 H 0.74501 0.29975 0.91882 0.0
H535 H 0.81142 0.20031 0.82648 0.0
H536 H 0.84623 0.2111 0.90285 0.0
H537 H 0.83272 0.24586 0.96646 0.0
H538 H 0.78444 0.27018 0.95379 0.0
C539 C 0.7305 0.28292 0.91391 0.0
C540 C 0.73989 0.26355 0.87255 0.0
C541 C 0.7682 0.24955 0.88055 0.0
C542 C 0.77579 0.22933 0.84426 0.0
C543 C 0.80433 0.21573 0.85304 0.0
C544 C 0.82455 0.22173 0.89672 0.0
C545 C 0.81695 0.24131 0.93251 0.0
C546 C 0.78915 0.25511 0.92476 0.0
H547 H 0.7724 0.22834 0.69596 0.0
C548 C 0.77308 0.20872 0.70916 0.0
H549 H 0.76606 0.18363 0.77578 0.0
H550 H 0.68567 0.28847 0.84196 0.0
H551 H 0.65013 0.27711 0.76691 0.0
H552 H 0.66164 0.24045 0.70731 0.0
H553 H 0.70894 0.21516 0.72193 0.0
C554 C 0.76407 0.20287 0.76065 0.0
C555 C 0.75508 0.22321 0.8 0.0
C556 C 0.72676 0.23725 0.79193 0.0
C557 C 0.71948 0.25776 0.82761 0.0
C558 C 0.69177 0.27216 0.81724 0.0
C559 C 0.67127 0.26594 0.7741 0.0
C560 C 0.6778 0.24536 0.74044 0.0
C561 C 0.70516 0.2311 0.74908 0.0
H562 H 0.73772 0.69064 0.90561 0.0
C563 C 0.72733 0.70079 0.94018 0.0
H564 H 0.71643 0.73662 0.9737 0.0
H565 H 0.8176 0.79575 0.83032 0.0
H566 H 0.83896 0.80109 0.9228 0.0
H567 H 0.81506 0.77886 0.00202 0.0
H568 H 0.76969 0.75118 0.98935 0.0
C569 C 0.72627 0.72617 0.9391 0.0
C570 C 0.73937 0.74074 0.89175 0.0
C571 C 0.76567 0.75707 0.90008 0.0
C572 C 0.77952 0.76987 0.85441 0.0
C573 C 0.80613 0.78567 0.86363 0.0
C574 C 0.81864 0.78888 0.91647 0.0
C575 C 0.80517 0.77637 0.96108 0.0
C576 C 0.77908 0.76057 0.95322 0.0
H577 H 0.7618 0.81325 0.75913 0.0
C578 C 0.77758 0.80121 0.73536 0.0
H579 H 0.79822 0.76499 0.72774 0.0
H580 H 0.68533 0.71483 0.86281 0.0
H581 H 0.66383 0.70993 0.77054 0.0
H582 H 0.68945 0.7305 0.69083 0.0
H583 H 0.7365 0.7564 0.70316 0.0
C584 C 0.78322 0.77744 0.75203 0.0
C585 C 0.767 0.7663 0.80065 0.0
C586 C 0.74 0.75075 0.79258 0.0
C587 C 0.72579 0.73831 0.83829 0.0
C588 C 0.69789 0.72389 0.82933 0.0
C589 C 0.6851 0.72111 0.77659 0.0
C590 C 0.69949 0.73272 0.73174 0.0
C591 C 0.72654 0.74747 0.73939 0.0
loop_
_geom_bond_atom_site_label_1
_geom_bond_atom_site_label_2
_geom_bond_distance
_geom_bond_site_symmetry_2
_ccdc_geom_bond_type
O0 Cd1 2.223 . S
O0 C8 1.315 . S
Cd1 O0 2.223 . S
Cd1 O4 2.297 . S
Cd1 O5 2.439 . S
Cd1 O11 2.240 . S
Cd2 O3 2.240 . S
Cd2 O10 2.223 . S
Cd2 O12 2.297 . S
Cd2 O13 2.439 . S
O3 Cd2 2.240 . S
O3 C8 1.279 . S
O4 Cd1 2.297 . S
O4 C6 1.247 . S
O5 Cd1 2.439 . S
O5 C6 1.208 . S
C6 O4 1.247 . S
C6 O5 1.208 . S
C7 O12 1.247 . S
C7 O13 1.208 . S
C8 O0 1.315 . S
C8 O3 1.279 . S
C9 O10 1.315 . S
C9 O11 1.279 . S
O10 Cd2 2.223 . S
O10 C9 1.315 . S
O11 Cd1 2.240 . S
O11 C9 1.279 . S
O12 Cd2 2.297 . S
O12 C7 1.247 . S
O13 Cd2 2.439 . S
O13 C7 1.208 . S
O14 Cd15 2.223 . S
O14 C22 1.315 . S
Cd15 O14 2.223 . S
Cd15 O18 2.297 1_554 S
Cd15 O19 2.439 1_554 S
Cd15 O25 2.240 . S
Cd16 O17 2.240 . S
Cd16 O24 2.223 . S
Cd16 O26 2.297 . S
Cd16 O27 2.439 . S
O17 Cd16 2.240 . S
O17 C22 1.279 . S
O18 Cd15 2.297 1_556 S
O18 C20 1.247 . S
O19 Cd15 2.439 1_556 S
O19 C20 1.208 . S
C20 O18 1.247 . S
C20 O19 1.208 . S
C21 O26 1.247 . S
C21 O27 1.208 . S
C22 O14 1.315 . S
C22 O17 1.279 . S
C23 O24 1.315 . S
C23 O25 1.279 . S
O24 Cd16 2.223 . S
O24 C23 1.315 . S
O25 Cd15 2.240 . S
O25 C23 1.279 . S
O26 Cd16 2.297 . S
O26 C21 1.247 . S
O27 Cd16 2.439 . S
O27 C21 1.208 . S
O28 Cd29 2.223 . S
O28 C36 1.315 . S
Cd29 O28 2.223 . S
Cd29 O32 2.297 . S
Cd29 O33 2.439 . S
Cd29 O39 2.240 . S
Cd30 O31 2.240 . S
Cd30 O38 2.223 . S
Cd30 O40 2.297 . S
Cd30 O41 2.439 . S
O31 Cd30 2.240 . S
O31 C36 1.279 . S
O32 Cd29 2.297 . S
O32 C34 1.247 . S
O33 Cd29 2.439 . S
O33 C34 1.208 . S
C34 O32 1.247 . S
C34 O33 1.208 . S
C35 O40 1.247 . S
C35 O41 1.208 . S
C36 O28 1.315 . S
C36 O31 1.279 . S
C37 O38 1.315 . S
C37 O39 1.279 . S
O38 Cd30 2.223 . S
O38 C37 1.315 . S
O39 Cd29 2.240 . S
O39 C37 1.279 . S
O40 Cd30 2.297 . S
O40 C35 1.247 . S
O41 Cd30 2.439 . S
O41 C35 1.208 . S
O42 Cd43 2.223 . S
O42 C50 1.315 . S
Cd43 O42 2.223 . S
Cd43 O46 2.297 1_554 S
Cd43 O47 2.439 1_554 S
Cd43 O53 2.240 . S
Cd44 O45 2.240 . S
Cd44 O52 2.223 . S
Cd44 O54 2.297 . S
Cd44 O55 2.439 . S
O45 Cd44 2.240 . S
O45 C50 1.279 . S
O46 Cd43 2.297 1_556 S
O46 C48 1.247 . S
O47 Cd43 2.439 1_556 S
O47 C48 1.208 . S
C48 O46 1.247 . S
C48 O47 1.208 . S
C49 O54 1.247 . S
C49 O55 1.208 . S
C50 O42 1.315 . S
C50 O45 1.279 . S
C51 O52 1.315 . S
C51 O53 1.279 . S
O52 Cd44 2.223 . S
O52 C51 1.315 . S
O53 Cd43 2.240 . S
O53 C51 1.279 . S
O54 Cd44 2.297 . S
O54 C49 1.247 . S
O55 Cd44 2.439 . S
O55 C49 1.208 . S
O56 Cd57 2.223 . S
O56 C64 1.315 . S
Cd57 O56 2.223 . S
Cd57 O60 2.297 . S
Cd57 O61 2.439 . S
Cd57 O67 2.240 . S
Cd58 O59 2.240 . S
Cd58 O66 2.223 . S
Cd58 O68 2.297 . S
Cd58 O69 2.439 . S
O59 Cd58 2.240 . S
O59 C64 1.279 . S
O60 Cd57 2.297 . S
O60 C62 1.247 . S
O61 Cd57 2.439 . S
O61 C62 1.208 . S
C62 O60 1.247 . S
C62 O61 1.208 . S
C63 O68 1.247 . S
C63 O69 1.208 . S
C64 O56 1.315 . S
C64 O59 1.279 . S
C65 O66 1.315 . S
C65 O67 1.279 . S
O66 Cd58 2.223 . S
O66 C65 1.315 . S
O67 Cd57 2.240 . S
O67 C65 1.279 . S
O68 Cd58 2.297 . S
O68 C63 1.247 . S
O69 Cd58 2.439 . S
O69 C63 1.208 . S
O70 Cd71 2.223 . S
O70 C78 1.315 . S
Cd71 O70 2.223 . S
Cd71 O74 2.297 . S
Cd71 O75 2.439 . S
Cd71 O81 2.240 . S
Cd72 O73 2.240 . S
Cd72 O80 2.223 . S
Cd72 O82 2.297 . S
Cd72 O83 2.439 . S
O73 Cd72 2.240 . S
O73 C78 1.279 . S
O74 Cd71 2.297 . S
O74 C76 1.247 . S
O75 Cd71 2.439 . S
O75 C76 1.208 . S
C76 O74 1.247 . S
C76 O75 1.208 . S
C77 O82 1.247 . S
C77 O83 1.208 . S
C78 O70 1.315 . S
C78 O73 1.279 . S
C79 O80 1.315 . S
C79 O81 1.279 . S
O80 Cd72 2.223 . S
O80 C79 1.315 . S
O81 Cd71 2.240 . S
O81 C79 1.279 . S
O82 Cd72 2.297 . S
O82 C77 1.247 . S
O83 Cd72 2.439 . S
O83 C77 1.208 . S
O84 Cd85 2.223 . S
O84 C92 1.315 . S
Cd85 O84 2.223 . S
Cd85 O88 2.297 . S
Cd85 O89 2.439 . S
Cd85 O95 2.240 . S
Cd86 O87 2.240 . S
Cd86 O94 2.223 . S
Cd86 O96 2.297 . S
Cd86 O97 2.439 . S
O87 Cd86 2.240 . S
O87 C92 1.279 . S
O88 Cd85 2.297 . S
O88 C90 1.247 . S
O89 Cd85 2.439 . S
O89 C90 1.208 . S
C90 O88 1.247 . S
C90 O89 1.208 . S
C91 O96 1.247 . S
C91 O97 1.208 . S
C92 O84 1.315 . S
C92 O87 1.279 . S
C93 O94 1.315 . S
C93 O95 1.279 . S
O94 Cd86 2.223 . S
O94 C93 1.315 . S
O95 Cd85 2.240 . S
O95 C93 1.279 . S
O96 Cd86 2.297 . S
O96 C91 1.247 . S
O97 Cd86 2.439 . S
O97 C91 1.208 . S
O98 Cd99 2.223 . S
O98 C106 1.315 . S
Cd99 O98 2.223 . S
Cd99 O102 2.297 . S
Cd99 O103 2.439 . S
Cd99 O109 2.240 . S
Cd100 O101 2.240 . S
Cd100 O108 2.223 . S
Cd100 O110 2.297 . S
Cd100 O111 2.439 . S
O101 Cd100 2.240 . S
O101 C106 1.279 . S
O102 Cd99 2.297 . S
O102 C104 1.247 . S
O103 Cd99 2.439 . S
O103 C104 1.208 . S
C104 O102 1.247 . S
C104 O103 1.208 . S
C105 O110 1.247 . S
C105 O111 1.208 . S
C106 O98 1.315 . S
C106 O101 1.279 . S
C107 O108 1.315 . S
C107 O109 1.279 . S
O108 Cd100 2.223 . S
O108 C107 1.315 . S
O109 Cd99 2.240 . S
O109 C107 1.279 . S
O110 Cd100 2.297 . S
O110 C105 1.247 . S
O111 Cd100 2.439 . S
O111 C105 1.208 . S
H112 C113 0.951 . S
C113 H112 0.951 . S
C113 C119 1.265 . S
H114 C119 0.950 . S
H115 C123 0.949 . S
H116 C124 0.950 . S
H117 C125 0.951 . S
H118 C126 0.951 . S
C119 C113 1.265 . S
C119 H114 0.950 . S
C119 C120 1.478 . S
C120 C119 1.478 . S
C120 C121 1.397 . S
C120 C137 1.394 . S
C121 C120 1.397 . S
C121 C122 1.438 . S
C121 C126 1.429 . S
C122 C121 1.438 . S
C122 C123 1.428 . S
C122 C135 1.394 . S
C123 H115 0.949 . S
C123 C122 1.428 . S
C123 C124 1.345 . S
C124 H116 0.950 . S
C124 C123 1.345 . S
C124 C125 1.424 . S
C125 H117 0.951 . S
C125 C124 1.424 . S
C125 C126 1.347 . S
C126 H118 0.951 . S
C126 C121 1.429 . S
C126 C125 1.347 . S
H127 C128 0.951 . S
C128 H127 0.951 . S
C128 C134 1.265 . S
H129 C134 0.950 . S
H130 C138 0.949 . S
H131 C139 0.950 . S
H132 C140 0.951 . S
H133 C141 0.951 . S
C134 C128 1.265 . S
C134 H129 0.950 . S
C134 C135 1.478 . S
C135 C122 1.394 . S
C135 C134 1.478 . S
C135 C136 1.397 . S
C136 C135 1.397 . S
C136 C137 1.438 . S
C136 C141 1.429 1_554 S
C137 C120 1.394 . S
C137 C136 1.438 . S
C137 C138 1.428 . S
C138 H130 0.949 . S
C138 C137 1.428 . S
C138 C139 1.345 1_554 S
C139 H131 0.950 . S
C139 C138 1.345 1_556 S
C139 C140 1.424 . S
C140 H132 0.951 . S
C140 C139 1.424 . S
C140 C141 1.347 . S
C141 H133 0.951 . S
C141 C136 1.429 1_556 S
C141 C140 1.347 . S
H142 C143 0.951 . S
C143 H142 0.951 . S
C143 C149 1.265 . S
H144 C149 0.950 . S
H145 C153 0.949 . S
H146 C154 0.950 . S
H147 C155 0.951 1_556 S
H148 C156 0.951 . S
C149 C143 1.265 . S
C149 H144 0.950 . S
C149 C150 1.478 . S
C150 C149 1.478 . S
C150 C151 1.397 . S
C150 C167 1.394 . S
C151 C150 1.397 . S
C151 C152 1.438 . S
C151 C156 1.429 . S
C152 C151 1.438 . S
C152 C153 1.428 . S
C152 C165 1.394 . S
C153 H145 0.949 . S
C153 C152 1.428 . S
C153 C154 1.345 . S
C154 H146 0.950 . S
C154 C153 1.345 . S
C154 C155 1.424 . S
C155 H147 0.951 1_554 S
C155 C154 1.424 . S
C155 C156 1.347 . S
C156 H148 0.951 . S
C156 C151 1.429 . S
C156 C155 1.347 . S
H157 C158 0.951 . S
C158 H157 0.951 . S
C158 C164 1.265 . S
H159 C164 0.950 . S
H160 C168 0.949 . S
H161 C169 0.950 . S
H162 C170 0.951 . S
H163 C171 0.951 . S
C164 C158 1.265 . S
C164 H159 0.950 . S
C164 C165 1.478 . S
C165 C152 1.394 . S
C165 C164 1.478 . S
C165 C166 1.397 . S
C166 C165 1.397 . S
C166 C167 1.438 . S
C166 C171 1.429 . S
C167 C150 1.394 . S
C167 C166 1.438 . S
C167 C168 1.428 . S
C168 H160 0.949 . S
C168 C167 1.428 . S
C168 C169 1.345 . S
C169 H161 0.950 . S
C169 C168 1.345 . S
C169 C170 1.424 . S
C170 H162 0.951 . S
C170 C169 1.424 . S
C170 C171 1.347 . S
C171 H163 0.951 . S
C171 C166 1.429 . S
C171 C170 1.347 . S
H172 C173 0.951 . S
C173 H172 0.951 . S
C173 C179 1.265 . S
H174 C179 0.950 . S
H175 C183 0.949 . S
H176 C184 0.950 . S
H177 C185 0.951 . S
H178 C186 0.951 . S
C179 C173 1.265 . S
C179 H174 0.950 . S
C179 C180 1.478 . S
C180 C179 1.478 . S
C180 C181 1.397 . S
C180 C197 1.394 . S
C181 C180 1.397 . S
C181 C182 1.438 . S
C181 C186 1.429 1_554 S
C182 C181 1.438 . S
C182 C183 1.428 . S
C182 C195 1.394 . S
C183 H175 0.949 . S
C183 C182 1.428 . S
C183 C184 1.345 1_554 S
C184 H176 0.950 . S
C184 C183 1.345 1_556 S
C184 C185 1.424 . S
C185 H177 0.951 . S
C185 C184 1.424 . S
C185 C186 1.347 . S
C186 H178 0.951 . S
C186 C181 1.429 1_556 S
C186 C185 1.347 . S
H187 C188 0.951 . S
C188 H187 0.951 . S
C188 C194 1.265 . S
H189 C194 0.950 . S
H190 C198 0.949 . S
H191 C199 0.950 . S
H192 C200 0.951 . S
H193 C201 0.951 . S
C194 C188 1.265 . S
C194 H189 0.950 . S
C194 C195 1.478 . S
C195 C182 1.394 . S
C195 C194 1.478 . S
C195 C196 1.397 . S
C196 C195 1.397 . S
C196 C197 1.438 . S
C196 C201 1.429 . S
C197 C180 1.394 . S
C197 C196 1.438 . S
C197 C198 1.428 . S
C198 H190 0.949 . S
C198 C197 1.428 . S
C198 C199 1.345 . S
C199 H191 0.950 . S
C199 C198 1.345 . S
C199 C200 1.424 . S
C200 H192 0.951 . S
C200 C199 1.424 . S
C200 C201 1.347 . S
C201 H193 0.951 . S
C201 C196 1.429 . S
C201 C200 1.347 . S
H202 C203 0.951 . S
C203 H202 0.951 . S
C203 C209 1.265 . S
H204 C209 0.950 . S
H205 C213 0.949 . S
H206 C214 0.950 . S
H207 C215 0.951 . S
H208 C216 0.951 . S
C209 C203 1.265 . S
C209 H204 0.950 . S
C209 C210 1.478 . S
C210 C209 1.478 . S
C210 C211 1.397 . S
C210 C227 1.394 . S
C211 C210 1.397 . S
C211 C212 1.438 . S
C211 C216 1.429 1_554 S
C212 C211 1.438 . S
C212 C213 1.428 1_554 S
C212 C225 1.394 . S
C213 H205 0.949 . S
C213 C212 1.428 1_556 S
C213 C214 1.345 . S
C214 H206 0.950 . S
C214 C213 1.345 . S
C214 C215 1.424 . S
C215 H207 0.951 . S
C215 C214 1.424 . S
C215 C216 1.347 . S
C216 H208 0.951 . S
C216 C211 1.429 1_556 S
C216 C215 1.347 . S
H217 C218 0.951 . S
C218 H217 0.951 . S
C218 C224 1.265 . S
H219 C224 0.950 . S
H220 C228 0.949 . S
H221 C229 0.950 . S
H222 C230 0.951 . S
H223 C231 0.951 . S
C224 C218 1.265 . S
C224 H219 0.950 . S
C224 C225 1.478 . S
C225 C212 1.394 . S
C225 C224 1.478 . S
C225 C226 1.397 . S
C226 C225 1.397 . S
C226 C227 1.438 . S
C226 C231 1.429 . S
C227 C210 1.394 . S
C227 C226 1.438 . S
C227 C228 1.428 . S
C228 H220 0.949 . S
C228 C227 1.428 . S
C228 C229 1.345 . S
C229 H221 0.950 . S
C229 C228 1.345 . S
C229 C230 1.424 . S
C230 H222 0.951 . S
C230 C229 1.424 . S
C230 C231 1.347 . S
C231 H223 0.951 . S
C231 C226 1.429 . S
C231 C230 1.347 . S
H232 C233 0.951 . S
C233 H232 0.951 . S
C233 C239 1.265 . S
H234 C239 0.950 . S
H235 C243 0.949 . S
H236 C244 0.959 . S
H237 C245 0.951 . S
H238 C246 0.951 . S
C239 C233 1.265 . S
C239 H234 0.950 . S
C239 C240 1.478 . S
C240 C239 1.478 . S
C240 C241 1.397 . S
C240 C257 1.394 . S
C241 C240 1.397 . S
C241 C242 1.438 1_565 S
C241 C246 1.429 . S
C242 C241 1.438 1_545 S
C242 C243 1.428 . S
C242 C255 1.394 . S
C243 H235 0.949 . S
C243 C242 1.428 . S
C243 C244 1.362 . S
C244 H236 0.959 . S
C244 C243 1.362 . S
C244 C245 1.398 1_545 S
C245 H237 0.951 . S
C245 C244 1.398 1_565 S
C245 C246 1.347 . S
C246 H238 0.951 . S
C246 C241 1.429 . S
C246 C245 1.347 . S
H247 C248 0.951 . S
C248 H247 0.951 . S
C248 C254 1.265 . S
H249 C254 0.950 . S
H250 C258 0.949 . S
H251 C259 0.959 . S
H252 C260 0.951 . S
H253 C261 0.951 . S
C254 C248 1.265 . S
C254 H249 0.950 . S
C254 C255 1.478 . S
C255 C242 1.394 . S
C255 C254 1.478 . S
C255 C256 1.397 . S
C256 C255 1.397 . S
C256 C257 1.438 1_545 S
C256 C261 1.429 . S
C257 C240 1.394 . S
C257 C256 1.438 1_565 S
C257 C258 1.428 . S
C258 H250 0.949 . S
C258 C257 1.428 . S
C258 C259 1.362 . S
C259 H251 0.959 . S
C259 C258 1.362 . S
C259 C260 1.398 1_565 S
C260 H252 0.951 . S
C260 C259 1.398 1_545 S
C260 C261 1.347 . S
C261 H253 0.951 . S
C261 C256 1.429 . S
C261 C260 1.347 . S
H262 C263 0.951 . S
C263 H262 0.951 . S
C263 C269 1.265 . S
H264 C269 0.950 . S
H265 C273 0.949 . S
H266 C274 0.950 . S
H267 C275 0.951 . S
H268 C276 0.951 . S
C269 C263 1.265 . S
C269 H264 0.950 . S
C269 C270 1.478 . S
C270 C269 1.478 . S
C270 C271 1.397 . S
C270 C287 1.394 . S
C271 C270 1.397 . S
C271 C272 1.438 1_455 S
C271 C276 1.429 . S
C272 C271 1.438 1_655 S
C272 C273 1.428 . S
C272 C285 1.394 . S
C273 H265 0.949 . S
C273 C272 1.428 . S
C273 C274 1.345 . S
C274 H266 0.950 . S
C274 C273 1.345 . S
C274 C275 1.424 1_655 S
C275 H267 0.951 . S
C275 C274 1.424 1_455 S
C275 C276 1.347 . S
C276 H268 0.951 . S
C276 C271 1.429 . S
C276 C275 1.347 . S
H277 C278 0.951 . S
C278 H277 0.951 . S
C278 C284 1.265 . S
H279 C284 0.950 . S
H280 C288 0.949 . S
H281 C289 0.950 . S
H282 C290 0.951 . S
H283 C291 0.951 . S
C284 C278 1.265 . S
C284 H279 0.950 . S
C284 C285 1.478 . S
C285 C272 1.394 . S
C285 C284 1.478 . S
C285 C286 1.397 . S
C286 C285 1.397 . S
C286 C287 1.438 1_655 S
C286 C291 1.429 . S
C287 C270 1.394 . S
C287 C286 1.438 1_455 S
C287 C288 1.428 . S
C288 H280 0.949 . S
C288 C287 1.428 . S
C288 C289 1.345 . S
C289 H281 0.950 . S
C289 C288 1.345 . S
C289 C290 1.424 1_455 S
C290 H282 0.951 . S
C290 C289 1.424 1_655 S
C290 C291 1.347 . S
C291 H283 0.951 . S
C291 C286 1.429 . S
C291 C290 1.347 . S
H292 C293 0.951 . S
C293 H292 0.951 . S
C293 C299 1.265 . S
H294 C299 0.950 . S
H295 C303 0.949 . S
H296 C304 0.950 . S
H297 C305 0.951 . S
H298 C306 0.951 . S
C299 C293 1.265 . S
C299 H294 0.950 . S
C299 C300 1.478 . S
C300 C299 1.478 . S
C300 C301 1.397 . S
C300 C317 1.394 . S
C301 C300 1.397 . S
C301 C302 1.438 1_545 S
C301 C306 1.429 . S
C302 C301 1.438 1_565 S
C302 C303 1.428 . S
C302 C315 1.394 . S
C303 H295 0.949 . S
C303 C302 1.428 . S
C303 C304 1.345 . S
C304 H296 0.950 . S
C304 C303 1.345 . S
C304 C305 1.424 . S
C305 H297 0.951 . S
C305 C304 1.424 . S
C305 C306 1.347 1_565 S
C306 H298 0.951 . S
C306 C301 1.429 . S
C306 C305 1.347 1_545 S
H307 C308 0.951 . S
C308 H307 0.951 . S
C308 C314 1.265 . S
H309 C314 0.950 . S
H310 C318 0.949 . S
H311 C319 0.950 . S
H312 C320 0.951 . S
H313 C321 0.951 . S
C314 C308 1.265 . S
C314 H309 0.950 . S
C314 C315 1.478 . S
C315 C302 1.394 . S
C315 C314 1.478 . S
C315 C316 1.397 . S
C316 C315 1.397 . S
C316 C317 1.438 1_565 S
C316 C321 1.429 . S
C317 C300 1.394 . S
C317 C316 1.438 1_545 S
C317 C318 1.428 . S
C318 H310 0.949 . S
C318 C317 1.428 . S
C318 C319 1.345 . S
C319 H311 0.950 . S
C319 C318 1.345 . S
C319 C320 1.424 . S
C320 H312 0.951 . S
C320 C319 1.424 . S
C320 C321 1.347 1_545 S
C321 H313 0.951 . S
C321 C316 1.429 . S
C321 C320 1.347 1_565 S
H322 C323 0.951 . S
C323 H322 0.951 . S
C323 C329 1.265 . S
H324 C329 0.950 . S
H325 C333 0.949 . S
H326 C334 0.950 . S
H327 C335 0.951 . S
H328 C336 0.951 . S
C329 C323 1.265 . S
C329 H324 0.950 . S
C329 C330 1.478 . S
C330 C329 1.478 . S
C330 C331 1.397 . S
C330 C347 1.394 . S
C331 C330 1.397 . S
C331 C332 1.438 1_655 S
C331 C336 1.429 . S
C332 C331 1.438 1_455 S
C332 C333 1.428 . S
C332 C345 1.394 . S
C333 H325 0.949 . S
C333 C332 1.428 . S
C333 C334 1.345 . S
C334 H326 0.950 . S
C334 C333 1.345 . S
C334 C335 1.424 1_455 S
C335 H327 0.951 . S
C335 C334 1.424 1_655 S
C335 C336 1.347 . S
C336 H328 0.951 . S
C336 C331 1.429 . S
C336 C335 1.347 . S
H337 C338 0.951 . S
C338 H337 0.951 . S
C338 C344 1.265 . S
H339 C344 0.950 . S
H340 C348 0.949 . S
H341 C349 0.950 . S
H342 C350 0.951 . S
H343 C351 0.951 . S
C344 C338 1.265 . S
C344 H339 0.950 . S
C344 C345 1.478 . S
C345 C332 1.394 . S
C345 C344 1.478 . S
C345 C346 1.397 . S
C346 C345 1.397 . S
C346 C347 1.438 1_455 S
C346 C351 1.429 . S
C347 C330 1.394 . S
C347 C346 1.438 1_655 S
C347 C348 1.428 . S
C348 H340 0.949 . S
C348 C347 1.428 . S
C348 C349 1.345 . S
C349 H341 0.950 . S
C349 C348 1.345 . S
C349 C350 1.424 1_655 S
C350 H342 0.951 . S
C350 C349 1.424 1_455 S
C350 C351 1.347 . S
C351 H343 0.951 . S
C351 C346 1.429 . S
C351 C350 1.347 . S
H352 C353 0.951 . S
C353 H352 0.951 . S
C353 C359 1.265 . S
H354 C359 0.950 . S
H355 C363 0.949 . S
H356 C364 0.950 . S
H357 C365 0.951 . S
H358 C366 0.951 . S
C359 C353 1.265 . S
C359 H354 0.950 . S
C359 C360 1.478 . S
C360 C359 1.478 . S
C360 C361 1.397 . S
C360 C377 1.394 . S
C361 C360 1.397 . S
C361 C362 1.438 . S
C361 C366 1.429 . S
C362 C361 1.438 . S
C362 C363 1.428 . S
C362 C375 1.394 . S
C363 H355 0.949 . S
C363 C362 1.428 . S
C363 C364 1.345 . S
C364 H356 0.950 . S
C364 C363 1.345 . S
C364 C365 1.424 . S
C365 H357 0.951 . S
C365 C364 1.424 . S
C365 C366 1.347 . S
C366 H358 0.951 . S
C366 C361 1.429 . S
C366 C365 1.347 . S
H367 C368 0.951 . S
C368 H367 0.951 . S
C368 C374 1.265 . S
H369 C374 0.950 . S
H370 C378 0.949 . S
H371 C379 0.950 . S
H372 C380 0.951 . S
H373 C381 0.951 . S
C374 C368 1.265 . S
C374 H369 0.950 . S
C374 C375 1.478 . S
C375 C362 1.394 . S
C375 C374 1.478 . S
C375 C376 1.397 . S
C376 C375 1.397 . S
C376 C377 1.438 . S
C376 C381 1.429 . S
C377 C360 1.394 . S
C377 C376 1.438 . S
C377 C378 1.428 . S
C378 H370 0.949 . S
C378 C377 1.428 . S
C378 C379 1.345 . S
C379 H371 0.950 . S
C379 C378 1.345 . S
C379 C380 1.424 . S
C380 H372 0.951 . S
C380 C379 1.424 . S
C380 C381 1.347 . S
C381 H373 0.951 . S
C381 C376 1.429 . S
C381 C380 1.347 . S
H382 C383 0.951 . S
C383 H382 0.951 . S
C383 C389 1.265 . S
H384 C389 0.950 . S
H385 C393 0.949 . S
H386 C394 0.950 . S
H387 C395 0.951 . S
H388 C396 0.951 . S
C389 C383 1.265 . S
C389 H384 0.950 . S
C389 C390 1.478 . S
C390 C389 1.478 . S
C390 C391 1.397 . S
C390 C407 1.394 . S
C391 C390 1.397 . S
C391 C392 1.438 . S
C391 C396 1.429 . S
C392 C391 1.438 . S
C392 C393 1.428 . S
C392 C405 1.394 . S
C393 H385 0.949 . S
C393 C392 1.428 . S
C393 C394 1.345 . S
C394 H386 0.950 . S
C394 C393 1.345 . S
C394 C395 1.424 . S
C395 H387 0.951 . S
C395 C394 1.424 . S
C395 C396 1.347 . S
C396 H388 0.951 . S
C396 C391 1.429 . S
C396 C395 1.347 . S
H397 C398 0.951 . S
C398 H397 0.951 . S
C398 C404 1.265 . S
H399 C404 0.950 . S
H400 C408 0.949 . S
H401 C409 0.950 . S
H402 C410 0.951 . S
H403 C411 0.951 . S
C404 C398 1.265 . S
C404 H399 0.950 . S
C404 C405 1.478 . S
C405 C392 1.394 . S
C405 C404 1.478 . S
C405 C406 1.397 . S
C406 C405 1.397 . S
C406 C407 1.438 . S
C406 C411 1.429 . S
C407 C390 1.394 . S
C407 C406 1.438 . S
C407 C408 1.428 . S
C408 H400 0.949 . S
C408 C407 1.428 . S
C408 C409 1.345 . S
C409 H401 0.950 . S
C409 C408 1.345 . S
C409 C410 1.424 . S
C410 H402 0.951 . S
C410 C409 1.424 . S
C410 C411 1.347 . S
C411 H403 0.951 . S
C411 C406 1.429 . S
C411 C410 1.347 . S
H412 C413 0.951 . S
C413 H412 0.951 . S
C413 C419 1.265 . S
H414 C419 0.950 . S
H415 C423 0.949 . S
H416 C424 0.950 . S
H417 C425 0.951 . S
H418 C426 0.951 . S
C419 C413 1.265 . S
C419 H414 0.950 . S
C419 C420 1.478 . S
C420 C419 1.478 . S
C420 C421 1.397 . S
C420 C437 1.394 . S
C421 C420 1.397 . S
C421 C422 1.438 . S
C421 C426 1.429 . S
C422 C421 1.438 . S
C422 C423 1.428 . S
C422 C435 1.394 . S
C423 H415 0.949 . S
C423 C422 1.428 . S
C423 C424 1.345 . S
C424 H416 0.950 . S
C424 C423 1.345 . S
C424 C425 1.424 . S
C425 H417 0.951 . S
C425 C424 1.424 . S
C425 C426 1.347 . S
C426 H418 0.951 . S
C426 C421 1.429 . S
C426 C425 1.347 . S
H427 C428 0.951 . S
C428 H427 0.951 . S
C428 C434 1.265 . S
H429 C434 0.950 . S
H430 C438 0.949 . S
H431 C439 0.950 . S
H432 C440 0.951 . S
H433 C441 0.951 . S
C434 C428 1.265 . S
C434 H429 0.950 . S
C434 C435 1.478 . S
C435 C422 1.394 . S
C435 C434 1.478 . S
C435 C436 1.397 . S
C436 C435 1.397 . S
C436 C437 1.438 . S
C436 C441 1.429 . S
C437 C420 1.394 . S
C437 C436 1.438 . S
C437 C438 1.428 . S
C438 H430 0.949 . S
C438 C437 1.428 . S
C438 C439 1.345 . S
C439 H431 0.950 . S
C439 C438 1.345 . S
C439 C440 1.424 . S
C440 H432 0.951 . S
C440 C439 1.424 . S
C440 C441 1.347 . S
C441 H433 0.951 . S
C441 C436 1.429 . S
C441 C440 1.347 . S
H442 C443 0.951 . S
C443 H442 0.951 . S
C443 C449 1.265 . S
H444 C449 0.950 . S
H445 C453 0.949 . S
H446 C454 0.950 . S
H447 C455 0.951 . S
H448 C456 0.951 . S
C449 C443 1.265 . S
C449 H444 0.950 . S
C449 C450 1.478 . S
C450 C449 1.478 . S
C450 C451 1.397 . S
C450 C467 1.394 . S
C451 C450 1.397 . S
C451 C452 1.438 . S
C451 C456 1.429 . S
C452 C451 1.438 . S
C452 C453 1.428 . S
C452 C465 1.394 . S
C453 H445 0.949 . S
C453 C452 1.428 . S
C453 C454 1.345 . S
C454 H446 0.950 . S
C454 C453 1.345 . S
C454 C455 1.424 . S
C455 H447 0.951 . S
C455 C454 1.424 . S
C455 C456 1.347 . S
C456 H448 0.951 . S
C456 C451 1.429 . S
C456 C455 1.347 . S
H457 C458 0.951 . S
C458 H457 0.951 . S
C458 C464 1.265 . S
H459 C464 0.950 . S
H460 C468 0.949 . S
H461 C469 0.950 . S
H462 C470 0.951 . S
H463 C471 0.951 . S
C464 C458 1.265 . S
C464 H459 0.950 . S
C464 C465 1.478 . S
C465 C452 1.394 . S
C465 C464 1.478 . S
C465 C466 1.397 . S
C466 C465 1.397 . S
C466 C467 1.438 . S
C466 C471 1.429 . S
C467 C450 1.394 . S
C467 C466 1.438 . S
C467 C468 1.428 . S
C468 H460 0.949 . S
C468 C467 1.428 . S
C468 C469 1.345 . S
C469 H461 0.950 . S
C469 C468 1.345 . S
C469 C470 1.424 . S
C470 H462 0.951 . S
C470 C469 1.424 . S
C470 C471 1.347 . S
C471 H463 0.951 . S
C471 C466 1.429 . S
C471 C470 1.347 . S
H472 C473 0.951 . S
C473 H472 0.951 . S
C473 C479 1.265 . S
H474 C479 0.950 . S
H475 C483 0.949 . S
H476 C484 0.950 . S
H477 C485 0.951 . S
H478 C486 0.951 . S
C479 C473 1.265 . S
C479 H474 0.950 . S
C479 C480 1.478 . S
C480 C479 1.478 . S
C480 C481 1.397 . S
C480 C497 1.394 . S
C481 C480 1.397 . S
C481 C482 1.438 . S
C481 C486 1.429 . S
C482 C481 1.438 . S
C482 C483 1.428 . S
C482 C495 1.394 . S
C483 H475 0.949 . S
C483 C482 1.428 . S
C483 C484 1.345 . S
C484 H476 0.950 . S
C484 C483 1.345 . S
C484 C485 1.424 . S
C485 H477 0.951 . S
C485 C484 1.424 . S
C485 C486 1.347 . S
C486 H478 0.951 . S
C486 C481 1.429 . S
C486 C485 1.347 . S
H487 C488 0.951 . S
C488 H487 0.951 . S
C488 C494 1.265 . S
H489 C494 0.950 . S
H490 C498 0.949 . S
H491 C499 0.950 . S
H492 C500 0.951 . S
H493 C501 0.951 . S
C494 C488 1.265 . S
C494 H489 0.950 . S
C494 C495 1.478 . S
C495 C482 1.394 . S
C495 C494 1.478 . S
C495 C496 1.397 . S
C496 C495 1.397 . S
C496 C497 1.438 . S
C496 C501 1.429 . S
C497 C480 1.394 . S
C497 C496 1.438 . S
C497 C498 1.428 . S
C498 H490 0.949 . S
C498 C497 1.428 . S
C498 C499 1.345 . S
C499 H491 0.950 . S
C499 C498 1.345 . S
C499 C500 1.424 . S
C500 H492 0.951 . S
C500 C499 1.424 . S
C500 C501 1.347 . S
C501 H493 0.951 . S
C501 C496 1.429 . S
C501 C500 1.347 . S
H502 C503 0.951 . S
C503 H502 0.951 . S
C503 C509 1.265 1_554 S
H504 C509 0.950 . S
H505 C513 0.949 . S
H506 C514 0.950 . S
H507 C515 0.951 1_554 S
H508 C516 0.951 1_554 S
C509 C503 1.265 1_556 S
C509 H504 0.950 . S
C509 C510 1.478 . S
C510 C509 1.478 . S
C510 C511 1.397 . S
C510 C527 1.394 . S
C511 C510 1.397 . S
C511 C512 1.438 . S
C511 C516 1.429 . S
C512 C511 1.438 . S
C512 C513 1.428 . S
C512 C525 1.394 . S
C513 H505 0.949 . S
C513 C512 1.428 . S
C513 C514 1.345 . S
C514 H506 0.950 . S
C514 C513 1.345 . S
C514 C515 1.424 . S
C515 H507 0.951 1_556 S
C515 C514 1.424 . S
C515 C516 1.347 . S
C516 H508 0.951 1_556 S
C516 C511 1.429 . S
C516 C515 1.347 . S
H517 C518 0.951 . S
C518 H517 0.951 . S
C518 C524 1.265 . S
H519 C524 0.950 . S
H520 C528 0.949 . S
H521 C529 0.950 . S
H522 C530 0.951 . S
H523 C531 0.951 . S
C524 C518 1.265 . S
C524 H519 0.950 . S
C524 C525 1.478 . S
C525 C512 1.394 . S
C525 C524 1.478 . S
C525 C526 1.397 . S
C526 C525 1.397 . S
C526 C527 1.438 . S
C526 C531 1.429 . S
C527 C510 1.394 . S
C527 C526 1.438 . S
C527 C528 1.428 . S
C528 H520 0.949 . S
C528 C527 1.428 . S
C528 C529 1.345 . S
C529 H521 0.950 . S
C529 C528 1.345 . S
C529 C530 1.424 . S
C530 H522 0.951 . S
C530 C529 1.424 . S
C530 C531 1.347 . S
C531 H523 0.951 . S
C531 C526 1.429 . S
C531 C530 1.347 . S
H532 C533 0.951 . S
C533 H532 0.951 . S
C533 C539 1.265 . S
H534 C539 0.950 . S
H535 C543 0.949 . S
H536 C544 0.950 . S
H537 C545 0.951 . S
H538 C546 0.951 . S
C539 C533 1.265 . S
C539 H534 0.950 . S
C539 C540 1.478 . S
C540 C539 1.478 . S
C540 C541 1.397 . S
C540 C557 1.394 . S
C541 C540 1.397 . S
C541 C542 1.438 . S
C541 C546 1.429 . S
C542 C541 1.438 . S
C542 C543 1.428 . S
C542 C555 1.394 . S
C543 H535 0.949 . S
C543 C542 1.428 . S
C543 C544 1.345 . S
C544 H536 0.950 . S
C544 C543 1.345 . S
C544 C545 1.424 . S
C545 H537 0.951 . S
C545 C544 1.424 . S
C545 C546 1.347 . S
C546 H538 0.951 . S
C546 C541 1.429 . S
C546 C545 1.347 . S
H547 C548 0.951 . S
C548 H547 0.951 . S
C548 C554 1.265 . S
H549 C554 0.950 . S
H550 C558 0.949 . S
H551 C559 0.950 . S
H552 C560 0.951 . S
H553 C561 0.951 . S
C554 C548 1.265 . S
C554 H549 0.950 . S
C554 C555 1.478 . S
C555 C542 1.394 . S
C555 C554 1.478 . S
C555 C556 1.397 . S
C556 C555 1.397 . S
C556 C557 1.438 . S
C556 C561 1.429 . S
C557 C540 1.394 . S
C557 C556 1.438 . S
C557 C558 1.428 . S
C558 H550 0.949 . S
C558 C557 1.428 . S
C558 C559 1.345 . S
C559 H551 0.950 . S
C559 C558 1.345 . S
C559 C560 1.424 . S
C560 H552 0.951 . S
C560 C559 1.424 . S
C560 C561 1.347 . S
C561 H553 0.951 . S
C561 C556 1.429 . S
C561 C560 1.347 . S
H562 C563 0.951 . S
C563 H562 0.951 . S
C563 C569 1.265 1_554 S
H564 C569 0.950 . S
H565 C573 0.949 . S
H566 C574 0.950 . S
H567 C575 0.951 . S
H568 C576 0.951 . S
C569 C563 1.265 1_556 S
C569 H564 0.950 . S
C569 C570 1.478 . S
C570 C569 1.478 . S
C570 C571 1.397 . S
C570 C587 1.394 . S
C571 C570 1.397 . S
C571 C572 1.438 . S
C571 C576 1.429 . S
C572 C571 1.438 . S
C572 C573 1.428 . S
C572 C585 1.394 . S
C573 H565 0.949 . S
C573 C572 1.428 . S
C573 C574 1.345 . S
C574 H566 0.950 . S
C574 C573 1.345 . S
C574 C575 1.424 . S
C575 H567 0.951 . S
C575 C574 1.424 . S
C575 C576 1.347 . S
C576 H568 0.951 . S
C576 C571 1.429 . S
C576 C575 1.347 . S
H577 C578 0.951 . S
C578 H577 0.951 . S
C578 C584 1.265 . S
H579 C584 0.950 . S
H580 C588 0.949 . S
H581 C589 0.950 . S
H582 C590 0.951 . S
H583 C591 0.951 . S
C584 C578 1.265 . S
C584 H579 0.950 . S
C584 C585 1.478 . S
C585 C572 1.394 . S
C585 C584 1.478 . S
C585 C586 1.397 . S
C586 C585 1.397 . S
C586 C587 1.438 . S
C586 C591 1.429 . S
C587 C570 1.394 . S
C587 C586 1.438 . S
C587 C588 1.428 . S
C588 H580 0.949 . S
C588 C587 1.428 . S
C588 C589 1.345 . S
C589 H581 0.950 . S
C589 C588 1.345 . S
C589 C590 1.424 . S
C590 H582 0.951 . S
C590 C589 1.424 . S
C590 C591 1.347 . S
C591 H583 0.951 . S
C591 C586 1.429 . S
C591 C590 1.347 . S
C113 C7 1.482 . S
C128 C49 1.486 . S
C143 C9 1.570 . S
C158 C23 1.576 . S
C173 C21 1.468 . S
C188 C35 1.472 . S
C203 C51 1.608 . S
C218 C37 1.567 . S
C233 C63 1.524 . S
C248 C105 1.521 . S
C263 C79 1.593 . S
C278 C65 1.590 . S
C293 C91 1.437 . S
C308 C77 1.439 . S
C323 C107 1.561 . S
C338 C93 1.608 . S
C353 C92 1.541 . S
C368 C6 1.423 . S
C383 C22 1.526 . S
C398 C104 1.507 . S
C413 C64 1.559 . S
C428 C34 1.475 . S
C443 C76 1.498 . S
C458 C50 1.523 . S
C473 C78 1.558 . S
C488 C48 1.471 . S
C503 C8 1.540 . S
C518 C90 1.525 . S
C533 C20 1.421 . S
C548 C106 1.526 . S
C563 C36 1.528 . S
C578 C62 1.511 . S
