# Generated by pormake.
# Topology umb, (4)-cn, num edge types: 1
# Building blocks:
#     Node 0, Type 0, BuildingBlock: ICAMEG_clean_sbu_1, # of connection points: 4
#     Node 1, Type 0, BuildingBlock: ICAMEG_clean_sbu_1, # of connection points: 4
#     Node 2, Type 0, BuildingBlock: ICAMEG_clean_sbu_1, # of connection points: 4
#     Node 3, Type 0, BuildingBlock: ICAMEG_clean_sbu_1, # of connection points: 4
#     Node 4, Type 0, BuildingBlock: ICAMEG_clean_sbu_1, # of connection points: 4
#     Node 5, Type 0, BuildingBlock: ICAMEG_clean_sbu_1, # of connection points: 4
#     Node 6, Type 0, BuildingBlock: ICAMEG_clean_sbu_1, # of connection points: 4
#     Node 7, Type 0, BuildingBlock: ICAMEG_clean_sbu_1, # of connection points: 4
#     Node 8, Type 0, BuildingBlock: ICAMEG_clean_sbu_1, # of connection points: 4
#     Node 9, Type 0, BuildingBlock: ICAMEG_clean_sbu_1, # of connection points: 4
#     Node 10, Type 0, BuildingBlock: ICAMEG_clean_sbu_1, # of connection points: 4
#     Node 11, Type 0, BuildingBlock: ICAMEG_clean_sbu_1, # of connection points: 4
#     Edge 12, Type (0, 0), BuildingBlock: TEMPAE_clean_linker_10, # of connection points: 2
#     Edge 13, Type (0, 0), BuildingBlock: TEMPAE_clean_linker_10, # of connection points: 2
#     Edge 14, Type (0, 0), BuildingBlock: TEMPAE_clean_linker_10, # of connection points: 2
#     Edge 15, Type (0, 0), BuildingBlock: TEMPAE_clean_linker_10, # of connection points: 2
#     Edge 16, Type (0, 0), BuildingBlock: TEMPAE_clean_linker_10, # of connection points: 2
#     Edge 17, Type (0, 0), BuildingBlock: TEMPAE_clean_linker_10, # of connection points: 2
#     Edge 18, Type (0, 0), BuildingBlock: TEMPAE_clean_linker_10, # of connection points: 2
#     Edge 19, Type (0, 0), BuildingBlock: TEMPAE_clean_linker_10, # of connection points: 2
#     Edge 20, Type (0, 0), BuildingBlock: TEMPAE_clean_linker_10, # of connection points: 2
#     Edge 21, Type (0, 0), BuildingBlock: TEMPAE_clean_linker_10, # of connection points: 2
#     Edge 22, Type (0, 0), BuildingBlock: TEMPAE_clean_linker_10, # of connection points: 2
#     Edge 23, Type (0, 0), BuildingBlock: TEMPAE_clean_linker_10, # of connection points: 2
#     Edge 24, Type (0, 0), BuildingBlock: TEMPAE_clean_linker_10, # of connection points: 2
#     Edge 25, Type (0, 0), BuildingBlock: TEMPAE_clean_linker_10, # of connection points: 2
#     Edge 26, Type (0, 0), BuildingBlock: TEMPAE_clean_linker_10, # of connection points: 2
#     Edge 27, Type (0, 0), BuildingBlock: TEMPAE_clean_linker_10, # of connection points: 2
#     Edge 28, Type (0, 0), BuildingBlock: TEMPAE_clean_linker_10, # of connection points: 2
#     Edge 29, Type (0, 0), BuildingBlock: TEMPAE_clean_linker_10, # of connection points: 2
#     Edge 30, Type (0, 0), BuildingBlock: TEMPAE_clean_linker_10, # of connection points: 2
#     Edge 31, Type (0, 0), BuildingBlock: TEMPAE_clean_linker_10, # of connection points: 2
#     Edge 32, Type (0, 0), BuildingBlock: TEMPAE_clean_linker_10, # of connection points: 2
#     Edge 33, Type (0, 0), BuildingBlock: TEMPAE_clean_linker_10, # of connection points: 2
#     Edge 34, Type (0, 0), BuildingBlock: TEMPAE_clean_linker_10, # of connection points: 2
#     Edge 35, Type (0, 0), BuildingBlock: TEMPAE_clean_linker_10, # of connection points: 2
# Relax obj value: 0.161
# Max RMSD: 0.174
# Mean RMSD: 0.174
data_MOF--net-umb--node1-ICAMEG_clean_sbu_1--edge1-TEMPAE_clean_linker_10
_symmetry_space_group_name_H-M    P1
_symmetry_Int_Tables_number       1
_symmetry_cell_setting            triclinic
loop_
_symmetry_equiv_pos_as_xyz
'x, y, z'
_cell_length_a     51.253761
_cell_length_b     51.301186
_cell_length_c     40.893588
_cell_angle_alpha  89.95623
_cell_angle_beta   89.923588
_cell_angle_gamma 119.98655
loop_
_atom_site_label
_atom_site_type_symbol
_atom_site_fract_x
_atom_site_fract_y
_atom_site_fract_z
_atom_type_partial_charge
Co0 Co 0.51501 0.17507 0.33794 0.0
Co1 Co 0.57886 0.171 0.31958 0.0
O2 O 0.53612 0.15764 0.31476 0.0
C3 C 0.51313 0.18799 0.26805 0.0
O4 O 0.54069 0.19266 0.2676 0.0
C5 C 0.54766 0.10831 0.3411 0.0
O6 O 0.5289 0.11473 0.356 0.0
O7 O 0.57619 0.17295 0.36791 0.0
O8 O 0.53285 0.17185 0.38092 0.0
H9 H 0.68376 0.2382 0.36161 0.0
H10 H 0.48082 0.12336 0.29348 0.0
O11 O 0.49802 0.17978 0.29476 0.0
H12 H 0.43593 0.08772 0.40265 0.0
H13 H 0.42595 0.18844 0.36091 0.0
H14 H 0.53052 0.21939 0.39146 0.0
H15 H 0.47752 0.13979 0.39473 0.0
H16 H 0.45348 0.16697 0.33263 0.0
O17 O 0.56916 0.12825 0.32397 0.0
H18 H 0.62953 0.22043 0.35573 0.0
H19 H 0.61922 0.14935 0.29399 0.0
H20 H 0.50379 0.24126 0.42056 0.0
H21 H 0.43909 0.07117 0.30021 0.0
H22 H 0.45111 0.22579 0.4053 0.0
H23 H 0.41645 0.05303 0.35515 0.0
O24 O 0.54896 0.21666 0.33243 0.0
H25 H 0.54505 0.12253 0.20936 0.0
H26 H 0.62035 0.21267 0.26844 0.0
H27 H 0.62288 0.21107 0.20828 0.0
H28 H 0.58501 0.16576 0.17835 0.0
H29 H 0.5432 0.12521 0.2695 0.0
H30 H 0.67327 0.16606 0.29964 0.0
H31 H 0.70596 0.21092 0.33346 0.0
O32 O 0.58916 0.21368 0.31592 0.0
C33 C 0.55734 0.17233 0.38875 0.0
C34 C 0.66977 0.21867 0.34674 0.0
C35 C 0.66387 0.17816 0.31198 0.0
N36 N 0.6213 0.18406 0.32429 0.0
C37 C 0.63907 0.20856 0.34322 0.0
C38 C 0.63327 0.16875 0.30895 0.0
C39 C 0.6822 0.20334 0.33095 0.0
C40 C 0.47084 0.11569 0.31738 0.0
N41 N 0.48143 0.1346 0.34364 0.0
C42 C 0.44732 0.0861 0.32108 0.0
C43 C 0.43466 0.07592 0.35192 0.0
C44 C 0.44558 0.09537 0.37859 0.0
C45 C 0.46915 0.1248 0.37397 0.0
C46 C 0.44886 0.1953 0.36784 0.0
C47 C 0.50751 0.21237 0.38489 0.0
C48 C 0.46456 0.18325 0.35189 0.0
N49 N 0.49344 0.19171 0.36064 0.0
C50 C 0.49253 0.22491 0.40136 0.0
C51 C 0.46299 0.21625 0.39275 0.0
C52 C 0.57617 0.22863 0.3229 0.0
C53 C 0.56172 0.14237 0.22213 0.0
C54 C 0.6038 0.19288 0.25558 0.0
C55 C 0.60537 0.19208 0.22152 0.0
C56 C 0.58412 0.16665 0.20474 0.0
N57 N 0.58171 0.169 0.27245 0.0
C58 C 0.56087 0.14394 0.25618 0.0
Co59 Co 0.31693 0.51206 0.69799 0.0
Co60 Co 0.38621 0.57412 0.67977 0.0
O61 O 0.35504 0.53232 0.67395 0.0
C62 C 0.30158 0.51355 0.62914 0.0
O63 O 0.3242 0.54119 0.63021 0.0
C64 C 0.41578 0.5394 0.69499 0.0
O65 O 0.39159 0.52155 0.71202 0.0
O66 O 0.38316 0.56959 0.72808 0.0
O67 O 0.33902 0.52807 0.74081 0.0
H68 H 0.43129 0.67759 0.7284 0.0
H69 H 0.33168 0.47762 0.6505 0.0
O70 O 0.29456 0.49712 0.65485 0.0
H71 H 0.32232 0.42894 0.75729 0.0
H72 H 0.21317 0.42512 0.72055 0.0
H73 H 0.2904 0.52724 0.75431 0.0
H74 H 0.31397 0.47218 0.75248 0.0
H75 H 0.26181 0.45204 0.69138 0.0
O76 O 0.41749 0.56185 0.67978 0.0
H77 H 0.39213 0.62454 0.72057 0.0
H78 H 0.44772 0.61278 0.652 0.0
H79 H 0.24222 0.5011 0.78435 0.0
H80 H 0.34001 0.43431 0.65412 0.0
H81 H 0.20319 0.44964 0.76748 0.0
H82 H 0.33545 0.40975 0.70785 0.0
O83 O 0.31111 0.54744 0.69538 0.0
H84 H 0.39342 0.54279 0.56527 0.0
H85 H 0.38735 0.61919 0.63279 0.0
H86 H 0.38903 0.62399 0.57269 0.0
H87 H 0.39205 0.58557 0.53852 0.0
H88 H 0.39136 0.5387 0.62546 0.0
H89 H 0.48767 0.66564 0.65941 0.0
H90 H 0.47949 0.69846 0.6977 0.0
O91 O 0.35556 0.58691 0.68021 0.0
C92 C 0.36425 0.55112 0.74874 0.0
C93 C 0.43509 0.66354 0.71158 0.0
C94 C 0.46674 0.65682 0.67288 0.0
N95 N 0.41754 0.61568 0.68563 0.0
C96 C 0.41296 0.63351 0.70695 0.0
C97 C 0.44408 0.62689 0.66885 0.0
C98 C 0.46214 0.67523 0.69436 0.0
C99 C 0.32934 0.46683 0.67389 0.0
N100 N 0.32216 0.47725 0.70121 0.0
C101 C 0.33422 0.44241 0.67582 0.0
C102 C 0.33169 0.42866 0.70598 0.0
C103 C 0.32434 0.43943 0.73374 0.0
C104 C 0.31968 0.46393 0.73088 0.0
C105 C 0.23002 0.4475 0.72818 0.0
C106 C 0.27362 0.50478 0.747 0.0
C107 C 0.25756 0.46286 0.71172 0.0
N108 N 0.27898 0.49107 0.72133 0.0
C109 C 0.24634 0.49013 0.76402 0.0
C110 C 0.22444 0.46127 0.75451 0.0
C111 C 0.32779 0.57499 0.68771 0.0
C112 C 0.39217 0.5597 0.57991 0.0
C113 C 0.38864 0.60239 0.61808 0.0
C114 C 0.38965 0.60525 0.58407 0.0
C115 C 0.39137 0.5837 0.56491 0.0
N116 N 0.38933 0.57873 0.6326 0.0
C117 C 0.39115 0.55758 0.61399 0.0
Co118 Co 0.80088 0.31465 0.02006 0.0
Co119 Co 0.82912 0.38964 1.00047 0.0
O120 O 0.8287 0.35162 0.99704 0.0
C121 C 0.78834 0.30215 0.95004 0.0
O122 O 0.79036 0.32862 0.94968 0.0
C123 C 0.88971 0.40355 0.02054 0.0
O124 O 0.8769 0.37923 0.0388 0.0
O125 O 0.82639 0.3863 0.0489 0.0
O126 O 0.80843 0.3376 0.06258 0.0
H127 H 0.79416 0.45925 0.04203 0.0
H128 H 0.84946 0.31619 0.97915 0.0
O129 O 0.79206 0.29178 0.97706 0.0
H130 H 0.8687 0.29417 0.0911 0.0
H131 H 0.75406 0.20408 0.04438 0.0
H132 H 0.75386 0.29769 0.0711 0.0
H133 H 0.82499 0.30059 0.07949 0.0
H134 H 0.78901 0.25173 1.01654 0.0
O135 O 0.87378 0.41104 1.00345 0.0
H136 H 0.79304 0.4108 0.0367 0.0
H137 H 0.86818 0.4508 0.97231 0.0
H138 H 0.71872 0.25065 0.09974 0.0
H139 H 0.89331 0.30971 0.98958 0.0
H140 H 0.71867 0.20339 0.0864 0.0
H141 H 0.90318 0.2987 0.04592 0.0
O142 O 0.76611 0.32049 1.01193 0.0
H143 H 0.86944 0.38463 0.88999 0.0
H144 H 0.79683 0.40386 0.94908 0.0
H145 H 0.79853 0.40611 0.88882 0.0
H146 H 0.83502 0.39641 0.85887 0.0
H147 H 0.86675 0.38229 0.95023 0.0
H148 H 0.87029 0.49975 0.97717 0.0
H149 H 0.83301 0.50416 1.01213 0.0
O150 O 0.7845 0.36892 0.99781 0.0
C151 C 0.81777 0.36521 0.07 0.0
C152 C 0.81045 0.45759 0.02662 0.0
C153 C 0.85321 0.48033 0.99025 0.0
N154 N 0.83033 0.42792 1.00397 0.0
C155 C 0.80987 0.43019 0.02342 0.0
C156 C 0.85194 0.45257 0.98764 0.0
C157 C 0.83228 0.48278 1.00987 0.0
C158 C 0.85347 0.31111 1.00366 0.0
N159 N 0.83463 0.30857 0.02865 0.0
C160 C 0.87839 0.30759 1.00945 0.0
C161 C 0.88394 0.30146 0.04107 0.0
C162 C 0.86461 0.29893 0.06644 0.0
C163 C 0.83994 0.30263 0.05974 0.0
C164 C 0.75392 0.22454 0.05047 0.0
C165 C 0.75415 0.27727 0.06539 0.0
C166 C 0.77361 0.25155 0.03475 0.0
N167 N 0.77364 0.27748 0.04245 0.0
C168 C 0.73412 0.25068 0.08158 0.0
C169 C 0.73408 0.22417 0.07405 0.0
C170 C 0.76276 0.34253 1.0036 0.0
C171 C 0.85349 0.38896 0.90276 0.0
C172 C 0.81273 0.39957 0.93622 0.0
C173 C 0.81364 0.40095 0.9021 0.0
C174 C 0.83415 0.39554 0.88531 0.0
N175 N 0.83171 0.393 0.95316 0.0
C176 C 0.85196 0.3878 0.93688 0.0
Co177 Co 0.47268 0.79632 0.37678 0.0
Co178 Co 0.43409 0.83375 0.36061 0.0
O179 O 0.46722 0.82624 0.35319 0.0
C180 C 0.46987 0.78059 0.30753 0.0
O181 O 0.44595 0.78365 0.30742 0.0
C182 C 0.48829 0.89336 0.36631 0.0
O183 O 0.49904 0.8815 0.38699 0.0
O184 O 0.44251 0.83848 0.40812 0.0
O185 O 0.45952 0.80656 0.41939 0.0
H186 H 0.34282 0.82309 0.41883 0.0
H187 H 0.52235 0.84127 0.3353 0.0
O188 O 0.48462 0.78496 0.33411 0.0
H189 H 0.56384 0.85754 0.44695 0.0
H190 H 0.52661 0.73941 0.4021 0.0
H191 H 0.43865 0.75053 0.42783 0.0
H192 H 0.51159 0.81763 0.43595 0.0
H193 H 0.51901 0.77761 0.3738 0.0
O194 O 0.46235 0.87737 0.35373 0.0
H195 H 0.38388 0.81229 0.40844 0.0
H196 H 0.41521 0.87409 0.32908 0.0
H197 H 0.44549 0.71225 0.45696 0.0
H198 H 0.5748 0.88127 0.34513 0.0
H199 H 0.48974 0.7065 0.44412 0.0
H200 H 0.59582 0.88965 0.40132 0.0
O201 O 0.43043 0.76484 0.36884 0.0
H202 H 0.46127 0.85078 0.24129 0.0
H203 H 0.37857 0.79832 0.32079 0.0
H204 H 0.36772 0.79029 0.26175 0.0
H205 H 0.40925 0.8166 0.22156 0.0
H206 H 0.47119 0.85791 0.30054 0.0
H207 H 0.37459 0.88571 0.33874 0.0
H208 H 0.33797 0.86004 0.38383 0.0
O209 O 0.40516 0.79024 0.36794 0.0
C210 C 0.44929 0.82379 0.42823 0.0
C211 C 0.35854 0.83431 0.399 0.0
C212 C 0.3764 0.86949 0.35409 0.0
N213 N 0.4017 0.84227 0.36794 0.0
C214 C 0.38178 0.82821 0.39293 0.0
C215 C 0.39936 0.86284 0.34875 0.0
C216 C 0.35586 0.85508 0.37939 0.0
C217 C 0.53146 0.84461 0.35975 0.0
N218 N 0.51403 0.82706 0.38499 0.0
C219 C 0.56112 0.86737 0.3652 0.0
C220 C 0.57288 0.87209 0.39674 0.0
C221 C 0.55494 0.85409 0.42236 0.0
C222 C 0.52537 0.83158 0.416 0.0
C223 C 0.5073 0.74177 0.40799 0.0
C224 C 0.45811 0.74836 0.42236 0.0
C225 C 0.50287 0.76333 0.39203 0.0
N226 N 0.47863 0.76653 0.39949 0.0
C227 C 0.4618 0.72656 0.43882 0.0
C228 C 0.48661 0.72332 0.43157 0.0
C229 C 0.40621 0.76598 0.36884 0.0
C230 C 0.44297 0.83926 0.25856 0.0
C231 C 0.39678 0.80983 0.30345 0.0
C232 C 0.39048 0.80524 0.27005 0.0
C233 C 0.41379 0.82004 0.24751 0.0
N234 N 0.42548 0.82866 0.31411 0.0
C235 C 0.44842 0.84334 0.29215 0.0
Co236 Co 0.6664 0.48587 0.68509 0.0
Co237 Co 0.59287 0.43798 0.661 0.0
O238 O 0.63053 0.4762 0.65954 0.0
C239 C 0.68314 0.48705 0.61613 0.0
O240 O 0.65669 0.46265 0.61415 0.0
C241 C 0.57659 0.48308 0.68023 0.0
O242 O 0.60054 0.49489 0.69899 0.0
O243 O 0.59373 0.43759 0.70955 0.0
O244 O 0.64114 0.46977 0.72623 0.0
H245 H 0.52332 0.33212 0.69911 0.0
H246 H 0.66617 0.53273 0.6428 0.0
O247 O 0.69174 0.50072 0.64359 0.0
H248 H 0.68119 0.57284 0.75501 0.0
H249 H 0.77526 0.55092 0.71623 0.0
H250 H 0.68118 0.45581 0.73802 0.0
H251 H 0.67645 0.5233 0.7444 0.0
H252 H 0.72904 0.53776 0.68515 0.0
O253 O 0.57021 0.46015 0.66275 0.0
H254 H 0.57131 0.38023 0.69629 0.0
H255 H 0.53293 0.41501 0.62945 0.0
H256 H 0.72676 0.46815 0.76986 0.0
H257 H 0.67104 0.58248 0.65224 0.0
H258 H 0.77425 0.51602 0.75901 0.0
H259 H 0.67852 0.60279 0.70871 0.0
O260 O 0.66188 0.44575 0.67755 0.0
H261 H 0.60199 0.48508 0.5507 0.0
H262 H 0.5827 0.393 0.60917 0.0
H263 H 0.58348 0.39371 0.54885 0.0
H264 H 0.59323 0.44002 0.51923 0.0
H265 H 0.60131 0.48347 0.61101 0.0
H266 H 0.48443 0.36737 0.63176 0.0
H267 H 0.47945 0.32547 0.66669 0.0
O268 O 0.61479 0.41514 0.65971 0.0
C269 C 0.61336 0.45056 0.73196 0.0
C270 C 0.52524 0.35016 0.6837 0.0
C271 C 0.5034 0.36996 0.64593 0.0
N272 N 0.55499 0.40027 0.66248 0.0
C273 C 0.55238 0.37741 0.68192 0.0
C274 C 0.5309 0.3969 0.64476 0.0
C275 C 0.50063 0.34646 0.66553 0.0
C276 C 0.66972 0.54157 0.66738 0.0
N277 N 0.67122 0.52527 0.69299 0.0
C278 C 0.67233 0.56969 0.6726 0.0
C279 C 0.67649 0.58105 0.7043 0.0
C280 C 0.67797 0.56425 0.73029 0.0
C281 C 0.67523 0.53621 0.72415 0.0
C282 C 0.75469 0.53004 0.72125 0.0
C283 C 0.70168 0.4768 0.73339 0.0
C284 C 0.72848 0.52247 0.70371 0.0
N285 N 0.7024 0.49621 0.71004 0.0
C286 C 0.72745 0.48361 0.75139 0.0
C287 C 0.7541 0.51045 0.74526 0.0
C288 C 0.64099 0.42034 0.66763 0.0
C289 C 0.59766 0.46475 0.56333 0.0
C290 C 0.58697 0.41323 0.59645 0.0
C291 C 0.58733 0.41349 0.5623 0.0
C292 C 0.59277 0.43947 0.54569 0.0
N293 N 0.59187 0.43814 0.61358 0.0
C294 C 0.5971 0.46366 0.59747 0.0
Co295 Co 0.17206 0.66549 0.03123 0.0
Co296 Co 0.16828 0.59904 1.00719 0.0
O297 O 0.15479 0.62842 1.0054 0.0
C298 C 0.18631 0.68382 0.96234 0.0
O299 O 0.19055 0.66075 0.96046 0.0
C300 C 0.10524 0.56592 0.0282 0.0
O301 O 0.11106 0.58995 0.04511 0.0
O302 O 0.17023 0.60119 0.05567 0.0
O303 O 0.16741 0.6416 0.07245 0.0
H304 H 0.23551 0.55956 0.0441 0.0
H305 H 0.12162 0.65125 0.98583 0.0
O306 O 0.17813 0.6898 0.9896 0.0
H307 H 0.08332 0.65423 0.09564 0.0
H308 H 0.18593 0.76669 0.06136 0.0
H309 H 0.21449 0.69032 0.08703 0.0
H310 H 0.13543 0.66455 0.08822 0.0
H311 H 0.16499 0.7196 0.02958 0.0
O312 O 0.12563 0.56574 1.01055 0.0
H313 H 0.21779 0.59622 0.04134 0.0
H314 H 0.14688 0.53855 0.9776 0.0
H315 H 0.23577 0.73693 0.11962 0.0
H316 H 0.06943 0.64101 0.99207 0.0
H317 H 0.22151 0.77552 0.10683 0.0
H318 H 0.04995 0.64237 0.04732 0.0
O319 O 0.21385 0.67311 0.0263 0.0
H320 H 0.11981 0.59016 0.89794 0.0
H321 H 0.20993 0.60178 0.95452 0.0
H322 H 0.20836 0.60082 0.89423 0.0
H323 H 0.16306 0.59501 0.86555 0.0
H324 H 0.12248 0.59155 0.95821 0.0
H325 H 0.1636 0.50106 0.98002 0.0
H326 H 0.20832 0.51156 1.0133 0.0
O327 O 0.21084 0.63159 1.00429 0.0
C328 C 0.16853 0.61755 0.07813 0.0
C329 C 0.21604 0.55476 0.02943 0.0
C330 C 0.17566 0.52191 0.99349 0.0
N331 N 0.1815 0.56964 1.00908 0.0
C332 C 0.20596 0.57548 0.02768 0.0
C333 C 0.16625 0.54318 0.99228 0.0
C334 C 0.20076 0.52783 1.01216 0.0
C335 C 0.11338 0.65219 1.00988 0.0
N336 N 0.13156 0.65867 0.0366 0.0
C337 C 0.08378 0.64624 1.01329 0.0
C338 C 0.07285 0.64697 0.04431 0.0
C339 C 0.09156 0.65361 0.07143 0.0
C340 C 0.12102 0.6594 0.0671 0.0
C341 C 0.19228 0.75002 0.06721 0.0
C342 C 0.20802 0.70692 0.08148 0.0
C343 C 0.18055 0.72337 0.04926 0.0
N344 N 0.18836 0.70219 0.05662 0.0
C345 C 0.22022 0.73331 0.09994 0.0
C346 C 0.21223 0.75496 0.09272 0.0
C347 C 0.22575 0.65869 1.01419 0.0
C348 C 0.13965 0.59263 0.91016 0.0
C349 C 0.19014 0.59924 0.94221 0.0
C350 C 0.18936 0.59867 0.90807 0.0
C351 C 0.16393 0.59539 0.892 0.0
N352 N 0.16626 0.59661 0.95984 0.0
C353 C 0.14121 0.59329 0.94427 0.0
Co354 Co 0.80428 0.47333 0.35084 0.0
Co355 Co 0.80347 0.40734 0.37096 0.0
O356 O 0.81888 0.45041 0.37549 0.0
C357 C 0.78906 0.47531 0.41991 0.0
O358 O 0.7823 0.4471 0.42008 0.0
C359 C 0.86702 0.4356 0.35275 0.0
O360 O 0.86261 0.45519 0.33666 0.0
O361 O 0.8037 0.41041 0.32253 0.0
O362 O 0.80823 0.45506 0.30845 0.0
H363 H 0.73327 0.30387 0.32734 0.0
H364 H 0.85446 0.50485 0.3979 0.0
O365 O 0.79897 0.4907 0.39353 0.0
H366 H 0.89663 0.54972 0.2903 0.0
H367 H 0.79794 0.56601 0.32579 0.0
H368 H 0.76335 0.46091 0.29444 0.0
H369 H 0.8433 0.51017 0.2957 0.0
H370 H 0.81551 0.53595 0.3559 0.0
O371 O 0.84557 0.41462 0.36898 0.0
H372 H 0.75382 0.35856 0.33311 0.0
H373 H 0.8207 0.3642 0.3986 0.0
H374 H 0.7454 0.49018 0.26348 0.0
H375 H 0.90785 0.54449 0.39368 0.0
H376 H 0.76272 0.54314 0.27913 0.0
H377 H 0.92928 0.56711 0.33954 0.0
O378 O 0.76156 0.4409 0.35412 0.0
H379 H 0.84789 0.43896 0.48322 0.0
H380 H 0.75863 0.36691 0.42048 0.0
H381 H 0.75753 0.36409 0.48073 0.0
H382 H 0.80238 0.40033 0.5125 0.0
H383 H 0.8479 0.44116 0.42293 0.0
H384 H 0.80115 0.30961 0.39316 0.0
H385 H 0.75696 0.27904 0.35752 0.0
O386 O 0.76152 0.39956 0.37244 0.0
C387 C 0.80647 0.42985 0.30126 0.0
C388 C 0.75247 0.31693 0.34302 0.0
C389 C 0.79059 0.32016 0.37994 0.0
N390 N 0.78826 0.36449 0.36641 0.0
C391 C 0.76415 0.34789 0.34648 0.0
C392 C 0.80163 0.35107 0.38285 0.0
C393 C 0.7658 0.30302 0.35994 0.0
C394 C 0.86356 0.51483 0.37433 0.0
N395 N 0.84579 0.50538 0.34712 0.0
C396 C 0.89383 0.53717 0.37206 0.0
C397 C 0.90585 0.54982 0.34167 0.0
C398 C 0.88755 0.54006 0.31402 0.0
C399 C 0.85739 0.51765 0.31722 0.0
C400 C 0.79028 0.54298 0.31869 0.0
C401 C 0.77114 0.484 0.30123 0.0
C402 C 0.8001 0.52585 0.33569 0.0
N403 N 0.79062 0.49681 0.32675 0.0
C404 C 0.76083 0.50043 0.28369 0.0
C405 C 0.77053 0.53013 0.29251 0.0
C406 C 0.74812 0.41376 0.364 0.0
C407 C 0.82823 0.42301 0.46964 0.0
C408 C 0.77823 0.38275 0.43415 0.0
C409 C 0.77749 0.38102 0.46825 0.0
C410 C 0.80268 0.40134 0.48606 0.0
N411 N 0.80335 0.40412 0.41823 0.0
C412 C 0.82816 0.42405 0.43551 0.0
Co413 Co 0.32208 0.81212 0.70374 0.0
Co414 Co 0.3914 0.82369 0.72921 0.0
O415 O 0.35906 0.83326 0.72943 0.0
C416 C 0.30386 0.79976 0.77281 0.0
O417 O 0.32831 0.79792 0.77581 0.0
C418 C 0.41911 0.88552 0.70499 0.0
O419 O 0.39434 0.87651 0.68807 0.0
O420 O 0.38951 0.81973 0.68087 0.0
O421 O 0.34653 0.81674 0.66295 0.0
H422 H 0.44115 0.76435 0.69712 0.0
H423 H 0.33196 0.86348 0.74546 0.0
O424 O 0.2972 0.8061 0.74485 0.0
H425 H 0.32491 0.89362 0.63274 0.0
H426 H 0.21751 0.78725 0.67122 0.0
H427 H 0.3002 0.76639 0.65098 0.0
H428 H 0.31938 0.84382 0.64395 0.0
H429 H 0.26477 0.81357 0.70275 0.0
O430 O 0.42168 0.86733 0.72411 0.0
H431 H 0.40031 0.77654 0.69798 0.0
H432 H 0.45241 0.85169 0.75939 0.0
H433 H 0.25347 0.73973 0.61871 0.0
H434 H 0.33739 0.91341 0.73543 0.0
H435 H 0.21171 0.75011 0.62878 0.0
H436 H 0.33397 0.92878 0.6787 0.0
O437 O 0.31836 0.77234 0.71188 0.0
H438 H 0.39529 0.87431 0.83567 0.0
H439 H 0.39258 0.78609 0.78422 0.0
H440 H 0.39326 0.78991 0.84437 0.0
H441 H 0.39459 0.83426 0.87047 0.0
H442 H 0.3943 0.86943 0.77559 0.0
H443 H 0.49399 0.84051 0.75889 0.0
H444 H 0.48842 0.79647 0.72772 0.0
O445 O 0.36186 0.78007 0.73356 0.0
C446 C 0.37195 0.81818 0.65792 0.0
C447 C 0.44381 0.78354 0.71089 0.0
C448 C 0.47347 0.82631 0.74553 0.0
N449 N 0.42387 0.81462 0.72899 0.0
C450 C 0.42072 0.79049 0.71157 0.0
C451 C 0.44989 0.83256 0.74567 0.0
C452 C 0.47033 0.80159 0.72804 0.0
C453 C 0.33014 0.86992 0.72077 0.0
N454 N 0.32517 0.85074 0.69535 0.0
C455 C 0.33336 0.89825 0.71521 0.0
C456 C 0.33148 0.90688 0.68337 0.0
C457 C 0.32641 0.88717 0.65757 0.0
C458 C 0.32333 0.85903 0.66405 0.0
C459 C 0.23557 0.7826 0.66655 0.0
C460 C 0.28222 0.7712 0.6553 0.0
C461 C 0.26234 0.79739 0.68435 0.0
N462 N 0.28528 0.79171 0.67847 0.0
C463 C 0.25577 0.75596 0.63704 0.0
C464 C 0.23234 0.76176 0.64273 0.0
C465 C 0.33479 0.76286 0.72436 0.0
C466 C 0.39479 0.85492 0.82458 0.0
C467 C 0.39317 0.80545 0.7954 0.0
C468 C 0.39359 0.80751 0.82947 0.0
C469 C 0.39435 0.83242 0.84409 0.0
N470 N 0.39354 0.82759 0.77644 0.0
C471 C 0.39437 0.85211 0.79059 0.0
Co472 Co 0.50349 0.31725 1.00589 0.0
Co473 Co 0.55108 0.39038 0.03123 0.0
O474 O 0.51351 0.3522 0.03315 0.0
C475 C 0.50535 0.29898 0.07354 0.0
O476 O 0.53004 0.32523 0.0751 0.0
C477 C 0.50394 0.40556 1.01824 0.0
O478 O 0.49199 0.38274 0.99791 0.0
O479 O 0.54928 0.39089 0.9827 0.0
O480 O 0.51784 0.34353 0.96537 0.0
H481 H 0.6546 0.46316 0.98893 0.0
H482 H 0.45778 0.31552 0.05178 0.0
O483 O 0.49046 0.29098 0.04675 0.0
H484 H 0.41342 0.30269 0.94192 0.0
H485 H 0.43848 0.20906 0.97258 0.0
H486 H 0.53186 0.30445 0.94948 0.0
H487 H 0.46371 0.30807 0.94897 0.0
H488 H 0.45228 0.2543 1.00576 0.0
O489 O 0.52789 0.41191 0.03375 0.0
H490 H 0.60733 0.41443 0.9923 0.0
H491 H 0.57418 0.44907 0.0656 0.0
H492 H 0.51885 0.25989 0.91552 0.0
H493 H 0.40735 0.30999 0.04591 0.0
H494 H 0.47185 0.21174 0.92701 0.0
H495 H 0.3849 0.3036 0.99064 0.0
O496 O 0.54427 0.32245 1.01039 0.0
H497 H 0.50864 0.37616 0.14492 0.0
H498 H 0.59891 0.40065 0.07941 0.0
H499 H 0.60103 0.39791 0.1395 0.0
H500 H 0.55563 0.38554 0.17266 0.0
H501 H 0.50744 0.37882 0.08475 0.0
H502 H 0.62101 0.49826 0.06284 0.0
H503 H 0.66166 0.5055 0.02438 0.0
O504 O 0.57484 0.36954 0.02844 0.0
C505 C 0.53619 0.37159 0.96001 0.0
C506 C 0.6371 0.46025 1.00588 0.0
C507 C 0.61823 0.47996 0.04733 0.0
N508 N 0.58816 0.42883 0.02934 0.0
C509 C 0.61033 0.43268 1.00797 0.0
C510 C 0.59175 0.45208 0.04875 0.0
C511 C 0.64103 0.48401 0.02575 0.0
C512 C 0.44802 0.31245 0.02769 0.0
N513 N 0.46353 0.31191 1.00076 0.0
C514 C 0.41952 0.30946 0.0245 0.0
C515 C 0.40695 0.30592 0.99348 0.0
C516 C 0.42295 0.30542 0.96613 0.0
C517 C 0.45142 0.30852 0.97026 0.0
C518 C 0.45898 0.22993 0.96728 0.0
C519 C 0.51126 0.28365 0.95444 0.0
C520 C 0.46693 0.25558 0.98601 0.0
N521 N 0.4927 0.28202 0.97934 0.0
C522 C 0.50406 0.25846 0.93522 0.0
C523 C 0.47771 0.23145 0.94171 0.0
C524 C 0.56991 0.34377 0.0192 0.0
C525 C 0.52858 0.38162 0.13074 0.0
C526 C 0.57907 0.39522 0.09368 0.0
C527 C 0.58042 0.39377 0.12769 0.0
C528 C 0.55495 0.38686 0.14629 0.0
N529 N 0.5531 0.38994 0.07859 0.0
C530 C 0.52808 0.3833 0.09667 0.0
Co531 Co 0.1795 0.50883 0.358 0.0
Co532 Co 0.14059 0.5459 0.37569 0.0
O533 O 0.14776 0.51223 0.38041 0.0
C534 C 0.1909 0.50716 0.42793 0.0
O535 O 0.1863 0.53007 0.42943 0.0
C536 C 0.08233 0.49271 0.36015 0.0
O537 O 0.09678 0.48413 0.34032 0.0
O538 O 0.14093 0.54307 0.32739 0.0
O539 O 0.17145 0.5244 0.31584 0.0
H540 H 0.15614 0.6429 0.32776 0.0
H541 H 0.13264 0.45636 0.39466 0.0
O542 O 0.18876 0.49449 0.40034 0.0
H543 H 0.1236 0.42237 0.28034 0.0
H544 H 0.23936 0.45803 0.33214 0.0
H545 H 0.22808 0.54654 0.31102 0.0
H546 H 0.16227 0.47388 0.29593 0.0
H547 H 0.19901 0.46308 0.35915 0.0
O548 O 0.09655 0.51706 0.37625 0.0
H549 H 0.1663 0.60104 0.33473 0.0
H550 H 0.09676 0.56088 0.40588 0.0
H551 H 0.26855 0.5423 0.28324 0.0
H552 H 0.09379 0.40456 0.38023 0.0
H553 H 0.27438 0.49778 0.29377 0.0
H554 H 0.08906 0.38731 0.32268 0.0
O555 O 0.21003 0.55048 0.3697 0.0
H556 H 0.11125 0.50502 0.48985 0.0
H557 H 0.17105 0.59628 0.42335 0.0
H558 H 0.17269 0.60013 0.48351 0.0
H559 H 0.14266 0.55427 0.51718 0.0
H560 H 0.11051 0.50211 0.42963 0.0
H561 H 0.08567 0.60219 0.3995 0.0
H562 H 0.11556 0.64365 0.36031 0.0
O563 O 0.18454 0.57547 0.37466 0.0
C564 C 0.15576 0.53644 0.30728 0.0
C565 C 0.14307 0.62506 0.34505 0.0
C566 C 0.10349 0.60218 0.38528 0.0
N567 N 0.13243 0.57878 0.37101 0.0
C568 C 0.14881 0.60136 0.3492 0.0
C569 C 0.10986 0.57885 0.38877 0.0
C570 C 0.12027 0.62544 0.36329 0.0
C571 C 0.13087 0.44889 0.36964 0.0
N572 N 0.14977 0.46801 0.3462 0.0
C573 C 0.10877 0.41959 0.36158 0.0
C574 C 0.1061 0.40994 0.32928 0.0
C575 C 0.12546 0.42961 0.3055 0.0
C576 C 0.14726 0.45876 0.31445 0.0
C577 C 0.23698 0.47748 0.32726 0.0
C578 C 0.2303 0.52697 0.31546 0.0
C579 C 0.21421 0.48046 0.3425 0.0
N580 N 0.21099 0.50489 0.33631 0.0
C581 C 0.25334 0.52475 0.29978 0.0
C582 C 0.25662 0.49979 0.30573 0.0
C583 C 0.20884 0.57446 0.37354 0.0
C584 C 0.12437 0.52517 0.47544 0.0
C585 C 0.15794 0.57621 0.43783 0.0
C586 C 0.15891 0.57855 0.47189 0.0
C587 C 0.14203 0.55281 0.49076 0.0
N588 N 0.14061 0.54901 0.42298 0.0
C589 C 0.12391 0.52369 0.44133 0.0
Co590 Co 0.66991 0.18799 0.67384 0.0
Co591 Co 0.59568 0.1651 0.69256 0.0
O592 O 0.63256 0.16363 0.69803 0.0
C593 C 0.68378 0.20498 0.74285 0.0
O594 O 0.65882 0.20612 0.74199 0.0
C595 C 0.57812 0.10204 0.68035 0.0
O596 O 0.60184 0.11187 0.66128 0.0
O597 O 0.59839 0.16319 0.64421 0.0
O598 O 0.64691 0.17905 0.63123 0.0
H599 H 0.52993 0.20127 0.64257 0.0
H600 H 0.665 0.14065 0.71935 0.0
O601 O 0.69284 0.19802 0.71684 0.0
H602 H 0.68367 0.11162 0.61063 0.0
H603 H 0.77942 0.22618 0.64983 0.0
H604 H 0.68936 0.23175 0.61899 0.0
H605 H 0.68105 0.15804 0.61761 0.0
H606 H 0.73125 0.1957 0.67899 0.0
O607 O 0.57216 0.12046 0.69463 0.0
H608 H 0.57695 0.19992 0.65046 0.0
H609 H 0.53442 0.1315 0.72239 0.0
H610 H 0.73695 0.26242 0.58899 0.0
H611 H 0.66766 0.09417 0.71354 0.0
H612 H 0.78243 0.25975 0.60439 0.0
H613 H 0.67697 0.07935 0.65884 0.0
O614 O 0.66695 0.22495 0.67812 0.0
H615 H 0.6006 0.1346 0.80819 0.0
H616 H 0.5842 0.20349 0.73837 0.0
H617 H 0.58322 0.20787 0.79837 0.0
H618 H 0.59152 0.17328 0.8337 0.0
H619 H 0.60173 0.13124 0.74808 0.0
H620 H 0.48686 0.13193 0.71508 0.0
H621 H 0.48446 0.16709 0.67503 0.0
O622 O 0.61858 0.20968 0.69041 0.0
C623 C 0.61941 0.16987 0.62339 0.0
C624 C 0.53072 0.18593 0.66019 0.0
C625 C 0.50654 0.14698 0.70085 0.0
N626 N 0.55849 0.16586 0.68707 0.0
C627 C 0.55731 0.18513 0.66483 0.0
C628 C 0.53351 0.14679 0.70484 0.0
C629 C 0.50521 0.16672 0.67838 0.0
C630 C 0.66936 0.13449 0.69553 0.0
N631 N 0.67307 0.1521 0.66888 0.0
C632 C 0.67071 0.10809 0.69237 0.0
C633 C 0.67589 0.09977 0.66166 0.0
C634 C 0.67964 0.11786 0.6346 0.0
C635 C 0.67809 0.14408 0.63868 0.0
C636 C 0.75975 0.22749 0.64284 0.0
C637 C 0.70899 0.2303 0.62565 0.0
C638 C 0.73244 0.21033 0.6593 0.0
N639 N 0.70749 0.21177 0.65048 0.0
C640 C 0.7359 0.2478 0.60866 0.0
C641 C 0.76142 0.24631 0.61734 0.0
C642 C 0.64555 0.23004 0.68427 0.0
C643 C 0.59691 0.14977 0.79305 0.0
C644 C 0.58789 0.18841 0.75359 0.0
C645 C 0.58723 0.19094 0.78754 0.0
C646 C 0.59185 0.1715 0.80735 0.0
N647 N 0.59302 0.16714 0.73974 0.0
C648 C 0.59739 0.14788 0.75901 0.0
Co649 Co 0.4664 0.6593 0.03465 0.0
Co650 Co 0.40579 0.58882 0.05191 0.0
O651 O 0.44746 0.62062 0.0575 0.0
C652 C 0.46594 0.67273 0.10438 0.0
O653 O 0.43873 0.64932 0.10376 0.0
C654 C 0.44179 0.5617 0.03259 0.0
O655 O 0.45893 0.58691 1.01684 0.0
O656 O 0.40928 0.59329 1.00364 0.0
O657 O 0.44999 0.63818 0.9914 0.0
H658 H 0.30105 0.54226 1.0061 0.0
H659 H 0.50292 0.64485 0.07934 0.0
O660 O 0.48176 0.68079 0.07816 0.0
H661 H 0.54989 0.6585 0.97065 0.0
H662 H 0.55073 0.76469 1.01326 0.0
H663 H 0.44854 0.68622 0.9811 0.0
H664 H 0.50571 0.66502 0.97824 0.0
H665 H 0.52581 0.71529 0.04095 0.0
O666 O 0.41929 0.5585 0.04908 0.0
H667 H 0.35384 0.58236 1.0135 0.0
H668 H 0.36913 0.52643 0.07797 0.0
H669 H 0.47265 0.73518 0.95257 0.0
H670 H 0.54722 0.63833 0.07294 0.0
H671 H 0.52413 0.77483 0.96864 0.0
H672 H 0.57092 0.64506 1.01824 0.0
O673 O 0.43039 0.6637 0.03971 0.0
H674 H 0.43998 0.57899 0.16401 0.0
H675 H 0.36123 0.58532 0.10127 0.0
H676 H 0.35762 0.58166 0.16143 0.0
H677 H 0.39722 0.57852 0.1932 0.0
H678 H 0.44285 0.58296 0.10382 0.0
H679 H 0.31659 0.48557 0.07097 0.0
H680 H 0.28212 0.49343 0.03496 0.0
O681 O 0.39174 0.61853 0.054 0.0
C682 C 0.42717 0.61291 0.98318 0.0
C683 C 0.31582 0.53859 0.02194 0.0
C684 C 0.32456 0.50676 0.05832 0.0
N685 N 0.36445 0.55683 0.04639 0.0
C686 C 0.34571 0.56125 0.02631 0.0
C687 C 0.3543 0.52995 0.06213 0.0
C688 C 0.30522 0.51119 0.03812 0.0
C689 C 0.51333 0.64812 0.05555 0.0
N690 N 0.50191 0.65548 0.02924 0.0
C691 C 0.53831 0.64427 0.05204 0.0
C692 C 0.55158 0.64801 0.02133 0.0
C693 C 0.53978 0.65554 0.99462 0.0
C694 C 0.51475 0.65916 0.99904 0.0
C695 C 0.52833 0.74757 1.00598 0.0
C696 C 0.47104 0.70327 0.98802 0.0
C697 C 0.51411 0.71959 0.02159 0.0
N698 N 0.4859 0.69783 1.0124 0.0
C699 C 0.48453 0.73099 0.97188 0.0
C700 C 0.5134 0.75324 0.98093 0.0
C701 C 0.403 0.64645 0.04765 0.0
C702 C 0.42255 0.58027 0.15043 0.0
C703 C 0.37854 0.58394 0.11493 0.0
C704 C 0.37635 0.58183 0.14898 0.0
C705 C 0.39857 0.58004 0.1668 0.0
N706 N 0.40217 0.58424 0.09906 0.0
C707 C 0.42398 0.58238 0.11634 0.0
C708 C 0.55799 0.18532 0.44832 0.0
C709 C 0.5641 0.17018 0.42364 0.0
C710 C 0.56713 0.18526 0.48086 0.0
C711 C 0.58195 0.16899 0.489 0.0
C712 C 0.58716 0.15284 0.46425 0.0
C713 C 0.57855 0.15396 0.43193 0.0
C714 C 0.5616 0.20319 0.50637 0.0
C715 C 0.602 0.13446 0.47184 0.0
C716 C 0.63107 0.18889 0.5655 0.0
C717 C 0.61103 0.16806 0.58832 0.0
C718 C 0.62181 0.18973 0.53326 0.0
C719 C 0.59203 0.16872 0.52331 0.0
C720 C 0.57208 0.14699 0.54601 0.0
C721 C 0.58167 0.14719 0.57825 0.0
C722 C 0.64368 0.21357 0.51005 0.0
C723 C 0.54049 0.12358 0.53628 0.0
H724 H 0.54704 0.19805 0.442 0.0
H725 H 0.58307 0.14195 0.41299 0.0
H726 H 0.5477 0.18822 0.52657 0.0
H727 H 0.58337 0.22032 0.51713 0.0
H728 H 0.55001 0.21477 0.49615 0.0
H729 H 0.60311 0.12203 0.45013 0.0
H730 H 0.62524 0.14937 0.48085 0.0
H731 H 0.58944 0.118 0.49155 0.0
H732 H 0.65363 0.20533 0.57318 0.0
H733 H 0.56606 0.13097 0.59574 0.0
H734 H 0.63408 0.22745 0.50114 0.0
H735 H 0.64743 0.20288 0.48837 0.0
H736 H 0.66579 0.22863 0.5217 0.0
H737 H 0.52762 0.1347 0.52884 0.0
H738 H 0.52813 0.10756 0.55646 0.0
H739 H 0.54122 0.11066 0.51489 0.0
C740 C 0.352 0.55379 0.80775 0.0
C741 C 0.37298 0.55733 0.78364 0.0
C742 C 0.36125 0.56333 0.84012 0.0
C743 C 0.39206 0.57593 0.84873 0.0
C744 C 0.41307 0.57849 0.82463 0.0
C745 C 0.40336 0.56956 0.79237 0.0
C746 C 0.33821 0.56068 0.86492 0.0
C747 C 0.44589 0.59084 0.83284 0.0
C748 C 0.42299 0.62552 0.92469 0.0
C749 C 0.42091 0.60467 0.94817 0.0
C750 C 0.41342 0.61646 0.89227 0.0
C751 C 0.40233 0.58604 0.88299 0.0
C752 C 0.4013 0.56525 0.90645 0.0
C753 C 0.41019 0.57471 0.93876 0.0
C754 C 0.4144 0.63923 0.86817 0.0
C755 C 0.39059 0.53289 0.8975 0.0
H756 H 0.3286 0.54471 0.80101 0.0
H757 H 0.41965 0.57222 0.77381 0.0
H758 H 0.33745 0.54646 0.88576 0.0
H759 H 0.34476 0.58325 0.87489 0.0
H760 H 0.31526 0.55078 0.8543 0.0
H761 H 0.45908 0.59011 0.81162 0.0
H762 H 0.45598 0.6145 0.84115 0.0
H763 H 0.44807 0.57777 0.85324 0.0
H764 H 0.43092 0.6486 0.93198 0.0
H765 H 0.4087 0.55854 0.95685 0.0
H766 H 0.39141 0.63163 0.85873 0.0
H767 H 0.42869 0.64111 0.8469 0.0
H768 H 0.42334 0.66188 0.87924 0.0
H769 H 0.36671 0.5217 0.88966 0.0
H770 H 0.39253 0.51994 0.91822 0.0
H771 H 0.4039 0.53193 0.87659 0.0
C772 C 0.82577 0.40768 0.2603 0.0
C773 C 0.80989 0.42286 0.26683 0.0
C774 C 0.82786 0.39858 0.2285 0.0
C775 C 0.81308 0.40407 0.20245 0.0
C776 C 0.79718 0.41963 0.2088 0.0
C777 C 0.79612 0.42922 0.24089 0.0
C778 C 0.84583 0.38295 0.22286 0.0
C779 C 0.7807 0.4255 0.18183 0.0
C780 C 0.83876 0.4031 0.11511 0.0
C781 C 0.81789 0.37385 0.10474 0.0
C782 C 0.83761 0.41308 0.1468 0.0
C783 C 0.81455 0.39363 0.16863 0.0
C784 C 0.79352 0.36396 0.15841 0.0
C785 C 0.79567 0.3543 0.12675 0.0
C786 C 0.86106 0.44451 0.15689 0.0
C787 C 0.76833 0.34263 0.18069 0.0
H788 H 0.8367 0.40292 0.28024 0.0
H789 H 0.78363 0.4407 0.24587 0.0
H790 H 0.83084 0.35979 0.21374 0.0
H791 H 0.86326 0.39509 0.20386 0.0
H792 H 0.85709 0.38159 0.24547 0.0
H793 H 0.76921 0.43765 0.19073 0.0
H794 H 0.79666 0.43897 0.16211 0.0
H795 H 0.76362 0.40383 0.17086 0.0
H796 H 0.85607 0.41833 0.09829 0.0
H797 H 0.77925 0.33184 0.11882 0.0
H798 H 0.87291 0.4436 0.17917 0.0
H799 H 0.85007 0.45781 0.16304 0.0
H800 H 0.87803 0.45653 0.13737 0.0
H801 H 0.77775 0.33863 0.20329 0.0
H802 H 0.75337 0.32061 0.16886 0.0
H803 H 0.75457 0.35282 0.18816 0.0
C804 C 0.43465 0.80026 0.4841 0.0
C805 C 0.44156 0.82458 0.46318 0.0
C806 C 0.42277 0.79872 0.51559 0.0
C807 C 0.41813 0.82228 0.5267 0.0
C808 C 0.42601 0.84733 0.50608 0.0
C809 C 0.43739 0.84808 0.4746 0.0
C810 C 0.41449 0.7715 0.53668 0.0
C811 C 0.42209 0.87325 0.51713 0.0
C812 C 0.36346 0.80847 0.59719 0.0
C813 C 0.38312 0.8197 0.62393 0.0
C814 C 0.37444 0.80883 0.56542 0.0
C815 C 0.40585 0.8212 0.56021 0.0
C816 C 0.42576 0.83304 0.58706 0.0
C817 C 0.41419 0.83198 0.61845 0.0
C818 C 0.35244 0.79572 0.53747 0.0
C819 C 0.45939 0.84697 0.58265 0.0
H820 H 0.43738 0.78182 0.47542 0.0
H821 H 0.44263 0.86698 0.45866 0.0
H822 H 0.4271 0.77852 0.56005 0.0
H823 H 0.39015 0.76011 0.54285 0.0
H824 H 0.41932 0.75503 0.52446 0.0
H825 H 0.42999 0.89142 0.49849 0.0
H826 H 0.398 0.86512 0.52244 0.0
H827 H 0.43477 0.88293 0.54011 0.0
H828 H 0.33947 0.79885 0.60117 0.0
H829 H 0.4297 0.84106 0.63882 0.0
H830 H 0.35461 0.77741 0.52567 0.0
H831 H 0.3577 0.81321 0.5186 0.0
H832 H 0.32874 0.78654 0.54556 0.0
H833 H 0.46469 0.83015 0.57235 0.0
H834 H 0.47187 0.85553 0.60599 0.0
H835 H 0.46776 0.86591 0.56499 0.0
C836 C 0.5565 0.4136 0.91905 0.0
C837 C 0.5444 0.3828 0.92579 0.0
C838 C 0.5676 0.42555 0.88785 0.0
C839 C 0.56714 0.40643 0.86264 0.0
C840 C 0.55449 0.37521 0.86907 0.0
C841 C 0.54302 0.36373 0.90044 0.0
C842 C 0.58015 0.45879 0.88198 0.0
C843 C 0.55378 0.35405 0.84301 0.0
C844 C 0.57208 0.43081 0.77372 0.0
C845 C 0.60263 0.44191 0.76625 0.0
C846 C 0.56043 0.4197 0.805 0.0
C847 C 0.57958 0.41908 0.82951 0.0
C848 C 0.61057 0.43068 0.82233 0.0
C849 C 0.62179 0.44224 0.7909 0.0
C850 C 0.52748 0.40831 0.81168 0.0
C851 C 0.63172 0.43017 0.84764 0.0
H852 H 0.55757 0.42856 0.93838 0.0
H853 H 0.53397 0.34 0.9054 0.0
H854 H 0.60434 0.46955 0.87534 0.0
H855 H 0.56835 0.46224 0.86116 0.0
H856 H 0.5779 0.47043 0.90379 0.0
H857 H 0.54331 0.33045 0.85185 0.0
H858 H 0.541 0.3547 0.82145 0.0
H859 H 0.57704 0.36138 0.83463 0.0
H860 H 0.55711 0.43065 0.75491 0.0
H861 H 0.64532 0.45052 0.78531 0.0
H862 H 0.52498 0.42024 0.83302 0.0
H863 H 0.51595 0.38402 0.8179 0.0
H864 H 0.51586 0.41144 0.79039 0.0
H865 H 0.63192 0.44289 0.86965 0.0
H866 H 0.65514 0.44001 0.8383 0.0
H867 H 0.62371 0.40664 0.85547 0.0
C868 C 0.13332 0.55033 0.26073 0.0
C869 C 0.15638 0.54568 0.27266 0.0
C870 C 0.13497 0.56234 0.2294 0.0
C871 C 0.16057 0.57048 0.20952 0.0
C872 C 0.18381 0.5656 0.22125 0.0
C873 C 0.18131 0.55299 0.25252 0.0
C874 C 0.10932 0.56642 0.21762 0.0
C875 C 0.21162 0.57423 0.201 0.0
C876 C 0.15341 0.57514 0.11744 0.0
C877 C 0.16576 0.60619 0.11216 0.0
C878 C 0.15138 0.56334 0.14889 0.0
C879 C 0.16242 0.58302 0.17599 0.0
C880 C 0.1748 0.61442 0.17096 0.0
C881 C 0.17603 0.62563 0.13912 0.0
C882 C 0.13735 0.5297 0.15308 0.0
C883 C 0.18715 0.6362 0.19918 0.0
H884 H 0.11395 0.54474 0.27607 0.0
H885 H 0.19941 0.54988 0.26164 0.0
H886 H 0.11762 0.59052 0.21232 0.0
H887 H 0.10008 0.55385 0.19449 0.0
H888 H 0.09077 0.55849 0.23582 0.0
H889 H 0.22797 0.56961 0.21387 0.0
H890 H 0.20526 0.56163 0.17761 0.0
H891 H 0.22292 0.59854 0.19484 0.0
H892 H 0.14504 0.55984 0.09682 0.0
H893 H 0.18569 0.64961 0.13523 0.0
H894 H 0.11809 0.52121 0.17036 0.0
H895 H 0.15401 0.52433 0.16372 0.0
H896 H 0.12918 0.5174 0.12958 0.0
H897 H 0.16919 0.63069 0.21756 0.0
H898 H 0.19636 0.65992 0.19122 0.0
H899 H 0.20528 0.63409 0.21151 0.0
C900 C 0.69983 0.37245 0.38464 0.0
C901 C 0.71518 0.39662 0.36312 0.0
C902 C 0.6705 0.34979 0.37777 0.0
C903 C 0.65669 0.35152 0.34853 0.0
C904 C 0.67024 0.37825 0.32974 0.0
C905 C 0.69966 0.40074 0.33728 0.0
C906 C 0.6563 0.32206 0.39919 0.0
C907 C 0.65548 0.38141 0.29929 0.0
C908 C 0.62389 0.27556 0.31016 0.0
C909 C 0.59437 0.26171 0.32217 0.0
C910 C 0.64378 0.30604 0.31576 0.0
C911 C 0.63372 0.32303 0.33364 0.0
C912 C 0.60305 0.3101 0.34236 0.0
C913 C 0.58362 0.27939 0.33661 0.0
C914 C 0.67635 0.3191 0.30554 0.0
C915 C 0.59121 0.3277 0.36041 0.0
H916 H 0.71166 0.3699 0.40526 0.0
H917 H 0.71141 0.41985 0.32099 0.0
H918 H 0.6321 0.31418 0.40327 0.0
H919 H 0.65799 0.30368 0.38686 0.0
H920 H 0.66764 0.32624 0.42332 0.0
H921 H 0.664 0.40546 0.29328 0.0
H922 H 0.66074 0.37102 0.27838 0.0
H923 H 0.63063 0.36977 0.30206 0.0
H924 H 0.63213 0.26222 0.29819 0.0
H925 H 0.56059 0.26898 0.34536 0.0
H926 H 0.69058 0.32342 0.32755 0.0
H927 H 0.68447 0.34086 0.2927 0.0
H928 H 0.67971 0.30374 0.28917 0.0
H929 H 0.59285 0.325 0.38712 0.0
H930 H 0.56711 0.3191 0.35455 0.0
H931 H 0.60426 0.35206 0.35452 0.0
C932 C 0.33966 0.71873 0.74046 0.0
C933 C 0.32264 0.73009 0.72597 0.0
C934 C 0.33187 0.68871 0.73607 0.0
C935 C 0.30644 0.66974 0.71677 0.0
C936 C 0.28732 0.68013 0.70516 0.0
C937 C 0.29567 0.71034 0.7099 0.0
C938 C 0.35264 0.67826 0.74933 0.0
C939 C 0.25968 0.66033 0.6851 0.0
C940 C 0.32668 0.62023 0.66923 0.0
C941 C 0.31518 0.595 0.68962 0.0
C942 C 0.32107 0.64365 0.67587 0.0
C943 C 0.30385 0.64171 0.70382 0.0
C944 C 0.28939 0.61482 0.72231 0.0
C945 C 0.29517 0.59153 0.71486 0.0
C946 C 0.33632 0.67173 0.65503 0.0
C947 C 0.27045 0.6118 0.7519 0.0
H948 H 0.36015 0.73368 0.75356 0.0
H949 H 0.28203 0.7188 0.69911 0.0
H950 H 0.33952 0.65601 0.7614 0.0
H951 H 0.36543 0.6757 0.72885 0.0
H952 H 0.36905 0.69442 0.7672 0.0
H953 H 0.24341 0.66866 0.6855 0.0
H954 H 0.26648 0.66032 0.65933 0.0
H955 H 0.24821 0.63674 0.69401 0.0
H956 H 0.34159 0.62248 0.64924 0.0
H957 H 0.28608 0.57182 0.7305 0.0
H958 H 0.3553 0.68993 0.66886 0.0
H959 H 0.32038 0.67967 0.64891 0.0
H960 H 0.34539 0.668 0.63191 0.0
H961 H 0.28545 0.62267 0.77315 0.0
H962 H 0.25491 0.5878 0.75817 0.0
H963 H 0.25709 0.62313 0.74795 0.0
C964 C 0.62041 0.355 0.03827 0.0
C965 C 0.59557 0.33863 1.01786 0.0
C966 C 0.64607 0.35223 0.03535 0.0
C967 C 0.64696 0.33311 1.011 0.0
C968 C 0.62164 0.3159 0.99091 0.0
C969 C 0.59602 0.31865 0.99482 0.0
C970 C 0.67256 0.37048 0.05763 0.0
C971 C 0.62212 0.29567 0.96438 0.0
C972 C 0.72604 0.35718 0.98387 0.0
C973 C 0.732 0.33757 1.00196 0.0
C974 C 0.69769 0.35482 0.98516 0.0
C975 C 0.67515 0.33268 1.00549 0.0
C976 C 0.68059 0.31197 0.02268 0.0
C977 C 0.70898 0.3145 0.02045 0.0
C978 C 0.69235 0.37691 0.96598 0.0
C979 C 0.6571 0.28835 0.04492 0.0
H980 H 0.6199 0.37018 0.05633 0.0
H981 H 0.57683 0.30611 0.97891 0.0
H982 H 0.67975 0.35568 0.0696 0.0
H983 H 0.69193 0.38743 0.04309 0.0
H984 H 0.66727 0.3824 0.0769 0.0
H985 H 0.59982 0.28222 0.95246 0.0
H986 H 0.63889 0.30954 0.94543 0.0
H987 H 0.62916 0.28008 0.97453 0.0
H988 H 0.74371 0.37479 0.96924 0.0
H989 H 0.71354 0.29931 0.03451 0.0
H990 H 0.69004 0.39242 0.98308 0.0
H991 H 0.67107 0.36486 0.95193 0.0
H992 H 0.71107 0.39055 0.94873 0.0
H993 H 0.65338 0.29948 0.06624 0.0
H994 H 0.66392 0.27223 0.05406 0.0
H995 H 0.63526 0.27559 0.03201 0.0
C996 C 0.35581 0.73498 0.39324 0.0
C997 C 0.3777 0.73775 0.37085 0.0
C998 C 0.32836 0.70809 0.39575 0.0
C999 C 0.32254 0.68403 0.37453 0.0
C1000 C 0.34462 0.68687 0.35171 0.0
C1001 C 0.37232 0.71368 0.35055 0.0
C1002 C 0.30563 0.70544 0.42103 0.0
C1003 C 0.33871 0.66191 0.32806 0.0
C1004 C 0.26115 0.60471 0.39386 0.0
C1005 C 0.2373 0.60281 0.37544 0.0
C1006 C 0.28893 0.63145 0.39459 0.0
C1007 C 0.29296 0.6562 0.37548 0.0
C1008 C 0.26885 0.65428 0.35679 0.0
C1009 C 0.24104 0.62764 0.35744 0.0
C1010 C 0.31395 0.63317 0.41562 0.0
C1011 C 0.27265 0.68 0.33544 0.0
H1012 H 0.36042 0.7537 0.40915 0.0
H1013 H 0.38945 0.71619 0.33319 0.0
H1014 H 0.28498 0.70233 0.40878 0.0
H1015 H 0.29894 0.68535 0.43663 0.0
H1016 H 0.31452 0.72562 0.43697 0.0
H1017 H 0.35819 0.66795 0.3116 0.0
H1018 H 0.33358 0.64116 0.34165 0.0
H1019 H 0.31872 0.65656 0.31287 0.0
H1020 H 0.25795 0.58535 0.40786 0.0
H1021 H 0.22253 0.62581 0.3429 0.0
H1022 H 0.32255 0.65285 0.43222 0.0
H1023 H 0.33305 0.63642 0.39998 0.0
H1024 H 0.30647 0.61254 0.43058 0.0
H1025 H 0.27948 0.70038 0.35049 0.0
H1026 H 0.25166 0.67462 0.32213 0.0
H1027 H 0.29084 0.68566 0.31729 0.0
C1028 C 0.62751 0.36867 0.6499 0.0
C1029 C 0.64729 0.39535 0.66622 0.0
C1030 C 0.6315 0.34366 0.65132 0.0
C1031 C 0.6556 0.34538 0.66984 0.0
C1032 C 0.67649 0.37264 0.68505 0.0
C1033 C 0.67218 0.39743 0.68288 0.0
C1034 C 0.60902 0.31495 0.63439 0.0
C1035 C 0.70229 0.37509 0.70522 0.0
C1036 C 0.63709 0.27036 0.7053 0.0
C1037 C 0.65189 0.26116 0.68344 0.0
C1038 C 0.63959 0.29862 0.7022 0.0
C1039 C 0.65679 0.31769 0.67616 0.0
C1040 C 0.6729 0.30905 0.65487 0.0
C1041 C 0.67048 0.28082 0.659 0.0
C1042 C 0.62263 0.30743 0.72582 0.0
C1043 C 0.69112 0.32873 0.62661 0.0
H1044 H 0.60844 0.36704 0.63665 0.0
H1045 H 0.68763 0.41802 0.6955 0.0
H1046 H 0.62086 0.30588 0.61962 0.0
H1047 H 0.59525 0.29769 0.65295 0.0
H1048 H 0.59361 0.31835 0.61815 0.0
H1049 H 0.71842 0.39871 0.71226 0.0
H1050 H 0.69329 0.36151 0.72786 0.0
H1051 H 0.71465 0.36592 0.69162 0.0
H1052 H 0.62307 0.25519 0.72446 0.0
H1053 H 0.68176 0.27349 0.64201 0.0
H1054 H 0.60412 0.30831 0.71277 0.0
H1055 H 0.63778 0.33019 0.73588 0.0
H1056 H 0.61275 0.29129 0.74648 0.0
H1057 H 0.67568 0.32938 0.60805 0.0
H1058 H 0.70499 0.32032 0.61471 0.0
H1059 H 0.70616 0.35217 0.6349 0.0
C1060 C 0.27252 0.66353 0.99115 0.0
C1061 C 0.25862 0.67278 1.01415 0.0
C1062 C 0.30172 0.66897 0.99633 0.0
C1063 C 0.31689 0.68363 0.0254 0.0
C1064 C 0.3046 0.69678 0.0462 0.0
C1065 C 0.27536 0.69123 0.04024 0.0
C1066 C 0.31452 0.65541 0.97298 0.0
C1067 C 0.32059 0.71333 0.07687 0.0
C1068 C 0.35324 0.64169 0.0594 0.0
C1069 C 0.38275 0.65906 0.04774 0.0
C1070 C 0.33209 0.65087 0.05452 0.0
C1071 C 0.34077 0.67811 0.03758 0.0
C1072 C 0.37112 0.69707 0.02833 0.0
C1073 C 0.39186 0.68728 0.03352 0.0
C1074 C 0.29988 0.63011 0.06515 0.0
C1075 C 0.3813 0.72645 1.01067 0.0
H1076 H 0.25973 0.64998 0.97045 0.0
H1077 H 0.26469 0.69878 0.0578 0.0
H1078 H 0.33877 0.6712 0.96843 0.0
H1079 H 0.31238 0.63462 0.98395 0.0
H1080 H 0.30248 0.64942 0.94919 0.0
H1081 H 0.31222 0.72837 0.08548 0.0
H1082 H 0.31647 0.69675 0.0965 0.0
H1083 H 0.34528 0.72688 0.07289 0.0
H1084 H 0.34618 0.62016 0.07097 0.0
H1085 H 0.41477 0.70105 0.02477 0.0
H1086 H 0.2854 0.62036 0.04328 0.0
H1087 H 0.29119 0.64276 0.07902 0.0
H1088 H 0.29758 0.61129 0.08069 0.0
H1089 H 0.37717 0.72202 0.98409 0.0
H1090 H 0.4058 0.74214 1.01415 0.0
H1091 H 0.3687 0.7376 1.01904 0.0
C1092 C 0.52055 0.05654 0.36416 0.0
C1093 C 0.54396 0.07806 0.34473 0.0
C1094 C 0.51608 0.02747 0.36742 0.0
C1095 C 0.5355 0.01973 0.3508 0.0
C1096 C 0.55973 0.04155 0.3319 0.0
C1097 C 0.56368 0.07056 0.32903 0.0
C1098 C 0.48995 0.00474 0.38784 0.0
C1099 C 0.58086 0.03401 0.31394 0.0
C1100 C 0.52717 0.94613 0.3805 0.0
C1101 C 0.50473 0.92586 0.35932 0.0
C1102 C 0.53916 0.97726 0.37673 0.0
C1103 C 0.52845 0.98803 0.35116 0.0
C1104 C 0.50758 0.96771 0.32824 0.0
C1105 C 0.49594 0.93684 0.33264 0.0
C1106 C 0.5616 -0.00162 0.40145 0.0
C1107 C 0.4958 0.97835 0.30046 0.0
H1108 H 0.50536 0.06224 0.37656 0.0
H1109 H 0.58196 0.0872 0.31415 0.0
H1110 H 0.4735 0.98632 0.37196 0.0
H1111 H 0.49794 -0.0055 0.40631 0.0
H1112 H 0.47808 0.0149 0.4007 0.0
H1113 H 0.60036 0.05427 0.30314 0.0
H1114 H 0.5894 0.02295 0.33068 0.0
H1115 H 0.56852 0.01787 0.29398 0.0
H1116 H 0.53416 0.93769 0.40102 0.0
H1117 H 0.47898 0.92122 0.31583 0.0
H1118 H 0.55026 0.00667 0.41815 0.0
H1119 H 0.58023 0.01828 0.38916 0.0
H1120 H 0.57125 0.98715 0.41638 0.0
H1121 H 0.48115 0.98667 0.31043 0.0
H1122 H 0.48247 0.96011 0.28268 0.0
H1123 H 0.51464 -0.00268 0.28725 0.0
C1124 C 0.4398 0.50935 0.71084 0.0
C1125 C 0.44103 0.53342 0.69331 0.0
C1126 C 0.46339 0.50309 0.70901 0.0
C1127 C 0.48868 0.52128 0.68908 0.0
C1128 C 0.49029 0.54588 0.6717 0.0
C1129 C 0.46641 0.55169 0.67405 0.0
C1130 C 0.46102 0.47669 0.72795 0.0
C1131 C 0.51693 0.56566 0.65015 0.0
C1132 C 0.55884 0.51619 0.7044 0.0
C1133 C 0.55569 0.49494 0.68089 0.0
C1134 C 0.53752 0.5256 0.7069 0.0
C1135 C 0.51271 0.51355 0.68524 0.0
C1136 C 0.51002 0.49294 0.66072 0.0
C1137 C 0.53154 0.48384 0.65887 0.0
C1138 C 0.541 0.54764 0.73335 0.0
C1139 C 0.48394 0.47982 0.63704 0.0
H1140 H 0.4203 0.49522 0.72587 0.0
H1141 H 0.46752 0.57038 0.66048 0.0
H1142 H 0.46063 0.45977 0.71076 0.0
H1143 H 0.48101 0.48419 0.74389 0.0
H1144 H 0.44043 0.46558 0.74341 0.0
H1145 H 0.51533 0.58473 0.63949 0.0
H1146 H 0.53814 0.57482 0.66434 0.0
H1147 H 0.51847 0.55212 0.62989 0.0
H1148 H 0.5775 0.52487 0.72145 0.0
H1149 H 0.52912 0.46759 0.64045 0.0
H1150 H 0.52211 0.53654 0.75103 0.0
H1151 H 0.53999 0.56698 0.72264 0.0
H1152 H 0.56254 0.55629 0.74687 0.0
H1153 H 0.46253 0.46619 0.65058 0.0
H1154 H 0.48606 0.46529 0.61833 0.0
H1155 H 0.48235 0.49811 0.62438 0.0
C1156 C 0.94048 0.41997 0.04442 0.0
C1157 C 0.92261 0.42354 0.02092 0.0
C1158 C 0.97139 0.44078 0.04662 0.0
C1159 C 0.98446 0.46547 0.02475 0.0
C1160 C 0.96676 0.46841 1.00013 0.0
C1161 C 0.93604 0.44739 0.99852 0.0
C1162 C 0.98976 0.43702 0.07308 0.0
C1163 C 0.98 0.4944 0.97623 0.0
C1164 C 0.05218 0.53959 0.048 0.0
C1165 C 0.07489 0.53922 0.02924 0.0
C1166 C 0.02284 0.51501 0.04795 0.0
C1167 C 0.01615 0.48953 0.02866 0.0
C1168 C 0.0392 0.48851 1.01069 0.0
C1169 C 0.06838 0.51344 1.01116 0.0
C1170 C -0.00126 0.51683 0.06745 0.0
C1171 C 0.0328 0.46162 0.98994 0.0
H1172 H 0.93019 0.40149 0.06171 0.0
H1173 H 0.9224 0.45006 0.98004 0.0
H1174 H 0.0105 0.43865 0.06258 0.0
H1175 H -0.00308 0.45541 0.09123 0.0
H1176 H 0.9769 0.41513 0.08605 0.0
H1177 H 0.96349 0.49238 0.9574 0.0
H1178 H 0.98785 0.51586 0.98959 0.0
H1179 H -0.00014 0.49576 0.96371 0.0
H1180 H 0.05713 0.55935 0.06223 0.0
H1181 H 0.08592 0.51292 0.99683 0.0
H1182 H 0.9864 0.49659 0.08313 0.0
H1183 H 0.98212 0.51741 0.05054 0.0
H1184 H 0.00816 0.53715 0.08321 0.0
H1185 H 0.02022 0.44053 1.00427 0.0
H1186 H 0.05374 0.46303 0.9803 0.0
H1187 H 0.01841 0.46009 0.96894 0.0
C1188 C 0.03464 0.48308 0.38634 0.0
C1189 C 0.04919 0.47613 0.36168 0.0
C1190 C 0.00355 0.4716 0.38549 0.0
C1191 C 0.98663 0.45269 0.35935 0.0
C1192 C 0.00078 0.44369 0.33576 0.0
C1193 C 0.03206 0.45555 0.33721 0.0
C1194 C 0.98922 0.48156 0.41126 0.0
C1195 C 0.98331 0.42328 0.30775 0.0
C1196 C 0.90215 0.41728 0.36881 0.0
C1197 C 0.89705 0.43839 0.35249 0.0
C1198 C 0.93106 0.42074 0.36995 0.0
C1199 C 0.95526 0.44595 0.35458 0.0
C1200 C 0.95 0.46669 0.33708 0.0
C1201 C 0.92093 0.46262 0.33622 0.0
C1202 C 0.9359 0.3981 0.3886 0.0
C1203 C 0.97531 0.49394 0.32042 0.0
H1204 H 0.04775 0.49858 0.40566 0.0
H1205 H 0.04322 0.44994 0.31824 0.0
H1206 H 0.98229 0.49687 0.40006 0.0
H1207 H 0.96868 0.46194 0.42131 0.0
H1208 H 0.00485 0.49361 0.43177 0.0
H1209 H -0.00362 0.41447 0.29484 0.0
H1210 H 0.96179 0.40402 0.31654 0.0
H1211 H 0.97764 0.43599 0.2899 0.0
H1212 H 0.88369 0.39833 0.38119 0.0
H1213 H 0.91712 0.47891 0.32337 0.0
H1214 H 0.94886 0.40865 0.4112 0.0
H1215 H 0.94932 0.39087 0.37381 0.0
H1216 H 0.91429 0.37789 0.3956 0.0
H1217 H -0.00854 0.50918 0.33903 0.0
H1218 H 0.96707 0.50677 0.30607 0.0
H1219 H 0.98786 0.48702 0.30377 0.0
C1220 C 0.53443 0.05965 0.70829 0.0
C1221 C 0.5576 0.06953 0.68502 0.0
C1222 C 0.5135 0.02908 0.712 0.0
C1223 C 0.51577 0.0079 0.69189 0.0
C1224 C 0.5396 0.01755 0.66903 0.0
C1225 C 0.56037 0.04838 0.66589 0.0
C1226 C 0.48843 0.01955 0.73678 0.0
C1227 C 0.54258 -0.00456 0.64724 0.0
C1228 C 0.47067 0.92677 0.71955 0.0
C1229 C 0.4443 0.91653 0.70108 0.0
C1230 C 0.49463 0.9563 0.71612 0.0
C1231 C 0.49203 0.97588 0.69369 0.0
C1232 C 0.46575 0.96548 0.6745 0.0
C1233 C 0.44214 0.93591 0.67849 0.0
C1234 C 0.52235 0.96677 0.73704 0.0
C1235 C 0.46226 0.98581 0.65031 0.0
H1236 H 0.53234 0.07585 0.72342 0.0
H1237 H 0.57831 0.05593 0.64797 0.0
H1238 H 0.4664 0.00929 0.72405 0.0
H1239 H 0.48792 0.00223 0.75345 0.0
H1240 H 0.49087 0.03873 0.75171 0.0
H1241 H 0.56355 0.00637 0.63237 0.0
H1242 H 0.54245 0.97729 0.66213 0.0
H1243 H 0.52301 0.98464 0.63045 0.0
H1244 H 0.47252 0.91182 0.73695 0.0
H1245 H 0.4219 0.92808 0.66397 0.0
H1246 H 0.52451 0.98462 0.75398 0.0
H1247 H 0.54286 0.97674 0.7215 0.0
H1248 H 0.52163 0.94818 0.7517 0.0
H1249 H 0.46219 0.00468 0.66347 0.0
H1250 H 0.44111 0.97371 0.63596 0.0
H1251 H 0.4816 -0.00424 0.6331 0.0
C1252 C 0.47189 0.53969 1.01076 0.0
C1253 C 0.4483 0.53685 0.0306 0.0
C1254 C 0.47853 0.5164 1.00865 0.0
C1255 C 0.46121 0.48975 0.02695 0.0
C1256 C 0.4371 0.48652 0.04669 0.0
C1257 C 0.43088 0.51016 0.04827 0.0
C1258 C 0.50442 0.52056 0.9873 0.0
C1259 C 0.41829 0.45839 0.0666 0.0
C1260 C 0.46816 0.42266 1.00097 0.0
C1261 C 0.49073 0.42511 0.02218 0.0
C1262 C 0.45748 0.44299 1.00292 0.0
C1263 C 0.46962 0.46606 0.02673 0.0
C1264 C 0.49145 0.46781 0.04908 0.0
C1265 C 0.50178 0.44732 0.0465 0.0
C1266 C 0.43414 0.44055 0.97872 0.0
C1267 C 0.50474 0.49202 0.07494 0.0
H1268 H 0.48533 0.56019 0.99691 0.0
H1269 H 0.41254 0.50781 0.06358 0.0
H1270 H 0.52207 0.52015 1.0026 0.0
H1271 H 0.49659 0.50177 0.96957 0.0
H1272 H 0.51476 0.54212 0.97351 0.0
H1273 H 0.39935 0.45882 0.07934 0.0
H1274 H 0.40898 0.43825 0.05063 0.0
H1275 H 0.43262 0.45583 0.08516 0.0
H1276 H 0.45948 0.40545 0.98221 0.0
H1277 H 0.519 0.44911 0.06323 0.0
H1278 H 0.44425 0.46043 0.96225 0.0
H1279 H 0.41508 0.4405 0.99167 0.0
H1280 H 0.42521 0.4199 0.96355 0.0
H1281 H 0.51775 0.51441 0.06309 0.0
H1282 H 0.51996 0.48895 0.09183 0.0
H1283 H 0.48656 0.49218 0.08952 0.0
C1284 C 0.47834 0.2021 0.23919 0.0
C1285 C 0.50185 0.19559 0.23812 0.0
C1286 C 0.47186 0.21467 0.2118 0.0
C1287 C 0.48944 0.22101 0.18293 0.0
C1288 C 0.51159 0.21227 0.18109 0.0
C1289 C 0.51737 0.19959 0.20854 0.0
C1290 C 0.44757 0.22298 0.21455 0.0
C1291 C 0.531 0.21854 0.151 0.0
C1292 C 0.47607 0.24796 0.10082 0.0
C1293 C 0.49686 0.2789 0.10261 0.0
C1294 C 0.47163 0.22883 0.12768 0.0
C1295 C 0.48854 0.24093 0.15675 0.0
C1296 C 0.50808 0.2724 0.1592 0.0
C1297 C 0.51183 0.29088 0.1323 0.0
C1298 C 0.45006 0.19552 0.12432 0.0
C1299 C 0.52668 0.28648 0.18953 0.0
H1300 H 0.4661 0.19892 0.26186 0.0
H1301 H 0.53524 0.19413 0.20723 0.0
H1302 H 0.4581 0.24758 0.21854 0.0
H1303 H 0.43428 0.21749 0.19165 0.0
H1304 H 0.43207 0.21122 0.23532 0.0
H1305 H 0.54511 0.20772 0.15227 0.0
H1306 H 0.51684 0.21043 0.12874 0.0
H1307 H 0.54613 0.24319 0.14829 0.0
H1308 H 0.46422 0.23852 0.0781 0.0
H1309 H 0.52756 0.31483 0.13425 0.0
H1310 H 0.43649 0.18631 0.14693 0.0
H1311 H 0.46298 0.1837 0.12055 0.0
H1312 H 0.4346 0.19042 0.10324 0.0
H1313 H 0.51212 0.2792 0.2116 0.0
H1314 H 0.539 0.31147 0.18849 0.0
H1315 H 0.54338 0.27889 0.19246 0.0
C1316 C 0.20092 0.51181 0.48786 0.0
C1317 C 0.20111 0.49851 0.45793 0.0
C1318 C 0.21439 0.50796 0.51585 0.0
C1319 C 0.22826 0.49007 0.51417 0.0
C1320 C 0.22657 0.4747 0.48472 0.0
C1321 C 0.21311 0.47921 0.45683 0.0
C1322 C 0.21563 0.52489 0.54657 0.0
C1323 C 0.24048 0.45492 0.4821 0.0
C1324 C 0.29597 0.52047 0.56992 0.0
C1325 C 0.28382 0.50333 0.59845 0.0
C1326 C 0.2786 0.51503 0.54167 0.0
C1327 C 0.2482 0.49156 0.54159 0.0
C1328 C 0.23639 0.47261 0.56942 0.0
C1329 C 0.25434 0.47878 0.59767 0.0
C1330 C 0.2923 0.5359 0.51272 0.0
C1331 C 0.20431 0.44694 0.57006 0.0
H1332 H 0.19126 0.52637 0.48921 0.0
H1333 H 0.21314 0.46862 0.43391 0.0
H1334 H 0.20808 0.50958 0.56801 0.0
H1335 H 0.23924 0.54277 0.55118 0.0
H1336 H 0.20144 0.53558 0.54481 0.0
H1337 H 0.23233 0.44018 0.4602 0.0
H1338 H 0.26532 0.46921 0.48027 0.0
H1339 H 0.23545 0.44065 0.50424 0.0
H1340 H 0.31893 0.53916 0.57 0.0
H1341 H 0.24484 0.46529 0.61952 0.0
H1342 H 0.2812 0.54959 0.50963 0.0
H1343 H 0.28857 0.5228 0.48994 0.0
H1344 H 0.31689 0.55143 0.51568 0.0
H1345 H 0.18883 0.45599 0.57328 0.0
H1346 H 0.20038 0.43102 0.59042 0.0
H1347 H 0.19845 0.43442 0.54661 0.0
C1348 C 0.78176 0.29945 0.88967 0.0
C1349 C 0.77965 0.28451 0.91919 0.0
C1350 C 0.76924 0.28356 0.86069 0.0
C1351 C 0.75429 0.25173 0.86091 0.0
C1352 C 0.75413 0.23652 0.89001 0.0
C1353 C 0.76677 0.25311 0.91893 0.0
C1354 C 0.77003 0.30088 0.83044 0.0
C1355 C 0.73899 0.20267 0.89113 0.0
C1356 C 0.68858 0.21822 0.80201 0.0
C1357 C 0.7012 0.21315 0.7739 0.0
C1358 C 0.70513 0.22911 0.83096 0.0
C1359 C 0.73516 0.23491 0.83226 0.0
C1360 C 0.74751 0.22808 0.80469 0.0
C1361 C 0.73042 0.21739 0.77571 0.0
C1362 C 0.69092 0.2361 0.85954 0.0
C1363 C 0.77921 0.23336 0.80528 0.0
H1364 H 0.79216 0.32377 0.88942 0.0
H1365 H 0.76521 0.24139 0.94156 0.0
H1366 H 0.77783 0.29339 0.809 0.0
H1367 H 0.74696 0.29645 0.82496 0.0
H1368 H 0.78502 0.32555 0.8334 0.0
H1369 H 0.74572 0.1947 0.91311 0.0
H1370 H 0.7142 0.19296 0.89176 0.0
H1371 H 0.74448 0.19392 0.86893 0.0
H1372 H 0.66587 0.21459 0.80119 0.0
H1373 H 0.74028 0.21327 0.75427 0.0
H1374 H 0.7028 0.26078 0.86366 0.0
H1375 H 0.69314 0.22548 0.88219 0.0
H1376 H 0.66666 0.22819 0.85548 0.0
H1377 H 0.79544 0.25787 0.80382 0.0
H1378 H 0.78362 0.22216 0.78448 0.0
H1379 H 0.78356 0.22502 0.82852 0.0
C1380 C 0.49863 0.7208 0.13544 0.0
C1381 C 0.47614 0.69037 0.13513 0.0
C1382 C 0.50409 0.73838 0.16386 0.0
C1383 C 0.48654 0.72517 0.19239 0.0
C1384 C 0.4654 0.69397 0.19272 0.0
C1385 C 0.46058 0.67703 0.16423 0.0
C1386 C 0.52725 0.77142 0.16269 0.0
C1387 C 0.44613 0.67879 0.22242 0.0
C1388 C 0.49941 0.76103 0.27688 0.0
C1389 C 0.47783 0.77025 0.27712 0.0
C1390 C 0.50413 0.74809 0.24867 0.0
C1391 C 0.48673 0.74414 0.22022 0.0
C1392 C 0.4662 0.755 0.21988 0.0
C1393 C 0.46212 0.76797 0.24817 0.0
C1394 C 0.52662 0.73731 0.24986 0.0
C1395 C 0.44707 0.75128 0.19024 0.0
H1396 H 0.51085 0.73124 0.11311 0.0
H1397 H 0.44351 0.65339 0.16443 0.0
H1398 H 0.51567 0.78474 0.16057 0.0
H1399 H 0.54071 0.7785 0.18552 0.0
H1400 H 0.54273 0.77697 0.14149 0.0
H1401 H 0.4328 0.65393 0.21973 0.0
H1402 H 0.46032 0.68417 0.2446 0.0
H1403 H 0.43027 0.6873 0.22642 0.0
H1404 H 0.51184 0.76292 0.29902 0.0
H1405 H 0.44572 0.77543 0.24783 0.0
H1406 H 0.54038 0.74373 0.22718 0.0
H1407 H 0.51447 0.71239 0.25154 0.0
H1408 H 0.54188 0.74657 0.27126 0.0
H1409 H 0.46135 0.75997 0.16805 0.0
H1410 H 0.43404 0.76314 0.19297 0.0
H1411 H 0.43096 0.72701 0.18621 0.0
C1412 C 0.69025 0.48293 0.55656 0.0
C1413 C 0.70294 0.49618 0.58677 0.0
C1414 C 0.70829 0.4864 0.5293 0.0
C1415 C 0.74002 0.50393 0.53193 0.0
C1416 C 0.75293 0.5195 0.56153 0.0
C1417 C 0.73422 0.51532 0.58875 0.0
C1418 C 0.69332 0.46925 0.49844 0.0
C1419 C 0.78658 0.53906 0.56511 0.0
C1420 C 0.77706 0.47103 0.47927 0.0
C1421 C 0.78245 0.48727 0.44998 0.0
C1422 C 0.76531 0.47774 0.50688 0.0
C1423 C 0.75903 0.50163 0.50556 0.0
C1424 C 0.76685 0.51983 0.47702 0.0
C1425 C 0.77837 0.51234 0.44941 0.0
C1426 C 0.75737 0.45758 0.53656 0.0
C1427 C 0.76129 0.546 0.47489 0.0
H1428 H 0.66605 0.46855 0.55451 0.0
H1429 H 0.74422 0.52586 0.61188 0.0
H1430 H 0.70178 0.48435 0.47686 0.0
H1431 H 0.69892 0.45117 0.49471 0.0
H1432 H 0.66841 0.45878 0.4994 0.0
H1433 H 0.79259 0.55444 0.58639 0.0
H1434 H 0.79676 0.52461 0.56874 0.0
H1435 H 0.79667 0.55262 0.54267 0.0
H1436 H 0.78069 0.45196 0.48024 0.0
H1437 H 0.78268 0.52516 0.42699 0.0
H1438 H 0.73251 0.44428 0.53929 0.0
H1439 H 0.76654 0.4712 0.55905 0.0
H1440 H 0.76609 0.44168 0.53477 0.0
H1441 H 0.737 0.53746 0.47046 0.0
H1442 H 0.7743 0.56155 0.45461 0.0
H1443 H 0.76735 0.55878 0.49818 0.0
C1444 C 0.20199 0.73398 0.93551 0.0
C1445 C 0.19423 0.70367 0.9332 0.0
C1446 C 0.2154 0.75374 0.90878 0.0
C1447 C 0.22151 0.74292 0.87948 0.0
C1448 C 0.21126 0.7118 0.8763 0.0
C1449 C 0.19756 0.69264 0.90301 0.0
C1450 C 0.2249 0.78651 0.91275 0.0
C1451 C 0.21723 0.69905 0.84573 0.0
C1452 C 0.25301 0.78341 0.79846 0.0
C1453 C 0.28332 0.79118 0.80147 0.0
C1454 C 0.23278 0.77011 0.82486 0.0
C1455 C 0.24308 0.76404 0.85454 0.0
C1456 C 0.27413 0.77405 0.85833 0.0
C1457 C 0.29379 0.7877 0.83196 0.0
C1458 C 0.2001 0.76083 0.82019 0.0
C1459 C 0.28632 0.76804 0.88932 0.0
H1460 H 0.19921 0.74264 0.95863 0.0
H1461 H 0.191 0.66908 0.9007 0.0
H1462 H 0.24923 0.79946 0.91879 0.0
H1463 H 0.22149 0.79587 0.88972 0.0
H1464 H 0.21223 0.7899 0.93277 0.0
H1465 H 0.20558 0.67406 0.84615 0.0
H1466 H 0.2098 0.70619 0.82373 0.0
H1467 H 0.2418 0.7078 0.84324 0.0
H1468 H 0.24476 0.78632 0.77513 0.0
H1469 H 0.3173 0.79422 0.83484 0.0
H1470 H 0.19038 0.76424 0.84295 0.0
H1471 H 0.18712 0.73656 0.814 0.0
H1472 H 0.19716 0.77364 0.79999 0.0
H1473 H 0.27913 0.77585 0.91098 0.0
H1474 H 0.31131 0.7793 0.88926 0.0
H1475 H 0.27714 0.74345 0.89213 0.0
loop_
_geom_bond_atom_site_label_1
_geom_bond_atom_site_label_2
_geom_bond_distance
_geom_bond_site_symmetry_2
_ccdc_geom_bond_type
Co0 O2 2.143 . S
Co0 O8 2.074 . S
Co0 O11 2.093 . S
Co0 O24 2.097 . S
Co0 N41 2.151 . S
Co0 N49 2.214 . S
Co1 O2 2.160 . S
Co1 O7 2.058 . S
Co1 O17 2.057 . S
Co1 O32 2.037 . S
Co1 N36 2.145 . S
Co1 N57 2.257 . S
O2 Co0 2.143 . S
O2 Co1 2.160 . S
C3 O4 1.278 . S
C3 O11 1.224 . S
O4 C3 1.278 . S
C5 O6 1.245 . S
C5 O17 1.232 . S
O6 C5 1.245 . S
O7 Co1 2.058 . S
O7 C33 1.269 . S
O8 Co0 2.074 . S
O8 C33 1.257 . S
H9 C34 0.930 . S
H10 C40 0.930 . S
O11 Co0 2.093 . S
O11 C3 1.224 . S
H12 C44 0.929 . S
H13 C46 0.930 . S
H14 C47 0.930 . S
H15 C45 0.929 . S
H16 C48 0.928 . S
O17 Co1 2.057 . S
O17 C5 1.232 . S
H18 C37 0.929 . S
H19 C38 0.929 . S
H20 C50 0.931 . S
H21 C42 0.929 . S
H22 C51 0.930 . S
H23 C43 0.931 . S
O24 Co0 2.097 . S
O24 C52 1.214 . S
H25 C53 0.929 . S
H26 C54 0.929 . S
H27 C55 0.930 . S
H28 C56 0.929 . S
H29 C58 0.930 . S
H30 C35 0.930 . S
H31 C39 0.930 . S
O32 Co1 2.037 . S
O32 C52 1.234 . S
C33 O7 1.269 . S
C33 O8 1.257 . S
C34 H9 0.930 . S
C34 C37 1.388 . S
C34 C39 1.418 . S
C35 H30 0.930 . S
C35 C38 1.404 . S
C35 C39 1.353 . S
N36 Co1 2.145 . S
N36 C37 1.397 . S
N36 C38 1.334 . S
C37 H18 0.929 . S
C37 C34 1.388 . S
C37 N36 1.397 . S
C38 H19 0.929 . S
C38 C35 1.404 . S
C38 N36 1.334 . S
C39 H31 0.930 . S
C39 C34 1.418 . S
C39 C35 1.353 . S
C40 H10 0.930 . S
C40 N41 1.330 . S
C40 C42 1.446 . S
N41 Co0 2.151 . S
N41 C40 1.330 . S
N41 C45 1.418 . S
C42 H21 0.929 . S
C42 C40 1.446 . S
C42 C43 1.332 . S
C43 H23 0.931 . S
C43 C42 1.332 . S
C43 C44 1.267 . S
C44 H12 0.929 . S
C44 C43 1.267 . S
C44 C45 1.251 . S
C45 H15 0.929 . S
C45 N41 1.418 . S
C45 C44 1.251 . S
C46 H13 0.930 . S
C46 C48 1.406 . S
C46 C51 1.261 . S
C47 H14 0.930 . S
C47 N49 1.325 . S
C47 C50 1.357 . S
C48 H16 0.928 . S
C48 C46 1.406 . S
C48 N49 1.261 . S
N49 Co0 2.214 . S
N49 C47 1.325 . S
N49 C48 1.261 . S
C50 H20 0.931 . S
C50 C47 1.357 . S
C50 C51 1.312 . S
C51 H22 0.930 . S
C51 C46 1.261 . S
C51 C50 1.312 . S
C52 O24 1.214 . S
C52 O32 1.234 . S
C53 H25 0.929 . S
C53 C56 1.391 . S
C53 C58 1.391 . S
C54 H26 0.929 . S
C54 C55 1.390 . S
C54 N57 1.391 . S
C55 H27 0.930 . S
C55 C54 1.390 . S
C55 C56 1.392 . S
C56 H28 0.929 . S
C56 C53 1.391 . S
C56 C55 1.392 . S
N57 Co1 2.257 . S
N57 C54 1.391 . S
N57 C58 1.388 . S
C58 H29 0.930 . S
C58 C53 1.391 . S
C58 N57 1.388 . S
Co59 O61 2.143 . S
Co59 O67 2.074 . S
Co59 O70 2.093 . S
Co59 O83 2.097 . S
Co59 N100 2.151 . S
Co59 N108 2.214 . S
Co60 O61 2.160 . S
Co60 O66 2.058 . S
Co60 O76 2.057 . S
Co60 O91 2.037 . S
Co60 N95 2.145 . S
Co60 N116 2.257 . S
O61 Co59 2.143 . S
O61 Co60 2.160 . S
C62 O63 1.278 . S
C62 O70 1.224 . S
O63 C62 1.278 . S
C64 O65 1.245 . S
C64 O76 1.232 . S
O65 C64 1.245 . S
O66 Co60 2.058 . S
O66 C92 1.269 . S
O67 Co59 2.074 . S
O67 C92 1.257 . S
H68 C93 0.930 . S
H69 C99 0.930 . S
O70 Co59 2.093 . S
O70 C62 1.224 . S
H71 C103 0.929 . S
H72 C105 0.930 . S
H73 C106 0.930 . S
H74 C104 0.929 . S
H75 C107 0.928 . S
O76 Co60 2.057 . S
O76 C64 1.232 . S
H77 C96 0.929 . S
H78 C97 0.929 . S
H79 C109 0.931 . S
H80 C101 0.929 . S
H81 C110 0.930 . S
H82 C102 0.931 . S
O83 Co59 2.097 . S
O83 C111 1.214 . S
H84 C112 0.929 . S
H85 C113 0.929 . S
H86 C114 0.930 . S
H87 C115 0.929 . S
H88 C117 0.930 . S
H89 C94 0.930 . S
H90 C98 0.930 . S
O91 Co60 2.037 . S
O91 C111 1.234 . S
C92 O66 1.269 . S
C92 O67 1.257 . S
C93 H68 0.930 . S
C93 C96 1.388 . S
C93 C98 1.418 . S
C94 H89 0.930 . S
C94 C97 1.404 . S
C94 C98 1.353 . S
N95 Co60 2.145 . S
N95 C96 1.397 . S
N95 C97 1.334 . S
C96 H77 0.929 . S
C96 C93 1.388 . S
C96 N95 1.397 . S
C97 H78 0.929 . S
C97 C94 1.404 . S
C97 N95 1.334 . S
C98 H90 0.930 . S
C98 C93 1.418 . S
C98 C94 1.353 . S
C99 H69 0.930 . S
C99 N100 1.330 . S
C99 C101 1.446 . S
N100 Co59 2.151 . S
N100 C99 1.330 . S
N100 C104 1.418 . S
C101 H80 0.929 . S
C101 C99 1.446 . S
C101 C102 1.332 . S
C102 H82 0.931 . S
C102 C101 1.332 . S
C102 C103 1.267 . S
C103 H71 0.929 . S
C103 C102 1.267 . S
C103 C104 1.251 . S
C104 H74 0.929 . S
C104 N100 1.418 . S
C104 C103 1.251 . S
C105 H72 0.930 . S
C105 C107 1.406 . S
C105 C110 1.261 . S
C106 H73 0.930 . S
C106 N108 1.325 . S
C106 C109 1.357 . S
C107 H75 0.928 . S
C107 C105 1.406 . S
C107 N108 1.261 . S
N108 Co59 2.214 . S
N108 C106 1.325 . S
N108 C107 1.261 . S
C109 H79 0.931 . S
C109 C106 1.357 . S
C109 C110 1.312 . S
C110 H81 0.930 . S
C110 C105 1.261 . S
C110 C109 1.312 . S
C111 O83 1.214 . S
C111 O91 1.234 . S
C112 H84 0.929 . S
C112 C115 1.391 . S
C112 C117 1.391 . S
C113 H85 0.929 . S
C113 C114 1.390 . S
C113 N116 1.391 . S
C114 H86 0.930 . S
C114 C113 1.390 . S
C114 C115 1.392 . S
C115 H87 0.929 . S
C115 C112 1.391 . S
C115 C114 1.392 . S
N116 Co60 2.257 . S
N116 C113 1.391 . S
N116 C117 1.388 . S
C117 H88 0.930 . S
C117 C112 1.391 . S
C117 N116 1.388 . S
Co118 O120 2.132 1_554 S
Co118 O126 2.101 . S
Co118 O129 2.066 1_554 S
Co118 O142 2.091 1_554 S
Co118 N159 2.157 . S
Co118 N167 2.225 . S
Co119 O120 2.160 1_554 S
Co119 O125 2.058 . S
Co119 O135 2.057 1_554 S
Co119 O150 2.037 . S
Co119 N154 2.145 . S
Co119 N175 2.257 1_554 S
O120 Co118 2.132 1_556 S
O120 Co119 2.160 1_556 S
C121 O122 1.278 . S
C121 O129 1.224 . S
O122 C121 1.278 . S
C123 O124 1.245 . S
C123 O135 1.232 . S
O124 C123 1.245 . S
O125 Co119 2.058 . S
O125 C151 1.269 . S
O126 Co118 2.101 . S
O126 C151 1.257 . S
H127 C152 0.930 . S
H128 C158 0.930 . S
O129 Co118 2.066 1_556 S
O129 C121 1.224 . S
H130 C162 0.929 . S
H131 C164 0.930 . S
H132 C165 0.930 . S
H133 C163 0.929 . S
H134 C166 0.951 . S
O135 Co119 2.057 1_556 S
O135 C123 1.232 . S
H136 C155 0.929 . S
H137 C156 0.911 1_556 S
H138 C168 0.931 . S
H139 C160 0.929 . S
H140 C169 0.930 . S
H141 C161 0.931 . S
O142 Co118 2.091 1_556 S
O142 C170 1.214 . S
H143 C171 0.929 . S
H144 C172 0.929 . S
H145 C173 0.930 . S
H146 C174 0.929 . S
H147 C176 0.930 . S
H148 C153 0.930 . S
H149 C157 0.930 . S
O150 Co119 2.037 . S
O150 C170 1.234 1_554 S
C151 O125 1.269 . S
C151 O126 1.257 . S
C152 H127 0.930 . S
C152 C155 1.388 . S
C152 C157 1.418 . S
C153 H148 0.930 . S
C153 C156 1.404 . S
C153 C157 1.353 . S
N154 Co119 2.145 . S
N154 C155 1.397 . S
N154 C156 1.334 . S
C155 H136 0.929 . S
C155 C152 1.388 . S
C155 N154 1.397 . S
C156 H137 0.911 1_554 S
C156 C153 1.404 . S
C156 N154 1.334 . S
C157 H149 0.930 . S
C157 C152 1.418 . S
C157 C153 1.353 . S
C158 H128 0.930 . S
C158 N159 1.330 1_556 S
C158 C160 1.446 . S
N159 Co118 2.157 . S
N159 C158 1.330 1_554 S
N159 C163 1.418 . S
C160 H139 0.929 . S
C160 C158 1.446 . S
C160 C161 1.332 1_556 S
C161 H141 0.931 . S
C161 C160 1.332 1_554 S
C161 C162 1.267 . S
C162 H130 0.929 . S
C162 C161 1.267 . S
C162 C163 1.251 . S
C163 H133 0.929 . S
C163 N159 1.418 . S
C163 C162 1.251 . S
C164 H131 0.930 . S
C164 C166 1.406 . S
C164 C169 1.261 . S
C165 H132 0.930 . S
C165 N167 1.325 . S
C165 C168 1.357 . S
C166 H134 0.951 . S
C166 C164 1.406 . S
C166 N167 1.261 . S
N167 Co118 2.225 . S
N167 C165 1.325 . S
N167 C166 1.261 . S
C168 H138 0.931 . S
C168 C165 1.357 . S
C168 C169 1.312 . S
C169 H140 0.930 . S
C169 C164 1.261 . S
C169 C168 1.312 . S
C170 O142 1.214 . S
C170 O150 1.234 1_556 S
C171 H143 0.929 . S
C171 C174 1.391 . S
C171 C176 1.391 . S
C172 H144 0.929 . S
C172 C173 1.390 . S
C172 N175 1.391 . S
C173 H145 0.930 . S
C173 C172 1.390 . S
C173 C174 1.392 . S
C174 H146 0.929 . S
C174 C171 1.391 . S
C174 C173 1.392 . S
N175 Co119 2.257 1_556 S
N175 C172 1.391 . S
N175 C176 1.388 . S
C176 H147 0.930 . S
C176 C171 1.391 . S
C176 N175 1.388 . S
Co177 O179 2.143 . S
Co177 O185 2.074 . S
Co177 O188 2.093 . S
Co177 O201 2.097 . S
Co177 N218 2.151 . S
Co177 N226 2.214 . S
Co178 O179 2.160 . S
Co178 O184 2.058 . S
Co178 O194 2.057 . S
Co178 O209 2.037 . S
Co178 N213 2.145 . S
Co178 N234 2.257 . S
O179 Co177 2.143 . S
O179 Co178 2.160 . S
C180 O181 1.278 . S
C180 O188 1.224 . S
O181 C180 1.278 . S
C182 O183 1.245 . S
C182 O194 1.232 . S
O183 C182 1.245 . S
O184 Co178 2.058 . S
O184 C210 1.269 . S
O185 Co177 2.074 . S
O185 C210 1.257 . S
H186 C211 0.930 . S
H187 C217 0.930 . S
O188 Co177 2.093 . S
O188 C180 1.224 . S
H189 C221 0.929 . S
H190 C223 0.930 . S
H191 C224 0.930 . S
H192 C222 0.929 . S
H193 C225 0.928 . S
O194 Co178 2.057 . S
O194 C182 1.232 . S
H195 C214 0.929 . S
H196 C215 0.929 . S
H197 C227 0.931 . S
H198 C219 0.929 . S
H199 C228 0.930 . S
H200 C220 0.931 . S
O201 Co177 2.097 . S
O201 C229 1.214 . S
H202 C230 0.929 . S
H203 C231 0.929 . S
H204 C232 0.930 . S
H205 C233 0.929 . S
H206 C235 0.930 . S
H207 C212 0.930 . S
H208 C216 0.930 . S
O209 Co178 2.037 . S
O209 C229 1.234 . S
C210 O184 1.269 . S
C210 O185 1.257 . S
C211 H186 0.930 . S
C211 C214 1.388 . S
C211 C216 1.418 . S
C212 H207 0.930 . S
C212 C215 1.404 . S
C212 C216 1.353 . S
N213 Co178 2.145 . S
N213 C214 1.397 . S
N213 C215 1.334 . S
C214 H195 0.929 . S
C214 C211 1.388 . S
C214 N213 1.397 . S
C215 H196 0.929 . S
C215 C212 1.404 . S
C215 N213 1.334 . S
C216 H208 0.930 . S
C216 C211 1.418 . S
C216 C212 1.353 . S
C217 H187 0.930 . S
C217 N218 1.330 . S
C217 C219 1.446 . S
N218 Co177 2.151 . S
N218 C217 1.330 . S
N218 C222 1.418 . S
C219 H198 0.929 . S
C219 C217 1.446 . S
C219 C220 1.332 . S
C220 H200 0.931 . S
C220 C219 1.332 . S
C220 C221 1.267 . S
C221 H189 0.929 . S
C221 C220 1.267 . S
C221 C222 1.251 . S
C222 H192 0.929 . S
C222 N218 1.418 . S
C222 C221 1.251 . S
C223 H190 0.930 . S
C223 C225 1.406 . S
C223 C228 1.261 . S
C224 H191 0.930 . S
C224 N226 1.325 . S
C224 C227 1.357 . S
C225 H193 0.928 . S
C225 C223 1.406 . S
C225 N226 1.261 . S
N226 Co177 2.214 . S
N226 C224 1.325 . S
N226 C225 1.261 . S
C227 H197 0.931 . S
C227 C224 1.357 . S
C227 C228 1.312 . S
C228 H199 0.930 . S
C228 C223 1.261 . S
C228 C227 1.312 . S
C229 O201 1.214 . S
C229 O209 1.234 . S
C230 H202 0.929 . S
C230 C233 1.391 . S
C230 C235 1.391 . S
C231 H203 0.929 . S
C231 C232 1.390 . S
C231 N234 1.391 . S
C232 H204 0.930 . S
C232 C231 1.390 . S
C232 C233 1.392 . S
C233 H205 0.929 . S
C233 C230 1.391 . S
C233 C232 1.392 . S
N234 Co178 2.257 . S
N234 C231 1.391 . S
N234 C235 1.388 . S
C235 H206 0.930 . S
C235 C230 1.391 . S
C235 N234 1.388 . S
Co236 O238 2.143 . S
Co236 O244 2.074 . S
Co236 O247 2.093 . S
Co236 O260 2.097 . S
Co236 N277 2.151 . S
Co236 N285 2.214 . S
Co237 O238 2.160 . S
Co237 O243 2.058 . S
Co237 O253 2.057 . S
Co237 O268 2.037 . S
Co237 N272 2.145 . S
Co237 N293 2.257 . S
O238 Co236 2.143 . S
O238 Co237 2.160 . S
C239 O240 1.278 . S
C239 O247 1.224 . S
O240 C239 1.278 . S
C241 O242 1.245 . S
C241 O253 1.232 . S
O242 C241 1.245 . S
O243 Co237 2.058 . S
O243 C269 1.269 . S
O244 Co236 2.074 . S
O244 C269 1.257 . S
H245 C270 0.930 . S
H246 C276 0.930 . S
O247 Co236 2.093 . S
O247 C239 1.224 . S
H248 C280 0.929 . S
H249 C282 0.930 . S
H250 C283 0.930 . S
H251 C281 0.929 . S
H252 C284 0.928 . S
O253 Co237 2.057 . S
O253 C241 1.232 . S
H254 C273 0.929 . S
H255 C274 0.929 . S
H256 C286 0.931 . S
H257 C278 0.929 . S
H258 C287 0.930 . S
H259 C279 0.931 . S
O260 Co236 2.097 . S
O260 C288 1.214 . S
H261 C289 0.929 . S
H262 C290 0.929 . S
H263 C291 0.930 . S
H264 C292 0.929 . S
H265 C294 0.930 . S
H266 C271 0.930 . S
H267 C275 0.930 . S
O268 Co237 2.037 . S
O268 C288 1.234 . S
C269 O243 1.269 . S
C269 O244 1.257 . S
C270 H245 0.930 . S
C270 C273 1.388 . S
C270 C275 1.418 . S
C271 H266 0.930 . S
C271 C274 1.404 . S
C271 C275 1.353 . S
N272 Co237 2.145 . S
N272 C273 1.397 . S
N272 C274 1.334 . S
C273 H254 0.929 . S
C273 C270 1.388 . S
C273 N272 1.397 . S
C274 H255 0.929 . S
C274 C271 1.404 . S
C274 N272 1.334 . S
C275 H267 0.930 . S
C275 C270 1.418 . S
C275 C271 1.353 . S
C276 H246 0.930 . S
C276 N277 1.330 . S
C276 C278 1.446 . S
N277 Co236 2.151 . S
N277 C276 1.330 . S
N277 C281 1.418 . S
C278 H257 0.929 . S
C278 C276 1.446 . S
C278 C279 1.332 . S
C279 H259 0.931 . S
C279 C278 1.332 . S
C279 C280 1.267 . S
C280 H248 0.929 . S
C280 C279 1.267 . S
C280 C281 1.251 . S
C281 H251 0.929 . S
C281 N277 1.418 . S
C281 C280 1.251 . S
C282 H249 0.930 . S
C282 C284 1.406 . S
C282 C287 1.261 . S
C283 H250 0.930 . S
C283 N285 1.325 . S
C283 C286 1.357 . S
C284 H252 0.928 . S
C284 C282 1.406 . S
C284 N285 1.261 . S
N285 Co236 2.214 . S
N285 C283 1.325 . S
N285 C284 1.261 . S
C286 H256 0.931 . S
C286 C283 1.357 . S
C286 C287 1.312 . S
C287 H258 0.930 . S
C287 C282 1.261 . S
C287 C286 1.312 . S
C288 O260 1.214 . S
C288 O268 1.234 . S
C289 H261 0.929 . S
C289 C292 1.391 . S
C289 C294 1.391 . S
C290 H262 0.929 . S
C290 C291 1.390 . S
C290 N293 1.391 . S
C291 H263 0.930 . S
C291 C290 1.390 . S
C291 C292 1.392 . S
C292 H264 0.929 . S
C292 C289 1.391 . S
C292 C291 1.392 . S
N293 Co237 2.257 . S
N293 C290 1.391 . S
N293 C294 1.388 . S
C294 H265 0.930 . S
C294 C289 1.391 . S
C294 N293 1.388 . S
Co295 O297 2.132 1_554 S
Co295 O303 2.101 . S
Co295 O306 2.066 1_554 S
Co295 O319 2.091 1_554 S
Co295 N336 2.157 . S
Co295 N344 2.225 . S
Co296 O297 2.160 1_554 S
Co296 O302 2.058 . S
Co296 O312 2.057 1_554 S
Co296 O327 2.037 . S
Co296 N331 2.145 . S
Co296 N352 2.257 1_554 S
O297 Co295 2.132 1_556 S
O297 Co296 2.160 1_556 S
C298 O299 1.278 . S
C298 O306 1.224 . S
O299 C298 1.278 . S
C300 O301 1.245 . S
C300 O312 1.232 . S
O301 C300 1.245 . S
O302 Co296 2.058 . S
O302 C328 1.269 . S
O303 Co295 2.101 . S
O303 C328 1.257 . S
H304 C329 0.930 . S
H305 C335 0.930 . S
O306 Co295 2.066 1_556 S
O306 C298 1.224 . S
H307 C339 0.929 . S
H308 C341 0.930 . S
H309 C342 0.930 . S
H310 C340 0.929 . S
H311 C343 0.951 . S
O312 Co296 2.057 1_556 S
O312 C300 1.232 . S
H313 C332 0.929 . S
H314 C333 0.911 1_556 S
H315 C345 0.931 . S
H316 C337 0.929 . S
H317 C346 0.930 . S
H318 C338 0.931 . S
O319 Co295 2.091 1_556 S
O319 C347 1.214 . S
H320 C348 0.929 . S
H321 C349 0.929 . S
H322 C350 0.930 . S
H323 C351 0.929 . S
H324 C353 0.930 . S
H325 C330 0.930 . S
H326 C334 0.930 . S
O327 Co296 2.037 . S
O327 C347 1.234 1_554 S
C328 O302 1.269 . S
C328 O303 1.257 . S
C329 H304 0.930 . S
C329 C332 1.388 . S
C329 C334 1.418 . S
C330 H325 0.930 . S
C330 C333 1.404 . S
C330 C334 1.353 . S
N331 Co296 2.145 . S
N331 C332 1.397 . S
N331 C333 1.334 . S
C332 H313 0.929 . S
C332 C329 1.388 . S
C332 N331 1.397 . S
C333 H314 0.911 1_554 S
C333 C330 1.404 . S
C333 N331 1.334 . S
C334 H326 0.930 . S
C334 C329 1.418 . S
C334 C330 1.353 . S
C335 H305 0.930 . S
C335 N336 1.330 1_556 S
C335 C337 1.446 . S
N336 Co295 2.157 . S
N336 C335 1.330 1_554 S
N336 C340 1.418 . S
C337 H316 0.929 . S
C337 C335 1.446 . S
C337 C338 1.332 1_556 S
C338 H318 0.931 . S
C338 C337 1.332 1_554 S
C338 C339 1.267 . S
C339 H307 0.929 . S
C339 C338 1.267 . S
C339 C340 1.251 . S
C340 H310 0.929 . S
C340 N336 1.418 . S
C340 C339 1.251 . S
C341 H308 0.930 . S
C341 C343 1.406 . S
C341 C346 1.261 . S
C342 H309 0.930 . S
C342 N344 1.325 . S
C342 C345 1.357 . S
C343 H311 0.951 . S
C343 C341 1.406 . S
C343 N344 1.261 . S
N344 Co295 2.225 . S
N344 C342 1.325 . S
N344 C343 1.261 . S
C345 H315 0.931 . S
C345 C342 1.357 . S
C345 C346 1.312 . S
C346 H317 0.930 . S
C346 C341 1.261 . S
C346 C345 1.312 . S
C347 O319 1.214 . S
C347 O327 1.234 1_556 S
C348 H320 0.929 . S
C348 C351 1.391 . S
C348 C353 1.391 . S
C349 H321 0.929 . S
C349 C350 1.390 . S
C349 N352 1.391 . S
C350 H322 0.930 . S
C350 C349 1.390 . S
C350 C351 1.392 . S
C351 H323 0.929 . S
C351 C348 1.391 . S
C351 C350 1.392 . S
N352 Co296 2.257 1_556 S
N352 C349 1.391 . S
N352 C353 1.388 . S
C353 H324 0.930 . S
C353 C348 1.391 . S
C353 N352 1.388 . S
Co354 O356 2.143 . S
Co354 O362 2.074 . S
Co354 O365 2.093 . S
Co354 O378 2.097 . S
Co354 N395 2.151 . S
Co354 N403 2.214 . S
Co355 O356 2.160 . S
Co355 O361 2.058 . S
Co355 O371 2.057 . S
Co355 O386 2.037 . S
Co355 N390 2.145 . S
Co355 N411 2.257 . S
O356 Co354 2.143 . S
O356 Co355 2.160 . S
C357 O358 1.278 . S
C357 O365 1.224 . S
O358 C357 1.278 . S
C359 O360 1.245 . S
C359 O371 1.232 . S
O360 C359 1.245 . S
O361 Co355 2.058 . S
O361 C387 1.269 . S
O362 Co354 2.074 . S
O362 C387 1.257 . S
H363 C388 0.930 . S
H364 C394 0.930 . S
O365 Co354 2.093 . S
O365 C357 1.224 . S
H366 C398 0.929 . S
H367 C400 0.930 . S
H368 C401 0.930 . S
H369 C399 0.929 . S
H370 C402 0.928 . S
O371 Co355 2.057 . S
O371 C359 1.232 . S
H372 C391 0.929 . S
H373 C392 0.929 . S
H374 C404 0.931 . S
H375 C396 0.929 . S
H376 C405 0.930 . S
H377 C397 0.931 . S
O378 Co354 2.097 . S
O378 C406 1.214 . S
H379 C407 0.929 . S
H380 C408 0.929 . S
H381 C409 0.930 . S
H382 C410 0.929 . S
H383 C412 0.930 . S
H384 C389 0.930 . S
H385 C393 0.930 . S
O386 Co355 2.037 . S
O386 C406 1.234 . S
C387 O361 1.269 . S
C387 O362 1.257 . S
C388 H363 0.930 . S
C388 C391 1.388 . S
C388 C393 1.418 . S
C389 H384 0.930 . S
C389 C392 1.404 . S
C389 C393 1.353 . S
N390 Co355 2.145 . S
N390 C391 1.397 . S
N390 C392 1.334 . S
C391 H372 0.929 . S
C391 C388 1.388 . S
C391 N390 1.397 . S
C392 H373 0.929 . S
C392 C389 1.404 . S
C392 N390 1.334 . S
C393 H385 0.930 . S
C393 C388 1.418 . S
C393 C389 1.353 . S
C394 H364 0.930 . S
C394 N395 1.330 . S
C394 C396 1.446 . S
N395 Co354 2.151 . S
N395 C394 1.330 . S
N395 C399 1.418 . S
C396 H375 0.929 . S
C396 C394 1.446 . S
C396 C397 1.332 . S
C397 H377 0.931 . S
C397 C396 1.332 . S
C397 C398 1.267 . S
C398 H366 0.929 . S
C398 C397 1.267 . S
C398 C399 1.251 . S
C399 H369 0.929 . S
C399 N395 1.418 . S
C399 C398 1.251 . S
C400 H367 0.930 . S
C400 C402 1.406 . S
C400 C405 1.261 . S
C401 H368 0.930 . S
C401 N403 1.325 . S
C401 C404 1.357 . S
C402 H370 0.928 . S
C402 C400 1.406 . S
C402 N403 1.261 . S
N403 Co354 2.214 . S
N403 C401 1.325 . S
N403 C402 1.261 . S
C404 H374 0.931 . S
C404 C401 1.357 . S
C404 C405 1.312 . S
C405 H376 0.930 . S
C405 C400 1.261 . S
C405 C404 1.312 . S
C406 O378 1.214 . S
C406 O386 1.234 . S
C407 H379 0.929 . S
C407 C410 1.391 . S
C407 C412 1.391 . S
C408 H380 0.929 . S
C408 C409 1.390 . S
C408 N411 1.391 . S
C409 H381 0.930 . S
C409 C408 1.390 . S
C409 C410 1.392 . S
C410 H382 0.929 . S
C410 C407 1.391 . S
C410 C409 1.392 . S
N411 Co355 2.257 . S
N411 C408 1.391 . S
N411 C412 1.388 . S
C412 H383 0.930 . S
C412 C407 1.391 . S
C412 N411 1.388 . S
Co413 O415 2.143 . S
Co413 O421 2.074 . S
Co413 O424 2.093 . S
Co413 O437 2.097 . S
Co413 N454 2.151 . S
Co413 N462 2.214 . S
Co414 O415 2.160 . S
Co414 O420 2.058 . S
Co414 O430 2.057 . S
Co414 O445 2.037 . S
Co414 N449 2.145 . S
Co414 N470 2.257 . S
O415 Co413 2.143 . S
O415 Co414 2.160 . S
C416 O417 1.278 . S
C416 O424 1.224 . S
O417 C416 1.278 . S
C418 O419 1.245 . S
C418 O430 1.232 . S
O419 C418 1.245 . S
O420 Co414 2.058 . S
O420 C446 1.269 . S
O421 Co413 2.074 . S
O421 C446 1.257 . S
H422 C447 0.930 . S
H423 C453 0.930 . S
O424 Co413 2.093 . S
O424 C416 1.224 . S
H425 C457 0.929 . S
H426 C459 0.930 . S
H427 C460 0.930 . S
H428 C458 0.929 . S
H429 C461 0.928 . S
O430 Co414 2.057 . S
O430 C418 1.232 . S
H431 C450 0.929 . S
H432 C451 0.929 . S
H433 C463 0.931 . S
H434 C455 0.929 . S
H435 C464 0.930 . S
H436 C456 0.931 . S
O437 Co413 2.097 . S
O437 C465 1.214 . S
H438 C466 0.929 . S
H439 C467 0.929 . S
H440 C468 0.930 . S
H441 C469 0.929 . S
H442 C471 0.930 . S
H443 C448 0.930 . S
H444 C452 0.930 . S
O445 Co414 2.037 . S
O445 C465 1.234 . S
C446 O420 1.269 . S
C446 O421 1.257 . S
C447 H422 0.930 . S
C447 C450 1.388 . S
C447 C452 1.418 . S
C448 H443 0.930 . S
C448 C451 1.404 . S
C448 C452 1.353 . S
N449 Co414 2.145 . S
N449 C450 1.397 . S
N449 C451 1.334 . S
C450 H431 0.929 . S
C450 C447 1.388 . S
C450 N449 1.397 . S
C451 H432 0.929 . S
C451 C448 1.404 . S
C451 N449 1.334 . S
C452 H444 0.930 . S
C452 C447 1.418 . S
C452 C448 1.353 . S
C453 H423 0.930 . S
C453 N454 1.330 . S
C453 C455 1.446 . S
N454 Co413 2.151 . S
N454 C453 1.330 . S
N454 C458 1.418 . S
C455 H434 0.929 . S
C455 C453 1.446 . S
C455 C456 1.332 . S
C456 H436 0.931 . S
C456 C455 1.332 . S
C456 C457 1.267 . S
C457 H425 0.929 . S
C457 C456 1.267 . S
C457 C458 1.251 . S
C458 H428 0.929 . S
C458 N454 1.418 . S
C458 C457 1.251 . S
C459 H426 0.930 . S
C459 C461 1.406 . S
C459 C464 1.261 . S
C460 H427 0.930 . S
C460 N462 1.325 . S
C460 C463 1.357 . S
C461 H429 0.928 . S
C461 C459 1.406 . S
C461 N462 1.261 . S
N462 Co413 2.214 . S
N462 C460 1.325 . S
N462 C461 1.261 . S
C463 H433 0.931 . S
C463 C460 1.357 . S
C463 C464 1.312 . S
C464 H435 0.930 . S
C464 C459 1.261 . S
C464 C463 1.312 . S
C465 O437 1.214 . S
C465 O445 1.234 . S
C466 H438 0.929 . S
C466 C469 1.391 . S
C466 C471 1.391 . S
C467 H439 0.929 . S
C467 C468 1.390 . S
C467 N470 1.391 . S
C468 H440 0.930 . S
C468 C467 1.390 . S
C468 C469 1.392 . S
C469 H441 0.929 . S
C469 C466 1.391 . S
C469 C468 1.392 . S
N470 Co414 2.257 . S
N470 C467 1.391 . S
N470 C471 1.388 . S
C471 H442 0.930 . S
C471 C466 1.391 . S
C471 N470 1.388 . S
Co472 O474 2.143 . S
Co472 O480 2.074 1_554 S
Co472 O483 2.093 . S
Co472 O496 2.097 . S
Co472 N513 2.151 1_554 S
Co472 N521 2.214 1_554 S
Co473 O474 2.160 . S
Co473 O479 2.058 1_554 S
Co473 O489 2.057 . S
Co473 O504 2.037 . S
Co473 N508 2.145 1_554 S
Co473 N529 2.257 . S
O474 Co472 2.143 . S
O474 Co473 2.160 . S
C475 O476 1.278 . S
C475 O483 1.224 . S
O476 C475 1.278 . S
C477 O478 1.245 . S
C477 O489 1.232 . S
O478 C477 1.245 . S
O479 Co473 2.058 1_556 S
O479 C505 1.269 . S
O480 Co472 2.074 1_556 S
O480 C505 1.257 . S
H481 C506 0.930 . S
H482 C512 0.930 . S
O483 Co472 2.093 . S
O483 C475 1.224 . S
H484 C516 0.929 . S
H485 C518 0.930 . S
H486 C519 0.930 . S
H487 C517 0.929 . S
H488 C520 0.928 1_554 S
O489 Co473 2.057 . S
O489 C477 1.232 . S
H490 C509 0.929 . S
H491 C510 0.929 1_554 S
H492 C522 0.931 . S
H493 C514 0.929 . S
H494 C523 0.930 . S
H495 C515 0.931 . S
O496 Co472 2.097 . S
O496 C524 1.214 . S
H497 C525 0.929 . S
H498 C526 0.929 . S
H499 C527 0.930 . S
H500 C528 0.929 . S
H501 C530 0.930 . S
H502 C507 0.930 . S
H503 C511 0.930 . S
O504 Co473 2.037 . S
O504 C524 1.234 . S
C505 O479 1.269 . S
C505 O480 1.257 . S
C506 H481 0.930 . S
C506 C509 1.388 . S
C506 C511 1.418 . S
C507 H502 0.930 . S
C507 C510 1.404 . S
C507 C511 1.353 . S
N508 Co473 2.145 1_556 S
N508 C509 1.397 . S
N508 C510 1.334 . S
C509 H490 0.929 . S
C509 C506 1.388 . S
C509 N508 1.397 . S
C510 H491 0.929 1_556 S
C510 C507 1.404 . S
C510 N508 1.334 . S
C511 H503 0.930 . S
C511 C506 1.418 . S
C511 C507 1.353 . S
C512 H482 0.930 . S
C512 N513 1.330 1_554 S
C512 C514 1.446 . S
N513 Co472 2.151 1_556 S
N513 C512 1.330 1_556 S
N513 C517 1.418 . S
C514 H493 0.929 . S
C514 C512 1.446 . S
C514 C515 1.332 1_554 S
C515 H495 0.931 . S
C515 C514 1.332 1_556 S
C515 C516 1.267 . S
C516 H484 0.929 . S
C516 C515 1.267 . S
C516 C517 1.251 . S
C517 H487 0.929 . S
C517 N513 1.418 . S
C517 C516 1.251 . S
C518 H485 0.930 . S
C518 C520 1.406 . S
C518 C523 1.261 . S
C519 H486 0.930 . S
C519 N521 1.325 . S
C519 C522 1.357 . S
C520 H488 0.928 1_556 S
C520 C518 1.406 . S
C520 N521 1.261 . S
N521 Co472 2.214 1_556 S
N521 C519 1.325 . S
N521 C520 1.261 . S
C522 H492 0.931 . S
C522 C519 1.357 . S
C522 C523 1.312 . S
C523 H494 0.930 . S
C523 C518 1.261 . S
C523 C522 1.312 . S
C524 O496 1.214 . S
C524 O504 1.234 . S
C525 H497 0.929 . S
C525 C528 1.391 . S
C525 C530 1.391 . S
C526 H498 0.929 . S
C526 C527 1.390 . S
C526 N529 1.391 . S
C527 H499 0.930 . S
C527 C526 1.390 . S
C527 C528 1.392 . S
C528 H500 0.929 . S
C528 C525 1.391 . S
C528 C527 1.392 . S
N529 Co473 2.257 . S
N529 C526 1.391 . S
N529 C530 1.388 . S
C530 H501 0.930 . S
C530 C525 1.391 . S
C530 N529 1.388 . S
Co531 O533 2.143 . S
Co531 O539 2.074 . S
Co531 O542 2.093 . S
Co531 O555 2.097 . S
Co531 N572 2.151 . S
Co531 N580 2.214 . S
Co532 O533 2.160 . S
Co532 O538 2.058 . S
Co532 O548 2.057 . S
Co532 O563 2.037 . S
Co532 N567 2.145 . S
Co532 N588 2.257 . S
O533 Co531 2.143 . S
O533 Co532 2.160 . S
C534 O535 1.278 . S
C534 O542 1.224 . S
O535 C534 1.278 . S
C536 O537 1.245 . S
C536 O548 1.232 . S
O537 C536 1.245 . S
O538 Co532 2.058 . S
O538 C564 1.269 . S
O539 Co531 2.074 . S
O539 C564 1.257 . S
H540 C565 0.930 . S
H541 C571 0.930 . S
O542 Co531 2.093 . S
O542 C534 1.224 . S
H543 C575 0.929 . S
H544 C577 0.930 . S
H545 C578 0.930 . S
H546 C576 0.929 . S
H547 C579 0.928 . S
O548 Co532 2.057 . S
O548 C536 1.232 . S
H549 C568 0.929 . S
H550 C569 0.929 . S
H551 C581 0.931 . S
H552 C573 0.929 . S
H553 C582 0.930 . S
H554 C574 0.931 . S
O555 Co531 2.097 . S
O555 C583 1.214 . S
H556 C584 0.929 . S
H557 C585 0.929 . S
H558 C586 0.930 . S
H559 C587 0.929 . S
H560 C589 0.930 . S
H561 C566 0.930 . S
H562 C570 0.930 . S
O563 Co532 2.037 . S
O563 C583 1.234 . S
C564 O538 1.269 . S
C564 O539 1.257 . S
C565 H540 0.930 . S
C565 C568 1.388 . S
C565 C570 1.418 . S
C566 H561 0.930 . S
C566 C569 1.404 . S
C566 C570 1.353 . S
N567 Co532 2.145 . S
N567 C568 1.397 . S
N567 C569 1.334 . S
C568 H549 0.929 . S
C568 C565 1.388 . S
C568 N567 1.397 . S
C569 H550 0.929 . S
C569 C566 1.404 . S
C569 N567 1.334 . S
C570 H562 0.930 . S
C570 C565 1.418 . S
C570 C566 1.353 . S
C571 H541 0.930 . S
C571 N572 1.330 . S
C571 C573 1.446 . S
N572 Co531 2.151 . S
N572 C571 1.330 . S
N572 C576 1.418 . S
C573 H552 0.929 . S
C573 C571 1.446 . S
C573 C574 1.332 . S
C574 H554 0.931 . S
C574 C573 1.332 . S
C574 C575 1.267 . S
C575 H543 0.929 . S
C575 C574 1.267 . S
C575 C576 1.251 . S
C576 H546 0.929 . S
C576 N572 1.418 . S
C576 C575 1.251 . S
C577 H544 0.930 . S
C577 C579 1.406 . S
C577 C582 1.261 . S
C578 H545 0.930 . S
C578 N580 1.325 . S
C578 C581 1.357 . S
C579 H547 0.928 . S
C579 C577 1.406 . S
C579 N580 1.261 . S
N580 Co531 2.214 . S
N580 C578 1.325 . S
N580 C579 1.261 . S
C581 H551 0.931 . S
C581 C578 1.357 . S
C581 C582 1.312 . S
C582 H553 0.930 . S
C582 C577 1.261 . S
C582 C581 1.312 . S
C583 O555 1.214 . S
C583 O563 1.234 . S
C584 H556 0.929 . S
C584 C587 1.391 . S
C584 C589 1.391 . S
C585 H557 0.929 . S
C585 C586 1.390 . S
C585 N588 1.391 . S
C586 H558 0.930 . S
C586 C585 1.390 . S
C586 C587 1.392 . S
C587 H559 0.929 . S
C587 C584 1.391 . S
C587 C586 1.392 . S
N588 Co532 2.257 . S
N588 C585 1.391 . S
N588 C589 1.388 . S
C589 H560 0.930 . S
C589 C584 1.391 . S
C589 N588 1.388 . S
Co590 O592 2.143 . S
Co590 O598 2.074 . S
Co590 O601 2.093 . S
Co590 O614 2.097 . S
Co590 N631 2.151 . S
Co590 N639 2.214 . S
Co591 O592 2.160 . S
Co591 O597 2.058 . S
Co591 O607 2.057 . S
Co591 O622 2.037 . S
Co591 N626 2.145 . S
Co591 N647 2.257 . S
O592 Co590 2.143 . S
O592 Co591 2.160 . S
C593 O594 1.278 . S
C593 O601 1.224 . S
O594 C593 1.278 . S
C595 O596 1.245 . S
C595 O607 1.232 . S
O596 C595 1.245 . S
O597 Co591 2.058 . S
O597 C623 1.269 . S
O598 Co590 2.074 . S
O598 C623 1.257 . S
H599 C624 0.930 . S
H600 C630 0.930 . S
O601 Co590 2.093 . S
O601 C593 1.224 . S
H602 C634 0.929 . S
H603 C636 0.930 . S
H604 C637 0.930 . S
H605 C635 0.929 . S
H606 C638 0.928 . S
O607 Co591 2.057 . S
O607 C595 1.232 . S
H608 C627 0.929 . S
H609 C628 0.929 . S
H610 C640 0.931 . S
H611 C632 0.929 . S
H612 C641 0.930 . S
H613 C633 0.931 . S
O614 Co590 2.097 . S
O614 C642 1.214 . S
H615 C643 0.929 . S
H616 C644 0.929 . S
H617 C645 0.930 . S
H618 C646 0.929 . S
H619 C648 0.930 . S
H620 C625 0.930 . S
H621 C629 0.930 . S
O622 Co591 2.037 . S
O622 C642 1.234 . S
C623 O597 1.269 . S
C623 O598 1.257 . S
C624 H599 0.930 . S
C624 C627 1.388 . S
C624 C629 1.418 . S
C625 H620 0.930 . S
C625 C628 1.404 . S
C625 C629 1.353 . S
N626 Co591 2.145 . S
N626 C627 1.397 . S
N626 C628 1.334 . S
C627 H608 0.929 . S
C627 C624 1.388 . S
C627 N626 1.397 . S
C628 H609 0.929 . S
C628 C625 1.404 . S
C628 N626 1.334 . S
C629 H621 0.930 . S
C629 C624 1.418 . S
C629 C625 1.353 . S
C630 H600 0.930 . S
C630 N631 1.330 . S
C630 C632 1.446 . S
N631 Co590 2.151 . S
N631 C630 1.330 . S
N631 C635 1.418 . S
C632 H611 0.929 . S
C632 C630 1.446 . S
C632 C633 1.332 . S
C633 H613 0.931 . S
C633 C632 1.332 . S
C633 C634 1.267 . S
C634 H602 0.929 . S
C634 C633 1.267 . S
C634 C635 1.251 . S
C635 H605 0.929 . S
C635 N631 1.418 . S
C635 C634 1.251 . S
C636 H603 0.930 . S
C636 C638 1.406 . S
C636 C641 1.261 . S
C637 H604 0.930 . S
C637 N639 1.325 . S
C637 C640 1.357 . S
C638 H606 0.928 . S
C638 C636 1.406 . S
C638 N639 1.261 . S
N639 Co590 2.214 . S
N639 C637 1.325 . S
N639 C638 1.261 . S
C640 H610 0.931 . S
C640 C637 1.357 . S
C640 C641 1.312 . S
C641 H612 0.930 . S
C641 C636 1.261 . S
C641 C640 1.312 . S
C642 O614 1.214 . S
C642 O622 1.234 . S
C643 H615 0.929 . S
C643 C646 1.391 . S
C643 C648 1.391 . S
C644 H616 0.929 . S
C644 C645 1.390 . S
C644 N647 1.391 . S
C645 H617 0.930 . S
C645 C644 1.390 . S
C645 C646 1.392 . S
C646 H618 0.929 . S
C646 C643 1.391 . S
C646 C645 1.392 . S
N647 Co591 2.257 . S
N647 C644 1.391 . S
N647 C648 1.388 . S
C648 H619 0.930 . S
C648 C643 1.391 . S
C648 N647 1.388 . S
Co649 O651 2.143 . S
Co649 O657 2.074 1_554 S
Co649 O660 2.093 . S
Co649 O673 2.097 . S
Co649 N690 2.151 1_554 S
Co649 N698 2.214 1_554 S
Co650 O651 2.160 . S
Co650 O656 2.058 1_554 S
Co650 O666 2.057 . S
Co650 O681 2.037 . S
Co650 N685 2.145 1_554 S
Co650 N706 2.257 . S
O651 Co649 2.143 . S
O651 Co650 2.160 . S
C652 O653 1.278 . S
C652 O660 1.224 . S
O653 C652 1.278 . S
C654 O655 1.245 . S
C654 O666 1.232 . S
O655 C654 1.245 . S
O656 Co650 2.058 1_556 S
O656 C682 1.269 . S
O657 Co649 2.074 1_556 S
O657 C682 1.257 . S
H658 C683 0.930 . S
H659 C689 0.930 . S
O660 Co649 2.093 . S
O660 C652 1.224 . S
H661 C693 0.929 . S
H662 C695 0.930 . S
H663 C696 0.930 . S
H664 C694 0.929 . S
H665 C697 0.928 1_554 S
O666 Co650 2.057 . S
O666 C654 1.232 . S
H667 C686 0.929 . S
H668 C687 0.929 1_554 S
H669 C699 0.931 . S
H670 C691 0.929 . S
H671 C700 0.930 . S
H672 C692 0.931 . S
O673 Co649 2.097 . S
O673 C701 1.214 . S
H674 C702 0.929 . S
H675 C703 0.929 . S
H676 C704 0.930 . S
H677 C705 0.929 . S
H678 C707 0.930 . S
H679 C684 0.930 . S
H680 C688 0.930 . S
O681 Co650 2.037 . S
O681 C701 1.234 . S
C682 O656 1.269 . S
C682 O657 1.257 . S
C683 H658 0.930 . S
C683 C686 1.388 . S
C683 C688 1.418 . S
C684 H679 0.930 . S
C684 C687 1.404 . S
C684 C688 1.353 . S
N685 Co650 2.145 1_556 S
N685 C686 1.397 . S
N685 C687 1.334 . S
C686 H667 0.929 . S
C686 C683 1.388 . S
C686 N685 1.397 . S
C687 H668 0.929 1_556 S
C687 C684 1.404 . S
C687 N685 1.334 . S
C688 H680 0.930 . S
C688 C683 1.418 . S
C688 C684 1.353 . S
C689 H659 0.930 . S
C689 N690 1.330 1_554 S
C689 C691 1.446 . S
N690 Co649 2.151 1_556 S
N690 C689 1.330 1_556 S
N690 C694 1.418 . S
C691 H670 0.929 . S
C691 C689 1.446 . S
C691 C692 1.332 1_554 S
C692 H672 0.931 . S
C692 C691 1.332 1_556 S
C692 C693 1.267 . S
C693 H661 0.929 . S
C693 C692 1.267 . S
C693 C694 1.251 . S
C694 H664 0.929 . S
C694 N690 1.418 . S
C694 C693 1.251 . S
C695 H662 0.930 . S
C695 C697 1.406 . S
C695 C700 1.261 . S
C696 H663 0.930 . S
C696 N698 1.325 . S
C696 C699 1.357 . S
C697 H665 0.928 1_556 S
C697 C695 1.406 . S
C697 N698 1.261 . S
N698 Co649 2.214 1_556 S
N698 C696 1.325 . S
N698 C697 1.261 . S
C699 H669 0.931 . S
C699 C696 1.357 . S
C699 C700 1.312 . S
C700 H671 0.930 . S
C700 C695 1.261 . S
C700 C699 1.312 . S
C701 O673 1.214 . S
C701 O681 1.234 . S
C702 H674 0.929 . S
C702 C705 1.391 . S
C702 C707 1.391 . S
C703 H675 0.929 . S
C703 C704 1.390 . S
C703 N706 1.391 . S
C704 H676 0.930 . S
C704 C703 1.390 . S
C704 C705 1.392 . S
C705 H677 0.929 . S
C705 C702 1.391 . S
C705 C704 1.392 . S
N706 Co650 2.257 . S
N706 C703 1.391 . S
N706 C707 1.388 . S
C707 H678 0.930 . S
C707 C702 1.391 . S
C707 N706 1.388 . S
C708 C709 1.391 . S
C708 C710 1.394 . S
C708 H724 0.931 . S
C709 C708 1.391 . S
C709 C713 1.376 . S
C710 C708 1.394 . S
C710 C711 1.369 . S
C710 C714 1.531 . S
C711 C710 1.369 . S
C711 C712 1.410 . S
C711 C719 1.503 . S
C712 C711 1.410 . S
C712 C713 1.392 . S
C712 C715 1.511 . S
C713 C709 1.376 . S
C713 C712 1.392 . S
C713 H725 0.929 . S
C714 C710 1.531 . S
C714 H726 0.960 . S
C714 H727 0.962 . S
C714 H728 0.960 . S
C715 C712 1.511 . S
C715 H729 0.961 . S
C715 H730 0.961 . S
C715 H731 0.961 . S
C716 C717 1.370 . S
C716 C718 1.363 . S
C716 H732 0.931 . S
C717 C716 1.370 . S
C717 C721 1.408 . S
C718 C716 1.363 . S
C718 C719 1.370 . S
C718 C722 1.524 . S
C719 C711 1.503 . S
C719 C718 1.370 . S
C719 C720 1.403 . S
C720 C719 1.403 . S
C720 C721 1.404 . S
C720 C723 1.539 . S
C721 C717 1.408 . S
C721 C720 1.404 . S
C721 H733 0.930 . S
C722 C718 1.524 . S
C722 H734 0.956 . S
C722 H735 0.961 . S
C722 H736 0.961 . S
C723 C720 1.539 . S
C723 H737 0.958 . S
C723 H738 0.961 . S
C723 H739 0.960 . S
H724 C708 0.931 . S
H725 C713 0.929 . S
H726 C714 0.960 . S
H727 C714 0.962 . S
H728 C714 0.960 . S
H729 C715 0.961 . S
H730 C715 0.961 . S
H731 C715 0.961 . S
H732 C716 0.931 . S
H733 C721 0.930 . S
H734 C722 0.956 . S
H735 C722 0.961 . S
H736 C722 0.961 . S
H737 C723 0.958 . S
H738 C723 0.961 . S
H739 C723 0.960 . S
C740 C741 1.391 . S
C740 C742 1.394 . S
C740 H756 0.931 . S
C741 C740 1.391 . S
C741 C745 1.376 . S
C742 C740 1.394 . S
C742 C743 1.369 . S
C742 C746 1.531 . S
C743 C742 1.369 . S
C743 C744 1.410 . S
C743 C751 1.503 . S
C744 C743 1.410 . S
C744 C745 1.392 . S
C744 C747 1.511 . S
C745 C741 1.376 . S
C745 C744 1.392 . S
C745 H757 0.929 . S
C746 C742 1.531 . S
C746 H758 0.960 . S
C746 H759 0.962 . S
C746 H760 0.960 . S
C747 C744 1.511 . S
C747 H761 0.961 . S
C747 H762 0.961 . S
C747 H763 0.961 . S
C748 C749 1.370 . S
C748 C750 1.363 . S
C748 H764 0.931 . S
C749 C748 1.370 . S
C749 C753 1.408 . S
C750 C748 1.363 . S
C750 C751 1.370 . S
C750 C754 1.524 . S
C751 C743 1.503 . S
C751 C750 1.370 . S
C751 C752 1.403 . S
C752 C751 1.403 . S
C752 C753 1.404 . S
C752 C755 1.539 . S
C753 C749 1.408 . S
C753 C752 1.404 . S
C753 H765 0.930 . S
C754 C750 1.524 . S
C754 H766 0.956 . S
C754 H767 0.961 . S
C754 H768 0.961 . S
C755 C752 1.539 . S
C755 H769 0.958 . S
C755 H770 0.961 . S
C755 H771 0.960 . S
H756 C740 0.931 . S
H757 C745 0.929 . S
H758 C746 0.960 . S
H759 C746 0.962 . S
H760 C746 0.960 . S
H761 C747 0.961 . S
H762 C747 0.961 . S
H763 C747 0.961 . S
H764 C748 0.931 . S
H765 C753 0.930 . S
H766 C754 0.956 . S
H767 C754 0.961 . S
H768 C754 0.961 . S
H769 C755 0.958 . S
H770 C755 0.961 . S
H771 C755 0.960 . S
C772 C773 1.391 . S
C772 C774 1.394 . S
C772 H788 0.931 . S
C773 C772 1.391 . S
C773 C777 1.376 . S
C774 C772 1.394 . S
C774 C775 1.369 . S
C774 C778 1.531 . S
C775 C774 1.369 . S
C775 C776 1.410 . S
C775 C783 1.503 . S
C776 C775 1.410 . S
C776 C777 1.392 . S
C776 C779 1.511 . S
C777 C773 1.376 . S
C777 C776 1.392 . S
C777 H789 0.929 . S
C778 C774 1.531 . S
C778 H790 0.960 . S
C778 H791 0.962 . S
C778 H792 0.960 . S
C779 C776 1.511 . S
C779 H793 0.961 . S
C779 H794 0.961 . S
C779 H795 0.961 . S
C780 C781 1.370 . S
C780 C782 1.363 . S
C780 H796 0.931 . S
C781 C780 1.370 . S
C781 C785 1.408 . S
C782 C780 1.363 . S
C782 C783 1.370 . S
C782 C786 1.524 . S
C783 C775 1.503 . S
C783 C782 1.370 . S
C783 C784 1.403 . S
C784 C783 1.403 . S
C784 C785 1.404 . S
C784 C787 1.539 . S
C785 C781 1.408 . S
C785 C784 1.404 . S
C785 H797 0.930 . S
C786 C782 1.524 . S
C786 H798 0.956 . S
C786 H799 0.961 . S
C786 H800 0.961 . S
C787 C784 1.539 . S
C787 H801 0.958 . S
C787 H802 0.961 . S
C787 H803 0.960 . S
H788 C772 0.931 . S
H789 C777 0.929 . S
H790 C778 0.960 . S
H791 C778 0.962 . S
H792 C778 0.960 . S
H793 C779 0.961 . S
H794 C779 0.961 . S
H795 C779 0.961 . S
H796 C780 0.931 . S
H797 C785 0.930 . S
H798 C786 0.956 . S
H799 C786 0.961 . S
H800 C786 0.961 . S
H801 C787 0.958 . S
H802 C787 0.961 . S
H803 C787 0.960 . S
C804 C805 1.391 . S
C804 C806 1.394 . S
C804 H820 0.931 . S
C805 C804 1.391 . S
C805 C809 1.376 . S
C806 C804 1.394 . S
C806 C807 1.369 . S
C806 C810 1.531 . S
C807 C806 1.369 . S
C807 C808 1.410 . S
C807 C815 1.503 . S
C808 C807 1.410 . S
C808 C809 1.392 . S
C808 C811 1.511 . S
C809 C805 1.376 . S
C809 C808 1.392 . S
C809 H821 0.929 . S
C810 C806 1.531 . S
C810 H822 0.960 . S
C810 H823 0.962 . S
C810 H824 0.960 . S
C811 C808 1.511 . S
C811 H825 0.961 . S
C811 H826 0.961 . S
C811 H827 0.961 . S
C812 C813 1.370 . S
C812 C814 1.363 . S
C812 H828 0.931 . S
C813 C812 1.370 . S
C813 C817 1.408 . S
C814 C812 1.363 . S
C814 C815 1.370 . S
C814 C818 1.524 . S
C815 C807 1.503 . S
C815 C814 1.370 . S
C815 C816 1.403 . S
C816 C815 1.403 . S
C816 C817 1.404 . S
C816 C819 1.539 . S
C817 C813 1.408 . S
C817 C816 1.404 . S
C817 H829 0.930 . S
C818 C814 1.524 . S
C818 H830 0.956 . S
C818 H831 0.961 . S
C818 H832 0.961 . S
C819 C816 1.539 . S
C819 H833 0.958 . S
C819 H834 0.961 . S
C819 H835 0.960 . S
H820 C804 0.931 . S
H821 C809 0.929 . S
H822 C810 0.960 . S
H823 C810 0.962 . S
H824 C810 0.960 . S
H825 C811 0.961 . S
H826 C811 0.961 . S
H827 C811 0.961 . S
H828 C812 0.931 . S
H829 C817 0.930 . S
H830 C818 0.956 . S
H831 C818 0.961 . S
H832 C818 0.961 . S
H833 C819 0.958 . S
H834 C819 0.961 . S
H835 C819 0.960 . S
C836 C837 1.391 . S
C836 C838 1.394 . S
C836 H852 0.931 . S
C837 C836 1.391 . S
C837 C841 1.376 . S
C838 C836 1.394 . S
C838 C839 1.369 . S
C838 C842 1.531 . S
C839 C838 1.369 . S
C839 C840 1.410 . S
C839 C847 1.503 . S
C840 C839 1.410 . S
C840 C841 1.392 . S
C840 C843 1.511 . S
C841 C837 1.376 . S
C841 C840 1.392 . S
C841 H853 0.929 . S
C842 C838 1.531 . S
C842 H854 0.960 . S
C842 H855 0.962 . S
C842 H856 0.960 . S
C843 C840 1.511 . S
C843 H857 0.961 . S
C843 H858 0.961 . S
C843 H859 0.961 . S
C844 C845 1.370 . S
C844 C846 1.363 . S
C844 H860 0.931 . S
C845 C844 1.370 . S
C845 C849 1.408 . S
C846 C844 1.363 . S
C846 C847 1.370 . S
C846 C850 1.524 . S
C847 C839 1.503 . S
C847 C846 1.370 . S
C847 C848 1.403 . S
C848 C847 1.403 . S
C848 C849 1.404 . S
C848 C851 1.539 . S
C849 C845 1.408 . S
C849 C848 1.404 . S
C849 H861 0.930 . S
C850 C846 1.524 . S
C850 H862 0.956 . S
C850 H863 0.961 . S
C850 H864 0.961 . S
C851 C848 1.539 . S
C851 H865 0.958 . S
C851 H866 0.961 . S
C851 H867 0.960 . S
H852 C836 0.931 . S
H853 C841 0.929 . S
H854 C842 0.960 . S
H855 C842 0.962 . S
H856 C842 0.960 . S
H857 C843 0.961 . S
H858 C843 0.961 . S
H859 C843 0.961 . S
H860 C844 0.931 . S
H861 C849 0.930 . S
H862 C850 0.956 . S
H863 C850 0.961 . S
H864 C850 0.961 . S
H865 C851 0.958 . S
H866 C851 0.961 . S
H867 C851 0.960 . S
C868 C869 1.391 . S
C868 C870 1.394 . S
C868 H884 0.931 . S
C869 C868 1.391 . S
C869 C873 1.376 . S
C870 C868 1.394 . S
C870 C871 1.369 . S
C870 C874 1.531 . S
C871 C870 1.369 . S
C871 C872 1.410 . S
C871 C879 1.503 . S
C872 C871 1.410 . S
C872 C873 1.392 . S
C872 C875 1.511 . S
C873 C869 1.376 . S
C873 C872 1.392 . S
C873 H885 0.929 . S
C874 C870 1.531 . S
C874 H886 0.960 . S
C874 H887 0.962 . S
C874 H888 0.960 . S
C875 C872 1.511 . S
C875 H889 0.961 . S
C875 H890 0.961 . S
C875 H891 0.961 . S
C876 C877 1.370 . S
C876 C878 1.363 . S
C876 H892 0.931 . S
C877 C876 1.370 . S
C877 C881 1.408 . S
C878 C876 1.363 . S
C878 C879 1.370 . S
C878 C882 1.524 . S
C879 C871 1.503 . S
C879 C878 1.370 . S
C879 C880 1.403 . S
C880 C879 1.403 . S
C880 C881 1.404 . S
C880 C883 1.539 . S
C881 C877 1.408 . S
C881 C880 1.404 . S
C881 H893 0.930 . S
C882 C878 1.524 . S
C882 H894 0.956 . S
C882 H895 0.961 . S
C882 H896 0.961 . S
C883 C880 1.539 . S
C883 H897 0.958 . S
C883 H898 0.961 . S
C883 H899 0.960 . S
H884 C868 0.931 . S
H885 C873 0.929 . S
H886 C874 0.960 . S
H887 C874 0.962 . S
H888 C874 0.960 . S
H889 C875 0.961 . S
H890 C875 0.961 . S
H891 C875 0.961 . S
H892 C876 0.931 . S
H893 C881 0.930 . S
H894 C882 0.956 . S
H895 C882 0.961 . S
H896 C882 0.961 . S
H897 C883 0.958 . S
H898 C883 0.961 . S
H899 C883 0.960 . S
C900 C901 1.391 . S
C900 C902 1.394 . S
C900 H916 0.931 . S
C901 C900 1.391 . S
C901 C905 1.376 . S
C902 C900 1.394 . S
C902 C903 1.369 . S
C902 C906 1.531 . S
C903 C902 1.369 . S
C903 C904 1.410 . S
C903 C911 1.503 . S
C904 C903 1.410 . S
C904 C905 1.392 . S
C904 C907 1.511 . S
C905 C901 1.376 . S
C905 C904 1.392 . S
C905 H917 0.929 . S
C906 C902 1.531 . S
C906 H918 0.960 . S
C906 H919 0.962 . S
C906 H920 0.960 . S
C907 C904 1.511 . S
C907 H921 0.961 . S
C907 H922 0.961 . S
C907 H923 0.961 . S
C908 C909 1.370 . S
C908 C910 1.363 . S
C908 H924 0.931 . S
C909 C908 1.370 . S
C909 C913 1.408 . S
C910 C908 1.363 . S
C910 C911 1.370 . S
C910 C914 1.524 . S
C911 C903 1.503 . S
C911 C910 1.370 . S
C911 C912 1.403 . S
C912 C911 1.403 . S
C912 C913 1.404 . S
C912 C915 1.539 . S
C913 C909 1.408 . S
C913 C912 1.404 . S
C913 H925 0.930 . S
C914 C910 1.524 . S
C914 H926 0.956 . S
C914 H927 0.961 . S
C914 H928 0.961 . S
C915 C912 1.539 . S
C915 H929 0.958 . S
C915 H930 0.961 . S
C915 H931 0.960 . S
H916 C900 0.931 . S
H917 C905 0.929 . S
H918 C906 0.960 . S
H919 C906 0.962 . S
H920 C906 0.960 . S
H921 C907 0.961 . S
H922 C907 0.961 . S
H923 C907 0.961 . S
H924 C908 0.931 . S
H925 C913 0.930 . S
H926 C914 0.956 . S
H927 C914 0.961 . S
H928 C914 0.961 . S
H929 C915 0.958 . S
H930 C915 0.961 . S
H931 C915 0.960 . S
C932 C933 1.391 . S
C932 C934 1.394 . S
C932 H948 0.931 . S
C933 C932 1.391 . S
C933 C937 1.376 . S
C934 C932 1.394 . S
C934 C935 1.369 . S
C934 C938 1.531 . S
C935 C934 1.369 . S
C935 C936 1.410 . S
C935 C943 1.503 . S
C936 C935 1.410 . S
C936 C937 1.392 . S
C936 C939 1.511 . S
C937 C933 1.376 . S
C937 C936 1.392 . S
C937 H949 0.929 . S
C938 C934 1.531 . S
C938 H950 0.960 . S
C938 H951 0.962 . S
C938 H952 0.960 . S
C939 C936 1.511 . S
C939 H953 0.961 . S
C939 H954 0.961 . S
C939 H955 0.961 . S
C940 C941 1.370 . S
C940 C942 1.363 . S
C940 H956 0.931 . S
C941 C940 1.370 . S
C941 C945 1.408 . S
C942 C940 1.363 . S
C942 C943 1.370 . S
C942 C946 1.524 . S
C943 C935 1.503 . S
C943 C942 1.370 . S
C943 C944 1.403 . S
C944 C943 1.403 . S
C944 C945 1.404 . S
C944 C947 1.539 . S
C945 C941 1.408 . S
C945 C944 1.404 . S
C945 H957 0.930 . S
C946 C942 1.524 . S
C946 H958 0.956 . S
C946 H959 0.961 . S
C946 H960 0.961 . S
C947 C944 1.539 . S
C947 H961 0.958 . S
C947 H962 0.961 . S
C947 H963 0.960 . S
H948 C932 0.931 . S
H949 C937 0.929 . S
H950 C938 0.960 . S
H951 C938 0.962 . S
H952 C938 0.960 . S
H953 C939 0.961 . S
H954 C939 0.961 . S
H955 C939 0.961 . S
H956 C940 0.931 . S
H957 C945 0.930 . S
H958 C946 0.956 . S
H959 C946 0.961 . S
H960 C946 0.961 . S
H961 C947 0.958 . S
H962 C947 0.961 . S
H963 C947 0.960 . S
C964 C965 1.391 . S
C964 C966 1.394 . S
C964 H980 0.931 . S
C965 C964 1.391 . S
C965 C969 1.376 1_554 S
C966 C964 1.394 . S
C966 C967 1.369 . S
C966 C970 1.531 . S
C967 C966 1.369 . S
C967 C968 1.410 1_554 S
C967 C975 1.503 . S
C968 C967 1.410 1_556 S
C968 C969 1.392 . S
C968 C971 1.511 . S
C969 C965 1.376 1_556 S
C969 C968 1.392 . S
C969 H981 0.929 . S
C970 C966 1.531 . S
C970 H982 0.960 . S
C970 H983 0.962 . S
C970 H984 0.960 . S
C971 C968 1.511 . S
C971 H985 0.961 . S
C971 H986 0.961 . S
C971 H987 0.961 . S
C972 C973 1.376 . S
C972 C974 1.363 . S
C972 H988 0.931 . S
C973 C972 1.376 . S
C973 C977 1.403 1_554 S
C974 C972 1.363 . S
C974 C975 1.370 . S
C974 C978 1.524 . S
C975 C967 1.503 . S
C975 C974 1.370 . S
C975 C976 1.403 1_554 S
C976 C975 1.403 1_556 S
C976 C977 1.404 . S
C976 C979 1.539 . S
C977 C973 1.403 1_556 S
C977 C976 1.404 . S
C977 H989 0.930 . S
C978 C974 1.524 . S
C978 H990 0.956 . S
C978 H991 0.961 . S
C978 H992 0.961 . S
C979 C976 1.539 . S
C979 H993 0.958 . S
C979 H994 0.961 . S
C979 H995 0.960 . S
H980 C964 0.931 . S
H981 C969 0.929 . S
H982 C970 0.960 . S
H983 C970 0.962 . S
H984 C970 0.960 . S
H985 C971 0.961 . S
H986 C971 0.961 . S
H987 C971 0.961 . S
H988 C972 0.931 . S
H989 C977 0.930 . S
H990 C978 0.956 . S
H991 C978 0.961 . S
H992 C978 0.961 . S
H993 C979 0.958 . S
H994 C979 0.961 . S
H995 C979 0.960 . S
C996 C997 1.391 . S
C996 C998 1.394 . S
C996 H1012 0.931 . S
C997 C996 1.391 . S
C997 C1001 1.376 . S
C998 C996 1.394 . S
C998 C999 1.369 . S
C998 C1002 1.531 . S
C999 C998 1.369 . S
C999 C1000 1.410 . S
C999 C1007 1.503 . S
C1000 C999 1.410 . S
C1000 C1001 1.392 . S
C1000 C1003 1.511 . S
C1001 C997 1.376 . S
C1001 C1000 1.392 . S
C1001 H1013 0.929 . S
C1002 C998 1.531 . S
C1002 H1014 0.960 . S
C1002 H1015 0.962 . S
C1002 H1016 0.960 . S
C1003 C1000 1.511 . S
C1003 H1017 0.961 . S
C1003 H1018 0.961 . S
C1003 H1019 0.961 . S
C1004 C1005 1.370 . S
C1004 C1006 1.363 . S
C1004 H1020 0.931 . S
C1005 C1004 1.370 . S
C1005 C1009 1.408 . S
C1006 C1004 1.363 . S
C1006 C1007 1.370 . S
C1006 C1010 1.524 . S
C1007 C999 1.503 . S
C1007 C1006 1.370 . S
C1007 C1008 1.403 . S
C1008 C1007 1.403 . S
C1008 C1009 1.404 . S
C1008 C1011 1.539 . S
C1009 C1005 1.408 . S
C1009 C1008 1.404 . S
C1009 H1021 0.930 . S
C1010 C1006 1.524 . S
C1010 H1022 0.956 . S
C1010 H1023 0.961 . S
C1010 H1024 0.961 . S
C1011 C1008 1.539 . S
C1011 H1025 0.958 . S
C1011 H1026 0.961 . S
C1011 H1027 0.960 . S
H1012 C996 0.931 . S
H1013 C1001 0.929 . S
H1014 C1002 0.960 . S
H1015 C1002 0.962 . S
H1016 C1002 0.960 . S
H1017 C1003 0.961 . S
H1018 C1003 0.961 . S
H1019 C1003 0.961 . S
H1020 C1004 0.931 . S
H1021 C1009 0.930 . S
H1022 C1010 0.956 . S
H1023 C1010 0.961 . S
H1024 C1010 0.961 . S
H1025 C1011 0.958 . S
H1026 C1011 0.961 . S
H1027 C1011 0.960 . S
C1028 C1029 1.391 . S
C1028 C1030 1.394 . S
C1028 H1044 0.931 . S
C1029 C1028 1.391 . S
C1029 C1033 1.376 . S
C1030 C1028 1.394 . S
C1030 C1031 1.369 . S
C1030 C1034 1.531 . S
C1031 C1030 1.369 . S
C1031 C1032 1.410 . S
C1031 C1039 1.503 . S
C1032 C1031 1.410 . S
C1032 C1033 1.392 . S
C1032 C1035 1.511 . S
C1033 C1029 1.376 . S
C1033 C1032 1.392 . S
C1033 H1045 0.929 . S
C1034 C1030 1.531 . S
C1034 H1046 0.960 . S
C1034 H1047 0.962 . S
C1034 H1048 0.960 . S
C1035 C1032 1.511 . S
C1035 H1049 0.961 . S
C1035 H1050 0.961 . S
C1035 H1051 0.961 . S
C1036 C1037 1.370 . S
C1036 C1038 1.363 . S
C1036 H1052 0.931 . S
C1037 C1036 1.370 . S
C1037 C1041 1.408 . S
C1038 C1036 1.363 . S
C1038 C1039 1.370 . S
C1038 C1042 1.524 . S
C1039 C1031 1.503 . S
C1039 C1038 1.370 . S
C1039 C1040 1.403 . S
C1040 C1039 1.403 . S
C1040 C1041 1.404 . S
C1040 C1043 1.539 . S
C1041 C1037 1.408 . S
C1041 C1040 1.404 . S
C1041 H1053 0.930 . S
C1042 C1038 1.524 . S
C1042 H1054 0.956 . S
C1042 H1055 0.961 . S
C1042 H1056 0.961 . S
C1043 C1040 1.539 . S
C1043 H1057 0.958 . S
C1043 H1058 0.961 . S
C1043 H1059 0.960 . S
H1044 C1028 0.931 . S
H1045 C1033 0.929 . S
H1046 C1034 0.960 . S
H1047 C1034 0.962 . S
H1048 C1034 0.960 . S
H1049 C1035 0.961 . S
H1050 C1035 0.961 . S
H1051 C1035 0.961 . S
H1052 C1036 0.931 . S
H1053 C1041 0.930 . S
H1054 C1042 0.956 . S
H1055 C1042 0.961 . S
H1056 C1042 0.961 . S
H1057 C1043 0.958 . S
H1058 C1043 0.961 . S
H1059 C1043 0.960 . S
C1060 C1061 1.391 1_556 S
C1060 C1062 1.394 . S
C1060 H1076 0.931 . S
C1061 C1060 1.391 1_554 S
C1061 C1065 1.376 . S
C1062 C1060 1.394 . S
C1062 C1063 1.369 1_556 S
C1062 C1066 1.531 . S
C1063 C1062 1.369 1_554 S
C1063 C1064 1.410 . S
C1063 C1071 1.503 . S
C1064 C1063 1.410 . S
C1064 C1065 1.392 . S
C1064 C1067 1.511 . S
C1065 C1061 1.376 . S
C1065 C1064 1.392 . S
C1065 H1077 0.929 . S
C1066 C1062 1.531 . S
C1066 H1078 0.960 . S
C1066 H1079 0.962 . S
C1066 H1080 0.960 . S
C1067 C1064 1.511 . S
C1067 H1081 0.961 . S
C1067 H1082 0.961 . S
C1067 H1083 0.961 . S
C1068 C1069 1.370 1_556 S
C1068 C1070 1.363 . S
C1068 H1084 0.931 . S
C1069 C1068 1.370 1_554 S
C1069 C1073 1.408 . S
C1070 C1068 1.363 . S
C1070 C1071 1.370 1_556 S
C1070 C1074 1.524 . S
C1071 C1063 1.503 . S
C1071 C1070 1.370 1_554 S
C1071 C1072 1.403 . S
C1072 C1071 1.403 . S
C1072 C1073 1.404 . S
C1072 C1075 1.539 . S
C1073 C1069 1.408 . S
C1073 C1072 1.404 . S
C1073 H1085 0.930 . S
C1074 C1070 1.524 . S
C1074 H1086 0.956 . S
C1074 H1087 0.961 . S
C1074 H1088 0.961 . S
C1075 C1072 1.539 . S
C1075 H1089 0.958 . S
C1075 H1090 0.961 . S
C1075 H1091 0.960 . S
H1076 C1060 0.931 . S
H1077 C1065 0.929 . S
H1078 C1066 0.960 . S
H1079 C1066 0.962 . S
H1080 C1066 0.960 . S
H1081 C1067 0.961 . S
H1082 C1067 0.961 . S
H1083 C1067 0.961 . S
H1084 C1068 0.931 . S
H1085 C1073 0.930 . S
H1086 C1074 0.956 . S
H1087 C1074 0.961 . S
H1088 C1074 0.961 . S
H1089 C1075 0.958 . S
H1090 C1075 0.961 . S
H1091 C1075 0.960 . S
C1092 C1093 1.391 . S
C1092 C1094 1.394 . S
C1092 H1108 0.931 . S
C1093 C1092 1.391 . S
C1093 C1097 1.376 . S
C1094 C1092 1.394 . S
C1094 C1095 1.369 . S
C1094 C1098 1.531 . S
C1095 C1094 1.369 . S
C1095 C1096 1.410 . S
C1095 C1103 1.503 1_545 S
C1096 C1095 1.410 . S
C1096 C1097 1.392 . S
C1096 C1099 1.511 . S
C1097 C1093 1.376 . S
C1097 C1096 1.392 . S
C1097 H1109 0.929 . S
C1098 C1094 1.531 . S
C1098 H1110 0.960 1_545 S
C1098 H1111 0.962 . S
C1098 H1112 0.960 . S
C1099 C1096 1.511 . S
C1099 H1113 0.961 . S
C1099 H1114 0.961 . S
C1099 H1115 0.961 . S
C1100 C1101 1.370 . S
C1100 C1102 1.363 . S
C1100 H1116 0.931 . S
C1101 C1100 1.370 . S
C1101 C1105 1.408 . S
C1102 C1100 1.363 . S
C1102 C1103 1.370 . S
C1102 C1106 1.524 1_565 S
C1103 C1095 1.503 1_565 S
C1103 C1102 1.370 . S
C1103 C1104 1.403 . S
C1104 C1103 1.403 . S
C1104 C1105 1.404 . S
C1104 C1107 1.539 . S
C1105 C1101 1.408 . S
C1105 C1104 1.404 . S
C1105 H1117 0.930 . S
C1106 C1102 1.524 1_545 S
C1106 H1118 0.956 . S
C1106 H1119 0.961 . S
C1106 H1120 0.961 . S
C1107 C1104 1.539 . S
C1107 H1121 0.958 . S
C1107 H1122 0.961 . S
C1107 H1123 0.960 . S
H1108 C1092 0.931 . S
H1109 C1097 0.929 . S
H1110 C1098 0.960 1_565 S
H1111 C1098 0.962 . S
H1112 C1098 0.960 . S
H1113 C1099 0.961 . S
H1114 C1099 0.961 . S
H1115 C1099 0.961 . S
H1116 C1100 0.931 . S
H1117 C1105 0.930 . S
H1118 C1106 0.956 . S
H1119 C1106 0.961 . S
H1120 C1106 0.961 . S
H1121 C1107 0.958 . S
H1122 C1107 0.961 . S
H1123 C1107 0.960 . S
C1124 C1125 1.391 . S
C1124 C1126 1.394 . S
C1124 H1140 0.931 . S
C1125 C1124 1.391 . S
C1125 C1129 1.376 . S
C1126 C1124 1.394 . S
C1126 C1127 1.369 . S
C1126 C1130 1.531 . S
C1127 C1126 1.369 . S
C1127 C1128 1.410 . S
C1127 C1135 1.503 . S
C1128 C1127 1.410 . S
C1128 C1129 1.392 . S
C1128 C1131 1.511 . S
C1129 C1125 1.376 . S
C1129 C1128 1.392 . S
C1129 H1141 0.929 . S
C1130 C1126 1.531 . S
C1130 H1142 0.960 . S
C1130 H1143 0.962 . S
C1130 H1144 0.960 . S
C1131 C1128 1.511 . S
C1131 H1145 0.961 . S
C1131 H1146 0.961 . S
C1131 H1147 0.961 . S
C1132 C1133 1.370 . S
C1132 C1134 1.363 . S
C1132 H1148 0.931 . S
C1133 C1132 1.370 . S
C1133 C1137 1.408 . S
C1134 C1132 1.363 . S
C1134 C1135 1.370 . S
C1134 C1138 1.524 . S
C1135 C1127 1.503 . S
C1135 C1134 1.370 . S
C1135 C1136 1.403 . S
C1136 C1135 1.403 . S
C1136 C1137 1.404 . S
C1136 C1139 1.539 . S
C1137 C1133 1.408 . S
C1137 C1136 1.404 . S
C1137 H1149 0.930 . S
C1138 C1134 1.524 . S
C1138 H1150 0.956 . S
C1138 H1151 0.961 . S
C1138 H1152 0.961 . S
C1139 C1136 1.539 . S
C1139 H1153 0.958 . S
C1139 H1154 0.961 . S
C1139 H1155 0.960 . S
H1140 C1124 0.931 . S
H1141 C1129 0.929 . S
H1142 C1130 0.960 . S
H1143 C1130 0.962 . S
H1144 C1130 0.960 . S
H1145 C1131 0.961 . S
H1146 C1131 0.961 . S
H1147 C1131 0.961 . S
H1148 C1132 0.931 . S
H1149 C1137 0.930 . S
H1150 C1138 0.956 . S
H1151 C1138 0.961 . S
H1152 C1138 0.961 . S
H1153 C1139 0.958 . S
H1154 C1139 0.961 . S
H1155 C1139 0.960 . S
C1156 C1157 1.391 1_554 S
C1156 C1158 1.394 . S
C1156 H1172 0.931 . S
C1157 C1156 1.391 1_556 S
C1157 C1161 1.376 . S
C1158 C1156 1.394 . S
C1158 C1159 1.369 1_554 S
C1158 C1162 1.531 . S
C1159 C1158 1.369 1_556 S
C1159 C1160 1.410 . S
C1159 C1167 1.503 1_655 S
C1160 C1159 1.410 . S
C1160 C1161 1.392 . S
C1160 C1163 1.511 . S
C1161 C1157 1.376 . S
C1161 C1160 1.392 . S
C1161 H1173 0.929 . S
C1162 C1158 1.531 . S
C1162 H1174 0.958 1_655 S
C1162 H1175 0.962 . S
C1162 H1176 0.960 . S
C1163 C1160 1.511 . S
C1163 H1177 0.961 . S
C1163 H1178 0.961 1_655 S
C1163 H1179 0.961 1_655 S
C1164 C1165 1.370 . S
C1164 C1166 1.363 . S
C1164 H1180 0.931 . S
C1165 C1164 1.370 . S
C1165 C1169 1.408 . S
C1166 C1164 1.363 . S
C1166 C1167 1.370 . S
C1166 C1170 1.524 1_455 S
C1167 C1159 1.503 1_455 S
C1167 C1166 1.370 . S
C1167 C1168 1.403 . S
C1168 C1167 1.403 . S
C1168 C1169 1.404 . S
C1168 C1171 1.539 1_556 S
C1169 C1165 1.408 . S
C1169 C1168 1.404 . S
C1169 H1181 0.930 1_556 S
C1170 C1166 1.524 1_655 S
C1170 H1182 0.956 . S
C1170 H1183 0.961 . S
C1170 H1184 0.960 . S
C1171 C1168 1.539 1_554 S
C1171 H1185 0.958 . S
C1171 H1186 0.961 . S
C1171 H1187 0.960 1_554 S
H1172 C1156 0.931 . S
H1173 C1161 0.929 . S
H1174 C1162 0.958 1_455 S
H1175 C1162 0.962 . S
H1176 C1162 0.960 . S
H1177 C1163 0.961 . S
H1178 C1163 0.961 1_455 S
H1179 C1163 0.961 1_455 S
H1180 C1164 0.931 . S
H1181 C1169 0.930 1_554 S
H1182 C1170 0.956 . S
H1183 C1170 0.961 . S
H1184 C1170 0.960 . S
H1185 C1171 0.958 . S
H1186 C1171 0.961 . S
H1187 C1171 0.960 1_556 S
C1188 C1189 1.391 . S
C1188 C1190 1.394 . S
C1188 H1204 0.931 . S
C1189 C1188 1.391 . S
C1189 C1193 1.376 . S
C1190 C1188 1.394 . S
C1190 C1191 1.369 . S
C1190 C1194 1.531 . S
C1191 C1190 1.369 . S
C1191 C1192 1.410 . S
C1191 C1199 1.503 1_455 S
C1192 C1191 1.410 . S
C1192 C1193 1.392 . S
C1192 C1195 1.511 . S
C1193 C1189 1.376 . S
C1193 C1192 1.392 . S
C1193 H1205 0.929 . S
C1194 C1190 1.531 . S
C1194 H1206 0.960 1_455 S
C1194 H1207 0.962 1_455 S
C1194 H1208 0.960 . S
C1195 C1192 1.511 . S
C1195 H1209 0.961 . S
C1195 H1210 0.961 . S
C1195 H1211 0.961 . S
C1196 C1197 1.370 . S
C1196 C1198 1.363 . S
C1196 H1212 0.931 . S
C1197 C1196 1.370 . S
C1197 C1201 1.408 . S
C1198 C1196 1.363 . S
C1198 C1199 1.370 . S
C1198 C1202 1.524 . S
C1199 C1191 1.503 1_655 S
C1199 C1198 1.370 . S
C1199 C1200 1.403 . S
C1200 C1199 1.403 . S
C1200 C1201 1.404 . S
C1200 C1203 1.539 1_655 S
C1201 C1197 1.408 . S
C1201 C1200 1.404 . S
C1201 H1213 0.930 . S
C1202 C1198 1.524 . S
C1202 H1214 0.956 . S
C1202 H1215 0.961 . S
C1202 H1216 0.961 . S
C1203 C1200 1.539 1_455 S
C1203 H1217 0.958 . S
C1203 H1218 0.961 1_455 S
C1203 H1219 0.960 . S
H1204 C1188 0.931 . S
H1205 C1193 0.929 . S
H1206 C1194 0.960 1_655 S
H1207 C1194 0.962 1_655 S
H1208 C1194 0.960 . S
H1209 C1195 0.961 . S
H1210 C1195 0.961 . S
H1211 C1195 0.961 . S
H1212 C1196 0.931 . S
H1213 C1201 0.930 . S
H1214 C1202 0.956 . S
H1215 C1202 0.961 . S
H1216 C1202 0.961 . S
H1217 C1203 0.958 . S
H1218 C1203 0.961 1_655 S
H1219 C1203 0.960 . S
C1220 C1221 1.391 . S
C1220 C1222 1.394 . S
C1220 H1236 0.931 . S
C1221 C1220 1.391 . S
C1221 C1225 1.376 . S
C1222 C1220 1.394 . S
C1222 C1223 1.369 . S
C1222 C1226 1.531 . S
C1223 C1222 1.369 . S
C1223 C1224 1.410 . S
C1223 C1231 1.503 1_545 S
C1224 C1223 1.410 . S
C1224 C1225 1.392 . S
C1224 C1227 1.511 . S
C1225 C1221 1.376 . S
C1225 C1224 1.392 . S
C1225 H1237 0.929 . S
C1226 C1222 1.531 . S
C1226 H1238 0.960 . S
C1226 H1239 0.962 . S
C1226 H1240 0.960 . S
C1227 C1224 1.511 . S
C1227 H1241 0.961 . S
C1227 H1242 0.961 1_545 S
C1227 H1243 0.961 . S
C1228 C1229 1.370 . S
C1228 C1230 1.363 . S
C1228 H1244 0.931 . S
C1229 C1228 1.370 . S
C1229 C1233 1.408 . S
C1230 C1228 1.363 . S
C1230 C1231 1.370 . S
C1230 C1234 1.524 . S
C1231 C1223 1.503 1_565 S
C1231 C1230 1.370 . S
C1231 C1232 1.403 . S
C1232 C1231 1.403 . S
C1232 C1233 1.404 . S
C1232 C1235 1.539 1_565 S
C1233 C1229 1.408 . S
C1233 C1232 1.404 . S
C1233 H1245 0.930 . S
C1234 C1230 1.524 . S
C1234 H1246 0.956 . S
C1234 H1247 0.961 . S
C1234 H1248 0.961 . S
C1235 C1232 1.539 1_545 S
C1235 H1249 0.958 . S
C1235 H1250 0.963 1_545 S
C1235 H1251 0.960 . S
H1236 C1220 0.931 . S
H1237 C1225 0.929 . S
H1238 C1226 0.960 . S
H1239 C1226 0.962 . S
H1240 C1226 0.960 . S
H1241 C1227 0.961 . S
H1242 C1227 0.961 1_565 S
H1243 C1227 0.961 . S
H1244 C1228 0.931 . S
H1245 C1233 0.930 . S
H1246 C1234 0.956 . S
H1247 C1234 0.961 . S
H1248 C1234 0.961 . S
H1249 C1235 0.958 . S
H1250 C1235 0.963 1_565 S
H1251 C1235 0.960 . S
C1252 C1253 1.391 . S
C1252 C1254 1.394 . S
C1252 H1268 0.931 . S
C1253 C1252 1.391 . S
C1253 C1257 1.376 . S
C1254 C1252 1.394 . S
C1254 C1255 1.369 . S
C1254 C1258 1.531 . S
C1255 C1254 1.369 . S
C1255 C1256 1.410 . S
C1255 C1263 1.503 . S
C1256 C1255 1.410 . S
C1256 C1257 1.392 . S
C1256 C1259 1.511 . S
C1257 C1253 1.376 . S
C1257 C1256 1.392 . S
C1257 H1269 0.929 . S
C1258 C1254 1.531 . S
C1258 H1270 0.960 . S
C1258 H1271 0.962 . S
C1258 H1272 0.960 . S
C1259 C1256 1.511 . S
C1259 H1273 0.961 . S
C1259 H1274 0.961 . S
C1259 H1275 0.961 . S
C1260 C1261 1.370 . S
C1260 C1262 1.363 . S
C1260 H1276 0.931 1_554 S
C1261 C1260 1.370 . S
C1261 C1265 1.408 . S
C1262 C1260 1.363 . S
C1262 C1263 1.370 . S
C1262 C1266 1.524 1_554 S
C1263 C1255 1.503 . S
C1263 C1262 1.370 . S
C1263 C1264 1.403 . S
C1264 C1263 1.403 . S
C1264 C1265 1.404 . S
C1264 C1267 1.539 . S
C1265 C1261 1.408 . S
C1265 C1264 1.404 . S
C1265 H1277 0.930 . S
C1266 C1262 1.524 1_556 S
C1266 H1278 0.956 . S
C1266 H1279 0.961 . S
C1266 H1280 0.961 . S
C1267 C1264 1.539 . S
C1267 H1281 0.958 . S
C1267 H1282 0.961 . S
C1267 H1283 0.960 . S
H1268 C1252 0.931 . S
H1269 C1257 0.929 . S
H1270 C1258 0.960 . S
H1271 C1258 0.962 . S
H1272 C1258 0.960 . S
H1273 C1259 0.961 . S
H1274 C1259 0.961 . S
H1275 C1259 0.961 . S
H1276 C1260 0.931 1_556 S
H1277 C1265 0.930 . S
H1278 C1266 0.956 . S
H1279 C1266 0.961 . S
H1280 C1266 0.961 . S
H1281 C1267 0.958 . S
H1282 C1267 0.961 . S
H1283 C1267 0.960 . S
C1284 C1285 1.391 . S
C1284 C1286 1.394 . S
C1284 H1300 0.931 . S
C1285 C1284 1.391 . S
C1285 C1289 1.376 . S
C1286 C1284 1.394 . S
C1286 C1287 1.369 . S
C1286 C1290 1.531 . S
C1287 C1286 1.369 . S
C1287 C1288 1.410 . S
C1287 C1295 1.503 . S
C1288 C1287 1.410 . S
C1288 C1289 1.392 . S
C1288 C1291 1.511 . S
C1289 C1285 1.376 . S
C1289 C1288 1.392 . S
C1289 H1301 0.929 . S
C1290 C1286 1.531 . S
C1290 H1302 0.960 . S
C1290 H1303 0.962 . S
C1290 H1304 0.960 . S
C1291 C1288 1.511 . S
C1291 H1305 0.961 . S
C1291 H1306 0.961 . S
C1291 H1307 0.961 . S
C1292 C1293 1.370 . S
C1292 C1294 1.363 . S
C1292 H1308 0.931 . S
C1293 C1292 1.370 . S
C1293 C1297 1.408 . S
C1294 C1292 1.363 . S
C1294 C1295 1.370 . S
C1294 C1298 1.524 . S
C1295 C1287 1.503 . S
C1295 C1294 1.370 . S
C1295 C1296 1.403 . S
C1296 C1295 1.403 . S
C1296 C1297 1.404 . S
C1296 C1299 1.539 . S
C1297 C1293 1.408 . S
C1297 C1296 1.404 . S
C1297 H1309 0.930 . S
C1298 C1294 1.524 . S
C1298 H1310 0.956 . S
C1298 H1311 0.961 . S
C1298 H1312 0.961 . S
C1299 C1296 1.539 . S
C1299 H1313 0.958 . S
C1299 H1314 0.961 . S
C1299 H1315 0.960 . S
H1300 C1284 0.931 . S
H1301 C1289 0.929 . S
H1302 C1290 0.960 . S
H1303 C1290 0.962 . S
H1304 C1290 0.960 . S
H1305 C1291 0.961 . S
H1306 C1291 0.961 . S
H1307 C1291 0.961 . S
H1308 C1292 0.931 . S
H1309 C1297 0.930 . S
H1310 C1298 0.956 . S
H1311 C1298 0.961 . S
H1312 C1298 0.961 . S
H1313 C1299 0.958 . S
H1314 C1299 0.961 . S
H1315 C1299 0.960 . S
C1316 C1317 1.391 . S
C1316 C1318 1.394 . S
C1316 H1332 0.931 . S
C1317 C1316 1.391 . S
C1317 C1321 1.376 . S
C1318 C1316 1.394 . S
C1318 C1319 1.369 . S
C1318 C1322 1.531 . S
C1319 C1318 1.369 . S
C1319 C1320 1.410 . S
C1319 C1327 1.503 . S
C1320 C1319 1.410 . S
C1320 C1321 1.392 . S
C1320 C1323 1.511 . S
C1321 C1317 1.376 . S
C1321 C1320 1.392 . S
C1321 H1333 0.929 . S
C1322 C1318 1.531 . S
C1322 H1334 0.960 . S
C1322 H1335 0.962 . S
C1322 H1336 0.960 . S
C1323 C1320 1.511 . S
C1323 H1337 0.961 . S
C1323 H1338 0.961 . S
C1323 H1339 0.961 . S
C1324 C1325 1.370 . S
C1324 C1326 1.363 . S
C1324 H1340 0.931 . S
C1325 C1324 1.370 . S
C1325 C1329 1.408 . S
C1326 C1324 1.363 . S
C1326 C1327 1.370 . S
C1326 C1330 1.524 . S
C1327 C1319 1.503 . S
C1327 C1326 1.370 . S
C1327 C1328 1.403 . S
C1328 C1327 1.403 . S
C1328 C1329 1.404 . S
C1328 C1331 1.539 . S
C1329 C1325 1.408 . S
C1329 C1328 1.404 . S
C1329 H1341 0.930 . S
C1330 C1326 1.524 . S
C1330 H1342 0.956 . S
C1330 H1343 0.961 . S
C1330 H1344 0.961 . S
C1331 C1328 1.539 . S
C1331 H1345 0.958 . S
C1331 H1346 0.961 . S
C1331 H1347 0.960 . S
H1332 C1316 0.931 . S
H1333 C1321 0.929 . S
H1334 C1322 0.960 . S
H1335 C1322 0.962 . S
H1336 C1322 0.960 . S
H1337 C1323 0.961 . S
H1338 C1323 0.961 . S
H1339 C1323 0.961 . S
H1340 C1324 0.931 . S
H1341 C1329 0.930 . S
H1342 C1330 0.956 . S
H1343 C1330 0.961 . S
H1344 C1330 0.961 . S
H1345 C1331 0.958 . S
H1346 C1331 0.961 . S
H1347 C1331 0.960 . S
C1348 C1349 1.391 . S
C1348 C1350 1.394 . S
C1348 H1364 0.931 . S
C1349 C1348 1.391 . S
C1349 C1353 1.376 . S
C1350 C1348 1.394 . S
C1350 C1351 1.369 . S
C1350 C1354 1.531 . S
C1351 C1350 1.369 . S
C1351 C1352 1.410 . S
C1351 C1359 1.503 . S
C1352 C1351 1.410 . S
C1352 C1353 1.392 . S
C1352 C1355 1.511 . S
C1353 C1349 1.376 . S
C1353 C1352 1.392 . S
C1353 H1365 0.929 . S
C1354 C1350 1.531 . S
C1354 H1366 0.960 . S
C1354 H1367 0.962 . S
C1354 H1368 0.960 . S
C1355 C1352 1.511 . S
C1355 H1369 0.961 . S
C1355 H1370 0.961 . S
C1355 H1371 0.961 . S
C1356 C1357 1.370 . S
C1356 C1358 1.363 . S
C1356 H1372 0.931 . S
C1357 C1356 1.370 . S
C1357 C1361 1.408 . S
C1358 C1356 1.363 . S
C1358 C1359 1.370 . S
C1358 C1362 1.524 . S
C1359 C1351 1.503 . S
C1359 C1358 1.370 . S
C1359 C1360 1.403 . S
C1360 C1359 1.403 . S
C1360 C1361 1.404 . S
C1360 C1363 1.539 . S
C1361 C1357 1.408 . S
C1361 C1360 1.404 . S
C1361 H1373 0.930 . S
C1362 C1358 1.524 . S
C1362 H1374 0.956 . S
C1362 H1375 0.961 . S
C1362 H1376 0.961 . S
C1363 C1360 1.539 . S
C1363 H1377 0.958 . S
C1363 H1378 0.961 . S
C1363 H1379 0.960 . S
H1364 C1348 0.931 . S
H1365 C1353 0.929 . S
H1366 C1354 0.960 . S
H1367 C1354 0.962 . S
H1368 C1354 0.960 . S
H1369 C1355 0.961 . S
H1370 C1355 0.961 . S
H1371 C1355 0.961 . S
H1372 C1356 0.931 . S
H1373 C1361 0.930 . S
H1374 C1362 0.956 . S
H1375 C1362 0.961 . S
H1376 C1362 0.961 . S
H1377 C1363 0.958 . S
H1378 C1363 0.961 . S
H1379 C1363 0.960 . S
C1380 C1381 1.391 . S
C1380 C1382 1.394 . S
C1380 H1396 0.931 . S
C1381 C1380 1.391 . S
C1381 C1385 1.376 . S
C1382 C1380 1.394 . S
C1382 C1383 1.369 . S
C1382 C1386 1.531 . S
C1383 C1382 1.369 . S
C1383 C1384 1.410 . S
C1383 C1391 1.503 . S
C1384 C1383 1.410 . S
C1384 C1385 1.392 . S
C1384 C1387 1.511 . S
C1385 C1381 1.376 . S
C1385 C1384 1.392 . S
C1385 H1397 0.929 . S
C1386 C1382 1.531 . S
C1386 H1398 0.960 . S
C1386 H1399 0.962 . S
C1386 H1400 0.960 . S
C1387 C1384 1.511 . S
C1387 H1401 0.961 . S
C1387 H1402 0.961 . S
C1387 H1403 0.961 . S
C1388 C1389 1.370 . S
C1388 C1390 1.363 . S
C1388 H1404 0.931 . S
C1389 C1388 1.370 . S
C1389 C1393 1.408 . S
C1390 C1388 1.363 . S
C1390 C1391 1.370 . S
C1390 C1394 1.524 . S
C1391 C1383 1.503 . S
C1391 C1390 1.370 . S
C1391 C1392 1.403 . S
C1392 C1391 1.403 . S
C1392 C1393 1.404 . S
C1392 C1395 1.539 . S
C1393 C1389 1.408 . S
C1393 C1392 1.404 . S
C1393 H1405 0.930 . S
C1394 C1390 1.524 . S
C1394 H1406 0.956 . S
C1394 H1407 0.961 . S
C1394 H1408 0.961 . S
C1395 C1392 1.539 . S
C1395 H1409 0.958 . S
C1395 H1410 0.961 . S
C1395 H1411 0.960 . S
H1396 C1380 0.931 . S
H1397 C1385 0.929 . S
H1398 C1386 0.960 . S
H1399 C1386 0.962 . S
H1400 C1386 0.960 . S
H1401 C1387 0.961 . S
H1402 C1387 0.961 . S
H1403 C1387 0.961 . S
H1404 C1388 0.931 . S
H1405 C1393 0.930 . S
H1406 C1394 0.956 . S
H1407 C1394 0.961 . S
H1408 C1394 0.961 . S
H1409 C1395 0.958 . S
H1410 C1395 0.961 . S
H1411 C1395 0.960 . S
C1412 C1413 1.391 . S
C1412 C1414 1.394 . S
C1412 H1428 0.931 . S
C1413 C1412 1.391 . S
C1413 C1417 1.376 . S
C1414 C1412 1.394 . S
C1414 C1415 1.369 . S
C1414 C1418 1.531 . S
C1415 C1414 1.369 . S
C1415 C1416 1.410 . S
C1415 C1423 1.503 . S
C1416 C1415 1.410 . S
C1416 C1417 1.392 . S
C1416 C1419 1.511 . S
C1417 C1413 1.376 . S
C1417 C1416 1.392 . S
C1417 H1429 0.929 . S
C1418 C1414 1.531 . S
C1418 H1430 0.960 . S
C1418 H1431 0.962 . S
C1418 H1432 0.960 . S
C1419 C1416 1.511 . S
C1419 H1433 0.961 . S
C1419 H1434 0.961 . S
C1419 H1435 0.961 . S
C1420 C1421 1.370 . S
C1420 C1422 1.363 . S
C1420 H1436 0.931 . S
C1421 C1420 1.370 . S
C1421 C1425 1.408 . S
C1422 C1420 1.363 . S
C1422 C1423 1.370 . S
C1422 C1426 1.524 . S
C1423 C1415 1.503 . S
C1423 C1422 1.370 . S
C1423 C1424 1.403 . S
C1424 C1423 1.403 . S
C1424 C1425 1.404 . S
C1424 C1427 1.539 . S
C1425 C1421 1.408 . S
C1425 C1424 1.404 . S
C1425 H1437 0.930 . S
C1426 C1422 1.524 . S
C1426 H1438 0.956 . S
C1426 H1439 0.961 . S
C1426 H1440 0.961 . S
C1427 C1424 1.539 . S
C1427 H1441 0.958 . S
C1427 H1442 0.961 . S
C1427 H1443 0.960 . S
H1428 C1412 0.931 . S
H1429 C1417 0.929 . S
H1430 C1418 0.960 . S
H1431 C1418 0.962 . S
H1432 C1418 0.960 . S
H1433 C1419 0.961 . S
H1434 C1419 0.961 . S
H1435 C1419 0.961 . S
H1436 C1420 0.931 . S
H1437 C1425 0.930 . S
H1438 C1426 0.956 . S
H1439 C1426 0.961 . S
H1440 C1426 0.961 . S
H1441 C1427 0.958 . S
H1442 C1427 0.961 . S
H1443 C1427 0.960 . S
C1444 C1445 1.391 . S
C1444 C1446 1.394 . S
C1444 H1460 0.931 . S
C1445 C1444 1.391 . S
C1445 C1449 1.376 . S
C1446 C1444 1.394 . S
C1446 C1447 1.369 . S
C1446 C1450 1.531 . S
C1447 C1446 1.369 . S
C1447 C1448 1.410 . S
C1447 C1455 1.503 . S
C1448 C1447 1.410 . S
C1448 C1449 1.392 . S
C1448 C1451 1.511 . S
C1449 C1445 1.376 . S
C1449 C1448 1.392 . S
C1449 H1461 0.929 . S
C1450 C1446 1.531 . S
C1450 H1462 0.960 . S
C1450 H1463 0.962 . S
C1450 H1464 0.960 . S
C1451 C1448 1.511 . S
C1451 H1465 0.961 . S
C1451 H1466 0.961 . S
C1451 H1467 0.961 . S
C1452 C1453 1.370 . S
C1452 C1454 1.363 . S
C1452 H1468 0.931 . S
C1453 C1452 1.370 . S
C1453 C1457 1.408 . S
C1454 C1452 1.363 . S
C1454 C1455 1.370 . S
C1454 C1458 1.524 . S
C1455 C1447 1.503 . S
C1455 C1454 1.370 . S
C1455 C1456 1.403 . S
C1456 C1455 1.403 . S
C1456 C1457 1.404 . S
C1456 C1459 1.539 . S
C1457 C1453 1.408 . S
C1457 C1456 1.404 . S
C1457 H1469 0.930 . S
C1458 C1454 1.524 . S
C1458 H1470 0.956 . S
C1458 H1471 0.961 . S
C1458 H1472 0.961 . S
C1459 C1456 1.539 . S
C1459 H1473 0.958 . S
C1459 H1474 0.961 . S
C1459 H1475 0.960 . S
H1460 C1444 0.931 . S
H1461 C1449 0.929 . S
H1462 C1450 0.960 . S
H1463 C1450 0.962 . S
H1464 C1450 0.960 . S
H1465 C1451 0.961 . S
H1466 C1451 0.961 . S
H1467 C1451 0.961 . S
H1468 C1452 0.931 . S
H1469 C1457 0.930 . S
H1470 C1458 0.956 . S
H1471 C1458 0.961 . S
H1472 C1458 0.961 . S
H1473 C1459 0.958 . S
H1474 C1459 0.961 . S
H1475 C1459 0.960 . S
C709 C33 1.793 . S
C717 C623 1.799 . S
C741 C92 1.813 . S
C749 C682 1.789 . S
C773 C387 1.764 . S
C781 C151 1.808 . S
C805 C210 1.812 . S
C813 C446 1.786 . S
C837 C505 1.766 . S
C845 C269 1.805 . S
C869 C564 1.763 . S
C877 C328 1.808 . S
C901 C406 0.595 . S
C909 C52 0.606 . S
C933 C465 0.593 . S
C941 C111 0.610 . S
C965 C524 0.609 . S
C973 C170 0.598 1_554 S
C997 C229 0.597 . S
C1005 C583 0.611 . S
C1029 C288 0.595 . S
C1037 C642 0.611 . S
C1061 C347 0.611 1_554 S
C1069 C701 0.599 . S
C1093 C5 1.539 . S
C1101 C182 1.525 . S
C1125 C64 1.540 . S
C1133 C241 1.533 . S
C1157 C123 1.529 . S
C1165 C300 1.521 . S
C1189 C536 1.518 . S
C1197 C359 1.534 . S
C1221 C595 1.511 . S
C1229 C418 1.531 . S
C1253 C654 1.537 . S
C1261 C477 1.532 . S
C1285 C3 1.318 . S
C1293 C475 1.345 . S
C1317 C534 1.390 . S
C1325 C62 1.374 . S
C1349 C121 1.364 . S
C1357 C593 1.356 . S
C1381 C652 1.318 . S
C1389 C180 1.344 . S
C1413 C239 1.391 . S
C1421 C357 1.371 . S
C1445 C298 1.337 . S
C1453 C416 1.357 . S
