# Generated by pormake.
# Topology ato, (4)-cn, num edge types: 1
# Building blocks:
#     Node 0, Type 0, BuildingBlock: QUQFOY_clean_sbu_1, # of connection points: 4
#     Node 1, Type 0, BuildingBlock: QUQFOY_clean_sbu_1, # of connection points: 4
#     Node 2, Type 0, BuildingBlock: QUQFOY_clean_sbu_1, # of connection points: 4
#     Node 3, Type 0, BuildingBlock: QUQFOY_clean_sbu_1, # of connection points: 4
#     Node 4, Type 0, BuildingBlock: QUQFOY_clean_sbu_1, # of connection points: 4
#     Node 5, Type 0, BuildingBlock: QUQFOY_clean_sbu_1, # of connection points: 4
#     Node 6, Type 0, BuildingBlock: QUQFOY_clean_sbu_1, # of connection points: 4
#     Node 7, Type 0, BuildingBlock: QUQFOY_clean_sbu_1, # of connection points: 4
#     Node 8, Type 0, BuildingBlock: QUQFOY_clean_sbu_1, # of connection points: 4
#     Node 9, Type 0, BuildingBlock: QUQFOY_clean_sbu_1, # of connection points: 4
#     Node 10, Type 0, BuildingBlock: QUQFOY_clean_sbu_1, # of connection points: 4
#     Node 11, Type 0, BuildingBlock: QUQFOY_clean_sbu_1, # of connection points: 4
#     Node 12, Type 0, BuildingBlock: QUQFOY_clean_sbu_1, # of connection points: 4
#     Node 13, Type 0, BuildingBlock: QUQFOY_clean_sbu_1, # of connection points: 4
#     Node 14, Type 0, BuildingBlock: QUQFOY_clean_sbu_1, # of connection points: 4
#     Node 15, Type 0, BuildingBlock: QUQFOY_clean_sbu_1, # of connection points: 4
#     Node 16, Type 0, BuildingBlock: QUQFOY_clean_sbu_1, # of connection points: 4
#     Node 17, Type 0, BuildingBlock: QUQFOY_clean_sbu_1, # of connection points: 4
#     Node 18, Type 0, BuildingBlock: QUQFOY_clean_sbu_1, # of connection points: 4
#     Node 19, Type 0, BuildingBlock: QUQFOY_clean_sbu_1, # of connection points: 4
#     Node 20, Type 0, BuildingBlock: QUQFOY_clean_sbu_1, # of connection points: 4
#     Node 21, Type 0, BuildingBlock: QUQFOY_clean_sbu_1, # of connection points: 4
#     Node 22, Type 0, BuildingBlock: QUQFOY_clean_sbu_1, # of connection points: 4
#     Node 23, Type 0, BuildingBlock: QUQFOY_clean_sbu_1, # of connection points: 4
#     Node 24, Type 0, BuildingBlock: QUQFOY_clean_sbu_1, # of connection points: 4
#     Node 25, Type 0, BuildingBlock: QUQFOY_clean_sbu_1, # of connection points: 4
#     Node 26, Type 0, BuildingBlock: QUQFOY_clean_sbu_1, # of connection points: 4
#     Node 27, Type 0, BuildingBlock: QUQFOY_clean_sbu_1, # of connection points: 4
#     Node 28, Type 0, BuildingBlock: QUQFOY_clean_sbu_1, # of connection points: 4
#     Node 29, Type 0, BuildingBlock: QUQFOY_clean_sbu_1, # of connection points: 4
#     Node 30, Type 0, BuildingBlock: QUQFOY_clean_sbu_1, # of connection points: 4
#     Node 31, Type 0, BuildingBlock: QUQFOY_clean_sbu_1, # of connection points: 4
#     Node 32, Type 0, BuildingBlock: QUQFOY_clean_sbu_1, # of connection points: 4
#     Node 33, Type 0, BuildingBlock: QUQFOY_clean_sbu_1, # of connection points: 4
#     Node 34, Type 0, BuildingBlock: QUQFOY_clean_sbu_1, # of connection points: 4
#     Node 35, Type 0, BuildingBlock: QUQFOY_clean_sbu_1, # of connection points: 4
#     Edge 36, Type (0, 0), BuildingBlock: TEMPAE_clean_linker_10, # of connection points: 2
#     Edge 37, Type (0, 0), BuildingBlock: TEMPAE_clean_linker_10, # of connection points: 2
#     Edge 38, Type (0, 0), BuildingBlock: TEMPAE_clean_linker_10, # of connection points: 2
#     Edge 39, Type (0, 0), BuildingBlock: TEMPAE_clean_linker_10, # of connection points: 2
#     Edge 40, Type (0, 0), BuildingBlock: TEMPAE_clean_linker_10, # of connection points: 2
#     Edge 41, Type (0, 0), BuildingBlock: TEMPAE_clean_linker_10, # of connection points: 2
#     Edge 42, Type (0, 0), BuildingBlock: TEMPAE_clean_linker_10, # of connection points: 2
#     Edge 43, Type (0, 0), BuildingBlock: TEMPAE_clean_linker_10, # of connection points: 2
#     Edge 44, Type (0, 0), BuildingBlock: TEMPAE_clean_linker_10, # of connection points: 2
#     Edge 45, Type (0, 0), BuildingBlock: TEMPAE_clean_linker_10, # of connection points: 2
#     Edge 46, Type (0, 0), BuildingBlock: TEMPAE_clean_linker_10, # of connection points: 2
#     Edge 47, Type (0, 0), BuildingBlock: TEMPAE_clean_linker_10, # of connection points: 2
#     Edge 48, Type (0, 0), BuildingBlock: TEMPAE_clean_linker_10, # of connection points: 2
#     Edge 49, Type (0, 0), BuildingBlock: TEMPAE_clean_linker_10, # of connection points: 2
#     Edge 50, Type (0, 0), BuildingBlock: TEMPAE_clean_linker_10, # of connection points: 2
#     Edge 51, Type (0, 0), BuildingBlock: TEMPAE_clean_linker_10, # of connection points: 2
#     Edge 52, Type (0, 0), BuildingBlock: TEMPAE_clean_linker_10, # of connection points: 2
#     Edge 53, Type (0, 0), BuildingBlock: TEMPAE_clean_linker_10, # of connection points: 2
#     Edge 54, Type (0, 0), BuildingBlock: TEMPAE_clean_linker_10, # of connection points: 2
#     Edge 55, Type (0, 0), BuildingBlock: TEMPAE_clean_linker_10, # of connection points: 2
#     Edge 56, Type (0, 0), BuildingBlock: TEMPAE_clean_linker_10, # of connection points: 2
#     Edge 57, Type (0, 0), BuildingBlock: TEMPAE_clean_linker_10, # of connection points: 2
#     Edge 58, Type (0, 0), BuildingBlock: TEMPAE_clean_linker_10, # of connection points: 2
#     Edge 59, Type (0, 0), BuildingBlock: TEMPAE_clean_linker_10, # of connection points: 2
#     Edge 60, Type (0, 0), BuildingBlock: TEMPAE_clean_linker_10, # of connection points: 2
#     Edge 61, Type (0, 0), BuildingBlock: TEMPAE_clean_linker_10, # of connection points: 2
#     Edge 62, Type (0, 0), BuildingBlock: TEMPAE_clean_linker_10, # of connection points: 2
#     Edge 63, Type (0, 0), BuildingBlock: TEMPAE_clean_linker_10, # of connection points: 2
#     Edge 64, Type (0, 0), BuildingBlock: TEMPAE_clean_linker_10, # of connection points: 2
#     Edge 65, Type (0, 0), BuildingBlock: TEMPAE_clean_linker_10, # of connection points: 2
#     Edge 66, Type (0, 0), BuildingBlock: TEMPAE_clean_linker_10, # of connection points: 2
#     Edge 67, Type (0, 0), BuildingBlock: TEMPAE_clean_linker_10, # of connection points: 2
#     Edge 68, Type (0, 0), BuildingBlock: TEMPAE_clean_linker_10, # of connection points: 2
#     Edge 69, Type (0, 0), BuildingBlock: TEMPAE_clean_linker_10, # of connection points: 2
#     Edge 70, Type (0, 0), BuildingBlock: TEMPAE_clean_linker_10, # of connection points: 2
#     Edge 71, Type (0, 0), BuildingBlock: TEMPAE_clean_linker_10, # of connection points: 2
#     Edge 72, Type (0, 0), BuildingBlock: TEMPAE_clean_linker_10, # of connection points: 2
#     Edge 73, Type (0, 0), BuildingBlock: TEMPAE_clean_linker_10, # of connection points: 2
#     Edge 74, Type (0, 0), BuildingBlock: TEMPAE_clean_linker_10, # of connection points: 2
#     Edge 75, Type (0, 0), BuildingBlock: TEMPAE_clean_linker_10, # of connection points: 2
#     Edge 76, Type (0, 0), BuildingBlock: TEMPAE_clean_linker_10, # of connection points: 2
#     Edge 77, Type (0, 0), BuildingBlock: TEMPAE_clean_linker_10, # of connection points: 2
#     Edge 78, Type (0, 0), BuildingBlock: TEMPAE_clean_linker_10, # of connection points: 2
#     Edge 79, Type (0, 0), BuildingBlock: TEMPAE_clean_linker_10, # of connection points: 2
#     Edge 80, Type (0, 0), BuildingBlock: TEMPAE_clean_linker_10, # of connection points: 2
#     Edge 81, Type (0, 0), BuildingBlock: TEMPAE_clean_linker_10, # of connection points: 2
#     Edge 82, Type (0, 0), BuildingBlock: TEMPAE_clean_linker_10, # of connection points: 2
#     Edge 83, Type (0, 0), BuildingBlock: TEMPAE_clean_linker_10, # of connection points: 2
#     Edge 84, Type (0, 0), BuildingBlock: TEMPAE_clean_linker_10, # of connection points: 2
#     Edge 85, Type (0, 0), BuildingBlock: TEMPAE_clean_linker_10, # of connection points: 2
#     Edge 86, Type (0, 0), BuildingBlock: TEMPAE_clean_linker_10, # of connection points: 2
#     Edge 87, Type (0, 0), BuildingBlock: TEMPAE_clean_linker_10, # of connection points: 2
#     Edge 88, Type (0, 0), BuildingBlock: TEMPAE_clean_linker_10, # of connection points: 2
#     Edge 89, Type (0, 0), BuildingBlock: TEMPAE_clean_linker_10, # of connection points: 2
#     Edge 90, Type (0, 0), BuildingBlock: TEMPAE_clean_linker_10, # of connection points: 2
#     Edge 91, Type (0, 0), BuildingBlock: TEMPAE_clean_linker_10, # of connection points: 2
#     Edge 92, Type (0, 0), BuildingBlock: TEMPAE_clean_linker_10, # of connection points: 2
#     Edge 93, Type (0, 0), BuildingBlock: TEMPAE_clean_linker_10, # of connection points: 2
#     Edge 94, Type (0, 0), BuildingBlock: TEMPAE_clean_linker_10, # of connection points: 2
#     Edge 95, Type (0, 0), BuildingBlock: TEMPAE_clean_linker_10, # of connection points: 2
#     Edge 96, Type (0, 0), BuildingBlock: TEMPAE_clean_linker_10, # of connection points: 2
#     Edge 97, Type (0, 0), BuildingBlock: TEMPAE_clean_linker_10, # of connection points: 2
#     Edge 98, Type (0, 0), BuildingBlock: TEMPAE_clean_linker_10, # of connection points: 2
#     Edge 99, Type (0, 0), BuildingBlock: TEMPAE_clean_linker_10, # of connection points: 2
#     Edge 100, Type (0, 0), BuildingBlock: TEMPAE_clean_linker_10, # of connection points: 2
#     Edge 101, Type (0, 0), BuildingBlock: TEMPAE_clean_linker_10, # of connection points: 2
#     Edge 102, Type (0, 0), BuildingBlock: TEMPAE_clean_linker_10, # of connection points: 2
#     Edge 103, Type (0, 0), BuildingBlock: TEMPAE_clean_linker_10, # of connection points: 2
#     Edge 104, Type (0, 0), BuildingBlock: TEMPAE_clean_linker_10, # of connection points: 2
#     Edge 105, Type (0, 0), BuildingBlock: TEMPAE_clean_linker_10, # of connection points: 2
#     Edge 106, Type (0, 0), BuildingBlock: TEMPAE_clean_linker_10, # of connection points: 2
#     Edge 107, Type (0, 0), BuildingBlock: TEMPAE_clean_linker_10, # of connection points: 2
# Relax obj value: 0.079
# Max RMSD: 0.154
# Mean RMSD: 0.154
data_MOF--net-ato--node1-QUQFOY_clean_sbu_1--edge1-TEMPAE_clean_linker_10
_symmetry_space_group_name_H-M    P1
_symmetry_Int_Tables_number       1
_symmetry_cell_setting            triclinic
loop_
_symmetry_equiv_pos_as_xyz
'x, y, z'
_cell_length_a     111.91133
_cell_length_b     111.85882
_cell_length_c     24.596479
_cell_angle_alpha  90.000877
_cell_angle_beta   90.012968
_cell_angle_gamma 119.98578
loop_
_atom_site_label
_atom_site_type_symbol
_atom_site_fract_x
_atom_site_fract_y
_atom_site_fract_z
_atom_type_partial_charge
O0 O 0.2455 0.03132 0.18502 0.0
Cd1 Cd 0.25707 0.04269 0.25034 0.0
Cd2 Cd 0.25444 0.06291 0.18814 0.0
O3 O 0.24138 0.04608 0.1411 0.0
O4 O 0.25712 0.02783 0.29459 0.0
O5 O 0.24779 0.03999 0.32354 0.0
C6 C 0.2504 0.03011 0.33164 0.0
C7 C 0.24899 0.08026 0.20375 0.0
C8 C 0.23975 0.03405 0.14625 0.0
C9 C 0.28303 0.06656 0.20643 0.0
O10 O 0.27537 0.07024 0.1821 0.0
O11 O 0.27781 0.05623 0.23829 0.0
O12 O 0.25333 0.07875 0.15721 0.0
O13 O 0.24715 0.0715 0.24164 0.0
O14 O 0.96747 0.21234 0.19029 0.0
Cd15 Cd 0.95697 0.21371 0.25632 0.0
Cd16 Cd 0.93575 0.19051 0.20082 0.0
O17 O 0.95175 0.19306 0.15144 0.0
O18 O 0.97242 0.22838 0.29911 0.0
O19 O 0.95952 0.20711 0.32957 0.0
C20 C 0.96984 0.21941 0.33669 0.0
C21 C 0.91824 0.16806 0.22033 0.0
C22 C 0.96398 0.20324 0.15342 0.0
C23 C 0.93324 0.21625 0.21461 0.0
O24 O 0.92888 0.20446 0.19311 0.0
O25 O 0.94397 0.22156 0.24428 0.0
O26 O 0.91941 0.17354 0.1732 0.0
O27 O 0.92737 0.17518 0.25677 0.0
O28 O 0.78747 0.75609 0.18498 0.0
Cd29 Cd 0.78661 0.74412 0.24987 0.0
Cd30 Cd 0.8095 0.74656 0.19146 0.0
O31 O 0.80661 0.76008 0.14377 0.0
O32 O 0.77186 0.74443 0.29371 0.0
O33 O 0.79323 0.75314 0.32334 0.0
C34 C 0.78086 0.75089 0.3311 0.0
C35 C 0.83193 0.75161 0.21159 0.0
C36 C 0.79633 0.76194 0.14753 0.0
C37 C 0.78423 0.7181 0.2057 0.0
O38 O 0.79578 0.72572 0.18286 0.0
O39 O 0.77903 0.72333 0.23698 0.0
O40 O 0.82666 0.74761 0.16394 0.0
O41 O 0.82463 0.75333 0.2481 0.0
O42 O 0.02981 0.24174 0.81495 0.0
Cd43 Cd 0.04229 0.25375 0.7528 0.0
Cd44 Cd 0.061 0.24939 0.81244 0.0
O45 O 0.04351 0.23543 0.85392 0.0
O46 O 0.0285 0.25517 0.70645 0.0
O47 O 0.04006 0.24509 0.67864 0.0
C48 C 0.03071 0.24839 0.66938 0.0
C49 C 0.07723 0.24307 0.78829 0.0
C50 C 0.03184 0.23467 0.85031 0.0
C51 C 0.06618 0.2785 0.80449 0.0
O52 O 0.06902 0.27018 0.82866 0.0
O53 O 0.05651 0.27407 0.76959 0.0
O54 O 0.07527 0.24511 0.83823 0.0
O55 O 0.0697 0.24431 0.75142 0.0
O56 O 0.75535 0.78714 0.81034 0.0
Cd57 Cd 0.74363 0.78679 0.74539 0.0
Cd58 Cd 0.74675 0.80993 0.80407 0.0
O59 O 0.76024 0.80669 0.85054 0.0
O60 O 0.7436 0.77201 0.7005 0.0
O61 O 0.75286 0.79358 0.67241 0.0
C62 C 0.7503 0.78113 0.66377 0.0
C63 C 0.75203 0.83252 0.78576 0.0
C64 C 0.76159 0.79609 0.84719 0.0
C65 C 0.71799 0.78501 0.79014 0.0
O66 O 0.72587 0.79645 0.81336 0.0
O67 O 0.72294 0.77968 0.75811 0.0
O68 O 0.74809 0.8271 0.83319 0.0
O69 O 0.75358 0.82529 0.74841 0.0
O70 O 0.21513 0.96707 0.80975 0.0
Cd71 Cd 0.21524 0.95595 0.74341 0.0
Cd72 Cd 0.19189 0.93567 0.80202 0.0
O73 O 0.19568 0.95232 0.85031 0.0
O74 O 0.22996 0.97083 0.69867 0.0
O75 O 0.2083 0.95877 0.67141 0.0
C76 C 0.22075 0.96865 0.66263 0.0
C77 C 0.16904 0.91863 0.78584 0.0
C78 C 0.20631 0.96425 0.84727 0.0
C79 C 0.21651 0.93141 0.78416 0.0
O80 O 0.2051 0.92784 0.80766 0.0
O81 O 0.22205 0.94201 0.75377 0.0
O82 O 0.17483 0.91993 0.83236 0.0
O83 O 0.17605 0.92744 0.74827 0.0
O84 O 0.75429 0.96863 0.81216 0.0
Cd85 Cd 0.74326 0.95704 0.74636 0.0
Cd86 Cd 0.7472 0.93748 0.80284 0.0
O87 O 0.75995 0.95433 0.85018 0.0
O88 O 0.74245 0.97143 0.70159 0.0
O89 O 0.75294 0.96024 0.67398 0.0
C90 C 0.74974 0.96969 0.66536 0.0
C91 C 0.75477 0.92215 0.77966 0.0
C92 C 0.76071 0.96603 0.84855 0.0
C93 C 0.71801 0.93184 0.78884 0.0
O94 O 0.72609 0.92863 0.81278 0.0
O95 O 0.72281 0.94232 0.75781 0.0
O96 O 0.75154 0.92326 0.82887 0.0
O97 O 0.75395 0.92996 0.74293 0.0
O98 O 0.03062 0.78691 0.81379 0.0
Cd99 Cd 0.0426 0.78708 0.75023 0.0
Cd100 Cd 0.06191 0.81042 0.80772 0.0
O101 O 0.04479 0.80692 0.85174 0.0
O102 O 0.02843 0.77185 0.70497 0.0
O103 O 0.04006 0.79341 0.67633 0.0
C104 C 0.03056 0.78079 0.66778 0.0
C105 C 0.07795 0.83309 0.78397 0.0
C106 C 0.03304 0.79607 0.84934 0.0
C107 C 0.06686 0.78632 0.79893 0.0
O108 O 0.07005 0.79769 0.82218 0.0
O109 O 0.05682 0.78089 0.76569 0.0
O110 O 0.07627 0.82894 0.83366 0.0
O111 O 0.07031 0.8244 0.74708 0.0
O112 O 0.21508 0.24767 0.8112 0.0
Cd113 Cd 0.21562 0.25876 0.74363 0.0
Cd114 Cd 0.19214 0.25631 0.80093 0.0
O115 O 0.19586 0.24379 0.85151 0.0
O116 O 0.23039 0.2582 0.70055 0.0
O117 O 0.20889 0.24889 0.67165 0.0
C118 C 0.2213 0.25124 0.66401 0.0
C119 C 0.16925 0.25051 0.78542 0.0
C120 C 0.2063 0.24217 0.84919 0.0
C121 C 0.21711 0.28493 0.7814 0.0
O122 O 0.20554 0.27734 0.8042 0.0
O123 O 0.22268 0.27959 0.75273 0.0
O124 O 0.17527 0.25544 0.83122 0.0
O125 O 0.17606 0.24833 0.74819 0.0
O126 O 0.96825 0.75438 0.19026 0.0
Cd127 Cd 0.9566 0.74301 0.2553 0.0
Cd128 Cd 0.93716 0.74738 0.20097 0.0
O129 O 0.9541 0.76063 0.15521 0.0
O130 O 0.97088 0.74216 0.30058 0.0
O131 O 0.95948 0.75245 0.328 0.0
C132 C 0.96896 0.74932 0.3369 0.0
C133 C 0.92158 0.75462 0.22439 0.0
C134 C 0.96573 0.76124 0.15562 0.0
C135 C 0.93157 0.71808 0.21065 0.0
O136 O 0.92845 0.72637 0.18796 0.0
O137 O 0.94195 0.72261 0.24216 0.0
O138 O 0.92299 0.75178 0.17493 0.0
O139 O 0.9292 0.75355 0.26132 0.0
O140 O 0.24571 0.21436 0.18745 0.0
Cd141 Cd 0.25698 0.21318 0.25111 0.0
Cd142 Cd 0.25249 0.19004 0.18972 0.0
O143 O 0.23931 0.1945 0.1469 0.0
O144 O 0.25841 0.22832 0.29806 0.0
O145 O 0.24761 0.20652 0.32405 0.0
C146 C 0.25114 0.2192 0.33404 0.0
C147 C 0.24531 0.16706 0.21042 0.0
C148 C 0.23883 0.20557 0.15087 0.0
C149 C 0.28181 0.21338 0.20296 0.0
O150 O 0.27351 0.20244 0.17747 0.0
O151 O 0.27729 0.21872 0.23705 0.0
O152 O 0.24797 0.1716 0.16125 0.0
O153 O 0.24641 0.17552 0.24844 0.0
O154 O 0.78501 0.03184 0.18911 0.0
Cd155 Cd 0.78595 0.04388 0.2539 0.0
Cd156 Cd 0.80966 0.0625 0.19893 0.0
O157 O 0.80556 0.0453 0.15392 0.0
O158 O 0.77091 0.03002 0.30063 0.0
O159 O 0.79276 0.04104 0.3261 0.0
C160 C 0.78011 0.03181 0.33613 0.0
C161 C 0.83241 0.07774 0.22424 0.0
C162 C 0.79427 0.03391 0.15455 0.0
C163 C 0.78664 0.06905 0.20807 0.0
O164 O 0.79783 0.07167 0.1847 0.0
O165 O 0.78072 0.05892 0.24067 0.0
O166 O 0.82848 0.07638 0.17432 0.0
O167 O 0.82344 0.07018 0.26047 0.0
O168 O 0.91596 0.36842 0.52222 0.0
Cd169 Cd 0.92725 0.37933 0.58878 0.0
Cd170 Cd 0.92461 0.39994 0.53098 0.0
O171 O 0.91169 0.38351 0.48192 0.0
O172 O 0.92685 0.36425 0.63293 0.0
O173 O 0.91751 0.3765 0.6608 0.0
C174 C 0.91991 0.3665 0.66918 0.0
C175 C 0.91889 0.417 0.54823 0.0
C176 C 0.91016 0.37147 0.48469 0.0
C177 C 0.95329 0.40375 0.54904 0.0
O178 O 0.94563 0.40758 0.52575 0.0
O179 O 0.94803 0.39303 0.57881 0.0
O180 O 0.92346 0.41586 0.50164 0.0
O181 O 0.91701 0.40805 0.58529 0.0
O182 O 0.63477 0.54742 0.51903 0.0
Cd183 Cd 0.62369 0.54799 0.58453 0.0
Cd184 Cd 0.60323 0.52503 0.52595 0.0
O185 O 0.6197 0.52817 0.47804 0.0
O186 O 0.63871 0.56268 0.62879 0.0
O187 O 0.6262 0.54118 0.65739 0.0
C188 C 0.63626 0.55357 0.66562 0.0
C189 C 0.58601 0.50242 0.54479 0.0
C190 C 0.63178 0.53857 0.4815 0.0
C191 C 0.59991 0.55025 0.54155 0.0
O192 O 0.59599 0.53871 0.51847 0.0
O193 O 0.61039 0.55547 0.57259 0.0
O194 O 0.58719 0.50789 0.49762 0.0
O195 O 0.59498 0.50964 0.58158 0.0
O196 O 0.45436 0.08734 0.52685 0.0
Cd197 Cd 0.45421 0.0759 0.59253 0.0
Cd198 Cd 0.47744 0.07892 0.53279 0.0
O199 O 0.47366 0.09191 0.48534 0.0
O200 O 0.43944 0.07593 0.63735 0.0
O201 O 0.46105 0.08544 0.66504 0.0
C202 C 0.44859 0.08283 0.67373 0.0
C203 C 0.50031 0.08466 0.54822 0.0
C204 C 0.46311 0.09332 0.4891 0.0
C205 C 0.45272 0.05009 0.55022 0.0
O206 O 0.46412 0.05791 0.52664 0.0
O207 O 0.4473 0.05517 0.58115 0.0
O208 O 0.49444 0.08024 0.50177 0.0
O209 O 0.49336 0.08641 0.58619 0.0
O210 O 0.69813 0.57799 0.14424 0.0
Cd211 Cd 0.70951 0.58993 0.07973 0.0
Cd212 Cd 0.72967 0.58729 0.14007 0.0
O213 O 0.71301 0.57379 0.18667 0.0
O214 O 0.69464 0.5899 0.03543 0.0
O215 O 0.70711 0.58094 0.00617 0.0
C216 C 0.69713 0.58338 0.99812 0.0
C217 C 0.74707 0.58218 0.12144 0.0
C218 C 0.70093 0.57205 0.18205 0.0
C219 C 0.73307 0.61584 0.12507 0.0
O220 O 0.73681 0.60814 0.14868 0.0
O221 O 0.72281 0.61068 0.0929 0.0
O222 O 0.74563 0.58615 0.16889 0.0
O223 O 0.73821 0.58051 0.08429 0.0
O224 O 0.42303 0.12004 0.15177 0.0
Cd225 Cd 0.41143 0.11963 0.08622 0.0
Cd226 Cd 0.41403 0.14256 0.1466 0.0
O227 O 0.42726 0.13915 0.19412 0.0
O228 O 0.4116 0.10482 0.04209 0.0
O229 O 0.42074 0.1263 0.0132 0.0
C230 C 0.41829 0.11386 0.00513 0.0
C231 C 0.4192 0.16516 0.12895 0.0
C232 C 0.42887 0.12872 0.18987 0.0
C233 C 0.38546 0.1175 0.12971 0.0
O234 O 0.39313 0.1289 0.15356 0.0
O235 O 0.39066 0.11233 0.09808 0.0
O236 O 0.41503 0.15957 0.176 0.0
O237 O 0.42108 0.15812 0.09173 0.0
O238 O 0.88242 0.30471 0.14729 0.0
Cd239 Cd 0.88261 0.2931 0.08283 0.0
Cd240 Cd 0.85961 0.27346 0.14271 0.0
O241 O 0.86301 0.29029 0.18885 0.0
O242 O 0.89749 0.3077 0.03782 0.0
O243 O 0.87595 0.29553 0.00943 0.0
C244 C 0.88844 0.30533 0.00085 0.0
C245 C 0.83708 0.25623 0.12309 0.0
C246 C 0.87364 0.30219 0.18465 0.0
C247 C 0.88431 0.2693 0.12915 0.0
O248 O 0.87297 0.26594 0.15272 0.0
O249 O 0.8896 0.27943 0.09634 0.0
O250 O 0.84228 0.25769 0.17099 0.0
O251 O 0.84448 0.26502 0.08609 0.0
O252 O 0.42035 0.30137 0.1465 0.0
Cd253 Cd 0.40933 0.28981 0.08061 0.0
Cd254 Cd 0.41332 0.2701 0.13732 0.0
O255 O 0.42616 0.2871 0.18387 0.0
O256 O 0.40864 0.3042 0.03529 0.0
O257 O 0.41909 0.29291 0.00847 0.0
C258 C 0.41596 0.30239 -0.0006 0.0
C259 C 0.42074 0.25445 0.11709 0.0
C260 C 0.42686 0.29879 0.18252 0.0
C261 C 0.3841 0.2646 0.12312 0.0
O262 O 0.39221 0.26139 0.1469 0.0
O263 O 0.38887 0.27509 0.09211 0.0
O264 O 0.41744 0.2559 0.16576 0.0
O265 O 0.42005 0.26207 0.07919 0.0
O266 O 0.70114 0.1217 0.13599 0.0
Cd267 Cd 0.71289 0.12198 0.07132 0.0
Cd268 Cd 0.73243 0.14571 0.12715 0.0
O269 O 0.71538 0.14189 0.17246 0.0
O270 O 0.69865 0.10682 0.02602 0.0
O271 O 0.71008 0.12848 0.99832 0.0
C272 C 0.70061 0.11586 0.98949 0.0
C273 C 0.74812 0.16864 0.10559 0.0
C274 C 0.70368 0.13096 0.17122 0.0
C275 C 0.73778 0.12183 0.11666 0.0
O276 O 0.741 0.13325 0.13955 0.0
O277 O 0.72743 0.11611 0.08498 0.0
O278 O 0.74656 0.16413 0.1547 0.0
O279 O 0.74062 0.16015 0.06794 0.0
O280 O 0.88116 0.57999 0.14204 0.0
Cd281 Cd 0.88066 0.59132 0.0772 0.0
Cd282 Cd 0.85697 0.58691 0.13347 0.0
O283 O 0.86096 0.5738 0.17889 0.0
O284 O 0.8959 0.59239 0.032 0.0
O285 O 0.87424 0.58192 0.00428 0.0
C286 C 0.8869 0.5852 0.99551 0.0
C287 C 0.83407 0.57957 0.1111 0.0
C288 C 0.87199 0.57321 0.17746 0.0
C289 C 0.88055 0.61622 0.12253 0.0
O290 O 0.86924 0.60793 0.1459 0.0
O291 O 0.88629 0.61169 0.0905 0.0
O292 O 0.83846 0.58247 0.16039 0.0
O293 O 0.84266 0.58061 0.0738 0.0
O294 O 0.63866 0.09143 0.5127 0.0
Cd295 Cd 0.62675 0.07975 0.57669 0.0
Cd296 Cd 0.60752 0.08399 0.52009 0.0
O297 O 0.6246 0.09754 0.47565 0.0
O298 O 0.64093 0.07867 0.62178 0.0
O299 O 0.62943 0.08874 0.65039 0.0
C300 C 0.6389 0.08557 0.65888 0.0
C301 C 0.5916 0.09067 0.54507 0.0
C302 C 0.63627 0.09826 0.47745 0.0
C303 C 0.60231 0.05485 0.52858 0.0
O304 O 0.59923 0.06312 0.50538 0.0
O305 O 0.61236 0.05937 0.56174 0.0
O306 O 0.59317 0.08826 0.49517 0.0
O307 O 0.59932 0.08957 0.58146 0.0
O308 O 0.91298 0.54905 0.51881 0.0
Cd309 Cd 0.92443 0.54867 0.5834 0.0
Cd310 Cd 0.92013 0.52509 0.52757 0.0
O311 O 0.90677 0.52877 0.4825 0.0
O312 O 0.92535 0.56378 0.62903 0.0
O313 O 0.91513 0.54208 0.65637 0.0
C314 C 0.91828 0.5547 0.66544 0.0
C315 C 0.91318 0.50236 0.55157 0.0
C316 C 0.90614 0.53979 0.48372 0.0
C317 C 0.94935 0.54885 0.53711 0.0
O318 O 0.94107 0.53751 0.51392 0.0
O319 O 0.94482 0.55452 0.56958 0.0
O320 O 0.91581 0.50651 0.50192 0.0
O321 O 0.91423 0.51109 0.58829 0.0
O322 O 0.45325 0.36482 0.52344 0.0
Cd323 Cd 0.45407 0.37685 0.58815 0.0
Cd324 Cd 0.47767 0.39575 0.5305 0.0
O325 O 0.47345 0.37847 0.48577 0.0
O326 O 0.43882 0.36287 0.63393 0.0
O327 O 0.46053 0.37386 0.66103 0.0
C328 C 0.44784 0.36461 0.6702 0.0
C329 C 0.50055 0.41141 0.55293 0.0
C330 C 0.4623 0.36696 0.48774 0.0
C331 C 0.45435 0.40185 0.54177 0.0
O332 O 0.46549 0.40458 0.51769 0.0
O333 O 0.44866 0.39176 0.57469 0.0
O334 O 0.49621 0.40976 0.50352 0.0
O335 O 0.49195 0.40388 0.59024 0.0
O336 O 0.57819 0.70016 0.85212 0.0
Cd337 Cd 0.58996 0.71129 0.91737 0.0
Cd338 Cd 0.58741 0.73176 0.85824 0.0
O339 O 0.57399 0.71519 0.81094 0.0
O340 O 0.58976 0.69629 0.96136 0.0
O341 O 0.58079 0.70876 0.99057 0.0
C342 C 0.58317 0.69873 -0.00148 0.0
C343 C 0.58227 0.74922 0.87576 0.0
C344 C 0.5723 0.70311 0.81462 0.0
C345 C 0.61593 0.73503 0.8736 0.0
O346 O 0.60829 0.73891 0.85046 0.0
O347 O 0.61072 0.72461 0.90494 0.0
O348 O 0.58642 0.74777 0.82873 0.0
O349 O 0.58047 0.74037 0.91315 0.0
O350 O 0.30295 0.87878 0.85315 0.0
Cd351 Cd 0.29113 0.87889 0.91682 0.0
Cd352 Cd 0.27157 0.8554 0.86 0.0
O353 O 0.2886 0.85876 0.81566 0.0
O354 O 0.30545 0.89425 0.96117 0.0
O355 O 0.29379 0.8728 0.99102 0.0
C356 C 0.30335 0.88543 -0.00114 0.0
C357 C 0.25547 0.83275 0.88371 0.0
C358 C 0.3004 0.86955 0.81776 0.0
C359 C 0.26683 0.87965 0.86845 0.0
O360 O 0.26352 0.8682 0.84559 0.0
O361 O 0.27695 0.88512 0.90129 0.0
O362 O 0.25714 0.83692 0.83406 0.0
O363 O 0.26315 0.84141 0.92061 0.0
O364 O 0.12035 0.41818 0.85357 0.0
Cd365 Cd 0.11951 0.40708 0.92151 0.0
Cd366 Cd 0.14305 0.40925 0.86629 0.0
O367 O 0.13965 0.42181 0.81471 0.0
O368 O 0.10488 0.40796 0.96423 0.0
O369 O 0.12635 0.41703 0.9932 0.0
C370 C 0.11401 0.41488 0.00068 0.0
C371 C 0.16587 0.41501 0.88316 0.0
C372 C 0.12929 0.42359 0.81608 0.0
C373 C 0.11789 0.38074 0.88544 0.0
O374 O 0.12958 0.38823 0.86327 0.0
O375 O 0.11227 0.3862 0.91309 0.0
O376 O 0.15996 0.40999 0.83727 0.0
O377 O 0.15897 0.41728 0.91976 0.0
O378 O 0.36476 0.91158 0.47702 0.0
Cd379 Cd 0.37657 0.92344 0.41321 0.0
Cd380 Cd 0.39594 0.91912 0.46714 0.0
O381 O 0.37895 0.90529 0.5113 0.0
O382 O 0.36237 0.92428 0.36743 0.0
O383 O 0.37419 0.91445 0.33978 0.0
C384 C 0.36461 0.91744 0.33071 0.0
C385 C 0.41187 0.91251 0.44161 0.0
C386 C 0.36726 0.90455 0.51088 0.0
C387 C 0.40103 0.94826 0.4612 0.0
O388 O 0.40421 0.93994 0.48322 0.0
O389 O 0.39087 0.94383 0.42858 0.0
O390 O 0.41029 0.91481 0.49162 0.0
O391 O 0.40421 0.91374 0.40533 0.0
O392 O 0.09146 0.45267 0.47745 0.0
Cd393 Cd 0.07992 0.45388 0.41496 0.0
Cd394 Cd 0.08474 0.47693 0.47664 0.0
O395 O 0.09822 0.47261 0.5179 0.0
O396 O 0.07816 0.43864 0.36777 0.0
O397 O 0.08889 0.4604 0.34128 0.0
C398 C 0.08525 0.44769 0.33132 0.0
C399 C 0.09164 0.49977 0.45476 0.0
C400 C 0.09857 0.46148 0.51359 0.0
C401 C 0.05539 0.45357 0.4663 0.0
O402 O 0.06385 0.46451 0.49149 0.0
O403 O 0.0597 0.44831 0.43101 0.0
O404 O 0.08945 0.49549 0.50432 0.0
O405 O 0.09025 0.49114 0.417 0.0
O406 O 0.54669 0.63702 0.47754 0.0
Cd407 Cd 0.54741 0.62568 0.41314 0.0
Cd408 Cd 0.52448 0.60555 0.47185 0.0
O409 O 0.52731 0.62216 0.51811 0.0
O410 O 0.56214 0.64055 0.36853 0.0
O411 O 0.54068 0.62792 0.33965 0.0
C412 C 0.55307 0.63797 0.33137 0.0
C413 C 0.50213 0.58799 0.45197 0.0
C414 C 0.53773 0.63421 0.51441 0.0
C415 C 0.54965 0.60215 0.45902 0.0
O416 O 0.53818 0.59847 0.48213 0.0
O417 O 0.55484 0.61237 0.42668 0.0
O418 O 0.50733 0.58952 0.49989 0.0
O419 O 0.50942 0.59687 0.41505 0.0
O420 O 0.08877 0.63416 0.48187 0.0
Cd421 Cd 0.07756 0.62283 0.41583 0.0
Cd422 Cd 0.08033 0.60265 0.47837 0.0
O423 O 0.09293 0.61949 0.52633 0.0
O424 O 0.07734 0.63766 0.37194 0.0
O425 O 0.08713 0.62592 0.3431 0.0
C426 C 0.08432 0.63566 0.33513 0.0
C427 C 0.08633 0.58567 0.46343 0.0
C428 C 0.09442 0.63147 0.52113 0.0
C429 C 0.05161 0.59843 0.45759 0.0
O430 O 0.05929 0.59488 0.4825 0.0
O431 O 0.05684 0.6089 0.42644 0.0
O432 O 0.08174 0.58702 0.50965 0.0
O433 O 0.08812 0.5944 0.42553 0.0
O434 O 0.3673 0.45285 0.4727 0.0
Cd435 Cd 0.379 0.4532 0.40775 0.0
Cd436 Cd 0.39843 0.47702 0.46181 0.0
O437 O 0.38148 0.47326 0.50765 0.0
O438 O 0.3648 0.43816 0.36191 0.0
O439 O 0.37622 0.45992 0.33525 0.0
C440 C 0.36676 0.44732 0.32589 0.0
C441 C 0.41382 0.49991 0.43864 0.0
C442 C 0.36984 0.46224 0.50731 0.0
C443 C 0.40406 0.45333 0.45219 0.0
O444 O 0.40724 0.46479 0.47464 0.0
O445 O 0.39364 0.44745 0.42094 0.0
O446 O 0.41249 0.49561 0.488 0.0
O447 O 0.40626 0.49121 0.40163 0.0
O448 O 0.5485 0.91544 0.47376 0.0
Cd449 Cd 0.549 0.92664 0.40665 0.0
Cd450 Cd 0.52568 0.92409 0.46371 0.0
O451 O 0.52922 0.9114 0.51395 0.0
O452 O 0.56376 0.92615 0.36341 0.0
O453 O 0.54226 0.91686 0.33453 0.0
C454 C 0.55468 0.91923 0.32684 0.0
C455 C 0.50291 0.91835 0.44618 0.0
C456 C 0.53969 0.90982 0.51155 0.0
C457 C 0.55056 0.95274 0.44555 0.0
O458 O 0.53903 0.9451 0.46852 0.0
O459 O 0.55608 0.94746 0.41622 0.0
O460 O 0.50861 0.92299 0.49271 0.0
O461 O 0.50997 0.91639 0.40935 0.0
O462 O 0.30499 0.42381 0.84914 0.0
Cd463 Cd 0.29304 0.412 0.91281 0.0
Cd464 Cd 0.27383 0.41617 0.85577 0.0
O465 O 0.2909 0.42979 0.81154 0.0
O466 O 0.30726 0.41093 0.95768 0.0
O467 O 0.29567 0.42086 0.98678 0.0
C468 C 0.30518 0.41774 0.99502 0.0
C469 C 0.25781 0.42271 0.88062 0.0
C470 C 0.30261 0.43061 0.81373 0.0
C471 C 0.26875 0.38708 0.86404 0.0
O472 O 0.26565 0.39532 0.84082 0.0
O473 O 0.27875 0.39161 0.89743 0.0
O474 O 0.25942 0.42033 0.83073 0.0
O475 O 0.26554 0.42167 0.91706 0.0
O476 O 0.58005 0.88324 0.84998 0.0
Cd477 Cd 0.59105 0.8819 0.91423 0.0
Cd478 Cd 0.58627 0.85867 0.85541 0.0
O479 O 0.57322 0.86308 0.8115 0.0
O480 O 0.59242 0.89693 0.96154 0.0
O481 O 0.58139 0.87504 0.98644 0.0
C482 C 0.58497 0.88771 0.9969 0.0
C483 C 0.57874 0.8358 0.879 0.0
C484 C 0.573 0.8743 0.81415 0.0
C485 C 0.61574 0.88163 0.86773 0.0
O486 O 0.60732 0.87067 0.84261 0.0
O487 O 0.61132 0.88719 0.90122 0.0
O488 O 0.58139 0.83995 0.82934 0.0
O489 O 0.58005 0.8446 0.91588 0.0
O490 O 0.1182 0.69873 0.85729 0.0
Cd491 Cd 0.11829 0.70991 0.92384 0.0
Cd492 Cd 0.1416 0.73007 0.8653 0.0
O493 O 0.13775 0.71338 0.81709 0.0
O494 O 0.10374 0.69511 0.96938 0.0
O495 O 0.1255 0.70718 0.99534 0.0
C496 C 0.11309 0.69733 0.00484 0.0
C497 C 0.16446 0.74709 0.88144 0.0
C498 C 0.12703 0.7015 0.81989 0.0
C499 C 0.11708 0.73447 0.88339 0.0
O500 O 0.12844 0.73796 0.85964 0.0
O501 O 0.11155 0.7239 0.91393 0.0
O502 O 0.15868 0.74577 0.83489 0.0
O503 O 0.15745 0.7383 0.91904 0.0
C504 C 0.2376 0.98932 0.61003 0.0
C505 C 0.22443 0.97759 0.61395 0.0
C506 C 0.24136 0.99813 0.56496 0.0
C507 C 0.23176 0.99511 0.5224 0.0
C508 C 0.21841 0.98334 0.52615 0.0
C509 C 0.21487 0.97474 0.57206 0.0
C510 C 0.25569 0.01059 0.56262 0.0
C511 C 0.20794 0.97974 0.4813 0.0
C512 C 0.23897 0.02409 0.42329 0.0
C513 C 0.24552 0.02127 0.38071 0.0
C514 C 0.23424 0.01555 0.46949 0.0
C515 C 0.23603 0.0039 0.47283 0.0
C516 C 0.24249 0.00093 0.42967 0.0
C517 C 0.2472 0.00967 0.38431 0.0
C518 C 0.22749 0.01909 0.51499 0.0
C519 C 0.24456 0.98858 0.43158 0.0
H520 H 0.24503 0.99167 0.6424 0.0
H521 H 0.20467 0.96573 0.57491 0.0
H522 H 0.2614 0.00967 0.52752 0.0
H523 H 0.25506 0.02009 0.55643 0.0
H524 H 0.2617 0.01183 0.60021 0.0
H525 H 0.19786 0.97052 0.49121 0.0
H526 H 0.20628 0.98857 0.4734 0.0
H527 H 0.2119 0.97771 0.4431 0.0
H528 H 0.23761 0.03301 0.42071 0.0
H529 H 0.25216 0.00734 0.35145 0.0
H530 H 0.23362 0.02116 0.55282 0.0
H531 H 0.21707 0.01022 0.52332 0.0
H532 H 0.22652 0.02828 0.50548 0.0
H533 H 0.25133 0.9896 0.46633 0.0
H534 H 0.24929 0.98742 0.3937 0.0
H535 H 0.23453 0.97901 0.43809 0.0
C536 C 0.02476 0.23706 0.57755 0.0
C537 C 0.02223 0.24405 0.6193 0.0
C538 C 0.01635 0.23253 0.53098 0.0
C539 C 0.00512 0.23497 0.5264 0.0
C540 C 0.00253 0.24199 0.56849 0.0
C541 C 0.01113 0.24648 0.61425 0.0
C542 C 0.01949 0.22519 0.4866 0.0
C543 C 0.99065 0.24477 0.56522 0.0
C544 C 0.99086 0.23613 0.38796 0.0
C545 C 0.97881 0.22317 0.38532 0.0
C546 C 0.99966 0.23995 0.43306 0.0
C547 C 0.99631 0.23063 0.47692 0.0
C548 C 0.98421 0.21748 0.47448 0.0
C549 C 0.97561 0.21388 0.42854 0.0
C550 C 0.01248 0.25404 0.43403 0.0
C551 C 0.98026 0.20733 0.52073 0.0
H552 H 0.03329 0.23512 0.58125 0.0
H553 H 0.00905 0.25181 0.64643 0.0
H554 H 0.01041 0.21482 0.4795 0.0
H555 H 0.02163 0.23103 0.44796 0.0
H556 H 0.02851 0.22397 0.4966 0.0
H557 H 0.98983 0.25005 0.60209 0.0
H558 H 0.99193 0.2513 0.52929 0.0
H559 H 0.9808 0.23492 0.55989 0.0
H560 H 0.99347 0.24334 0.35457 0.0
H561 H 0.96635 0.20384 0.4267 0.0
H562 H 0.02173 0.25302 0.44101 0.0
H563 H 0.01188 0.2602 0.46814 0.0
H564 H 0.01393 0.25982 0.3956 0.0
H565 H 0.98879 0.20527 0.52947 0.0
H566 H 0.97077 0.19737 0.5118 0.0
H567 H 0.97851 0.21178 0.55813 0.0
C568 C 0.78639 0.76212 0.42309 0.0
C569 C 0.77704 0.75588 0.38016 0.0
C570 C 0.78272 0.76695 0.46935 0.0
C571 C 0.76945 0.76557 0.47241 0.0
C572 C 0.76006 0.75945 0.42887 0.0
C573 C 0.76395 0.75464 0.38344 0.0
C574 C 0.79296 0.77334 0.51525 0.0
C575 C 0.74583 0.75783 0.4305 0.0
C576 C 0.75339 0.76401 0.60969 0.0
C577 C 0.75526 0.77735 0.61449 0.0
C578 C 0.75822 0.76017 0.5642 0.0
C579 C 0.76503 0.76987 0.52216 0.0
C580 C 0.76703 0.78337 0.52671 0.0
C581 C 0.76214 0.78697 0.57298 0.0
C582 C 0.75591 0.74568 0.56091 0.0
C583 C 0.77417 0.79394 0.48244 0.0
H584 H 0.79653 0.76314 0.42074 0.0
H585 H 0.75669 0.74993 0.35029 0.0
H586 H 0.79477 0.78384 0.52419 0.0
H587 H 0.78871 0.76709 0.55271 0.0
H588 H 0.80301 0.77407 0.50583 0.0
H589 H 0.73998 0.75337 0.39229 0.0
H590 H 0.73986 0.75101 0.46479 0.0
H591 H 0.7466 0.76799 0.43759 0.0
H592 H 0.74816 0.75652 0.64171 0.0
H593 H 0.76366 0.7973 0.57652 0.0
H594 H 0.76589 0.74599 0.55492 0.0
H595 H 0.74931 0.74025 0.52536 0.0
H596 H 0.7509 0.73955 0.59804 0.0
H597 H 0.78457 0.79537 0.47474 0.0
H598 H 0.77526 0.80411 0.49286 0.0
H599 H 0.76824 0.79023 0.44399 0.0
C600 C 0.75317 0.99044 0.61446 0.0
C601 C 0.75465 0.97872 0.61684 0.0
C602 C 0.75797 0.99938 0.56971 0.0
C603 C 0.76427 0.99646 0.52582 0.0
C604 C 0.76584 0.98466 0.52791 0.0
C605 C 0.76108 0.97595 0.57362 0.0
C606 C 0.75619 0.01191 0.56924 0.0
C607 C 0.77237 0.98113 0.48154 0.0
C608 C 0.76285 0.01157 0.38962 0.0
C609 C 0.7762 0.023 0.38528 0.0
C610 C 0.75895 0.00272 0.43461 0.0
C611 C 0.76858 0.00544 0.47675 0.0
C612 C 0.78208 0.01698 0.47282 0.0
C613 C 0.78576 0.0256 0.42691 0.0
C614 C 0.74449 0.99048 0.4371 0.0
C615 C 0.79257 0.02028 0.51733 0.0
H616 H 0.74833 0.99274 0.6479 0.0
H617 H 0.76228 0.96693 0.57527 0.0
H618 H 0.7663 0.02139 0.56277 0.0
H619 H 0.74938 0.01116 0.53503 0.0
H620 H 0.75164 0.01306 0.60767 0.0
H621 H 0.77314 0.97179 0.49001 0.0
H622 H 0.7662 0.97934 0.44398 0.0
H623 H 0.78286 0.98991 0.47333 0.0
H624 H 0.75542 0.00942 0.35745 0.0
H625 H 0.7961 0.03439 0.42376 0.0
H626 H 0.73899 0.99143 0.47287 0.0
H627 H 0.74487 0.98082 0.4422 0.0
H628 H 0.73841 0.98953 0.40001 0.0
H629 H 0.78869 0.02216 0.55605 0.0
H630 H 0.80268 0.0295 0.50774 0.0
H631 H 0.79415 0.01136 0.52405 0.0
C632 C 0.02458 0.78594 0.57557 0.0
C633 C 0.02185 0.77663 0.61832 0.0
C634 C 0.01603 0.78203 0.5294 0.0
C635 C 0.00443 0.76855 0.52628 0.0
C636 C 0.0016 0.75916 0.56946 0.0
C637 C 0.01036 0.76328 0.61475 0.0
C638 C 0.01945 0.79228 0.4838 0.0
C639 C 0.9893 0.74471 0.56781 0.0
C640 C 0.97512 0.76086 0.42828 0.0
C641 C 0.97786 0.75421 0.38581 0.0
C642 C 0.98377 0.76573 0.47411 0.0
C643 C 0.99548 0.76403 0.47715 0.0
C644 C 0.99835 0.75745 0.43412 0.0
C645 C 0.98948 0.75257 0.38917 0.0
C646 C 0.98031 0.77256 0.51955 0.0
C647 C 0.01077 0.75551 0.43565 0.0
H648 H 0.03342 0.79627 0.57811 0.0
H649 H 0.00811 0.75603 0.64774 0.0
H650 H 0.02127 0.78811 0.44571 0.0
H651 H 0.01062 0.79394 0.47629 0.0
H652 H 0.02874 0.8024 0.49274 0.0
H653 H 0.9883 0.73881 0.60549 0.0
H654 H 0.97969 0.74514 0.56211 0.0
H655 H 0.99021 0.739 0.5327 0.0
H656 H 0.96619 0.76219 0.42587 0.0
H657 H 0.99174 0.74754 0.35634 0.0
H658 H 0.98912 0.78308 0.52702 0.0
H659 H 0.9785 0.7666 0.55771 0.0
H660 H 0.971 0.77334 0.5105 0.0
H661 H 0.02031 0.76561 0.44139 0.0
H662 H 0.01184 0.75067 0.39791 0.0
H663 H 0.00995 0.7489 0.4707 0.0
C664 C 0.24898 0.2368 0.38872 0.0
C665 C 0.24655 0.22327 0.38366 0.0
C666 C 0.24431 0.24087 0.4341 0.0
C667 C 0.23713 0.23121 0.47587 0.0
C668 C 0.23467 0.21754 0.47124 0.0
C669 C 0.23936 0.2137 0.425 0.0
C670 C 0.2471 0.25554 0.43735 0.0
C671 C 0.22717 0.207 0.51529 0.0
C672 C 0.23801 0.2467 0.61397 0.0
C673 C 0.22508 0.24586 0.61596 0.0
C674 C 0.24189 0.24162 0.56929 0.0
C675 C 0.23267 0.23567 0.52513 0.0
C676 C 0.21954 0.23467 0.52696 0.0
C677 C 0.21587 0.23972 0.57255 0.0
C678 C 0.25594 0.2428 0.56907 0.0
C679 C 0.2095 0.2285 0.48035 0.0
H680 H 0.25445 0.24425 0.35683 0.0
H681 H 0.23742 0.20322 0.4213 0.0
H682 H 0.23726 0.25556 0.44232 0.0
H683 H 0.25357 0.26076 0.47346 0.0
H684 H 0.25246 0.26165 0.40062 0.0
H685 H 0.22593 0.19676 0.50526 0.0
H686 H 0.23291 0.21063 0.55419 0.0
H687 H 0.21681 0.20577 0.52194 0.0
H688 H 0.24516 0.25131 0.64754 0.0
H689 H 0.20586 0.23901 0.57388 0.0
H690 H 0.26224 0.24962 0.53531 0.0
H691 H 0.2549 0.23253 0.56202 0.0
H692 H 0.26161 0.24706 0.6078 0.0
H693 H 0.21404 0.23475 0.44309 0.0
H694 H 0.19952 0.22803 0.48887 0.0
H695 H 0.20747 0.21792 0.47158 0.0
C696 C 0.91594 0.34571 0.72132 0.0
C697 C 0.9146 0.35751 0.7177 0.0
C698 C 0.9109 0.3369 0.76638 0.0
C699 C 0.90446 0.33999 0.80921 0.0
C700 C 0.90295 0.35182 0.80571 0.0
C701 C 0.90801 0.36043 0.75982 0.0
C702 C 0.91266 0.32436 0.76846 0.0
C703 C 0.89622 0.35549 0.85085 0.0
C704 C 0.88286 0.31119 0.90919 0.0
C705 C 0.89234 0.31404 0.95143 0.0
C706 C 0.88658 0.31965 0.8628 0.0
C707 C 0.90004 0.33125 0.8589 0.0
C708 C 0.90958 0.33423 0.90166 0.0
C709 C 0.90563 0.32557 0.94722 0.0
C710 C 0.87619 0.31611 0.81773 0.0
C711 C 0.92401 0.34651 0.89913 0.0
H712 H 0.92092 0.3433 0.68876 0.0
H713 H 0.9069 0.3695 0.75719 0.0
H714 H 0.91939 0.32527 0.8032 0.0
H715 H 0.90253 0.31491 0.7751 0.0
H716 H 0.91729 0.32304 0.7306 0.0
H717 H 0.89536 0.36472 0.84099 0.0
H718 H 0.88575 0.34669 0.85917 0.0
H719 H 0.90231 0.35756 0.88879 0.0
H720 H 0.87257 0.30233 0.91225 0.0
H721 H 0.913 0.32791 0.9798 0.0
H722 H 0.88013 0.314 0.77969 0.0
H723 H 0.87464 0.325 0.80958 0.0
H724 H 0.86605 0.30695 0.82759 0.0
H725 H 0.92963 0.34543 0.86405 0.0
H726 H 0.93001 0.34768 0.9367 0.0
H727 H 0.92359 0.35612 0.8928 0.0
C728 C 0.65678 0.57049 0.7187 0.0
C729 C 0.64509 0.55729 0.71461 0.0
C730 C 0.6655 0.57429 0.76405 0.0
C731 C 0.66243 0.5647 0.80666 0.0
C732 C 0.6507 0.55132 0.80278 0.0
C733 C 0.64218 0.54775 0.75663 0.0
C734 C 0.67792 0.58864 0.7666 0.0
C735 C 0.64707 0.54086 0.84768 0.0
C736 C 0.6913 0.57201 0.90637 0.0
C737 C 0.68838 0.57852 0.94883 0.0
C738 C 0.68283 0.56725 0.86003 0.0
C739 C 0.67115 0.56899 0.8564 0.0
C740 C 0.66809 0.57542 0.8994 0.0
C741 C 0.67675 0.58014 0.94494 0.0
C742 C 0.68645 0.56053 0.8147 0.0
C743 C 0.65572 0.57744 0.89713 0.0
H744 H 0.65917 0.57791 0.68626 0.0
H745 H 0.63319 0.53753 0.75365 0.0
H746 H 0.67692 0.59433 0.80165 0.0
H747 H 0.68743 0.58806 0.77302 0.0
H748 H 0.67918 0.59467 0.72902 0.0
H749 H 0.63787 0.53076 0.83766 0.0
H750 H 0.65589 0.53922 0.85584 0.0
H751 H 0.64497 0.54481 0.88577 0.0
H752 H 0.70024 0.57069 0.9092 0.0
H753 H 0.67436 0.58508 0.9777 0.0
H754 H 0.68855 0.56666 0.77685 0.0
H755 H 0.67761 0.55008 0.80626 0.0
H756 H 0.69564 0.55959 0.82445 0.0
H757 H 0.65675 0.58419 0.86231 0.0
H758 H 0.65449 0.58216 0.93491 0.0
H759 H 0.64618 0.56739 0.89053 0.0
C760 C 0.43155 0.08623 0.727 0.0
C761 C 0.44483 0.08794 0.72268 0.0
C762 C 0.42772 0.09115 0.77225 0.0
C763 C 0.43735 0.09788 0.81456 0.0
C764 C 0.4508 0.09973 0.81046 0.0
C765 C 0.4544 0.09476 0.7644 0.0
C766 C 0.41329 0.08902 0.775 0.0
C767 C 0.46131 0.10677 0.85504 0.0
C768 C 0.42972 0.11939 0.91349 0.0
C769 C 0.42332 0.11001 0.9562 0.0
C770 C 0.43456 0.11568 0.86735 0.0
C771 C 0.43304 0.10234 0.8642 0.0
C772 C 0.42675 0.09292 0.90754 0.0
C773 C 0.42193 0.09685 0.95283 0.0
C774 C 0.44112 0.12595 0.82166 0.0
C775 C 0.42497 0.07862 0.90584 0.0
H776 H 0.42411 0.08105 0.69479 0.0
H777 H 0.46468 0.09616 0.76125 0.0
H778 H 0.40773 0.08239 0.81032 0.0
H779 H 0.41372 0.09905 0.78104 0.0
H780 H 0.40723 0.0841 0.73763 0.0
H781 H 0.47145 0.10778 0.84491 0.0
H782 H 0.46281 0.1172 0.8628 0.0
H783 H 0.45749 0.10081 0.89337 0.0
H784 H 0.43086 0.12958 0.9159 0.0
H785 H 0.41709 0.08956 0.98582 0.0
H786 H 0.43494 0.12178 0.784 0.0
H787 H 0.45159 0.12765 0.81306 0.0
H788 H 0.44195 0.13604 0.83112 0.0
H789 H 0.41819 0.07272 0.87134 0.0
H790 H 0.4204 0.07275 0.94392 0.0
H791 H 0.43509 0.07928 0.89907 0.0
C792 C 0.43031 0.34432 0.72274 0.0
C793 C 0.44368 0.35576 0.71928 0.0
C794 C 0.42617 0.33546 0.76774 0.0
C795 C 0.43556 0.33815 0.81078 0.0
C796 C 0.44908 0.34969 0.80773 0.0
C797 C 0.45301 0.35833 0.76181 0.0
C798 C 0.41169 0.32321 0.76925 0.0
C799 C 0.45933 0.35297 0.85319 0.0
C800 C 0.41949 0.3231 0.94769 0.0
C801 C 0.421 0.31139 0.95078 0.0
C802 C 0.42447 0.33203 0.90295 0.0
C803 C 0.43099 0.32914 0.85979 0.0
C804 C 0.43257 0.31735 0.86257 0.0
C805 C 0.42762 0.30864 0.90824 0.0
C806 C 0.42266 0.34455 0.90174 0.0
C807 C 0.43933 0.31385 0.81699 0.0
H808 H 0.42305 0.34218 0.68989 0.0
H809 H 0.46336 0.36713 0.75935 0.0
H810 H 0.41204 0.31355 0.7748 0.0
H811 H 0.406 0.32415 0.80439 0.0
H812 H 0.40581 0.32229 0.73157 0.0
H813 H 0.46949 0.3622 0.84426 0.0
H814 H 0.45524 0.35483 0.8914 0.0
H815 H 0.46088 0.34405 0.86049 0.0
H816 H 0.4145 0.32537 0.98059 0.0
H817 H 0.42885 0.29964 0.91042 0.0
H818 H 0.41605 0.34381 0.86682 0.0
H819 H 0.4328 0.35404 0.89599 0.0
H820 H 0.41789 0.34565 0.93961 0.0
H821 H 0.43337 0.3121 0.77888 0.0
H822 H 0.44004 0.30448 0.82587 0.0
H823 H 0.44987 0.32262 0.80955 0.0
C824 C 0.69441 0.12122 0.89813 0.0
C825 C 0.69175 0.11181 0.94044 0.0
C826 C 0.68577 0.11741 0.85226 0.0
C827 C 0.67415 0.10394 0.84901 0.0
C828 C 0.67138 0.09447 0.89182 0.0
C829 C 0.68024 0.09849 0.93681 0.0
C830 C 0.68913 0.12774 0.80706 0.0
C831 C 0.65906 0.08004 0.89004 0.0
C832 C 0.6449 0.09663 0.7512 0.0
C833 C 0.64767 0.09015 0.70816 0.0
C834 C 0.65349 0.10127 0.79727 0.0
C835 C 0.66516 0.09951 0.79997 0.0
C836 C 0.66804 0.09307 0.75647 0.0
C837 C 0.65924 0.08841 0.7113 0.0
C838 C 0.65001 0.10796 0.84322 0.0
C839 C 0.68043 0.09107 0.75765 0.0
H840 H 0.70327 0.13153 0.90072 0.0
H841 H 0.67804 0.09117 0.9695 0.0
H842 H 0.69094 0.12367 0.7687 0.0
H843 H 0.68027 0.12939 0.79993 0.0
H844 H 0.6984 0.13786 0.81617 0.0
H845 H 0.65808 0.07408 0.92754 0.0
H846 H 0.64945 0.08048 0.88463 0.0
H847 H 0.65993 0.07436 0.8547 0.0
H848 H 0.636 0.09802 0.74899 0.0
H849 H 0.66152 0.08351 0.67807 0.0
H850 H 0.65879 0.11848 0.85089 0.0
H851 H 0.64826 0.10193 0.88113 0.0
H852 H 0.64066 0.10871 0.83458 0.0
H853 H 0.68999 0.10115 0.76346 0.0
H854 H 0.68146 0.08626 0.71974 0.0
H855 H 0.67961 0.08441 0.79252 0.0
C856 C 0.90686 0.54932 0.75707 0.0
C857 C 0.91347 0.55871 0.71459 0.0
C858 C 0.90203 0.55309 0.80305 0.0
C859 C 0.90372 0.5665 0.80618 0.0
C860 C 0.91027 0.57596 0.76319 0.0
C861 C 0.91512 0.57197 0.71813 0.0
C862 C 0.89522 0.54278 0.84845 0.0
C863 C 0.91221 0.59032 0.76483 0.0
C864 C 0.88174 0.57376 0.90393 0.0
C865 C 0.89105 0.58045 0.94659 0.0
C866 C 0.88566 0.56902 0.85809 0.0
C867 C 0.89914 0.5709 0.85524 0.0
C868 C 0.90851 0.57752 0.89845 0.0
C869 C 0.90438 0.58227 0.94339 0.0
C870 C 0.87545 0.56215 0.81245 0.0
C871 C 0.92295 0.57965 0.89714 0.0
H872 H 0.90553 0.53904 0.75455 0.0
H873 H 0.92012 0.57927 0.6853 0.0
H874 H 0.90115 0.54695 0.88667 0.0
H875 H 0.88468 0.54101 0.85579 0.0
H876 H 0.89451 0.53271 0.83944 0.0
H877 H 0.91708 0.59627 0.7272 0.0
H878 H 0.9021 0.58976 0.77041 0.0
H879 H 0.91877 0.59609 0.80001 0.0
H880 H 0.87142 0.5723 0.9062 0.0
H881 H 0.91161 0.58733 0.97636 0.0
H882 H 0.87386 0.55167 0.80494 0.0
H883 H 0.87958 0.56814 0.77438 0.0
H884 H 0.86529 0.56124 0.82133 0.0
H885 H 0.92253 0.56961 0.89135 0.0
H886 H 0.92879 0.58451 0.93497 0.0
H887 H 0.92871 0.58631 0.86219 0.0
C888 C 0.54734 0.64364 0.23969 0.0
C889 C 0.55683 0.64668 0.28202 0.0
C890 C 0.55092 0.6521 0.19333 0.0
C891 C 0.56425 0.66388 0.18954 0.0
C892 C 0.5738 0.66706 0.23241 0.0
C893 C 0.56999 0.65841 0.27796 0.0
C894 C 0.54051 0.64834 0.14815 0.0
C895 C 0.58811 0.67955 0.22997 0.0
C896 C 0.57988 0.67831 0.05161 0.0
C897 C 0.5782 0.6899 0.04758 0.0
C898 C 0.5751 0.66961 0.09703 0.0
C899 C 0.56854 0.67259 0.13977 0.0
C900 C 0.56672 0.68422 0.13594 0.0
C901 C 0.57155 0.69274 0.08974 0.0
C902 C 0.57722 0.65729 0.09952 0.0
C903 C 0.55985 0.68775 0.18096 0.0
H904 H 0.53714 0.63462 0.24265 0.0
H905 H 0.57737 0.6609 0.31063 0.0
H906 H 0.53876 0.6571 0.13979 0.0
H907 H 0.54456 0.6463 0.11023 0.0
H908 H 0.53045 0.63908 0.15802 0.0
H909 H 0.59412 0.68086 0.26766 0.0
H910 H 0.59385 0.6786 0.19505 0.0
H911 H 0.58746 0.68902 0.22344 0.0
H912 H 0.58493 0.67598 0.01908 0.0
H913 H 0.57018 0.70165 0.0868 0.0
H914 H 0.5672 0.64771 0.10604 0.0
H915 H 0.58396 0.65838 0.13447 0.0
H916 H 0.582 0.65609 0.06186 0.0
H917 H 0.54944 0.67885 0.18924 0.0
H918 H 0.55881 0.69688 0.17098 0.0
H919 H 0.56594 0.68993 0.21896 0.0
C920 C 0.34435 0.91437 0.27705 0.0
C921 C 0.35592 0.91266 0.28123 0.0
C922 C 0.33559 0.90948 0.23176 0.0
C923 C 0.33852 0.90282 0.18924 0.0
C924 C 0.35021 0.9011 0.19299 0.0
C925 C 0.35875 0.90599 0.23913 0.0
C926 C 0.3232 0.91147 0.22942 0.0
C927 C 0.35373 0.89418 0.14811 0.0
C928 C 0.30941 0.88058 0.09142 0.0
C929 C 0.31213 0.88975 0.04814 0.0
C930 C 0.31798 0.88464 0.13754 0.0
C931 C 0.32959 0.89813 0.14007 0.0
C932 C 0.33242 0.90737 0.09632 0.0
C933 C 0.32363 0.9031 0.05107 0.0
C934 C 0.31457 0.87456 0.18372 0.0
C935 C 0.34472 0.92182 0.09734 0.0
H936 H 0.34202 0.91943 0.30955 0.0
H937 H 0.36765 0.90461 0.24215 0.0
H938 H 0.32404 0.91792 0.19379 0.0
H939 H 0.31365 0.90135 0.22416 0.0
H940 H 0.32214 0.91649 0.26664 0.0
H941 H 0.36308 0.89349 0.1575 0.0
H942 H 0.34497 0.88361 0.14108 0.0
H943 H 0.3555 0.9 0.1096 0.0
H944 H 0.30056 0.87025 0.08937 0.0
H945 H 0.32588 0.91023 0.01766 0.0
H946 H 0.31272 0.87883 0.22143 0.0
H947 H 0.32342 0.87295 0.19174 0.0
H948 H 0.3053 0.86439 0.17513 0.0
H949 H 0.34381 0.92767 0.13195 0.0
H950 H 0.34573 0.92758 0.05924 0.0
H951 H 0.35433 0.92141 0.1035 0.0
C952 C 0.09675 0.45306 0.23981 0.0
C953 C 0.08956 0.44352 0.28123 0.0
C954 C 0.10126 0.44914 0.19328 0.0
C955 C 0.0986 0.4354 0.18844 0.0
C956 C 0.09137 0.42575 0.23018 0.0
C957 C 0.0869 0.42991 0.27586 0.0
C958 C 0.10881 0.45966 0.14925 0.0
C959 C 0.08837 0.41102 0.22667 0.0
C960 C 0.09752 0.41981 0.05038 0.0
C961 C 0.11035 0.42044 0.04852 0.0
C962 C 0.09375 0.42502 0.09496 0.0
C963 C 0.10298 0.43088 0.13913 0.0
C964 C 0.11602 0.43169 0.13737 0.0
C965 C 0.11959 0.42651 0.09189 0.0
C966 C 0.07979 0.42404 0.09512 0.0
C967 C 0.12608 0.43777 0.18399 0.0
H968 H 0.09887 0.4636 0.24374 0.0
H969 H 0.08142 0.42247 0.30778 0.0
H970 H 0.11915 0.46081 0.14264 0.0
H971 H 0.10308 0.45607 0.11033 0.0
H972 H 0.11013 0.46993 0.1593 0.0
H973 H 0.08293 0.40489 0.26327 0.0
H974 H 0.08191 0.4059 0.19045 0.0
H975 H 0.09814 0.41084 0.22175 0.0
H976 H 0.09036 0.41525 0.01682 0.0
H977 H 0.12953 0.42707 0.09064 0.0
H978 H 0.08097 0.43437 0.10234 0.0
H979 H 0.07342 0.41722 0.12875 0.0
H980 H 0.07413 0.41988 0.0563 0.0
H981 H 0.12822 0.44838 0.19284 0.0
H982 H 0.13601 0.43814 0.17543 0.0
H983 H 0.1215 0.43153 0.22121 0.0
C984 C 0.0957 0.6419 0.24341 0.0
C985 C 0.08922 0.64465 0.28648 0.0
C986 C 0.10035 0.65051 0.19741 0.0
C987 C 0.09856 0.66218 0.19477 0.0
C988 C 0.09222 0.66511 0.23853 0.0
C989 C 0.08759 0.65629 0.28365 0.0
C990 C 0.10696 0.64702 0.15127 0.0
C991 C 0.09018 0.67747 0.23742 0.0
C992 C 0.11932 0.69131 0.09486 0.0
C993 C 0.10959 0.68843 0.05362 0.0
C994 C 0.11596 0.68274 0.1408 0.0
C995 C 0.10263 0.67098 0.14523 0.0
C996 C 0.09285 0.66794 0.10335 0.0
C997 C 0.09643 0.67673 0.05825 0.0
C998 C 0.12661 0.68635 0.18493 0.0
C999 C 0.07854 0.65548 0.10642 0.0
H1000 H 0.09702 0.63295 0.2454 0.0
H1001 H 0.08269 0.65857 0.31693 0.0
H1002 H 0.10067 0.6449 0.11386 0.0
H1003 H 0.11733 0.65592 0.14241 0.0
H1004 H 0.10802 0.63786 0.16038 0.0
H1005 H 0.08565 0.67865 0.27583 0.0
H1006 H 0.10019 0.68704 0.23038 0.0
H1007 H 0.08325 0.67647 0.20331 0.0
H1008 H 0.12951 0.70032 0.09147 0.0
H1009 H 0.08888 0.67435 0.02639 0.0
H1010 H 0.12833 0.67754 0.1923 0.0
H1011 H 0.1228 0.68838 0.22354 0.0
H1012 H 0.13664 0.6956 0.17457 0.0
H1013 H 0.07919 0.64598 0.11213 0.0
H1014 H 0.07236 0.65424 0.06933 0.0
H1015 H 0.07298 0.6564 0.14206 0.0
C1016 C 0.34653 0.43004 0.27231 0.0
C1017 C 0.35793 0.44341 0.2768 0.0
C1018 C 0.33769 0.42614 0.22729 0.0
C1019 C 0.34036 0.43581 0.18534 0.0
C1020 C 0.35185 0.44934 0.18948 0.0
C1021 C 0.36048 0.453 0.23534 0.0
C1022 C 0.32552 0.41164 0.22453 0.0
C1023 C 0.3551 0.45987 0.14522 0.0
C1024 C 0.32568 0.42079 0.04682 0.0
C1025 C 0.31396 0.42229 0.04428 0.0
C1026 C 0.33447 0.42539 0.09203 0.0
C1027 C 0.33142 0.43152 0.13619 0.0
C1028 C 0.3196 0.43305 0.13406 0.0
C1029 C 0.31104 0.42848 0.08791 0.0
C1030 C 0.34701 0.42364 0.09257 0.0
C1031 C 0.31595 0.4394 0.18071 0.0
H1032 H 0.34442 0.42258 0.30433 0.0
H1033 H 0.36925 0.46336 0.23862 0.0
H1034 H 0.31582 0.41196 0.21947 0.0
H1035 H 0.32652 0.40621 0.18863 0.0
H1036 H 0.32459 0.40553 0.26148 0.0
H1037 H 0.36426 0.47001 0.15502 0.0
H1038 H 0.35704 0.45608 0.1064 0.0
H1039 H 0.34613 0.46138 0.13856 0.0
H1040 H 0.32809 0.41612 0.0131 0.0
H1041 H 0.30202 0.42969 0.08616 0.0
H1042 H 0.34628 0.41684 0.12678 0.0
H1043 H 0.35647 0.43377 0.09908 0.0
H1044 H 0.34818 0.41911 0.05414 0.0
H1045 H 0.31423 0.43319 0.21809 0.0
H1046 H 0.30653 0.44005 0.1724 0.0
H1047 H 0.32463 0.44993 0.18914 0.0
C1048 C 0.57138 0.91469 0.27681 0.0
C1049 C 0.55847 0.91388 0.27872 0.0
C1050 C 0.57527 0.90965 0.23208 0.0
C1051 C 0.56609 0.90377 0.18779 0.0
C1052 C 0.55297 0.90279 0.18955 0.0
C1053 C 0.54928 0.90781 0.2352 0.0
C1054 C 0.58931 0.9108 0.23193 0.0
C1055 C 0.54296 0.8967 0.14279 0.0
C1056 C 0.58262 0.90517 0.05172 0.0
C1057 C 0.58022 0.89166 0.04638 0.0
C1058 C 0.57784 0.90914 0.09703 0.0
C1059 C 0.57059 0.8994 0.13845 0.0
C1060 C 0.56814 0.88573 0.13351 0.0
C1061 C 0.57294 0.882 0.08733 0.0
C1062 C 0.58061 0.92379 0.10063 0.0
C1063 C 0.56057 0.87512 0.17721 0.0
H1064 H 0.57851 0.91925 0.31049 0.0
H1065 H 0.53927 0.90712 0.2365 0.0
H1066 H 0.58826 0.90053 0.22458 0.0
H1067 H 0.59565 0.91768 0.19838 0.0
H1068 H 0.59494 0.91497 0.2708 0.0
H1069 H 0.53298 0.89621 0.15132 0.0
H1070 H 0.54753 0.90301 0.1057 0.0
H1071 H 0.54094 0.88614 0.13372 0.0
H1072 H 0.58815 0.91269 0.0201 0.0
H1073 H 0.57103 0.87153 0.0834 0.0
H1074 H 0.58705 0.92896 0.13685 0.0
H1075 H 0.57076 0.9238 0.10562 0.0
H1076 H 0.58599 0.92997 0.06404 0.0
H1077 H 0.56626 0.87865 0.21622 0.0
H1078 H 0.5593 0.86488 0.16684 0.0
H1079 H 0.55021 0.8739 0.18382 0.0
C1080 C 0.22176 0.98714 0.88993 0.0
C1081 C 0.20898 0.97485 0.88901 0.0
C1082 C 0.2251 0.99684 0.93154 0.0
C1083 C 0.21536 0.99431 0.97305 0.0
C1084 C 0.20218 0.98228 0.971 0.0
C1085 C 0.19917 0.97262 0.92914 0.0
C1086 C 0.23933 0.00948 0.93248 0.0
C1087 C 0.19146 0.97937 0.01409 0.0
C1088 C 0.23201 0.01075 0.10696 0.0
C1089 C 0.2319 0.02324 0.10509 0.0
C1090 C 0.22605 0.00096 0.06542 0.0
C1091 C 0.21965 0.00359 0.0211 0.0
C1092 C 0.21875 0.01578 0.02044 0.0
C1093 C 0.22499 0.02553 0.06232 0.0
C1094 C 0.22735 0.98815 0.06748 0.0
C1095 C 0.21175 0.0188 0.97432 0.0
H1096 H 0.22941 0.98902 0.85904 0.0
H1097 H 0.18922 0.96322 0.92846 0.0
H1098 H 0.23858 0.01896 0.936 0.0
H1099 H 0.24507 0.00908 0.96856 0.0
H1100 H 0.24539 0.01032 0.89548 0.0
H1101 H 0.18119 0.97058 0.00288 0.0
H1102 H 0.19472 0.97688 0.05304 0.0
H1103 H 0.19047 0.98863 0.0212 0.0
H1104 H 0.23724 0.00881 0.13994 0.0
H1105 H 0.22473 0.03509 0.0608 0.0
H1106 H 0.23412 0.98844 0.03391 0.0
H1107 H 0.21712 0.97878 0.06167 0.0
H1108 H 0.23177 0.98717 0.10657 0.0
H1109 H 0.21816 0.02129 0.9371 0.0
H1110 H 0.21018 0.02764 0.98361 0.0
H1111 H 0.20161 0.0096 0.96514 0.0
C1112 C 0.971 0.19514 0.07044 0.0
C1113 C 0.97412 0.20516 0.11072 0.0
C1114 C 0.98015 0.19759 0.02717 0.0
C1115 C 0.99255 0.21043 0.02388 0.0
C1116 C 0.996 0.22033 0.06562 0.0
C1117 C 0.9868 0.21754 0.10864 0.0
C1118 C 0.97628 0.1867 0.98391 0.0
C1119 C 0.00909 0.23421 0.06346 0.0
C1120 C 0.02282 0.21893 0.93122 0.0
C1121 C 0.02082 0.22649 0.8902 0.0
C1122 C 0.01315 0.21272 0.9733 0.0
C1123 C 0.00135 0.21427 0.97456 0.0
C1124 C 0.99888 0.22114 0.93151 0.0
C1125 C 0.0086 0.22709 0.88973 0.0
C1126 C 0.01598 0.20521 0.01797 0.0
C1127 C 0.98644 0.22307 0.93144 0.0
H1128 H 0.96128 0.18549 0.07202 0.0
H1129 H 0.98936 0.22533 0.13966 0.0
H1130 H 0.97351 0.19008 0.94591 0.0
H1131 H 0.98516 0.18523 0.9745 0.0
H1132 H 0.96737 0.17662 0.99632 0.0
H1133 H 0.0106 0.24044 0.10068 0.0
H1134 H 0.01818 0.23284 0.05832 0.0
H1135 H 0.00875 0.24012 0.02784 0.0
H1136 H 0.03216 0.21828 0.93159 0.0
H1137 H 0.00687 0.23278 0.85797 0.0
H1138 H 0.00649 0.1954 0.02818 0.0
H1139 H 0.01928 0.21167 0.05522 0.0
H1140 H 0.02423 0.20292 0.00655 0.0
H1141 H 0.97687 0.21308 0.93828 0.0
H1142 H 0.98539 0.22757 0.8927 0.0
H1143 H 0.98736 0.23007 0.96521 0.0
C1144 C 0.7689 0.7806 0.89017 0.0
C1145 C 0.76972 0.79353 0.88826 0.0
C1146 C 0.77524 0.77729 0.93193 0.0
C1147 C 0.78277 0.78721 0.97247 0.0
C1148 C 0.78437 0.80057 0.96907 0.0
C1149 C 0.77771 0.80355 0.92718 0.0
C1150 C 0.77316 0.76287 0.93433 0.0
C1151 C 0.79259 0.8115 0.01095 0.0
C1152 C 0.78176 0.77079 0.10769 0.0
C1153 C 0.79397 0.77017 0.10618 0.0
C1154 C 0.77837 0.777 0.06569 0.0
C1155 C 0.7875 0.78292 0.02127 0.0
C1156 C 0.80027 0.78317 0.0211 0.0
C1157 C 0.80333 0.77669 0.06347 0.0
C1158 C 0.76459 0.77642 0.06729 0.0
C1159 C 0.81038 0.78965 0.97491 0.0
H1160 H 0.76282 0.7728 0.86018 0.0
H1161 H 0.77853 0.81361 0.92564 0.0
H1162 H 0.78323 0.76327 0.93821 0.0
H1163 H 0.76695 0.75745 0.97074 0.0
H1164 H 0.76778 0.75667 0.89777 0.0
H1165 H 0.79462 0.82186 0.99807 0.0
H1166 H 0.78683 0.80882 0.0499 0.0
H1167 H 0.80259 0.81199 0.01882 0.0
H1168 H 0.77449 0.7659 0.14071 0.0
H1169 H 0.81287 0.7764 0.06226 0.0
H1170 H 0.75791 0.76964 0.03414 0.0
H1171 H 0.76595 0.78683 0.06049 0.0
H1172 H 0.75915 0.77238 0.10658 0.0
H1173 H 0.80637 0.783 0.93832 0.0
H1174 H 0.82066 0.79098 0.98496 0.0
H1175 H 0.81165 0.79986 0.96427 0.0
C1176 C 0.76833 0.98899 0.8911 0.0
C1177 C 0.76836 0.97646 0.89117 0.0
C1178 C 0.77417 0.99839 0.934 0.0
C1179 C 0.78029 0.99526 0.97798 0.0
C1180 C 0.78103 0.98299 0.97704 0.0
C1181 C 0.775 0.97369 0.93367 0.0
C1182 C 0.77315 0.01137 0.93352 0.0
C1183 C 0.78764 0.97941 0.02293 0.0
C1184 C 0.80126 0.02537 0.07293 0.0
C1185 C 0.79142 0.02327 0.11277 0.0
C1186 C 0.79805 0.01594 0.03008 0.0
C1187 C 0.78467 0.00423 0.02692 0.0
C1188 C 0.77492 0.00174 0.06834 0.0
C1189 C 0.77843 0.01125 0.11083 0.0
C1190 C 0.80876 0.01882 0.98699 0.0
C1191 C 0.76052 0.98938 0.06637 0.0
H1192 H 0.76332 0.99129 0.8583 0.0
H1193 H 0.77517 0.96409 0.93388 0.0
H1194 H 0.76635 0.01098 0.96715 0.0
H1195 H 0.78345 0.02057 0.94032 0.0
H1196 H 0.76893 0.01273 0.89463 0.0
H1197 H 0.78891 0.97042 0.01294 0.0
H1198 H 0.79789 0.98836 0.03296 0.0
H1199 H 0.78114 0.9769 0.05991 0.0
H1200 H 0.81136 0.03457 0.07433 0.0
H1201 H 0.77078 0.00947 0.14158 0.0
H1202 H 0.80569 0.0217 0.94845 0.0
H1203 H 0.80946 0.00944 0.97879 0.0
H1204 H 0.81913 0.02734 -0.00116 0.0
H1205 H 0.75492 0.99027 0.03077 0.0
H1206 H 0.7545 0.98843 0.10363 0.0
H1207 H 0.76095 0.97976 0.06128 0.0
C1208 C 0.00994 0.78082 0.8908 0.0
C1209 C 0.0224 0.79344 0.89081 0.0
C1210 C 1.00051 0.77725 0.93357 0.0
C1211 C 0.00354 0.78656 0.97725 0.0
C1212 C 0.01565 0.79968 0.9759 0.0
C1213 C 0.025 0.80295 0.93273 0.0
C1214 C 0.98771 0.76314 0.93353 0.0
C1215 C 0.01909 0.80995 0.02137 0.0
C1216 C 0.9736 0.77672 0.0738 0.0
C1217 C 0.97614 0.76923 0.11341 0.0
C1218 C 0.98283 0.78312 0.03053 0.0
C1219 C 0.99477 0.78185 0.02668 0.0
C1220 C 0.99769 0.77485 0.06787 0.0
C1221 C 0.98838 0.76869 0.11081 0.0
C1222 C 0.9795 0.79068 0.98775 0.0
C1223 C 0.01031 0.77324 0.06516 0.0
H1224 H 0.00777 0.77344 0.8584 0.0
H1225 H 0.03454 0.81277 0.93284 0.0
H1226 H 0.98837 0.75682 0.96693 0.0
H1227 H 0.97841 0.76403 0.94096 0.0
H1228 H 0.98633 0.75757 0.89457 0.0
H1229 H 0.02775 0.82033 0.01052 0.0
H1230 H 0.00996 0.81088 0.03212 0.0
H1231 H 0.02206 0.8063 0.05816 0.0
H1232 H 0.96422 0.7773 0.07573 0.0
H1233 H 0.9905 0.76301 0.14138 0.0
H1234 H 0.97651 0.78464 0.94943 0.0
H1235 H 0.9887 0.80084 0.97878 0.0
H1236 H 0.9709 0.79233 0.00034 0.0
H1237 H 0.00952 0.76682 0.02944 0.0
H1238 H 0.01155 0.76829 0.10223 0.0
H1239 H 0.01973 0.78345 0.0598 0.0
C1240 C 0.22343 0.19949 0.06905 0.0
C1241 C 0.23104 0.20884 0.11052 0.0
C1242 C 0.21733 0.20321 0.02734 0.0
C1243 C 0.21903 0.21663 0.02692 0.0
C1244 C 0.2261 0.22584 0.07013 0.0
C1245 C 0.23195 0.22182 0.11149 0.0
C1246 C 0.20967 0.19303 0.98238 0.0
C1247 C 0.22821 0.24028 0.07106 0.0
C1248 C 0.22131 0.23436 0.89327 0.0
C1249 C 0.20881 0.23443 0.89235 0.0
C1250 C 0.22452 0.22816 0.93593 0.0
C1251 C 0.21492 0.2217 0.9786 0.0
C1252 C 0.20201 0.22115 0.97683 0.0
C1253 C 0.19913 0.22761 0.93382 0.0
C1254 C 0.23845 0.22906 0.93646 0.0
C1255 C 0.19145 0.21416 0.02123 0.0
H1256 H 0.22256 0.18939 0.06823 0.0
H1257 H 0.23771 0.2291 0.14352 0.0
H1258 H 0.19974 0.19262 0.97379 0.0
H1259 H 0.21589 0.19643 0.94454 0.0
H1260 H 0.20757 0.18248 0.99253 0.0
H1261 H 0.23294 0.24576 0.10968 0.0
H1262 H 0.23504 0.24635 0.03693 0.0
H1263 H 0.21823 0.23999 0.06538 0.0
H1264 H 0.22886 0.23955 0.86139 0.0
H1265 H 0.18939 0.22751 0.93322 0.0
H1266 H 0.23719 0.21863 0.94097 0.0
H1267 H 0.24453 0.2353 0.97184 0.0
H1268 H 0.24446 0.23385 0.89887 0.0
H1269 H 0.18985 0.2037 0.02932 0.0
H1270 H 0.18136 0.21324 0.01076 0.0
H1271 H 0.19525 0.22017 0.05945 0.0
C1272 C 0.89459 0.36342 0.40291 0.0
C1273 C 0.90214 0.361 0.44266 0.0
C1274 C 0.88786 0.35387 0.36078 0.0
C1275 C 0.8889 0.34178 0.35804 0.0
C1276 C 0.89606 0.33906 0.39918 0.0
C1277 C 0.9025 0.34864 0.44109 0.0
C1278 C 0.88008 0.35697 0.31815 0.0
C1279 C 0.89753 0.32635 0.39751 0.0
C1280 C 0.86726 0.31076 0.26807 0.0
C1281 C 0.87651 0.31305 0.22549 0.0
C1282 C 0.87076 0.32048 0.31005 0.0
C1283 C 0.88385 0.33264 0.30963 0.0
C1284 C 0.8929 0.33531 0.26533 0.0
C1285 C 0.88909 0.32554 0.22371 0.0
C1286 C 0.86073 0.31742 0.35613 0.0
C1287 C 0.90701 0.3481 0.26347 0.0
H1288 H 0.89414 0.37287 0.40413 0.0
H1289 H 0.90824 0.34663 0.47168 0.0
H1290 H 0.88584 0.35958 0.2792 0.0
H1291 H 0.86981 0.34777 0.31074 0.0
H1292 H 0.87864 0.36575 0.33001 0.0
H1293 H 0.90274 0.32537 0.43429 0.0
H1294 H 0.88725 0.31693 0.39384 0.0
H1295 H 0.90363 0.32678 0.36125 0.0
H1296 H 0.85746 0.3012 0.26951 0.0
H1297 H 0.89628 0.32749 0.19081 0.0
H1298 H 0.85992 0.32667 0.366 0.0
H1299 H 0.86453 0.31469 0.39308 0.0
H1300 H 0.85028 0.30872 0.3464 0.0
H1301 H 0.90619 0.35747 0.26984 0.0
H1302 H 0.91237 0.34915 0.22424 0.0
H1303 H 0.9135 0.3477 0.29678 0.0
C1304 C 0.67748 0.56357 0.22095 0.0
C1305 C 0.69017 0.56387 0.22286 0.0
C1306 C 0.66776 0.55744 0.26255 0.0
C1307 C 0.67067 0.55127 0.30696 0.0
C1308 C 0.68303 0.55069 0.30746 0.0
C1309 C 0.6927 0.5571 0.26552 0.0
C1310 C 0.65475 0.55838 0.26063 0.0
C1311 C 0.68634 0.54394 0.35363 0.0
C1312 C 0.65458 0.55382 0.43817 0.0
C1313 C 0.64234 0.54101 0.43995 0.0
C1314 C 0.66417 0.55702 0.39631 0.0
C1315 C 0.66159 0.5471 0.35552 0.0
C1316 C 0.64965 0.53387 0.35862 0.0
C1317 C 0.64007 0.53101 0.40063 0.0
C1318 C 0.6767 0.57132 0.39421 0.0
C1319 C 0.64673 0.52294 0.31643 0.0
H1320 H 0.67535 0.56867 0.18798 0.0
H1321 H 0.7024 0.55715 0.26702 0.0
H1322 H 0.64555 0.54808 0.26723 0.0
H1323 H 0.65498 0.56523 0.29376 0.0
H1324 H 0.65353 0.56254 0.22129 0.0
H1325 H 0.69515 0.54238 0.3438 0.0
H1326 H 0.68902 0.55053 0.39041 0.0
H1327 H 0.67723 0.53381 0.36382 0.0
H1328 H 0.65646 0.56162 0.46843 0.0
H1329 H 0.63071 0.52104 0.40205 0.0
H1330 H 0.6761 0.57685 0.35775 0.0
H1331 H 0.68623 0.57067 0.3906 0.0
H1332 H 0.67759 0.57755 0.43076 0.0
H1333 H 0.64386 0.52584 0.27746 0.0
H1334 H 0.63817 0.51265 0.32888 0.0
H1335 H 0.65608 0.52215 0.30877 0.0
C1336 C 0.44381 0.13538 0.27341 0.0
C1337 C 0.43683 0.12597 0.23128 0.0
C1338 C 0.45019 0.13209 0.31547 0.0
C1339 C 0.44936 0.11903 0.31566 0.0
C1340 C 0.44286 0.10978 0.27199 0.0
C1341 C 0.43677 0.1134 0.23025 0.0
C1342 C 0.45728 0.14232 0.36086 0.0
C1343 C 0.44163 0.0957 0.27083 0.0
C1344 C 0.47012 0.10885 0.40727 0.0
C1345 C 0.4604 0.10132 0.44778 0.0
C1346 C 0.46701 0.11544 0.36551 0.0
C1347 C 0.45382 0.11428 0.36391 0.0
C1348 C 0.44421 0.10719 0.40592 0.0
C1349 C 0.44765 0.10089 0.44745 0.0
C1350 C 0.47761 0.12315 0.32193 0.0
C1351 C 0.42998 0.10559 0.4055 0.0
H1352 H 0.44403 0.14518 0.27427 0.0
H1353 H 0.43148 0.10607 0.19777 0.0
H1354 H 0.45097 0.13857 0.39837 0.0
H1355 H 0.46746 0.14334 0.36995 0.0
H1356 H 0.4588 0.15268 0.35083 0.0
H1357 H 0.43707 0.0901 0.23223 0.0
H1358 H 0.4519 0.09664 0.27623 0.0
H1359 H 0.43502 0.08937 0.30502 0.0
H1360 H 0.48005 0.10937 0.40752 0.0
H1361 H 0.44008 0.09516 0.47866 0.0
H1362 H 0.47848 0.13333 0.31417 0.0
H1363 H 0.47432 0.11723 0.28337 0.0
H1364 H 0.48794 0.12478 0.33305 0.0
H1365 H 0.4307 0.1158 0.40131 0.0
H1366 H 0.42406 0.10054 0.44299 0.0
H1367 H 0.42409 0.09926 0.36997 0.0
C1368 C 0.4341 0.3215 0.22668 0.0
C1369 C 0.43463 0.30923 0.22498 0.0
C1370 C 0.44018 0.33092 0.26939 0.0
C1371 C 0.44708 0.3281 0.3113 0.0
C1372 C 0.44826 0.31609 0.30856 0.0
C1373 C 0.44196 0.30675 0.2655 0.0
C1374 C 0.43865 0.3436 0.27092 0.0
C1375 C 0.4557 0.31285 0.35218 0.0
C1376 C 0.46864 0.35858 0.40386 0.0
C1377 C 0.45927 0.35626 0.44599 0.0
C1378 C 0.46512 0.34911 0.36094 0.0
C1379 C 0.4519 0.33713 0.36007 0.0
C1380 C 0.44267 0.33442 0.40379 0.0
C1381 C 0.44649 0.34398 0.44627 0.0
C1382 C 0.47529 0.35225 0.31533 0.0
C1383 C 0.42846 0.32176 0.40435 0.0
H1384 H 0.42853 0.32356 0.19548 0.0
H1385 H 0.44252 0.29735 0.26431 0.0
H1386 H 0.43225 0.343 0.30642 0.0
H1387 H 0.44887 0.35302 0.2759 0.0
H1388 H 0.43372 0.34472 0.23353 0.0
H1389 H 0.45711 0.30401 0.34089 0.0
H1390 H 0.46597 0.32198 0.36033 0.0
H1391 H 0.44973 0.31027 0.3906 0.0
H1392 H 0.47858 0.36799 0.40348 0.0
H1393 H 0.4392 0.34202 0.4788 0.0
H1394 H 0.47156 0.35494 0.27809 0.0
H1395 H 0.47619 0.34304 0.30574 0.0
H1396 H 0.4857 0.36098 0.32538 0.0
H1397 H 0.42222 0.32239 0.37058 0.0
H1398 H 0.42292 0.32065 0.44317 0.0
H1399 H 0.42916 0.31232 0.39783 0.0
C1400 C 0.68091 0.11572 0.21516 0.0
C1401 C 0.6932 0.12847 0.21319 0.0
C1402 C 0.67154 0.11249 0.25797 0.0
C1403 C 0.67447 0.12229 0.29966 0.0
C1404 C 0.68645 0.13547 0.29642 0.0
C1405 C 0.69573 0.1384 0.25328 0.0
C1406 C 0.65888 0.09829 0.26003 0.0
C1407 C 0.68978 0.14625 0.33975 0.0
C1408 C 0.64429 0.11317 0.39403 0.0
C1409 C 0.64686 0.10617 0.43569 0.0
C1410 C 0.65361 0.11922 0.35074 0.0
C1411 C 0.66566 0.11811 0.34901 0.0
C1412 C 0.66864 0.1117 0.39235 0.0
C1413 C 0.65924 0.10587 0.43524 0.0
C1414 C 0.65021 0.12618 0.30561 0.0
C1415 C 0.68137 0.11027 0.39197 0.0
H1416 H 0.6788 0.10801 0.18423 0.0
H1417 H 0.70515 0.14833 0.25185 0.0
H1418 H 0.65963 0.09251 0.29532 0.0
H1419 H 0.64948 0.09909 0.26572 0.0
H1420 H 0.65763 0.09222 0.22256 0.0
H1421 H 0.69844 0.15652 0.32765 0.0
H1422 H 0.6806 0.14724 0.3488 0.0
H1423 H 0.69268 0.14304 0.37789 0.0
H1424 H 0.63481 0.11356 0.39426 0.0
H1425 H 0.66138 0.10058 0.46741 0.0
H1426 H 0.64728 0.11966 0.26855 0.0
H1427 H 0.65936 0.13626 0.29524 0.0
H1428 H 0.64155 0.12789 0.31661 0.0
H1429 H 0.68068 0.1034 0.35809 0.0
H1430 H 0.68269 0.10591 0.43059 0.0
H1431 H 0.69072 0.12045 0.38501 0.0
C1432 C 0.89094 0.53262 0.40112 0.0
C1433 C 0.89823 0.5424 0.44178 0.0
C1434 C 0.88472 0.5357 0.35793 0.0
C1435 C 0.88594 0.54891 0.35524 0.0
C1436 C 0.8927 0.55856 0.3975 0.0
C1437 C 0.8987 0.55517 0.44033 0.0
C1438 C 0.8774 0.52509 0.31395 0.0
C1439 C 0.89425 0.57278 0.39606 0.0
C1440 C 0.88742 0.56575 0.2203 0.0
C1441 C 0.8747 0.56538 0.21948 0.0
C1442 C 0.89092 0.55983 0.2631 0.0
C1443 C 0.88143 0.55326 0.30601 0.0
C1444 C 0.86827 0.55214 0.30398 0.0
C1445 C 0.86507 0.55827 0.26078 0.0
C1446 C 0.90508 0.56127 0.26381 0.0
C1447 C 0.85782 0.54503 0.34868 0.0
H1448 H 0.89042 0.52268 0.40213 0.0
H1449 H 0.90422 0.56277 0.4717 0.0
H1450 H 0.86726 0.52413 0.30462 0.0
H1451 H 0.88362 0.52843 0.27611 0.0
H1452 H 0.87576 0.51477 0.32557 0.0
H1453 H 0.89895 0.57871 0.4339 0.0
H1454 H 0.90087 0.57867 0.36118 0.0
H1455 H 0.88406 0.57201 0.39009 0.0
H1456 H 0.89491 0.57112 0.18841 0.0
H1457 H 0.85517 0.55782 0.26026 0.0
H1458 H 0.90426 0.55107 0.27027 0.0
H1459 H 0.91116 0.56802 0.29812 0.0
H1460 H 0.91086 0.56577 0.2255 0.0
H1461 H 0.85683 0.53489 0.35839 0.0
H1462 H 0.84749 0.54342 0.33759 0.0
H1463 H 0.86135 0.55139 0.38616 0.0
C1464 C 0.53057 0.64235 0.59694 0.0
C1465 C 0.54012 0.64492 0.55523 0.0
C1466 C 0.53362 0.65196 0.63899 0.0
C1467 C 0.54657 0.66429 0.63957 0.0
C1468 C 0.55591 0.66725 0.59607 0.0
C1469 C 0.55253 0.65758 0.55433 0.0
C1470 C 0.52329 0.6486 0.68414 0.0
C1471 C 0.56988 0.68023 0.59531 0.0
C1472 C 0.55662 0.69484 0.73322 0.0
C1473 C 0.56417 0.69251 0.77318 0.0
C1474 C 0.55001 0.68528 0.69103 0.0
C1475 C 0.55123 0.67329 0.68842 0.0
C1476 C 0.55832 0.67061 0.72997 0.0
C1477 C 0.5646 0.68019 0.77198 0.0
C1478 C 0.54226 0.6883 0.64805 0.0
C1479 C 0.55999 0.65801 0.72846 0.0
H1480 H 0.52089 0.63266 0.59764 0.0
H1481 H 0.55994 0.65975 0.52209 0.0
H1482 H 0.52693 0.64579 0.72135 0.0
H1483 H 0.52227 0.65773 0.6941 0.0
H1484 H 0.51296 0.63985 0.67334 0.0
H1485 H 0.57549 0.68149 0.55656 0.0
H1486 H 0.56878 0.68945 0.60147 0.0
H1487 H 0.57627 0.67993 0.6292 0.0
H1488 H 0.5561 0.70426 0.73418 0.0
H1489 H 0.57035 0.67824 0.80277 0.0
H1490 H 0.53217 0.67896 0.63944 0.0
H1491 H 0.54826 0.69129 0.60966 0.0
H1492 H 0.54044 0.69682 0.66029 0.0
H1493 H 0.5498 0.64852 0.72398 0.0
H1494 H 0.56506 0.65702 0.76564 0.0
H1495 H 0.56631 0.65862 0.69269 0.0
C1496 C 0.32348 0.88458 0.77587 0.0
C1497 C 0.31094 0.87205 0.77606 0.0
C1498 C 0.33281 0.88808 0.73278 0.0
C1499 C 0.3296 0.87876 0.68897 0.0
C1500 C 0.31741 0.8657 0.69056 0.0
C1501 C 0.30817 0.86251 0.73405 0.0
C1502 C 0.3457 0.90212 0.7326 0.0
C1503 C 0.31378 0.85542 0.64498 0.0
C1504 C 0.34456 0.89682 0.5556 0.0
C1505 C 0.3568 0.8963 0.55252 0.0
C1506 C 0.33528 0.89054 0.59855 0.0
C1507 C 0.33823 0.88344 0.63919 0.0
C1508 C 0.35014 0.88214 0.63465 0.0
C1509 C 0.35934 0.88865 0.59143 0.0
C1510 C 0.3227 0.8922 0.602 0.0
C1511 C 0.35349 0.87444 0.67678 0.0
H1512 H 0.32579 0.89197 0.80835 0.0
H1513 H 0.29857 0.85275 0.7341 0.0
H1514 H 0.35492 0.90113 0.72466 0.0
H1515 H 0.34503 0.90849 0.69943 0.0
H1516 H 0.34723 0.9077 0.77166 0.0
H1517 H 0.30513 0.84505 0.65611 0.0
H1518 H 0.3107 0.85908 0.60856 0.0
H1519 H 0.32285 0.85445 0.63351 0.0
H1520 H 0.34244 0.90261 0.52556 0.0
H1521 H 0.36872 0.88808 0.58909 0.0
H1522 H 0.32361 0.89862 0.63787 0.0
H1523 H 0.31326 0.88201 0.60755 0.0
H1524 H 0.32139 0.89718 0.56515 0.0
H1525 H 0.35671 0.88048 0.71509 0.0
H1526 H 0.36194 0.87265 0.66334 0.0
H1527 H 0.34424 0.86434 0.68609 0.0
C1528 C 0.11478 0.43182 0.77076 0.0
C1529 C 0.12714 0.43148 0.77255 0.0
C1530 C 0.11194 0.43824 0.72785 0.0
C1531 C 0.12175 0.44463 0.68582 0.0
C1532 C 0.13451 0.44489 0.68845 0.0
C1533 C 0.13703 0.43822 0.73169 0.0
C1534 C 0.09815 0.43766 0.7264 0.0
C1535 C 0.1453 0.4518 0.64474 0.0
C1536 C 0.1053 0.44505 0.55224 0.0
C1537 C 0.10637 0.4581 0.55348 0.0
C1538 C 0.11096 0.44084 0.59368 0.0
C1539 C 0.118 0.44994 0.63722 0.0
C1540 C 0.11994 0.46345 0.63692 0.0
C1541 C 0.11402 0.46736 0.59514 0.0
C1542 C 0.1086 0.42631 0.59259 0.0
C1543 C 0.1276 0.47351 0.68221 0.0
H1544 H 0.10708 0.4267 0.80217 0.0
H1545 H 0.14666 0.43811 0.73297 0.0
H1546 H 0.09966 0.44819 0.72203 0.0
H1547 H 0.09216 0.43158 0.69061 0.0
H1548 H 0.09194 0.43288 0.76358 0.0
H1549 H 0.15524 0.45249 0.65589 0.0
H1550 H 0.14156 0.44587 0.6063 0.0
H1551 H 0.14714 0.46235 0.63666 0.0
H1552 H 0.09951 0.43785 0.52004 0.0
H1553 H 0.11503 0.47751 0.59616 0.0
H1554 H 0.10154 0.42023 0.62619 0.0
H1555 H 0.11844 0.42639 0.59903 0.0
H1556 H 0.10399 0.42096 0.55362 0.0
H1557 H 0.12122 0.47022 0.71964 0.0
H1558 H 0.13001 0.48416 0.67194 0.0
H1559 H 0.13737 0.47364 0.69156 0.0
C1560 C 0.1343 0.6929 0.73908 0.0
C1561 C 0.12433 0.69089 0.77814 0.0
C1562 C 0.13134 0.6832 0.69742 0.0
C1563 C 0.11803 0.67136 0.69443 0.0
C1564 C 0.1081 0.66907 0.73475 0.0
C1565 C 0.11139 0.6788 0.77622 0.0
C1566 C 0.14226 0.68585 0.65562 0.0
C1567 C 0.09373 0.65664 0.73275 0.0
C1568 C 0.10215 0.65487 0.55956 0.0
C1569 C 0.10204 0.64228 0.56263 0.0
C1570 C 0.10793 0.6647 0.60109 0.0
C1571 C 0.11391 0.66198 0.64668 0.0
C1572 C 0.11456 0.64966 0.6487 0.0
C1573 C 0.10853 0.63989 0.60674 0.0
C1574 C 0.10692 0.67765 0.59751 0.0
C1575 C 0.12108 0.64654 0.69627 0.0
H1576 H 0.14437 0.70214 0.74054 0.0
H1577 H 0.10361 0.67711 0.80623 0.0
H1578 H 0.14314 0.67648 0.64977 0.0
H1579 H 0.13929 0.68829 0.6159 0.0
H1580 H 0.15252 0.69458 0.66732 0.0
H1581 H 0.08747 0.656 0.76883 0.0
H1582 H 0.08833 0.65714 0.69572 0.0
H1583 H 0.09425 0.64701 0.7303 0.0
H1584 H 0.09725 0.65688 0.52554 0.0
H1585 H 0.10861 0.63026 0.60923 0.0
H1586 H 0.11719 0.68692 0.60404 0.0
H1587 H 0.09999 0.67754 0.62999 0.0
H1588 H 0.10285 0.67867 0.55763 0.0
H1589 H 0.13127 0.65561 0.706 0.0
H1590 H 0.12246 0.63753 0.68829 0.0
H1591 H 0.11446 0.64428 0.73273 0.0
C1592 C 0.32578 0.43857 0.77285 0.0
C1593 C 0.31323 0.43853 0.77213 0.0
C1594 C 0.3352 0.44429 0.72997 0.0
C1595 C 0.33205 0.45023 0.68542 0.0
C1596 C 0.31984 0.45106 0.68601 0.0
C1597 C 0.31052 0.44515 0.72935 0.0
C1598 C 0.34812 0.44319 0.73087 0.0
C1599 C 0.31627 0.45753 0.63955 0.0
C1600 C 0.36187 0.47008 0.58812 0.0
C1601 C 0.35944 0.45988 0.54947 0.0
C1602 C 0.35264 0.46737 0.63127 0.0
C1603 C 0.34082 0.45411 0.63601 0.0
C1604 C 0.33801 0.44399 0.59581 0.0
C1605 C 0.34731 0.44702 0.55294 0.0
C1606 C 0.35585 0.47847 0.67297 0.0
C1607 C 0.32552 0.4297 0.59953 0.0
H1608 H 0.32805 0.43361 0.80595 0.0
H1609 H 0.30091 0.44528 0.72866 0.0
H1610 H 0.34754 0.43605 0.6983 0.0
H1611 H 0.35733 0.45339 0.72271 0.0
H1612 H 0.34958 0.43929 0.77041 0.0
H1613 H 0.30753 0.45918 0.64974 0.0
H1614 H 0.32532 0.46758 0.62809 0.0
H1615 H 0.31336 0.4507 0.60342 0.0
H1616 H 0.37116 0.4801 0.58549 0.0
H1617 H 0.34529 0.43908 0.52313 0.0
H1618 H 0.35887 0.47568 0.71183 0.0
H1619 H 0.34658 0.47936 0.68122 0.0
H1620 H 0.36438 0.4887 0.65973 0.0
H1621 H 0.32641 0.42434 0.63595 0.0
H1622 H 0.32436 0.42332 0.56315 0.0
H1623 H 0.31601 0.43035 0.60428 0.0
C1624 C 0.56654 0.89062 0.77241 0.0
C1625 C 0.56524 0.87748 0.77337 0.0
C1626 C 0.56057 0.89443 0.73081 0.0
C1627 C 0.55299 0.88484 0.68933 0.0
C1628 C 0.55095 0.8713 0.69166 0.0
C1629 C 0.55718 0.86779 0.73354 0.0
C1630 C 0.56305 0.90901 0.72964 0.0
C1631 C 0.54274 0.86073 0.64858 0.0
C1632 C 0.53282 0.89568 0.59725 0.0
C1633 C 0.54221 0.90204 0.55447 0.0
C1634 C 0.53584 0.88937 0.64036 0.0
C1635 C 0.54859 0.88957 0.64081 0.0
C1636 C 0.55783 0.89546 0.59669 0.0
C1637 C 0.5545 0.90155 0.55402 0.0
C1638 C 0.52565 0.88297 0.68636 0.0
C1639 C 0.57157 0.89595 0.59573 0.0
H1640 H 0.57267 0.89816 0.80314 0.0
H1641 H 0.55601 0.85757 0.73424 0.0
H1642 H 0.56957 0.91457 0.69406 0.0
H1643 H 0.55315 0.90893 0.72504 0.0
H1644 H 0.56829 0.91488 0.76701 0.0
H1645 H 0.54052 0.85022 0.66015 0.0
H1646 H 0.53284 0.86045 0.64086 0.0
H1647 H 0.54861 0.86363 0.60986 0.0
H1648 H 0.52324 0.8959 0.59773 0.0
H1649 H 0.5618 0.90635 0.52105 0.0
H1650 H 0.52986 0.88937 0.72349 0.0
H1651 H 0.52395 0.87254 0.69593 0.0
H1652 H 0.51555 0.88212 0.67674 0.0
H1653 H 0.57812 0.9025 0.62963 0.0
H1654 H 0.57722 0.90018 0.55695 0.0
H1655 H 0.57008 0.88547 0.60177 0.0
C1656 C 0.36153 0.09786 0.11223 0.0
C1657 C 0.37038 0.11008 0.14019 0.0
C1658 C 0.34729 0.09065 0.12275 0.0
C1659 C 0.34178 0.09574 0.16236 0.0
C1660 C 0.35064 0.10806 0.19068 0.0
C1661 C 0.36482 0.1151 0.17916 0.0
C1662 C 0.33812 0.07759 0.09147 0.0
C1663 C 0.34516 0.1138 0.23332 0.0
C1664 C 0.3037 0.08456 0.15633 0.0
C1665 C 0.29811 0.07417 0.19609 0.0
C1666 C 0.31787 0.09161 0.1448 0.0
C1667 C 0.32671 0.08826 0.17393 0.0
C1668 C 0.32118 0.07787 0.21437 0.0
C1669 C 0.30694 0.07092 0.22487 0.0
C1670 C 0.32338 0.1026 0.10125 0.0
C1671 C 0.33032 0.0741 0.24655 0.0
H1672 H 0.36572 0.0939 0.08204 0.0
H1673 H 0.37155 0.1245 0.20114 0.0
H1674 H 0.33269 0.06881 0.12001 0.0
H1675 H 0.33011 0.07869 0.06911 0.0
H1676 H 0.34401 0.07503 0.06187 0.0
H1677 H 0.35344 0.12345 0.25199 0.0
H1678 H 0.3374 0.11599 0.21501 0.0
H1679 H 0.33989 0.10606 0.26594 0.0
H1680 H 0.29698 0.08713 0.13371 0.0
H1681 H 0.30274 0.06292 0.25568 0.0
H1682 H 0.32862 0.09993 0.06918 0.0
H1683 H 0.33117 0.11264 0.11889 0.0
H1684 H 0.31511 0.1039 0.08202 0.0
H1685 H 0.33572 0.07057 0.21866 0.0
H1686 H 0.32442 0.06582 0.27675 0.0
H1687 H 0.33835 0.08331 0.26834 0.0
C1688 C 0.90349 0.26425 0.11291 0.0
C1689 C 0.8915 0.2615 0.14125 0.0
C1690 C 0.91044 0.25702 0.12475 0.0
C1691 C 0.90532 0.24685 0.16612 0.0
C1692 C 0.89325 0.24404 0.19492 0.0
C1693 C 0.88647 0.25136 0.18204 0.0
C1694 C 0.92323 0.26021 0.09288 0.0
C1695 C 0.88751 0.23332 0.23946 0.0
C1696 C 0.91533 0.21905 0.16446 0.0
C1697 C 0.92595 0.224 0.20326 0.0
C1698 C 0.90859 0.22643 0.15181 0.0
C1699 C 0.91248 0.23901 0.17887 0.0
C1700 C 0.9231 0.24402 0.21839 0.0
C1701 C 0.92975 0.23648 0.22998 0.0
C1702 C 0.89735 0.22078 0.10924 0.0
C1703 C 0.92744 0.25735 0.24843 0.0
H1704 H 0.90745 0.27205 0.08131 0.0
H1705 H 0.87724 0.24917 0.20433 0.0
H1706 H 0.93212 0.26359 0.12086 0.0
H1707 H 0.92172 0.25077 0.07194 0.0
H1708 H 0.92587 0.26841 0.06199 0.0
H1709 H 0.87813 0.2325 0.25848 0.0
H1710 H 0.88488 0.22307 0.22282 0.0
H1711 H 0.89541 0.2359 0.27151 0.0
H1712 H 0.91234 0.20945 0.1434 0.0
H1713 H 0.93792 0.24037 0.26005 0.0
H1714 H 0.90006 0.22839 0.07591 0.0
H1715 H 0.88753 0.21904 0.12727 0.0
H1716 H 0.89564 0.21091 0.09157 0.0
H1717 H 0.93104 0.26601 0.21911 0.0
H1718 H 0.93582 0.25979 0.27819 0.0
H1719 H 0.91848 0.25671 0.27041 0.0
C1720 C 0.75081 0.63635 0.17671 0.0
C1721 C 0.74058 0.63088 0.13633 0.0
C1722 C 0.75784 0.6505 0.18878 0.0
C1723 C 0.75464 0.65943 0.15956 0.0
C1724 C 0.74438 0.65402 0.1186 0.0
C1725 C 0.73743 0.63979 0.10758 0.0
C1726 C 0.76868 0.65588 0.23291 0.0
C1727 C 0.74076 0.66326 0.08631 0.0
C1728 C 0.76434 0.69423 0.22184 0.0
C1729 C 0.77668 0.70305 0.19456 0.0
C1730 C 0.75705 0.68001 0.21085 0.0
C1731 C 0.76217 0.67449 0.17145 0.0
C1732 C 0.7746 0.68332 0.14374 0.0
C1733 C 0.78172 0.69747 0.15573 0.0
C1734 C 0.74387 0.67088 0.24149 0.0
C1735 C 0.78037 0.67782 0.10131 0.0
H1736 H 0.75329 0.62956 0.19932 0.0
H1737 H 0.72956 0.63568 0.0763 0.0
H1738 H 0.7788 0.66363 0.21575 0.0
H1739 H 0.76598 0.66116 0.26474 0.0
H1740 H 0.76982 0.64754 0.25234 0.0
H1741 H 0.73253 0.65743 0.05587 0.0
H1742 H 0.73725 0.6687 0.11408 0.0
H1743 H 0.75004 0.67126 0.0648 0.0
H1744 H 0.76037 0.69843 0.25192 0.0
H1745 H 0.79122 0.70418 0.13426 0.0
H1746 H 0.74483 0.6628 0.26399 0.0
H1747 H 0.73518 0.66552 0.21251 0.0
H1748 H 0.74127 0.67678 0.27087 0.0
H1749 H 0.78246 0.66999 0.11971 0.0
H1750 H 0.79008 0.68608 0.08297 0.0
H1751 H 0.7727 0.67261 0.06842 0.0
C1752 C 0.07169 0.30285 0.7882 0.0
C1753 C 0.07399 0.29344 0.81774 0.0
C1754 C 0.07887 0.31699 0.80059 0.0
C1755 C 0.08852 0.32186 0.84378 0.0
C1756 C 0.09087 0.31244 0.87389 0.0
C1757 C 0.08361 0.29835 0.86041 0.0
C1758 C 0.07616 0.32673 0.76726 0.0
C1759 C 0.10105 0.31725 0.92035 0.0
C1760 C 0.1161 0.35974 0.8413 0.0
C1761 C 0.11064 0.36557 0.87705 0.0
C1762 C 0.10909 0.34551 0.83067 0.0
C1763 C 0.09634 0.33686 0.85666 0.0
C1764 C 0.09089 0.34261 0.89363 0.0
C1765 C 0.09808 0.35691 0.90326 0.0
C1766 C 0.11521 0.33978 0.79077 0.0
C1767 C 0.07736 0.33369 0.92241 0.0
H1768 H 0.0643 0.29918 0.75513 0.0
H1769 H 0.08542 0.29118 0.88361 0.0
H1770 H 0.07258 0.3323 0.79403 0.0
H1771 H 0.08585 0.3346 0.74762 0.0
H1772 H 0.06828 0.32128 0.73518 0.0
H1773 H 0.10152 0.30859 0.94033 0.0
H1774 H 0.11151 0.32479 0.90535 0.0
H1775 H 0.0982 0.32261 0.95125 0.0
H1776 H 0.12578 0.36632 0.82076 0.0
H1777 H 0.09379 0.3613 0.93106 0.0
H1778 H 0.1081 0.33503 0.75583 0.0
H1779 H 0.11649 0.33156 0.81034 0.0
H1780 H 0.12539 0.34785 0.77505 0.0
H1781 H 0.0689 0.32877 0.89218 0.0
H1782 H 0.0748 0.33966 0.95158 0.0
H1783 H 0.07773 0.32527 0.94479 0.0
C1784 C 0.69772 0.78275 0.84204 0.0
C1785 C 0.70298 0.77773 0.80179 0.0
C1786 C 0.68361 0.77586 0.8546 0.0
C1787 C 0.67448 0.76368 0.826 0.0
C1788 C 0.67968 0.75859 0.78512 0.0
C1789 C 0.69387 0.76565 0.77361 0.0
C1790 C 0.67847 0.78158 0.89863 0.0
C1791 C 0.67023 0.74569 0.75349 0.0
C1792 C 0.63978 0.73899 0.88976 0.0
C1793 C 0.63097 0.74252 0.86243 0.0
C1794 C 0.65398 0.74582 0.87841 0.0
C1795 C 0.65948 0.75636 0.83858 0.0
C1796 C 0.65066 0.75999 0.81094 0.0
C1797 C 0.63653 0.75306 0.8233 0.0
C1798 C 0.6631 0.74174 0.90901 0.0
C1799 C 0.65613 0.77115 0.76807 0.0
H1800 H 0.70466 0.79205 0.86422 0.0
H1801 H 0.69781 0.76169 0.74242 0.0
H1802 H 0.67074 0.784 0.8816 0.0
H1803 H 0.67324 0.77374 0.93096 0.0
H1804 H 0.68693 0.79109 0.91741 0.0
H1805 H 0.67588 0.7431 0.72288 0.0
H1806 H 0.66481 0.73682 0.78168 0.0
H1807 H 0.66222 0.74702 0.73226 0.0
H1808 H 0.6356 0.73088 0.92008 0.0
H1809 H 0.62982 0.75585 0.8018 0.0
H1810 H 0.67132 0.75082 0.93081 0.0
H1811 H 0.66826 0.73818 0.88006 0.0
H1812 H 0.65723 0.73339 0.939 0.0
H1813 H 0.66411 0.78107 0.78593 0.0
H1814 H 0.64789 0.77269 0.75007 0.0
H1815 H 0.66114 0.76849 0.73501 0.0
C1816 C 0.23585 0.92664 0.76686 0.0
C1817 C 0.22353 0.92333 0.79387 0.0
C1818 C 0.2428 0.91934 0.77741 0.0
C1819 C 0.23734 0.90851 0.81608 0.0
C1820 C 0.22483 0.905 0.84297 0.0
C1821 C 0.21807 0.91241 0.83145 0.0
C1822 C 0.25607 0.92331 0.74766 0.0
C1823 C 0.2187 0.89355 0.88462 0.0
C1824 C 0.2491 0.88197 0.81428 0.0
C1825 C 0.25908 0.88687 0.85565 0.0
C1826 C 0.24199 0.88895 0.80074 0.0
C1827 C 0.24486 0.90106 0.82948 0.0
C1828 C 0.25484 0.906 0.87152 0.0
C1829 C 0.26185 0.89888 0.88398 0.0
C1830 C 0.23146 0.88339 0.75552 0.0
C1831 C 0.25811 0.91883 0.90339 0.0
H1832 H 0.24014 0.93502 0.73767 0.0
H1833 H 0.20856 0.90975 0.85261 0.0
H1834 H 0.26468 0.92686 0.77718 0.0
H1835 H 0.25526 0.91421 0.72625 0.0
H1836 H 0.25871 0.93166 0.71749 0.0
H1837 H 0.20875 0.89191 0.90108 0.0
H1838 H 0.21697 0.88375 0.86631 0.0
H1839 H 0.22602 0.89602 0.9189 0.0
H1840 H 0.24691 0.87273 0.792 0.0
H1841 H 0.26952 0.90274 0.91606 0.0
H1842 H 0.23434 0.89133 0.72338 0.0
H1843 H 0.22121 0.88099 0.77134 0.0
H1844 H 0.2305 0.87391 0.73682 0.0
H1845 H 0.26178 0.92778 0.87552 0.0
H1846 H 0.26611 0.92129 0.93496 0.0
H1847 H 0.24863 0.91747 0.92351 0.0
C1848 C 0.69385 0.92672 0.77088 0.0
C1849 C 0.70291 0.92356 0.79848 0.0
C1850 C 0.67962 0.9194 0.7813 0.0
C1851 C 0.67429 0.90868 0.8204 0.0
C1852 C 0.68332 0.90527 0.84774 0.0
C1853 C 0.69751 0.91273 0.8364 0.0
C1854 C 0.67031 0.92329 0.75109 0.0
C1855 C 0.67802 0.89391 0.88976 0.0
C1856 C 0.64016 0.9 0.88602 0.0
C1857 C 0.63077 0.88819 0.85698 0.0
C1858 C 0.65436 0.90662 0.87505 0.0
C1859 C 0.65932 0.90136 0.83392 0.0
C1860 C 0.64994 0.88936 0.80493 0.0
C1861 C 0.63578 0.8829 0.81686 0.0
C1862 C 0.66404 0.91937 0.90705 0.0
C1863 C 0.65484 0.88346 0.76073 0.0
H1864 H 0.69789 0.93503 0.74137 0.0
H1865 H 0.7044 0.91019 0.85794 0.0
H1866 H 0.66198 0.91413 0.73011 0.0
H1867 H 0.66529 0.92697 0.7803 0.0
H1868 H 0.676 0.93153 0.72049 0.0
H1869 H 0.68631 0.8922 0.90599 0.0
H1870 H 0.67332 0.89654 0.92412 0.0
H1871 H 0.66982 0.88411 0.87192 0.0
H1872 H 0.63642 0.90415 0.91721 0.0
H1873 H 0.62863 0.87379 0.79418 0.0
H1874 H 0.66936 0.92833 0.87921 0.0
H1875 H 0.67212 0.9179 0.92693 0.0
H1876 H 0.65859 0.9219 0.93878 0.0
H1877 H 0.6598 0.89115 0.72771 0.0
H1878 H 0.64629 0.87384 0.74302 0.0
H1879 H 0.66274 0.88119 0.77709 0.0
C1880 C 0.0719 0.76713 0.78343 0.0
C1881 C 0.07464 0.77914 0.81174 0.0
C1882 C 0.07892 0.76002 0.79597 0.0
C1883 C 0.08888 0.76497 0.83805 0.0
C1884 C 0.09173 0.77709 0.86674 0.0
C1885 C 0.08462 0.78405 0.85315 0.0
C1886 C 0.07566 0.74719 0.76416 0.0
C1887 C 0.10226 0.78266 0.91198 0.0
C1888 C 0.09781 0.73934 0.9008 0.0
C1889 C 0.11012 0.74262 0.87376 0.0
C1890 C 0.09091 0.74669 0.89027 0.0
C1891 C 0.0964 0.75752 0.85159 0.0
C1892 C 0.1089 0.761 0.82472 0.0
C1893 C 0.11562 0.75354 0.83622 0.0
C1894 C 0.07764 0.74275 0.91999 0.0
C1895 C 0.11506 0.77244 0.78309 0.0
H1896 H 0.06423 0.76326 0.75133 0.0
H1897 H 0.08679 0.79328 0.8754 0.0
H1898 H 0.08514 0.74854 0.74415 0.0
H1899 H 0.07197 0.73824 0.79207 0.0
H1900 H 0.06767 0.74473 0.73251 0.0
H1901 H 0.10323 0.79216 0.93055 0.0
H1902 H 0.09937 0.77474 0.94421 0.0
H1903 H 0.11251 0.78504 0.89623 0.0
H1904 H 0.0935 0.73096 0.92998 0.0
H1905 H 0.12511 0.75617 0.81506 0.0
H1906 H 0.06903 0.7392 0.89046 0.0
H1907 H 0.07846 0.75187 0.94129 0.0
H1908 H 0.075 0.73442 0.95025 0.0
H1909 H 0.10777 0.76998 0.74871 0.0
H1910 H 0.12503 0.77409 0.76678 0.0
H1911 H 0.11677 0.78225 0.80134 0.0
C1912 C 0.21892 0.30578 0.82697 0.0
C1913 C 0.22432 0.30007 0.79033 0.0
C1914 C 0.2259 0.31998 0.83814 0.0
C1915 C 0.23857 0.32873 0.81179 0.0
C1916 C 0.24396 0.32311 0.77395 0.0
C1917 C 0.2368 0.30884 0.76379 0.0
C1918 C 0.21984 0.32557 0.87893 0.0
C1919 C 0.2574 0.33216 0.74475 0.0
C1920 C 0.25107 0.36719 0.80909 0.0
C1921 C 0.26088 0.37213 0.85111 0.0
C1922 C 0.24381 0.35311 0.79555 0.0
C1923 C 0.24633 0.34372 0.82497 0.0
C1924 C 0.25614 0.34861 0.8676 0.0
C1925 C 0.26333 0.36275 0.88004 0.0
C1926 C 0.23346 0.34829 0.74968 0.0
C1927 C 0.25903 0.33889 0.90022 0.0
H1928 H 0.2093 0.29912 0.84778 0.0
H1929 H 0.24105 0.30455 0.73531 0.0
H1930 H 0.22706 0.33032 0.91357 0.0
H1931 H 0.21842 0.33378 0.86001 0.0
H1932 H 0.20974 0.31743 0.89498 0.0
H1933 H 0.25994 0.32627 0.71506 0.0
H1934 H 0.25689 0.34057 0.72288 0.0
H1935 H 0.26593 0.33708 0.77467 0.0
H1936 H 0.24913 0.37435 0.78634 0.0
H1937 H 0.27086 0.36644 0.91262 0.0
H1938 H 0.22308 0.34064 0.76505 0.0
H1939 H 0.23628 0.34304 0.71814 0.0
H1940 H 0.23282 0.35693 0.73034 0.0
H1941 H 0.24942 0.33093 0.92005 0.0
H1942 H 0.26698 0.34433 0.9321 0.0
H1943 H 0.26261 0.33342 0.87291 0.0
C1944 C 0.9262 0.69373 0.22596 0.0
C1945 C 0.92332 0.70307 0.19903 0.0
C1946 C 0.91883 0.67957 0.21393 0.0
C1947 C 0.90836 0.67461 0.17381 0.0
C1948 C 0.90527 0.68393 0.14694 0.0
C1949 C 0.91276 0.69804 0.15995 0.0
C1950 C 0.92237 0.66994 0.24371 0.0
C1951 C 0.8942 0.67903 0.10381 0.0
C1952 C 0.89935 0.64058 0.10618 0.0
C1953 C 0.88731 0.63124 0.13403 0.0
C1954 C 0.90617 0.65475 0.11814 0.0
C1955 C 0.90088 0.6597 0.15915 0.0
C1956 C 0.88864 0.65038 0.18693 0.0
C1957 C 0.88198 0.63627 0.17396 0.0
C1958 C 0.91915 0.66439 0.08737 0.0
C1959 C 0.8827 0.65527 0.23103 0.0
H1960 H 0.93429 0.69749 0.25633 0.0
H1961 H 0.91045 0.70515 0.13885 0.0
H1962 H 0.91304 0.66162 0.26388 0.0
H1963 H 0.92601 0.66493 0.21437 0.0
H1964 H 0.9305 0.67537 0.27494 0.0
H1965 H 0.89283 0.68754 0.08764 0.0
H1966 H 0.89688 0.67434 0.06957 0.0
H1967 H 0.88421 0.67092 0.12062 0.0
H1968 H 0.90353 0.63683 0.07514 0.0
H1969 H 0.8727 0.62915 0.19577 0.0
H1970 H 0.92798 0.6694 0.11596 0.0
H1971 H 0.91801 0.6727 0.06784 0.0
H1972 H 0.92168 0.65896 0.05549 0.0
H1973 H 0.89025 0.65996 0.2647 0.0
H1974 H 0.87292 0.64676 0.24781 0.0
H1975 H 0.88073 0.66339 0.21491 0.0
C1976 C 0.35991 0.2595 0.10594 0.0
C1977 C 0.36901 0.2563 0.13292 0.0
C1978 C 0.34567 0.25211 0.11645 0.0
C1979 C 0.34039 0.24126 0.15501 0.0
C1980 C 0.34946 0.23782 0.18178 0.0
C1981 C 0.36365 0.24536 0.17037 0.0
C1982 C 0.33632 0.25605 0.08687 0.0
C1983 C 0.34421 0.22633 0.22321 0.0
C1984 C 0.30616 0.23196 0.22135 0.0
C1985 C 0.29685 0.2202 0.19191 0.0
C1986 C 0.32035 0.2388 0.21018 0.0
C1987 C 0.3254 0.2338 0.16843 0.0
C1988 C 0.31612 0.22184 0.13895 0.0
C1989 C 0.30196 0.21517 0.15109 0.0
C1990 C 0.32994 0.25148 0.24271 0.0
C1991 C 0.32112 0.21621 0.09408 0.0
H1992 H 0.36391 0.2679 0.07683 0.0
H1993 H 0.37057 0.24278 0.19145 0.0
H1994 H 0.32805 0.24694 0.0654 0.0
H1995 H 0.33123 0.25954 0.11653 0.0
H1996 H 0.34198 0.26442 0.05677 0.0
H1997 H 0.35255 0.22466 0.23922 0.0
H1998 H 0.33943 0.22877 0.25779 0.0
H1999 H 0.3361 0.21656 0.20489 0.0
H2000 H 0.30234 0.23592 0.25305 0.0
H2001 H 0.29488 0.2061 0.12807 0.0
H2002 H 0.33521 0.26053 0.2153 0.0
H2003 H 0.33806 0.25004 0.26234 0.0
H2004 H 0.32442 0.25385 0.27471 0.0
H2005 H 0.32606 0.22406 0.06158 0.0
H2006 H 0.31262 0.20665 0.0758 0.0
H2007 H 0.32904 0.21394 0.11 0.0
C2008 C 0.74277 0.10259 0.10163 0.0
C2009 C 0.74584 0.11487 0.12846 0.0
C2010 C 0.74987 0.09555 0.1141 0.0
C2011 C 0.76026 0.10087 0.15455 0.0
C2012 C 0.76357 0.11337 0.18121 0.0
C2013 C 0.75634 0.12024 0.16778 0.0
C2014 C 0.7461 0.08229 0.08453 0.0
C2015 C 0.77457 0.11936 0.22464 0.0
C2016 C 0.76826 0.07527 0.22339 0.0
C2017 C 0.78025 0.07762 0.19599 0.0
C2018 C 0.76179 0.08292 0.21091 0.0
C2019 C 0.76739 0.09315 0.16986 0.0
C2020 C 0.77959 0.09572 0.14255 0.0
C2021 C 0.78588 0.08795 0.15602 0.0
C2022 C 0.74884 0.07993 0.24116 0.0
C2023 C 0.78585 0.10652 0.09845 0.0
H2024 H 0.73471 0.09837 0.07108 0.0
H2025 H 0.7588 0.12971 0.18879 0.0
H2026 H 0.75538 0.08305 0.06489 0.0
H2027 H 0.74218 0.07362 0.11393 0.0
H2028 H 0.73809 0.07977 0.0529 0.0
H2029 H 0.77619 0.12937 0.2404 0.0
H2030 H 0.77164 0.11201 0.25909 0.0
H2031 H 0.78449 0.12093 0.20831 0.0
H2032 H 0.76384 0.06735 0.25445 0.0
H2033 H 0.79513 0.08986 0.13457 0.0
H2034 H 0.7401 0.0763 0.21226 0.0
H2035 H 0.7502 0.0895 0.26041 0.0
H2036 H 0.74606 0.07197 0.27319 0.0
H2037 H 0.77842 0.10381 0.06444 0.0
H2038 H 0.79558 0.10754 0.0822 0.0
H2039 H 0.78803 0.11669 0.11434 0.0
C2040 C 0.03559 0.45165 0.52112 0.0
C2041 C 0.04044 0.44671 0.47901 0.0
C2042 C 0.02151 0.445 0.53441 0.0
C2043 C 0.01203 0.43318 0.50477 0.0
C2044 C 0.01683 0.4282 0.462 0.0
C2045 C 0.03096 0.435 0.44971 0.0
C2046 C 0.01677 0.4506 0.58035 0.0
C2047 C 0.00702 0.41566 0.42923 0.0
C2048 C 0.97719 0.40791 0.5662 0.0
C2049 C 0.96842 0.41164 0.53978 0.0
C2050 C 0.99145 0.41499 0.55592 0.0
C2051 C 0.99706 0.42602 0.51815 0.0
C2052 C 0.9883 0.42997 0.49195 0.0
C2053 C 0.97411 0.42276 0.50315 0.0
C2054 C 1.00048 0.41054 0.58488 0.0
C2055 C 0.99389 0.44165 0.45129 0.0
H2056 H 0.04282 0.46066 0.54409 0.0
H2057 H 0.03457 0.43111 0.41707 0.0
H2058 H 0.00913 0.45335 0.56511 0.0
H2059 H 0.01156 0.44255 0.61199 0.0
H2060 H 0.02545 0.45987 0.59951 0.0
H2061 H 0.01239 0.41315 0.39711 0.0
H2062 H 0.00154 0.40659 0.4564 0.0
H2063 H 0.99909 0.41742 0.4097 0.0
H2064 H 0.97292 0.39937 0.59465 0.0
H2065 H 0.96745 0.42574 0.48249 0.0
H2066 H 0.00892 0.41943 0.60675 0.0
H2067 H 0.00536 0.40692 0.55479 0.0
H2068 H 0.9946 0.40211 0.61453 0.0
H2069 H 0.00216 0.45124 0.47019 0.0
H2070 H 0.98577 0.44369 0.43557 0.0
H2071 H 0.99856 0.43916 0.41642 0.0
C2072 C 0.58181 0.55283 0.49182 0.0
C2073 C 0.59242 0.55782 0.53066 0.0
C2074 C 0.57489 0.56005 0.4797 0.0
C2075 C 0.57859 0.57253 0.50727 0.0
C2076 C 0.58921 0.57759 0.5468 0.0
C2077 C 0.59602 0.57019 0.55792 0.0
C2078 C 0.56364 0.55436 0.43716 0.0
C2079 C 0.59336 0.59081 0.57732 0.0
C2080 C 0.56913 0.59755 0.44252 0.0
C2081 C 0.55707 0.59456 0.47094 0.0
C2082 C 0.57625 0.59047 0.45395 0.0
C2083 C 0.57125 0.58023 0.495 0.0
C2084 C 0.55914 0.5772 0.52395 0.0
C2085 C 0.55217 0.58436 0.51146 0.0
C2086 C 0.58909 0.59391 0.42197 0.0
C2087 C 0.55353 0.56638 0.56818 0.0
H2088 H 0.57896 0.54331 0.47038 0.0
H2089 H 0.60419 0.57412 0.58801 0.0
H2090 H 0.55377 0.55244 0.45535 0.0
H2091 H 0.56624 0.56201 0.40408 0.0
H2092 H 0.56207 0.54457 0.41911 0.0
H2093 H 0.60177 0.59331 0.60701 0.0
H2094 H 0.59686 0.59952 0.5483 0.0
H2095 H 0.58434 0.58999 0.59946 0.0
H2096 H 0.57298 0.6054 0.41112 0.0
H2097 H 0.54291 0.582 0.53383 0.0
H2098 H 0.58771 0.58457 0.40059 0.0
H2099 H 0.59799 0.59733 0.44992 0.0
H2100 H 0.59164 0.60217 0.39144 0.0
H2101 H 0.55103 0.55621 0.55119 0.0
H2102 H 0.54409 0.56539 0.5874 0.0
H2103 H 0.56145 0.56901 0.60016 0.0
C2104 C 0.43324 0.02603 0.56702 0.0
C2105 C 0.44554 0.03501 0.53984 0.0
C2106 C 0.42611 0.01181 0.55576 0.0
C2107 C 0.43136 0.00645 0.51617 0.0
C2108 C 0.44385 0.01542 0.48911 0.0
C2109 C 0.4508 0.02956 0.50136 0.0
C2110 C 0.41286 0.00255 0.58572 0.0
C2111 C 0.44976 0.01011 0.4465 0.0
C2112 C 0.41906 0.96803 0.51562 0.0
C2113 C 0.40898 0.96319 0.47465 0.0
C2114 C 0.42639 0.98207 0.52975 0.0
C2115 C 0.42363 0.99152 0.50203 0.0
C2116 C 0.41355 0.98673 0.46039 0.0
C2117 C 0.40632 0.97263 0.44732 0.0
C2118 C 0.43703 0.98678 0.57452 0.0
C2119 C 0.41039 0.99651 0.4296 0.0
H2120 H 0.4291 0.03011 0.59689 0.0
H2121 H 0.46029 0.03639 0.48006 0.0
H2122 H 0.40417 0.99767 0.55644 0.0
H2123 H 0.41358 0.9941 0.60629 0.0
H2124 H 0.4104 0.00824 0.61663 0.0
H2125 H 0.45973 0.01838 0.43003 0.0
H2126 H 0.45138 0.00188 0.46392 0.0
H2127 H 0.44236 0.00545 0.41236 0.0
H2128 H 0.42117 0.96082 0.53712 0.0
H2129 H 0.39857 0.96901 0.41555 0.0
H2130 H 0.43432 0.99182 0.60736 0.0
H2131 H 0.44728 0.99458 0.55855 0.0
H2132 H 0.43789 0.97812 0.59236 0.0
H2133 H 0.40689 0.0018 0.45821 0.0
H2134 H 0.4023 0.99116 0.39817 0.0
H2135 H 0.41988 0.00461 0.40948 0.0
C2136 C 0.58441 0.03494 0.47439 0.0
C2137 C 0.59437 0.03989 0.51586 0.0
C2138 C 0.57711 0.02086 0.46096 0.0
C2139 C 0.57975 0.01148 0.48991 0.0
C2140 C 0.5897 0.01639 0.53204 0.0
C2141 C 0.59691 0.03053 0.5444 0.0
C2142 C 0.5666 0.01601 0.41564 0.0
C2143 C 0.59271 0.00668 0.56415 0.0
C2144 C 0.55245 0.97351 0.49214 0.0
C2145 C 0.55778 0.96786 0.45485 0.0
C2146 C 0.55942 0.98769 0.50347 0.0
C2147 C 0.572 0.9965 0.47665 0.0
C2148 C 0.57732 0.99094 0.43821 0.0
C2149 C 0.57017 0.97668 0.42789 0.0
C2150 C 0.55344 0.99322 0.5449 0.0
C2151 C 0.59066 1.00004 0.40851 0.0
H2152 H 0.5824 0.04209 0.45196 0.0
H2153 H 0.60456 0.03423 0.57656 0.0
H2154 H 0.56936 0.01082 0.38366 0.0
H2155 H 0.55629 0.00832 0.43143 0.0
H2156 H 0.56585 0.02463 0.39676 0.0
H2157 H 0.60073 0.01213 0.59576 0.0
H2158 H 0.58316 0.99869 0.58424 0.0
H2159 H 0.59625 0.00126 0.53643 0.0
H2160 H 0.54289 0.9668 0.51327 0.0
H2161 H 0.57436 0.97244 0.39891 0.0
H2162 H 0.55192 0.00141 0.52643 0.0
H2163 H 0.56075 0.99798 0.57925 0.0
H2164 H 0.5434 0.98504 0.56129 0.0
H2165 H 0.59004 0.00843 0.38698 0.0
H2166 H 0.59315 0.9942 0.37846 0.0
H2167 H 0.59927 0.005 0.43809 0.0
C2168 C 0.97368 0.56773 0.55313 0.0
C2169 C 0.96434 0.55569 0.52523 0.0
C2170 C 0.98785 0.5745 0.54147 0.0
C2171 C 0.99282 0.56914 0.50074 0.0
C2172 C 0.98347 0.55698 0.47253 0.0
C2173 C 0.96936 0.55038 0.4852 0.0
C2174 C 0.99751 0.5874 0.57271 0.0
C2175 C 0.98838 0.55098 0.42874 0.0
C2176 C 0.02767 0.59391 0.43824 0.0
C2177 C 0.03647 0.59055 0.46666 0.0
C2178 C 0.01341 0.58688 0.44829 0.0
C2179 C 0.00781 0.57627 0.48788 0.0
C2180 C 0.0166 0.5727 0.51616 0.0
C2181 C 0.0308 0.57984 0.50513 0.0
C2182 C 0.00435 0.59091 0.41705 0.0
C2183 C 0.01102 0.56148 0.5588 0.0
H2184 H 0.96993 0.57192 0.58418 0.0
H2185 H 0.96224 0.54111 0.46331 0.0
H2186 H 0.00547 0.58594 0.59377 0.0
H2187 H 0.00299 0.59619 0.54425 0.0
H2188 H 0.99203 0.59016 0.60342 0.0
H2189 H 0.9798 0.54146 0.41055 0.0
H2190 H 0.9936 0.55869 0.39597 0.0
H2191 H 0.99607 0.5485 0.44577 0.0
H2192 H 0.03194 0.60213 0.40836 0.0
H2193 H 0.03748 0.57715 0.52737 0.0
H2194 H 0.99936 0.59477 0.44556 0.0
H2195 H 0.996 0.58177 0.39607 0.0
H2196 H 0.01023 0.59905 0.38633 0.0
H2197 H 0.00624 0.56427 0.59229 0.0
H2198 H 0.01917 0.55972 0.57622 0.0
H2199 H 0.00285 0.55165 0.54104 0.0
C2200 C 0.42291 0.45211 0.5027 0.0
C2201 C 0.41228 0.44654 0.46392 0.0
C2202 C 0.43032 0.44542 0.51596 0.0
C2203 C 0.42707 0.4329 0.48969 0.0
C2204 C 0.41653 0.42735 0.44983 0.0
C2205 C 0.40926 0.43422 0.43752 0.0
C2206 C 0.44147 0.45164 0.55876 0.0
C2207 C 0.41282 0.41405 0.42067 0.0
C2208 C 0.4531 0.42049 0.48976 0.0
C2209 C 0.44774 0.41024 0.53011 0.0
C2210 C 0.44658 0.42807 0.47664 0.0
C2211 C 0.43445 0.42539 0.50468 0.0
C2212 C 0.42913 0.41525 0.54612 0.0
C2213 C 0.43581 0.40778 0.55825 0.0
C2214 C 0.45255 0.43877 0.4321 0.0
C2215 C 0.41625 0.41216 0.57716 0.0
H2216 H 0.42533 0.46162 0.52338 0.0
H2217 H 0.4011 0.42984 0.40739 0.0
H2218 H 0.43877 0.44438 0.59339 0.0
H2219 H 0.45139 0.45334 0.54186 0.0
H2220 H 0.44299 0.46163 0.57438 0.0
H2221 H 0.40466 0.41133 0.38957 0.0
H2222 H 0.42208 0.41491 0.40046 0.0
H2223 H 0.40915 0.40548 0.45042 0.0
H2224 H 0.4623 0.42247 0.46774 0.0
H2225 H 0.4316 0.39993 0.58961 0.0
H2226 H 0.45463 0.44893 0.44777 0.0
H2227 H 0.44497 0.43588 0.39853 0.0
H2228 H 0.46227 0.4399 0.4153 0.0
H2229 H 0.41754 0.42172 0.59621 0.0
H2230 H 0.41371 0.4043 0.60944 0.0
H2231 H 0.40737 0.40833 0.54882 0.0
C2232 C 0.23685 0.09139 0.24875 0.0
C2233 C 0.24705 0.0922 0.21339 0.0
C2234 C 0.23478 0.10273 0.25554 0.0
C2235 C 0.24343 0.11523 0.22764 0.0
C2236 C 0.25406 0.11618 0.19351 0.0
C2237 C 0.25558 0.1046 0.18616 0.0
C2238 C 0.22311 0.10122 0.29102 0.0
C2239 C 0.26377 0.1294 0.16409 0.0
C2240 C 0.23454 0.1423 0.1852 0.0
C2241 C 0.24225 0.15289 0.22231 0.0
C2242 C 0.23369 0.1294 0.18985 0.0
C2243 C 0.24118 0.12726 0.2314 0.0
C2244 C 0.2483 0.13766 0.27099 0.0
C2245 C 0.24858 0.15033 0.26638 0.0
C2246 C 0.22561 0.11845 0.14783 0.0
C2247 C 0.25668 0.13594 0.31518 0.0
H2248 H 0.23022 0.08177 0.26968 0.0
H2249 H 0.2636 0.1053 0.15936 0.0
H2250 H 0.22698 0.1096 0.3217 0.0
H2251 H 0.21543 0.10217 0.26566 0.0
H2252 H 0.21783 0.09112 0.31236 0.0
H2253 H 0.27216 0.12874 0.1427 0.0
H2254 H 0.25796 0.13181 0.13368 0.0
H2255 H 0.26849 0.13813 0.19323 0.0
H2256 H 0.22956 0.14427 0.15131 0.0
H2257 H 0.25464 0.15858 0.29484 0.0
H2258 H 0.21953 0.10818 0.16734 0.0
H2259 H 0.23285 0.11781 0.11875 0.0
H2260 H 0.21849 0.12074 0.12453 0.0
H2261 H 0.25082 0.12561 0.33429 0.0
H2262 H 0.2598 0.14395 0.34727 0.0
H2263 H 0.26615 0.13677 0.29707 0.0
C2264 C 0.84862 0.09724 0.28338 0.0
C2265 C 0.84647 0.08858 0.23888 0.0
C2266 C 0.86121 0.10962 0.28966 0.0
C2267 C 0.87191 0.11314 0.25126 0.0
C2268 C 0.8702 0.10365 0.2097 0.0
C2269 C 0.8574 0.0916 0.20342 0.0
C2270 C 0.86251 0.11952 0.33401 0.0
C2271 C 0.88147 0.10679 0.16889 0.0
C2272 C 0.89388 0.15014 0.20498 0.0
C2273 C 0.90636 0.15428 0.23193 0.0
C2274 C 0.88246 0.137 0.21306 0.0
C2275 C 0.88365 0.12756 0.24784 0.0
C2276 C 0.89618 0.13173 0.27594 0.0
C2277 C 0.90739 0.14517 0.2682 0.0
C2278 C 0.86919 0.13314 0.18327 0.0
C2279 C 0.89793 0.12185 0.31231 0.0
H2280 H 0.84012 0.09492 0.3106 0.0
H2281 H 0.85574 0.08481 0.16924 0.0
H2282 H 0.87282 0.12428 0.35342 0.0
H2283 H 0.86134 0.12798 0.316 0.0
H2284 H 0.85448 0.11437 0.36583 0.0
H2285 H 0.87951 0.09744 0.14581 0.0
H2286 H 0.88209 0.1146 0.13949 0.0
H2287 H 0.89163 0.11114 0.1894 0.0
H2288 H 0.89301 0.15726 0.17748 0.0
H2289 H 0.91708 0.14837 0.28893 0.0
H2290 H 0.86041 0.12896 0.21218 0.0
H2291 H 0.86704 0.12494 0.15304 0.0
H2292 H 0.86963 0.14206 0.16159 0.0
H2293 H 0.88926 0.11687 0.34159 0.0
H2294 H 0.90779 0.12705 0.33531 0.0
H2295 H 0.89776 0.11352 0.28725 0.0
C2296 C 0.90167 0.75127 0.28093 0.0
C2297 C 0.91073 0.75793 0.2377 0.0
C2298 C 0.88935 0.75166 0.28573 0.0
C2299 C 0.88632 0.7592 0.24718 0.0
C2300 C 0.8962 0.76709 0.20696 0.0
C2301 C 0.90817 0.76614 0.20206 0.0
C2302 C 0.87902 0.7429 0.32858 0.0
C2303 C 0.8936 0.77561 0.1661 0.0
C2304 C 0.84978 0.74505 0.19667 0.0
C2305 C 0.84562 0.75336 0.22384 0.0
C2306 C 0.86277 0.74651 0.20594 0.0
C2307 C 0.87205 0.75683 0.24213 0.0
C2308 C 0.86787 0.76519 0.27027 0.0
C2309 C 0.85456 0.76321 0.26136 0.0
C2310 C 0.86665 0.73712 0.17605 0.0
C2311 C 0.87759 0.77651 0.30808 0.0
H2312 H 0.90364 0.74483 0.30823 0.0
H2313 H 0.91527 0.77137 0.16884 0.0
H2314 H 0.87427 0.74849 0.34774 0.0
H2315 H 0.87061 0.73347 0.3092 0.0
H2316 H 0.88378 0.73968 0.36079 0.0
H2317 H 0.90318 0.78302 0.14436 0.0
H2318 H 0.88598 0.76868 0.13557 0.0
H2319 H 0.88922 0.78144 0.1863 0.0
H2320 H 0.84279 0.7373 0.16821 0.0
H2321 H 0.85133 0.76965 0.28228 0.0
H2322 H 0.87046 0.7322 0.20513 0.0
H2323 H 0.87511 0.74324 0.14694 0.0
H2324 H 0.85783 0.72887 0.15309 0.0
H2325 H 0.8821 0.77247 0.338 0.0
H2326 H 0.87241 0.7813 0.33037 0.0
H2327 H 0.88627 0.78466 0.28427 0.0
C2328 C 0.09698 0.24697 0.72924 0.0
C2329 C 0.08859 0.24053 0.77443 0.0
C2330 C 0.10958 0.24722 0.72268 0.0
C2331 C 0.11361 0.24055 0.76153 0.0
C2332 C 0.10447 0.2329 0.80419 0.0
C2333 C 0.09217 0.23319 0.81067 0.0
C2334 C 0.11911 0.25569 0.67719 0.0
C2335 C 0.10816 0.2253 0.8456 0.0
C2336 C 0.14588 0.23764 0.7415 0.0
C2337 C 0.1552 0.24815 0.77601 0.0
C2338 C 0.13227 0.23507 0.73552 0.0
C2339 C 0.12813 0.24348 0.76352 0.0
C2340 C 0.13775 0.25445 0.79659 0.0
C2341 C 0.15107 0.25651 0.80301 0.0
C2342 C 0.12222 0.22309 0.70097 0.0
C2343 C 0.13391 0.2639 0.82616 0.0
H2344 H 0.09423 0.25273 0.70138 0.0
H2345 H 0.0856 0.22809 0.84538 0.0
H2346 H 0.12759 0.26546 0.69412 0.0
H2347 H 0.12387 0.25015 0.65759 0.0
H2348 H 0.11366 0.25829 0.64569 0.0
H2349 H 0.09908 0.218 0.87012 0.0
H2350 H 0.11255 0.21949 0.82536 0.0
H2351 H 0.11613 0.23285 0.87364 0.0
H2352 H 0.14907 0.23115 0.72072 0.0
H2353 H 0.15833 0.26477 0.82913 0.0
H2354 H 0.11707 0.2265 0.67131 0.0
H2355 H 0.11404 0.21516 0.72727 0.0
H2356 H 0.12731 0.21824 0.67851 0.0
H2357 H 0.12938 0.26819 0.79736 0.0
H2358 H 0.14291 0.27261 0.84651 0.0
H2359 H 0.12599 0.25798 0.85747 0.0
C2360 C 0.74524 0.85017 0.80123 0.0
C2361 C 0.75383 0.84628 0.77466 0.0
C2362 C 0.74672 0.86322 0.79313 0.0
C2363 C 0.75737 0.87283 0.75889 0.0
C2364 C 0.76603 0.86893 0.73139 0.0
C2365 C 0.76401 0.85556 0.73896 0.0
C2366 C 0.737 0.86678 0.82217 0.0
C2367 C 0.77771 0.87901 0.69577 0.0
C2368 C 0.75206 0.90271 0.72152 0.0
C2369 C 0.75824 0.91141 0.76619 0.0
C2370 C 0.75255 0.89045 0.71594 0.0
C2371 C 0.75971 0.88713 0.7552 0.0
C2372 C 0.76714 0.89667 0.79711 0.0
C2373 C 0.76609 0.90857 0.80271 0.0
C2374 C 0.74427 0.88047 0.67128 0.0
C2375 C 0.77526 0.89375 0.83881 0.0
H2376 H 0.73724 0.84291 0.82826 0.0
H2377 H 0.77067 0.85253 0.71855 0.0
H2378 H 0.74279 0.87498 0.8527 0.0
H2379 H 0.73237 0.87085 0.79285 0.0
H2380 H 0.72854 0.85774 0.84336 0.0
H2381 H 0.78273 0.87404 0.67358 0.0
H2382 H 0.77396 0.8838 0.66582 0.0
H2383 H 0.78559 0.88747 0.72126 0.0
H2384 H 0.74591 0.90489 0.69351 0.0
H2385 H 0.77095 0.9154 0.83705 0.0
H2386 H 0.7347 0.87186 0.68888 0.0
H2387 H 0.75011 0.87594 0.65244 0.0
H2388 H 0.74133 0.88548 0.63908 0.0
H2389 H 0.76805 0.88586 0.8679 0.0
H2390 H 0.78241 0.90316 0.86215 0.0
H2391 H 0.78133 0.88958 0.81904 0.0
C2392 C 0.15097 0.89443 0.80334 0.0
C2393 C 0.15508 0.90686 0.77592 0.0
C2394 C 0.13776 0.88304 0.79611 0.0
C2395 C 0.12823 0.8842 0.7618 0.0
C2396 C 0.13234 0.89671 0.7335 0.0
C2397 C 0.14585 0.90787 0.74028 0.0
C2398 C 0.13396 0.8698 0.82604 0.0
C2399 C 0.12236 0.89844 0.69771 0.0
C2400 C 0.09775 0.84925 0.7259 0.0
C2401 C 0.08909 0.8471 0.77037 0.0
C2402 C 0.11022 0.86178 0.71999 0.0
C2403 C 0.11382 0.87244 0.75869 0.0
C2404 C 0.10438 0.87073 0.80046 0.0
C2405 C 0.09225 0.85798 0.80639 0.0
C2406 C 0.12007 0.86306 0.67551 0.0
C2407 C 0.10761 0.88196 0.84159 0.0
H2408 H 0.15816 0.89357 0.83034 0.0
H2409 H 0.14904 0.91751 0.71917 0.0
H2410 H 0.12583 0.86768 0.85652 0.0
H2411 H 0.12971 0.86098 0.79725 0.0
H2412 H 0.14292 0.87025 0.84743 0.0
H2413 H 0.12744 0.9084 0.67536 0.0
H2414 H 0.1175 0.88988 0.66789 0.0
H2415 H 0.11396 0.89801 0.72307 0.0
H2416 H 0.09533 0.84079 0.69826 0.0
H2417 H 0.08546 0.85633 0.84054 0.0
H2418 H 0.12858 0.86196 0.69344 0.0
H2419 H 0.12477 0.87336 0.65595 0.0
H2420 H 0.11491 0.855 0.64381 0.0
H2421 H 0.11546 0.88254 0.87068 0.0
H2422 H 0.09831 0.88001 0.865 0.0
H2423 H 0.11196 0.89216 0.8213 0.0
C2424 C 0.92497 0.44123 0.53181 0.0
C2425 C 0.91666 0.42873 0.55874 0.0
C2426 C 0.92308 0.45257 0.53942 0.0
C2427 C 0.91232 0.45127 0.57363 0.0
C2428 C 0.90395 0.4387 0.60149 0.0
C2429 C 0.90636 0.42759 0.59431 0.0
C2430 C 0.93249 0.46589 0.50993 0.0
C2431 C 0.89217 0.43683 0.63716 0.0
C2432 C 0.91662 0.48613 0.61 0.0
C2433 C 0.91018 0.48832 0.56538 0.0
C2434 C 0.91656 0.47359 0.61589 0.0
C2435 C 0.90957 0.46297 0.57699 0.0
C2436 C 0.90187 0.46471 0.53514 0.0
C2437 C 0.90249 0.47747 0.52925 0.0
C2438 C 0.92508 0.47227 0.66051 0.0
C2439 C 0.89393 0.45351 0.49378 0.0
H2440 H 0.93307 0.44219 0.50486 0.0
H2441 H 0.89991 0.41789 0.61502 0.0
H2442 H 0.92648 0.46802 0.47945 0.0
H2443 H 0.93697 0.47465 0.53898 0.0
H2444 H 0.94105 0.46553 0.48859 0.0
H2445 H 0.88736 0.42685 0.65941 0.0
H2446 H 0.89577 0.44536 0.66707 0.0
H2447 H 0.88416 0.43718 0.61173 0.0
H2448 H 0.92265 0.49458 0.63773 0.0
H2449 H 0.89741 0.47915 0.49498 0.0
H2450 H 0.93474 0.47347 0.64279 0.0
H2451 H 0.91951 0.46193 0.67973 0.0
H2452 H 0.92788 0.48027 0.69243 0.0
H2453 H 0.90125 0.45302 0.46469 0.0
H2454 H 0.88658 0.45546 0.4704 0.0
H2455 H 0.88812 0.44329 0.51386 0.0
C2456 C 0.52534 0.42564 0.52902 0.0
C2457 C 0.51464 0.4225 0.56586 0.0
C2458 C 0.5381 0.43781 0.53416 0.0
C2459 C 0.53998 0.4473 0.57597 0.0
C2460 C 0.52952 0.44371 0.61552 0.0
C2461 C 0.51699 0.43121 0.61037 0.0
C2462 C 0.54913 0.44101 0.49212 0.0
C2463 C 0.53099 0.45362 0.66012 0.0
C2464 C 0.57546 0.47942 0.59168 0.0
C2465 C 0.57425 0.48855 0.55615 0.0
C2466 C 0.56434 0.46593 0.59939 0.0
C2467 C 0.55168 0.46173 0.57216 0.0
C2468 C 0.55032 0.47119 0.5381 0.0
C2469 C 0.56167 0.48438 0.52989 0.0
C2470 C 0.56629 0.45603 0.63487 0.0
C2471 C 0.53692 0.46731 0.50934 0.0
H2472 H 0.52354 0.41882 0.4948 0.0
H2473 H 0.50865 0.42882 0.63864 0.0
H2474 H 0.54952 0.44881 0.46317 0.0
H2475 H 0.55942 0.44543 0.51162 0.0
H2476 H 0.54709 0.43169 0.46867 0.0
H2477 H 0.52311 0.44847 0.69246 0.0
H2478 H 0.54139 0.45841 0.6788 0.0
H2479 H 0.52972 0.46207 0.64252 0.0
H2480 H 0.58522 0.48265 0.61185 0.0
H2481 H 0.56067 0.49151 0.50297 0.0
H2482 H 0.56588 0.44765 0.60934 0.0
H2483 H 0.55783 0.45111 0.66506 0.0
H2484 H 0.57631 0.4612 0.65679 0.0
H2485 H 0.53467 0.45915 0.47881 0.0
H2486 H 0.53723 0.47623 0.48819 0.0
H2487 H 0.52826 0.46307 0.53883 0.0
C2488 C 0.57191 0.08688 0.60416 0.0
C2489 C 0.58046 0.09348 0.5595 0.0
C2490 C 0.55942 0.08685 0.61079 0.0
C2491 C 0.55567 0.0939 0.57264 0.0
C2492 C 0.56499 0.10171 0.5307 0.0
C2493 C 0.57716 0.10119 0.52404 0.0
C2494 C 0.54968 0.07818 0.65543 0.0
C2495 C 0.56161 0.10972 0.49013 0.0
C2496 C 0.5184 0.07863 0.52948 0.0
C2497 C 0.5143 0.08687 0.55753 0.0
C2498 C 0.53165 0.08049 0.53603 0.0
C2499 C 0.54122 0.09117 0.57028 0.0
C2500 C 0.53712 0.09949 0.59922 0.0
C2501 C 0.52358 0.09709 0.59312 0.0
C2502 C 0.53544 0.07114 0.50542 0.0
C2503 C 0.54715 0.11118 0.63498 0.0
H2504 H 0.57444 0.08083 0.63136 0.0
H2505 H 0.58386 0.10638 0.48973 0.0
H2506 H 0.54498 0.0837 0.67553 0.0
H2507 H 0.54117 0.06857 0.63753 0.0
H2508 H 0.55494 0.07527 0.68668 0.0
H2509 H 0.57084 0.11712 0.46652 0.0
H2510 H 0.55372 0.10245 0.46117 0.0
H2511 H 0.55726 0.11549 0.51096 0.0
H2512 H 0.51117 0.07059 0.50251 0.0
H2513 H 0.5204 0.10349 0.61471 0.0
H2514 H 0.53979 0.06657 0.53373 0.0
H2515 H 0.54349 0.07721 0.47473 0.0
H2516 H 0.52645 0.06263 0.48416 0.0
H2517 H 0.5521 0.10748 0.66434 0.0
H2518 H 0.54209 0.116 0.65787 0.0
H2519 H 0.55548 0.11921 0.60951 0.0
C2520 C 0.77151 0.58896 0.13697 0.0
C2521 C 0.75906 0.58045 0.11008 0.0
C2522 C 0.78311 0.58757 0.1284 0.0
C2523 C 0.78213 0.57707 0.09332 0.0
C2524 C 0.7696 0.56848 0.06557 0.0
C2525 C 0.75822 0.57042 0.07365 0.0
C2526 C 0.79636 0.59721 0.15777 0.0
C2527 C 0.76807 0.55696 0.02904 0.0
C2528 C 0.81732 0.58262 0.05451 0.0
C2529 C 0.81988 0.57623 0.09835 0.0
C2530 C 0.80457 0.58216 0.04971 0.0
C2531 C 0.79413 0.57483 0.0889 0.0
C2532 C 0.79628 0.56722 0.12994 0.0
C2533 C 0.80923 0.56824 0.1348 0.0
C2534 C 0.80283 0.59063 0.006 0.0
C2535 C 0.78529 0.55892 0.17152 0.0
H2536 H 0.77222 0.59685 0.16458 0.0
H2537 H 0.74855 0.56381 0.05298 0.0
H2538 H 0.79881 0.59132 0.18765 0.0
H2539 H 0.80506 0.60202 0.12851 0.0
H2540 H 0.79572 0.60555 0.17978 0.0
H2541 H 0.75804 0.55191 0.00716 0.0
H2542 H 0.77654 0.56091 -0.00122 0.0
H2543 H 0.76881 0.54906 0.05376 0.0
H2544 H 0.82562 0.58888 0.02657 0.0
H2545 H 0.81122 0.56322 0.16849 0.0
H2546 H 0.80374 0.6001 0.02451 0.0
H2547 H 0.79247 0.58485 0.98706 0.0
H2548 H 0.81079 0.59377 0.97372 0.0
H2549 H 0.7846 0.56601 0.20125 0.0
H2550 H 0.78759 0.55171 0.19414 0.0
H2551 H 0.77505 0.5529 0.15176 0.0
C2552 C 0.41197 0.18253 0.14371 0.0
C2553 C 0.42084 0.17887 0.11795 0.0
C2554 C 0.41321 0.19547 0.13527 0.0
C2555 C 0.42391 0.20523 0.10158 0.0
C2556 C 0.43288 0.20158 0.07504 0.0
C2557 C 0.43109 0.1883 0.08286 0.0
C2558 C 0.40317 0.19876 0.16323 0.0
C2559 C 0.44462 0.21183 0.04008 0.0
C2560 C 0.41825 0.23475 0.06114 0.0
C2561 C 0.4242 0.24361 0.10558 0.0
C2562 C 0.41887 0.22253 0.05691 0.0
C2563 C 0.42594 0.21941 0.09729 0.0
C2564 C 0.43309 0.22906 0.1392 0.0
C2565 C 0.4319 0.24092 0.14343 0.0
C2566 C 0.41087 0.21241 0.01225 0.0
C2567 C 0.44111 0.22637 0.1821 0.0
H2568 H 0.40391 0.17516 0.17025 0.0
H2569 H 0.43796 0.18547 0.06306 0.0
H2570 H 0.40869 0.20701 0.19384 0.0
H2571 H 0.3985 0.20264 0.13327 0.0
H2572 H 0.39474 0.18963 0.18414 0.0
H2573 H 0.45005 0.2071 0.01921 0.0
H2574 H 0.4408 0.21631 0.00904 0.0
H2575 H 0.45217 0.22048 0.06577 0.0
H2576 H 0.4122 0.2368 0.03211 0.0
H2577 H 0.43658 0.24786 0.1776 0.0
H2578 H 0.40134 0.20369 0.02964 0.0
H2579 H 0.41694 0.20805 0.99415 0.0
H2580 H 0.40786 0.21723 0.9795 0.0
H2581 H 0.43382 0.21841 0.21083 0.0
H2582 H 0.448 0.23583 0.20566 0.0
H2583 H 0.44743 0.22236 0.16337 0.0
C2584 C 0.76113 0.1935 0.12955 0.0
C2585 C 0.75892 0.1829 0.0935 0.0
C2586 C 0.77298 0.20655 0.12561 0.0
C2587 C 0.78309 0.20885 0.08604 0.0
C2588 C 0.78044 0.19844 0.04719 0.0
C2589 C 0.76823 0.1856 0.05096 0.0
C2590 C 0.77517 0.21749 0.16672 0.0
C2591 C 0.79106 0.20035 0.00508 0.0
C2592 C 0.81448 0.24494 0.07306 0.0
C2593 C 0.82343 0.24421 0.11099 0.0
C2594 C 0.80127 0.23348 0.06383 0.0
C2595 C 0.79722 0.22097 0.09196 0.0
C2596 C 0.80651 0.22011 0.1287 0.0
C2597 C 0.81938 0.23179 0.13836 0.0
C2598 C 0.79151 0.23489 0.02555 0.0
C2599 C 0.80279 0.20688 0.15854 0.0
H2600 H 0.75384 0.19139 0.16224 0.0
H2601 H 0.76654 0.17734 0.02336 0.0
H2602 H 0.78272 0.21827 0.19776 0.0
H2603 H 0.77944 0.22773 0.14688 0.0
H2604 H 0.76543 0.21506 0.18781 0.0
H2605 H 0.78659 0.19239 0.97263 0.0
H2606 H 0.79566 0.21071 0.98612 0.0
H2607 H 0.79953 0.19956 0.02508 0.0
H2608 H 0.81762 0.25458 0.05198 0.0
H2609 H 0.82639 0.23115 0.16712 0.0
H2610 H 0.78259 0.23396 0.04882 0.0
H2611 H 0.78737 0.22646 0.99505 0.0
H2612 H 0.79654 0.24496 0.00393 0.0
H2613 H 0.79418 0.20433 0.18714 0.0
H2614 H 0.81162 0.20763 0.18207 0.0
H2615 H 0.79925 0.1982 0.12935 0.0
C2616 C 0.58893 0.77361 0.85928 0.0
C2617 C 0.58042 0.76118 0.88631 0.0
C2618 C 0.58738 0.78515 0.86683 0.0
C2619 C 0.57673 0.78414 0.90103 0.0
C2620 C 0.56815 0.77163 0.92901 0.0
C2621 C 0.57024 0.76031 0.92194 0.0
C2622 C 0.59701 0.79838 0.83727 0.0
C2623 C 0.55649 0.77006 0.96466 0.0
C2624 C 0.58179 0.8193 0.9373 0.0
C2625 C 0.57547 0.82166 0.89268 0.0
C2626 C 0.58145 0.80663 0.94317 0.0
C2627 C 0.57431 0.79605 0.90425 0.0
C2628 C 0.56676 0.79799 0.86237 0.0
C2629 C 0.56765 0.81087 0.85649 0.0
C2630 C 0.58985 0.80511 0.9878 0.0
C2631 C 0.55866 0.78685 0.821 0.0
H2632 H 0.59694 0.77434 0.83229 0.0
H2633 H 0.56363 0.75067 0.94272 0.0
H2634 H 0.59115 0.80067 0.80669 0.0
H2635 H 0.60165 0.80715 0.86627 0.0
H2636 H 0.60546 0.79779 0.81605 0.0
H2637 H 0.5515 0.76011 0.98706 0.0
H2638 H 0.56025 0.77864 0.99444 0.0
H2639 H 0.54858 0.77059 0.93917 0.0
H2640 H 0.58792 0.8277 0.96508 0.0
H2641 H 0.56267 0.81269 0.8222 0.0
H2642 H 0.59942 0.80608 0.97008 0.0
H2643 H 0.5841 0.79478 0.00707 0.0
H2644 H 0.59281 0.81314 0.0197 0.0
H2645 H 0.56589 0.78616 0.792 0.0
H2646 H 0.55146 0.789 0.79753 0.0
H2647 H 0.55267 0.77665 0.84111 0.0
C2648 C 0.18251 0.7713 0.86389 0.0
C2649 C 0.17841 0.75888 0.89137 0.0
C2650 C 0.19569 0.78272 0.8712 0.0
C2651 C 0.20522 0.78159 0.90564 0.0
C2652 C 0.20113 0.7691 0.934 0.0
C2653 C 0.18764 0.7579 0.92714 0.0
C2654 C 0.19948 0.79594 0.84121 0.0
C2655 C 0.21111 0.7674 0.96993 0.0
C2656 C 0.24121 0.80786 0.86127 0.0
C2657 C 0.24433 0.81873 0.89726 0.0
C2658 C 0.22908 0.7951 0.86715 0.0
C2659 C 0.21962 0.79337 0.90882 0.0
C2660 C 0.22318 0.80404 0.94748 0.0
C2661 C 0.23564 0.81657 0.94163 0.0
C2662 C 0.2259 0.78387 0.82606 0.0
C2663 C 0.21329 0.80274 0.99184 0.0
H2664 H 0.17531 0.77213 0.83681 0.0
H2665 H 0.18446 0.74828 0.94831 0.0
H2666 H 0.20369 0.80476 0.86998 0.0
H2667 H 0.20763 0.79808 0.8108 0.0
H2668 H 0.19051 0.79546 0.81972 0.0
H2669 H 0.20605 0.75744 0.99226 0.0
H2670 H 0.21955 0.76787 0.94468 0.0
H2671 H 0.21592 0.77596 -0.00022 0.0
H2672 H 0.24802 0.80952 0.82719 0.0
H2673 H 0.23804 0.82504 0.96924 0.0
H2674 H 0.21806 0.78327 0.79689 0.0
H2675 H 0.22156 0.77368 0.84638 0.0
H2676 H 0.23522 0.78584 0.80274 0.0
H2677 H 0.20479 0.80382 0.97379 0.0
H2678 H 0.21842 0.81082 0.02353 0.0
H2679 H 0.2086 0.79245 0.01143 0.0
C2680 C 0.18411 0.40904 0.8671 0.0
C2681 C 0.1799 0.41743 0.8933 0.0
C2682 C 0.19746 0.41121 0.87387 0.0
C2683 C 0.20703 0.42233 0.9065 0.0
C2684 C 0.2028 0.43075 0.93383 0.0
C2685 C 0.18917 0.42807 0.92748 0.0
C2686 C 0.2014 0.40175 0.84499 0.0
C2687 C 0.21279 0.44287 0.96792 0.0
C2688 C 0.23833 0.41913 0.94067 0.0
C2689 C 0.24658 0.4254 0.89497 0.0
C2690 C 0.22574 0.4189 0.94755 0.0
C2691 C 0.22159 0.42542 0.90847 0.0
C2692 C 0.23062 0.43296 0.86537 0.0
C2693 C 0.2429 0.43265 0.85861 0.0
C2694 C 0.21635 0.41057 0.99357 0.0
C2695 C 0.2268 0.44039 0.82369 0.0
H2696 H 0.17689 0.40068 0.84124 0.0
H2697 H 0.18591 0.43459 0.94764 0.0
H2698 H 0.20926 0.40761 0.81343 0.0
H2699 H 0.20603 0.39764 0.87414 0.0
H2700 H 0.19242 0.39291 0.82505 0.0
H2701 H 0.2076 0.44761 0.99048 0.0
H2702 H 0.21815 0.43967 0.99745 0.0
H2703 H 0.22081 0.45084 0.94124 0.0
H2704 H 0.24115 0.41345 0.96863 0.0
H2705 H 0.24937 0.43762 0.82352 0.0
H2706 H 0.2079 0.40068 0.97729 0.0
H2707 H 0.21153 0.4161 0.01274 0.0
H2708 H 0.22193 0.40819 0.02528 0.0
H2709 H 0.21883 0.43273 0.79594 0.0
H2710 H 0.23583 0.44767 0.79889 0.0
H2711 H 0.22237 0.44619 0.84371 0.0
C2712 C 0.42583 0.90143 0.4615 0.0
C2713 C 0.42294 0.90963 0.42706 0.0
C2714 C 0.43798 0.90085 0.45548 0.0
C2715 C 0.4477 0.9091 0.41537 0.0
C2716 C 0.44436 0.91662 0.37798 0.0
C2717 C 0.43187 0.91664 0.38386 0.0
C2718 C 0.44093 0.89234 0.49513 0.0
C2719 C 0.45451 0.92574 0.33528 0.0
C2720 C 0.48451 0.92401 0.46398 0.0
C2721 C 0.48895 0.91611 0.43547 0.0
C2722 C 0.47131 0.92215 0.45596 0.0
C2723 C 0.46212 0.91182 0.41954 0.0
C2724 C 0.46657 0.90386 0.39012 0.0
C2725 C 0.48006 0.90623 0.3979 0.0
C2726 C 0.46713 0.93111 0.48731 0.0
C2727 C 0.45696 0.89256 0.35195 0.0
H2728 H 0.41884 0.89591 0.49466 0.0
H2729 H 0.42965 0.92306 0.35747 0.0
H2730 H 0.44551 0.88683 0.47392 0.0
H2731 H 0.4485 0.89924 0.52586 0.0
H2732 H 0.43146 0.88466 0.51675 0.0
H2733 H 0.44954 0.92895 0.30389 0.0
H2734 H 0.46282 0.93516 0.35503 0.0
H2735 H 0.45942 0.92044 0.31503 0.0
H2736 H 0.49144 0.93179 0.49249 0.0
H2737 H 0.48349 0.9001 0.37591 0.0
H2738 H 0.45876 0.92467 0.5163 0.0
H2739 H 0.46308 0.93599 0.45915 0.0
H2740 H 0.47586 0.93937 0.51061 0.0
H2741 H 0.44839 0.88424 0.37554 0.0
H2742 H 0.46229 0.88803 0.32901 0.0
H2743 H 0.45229 0.89657 0.32257 0.0
C2744 C 0.09832 0.57466 0.41607 0.0
C2745 C 0.08865 0.57393 0.45411 0.0
C2746 C 0.10059 0.56346 0.40874 0.0
C2747 C 0.0927 0.55118 0.43902 0.0
C2748 C 0.08266 0.55033 0.47628 0.0
C2749 C 0.08091 0.56176 0.4839 0.0
C2750 C 0.11164 0.56488 0.36978 0.0
C2751 C 0.07377 0.53733 0.5085 0.0
C2752 C 0.08722 0.51596 0.40049 0.0
C2753 C 0.09443 0.51382 0.4423 0.0
C2754 C 0.08727 0.52852 0.39634 0.0
C2755 C 0.09507 0.53926 0.43394 0.0
C2756 C 0.10343 0.53753 0.47279 0.0
C2757 C 0.10278 0.52472 0.47723 0.0
C2758 C 0.07796 0.52978 0.35517 0.0
C2759 C 0.11225 0.54884 0.51247 0.0
H2760 H 0.10433 0.58409 0.3931 0.0
H2761 H 0.0733 0.56109 0.51284 0.0
H2762 H 0.11974 0.56399 0.39242 0.0
H2763 H 0.10724 0.55641 0.33945 0.0
H2764 H 0.11654 0.57491 0.34792 0.0
H2765 H 0.06578 0.53804 0.53283 0.0
H2766 H 0.06855 0.52834 0.48075 0.0
H2767 H 0.0803 0.5353 0.53661 0.0
H2768 H 0.08066 0.50746 0.37381 0.0
H2769 H 0.10843 0.52306 0.50937 0.0
H2770 H 0.08333 0.53995 0.33457 0.0
H2771 H 0.06885 0.52903 0.37636 0.0
H2772 H 0.07426 0.52152 0.32391 0.0
H2773 H 0.11779 0.55897 0.49151 0.0
H2774 H 0.11992 0.54685 0.53302 0.0
H2775 H 0.10557 0.54959 0.54406 0.0
C2776 C 0.47949 0.57644 0.40223 0.0
C2777 C 0.48859 0.57584 0.43984 0.0
C2778 C 0.46634 0.56488 0.39332 0.0
C2779 C 0.46248 0.55241 0.42149 0.0
C2780 C 0.47192 0.55168 0.45778 0.0
C2781 C 0.48474 0.56345 0.4671 0.0
C2782 C 0.45642 0.56614 0.35547 0.0
C2783 C 0.46841 0.53851 0.48766 0.0
C2784 C 0.42666 0.52483 0.46129 0.0
C2785 C 0.42442 0.51417 0.42558 0.0
C2786 C 0.43839 0.53793 0.45649 0.0
C2787 C 0.44838 0.54023 0.41632 0.0
C2788 C 0.44568 0.52975 0.37774 0.0
C2789 C 0.43357 0.51685 0.38242 0.0
C2790 C 0.44065 0.54894 0.49738 0.0
C2791 C 0.45615 0.53166 0.33496 0.0
H2792 H 0.48248 0.58605 0.38125 0.0
H2793 H 0.49186 0.56293 0.49561 0.0
H2794 H 0.45214 0.55759 0.32546 0.0
H2795 H 0.4476 0.5653 0.37922 0.0
H2796 H 0.46136 0.57612 0.33327 0.0
H2797 H 0.47735 0.53936 0.51068 0.0
H2798 H 0.45988 0.53593 0.51673 0.0
H2799 H 0.46483 0.5298 0.45858 0.0
H2800 H 0.41948 0.52275 0.49443 0.0
H2801 H 0.43186 0.50853 0.35506 0.0
H2802 H 0.44477 0.55912 0.47723 0.0
H2803 H 0.44835 0.54985 0.52798 0.0
H2804 H 0.43097 0.54647 0.51903 0.0
H2805 H 0.46062 0.54199 0.31579 0.0
H2806 H 0.45159 0.52365 0.30274 0.0
H2807 H 0.46473 0.53096 0.3544 0.0
loop_
_geom_bond_atom_site_label_1
_geom_bond_atom_site_label_2
_geom_bond_distance
_geom_bond_site_symmetry_2
_ccdc_geom_bond_type
O0 Cd1 2.223 . S
O0 C8 1.315 . S
Cd1 O0 2.223 . S
Cd1 O4 2.297 . S
Cd1 O5 2.439 . S
Cd1 O11 2.240 . S
Cd2 O3 2.240 . S
Cd2 O10 2.223 . S
Cd2 O12 2.297 . S
Cd2 O13 2.439 . S
O3 Cd2 2.240 . S
O3 C8 1.279 . S
O4 Cd1 2.297 . S
O4 C6 1.247 . S
O5 Cd1 2.439 . S
O5 C6 1.208 . S
C6 O4 1.247 . S
C6 O5 1.208 . S
C7 O12 1.247 . S
C7 O13 1.208 . S
C8 O0 1.315 . S
C8 O3 1.279 . S
C9 O10 1.315 . S
C9 O11 1.279 . S
O10 Cd2 2.223 . S
O10 C9 1.315 . S
O11 Cd1 2.240 . S
O11 C9 1.279 . S
O12 Cd2 2.297 . S
O12 C7 1.247 . S
O13 Cd2 2.439 . S
O13 C7 1.208 . S
O14 Cd15 2.223 . S
O14 C22 1.315 . S
Cd15 O14 2.223 . S
Cd15 O18 2.297 . S
Cd15 O19 2.439 . S
Cd15 O25 2.240 . S
Cd16 O17 2.240 . S
Cd16 O24 2.223 . S
Cd16 O26 2.297 . S
Cd16 O27 2.439 . S
O17 Cd16 2.240 . S
O17 C22 1.279 . S
O18 Cd15 2.297 . S
O18 C20 1.247 . S
O19 Cd15 2.439 . S
O19 C20 1.208 . S
C20 O18 1.247 . S
C20 O19 1.208 . S
C21 O26 1.247 . S
C21 O27 1.208 . S
C22 O14 1.315 . S
C22 O17 1.279 . S
C23 O24 1.315 . S
C23 O25 1.279 . S
O24 Cd16 2.223 . S
O24 C23 1.315 . S
O25 Cd15 2.240 . S
O25 C23 1.279 . S
O26 Cd16 2.297 . S
O26 C21 1.247 . S
O27 Cd16 2.439 . S
O27 C21 1.208 . S
O28 Cd29 2.223 . S
O28 C36 1.315 . S
Cd29 O28 2.223 . S
Cd29 O32 2.297 . S
Cd29 O33 2.439 . S
Cd29 O39 2.240 . S
Cd30 O31 2.240 . S
Cd30 O38 2.223 . S
Cd30 O40 2.297 . S
Cd30 O41 2.439 . S
O31 Cd30 2.240 . S
O31 C36 1.279 . S
O32 Cd29 2.297 . S
O32 C34 1.247 . S
O33 Cd29 2.439 . S
O33 C34 1.208 . S
C34 O32 1.247 . S
C34 O33 1.208 . S
C35 O40 1.247 . S
C35 O41 1.208 . S
C36 O28 1.315 . S
C36 O31 1.279 . S
C37 O38 1.315 . S
C37 O39 1.279 . S
O38 Cd30 2.223 . S
O38 C37 1.315 . S
O39 Cd29 2.240 . S
O39 C37 1.279 . S
O40 Cd30 2.297 . S
O40 C35 1.247 . S
O41 Cd30 2.439 . S
O41 C35 1.208 . S
O42 Cd43 2.223 . S
O42 C50 1.315 . S
Cd43 O42 2.223 . S
Cd43 O46 2.297 . S
Cd43 O47 2.439 . S
Cd43 O53 2.240 . S
Cd44 O45 2.240 . S
Cd44 O52 2.223 . S
Cd44 O54 2.297 . S
Cd44 O55 2.439 . S
O45 Cd44 2.240 . S
O45 C50 1.279 . S
O46 Cd43 2.297 . S
O46 C48 1.247 . S
O47 Cd43 2.439 . S
O47 C48 1.208 . S
C48 O46 1.247 . S
C48 O47 1.208 . S
C49 O54 1.247 . S
C49 O55 1.208 . S
C50 O42 1.315 . S
C50 O45 1.279 . S
C51 O52 1.315 . S
C51 O53 1.279 . S
O52 Cd44 2.223 . S
O52 C51 1.315 . S
O53 Cd43 2.240 . S
O53 C51 1.279 . S
O54 Cd44 2.297 . S
O54 C49 1.247 . S
O55 Cd44 2.439 . S
O55 C49 1.208 . S
O56 Cd57 2.223 . S
O56 C64 1.315 . S
Cd57 O56 2.223 . S
Cd57 O60 2.297 . S
Cd57 O61 2.439 . S
Cd57 O67 2.240 . S
Cd58 O59 2.240 . S
Cd58 O66 2.223 . S
Cd58 O68 2.297 . S
Cd58 O69 2.439 . S
O59 Cd58 2.240 . S
O59 C64 1.279 . S
O60 Cd57 2.297 . S
O60 C62 1.247 . S
O61 Cd57 2.439 . S
O61 C62 1.208 . S
C62 O60 1.247 . S
C62 O61 1.208 . S
C63 O68 1.247 . S
C63 O69 1.208 . S
C64 O56 1.315 . S
C64 O59 1.279 . S
C65 O66 1.315 . S
C65 O67 1.279 . S
O66 Cd58 2.223 . S
O66 C65 1.315 . S
O67 Cd57 2.240 . S
O67 C65 1.279 . S
O68 Cd58 2.297 . S
O68 C63 1.247 . S
O69 Cd58 2.439 . S
O69 C63 1.208 . S
O70 Cd71 2.223 . S
O70 C78 1.315 . S
Cd71 O70 2.223 . S
Cd71 O74 2.297 . S
Cd71 O75 2.439 . S
Cd71 O81 2.240 . S
Cd72 O73 2.240 . S
Cd72 O80 2.223 . S
Cd72 O82 2.297 . S
Cd72 O83 2.439 . S
O73 Cd72 2.240 . S
O73 C78 1.279 . S
O74 Cd71 2.297 . S
O74 C76 1.247 . S
O75 Cd71 2.439 . S
O75 C76 1.208 . S
C76 O74 1.247 . S
C76 O75 1.208 . S
C77 O82 1.247 . S
C77 O83 1.208 . S
C78 O70 1.315 . S
C78 O73 1.279 . S
C79 O80 1.315 . S
C79 O81 1.279 . S
O80 Cd72 2.223 . S
O80 C79 1.315 . S
O81 Cd71 2.240 . S
O81 C79 1.279 . S
O82 Cd72 2.297 . S
O82 C77 1.247 . S
O83 Cd72 2.439 . S
O83 C77 1.208 . S
O84 Cd85 2.223 . S
O84 C92 1.315 . S
Cd85 O84 2.223 . S
Cd85 O88 2.297 . S
Cd85 O89 2.439 . S
Cd85 O95 2.240 . S
Cd86 O87 2.240 . S
Cd86 O94 2.223 . S
Cd86 O96 2.297 . S
Cd86 O97 2.439 . S
O87 Cd86 2.240 . S
O87 C92 1.279 . S
O88 Cd85 2.297 . S
O88 C90 1.247 . S
O89 Cd85 2.439 . S
O89 C90 1.208 . S
C90 O88 1.247 . S
C90 O89 1.208 . S
C91 O96 1.247 . S
C91 O97 1.208 . S
C92 O84 1.315 . S
C92 O87 1.279 . S
C93 O94 1.315 . S
C93 O95 1.279 . S
O94 Cd86 2.223 . S
O94 C93 1.315 . S
O95 Cd85 2.240 . S
O95 C93 1.279 . S
O96 Cd86 2.297 . S
O96 C91 1.247 . S
O97 Cd86 2.439 . S
O97 C91 1.208 . S
O98 Cd99 2.223 . S
O98 C106 1.315 . S
Cd99 O98 2.223 . S
Cd99 O102 2.297 . S
Cd99 O103 2.439 . S
Cd99 O109 2.240 . S
Cd100 O101 2.240 . S
Cd100 O108 2.223 . S
Cd100 O110 2.297 . S
Cd100 O111 2.439 . S
O101 Cd100 2.240 . S
O101 C106 1.279 . S
O102 Cd99 2.297 . S
O102 C104 1.247 . S
O103 Cd99 2.439 . S
O103 C104 1.208 . S
C104 O102 1.247 . S
C104 O103 1.208 . S
C105 O110 1.247 . S
C105 O111 1.208 . S
C106 O98 1.315 . S
C106 O101 1.279 . S
C107 O108 1.315 . S
C107 O109 1.279 . S
O108 Cd100 2.223 . S
O108 C107 1.315 . S
O109 Cd99 2.240 . S
O109 C107 1.279 . S
O110 Cd100 2.297 . S
O110 C105 1.247 . S
O111 Cd100 2.439 . S
O111 C105 1.208 . S
O112 Cd113 2.223 . S
O112 C120 1.315 . S
Cd113 O112 2.223 . S
Cd113 O116 2.297 . S
Cd113 O117 2.439 . S
Cd113 O123 2.240 . S
Cd114 O115 2.240 . S
Cd114 O122 2.223 . S
Cd114 O124 2.297 . S
Cd114 O125 2.439 . S
O115 Cd114 2.240 . S
O115 C120 1.279 . S
O116 Cd113 2.297 . S
O116 C118 1.247 . S
O117 Cd113 2.439 . S
O117 C118 1.208 . S
C118 O116 1.247 . S
C118 O117 1.208 . S
C119 O124 1.247 . S
C119 O125 1.208 . S
C120 O112 1.315 . S
C120 O115 1.279 . S
C121 O122 1.315 . S
C121 O123 1.279 . S
O122 Cd114 2.223 . S
O122 C121 1.315 . S
O123 Cd113 2.240 . S
O123 C121 1.279 . S
O124 Cd114 2.297 . S
O124 C119 1.247 . S
O125 Cd114 2.439 . S
O125 C119 1.208 . S
O126 Cd127 2.223 . S
O126 C134 1.315 . S
Cd127 O126 2.223 . S
Cd127 O130 2.297 . S
Cd127 O131 2.439 . S
Cd127 O137 2.240 . S
Cd128 O129 2.240 . S
Cd128 O136 2.223 . S
Cd128 O138 2.297 . S
Cd128 O139 2.439 . S
O129 Cd128 2.240 . S
O129 C134 1.279 . S
O130 Cd127 2.297 . S
O130 C132 1.247 . S
O131 Cd127 2.439 . S
O131 C132 1.208 . S
C132 O130 1.247 . S
C132 O131 1.208 . S
C133 O138 1.247 . S
C133 O139 1.208 . S
C134 O126 1.315 . S
C134 O129 1.279 . S
C135 O136 1.315 . S
C135 O137 1.279 . S
O136 Cd128 2.223 . S
O136 C135 1.315 . S
O137 Cd127 2.240 . S
O137 C135 1.279 . S
O138 Cd128 2.297 . S
O138 C133 1.247 . S
O139 Cd128 2.439 . S
O139 C133 1.208 . S
O140 Cd141 2.223 . S
O140 C148 1.315 . S
Cd141 O140 2.223 . S
Cd141 O144 2.297 . S
Cd141 O145 2.439 . S
Cd141 O151 2.240 . S
Cd142 O143 2.240 . S
Cd142 O150 2.223 . S
Cd142 O152 2.297 . S
Cd142 O153 2.439 . S
O143 Cd142 2.240 . S
O143 C148 1.279 . S
O144 Cd141 2.297 . S
O144 C146 1.247 . S
O145 Cd141 2.439 . S
O145 C146 1.208 . S
C146 O144 1.247 . S
C146 O145 1.208 . S
C147 O152 1.247 . S
C147 O153 1.208 . S
C148 O140 1.315 . S
C148 O143 1.279 . S
C149 O150 1.315 . S
C149 O151 1.279 . S
O150 Cd142 2.223 . S
O150 C149 1.315 . S
O151 Cd141 2.240 . S
O151 C149 1.279 . S
O152 Cd142 2.297 . S
O152 C147 1.247 . S
O153 Cd142 2.439 . S
O153 C147 1.208 . S
O154 Cd155 2.223 . S
O154 C162 1.315 . S
Cd155 O154 2.223 . S
Cd155 O158 2.297 . S
Cd155 O159 2.439 . S
Cd155 O165 2.240 . S
Cd156 O157 2.240 . S
Cd156 O164 2.223 . S
Cd156 O166 2.297 . S
Cd156 O167 2.439 . S
O157 Cd156 2.240 . S
O157 C162 1.279 . S
O158 Cd155 2.297 . S
O158 C160 1.247 . S
O159 Cd155 2.439 . S
O159 C160 1.208 . S
C160 O158 1.247 . S
C160 O159 1.208 . S
C161 O166 1.247 . S
C161 O167 1.208 . S
C162 O154 1.315 . S
C162 O157 1.279 . S
C163 O164 1.315 . S
C163 O165 1.279 . S
O164 Cd156 2.223 . S
O164 C163 1.315 . S
O165 Cd155 2.240 . S
O165 C163 1.279 . S
O166 Cd156 2.297 . S
O166 C161 1.247 . S
O167 Cd156 2.439 . S
O167 C161 1.208 . S
O168 Cd169 2.223 . S
O168 C176 1.315 . S
Cd169 O168 2.223 . S
Cd169 O172 2.297 . S
Cd169 O173 2.439 . S
Cd169 O179 2.240 . S
Cd170 O171 2.240 . S
Cd170 O178 2.223 . S
Cd170 O180 2.297 . S
Cd170 O181 2.439 . S
O171 Cd170 2.240 . S
O171 C176 1.279 . S
O172 Cd169 2.297 . S
O172 C174 1.247 . S
O173 Cd169 2.439 . S
O173 C174 1.208 . S
C174 O172 1.247 . S
C174 O173 1.208 . S
C175 O180 1.247 . S
C175 O181 1.208 . S
C176 O168 1.315 . S
C176 O171 1.279 . S
C177 O178 1.315 . S
C177 O179 1.279 . S
O178 Cd170 2.223 . S
O178 C177 1.315 . S
O179 Cd169 2.240 . S
O179 C177 1.279 . S
O180 Cd170 2.297 . S
O180 C175 1.247 . S
O181 Cd170 2.439 . S
O181 C175 1.208 . S
O182 Cd183 2.223 . S
O182 C190 1.315 . S
Cd183 O182 2.223 . S
Cd183 O186 2.297 . S
Cd183 O187 2.439 . S
Cd183 O193 2.240 . S
Cd184 O185 2.240 . S
Cd184 O192 2.223 . S
Cd184 O194 2.297 . S
Cd184 O195 2.439 . S
O185 Cd184 2.240 . S
O185 C190 1.279 . S
O186 Cd183 2.297 . S
O186 C188 1.247 . S
O187 Cd183 2.439 . S
O187 C188 1.208 . S
C188 O186 1.247 . S
C188 O187 1.208 . S
C189 O194 1.247 . S
C189 O195 1.208 . S
C190 O182 1.315 . S
C190 O185 1.279 . S
C191 O192 1.315 . S
C191 O193 1.279 . S
O192 Cd184 2.223 . S
O192 C191 1.315 . S
O193 Cd183 2.240 . S
O193 C191 1.279 . S
O194 Cd184 2.297 . S
O194 C189 1.247 . S
O195 Cd184 2.439 . S
O195 C189 1.208 . S
O196 Cd197 2.223 . S
O196 C204 1.315 . S
Cd197 O196 2.223 . S
Cd197 O200 2.297 . S
Cd197 O201 2.439 . S
Cd197 O207 2.240 . S
Cd198 O199 2.240 . S
Cd198 O206 2.223 . S
Cd198 O208 2.297 . S
Cd198 O209 2.439 . S
O199 Cd198 2.240 . S
O199 C204 1.279 . S
O200 Cd197 2.297 . S
O200 C202 1.247 . S
O201 Cd197 2.439 . S
O201 C202 1.208 . S
C202 O200 1.247 . S
C202 O201 1.208 . S
C203 O208 1.247 . S
C203 O209 1.208 . S
C204 O196 1.315 . S
C204 O199 1.279 . S
C205 O206 1.315 . S
C205 O207 1.279 . S
O206 Cd198 2.223 . S
O206 C205 1.315 . S
O207 Cd197 2.240 . S
O207 C205 1.279 . S
O208 Cd198 2.297 . S
O208 C203 1.247 . S
O209 Cd198 2.439 . S
O209 C203 1.208 . S
O210 Cd211 2.223 . S
O210 C218 1.315 . S
Cd211 O210 2.223 . S
Cd211 O214 2.297 . S
Cd211 O215 2.439 . S
Cd211 O221 2.240 . S
Cd212 O213 2.240 . S
Cd212 O220 2.223 . S
Cd212 O222 2.297 . S
Cd212 O223 2.439 . S
O213 Cd212 2.240 . S
O213 C218 1.279 . S
O214 Cd211 2.297 . S
O214 C216 1.247 1_554 S
O215 Cd211 2.439 . S
O215 C216 1.208 1_554 S
C216 O214 1.247 1_556 S
C216 O215 1.208 1_556 S
C217 O222 1.247 . S
C217 O223 1.208 . S
C218 O210 1.315 . S
C218 O213 1.279 . S
C219 O220 1.315 . S
C219 O221 1.279 . S
O220 Cd212 2.223 . S
O220 C219 1.315 . S
O221 Cd211 2.240 . S
O221 C219 1.279 . S
O222 Cd212 2.297 . S
O222 C217 1.247 . S
O223 Cd212 2.439 . S
O223 C217 1.208 . S
O224 Cd225 2.223 . S
O224 C232 1.315 . S
Cd225 O224 2.223 . S
Cd225 O228 2.297 . S
Cd225 O229 2.439 . S
Cd225 O235 2.240 . S
Cd226 O227 2.240 . S
Cd226 O234 2.223 . S
Cd226 O236 2.297 . S
Cd226 O237 2.439 . S
O227 Cd226 2.240 . S
O227 C232 1.279 . S
O228 Cd225 2.297 . S
O228 C230 1.247 1_554 S
O229 Cd225 2.439 . S
O229 C230 1.208 1_554 S
C230 O228 1.247 1_556 S
C230 O229 1.208 1_556 S
C231 O236 1.247 . S
C231 O237 1.208 . S
C232 O224 1.315 . S
C232 O227 1.279 . S
C233 O234 1.315 . S
C233 O235 1.279 . S
O234 Cd226 2.223 . S
O234 C233 1.315 . S
O235 Cd225 2.240 . S
O235 C233 1.279 . S
O236 Cd226 2.297 . S
O236 C231 1.247 . S
O237 Cd226 2.439 . S
O237 C231 1.208 . S
O238 Cd239 2.223 . S
O238 C246 1.315 . S
Cd239 O238 2.223 . S
Cd239 O242 2.297 . S
Cd239 O243 2.439 . S
Cd239 O249 2.240 . S
Cd240 O241 2.240 . S
Cd240 O248 2.223 . S
Cd240 O250 2.297 . S
Cd240 O251 2.439 . S
O241 Cd240 2.240 . S
O241 C246 1.279 . S
O242 Cd239 2.297 . S
O242 C244 1.247 1_554 S
O243 Cd239 2.439 . S
O243 C244 1.208 1_554 S
C244 O242 1.247 1_556 S
C244 O243 1.208 1_556 S
C245 O250 1.247 . S
C245 O251 1.208 . S
C246 O238 1.315 . S
C246 O241 1.279 . S
C247 O248 1.315 . S
C247 O249 1.279 . S
O248 Cd240 2.223 . S
O248 C247 1.315 . S
O249 Cd239 2.240 . S
O249 C247 1.279 . S
O250 Cd240 2.297 . S
O250 C245 1.247 . S
O251 Cd240 2.439 . S
O251 C245 1.208 . S
O252 Cd253 2.223 . S
O252 C260 1.315 . S
Cd253 O252 2.223 . S
Cd253 O256 2.297 . S
Cd253 O257 2.439 . S
Cd253 O263 2.240 . S
Cd254 O255 2.240 . S
Cd254 O262 2.223 . S
Cd254 O264 2.297 . S
Cd254 O265 2.439 . S
O255 Cd254 2.240 . S
O255 C260 1.279 . S
O256 Cd253 2.297 . S
O256 C258 1.247 1_554 S
O257 Cd253 2.439 . S
O257 C258 1.208 1_554 S
C258 O256 1.247 1_556 S
C258 O257 1.208 1_556 S
C259 O264 1.247 . S
C259 O265 1.208 . S
C260 O252 1.315 . S
C260 O255 1.279 . S
C261 O262 1.315 . S
C261 O263 1.279 . S
O262 Cd254 2.223 . S
O262 C261 1.315 . S
O263 Cd253 2.240 . S
O263 C261 1.279 . S
O264 Cd254 2.297 . S
O264 C259 1.247 . S
O265 Cd254 2.439 . S
O265 C259 1.208 . S
O266 Cd267 2.223 . S
O266 C274 1.315 . S
Cd267 O266 2.223 . S
Cd267 O270 2.297 . S
Cd267 O271 2.439 . S
Cd267 O277 2.240 . S
Cd268 O269 2.240 . S
Cd268 O276 2.223 . S
Cd268 O278 2.297 . S
Cd268 O279 2.439 . S
O269 Cd268 2.240 . S
O269 C274 1.279 . S
O270 Cd267 2.297 . S
O270 C272 1.247 1_554 S
O271 Cd267 2.439 . S
O271 C272 1.208 1_554 S
C272 O270 1.247 1_556 S
C272 O271 1.208 1_556 S
C273 O278 1.247 . S
C273 O279 1.208 . S
C274 O266 1.315 . S
C274 O269 1.279 . S
C275 O276 1.315 . S
C275 O277 1.279 . S
O276 Cd268 2.223 . S
O276 C275 1.315 . S
O277 Cd267 2.240 . S
O277 C275 1.279 . S
O278 Cd268 2.297 . S
O278 C273 1.247 . S
O279 Cd268 2.439 . S
O279 C273 1.208 . S
O280 Cd281 2.223 . S
O280 C288 1.315 . S
Cd281 O280 2.223 . S
Cd281 O284 2.297 . S
Cd281 O285 2.439 . S
Cd281 O291 2.240 . S
Cd282 O283 2.240 . S
Cd282 O290 2.223 . S
Cd282 O292 2.297 . S
Cd282 O293 2.439 . S
O283 Cd282 2.240 . S
O283 C288 1.279 . S
O284 Cd281 2.297 . S
O284 C286 1.247 1_554 S
O285 Cd281 2.439 . S
O285 C286 1.208 1_554 S
C286 O284 1.247 1_556 S
C286 O285 1.208 1_556 S
C287 O292 1.247 . S
C287 O293 1.208 . S
C288 O280 1.315 . S
C288 O283 1.279 . S
C289 O290 1.315 . S
C289 O291 1.279 . S
O290 Cd282 2.223 . S
O290 C289 1.315 . S
O291 Cd281 2.240 . S
O291 C289 1.279 . S
O292 Cd282 2.297 . S
O292 C287 1.247 . S
O293 Cd282 2.439 . S
O293 C287 1.208 . S
O294 Cd295 2.223 . S
O294 C302 1.315 . S
Cd295 O294 2.223 . S
Cd295 O298 2.297 . S
Cd295 O299 2.439 . S
Cd295 O305 2.240 . S
Cd296 O297 2.240 . S
Cd296 O304 2.223 . S
Cd296 O306 2.297 . S
Cd296 O307 2.439 . S
O297 Cd296 2.240 . S
O297 C302 1.279 . S
O298 Cd295 2.297 . S
O298 C300 1.247 . S
O299 Cd295 2.439 . S
O299 C300 1.208 . S
C300 O298 1.247 . S
C300 O299 1.208 . S
C301 O306 1.247 . S
C301 O307 1.208 . S
C302 O294 1.315 . S
C302 O297 1.279 . S
C303 O304 1.315 . S
C303 O305 1.279 . S
O304 Cd296 2.223 . S
O304 C303 1.315 . S
O305 Cd295 2.240 . S
O305 C303 1.279 . S
O306 Cd296 2.297 . S
O306 C301 1.247 . S
O307 Cd296 2.439 . S
O307 C301 1.208 . S
O308 Cd309 2.223 . S
O308 C316 1.315 . S
Cd309 O308 2.223 . S
Cd309 O312 2.297 . S
Cd309 O313 2.439 . S
Cd309 O319 2.240 . S
Cd310 O311 2.240 . S
Cd310 O318 2.223 . S
Cd310 O320 2.297 . S
Cd310 O321 2.439 . S
O311 Cd310 2.240 . S
O311 C316 1.279 . S
O312 Cd309 2.297 . S
O312 C314 1.247 . S
O313 Cd309 2.439 . S
O313 C314 1.208 . S
C314 O312 1.247 . S
C314 O313 1.208 . S
C315 O320 1.247 . S
C315 O321 1.208 . S
C316 O308 1.315 . S
C316 O311 1.279 . S
C317 O318 1.315 . S
C317 O319 1.279 . S
O318 Cd310 2.223 . S
O318 C317 1.315 . S
O319 Cd309 2.240 . S
O319 C317 1.279 . S
O320 Cd310 2.297 . S
O320 C315 1.247 . S
O321 Cd310 2.439 . S
O321 C315 1.208 . S
O322 Cd323 2.223 . S
O322 C330 1.315 . S
Cd323 O322 2.223 . S
Cd323 O326 2.297 . S
Cd323 O327 2.439 . S
Cd323 O333 2.240 . S
Cd324 O325 2.240 . S
Cd324 O332 2.223 . S
Cd324 O334 2.297 . S
Cd324 O335 2.439 . S
O325 Cd324 2.240 . S
O325 C330 1.279 . S
O326 Cd323 2.297 . S
O326 C328 1.247 . S
O327 Cd323 2.439 . S
O327 C328 1.208 . S
C328 O326 1.247 . S
C328 O327 1.208 . S
C329 O334 1.247 . S
C329 O335 1.208 . S
C330 O322 1.315 . S
C330 O325 1.279 . S
C331 O332 1.315 . S
C331 O333 1.279 . S
O332 Cd324 2.223 . S
O332 C331 1.315 . S
O333 Cd323 2.240 . S
O333 C331 1.279 . S
O334 Cd324 2.297 . S
O334 C329 1.247 . S
O335 Cd324 2.439 . S
O335 C329 1.208 . S
O336 Cd337 2.223 . S
O336 C344 1.315 . S
Cd337 O336 2.223 . S
Cd337 O340 2.297 . S
Cd337 O341 2.439 . S
Cd337 O347 2.240 . S
Cd338 O339 2.240 . S
Cd338 O346 2.223 . S
Cd338 O348 2.297 . S
Cd338 O349 2.439 . S
O339 Cd338 2.240 . S
O339 C344 1.279 . S
O340 Cd337 2.297 . S
O340 C342 1.247 1_556 S
O341 Cd337 2.439 . S
O341 C342 1.208 1_556 S
C342 O340 1.247 1_554 S
C342 O341 1.208 1_554 S
C343 O348 1.247 . S
C343 O349 1.208 . S
C344 O336 1.315 . S
C344 O339 1.279 . S
C345 O346 1.315 . S
C345 O347 1.279 . S
O346 Cd338 2.223 . S
O346 C345 1.315 . S
O347 Cd337 2.240 . S
O347 C345 1.279 . S
O348 Cd338 2.297 . S
O348 C343 1.247 . S
O349 Cd338 2.439 . S
O349 C343 1.208 . S
O350 Cd351 2.223 . S
O350 C358 1.315 . S
Cd351 O350 2.223 . S
Cd351 O354 2.297 . S
Cd351 O355 2.439 . S
Cd351 O361 2.240 . S
Cd352 O353 2.240 . S
Cd352 O360 2.223 . S
Cd352 O362 2.297 . S
Cd352 O363 2.439 . S
O353 Cd352 2.240 . S
O353 C358 1.279 . S
O354 Cd351 2.297 . S
O354 C356 1.247 1_556 S
O355 Cd351 2.439 . S
O355 C356 1.208 1_556 S
C356 O354 1.247 1_554 S
C356 O355 1.208 1_554 S
C357 O362 1.247 . S
C357 O363 1.208 . S
C358 O350 1.315 . S
C358 O353 1.279 . S
C359 O360 1.315 . S
C359 O361 1.279 . S
O360 Cd352 2.223 . S
O360 C359 1.315 . S
O361 Cd351 2.240 . S
O361 C359 1.279 . S
O362 Cd352 2.297 . S
O362 C357 1.247 . S
O363 Cd352 2.439 . S
O363 C357 1.208 . S
O364 Cd365 2.223 . S
O364 C372 1.315 . S
Cd365 O364 2.223 . S
Cd365 O368 2.297 . S
Cd365 O369 2.439 . S
Cd365 O375 2.240 . S
Cd366 O367 2.240 . S
Cd366 O374 2.223 . S
Cd366 O376 2.297 . S
Cd366 O377 2.439 . S
O367 Cd366 2.240 . S
O367 C372 1.279 . S
O368 Cd365 2.297 . S
O368 C370 1.247 1_556 S
O369 Cd365 2.439 . S
O369 C370 1.208 1_556 S
C370 O368 1.247 1_554 S
C370 O369 1.208 1_554 S
C371 O376 1.247 . S
C371 O377 1.208 . S
C372 O364 1.315 . S
C372 O367 1.279 . S
C373 O374 1.315 . S
C373 O375 1.279 . S
O374 Cd366 2.223 . S
O374 C373 1.315 . S
O375 Cd365 2.240 . S
O375 C373 1.279 . S
O376 Cd366 2.297 . S
O376 C371 1.247 . S
O377 Cd366 2.439 . S
O377 C371 1.208 . S
O378 Cd379 2.223 . S
O378 C386 1.315 . S
Cd379 O378 2.223 . S
Cd379 O382 2.297 . S
Cd379 O383 2.439 . S
Cd379 O389 2.240 . S
Cd380 O381 2.240 . S
Cd380 O388 2.223 . S
Cd380 O390 2.297 . S
Cd380 O391 2.439 . S
O381 Cd380 2.240 . S
O381 C386 1.279 . S
O382 Cd379 2.297 . S
O382 C384 1.247 . S
O383 Cd379 2.439 . S
O383 C384 1.208 . S
C384 O382 1.247 . S
C384 O383 1.208 . S
C385 O390 1.247 . S
C385 O391 1.208 . S
C386 O378 1.315 . S
C386 O381 1.279 . S
C387 O388 1.315 . S
C387 O389 1.279 . S
O388 Cd380 2.223 . S
O388 C387 1.315 . S
O389 Cd379 2.240 . S
O389 C387 1.279 . S
O390 Cd380 2.297 . S
O390 C385 1.247 . S
O391 Cd380 2.439 . S
O391 C385 1.208 . S
O392 Cd393 2.223 . S
O392 C400 1.315 . S
Cd393 O392 2.223 . S
Cd393 O396 2.297 . S
Cd393 O397 2.439 . S
Cd393 O403 2.240 . S
Cd394 O395 2.240 . S
Cd394 O402 2.223 . S
Cd394 O404 2.297 . S
Cd394 O405 2.439 . S
O395 Cd394 2.240 . S
O395 C400 1.279 . S
O396 Cd393 2.297 . S
O396 C398 1.247 . S
O397 Cd393 2.439 . S
O397 C398 1.208 . S
C398 O396 1.247 . S
C398 O397 1.208 . S
C399 O404 1.247 . S
C399 O405 1.208 . S
C400 O392 1.315 . S
C400 O395 1.279 . S
C401 O402 1.315 . S
C401 O403 1.279 . S
O402 Cd394 2.223 . S
O402 C401 1.315 . S
O403 Cd393 2.240 . S
O403 C401 1.279 . S
O404 Cd394 2.297 . S
O404 C399 1.247 . S
O405 Cd394 2.439 . S
O405 C399 1.208 . S
O406 Cd407 2.223 . S
O406 C414 1.315 . S
Cd407 O406 2.223 . S
Cd407 O410 2.297 . S
Cd407 O411 2.439 . S
Cd407 O417 2.240 . S
Cd408 O409 2.240 . S
Cd408 O416 2.223 . S
Cd408 O418 2.297 . S
Cd408 O419 2.439 . S
O409 Cd408 2.240 . S
O409 C414 1.279 . S
O410 Cd407 2.297 . S
O410 C412 1.247 . S
O411 Cd407 2.439 . S
O411 C412 1.208 . S
C412 O410 1.247 . S
C412 O411 1.208 . S
C413 O418 1.247 . S
C413 O419 1.208 . S
C414 O406 1.315 . S
C414 O409 1.279 . S
C415 O416 1.315 . S
C415 O417 1.279 . S
O416 Cd408 2.223 . S
O416 C415 1.315 . S
O417 Cd407 2.240 . S
O417 C415 1.279 . S
O418 Cd408 2.297 . S
O418 C413 1.247 . S
O419 Cd408 2.439 . S
O419 C413 1.208 . S
O420 Cd421 2.223 . S
O420 C428 1.315 . S
Cd421 O420 2.223 . S
Cd421 O424 2.297 . S
Cd421 O425 2.439 . S
Cd421 O431 2.240 . S
Cd422 O423 2.240 . S
Cd422 O430 2.223 . S
Cd422 O432 2.297 . S
Cd422 O433 2.439 . S
O423 Cd422 2.240 . S
O423 C428 1.279 . S
O424 Cd421 2.297 . S
O424 C426 1.247 . S
O425 Cd421 2.439 . S
O425 C426 1.208 . S
C426 O424 1.247 . S
C426 O425 1.208 . S
C427 O432 1.247 . S
C427 O433 1.208 . S
C428 O420 1.315 . S
C428 O423 1.279 . S
C429 O430 1.315 . S
C429 O431 1.279 . S
O430 Cd422 2.223 . S
O430 C429 1.315 . S
O431 Cd421 2.240 . S
O431 C429 1.279 . S
O432 Cd422 2.297 . S
O432 C427 1.247 . S
O433 Cd422 2.439 . S
O433 C427 1.208 . S
O434 Cd435 2.223 . S
O434 C442 1.315 . S
Cd435 O434 2.223 . S
Cd435 O438 2.297 . S
Cd435 O439 2.439 . S
Cd435 O445 2.240 . S
Cd436 O437 2.240 . S
Cd436 O444 2.223 . S
Cd436 O446 2.297 . S
Cd436 O447 2.439 . S
O437 Cd436 2.240 . S
O437 C442 1.279 . S
O438 Cd435 2.297 . S
O438 C440 1.247 . S
O439 Cd435 2.439 . S
O439 C440 1.208 . S
C440 O438 1.247 . S
C440 O439 1.208 . S
C441 O446 1.247 . S
C441 O447 1.208 . S
C442 O434 1.315 . S
C442 O437 1.279 . S
C443 O444 1.315 . S
C443 O445 1.279 . S
O444 Cd436 2.223 . S
O444 C443 1.315 . S
O445 Cd435 2.240 . S
O445 C443 1.279 . S
O446 Cd436 2.297 . S
O446 C441 1.247 . S
O447 Cd436 2.439 . S
O447 C441 1.208 . S
O448 Cd449 2.223 . S
O448 C456 1.315 . S
Cd449 O448 2.223 . S
Cd449 O452 2.297 . S
Cd449 O453 2.439 . S
Cd449 O459 2.240 . S
Cd450 O451 2.240 . S
Cd450 O458 2.223 . S
Cd450 O460 2.297 . S
Cd450 O461 2.439 . S
O451 Cd450 2.240 . S
O451 C456 1.279 . S
O452 Cd449 2.297 . S
O452 C454 1.247 . S
O453 Cd449 2.439 . S
O453 C454 1.208 . S
C454 O452 1.247 . S
C454 O453 1.208 . S
C455 O460 1.247 . S
C455 O461 1.208 . S
C456 O448 1.315 . S
C456 O451 1.279 . S
C457 O458 1.315 . S
C457 O459 1.279 . S
O458 Cd450 2.223 . S
O458 C457 1.315 . S
O459 Cd449 2.240 . S
O459 C457 1.279 . S
O460 Cd450 2.297 . S
O460 C455 1.247 . S
O461 Cd450 2.439 . S
O461 C455 1.208 . S
O462 Cd463 2.223 . S
O462 C470 1.315 . S
Cd463 O462 2.223 . S
Cd463 O466 2.297 . S
Cd463 O467 2.439 . S
Cd463 O473 2.240 . S
Cd464 O465 2.240 . S
Cd464 O472 2.223 . S
Cd464 O474 2.297 . S
Cd464 O475 2.439 . S
O465 Cd464 2.240 . S
O465 C470 1.279 . S
O466 Cd463 2.297 . S
O466 C468 1.247 1_556 S
O467 Cd463 2.439 . S
O467 C468 1.208 1_556 S
C468 O466 1.247 1_554 S
C468 O467 1.208 1_554 S
C469 O474 1.247 . S
C469 O475 1.208 . S
C470 O462 1.315 . S
C470 O465 1.279 . S
C471 O472 1.315 . S
C471 O473 1.279 . S
O472 Cd464 2.223 . S
O472 C471 1.315 . S
O473 Cd463 2.240 . S
O473 C471 1.279 . S
O474 Cd464 2.297 . S
O474 C469 1.247 . S
O475 Cd464 2.439 . S
O475 C469 1.208 . S
O476 Cd477 2.223 . S
O476 C484 1.315 . S
Cd477 O476 2.223 . S
Cd477 O480 2.297 . S
Cd477 O481 2.439 . S
Cd477 O487 2.240 . S
Cd478 O479 2.240 . S
Cd478 O486 2.223 . S
Cd478 O488 2.297 . S
Cd478 O489 2.439 . S
O479 Cd478 2.240 . S
O479 C484 1.279 . S
O480 Cd477 2.297 . S
O480 C482 1.247 1_556 S
O481 Cd477 2.439 . S
O481 C482 1.208 1_556 S
C482 O480 1.247 1_554 S
C482 O481 1.208 1_554 S
C483 O488 1.247 . S
C483 O489 1.208 . S
C484 O476 1.315 . S
C484 O479 1.279 . S
C485 O486 1.315 . S
C485 O487 1.279 . S
O486 Cd478 2.223 . S
O486 C485 1.315 . S
O487 Cd477 2.240 . S
O487 C485 1.279 . S
O488 Cd478 2.297 . S
O488 C483 1.247 . S
O489 Cd478 2.439 . S
O489 C483 1.208 . S
O490 Cd491 2.223 . S
O490 C498 1.315 . S
Cd491 O490 2.223 . S
Cd491 O494 2.297 . S
Cd491 O495 2.439 . S
Cd491 O501 2.240 . S
Cd492 O493 2.240 . S
Cd492 O500 2.223 . S
Cd492 O502 2.297 . S
Cd492 O503 2.439 . S
O493 Cd492 2.240 . S
O493 C498 1.279 . S
O494 Cd491 2.297 . S
O494 C496 1.247 1_556 S
O495 Cd491 2.439 . S
O495 C496 1.208 1_556 S
C496 O494 1.247 1_554 S
C496 O495 1.208 1_554 S
C497 O502 1.247 . S
C497 O503 1.208 . S
C498 O490 1.315 . S
C498 O493 1.279 . S
C499 O500 1.315 . S
C499 O501 1.279 . S
O500 Cd492 2.223 . S
O500 C499 1.315 . S
O501 Cd491 2.240 . S
O501 C499 1.279 . S
O502 Cd492 2.297 . S
O502 C497 1.247 . S
O503 Cd492 2.439 . S
O503 C497 1.208 . S
C504 C505 1.391 . S
C504 C506 1.413 . S
C504 H520 0.931 . S
C505 C504 1.391 . S
C505 C509 1.376 . S
C506 C504 1.413 . S
C506 C507 1.377 . S
C506 C510 1.504 1_565 S
C507 C506 1.377 . S
C507 C508 1.410 . S
C507 C515 1.503 1_565 S
C508 C507 1.410 . S
C508 C509 1.392 . S
C508 C511 1.511 . S
C509 C505 1.376 . S
C509 C508 1.392 . S
C509 H521 0.929 . S
C510 C506 1.504 1_545 S
C510 H522 0.960 . S
C510 H523 0.962 . S
C510 H524 0.960 . S
C511 C508 1.511 . S
C511 H525 0.961 . S
C511 H526 0.961 . S
C511 H527 0.961 . S
C512 C513 1.370 . S
C512 C514 1.363 . S
C512 H528 0.931 . S
C513 C512 1.370 . S
C513 C517 1.408 . S
C514 C512 1.363 . S
C514 C515 1.370 . S
C514 C518 1.524 . S
C515 C507 1.503 1_545 S
C515 C514 1.370 . S
C515 C516 1.403 . S
C516 C515 1.403 . S
C516 C517 1.404 . S
C516 C519 1.539 1_545 S
C517 C513 1.408 . S
C517 C516 1.404 . S
C517 H529 0.930 . S
C518 C514 1.524 . S
C518 H530 0.956 . S
C518 H531 0.961 1_545 S
C518 H532 0.961 . S
C519 C516 1.539 1_565 S
C519 H533 0.958 1_565 S
C519 H534 0.961 . S
C519 H535 0.960 . S
H520 C504 0.931 . S
H521 C509 0.929 . S
H522 C510 0.960 . S
H523 C510 0.962 . S
H524 C510 0.960 . S
H525 C511 0.961 . S
H526 C511 0.961 . S
H527 C511 0.961 . S
H528 C512 0.931 . S
H529 C517 0.930 . S
H530 C518 0.956 . S
H531 C518 0.961 1_565 S
H532 C518 0.961 . S
H533 C519 0.958 1_545 S
H534 C519 0.961 . S
H535 C519 0.960 . S
C536 C537 1.391 . S
C536 C538 1.394 . S
C536 H552 0.931 . S
C537 C536 1.391 . S
C537 C541 1.376 . S
C538 C536 1.394 . S
C538 C539 1.369 . S
C538 C542 1.531 . S
C539 C538 1.369 . S
C539 C540 1.410 . S
C539 C547 1.503 1_455 S
C540 C539 1.410 . S
C540 C541 1.392 . S
C540 C543 1.511 1_455 S
C541 C537 1.376 . S
C541 C540 1.392 . S
C541 H553 0.929 . S
C542 C538 1.531 . S
C542 H554 0.960 . S
C542 H555 0.962 . S
C542 H556 0.960 . S
C543 C540 1.511 1_655 S
C543 H557 0.961 . S
C543 H558 0.961 . S
C543 H559 0.961 . S
C544 C545 1.370 . S
C544 C546 1.363 . S
C544 H560 0.931 . S
C545 C544 1.370 . S
C545 C549 1.408 . S
C546 C544 1.363 . S
C546 C547 1.370 . S
C546 C550 1.524 1_655 S
C547 C539 1.503 1_655 S
C547 C546 1.370 . S
C547 C548 1.403 . S
C548 C547 1.403 . S
C548 C549 1.404 . S
C548 C551 1.539 . S
C549 C545 1.408 . S
C549 C548 1.404 . S
C549 H561 0.930 . S
C550 C546 1.524 1_455 S
C550 H562 0.956 . S
C550 H563 0.961 . S
C550 H564 0.961 . S
C551 C548 1.539 . S
C551 H565 0.958 . S
C551 H566 0.961 . S
C551 H567 0.960 . S
H552 C536 0.931 . S
H553 C541 0.929 . S
H554 C542 0.960 . S
H555 C542 0.962 . S
H556 C542 0.960 . S
H557 C543 0.961 . S
H558 C543 0.961 . S
H559 C543 0.961 . S
H560 C544 0.931 . S
H561 C549 0.930 . S
H562 C550 0.956 . S
H563 C550 0.961 . S
H564 C550 0.961 . S
H565 C551 0.958 . S
H566 C551 0.961 . S
H567 C551 0.960 . S
C568 C569 1.391 . S
C568 C570 1.394 . S
C568 H584 0.931 . S
C569 C568 1.391 . S
C569 C573 1.376 . S
C570 C568 1.394 . S
C570 C571 1.369 . S
C570 C574 1.531 . S
C571 C570 1.369 . S
C571 C572 1.410 . S
C571 C579 1.503 . S
C572 C571 1.410 . S
C572 C573 1.392 . S
C572 C575 1.511 . S
C573 C569 1.376 . S
C573 C572 1.392 . S
C573 H585 0.929 . S
C574 C570 1.531 . S
C574 H586 0.960 . S
C574 H587 0.962 . S
C574 H588 0.960 . S
C575 C572 1.511 . S
C575 H589 0.961 . S
C575 H590 0.961 . S
C575 H591 0.961 . S
C576 C577 1.370 . S
C576 C578 1.363 . S
C576 H592 0.931 . S
C577 C576 1.370 . S
C577 C581 1.408 . S
C578 C576 1.363 . S
C578 C579 1.370 . S
C578 C582 1.524 . S
C579 C571 1.503 . S
C579 C578 1.370 . S
C579 C580 1.403 . S
C580 C579 1.403 . S
C580 C581 1.404 . S
C580 C583 1.539 . S
C581 C577 1.408 . S
C581 C580 1.404 . S
C581 H593 0.930 . S
C582 C578 1.524 . S
C582 H594 0.956 . S
C582 H595 0.961 . S
C582 H596 0.961 . S
C583 C580 1.539 . S
C583 H597 0.958 . S
C583 H598 0.961 . S
C583 H599 0.960 . S
H584 C568 0.931 . S
H585 C573 0.929 . S
H586 C574 0.960 . S
H587 C574 0.962 . S
H588 C574 0.960 . S
H589 C575 0.961 . S
H590 C575 0.961 . S
H591 C575 0.961 . S
H592 C576 0.931 . S
H593 C581 0.930 . S
H594 C582 0.956 . S
H595 C582 0.961 . S
H596 C582 0.961 . S
H597 C583 0.958 . S
H598 C583 0.961 . S
H599 C583 0.960 . S
C600 C601 1.391 . S
C600 C602 1.357 1_565 S
C600 H616 0.931 . S
C601 C600 1.391 . S
C601 C605 1.376 . S
C602 C600 1.357 1_545 S
C602 C603 1.338 1_545 S
C602 C606 1.603 . S
C603 C602 1.338 1_565 S
C603 C604 1.410 . S
C603 C611 1.503 1_565 S
C604 C603 1.410 . S
C604 C605 1.392 . S
C604 C607 1.511 . S
C605 C601 1.376 . S
C605 C604 1.392 . S
C605 H617 0.929 . S
C606 C602 1.603 . S
C606 H618 0.960 . S
C606 H619 0.962 . S
C606 H620 0.960 . S
C607 C604 1.511 . S
C607 H621 0.961 . S
C607 H622 0.961 . S
C607 H623 0.961 . S
C608 C609 1.370 . S
C608 C610 1.363 . S
C608 H624 0.931 . S
C609 C608 1.370 . S
C609 C613 1.408 . S
C610 C608 1.363 . S
C610 C611 1.370 . S
C610 C614 1.524 1_545 S
C611 C603 1.503 1_545 S
C611 C610 1.370 . S
C611 C612 1.403 . S
C612 C611 1.403 . S
C612 C613 1.404 . S
C612 C615 1.539 . S
C613 C609 1.408 . S
C613 C612 1.404 . S
C613 H625 0.930 . S
C614 C610 1.524 1_565 S
C614 H626 0.934 1_565 S
C614 H627 0.961 . S
C614 H628 0.961 . S
C615 C612 1.539 . S
C615 H629 0.958 . S
C615 H630 0.961 . S
C615 H631 0.960 . S
H616 C600 0.931 . S
H617 C605 0.929 . S
H618 C606 0.960 . S
H619 C606 0.962 . S
H620 C606 0.960 . S
H621 C607 0.961 . S
H622 C607 0.961 . S
H623 C607 0.961 . S
H624 C608 0.931 . S
H625 C613 0.930 . S
H626 C614 0.934 1_545 S
H627 C614 0.961 . S
H628 C614 0.961 . S
H629 C615 0.958 . S
H630 C615 0.961 . S
H631 C615 0.960 . S
C632 C633 1.391 . S
C632 C634 1.394 . S
C632 H648 0.931 . S
C633 C632 1.391 . S
C633 C637 1.376 . S
C634 C632 1.394 . S
C634 C635 1.369 . S
C634 C638 1.531 . S
C635 C634 1.369 . S
C635 C636 1.410 . S
C635 C643 1.503 1_455 S
C636 C635 1.410 . S
C636 C637 1.392 . S
C636 C639 1.511 . S
C637 C633 1.376 . S
C637 C636 1.392 . S
C637 H649 0.929 . S
C638 C634 1.531 . S
C638 H650 0.960 . S
C638 H651 0.962 1_455 S
C638 H652 0.960 . S
C639 C636 1.511 . S
C639 H653 0.961 . S
C639 H654 0.961 . S
C639 H655 0.961 . S
C640 C641 1.370 . S
C640 C642 1.363 . S
C640 H656 0.931 . S
C641 C640 1.370 . S
C641 C645 1.408 . S
C642 C640 1.363 . S
C642 C643 1.370 . S
C642 C646 1.524 . S
C643 C635 1.503 1_655 S
C643 C642 1.370 . S
C643 C644 1.403 1_655 S
C644 C643 1.403 1_455 S
C644 C645 1.404 1_455 S
C644 C647 1.539 . S
C645 C641 1.408 . S
C645 C644 1.404 1_655 S
C645 H657 0.930 . S
C646 C642 1.524 . S
C646 H658 0.956 . S
C646 H659 0.961 . S
C646 H660 0.961 . S
C647 C644 1.539 . S
C647 H661 0.958 . S
C647 H662 0.961 . S
C647 H663 0.960 . S
H648 C632 0.931 . S
H649 C637 0.929 . S
H650 C638 0.960 . S
H651 C638 0.962 1_655 S
H652 C638 0.960 . S
H653 C639 0.961 . S
H654 C639 0.961 . S
H655 C639 0.961 . S
H656 C640 0.931 . S
H657 C645 0.930 . S
H658 C646 0.956 . S
H659 C646 0.961 . S
H660 C646 0.961 . S
H661 C647 0.958 . S
H662 C647 0.961 . S
H663 C647 0.960 . S
C664 C665 1.391 . S
C664 C666 1.394 . S
C664 H680 0.931 . S
C665 C664 1.391 . S
C665 C669 1.376 . S
C666 C664 1.394 . S
C666 C667 1.369 . S
C666 C670 1.531 . S
C667 C666 1.369 . S
C667 C668 1.410 . S
C667 C675 1.503 . S
C668 C667 1.410 . S
C668 C669 1.392 . S
C668 C671 1.511 . S
C669 C665 1.376 . S
C669 C668 1.392 . S
C669 H681 0.929 . S
C670 C666 1.531 . S
C670 H682 0.960 . S
C670 H683 0.962 . S
C670 H684 0.960 . S
C671 C668 1.511 . S
C671 H685 0.961 . S
C671 H686 0.961 . S
C671 H687 0.961 . S
C672 C673 1.370 . S
C672 C674 1.363 . S
C672 H688 0.931 . S
C673 C672 1.370 . S
C673 C677 1.408 . S
C674 C672 1.363 . S
C674 C675 1.370 . S
C674 C678 1.524 . S
C675 C667 1.503 . S
C675 C674 1.370 . S
C675 C676 1.403 . S
C676 C675 1.403 . S
C676 C677 1.404 . S
C676 C679 1.539 . S
C677 C673 1.408 . S
C677 C676 1.404 . S
C677 H689 0.930 . S
C678 C674 1.524 . S
C678 H690 0.956 . S
C678 H691 0.961 . S
C678 H692 0.961 . S
C679 C676 1.539 . S
C679 H693 0.958 . S
C679 H694 0.961 . S
C679 H695 0.960 . S
H680 C664 0.931 . S
H681 C669 0.929 . S
H682 C670 0.960 . S
H683 C670 0.962 . S
H684 C670 0.960 . S
H685 C671 0.961 . S
H686 C671 0.961 . S
H687 C671 0.961 . S
H688 C672 0.931 . S
H689 C677 0.930 . S
H690 C678 0.956 . S
H691 C678 0.961 . S
H692 C678 0.961 . S
H693 C679 0.958 . S
H694 C679 0.961 . S
H695 C679 0.960 . S
C696 C697 1.391 . S
C696 C698 1.394 . S
C696 H712 0.931 . S
C697 C696 1.391 . S
C697 C701 1.376 . S
C698 C696 1.394 . S
C698 C699 1.369 . S
C698 C702 1.531 . S
C699 C698 1.369 . S
C699 C700 1.410 . S
C699 C707 1.503 . S
C700 C699 1.410 . S
C700 C701 1.392 . S
C700 C703 1.511 . S
C701 C697 1.376 . S
C701 C700 1.392 . S
C701 H713 0.929 . S
C702 C698 1.531 . S
C702 H714 0.960 . S
C702 H715 0.962 . S
C702 H716 0.960 . S
C703 C700 1.511 . S
C703 H717 0.961 . S
C703 H718 0.961 . S
C703 H719 0.961 . S
C704 C705 1.370 . S
C704 C706 1.363 . S
C704 H720 0.931 . S
C705 C704 1.370 . S
C705 C709 1.408 . S
C706 C704 1.363 . S
C706 C707 1.370 . S
C706 C710 1.524 . S
C707 C699 1.503 . S
C707 C706 1.370 . S
C707 C708 1.403 . S
C708 C707 1.403 . S
C708 C709 1.404 . S
C708 C711 1.539 . S
C709 C705 1.408 . S
C709 C708 1.404 . S
C709 H721 0.930 . S
C710 C706 1.524 . S
C710 H722 0.956 . S
C710 H723 0.961 . S
C710 H724 0.961 . S
C711 C708 1.539 . S
C711 H725 0.958 . S
C711 H726 0.961 . S
C711 H727 0.960 . S
H712 C696 0.931 . S
H713 C701 0.929 . S
H714 C702 0.960 . S
H715 C702 0.962 . S
H716 C702 0.960 . S
H717 C703 0.961 . S
H718 C703 0.961 . S
H719 C703 0.961 . S
H720 C704 0.931 . S
H721 C709 0.930 . S
H722 C710 0.956 . S
H723 C710 0.961 . S
H724 C710 0.961 . S
H725 C711 0.958 . S
H726 C711 0.961 . S
H727 C711 0.960 . S
C728 C729 1.391 . S
C728 C730 1.394 . S
C728 H744 0.931 . S
C729 C728 1.391 . S
C729 C733 1.376 . S
C730 C728 1.394 . S
C730 C731 1.369 . S
C730 C734 1.531 . S
C731 C730 1.369 . S
C731 C732 1.410 . S
C731 C739 1.503 . S
C732 C731 1.410 . S
C732 C733 1.392 . S
C732 C735 1.511 . S
C733 C729 1.376 . S
C733 C732 1.392 . S
C733 H745 0.929 . S
C734 C730 1.531 . S
C734 H746 0.960 . S
C734 H747 0.962 . S
C734 H748 0.960 . S
C735 C732 1.511 . S
C735 H749 0.961 . S
C735 H750 0.961 . S
C735 H751 0.961 . S
C736 C737 1.370 . S
C736 C738 1.363 . S
C736 H752 0.931 . S
C737 C736 1.370 . S
C737 C741 1.408 . S
C738 C736 1.363 . S
C738 C739 1.370 . S
C738 C742 1.524 . S
C739 C731 1.503 . S
C739 C738 1.370 . S
C739 C740 1.403 . S
C740 C739 1.403 . S
C740 C741 1.404 . S
C740 C743 1.539 . S
C741 C737 1.408 . S
C741 C740 1.404 . S
C741 H753 0.930 . S
C742 C738 1.524 . S
C742 H754 0.956 . S
C742 H755 0.961 . S
C742 H756 0.961 . S
C743 C740 1.539 . S
C743 H757 0.958 . S
C743 H758 0.961 . S
C743 H759 0.960 . S
H744 C728 0.931 . S
H745 C733 0.929 . S
H746 C734 0.960 . S
H747 C734 0.962 . S
H748 C734 0.960 . S
H749 C735 0.961 . S
H750 C735 0.961 . S
H751 C735 0.961 . S
H752 C736 0.931 . S
H753 C741 0.930 . S
H754 C742 0.956 . S
H755 C742 0.961 . S
H756 C742 0.961 . S
H757 C743 0.958 . S
H758 C743 0.961 . S
H759 C743 0.960 . S
C760 C761 1.391 . S
C760 C762 1.394 . S
C760 H776 0.931 . S
C761 C760 1.391 . S
C761 C765 1.376 . S
C762 C760 1.394 . S
C762 C763 1.369 . S
C762 C766 1.531 . S
C763 C762 1.369 . S
C763 C764 1.410 . S
C763 C771 1.503 . S
C764 C763 1.410 . S
C764 C765 1.392 . S
C764 C767 1.511 . S
C765 C761 1.376 . S
C765 C764 1.392 . S
C765 H777 0.929 . S
C766 C762 1.531 . S
C766 H778 0.960 . S
C766 H779 0.962 . S
C766 H780 0.960 . S
C767 C764 1.511 . S
C767 H781 0.961 . S
C767 H782 0.961 . S
C767 H783 0.961 . S
C768 C769 1.370 . S
C768 C770 1.363 . S
C768 H784 0.931 . S
C769 C768 1.370 . S
C769 C773 1.408 . S
C770 C768 1.363 . S
C770 C771 1.370 . S
C770 C774 1.524 . S
C771 C763 1.503 . S
C771 C770 1.370 . S
C771 C772 1.403 . S
C772 C771 1.403 . S
C772 C773 1.404 . S
C772 C775 1.539 . S
C773 C769 1.408 . S
C773 C772 1.404 . S
C773 H785 0.930 . S
C774 C770 1.524 . S
C774 H786 0.956 . S
C774 H787 0.961 . S
C774 H788 0.961 . S
C775 C772 1.539 . S
C775 H789 0.958 . S
C775 H790 0.961 . S
C775 H791 0.960 . S
H776 C760 0.931 . S
H777 C765 0.929 . S
H778 C766 0.960 . S
H779 C766 0.962 . S
H780 C766 0.960 . S
H781 C767 0.961 . S
H782 C767 0.961 . S
H783 C767 0.961 . S
H784 C768 0.931 . S
H785 C773 0.930 . S
H786 C774 0.956 . S
H787 C774 0.961 . S
H788 C774 0.961 . S
H789 C775 0.958 . S
H790 C775 0.961 . S
H791 C775 0.960 . S
C792 C793 1.391 . S
C792 C794 1.394 . S
C792 H808 0.931 . S
C793 C792 1.391 . S
C793 C797 1.376 . S
C794 C792 1.394 . S
C794 C795 1.369 . S
C794 C798 1.531 . S
C795 C794 1.369 . S
C795 C796 1.410 . S
C795 C803 1.503 . S
C796 C795 1.410 . S
C796 C797 1.392 . S
C796 C799 1.511 . S
C797 C793 1.376 . S
C797 C796 1.392 . S
C797 H809 0.929 . S
C798 C794 1.531 . S
C798 H810 0.960 . S
C798 H811 0.962 . S
C798 H812 0.960 . S
C799 C796 1.511 . S
C799 H813 0.961 . S
C799 H814 0.961 . S
C799 H815 0.961 . S
C800 C801 1.370 . S
C800 C802 1.363 . S
C800 H816 0.931 . S
C801 C800 1.370 . S
C801 C805 1.408 . S
C802 C800 1.363 . S
C802 C803 1.370 . S
C802 C806 1.524 . S
C803 C795 1.503 . S
C803 C802 1.370 . S
C803 C804 1.403 . S
C804 C803 1.403 . S
C804 C805 1.404 . S
C804 C807 1.539 . S
C805 C801 1.408 . S
C805 C804 1.404 . S
C805 H817 0.930 . S
C806 C802 1.524 . S
C806 H818 0.956 . S
C806 H819 0.961 . S
C806 H820 0.961 . S
C807 C804 1.539 . S
C807 H821 0.958 . S
C807 H822 0.961 . S
C807 H823 0.960 . S
H808 C792 0.931 . S
H809 C797 0.929 . S
H810 C798 0.960 . S
H811 C798 0.962 . S
H812 C798 0.960 . S
H813 C799 0.961 . S
H814 C799 0.961 . S
H815 C799 0.961 . S
H816 C800 0.931 . S
H817 C805 0.930 . S
H818 C806 0.956 . S
H819 C806 0.961 . S
H820 C806 0.961 . S
H821 C807 0.958 . S
H822 C807 0.961 . S
H823 C807 0.960 . S
C824 C825 1.391 . S
C824 C826 1.394 . S
C824 H840 0.931 . S
C825 C824 1.391 . S
C825 C829 1.376 . S
C826 C824 1.394 . S
C826 C827 1.369 . S
C826 C830 1.531 . S
C827 C826 1.369 . S
C827 C828 1.410 . S
C827 C835 1.503 . S
C828 C827 1.410 . S
C828 C829 1.392 . S
C828 C831 1.511 . S
C829 C825 1.376 . S
C829 C828 1.392 . S
C829 H841 0.929 . S
C830 C826 1.531 . S
C830 H842 0.960 . S
C830 H843 0.962 . S
C830 H844 0.960 . S
C831 C828 1.511 . S
C831 H845 0.961 . S
C831 H846 0.961 . S
C831 H847 0.961 . S
C832 C833 1.370 . S
C832 C834 1.363 . S
C832 H848 0.931 . S
C833 C832 1.370 . S
C833 C837 1.408 . S
C834 C832 1.363 . S
C834 C835 1.370 . S
C834 C838 1.524 . S
C835 C827 1.503 . S
C835 C834 1.370 . S
C835 C836 1.403 . S
C836 C835 1.403 . S
C836 C837 1.404 . S
C836 C839 1.539 . S
C837 C833 1.408 . S
C837 C836 1.404 . S
C837 H849 0.930 . S
C838 C834 1.524 . S
C838 H850 0.956 . S
C838 H851 0.961 . S
C838 H852 0.961 . S
C839 C836 1.539 . S
C839 H853 0.958 . S
C839 H854 0.961 . S
C839 H855 0.960 . S
H840 C824 0.931 . S
H841 C829 0.929 . S
H842 C830 0.960 . S
H843 C830 0.962 . S
H844 C830 0.960 . S
H845 C831 0.961 . S
H846 C831 0.961 . S
H847 C831 0.961 . S
H848 C832 0.931 . S
H849 C837 0.930 . S
H850 C838 0.956 . S
H851 C838 0.961 . S
H852 C838 0.961 . S
H853 C839 0.958 . S
H854 C839 0.961 . S
H855 C839 0.960 . S
C856 C857 1.391 . S
C856 C858 1.394 . S
C856 H872 0.931 . S
C857 C856 1.391 . S
C857 C861 1.376 . S
C858 C856 1.394 . S
C858 C859 1.369 . S
C858 C862 1.531 . S
C859 C858 1.369 . S
C859 C860 1.410 . S
C859 C867 1.503 . S
C860 C859 1.410 . S
C860 C861 1.392 . S
C860 C863 1.511 . S
C861 C857 1.376 . S
C861 C860 1.392 . S
C861 H873 0.929 . S
C862 C858 1.531 . S
C862 H874 0.960 . S
C862 H875 0.962 . S
C862 H876 0.960 . S
C863 C860 1.511 . S
C863 H877 0.961 . S
C863 H878 0.961 . S
C863 H879 0.961 . S
C864 C865 1.370 . S
C864 C866 1.363 . S
C864 H880 0.931 . S
C865 C864 1.370 . S
C865 C869 1.408 . S
C866 C864 1.363 . S
C866 C867 1.370 . S
C866 C870 1.524 . S
C867 C859 1.503 . S
C867 C866 1.370 . S
C867 C868 1.403 . S
C868 C867 1.403 . S
C868 C869 1.404 . S
C868 C871 1.539 . S
C869 C865 1.408 . S
C869 C868 1.404 . S
C869 H881 0.930 . S
C870 C866 1.524 . S
C870 H882 0.956 . S
C870 H883 0.961 . S
C870 H884 0.961 . S
C871 C868 1.539 . S
C871 H885 0.958 . S
C871 H886 0.961 . S
C871 H887 0.960 . S
H872 C856 0.931 . S
H873 C861 0.929 . S
H874 C862 0.960 . S
H875 C862 0.962 . S
H876 C862 0.960 . S
H877 C863 0.961 . S
H878 C863 0.961 . S
H879 C863 0.961 . S
H880 C864 0.931 . S
H881 C869 0.930 . S
H882 C870 0.956 . S
H883 C870 0.961 . S
H884 C870 0.961 . S
H885 C871 0.958 . S
H886 C871 0.961 . S
H887 C871 0.960 . S
C888 C889 1.391 . S
C888 C890 1.394 . S
C888 H904 0.931 . S
C889 C888 1.391 . S
C889 C893 1.376 . S
C890 C888 1.394 . S
C890 C891 1.369 . S
C890 C894 1.531 . S
C891 C890 1.369 . S
C891 C892 1.410 . S
C891 C899 1.503 . S
C892 C891 1.410 . S
C892 C893 1.392 . S
C892 C895 1.511 . S
C893 C889 1.376 . S
C893 C892 1.392 . S
C893 H905 0.929 . S
C894 C890 1.531 . S
C894 H906 0.960 . S
C894 H907 0.962 . S
C894 H908 0.960 . S
C895 C892 1.511 . S
C895 H909 0.961 . S
C895 H910 0.961 . S
C895 H911 0.961 . S
C896 C897 1.370 . S
C896 C898 1.363 . S
C896 H912 0.931 . S
C897 C896 1.370 . S
C897 C901 1.408 . S
C898 C896 1.363 . S
C898 C899 1.370 . S
C898 C902 1.524 . S
C899 C891 1.503 . S
C899 C898 1.370 . S
C899 C900 1.403 . S
C900 C899 1.403 . S
C900 C901 1.404 . S
C900 C903 1.539 . S
C901 C897 1.408 . S
C901 C900 1.404 . S
C901 H913 0.930 . S
C902 C898 1.524 . S
C902 H914 0.956 . S
C902 H915 0.961 . S
C902 H916 0.961 . S
C903 C900 1.539 . S
C903 H917 0.958 . S
C903 H918 0.961 . S
C903 H919 0.960 . S
H904 C888 0.931 . S
H905 C893 0.929 . S
H906 C894 0.960 . S
H907 C894 0.962 . S
H908 C894 0.960 . S
H909 C895 0.961 . S
H910 C895 0.961 . S
H911 C895 0.961 . S
H912 C896 0.931 . S
H913 C901 0.930 . S
H914 C902 0.956 . S
H915 C902 0.961 . S
H916 C902 0.961 . S
H917 C903 0.958 . S
H918 C903 0.961 . S
H919 C903 0.960 . S
C920 C921 1.391 . S
C920 C922 1.394 . S
C920 H936 0.931 . S
C921 C920 1.391 . S
C921 C925 1.376 . S
C922 C920 1.394 . S
C922 C923 1.369 . S
C922 C926 1.531 . S
C923 C922 1.369 . S
C923 C924 1.410 . S
C923 C931 1.503 . S
C924 C923 1.410 . S
C924 C925 1.392 . S
C924 C927 1.511 . S
C925 C921 1.376 . S
C925 C924 1.392 . S
C925 H937 0.929 . S
C926 C922 1.531 . S
C926 H938 0.960 . S
C926 H939 0.962 . S
C926 H940 0.960 . S
C927 C924 1.511 . S
C927 H941 0.961 . S
C927 H942 0.961 . S
C927 H943 0.961 . S
C928 C929 1.370 . S
C928 C930 1.363 . S
C928 H944 0.931 . S
C929 C928 1.370 . S
C929 C933 1.408 . S
C930 C928 1.363 . S
C930 C931 1.370 . S
C930 C934 1.524 . S
C931 C923 1.503 . S
C931 C930 1.370 . S
C931 C932 1.403 . S
C932 C931 1.403 . S
C932 C933 1.404 . S
C932 C935 1.539 . S
C933 C929 1.408 . S
C933 C932 1.404 . S
C933 H945 0.930 . S
C934 C930 1.524 . S
C934 H946 0.956 . S
C934 H947 0.961 . S
C934 H948 0.961 . S
C935 C932 1.539 . S
C935 H949 0.958 . S
C935 H950 0.961 . S
C935 H951 0.960 . S
H936 C920 0.931 . S
H937 C925 0.929 . S
H938 C926 0.960 . S
H939 C926 0.962 . S
H940 C926 0.960 . S
H941 C927 0.961 . S
H942 C927 0.961 . S
H943 C927 0.961 . S
H944 C928 0.931 . S
H945 C933 0.930 . S
H946 C934 0.956 . S
H947 C934 0.961 . S
H948 C934 0.961 . S
H949 C935 0.958 . S
H950 C935 0.961 . S
H951 C935 0.960 . S
C952 C953 1.391 . S
C952 C954 1.394 . S
C952 H968 0.931 . S
C953 C952 1.391 . S
C953 C957 1.376 . S
C954 C952 1.394 . S
C954 C955 1.369 . S
C954 C958 1.531 . S
C955 C954 1.369 . S
C955 C956 1.410 . S
C955 C963 1.503 . S
C956 C955 1.410 . S
C956 C957 1.392 . S
C956 C959 1.511 . S
C957 C953 1.376 . S
C957 C956 1.392 . S
C957 H969 0.929 . S
C958 C954 1.531 . S
C958 H970 0.960 . S
C958 H971 0.962 . S
C958 H972 0.960 . S
C959 C956 1.511 . S
C959 H973 0.961 . S
C959 H974 0.961 . S
C959 H975 0.961 . S
C960 C961 1.370 . S
C960 C962 1.363 . S
C960 H976 0.931 . S
C961 C960 1.370 . S
C961 C965 1.408 . S
C962 C960 1.363 . S
C962 C963 1.370 . S
C962 C966 1.524 . S
C963 C955 1.503 . S
C963 C962 1.370 . S
C963 C964 1.403 . S
C964 C963 1.403 . S
C964 C965 1.404 . S
C964 C967 1.539 . S
C965 C961 1.408 . S
C965 C964 1.404 . S
C965 H977 0.930 . S
C966 C962 1.524 . S
C966 H978 0.956 . S
C966 H979 0.961 . S
C966 H980 0.961 . S
C967 C964 1.539 . S
C967 H981 0.958 . S
C967 H982 0.961 . S
C967 H983 0.960 . S
H968 C952 0.931 . S
H969 C957 0.929 . S
H970 C958 0.960 . S
H971 C958 0.962 . S
H972 C958 0.960 . S
H973 C959 0.961 . S
H974 C959 0.961 . S
H975 C959 0.961 . S
H976 C960 0.931 . S
H977 C965 0.930 . S
H978 C966 0.956 . S
H979 C966 0.961 . S
H980 C966 0.961 . S
H981 C967 0.958 . S
H982 C967 0.961 . S
H983 C967 0.960 . S
C984 C985 1.391 . S
C984 C986 1.394 . S
C984 H1000 0.931 . S
C985 C984 1.391 . S
C985 C989 1.376 . S
C986 C984 1.394 . S
C986 C987 1.369 . S
C986 C990 1.531 . S
C987 C986 1.369 . S
C987 C988 1.410 . S
C987 C995 1.503 . S
C988 C987 1.410 . S
C988 C989 1.392 . S
C988 C991 1.511 . S
C989 C985 1.376 . S
C989 C988 1.392 . S
C989 H1001 0.929 . S
C990 C986 1.531 . S
C990 H1002 0.960 . S
C990 H1003 0.962 . S
C990 H1004 0.960 . S
C991 C988 1.511 . S
C991 H1005 0.961 . S
C991 H1006 0.961 . S
C991 H1007 0.961 . S
C992 C993 1.370 . S
C992 C994 1.363 . S
C992 H1008 0.931 . S
C993 C992 1.370 . S
C993 C997 1.408 . S
C994 C992 1.363 . S
C994 C995 1.370 . S
C994 C998 1.524 . S
C995 C987 1.503 . S
C995 C994 1.370 . S
C995 C996 1.403 . S
C996 C995 1.403 . S
C996 C997 1.404 . S
C996 C999 1.539 . S
C997 C993 1.408 . S
C997 C996 1.404 . S
C997 H1009 0.930 . S
C998 C994 1.524 . S
C998 H1010 0.956 . S
C998 H1011 0.961 . S
C998 H1012 0.961 . S
C999 C996 1.539 . S
C999 H1013 0.958 . S
C999 H1014 0.961 . S
C999 H1015 0.960 . S
H1000 C984 0.931 . S
H1001 C989 0.929 . S
H1002 C990 0.960 . S
H1003 C990 0.962 . S
H1004 C990 0.960 . S
H1005 C991 0.961 . S
H1006 C991 0.961 . S
H1007 C991 0.961 . S
H1008 C992 0.931 . S
H1009 C997 0.930 . S
H1010 C998 0.956 . S
H1011 C998 0.961 . S
H1012 C998 0.961 . S
H1013 C999 0.958 . S
H1014 C999 0.961 . S
H1015 C999 0.960 . S
C1016 C1017 1.391 . S
C1016 C1018 1.394 . S
C1016 H1032 0.931 . S
C1017 C1016 1.391 . S
C1017 C1021 1.376 . S
C1018 C1016 1.394 . S
C1018 C1019 1.369 . S
C1018 C1022 1.531 . S
C1019 C1018 1.369 . S
C1019 C1020 1.410 . S
C1019 C1027 1.503 . S
C1020 C1019 1.410 . S
C1020 C1021 1.392 . S
C1020 C1023 1.511 . S
C1021 C1017 1.376 . S
C1021 C1020 1.392 . S
C1021 H1033 0.929 . S
C1022 C1018 1.531 . S
C1022 H1034 0.960 . S
C1022 H1035 0.962 . S
C1022 H1036 0.960 . S
C1023 C1020 1.511 . S
C1023 H1037 0.961 . S
C1023 H1038 0.961 . S
C1023 H1039 0.961 . S
C1024 C1025 1.370 . S
C1024 C1026 1.363 . S
C1024 H1040 0.931 . S
C1025 C1024 1.370 . S
C1025 C1029 1.408 . S
C1026 C1024 1.363 . S
C1026 C1027 1.370 . S
C1026 C1030 1.524 . S
C1027 C1019 1.503 . S
C1027 C1026 1.370 . S
C1027 C1028 1.403 . S
C1028 C1027 1.403 . S
C1028 C1029 1.404 . S
C1028 C1031 1.539 . S
C1029 C1025 1.408 . S
C1029 C1028 1.404 . S
C1029 H1041 0.930 . S
C1030 C1026 1.524 . S
C1030 H1042 0.956 . S
C1030 H1043 0.961 . S
C1030 H1044 0.961 . S
C1031 C1028 1.539 . S
C1031 H1045 0.958 . S
C1031 H1046 0.961 . S
C1031 H1047 0.960 . S
H1032 C1016 0.931 . S
H1033 C1021 0.929 . S
H1034 C1022 0.960 . S
H1035 C1022 0.962 . S
H1036 C1022 0.960 . S
H1037 C1023 0.961 . S
H1038 C1023 0.961 . S
H1039 C1023 0.961 . S
H1040 C1024 0.931 . S
H1041 C1029 0.930 . S
H1042 C1030 0.956 . S
H1043 C1030 0.961 . S
H1044 C1030 0.961 . S
H1045 C1031 0.958 . S
H1046 C1031 0.961 . S
H1047 C1031 0.960 . S
C1048 C1049 1.391 . S
C1048 C1050 1.394 . S
C1048 H1064 0.931 . S
C1049 C1048 1.391 . S
C1049 C1053 1.376 . S
C1050 C1048 1.394 . S
C1050 C1051 1.369 . S
C1050 C1054 1.531 . S
C1051 C1050 1.369 . S
C1051 C1052 1.410 . S
C1051 C1059 1.503 . S
C1052 C1051 1.410 . S
C1052 C1053 1.392 . S
C1052 C1055 1.511 . S
C1053 C1049 1.376 . S
C1053 C1052 1.392 . S
C1053 H1065 0.929 . S
C1054 C1050 1.531 . S
C1054 H1066 0.960 . S
C1054 H1067 0.962 . S
C1054 H1068 0.960 . S
C1055 C1052 1.511 . S
C1055 H1069 0.961 . S
C1055 H1070 0.961 . S
C1055 H1071 0.961 . S
C1056 C1057 1.370 . S
C1056 C1058 1.363 . S
C1056 H1072 0.931 . S
C1057 C1056 1.370 . S
C1057 C1061 1.408 . S
C1058 C1056 1.363 . S
C1058 C1059 1.370 . S
C1058 C1062 1.524 . S
C1059 C1051 1.503 . S
C1059 C1058 1.370 . S
C1059 C1060 1.403 . S
C1060 C1059 1.403 . S
C1060 C1061 1.404 . S
C1060 C1063 1.539 . S
C1061 C1057 1.408 . S
C1061 C1060 1.404 . S
C1061 H1073 0.930 . S
C1062 C1058 1.524 . S
C1062 H1074 0.956 . S
C1062 H1075 0.961 . S
C1062 H1076 0.961 . S
C1063 C1060 1.539 . S
C1063 H1077 0.958 . S
C1063 H1078 0.961 . S
C1063 H1079 0.960 . S
H1064 C1048 0.931 . S
H1065 C1053 0.929 . S
H1066 C1054 0.960 . S
H1067 C1054 0.962 . S
H1068 C1054 0.960 . S
H1069 C1055 0.961 . S
H1070 C1055 0.961 . S
H1071 C1055 0.961 . S
H1072 C1056 0.931 . S
H1073 C1061 0.930 . S
H1074 C1062 0.956 . S
H1075 C1062 0.961 . S
H1076 C1062 0.961 . S
H1077 C1063 0.958 . S
H1078 C1063 0.961 . S
H1079 C1063 0.960 . S
C1080 C1081 1.391 . S
C1080 C1082 1.380 1_565 S
C1080 H1096 0.931 . S
C1081 C1080 1.391 . S
C1081 C1085 1.376 . S
C1082 C1080 1.380 1_545 S
C1082 C1083 1.364 1_545 S
C1082 C1086 1.550 . S
C1083 C1082 1.364 1_565 S
C1083 C1084 1.410 . S
C1083 C1091 1.503 1_566 S
C1084 C1083 1.410 . S
C1084 C1085 1.392 . S
C1084 C1087 1.511 1_556 S
C1085 C1081 1.376 . S
C1085 C1084 1.392 . S
C1085 H1097 0.929 . S
C1086 C1082 1.550 . S
C1086 H1098 0.960 . S
C1086 H1099 0.962 . S
C1086 H1100 0.960 . S
C1087 C1084 1.511 1_554 S
C1087 H1101 0.961 . S
C1087 H1102 0.961 . S
C1087 H1103 0.961 . S
C1088 C1089 1.370 . S
C1088 C1090 1.363 . S
C1088 H1104 0.931 . S
C1089 C1088 1.370 . S
C1089 C1093 1.408 . S
C1090 C1088 1.363 . S
C1090 C1091 1.370 . S
C1090 C1094 1.557 . S
C1091 C1083 1.503 1_544 S
C1091 C1090 1.370 . S
C1091 C1092 1.403 . S
C1092 C1091 1.403 . S
C1092 C1093 1.404 . S
C1092 C1095 1.539 . S
C1093 C1089 1.408 . S
C1093 C1092 1.404 . S
C1093 H1105 0.930 . S
C1094 C1090 1.557 . S
C1094 H1106 0.964 1_554 S
C1094 H1107 0.930 1_545 S
C1094 H1108 0.953 . S
C1095 C1092 1.539 . S
C1095 H1109 0.958 1_554 S
C1095 H1110 0.961 . S
C1095 H1111 0.955 1_545 S
H1096 C1080 0.931 . S
H1097 C1085 0.929 . S
H1098 C1086 0.960 . S
H1099 C1086 0.962 . S
H1100 C1086 0.960 . S
H1101 C1087 0.961 . S
H1102 C1087 0.961 . S
H1103 C1087 0.961 . S
H1104 C1088 0.931 . S
H1105 C1093 0.930 . S
H1106 C1094 0.964 1_556 S
H1107 C1094 0.930 1_565 S
H1108 C1094 0.953 . S
H1109 C1095 0.958 1_556 S
H1110 C1095 0.961 . S
H1111 C1095 0.955 1_565 S
C1112 C1113 1.391 . S
C1112 C1114 1.394 . S
C1112 H1128 0.931 . S
C1113 C1112 1.391 . S
C1113 C1117 1.376 . S
C1114 C1112 1.394 . S
C1114 C1115 1.369 . S
C1114 C1118 1.531 1_655 S
C1115 C1114 1.369 . S
C1115 C1116 1.410 . S
C1115 C1123 1.503 1_654 S
C1116 C1115 1.410 . S
C1116 C1117 1.392 . S
C1116 C1119 1.511 1_554 S
C1117 C1113 1.376 . S
C1117 C1116 1.392 . S
C1117 H1129 0.929 . S
C1118 C1114 1.531 1_455 S
C1118 H1130 0.960 . S
C1118 H1131 0.962 . S
C1118 H1132 0.960 . S
C1119 C1116 1.511 1_556 S
C1119 H1133 0.961 . S
C1119 H1134 0.961 . S
C1119 H1135 0.961 . S
C1120 C1121 1.370 . S
C1120 C1122 1.363 . S
C1120 H1136 0.931 . S
C1121 C1120 1.370 . S
C1121 C1125 1.408 . S
C1122 C1120 1.363 . S
C1122 C1123 1.370 . S
C1122 C1126 1.524 1_556 S
C1123 C1115 1.503 1_456 S
C1123 C1122 1.370 . S
C1123 C1124 1.403 . S
C1124 C1123 1.403 . S
C1124 C1125 1.404 . S
C1124 C1127 1.539 1_455 S
C1125 C1121 1.408 . S
C1125 C1124 1.404 . S
C1125 H1137 0.930 . S
C1126 C1122 1.524 1_554 S
C1126 H1138 0.956 . S
C1126 H1139 0.961 . S
C1126 H1140 0.961 . S
C1127 C1124 1.539 1_655 S
C1127 H1141 0.958 . S
C1127 H1142 0.961 . S
C1127 H1143 0.960 . S
H1128 C1112 0.931 . S
H1129 C1117 0.929 . S
H1130 C1118 0.960 . S
H1131 C1118 0.962 . S
H1132 C1118 0.960 . S
H1133 C1119 0.961 . S
H1134 C1119 0.961 . S
H1135 C1119 0.961 . S
H1136 C1120 0.931 . S
H1137 C1125 0.930 . S
H1138 C1126 0.956 . S
H1139 C1126 0.961 . S
H1140 C1126 0.961 . S
H1141 C1127 0.958 . S
H1142 C1127 0.961 . S
H1143 C1127 0.960 . S
C1144 C1145 1.391 . S
C1144 C1146 1.394 . S
C1144 H1160 0.931 . S
C1145 C1144 1.391 . S
C1145 C1149 1.376 . S
C1146 C1144 1.394 . S
C1146 C1147 1.369 . S
C1146 C1150 1.531 1_556 S
C1147 C1146 1.369 . S
C1147 C1148 1.410 . S
C1147 C1155 1.503 1_556 S
C1148 C1147 1.410 . S
C1148 C1149 1.392 . S
C1148 C1151 1.511 . S
C1149 C1145 1.376 . S
C1149 C1148 1.392 . S
C1149 H1161 0.929 . S
C1150 C1146 1.531 1_554 S
C1150 H1162 0.960 . S
C1150 H1163 0.962 . S
C1150 H1164 0.960 . S
C1151 C1148 1.511 . S
C1151 H1165 0.961 . S
C1151 H1166 0.961 . S
C1151 H1167 0.961 . S
C1152 C1153 1.370 . S
C1152 C1154 1.363 . S
C1152 H1168 0.931 . S
C1153 C1152 1.370 . S
C1153 C1157 1.408 . S
C1154 C1152 1.363 . S
C1154 C1155 1.370 . S
C1154 C1158 1.524 . S
C1155 C1147 1.503 1_554 S
C1155 C1154 1.370 . S
C1155 C1156 1.403 . S
C1156 C1155 1.403 . S
C1156 C1157 1.404 . S
C1156 C1159 1.539 1_554 S
C1157 C1153 1.408 . S
C1157 C1156 1.404 . S
C1157 H1169 0.930 . S
C1158 C1154 1.524 . S
C1158 H1170 0.956 . S
C1158 H1171 0.961 . S
C1158 H1172 0.961 . S
C1159 C1156 1.539 1_556 S
C1159 H1173 0.958 . S
C1159 H1174 0.961 . S
C1159 H1175 0.960 . S
H1160 C1144 0.931 . S
H1161 C1149 0.929 . S
H1162 C1150 0.960 . S
H1163 C1150 0.962 . S
H1164 C1150 0.960 . S
H1165 C1151 0.961 . S
H1166 C1151 0.961 . S
H1167 C1151 0.961 . S
H1168 C1152 0.931 . S
H1169 C1157 0.930 . S
H1170 C1158 0.956 . S
H1171 C1158 0.961 . S
H1172 C1158 0.961 . S
H1173 C1159 0.958 . S
H1174 C1159 0.961 . S
H1175 C1159 0.960 . S
C1176 C1177 1.391 . S
C1176 C1178 1.379 1_565 S
C1176 H1192 0.931 . S
C1177 C1176 1.391 . S
C1177 C1181 1.376 . S
C1178 C1176 1.379 1_545 S
C1178 C1179 1.366 1_545 S
C1178 C1182 1.549 . S
C1179 C1178 1.366 1_565 S
C1179 C1180 1.410 . S
C1179 C1187 1.503 1_566 S
C1180 C1179 1.410 . S
C1180 C1181 1.392 . S
C1180 C1183 1.511 1_556 S
C1181 C1177 1.376 . S
C1181 C1180 1.392 . S
C1181 H1193 0.929 . S
C1182 C1178 1.549 . S
C1182 H1194 0.960 . S
C1182 H1195 0.962 . S
C1182 H1196 0.960 . S
C1183 C1180 1.511 1_554 S
C1183 H1197 0.961 . S
C1183 H1198 0.961 . S
C1183 H1199 0.961 . S
C1184 C1185 1.370 . S
C1184 C1186 1.363 . S
C1184 H1200 0.931 . S
C1185 C1184 1.370 . S
C1185 C1189 1.408 . S
C1186 C1184 1.363 . S
C1186 C1187 1.370 . S
C1186 C1190 1.524 1_545 S
C1187 C1179 1.503 1_544 S
C1187 C1186 1.370 . S
C1187 C1188 1.403 . S
C1188 C1187 1.403 . S
C1188 C1189 1.404 . S
C1188 C1191 1.539 . S
C1189 C1185 1.408 . S
C1189 C1188 1.404 . S
C1189 H1201 0.930 . S
C1190 C1186 1.524 1_565 S
C1190 H1202 0.956 1_564 S
C1190 H1203 0.961 . S
C1190 H1204 0.955 . S
C1191 C1188 1.539 . S
C1191 H1205 0.958 1_554 S
C1191 H1206 0.961 . S
C1191 H1207 0.960 1_554 S
H1192 C1176 0.931 . S
H1193 C1181 0.929 . S
H1194 C1182 0.960 . S
H1195 C1182 0.962 . S
H1196 C1182 0.960 . S
H1197 C1183 0.961 . S
H1198 C1183 0.961 . S
H1199 C1183 0.961 . S
H1200 C1184 0.931 . S
H1201 C1189 0.930 . S
H1202 C1190 0.956 1_546 S
H1203 C1190 0.961 . S
H1204 C1190 0.955 . S
H1205 C1191 0.958 1_556 S
H1206 C1191 0.961 . S
H1207 C1191 0.960 1_556 S
C1208 C1209 1.391 . S
C1208 C1210 1.394 . S
C1208 H1224 0.931 . S
C1209 C1208 1.391 . S
C1209 C1213 1.376 . S
C1210 C1208 1.394 . S
C1210 C1211 1.369 . S
C1210 C1214 1.531 1_455 S
C1211 C1210 1.369 . S
C1211 C1212 1.410 . S
C1211 C1219 1.503 1_456 S
C1212 C1211 1.410 . S
C1212 C1213 1.392 . S
C1212 C1215 1.511 1_556 S
C1213 C1209 1.376 . S
C1213 C1212 1.392 . S
C1213 H1225 0.929 . S
C1214 C1210 1.531 1_655 S
C1214 H1226 0.960 . S
C1214 H1227 0.962 . S
C1214 H1228 0.960 1_655 S
C1215 C1212 1.511 1_554 S
C1215 H1229 0.961 1_554 S
C1215 H1230 0.961 . S
C1215 H1231 0.961 . S
C1216 C1217 1.370 . S
C1216 C1218 1.363 . S
C1216 H1232 0.931 . S
C1217 C1216 1.370 . S
C1217 C1221 1.408 . S
C1218 C1216 1.363 . S
C1218 C1219 1.370 . S
C1218 C1222 1.524 1_554 S
C1219 C1211 1.503 1_654 S
C1219 C1218 1.370 . S
C1219 C1220 1.400 . S
C1220 C1219 1.400 . S
C1220 C1221 1.399 . S
C1220 C1223 1.546 1_655 S
C1221 C1217 1.408 . S
C1221 C1220 1.399 . S
C1221 H1233 0.930 . S
C1222 C1218 1.524 1_556 S
C1222 H1234 0.956 . S
C1222 H1235 0.961 . S
C1222 H1236 0.961 . S
C1223 C1220 1.546 1_455 S
C1223 H1237 0.958 . S
C1223 H1238 0.961 . S
C1223 H1239 0.960 . S
H1224 C1208 0.931 . S
H1225 C1213 0.929 . S
H1226 C1214 0.960 . S
H1227 C1214 0.962 . S
H1228 C1214 0.960 1_455 S
H1229 C1215 0.961 1_556 S
H1230 C1215 0.961 . S
H1231 C1215 0.961 . S
H1232 C1216 0.931 . S
H1233 C1221 0.930 . S
H1234 C1222 0.956 . S
H1235 C1222 0.961 . S
H1236 C1222 0.961 . S
H1237 C1223 0.958 . S
H1238 C1223 0.961 . S
H1239 C1223 0.960 . S
C1240 C1241 1.391 . S
C1240 C1242 1.394 . S
C1240 H1256 0.931 . S
C1241 C1240 1.391 . S
C1241 C1245 1.376 . S
C1242 C1240 1.394 . S
C1242 C1243 1.369 . S
C1242 C1246 1.531 1_554 S
C1243 C1242 1.369 . S
C1243 C1244 1.410 . S
C1243 C1251 1.503 1_554 S
C1244 C1243 1.410 . S
C1244 C1245 1.392 . S
C1244 C1247 1.511 . S
C1245 C1241 1.376 . S
C1245 C1244 1.392 . S
C1245 H1257 0.929 . S
C1246 C1242 1.531 1_556 S
C1246 H1258 0.960 . S
C1246 H1259 0.962 . S
C1246 H1260 0.960 . S
C1247 C1244 1.511 . S
C1247 H1261 0.961 . S
C1247 H1262 0.961 . S
C1247 H1263 0.961 . S
C1248 C1249 1.370 . S
C1248 C1250 1.363 . S
C1248 H1264 0.931 . S
C1249 C1248 1.370 . S
C1249 C1253 1.408 . S
C1250 C1248 1.363 . S
C1250 C1251 1.370 . S
C1250 C1254 1.524 1_556 S
C1251 C1243 1.503 1_556 S
C1251 C1250 1.370 . S
C1251 C1252 1.403 . S
C1252 C1251 1.403 . S
C1252 C1253 1.404 . S
C1252 C1255 1.539 . S
C1253 C1249 1.408 . S
C1253 C1252 1.404 . S
C1253 H1265 0.930 . S
C1254 C1250 1.524 1_554 S
C1254 H1266 0.956 . S
C1254 H1267 0.961 . S
C1254 H1268 0.961 1_554 S
C1255 C1252 1.539 . S
C1255 H1269 0.958 . S
C1255 H1270 0.961 . S
C1255 H1271 0.960 . S
H1256 C1240 0.931 . S
H1257 C1245 0.929 . S
H1258 C1246 0.960 . S
H1259 C1246 0.962 . S
H1260 C1246 0.960 . S
H1261 C1247 0.961 . S
H1262 C1247 0.961 . S
H1263 C1247 0.961 . S
H1264 C1248 0.931 . S
H1265 C1253 0.930 . S
H1266 C1254 0.956 . S
H1267 C1254 0.961 . S
H1268 C1254 0.961 1_556 S
H1269 C1255 0.958 . S
H1270 C1255 0.961 . S
H1271 C1255 0.960 . S
C1272 C1273 1.391 . S
C1272 C1274 1.394 . S
C1272 H1288 0.931 . S
C1273 C1272 1.391 . S
C1273 C1277 1.376 . S
C1274 C1272 1.394 . S
C1274 C1275 1.369 . S
C1274 C1278 1.531 . S
C1275 C1274 1.369 . S
C1275 C1276 1.410 . S
C1275 C1283 1.503 . S
C1276 C1275 1.410 . S
C1276 C1277 1.392 . S
C1276 C1279 1.511 . S
C1277 C1273 1.376 . S
C1277 C1276 1.392 . S
C1277 H1289 0.929 . S
C1278 C1274 1.531 . S
C1278 H1290 0.960 . S
C1278 H1291 0.962 . S
C1278 H1292 0.960 . S
C1279 C1276 1.511 . S
C1279 H1293 0.961 . S
C1279 H1294 0.961 . S
C1279 H1295 0.961 . S
C1280 C1281 1.370 . S
C1280 C1282 1.363 . S
C1280 H1296 0.931 . S
C1281 C1280 1.370 . S
C1281 C1285 1.408 . S
C1282 C1280 1.363 . S
C1282 C1283 1.370 . S
C1282 C1286 1.524 . S
C1283 C1275 1.503 . S
C1283 C1282 1.370 . S
C1283 C1284 1.403 . S
C1284 C1283 1.403 . S
C1284 C1285 1.404 . S
C1284 C1287 1.539 . S
C1285 C1281 1.408 . S
C1285 C1284 1.404 . S
C1285 H1297 0.930 . S
C1286 C1282 1.524 . S
C1286 H1298 0.956 . S
C1286 H1299 0.961 . S
C1286 H1300 0.961 . S
C1287 C1284 1.539 . S
C1287 H1301 0.958 . S
C1287 H1302 0.961 . S
C1287 H1303 0.960 . S
H1288 C1272 0.931 . S
H1289 C1277 0.929 . S
H1290 C1278 0.960 . S
H1291 C1278 0.962 . S
H1292 C1278 0.960 . S
H1293 C1279 0.961 . S
H1294 C1279 0.961 . S
H1295 C1279 0.961 . S
H1296 C1280 0.931 . S
H1297 C1285 0.930 . S
H1298 C1286 0.956 . S
H1299 C1286 0.961 . S
H1300 C1286 0.961 . S
H1301 C1287 0.958 . S
H1302 C1287 0.961 . S
H1303 C1287 0.960 . S
C1304 C1305 1.391 . S
C1304 C1306 1.394 . S
C1304 H1320 0.931 . S
C1305 C1304 1.391 . S
C1305 C1309 1.376 . S
C1306 C1304 1.394 . S
C1306 C1307 1.369 . S
C1306 C1310 1.531 . S
C1307 C1306 1.369 . S
C1307 C1308 1.410 . S
C1307 C1315 1.503 . S
C1308 C1307 1.410 . S
C1308 C1309 1.392 . S
C1308 C1311 1.511 . S
C1309 C1305 1.376 . S
C1309 C1308 1.392 . S
C1309 H1321 0.929 . S
C1310 C1306 1.531 . S
C1310 H1322 0.960 . S
C1310 H1323 0.962 . S
C1310 H1324 0.960 . S
C1311 C1308 1.511 . S
C1311 H1325 0.961 . S
C1311 H1326 0.961 . S
C1311 H1327 0.961 . S
C1312 C1313 1.370 . S
C1312 C1314 1.363 . S
C1312 H1328 0.931 . S
C1313 C1312 1.370 . S
C1313 C1317 1.408 . S
C1314 C1312 1.363 . S
C1314 C1315 1.370 . S
C1314 C1318 1.524 . S
C1315 C1307 1.503 . S
C1315 C1314 1.370 . S
C1315 C1316 1.403 . S
C1316 C1315 1.403 . S
C1316 C1317 1.404 . S
C1316 C1319 1.539 . S
C1317 C1313 1.408 . S
C1317 C1316 1.404 . S
C1317 H1329 0.930 . S
C1318 C1314 1.524 . S
C1318 H1330 0.956 . S
C1318 H1331 0.961 . S
C1318 H1332 0.961 . S
C1319 C1316 1.539 . S
C1319 H1333 0.958 . S
C1319 H1334 0.961 . S
C1319 H1335 0.960 . S
H1320 C1304 0.931 . S
H1321 C1309 0.929 . S
H1322 C1310 0.960 . S
H1323 C1310 0.962 . S
H1324 C1310 0.960 . S
H1325 C1311 0.961 . S
H1326 C1311 0.961 . S
H1327 C1311 0.961 . S
H1328 C1312 0.931 . S
H1329 C1317 0.930 . S
H1330 C1318 0.956 . S
H1331 C1318 0.961 . S
H1332 C1318 0.961 . S
H1333 C1319 0.958 . S
H1334 C1319 0.961 . S
H1335 C1319 0.960 . S
C1336 C1337 1.391 . S
C1336 C1338 1.394 . S
C1336 H1352 0.931 . S
C1337 C1336 1.391 . S
C1337 C1341 1.376 . S
C1338 C1336 1.394 . S
C1338 C1339 1.369 . S
C1338 C1342 1.531 . S
C1339 C1338 1.369 . S
C1339 C1340 1.410 . S
C1339 C1347 1.503 . S
C1340 C1339 1.410 . S
C1340 C1341 1.392 . S
C1340 C1343 1.511 . S
C1341 C1337 1.376 . S
C1341 C1340 1.392 . S
C1341 H1353 0.929 . S
C1342 C1338 1.531 . S
C1342 H1354 0.960 . S
C1342 H1355 0.962 . S
C1342 H1356 0.960 . S
C1343 C1340 1.511 . S
C1343 H1357 0.961 . S
C1343 H1358 0.961 . S
C1343 H1359 0.961 . S
C1344 C1345 1.370 . S
C1344 C1346 1.363 . S
C1344 H1360 0.931 . S
C1345 C1344 1.370 . S
C1345 C1349 1.408 . S
C1346 C1344 1.363 . S
C1346 C1347 1.370 . S
C1346 C1350 1.524 . S
C1347 C1339 1.503 . S
C1347 C1346 1.370 . S
C1347 C1348 1.403 . S
C1348 C1347 1.403 . S
C1348 C1349 1.404 . S
C1348 C1351 1.539 . S
C1349 C1345 1.408 . S
C1349 C1348 1.404 . S
C1349 H1361 0.930 . S
C1350 C1346 1.524 . S
C1350 H1362 0.956 . S
C1350 H1363 0.961 . S
C1350 H1364 0.961 . S
C1351 C1348 1.539 . S
C1351 H1365 0.958 . S
C1351 H1366 0.961 . S
C1351 H1367 0.960 . S
H1352 C1336 0.931 . S
H1353 C1341 0.929 . S
H1354 C1342 0.960 . S
H1355 C1342 0.962 . S
H1356 C1342 0.960 . S
H1357 C1343 0.961 . S
H1358 C1343 0.961 . S
H1359 C1343 0.961 . S
H1360 C1344 0.931 . S
H1361 C1349 0.930 . S
H1362 C1350 0.956 . S
H1363 C1350 0.961 . S
H1364 C1350 0.961 . S
H1365 C1351 0.958 . S
H1366 C1351 0.961 . S
H1367 C1351 0.960 . S
C1368 C1369 1.391 . S
C1368 C1370 1.394 . S
C1368 H1384 0.931 . S
C1369 C1368 1.391 . S
C1369 C1373 1.376 . S
C1370 C1368 1.394 . S
C1370 C1371 1.369 . S
C1370 C1374 1.531 . S
C1371 C1370 1.369 . S
C1371 C1372 1.410 . S
C1371 C1379 1.503 . S
C1372 C1371 1.410 . S
C1372 C1373 1.392 . S
C1372 C1375 1.511 . S
C1373 C1369 1.376 . S
C1373 C1372 1.392 . S
C1373 H1385 0.929 . S
C1374 C1370 1.531 . S
C1374 H1386 0.960 . S
C1374 H1387 0.962 . S
C1374 H1388 0.960 . S
C1375 C1372 1.511 . S
C1375 H1389 0.961 . S
C1375 H1390 0.961 . S
C1375 H1391 0.961 . S
C1376 C1377 1.370 . S
C1376 C1378 1.363 . S
C1376 H1392 0.931 . S
C1377 C1376 1.370 . S
C1377 C1381 1.408 . S
C1378 C1376 1.363 . S
C1378 C1379 1.370 . S
C1378 C1382 1.524 . S
C1379 C1371 1.503 . S
C1379 C1378 1.370 . S
C1379 C1380 1.403 . S
C1380 C1379 1.403 . S
C1380 C1381 1.404 . S
C1380 C1383 1.539 . S
C1381 C1377 1.408 . S
C1381 C1380 1.404 . S
C1381 H1393 0.930 . S
C1382 C1378 1.524 . S
C1382 H1394 0.956 . S
C1382 H1395 0.961 . S
C1382 H1396 0.961 . S
C1383 C1380 1.539 . S
C1383 H1397 0.958 . S
C1383 H1398 0.961 . S
C1383 H1399 0.960 . S
H1384 C1368 0.931 . S
H1385 C1373 0.929 . S
H1386 C1374 0.960 . S
H1387 C1374 0.962 . S
H1388 C1374 0.960 . S
H1389 C1375 0.961 . S
H1390 C1375 0.961 . S
H1391 C1375 0.961 . S
H1392 C1376 0.931 . S
H1393 C1381 0.930 . S
H1394 C1382 0.956 . S
H1395 C1382 0.961 . S
H1396 C1382 0.961 . S
H1397 C1383 0.958 . S
H1398 C1383 0.961 . S
H1399 C1383 0.960 . S
C1400 C1401 1.391 . S
C1400 C1402 1.394 . S
C1400 H1416 0.931 . S
C1401 C1400 1.391 . S
C1401 C1405 1.376 . S
C1402 C1400 1.394 . S
C1402 C1403 1.369 . S
C1402 C1406 1.531 . S
C1403 C1402 1.369 . S
C1403 C1404 1.410 . S
C1403 C1411 1.503 . S
C1404 C1403 1.410 . S
C1404 C1405 1.392 . S
C1404 C1407 1.511 . S
C1405 C1401 1.376 . S
C1405 C1404 1.392 . S
C1405 H1417 0.929 . S
C1406 C1402 1.531 . S
C1406 H1418 0.960 . S
C1406 H1419 0.962 . S
C1406 H1420 0.960 . S
C1407 C1404 1.511 . S
C1407 H1421 0.961 . S
C1407 H1422 0.961 . S
C1407 H1423 0.961 . S
C1408 C1409 1.370 . S
C1408 C1410 1.363 . S
C1408 H1424 0.931 . S
C1409 C1408 1.370 . S
C1409 C1413 1.408 . S
C1410 C1408 1.363 . S
C1410 C1411 1.370 . S
C1410 C1414 1.524 . S
C1411 C1403 1.503 . S
C1411 C1410 1.370 . S
C1411 C1412 1.403 . S
C1412 C1411 1.403 . S
C1412 C1413 1.404 . S
C1412 C1415 1.539 . S
C1413 C1409 1.408 . S
C1413 C1412 1.404 . S
C1413 H1425 0.930 . S
C1414 C1410 1.524 . S
C1414 H1426 0.956 . S
C1414 H1427 0.961 . S
C1414 H1428 0.961 . S
C1415 C1412 1.539 . S
C1415 H1429 0.958 . S
C1415 H1430 0.961 . S
C1415 H1431 0.960 . S
H1416 C1400 0.931 . S
H1417 C1405 0.929 . S
H1418 C1406 0.960 . S
H1419 C1406 0.962 . S
H1420 C1406 0.960 . S
H1421 C1407 0.961 . S
H1422 C1407 0.961 . S
H1423 C1407 0.961 . S
H1424 C1408 0.931 . S
H1425 C1413 0.930 . S
H1426 C1414 0.956 . S
H1427 C1414 0.961 . S
H1428 C1414 0.961 . S
H1429 C1415 0.958 . S
H1430 C1415 0.961 . S
H1431 C1415 0.960 . S
C1432 C1433 1.391 . S
C1432 C1434 1.394 . S
C1432 H1448 0.931 . S
C1433 C1432 1.391 . S
C1433 C1437 1.376 . S
C1434 C1432 1.394 . S
C1434 C1435 1.369 . S
C1434 C1438 1.531 . S
C1435 C1434 1.369 . S
C1435 C1436 1.410 . S
C1435 C1443 1.503 . S
C1436 C1435 1.410 . S
C1436 C1437 1.392 . S
C1436 C1439 1.511 . S
C1437 C1433 1.376 . S
C1437 C1436 1.392 . S
C1437 H1449 0.929 . S
C1438 C1434 1.531 . S
C1438 H1450 0.960 . S
C1438 H1451 0.962 . S
C1438 H1452 0.960 . S
C1439 C1436 1.511 . S
C1439 H1453 0.961 . S
C1439 H1454 0.961 . S
C1439 H1455 0.961 . S
C1440 C1441 1.370 . S
C1440 C1442 1.363 . S
C1440 H1456 0.931 . S
C1441 C1440 1.370 . S
C1441 C1445 1.408 . S
C1442 C1440 1.363 . S
C1442 C1443 1.370 . S
C1442 C1446 1.524 . S
C1443 C1435 1.503 . S
C1443 C1442 1.370 . S
C1443 C1444 1.403 . S
C1444 C1443 1.403 . S
C1444 C1445 1.404 . S
C1444 C1447 1.539 . S
C1445 C1441 1.408 . S
C1445 C1444 1.404 . S
C1445 H1457 0.930 . S
C1446 C1442 1.524 . S
C1446 H1458 0.956 . S
C1446 H1459 0.961 . S
C1446 H1460 0.961 . S
C1447 C1444 1.539 . S
C1447 H1461 0.958 . S
C1447 H1462 0.961 . S
C1447 H1463 0.960 . S
H1448 C1432 0.931 . S
H1449 C1437 0.929 . S
H1450 C1438 0.960 . S
H1451 C1438 0.962 . S
H1452 C1438 0.960 . S
H1453 C1439 0.961 . S
H1454 C1439 0.961 . S
H1455 C1439 0.961 . S
H1456 C1440 0.931 . S
H1457 C1445 0.930 . S
H1458 C1446 0.956 . S
H1459 C1446 0.961 . S
H1460 C1446 0.961 . S
H1461 C1447 0.958 . S
H1462 C1447 0.961 . S
H1463 C1447 0.960 . S
C1464 C1465 1.391 . S
C1464 C1466 1.394 . S
C1464 H1480 0.931 . S
C1465 C1464 1.391 . S
C1465 C1469 1.376 . S
C1466 C1464 1.394 . S
C1466 C1467 1.369 . S
C1466 C1470 1.531 . S
C1467 C1466 1.369 . S
C1467 C1468 1.410 . S
C1467 C1475 1.503 . S
C1468 C1467 1.410 . S
C1468 C1469 1.392 . S
C1468 C1471 1.511 . S
C1469 C1465 1.376 . S
C1469 C1468 1.392 . S
C1469 H1481 0.929 . S
C1470 C1466 1.531 . S
C1470 H1482 0.960 . S
C1470 H1483 0.962 . S
C1470 H1484 0.960 . S
C1471 C1468 1.511 . S
C1471 H1485 0.961 . S
C1471 H1486 0.961 . S
C1471 H1487 0.961 . S
C1472 C1473 1.370 . S
C1472 C1474 1.363 . S
C1472 H1488 0.931 . S
C1473 C1472 1.370 . S
C1473 C1477 1.408 . S
C1474 C1472 1.363 . S
C1474 C1475 1.370 . S
C1474 C1478 1.524 . S
C1475 C1467 1.503 . S
C1475 C1474 1.370 . S
C1475 C1476 1.403 . S
C1476 C1475 1.403 . S
C1476 C1477 1.404 . S
C1476 C1479 1.539 . S
C1477 C1473 1.408 . S
C1477 C1476 1.404 . S
C1477 H1489 0.930 . S
C1478 C1474 1.524 . S
C1478 H1490 0.956 . S
C1478 H1491 0.961 . S
C1478 H1492 0.961 . S
C1479 C1476 1.539 . S
C1479 H1493 0.958 . S
C1479 H1494 0.961 . S
C1479 H1495 0.960 . S
H1480 C1464 0.931 . S
H1481 C1469 0.929 . S
H1482 C1470 0.960 . S
H1483 C1470 0.962 . S
H1484 C1470 0.960 . S
H1485 C1471 0.961 . S
H1486 C1471 0.961 . S
H1487 C1471 0.961 . S
H1488 C1472 0.931 . S
H1489 C1477 0.930 . S
H1490 C1478 0.956 . S
H1491 C1478 0.961 . S
H1492 C1478 0.961 . S
H1493 C1479 0.958 . S
H1494 C1479 0.961 . S
H1495 C1479 0.960 . S
C1496 C1497 1.391 . S
C1496 C1498 1.394 . S
C1496 H1512 0.931 . S
C1497 C1496 1.391 . S
C1497 C1501 1.376 . S
C1498 C1496 1.394 . S
C1498 C1499 1.369 . S
C1498 C1502 1.531 . S
C1499 C1498 1.369 . S
C1499 C1500 1.410 . S
C1499 C1507 1.503 . S
C1500 C1499 1.410 . S
C1500 C1501 1.392 . S
C1500 C1503 1.511 . S
C1501 C1497 1.376 . S
C1501 C1500 1.392 . S
C1501 H1513 0.929 . S
C1502 C1498 1.531 . S
C1502 H1514 0.960 . S
C1502 H1515 0.962 . S
C1502 H1516 0.960 . S
C1503 C1500 1.511 . S
C1503 H1517 0.961 . S
C1503 H1518 0.961 . S
C1503 H1519 0.961 . S
C1504 C1505 1.370 . S
C1504 C1506 1.363 . S
C1504 H1520 0.931 . S
C1505 C1504 1.370 . S
C1505 C1509 1.408 . S
C1506 C1504 1.363 . S
C1506 C1507 1.370 . S
C1506 C1510 1.524 . S
C1507 C1499 1.503 . S
C1507 C1506 1.370 . S
C1507 C1508 1.403 . S
C1508 C1507 1.403 . S
C1508 C1509 1.404 . S
C1508 C1511 1.539 . S
C1509 C1505 1.408 . S
C1509 C1508 1.404 . S
C1509 H1521 0.930 . S
C1510 C1506 1.524 . S
C1510 H1522 0.956 . S
C1510 H1523 0.961 . S
C1510 H1524 0.961 . S
C1511 C1508 1.539 . S
C1511 H1525 0.958 . S
C1511 H1526 0.961 . S
C1511 H1527 0.960 . S
H1512 C1496 0.931 . S
H1513 C1501 0.929 . S
H1514 C1502 0.960 . S
H1515 C1502 0.962 . S
H1516 C1502 0.960 . S
H1517 C1503 0.961 . S
H1518 C1503 0.961 . S
H1519 C1503 0.961 . S
H1520 C1504 0.931 . S
H1521 C1509 0.930 . S
H1522 C1510 0.956 . S
H1523 C1510 0.961 . S
H1524 C1510 0.961 . S
H1525 C1511 0.958 . S
H1526 C1511 0.961 . S
H1527 C1511 0.960 . S
C1528 C1529 1.391 . S
C1528 C1530 1.394 . S
C1528 H1544 0.931 . S
C1529 C1528 1.391 . S
C1529 C1533 1.376 . S
C1530 C1528 1.394 . S
C1530 C1531 1.369 . S
C1530 C1534 1.531 . S
C1531 C1530 1.369 . S
C1531 C1532 1.410 . S
C1531 C1539 1.503 . S
C1532 C1531 1.410 . S
C1532 C1533 1.392 . S
C1532 C1535 1.511 . S
C1533 C1529 1.376 . S
C1533 C1532 1.392 . S
C1533 H1545 0.929 . S
C1534 C1530 1.531 . S
C1534 H1546 0.960 . S
C1534 H1547 0.962 . S
C1534 H1548 0.960 . S
C1535 C1532 1.511 . S
C1535 H1549 0.961 . S
C1535 H1550 0.961 . S
C1535 H1551 0.961 . S
C1536 C1537 1.370 . S
C1536 C1538 1.363 . S
C1536 H1552 0.931 . S
C1537 C1536 1.370 . S
C1537 C1541 1.408 . S
C1538 C1536 1.363 . S
C1538 C1539 1.370 . S
C1538 C1542 1.524 . S
C1539 C1531 1.503 . S
C1539 C1538 1.370 . S
C1539 C1540 1.403 . S
C1540 C1539 1.403 . S
C1540 C1541 1.404 . S
C1540 C1543 1.539 . S
C1541 C1537 1.408 . S
C1541 C1540 1.404 . S
C1541 H1553 0.930 . S
C1542 C1538 1.524 . S
C1542 H1554 0.956 . S
C1542 H1555 0.961 . S
C1542 H1556 0.961 . S
C1543 C1540 1.539 . S
C1543 H1557 0.958 . S
C1543 H1558 0.961 . S
C1543 H1559 0.960 . S
H1544 C1528 0.931 . S
H1545 C1533 0.929 . S
H1546 C1534 0.960 . S
H1547 C1534 0.962 . S
H1548 C1534 0.960 . S
H1549 C1535 0.961 . S
H1550 C1535 0.961 . S
H1551 C1535 0.961 . S
H1552 C1536 0.931 . S
H1553 C1541 0.930 . S
H1554 C1542 0.956 . S
H1555 C1542 0.961 . S
H1556 C1542 0.961 . S
H1557 C1543 0.958 . S
H1558 C1543 0.961 . S
H1559 C1543 0.960 . S
C1560 C1561 1.391 . S
C1560 C1562 1.394 . S
C1560 H1576 0.931 . S
C1561 C1560 1.391 . S
C1561 C1565 1.376 . S
C1562 C1560 1.394 . S
C1562 C1563 1.369 . S
C1562 C1566 1.531 . S
C1563 C1562 1.369 . S
C1563 C1564 1.410 . S
C1563 C1571 1.503 . S
C1564 C1563 1.410 . S
C1564 C1565 1.392 . S
C1564 C1567 1.511 . S
C1565 C1561 1.376 . S
C1565 C1564 1.392 . S
C1565 H1577 0.929 . S
C1566 C1562 1.531 . S
C1566 H1578 0.960 . S
C1566 H1579 0.962 . S
C1566 H1580 0.960 . S
C1567 C1564 1.511 . S
C1567 H1581 0.961 . S
C1567 H1582 0.961 . S
C1567 H1583 0.961 . S
C1568 C1569 1.370 . S
C1568 C1570 1.363 . S
C1568 H1584 0.931 . S
C1569 C1568 1.370 . S
C1569 C1573 1.408 . S
C1570 C1568 1.363 . S
C1570 C1571 1.370 . S
C1570 C1574 1.524 . S
C1571 C1563 1.503 . S
C1571 C1570 1.370 . S
C1571 C1572 1.403 . S
C1572 C1571 1.403 . S
C1572 C1573 1.404 . S
C1572 C1575 1.539 . S
C1573 C1569 1.408 . S
C1573 C1572 1.404 . S
C1573 H1585 0.930 . S
C1574 C1570 1.524 . S
C1574 H1586 0.956 . S
C1574 H1587 0.961 . S
C1574 H1588 0.961 . S
C1575 C1572 1.539 . S
C1575 H1589 0.958 . S
C1575 H1590 0.961 . S
C1575 H1591 0.960 . S
H1576 C1560 0.931 . S
H1577 C1565 0.929 . S
H1578 C1566 0.960 . S
H1579 C1566 0.962 . S
H1580 C1566 0.960 . S
H1581 C1567 0.961 . S
H1582 C1567 0.961 . S
H1583 C1567 0.961 . S
H1584 C1568 0.931 . S
H1585 C1573 0.930 . S
H1586 C1574 0.956 . S
H1587 C1574 0.961 . S
H1588 C1574 0.961 . S
H1589 C1575 0.958 . S
H1590 C1575 0.961 . S
H1591 C1575 0.960 . S
C1592 C1593 1.391 . S
C1592 C1594 1.394 . S
C1592 H1608 0.931 . S
C1593 C1592 1.391 . S
C1593 C1597 1.376 . S
C1594 C1592 1.394 . S
C1594 C1595 1.369 . S
C1594 C1598 1.531 . S
C1595 C1594 1.369 . S
C1595 C1596 1.410 . S
C1595 C1603 1.503 . S
C1596 C1595 1.410 . S
C1596 C1597 1.392 . S
C1596 C1599 1.511 . S
C1597 C1593 1.376 . S
C1597 C1596 1.392 . S
C1597 H1609 0.929 . S
C1598 C1594 1.531 . S
C1598 H1610 0.960 . S
C1598 H1611 0.962 . S
C1598 H1612 0.960 . S
C1599 C1596 1.511 . S
C1599 H1613 0.961 . S
C1599 H1614 0.961 . S
C1599 H1615 0.961 . S
C1600 C1601 1.370 . S
C1600 C1602 1.363 . S
C1600 H1616 0.931 . S
C1601 C1600 1.370 . S
C1601 C1605 1.408 . S
C1602 C1600 1.363 . S
C1602 C1603 1.370 . S
C1602 C1606 1.524 . S
C1603 C1595 1.503 . S
C1603 C1602 1.370 . S
C1603 C1604 1.403 . S
C1604 C1603 1.403 . S
C1604 C1605 1.404 . S
C1604 C1607 1.539 . S
C1605 C1601 1.408 . S
C1605 C1604 1.404 . S
C1605 H1617 0.930 . S
C1606 C1602 1.524 . S
C1606 H1618 0.956 . S
C1606 H1619 0.961 . S
C1606 H1620 0.961 . S
C1607 C1604 1.539 . S
C1607 H1621 0.958 . S
C1607 H1622 0.961 . S
C1607 H1623 0.960 . S
H1608 C1592 0.931 . S
H1609 C1597 0.929 . S
H1610 C1598 0.960 . S
H1611 C1598 0.962 . S
H1612 C1598 0.960 . S
H1613 C1599 0.961 . S
H1614 C1599 0.961 . S
H1615 C1599 0.961 . S
H1616 C1600 0.931 . S
H1617 C1605 0.930 . S
H1618 C1606 0.956 . S
H1619 C1606 0.961 . S
H1620 C1606 0.961 . S
H1621 C1607 0.958 . S
H1622 C1607 0.961 . S
H1623 C1607 0.960 . S
C1624 C1625 1.391 . S
C1624 C1626 1.394 . S
C1624 H1640 0.931 . S
C1625 C1624 1.391 . S
C1625 C1629 1.376 . S
C1626 C1624 1.394 . S
C1626 C1627 1.369 . S
C1626 C1630 1.531 . S
C1627 C1626 1.369 . S
C1627 C1628 1.410 . S
C1627 C1635 1.503 . S
C1628 C1627 1.410 . S
C1628 C1629 1.392 . S
C1628 C1631 1.511 . S
C1629 C1625 1.376 . S
C1629 C1628 1.392 . S
C1629 H1641 0.929 . S
C1630 C1626 1.531 . S
C1630 H1642 0.960 . S
C1630 H1643 0.962 . S
C1630 H1644 0.960 . S
C1631 C1628 1.511 . S
C1631 H1645 0.961 . S
C1631 H1646 0.961 . S
C1631 H1647 0.961 . S
C1632 C1633 1.370 . S
C1632 C1634 1.363 . S
C1632 H1648 0.931 . S
C1633 C1632 1.370 . S
C1633 C1637 1.408 . S
C1634 C1632 1.363 . S
C1634 C1635 1.370 . S
C1634 C1638 1.524 . S
C1635 C1627 1.503 . S
C1635 C1634 1.370 . S
C1635 C1636 1.403 . S
C1636 C1635 1.403 . S
C1636 C1637 1.404 . S
C1636 C1639 1.539 . S
C1637 C1633 1.408 . S
C1637 C1636 1.404 . S
C1637 H1649 0.930 . S
C1638 C1634 1.524 . S
C1638 H1650 0.956 . S
C1638 H1651 0.961 . S
C1638 H1652 0.961 . S
C1639 C1636 1.539 . S
C1639 H1653 0.958 . S
C1639 H1654 0.961 . S
C1639 H1655 0.960 . S
H1640 C1624 0.931 . S
H1641 C1629 0.929 . S
H1642 C1630 0.960 . S
H1643 C1630 0.962 . S
H1644 C1630 0.960 . S
H1645 C1631 0.961 . S
H1646 C1631 0.961 . S
H1647 C1631 0.961 . S
H1648 C1632 0.931 . S
H1649 C1637 0.930 . S
H1650 C1638 0.956 . S
H1651 C1638 0.961 . S
H1652 C1638 0.961 . S
H1653 C1639 0.958 . S
H1654 C1639 0.961 . S
H1655 C1639 0.960 . S
C1656 C1657 1.391 . S
C1656 C1658 1.394 . S
C1656 H1672 0.931 . S
C1657 C1656 1.391 . S
C1657 C1661 1.376 . S
C1658 C1656 1.394 . S
C1658 C1659 1.369 . S
C1658 C1662 1.531 . S
C1659 C1658 1.369 . S
C1659 C1660 1.410 . S
C1659 C1667 1.503 . S
C1660 C1659 1.410 . S
C1660 C1661 1.392 . S
C1660 C1663 1.511 . S
C1661 C1657 1.376 . S
C1661 C1660 1.392 . S
C1661 H1673 0.929 . S
C1662 C1658 1.531 . S
C1662 H1674 0.960 . S
C1662 H1675 0.962 . S
C1662 H1676 0.960 . S
C1663 C1660 1.511 . S
C1663 H1677 0.961 . S
C1663 H1678 0.961 . S
C1663 H1679 0.961 . S
C1664 C1665 1.370 . S
C1664 C1666 1.363 . S
C1664 H1680 0.931 . S
C1665 C1664 1.370 . S
C1665 C1669 1.408 . S
C1666 C1664 1.363 . S
C1666 C1667 1.370 . S
C1666 C1670 1.524 . S
C1667 C1659 1.503 . S
C1667 C1666 1.370 . S
C1667 C1668 1.403 . S
C1668 C1667 1.403 . S
C1668 C1669 1.404 . S
C1668 C1671 1.539 . S
C1669 C1665 1.408 . S
C1669 C1668 1.404 . S
C1669 H1681 0.930 . S
C1670 C1666 1.524 . S
C1670 H1682 0.956 . S
C1670 H1683 0.961 . S
C1670 H1684 0.961 . S
C1671 C1668 1.539 . S
C1671 H1685 0.958 . S
C1671 H1686 0.961 . S
C1671 H1687 0.960 . S
H1672 C1656 0.931 . S
H1673 C1661 0.929 . S
H1674 C1662 0.960 . S
H1675 C1662 0.962 . S
H1676 C1662 0.960 . S
H1677 C1663 0.961 . S
H1678 C1663 0.961 . S
H1679 C1663 0.961 . S
H1680 C1664 0.931 . S
H1681 C1669 0.930 . S
H1682 C1670 0.956 . S
H1683 C1670 0.961 . S
H1684 C1670 0.961 . S
H1685 C1671 0.958 . S
H1686 C1671 0.961 . S
H1687 C1671 0.960 . S
C1688 C1689 1.391 . S
C1688 C1690 1.394 . S
C1688 H1704 0.931 . S
C1689 C1688 1.391 . S
C1689 C1693 1.376 . S
C1690 C1688 1.394 . S
C1690 C1691 1.369 . S
C1690 C1694 1.531 . S
C1691 C1690 1.369 . S
C1691 C1692 1.410 . S
C1691 C1699 1.503 . S
C1692 C1691 1.410 . S
C1692 C1693 1.392 . S
C1692 C1695 1.511 . S
C1693 C1689 1.376 . S
C1693 C1692 1.392 . S
C1693 H1705 0.929 . S
C1694 C1690 1.531 . S
C1694 H1706 0.960 . S
C1694 H1707 0.962 . S
C1694 H1708 0.960 . S
C1695 C1692 1.511 . S
C1695 H1709 0.961 . S
C1695 H1710 0.961 . S
C1695 H1711 0.961 . S
C1696 C1697 1.370 . S
C1696 C1698 1.363 . S
C1696 H1712 0.931 . S
C1697 C1696 1.370 . S
C1697 C1701 1.408 . S
C1698 C1696 1.363 . S
C1698 C1699 1.370 . S
C1698 C1702 1.524 . S
C1699 C1691 1.503 . S
C1699 C1698 1.370 . S
C1699 C1700 1.403 . S
C1700 C1699 1.403 . S
C1700 C1701 1.404 . S
C1700 C1703 1.539 . S
C1701 C1697 1.408 . S
C1701 C1700 1.404 . S
C1701 H1713 0.930 . S
C1702 C1698 1.524 . S
C1702 H1714 0.956 . S
C1702 H1715 0.961 . S
C1702 H1716 0.961 . S
C1703 C1700 1.539 . S
C1703 H1717 0.958 . S
C1703 H1718 0.961 . S
C1703 H1719 0.960 . S
H1704 C1688 0.931 . S
H1705 C1693 0.929 . S
H1706 C1694 0.960 . S
H1707 C1694 0.962 . S
H1708 C1694 0.960 . S
H1709 C1695 0.961 . S
H1710 C1695 0.961 . S
H1711 C1695 0.961 . S
H1712 C1696 0.931 . S
H1713 C1701 0.930 . S
H1714 C1702 0.956 . S
H1715 C1702 0.961 . S
H1716 C1702 0.961 . S
H1717 C1703 0.958 . S
H1718 C1703 0.961 . S
H1719 C1703 0.960 . S
C1720 C1721 1.391 . S
C1720 C1722 1.394 . S
C1720 H1736 0.931 . S
C1721 C1720 1.391 . S
C1721 C1725 1.376 . S
C1722 C1720 1.394 . S
C1722 C1723 1.369 . S
C1722 C1726 1.531 . S
C1723 C1722 1.369 . S
C1723 C1724 1.410 . S
C1723 C1731 1.503 . S
C1724 C1723 1.410 . S
C1724 C1725 1.392 . S
C1724 C1727 1.511 . S
C1725 C1721 1.376 . S
C1725 C1724 1.392 . S
C1725 H1737 0.929 . S
C1726 C1722 1.531 . S
C1726 H1738 0.960 . S
C1726 H1739 0.962 . S
C1726 H1740 0.960 . S
C1727 C1724 1.511 . S
C1727 H1741 0.961 . S
C1727 H1742 0.961 . S
C1727 H1743 0.961 . S
C1728 C1729 1.370 . S
C1728 C1730 1.363 . S
C1728 H1744 0.931 . S
C1729 C1728 1.370 . S
C1729 C1733 1.408 . S
C1730 C1728 1.363 . S
C1730 C1731 1.370 . S
C1730 C1734 1.524 . S
C1731 C1723 1.503 . S
C1731 C1730 1.370 . S
C1731 C1732 1.403 . S
C1732 C1731 1.403 . S
C1732 C1733 1.404 . S
C1732 C1735 1.539 . S
C1733 C1729 1.408 . S
C1733 C1732 1.404 . S
C1733 H1745 0.930 . S
C1734 C1730 1.524 . S
C1734 H1746 0.956 . S
C1734 H1747 0.961 . S
C1734 H1748 0.961 . S
C1735 C1732 1.539 . S
C1735 H1749 0.958 . S
C1735 H1750 0.961 . S
C1735 H1751 0.960 . S
H1736 C1720 0.931 . S
H1737 C1725 0.929 . S
H1738 C1726 0.960 . S
H1739 C1726 0.962 . S
H1740 C1726 0.960 . S
H1741 C1727 0.961 . S
H1742 C1727 0.961 . S
H1743 C1727 0.961 . S
H1744 C1728 0.931 . S
H1745 C1733 0.930 . S
H1746 C1734 0.956 . S
H1747 C1734 0.961 . S
H1748 C1734 0.961 . S
H1749 C1735 0.958 . S
H1750 C1735 0.961 . S
H1751 C1735 0.960 . S
C1752 C1753 1.391 . S
C1752 C1754 1.394 . S
C1752 H1768 0.931 . S
C1753 C1752 1.391 . S
C1753 C1757 1.376 . S
C1754 C1752 1.394 . S
C1754 C1755 1.369 . S
C1754 C1758 1.531 . S
C1755 C1754 1.369 . S
C1755 C1756 1.410 . S
C1755 C1763 1.503 . S
C1756 C1755 1.410 . S
C1756 C1757 1.392 . S
C1756 C1759 1.511 . S
C1757 C1753 1.376 . S
C1757 C1756 1.392 . S
C1757 H1769 0.929 . S
C1758 C1754 1.531 . S
C1758 H1770 0.960 . S
C1758 H1771 0.962 . S
C1758 H1772 0.960 . S
C1759 C1756 1.511 . S
C1759 H1773 0.961 . S
C1759 H1774 0.961 . S
C1759 H1775 0.961 . S
C1760 C1761 1.370 . S
C1760 C1762 1.363 . S
C1760 H1776 0.931 . S
C1761 C1760 1.370 . S
C1761 C1765 1.408 . S
C1762 C1760 1.363 . S
C1762 C1763 1.370 . S
C1762 C1766 1.524 . S
C1763 C1755 1.503 . S
C1763 C1762 1.370 . S
C1763 C1764 1.403 . S
C1764 C1763 1.403 . S
C1764 C1765 1.404 . S
C1764 C1767 1.539 . S
C1765 C1761 1.408 . S
C1765 C1764 1.404 . S
C1765 H1777 0.930 . S
C1766 C1762 1.524 . S
C1766 H1778 0.956 . S
C1766 H1779 0.961 . S
C1766 H1780 0.961 . S
C1767 C1764 1.539 . S
C1767 H1781 0.958 . S
C1767 H1782 0.961 . S
C1767 H1783 0.960 . S
H1768 C1752 0.931 . S
H1769 C1757 0.929 . S
H1770 C1758 0.960 . S
H1771 C1758 0.962 . S
H1772 C1758 0.960 . S
H1773 C1759 0.961 . S
H1774 C1759 0.961 . S
H1775 C1759 0.961 . S
H1776 C1760 0.931 . S
H1777 C1765 0.930 . S
H1778 C1766 0.956 . S
H1779 C1766 0.961 . S
H1780 C1766 0.961 . S
H1781 C1767 0.958 . S
H1782 C1767 0.961 . S
H1783 C1767 0.960 . S
C1784 C1785 1.391 . S
C1784 C1786 1.394 . S
C1784 H1800 0.931 . S
C1785 C1784 1.391 . S
C1785 C1789 1.376 . S
C1786 C1784 1.394 . S
C1786 C1787 1.369 . S
C1786 C1790 1.531 . S
C1787 C1786 1.369 . S
C1787 C1788 1.410 . S
C1787 C1795 1.503 . S
C1788 C1787 1.410 . S
C1788 C1789 1.392 . S
C1788 C1791 1.511 . S
C1789 C1785 1.376 . S
C1789 C1788 1.392 . S
C1789 H1801 0.929 . S
C1790 C1786 1.531 . S
C1790 H1802 0.960 . S
C1790 H1803 0.962 . S
C1790 H1804 0.960 . S
C1791 C1788 1.511 . S
C1791 H1805 0.961 . S
C1791 H1806 0.961 . S
C1791 H1807 0.961 . S
C1792 C1793 1.370 . S
C1792 C1794 1.363 . S
C1792 H1808 0.931 . S
C1793 C1792 1.370 . S
C1793 C1797 1.408 . S
C1794 C1792 1.363 . S
C1794 C1795 1.370 . S
C1794 C1798 1.524 . S
C1795 C1787 1.503 . S
C1795 C1794 1.370 . S
C1795 C1796 1.403 . S
C1796 C1795 1.403 . S
C1796 C1797 1.404 . S
C1796 C1799 1.539 . S
C1797 C1793 1.408 . S
C1797 C1796 1.404 . S
C1797 H1809 0.930 . S
C1798 C1794 1.524 . S
C1798 H1810 0.956 . S
C1798 H1811 0.961 . S
C1798 H1812 0.961 . S
C1799 C1796 1.539 . S
C1799 H1813 0.958 . S
C1799 H1814 0.961 . S
C1799 H1815 0.960 . S
H1800 C1784 0.931 . S
H1801 C1789 0.929 . S
H1802 C1790 0.960 . S
H1803 C1790 0.962 . S
H1804 C1790 0.960 . S
H1805 C1791 0.961 . S
H1806 C1791 0.961 . S
H1807 C1791 0.961 . S
H1808 C1792 0.931 . S
H1809 C1797 0.930 . S
H1810 C1798 0.956 . S
H1811 C1798 0.961 . S
H1812 C1798 0.961 . S
H1813 C1799 0.958 . S
H1814 C1799 0.961 . S
H1815 C1799 0.960 . S
C1816 C1817 1.391 . S
C1816 C1818 1.394 . S
C1816 H1832 0.931 . S
C1817 C1816 1.391 . S
C1817 C1821 1.376 . S
C1818 C1816 1.394 . S
C1818 C1819 1.369 . S
C1818 C1822 1.531 . S
C1819 C1818 1.369 . S
C1819 C1820 1.410 . S
C1819 C1827 1.503 . S
C1820 C1819 1.410 . S
C1820 C1821 1.392 . S
C1820 C1823 1.511 . S
C1821 C1817 1.376 . S
C1821 C1820 1.392 . S
C1821 H1833 0.929 . S
C1822 C1818 1.531 . S
C1822 H1834 0.960 . S
C1822 H1835 0.962 . S
C1822 H1836 0.960 . S
C1823 C1820 1.511 . S
C1823 H1837 0.961 . S
C1823 H1838 0.961 . S
C1823 H1839 0.961 . S
C1824 C1825 1.370 . S
C1824 C1826 1.363 . S
C1824 H1840 0.931 . S
C1825 C1824 1.370 . S
C1825 C1829 1.408 . S
C1826 C1824 1.363 . S
C1826 C1827 1.370 . S
C1826 C1830 1.524 . S
C1827 C1819 1.503 . S
C1827 C1826 1.370 . S
C1827 C1828 1.403 . S
C1828 C1827 1.403 . S
C1828 C1829 1.404 . S
C1828 C1831 1.539 . S
C1829 C1825 1.408 . S
C1829 C1828 1.404 . S
C1829 H1841 0.930 . S
C1830 C1826 1.524 . S
C1830 H1842 0.956 . S
C1830 H1843 0.961 . S
C1830 H1844 0.961 . S
C1831 C1828 1.539 . S
C1831 H1845 0.958 . S
C1831 H1846 0.961 . S
C1831 H1847 0.960 . S
H1832 C1816 0.931 . S
H1833 C1821 0.929 . S
H1834 C1822 0.960 . S
H1835 C1822 0.962 . S
H1836 C1822 0.960 . S
H1837 C1823 0.961 . S
H1838 C1823 0.961 . S
H1839 C1823 0.961 . S
H1840 C1824 0.931 . S
H1841 C1829 0.930 . S
H1842 C1830 0.956 . S
H1843 C1830 0.961 . S
H1844 C1830 0.961 . S
H1845 C1831 0.958 . S
H1846 C1831 0.961 . S
H1847 C1831 0.960 . S
C1848 C1849 1.391 . S
C1848 C1850 1.394 . S
C1848 H1864 0.931 . S
C1849 C1848 1.391 . S
C1849 C1853 1.376 . S
C1850 C1848 1.394 . S
C1850 C1851 1.369 . S
C1850 C1854 1.531 . S
C1851 C1850 1.369 . S
C1851 C1852 1.410 . S
C1851 C1859 1.503 . S
C1852 C1851 1.410 . S
C1852 C1853 1.392 . S
C1852 C1855 1.511 . S
C1853 C1849 1.376 . S
C1853 C1852 1.392 . S
C1853 H1865 0.929 . S
C1854 C1850 1.531 . S
C1854 H1866 0.960 . S
C1854 H1867 0.962 . S
C1854 H1868 0.960 . S
C1855 C1852 1.511 . S
C1855 H1869 0.961 . S
C1855 H1870 0.961 . S
C1855 H1871 0.961 . S
C1856 C1857 1.370 . S
C1856 C1858 1.363 . S
C1856 H1872 0.931 . S
C1857 C1856 1.370 . S
C1857 C1861 1.408 . S
C1858 C1856 1.363 . S
C1858 C1859 1.370 . S
C1858 C1862 1.524 . S
C1859 C1851 1.503 . S
C1859 C1858 1.370 . S
C1859 C1860 1.403 . S
C1860 C1859 1.403 . S
C1860 C1861 1.404 . S
C1860 C1863 1.539 . S
C1861 C1857 1.408 . S
C1861 C1860 1.404 . S
C1861 H1873 0.930 . S
C1862 C1858 1.524 . S
C1862 H1874 0.956 . S
C1862 H1875 0.961 . S
C1862 H1876 0.961 . S
C1863 C1860 1.539 . S
C1863 H1877 0.958 . S
C1863 H1878 0.961 . S
C1863 H1879 0.960 . S
H1864 C1848 0.931 . S
H1865 C1853 0.929 . S
H1866 C1854 0.960 . S
H1867 C1854 0.962 . S
H1868 C1854 0.960 . S
H1869 C1855 0.961 . S
H1870 C1855 0.961 . S
H1871 C1855 0.961 . S
H1872 C1856 0.931 . S
H1873 C1861 0.930 . S
H1874 C1862 0.956 . S
H1875 C1862 0.961 . S
H1876 C1862 0.961 . S
H1877 C1863 0.958 . S
H1878 C1863 0.961 . S
H1879 C1863 0.960 . S
C1880 C1881 1.391 . S
C1880 C1882 1.394 . S
C1880 H1896 0.931 . S
C1881 C1880 1.391 . S
C1881 C1885 1.376 . S
C1882 C1880 1.394 . S
C1882 C1883 1.369 . S
C1882 C1886 1.531 . S
C1883 C1882 1.369 . S
C1883 C1884 1.410 . S
C1883 C1891 1.503 . S
C1884 C1883 1.410 . S
C1884 C1885 1.392 . S
C1884 C1887 1.511 . S
C1885 C1881 1.376 . S
C1885 C1884 1.392 . S
C1885 H1897 0.929 . S
C1886 C1882 1.531 . S
C1886 H1898 0.960 . S
C1886 H1899 0.962 . S
C1886 H1900 0.960 . S
C1887 C1884 1.511 . S
C1887 H1901 0.961 . S
C1887 H1902 0.961 . S
C1887 H1903 0.961 . S
C1888 C1889 1.370 . S
C1888 C1890 1.363 . S
C1888 H1904 0.931 . S
C1889 C1888 1.370 . S
C1889 C1893 1.408 . S
C1890 C1888 1.363 . S
C1890 C1891 1.370 . S
C1890 C1894 1.524 . S
C1891 C1883 1.503 . S
C1891 C1890 1.370 . S
C1891 C1892 1.403 . S
C1892 C1891 1.403 . S
C1892 C1893 1.404 . S
C1892 C1895 1.539 . S
C1893 C1889 1.408 . S
C1893 C1892 1.404 . S
C1893 H1905 0.930 . S
C1894 C1890 1.524 . S
C1894 H1906 0.956 . S
C1894 H1907 0.961 . S
C1894 H1908 0.961 . S
C1895 C1892 1.539 . S
C1895 H1909 0.958 . S
C1895 H1910 0.961 . S
C1895 H1911 0.960 . S
H1896 C1880 0.931 . S
H1897 C1885 0.929 . S
H1898 C1886 0.960 . S
H1899 C1886 0.962 . S
H1900 C1886 0.960 . S
H1901 C1887 0.961 . S
H1902 C1887 0.961 . S
H1903 C1887 0.961 . S
H1904 C1888 0.931 . S
H1905 C1893 0.930 . S
H1906 C1894 0.956 . S
H1907 C1894 0.961 . S
H1908 C1894 0.961 . S
H1909 C1895 0.958 . S
H1910 C1895 0.961 . S
H1911 C1895 0.960 . S
C1912 C1913 1.391 . S
C1912 C1914 1.394 . S
C1912 H1928 0.931 . S
C1913 C1912 1.391 . S
C1913 C1917 1.376 . S
C1914 C1912 1.394 . S
C1914 C1915 1.369 . S
C1914 C1918 1.531 . S
C1915 C1914 1.369 . S
C1915 C1916 1.410 . S
C1915 C1923 1.503 . S
C1916 C1915 1.410 . S
C1916 C1917 1.392 . S
C1916 C1919 1.511 . S
C1917 C1913 1.376 . S
C1917 C1916 1.392 . S
C1917 H1929 0.929 . S
C1918 C1914 1.531 . S
C1918 H1930 0.960 . S
C1918 H1931 0.962 . S
C1918 H1932 0.960 . S
C1919 C1916 1.511 . S
C1919 H1933 0.961 . S
C1919 H1934 0.961 . S
C1919 H1935 0.961 . S
C1920 C1921 1.370 . S
C1920 C1922 1.363 . S
C1920 H1936 0.931 . S
C1921 C1920 1.370 . S
C1921 C1925 1.408 . S
C1922 C1920 1.363 . S
C1922 C1923 1.370 . S
C1922 C1926 1.524 . S
C1923 C1915 1.503 . S
C1923 C1922 1.370 . S
C1923 C1924 1.403 . S
C1924 C1923 1.403 . S
C1924 C1925 1.404 . S
C1924 C1927 1.539 . S
C1925 C1921 1.408 . S
C1925 C1924 1.404 . S
C1925 H1937 0.930 . S
C1926 C1922 1.524 . S
C1926 H1938 0.956 . S
C1926 H1939 0.961 . S
C1926 H1940 0.961 . S
C1927 C1924 1.539 . S
C1927 H1941 0.958 . S
C1927 H1942 0.961 . S
C1927 H1943 0.960 . S
H1928 C1912 0.931 . S
H1929 C1917 0.929 . S
H1930 C1918 0.960 . S
H1931 C1918 0.962 . S
H1932 C1918 0.960 . S
H1933 C1919 0.961 . S
H1934 C1919 0.961 . S
H1935 C1919 0.961 . S
H1936 C1920 0.931 . S
H1937 C1925 0.930 . S
H1938 C1926 0.956 . S
H1939 C1926 0.961 . S
H1940 C1926 0.961 . S
H1941 C1927 0.958 . S
H1942 C1927 0.961 . S
H1943 C1927 0.960 . S
C1944 C1945 1.391 . S
C1944 C1946 1.394 . S
C1944 H1960 0.931 . S
C1945 C1944 1.391 . S
C1945 C1949 1.376 . S
C1946 C1944 1.394 . S
C1946 C1947 1.369 . S
C1946 C1950 1.531 . S
C1947 C1946 1.369 . S
C1947 C1948 1.410 . S
C1947 C1955 1.503 . S
C1948 C1947 1.410 . S
C1948 C1949 1.392 . S
C1948 C1951 1.511 . S
C1949 C1945 1.376 . S
C1949 C1948 1.392 . S
C1949 H1961 0.929 . S
C1950 C1946 1.531 . S
C1950 H1962 0.960 . S
C1950 H1963 0.962 . S
C1950 H1964 0.960 . S
C1951 C1948 1.511 . S
C1951 H1965 0.961 . S
C1951 H1966 0.961 . S
C1951 H1967 0.961 . S
C1952 C1953 1.370 . S
C1952 C1954 1.363 . S
C1952 H1968 0.931 . S
C1953 C1952 1.370 . S
C1953 C1957 1.408 . S
C1954 C1952 1.363 . S
C1954 C1955 1.370 . S
C1954 C1958 1.524 . S
C1955 C1947 1.503 . S
C1955 C1954 1.370 . S
C1955 C1956 1.403 . S
C1956 C1955 1.403 . S
C1956 C1957 1.404 . S
C1956 C1959 1.539 . S
C1957 C1953 1.408 . S
C1957 C1956 1.404 . S
C1957 H1969 0.930 . S
C1958 C1954 1.524 . S
C1958 H1970 0.956 . S
C1958 H1971 0.961 . S
C1958 H1972 0.961 . S
C1959 C1956 1.539 . S
C1959 H1973 0.958 . S
C1959 H1974 0.961 . S
C1959 H1975 0.960 . S
H1960 C1944 0.931 . S
H1961 C1949 0.929 . S
H1962 C1950 0.960 . S
H1963 C1950 0.962 . S
H1964 C1950 0.960 . S
H1965 C1951 0.961 . S
H1966 C1951 0.961 . S
H1967 C1951 0.961 . S
H1968 C1952 0.931 . S
H1969 C1957 0.930 . S
H1970 C1958 0.956 . S
H1971 C1958 0.961 . S
H1972 C1958 0.961 . S
H1973 C1959 0.958 . S
H1974 C1959 0.961 . S
H1975 C1959 0.960 . S
C1976 C1977 1.391 . S
C1976 C1978 1.394 . S
C1976 H1992 0.931 . S
C1977 C1976 1.391 . S
C1977 C1981 1.376 . S
C1978 C1976 1.394 . S
C1978 C1979 1.369 . S
C1978 C1982 1.531 . S
C1979 C1978 1.369 . S
C1979 C1980 1.410 . S
C1979 C1987 1.503 . S
C1980 C1979 1.410 . S
C1980 C1981 1.392 . S
C1980 C1983 1.511 . S
C1981 C1977 1.376 . S
C1981 C1980 1.392 . S
C1981 H1993 0.929 . S
C1982 C1978 1.531 . S
C1982 H1994 0.960 . S
C1982 H1995 0.962 . S
C1982 H1996 0.960 . S
C1983 C1980 1.511 . S
C1983 H1997 0.961 . S
C1983 H1998 0.961 . S
C1983 H1999 0.961 . S
C1984 C1985 1.370 . S
C1984 C1986 1.363 . S
C1984 H2000 0.931 . S
C1985 C1984 1.370 . S
C1985 C1989 1.408 . S
C1986 C1984 1.363 . S
C1986 C1987 1.370 . S
C1986 C1990 1.524 . S
C1987 C1979 1.503 . S
C1987 C1986 1.370 . S
C1987 C1988 1.403 . S
C1988 C1987 1.403 . S
C1988 C1989 1.404 . S
C1988 C1991 1.539 . S
C1989 C1985 1.408 . S
C1989 C1988 1.404 . S
C1989 H2001 0.930 . S
C1990 C1986 1.524 . S
C1990 H2002 0.956 . S
C1990 H2003 0.961 . S
C1990 H2004 0.961 . S
C1991 C1988 1.539 . S
C1991 H2005 0.958 . S
C1991 H2006 0.961 . S
C1991 H2007 0.960 . S
H1992 C1976 0.931 . S
H1993 C1981 0.929 . S
H1994 C1982 0.960 . S
H1995 C1982 0.962 . S
H1996 C1982 0.960 . S
H1997 C1983 0.961 . S
H1998 C1983 0.961 . S
H1999 C1983 0.961 . S
H2000 C1984 0.931 . S
H2001 C1989 0.930 . S
H2002 C1990 0.956 . S
H2003 C1990 0.961 . S
H2004 C1990 0.961 . S
H2005 C1991 0.958 . S
H2006 C1991 0.961 . S
H2007 C1991 0.960 . S
C2008 C2009 1.391 . S
C2008 C2010 1.394 . S
C2008 H2024 0.931 . S
C2009 C2008 1.391 . S
C2009 C2013 1.376 . S
C2010 C2008 1.394 . S
C2010 C2011 1.369 . S
C2010 C2014 1.531 . S
C2011 C2010 1.369 . S
C2011 C2012 1.410 . S
C2011 C2019 1.503 . S
C2012 C2011 1.410 . S
C2012 C2013 1.392 . S
C2012 C2015 1.511 . S
C2013 C2009 1.376 . S
C2013 C2012 1.392 . S
C2013 H2025 0.929 . S
C2014 C2010 1.531 . S
C2014 H2026 0.960 . S
C2014 H2027 0.962 . S
C2014 H2028 0.960 . S
C2015 C2012 1.511 . S
C2015 H2029 0.961 . S
C2015 H2030 0.961 . S
C2015 H2031 0.961 . S
C2016 C2017 1.370 . S
C2016 C2018 1.363 . S
C2016 H2032 0.931 . S
C2017 C2016 1.370 . S
C2017 C2021 1.408 . S
C2018 C2016 1.363 . S
C2018 C2019 1.370 . S
C2018 C2022 1.524 . S
C2019 C2011 1.503 . S
C2019 C2018 1.370 . S
C2019 C2020 1.403 . S
C2020 C2019 1.403 . S
C2020 C2021 1.404 . S
C2020 C2023 1.539 . S
C2021 C2017 1.408 . S
C2021 C2020 1.404 . S
C2021 H2033 0.930 . S
C2022 C2018 1.524 . S
C2022 H2034 0.956 . S
C2022 H2035 0.961 . S
C2022 H2036 0.961 . S
C2023 C2020 1.539 . S
C2023 H2037 0.958 . S
C2023 H2038 0.961 . S
C2023 H2039 0.960 . S
H2024 C2008 0.931 . S
H2025 C2013 0.929 . S
H2026 C2014 0.960 . S
H2027 C2014 0.962 . S
H2028 C2014 0.960 . S
H2029 C2015 0.961 . S
H2030 C2015 0.961 . S
H2031 C2015 0.961 . S
H2032 C2016 0.931 . S
H2033 C2021 0.930 . S
H2034 C2022 0.956 . S
H2035 C2022 0.961 . S
H2036 C2022 0.961 . S
H2037 C2023 0.958 . S
H2038 C2023 0.961 . S
H2039 C2023 0.960 . S
C2040 C2041 1.391 . S
C2040 C2042 1.394 . S
C2040 H2056 0.931 . S
C2041 C2040 1.391 . S
C2041 C2045 1.376 . S
C2042 C2040 1.394 . S
C2042 C2043 1.369 . S
C2042 C2046 1.531 . S
C2043 C2042 1.369 . S
C2043 C2044 1.410 . S
C2043 C2051 1.503 1_455 S
C2044 C2043 1.410 . S
C2044 C2045 1.392 . S
C2044 C2047 1.511 . S
C2045 C2041 1.376 . S
C2045 C2044 1.392 . S
C2045 H2057 0.929 . S
C2046 C2042 1.531 . S
C2046 H2058 0.960 1_455 S
C2046 H2059 0.962 . S
C2046 H2060 0.960 . S
C2047 C2044 1.511 . S
C2047 H2061 0.961 . S
C2047 H2062 0.977 . S
C2047 H2063 0.961 . S
C2048 C2049 1.370 . S
C2048 C2050 1.363 . S
C2048 H2064 0.931 . S
C2049 C2048 1.370 . S
C2049 C2053 1.408 . S
C2050 C2048 1.363 . S
C2050 C2051 1.370 . S
C2050 C2054 1.524 . S
C2051 C2043 1.503 1_655 S
C2051 C2050 1.370 . S
C2051 C2052 1.403 . S
C2052 C2051 1.403 . S
C2052 C2053 1.404 . S
C2052 C2055 1.539 . S
C2053 C2049 1.408 . S
C2053 C2052 1.404 . S
C2053 H2065 0.930 . S
C2054 C2050 1.524 . S
C2054 H2066 0.956 1_655 S
C2054 H2067 0.961 1_655 S
C2054 H2068 0.961 . S
C2055 C2052 1.539 . S
C2055 H2069 0.958 . S
C2055 H2070 0.961 . S
C2055 H2071 0.960 . S
H2056 C2040 0.931 . S
H2057 C2045 0.929 . S
H2058 C2046 0.960 1_655 S
H2059 C2046 0.962 . S
H2060 C2046 0.960 . S
H2061 C2047 0.961 . S
H2062 C2047 0.977 . S
H2063 C2047 0.961 . S
H2064 C2048 0.931 . S
H2065 C2053 0.930 . S
H2066 C2054 0.956 1_455 S
H2067 C2054 0.961 1_455 S
H2068 C2054 0.961 . S
H2069 C2055 0.958 . S
H2070 C2055 0.961 . S
H2071 C2055 0.960 . S
C2072 C2073 1.391 . S
C2072 C2074 1.394 . S
C2072 H2088 0.931 . S
C2073 C2072 1.391 . S
C2073 C2077 1.376 . S
C2074 C2072 1.394 . S
C2074 C2075 1.369 . S
C2074 C2078 1.531 . S
C2075 C2074 1.369 . S
C2075 C2076 1.410 . S
C2075 C2083 1.503 . S
C2076 C2075 1.410 . S
C2076 C2077 1.392 . S
C2076 C2079 1.511 . S
C2077 C2073 1.376 . S
C2077 C2076 1.392 . S
C2077 H2089 0.929 . S
C2078 C2074 1.531 . S
C2078 H2090 0.960 . S
C2078 H2091 0.962 . S
C2078 H2092 0.960 . S
C2079 C2076 1.511 . S
C2079 H2093 0.961 . S
C2079 H2094 0.961 . S
C2079 H2095 0.961 . S
C2080 C2081 1.370 . S
C2080 C2082 1.363 . S
C2080 H2096 0.931 . S
C2081 C2080 1.370 . S
C2081 C2085 1.408 . S
C2082 C2080 1.363 . S
C2082 C2083 1.370 . S
C2082 C2086 1.524 . S
C2083 C2075 1.503 . S
C2083 C2082 1.370 . S
C2083 C2084 1.403 . S
C2084 C2083 1.403 . S
C2084 C2085 1.404 . S
C2084 C2087 1.539 . S
C2085 C2081 1.408 . S
C2085 C2084 1.404 . S
C2085 H2097 0.930 . S
C2086 C2082 1.524 . S
C2086 H2098 0.956 . S
C2086 H2099 0.961 . S
C2086 H2100 0.961 . S
C2087 C2084 1.539 . S
C2087 H2101 0.958 . S
C2087 H2102 0.961 . S
C2087 H2103 0.960 . S
H2088 C2072 0.931 . S
H2089 C2077 0.929 . S
H2090 C2078 0.960 . S
H2091 C2078 0.962 . S
H2092 C2078 0.960 . S
H2093 C2079 0.961 . S
H2094 C2079 0.961 . S
H2095 C2079 0.961 . S
H2096 C2080 0.931 . S
H2097 C2085 0.930 . S
H2098 C2086 0.956 . S
H2099 C2086 0.961 . S
H2100 C2086 0.961 . S
H2101 C2087 0.958 . S
H2102 C2087 0.961 . S
H2103 C2087 0.960 . S
C2104 C2105 1.391 . S
C2104 C2106 1.394 . S
C2104 H2120 0.931 . S
C2105 C2104 1.391 . S
C2105 C2109 1.376 . S
C2106 C2104 1.394 . S
C2106 C2107 1.369 . S
C2106 C2110 1.531 . S
C2107 C2106 1.369 . S
C2107 C2108 1.410 . S
C2107 C2115 1.503 1_545 S
C2108 C2107 1.410 . S
C2108 C2109 1.392 . S
C2108 C2111 1.511 . S
C2109 C2105 1.376 . S
C2109 C2108 1.392 . S
C2109 H2121 0.929 . S
C2110 C2106 1.531 . S
C2110 H2122 0.960 . S
C2110 H2123 0.962 . S
C2110 H2124 0.960 . S
C2111 C2108 1.511 . S
C2111 H2125 0.961 . S
C2111 H2126 0.961 1_545 S
C2111 H2127 0.961 . S
C2112 C2113 1.370 . S
C2112 C2114 1.363 . S
C2112 H2128 0.931 . S
C2113 C2112 1.370 . S
C2113 C2117 1.408 . S
C2114 C2112 1.363 . S
C2114 C2115 1.370 . S
C2114 C2118 1.524 . S
C2115 C2107 1.503 1_565 S
C2115 C2114 1.370 . S
C2115 C2116 1.403 . S
C2116 C2115 1.403 . S
C2116 C2117 1.404 . S
C2116 C2119 1.539 . S
C2117 C2113 1.408 . S
C2117 C2116 1.404 . S
C2117 H2129 0.930 . S
C2118 C2114 1.524 . S
C2118 H2130 0.956 . S
C2118 H2131 0.961 . S
C2118 H2132 0.961 . S
C2119 C2116 1.539 . S
C2119 H2133 0.958 . S
C2119 H2134 0.961 . S
C2119 H2135 0.960 1_565 S
H2120 C2104 0.931 . S
H2121 C2109 0.929 . S
H2122 C2110 0.960 . S
H2123 C2110 0.962 . S
H2124 C2110 0.960 . S
H2125 C2111 0.961 . S
H2126 C2111 0.961 1_565 S
H2127 C2111 0.961 . S
H2128 C2112 0.931 . S
H2129 C2117 0.930 . S
H2130 C2118 0.956 . S
H2131 C2118 0.961 . S
H2132 C2118 0.961 . S
H2133 C2119 0.958 . S
H2134 C2119 0.961 . S
H2135 C2119 0.960 1_545 S
C2136 C2137 1.391 . S
C2136 C2138 1.394 . S
C2136 H2152 0.931 . S
C2137 C2136 1.391 . S
C2137 C2141 1.376 . S
C2138 C2136 1.394 . S
C2138 C2139 1.369 . S
C2138 C2142 1.531 . S
C2139 C2138 1.369 . S
C2139 C2140 1.410 . S
C2139 C2147 1.503 1_545 S
C2140 C2139 1.410 . S
C2140 C2141 1.392 . S
C2140 C2143 1.511 . S
C2141 C2137 1.376 . S
C2141 C2140 1.392 . S
C2141 H2153 0.929 . S
C2142 C2138 1.531 . S
C2142 H2154 0.960 . S
C2142 H2155 0.962 . S
C2142 H2156 0.960 . S
C2143 C2140 1.511 . S
C2143 H2157 0.961 . S
C2143 H2158 0.961 1_545 S
C2143 H2159 0.961 . S
C2144 C2145 1.370 . S
C2144 C2146 1.363 . S
C2144 H2160 0.931 . S
C2145 C2144 1.370 . S
C2145 C2149 1.408 . S
C2146 C2144 1.363 . S
C2146 C2147 1.370 . S
C2146 C2150 1.524 . S
C2147 C2139 1.503 1_565 S
C2147 C2146 1.370 . S
C2147 C2148 1.403 . S
C2148 C2147 1.403 . S
C2148 C2149 1.404 . S
C2148 C2151 1.539 . S
C2149 C2145 1.408 . S
C2149 C2148 1.404 . S
C2149 H2161 0.930 . S
C2150 C2146 1.524 . S
C2150 H2162 0.956 . S
C2150 H2163 0.961 . S
C2150 H2164 0.961 . S
C2151 C2148 1.539 . S
C2151 H2165 0.958 . S
C2151 H2166 0.961 . S
C2151 H2167 0.960 1_565 S
H2152 C2136 0.931 . S
H2153 C2141 0.929 . S
H2154 C2142 0.960 . S
H2155 C2142 0.962 . S
H2156 C2142 0.960 . S
H2157 C2143 0.961 . S
H2158 C2143 0.961 1_565 S
H2159 C2143 0.961 . S
H2160 C2144 0.931 . S
H2161 C2149 0.930 . S
H2162 C2150 0.956 . S
H2163 C2150 0.961 . S
H2164 C2150 0.961 . S
H2165 C2151 0.958 . S
H2166 C2151 0.961 . S
H2167 C2151 0.960 1_545 S
C2168 C2169 1.391 . S
C2168 C2170 1.394 . S
C2168 H2184 0.931 . S
C2169 C2168 1.391 . S
C2169 C2173 1.376 . S
C2170 C2168 1.394 . S
C2170 C2171 1.369 . S
C2170 C2174 1.531 . S
C2171 C2170 1.369 . S
C2171 C2172 1.410 . S
C2171 C2179 1.503 1_655 S
C2172 C2171 1.410 . S
C2172 C2173 1.392 . S
C2172 C2175 1.511 . S
C2173 C2169 1.376 . S
C2173 C2172 1.392 . S
C2173 H2185 0.929 . S
C2174 C2170 1.531 . S
C2174 H2186 0.960 1_655 S
C2174 H2187 0.962 . S
C2174 H2188 0.960 . S
C2175 C2172 1.511 . S
C2175 H2189 0.961 . S
C2175 H2190 0.998 . S
C2175 H2191 0.961 . S
C2176 C2177 1.370 . S
C2176 C2178 1.363 . S
C2176 H2192 0.931 . S
C2177 C2176 1.370 . S
C2177 C2181 1.408 . S
C2178 C2176 1.363 . S
C2178 C2179 1.370 . S
C2178 C2182 1.524 . S
C2179 C2171 1.503 1_455 S
C2179 C2178 1.370 . S
C2179 C2180 1.403 . S
C2180 C2179 1.403 . S
C2180 C2181 1.404 . S
C2180 C2183 1.539 . S
C2181 C2177 1.408 . S
C2181 C2180 1.404 . S
C2181 H2193 0.930 . S
C2182 C2178 1.524 . S
C2182 H2194 0.956 1_455 S
C2182 H2195 0.961 1_455 S
C2182 H2196 0.961 . S
C2183 C2180 1.539 . S
C2183 H2197 0.958 . S
C2183 H2198 0.961 . S
C2183 H2199 0.960 . S
H2184 C2168 0.931 . S
H2185 C2173 0.929 . S
H2186 C2174 0.960 1_455 S
H2187 C2174 0.962 . S
H2188 C2174 0.960 . S
H2189 C2175 0.961 . S
H2190 C2175 0.998 . S
H2191 C2175 0.961 . S
H2192 C2176 0.931 . S
H2193 C2181 0.930 . S
H2194 C2182 0.956 1_655 S
H2195 C2182 0.961 1_655 S
H2196 C2182 0.961 . S
H2197 C2183 0.958 . S
H2198 C2183 0.961 . S
H2199 C2183 0.960 . S
C2200 C2201 1.391 . S
C2200 C2202 1.394 . S
C2200 H2216 0.931 . S
C2201 C2200 1.391 . S
C2201 C2205 1.376 . S
C2202 C2200 1.394 . S
C2202 C2203 1.369 . S
C2202 C2206 1.531 . S
C2203 C2202 1.369 . S
C2203 C2204 1.410 . S
C2203 C2211 1.503 . S
C2204 C2203 1.410 . S
C2204 C2205 1.392 . S
C2204 C2207 1.511 . S
C2205 C2201 1.376 . S
C2205 C2204 1.392 . S
C2205 H2217 0.929 . S
C2206 C2202 1.531 . S
C2206 H2218 0.960 . S
C2206 H2219 0.962 . S
C2206 H2220 0.960 . S
C2207 C2204 1.511 . S
C2207 H2221 0.961 . S
C2207 H2222 0.961 . S
C2207 H2223 0.961 . S
C2208 C2209 1.370 . S
C2208 C2210 1.363 . S
C2208 H2224 0.931 . S
C2209 C2208 1.370 . S
C2209 C2213 1.408 . S
C2210 C2208 1.363 . S
C2210 C2211 1.370 . S
C2210 C2214 1.524 . S
C2211 C2203 1.503 . S
C2211 C2210 1.370 . S
C2211 C2212 1.403 . S
C2212 C2211 1.403 . S
C2212 C2213 1.404 . S
C2212 C2215 1.539 . S
C2213 C2209 1.408 . S
C2213 C2212 1.404 . S
C2213 H2225 0.930 . S
C2214 C2210 1.524 . S
C2214 H2226 0.956 . S
C2214 H2227 0.961 . S
C2214 H2228 0.961 . S
C2215 C2212 1.539 . S
C2215 H2229 0.958 . S
C2215 H2230 0.961 . S
C2215 H2231 0.960 . S
H2216 C2200 0.931 . S
H2217 C2205 0.929 . S
H2218 C2206 0.960 . S
H2219 C2206 0.962 . S
H2220 C2206 0.960 . S
H2221 C2207 0.961 . S
H2222 C2207 0.961 . S
H2223 C2207 0.961 . S
H2224 C2208 0.931 . S
H2225 C2213 0.930 . S
H2226 C2214 0.956 . S
H2227 C2214 0.961 . S
H2228 C2214 0.961 . S
H2229 C2215 0.958 . S
H2230 C2215 0.961 . S
H2231 C2215 0.960 . S
C2232 C2233 1.391 . S
C2232 C2234 1.394 . S
C2232 H2248 0.931 . S
C2233 C2232 1.391 . S
C2233 C2237 1.376 . S
C2234 C2232 1.394 . S
C2234 C2235 1.369 . S
C2234 C2238 1.531 . S
C2235 C2234 1.369 . S
C2235 C2236 1.410 . S
C2235 C2243 1.503 . S
C2236 C2235 1.410 . S
C2236 C2237 1.392 . S
C2236 C2239 1.511 . S
C2237 C2233 1.376 . S
C2237 C2236 1.392 . S
C2237 H2249 0.929 . S
C2238 C2234 1.531 . S
C2238 H2250 0.960 . S
C2238 H2251 0.962 . S
C2238 H2252 0.960 . S
C2239 C2236 1.511 . S
C2239 H2253 0.961 . S
C2239 H2254 0.961 . S
C2239 H2255 0.961 . S
C2240 C2241 1.370 . S
C2240 C2242 1.363 . S
C2240 H2256 0.931 . S
C2241 C2240 1.370 . S
C2241 C2245 1.408 . S
C2242 C2240 1.363 . S
C2242 C2243 1.370 . S
C2242 C2246 1.524 . S
C2243 C2235 1.503 . S
C2243 C2242 1.370 . S
C2243 C2244 1.403 . S
C2244 C2243 1.403 . S
C2244 C2245 1.404 . S
C2244 C2247 1.539 . S
C2245 C2241 1.408 . S
C2245 C2244 1.404 . S
C2245 H2257 0.930 . S
C2246 C2242 1.524 . S
C2246 H2258 0.956 . S
C2246 H2259 0.961 . S
C2246 H2260 0.961 . S
C2247 C2244 1.539 . S
C2247 H2261 0.958 . S
C2247 H2262 0.961 . S
C2247 H2263 0.960 . S
H2248 C2232 0.931 . S
H2249 C2237 0.929 . S
H2250 C2238 0.960 . S
H2251 C2238 0.962 . S
H2252 C2238 0.960 . S
H2253 C2239 0.961 . S
H2254 C2239 0.961 . S
H2255 C2239 0.961 . S
H2256 C2240 0.931 . S
H2257 C2245 0.930 . S
H2258 C2246 0.956 . S
H2259 C2246 0.961 . S
H2260 C2246 0.961 . S
H2261 C2247 0.958 . S
H2262 C2247 0.961 . S
H2263 C2247 0.960 . S
C2264 C2265 1.391 . S
C2264 C2266 1.394 . S
C2264 H2280 0.931 . S
C2265 C2264 1.391 . S
C2265 C2269 1.376 . S
C2266 C2264 1.394 . S
C2266 C2267 1.369 . S
C2266 C2270 1.531 . S
C2267 C2266 1.369 . S
C2267 C2268 1.410 . S
C2267 C2275 1.503 . S
C2268 C2267 1.410 . S
C2268 C2269 1.392 . S
C2268 C2271 1.511 . S
C2269 C2265 1.376 . S
C2269 C2268 1.392 . S
C2269 H2281 0.929 . S
C2270 C2266 1.531 . S
C2270 H2282 0.960 . S
C2270 H2283 0.962 . S
C2270 H2284 0.960 . S
C2271 C2268 1.511 . S
C2271 H2285 0.961 . S
C2271 H2286 0.961 . S
C2271 H2287 0.961 . S
C2272 C2273 1.370 . S
C2272 C2274 1.363 . S
C2272 H2288 0.931 . S
C2273 C2272 1.370 . S
C2273 C2277 1.408 . S
C2274 C2272 1.363 . S
C2274 C2275 1.370 . S
C2274 C2278 1.524 . S
C2275 C2267 1.503 . S
C2275 C2274 1.370 . S
C2275 C2276 1.403 . S
C2276 C2275 1.403 . S
C2276 C2277 1.404 . S
C2276 C2279 1.539 . S
C2277 C2273 1.408 . S
C2277 C2276 1.404 . S
C2277 H2289 0.930 . S
C2278 C2274 1.524 . S
C2278 H2290 0.956 . S
C2278 H2291 0.961 . S
C2278 H2292 0.961 . S
C2279 C2276 1.539 . S
C2279 H2293 0.958 . S
C2279 H2294 0.961 . S
C2279 H2295 0.960 . S
H2280 C2264 0.931 . S
H2281 C2269 0.929 . S
H2282 C2270 0.960 . S
H2283 C2270 0.962 . S
H2284 C2270 0.960 . S
H2285 C2271 0.961 . S
H2286 C2271 0.961 . S
H2287 C2271 0.961 . S
H2288 C2272 0.931 . S
H2289 C2277 0.930 . S
H2290 C2278 0.956 . S
H2291 C2278 0.961 . S
H2292 C2278 0.961 . S
H2293 C2279 0.958 . S
H2294 C2279 0.961 . S
H2295 C2279 0.960 . S
C2296 C2297 1.391 . S
C2296 C2298 1.394 . S
C2296 H2312 0.931 . S
C2297 C2296 1.391 . S
C2297 C2301 1.376 . S
C2298 C2296 1.394 . S
C2298 C2299 1.369 . S
C2298 C2302 1.531 . S
C2299 C2298 1.369 . S
C2299 C2300 1.410 . S
C2299 C2307 1.503 . S
C2300 C2299 1.410 . S
C2300 C2301 1.392 . S
C2300 C2303 1.511 . S
C2301 C2297 1.376 . S
C2301 C2300 1.392 . S
C2301 H2313 0.929 . S
C2302 C2298 1.531 . S
C2302 H2314 0.960 . S
C2302 H2315 0.962 . S
C2302 H2316 0.960 . S
C2303 C2300 1.511 . S
C2303 H2317 0.961 . S
C2303 H2318 0.961 . S
C2303 H2319 0.961 . S
C2304 C2305 1.370 . S
C2304 C2306 1.363 . S
C2304 H2320 0.931 . S
C2305 C2304 1.370 . S
C2305 C2309 1.408 . S
C2306 C2304 1.363 . S
C2306 C2307 1.370 . S
C2306 C2310 1.524 . S
C2307 C2299 1.503 . S
C2307 C2306 1.370 . S
C2307 C2308 1.403 . S
C2308 C2307 1.403 . S
C2308 C2309 1.404 . S
C2308 C2311 1.539 . S
C2309 C2305 1.408 . S
C2309 C2308 1.404 . S
C2309 H2321 0.930 . S
C2310 C2306 1.524 . S
C2310 H2322 0.956 . S
C2310 H2323 0.961 . S
C2310 H2324 0.961 . S
C2311 C2308 1.539 . S
C2311 H2325 0.958 . S
C2311 H2326 0.961 . S
C2311 H2327 0.960 . S
H2312 C2296 0.931 . S
H2313 C2301 0.929 . S
H2314 C2302 0.960 . S
H2315 C2302 0.962 . S
H2316 C2302 0.960 . S
H2317 C2303 0.961 . S
H2318 C2303 0.961 . S
H2319 C2303 0.961 . S
H2320 C2304 0.931 . S
H2321 C2309 0.930 . S
H2322 C2310 0.956 . S
H2323 C2310 0.961 . S
H2324 C2310 0.961 . S
H2325 C2311 0.958 . S
H2326 C2311 0.961 . S
H2327 C2311 0.960 . S
C2328 C2329 1.391 . S
C2328 C2330 1.394 . S
C2328 H2344 0.931 . S
C2329 C2328 1.391 . S
C2329 C2333 1.376 . S
C2330 C2328 1.394 . S
C2330 C2331 1.369 . S
C2330 C2334 1.531 . S
C2331 C2330 1.369 . S
C2331 C2332 1.410 . S
C2331 C2339 1.503 . S
C2332 C2331 1.410 . S
C2332 C2333 1.392 . S
C2332 C2335 1.511 . S
C2333 C2329 1.376 . S
C2333 C2332 1.392 . S
C2333 H2345 0.929 . S
C2334 C2330 1.531 . S
C2334 H2346 0.960 . S
C2334 H2347 0.962 . S
C2334 H2348 0.960 . S
C2335 C2332 1.511 . S
C2335 H2349 0.961 . S
C2335 H2350 0.961 . S
C2335 H2351 0.961 . S
C2336 C2337 1.370 . S
C2336 C2338 1.363 . S
C2336 H2352 0.931 . S
C2337 C2336 1.370 . S
C2337 C2341 1.408 . S
C2338 C2336 1.363 . S
C2338 C2339 1.370 . S
C2338 C2342 1.524 . S
C2339 C2331 1.503 . S
C2339 C2338 1.370 . S
C2339 C2340 1.403 . S
C2340 C2339 1.403 . S
C2340 C2341 1.404 . S
C2340 C2343 1.539 . S
C2341 C2337 1.408 . S
C2341 C2340 1.404 . S
C2341 H2353 0.930 . S
C2342 C2338 1.524 . S
C2342 H2354 0.956 . S
C2342 H2355 0.961 . S
C2342 H2356 0.961 . S
C2343 C2340 1.539 . S
C2343 H2357 0.958 . S
C2343 H2358 0.961 . S
C2343 H2359 0.960 . S
H2344 C2328 0.931 . S
H2345 C2333 0.929 . S
H2346 C2334 0.960 . S
H2347 C2334 0.962 . S
H2348 C2334 0.960 . S
H2349 C2335 0.961 . S
H2350 C2335 0.961 . S
H2351 C2335 0.961 . S
H2352 C2336 0.931 . S
H2353 C2341 0.930 . S
H2354 C2342 0.956 . S
H2355 C2342 0.961 . S
H2356 C2342 0.961 . S
H2357 C2343 0.958 . S
H2358 C2343 0.961 . S
H2359 C2343 0.960 . S
C2360 C2361 1.391 . S
C2360 C2362 1.394 . S
C2360 H2376 0.931 . S
C2361 C2360 1.391 . S
C2361 C2365 1.376 . S
C2362 C2360 1.394 . S
C2362 C2363 1.369 . S
C2362 C2366 1.531 . S
C2363 C2362 1.369 . S
C2363 C2364 1.410 . S
C2363 C2371 1.503 . S
C2364 C2363 1.410 . S
C2364 C2365 1.392 . S
C2364 C2367 1.511 . S
C2365 C2361 1.376 . S
C2365 C2364 1.392 . S
C2365 H2377 0.929 . S
C2366 C2362 1.531 . S
C2366 H2378 0.960 . S
C2366 H2379 0.962 . S
C2366 H2380 0.960 . S
C2367 C2364 1.511 . S
C2367 H2381 0.961 . S
C2367 H2382 0.961 . S
C2367 H2383 0.961 . S
C2368 C2369 1.370 . S
C2368 C2370 1.363 . S
C2368 H2384 0.931 . S
C2369 C2368 1.370 . S
C2369 C2373 1.408 . S
C2370 C2368 1.363 . S
C2370 C2371 1.370 . S
C2370 C2374 1.524 . S
C2371 C2363 1.503 . S
C2371 C2370 1.370 . S
C2371 C2372 1.403 . S
C2372 C2371 1.403 . S
C2372 C2373 1.404 . S
C2372 C2375 1.539 . S
C2373 C2369 1.408 . S
C2373 C2372 1.404 . S
C2373 H2385 0.930 . S
C2374 C2370 1.524 . S
C2374 H2386 0.956 . S
C2374 H2387 0.961 . S
C2374 H2388 0.961 . S
C2375 C2372 1.539 . S
C2375 H2389 0.958 . S
C2375 H2390 0.961 . S
C2375 H2391 0.960 . S
H2376 C2360 0.931 . S
H2377 C2365 0.929 . S
H2378 C2366 0.960 . S
H2379 C2366 0.962 . S
H2380 C2366 0.960 . S
H2381 C2367 0.961 . S
H2382 C2367 0.961 . S
H2383 C2367 0.961 . S
H2384 C2368 0.931 . S
H2385 C2373 0.930 . S
H2386 C2374 0.956 . S
H2387 C2374 0.961 . S
H2388 C2374 0.961 . S
H2389 C2375 0.958 . S
H2390 C2375 0.961 . S
H2391 C2375 0.960 . S
C2392 C2393 1.391 . S
C2392 C2394 1.394 . S
C2392 H2408 0.931 . S
C2393 C2392 1.391 . S
C2393 C2397 1.376 . S
C2394 C2392 1.394 . S
C2394 C2395 1.369 . S
C2394 C2398 1.531 . S
C2395 C2394 1.369 . S
C2395 C2396 1.410 . S
C2395 C2403 1.503 . S
C2396 C2395 1.410 . S
C2396 C2397 1.392 . S
C2396 C2399 1.511 . S
C2397 C2393 1.376 . S
C2397 C2396 1.392 . S
C2397 H2409 0.929 . S
C2398 C2394 1.531 . S
C2398 H2410 0.960 . S
C2398 H2411 0.962 . S
C2398 H2412 0.960 . S
C2399 C2396 1.511 . S
C2399 H2413 0.961 . S
C2399 H2414 0.961 . S
C2399 H2415 0.961 . S
C2400 C2401 1.370 . S
C2400 C2402 1.363 . S
C2400 H2416 0.931 . S
C2401 C2400 1.370 . S
C2401 C2405 1.408 . S
C2402 C2400 1.363 . S
C2402 C2403 1.370 . S
C2402 C2406 1.524 . S
C2403 C2395 1.503 . S
C2403 C2402 1.370 . S
C2403 C2404 1.403 . S
C2404 C2403 1.403 . S
C2404 C2405 1.404 . S
C2404 C2407 1.539 . S
C2405 C2401 1.408 . S
C2405 C2404 1.404 . S
C2405 H2417 0.930 . S
C2406 C2402 1.524 . S
C2406 H2418 0.956 . S
C2406 H2419 0.961 . S
C2406 H2420 0.961 . S
C2407 C2404 1.539 . S
C2407 H2421 0.958 . S
C2407 H2422 0.961 . S
C2407 H2423 0.960 . S
H2408 C2392 0.931 . S
H2409 C2397 0.929 . S
H2410 C2398 0.960 . S
H2411 C2398 0.962 . S
H2412 C2398 0.960 . S
H2413 C2399 0.961 . S
H2414 C2399 0.961 . S
H2415 C2399 0.961 . S
H2416 C2400 0.931 . S
H2417 C2405 0.930 . S
H2418 C2406 0.956 . S
H2419 C2406 0.961 . S
H2420 C2406 0.961 . S
H2421 C2407 0.958 . S
H2422 C2407 0.961 . S
H2423 C2407 0.960 . S
C2424 C2425 1.391 . S
C2424 C2426 1.394 . S
C2424 H2440 0.931 . S
C2425 C2424 1.391 . S
C2425 C2429 1.376 . S
C2426 C2424 1.394 . S
C2426 C2427 1.369 . S
C2426 C2430 1.531 . S
C2427 C2426 1.369 . S
C2427 C2428 1.410 . S
C2427 C2435 1.503 . S
C2428 C2427 1.410 . S
C2428 C2429 1.392 . S
C2428 C2431 1.511 . S
C2429 C2425 1.376 . S
C2429 C2428 1.392 . S
C2429 H2441 0.929 . S
C2430 C2426 1.531 . S
C2430 H2442 0.960 . S
C2430 H2443 0.962 . S
C2430 H2444 0.960 . S
C2431 C2428 1.511 . S
C2431 H2445 0.961 . S
C2431 H2446 0.961 . S
C2431 H2447 0.961 . S
C2432 C2433 1.370 . S
C2432 C2434 1.363 . S
C2432 H2448 0.931 . S
C2433 C2432 1.370 . S
C2433 C2437 1.408 . S
C2434 C2432 1.363 . S
C2434 C2435 1.370 . S
C2434 C2438 1.524 . S
C2435 C2427 1.503 . S
C2435 C2434 1.370 . S
C2435 C2436 1.403 . S
C2436 C2435 1.403 . S
C2436 C2437 1.404 . S
C2436 C2439 1.539 . S
C2437 C2433 1.408 . S
C2437 C2436 1.404 . S
C2437 H2449 0.930 . S
C2438 C2434 1.524 . S
C2438 H2450 0.956 . S
C2438 H2451 0.961 . S
C2438 H2452 0.961 . S
C2439 C2436 1.539 . S
C2439 H2453 0.958 . S
C2439 H2454 0.961 . S
C2439 H2455 0.960 . S
H2440 C2424 0.931 . S
H2441 C2429 0.929 . S
H2442 C2430 0.960 . S
H2443 C2430 0.962 . S
H2444 C2430 0.960 . S
H2445 C2431 0.961 . S
H2446 C2431 0.961 . S
H2447 C2431 0.961 . S
H2448 C2432 0.931 . S
H2449 C2437 0.930 . S
H2450 C2438 0.956 . S
H2451 C2438 0.961 . S
H2452 C2438 0.961 . S
H2453 C2439 0.958 . S
H2454 C2439 0.961 . S
H2455 C2439 0.960 . S
C2456 C2457 1.391 . S
C2456 C2458 1.394 . S
C2456 H2472 0.931 . S
C2457 C2456 1.391 . S
C2457 C2461 1.376 . S
C2458 C2456 1.394 . S
C2458 C2459 1.369 . S
C2458 C2462 1.531 . S
C2459 C2458 1.369 . S
C2459 C2460 1.410 . S
C2459 C2467 1.503 . S
C2460 C2459 1.410 . S
C2460 C2461 1.392 . S
C2460 C2463 1.511 . S
C2461 C2457 1.376 . S
C2461 C2460 1.392 . S
C2461 H2473 0.929 . S
C2462 C2458 1.531 . S
C2462 H2474 0.960 . S
C2462 H2475 0.962 . S
C2462 H2476 0.960 . S
C2463 C2460 1.511 . S
C2463 H2477 0.961 . S
C2463 H2478 0.961 . S
C2463 H2479 0.961 . S
C2464 C2465 1.370 . S
C2464 C2466 1.363 . S
C2464 H2480 0.931 . S
C2465 C2464 1.370 . S
C2465 C2469 1.408 . S
C2466 C2464 1.363 . S
C2466 C2467 1.370 . S
C2466 C2470 1.524 . S
C2467 C2459 1.503 . S
C2467 C2466 1.370 . S
C2467 C2468 1.403 . S
C2468 C2467 1.403 . S
C2468 C2469 1.404 . S
C2468 C2471 1.539 . S
C2469 C2465 1.408 . S
C2469 C2468 1.404 . S
C2469 H2481 0.930 . S
C2470 C2466 1.524 . S
C2470 H2482 0.956 . S
C2470 H2483 0.961 . S
C2470 H2484 0.961 . S
C2471 C2468 1.539 . S
C2471 H2485 0.958 . S
C2471 H2486 0.961 . S
C2471 H2487 0.960 . S
H2472 C2456 0.931 . S
H2473 C2461 0.929 . S
H2474 C2462 0.960 . S
H2475 C2462 0.962 . S
H2476 C2462 0.960 . S
H2477 C2463 0.961 . S
H2478 C2463 0.961 . S
H2479 C2463 0.961 . S
H2480 C2464 0.931 . S
H2481 C2469 0.930 . S
H2482 C2470 0.956 . S
H2483 C2470 0.961 . S
H2484 C2470 0.961 . S
H2485 C2471 0.958 . S
H2486 C2471 0.961 . S
H2487 C2471 0.960 . S
C2488 C2489 1.391 . S
C2488 C2490 1.394 . S
C2488 H2504 0.931 . S
C2489 C2488 1.391 . S
C2489 C2493 1.376 . S
C2490 C2488 1.394 . S
C2490 C2491 1.369 . S
C2490 C2494 1.531 . S
C2491 C2490 1.369 . S
C2491 C2492 1.410 . S
C2491 C2499 1.503 . S
C2492 C2491 1.410 . S
C2492 C2493 1.392 . S
C2492 C2495 1.511 . S
C2493 C2489 1.376 . S
C2493 C2492 1.392 . S
C2493 H2505 0.929 . S
C2494 C2490 1.531 . S
C2494 H2506 0.960 . S
C2494 H2507 0.962 . S
C2494 H2508 0.960 . S
C2495 C2492 1.511 . S
C2495 H2509 0.961 . S
C2495 H2510 0.961 . S
C2495 H2511 0.961 . S
C2496 C2497 1.370 . S
C2496 C2498 1.363 . S
C2496 H2512 0.931 . S
C2497 C2496 1.370 . S
C2497 C2501 1.408 . S
C2498 C2496 1.363 . S
C2498 C2499 1.370 . S
C2498 C2502 1.524 . S
C2499 C2491 1.503 . S
C2499 C2498 1.370 . S
C2499 C2500 1.403 . S
C2500 C2499 1.403 . S
C2500 C2501 1.404 . S
C2500 C2503 1.539 . S
C2501 C2497 1.408 . S
C2501 C2500 1.404 . S
C2501 H2513 0.930 . S
C2502 C2498 1.524 . S
C2502 H2514 0.956 . S
C2502 H2515 0.961 . S
C2502 H2516 0.961 . S
C2503 C2500 1.539 . S
C2503 H2517 0.958 . S
C2503 H2518 0.961 . S
C2503 H2519 0.960 . S
H2504 C2488 0.931 . S
H2505 C2493 0.929 . S
H2506 C2494 0.960 . S
H2507 C2494 0.962 . S
H2508 C2494 0.960 . S
H2509 C2495 0.961 . S
H2510 C2495 0.961 . S
H2511 C2495 0.961 . S
H2512 C2496 0.931 . S
H2513 C2501 0.930 . S
H2514 C2502 0.956 . S
H2515 C2502 0.961 . S
H2516 C2502 0.961 . S
H2517 C2503 0.958 . S
H2518 C2503 0.961 . S
H2519 C2503 0.960 . S
C2520 C2521 1.391 . S
C2520 C2522 1.394 . S
C2520 H2536 0.931 . S
C2521 C2520 1.391 . S
C2521 C2525 1.376 . S
C2522 C2520 1.394 . S
C2522 C2523 1.369 . S
C2522 C2526 1.531 . S
C2523 C2522 1.369 . S
C2523 C2524 1.410 . S
C2523 C2531 1.503 . S
C2524 C2523 1.410 . S
C2524 C2525 1.392 . S
C2524 C2527 1.511 . S
C2525 C2521 1.376 . S
C2525 C2524 1.392 . S
C2525 H2537 0.929 . S
C2526 C2522 1.531 . S
C2526 H2538 0.960 . S
C2526 H2539 0.962 . S
C2526 H2540 0.960 . S
C2527 C2524 1.511 . S
C2527 H2541 0.961 . S
C2527 H2542 0.961 . S
C2527 H2543 0.961 . S
C2528 C2529 1.370 . S
C2528 C2530 1.363 . S
C2528 H2544 0.931 1_554 S
C2529 C2528 1.370 . S
C2529 C2533 1.408 . S
C2530 C2528 1.363 . S
C2530 C2531 1.370 . S
C2530 C2534 1.524 1_554 S
C2531 C2523 1.503 . S
C2531 C2530 1.370 . S
C2531 C2532 1.403 . S
C2532 C2531 1.403 . S
C2532 C2533 1.404 . S
C2532 C2535 1.539 . S
C2533 C2529 1.408 . S
C2533 C2532 1.404 . S
C2533 H2545 0.930 . S
C2534 C2530 1.524 1_556 S
C2534 H2546 0.956 . S
C2534 H2547 0.961 . S
C2534 H2548 0.961 . S
C2535 C2532 1.539 . S
C2535 H2549 0.958 . S
C2535 H2550 0.961 . S
C2535 H2551 0.960 . S
H2536 C2520 0.931 . S
H2537 C2525 0.929 . S
H2538 C2526 0.960 . S
H2539 C2526 0.962 . S
H2540 C2526 0.960 . S
H2541 C2527 0.961 . S
H2542 C2527 0.961 . S
H2543 C2527 0.961 . S
H2544 C2528 0.931 1_556 S
H2545 C2533 0.930 . S
H2546 C2534 0.956 . S
H2547 C2534 0.961 . S
H2548 C2534 0.961 . S
H2549 C2535 0.958 . S
H2550 C2535 0.961 . S
H2551 C2535 0.960 . S
C2552 C2553 1.391 . S
C2552 C2554 1.394 . S
C2552 H2568 0.931 . S
C2553 C2552 1.391 . S
C2553 C2557 1.376 . S
C2554 C2552 1.394 . S
C2554 C2555 1.369 . S
C2554 C2558 1.531 . S
C2555 C2554 1.369 . S
C2555 C2556 1.410 . S
C2555 C2563 1.503 . S
C2556 C2555 1.410 . S
C2556 C2557 1.392 . S
C2556 C2559 1.511 . S
C2557 C2553 1.376 . S
C2557 C2556 1.392 . S
C2557 H2569 0.929 . S
C2558 C2554 1.531 . S
C2558 H2570 0.960 . S
C2558 H2571 0.962 . S
C2558 H2572 0.960 . S
C2559 C2556 1.511 . S
C2559 H2573 0.961 . S
C2559 H2574 0.961 . S
C2559 H2575 0.961 . S
C2560 C2561 1.370 . S
C2560 C2562 1.363 . S
C2560 H2576 0.931 1_554 S
C2561 C2560 1.370 . S
C2561 C2565 1.408 . S
C2562 C2560 1.363 . S
C2562 C2563 1.370 . S
C2562 C2566 1.524 1_554 S
C2563 C2555 1.503 . S
C2563 C2562 1.370 . S
C2563 C2564 1.403 . S
C2564 C2563 1.403 . S
C2564 C2565 1.404 . S
C2564 C2567 1.539 . S
C2565 C2561 1.408 . S
C2565 C2564 1.404 . S
C2565 H2577 0.930 . S
C2566 C2562 1.524 1_556 S
C2566 H2578 0.956 . S
C2566 H2579 0.961 . S
C2566 H2580 0.961 . S
C2567 C2564 1.539 . S
C2567 H2581 0.958 . S
C2567 H2582 0.961 . S
C2567 H2583 0.960 . S
H2568 C2552 0.931 . S
H2569 C2557 0.929 . S
H2570 C2558 0.960 . S
H2571 C2558 0.962 . S
H2572 C2558 0.960 . S
H2573 C2559 0.961 . S
H2574 C2559 0.961 . S
H2575 C2559 0.961 . S
H2576 C2560 0.931 1_556 S
H2577 C2565 0.930 . S
H2578 C2566 0.956 . S
H2579 C2566 0.961 . S
H2580 C2566 0.961 . S
H2581 C2567 0.958 . S
H2582 C2567 0.961 . S
H2583 C2567 0.960 . S
C2584 C2585 1.391 . S
C2584 C2586 1.394 . S
C2584 H2600 0.931 . S
C2585 C2584 1.391 . S
C2585 C2589 1.376 . S
C2586 C2584 1.394 . S
C2586 C2587 1.369 . S
C2586 C2590 1.531 . S
C2587 C2586 1.369 . S
C2587 C2588 1.410 . S
C2587 C2595 1.503 . S
C2588 C2587 1.410 . S
C2588 C2589 1.392 . S
C2588 C2591 1.511 . S
C2589 C2585 1.376 . S
C2589 C2588 1.392 . S
C2589 H2601 0.929 . S
C2590 C2586 1.531 . S
C2590 H2602 0.960 . S
C2590 H2603 0.962 . S
C2590 H2604 0.960 . S
C2591 C2588 1.511 . S
C2591 H2605 0.961 1_554 S
C2591 H2606 0.961 . S
C2591 H2607 0.961 . S
C2592 C2593 1.370 . S
C2592 C2594 1.363 . S
C2592 H2608 0.931 . S
C2593 C2592 1.370 . S
C2593 C2597 1.408 . S
C2594 C2592 1.363 . S
C2594 C2595 1.370 . S
C2594 C2598 1.524 1_554 S
C2595 C2587 1.503 . S
C2595 C2594 1.370 . S
C2595 C2596 1.403 . S
C2596 C2595 1.403 . S
C2596 C2597 1.404 . S
C2596 C2599 1.539 . S
C2597 C2593 1.408 . S
C2597 C2596 1.404 . S
C2597 H2609 0.930 . S
C2598 C2594 1.524 1_556 S
C2598 H2610 0.956 1_556 S
C2598 H2611 0.961 . S
C2598 H2612 0.961 . S
C2599 C2596 1.539 . S
C2599 H2613 0.958 . S
C2599 H2614 0.961 . S
C2599 H2615 0.960 . S
H2600 C2584 0.931 . S
H2601 C2589 0.929 . S
H2602 C2590 0.960 . S
H2603 C2590 0.962 . S
H2604 C2590 0.960 . S
H2605 C2591 0.961 1_556 S
H2606 C2591 0.961 . S
H2607 C2591 0.961 . S
H2608 C2592 0.931 . S
H2609 C2597 0.930 . S
H2610 C2598 0.956 1_554 S
H2611 C2598 0.961 . S
H2612 C2598 0.961 . S
H2613 C2599 0.958 . S
H2614 C2599 0.961 . S
H2615 C2599 0.960 . S
C2616 C2617 1.391 . S
C2616 C2618 1.394 . S
C2616 H2632 0.931 . S
C2617 C2616 1.391 . S
C2617 C2621 1.376 . S
C2618 C2616 1.394 . S
C2618 C2619 1.369 . S
C2618 C2622 1.531 . S
C2619 C2618 1.369 . S
C2619 C2620 1.410 . S
C2619 C2627 1.503 . S
C2620 C2619 1.410 . S
C2620 C2621 1.392 . S
C2620 C2623 1.511 . S
C2621 C2617 1.376 . S
C2621 C2620 1.392 . S
C2621 H2633 0.929 . S
C2622 C2618 1.531 . S
C2622 H2634 0.960 . S
C2622 H2635 0.962 . S
C2622 H2636 0.960 . S
C2623 C2620 1.511 . S
C2623 H2637 0.961 . S
C2623 H2638 0.961 . S
C2623 H2639 0.961 . S
C2624 C2625 1.370 . S
C2624 C2626 1.363 . S
C2624 H2640 0.946 . S
C2625 C2624 1.370 . S
C2625 C2629 1.408 . S
C2626 C2624 1.363 . S
C2626 C2627 1.370 . S
C2626 C2630 1.524 1_556 S
C2627 C2619 1.503 . S
C2627 C2626 1.370 . S
C2627 C2628 1.403 . S
C2628 C2627 1.403 . S
C2628 C2629 1.404 . S
C2628 C2631 1.539 . S
C2629 C2625 1.408 . S
C2629 C2628 1.404 . S
C2629 H2641 0.930 . S
C2630 C2626 1.524 1_554 S
C2630 H2642 0.957 . S
C2630 H2643 0.961 . S
C2630 H2644 0.961 . S
C2631 C2628 1.539 . S
C2631 H2645 0.958 . S
C2631 H2646 0.961 . S
C2631 H2647 0.960 . S
H2632 C2616 0.931 . S
H2633 C2621 0.929 . S
H2634 C2622 0.960 . S
H2635 C2622 0.962 . S
H2636 C2622 0.960 . S
H2637 C2623 0.961 . S
H2638 C2623 0.961 . S
H2639 C2623 0.961 . S
H2640 C2624 0.946 . S
H2641 C2629 0.930 . S
H2642 C2630 0.957 . S
H2643 C2630 0.961 . S
H2644 C2630 0.961 . S
H2645 C2631 0.958 . S
H2646 C2631 0.961 . S
H2647 C2631 0.960 . S
C2648 C2649 1.391 . S
C2648 C2650 1.394 . S
C2648 H2664 0.931 . S
C2649 C2648 1.391 . S
C2649 C2653 1.376 . S
C2650 C2648 1.394 . S
C2650 C2651 1.369 . S
C2650 C2654 1.531 . S
C2651 C2650 1.369 . S
C2651 C2652 1.410 . S
C2651 C2659 1.503 . S
C2652 C2651 1.410 . S
C2652 C2653 1.392 . S
C2652 C2655 1.511 1_556 S
C2653 C2649 1.376 . S
C2653 C2652 1.392 . S
C2653 H2665 0.929 . S
C2654 C2650 1.531 . S
C2654 H2666 0.960 . S
C2654 H2667 0.962 . S
C2654 H2668 0.960 . S
C2655 C2652 1.511 1_554 S
C2655 H2669 0.961 . S
C2655 H2670 0.961 . S
C2655 H2671 0.961 . S
C2656 C2657 1.370 . S
C2656 C2658 1.363 . S
C2656 H2672 0.931 . S
C2657 C2656 1.370 . S
C2657 C2661 1.408 . S
C2658 C2656 1.363 . S
C2658 C2659 1.370 . S
C2658 C2662 1.524 . S
C2659 C2651 1.503 . S
C2659 C2658 1.370 . S
C2659 C2660 1.403 . S
C2660 C2659 1.403 . S
C2660 C2661 1.404 . S
C2660 C2663 1.539 1_556 S
C2661 C2657 1.408 . S
C2661 C2660 1.404 . S
C2661 H2673 0.930 . S
C2662 C2658 1.524 . S
C2662 H2674 0.956 . S
C2662 H2675 0.961 . S
C2662 H2676 0.961 . S
C2663 C2660 1.539 1_554 S
C2663 H2677 0.958 1_554 S
C2663 H2678 0.961 . S
C2663 H2679 0.960 . S
H2664 C2648 0.931 . S
H2665 C2653 0.929 . S
H2666 C2654 0.960 . S
H2667 C2654 0.962 . S
H2668 C2654 0.960 . S
H2669 C2655 0.961 . S
H2670 C2655 0.961 . S
H2671 C2655 0.961 . S
H2672 C2656 0.931 . S
H2673 C2661 0.930 . S
H2674 C2662 0.956 . S
H2675 C2662 0.961 . S
H2676 C2662 0.961 . S
H2677 C2663 0.958 1_556 S
H2678 C2663 0.961 . S
H2679 C2663 0.960 . S
C2680 C2681 1.391 . S
C2680 C2682 1.394 . S
C2680 H2696 0.931 . S
C2681 C2680 1.391 . S
C2681 C2685 1.376 . S
C2682 C2680 1.394 . S
C2682 C2683 1.369 . S
C2682 C2686 1.531 . S
C2683 C2682 1.369 . S
C2683 C2684 1.410 . S
C2683 C2691 1.503 . S
C2684 C2683 1.410 . S
C2684 C2685 1.392 . S
C2684 C2687 1.511 . S
C2685 C2681 1.376 . S
C2685 C2684 1.392 . S
C2685 H2697 0.929 . S
C2686 C2682 1.531 . S
C2686 H2698 0.960 . S
C2686 H2699 0.962 . S
C2686 H2700 0.960 . S
C2687 C2684 1.511 . S
C2687 H2701 0.961 . S
C2687 H2702 0.961 . S
C2687 H2703 0.961 . S
C2688 C2689 1.370 . S
C2688 C2690 1.363 . S
C2688 H2704 0.947 . S
C2689 C2688 1.370 . S
C2689 C2693 1.408 . S
C2690 C2688 1.363 . S
C2690 C2691 1.370 . S
C2690 C2694 1.524 1_556 S
C2691 C2683 1.503 . S
C2691 C2690 1.370 . S
C2691 C2692 1.403 . S
C2692 C2691 1.403 . S
C2692 C2693 1.404 . S
C2692 C2695 1.539 . S
C2693 C2689 1.408 . S
C2693 C2692 1.404 . S
C2693 H2705 0.930 . S
C2694 C2690 1.524 1_554 S
C2694 H2706 0.956 . S
C2694 H2707 0.961 . S
C2694 H2708 0.961 . S
C2695 C2692 1.539 . S
C2695 H2709 0.958 . S
C2695 H2710 0.961 . S
C2695 H2711 0.960 . S
H2696 C2680 0.931 . S
H2697 C2685 0.929 . S
H2698 C2686 0.960 . S
H2699 C2686 0.962 . S
H2700 C2686 0.960 . S
H2701 C2687 0.961 . S
H2702 C2687 0.961 . S
H2703 C2687 0.961 . S
H2704 C2688 0.947 . S
H2705 C2693 0.930 . S
H2706 C2694 0.956 . S
H2707 C2694 0.961 . S
H2708 C2694 0.961 . S
H2709 C2695 0.958 . S
H2710 C2695 0.961 . S
H2711 C2695 0.960 . S
C2712 C2713 1.391 . S
C2712 C2714 1.394 . S
C2712 H2728 0.931 . S
C2713 C2712 1.391 . S
C2713 C2717 1.376 . S
C2714 C2712 1.394 . S
C2714 C2715 1.369 . S
C2714 C2718 1.531 . S
C2715 C2714 1.369 . S
C2715 C2716 1.410 . S
C2715 C2723 1.503 . S
C2716 C2715 1.410 . S
C2716 C2717 1.392 . S
C2716 C2719 1.511 . S
C2717 C2713 1.376 . S
C2717 C2716 1.392 . S
C2717 H2729 0.929 . S
C2718 C2714 1.531 . S
C2718 H2730 0.960 . S
C2718 H2731 0.962 . S
C2718 H2732 0.960 . S
C2719 C2716 1.511 . S
C2719 H2733 0.961 . S
C2719 H2734 0.961 . S
C2719 H2735 0.961 . S
C2720 C2721 1.370 . S
C2720 C2722 1.363 . S
C2720 H2736 0.931 . S
C2721 C2720 1.370 . S
C2721 C2725 1.408 . S
C2722 C2720 1.363 . S
C2722 C2723 1.370 . S
C2722 C2726 1.524 . S
C2723 C2715 1.503 . S
C2723 C2722 1.370 . S
C2723 C2724 1.403 . S
C2724 C2723 1.403 . S
C2724 C2725 1.404 . S
C2724 C2727 1.539 . S
C2725 C2721 1.408 . S
C2725 C2724 1.404 . S
C2725 H2737 0.930 . S
C2726 C2722 1.524 . S
C2726 H2738 0.956 . S
C2726 H2739 0.961 . S
C2726 H2740 0.961 . S
C2727 C2724 1.539 . S
C2727 H2741 0.958 . S
C2727 H2742 0.961 . S
C2727 H2743 0.960 . S
H2728 C2712 0.931 . S
H2729 C2717 0.929 . S
H2730 C2718 0.960 . S
H2731 C2718 0.962 . S
H2732 C2718 0.960 . S
H2733 C2719 0.961 . S
H2734 C2719 0.961 . S
H2735 C2719 0.961 . S
H2736 C2720 0.931 . S
H2737 C2725 0.930 . S
H2738 C2726 0.956 . S
H2739 C2726 0.961 . S
H2740 C2726 0.961 . S
H2741 C2727 0.958 . S
H2742 C2727 0.961 . S
H2743 C2727 0.960 . S
C2744 C2745 1.391 . S
C2744 C2746 1.394 . S
C2744 H2760 0.931 . S
C2745 C2744 1.391 . S
C2745 C2749 1.376 . S
C2746 C2744 1.394 . S
C2746 C2747 1.369 . S
C2746 C2750 1.531 . S
C2747 C2746 1.369 . S
C2747 C2748 1.410 . S
C2747 C2755 1.503 . S
C2748 C2747 1.410 . S
C2748 C2749 1.392 . S
C2748 C2751 1.511 . S
C2749 C2745 1.376 . S
C2749 C2748 1.392 . S
C2749 H2761 0.929 . S
C2750 C2746 1.531 . S
C2750 H2762 0.960 . S
C2750 H2763 0.962 . S
C2750 H2764 0.960 . S
C2751 C2748 1.511 . S
C2751 H2765 0.961 . S
C2751 H2766 0.961 . S
C2751 H2767 0.961 . S
C2752 C2753 1.370 . S
C2752 C2754 1.363 . S
C2752 H2768 0.931 . S
C2753 C2752 1.370 . S
C2753 C2757 1.408 . S
C2754 C2752 1.363 . S
C2754 C2755 1.370 . S
C2754 C2758 1.524 . S
C2755 C2747 1.503 . S
C2755 C2754 1.370 . S
C2755 C2756 1.403 . S
C2756 C2755 1.403 . S
C2756 C2757 1.404 . S
C2756 C2759 1.539 . S
C2757 C2753 1.408 . S
C2757 C2756 1.404 . S
C2757 H2769 0.930 . S
C2758 C2754 1.524 . S
C2758 H2770 0.956 . S
C2758 H2771 0.961 . S
C2758 H2772 0.961 . S
C2759 C2756 1.539 . S
C2759 H2773 0.958 . S
C2759 H2774 0.961 . S
C2759 H2775 0.960 . S
H2760 C2744 0.931 . S
H2761 C2749 0.929 . S
H2762 C2750 0.960 . S
H2763 C2750 0.962 . S
H2764 C2750 0.960 . S
H2765 C2751 0.961 . S
H2766 C2751 0.961 . S
H2767 C2751 0.961 . S
H2768 C2752 0.931 . S
H2769 C2757 0.930 . S
H2770 C2758 0.956 . S
H2771 C2758 0.961 . S
H2772 C2758 0.961 . S
H2773 C2759 0.958 . S
H2774 C2759 0.961 . S
H2775 C2759 0.960 . S
C2776 C2777 1.391 . S
C2776 C2778 1.394 . S
C2776 H2792 0.931 . S
C2777 C2776 1.391 . S
C2777 C2781 1.376 . S
C2778 C2776 1.394 . S
C2778 C2779 1.369 . S
C2778 C2782 1.531 . S
C2779 C2778 1.369 . S
C2779 C2780 1.410 . S
C2779 C2787 1.503 . S
C2780 C2779 1.410 . S
C2780 C2781 1.392 . S
C2780 C2783 1.511 . S
C2781 C2777 1.376 . S
C2781 C2780 1.392 . S
C2781 H2793 0.929 . S
C2782 C2778 1.531 . S
C2782 H2794 0.960 . S
C2782 H2795 0.962 . S
C2782 H2796 0.960 . S
C2783 C2780 1.511 . S
C2783 H2797 0.961 . S
C2783 H2798 0.961 . S
C2783 H2799 0.961 . S
C2784 C2785 1.370 . S
C2784 C2786 1.363 . S
C2784 H2800 0.931 . S
C2785 C2784 1.370 . S
C2785 C2789 1.408 . S
C2786 C2784 1.363 . S
C2786 C2787 1.370 . S
C2786 C2790 1.524 . S
C2787 C2779 1.503 . S
C2787 C2786 1.370 . S
C2787 C2788 1.403 . S
C2788 C2787 1.403 . S
C2788 C2789 1.404 . S
C2788 C2791 1.539 . S
C2789 C2785 1.408 . S
C2789 C2788 1.404 . S
C2789 H2801 0.930 . S
C2790 C2786 1.524 . S
C2790 H2802 0.956 . S
C2790 H2803 0.961 . S
C2790 H2804 0.961 . S
C2791 C2788 1.539 . S
C2791 H2805 0.958 . S
C2791 H2806 0.961 . S
C2791 H2807 0.960 . S
H2792 C2776 0.931 . S
H2793 C2781 0.929 . S
H2794 C2782 0.960 . S
H2795 C2782 0.962 . S
H2796 C2782 0.960 . S
H2797 C2783 0.961 . S
H2798 C2783 0.961 . S
H2799 C2783 0.961 . S
H2800 C2784 0.931 . S
H2801 C2789 0.930 . S
H2802 C2790 0.956 . S
H2803 C2790 0.961 . S
H2804 C2790 0.961 . S
H2805 C2791 0.958 . S
H2806 C2791 0.961 . S
H2807 C2791 0.960 . S
C505 C76 1.226 . S
C513 C6 1.250 . S
C537 C48 1.282 . S
C545 C20 1.271 . S
C569 C34 1.295 . S
C577 C62 1.277 . S
C601 C90 1.294 . S
C609 C160 1.279 . S
C633 C104 1.270 . S
C641 C132 1.264 . S
C665 C146 1.245 . S
C673 C118 1.261 . S
C697 C174 1.224 . S
C705 C244 1.248 . S
C729 C188 1.233 . S
C737 C216 1.253 . S
C761 C202 1.277 . S
C769 C230 1.271 . S
C793 C328 1.256 . S
C801 C258 1.265 . S
C825 C272 1.280 . S
C833 C300 1.268 . S
C857 C314 1.226 . S
C865 C286 1.251 . S
C889 C412 1.291 . S
C897 C342 1.277 . S
C921 C384 1.224 . S
C929 C356 1.248 . S
C953 C398 1.251 . S
C961 C370 1.258 . S
C985 C426 1.225 . S
C993 C496 1.248 . S
C1017 C440 1.235 . S
C1025 C468 1.256 . S
C1049 C454 1.296 . S
C1057 C482 1.278 . S
C1081 C78 2.031 . S
C1089 C8 2.035 . S
C1113 C22 2.038 . S
C1121 C50 2.031 . S
C1145 C64 2.018 . S
C1153 C36 2.035 . S
C1177 C92 2.021 . S
C1185 C162 2.032 . S
C1209 C106 2.034 . S
C1217 C134 2.029 . S
C1241 C148 2.036 . S
C1249 C120 2.034 . S
C1273 C176 2.036 . S
C1281 C246 2.029 . S
C1305 C218 2.036 . S
C1313 C190 2.033 . S
C1337 C232 2.035 . S
C1345 C204 2.029 . S
C1369 C260 2.038 . S
C1377 C330 2.032 . S
C1401 C274 2.024 . S
C1409 C302 2.030 . S
C1433 C316 2.018 . S
C1441 C288 2.035 . S
C1465 C414 2.022 . S
C1473 C344 2.032 . S
C1497 C358 2.034 . S
C1505 C386 2.034 . S
C1529 C372 2.029 . S
C1537 C400 2.036 . S
C1561 C498 2.018 . S
C1569 C428 2.036 . S
C1593 C470 2.035 . S
C1601 C442 2.029 . S
C1625 C484 2.036 . S
C1633 C456 2.029 . S
C1657 C233 1.605 . S
C1665 C9 1.603 . S
C1689 C247 1.596 . S
C1697 C23 1.600 . S
C1721 C219 1.587 . S
C1729 C37 1.597 . S
C1753 C51 1.608 . S
C1761 C373 1.604 . S
C1785 C65 1.587 . S
C1793 C345 1.597 . S
C1817 C79 1.598 . S
C1825 C359 1.601 . S
C1849 C93 1.585 . S
C1857 C485 1.598 . S
C1881 C107 1.596 . S
C1889 C499 1.603 . S
C1913 C121 1.614 . S
C1921 C471 1.609 . S
C1945 C135 1.589 . S
C1953 C289 1.600 . S
C1977 C261 1.600 . S
C1985 C149 1.605 . S
C2009 C275 1.597 . S
C2017 C163 1.604 . S
C2041 C401 1.605 . S
C2049 C177 1.609 . S
C2073 C191 1.606 . S
C2081 C415 1.609 . S
C2105 C205 1.592 . S
C2113 C387 1.599 . S
C2137 C303 1.610 . S
C2145 C457 1.607 . S
C2169 C317 1.588 . S
C2177 C429 1.600 . S
C2201 C443 1.593 . S
C2209 C331 1.600 . S
C2233 C7 1.457 . S
C2241 C147 1.443 . S
C2265 C161 1.457 . S
C2273 C21 1.443 . S
C2297 C133 1.458 . S
C2305 C35 1.443 . S
C2329 C49 1.405 . S
C2337 C119 1.421 . S
C2361 C63 1.399 . S
C2369 C91 1.420 . S
C2393 C77 1.406 . S
C2401 C105 1.424 . S
C2425 C175 1.404 . S
C2433 C315 1.423 . S
C2457 C329 1.412 . S
C2465 C189 1.427 . S
C2489 C301 1.451 . S
C2497 C203 1.440 . S
C2521 C217 1.400 . S
C2529 C287 1.421 . S
C2553 C231 1.398 . S
C2561 C259 1.419 . S
C2585 C273 1.404 . S
C2593 C245 1.423 . S
C2617 C343 1.402 . S
C2625 C483 1.422 . S
C2649 C497 1.449 . S
C2657 C357 1.442 . S
C2681 C371 1.402 . S
C2689 C469 1.422 . S
C2713 C385 1.458 . S
C2721 C455 1.444 . S
C2745 C427 1.423 . S
C2753 C399 1.428 . S
C2777 C413 1.455 . S
C2785 C441 1.442 . S
