# Generated by pormake.
# Topology smm, (6)-cn, num edge types: 1
# Building blocks:
#     Node 0, Type 0, BuildingBlock: BETGAK_clean_sbu_0, # of connection points: 6
#     Node 1, Type 0, BuildingBlock: BETGAK_clean_sbu_0, # of connection points: 6
#     Node 2, Type 0, BuildingBlock: BETGAK_clean_sbu_0, # of connection points: 6
#     Node 3, Type 0, BuildingBlock: BETGAK_clean_sbu_0, # of connection points: 6
#     Node 4, Type 0, BuildingBlock: BETGAK_clean_sbu_0, # of connection points: 6
#     Node 5, Type 0, BuildingBlock: BETGAK_clean_sbu_0, # of connection points: 6
#     Node 6, Type 0, BuildingBlock: BETGAK_clean_sbu_0, # of connection points: 6
#     Node 7, Type 0, BuildingBlock: BETGAK_clean_sbu_0, # of connection points: 6
#     Node 8, Type 0, BuildingBlock: BETGAK_clean_sbu_0, # of connection points: 6
#     Edge 9, Type (0, 0), BuildingBlock: ZUJKAS_clean_linker_0, # of connection points: 2
#     Edge 10, Type (0, 0), BuildingBlock: ZUJKAS_clean_linker_0, # of connection points: 2
#     Edge 11, Type (0, 0), BuildingBlock: ZUJKAS_clean_linker_0, # of connection points: 2
#     Edge 12, Type (0, 0), BuildingBlock: ZUJKAS_clean_linker_0, # of connection points: 2
#     Edge 13, Type (0, 0), BuildingBlock: ZUJKAS_clean_linker_0, # of connection points: 2
#     Edge 14, Type (0, 0), BuildingBlock: ZUJKAS_clean_linker_0, # of connection points: 2
#     Edge 15, Type (0, 0), BuildingBlock: ZUJKAS_clean_linker_0, # of connection points: 2
#     Edge 16, Type (0, 0), BuildingBlock: ZUJKAS_clean_linker_0, # of connection points: 2
#     Edge 17, Type (0, 0), BuildingBlock: ZUJKAS_clean_linker_0, # of connection points: 2
#     Edge 18, Type (0, 0), BuildingBlock: ZUJKAS_clean_linker_0, # of connection points: 2
#     Edge 19, Type (0, 0), BuildingBlock: ZUJKAS_clean_linker_0, # of connection points: 2
#     Edge 20, Type (0, 0), BuildingBlock: ZUJKAS_clean_linker_0, # of connection points: 2
#     Edge 21, Type (0, 0), BuildingBlock: ZUJKAS_clean_linker_0, # of connection points: 2
#     Edge 22, Type (0, 0), BuildingBlock: ZUJKAS_clean_linker_0, # of connection points: 2
#     Edge 23, Type (0, 0), BuildingBlock: ZUJKAS_clean_linker_0, # of connection points: 2
#     Edge 24, Type (0, 0), BuildingBlock: ZUJKAS_clean_linker_0, # of connection points: 2
#     Edge 25, Type (0, 0), BuildingBlock: ZUJKAS_clean_linker_0, # of connection points: 2
#     Edge 26, Type (0, 0), BuildingBlock: ZUJKAS_clean_linker_0, # of connection points: 2
#     Edge 27, Type (0, 0), BuildingBlock: ZUJKAS_clean_linker_0, # of connection points: 2
#     Edge 28, Type (0, 0), BuildingBlock: ZUJKAS_clean_linker_0, # of connection points: 2
#     Edge 29, Type (0, 0), BuildingBlock: ZUJKAS_clean_linker_0, # of connection points: 2
#     Edge 30, Type (0, 0), BuildingBlock: ZUJKAS_clean_linker_0, # of connection points: 2
#     Edge 31, Type (0, 0), BuildingBlock: ZUJKAS_clean_linker_0, # of connection points: 2
#     Edge 32, Type (0, 0), BuildingBlock: ZUJKAS_clean_linker_0, # of connection points: 2
#     Edge 33, Type (0, 0), BuildingBlock: ZUJKAS_clean_linker_0, # of connection points: 2
#     Edge 34, Type (0, 0), BuildingBlock: ZUJKAS_clean_linker_0, # of connection points: 2
#     Edge 35, Type (0, 0), BuildingBlock: ZUJKAS_clean_linker_0, # of connection points: 2
# Relax obj value: 0.051
# Max RMSD: 0.128
# Mean RMSD: 0.128
data_MOF--net-smm--node1-BETGAK_clean_sbu_0--edge1-ZUJKAS_clean_linker_0
_symmetry_space_group_name_H-M    P1
_symmetry_Int_Tables_number       1
_symmetry_cell_setting            triclinic
loop_
_symmetry_equiv_pos_as_xyz
'x, y, z'
_cell_length_a     85.484926
_cell_length_b     85.530016
_cell_length_c     18.654533
_cell_angle_alpha  90.047321
_cell_angle_beta   89.974946
_cell_angle_gamma 120.0394
loop_
_atom_site_label
_atom_site_type_symbol
_atom_site_fract_x
_atom_site_fract_y
_atom_site_fract_z
_atom_type_partial_charge
La0 La 0.06972 0.22589 -0.01053 0.0
La1 La 1.03592 0.19058 0.02639 0.0
C2 C 0.09257 0.25466 0.92735 0.0
C3 C 0.0971 0.27337 0.9095 0.0
C4 C 0.09963 0.28612 0.96261 0.0
C5 C 0.1062 0.30429 0.94435 0.0
C6 C 0.11047 0.31012 0.8727 0.0
C7 C 0.10727 0.29716 0.81958 0.0
C8 C 0.10071 0.27905 0.83781 0.0
C9 C 0.06573 0.2171 0.12612 0.0
C10 C 1.03299 0.22565 0.0278 0.0
C11 C 1.01218 0.16075 0.07878 0.0
C12 C 1.00486 0.14116 0.06788 0.0
C13 C 0.98639 0.1293 0.07965 0.0
C14 C 0.9789 0.11069 0.06955 0.0
C15 C 0.98973 0.10345 0.04758 0.0
C16 C 1.0083 0.1154 0.03593 0.0
C17 C 1.01577 0.13408 0.04562 0.0
C18 C 1.04081 0.19897 0.88881 0.0
C19 C 0.07365 0.19148 0.00194 0.0
O20 O 0.09382 0.25086 -0.00563 0.0
O21 O 0.07865 0.2414 0.89494 0.0
O22 O 0.08128 0.22638 0.09472 0.0
O23 O 0.05339 0.21463 0.08309 0.0
O24 O 0.04868 0.23378 -0.00688 0.0
O25 O 1.02677 0.20939 0.05617 0.0
O26 O 1.00902 0.16922 0.02754 0.0
O27 O 1.02864 0.17025 0.10405 0.0
O28 O 1.02516 0.18993 0.91892 0.0
O29 O 0.05269 0.20146 0.93394 0.0
O30 O 0.05694 0.18284 0.02787 0.0
O31 O 0.08081 0.208 0.97498 0.0
H32 H 0.09704 0.2822 0.01845 0.0
H33 H 0.10859 0.31388 -0.01321 0.0
H34 H 0.11005 0.30103 0.76375 0.0
H35 H 0.09894 0.26953 0.79583 0.0
H36 H 0.97771 0.13445 0.09684 0.0
H37 H 0.96463 0.10192 0.07998 0.0
H38 H 1.01701 0.11033 0.0183 0.0
H39 H 1.03003 0.14298 0.03549 0.0
La40 La 0.86857 0.87033 -0.01142 0.0
La41 La 0.90389 0.87204 0.02663 0.0
C42 C 0.83974 0.86389 0.92547 0.0
C43 C 0.82058 0.84968 0.91371 0.0
C44 C 0.80724 0.84581 0.96595 0.0
C45 C 0.78892 0.83422 0.95042 0.0
C46 C 0.78342 0.82623 0.88223 0.0
C47 C 0.79683 0.82969 0.83081 0.0
C48 C 0.81514 0.84131 0.84627 0.0
C49 C 0.87689 0.87477 0.12582 0.0
C50 C 0.86891 0.83386 0.027 0.0
C51 C 0.93363 0.87833 0.08075 0.0
C52 C 0.95319 0.89086 0.07135 0.0
C53 C 0.95994 0.90789 0.0392 0.0
C54 C 0.97863 0.91926 0.0299 0.0
C55 C 0.99089 0.91373 0.05199 0.0
C56 C 0.98397 0.89666 0.0843 0.0
C57 C 0.96536 0.88539 0.09384 0.0
C58 C 0.89579 0.86866 0.88869 0.0
C59 C 0.90292 0.90872 0.00129 0.0
O60 O 0.84442 0.87116 -0.01067 0.0
O61 O 0.85233 0.86155 0.89594 0.0
O62 O 0.86744 0.88083 0.09445 0.0
O63 O 0.87964 0.86516 0.08244 0.0
O64 O 0.86061 0.8414 -0.0064 0.0
O65 O 0.88526 0.84391 0.05474 0.0
O66 O 0.9255 0.86692 0.02843 0.0
O67 O 0.92388 0.88503 0.10569 0.0
O68 O 0.90492 0.86218 0.91897 0.0
O69 O 0.89312 0.87793 0.93383 0.0
O70 O 0.91142 0.90072 0.02909 0.0
O71 O 0.88662 0.89925 0.97238 0.0
H72 H 0.81088 0.85211 0.01832 0.0
H73 H 0.77901 0.8317 -0.0083 0.0
H74 H 0.79314 0.82399 0.77747 0.0
H75 H 0.82503 0.84422 0.80445 0.0
H76 H 0.95077 0.91233 0.0209 0.0
H77 H 0.98346 0.93223 0.00426 0.0
H78 H 0.99296 0.89204 0.10298 0.0
H79 H 0.96044 0.87231 0.11877 0.0
La80 La 0.2238 1.02495 -0.0111 0.0
La81 La 0.22262 0.05892 0.02605 0.0
C82 C 0.22952 1.00203 0.92627 0.0
C83 C 0.24364 0.99737 0.90876 0.0
C84 C 0.25379 0.99482 0.96207 0.0
C85 C 0.26539 0.98823 0.94405 0.0
C86 C 0.26703 0.98397 0.87244 0.0
C87 C 0.2573 0.98715 0.81916 0.0
C88 C 0.24575 0.99372 0.83715 0.0
C89 C 0.21918 0.02905 0.12561 0.0
C90 C 0.26055 0.06162 0.02633 0.0
C91 C 0.2167 0.08267 0.07966 0.0
C92 C 0.20426 0.0898 0.07032 0.0
C93 C 0.18741 0.07975 0.03648 0.0
C94 C 0.17612 0.08715 0.02725 0.0
C95 C 0.18158 0.1048 0.05103 0.0
C96 C 0.19848 0.11473 0.08496 0.0
C97 C 0.20966 0.1073 0.09449 0.0
C98 C 0.22598 0.05396 0.88844 0.0
C99 C 0.18558 1.02137 0.00153 0.0
O100 O 0.22428 1.00066 -0.00691 0.0
O101 O 0.23048 1.01612 0.8943 0.0
O102 O 0.21277 1.01349 0.09426 0.0
O103 O 0.22908 0.04135 0.08245 0.0
O104 O 0.25281 0.04574 -0.00696 0.0
O105 O 0.2507 0.06815 0.05401 0.0
O106 O 0.22797 0.08572 0.027 0.0
O107 O 0.20993 0.06627 0.10518 0.0
O108 O 0.23267 0.06963 0.9185 0.0
O109 O 0.21656 0.04211 0.93363 0.0
O110 O 0.19378 0.03809 0.02735 0.0
O111 O 0.19483 1.01408 0.97463 0.0
H112 H 0.25241 0.99744 0.01785 0.0
H113 H 0.27256 0.98586 -0.01338 0.0
H114 H 0.25845 0.98437 0.76335 0.0
H115 H 0.23805 0.99551 0.79503 0.0
H116 H 0.18305 0.06627 0.01677 0.0
H117 H 0.16328 0.07918 0.00034 0.0
H118 H 0.20303 0.12823 0.1049 0.0
H119 H 0.22261 0.11529 0.12069 0.0
La120 La 0.73666 0.5594 0.32286 0.0
La121 La 0.7029 0.52412 0.35987 0.0
C122 C 0.75908 0.58826 0.26011 0.0
C123 C 0.76398 0.60739 0.2484 0.0
C124 C 0.77342 0.62071 0.3007 0.0
C125 C 0.78011 0.63902 0.28529 0.0
C126 C 0.7776 0.6445 0.21715 0.0
C127 C 0.76769 0.63111 0.16564 0.0
C128 C 0.76104 0.61281 0.18099 0.0
C129 C 0.73276 0.55078 0.4597 0.0
C130 C 0.69985 0.55913 0.36231 0.0
C131 C 0.67966 0.49392 0.41116 0.0
C132 C 0.67302 0.47438 0.39887 0.0
C133 C 0.66099 0.46496 0.34254 0.0
C134 C 0.6537 0.4463 0.33456 0.0
C135 C 0.65816 0.43649 0.38279 0.0
C136 C 0.6704 0.44597 0.43856 0.0
C137 C 0.67768 0.46465 0.44659 0.0
C138 C 0.70775 0.5325 0.22223 0.0
C139 C 0.74058 0.52504 0.33433 0.0
O140 O 0.7616 0.58358 0.32403 0.0
O141 O 0.74418 0.57565 0.23035 0.0
O142 O 0.74828 0.56021 0.4283 0.0
O143 O 0.72038 0.54818 0.41665 0.0
O144 O 0.71578 0.56746 0.32933 0.0
O145 O 0.69336 0.54266 0.38903 0.0
O146 O 0.67621 0.50254 0.36134 0.0
O147 O 0.69595 0.50378 0.43758 0.0
O148 O 0.6921 0.52342 0.25237 0.0
O149 O 0.71964 0.535 0.26729 0.0
O150 O 0.72405 0.51657 0.36187 0.0
O151 O 0.74752 0.54139 0.30593 0.0
H152 H 0.77608 0.61709 0.35305 0.0
H153 H 0.78746 0.64892 0.32663 0.0
H154 H 0.76566 0.63479 0.11235 0.0
H155 H 0.7541 0.60292 0.13911 0.0
H156 H 0.65688 0.47191 0.30518 0.0
H157 H 0.64413 0.43948 0.29163 0.0
H158 H 0.67435 0.43895 0.47625 0.0
H159 H 0.68679 0.47145 0.49089 0.0
La160 La 0.53511 0.20325 0.32241 0.0
La161 La 0.57034 0.20472 0.36021 0.0
C162 C 0.50648 0.1974 0.25929 0.0
C163 C 0.4877 0.18327 0.2418 0.0
C164 C 0.47492 0.17329 0.29515 0.0
C165 C 0.45672 0.16172 0.27705 0.0
C166 C 0.45089 0.15996 0.20531 0.0
C167 C 0.46388 0.16949 0.152 0.0
C168 C 0.48202 0.18101 0.17007 0.0
C169 C 0.5436 0.20779 0.45942 0.0
C170 C 0.53526 0.16668 0.35989 0.0
C171 C 0.60006 0.21087 0.41394 0.0
C172 C 0.61962 0.22337 0.404 0.0
C173 C 0.6263 0.24022 0.37041 0.0
C174 C 0.64498 0.25155 0.36044 0.0
C175 C 0.65728 0.24614 0.3833 0.0
C176 C 0.65042 0.22925 0.4171 0.0
C177 C 0.63182 0.21803 0.4273 0.0
C178 C 0.56225 0.20148 0.22232 0.0
C179 C 0.56955 0.24157 0.33613 0.0
O180 O 0.51031 0.20275 0.32601 0.0
O181 O 0.51963 0.19638 0.22771 0.0
O182 O 0.53439 0.2141 0.42794 0.0
O183 O 0.54616 0.19801 0.4162 0.0
O184 O 0.52713 0.1743 0.32585 0.0
O185 O 0.55154 0.17665 0.38838 0.0
O186 O 0.59183 0.19943 0.36178 0.0
O187 O 0.5904 0.21764 0.43908 0.0
O188 O 0.57125 0.19484 0.25248 0.0
O189 O 0.55965 0.21077 0.2676 0.0
O190 O 0.57806 0.23346 0.36275 0.0
O191 O 0.55313 0.23223 0.30807 0.0
H192 H 0.47886 0.17478 0.35102 0.0
H193 H 0.44711 0.1547 0.31961 0.0
H194 H 0.46 0.16824 0.09611 0.0
H195 H 0.49156 0.18857 0.12792 0.0
H196 H 0.6171 0.24456 0.35148 0.0
H197 H 0.64975 0.26438 0.33366 0.0
H198 H 0.65945 0.22475 0.43642 0.0
H199 H 0.62695 0.20508 0.45333 0.0
La200 La 0.89006 0.35725 0.31922 0.0
La201 La 0.88881 0.39113 0.35659 0.0
C202 C 0.89584 0.33441 0.25626 0.0
C203 C 0.909 0.3281 0.24731 0.0
C204 C 0.90246 0.30945 0.24518 0.0
C205 C 0.91407 0.30272 0.23117 0.0
C206 C 0.93261 0.31449 0.21887 0.0
C207 C 0.93924 0.33326 0.22212 0.0
C208 C 0.92755 0.34001 0.23623 0.0
C209 C 0.88533 0.36112 0.45623 0.0
C210 C 0.92677 0.39379 0.3596 0.0
C211 C 0.88202 0.41437 0.40895 0.0
C212 C 0.86916 0.421 0.39711 0.0
C213 C 0.86706 0.42694 0.32934 0.0
C214 C 0.85594 0.43451 0.32069 0.0
C215 C 0.84656 0.43623 0.37941 0.0
C216 C 0.84832 0.42983 0.44673 0.0
C217 C 0.85953 0.42238 0.45546 0.0
C218 C 0.89251 0.38641 0.21895 0.0
C219 C 0.85188 0.35377 0.32936 0.0
O220 O 0.88774 0.33155 0.31839 0.0
O221 O 0.89986 0.35011 0.22897 0.0
O222 O 0.87931 0.34563 0.42476 0.0
O223 O 0.89514 0.37348 0.41321 0.0
O224 O 0.9191 0.37782 0.32696 0.0
O225 O 0.91686 0.40045 0.38572 0.0
O226 O 0.89404 0.41782 0.35882 0.0
O227 O 0.87545 0.39804 0.43484 0.0
O228 O 0.89907 0.40202 0.24942 0.0
O229 O 0.88298 0.37447 0.26367 0.0
O230 O 0.86001 0.37025 0.35736 0.0
O231 O 0.86126 0.34678 0.30105 0.0
H232 H 0.88819 0.3 0.25284 0.0
H233 H 0.90835 0.28823 0.22792 0.0
H234 H 0.95345 0.34275 0.21372 0.0
H235 H 0.93297 0.35448 0.23753 0.0
H236 H 0.87421 0.42599 0.2831 0.0
H237 H 0.8547 0.43904 0.26789 0.0
H238 H 0.84144 0.43108 0.49327 0.0
H239 H 0.86097 0.418 0.5083 0.0
La240 La 0.40231 0.89224 0.6576 0.0
La241 La 0.36849 0.85709 0.69492 0.0
C242 C 0.42503 0.92112 0.59565 0.0
C243 C 0.42995 0.94025 0.58341 0.0
C244 C 0.44391 0.95416 0.62357 0.0
C245 C 0.45038 0.97233 0.60639 0.0
C246 C 0.44317 0.97711 0.54815 0.0
C247 C 0.42888 0.96319 0.50908 0.0
C248 C 0.42239 0.94501 0.52635 0.0
C249 C 0.39841 0.88366 0.79449 0.0
C250 C 0.36567 0.89224 0.6965 0.0
C251 C 0.34477 0.82728 0.74754 0.0
C252 C 0.3374 0.80768 0.73665 0.0
C253 C 0.31891 0.7959 0.74815 0.0
C254 C 0.31133 0.77728 0.73794 0.0
C255 C 0.32209 0.76996 0.71607 0.0
C256 C 0.34069 0.78182 0.70475 0.0
C257 C 0.34826 0.80052 0.71461 0.0
C258 C 0.3733 0.86536 0.55715 0.0
C259 C 0.40606 0.85777 0.66965 0.0
O260 O 0.42719 0.91654 0.66028 0.0
O261 O 0.41036 0.9084 0.56493 0.0
O262 O 0.41392 0.8929 0.76285 0.0
O263 O 0.38604 0.88115 0.75156 0.0
O264 O 0.38153 0.90043 0.66302 0.0
O265 O 0.35922 0.87585 0.72393 0.0
O266 O 0.34159 0.83575 0.6964 0.0
O267 O 0.36125 0.83677 0.7726 0.0
O268 O 0.35767 0.85637 0.58749 0.0
O269 O 0.3852 0.86784 0.60212 0.0
O270 O 0.3895 0.84935 0.6971 0.0
O271 O 0.41306 0.87411 0.64115 0.0
H272 H 0.45029 0.95102 0.66699 0.0
H273 H 0.46155 0.98261 0.63713 0.0
H274 H 0.42283 0.96633 0.46446 0.0
H275 H 0.41177 0.93468 0.49366 0.0
H276 H 0.31027 0.80111 0.7652 0.0
H277 H 0.29703 0.76859 0.74819 0.0
H278 H 0.34935 0.77669 0.68724 0.0
H279 H 0.36255 0.80936 0.70478 0.0
La280 La 0.20121 0.53684 0.6561 0.0
La281 La 0.23654 0.53855 0.69345 0.0
C282 C 0.17243 0.53067 0.59339 0.0
C283 C 0.1537 0.51639 0.57594 0.0
C284 C 0.14088 0.50656 0.62938 0.0
C285 C 0.12272 0.49484 0.61118 0.0
C286 C 0.11697 0.49275 0.53925 0.0
C287 C 0.13 0.50215 0.4859 0.0
C288 C 0.14809 0.51383 0.50408 0.0
C289 C 0.20991 0.54175 0.79288 0.0
C290 C 0.20163 0.50042 0.69447 0.0
C291 C 0.26665 0.54557 0.74584 0.0
C292 C 0.28614 0.55845 0.73358 0.0
C293 C 0.29417 0.56022 0.66598 0.0
C294 C 0.31286 0.57138 0.65702 0.0
C295 C 0.32396 0.58112 0.71524 0.0
C296 C 0.31581 0.57967 0.78237 0.0
C297 C 0.29713 0.56842 0.79142 0.0
C298 C 0.2283 0.53502 0.55568 0.0
C299 C 0.2355 0.57527 0.66836 0.0
O300 O 0.17625 0.53601 0.66013 0.0
O301 O 0.18567 0.52987 0.56156 0.0
O302 O 0.20064 0.54796 0.76115 0.0
O303 O 0.21244 0.53187 0.75005 0.0
O304 O 0.19335 0.50795 0.6607 0.0
O305 O 0.21797 0.51047 0.72228 0.0
O306 O 0.25807 0.53342 0.69618 0.0
O307 O 0.25685 0.55216 0.77133 0.0
O308 O 0.23744 0.52855 0.58598 0.0
O309 O 0.22569 0.54434 0.60075 0.0
O310 O 0.24411 0.56725 0.69483 0.0
O311 O 0.21902 0.56582 0.64101 0.0
H312 H 0.14475 0.50829 0.68536 0.0
H313 H 0.11308 0.48793 0.65378 0.0
H314 H 0.12618 0.50066 0.42989 0.0
H315 H 0.15767 0.52128 0.46184 0.0
H316 H 0.28608 0.5528 0.62013 0.0
H317 H 0.31863 0.57236 0.60438 0.0
H318 H 0.32393 0.58683 0.82853 0.0
H319 H 0.29131 0.56723 0.84413 0.0
La320 La 0.55745 0.69134 0.65624 0.0
La321 La 0.55546 0.72482 0.69369 0.0
C322 C 0.56371 0.66881 0.59338 0.0
C323 C 0.57795 0.66432 0.57596 0.0
C324 C 0.58771 0.66125 0.62944 0.0
C325 C 0.59934 0.6547 0.61129 0.0
C326 C 0.60139 0.65099 0.53937 0.0
C327 C 0.59208 0.65471 0.48597 0.0
C328 C 0.5805 0.66124 0.50409 0.0
C329 C 0.55261 0.69516 0.79309 0.0
C330 C 0.59373 0.72839 0.69449 0.0
C331 C 0.54827 0.74781 0.74588 0.0
C332 C 0.53529 0.75431 0.73395 0.0
C333 C 0.53415 0.76152 0.66763 0.0
C334 C 0.5229 0.76895 0.65935 0.0
C335 C 0.51243 0.76928 0.71698 0.0
C336 C 0.51327 0.76166 0.78274 0.0
C337 C 0.52461 0.75434 0.79113 0.0
C338 C 0.55891 0.72003 0.5559 0.0
C339 C 0.5189 0.68683 0.6693 0.0
O340 O 0.55832 0.66725 0.66005 0.0
O341 O 0.56457 0.68288 0.56172 0.0
O342 O 0.54651 0.67966 0.7615 0.0
O343 O 0.56236 0.70758 0.75012 0.0
O344 O 0.5863 0.71262 0.66037 0.0
O345 O 0.58357 0.7345 0.72269 0.0
O346 O 0.5604 0.75142 0.69607 0.0
O347 O 0.54181 0.73146 0.77157 0.0
O348 O 0.56533 0.73566 0.58603 0.0
O349 O 0.54969 0.7081 0.60112 0.0
O350 O 0.52683 0.70345 0.69599 0.0
O351 O 0.52842 0.67996 0.64132 0.0
H352 H 0.58599 0.6634 0.68542 0.0
H353 H 0.60618 0.65191 0.65393 0.0
H354 H 0.59356 0.65235 0.42997 0.0
H355 H 0.57311 0.66342 0.46181 0.0
H356 H 0.54215 0.76168 0.62229 0.0
H357 H 0.52241 0.77445 0.60768 0.0
H358 H 0.50555 0.76183 0.82849 0.0
H359 H 0.5253 0.74899 0.84292 0.0
H360 H 0.13783 0.32928 0.77682 0.0
H361 H 0.15207 0.36127 0.74627 0.0
H362 H 0.11685 0.36756 0.89426 0.0
H363 H 0.10246 0.33545 0.92518 0.0
H364 H 0.13816 0.38108 0.68822 0.0
H365 H 0.16638 0.40746 0.95803 0.0
H366 H 0.15726 0.38406 0.93375 0.0
H367 H 0.14237 0.39243 0.95711 0.0
C368 C 0.13295 0.33738 0.80254 0.0
C369 C 0.11894 0.32969 0.85358 0.0
C370 C 0.1412 0.35574 0.78518 0.0
C371 C 0.13574 0.36695 0.81857 0.0
C372 C 0.12161 0.35932 0.86886 0.0
H373 H 0.16605 0.47572 0.66544 0.0
H374 H 0.14961 0.44347 0.69432 0.0
C375 C 0.11336 0.34092 0.88646 0.0
C376 C 0.14485 0.38656 0.8001 0.0
H377 H 0.16949 0.42898 0.87105 0.0
C378 C 0.14499 0.39155 0.72823 0.0
C379 C 0.15399 0.40027 0.85205 0.0
C380 C 0.15519 0.39585 0.92945 0.0
C381 C 0.15393 0.4098 0.70697 0.0
C382 C 0.16274 0.42352 0.75919 0.0
C383 C 0.16263 0.41851 0.83102 0.0
C384 C 0.17268 0.44312 0.74032 0.0
C385 C 0.15429 0.41416 0.62842 0.0
C386 C 0.19106 0.45385 0.75768 0.0
C387 C 0.20047 0.47234 0.74183 0.0
C388 C 0.19171 0.4806 0.70828 0.0
C389 C 0.17329 0.46983 0.69067 0.0
C390 C 0.16387 0.45132 0.70689 0.0
H391 H 0.15126 0.40238 0.59396 0.0
H392 H 0.14387 0.41799 0.61772 0.0
H393 H 0.16765 0.42566 0.61271 0.0
H394 H 0.19818 0.4479 0.78358 0.0
H395 H 0.21461 0.48016 0.7563 0.0
H396 H 0.75587 0.83239 0.91877 0.0
H397 H 0.724 0.81486 0.88488 0.0
H398 H 0.73463 0.77781 0.7669 0.0
H399 H 0.76648 0.79501 0.80213 0.0
H400 H 0.70956 0.80776 0.74599 0.0
H401 H 0.69081 0.74391 0.88981 0.0
H402 H 0.71124 0.76485 0.90944 0.0
H403 H 0.71009 0.75186 0.83181 0.0
C404 C 0.75141 0.82033 0.8867 0.0
C405 C 0.76381 0.81509 0.86363 0.0
C406 C 0.73318 0.81039 0.86687 0.0
C407 C 0.72683 0.79488 0.82398 0.0
C408 C 0.73911 0.78955 0.80099 0.0
H409 H 0.61917 0.71936 0.65371 0.0
H410 H 0.65157 0.73556 0.68106 0.0
C411 C 0.75739 0.79952 0.82062 0.0
C412 C 0.7075 0.78474 0.80139 0.0
H413 H 0.66869 0.74374 0.81305 0.0
C414 C 0.70062 0.79377 0.76077 0.0
C415 C 0.69584 0.76644 0.82022 0.0
C416 C 0.70226 0.75618 0.86572 0.0
C417 C 0.68248 0.78502 0.73817 0.0
C418 C 0.67072 0.7668 0.75795 0.0
C419 C 0.67766 0.75769 0.79782 0.0
C420 C 0.65109 0.75715 0.73974 0.0
C421 C 0.67617 0.79531 0.69228 0.0
C422 C 0.63994 0.76377 0.76398 0.0
C423 C 0.62144 0.75459 0.74826 0.0
C424 C 0.61356 0.73844 0.70834 0.0
C425 C 0.62474 0.73179 0.68424 0.0
C426 C 0.64329 0.74101 0.70002 0.0
H427 H 0.68764 0.80682 0.66443 0.0
H428 H 0.66624 0.78639 0.65147 0.0
H429 H 0.66955 0.80087 0.72685 0.0
H430 H 0.6455 0.77594 0.7961 0.0
H431 H 0.61329 0.76008 0.76826 0.0
H432 H 0.30029 0.99197 0.92603 0.0
H433 H 0.31828 0.97789 0.89462 0.0
H434 H 0.27705 0.94275 0.74554 0.0
H435 H 0.25902 0.95665 0.77659 0.0
H436 H 0.31055 0.94292 0.90714 0.0
H437 H 0.32194 0.96301 0.62142 0.0
H438 H 0.31338 0.97282 0.68498 0.0
H439 H 0.29844 0.95118 0.64521 0.0
C440 C 0.29503 0.98123 0.88662 0.0
C441 C 0.27824 0.97561 0.85339 0.0
C442 C 0.30538 0.97323 0.86849 0.0
C443 C 0.29922 0.95948 0.81658 0.0
C444 C 0.28237 0.95367 0.78416 0.0
H445 H 0.33253 0.87959 0.75934 0.0
H446 H 0.31714 0.89635 0.78814 0.0
C447 C 0.27205 0.96167 0.80209 0.0
C448 C 0.31009 0.95077 0.79791 0.0
H449 H 0.32885 0.94031 0.65701 0.0
C450 C 0.31465 0.94246 0.85251 0.0
C451 C 0.31572 0.95037 0.7268 0.0
C452 C 0.31229 0.95998 0.66634 0.0
C453 C 0.32418 0.93336 0.83772 0.0
C454 C 0.32903 0.93219 0.76605 0.0
C455 C 0.32495 0.94097 0.71178 0.0
C456 C 0.33824 0.92186 0.74634 0.0
C457 C 0.32917 0.92527 0.89933 0.0
C458 C 0.35495 0.93037 0.7105 0.0
C459 C 0.36374 0.92073 0.69309 0.0
C460 C 0.35598 0.90233 0.71099 0.0
C461 C 0.33903 0.89376 0.74528 0.0
C462 C 0.33024 0.90338 0.76235 0.0
H463 H 0.32941 0.93185 0.95104 0.0
H464 H 0.31894 0.91072 0.90392 0.0
H465 H 0.3426 0.92652 0.89078 0.0
H466 H 0.36135 0.94457 0.69699 0.0
H467 H 0.37675 0.92779 0.66658 0.0
H468 H 0.43187 0.16804 0.10846 0.0
H469 H 0.39986 0.15032 0.07783 0.0
H470 H 0.39326 0.10914 0.22784 0.0
H471 H 0.42539 0.12682 0.25887 0.0
H472 H 0.3799 0.11643 0.02095 0.0
H473 H 0.35354 0.11922 0.28969 0.0
H474 H 0.37698 0.13334 0.26541 0.0
H475 H 0.36846 0.11013 0.28977 0.0
C476 C 0.42369 0.15514 0.13462 0.0
C477 C 0.4313 0.14889 0.18623 0.0
C478 C 0.40532 0.14505 0.1172 0.0
C479 C 0.39403 0.12848 0.1511 0.0
C480 C 0.40158 0.12206 0.20202 0.0
H481 H 0.2849 0.05024 -0.00146 0.0
H482 H 0.31716 0.06582 0.02759 0.0
C483 C 0.41998 0.13219 0.21967 0.0
C484 C 0.37442 0.11801 0.13254 0.0
H485 H 0.33199 0.1007 0.2029 0.0
C486 C 0.36942 0.11296 0.06077 0.0
C487 C 0.36071 0.11367 0.18425 0.0
C488 C 0.36513 0.1195 0.26148 0.0
C489 C 0.35118 0.10371 0.03936 0.0
C490 C 0.33745 0.09905 0.09133 0.0
C491 C 0.34246 0.10412 0.16308 0.0
C492 C 0.31786 0.08953 0.07225 0.0
C493 C 0.34682 0.0995 0.96088 0.0
C494 C 0.30733 0.09744 0.08876 0.0
C495 C 0.28884 0.0885 0.07281 0.0
C496 C 0.28038 0.07137 0.04001 0.0
C497 C 0.29096 0.06348 0.02318 0.0
C498 C 0.30947 0.07242 0.03951 0.0
H499 H 0.35867 0.10806 0.92636 0.0
H500 H 0.34281 0.08518 0.9509 0.0
H501 H 0.33544 0.10149 0.9446 0.0
H502 H 0.31343 0.1106 0.1141 0.0
H503 H 0.28118 0.09502 0.08666 0.0
H504 H 0.96048 0.32735 0.12087 0.0
H505 H 0.9786 0.31368 0.08551 0.0
H506 H 0.95009 0.27097 0.23886 0.0
H507 H 0.9322 0.28465 0.27556 0.0
H508 H 1.00115 0.30402 0.17054 0.0
H509 H 0.94306 0.2444 0.04461 0.0
H510 H 0.94268 0.26484 0.06539 0.0
H511 H 0.93925 0.24894 0.13506 0.0
C512 C 0.95822 0.3152 0.14792 0.0
C513 C 0.94468 0.30704 0.20068 0.0
C514 C 0.96855 0.30734 0.12729 0.0
C515 C 0.96548 0.29111 0.15856 0.0
C516 C 0.95244 0.28328 0.21284 0.0
H517 H 1.00322 0.21507 0.11255 0.0
H518 H 0.98784 0.2318 0.14139 0.0
C519 C 0.94218 0.29112 0.23366 0.0
C520 C 0.97567 0.28216 0.13403 0.0
H521 H 0.97007 0.24332 0.05783 0.0
C522 C 0.99441 0.29081 0.14538 0.0
C523 C 0.96686 0.26492 0.10121 0.0
C524 C 0.94688 0.25525 0.08515 0.0
C525 C 1.00446 0.28241 0.12714 0.0
C526 C 0.99561 0.26505 0.09498 0.0
C527 C 0.9769 0.25658 0.08252 0.0
C528 C 1.00525 0.25506 0.07639 0.0
C529 C 1.02434 0.29195 0.14503 0.0
C530 C 1.02008 0.26238 0.02923 0.0
C531 C 1.02904 0.25283 0.01282 0.0
C532 C 1.02321 0.23565 0.04254 0.0
C533 C 1.00813 0.22824 0.08852 0.0
C534 C 0.99928 0.23781 0.10518 0.0
H535 H 1.02795 0.30264 0.18606 0.0
H536 H 1.0284 0.28228 0.16511 0.0
H537 H 1.03228 0.29847 0.09595 0.0
H538 H 1.0247 0.27544 0.00475 0.0
H539 H 1.04053 0.25893 0.97688 0.0
H540 H 0.88091 0.81414 0.10013 0.0
H541 H 0.86425 0.78198 0.12903 0.0
H542 H 0.81758 0.77644 0.01751 0.0
H543 H 0.83422 0.80865 -0.01241 0.0
H544 H 0.83234 0.7635 0.2081 0.0
H545 H 0.82303 0.73514 0.93321 0.0
H546 H 0.83911 0.75845 0.95331 0.0
H547 H 0.81547 0.75114 0.94574 0.0
C548 C 0.86716 0.8061 0.08106 0.0
C549 C 0.85896 0.81406 0.04126 0.0
C550 C 0.85762 0.78768 0.09785 0.0
C551 C 0.83971 0.7767 0.07489 0.0
C552 C 0.83149 0.78454 0.03475 0.0
H553 H 0.76315 0.66135 0.13775 0.0
H554 H 0.77749 0.69334 0.10488 0.0
C555 C 0.84102 0.80301 0.01795 0.0
C556 C 0.82955 0.75724 0.09541 0.0
H557 H 0.80842 0.71433 0.02741 0.0
C558 C 0.82713 0.75275 0.16856 0.0
C559 C 0.82263 0.74319 0.04389 0.0
C560 C 0.82528 0.74714 0.96462 0.0
C561 C 0.81795 0.73466 0.19159 0.0
C562 C 0.81132 0.72059 0.14013 0.0
C563 C 0.81351 0.72508 0.06692 0.0
C564 C 0.80248 0.70117 0.16115 0.0
C565 C 0.81521 0.73082 0.27093 0.0
C566 C 0.81177 0.69481 0.20313 0.0
C567 C 0.80361 0.67654 0.22202 0.0
C568 C 0.78599 0.6641 0.19883 0.0
C569 C 0.77676 0.67049 0.15625 0.0
C570 C 0.78493 0.6888 0.13754 0.0
H571 H 0.81608 0.74244 0.30108 0.0
H572 H 0.8019 0.71868 0.28207 0.0
H573 H 0.82594 0.72832 0.29152 0.0
H574 H 0.82549 0.70394 0.22043 0.0
H575 H 0.8113 0.67209 0.25344 0.0
H576 H 0.09157 0.45983 0.5949 0.0
H577 H 0.05952 0.4417 0.56304 0.0
H578 H 0.06594 0.48206 0.4091 0.0
H579 H 0.09785 0.50021 0.44057 0.0
H580 H 1.03233 0.44957 0.57226 0.0
H581 H 1.04135 0.43649 0.28888 0.0
H582 H 0.05966 0.44538 0.35281 0.0
H583 H 0.05306 0.46011 0.31051 0.0
C584 C 0.08617 0.46486 0.5543 0.0
C585 C 0.09742 0.48144 0.51986 0.0
C586 C 0.06784 0.45444 0.53593 0.0
C587 C 0.06034 0.4603 0.48257 0.0
C588 C 0.07147 0.47695 0.44889 0.0
H589 H 0.94733 0.4272 0.42021 0.0
H590 H 0.97945 0.44257 0.44984 0.0
C591 C 0.08977 0.48734 0.46706 0.0
C592 C 1.04078 0.44938 0.4637 0.0
H593 H 1.01171 0.42992 0.32284 0.0
C594 C 1.02783 0.44517 0.5178 0.0
C595 C 1.03483 0.44335 0.39284 0.0
C596 C 0.04794 0.44639 0.33305 0.0
C597 C 1.0092 0.43561 0.5027 0.0
C598 C 1.00327 0.43039 0.43118 0.0
C599 C 1.0162 0.43411 0.37747 0.0
C600 C 0.98376 0.42117 0.41101 0.0
C601 C 0.99604 0.43102 0.56385 0.0
C602 C 0.97551 0.40427 0.37656 0.0
C603 C 0.9571 0.39549 0.35866 0.0
C604 C 0.94653 0.40344 0.3747 0.0
C605 C 0.95495 0.42056 0.40762 0.0
C606 C 0.97335 0.42934 0.42516 0.0
H607 H 1.00229 0.43102 0.61607 0.0
H608 H 0.99179 0.44132 0.56685 0.0
H609 H 0.98381 0.41758 0.55595 0.0
H610 H 0.98327 0.39774 0.36449 0.0
H611 H 0.95112 0.38235 0.33326 0.0
H612 H 0.63426 0.65832 0.59504 0.0
H613 H 0.65214 0.64414 0.56346 0.0
H614 H 0.61156 0.61024 0.40978 0.0
H615 H 0.59367 0.62427 0.44091 0.0
H616 H 0.64405 0.6091 0.57324 0.0
H617 H 0.657 0.63065 0.28934 0.0
H618 H 0.64824 0.64025 0.35297 0.0
H619 H 0.63338 0.61887 0.31116 0.0
C620 C 0.62912 0.64784 0.55454 0.0
C621 C 0.61256 0.64261 0.52008 0.0
C622 C 0.63941 0.63978 0.53633 0.0
C623 C 0.63341 0.62634 0.48314 0.0
C624 C 0.61678 0.62092 0.44944 0.0
H625 H 0.66646 0.54623 0.42334 0.0
H626 H 0.65099 0.56291 0.45236 0.0
C627 C 0.60653 0.62899 0.46742 0.0
C628 C 0.6442 0.61755 0.46446 0.0
H629 H 0.66345 0.60759 0.32391 0.0
C630 C 0.64838 0.60888 0.51879 0.0
C631 C 0.65014 0.61746 0.39362 0.0
C632 C 0.64713 0.62746 0.33354 0.0
C633 C 0.65787 0.59973 0.50396 0.0
C634 C 0.66303 0.59887 0.43248 0.0
C635 C 0.6593 0.60799 0.37852 0.0
C636 C 0.67228 0.58859 0.41266 0.0
C637 C 0.66248 0.59127 0.56537 0.0
C638 C 0.68914 0.59723 0.37791 0.0
C639 C 0.69797 0.58764 0.36034 0.0
C640 C 0.69011 0.56917 0.37702 0.0
C641 C 0.67303 0.56047 0.41024 0.0
C642 C 0.66419 0.57004 0.42745 0.0
H643 H 0.66252 0.59761 0.61743 0.0
H644 H 0.65217 0.57672 0.56868 0.0
H645 H 0.67592 0.59246 0.55754 0.0
H646 H 0.69562 0.61149 0.36536 0.0
H647 H 0.71108 0.5948 0.33469 0.0
H648 H 0.50086 0.14147 0.31706 0.0
H649 H 0.48422 0.10913 0.34482 0.0
H650 H 0.53006 0.1147 0.46301 0.0
H651 H 0.54687 0.14686 0.43466 0.0
H652 H 0.51544 0.08497 0.37629 0.0
H653 H 0.46153 0.08648 0.53679 0.0
H654 H 0.46393 0.09528 0.44761 0.0
H655 H 0.48198 0.10675 0.51112 0.0
C656 C 0.50744 0.13582 0.34882 0.0
C657 C 0.52522 0.14686 0.3738 0.0
C658 C 0.49783 0.11732 0.36513 0.0
C659 C 0.50574 0.10948 0.40715 0.0
C660 C 0.52361 0.12041 0.43084 0.0
H661 H 0.45508 1.00703 0.63471 0.0
H662 H 0.46991 0.03879 0.59863 0.0
C663 C 0.53322 0.13885 0.41452 0.0
C664 C 0.49561 0.0899 0.42614 0.0
H665 H 0.45811 0.05767 0.51391 0.0
C666 C 0.50289 0.079 0.40625 0.0
C667 C 0.47934 0.08212 0.46617 0.0
C668 C 0.47128 0.09326 0.49235 0.0
C669 C 0.49435 0.0606 0.42482 0.0
C670 C 0.47787 0.05272 0.4634 0.0
C671 C 0.47064 0.06364 0.48374 0.0
C672 C 0.46823 0.03331 0.48481 0.0
C673 C 0.50333 0.04988 0.40457 0.0
C674 C 0.462 1.01958 0.43293 0.0
C675 C 0.4536 1.00139 0.4534 0.0
C676 C 0.45114 0.99647 0.52635 0.0
C677 C 0.45697 1.01027 0.57813 0.0
C678 C 0.46536 0.02846 0.55757 0.0
H679 H 0.51787 0.05879 0.39184 0.0
H680 H 0.50213 0.04058 0.44847 0.0
H681 H 0.49661 0.04165 0.35629 0.0
H682 H 0.46375 1.02293 0.37643 0.0
H683 H 0.44945 0.9912 0.41194 0.0
H684 H 0.19169 0.13933 0.00924 0.0
H685 H 0.17275 0.15317 -0.00203 0.0
H686 H 0.12587 0.10268 0.05647 0.0
H687 H 0.14479 0.08879 0.06918 0.0
H688 H 0.14167 0.14289 0.90932 0.0
H689 H 0.12549 0.13959 0.19942 0.0
H690 H 0.14382 0.13685 0.16621 0.0
H691 H 0.12092 0.11861 0.15923 0.0
C692 C 0.17737 0.13117 0.02022 0.0
C693 C 0.16982 0.11296 0.04079 0.0
C694 C 0.16653 0.13909 0.01328 0.0
C695 C 0.14792 0.12906 0.02733 0.0
C696 C 0.14024 0.11078 0.04639 0.0
H697 H 0.06301 0.15699 0.04608 0.0
H698 H 0.08072 0.14178 0.04812 0.0
C699 C 0.15106 0.1028 0.05298 0.0
C700 C 0.13664 0.1378 0.02229 0.0
H701 H 0.11092 0.15007 0.12182 0.0
C702 C 0.13495 0.14449 0.95575 0.0
C703 C 0.12786 0.13986 0.08286 0.0
C704 C 0.12967 0.1335 0.15619 0.0
C705 C 0.12451 0.15292 0.94791 0.0
C706 C 0.11585 0.15515 0.00869 0.0
C707 C 0.11752 0.1484 0.07518 0.0
C708 C 0.10498 0.1644 0.00477 0.0
C709 C 0.12251 0.15896 0.8742 0.0
C710 C 0.11267 0.18228 0.98014 0.0
C711 C 0.10248 0.19101 0.97831 0.0
C712 C 0.08441 0.18212 0.00187 0.0
C713 C 0.07681 0.16426 0.02702 0.0
C714 C 0.08696 0.15553 0.02844 0.0
H715 H 0.1253 0.15163 0.83143 0.0
H716 H 0.10871 0.15683 0.86604 0.0
H717 H 0.13235 0.17357 0.86805 0.0
H718 H 0.12667 0.18963 0.96333 0.0
H719 H 0.10887 0.20481 0.95925 0.0
H720 H 0.93618 0.93266 0.05693 0.0
H721 H 0.95096 0.96559 0.06086 0.0
H722 H 0.9058 0.96349 0.94926 0.0
H723 H 0.89077 0.93049 0.94583 0.0
H724 H 0.96157 0.99091 0.95116 0.0
H725 H 0.91044 0.99394 0.12489 0.0
H726 H 0.91132 0.97347 0.11241 0.0
H727 H 0.90134 0.98074 0.04494 0.0
C728 C 0.92934 0.93914 0.03312 0.0
C729 C 0.91219 0.92882 0.00139 0.0
C730 C 0.93785 0.95803 0.03541 0.0
C731 C 0.92939 0.96706 0.00644 0.0
C732 C 0.91244 0.95684 0.9734 0.0
H733 H 0.95735 0.07984 0.98461 0.0
H734 H 0.9434 0.04708 0.97227 0.0
C735 C 0.9039 0.93794 0.97111 0.0
C736 C 0.93836 0.98714 0.01069 0.0
H737 H 0.93324 1.02164 0.0765 0.0
C738 C 0.95541 0.99763 0.97874 0.0
C739 C 0.93033 0.99594 0.04668 0.0
C740 C 0.91243 0.98548 0.08479 0.0
C741 C 0.96447 1.01664 0.98064 0.0
C742 C 0.95645 1.02545 0.01676 0.0
C743 C 0.9394 1.01493 0.04868 0.0
C744 C 0.96543 0.04553 0.02218 0.0
C745 C 0.98235 1.02709 0.94241 0.0
C746 C 0.98247 0.05568 0.05461 0.0
C747 C 0.99052 0.07448 0.06169 0.0
C748 C 0.98159 0.08354 0.03731 0.0
C749 C 0.96454 0.07332 0.00475 0.0
C750 C 0.95655 0.05456 -0.00259 0.0
H751 H 0.98409 1.01873 0.90106 0.0
H752 H 0.98366 0.03936 0.91626 0.0
H753 H 0.99347 0.0314 0.9819 0.0
H754 H 0.98943 0.04904 0.07584 0.0
H755 H 1.00352 0.08186 0.08803 0.0
H756 H 1.01535 0.9039 0.00765 0.0
H757 H 0.04814 0.92294 -0.00366 0.0
H758 H 0.04444 0.96947 0.05943 0.0
H759 H 1.01161 0.95043 0.07243 0.0
H760 H 0.06885 0.95395 0.90973 0.0
H761 H 0.08192 0.96989 0.19988 0.0
H762 H 0.06074 0.95171 0.16667 0.0
H763 H 0.06559 0.97467 0.16048 0.0
C764 C 1.02149 0.91816 0.01969 0.0
C765 C 1.0108 0.92557 0.04166 0.0
C766 C 1.04025 0.92906 0.01272 0.0
C767 C 0.04881 0.9476 0.02804 0.0
C768 C 1.03818 0.95515 0.04843 0.0
H769 H 0.16195 0.03244 0.04434 0.0
H770 H 0.12898 1.0149 0.04684 0.0
C771 C 1.01938 0.94426 0.05515 0.0
C772 C 0.06885 0.95894 0.0228 0.0
H773 H 0.10694 0.98463 0.12196 0.0
C774 C 0.07719 0.96065 0.95611 0.0
C775 C 0.07974 0.9677 0.08331 0.0
C776 C 0.07162 0.96584 0.15684 0.0
C777 C 0.09608 0.97107 0.94808 0.0
C778 C 0.107 0.9797 0.00878 0.0
C779 C 0.09862 0.97804 0.0754 0.0
C780 C 0.12713 0.99046 0.00466 0.0
C781 C 0.1041 0.97305 0.8743 0.0
C782 C 0.13721 0.9826 0.98054 0.0
C783 C 0.15614 0.99265 0.97859 0.0
C784 C 0.16545 1.01077 0.00148 0.0
C785 C 0.15531 1.01857 0.02598 0.0
C786 C 0.1364 1.00853 0.02761 0.0
H787 H 0.09395 0.97023 0.83162 0.0
H788 H 0.11577 0.98684 0.86607 0.0
H789 H 0.10889 0.96323 0.86812 0.0
H790 H 0.13045 0.96856 0.96423 0.0
H791 H 0.16346 0.98612 0.96001 0.0
H792 H 0.77446 0.53691 0.27819 0.0
H793 H 0.79212 0.52154 0.28055 0.0
H794 H 0.74903 0.4769 0.39446 0.0
H795 H 0.73118 0.49195 0.39127 0.0
H796 H 0.80464 0.51113 0.39509 0.0
H797 H 0.75864 0.45083 0.23477 0.0
H798 H 0.75629 0.47064 0.2389 0.0
H799 H 0.74769 0.45429 0.3102 0.0
C800 C 0.76865 0.52376 0.30324 0.0
C801 C 0.75131 0.51566 0.33411 0.0
C802 C 0.7788 0.51498 0.30463 0.0
C803 C 0.77182 0.49789 0.33659 0.0
C804 C 0.75457 0.48985 0.36787 0.0
H805 H 0.81317 0.4259 0.43701 0.0
H806 H 0.79543 0.44111 0.42583 0.0
C807 C 0.7444 0.49857 0.36636 0.0
C808 C 0.78281 0.48877 0.33964 0.0
H809 H 0.78234 0.4496 0.29717 0.0
C810 C 0.79981 0.49774 0.37313 0.0
C811 C 0.77655 0.47126 0.3111 0.0
C812 C 0.75887 0.46125 0.2711 0.0
C813 C 0.81049 0.48955 0.38032 0.0
C814 C 0.80412 0.47198 0.35255 0.0
C815 C 0.78718 0.46303 0.31871 0.0
C816 C 0.81484 0.46266 0.3583 0.0
C817 C 0.82832 0.4996 0.41917 0.0
C818 C 0.83155 0.46955 0.32322 0.0
C819 C 0.84171 0.46088 0.32944 0.0
C820 C 0.83541 0.44511 0.37098 0.0
C821 C 0.81855 0.43812 0.40534 0.0
C822 C 0.80834 0.44675 0.3987 0.0
H823 H 0.82939 0.51106 0.45112 0.0
H824 H 0.83023 0.4904 0.45547 0.0
H825 H 0.83947 0.50509 0.37939 0.0
H826 H 0.83674 0.48166 0.29096 0.0
H827 H 0.85468 0.46673 0.30272 0.0
H828 H 0.65066 0.41616 0.2598 0.0
H829 H 0.63541 0.38326 0.24899 0.0
H830 H 0.63171 0.37834 0.47915 0.0
H831 H 0.64631 0.41116 0.49047 0.0
H832 H 0.64473 0.35883 0.29834 0.0
H833 H 0.57967 0.34477 0.41877 0.0
H834 H 0.59679 0.36714 0.39159 0.0
H835 H 0.5988 0.35796 0.47557 0.0
C836 C 0.64644 0.4081 0.30821 0.0
C837 C 0.64965 0.41641 0.37604 0.0
C838 C 0.63782 0.38926 0.3019 0.0
C839 C 0.6321 0.37825 0.36317 0.0
C840 C 0.63563 0.38649 0.43098 0.0
H841 H 0.60284 0.26525 0.39207 0.0
H842 H 0.61793 0.29818 0.39577 0.0
C843 C 0.64423 0.40532 0.43737 0.0
C844 C 0.62261 0.35818 0.35612 0.0
H845 H 0.58362 0.31944 0.39982 0.0
C846 C 0.63134 0.35022 0.32032 0.0
C847 C 0.605 0.34692 0.3837 0.0
C848 C 0.59442 0.35461 0.41894 0.0
C849 C 0.62314 0.33136 0.31278 0.0
C850 C 0.60584 0.32006 0.34294 0.0
C851 C 0.59694 0.32805 0.37733 0.0
C852 C 0.59673 0.29996 0.33961 0.0
C853 C 0.633 0.32373 0.27154 0.0
C854 C 0.57954 0.28984 0.30833 0.0
C855 C 0.57076 0.27093 0.30658 0.0
C856 C 0.57895 0.26168 0.33643 0.0
C857 C 0.59615 0.27186 0.36798 0.0
C858 C 0.60488 0.29075 0.3698 0.0
H859 H 0.64329 0.33393 0.23488 0.0
H860 H 0.6401 0.31948 0.30982 0.0
H861 H 0.62347 0.31176 0.23951 0.0
H862 H 0.57291 0.29661 0.28503 0.0
H863 H 0.55753 0.26357 0.28205 0.0
H864 H 0.68168 0.23608 0.34055 0.0
H865 H 0.71445 0.25508 0.32803 0.0
H866 H 0.71082 0.30194 0.38621 0.0
H867 H 0.67802 0.28296 0.40042 0.0
H868 H 0.73504 0.28565 0.23877 0.0
H869 H 0.7485 0.3031 0.52768 0.0
H870 H 0.72729 0.28473 0.49567 0.0
H871 H 0.73209 0.30764 0.48743 0.0
C872 C 0.68784 0.25041 0.35125 0.0
C873 C 0.67718 0.25794 0.37221 0.0
C874 C 0.70659 0.26128 0.34357 0.0
C875 C 0.71516 0.2799 0.35718 0.0
C876 C 0.70455 0.28756 0.37654 0.0
H877 H 0.8282 0.36494 0.36974 0.0
H878 H 0.79522 0.34732 0.37231 0.0
C879 C 0.68577 0.2767 0.38395 0.0
C880 C 0.73519 0.29122 0.35135 0.0
H881 H 0.7734 0.31746 0.44903 0.0
C882 C 0.74345 0.2926 0.28472 0.0
C883 C 0.74616 0.3003 0.41129 0.0
C884 C 0.73814 0.29881 0.48478 0.0
C885 C 0.76232 0.30301 0.27617 0.0
C886 C 0.77332 0.31197 0.33631 0.0
C887 C 0.76502 0.31063 0.40288 0.0
C888 C 0.79345 0.32278 0.33171 0.0
C889 C 0.77023 0.30463 0.2024 0.0
C890 C 0.80357 0.3149 0.3083 0.0
C891 C 0.8225 0.325 0.30633 0.0
C892 C 0.83177 0.34317 0.32854 0.0
C893 C 0.82158 0.351 0.35211 0.0
C894 C 0.80268 0.34093 0.35372 0.0
H895 H 0.76003 0.3016 0.15976 0.0
H896 H 0.78189 0.31839 0.1932 0.0
H897 H 0.77502 0.29479 0.19718 0.0
H898 H 0.79685 0.30081 0.29274 0.0
H899 H 0.82987 0.31845 0.28851 0.0
H900 H 0.52103 0.80096 0.64828 0.0
H901 H 0.50282 0.81564 0.63848 0.0
H902 H 0.45993 0.77205 0.7574 0.0
H903 H 0.4781 0.75733 0.7678 0.0
H904 H 0.46979 0.80455 0.57796 0.0
H905 H 0.46666 0.81551 0.86935 0.0
H906 H 0.48189 0.80882 0.83193 0.0
H907 H 0.45849 0.79233 0.84616 0.0
C908 C 0.50767 0.79441 0.67199 0.0
C909 C 0.50109 0.77798 0.70921 0.0
C910 C 0.4973 0.80288 0.66658 0.0
C911 C 0.48011 0.79516 0.69834 0.0
C912 C 0.47334 0.77855 0.73411 0.0
H913 H 0.3966 0.82466 0.7267 0.0
H914 H 0.41446 0.80959 0.73022 0.0
C915 C 0.48374 0.77012 0.73989 0.0
C916 C 0.46926 0.80441 0.69335 0.0
H917 H 0.44794 0.82161 0.79422 0.0
C918 C 0.46509 0.80836 0.62527 0.0
C919 C 0.46312 0.80943 0.75504 0.0
C920 C 0.4679 0.80648 0.82976 0.0
C921 C 0.45467 0.81681 0.6172 0.0
C922 C 0.44844 0.82171 0.67888 0.0
C923 C 0.45265 0.81781 0.74692 0.0
C924 C 0.43746 0.83081 0.67425 0.0
C925 C 0.45006 0.82003 0.54263 0.0
C926 C 0.44444 0.84786 0.64193 0.0
C927 C 0.43421 0.85654 0.63965 0.0
C928 C 0.41679 0.8484 0.66996 0.0
C929 C 0.40988 0.83133 0.70236 0.0
C930 C 0.42011 0.82268 0.70464 0.0
H931 H 0.45179 0.81146 0.50224 0.0
H932 H 0.43593 0.81729 0.54 0.0
H933 H 0.45918 0.83437 0.52784 0.0
H934 H 0.45792 0.85459 0.61941 0.0
H935 H 0.44005 0.86971 0.61469 0.0
H936 H 0.22295 0.59712 0.61729 0.0
H937 H 0.23824 0.63016 0.62005 0.0
H938 H 0.28422 0.63204 0.72358 0.0
H939 H 0.26922 0.59912 0.72022 0.0
H940 H 0.25003 0.65287 0.73778 0.0
H941 H 0.30806 0.66794 0.5609 0.0
H942 H 0.28828 0.64574 0.56648 0.0
H943 H 0.30544 0.65334 0.63459 0.0
C944 C 0.23638 0.60454 0.64015 0.0
C945 C 0.24485 0.59538 0.66819 0.0
C946 C 0.2451 0.62346 0.64176 0.0
C947 C 0.26252 0.63366 0.67098 0.0
C948 C 0.27098 0.62454 0.69921 0.0
H949 H 0.33572 0.74812 0.75542 0.0
H950 H 0.32129 0.71523 0.74339 0.0
C951 C 0.26229 0.60565 0.69762 0.0
C952 C 0.27153 0.65375 0.67464 0.0
H953 H 0.30955 0.69275 0.62461 0.0
C954 C 0.26299 0.66158 0.71261 0.0
C955 C 0.2885 0.66517 0.64214 0.0
C956 C 0.29806 0.65766 0.59816 0.0
C957 C 0.27106 0.68043 0.72019 0.0
C958 C 0.28803 0.69186 0.68766 0.0
C959 C 0.29658 0.68403 0.64962 0.0
C960 C 0.29708 0.71194 0.69249 0.0
C961 C 0.26153 0.68789 0.76466 0.0
C962 C 0.28852 0.72116 0.66633 0.0
C963 C 0.29673 0.73994 0.67314 0.0
C964 C 0.31381 0.75003 0.70568 0.0
C965 C 0.32262 0.74083 0.72976 0.0
C966 C 0.31435 0.722 0.72317 0.0
H967 H 0.2515 0.67755 0.80166 0.0
H968 H 0.27132 0.69971 0.79674 0.0
H969 H 0.25418 0.69232 0.72856 0.0
H970 H 0.27543 0.7138 0.6406 0.0
H971 H 0.28971 0.74659 0.65255 0.0
H972 H 0.495 0.69597 0.72629 0.0
H973 H 0.46208 0.67776 0.73063 0.0
H974 H 0.46408 0.6349 0.61688 0.0
H975 H 0.4971 0.6529 0.61342 0.0
H976 H 0.43693 0.66385 0.62355 0.0
H977 H 0.4332 0.60816 0.78867 0.0
H978 H 0.4539 0.62937 0.77704 0.0
H979 H 0.44618 0.61242 0.70803 0.0
C980 C 0.4885 0.68266 0.70221 0.0
C981 C 0.4988 0.67589 0.66985 0.0
C982 C 0.46962 0.67225 0.70472 0.0
C983 C 0.46055 0.65481 0.67521 0.0
C984 C 0.47075 0.64814 0.64158 0.0
H985 H 0.34649 0.57272 0.64102 0.0
H986 H 0.37939 0.59083 0.62865 0.0
C987 C 0.48966 0.65852 0.63922 0.0
C988 C 0.44044 0.64376 0.67914 0.0
H989 H 0.40557 0.60381 0.74121 0.0
C990 C 0.43009 0.65075 0.64948 0.0
C991 C 0.43145 0.62664 0.71302 0.0
C992 C 0.44172 0.61874 0.74913 0.0
C993 C 0.41108 0.64103 0.65199 0.0
C994 C 0.40212 0.62394 0.68584 0.0
C995 C 0.41244 0.61689 0.71513 0.0
C996 C 0.38207 0.61322 0.69204 0.0
C997 C 0.4007 0.649 0.61733 0.0
C998 C 0.3726 0.61972 0.73221 0.0
C999 C 0.35378 0.60939 0.7394 0.0
C1000 C 0.34398 0.59234 0.70647 0.0
C1001 C 0.35354 0.5859 0.66621 0.0
C1002 C 0.37237 0.59618 0.65945 0.0
H1003 H 0.40922 0.65997 0.57912 0.0
H1004 H 0.38869 0.63846 0.58833 0.0
H1005 H 0.39593 0.65479 0.65947 0.0
H1006 H 0.37981 0.63271 0.75873 0.0
H1007 H 0.34687 0.61482 0.77045 0.0
H1008 H 1.01574 0.19203 0.78543 0.0
H1009 H 1.02041 0.19481 0.65539 0.0
H1010 H 0.0773 0.21467 0.68666 0.0
H1011 H 0.07263 0.21148 0.81657 0.0
H1012 H 1.04226 0.22492 0.57284 0.0
H1013 H 0.06297 0.17315 0.54585 0.0
H1014 H 0.05253 0.17554 0.62607 0.0
H1015 H 0.07613 0.19073 0.60913 0.0
C1016 C 1.02923 0.19698 0.76446 0.0
C1017 C 0.04382 0.20151 0.81087 0.0
C1018 C 1.03188 0.19857 0.6903 0.0
C1019 C 0.04914 0.20465 0.66138 0.0
C1020 C 0.06381 0.20958 0.7078 0.0
H1021 H 0.09166 0.22526 0.22741 0.0
H1022 H 0.08754 0.22204 0.35778 0.0
C1023 C 0.06115 0.20793 0.78197 0.0
C1024 C 0.05177 0.20599 0.58263 0.0
H1025 H 0.06576 0.19039 0.44207 0.0
C1026 C 0.04733 0.21732 0.54418 0.0
C1027 C 0.05839 0.19605 0.54546 0.0
C1028 C 0.06264 0.18305 0.58353 0.0
C1029 C 0.04957 0.2192 0.46957 0.0
C1030 C 0.05619 0.20927 0.43245 0.0
C1031 C 0.06069 0.19798 0.47084 0.0
C1032 C 0.05852 0.21045 0.35365 0.0
C1033 C 0.04516 0.23204 0.43119 0.0
C1034 C 0.0435 0.20459 0.30833 0.0
C1035 C 0.04582 0.20639 0.23406 0.0
C1036 C 0.06318 0.21405 0.20402 0.0
C1037 C 0.07814 0.2194 0.24931 0.0
C1038 C 0.07581 0.21756 0.32362 0.0
H1039 H 0.04437 0.24171 0.46878 0.0
H1040 H 0.05544 0.2398 0.38953 0.0
H1041 H 1.03186 0.2242 0.40427 0.0
H1042 H 1.03001 0.19874 0.33048 0.0
H1043 H 1.03404 0.20203 0.20029 0.0
H1044 H 0.90355 0.85117 0.7851 0.0
H1045 H 0.90051 0.85282 0.6551 0.0
H1046 H 0.87876 0.88823 0.68676 0.0
H1047 H 0.88215 0.88695 0.81666 0.0
H1048 H 0.87001 0.84345 0.57275 0.0
H1049 H 0.91997 0.91652 0.54561 0.0
H1050 H 0.91812 0.90388 0.62571 0.0
H1051 H 0.90229 0.91148 0.60917 0.0
C1052 C 0.89813 0.85931 0.76423 0.0
C1053 C 0.89314 0.86898 0.81075 0.0
C1054 C 0.89639 0.86023 0.69009 0.0
C1055 C 0.88971 0.87089 0.66126 0.0
C1056 C 0.88432 0.88023 0.7078 0.0
H1057 H 0.86808 0.89192 0.22759 0.0
H1058 H 0.87131 0.891 0.35792 0.0
C1059 C 0.8861 0.87936 0.78196 0.0
C1060 C 0.88824 0.87207 0.58251 0.0
H1061 H 0.90291 0.90162 0.44193 0.0
C1062 C 0.87725 0.85615 0.54407 0.0
C1063 C 0.8977 0.88868 0.54531 0.0
C1064 C 0.91032 0.9061 0.58334 0.0
C1065 C 0.87527 0.85641 0.46946 0.0
C1066 C 0.88474 0.873 0.4323 0.0
C1067 C 0.89568 0.88894 0.4707 0.0
C1068 C 0.88344 0.87407 0.35348 0.0
C1069 C 0.86278 0.83898 0.43118 0.0
C1070 C 0.88958 0.8652 0.30794 0.0
C1071 C 0.88777 0.86572 0.23366 0.0
C1072 C 0.87983 0.87517 0.2038 0.0
C1073 C 0.87417 0.88447 0.24932 0.0
C1074 C 0.876 0.88396 0.32363 0.0
H1075 H 0.8533 0.82841 0.46883 0.0
H1076 H 0.85481 0.84114 0.38939 0.0
H1077 H 0.87093 0.83385 0.40447 0.0
H1078 H 0.89569 0.85779 0.3299 0.0
H1079 H 0.89237 0.85854 0.19973 0.0
H1080 H 0.24422 0.07898 0.78509 0.0
H1081 H 0.24233 0.07431 0.65506 0.0
H1082 H 0.20504 1.01748 0.68622 0.0
H1083 H 0.20653 1.02217 0.81616 0.0
H1084 H 0.25047 0.05235 0.57249 0.0
H1085 H 0.17803 0.03199 0.54542 0.0
H1086 H 0.19087 0.04239 0.62567 0.0
H1087 H 0.18236 1.01879 0.60866 0.0
C1088 C 0.23562 0.0655 0.7641 0.0
C1089 C 0.2255 0.05094 0.81049 0.0
C1090 C 0.23456 0.06285 0.68995 0.0
C1091 C 0.22331 0.04561 0.66099 0.0
C1092 C 0.2135 0.03096 0.70739 0.0
H1093 H 0.20123 1.00321 0.22685 0.0
H1094 H 0.20214 1.00733 0.35722 0.0
C1095 C 0.21451 0.03362 0.78157 0.0
C1096 C 0.22203 0.04298 0.58223 0.0
H1097 H 0.19249 0.02919 0.44158 0.0
C1098 C 0.23782 0.04736 0.54379 0.0
C1099 C 0.20548 0.03645 0.54502 0.0
C1100 C 0.18824 0.03228 0.58309 0.0
C1101 C 0.23747 0.04514 0.46916 0.0
C1102 C 0.22093 0.03863 0.432 0.0
C1103 C 0.20513 0.03418 0.47038 0.0
C1104 C 0.2198 0.03631 0.35318 0.0
C1105 C 0.25472 0.04947 0.43081 0.0
C1106 C 0.22908 0.0513 0.30789 0.0
C1107 C 0.22856 0.04898 0.23361 0.0
C1108 C 0.21871 0.03164 0.20352 0.0
C1109 C 0.20899 1.01671 0.24878 0.0
C1110 C 0.20949 1.01904 0.32309 0.0
H1111 H 0.26513 0.05016 0.46841 0.0
H1112 H 0.25216 0.0392 0.38902 0.0
H1113 H 0.26028 0.06279 0.40408 0.0
H1114 H 0.23682 0.06477 0.33008 0.0
H1115 H 0.23608 0.06073 0.19986 0.0
H1116 H 0.75877 0.55913 0.56069 0.0
H1117 H 0.75471 0.55534 0.69086 0.0
H1118 H 0.69714 0.53199 0.6643 0.0
H1119 H 0.7011 0.53549 0.53421 0.0
H1120 H 0.73995 0.57052 0.78032 0.0
H1121 H 0.70055 0.49572 0.79553 0.0
H1122 H 0.71277 0.5076 0.71606 0.0
H1123 H 0.69109 0.50523 0.7357 0.0
C1124 C 0.74524 0.55302 0.58267 0.0
C1125 C 0.73024 0.54759 0.53757 0.0
C1126 C 0.74294 0.55089 0.65692 0.0
C1127 C 0.72561 0.5432 0.68717 0.0
C1128 C 0.7106 0.53763 0.64203 0.0
H1129 H 0.68257 0.5251 0.11874 0.0
H1130 H 0.68734 0.52842 -0.01124 0.0
C1131 C 0.71288 0.53972 0.56779 0.0
C1132 C 0.72332 0.54177 0.7661 0.0
H1133 H 0.70228 0.51176 0.90225 0.0
C1134 C 0.73182 0.55767 0.8071 0.0
C1135 C 0.71267 0.52498 0.80078 0.0
C1136 C 0.70388 0.50738 0.75991 0.0
C1137 C 0.72965 0.55728 0.8818 0.0
C1138 C 0.7189 0.54051 0.91636 0.0
C1139 C 0.71046 0.5246 0.87545 0.0
C1140 C 0.71622 0.53914 -0.00497 0.0
C1141 C 0.73854 0.57483 0.92297 0.0
C1142 C 0.73088 0.54403 0.04143 0.0
C1143 C 0.72818 0.54213 0.11556 0.0
C1144 C 0.71077 0.53527 0.14435 0.0
C1145 C 0.69613 0.53047 0.09787 0.0
C1146 C 0.69883 0.53233 0.02376 0.0
H1147 H 0.74266 0.58665 0.88724 0.0
H1148 H 0.72933 0.57488 0.96486 0.0
H1149 H 0.75083 0.57646 0.94995 0.0
H1150 H 0.74435 0.54901 0.02024 0.0
H1151 H 0.73967 0.54575 0.15018 0.0
H1152 H 0.55864 0.19117 0.53358 0.0
H1153 H 0.562 0.1905 0.66376 0.0
H1154 H 0.53866 0.22465 0.69122 0.0
H1155 H 0.53538 0.22548 0.56086 0.0
H1156 H 0.5703 0.2347 0.77521 0.0
H1157 H 0.5193 0.1619 0.8028 0.0
H1158 H 0.53679 0.16691 0.73821 0.0
H1159 H 0.52108 0.17474 0.72337 0.0
C1160 C 0.55428 0.19858 0.56739 0.0
C1161 C 0.54661 0.20826 0.53737 0.0
C1162 C 0.55612 0.19811 0.64166 0.0
C1163 C 0.55027 0.20726 0.68705 0.0
C1164 C 0.54313 0.21739 0.65703 0.0
H1165 H 0.54963 0.22067 0.15018 0.0
H1166 H 0.54634 0.22207 0.02029 0.0
C1167 C 0.54126 0.21785 0.58272 0.0
C1168 C 0.55155 0.2062 0.76588 0.0
H1169 H 0.5362 0.17674 0.90658 0.0
C1170 C 0.56281 0.22207 0.8041 0.0
C1171 C 0.54173 0.18967 0.80319 0.0
C1172 C 0.52891 0.17234 0.76505 0.0
C1173 C 0.56483 0.22179 0.87871 0.0
C1174 C 0.55502 0.20524 0.91608 0.0
C1175 C 0.54371 0.18939 0.87779 0.0
C1176 C 0.55646 0.20404 -0.00516 0.0
C1177 C 0.5778 0.23911 0.91656 0.0
C1178 C 0.56265 0.19295 0.0237 0.0
C1179 C 0.5643 0.19195 0.09785 0.0
C1180 C 0.55972 0.20195 0.14434 0.0
C1181 C 0.55322 0.21278 0.11551 0.0
C1182 C 0.55151 0.21374 0.04135 0.0
H1183 H 0.58762 0.24935 0.87872 0.0
H1184 H 0.57007 0.24486 0.94223 0.0
H1185 H 0.5854 0.23664 0.95902 0.0
H1186 H 0.56643 0.18527 -0.01126 0.0
H1187 H 0.56931 0.18347 0.11875 0.0
H1188 H 0.9017 0.39274 0.53106 0.0
H1189 H 0.90252 0.39659 0.66146 0.0
H1190 H 0.86853 0.33901 0.68741 0.0
H1191 H 0.86786 0.33506 0.55711 0.0
H1192 H 0.87435 0.38676 0.76011 0.0
H1193 H 0.9122 0.3509 0.81467 0.0
H1194 H 0.91036 0.35827 0.72601 0.0
H1195 H 0.89188 0.33811 0.76344 0.0
C1196 C 0.89438 0.38092 0.56463 0.0
C1197 C 0.88486 0.36358 0.53424 0.0
C1198 C 0.89485 0.38313 0.639 0.0
C1199 C 0.88588 0.36805 0.68407 0.0
C1200 C 0.87589 0.35078 0.65362 0.0
H1201 H 0.8743 0.35453 0.14628 0.0
H1202 H 0.87265 0.35007 0.01603 0.0
C1203 C 0.87542 0.34856 0.57927 0.0
C1204 C 0.88698 0.37042 0.76294 0.0
H1205 H 0.90126 0.35935 0.91568 0.0
C1206 C 0.88028 0.38082 0.79415 0.0
C1207 C 0.89474 0.36264 0.80712 0.0
C1208 C 0.90286 0.35199 0.77624 0.0
C1209 C 0.88089 0.38346 0.86861 0.0
C1210 C 0.88865 0.3757 0.91273 0.0
C1211 C 0.8953 0.36524 0.8816 0.0
C1212 C 0.89009 0.37838 -0.00861 0.0
C1213 C 0.87292 0.39424 0.89961 0.0
C1214 C 0.90075 0.3957 0.02051 0.0
C1215 C 0.90177 0.39826 0.09473 0.0
C1216 C 0.89219 0.38352 0.14095 0.0
C1217 C 0.88184 0.36612 0.1118 0.0
C1218 C 0.88086 0.36356 0.03755 0.0
H1219 H 0.86369 0.3955 0.86115 0.0
H1220 H 0.86535 0.38794 0.9497 0.0
H1221 H 0.884 0.40804 0.91282 0.0
H1222 H 0.90825 0.40726 -0.01421 0.0
H1223 H 0.90992 0.4118 0.11588 0.0
H1224 H 0.34803 0.85792 0.45407 0.0
H1225 H 0.3526 0.86079 0.324 0.0
H1226 H 0.40961 0.88121 0.35429 0.0
H1227 H 0.40513 0.87837 0.48451 0.0
H1228 H 0.40088 0.90113 0.2545 0.0
H1229 H 0.36346 0.82743 0.19847 0.0
H1230 H 0.35126 0.8355 0.25062 0.0
H1231 H 0.37119 0.83652 0.28714 0.0
C1232 C 0.36153 0.86304 0.43293 0.0
C1233 C 0.37622 0.86789 0.47916 0.0
C1234 C 0.3641 0.86458 0.35873 0.0
C1235 C 0.38139 0.87094 0.32963 0.0
C1236 C 0.39615 0.87618 0.37579 0.0
H1237 H 0.42448 0.89183 0.89495 0.0
H1238 H 0.42062 0.88849 0.02525 0.0
C1239 C 0.39358 0.87459 0.45003 0.0
C1240 C 0.38407 0.87221 0.25098 0.0
H1241 H 0.37251 0.84695 0.09783 0.0
C1242 C 0.39478 0.8893 0.22017 0.0
C1243 C 0.37604 0.85673 0.20656 0.0
C1244 C 0.36496 0.83797 0.23722 0.0
C1245 C 0.39736 0.89138 0.1457 0.0
C1246 C 0.38931 0.87589 0.10121 0.0
C1247 C 0.37866 0.85879 0.13212 0.0
C1248 C 0.39162 0.87719 0.02232 0.0
C1249 C 0.4083 0.91017 0.11518 0.0
C1250 C 0.37652 0.87132 0.97745 0.0
C1251 C 0.37868 0.87308 0.90308 0.0
C1252 C 0.39598 0.8807 0.87247 0.0
C1253 C 0.41102 0.88606 0.91728 0.0
C1254 C 0.40884 0.88427 -0.00836 0.0
H1255 H 0.4096 0.92064 0.1539 0.0
H1256 H 0.42209 0.91284 0.10222 0.0
H1257 H 0.40208 0.91157 0.06511 0.0
H1258 H 0.36309 0.86569 8e-05 0.0
H1259 H 0.36685 0.86876 0.86968 0.0
H1260 H 0.22493 0.52525 0.86809 0.0
H1261 H 0.22809 0.52467 -0.00155 0.0
H1262 H 0.20521 0.55929 0.02364 0.0
H1263 H 0.20177 0.55969 0.89335 0.0
H1264 H 0.24682 0.55271 0.09616 0.0
H1265 H 0.17313 0.51629 0.15256 0.0
H1266 H 0.18214 0.51785 0.06366 0.0
H1267 H 0.18097 0.53661 0.10114 0.0
C1268 C 0.22061 0.53276 0.90148 0.0
C1269 C 0.21294 0.54237 0.87087 0.0
C1270 C 0.22242 0.53242 0.97584 0.0
C1271 C 0.21655 0.54164 0.02074 0.0
C1272 C 0.20943 0.55173 -0.00996 0.0
H1273 H 0.21561 0.55409 0.48304 0.0
H1274 H 0.21281 0.55576 0.35286 0.0
C1275 C 0.20758 0.55205 0.91568 0.0
C1276 C 0.21788 0.54066 0.09965 0.0
H1277 H 0.19269 0.52708 0.25307 0.0
C1278 C 0.23499 0.54706 0.13049 0.0
C1279 C 0.2024 0.53327 0.14424 0.0
C1280 C 0.18359 0.52545 0.11384 0.0
C1281 C 0.23708 0.54649 0.20492 0.0
C1282 C 0.22161 0.53909 0.24942 0.0
C1283 C 0.20451 0.53276 0.21869 0.0
C1284 C 0.2229 0.53769 0.32807 0.0
C1285 C 0.25584 0.5541 0.23549 0.0
C1286 C 0.22916 0.52669 0.35711 0.0
C1287 C 0.23066 0.52562 0.43132 0.0
C1288 C 0.22587 0.5355 0.47763 0.0
C1289 C 0.2193 0.54625 0.44854 0.0
C1290 C 0.21775 0.54727 0.3743 0.0
H1291 H 0.2664 0.56309 0.19671 0.0
H1292 H 0.25737 0.56182 0.28542 0.0
H1293 H 0.25823 0.54282 0.24886 0.0
H1294 H 0.23289 0.51894 0.32233 0.0
H1295 H 0.23569 0.51718 0.45242 0.0
H1296 H 0.53991 0.68817 0.48369 0.0
H1297 H 0.53846 0.68347 0.35374 0.0
H1298 H 0.57531 0.74037 0.32239 0.0
H1299 H 0.57681 0.74515 0.4524 0.0
H1300 H 0.54372 0.72562 0.23559 0.0
H1301 H 0.57777 0.68481 0.22111 0.0
H1302 H 0.55936 0.6768 0.28373 0.0
H1303 H 0.57941 0.69821 0.29865 0.0
C1304 C 0.54788 0.69963 0.4491 0.0
C1305 C 0.55858 0.717 0.47796 0.0
C1306 C 0.54706 0.69692 0.37496 0.0
C1307 C 0.55695 0.71154 0.32858 0.0
C1308 C 0.56764 0.72891 0.35736 0.0
H1309 H 0.5689 0.72677 0.86795 0.0
H1310 H 0.56919 0.73066 -0.00197 0.0
C1311 C 0.5685 0.73161 0.4315 0.0
C1312 C 0.55567 0.70886 0.24989 0.0
H1313 H 0.56456 0.68769 0.11401 0.0
C1314 C 0.54832 0.71738 0.20887 0.0
C1315 C 0.5616 0.69802 0.21544 0.0
C1316 C 0.57012 0.68903 0.25674 0.0
C1317 C 0.54655 0.71518 0.13417 0.0
C1318 C 0.55263 0.70446 0.09957 0.0
C1319 C 0.55989 0.69587 0.1407 0.0
C1320 C 0.55186 0.7022 0.0206 0.0
C1321 C 0.53787 0.72405 0.0932 0.0
C1322 C 0.54224 0.68489 -0.00985 0.0
C1323 C 0.54218 0.68263 0.91589 0.0
C1324 C 0.55182 0.69764 0.87096 0.0
C1325 C 0.56129 0.71497 0.90137 0.0
C1326 C 0.56138 0.71723 0.97562 0.0
H1327 H 0.52948 0.72737 0.12869 0.0
H1328 H 0.54858 0.73685 0.06935 0.0
H1329 H 0.52924 0.71523 0.04909 0.0
H1330 H 0.53486 0.67312 0.02394 0.0
H1331 H 0.53477 0.66912 0.89376 0.0
loop_
_geom_bond_atom_site_label_1
_geom_bond_atom_site_label_2
_geom_bond_distance
_geom_bond_site_symmetry_2
_ccdc_geom_bond_type
La0 C2 2.928 1_554 S
La0 O20 2.521 . S
La0 O21 2.628 1_554 S
La0 O22 2.554 . S
La0 O23 2.757 . S
La0 O24 2.470 . S
La0 O29 2.482 1_554 S
La0 O31 2.503 1_554 S
La1 C11 2.928 . S
La1 O23 2.482 1_655 S
La1 O25 2.503 . S
La1 O26 2.521 1_554 S
La1 O27 2.628 . S
La1 O28 2.554 1_554 S
La1 O29 2.757 1_654 S
La1 O30 2.470 1_654 S
C2 La0 2.928 1_556 S
C2 C3 1.503 . S
C2 O20 1.261 1_556 S
C2 O21 1.243 . S
C3 C2 1.503 . S
C3 C4 1.394 1_556 S
C3 C8 1.373 . S
C4 C3 1.394 1_554 S
C4 C5 1.380 . S
C4 H32 0.930 . S
C5 C4 1.380 . S
C5 C6 1.376 1_554 S
C5 H33 0.930 . S
C6 C5 1.376 1_556 S
C6 C7 1.370 . S
C7 C6 1.370 . S
C7 C8 1.396 . S
C7 H34 0.929 . S
C8 C3 1.373 . S
C8 C7 1.396 . S
C8 H35 0.929 . S
C9 O22 1.240 . S
C9 O23 1.289 . S
C10 O24 1.258 1_655 S
C10 O25 1.256 . S
C11 La1 2.928 . S
C11 C12 1.503 . S
C11 O26 1.261 1_554 S
C11 O27 1.243 . S
C12 C11 1.503 . S
C12 C13 1.394 1_554 S
C12 C17 1.373 . S
C13 C12 1.394 1_556 S
C13 C14 1.380 . S
C13 H36 0.930 . S
C14 C13 1.380 . S
C14 C15 1.376 1_556 S
C14 H37 0.930 . S
C15 C14 1.376 1_554 S
C15 C16 1.370 . S
C16 C15 1.370 . S
C16 C17 1.396 . S
C16 H38 0.929 . S
C17 C12 1.373 . S
C17 C16 1.396 . S
C17 H39 0.929 . S
C18 O28 1.240 1_455 S
C18 O29 1.289 . S
C19 O30 1.258 . S
C19 O31 1.256 . S
O20 La0 2.521 . S
O20 C2 1.261 1_554 S
O21 La0 2.628 1_556 S
O21 C2 1.243 . S
O22 La0 2.554 . S
O22 C9 1.240 . S
O23 La0 2.757 . S
O23 La1 2.482 1_455 S
O23 C9 1.289 . S
O24 La0 2.470 . S
O24 C10 1.258 1_455 S
O25 La1 2.503 . S
O25 C10 1.256 . S
O26 La1 2.521 1_556 S
O26 C11 1.261 1_556 S
O27 La1 2.628 . S
O27 C11 1.243 . S
O28 La1 2.554 1_556 S
O28 C18 1.240 1_655 S
O29 La0 2.482 1_556 S
O29 La1 2.757 1_456 S
O29 C18 1.289 . S
O30 La1 2.470 1_456 S
O30 C19 1.258 . S
O31 La0 2.503 1_556 S
O31 C19 1.256 . S
H32 C4 0.930 . S
H33 C5 0.930 . S
H34 C7 0.929 . S
H35 C8 0.929 . S
H36 C13 0.930 . S
H37 C14 0.930 . S
H38 C16 0.929 . S
H39 C17 0.929 . S
La40 C42 2.928 1_554 S
La40 O60 2.521 . S
La40 O61 2.628 1_554 S
La40 O62 2.554 . S
La40 O63 2.757 . S
La40 O64 2.470 . S
La40 O69 2.482 1_554 S
La40 O71 2.503 1_554 S
La41 C51 2.928 . S
La41 O63 2.482 . S
La41 O65 2.503 . S
La41 O66 2.521 1_554 S
La41 O67 2.628 . S
La41 O68 2.554 1_554 S
La41 O69 2.757 1_554 S
La41 O70 2.470 1_554 S
C42 La40 2.928 1_556 S
C42 C43 1.503 . S
C42 O60 1.261 1_556 S
C42 O61 1.243 . S
C43 C42 1.503 . S
C43 C44 1.394 1_556 S
C43 C48 1.373 . S
C44 C43 1.394 1_554 S
C44 C45 1.380 . S
C44 H72 0.930 . S
C45 C44 1.380 . S
C45 C46 1.376 1_554 S
C45 H73 0.930 . S
C46 C45 1.376 1_556 S
C46 C47 1.370 . S
C47 C46 1.370 . S
C47 C48 1.396 . S
C47 H74 0.929 . S
C48 C43 1.373 . S
C48 C47 1.396 . S
C48 H75 0.929 . S
C49 O62 1.240 . S
C49 O63 1.289 . S
C50 O64 1.258 . S
C50 O65 1.256 . S
C51 La41 2.928 . S
C51 C52 1.503 . S
C51 O66 1.261 1_554 S
C51 O67 1.243 . S
C52 C51 1.503 . S
C52 C53 1.394 1_554 S
C52 C57 1.373 . S
C53 C52 1.394 1_556 S
C53 C54 1.380 . S
C53 H76 0.930 . S
C54 C53 1.380 . S
C54 C55 1.376 1_556 S
C54 H77 0.930 . S
C55 C54 1.376 1_554 S
C55 C56 1.370 . S
C56 C55 1.370 . S
C56 C57 1.396 . S
C56 H78 0.929 . S
C57 C52 1.373 . S
C57 C56 1.396 . S
C57 H79 0.929 . S
C58 O68 1.240 . S
C58 O69 1.289 . S
C59 O70 1.258 . S
C59 O71 1.256 . S
O60 La40 2.521 . S
O60 C42 1.261 1_554 S
O61 La40 2.628 1_556 S
O61 C42 1.243 . S
O62 La40 2.554 . S
O62 C49 1.240 . S
O63 La40 2.757 . S
O63 La41 2.482 . S
O63 C49 1.289 . S
O64 La40 2.470 . S
O64 C50 1.258 . S
O65 La41 2.503 . S
O65 C50 1.256 . S
O66 La41 2.521 1_556 S
O66 C51 1.261 1_556 S
O67 La41 2.628 . S
O67 C51 1.243 . S
O68 La41 2.554 1_556 S
O68 C58 1.240 . S
O69 La40 2.482 1_556 S
O69 La41 2.757 1_556 S
O69 C58 1.289 . S
O70 La41 2.470 1_556 S
O70 C59 1.258 . S
O71 La40 2.503 1_556 S
O71 C59 1.256 . S
H72 C44 0.930 . S
H73 C45 0.930 . S
H74 C47 0.929 . S
H75 C48 0.929 . S
H76 C53 0.930 . S
H77 C54 0.930 . S
H78 C56 0.929 . S
H79 C57 0.929 . S
La80 C82 2.928 1_554 S
La80 O100 2.521 . S
La80 O101 2.628 1_554 S
La80 O102 2.554 . S
La80 O103 2.757 1_565 S
La80 O104 2.470 1_565 S
La80 O109 2.482 1_564 S
La80 O111 2.503 1_554 S
La81 C91 2.928 . S
La81 O103 2.482 . S
La81 O105 2.503 . S
La81 O106 2.521 1_554 S
La81 O107 2.628 . S
La81 O108 2.554 1_554 S
La81 O109 2.757 1_554 S
La81 O110 2.470 1_554 S
C82 La80 2.928 1_556 S
C82 C83 1.503 . S
C82 O100 1.261 1_556 S
C82 O101 1.243 . S
C83 C82 1.503 . S
C83 C84 1.394 1_556 S
C83 C88 1.373 . S
C84 C83 1.394 1_554 S
C84 C85 1.380 . S
C84 H112 0.930 . S
C85 C84 1.380 . S
C85 C86 1.376 1_554 S
C85 H113 0.930 . S
C86 C85 1.376 1_556 S
C86 C87 1.370 . S
C87 C86 1.370 . S
C87 C88 1.396 . S
C87 H114 0.929 . S
C88 C83 1.373 . S
C88 C87 1.396 . S
C88 H115 0.929 . S
C89 O102 1.240 1_545 S
C89 O103 1.289 . S
C90 O104 1.258 . S
C90 O105 1.256 . S
C91 La81 2.928 . S
C91 C92 1.503 . S
C91 O106 1.261 1_554 S
C91 O107 1.243 . S
C92 C91 1.503 . S
C92 C93 1.394 1_554 S
C92 C97 1.373 . S
C93 C92 1.394 1_556 S
C93 C94 1.380 . S
C93 H116 0.930 . S
C94 C93 1.380 . S
C94 C95 1.376 1_556 S
C94 H117 0.930 . S
C95 C94 1.376 1_554 S
C95 C96 1.370 . S
C96 C95 1.370 . S
C96 C97 1.396 . S
C96 H118 0.929 . S
C97 C92 1.373 . S
C97 C96 1.396 . S
C97 H119 0.929 . S
C98 O108 1.240 . S
C98 O109 1.289 . S
C99 O110 1.258 1_565 S
C99 O111 1.256 . S
O100 La80 2.521 . S
O100 C82 1.261 1_554 S
O101 La80 2.628 1_556 S
O101 C82 1.243 . S
O102 La80 2.554 . S
O102 C89 1.240 1_565 S
O103 La80 2.757 1_545 S
O103 La81 2.482 . S
O103 C89 1.289 . S
O104 La80 2.470 1_545 S
O104 C90 1.258 . S
O105 La81 2.503 . S
O105 C90 1.256 . S
O106 La81 2.521 1_556 S
O106 C91 1.261 1_556 S
O107 La81 2.628 . S
O107 C91 1.243 . S
O108 La81 2.554 1_556 S
O108 C98 1.240 . S
O109 La80 2.482 1_546 S
O109 La81 2.757 1_556 S
O109 C98 1.289 . S
O110 La81 2.470 1_556 S
O110 C99 1.258 1_545 S
O111 La80 2.503 1_556 S
O111 C99 1.256 . S
H112 C84 0.930 . S
H113 C85 0.930 . S
H114 C87 0.929 . S
H115 C88 0.929 . S
H116 C93 0.930 . S
H117 C94 0.930 . S
H118 C96 0.929 . S
H119 C97 0.929 . S
La120 C122 2.928 . S
La120 O140 2.521 . S
La120 O141 2.628 . S
La120 O142 2.554 . S
La120 O143 2.757 . S
La120 O144 2.470 . S
La120 O149 2.482 . S
La120 O151 2.503 . S
La121 C131 2.928 . S
La121 O143 2.482 . S
La121 O145 2.503 . S
La121 O146 2.521 . S
La121 O147 2.628 . S
La121 O148 2.554 . S
La121 O149 2.757 . S
La121 O150 2.470 . S
C122 La120 2.928 . S
C122 C123 1.503 . S
C122 O140 1.261 . S
C122 O141 1.243 . S
C123 C122 1.503 . S
C123 C124 1.394 . S
C123 C128 1.373 . S
C124 C123 1.394 . S
C124 C125 1.380 . S
C124 H152 0.930 . S
C125 C124 1.380 . S
C125 C126 1.376 . S
C125 H153 0.930 . S
C126 C125 1.376 . S
C126 C127 1.370 . S
C127 C126 1.370 . S
C127 C128 1.396 . S
C127 H154 0.929 . S
C128 C123 1.373 . S
C128 C127 1.396 . S
C128 H155 0.929 . S
C129 O142 1.240 . S
C129 O143 1.289 . S
C130 O144 1.258 . S
C130 O145 1.256 . S
C131 La121 2.928 . S
C131 C132 1.503 . S
C131 O146 1.261 . S
C131 O147 1.243 . S
C132 C131 1.503 . S
C132 C133 1.394 . S
C132 C137 1.373 . S
C133 C132 1.394 . S
C133 C134 1.380 . S
C133 H156 0.930 . S
C134 C133 1.380 . S
C134 C135 1.376 . S
C134 H157 0.930 . S
C135 C134 1.376 . S
C135 C136 1.370 . S
C136 C135 1.370 . S
C136 C137 1.396 . S
C136 H158 0.929 . S
C137 C132 1.373 . S
C137 C136 1.396 . S
C137 H159 0.929 . S
C138 O148 1.240 . S
C138 O149 1.289 . S
C139 O150 1.258 . S
C139 O151 1.256 . S
O140 La120 2.521 . S
O140 C122 1.261 . S
O141 La120 2.628 . S
O141 C122 1.243 . S
O142 La120 2.554 . S
O142 C129 1.240 . S
O143 La120 2.757 . S
O143 La121 2.482 . S
O143 C129 1.289 . S
O144 La120 2.470 . S
O144 C130 1.258 . S
O145 La121 2.503 . S
O145 C130 1.256 . S
O146 La121 2.521 . S
O146 C131 1.261 . S
O147 La121 2.628 . S
O147 C131 1.243 . S
O148 La121 2.554 . S
O148 C138 1.240 . S
O149 La120 2.482 . S
O149 La121 2.757 . S
O149 C138 1.289 . S
O150 La121 2.470 . S
O150 C139 1.258 . S
O151 La120 2.503 . S
O151 C139 1.256 . S
H152 C124 0.930 . S
H153 C125 0.930 . S
H154 C127 0.929 . S
H155 C128 0.929 . S
H156 C133 0.930 . S
H157 C134 0.930 . S
H158 C136 0.929 . S
H159 C137 0.929 . S
La160 C162 2.928 . S
La160 O180 2.521 . S
La160 O181 2.628 . S
La160 O182 2.554 . S
La160 O183 2.757 . S
La160 O184 2.470 . S
La160 O189 2.482 . S
La160 O191 2.503 . S
La161 C171 2.928 . S
La161 O183 2.482 . S
La161 O185 2.503 . S
La161 O186 2.521 . S
La161 O187 2.628 . S
La161 O188 2.554 . S
La161 O189 2.757 . S
La161 O190 2.470 . S
C162 La160 2.928 . S
C162 C163 1.503 . S
C162 O180 1.261 . S
C162 O181 1.243 . S
C163 C162 1.503 . S
C163 C164 1.394 . S
C163 C168 1.373 . S
C164 C163 1.394 . S
C164 C165 1.380 . S
C164 H192 0.930 . S
C165 C164 1.380 . S
C165 C166 1.376 . S
C165 H193 0.930 . S
C166 C165 1.376 . S
C166 C167 1.370 . S
C167 C166 1.370 . S
C167 C168 1.396 . S
C167 H194 0.929 . S
C168 C163 1.373 . S
C168 C167 1.396 . S
C168 H195 0.929 . S
C169 O182 1.240 . S
C169 O183 1.289 . S
C170 O184 1.258 . S
C170 O185 1.256 . S
C171 La161 2.928 . S
C171 C172 1.503 . S
C171 O186 1.261 . S
C171 O187 1.243 . S
C172 C171 1.503 . S
C172 C173 1.394 . S
C172 C177 1.373 . S
C173 C172 1.394 . S
C173 C174 1.380 . S
C173 H196 0.930 . S
C174 C173 1.380 . S
C174 C175 1.376 . S
C174 H197 0.930 . S
C175 C174 1.376 . S
C175 C176 1.370 . S
C176 C175 1.370 . S
C176 C177 1.396 . S
C176 H198 0.929 . S
C177 C172 1.373 . S
C177 C176 1.396 . S
C177 H199 0.929 . S
C178 O188 1.240 . S
C178 O189 1.289 . S
C179 O190 1.258 . S
C179 O191 1.256 . S
O180 La160 2.521 . S
O180 C162 1.261 . S
O181 La160 2.628 . S
O181 C162 1.243 . S
O182 La160 2.554 . S
O182 C169 1.240 . S
O183 La160 2.757 . S
O183 La161 2.482 . S
O183 C169 1.289 . S
O184 La160 2.470 . S
O184 C170 1.258 . S
O185 La161 2.503 . S
O185 C170 1.256 . S
O186 La161 2.521 . S
O186 C171 1.261 . S
O187 La161 2.628 . S
O187 C171 1.243 . S
O188 La161 2.554 . S
O188 C178 1.240 . S
O189 La160 2.482 . S
O189 La161 2.757 . S
O189 C178 1.289 . S
O190 La161 2.470 . S
O190 C179 1.258 . S
O191 La160 2.503 . S
O191 C179 1.256 . S
H192 C164 0.930 . S
H193 C165 0.930 . S
H194 C167 0.929 . S
H195 C168 0.929 . S
H196 C173 0.930 . S
H197 C174 0.930 . S
H198 C176 0.929 . S
H199 C177 0.929 . S
La200 C202 2.928 . S
La200 O220 2.521 . S
La200 O221 2.628 . S
La200 O222 2.554 . S
La200 O223 2.757 . S
La200 O224 2.470 . S
La200 O229 2.482 . S
La200 O231 2.503 . S
La201 C211 2.928 . S
La201 O223 2.482 . S
La201 O225 2.503 . S
La201 O226 2.521 . S
La201 O227 2.628 . S
La201 O228 2.554 . S
La201 O229 2.757 . S
La201 O230 2.470 . S
C202 La200 2.928 . S
C202 C203 1.503 . S
C202 O220 1.261 . S
C202 O221 1.243 . S
C203 C202 1.503 . S
C203 C204 1.394 . S
C203 C208 1.373 . S
C204 C203 1.394 . S
C204 C205 1.380 . S
C204 H232 0.930 . S
C205 C204 1.380 . S
C205 C206 1.376 . S
C205 H233 0.930 . S
C206 C205 1.376 . S
C206 C207 1.370 . S
C207 C206 1.370 . S
C207 C208 1.396 . S
C207 H234 0.929 . S
C208 C203 1.373 . S
C208 C207 1.396 . S
C208 H235 0.929 . S
C209 O222 1.240 . S
C209 O223 1.289 . S
C210 O224 1.258 . S
C210 O225 1.256 . S
C211 La201 2.928 . S
C211 C212 1.503 . S
C211 O226 1.261 . S
C211 O227 1.243 . S
C212 C211 1.503 . S
C212 C213 1.394 . S
C212 C217 1.373 . S
C213 C212 1.394 . S
C213 C214 1.380 . S
C213 H236 0.930 . S
C214 C213 1.380 . S
C214 C215 1.376 . S
C214 H237 0.930 . S
C215 C214 1.376 . S
C215 C216 1.370 . S
C216 C215 1.370 . S
C216 C217 1.396 . S
C216 H238 0.929 . S
C217 C212 1.373 . S
C217 C216 1.396 . S
C217 H239 0.929 . S
C218 O228 1.240 . S
C218 O229 1.289 . S
C219 O230 1.258 . S
C219 O231 1.256 . S
O220 La200 2.521 . S
O220 C202 1.261 . S
O221 La200 2.628 . S
O221 C202 1.243 . S
O222 La200 2.554 . S
O222 C209 1.240 . S
O223 La200 2.757 . S
O223 La201 2.482 . S
O223 C209 1.289 . S
O224 La200 2.470 . S
O224 C210 1.258 . S
O225 La201 2.503 . S
O225 C210 1.256 . S
O226 La201 2.521 . S
O226 C211 1.261 . S
O227 La201 2.628 . S
O227 C211 1.243 . S
O228 La201 2.554 . S
O228 C218 1.240 . S
O229 La200 2.482 . S
O229 La201 2.757 . S
O229 C218 1.289 . S
O230 La201 2.470 . S
O230 C219 1.258 . S
O231 La200 2.503 . S
O231 C219 1.256 . S
H232 C204 0.930 . S
H233 C205 0.930 . S
H234 C207 0.929 . S
H235 C208 0.929 . S
H236 C213 0.930 . S
H237 C214 0.930 . S
H238 C216 0.929 . S
H239 C217 0.929 . S
La240 C242 2.928 . S
La240 O260 2.521 . S
La240 O261 2.628 . S
La240 O262 2.554 . S
La240 O263 2.757 . S
La240 O264 2.470 . S
La240 O269 2.482 . S
La240 O271 2.503 . S
La241 C251 2.928 . S
La241 O263 2.482 . S
La241 O265 2.503 . S
La241 O266 2.521 . S
La241 O267 2.628 . S
La241 O268 2.554 . S
La241 O269 2.757 . S
La241 O270 2.470 . S
C242 La240 2.928 . S
C242 C243 1.503 . S
C242 O260 1.261 . S
C242 O261 1.243 . S
C243 C242 1.503 . S
C243 C244 1.394 . S
C243 C248 1.373 . S
C244 C243 1.394 . S
C244 C245 1.380 . S
C244 H272 0.930 . S
C245 C244 1.380 . S
C245 C246 1.376 . S
C245 H273 0.930 . S
C246 C245 1.376 . S
C246 C247 1.370 . S
C247 C246 1.370 . S
C247 C248 1.396 . S
C247 H274 0.929 . S
C248 C243 1.373 . S
C248 C247 1.396 . S
C248 H275 0.929 . S
C249 O262 1.240 . S
C249 O263 1.289 . S
C250 O264 1.258 . S
C250 O265 1.256 . S
C251 La241 2.928 . S
C251 C252 1.503 . S
C251 O266 1.261 . S
C251 O267 1.243 . S
C252 C251 1.503 . S
C252 C253 1.394 . S
C252 C257 1.373 . S
C253 C252 1.394 . S
C253 C254 1.380 . S
C253 H276 0.930 . S
C254 C253 1.380 . S
C254 C255 1.376 . S
C254 H277 0.930 . S
C255 C254 1.376 . S
C255 C256 1.370 . S
C256 C255 1.370 . S
C256 C257 1.396 . S
C256 H278 0.929 . S
C257 C252 1.373 . S
C257 C256 1.396 . S
C257 H279 0.929 . S
C258 O268 1.240 . S
C258 O269 1.289 . S
C259 O270 1.258 . S
C259 O271 1.256 . S
O260 La240 2.521 . S
O260 C242 1.261 . S
O261 La240 2.628 . S
O261 C242 1.243 . S
O262 La240 2.554 . S
O262 C249 1.240 . S
O263 La240 2.757 . S
O263 La241 2.482 . S
O263 C249 1.289 . S
O264 La240 2.470 . S
O264 C250 1.258 . S
O265 La241 2.503 . S
O265 C250 1.256 . S
O266 La241 2.521 . S
O266 C251 1.261 . S
O267 La241 2.628 . S
O267 C251 1.243 . S
O268 La241 2.554 . S
O268 C258 1.240 . S
O269 La240 2.482 . S
O269 La241 2.757 . S
O269 C258 1.289 . S
O270 La241 2.470 . S
O270 C259 1.258 . S
O271 La240 2.503 . S
O271 C259 1.256 . S
H272 C244 0.930 . S
H273 C245 0.930 . S
H274 C247 0.929 . S
H275 C248 0.929 . S
H276 C253 0.930 . S
H277 C254 0.930 . S
H278 C256 0.929 . S
H279 C257 0.929 . S
La280 C282 2.928 . S
La280 O300 2.521 . S
La280 O301 2.628 . S
La280 O302 2.554 . S
La280 O303 2.757 . S
La280 O304 2.470 . S
La280 O309 2.482 . S
La280 O311 2.503 . S
La281 C291 2.928 . S
La281 O303 2.482 . S
La281 O305 2.503 . S
La281 O306 2.521 . S
La281 O307 2.628 . S
La281 O308 2.554 . S
La281 O309 2.757 . S
La281 O310 2.470 . S
C282 La280 2.928 . S
C282 C283 1.503 . S
C282 O300 1.261 . S
C282 O301 1.243 . S
C283 C282 1.503 . S
C283 C284 1.394 . S
C283 C288 1.373 . S
C284 C283 1.394 . S
C284 C285 1.380 . S
C284 H312 0.930 . S
C285 C284 1.380 . S
C285 C286 1.376 . S
C285 H313 0.930 . S
C286 C285 1.376 . S
C286 C287 1.370 . S
C287 C286 1.370 . S
C287 C288 1.396 . S
C287 H314 0.929 . S
C288 C283 1.373 . S
C288 C287 1.396 . S
C288 H315 0.929 . S
C289 O302 1.240 . S
C289 O303 1.289 . S
C290 O304 1.258 . S
C290 O305 1.256 . S
C291 La281 2.928 . S
C291 C292 1.503 . S
C291 O306 1.261 . S
C291 O307 1.243 . S
C292 C291 1.503 . S
C292 C293 1.394 . S
C292 C297 1.373 . S
C293 C292 1.394 . S
C293 C294 1.380 . S
C293 H316 0.930 . S
C294 C293 1.380 . S
C294 C295 1.376 . S
C294 H317 0.930 . S
C295 C294 1.376 . S
C295 C296 1.370 . S
C296 C295 1.370 . S
C296 C297 1.396 . S
C296 H318 0.929 . S
C297 C292 1.373 . S
C297 C296 1.396 . S
C297 H319 0.929 . S
C298 O308 1.240 . S
C298 O309 1.289 . S
C299 O310 1.258 . S
C299 O311 1.256 . S
O300 La280 2.521 . S
O300 C282 1.261 . S
O301 La280 2.628 . S
O301 C282 1.243 . S
O302 La280 2.554 . S
O302 C289 1.240 . S
O303 La280 2.757 . S
O303 La281 2.482 . S
O303 C289 1.289 . S
O304 La280 2.470 . S
O304 C290 1.258 . S
O305 La281 2.503 . S
O305 C290 1.256 . S
O306 La281 2.521 . S
O306 C291 1.261 . S
O307 La281 2.628 . S
O307 C291 1.243 . S
O308 La281 2.554 . S
O308 C298 1.240 . S
O309 La280 2.482 . S
O309 La281 2.757 . S
O309 C298 1.289 . S
O310 La281 2.470 . S
O310 C299 1.258 . S
O311 La280 2.503 . S
O311 C299 1.256 . S
H312 C284 0.930 . S
H313 C285 0.930 . S
H314 C287 0.929 . S
H315 C288 0.929 . S
H316 C293 0.930 . S
H317 C294 0.930 . S
H318 C296 0.929 . S
H319 C297 0.929 . S
La320 C322 2.928 . S
La320 O340 2.521 . S
La320 O341 2.628 . S
La320 O342 2.554 . S
La320 O343 2.757 . S
La320 O344 2.470 . S
La320 O349 2.482 . S
La320 O351 2.503 . S
La321 C331 2.928 . S
La321 O343 2.482 . S
La321 O345 2.503 . S
La321 O346 2.521 . S
La321 O347 2.628 . S
La321 O348 2.554 . S
La321 O349 2.757 . S
La321 O350 2.470 . S
C322 La320 2.928 . S
C322 C323 1.503 . S
C322 O340 1.261 . S
C322 O341 1.243 . S
C323 C322 1.503 . S
C323 C324 1.394 . S
C323 C328 1.373 . S
C324 C323 1.394 . S
C324 C325 1.380 . S
C324 H352 0.930 . S
C325 C324 1.380 . S
C325 C326 1.376 . S
C325 H353 0.930 . S
C326 C325 1.376 . S
C326 C327 1.370 . S
C327 C326 1.370 . S
C327 C328 1.396 . S
C327 H354 0.929 . S
C328 C323 1.373 . S
C328 C327 1.396 . S
C328 H355 0.929 . S
C329 O342 1.240 . S
C329 O343 1.289 . S
C330 O344 1.258 . S
C330 O345 1.256 . S
C331 La321 2.928 . S
C331 C332 1.503 . S
C331 O346 1.261 . S
C331 O347 1.243 . S
C332 C331 1.503 . S
C332 C333 1.394 . S
C332 C337 1.373 . S
C333 C332 1.394 . S
C333 C334 1.380 . S
C333 H356 0.930 . S
C334 C333 1.380 . S
C334 C335 1.376 . S
C334 H357 0.930 . S
C335 C334 1.376 . S
C335 C336 1.370 . S
C336 C335 1.370 . S
C336 C337 1.396 . S
C336 H358 0.929 . S
C337 C332 1.373 . S
C337 C336 1.396 . S
C337 H359 0.929 . S
C338 O348 1.240 . S
C338 O349 1.289 . S
C339 O350 1.258 . S
C339 O351 1.256 . S
O340 La320 2.521 . S
O340 C322 1.261 . S
O341 La320 2.628 . S
O341 C322 1.243 . S
O342 La320 2.554 . S
O342 C329 1.240 . S
O343 La320 2.757 . S
O343 La321 2.482 . S
O343 C329 1.289 . S
O344 La320 2.470 . S
O344 C330 1.258 . S
O345 La321 2.503 . S
O345 C330 1.256 . S
O346 La321 2.521 . S
O346 C331 1.261 . S
O347 La321 2.628 . S
O347 C331 1.243 . S
O348 La321 2.554 . S
O348 C338 1.240 . S
O349 La320 2.482 . S
O349 La321 2.757 . S
O349 C338 1.289 . S
O350 La321 2.470 . S
O350 C339 1.258 . S
O351 La320 2.503 . S
O351 C339 1.256 . S
H352 C324 0.930 . S
H353 C325 0.930 . S
H354 C327 0.929 . S
H355 C328 0.929 . S
H356 C333 0.930 . S
H357 C334 0.930 . S
H358 C336 0.929 . S
H359 C337 0.929 . S
H360 C368 0.929 . S
H361 C370 0.930 . S
H362 C372 0.930 . S
H363 C375 0.929 1_554 S
H364 C378 0.930 . S
H365 C380 0.960 . S
H366 C380 0.960 . S
H367 C380 0.960 . S
C368 H360 0.929 . S
C368 C369 1.377 . S
C368 C370 1.384 . S
C369 C368 1.377 . S
C369 C375 1.390 . S
C370 H361 0.930 . S
C370 C368 1.384 . S
C370 C371 1.372 . S
C371 C370 1.372 . S
C371 C372 1.400 . S
C371 C376 1.490 . S
C372 H362 0.930 . S
C372 C371 1.400 . S
C372 C375 1.386 . S
H373 C389 0.930 . S
H374 C390 0.931 . S
C375 H363 0.929 1_556 S
C375 C369 1.390 . S
C375 C372 1.386 . S
C376 C371 1.490 . S
C376 C378 1.395 . S
C376 C379 1.403 . S
H377 C383 0.930 . S
C378 H364 0.930 . S
C378 C376 1.395 . S
C378 C381 1.403 . S
C379 C376 1.403 . S
C379 C380 1.524 . S
C379 C383 1.400 . S
C380 H365 0.960 . S
C380 H366 0.960 . S
C380 H367 0.960 . S
C380 C379 1.524 . S
C381 C378 1.403 . S
C381 C382 1.392 . S
C381 C385 1.495 . S
C382 C381 1.392 . S
C382 C383 1.385 . S
C382 C384 1.478 . S
C383 H377 0.930 . S
C383 C379 1.400 . S
C383 C382 1.385 . S
C384 C382 1.478 . S
C384 C386 1.381 . S
C384 C390 1.383 . S
C385 C381 1.495 . S
C385 H391 0.959 . S
C385 H392 0.961 . S
C385 H393 0.960 . S
C386 C384 1.381 . S
C386 C387 1.394 . S
C386 H394 0.930 . S
C387 C386 1.394 . S
C387 C388 1.383 . S
C387 H395 0.929 . S
C388 C387 1.383 . S
C388 C389 1.377 . S
C389 H373 0.930 . S
C389 C388 1.377 . S
C389 C390 1.379 . S
C390 H374 0.931 . S
C390 C384 1.383 . S
C390 C389 1.379 . S
H391 C385 0.959 . S
H392 C385 0.961 . S
H393 C385 0.960 . S
H394 C386 0.930 . S
H395 C387 0.929 . S
H396 C404 0.929 . S
H397 C406 0.930 . S
H398 C408 0.930 . S
H399 C411 0.929 . S
H400 C414 0.930 . S
H401 C416 0.960 . S
H402 C416 0.960 . S
H403 C416 0.960 . S
C404 H396 0.929 . S
C404 C405 1.377 . S
C404 C406 1.384 . S
C405 C404 1.377 . S
C405 C411 1.390 . S
C406 H397 0.930 . S
C406 C404 1.384 . S
C406 C407 1.372 . S
C407 C406 1.372 . S
C407 C408 1.400 . S
C407 C412 1.490 . S
C408 H398 0.930 . S
C408 C407 1.400 . S
C408 C411 1.386 . S
H409 C425 0.930 . S
H410 C426 0.931 . S
C411 H399 0.929 . S
C411 C405 1.390 . S
C411 C408 1.386 . S
C412 C407 1.490 . S
C412 C414 1.395 . S
C412 C415 1.403 . S
H413 C419 0.930 . S
C414 H400 0.930 . S
C414 C412 1.395 . S
C414 C417 1.403 . S
C415 C412 1.403 . S
C415 C416 1.524 . S
C415 C419 1.400 . S
C416 H401 0.960 . S
C416 H402 0.960 . S
C416 H403 0.960 . S
C416 C415 1.524 . S
C417 C414 1.403 . S
C417 C418 1.392 . S
C417 C421 1.495 . S
C418 C417 1.392 . S
C418 C419 1.385 . S
C418 C420 1.478 . S
C419 H413 0.930 . S
C419 C415 1.400 . S
C419 C418 1.385 . S
C420 C418 1.478 . S
C420 C422 1.381 . S
C420 C426 1.383 . S
C421 C417 1.495 . S
C421 H427 0.959 . S
C421 H428 0.961 . S
C421 H429 0.960 . S
C422 C420 1.381 . S
C422 C423 1.394 . S
C422 H430 0.930 . S
C423 C422 1.394 . S
C423 C424 1.383 . S
C423 H431 0.929 . S
C424 C423 1.383 . S
C424 C425 1.377 . S
C425 H409 0.930 . S
C425 C424 1.377 . S
C425 C426 1.379 . S
C426 H410 0.931 . S
C426 C420 1.383 . S
C426 C425 1.379 . S
H427 C421 0.959 . S
H428 C421 0.961 . S
H429 C421 0.960 . S
H430 C422 0.930 . S
H431 C423 0.929 . S
H432 C440 0.929 . S
H433 C442 0.930 . S
H434 C444 0.930 . S
H435 C447 0.929 . S
H436 C450 0.930 . S
H437 C452 0.960 . S
H438 C452 0.960 . S
H439 C452 0.960 . S
C440 H432 0.929 . S
C440 C441 1.377 . S
C440 C442 1.384 . S
C441 C440 1.377 . S
C441 C447 1.390 . S
C442 H433 0.930 . S
C442 C440 1.384 . S
C442 C443 1.372 . S
C443 C442 1.372 . S
C443 C444 1.400 . S
C443 C448 1.490 . S
C444 H434 0.930 . S
C444 C443 1.400 . S
C444 C447 1.386 . S
H445 C461 0.930 . S
H446 C462 0.931 . S
C447 H435 0.929 . S
C447 C441 1.390 . S
C447 C444 1.386 . S
C448 C443 1.490 . S
C448 C450 1.395 . S
C448 C451 1.403 . S
H449 C455 0.930 . S
C450 H436 0.930 . S
C450 C448 1.395 . S
C450 C453 1.403 . S
C451 C448 1.403 . S
C451 C452 1.524 . S
C451 C455 1.400 . S
C452 H437 0.960 . S
C452 H438 0.960 . S
C452 H439 0.960 . S
C452 C451 1.524 . S
C453 C450 1.403 . S
C453 C454 1.392 . S
C453 C457 1.495 . S
C454 C453 1.392 . S
C454 C455 1.385 . S
C454 C456 1.478 . S
C455 H449 0.930 . S
C455 C451 1.400 . S
C455 C454 1.385 . S
C456 C454 1.478 . S
C456 C458 1.381 . S
C456 C462 1.383 . S
C457 C453 1.495 . S
C457 H463 0.959 . S
C457 H464 0.961 . S
C457 H465 0.960 . S
C458 C456 1.381 . S
C458 C459 1.394 . S
C458 H466 0.930 . S
C459 C458 1.394 . S
C459 C460 1.383 . S
C459 H467 0.929 . S
C460 C459 1.383 . S
C460 C461 1.377 . S
C461 H445 0.930 . S
C461 C460 1.377 . S
C461 C462 1.379 . S
C462 H446 0.931 . S
C462 C456 1.383 . S
C462 C461 1.379 . S
H463 C457 0.959 . S
H464 C457 0.961 . S
H465 C457 0.960 . S
H466 C458 0.930 . S
H467 C459 0.929 . S
H468 C476 0.929 . S
H469 C478 0.930 . S
H470 C480 0.930 . S
H471 C483 0.929 . S
H472 C486 0.930 . S
H473 C488 0.960 . S
H474 C488 0.960 . S
H475 C488 0.960 . S
C476 H468 0.929 . S
C476 C477 1.377 . S
C476 C478 1.384 . S
C477 C476 1.377 . S
C477 C483 1.390 . S
C478 H469 0.930 . S
C478 C476 1.384 . S
C478 C479 1.372 . S
C479 C478 1.372 . S
C479 C480 1.400 . S
C479 C484 1.490 . S
C480 H470 0.930 . S
C480 C479 1.400 . S
C480 C483 1.386 . S
H481 C497 0.930 . S
H482 C498 0.931 . S
C483 H471 0.929 . S
C483 C477 1.390 . S
C483 C480 1.386 . S
C484 C479 1.490 . S
C484 C486 1.395 . S
C484 C487 1.403 . S
H485 C491 0.930 . S
C486 H472 0.930 . S
C486 C484 1.395 . S
C486 C489 1.403 . S
C487 C484 1.403 . S
C487 C488 1.524 . S
C487 C491 1.400 . S
C488 H473 0.960 . S
C488 H474 0.960 . S
C488 H475 0.960 . S
C488 C487 1.524 . S
C489 C486 1.403 . S
C489 C490 1.392 . S
C489 C493 1.495 1_554 S
C490 C489 1.392 . S
C490 C491 1.385 . S
C490 C492 1.478 . S
C491 H485 0.930 . S
C491 C487 1.400 . S
C491 C490 1.385 . S
C492 C490 1.478 . S
C492 C494 1.381 . S
C492 C498 1.383 . S
C493 C489 1.495 1_556 S
C493 H499 0.959 . S
C493 H500 0.961 . S
C493 H501 0.960 . S
C494 C492 1.381 . S
C494 C495 1.394 . S
C494 H502 0.930 . S
C495 C494 1.394 . S
C495 C496 1.383 . S
C495 H503 0.929 1_554 S
C496 C495 1.383 . S
C496 C497 1.377 . S
C497 H481 0.930 . S
C497 C496 1.377 . S
C497 C498 1.379 . S
C498 H482 0.931 . S
C498 C492 1.383 . S
C498 C497 1.379 . S
H499 C493 0.959 . S
H500 C493 0.961 . S
H501 C493 0.960 . S
H502 C494 0.930 . S
H503 C495 0.929 1_556 S
H504 C512 0.929 . S
H505 C514 0.930 . S
H506 C516 0.930 . S
H507 C519 0.929 . S
H508 C522 0.930 . S
H509 C524 0.960 . S
H510 C524 0.960 . S
H511 C524 0.960 . S
C512 H504 0.929 . S
C512 C513 1.377 . S
C512 C514 1.384 . S
C513 C512 1.377 . S
C513 C519 1.390 . S
C514 H505 0.930 . S
C514 C512 1.384 . S
C514 C515 1.372 . S
C515 C514 1.372 . S
C515 C516 1.400 . S
C515 C520 1.490 . S
C516 H506 0.930 . S
C516 C515 1.400 . S
C516 C519 1.386 . S
H517 C533 0.930 . S
H518 C534 0.931 . S
C519 H507 0.929 . S
C519 C513 1.390 . S
C519 C516 1.386 . S
C520 C515 1.490 . S
C520 C522 1.395 . S
C520 C523 1.403 . S
H521 C527 0.930 . S
C522 H508 0.930 . S
C522 C520 1.395 . S
C522 C525 1.403 . S
C523 C520 1.403 . S
C523 C524 1.524 . S
C523 C527 1.400 . S
C524 H509 0.960 . S
C524 H510 0.960 . S
C524 H511 0.960 . S
C524 C523 1.524 . S
C525 C522 1.403 . S
C525 C526 1.392 . S
C525 C529 1.495 . S
C526 C525 1.392 . S
C526 C527 1.385 . S
C526 C528 1.478 . S
C527 H521 0.930 . S
C527 C523 1.400 . S
C527 C526 1.385 . S
C528 C526 1.478 . S
C528 C530 1.381 . S
C528 C534 1.383 . S
C529 C525 1.495 . S
C529 H535 0.959 . S
C529 H536 0.961 . S
C529 H537 0.960 1_554 S
C530 C528 1.381 . S
C530 C531 1.394 1_554 S
C530 H538 0.930 1_554 S
C531 C530 1.394 1_556 S
C531 C532 1.383 1_556 S
C531 H539 0.929 . S
C532 C531 1.383 1_554 S
C532 C533 1.377 . S
C533 H517 0.930 . S
C533 C532 1.377 . S
C533 C534 1.379 . S
C534 H518 0.931 . S
C534 C528 1.383 . S
C534 C533 1.379 . S
H535 C529 0.959 . S
H536 C529 0.961 . S
H537 C529 0.960 1_556 S
H538 C530 0.930 1_556 S
H539 C531 0.929 . S
H540 C548 0.929 . S
H541 C550 0.930 . S
H542 C552 0.930 . S
H543 C555 0.929 . S
H544 C558 0.930 . S
H545 C560 0.960 1_556 S
H546 C560 0.960 1_556 S
H547 C560 0.960 . S
C548 H540 0.929 . S
C548 C549 1.377 . S
C548 C550 1.384 . S
C549 C548 1.377 . S
C549 C555 1.390 . S
C550 H541 0.930 . S
C550 C548 1.384 . S
C550 C551 1.372 . S
C551 C550 1.372 . S
C551 C552 1.400 . S
C551 C556 1.490 . S
C552 H542 0.930 . S
C552 C551 1.400 . S
C552 C555 1.386 . S
H553 C569 0.930 . S
H554 C570 0.931 . S
C555 H543 0.929 . S
C555 C549 1.390 . S
C555 C552 1.386 . S
C556 C551 1.490 . S
C556 C558 1.395 . S
C556 C559 1.403 . S
H557 C563 0.930 . S
C558 H544 0.930 . S
C558 C556 1.395 . S
C558 C561 1.403 . S
C559 C556 1.403 . S
C559 C560 1.524 . S
C559 C563 1.400 . S
C560 H545 0.960 1_554 S
C560 H546 0.960 1_554 S
C560 H547 0.960 . S
C560 C559 1.524 . S
C561 C558 1.403 . S
C561 C562 1.392 . S
C561 C565 1.495 . S
C562 C561 1.392 . S
C562 C563 1.385 . S
C562 C564 1.478 . S
C563 H557 0.930 . S
C563 C559 1.400 . S
C563 C562 1.385 . S
C564 C562 1.478 . S
C564 C566 1.381 . S
C564 C570 1.383 . S
C565 C561 1.495 . S
C565 H571 0.959 . S
C565 H572 0.961 . S
C565 H573 0.960 . S
C566 C564 1.381 . S
C566 C567 1.394 . S
C566 H574 0.930 . S
C567 C566 1.394 . S
C567 C568 1.383 . S
C567 H575 0.929 . S
C568 C567 1.383 . S
C568 C569 1.377 . S
C569 H553 0.930 . S
C569 C568 1.377 . S
C569 C570 1.379 . S
C570 H554 0.931 . S
C570 C564 1.383 . S
C570 C569 1.379 . S
H571 C565 0.959 . S
H572 C565 0.961 . S
H573 C565 0.960 . S
H574 C566 0.930 . S
H575 C567 0.929 . S
H576 C584 0.929 . S
H577 C586 0.930 . S
H578 C588 0.930 . S
H579 C591 0.929 . S
H580 C594 0.930 . S
H581 C596 0.960 . S
H582 C596 0.960 1_455 S
H583 C596 0.960 1_455 S
C584 H576 0.929 . S
C584 C585 1.377 . S
C584 C586 1.384 . S
C585 C584 1.377 . S
C585 C591 1.390 . S
C586 H577 0.930 . S
C586 C584 1.384 . S
C586 C587 1.372 . S
C587 C586 1.372 . S
C587 C588 1.400 . S
C587 C592 1.490 1_455 S
C588 H578 0.930 . S
C588 C587 1.400 . S
C588 C591 1.386 . S
H589 C605 0.930 . S
H590 C606 0.931 . S
C591 H579 0.929 . S
C591 C585 1.390 . S
C591 C588 1.386 . S
C592 C587 1.490 1_655 S
C592 C594 1.395 . S
C592 C595 1.403 . S
H593 C599 0.930 . S
C594 H580 0.930 . S
C594 C592 1.395 . S
C594 C597 1.403 . S
C595 C592 1.403 . S
C595 C596 1.524 . S
C595 C599 1.400 . S
C596 H581 0.960 . S
C596 H582 0.960 1_655 S
C596 H583 0.960 1_655 S
C596 C595 1.524 . S
C597 C594 1.403 . S
C597 C598 1.392 . S
C597 C601 1.495 . S
C598 C597 1.392 . S
C598 C599 1.385 . S
C598 C600 1.478 . S
C599 H593 0.930 . S
C599 C595 1.400 . S
C599 C598 1.385 . S
C600 C598 1.478 . S
C600 C602 1.381 . S
C600 C606 1.383 . S
C601 C597 1.495 . S
C601 H607 0.959 . S
C601 H608 0.961 . S
C601 H609 0.960 . S
C602 C600 1.381 . S
C602 C603 1.394 . S
C602 H610 0.930 . S
C603 C602 1.394 . S
C603 C604 1.383 . S
C603 H611 0.929 . S
C604 C603 1.383 . S
C604 C605 1.377 . S
C605 H589 0.930 . S
C605 C604 1.377 . S
C605 C606 1.379 . S
C606 H590 0.931 . S
C606 C600 1.383 . S
C606 C605 1.379 . S
H607 C601 0.959 . S
H608 C601 0.961 . S
H609 C601 0.960 . S
H610 C602 0.930 . S
H611 C603 0.929 . S
H612 C620 0.929 . S
H613 C622 0.930 . S
H614 C624 0.930 . S
H615 C627 0.929 . S
H616 C630 0.930 . S
H617 C632 0.960 . S
H618 C632 0.960 . S
H619 C632 0.960 . S
C620 H612 0.929 . S
C620 C621 1.377 . S
C620 C622 1.384 . S
C621 C620 1.377 . S
C621 C627 1.390 . S
C622 H613 0.930 . S
C622 C620 1.384 . S
C622 C623 1.372 . S
C623 C622 1.372 . S
C623 C624 1.400 . S
C623 C628 1.490 . S
C624 H614 0.930 . S
C624 C623 1.400 . S
C624 C627 1.386 . S
H625 C641 0.930 . S
H626 C642 0.931 . S
C627 H615 0.929 . S
C627 C621 1.390 . S
C627 C624 1.386 . S
C628 C623 1.490 . S
C628 C630 1.395 . S
C628 C631 1.403 . S
H629 C635 0.930 . S
C630 H616 0.930 . S
C630 C628 1.395 . S
C630 C633 1.403 . S
C631 C628 1.403 . S
C631 C632 1.524 . S
C631 C635 1.400 . S
C632 H617 0.960 . S
C632 H618 0.960 . S
C632 H619 0.960 . S
C632 C631 1.524 . S
C633 C630 1.403 . S
C633 C634 1.392 . S
C633 C637 1.495 . S
C634 C633 1.392 . S
C634 C635 1.385 . S
C634 C636 1.478 . S
C635 H629 0.930 . S
C635 C631 1.400 . S
C635 C634 1.385 . S
C636 C634 1.478 . S
C636 C638 1.381 . S
C636 C642 1.383 . S
C637 C633 1.495 . S
C637 H643 0.959 . S
C637 H644 0.961 . S
C637 H645 0.960 . S
C638 C636 1.381 . S
C638 C639 1.394 . S
C638 H646 0.930 . S
C639 C638 1.394 . S
C639 C640 1.383 . S
C639 H647 0.929 . S
C640 C639 1.383 . S
C640 C641 1.377 . S
C641 H625 0.930 . S
C641 C640 1.377 . S
C641 C642 1.379 . S
C642 H626 0.931 . S
C642 C636 1.383 . S
C642 C641 1.379 . S
H643 C637 0.959 . S
H644 C637 0.961 . S
H645 C637 0.960 . S
H646 C638 0.930 . S
H647 C639 0.929 . S
H648 C656 0.929 . S
H649 C658 0.930 . S
H650 C660 0.930 . S
H651 C663 0.929 . S
H652 C666 0.930 . S
H653 C668 0.960 . S
H654 C668 0.960 . S
H655 C668 0.960 . S
C656 H648 0.929 . S
C656 C657 1.377 . S
C656 C658 1.384 . S
C657 C656 1.377 . S
C657 C663 1.390 . S
C658 H649 0.930 . S
C658 C656 1.384 . S
C658 C659 1.372 . S
C659 C658 1.372 . S
C659 C660 1.400 . S
C659 C664 1.490 . S
C660 H650 0.930 . S
C660 C659 1.400 . S
C660 C663 1.386 . S
H661 C677 0.930 . S
H662 C678 0.931 . S
C663 H651 0.929 . S
C663 C657 1.390 . S
C663 C660 1.386 . S
C664 C659 1.490 . S
C664 C666 1.395 . S
C664 C667 1.403 . S
H665 C671 0.930 . S
C666 H652 0.930 . S
C666 C664 1.395 . S
C666 C669 1.403 . S
C667 C664 1.403 . S
C667 C668 1.524 . S
C667 C671 1.400 . S
C668 H653 0.960 . S
C668 H654 0.960 . S
C668 H655 0.960 . S
C668 C667 1.524 . S
C669 C666 1.403 . S
C669 C670 1.392 . S
C669 C673 1.495 . S
C670 C669 1.392 . S
C670 C671 1.385 . S
C670 C672 1.478 . S
C671 H665 0.930 . S
C671 C667 1.400 . S
C671 C670 1.385 . S
C672 C670 1.478 . S
C672 C674 1.381 . S
C672 C678 1.383 . S
C673 C669 1.495 . S
C673 H679 0.959 . S
C673 H680 0.961 . S
C673 H681 0.960 . S
C674 C672 1.381 . S
C674 C675 1.394 1_545 S
C674 H682 0.930 . S
C675 C674 1.394 1_565 S
C675 C676 1.383 . S
C675 H683 0.929 . S
C676 C675 1.383 . S
C676 C677 1.377 . S
C677 H661 0.930 . S
C677 C676 1.377 . S
C677 C678 1.379 1_565 S
C678 H662 0.931 . S
C678 C672 1.383 . S
C678 C677 1.379 1_545 S
H679 C673 0.959 . S
H680 C673 0.961 . S
H681 C673 0.960 . S
H682 C674 0.930 . S
H683 C675 0.929 . S
H684 C692 0.929 . S
H685 C694 0.930 . S
H686 C696 0.930 . S
H687 C699 0.929 . S
H688 C702 0.930 . S
H689 C704 0.960 . S
H690 C704 0.960 . S
H691 C704 0.960 . S
C692 H684 0.929 . S
C692 C693 1.377 . S
C692 C694 1.384 . S
C693 C692 1.377 . S
C693 C699 1.390 1_554 S
C694 H685 0.930 . S
C694 C692 1.384 . S
C694 C695 1.372 . S
C695 C694 1.372 . S
C695 C696 1.400 1_554 S
C695 C700 1.490 . S
C696 H686 0.930 . S
C696 C695 1.400 1_556 S
C696 C699 1.386 . S
H697 C713 0.930 . S
H698 C714 0.931 . S
C699 H687 0.929 . S
C699 C693 1.390 1_556 S
C699 C696 1.386 . S
C700 C695 1.490 . S
C700 C702 1.395 . S
C700 C703 1.403 . S
H701 C707 0.930 . S
C702 H688 0.930 . S
C702 C700 1.395 . S
C702 C705 1.403 . S
C703 C700 1.403 . S
C703 C704 1.524 . S
C703 C707 1.400 . S
C704 H689 0.960 . S
C704 H690 0.960 . S
C704 H691 0.960 . S
C704 C703 1.524 . S
C705 C702 1.403 . S
C705 C706 1.392 . S
C705 C709 1.495 . S
C706 C705 1.392 . S
C706 C707 1.385 . S
C706 C708 1.478 . S
C707 H701 0.930 . S
C707 C703 1.400 . S
C707 C706 1.385 . S
C708 C706 1.478 . S
C708 C710 1.381 . S
C708 C714 1.383 1_554 S
C709 C705 1.495 . S
C709 H715 0.959 . S
C709 H716 0.961 1_554 S
C709 H717 0.960 . S
C710 C708 1.381 . S
C710 C711 1.394 . S
C710 H718 0.930 . S
C711 C710 1.394 . S
C711 C712 1.383 . S
C711 H719 0.929 . S
C712 C711 1.383 . S
C712 C713 1.377 1_554 S
C713 H697 0.930 . S
C713 C712 1.377 1_556 S
C713 C714 1.379 . S
C714 H698 0.931 . S
C714 C708 1.383 1_556 S
C714 C713 1.379 . S
H715 C709 0.959 . S
H716 C709 0.961 1_556 S
H717 C709 0.960 . S
H718 C710 0.930 . S
H719 C711 0.929 . S
H720 C728 0.929 . S
H721 C730 0.930 . S
H722 C732 0.930 . S
H723 C735 0.929 . S
H724 C738 0.930 . S
H725 C740 0.960 . S
H726 C740 0.960 . S
H727 C740 0.960 . S
C728 H720 0.929 . S
C728 C729 1.377 . S
C728 C730 1.384 . S
C729 C728 1.377 . S
C729 C735 1.390 1_554 S
C730 H721 0.930 . S
C730 C728 1.384 . S
C730 C731 1.372 . S
C731 C730 1.372 . S
C731 C732 1.400 1_554 S
C731 C736 1.490 . S
C732 H722 0.930 . S
C732 C731 1.400 1_556 S
C732 C735 1.386 . S
H733 C749 0.930 . S
H734 C750 0.931 . S
C735 H723 0.929 . S
C735 C729 1.390 1_556 S
C735 C732 1.386 . S
C736 C731 1.490 . S
C736 C738 1.395 . S
C736 C739 1.403 1_554 S
H737 C743 0.930 . S
C738 H724 0.930 . S
C738 C736 1.395 . S
C738 C741 1.403 . S
C739 C736 1.403 1_556 S
C739 C740 1.524 . S
C739 C743 1.400 . S
C740 H725 0.960 . S
C740 H726 0.960 . S
C740 H727 0.960 . S
C740 C739 1.524 . S
C741 C738 1.403 . S
C741 C742 1.392 . S
C741 C745 1.495 . S
C742 C741 1.392 . S
C742 C743 1.385 1_554 S
C742 C744 1.478 1_565 S
C743 H737 0.930 . S
C743 C739 1.400 . S
C743 C742 1.385 1_556 S
C744 C742 1.478 1_545 S
C744 C746 1.381 . S
C744 C750 1.383 1_554 S
C745 C741 1.495 . S
C745 H751 0.959 . S
C745 H752 0.961 . S
C745 H753 0.960 . S
C746 C744 1.381 . S
C746 C747 1.394 . S
C746 H754 0.930 . S
C747 C746 1.394 . S
C747 C748 1.383 . S
C747 H755 0.929 . S
C748 C747 1.383 . S
C748 C749 1.377 1_554 S
C749 H733 0.930 . S
C749 C748 1.377 1_556 S
C749 C750 1.379 . S
C750 H734 0.931 . S
C750 C744 1.383 1_556 S
C750 C749 1.379 . S
H751 C745 0.959 . S
H752 C745 0.961 . S
H753 C745 0.960 . S
H754 C746 0.930 . S
H755 C747 0.929 . S
H756 C764 0.929 . S
H757 C766 0.930 . S
H758 C768 0.930 . S
H759 C771 0.929 . S
H760 C774 0.930 . S
H761 C776 0.960 . S
H762 C776 0.960 . S
H763 C776 0.960 . S
C764 H756 0.929 . S
C764 C765 1.377 . S
C764 C766 1.384 1_655 S
C765 C764 1.377 . S
C765 C771 1.390 1_554 S
C766 H757 0.930 . S
C766 C764 1.384 1_455 S
C766 C767 1.372 . S
C767 C766 1.372 . S
C767 C768 1.400 1_554 S
C767 C772 1.490 . S
C768 H758 0.930 . S
C768 C767 1.400 1_556 S
C768 C771 1.386 1_455 S
H769 C785 0.930 . S
H770 C786 0.931 . S
C771 H759 0.929 . S
C771 C765 1.390 1_556 S
C771 C768 1.386 1_655 S
C772 C767 1.490 . S
C772 C774 1.395 . S
C772 C775 1.403 . S
H773 C779 0.930 . S
C774 H760 0.930 . S
C774 C772 1.395 . S
C774 C777 1.403 . S
C775 C772 1.403 . S
C775 C776 1.524 . S
C775 C779 1.400 . S
C776 H761 0.960 . S
C776 H762 0.960 . S
C776 H763 0.960 . S
C776 C775 1.524 . S
C777 C774 1.403 . S
C777 C778 1.392 . S
C777 C781 1.495 1_554 S
C778 C777 1.392 . S
C778 C779 1.385 . S
C778 C780 1.478 . S
C779 H773 0.930 . S
C779 C775 1.400 . S
C779 C778 1.385 . S
C780 C778 1.478 . S
C780 C782 1.381 . S
C780 C786 1.383 1_554 S
C781 C777 1.495 1_556 S
C781 H787 0.959 . S
C781 H788 0.961 . S
C781 H789 0.960 1_556 S
C782 C780 1.381 . S
C782 C783 1.394 . S
C782 H790 0.930 . S
C783 C782 1.394 . S
C783 C784 1.383 . S
C783 H791 0.929 . S
C784 C783 1.383 . S
C784 C785 1.377 1_554 S
C785 H769 0.930 . S
C785 C784 1.377 1_556 S
C785 C786 1.379 . S
C786 H770 0.931 . S
C786 C780 1.383 1_556 S
C786 C785 1.379 . S
H787 C781 0.959 . S
H788 C781 0.961 . S
H789 C781 0.960 1_554 S
H790 C782 0.930 . S
H791 C783 0.929 . S
H792 C800 0.929 . S
H793 C802 0.930 . S
H794 C804 0.930 . S
H795 C807 0.929 . S
H796 C810 0.930 . S
H797 C812 0.960 . S
H798 C812 0.960 . S
H799 C812 0.960 . S
C800 H792 0.929 . S
C800 C801 1.377 . S
C800 C802 1.384 . S
C801 C800 1.377 . S
C801 C807 1.390 . S
C802 H793 0.930 . S
C802 C800 1.384 . S
C802 C803 1.372 . S
C803 C802 1.372 . S
C803 C804 1.400 . S
C803 C808 1.490 . S
C804 H794 0.930 . S
C804 C803 1.400 . S
C804 C807 1.386 . S
H805 C821 0.930 . S
H806 C822 0.931 . S
C807 H795 0.929 . S
C807 C801 1.390 . S
C807 C804 1.386 . S
C808 C803 1.490 . S
C808 C810 1.395 . S
C808 C811 1.403 . S
H809 C815 0.930 . S
C810 H796 0.930 . S
C810 C808 1.395 . S
C810 C813 1.403 . S
C811 C808 1.403 . S
C811 C812 1.524 . S
C811 C815 1.400 . S
C812 H797 0.960 . S
C812 H798 0.960 . S
C812 H799 0.960 . S
C812 C811 1.524 . S
C813 C810 1.403 . S
C813 C814 1.392 . S
C813 C817 1.495 . S
C814 C813 1.392 . S
C814 C815 1.385 . S
C814 C816 1.478 . S
C815 H809 0.930 . S
C815 C811 1.400 . S
C815 C814 1.385 . S
C816 C814 1.478 . S
C816 C818 1.381 . S
C816 C822 1.383 . S
C817 C813 1.495 . S
C817 H823 0.959 . S
C817 H824 0.961 . S
C817 H825 0.960 . S
C818 C816 1.381 . S
C818 C819 1.394 . S
C818 H826 0.930 . S
C819 C818 1.394 . S
C819 C820 1.383 . S
C819 H827 0.929 . S
C820 C819 1.383 . S
C820 C821 1.377 . S
C821 H805 0.930 . S
C821 C820 1.377 . S
C821 C822 1.379 . S
C822 H806 0.931 . S
C822 C816 1.383 . S
C822 C821 1.379 . S
H823 C817 0.959 . S
H824 C817 0.961 . S
H825 C817 0.960 . S
H826 C818 0.930 . S
H827 C819 0.929 . S
H828 C836 0.929 . S
H829 C838 0.930 . S
H830 C840 0.930 . S
H831 C843 0.929 . S
H832 C846 0.930 . S
H833 C848 0.960 . S
H834 C848 0.960 . S
H835 C848 0.960 . S
C836 H828 0.929 . S
C836 C837 1.377 . S
C836 C838 1.384 . S
C837 C836 1.377 . S
C837 C843 1.390 . S
C838 H829 0.930 . S
C838 C836 1.384 . S
C838 C839 1.372 . S
C839 C838 1.372 . S
C839 C840 1.400 . S
C839 C844 1.490 . S
C840 H830 0.930 . S
C840 C839 1.400 . S
C840 C843 1.386 . S
H841 C857 0.930 . S
H842 C858 0.931 . S
C843 H831 0.929 . S
C843 C837 1.390 . S
C843 C840 1.386 . S
C844 C839 1.490 . S
C844 C846 1.395 . S
C844 C847 1.403 . S
H845 C851 0.930 . S
C846 H832 0.930 . S
C846 C844 1.395 . S
C846 C849 1.403 . S
C847 C844 1.403 . S
C847 C848 1.524 . S
C847 C851 1.400 . S
C848 H833 0.960 . S
C848 H834 0.960 . S
C848 H835 0.960 . S
C848 C847 1.524 . S
C849 C846 1.403 . S
C849 C850 1.392 . S
C849 C853 1.495 . S
C850 C849 1.392 . S
C850 C851 1.385 . S
C850 C852 1.478 . S
C851 H845 0.930 . S
C851 C847 1.400 . S
C851 C850 1.385 . S
C852 C850 1.478 . S
C852 C854 1.381 . S
C852 C858 1.383 . S
C853 C849 1.495 . S
C853 H859 0.959 . S
C853 H860 0.961 . S
C853 H861 0.960 . S
C854 C852 1.381 . S
C854 C855 1.394 . S
C854 H862 0.930 . S
C855 C854 1.394 . S
C855 C856 1.383 . S
C855 H863 0.929 . S
C856 C855 1.383 . S
C856 C857 1.377 . S
C857 H841 0.930 . S
C857 C856 1.377 . S
C857 C858 1.379 . S
C858 H842 0.931 . S
C858 C852 1.383 . S
C858 C857 1.379 . S
H859 C853 0.959 . S
H860 C853 0.961 . S
H861 C853 0.960 . S
H862 C854 0.930 . S
H863 C855 0.929 . S
H864 C872 0.929 . S
H865 C874 0.930 . S
H866 C876 0.930 . S
H867 C879 0.929 . S
H868 C882 0.930 . S
H869 C884 0.960 . S
H870 C884 0.960 . S
H871 C884 0.960 . S
C872 H864 0.929 . S
C872 C873 1.377 . S
C872 C874 1.384 . S
C873 C872 1.377 . S
C873 C879 1.390 . S
C874 H865 0.930 . S
C874 C872 1.384 . S
C874 C875 1.372 . S
C875 C874 1.372 . S
C875 C876 1.400 . S
C875 C880 1.490 . S
C876 H866 0.930 . S
C876 C875 1.400 . S
C876 C879 1.386 . S
H877 C893 0.930 . S
H878 C894 0.931 . S
C879 H867 0.929 . S
C879 C873 1.390 . S
C879 C876 1.386 . S
C880 C875 1.490 . S
C880 C882 1.395 . S
C880 C883 1.403 . S
H881 C887 0.930 . S
C882 H868 0.930 . S
C882 C880 1.395 . S
C882 C885 1.403 . S
C883 C880 1.403 . S
C883 C884 1.524 . S
C883 C887 1.400 . S
C884 H869 0.960 . S
C884 H870 0.960 . S
C884 H871 0.960 . S
C884 C883 1.524 . S
C885 C882 1.403 . S
C885 C886 1.392 . S
C885 C889 1.495 . S
C886 C885 1.392 . S
C886 C887 1.385 . S
C886 C888 1.478 . S
C887 H881 0.930 . S
C887 C883 1.400 . S
C887 C886 1.385 . S
C888 C886 1.478 . S
C888 C890 1.381 . S
C888 C894 1.383 . S
C889 C885 1.495 . S
C889 H895 0.959 . S
C889 H896 0.961 . S
C889 H897 0.960 . S
C890 C888 1.381 . S
C890 C891 1.394 . S
C890 H898 0.930 . S
C891 C890 1.394 . S
C891 C892 1.383 . S
C891 H899 0.929 . S
C892 C891 1.383 . S
C892 C893 1.377 . S
C893 H877 0.930 . S
C893 C892 1.377 . S
C893 C894 1.379 . S
C894 H878 0.931 . S
C894 C888 1.383 . S
C894 C893 1.379 . S
H895 C889 0.959 . S
H896 C889 0.961 . S
H897 C889 0.960 . S
H898 C890 0.930 . S
H899 C891 0.929 . S
H900 C908 0.929 . S
H901 C910 0.930 . S
H902 C912 0.930 . S
H903 C915 0.929 . S
H904 C918 0.930 . S
H905 C920 0.960 . S
H906 C920 0.960 . S
H907 C920 0.960 . S
C908 H900 0.929 . S
C908 C909 1.377 . S
C908 C910 1.384 . S
C909 C908 1.377 . S
C909 C915 1.390 . S
C910 H901 0.930 . S
C910 C908 1.384 . S
C910 C911 1.372 . S
C911 C910 1.372 . S
C911 C912 1.400 . S
C911 C916 1.490 . S
C912 H902 0.930 . S
C912 C911 1.400 . S
C912 C915 1.386 . S
H913 C929 0.930 . S
H914 C930 0.931 . S
C915 H903 0.929 . S
C915 C909 1.390 . S
C915 C912 1.386 . S
C916 C911 1.490 . S
C916 C918 1.395 . S
C916 C919 1.403 . S
H917 C923 0.930 . S
C918 H904 0.930 . S
C918 C916 1.395 . S
C918 C921 1.403 . S
C919 C916 1.403 . S
C919 C920 1.524 . S
C919 C923 1.400 . S
C920 H905 0.960 . S
C920 H906 0.960 . S
C920 H907 0.960 . S
C920 C919 1.524 . S
C921 C918 1.403 . S
C921 C922 1.392 . S
C921 C925 1.495 . S
C922 C921 1.392 . S
C922 C923 1.385 . S
C922 C924 1.478 . S
C923 H917 0.930 . S
C923 C919 1.400 . S
C923 C922 1.385 . S
C924 C922 1.478 . S
C924 C926 1.381 . S
C924 C930 1.383 . S
C925 C921 1.495 . S
C925 H931 0.959 . S
C925 H932 0.961 . S
C925 H933 0.960 . S
C926 C924 1.381 . S
C926 C927 1.394 . S
C926 H934 0.930 . S
C927 C926 1.394 . S
C927 C928 1.383 . S
C927 H935 0.929 . S
C928 C927 1.383 . S
C928 C929 1.377 . S
C929 H913 0.930 . S
C929 C928 1.377 . S
C929 C930 1.379 . S
C930 H914 0.931 . S
C930 C924 1.383 . S
C930 C929 1.379 . S
H931 C925 0.959 . S
H932 C925 0.961 . S
H933 C925 0.960 . S
H934 C926 0.930 . S
H935 C927 0.929 . S
H936 C944 0.929 . S
H937 C946 0.930 . S
H938 C948 0.930 . S
H939 C951 0.929 . S
H940 C954 0.930 . S
H941 C956 0.960 . S
H942 C956 0.960 . S
H943 C956 0.960 . S
C944 H936 0.929 . S
C944 C945 1.377 . S
C944 C946 1.384 . S
C945 C944 1.377 . S
C945 C951 1.390 . S
C946 H937 0.930 . S
C946 C944 1.384 . S
C946 C947 1.372 . S
C947 C946 1.372 . S
C947 C948 1.400 . S
C947 C952 1.490 . S
C948 H938 0.930 . S
C948 C947 1.400 . S
C948 C951 1.386 . S
H949 C965 0.930 . S
H950 C966 0.931 . S
C951 H939 0.929 . S
C951 C945 1.390 . S
C951 C948 1.386 . S
C952 C947 1.490 . S
C952 C954 1.395 . S
C952 C955 1.403 . S
H953 C959 0.930 . S
C954 H940 0.930 . S
C954 C952 1.395 . S
C954 C957 1.403 . S
C955 C952 1.403 . S
C955 C956 1.524 . S
C955 C959 1.400 . S
C956 H941 0.960 . S
C956 H942 0.960 . S
C956 H943 0.960 . S
C956 C955 1.524 . S
C957 C954 1.403 . S
C957 C958 1.392 . S
C957 C961 1.495 . S
C958 C957 1.392 . S
C958 C959 1.385 . S
C958 C960 1.478 . S
C959 H953 0.930 . S
C959 C955 1.400 . S
C959 C958 1.385 . S
C960 C958 1.478 . S
C960 C962 1.381 . S
C960 C966 1.383 . S
C961 C957 1.495 . S
C961 H967 0.959 . S
C961 H968 0.961 . S
C961 H969 0.960 . S
C962 C960 1.381 . S
C962 C963 1.394 . S
C962 H970 0.930 . S
C963 C962 1.394 . S
C963 C964 1.383 . S
C963 H971 0.929 . S
C964 C963 1.383 . S
C964 C965 1.377 . S
C965 H949 0.930 . S
C965 C964 1.377 . S
C965 C966 1.379 . S
C966 H950 0.931 . S
C966 C960 1.383 . S
C966 C965 1.379 . S
H967 C961 0.959 . S
H968 C961 0.961 . S
H969 C961 0.960 . S
H970 C962 0.930 . S
H971 C963 0.929 . S
H972 C980 0.929 . S
H973 C982 0.930 . S
H974 C984 0.930 . S
H975 C987 0.929 . S
H976 C990 0.930 . S
H977 C992 0.960 . S
H978 C992 0.960 . S
H979 C992 0.960 . S
C980 H972 0.929 . S
C980 C981 1.377 . S
C980 C982 1.384 . S
C981 C980 1.377 . S
C981 C987 1.390 . S
C982 H973 0.930 . S
C982 C980 1.384 . S
C982 C983 1.372 . S
C983 C982 1.372 . S
C983 C984 1.400 . S
C983 C988 1.490 . S
C984 H974 0.930 . S
C984 C983 1.400 . S
C984 C987 1.386 . S
H985 C1001 0.930 . S
H986 C1002 0.931 . S
C987 H975 0.929 . S
C987 C981 1.390 . S
C987 C984 1.386 . S
C988 C983 1.490 . S
C988 C990 1.395 . S
C988 C991 1.403 . S
H989 C995 0.930 . S
C990 H976 0.930 . S
C990 C988 1.395 . S
C990 C993 1.403 . S
C991 C988 1.403 . S
C991 C992 1.524 . S
C991 C995 1.400 . S
C992 H977 0.960 . S
C992 H978 0.960 . S
C992 H979 0.960 . S
C992 C991 1.524 . S
C993 C990 1.403 . S
C993 C994 1.392 . S
C993 C997 1.495 . S
C994 C993 1.392 . S
C994 C995 1.385 . S
C994 C996 1.478 . S
C995 H989 0.930 . S
C995 C991 1.400 . S
C995 C994 1.385 . S
C996 C994 1.478 . S
C996 C998 1.381 . S
C996 C1002 1.383 . S
C997 C993 1.495 . S
C997 H1003 0.959 . S
C997 H1004 0.961 . S
C997 H1005 0.960 . S
C998 C996 1.381 . S
C998 C999 1.394 . S
C998 H1006 0.930 . S
C999 C998 1.394 . S
C999 C1000 1.383 . S
C999 H1007 0.929 . S
C1000 C999 1.383 . S
C1000 C1001 1.377 . S
C1001 H985 0.930 . S
C1001 C1000 1.377 . S
C1001 C1002 1.379 . S
C1002 H986 0.931 . S
C1002 C996 1.383 . S
C1002 C1001 1.379 . S
H1003 C997 0.959 . S
H1004 C997 0.961 . S
H1005 C997 0.960 . S
H1006 C998 0.930 . S
H1007 C999 0.929 . S
H1008 C1016 0.929 . S
H1009 C1018 0.930 . S
H1010 C1020 0.930 . S
H1011 C1023 0.929 . S
H1012 C1026 0.930 . S
H1013 C1028 0.960 . S
H1014 C1028 0.960 1_655 S
H1015 C1028 0.960 . S
C1016 H1008 0.929 . S
C1016 C1017 1.377 1_655 S
C1016 C1018 1.384 . S
C1017 C1016 1.377 1_455 S
C1017 C1023 1.390 . S
C1018 H1009 0.930 . S
C1018 C1016 1.384 . S
C1018 C1019 1.372 1_655 S
C1019 C1018 1.372 1_455 S
C1019 C1020 1.400 . S
C1019 C1024 1.490 . S
C1020 H1010 0.930 . S
C1020 C1019 1.400 . S
C1020 C1023 1.386 . S
H1021 C1037 0.930 . S
H1022 C1038 0.931 . S
C1023 H1011 0.929 . S
C1023 C1017 1.390 . S
C1023 C1020 1.386 . S
C1024 C1019 1.490 . S
C1024 C1026 1.395 . S
C1024 C1027 1.403 . S
H1025 C1031 0.930 . S
C1026 H1012 0.930 . S
C1026 C1024 1.395 . S
C1026 C1029 1.403 . S
C1027 C1024 1.403 . S
C1027 C1028 1.524 . S
C1027 C1031 1.400 . S
C1028 H1013 0.960 . S
C1028 H1014 0.960 1_455 S
C1028 H1015 0.960 . S
C1028 C1027 1.524 . S
C1029 C1026 1.403 . S
C1029 C1030 1.392 . S
C1029 C1033 1.495 . S
C1030 C1029 1.392 . S
C1030 C1031 1.385 . S
C1030 C1032 1.478 . S
C1031 H1025 0.930 . S
C1031 C1027 1.400 . S
C1031 C1030 1.385 . S
C1032 C1030 1.478 . S
C1032 C1034 1.345 1_455 S
C1032 C1038 1.383 . S
C1033 C1029 1.495 . S
C1033 H1039 0.959 . S
C1033 H1040 0.961 . S
C1033 H1041 0.960 . S
C1034 C1032 1.345 1_655 S
C1034 C1035 1.392 . S
C1034 H1042 0.971 . S
C1035 C1034 1.392 . S
C1035 C1036 1.384 1_655 S
C1035 H1043 0.929 . S
C1036 C1035 1.384 1_455 S
C1036 C1037 1.377 . S
C1037 H1021 0.930 . S
C1037 C1036 1.377 . S
C1037 C1038 1.379 . S
C1038 H1022 0.931 . S
C1038 C1032 1.383 . S
C1038 C1037 1.379 . S
H1039 C1033 0.959 . S
H1040 C1033 0.961 . S
H1041 C1033 0.960 . S
H1042 C1034 0.971 . S
H1043 C1035 0.929 . S
H1044 C1052 0.929 . S
H1045 C1054 0.930 . S
H1046 C1056 0.930 . S
H1047 C1059 0.929 . S
H1048 C1062 0.930 . S
H1049 C1064 0.960 . S
H1050 C1064 0.960 . S
H1051 C1064 0.960 . S
C1052 H1044 0.929 . S
C1052 C1053 1.377 . S
C1052 C1054 1.384 . S
C1053 C1052 1.377 . S
C1053 C1059 1.390 . S
C1054 H1045 0.930 . S
C1054 C1052 1.384 . S
C1054 C1055 1.372 . S
C1055 C1054 1.372 . S
C1055 C1056 1.400 . S
C1055 C1060 1.490 . S
C1056 H1046 0.930 . S
C1056 C1055 1.400 . S
C1056 C1059 1.386 . S
H1057 C1073 0.930 . S
H1058 C1074 0.931 . S
C1059 H1047 0.929 . S
C1059 C1053 1.390 . S
C1059 C1056 1.386 . S
C1060 C1055 1.490 . S
C1060 C1062 1.395 . S
C1060 C1063 1.403 . S
H1061 C1067 0.930 . S
C1062 H1048 0.930 . S
C1062 C1060 1.395 . S
C1062 C1065 1.403 . S
C1063 C1060 1.403 . S
C1063 C1064 1.524 . S
C1063 C1067 1.400 . S
C1064 H1049 0.960 . S
C1064 H1050 0.960 . S
C1064 H1051 0.960 . S
C1064 C1063 1.524 . S
C1065 C1062 1.403 . S
C1065 C1066 1.392 . S
C1065 C1069 1.495 . S
C1066 C1065 1.392 . S
C1066 C1067 1.385 . S
C1066 C1068 1.478 . S
C1067 H1061 0.930 . S
C1067 C1063 1.400 . S
C1067 C1066 1.385 . S
C1068 C1066 1.478 . S
C1068 C1070 1.381 . S
C1068 C1074 1.383 . S
C1069 C1065 1.495 . S
C1069 H1075 0.959 . S
C1069 H1076 0.961 . S
C1069 H1077 0.960 . S
C1070 C1068 1.381 . S
C1070 C1071 1.394 . S
C1070 H1078 0.930 . S
C1071 C1070 1.394 . S
C1071 C1072 1.383 . S
C1071 H1079 0.929 . S
C1072 C1071 1.383 . S
C1072 C1073 1.377 . S
C1073 H1057 0.930 . S
C1073 C1072 1.377 . S
C1073 C1074 1.379 . S
C1074 H1058 0.931 . S
C1074 C1068 1.383 . S
C1074 C1073 1.379 . S
H1075 C1069 0.959 . S
H1076 C1069 0.961 . S
H1077 C1069 0.960 . S
H1078 C1070 0.930 . S
H1079 C1071 0.929 . S
H1080 C1088 0.929 . S
H1081 C1090 0.930 . S
H1082 C1092 0.930 1_565 S
H1083 C1095 0.886 1_565 S
H1084 C1098 0.930 . S
H1085 C1100 0.960 . S
H1086 C1100 0.960 . S
H1087 C1100 0.960 . S
C1088 H1080 0.929 . S
C1088 C1089 1.377 . S
C1088 C1090 1.384 . S
C1089 C1088 1.377 . S
C1089 C1095 1.390 . S
C1090 H1081 0.930 . S
C1090 C1088 1.384 . S
C1090 C1091 1.372 . S
C1091 C1090 1.372 . S
C1091 C1092 1.400 . S
C1091 C1096 1.490 . S
C1092 H1082 0.930 1_545 S
C1092 C1091 1.400 . S
C1092 C1095 1.386 . S
H1093 C1109 0.930 1_565 S
H1094 C1110 0.931 . S
C1095 H1083 0.886 1_545 S
C1095 C1089 1.390 . S
C1095 C1092 1.386 . S
C1096 C1091 1.490 . S
C1096 C1098 1.395 . S
C1096 C1099 1.403 1_545 S
H1097 C1103 0.967 . S
C1098 H1084 0.930 . S
C1098 C1096 1.395 . S
C1098 C1101 1.403 . S
C1099 C1096 1.403 1_565 S
C1099 C1100 1.524 . S
C1099 C1103 1.404 . S
C1100 H1085 0.960 . S
C1100 H1086 0.960 . S
C1100 H1087 0.960 . S
C1100 C1099 1.524 . S
C1101 C1098 1.403 . S
C1101 C1102 1.392 . S
C1101 C1105 1.495 . S
C1102 C1101 1.392 . S
C1102 C1103 1.349 1_545 S
C1102 C1104 1.478 . S
C1103 H1097 0.967 . S
C1103 C1099 1.404 . S
C1103 C1102 1.349 1_565 S
C1104 C1102 1.478 . S
C1104 C1106 1.381 . S
C1104 C1110 1.383 . S
C1105 C1101 1.495 . S
C1105 H1111 0.959 . S
C1105 H1112 0.961 . S
C1105 H1113 0.960 . S
C1106 C1104 1.381 . S
C1106 C1107 1.394 . S
C1106 H1114 0.930 . S
C1107 C1106 1.394 . S
C1107 C1108 1.383 . S
C1107 H1115 0.929 . S
C1108 C1107 1.383 . S
C1108 C1109 1.377 . S
C1109 H1093 0.930 1_545 S
C1109 C1108 1.377 . S
C1109 C1110 1.379 . S
C1110 H1094 0.931 . S
C1110 C1104 1.383 . S
C1110 C1109 1.379 . S
H1111 C1105 0.959 . S
H1112 C1105 0.961 . S
H1113 C1105 0.960 . S
H1114 C1106 0.930 . S
H1115 C1107 0.929 . S
H1116 C1124 0.929 . S
H1117 C1126 0.930 . S
H1118 C1128 0.930 . S
H1119 C1131 0.929 . S
H1120 C1134 0.930 . S
H1121 C1136 0.960 . S
H1122 C1136 0.960 . S
H1123 C1136 0.960 . S
C1124 H1116 0.929 . S
C1124 C1125 1.377 . S
C1124 C1126 1.384 . S
C1125 C1124 1.377 . S
C1125 C1131 1.390 . S
C1126 H1117 0.930 . S
C1126 C1124 1.384 . S
C1126 C1127 1.372 . S
C1127 C1126 1.372 . S
C1127 C1128 1.400 . S
C1127 C1132 1.490 . S
C1128 H1118 0.930 . S
C1128 C1127 1.400 . S
C1128 C1131 1.386 . S
H1129 C1145 0.930 . S
H1130 C1146 0.931 . S
C1131 H1119 0.929 . S
C1131 C1125 1.390 . S
C1131 C1128 1.386 . S
C1132 C1127 1.490 . S
C1132 C1134 1.395 . S
C1132 C1135 1.403 . S
H1133 C1139 0.930 . S
C1134 H1120 0.930 . S
C1134 C1132 1.395 . S
C1134 C1137 1.403 . S
C1135 C1132 1.403 . S
C1135 C1136 1.524 . S
C1135 C1139 1.400 . S
C1136 H1121 0.960 . S
C1136 H1122 0.960 . S
C1136 H1123 0.960 . S
C1136 C1135 1.524 . S
C1137 C1134 1.403 . S
C1137 C1138 1.392 . S
C1137 C1141 1.495 . S
C1138 C1137 1.392 . S
C1138 C1139 1.385 . S
C1138 C1140 1.478 . S
C1139 H1133 0.930 . S
C1139 C1135 1.400 . S
C1139 C1138 1.385 . S
C1140 C1138 1.478 . S
C1140 C1142 1.381 1_556 S
C1140 C1146 1.383 1_556 S
C1141 C1137 1.495 . S
C1141 H1147 0.959 . S
C1141 H1148 0.961 . S
C1141 H1149 0.960 . S
C1142 C1140 1.381 1_554 S
C1142 C1143 1.394 . S
C1142 H1150 0.930 . S
C1143 C1142 1.394 . S
C1143 C1144 1.383 . S
C1143 H1151 0.929 . S
C1144 C1143 1.383 . S
C1144 C1145 1.377 . S
C1145 H1129 0.930 . S
C1145 C1144 1.377 . S
C1145 C1146 1.379 . S
C1146 H1130 0.931 . S
C1146 C1140 1.383 1_554 S
C1146 C1145 1.379 . S
H1147 C1141 0.959 . S
H1148 C1141 0.961 . S
H1149 C1141 0.960 . S
H1150 C1142 0.930 . S
H1151 C1143 0.929 . S
H1152 C1160 0.929 . S
H1153 C1162 0.930 . S
H1154 C1164 0.930 . S
H1155 C1167 0.929 . S
H1156 C1170 0.930 . S
H1157 C1172 0.960 . S
H1158 C1172 0.960 . S
H1159 C1172 0.960 . S
C1160 H1152 0.929 . S
C1160 C1161 1.377 . S
C1160 C1162 1.384 . S
C1161 C1160 1.377 . S
C1161 C1167 1.390 . S
C1162 H1153 0.930 . S
C1162 C1160 1.384 . S
C1162 C1163 1.372 . S
C1163 C1162 1.372 . S
C1163 C1164 1.400 . S
C1163 C1168 1.490 . S
C1164 H1154 0.930 . S
C1164 C1163 1.400 . S
C1164 C1167 1.386 . S
H1165 C1181 0.930 . S
H1166 C1182 0.931 . S
C1167 H1155 0.929 . S
C1167 C1161 1.390 . S
C1167 C1164 1.386 . S
C1168 C1163 1.490 . S
C1168 C1170 1.395 . S
C1168 C1171 1.403 . S
H1169 C1175 0.930 . S
C1170 H1156 0.930 . S
C1170 C1168 1.395 . S
C1170 C1173 1.403 . S
C1171 C1168 1.403 . S
C1171 C1172 1.524 . S
C1171 C1175 1.400 . S
C1172 H1157 0.960 . S
C1172 H1158 0.960 . S
C1172 H1159 0.960 . S
C1172 C1171 1.524 . S
C1173 C1170 1.403 . S
C1173 C1174 1.392 . S
C1173 C1177 1.495 . S
C1174 C1173 1.392 . S
C1174 C1175 1.385 . S
C1174 C1176 1.484 . S
C1175 H1169 0.930 . S
C1175 C1171 1.400 . S
C1175 C1174 1.385 . S
C1176 C1174 1.484 . S
C1176 C1178 1.377 1_556 S
C1176 C1182 1.379 1_556 S
C1177 C1173 1.495 . S
C1177 H1183 0.959 . S
C1177 H1184 0.961 . S
C1177 H1185 0.960 . S
C1178 C1176 1.377 1_554 S
C1178 C1179 1.394 . S
C1178 H1186 0.930 . S
C1179 C1178 1.394 . S
C1179 C1180 1.383 . S
C1179 H1187 0.929 . S
C1180 C1179 1.383 . S
C1180 C1181 1.377 . S
C1181 H1165 0.930 . S
C1181 C1180 1.377 . S
C1181 C1182 1.379 . S
C1182 H1166 0.931 . S
C1182 C1176 1.379 1_554 S
C1182 C1181 1.379 . S
H1183 C1177 0.959 . S
H1184 C1177 0.961 . S
H1185 C1177 0.960 . S
H1186 C1178 0.930 . S
H1187 C1179 0.929 . S
H1188 C1196 0.929 . S
H1189 C1198 0.930 . S
H1190 C1200 0.930 . S
H1191 C1203 0.929 . S
H1192 C1206 0.930 . S
H1193 C1208 0.960 . S
H1194 C1208 0.960 . S
H1195 C1208 0.960 . S
C1196 H1188 0.929 . S
C1196 C1197 1.377 . S
C1196 C1198 1.384 . S
C1197 C1196 1.377 . S
C1197 C1203 1.390 . S
C1198 H1189 0.930 . S
C1198 C1196 1.384 . S
C1198 C1199 1.372 . S
C1199 C1198 1.372 . S
C1199 C1200 1.400 . S
C1199 C1204 1.490 . S
C1200 H1190 0.930 . S
C1200 C1199 1.400 . S
C1200 C1203 1.386 . S
H1201 C1217 0.930 . S
H1202 C1218 0.931 . S
C1203 H1191 0.929 . S
C1203 C1197 1.390 . S
C1203 C1200 1.386 . S
C1204 C1199 1.490 . S
C1204 C1206 1.395 . S
C1204 C1207 1.403 . S
H1205 C1211 0.930 . S
C1206 H1192 0.930 . S
C1206 C1204 1.395 . S
C1206 C1209 1.403 . S
C1207 C1204 1.403 . S
C1207 C1208 1.524 . S
C1207 C1211 1.400 . S
C1208 H1193 0.960 . S
C1208 H1194 0.960 . S
C1208 H1195 0.960 . S
C1208 C1207 1.524 . S
C1209 C1206 1.403 . S
C1209 C1210 1.392 . S
C1209 C1213 1.495 . S
C1210 C1209 1.392 . S
C1210 C1211 1.385 . S
C1210 C1212 1.478 . S
C1211 H1205 0.930 . S
C1211 C1207 1.400 . S
C1211 C1210 1.385 . S
C1212 C1210 1.478 . S
C1212 C1214 1.381 1_556 S
C1212 C1218 1.383 1_556 S
C1213 C1209 1.495 . S
C1213 H1219 0.959 . S
C1213 H1220 0.961 . S
C1213 H1221 0.960 . S
C1214 C1212 1.381 1_554 S
C1214 C1215 1.394 . S
C1214 H1222 0.930 . S
C1215 C1214 1.394 . S
C1215 C1216 1.383 . S
C1215 H1223 0.929 . S
C1216 C1215 1.383 . S
C1216 C1217 1.377 . S
C1217 H1201 0.930 . S
C1217 C1216 1.377 . S
C1217 C1218 1.379 . S
C1218 H1202 0.931 . S
C1218 C1212 1.383 1_554 S
C1218 C1217 1.379 . S
H1219 C1213 0.959 . S
H1220 C1213 0.961 . S
H1221 C1213 0.960 . S
H1222 C1214 0.930 . S
H1223 C1215 0.929 . S
H1224 C1232 0.929 . S
H1225 C1234 0.930 . S
H1226 C1236 0.930 . S
H1227 C1239 0.929 . S
H1228 C1242 0.930 . S
H1229 C1244 0.960 . S
H1230 C1244 0.960 . S
H1231 C1244 0.960 . S
C1232 H1224 0.929 . S
C1232 C1233 1.377 . S
C1232 C1234 1.384 . S
C1233 C1232 1.377 . S
C1233 C1239 1.390 . S
C1234 H1225 0.930 . S
C1234 C1232 1.384 . S
C1234 C1235 1.372 . S
C1235 C1234 1.372 . S
C1235 C1236 1.400 . S
C1235 C1240 1.490 . S
C1236 H1226 0.930 . S
C1236 C1235 1.400 . S
C1236 C1239 1.386 . S
H1237 C1253 0.930 . S
H1238 C1254 0.931 1_554 S
C1239 H1227 0.929 . S
C1239 C1233 1.390 . S
C1239 C1236 1.386 . S
C1240 C1235 1.490 . S
C1240 C1242 1.395 . S
C1240 C1243 1.403 . S
H1241 C1247 0.930 . S
C1242 H1228 0.930 . S
C1242 C1240 1.395 . S
C1242 C1245 1.403 . S
C1243 C1240 1.403 . S
C1243 C1244 1.524 . S
C1243 C1247 1.400 . S
C1244 H1229 0.960 . S
C1244 H1230 0.960 . S
C1244 H1231 0.960 . S
C1244 C1243 1.524 . S
C1245 C1242 1.403 . S
C1245 C1246 1.392 . S
C1245 C1249 1.495 . S
C1246 C1245 1.392 . S
C1246 C1247 1.385 . S
C1246 C1248 1.478 . S
C1247 H1241 0.930 . S
C1247 C1243 1.400 . S
C1247 C1246 1.385 . S
C1248 C1246 1.478 . S
C1248 C1250 1.381 1_554 S
C1248 C1254 1.383 1_554 S
C1249 C1245 1.495 . S
C1249 H1255 0.959 . S
C1249 H1256 0.961 . S
C1249 H1257 0.960 . S
C1250 C1248 1.381 1_556 S
C1250 C1251 1.394 . S
C1250 H1258 0.930 . S
C1251 C1250 1.394 . S
C1251 C1252 1.383 . S
C1251 H1259 0.929 . S
C1252 C1251 1.383 . S
C1252 C1253 1.377 . S
C1253 H1237 0.930 . S
C1253 C1252 1.377 . S
C1253 C1254 1.379 . S
C1254 H1238 0.931 1_556 S
C1254 C1248 1.383 1_556 S
C1254 C1253 1.379 . S
H1255 C1249 0.959 . S
H1256 C1249 0.961 . S
H1257 C1249 0.960 . S
H1258 C1250 0.930 . S
H1259 C1251 0.929 . S
H1260 C1268 0.929 . S
H1261 C1270 0.930 . S
H1262 C1272 0.930 1_554 S
H1263 C1275 0.929 . S
H1264 C1278 0.930 . S
H1265 C1280 0.960 . S
H1266 C1280 0.960 . S
H1267 C1280 0.960 . S
C1268 H1260 0.929 . S
C1268 C1269 1.377 . S
C1268 C1270 1.384 . S
C1269 C1268 1.377 . S
C1269 C1275 1.390 . S
C1270 H1261 0.930 . S
C1270 C1268 1.384 . S
C1270 C1271 1.372 1_556 S
C1271 C1270 1.372 1_554 S
C1271 C1272 1.400 1_554 S
C1271 C1276 1.490 . S
C1272 H1262 0.930 1_556 S
C1272 C1271 1.400 1_556 S
C1272 C1275 1.386 . S
H1273 C1289 0.930 . S
H1274 C1290 0.931 . S
C1275 H1263 0.929 . S
C1275 C1269 1.390 . S
C1275 C1272 1.386 . S
C1276 C1271 1.490 . S
C1276 C1278 1.395 . S
C1276 C1279 1.403 . S
H1277 C1283 0.930 . S
C1278 H1264 0.930 . S
C1278 C1276 1.395 . S
C1278 C1281 1.403 . S
C1279 C1276 1.403 . S
C1279 C1280 1.524 . S
C1279 C1283 1.400 . S
C1280 H1265 0.960 . S
C1280 H1266 0.960 . S
C1280 H1267 0.960 . S
C1280 C1279 1.524 . S
C1281 C1278 1.403 . S
C1281 C1282 1.392 . S
C1281 C1285 1.495 . S
C1282 C1281 1.392 . S
C1282 C1283 1.385 . S
C1282 C1284 1.478 . S
C1283 H1277 0.930 . S
C1283 C1279 1.400 . S
C1283 C1282 1.385 . S
C1284 C1282 1.478 . S
C1284 C1286 1.381 . S
C1284 C1290 1.383 . S
C1285 C1281 1.495 . S
C1285 H1291 0.959 . S
C1285 H1292 0.961 . S
C1285 H1293 0.960 . S
C1286 C1284 1.381 . S
C1286 C1287 1.394 . S
C1286 H1294 0.930 . S
C1287 C1286 1.394 . S
C1287 C1288 1.383 . S
C1287 H1295 0.929 . S
C1288 C1287 1.383 . S
C1288 C1289 1.377 . S
C1289 H1273 0.930 . S
C1289 C1288 1.377 . S
C1289 C1290 1.379 . S
C1290 H1274 0.931 . S
C1290 C1284 1.383 . S
C1290 C1289 1.379 . S
H1291 C1285 0.959 . S
H1292 C1285 0.961 . S
H1293 C1285 0.960 . S
H1294 C1286 0.930 . S
H1295 C1287 0.929 . S
H1296 C1304 0.929 . S
H1297 C1306 0.930 . S
H1298 C1308 0.930 . S
H1299 C1311 0.929 . S
H1300 C1314 0.930 . S
H1301 C1316 0.960 . S
H1302 C1316 0.960 . S
H1303 C1316 0.960 . S
C1304 H1296 0.929 . S
C1304 C1305 1.377 . S
C1304 C1306 1.384 . S
C1305 C1304 1.377 . S
C1305 C1311 1.390 . S
C1306 H1297 0.930 . S
C1306 C1304 1.384 . S
C1306 C1307 1.372 . S
C1307 C1306 1.372 . S
C1307 C1308 1.400 . S
C1307 C1312 1.490 . S
C1308 H1298 0.930 . S
C1308 C1307 1.400 . S
C1308 C1311 1.386 . S
H1309 C1325 0.930 . S
H1310 C1326 0.931 . S
C1311 H1299 0.929 . S
C1311 C1305 1.390 . S
C1311 C1308 1.386 . S
C1312 C1307 1.490 . S
C1312 C1314 1.395 . S
C1312 C1315 1.403 . S
H1313 C1319 0.930 . S
C1314 H1300 0.930 . S
C1314 C1312 1.395 . S
C1314 C1317 1.403 . S
C1315 C1312 1.403 . S
C1315 C1316 1.524 . S
C1315 C1319 1.400 . S
C1316 H1301 0.960 . S
C1316 H1302 0.960 . S
C1316 H1303 0.960 . S
C1316 C1315 1.524 . S
C1317 C1314 1.403 . S
C1317 C1318 1.392 . S
C1317 C1321 1.495 . S
C1318 C1317 1.392 . S
C1318 C1319 1.385 . S
C1318 C1320 1.478 . S
C1319 H1313 0.930 . S
C1319 C1315 1.400 . S
C1319 C1318 1.385 . S
C1320 C1318 1.478 . S
C1320 C1322 1.381 1_554 S
C1320 C1326 1.383 1_554 S
C1321 C1317 1.495 . S
C1321 H1327 0.959 . S
C1321 H1328 0.961 . S
C1321 H1329 0.960 . S
C1322 C1320 1.381 1_556 S
C1322 C1323 1.394 . S
C1322 H1330 0.930 1_556 S
C1323 C1322 1.394 . S
C1323 C1324 1.383 . S
C1323 H1331 0.929 . S
C1324 C1323 1.383 . S
C1324 C1325 1.377 . S
C1325 H1309 0.930 . S
C1325 C1324 1.377 . S
C1325 C1326 1.379 . S
C1326 H1310 0.931 . S
C1326 C1320 1.383 1_556 S
C1326 C1325 1.379 . S
H1327 C1321 0.959 . S
H1328 C1321 0.961 . S
H1329 C1321 0.960 . S
H1330 C1322 0.930 1_554 S
H1331 C1323 0.929 . S
C369 C6 1.974 . S
C388 C290 1.918 . S
C405 C46 1.975 . S
C424 C330 1.918 . S
C441 C86 1.976 . S
C460 C250 1.871 . S
C477 C166 1.975 . S
C496 C90 1.919 . S
C513 C206 1.975 . S
C532 C10 1.914 . S
C549 C50 1.901 . S
C568 C126 1.981 . S
C585 C286 1.976 . S
C604 C210 1.871 . S
C621 C326 1.976 . S
C640 C130 1.871 . S
C657 C170 1.903 . S
C676 C246 1.966 . S
C693 C95 1.712 . S
C712 C19 1.695 1_554 S
C729 C59 1.705 1_554 S
C748 C15 1.714 . S
C765 C55 1.712 . S
C784 C99 1.694 1_554 S
C801 C139 1.704 . S
C820 C215 1.709 . S
C837 C135 1.709 . S
C856 C179 1.703 . S
C873 C175 1.712 . S
C892 C219 1.697 . S
C909 C335 1.710 . S
C928 C259 1.694 . S
C945 C299 1.704 . S
C964 C255 1.701 . S
C981 C339 1.708 . S
C1000 C295 1.706 . S
C1017 C18 0.822 . S
C1036 C9 0.799 . S
C1053 C58 0.822 . S
C1072 C49 0.823 . S
C1089 C98 0.827 . S
C1108 C89 0.857 . S
C1125 C129 0.830 . S
C1144 C138 0.865 . S
C1161 C169 0.840 . S
C1180 C178 0.843 . S
C1197 C209 0.831 . S
C1216 C218 0.792 . S
C1233 C258 0.831 . S
C1252 C249 0.792 . S
C1269 C289 0.822 . S
C1288 C298 0.804 . S
C1305 C338 0.838 . S
C1324 C329 0.869 . S
