# Generated by pormake.
# Topology sxb, (6)-cn, num edge types: 1
# Building blocks:
#     Node 0, Type 0, BuildingBlock: GEDQOX_clean_sbu_0, # of connection points: 6
#     Node 1, Type 0, BuildingBlock: GEDQOX_clean_sbu_0, # of connection points: 6
#     Node 2, Type 0, BuildingBlock: GEDQOX_clean_sbu_0, # of connection points: 6
#     Node 3, Type 0, BuildingBlock: GEDQOX_clean_sbu_0, # of connection points: 6
#     Edge 4, Type (0, 0), BuildingBlock: ZUJKAS_clean_linker_0, # of connection points: 2
#     Edge 5, Type (0, 0), BuildingBlock: ZUJKAS_clean_linker_0, # of connection points: 2
#     Edge 6, Type (0, 0), BuildingBlock: ZUJKAS_clean_linker_0, # of connection points: 2
#     Edge 7, Type (0, 0), BuildingBlock: ZUJKAS_clean_linker_0, # of connection points: 2
#     Edge 8, Type (0, 0), BuildingBlock: ZUJKAS_clean_linker_0, # of connection points: 2
#     Edge 9, Type (0, 0), BuildingBlock: ZUJKAS_clean_linker_0, # of connection points: 2
#     Edge 10, Type (0, 0), BuildingBlock: ZUJKAS_clean_linker_0, # of connection points: 2
#     Edge 11, Type (0, 0), BuildingBlock: ZUJKAS_clean_linker_0, # of connection points: 2
#     Edge 12, Type (0, 0), BuildingBlock: ZUJKAS_clean_linker_0, # of connection points: 2
#     Edge 13, Type (0, 0), BuildingBlock: ZUJKAS_clean_linker_0, # of connection points: 2
#     Edge 14, Type (0, 0), BuildingBlock: ZUJKAS_clean_linker_0, # of connection points: 2
#     Edge 15, Type (0, 0), BuildingBlock: ZUJKAS_clean_linker_0, # of connection points: 2
# Relax obj value: 0.264
# Max RMSD: 0.117
# Mean RMSD: 0.070
data_MOF--net-sxb--node1-GEDQOX_clean_sbu_0--edge1-ZUJKAS_clean_linker_0
_symmetry_space_group_name_H-M    P1
_symmetry_Int_Tables_number       1
_symmetry_cell_setting            triclinic
loop_
_symmetry_equiv_pos_as_xyz
'x, y, z'
_cell_length_a     21.456135
_cell_length_b     42.864847
_cell_length_c     39.210116
_cell_angle_alpha  87.445454
_cell_angle_beta   94.880989
_cell_angle_gamma 108.77939
loop_
_atom_site_label
_atom_site_type_symbol
_atom_site_fract_x
_atom_site_fract_y
_atom_site_fract_z
_atom_type_partial_charge
Nd0 Nd 0.16028 0.07767 0.96107 0.0
Nd1 Nd 1.10829 1.01025 0.95102 0.0
C2 C 0.19593 0.13885 0.98324 0.0
C3 C 0.16653 0.15965 0.00034 0.0
C4 C 1.10186 0.1469 0.0103 0.0
C5 C 1.07288 0.16743 0.02484 0.0
C6 C 1.10835 0.20098 0.02973 0.0
C7 C 0.17422 0.21324 0.021 0.0
C8 C 0.20304 0.19268 0.00633 0.0
C9 C 0.15379 0.06305 0.89254 0.0
C10 C 0.99204 1.04429 0.95457 0.0
C11 C 1.08207 0.94892 0.93145 0.0
C12 C 1.1213 0.92635 0.93584 0.0
C13 C 0.18769 0.9369 0.92802 0.0
C14 C 0.22874 0.91852 0.93925 0.0
C15 C 0.20413 0.88931 0.95842 0.0
C16 C 1.13664 0.87756 0.96407 0.0
C17 C 1.09553 0.896 0.95286 0.0
C18 C 1.11564 1.02492 0.0196 0.0
C19 C 0.2773 1.0434 0.95745 0.0
O20 O 0.20469 0.11424 0.00156 0.0
O21 O 0.17239 0.13065 0.95192 0.0
O22 O 0.20466 0.08337 0.9089 0.0
O23 O 1.1081 0.05069 0.91237 0.0
O24 O 1.04439 0.06914 0.9664 0.0
O25 O 1.00443 1.01856 0.94258 0.0
O26 O 1.1036 0.97443 0.91102 0.0
O27 O 1.06318 0.95656 0.9598 0.0
O28 O 1.06487 1.00434 0.00353 0.0
O29 O 0.16088 1.03716 -0.00049 0.0
O30 O 0.22452 1.01694 0.95048 0.0
O31 O 0.26573 0.07097 0.96435 0.0
H32 H 1.0733 0.12132 0.00609 0.0
H33 H 1.02177 0.15734 0.03079 0.0
H34 H 0.20289 0.2389 0.02477 0.0
H35 H 0.25335 0.2027 -0.00095 0.0
H36 H 0.20889 0.96013 0.91473 0.0
H37 H 0.28032 0.92773 0.93395 0.0
H38 H 1.11646 0.85511 0.97884 0.0
H39 H 1.04453 0.88751 0.95923 0.0
Nd40 Nd 1.08356 1.04707 0.4548 0.0
Nd41 Nd 0.20026 1.0357 0.46021 0.0
C42 C 0.98464 0.06747 0.46783 0.0
C43 C 0.96518 0.07334 0.50137 0.0
C44 C 1.01318 0.08482 0.52873 0.0
C45 C 0.99427 0.08694 0.56158 0.0
C46 C 0.92717 0.07702 0.56758 0.0
C47 C 0.8794 0.06603 0.54007 0.0
C48 C 0.89828 0.06422 0.50724 0.0
C49 C 1.11064 1.03522 0.38932 0.0
C50 C 1.06986 0.97085 0.45611 0.0
C51 C 0.30607 1.01688 0.46847 0.0
C52 C 0.35715 1.0246 0.49719 0.0
C53 C 0.3804 0.05644 0.51076 0.0
C54 C 0.42092 0.06267 0.54111 0.0
C55 C 0.43857 1.03715 0.5588 0.0
C56 C 0.41558 1.00532 0.54502 0.0
C57 C 0.37528 0.99914 0.51448 0.0
C58 C 0.16828 0.05002 0.524 0.0
C59 C 0.21827 0.1123 0.45476 0.0
O60 O 1.04102 0.08741 0.45883 0.0
O61 O 0.97708 1.03678 0.46173 0.0
O62 O 1.05303 1.02526 0.40125 0.0
O63 O 0.15316 0.05224 0.41138 0.0
O64 O 1.04338 0.99134 0.46844 0.0
O65 O 1.12868 0.98366 0.44418 0.0
O66 O 0.30271 1.04136 0.44812 0.0
O67 O 0.24816 0.99825 0.47685 0.0
O68 O 0.22446 0.06349 0.51138 0.0
O69 O 1.12982 1.03038 0.50267 0.0
O70 O 0.24699 0.09098 0.44682 0.0
O71 O 0.15691 0.10066 0.46377 0.0
H72 H 1.06529 0.09143 0.52489 0.0
H73 H 1.03185 0.09542 0.58239 0.0
H74 H 0.82723 0.05874 0.54401 0.0
H75 H 0.86067 0.055 0.4866 0.0
H76 H 0.36611 0.07646 0.49835 0.0
H77 H 0.43877 0.0876 0.55055 0.0
H78 H 0.42774 0.98503 0.55813 0.0
H79 H 0.35659 0.97425 0.50492 0.0
Nd80 Nd 0.66051 0.5773 0.96045 0.0
Nd81 Nd 0.60922 0.51008 0.95093 0.0
C82 C 0.69497 0.63855 0.98203 0.0
C83 C 0.66537 0.65825 0.00072 0.0
C84 C 0.61128 0.64303 0.02008 0.0
C85 C 0.58079 0.66214 0.03597 0.0
C86 C 0.60379 0.69669 0.0325 0.0
C87 C 0.65958 0.71174 0.01405 0.0
C88 C 0.69012 0.69261 -0.0017 0.0
C89 C 0.65403 0.56248 0.89196 0.0
C90 C 0.49284 0.54412 0.9542 0.0
C91 C 0.58047 0.44825 0.93216 0.0
C92 C 0.61461 0.42363 0.93839 0.0
C93 C 0.68281 0.4323 0.93531 0.0
C94 C 0.71695 0.41075 0.94694 0.0
C95 C 0.68352 0.38015 0.96187 0.0
C96 C 0.61473 0.37086 0.9634 0.0
C97 C 0.58054 0.39248 0.95171 0.0
C98 C 0.6165 0.52501 0.01948 0.0
C99 C 0.77815 0.54338 0.95705 0.0
O100 O 0.70879 0.61472 -0.00044 0.0
O101 O 0.66804 0.62981 0.95135 0.0
O102 O 0.70478 0.58291 0.90827 0.0
O103 O 0.6084 0.55007 0.91181 0.0
O104 O 0.54495 0.56872 0.96663 0.0
O105 O 0.50571 0.51874 0.94168 0.0
O106 O 0.60796 0.47349 0.91242 0.0
O107 O 0.55916 0.45673 0.95933 0.0
O108 O 0.56596 0.50427 0.00348 0.0
O109 O 0.66165 0.53723 -0.00063 0.0
O110 O 0.72555 0.5167 0.95055 0.0
O111 O 0.7662 0.57098 0.96345 0.0
H112 H 0.59181 0.61641 0.02227 0.0
H113 H 0.53822 0.64988 0.05019 0.0
H114 H 0.67777 0.73823 0.01033 0.0
H115 H 0.73188 0.70463 0.9834 0.0
H116 H 0.71036 0.45624 0.92524 0.0
H117 H 0.77004 0.41877 0.94574 0.0
H118 H 0.58765 0.34723 0.97438 0.0
H119 H 0.52792 0.38542 0.95438 0.0
Nd120 Nd 0.58223 0.54718 0.45405 0.0
Nd121 Nd 0.69959 0.53603 0.4599 0.0
C122 C 0.48273 0.56771 0.46575 0.0
C123 C 0.46539 0.57672 0.49849 0.0
C124 C 0.51467 0.58929 0.525 0.0
C125 C 0.49749 0.59435 0.55743 0.0
C126 C 0.43084 0.58629 0.56385 0.0
C127 C 0.38183 0.57421 0.53714 0.0
C128 C 0.399 0.56949 0.50471 0.0
C129 C 0.61031 0.53493 0.38893 0.0
C130 C 0.56909 0.47088 0.45563 0.0
C131 C 0.80681 0.51846 0.4683 0.0
C132 C 0.85954 0.52847 0.49607 0.0
C133 C 0.88264 0.56127 0.50702 0.0
C134 C 0.92447 0.56984 0.53674 0.0
C135 C 0.94361 0.54578 0.55641 0.0
C136 C 0.9209 0.51299 0.5452 0.0
C137 C 0.87928 0.50445 0.51529 0.0
C138 C 0.66718 0.55077 0.52338 0.0
C139 C 0.7165 0.61256 0.455 0.0
O140 O 0.53743 0.58712 0.4543 0.0
O141 O 0.47671 0.53666 0.46321 0.0
O142 O 0.55258 0.52476 0.40072 0.0
O143 O 0.65236 0.55223 0.41097 0.0
O144 O 0.54165 0.49138 0.4671 0.0
O145 O 0.62865 0.48361 0.4445 0.0
O146 O 0.80108 0.54142 0.44636 0.0
O147 O 0.75002 0.50004 0.47835 0.0
O148 O 0.72352 0.5641 0.51085 0.0
O149 O 0.6288 0.53099 0.50213 0.0
O150 O 0.74553 0.59146 0.44682 0.0
O151 O 0.65519 0.60067 0.46405 0.0
H152 H 0.56634 0.59444 0.52087 0.0
H153 H 0.53595 0.6036 0.57767 0.0
H154 H 0.33003 0.56824 0.54145 0.0
H155 H 0.36042 0.55944 0.48473 0.0
H156 H 0.86713 0.58025 0.49312 0.0
H157 H 0.94206 0.59542 0.54416 0.0
H158 H 0.93421 0.49377 0.55988 0.0
H159 H 0.86076 0.47888 0.50776 0.0
H160 H 0.65049 0.75712 0.06282 0.0
H161 H 0.58817 0.7952 0.06866 0.0
H162 H 0.40882 0.72008 0.03332 0.0
H163 H 0.47029 0.68228 0.02707 0.0
H164 H 0.52813 0.8127 0.01044 0.0
H165 H 0.34326 0.76417 0.10547 0.0
H166 H 0.41567 0.7514 0.10492 0.0
H167 H 0.34323 0.73257 0.077 0.0
C168 C 0.59748 0.74851 0.05716 0.0
C169 C 0.56539 0.71685 0.04412 0.0
C170 C 0.56197 0.77018 0.06076 0.0
C171 C 0.49388 0.76035 0.0517 0.0
C172 C 0.46104 0.72792 0.04129 0.0
H173 H 0.18706 0.82332 0.96116 0.0
H174 H 0.26245 0.79597 0.98913 0.0
C175 C 0.49642 0.70631 0.03763 0.0
C176 C 0.45934 0.78508 0.04634 0.0
H177 H 0.31366 0.79733 0.05863 0.0
C178 C 0.48214 0.81001 0.02167 0.0
C179 C 0.39933 0.78131 0.06093 0.0
C180 C 0.37434 0.75609 0.08882 0.0
C181 C 0.44391 0.82962 0.00915 0.0
C182 C 0.38192 0.82443 0.02223 0.0
C183 C 0.36102 0.80095 0.04848 0.0
C184 C 0.3358 0.84116 0.00692 0.0
C185 C 0.46813 0.85412 0.98045 0.0
C186 C 0.35221 0.87551 0.00796 0.0
C187 C 0.30962 0.89114 0.99179 0.0
C188 C 0.2497 0.87259 0.97466 0.0
C189 C 0.23287 0.83814 0.97423 0.0
C190 C 0.2757 0.82255 0.99023 0.0
H191 H 0.5109 0.85056 0.96897 0.0
H192 H 0.4281 0.85211 0.95993 0.0
H193 H 0.48387 0.87948 0.99053 0.0
H194 H 0.39792 0.89019 0.02121 0.0
H195 H 0.32311 0.91771 -0.00686 0.0
H196 H 0.78605 0.36629 0.93654 0.0
H197 H 0.85545 0.33628 0.96553 0.0
H198 H 0.7364 0.31676 0.05206 0.0
H199 H 0.66725 0.34741 0.02359 0.0
H200 H 0.92007 0.35314 0.04152 0.0
H201 H 0.75395 0.22507 0.0157 0.0
H202 H 0.75043 0.25866 0.98694 0.0
H203 H 0.72137 0.25622 0.02878 0.0
C204 C 0.7746 0.35562 0.96173 0.0
C205 C 0.72134 0.35922 0.97783 0.0
C206 C 0.81414 0.33851 0.97818 0.0
C207 C 0.80084 0.3246 0.01084 0.0
C208 C 0.747 0.32739 0.02678 0.0
H209 H 1.02036 0.19107 0.07915 0.0
H210 H 0.94817 0.22391 0.08724 0.0
C211 C 0.70739 0.34461 0.01036 0.0
C212 C 0.84452 0.30752 0.028 0.0
H213 H 0.86368 0.23174 0.0357 0.0
C214 C 0.90752 0.32653 0.04106 0.0
C215 C 0.82719 0.2729 0.02774 0.0
C216 C 0.75961 0.25177 0.01409 0.0
C217 C 0.95553 0.31177 0.05183 0.0
C218 C 0.94016 0.27735 0.0486 0.0
C219 C 0.87539 0.25815 0.03813 0.0
C220 C 0.9921 0.26152 0.04985 0.0
C221 C 1.02293 0.33333 0.06521 0.0
C222 C 1.04149 0.27223 0.02675 0.0
C223 C 1.08232 0.25356 0.02198 0.0
C224 C 1.07411 0.22362 0.04001 0.0
C225 C 1.02726 0.21389 0.06466 0.0
C226 C 0.98635 0.23268 0.06946 0.0
H227 H 1.01941 0.35487 0.07874 0.0
H228 H 1.04806 0.31948 0.08295 0.0
H229 H 1.05378 0.34298 0.04336 0.0
H230 H 1.04553 0.29385 0.01058 0.0
H231 H 1.11706 0.26144 0.00237 0.0
H232 H 0.17499 0.16354 0.47169 0.0
H233 H 0.23418 0.22297 0.47125 0.0
H234 H 0.40528 0.20479 0.43789 0.0
H235 H 0.34604 0.1454 0.43784 0.0
H236 H 0.3441 0.2614 0.50618 0.0
H237 H 0.39202 0.2749 0.36902 0.0
H238 H 0.33602 0.23785 0.38656 0.0
H239 H 0.42371 0.2451 0.39132 0.0
C240 C 0.22512 0.17206 0.46404 0.0
C241 C 0.25501 0.14912 0.45454 0.0
C242 C 0.25927 0.20636 0.46387 0.0
C243 C 0.32451 0.2192 0.4539 0.0
C244 C 0.3547 0.19625 0.44483 0.0
H245 H 0.61251 0.42039 0.43607 0.0
H246 H 0.55464 0.36077 0.43642 0.0
C247 C 0.32063 0.16194 0.44505 0.0
C248 C 0.36092 0.25624 0.45374 0.0
H249 H 0.44626 0.32137 0.40353 0.0
C250 C 0.36603 0.27439 0.48357 0.0
C251 C 0.39045 0.27395 0.42453 0.0
C252 C 0.38486 0.25708 0.39094 0.0
C253 C 0.40018 0.3088 0.48524 0.0
C254 C 0.42945 0.32657 0.45597 0.0
C255 C 0.42443 0.30839 0.42616 0.0
C256 C 0.46516 0.36371 0.45571 0.0
C257 C 0.40622 0.3255 0.51898 0.0
C258 C 0.43499 0.38629 0.46582 0.0
C259 C 0.46839 0.42064 0.46577 0.0
C260 C 0.53318 0.43397 0.45522 0.0
C261 C 0.56296 0.41146 0.44449 0.0
C262 C 0.52956 0.37706 0.44464 0.0
H263 H 0.40069 0.30763 0.54083 0.0
H264 H 0.45456 0.34517 0.52304 0.0
H265 H 0.36644 0.3368 0.51922 0.0
H266 H 0.38495 0.37743 0.47353 0.0
H267 H 0.44304 0.43683 0.47396 0.0
H268 H 0.94521 0.93647 0.47634 0.0
H269 H 0.88763 0.87686 0.47617 0.0
H270 H 1.05392 0.86118 0.43411 0.0
H271 H 1.11194 0.92072 0.43456 0.0
H272 H 0.84501 0.83171 0.42576 0.0
H273 H 1.02813 0.795 0.51205 0.0
H274 H 1.03057 0.83737 0.50641 0.0
H275 H 1.06284 0.81835 0.47519 0.0
C276 C 0.96989 0.92043 0.46713 0.0
C277 C 1.03392 0.93395 0.45563 0.0
C278 C 0.93659 0.88605 0.467 0.0
C279 C 0.96614 0.8637 0.45573 0.0
C280 C 1.02983 0.87723 0.44383 0.0
H281 H 0.84332 0.64629 0.437 0.0
H282 H 0.90134 0.70587 0.4367 0.0
C283 C 1.06308 0.91163 0.44384 0.0
C284 C 0.92995 0.82664 0.45581 0.0
H285 H 0.94274 0.75168 0.48442 0.0
C286 C 0.86653 0.81435 0.4388 0.0
C287 C 0.95703 0.80326 0.47258 0.0
C288 C 1.02307 0.81409 0.49288 0.0
C289 C 0.8308 0.7801 0.43744 0.0
C290 C 0.85774 0.75669 0.45433 0.0
C291 C 0.92122 0.76901 0.47133 0.0
C292 C 0.82132 0.71963 0.45463 0.0
C293 C 0.76511 0.76937 0.4168 0.0
C294 C 0.7566 0.70639 0.4653 0.0
C295 C 0.72297 0.67206 0.46533 0.0
C296 C 0.75285 0.64942 0.45504 0.0
C297 C 0.81802 0.66259 0.44496 0.0
C298 C 0.85158 0.69696 0.44485 0.0
H299 H 0.76118 0.78824 0.3971 0.0
H300 H 0.75707 0.74576 0.40381 0.0
H301 H 0.72504 0.76593 0.43412 0.0
H302 H 0.73193 0.72262 0.47405 0.0
H303 H 0.67332 0.66324 0.47365 0.0
H304 H 0.39879 0.09268 0.97386 0.0
H305 H 0.51277 0.09197 0.9739 0.0
H306 H 0.4404 0.99203 0.93915 0.0
H307 H 0.32654 0.99246 0.94031 0.0
H308 H 0.59934 0.09062 0.93528 0.0
H309 H 0.56898 0.97237 0.00383 0.0
H310 H 0.51541 0.96693 0.96545 0.0
H311 H 0.50408 0.99072 -0.00012 0.0
C312 C 0.40638 0.07021 0.96647 0.0
C313 C 0.35028 1.04252 0.9574 0.0
C314 C 0.47323 0.06983 0.96638 0.0
C315 C 0.48946 1.0417 0.95735 0.0
C316 C 0.43315 1.01415 0.9477 0.0
H317 H 0.87117 0.99608 0.93452 0.0
H318 H 0.75681 0.9962 0.93522 0.0
C319 C 0.36621 1.01448 0.94797 0.0
C320 C 0.56367 1.04182 0.95728 0.0
H321 H 0.66983 0.99587 0.97776 0.0
C322 C 0.6138 0.0697 0.94496 0.0
C323 C 0.58704 1.01515 0.96954 0.0
C324 C 0.54133 0.98476 0.98574 0.0
C325 C 0.68204 0.07138 0.94378 0.0
C326 C 0.70528 1.04469 0.95591 0.0
C327 C 0.65524 1.01679 0.96818 0.0
C328 C 0.77948 1.04498 0.95574 0.0
C329 C 0.72822 0.1019 0.92808 0.0
C330 C 0.83532 0.07187 0.96743 0.0
C331 C 0.90243 0.07181 0.96705 0.0
C332 C 0.91889 1.04479 0.9551 0.0
C333 C 0.86316 1.01776 0.94386 0.0
C334 C 0.79614 1.01778 0.94435 0.0
H335 H 0.70099 0.1148 0.91036 0.0
H336 H 0.75461 0.11922 0.9487 0.0
H337 H 0.76522 0.09595 0.91371 0.0
H338 H 0.82741 0.09321 0.9776 0.0
H339 H 0.94183 0.09327 0.97643 0.0
H340 H 0.44119 0.07808 0.61157 0.0
H341 H 0.52845 0.09667 0.65786 0.0
H342 H 0.62463 1.03078 0.62359 0.0
H343 H 0.53929 1.01266 0.57741 0.0
H344 H 0.63589 1.03976 0.69926 0.0
H345 H 0.70514 0.15803 0.62462 0.0
H346 H 0.62574 0.14131 0.64197 0.0
H347 H 0.64317 0.12311 0.60501 0.0
C348 C 0.48059 0.06727 0.61424 0.0
C349 C 0.48394 1.0443 0.59037 0.0
C350 C 0.52994 0.0777 0.64091 0.0
C351 C 0.58312 0.06523 0.64405 0.0
C352 C 0.58357 1.04046 0.62191 0.0
H353 H 0.84078 1.02774 0.60133 0.0
H354 H 0.77853 1.03385 0.64754 0.0
C355 C 0.53468 1.03014 0.59534 0.0
C356 C 0.64491 0.08147 0.66498 0.0
H357 H 0.78977 0.13631 0.64314 0.0
C358 C 0.66968 0.06183 0.68841 0.0
C359 C 0.68891 0.11125 0.65269 0.0
C360 C 0.66476 0.13489 0.62983 0.0
C361 C 0.7379 0.06733 0.69341 0.0
C362 C 0.78064 0.09186 0.67325 0.0
C363 C 0.7569 0.11622 0.65718 0.0
C364 C 0.83525 0.08516 0.6571 0.0
C365 C 0.76264 1.04411 0.71646 0.0
C366 C 0.89079 0.11121 0.64773 0.0
C367 C 0.92571 0.10777 0.62028 0.0
C368 C 0.90551 0.07822 0.60213 0.0
C369 C 0.85631 0.05096 0.61457 0.0
C370 C 0.82145 0.05438 0.6417 0.0
H371 H 0.74138 1.04184 0.74166 0.0
H372 H 0.74553 1.01915 0.70529 0.0
H373 H 0.81736 0.05264 0.72046 0.0
H374 H 0.90276 0.13517 0.65916 0.0
H375 H 0.96411 0.12907 0.61127 0.0
H376 H 0.82945 0.49246 0.94138 0.0
H377 H 0.94459 0.49307 0.94068 0.0
H378 H 1.01259 0.59355 0.97371 0.0
H379 H 0.89833 0.59326 0.97322 0.0
H380 H 1.04865 0.49612 0.97911 0.0
H381 H 1.14092 0.61216 0.90595 0.0
H382 H 1.1081 0.61886 0.94442 0.0
H383 H 1.05428 0.59333 0.91144 0.0
C384 C 0.86854 0.51497 0.94826 0.0
C385 C 0.85143 0.54292 0.95701 0.0
C386 C 0.93601 0.51533 0.94794 0.0
C387 C 0.99153 0.5437 0.95615 0.0
C388 C 0.974 0.57132 0.96567 0.0
H389 H 0.44136 0.59305 0.97535 0.0
H390 H 0.3261 0.59247 0.97595 0.0
C391 C 0.90679 0.57102 0.96582 0.0
C392 C 1.06583 0.54413 0.95554 0.0
H393 H 0.22275 0.59105 0.93288 0.0
C394 C 1.08588 0.51705 0.96862 0.0
C395 C 1.11826 0.57085 0.94216 0.0
C396 C 1.10434 0.60027 0.92488 0.0
C397 C 0.15295 0.51626 0.96953 0.0
C398 C 0.20534 0.54307 0.95638 0.0
C399 C 0.18539 0.57014 0.94332 0.0
C400 C 0.27952 0.54349 0.95582 0.0
C401 C 0.16703 0.48657 0.98602 0.0
C402 C 0.29702 0.51676 0.94383 0.0
C403 C 0.36426 0.51717 0.94332 0.0
C404 C 0.41949 0.54435 0.95468 0.0
C405 C 0.40231 0.5713 0.96634 0.0
C406 C 0.33487 0.57096 0.96664 0.0
H407 H 1.12993 0.47388 0.00443 0.0
H408 H 0.16462 0.46872 0.96591 0.0
H409 H 0.2168 0.49345 -0.00021 0.0
H410 H 0.25836 0.49525 0.9341 0.0
H411 H 0.37285 0.4957 0.93379 0.0
H412 H 0.46909 0.64167 0.60283 0.0
H413 H 0.40961 0.65159 0.64978 0.0
H414 H 0.28624 0.54953 0.64671 0.0
H415 H 0.34661 0.5398 0.60139 0.0
H416 H 0.29604 0.65153 0.63364 0.0
H417 H 0.25267 0.56484 0.73951 0.0
H418 H 0.32774 0.57396 0.71775 0.0
H419 H 0.25577 0.53933 0.70533 0.0
C420 C 0.43135 0.62115 0.61357 0.0
C421 C 0.41082 0.59021 0.59808 0.0
C422 C 0.3975 0.62676 0.64048 0.0
C423 C 0.34269 0.60151 0.65195 0.0
C424 C 0.32867 0.56956 0.63925 0.0
H425 H 1.04591 0.52309 0.57726 0.0
H426 H 1.13244 0.54474 0.62211 0.0
C427 C 0.36245 0.564 0.61265 0.0
C428 C 0.28866 0.60946 0.66733 0.0
H429 H 1.14553 0.55926 0.69694 0.0
C430 C 0.26394 0.63251 0.64916 0.0
C431 C 0.24698 0.58648 0.68929 0.0
C432 C 0.27296 0.56512 0.71432 0.0
C433 C 0.19579 0.62712 0.6448 0.0
C434 C 0.15267 0.59826 0.65931 0.0
C435 C 0.1786 0.5805 0.68444 0.0
C436 C 1.09052 0.58039 0.63952 0.0
C437 C 0.17043 0.64893 0.61993 0.0
C438 C 1.0368 0.59241 0.63518 0.0
C439 C 0.98676 0.57994 0.60929 0.0
C440 C 0.98998 0.55535 0.58739 0.0
C441 C 1.04139 0.54178 0.59368 0.0
C442 C 1.09096 0.55413 0.61949 0.0
H443 H 0.21023 0.67172 0.61307 0.0
H444 H 1.14847 0.63529 0.5961 0.0
H445 H 1.13143 0.65609 0.63121 0.0
H446 H 1.03534 0.61253 0.65051 0.0
H447 H 0.94688 0.59037 0.60561 0.0
H448 H 0.22091 0.06697 0.35401 0.0
H449 H 0.2299 0.06866 0.29165 0.0
H450 H 1.02858 1.0048 0.27762 0.0
H451 H 1.01919 1.00335 0.33933 0.0
H452 H 0.21408 1.0196 0.24369 0.0
H453 H 1.02513 0.08113 0.21329 0.0
H454 H 1.06093 0.07859 0.25625 0.0
H455 H 0.99518 1.04412 0.23848 0.0
C456 C 0.17865 0.05328 0.33759 0.0
C457 C 1.11908 1.03532 0.35178 0.0
C458 C 0.18381 0.05425 0.30188 0.0
C459 C 1.12945 1.03746 0.27954 0.0
C460 C 1.07078 1.01873 0.29392 0.0
H461 H 1.02215 0.99754 0.06464 0.0
H462 H 1.03098 1.00243 0.12686 0.0
C463 C 1.06561 1.01776 0.32941 0.0
C464 C 1.13328 1.03923 0.24132 0.0
H465 H 1.05592 0.05704 0.16641 0.0
C466 C 0.18 1.02816 0.22682 0.0
C467 C 1.08909 0.05048 0.21899 0.0
C468 C 1.0402 0.06457 0.23251 0.0
C469 C 0.18175 1.02668 0.19093 0.0
C470 C 1.13623 1.03705 0.16865 0.0
C471 C 1.0907 0.0489 0.18322 0.0
C472 C 1.13246 1.03433 0.13033 0.0
C473 C 0.23063 1.01275 0.1772 0.0
C474 C 0.18626 0.05093 0.11095 0.0
C475 C 0.18124 1.04818 0.07502 0.0
C476 C 1.12226 1.02878 0.05763 0.0
C477 C 1.06846 1.01256 0.07707 0.0
C478 C 1.07342 1.01538 0.1128 0.0
H479 H 0.25147 0.99901 0.19727 0.0
H480 H 0.20722 0.99599 0.15564 0.0
H481 H 0.27204 1.03325 0.16751 0.0
H482 H 0.23201 0.06632 0.12354 0.0
H483 H 0.2235 0.06119 0.06088 0.0
H484 H 0.24709 0.09165 0.84775 0.0
H485 H 0.23898 0.08703 0.78554 0.0
H486 H 1.03929 1.02134 0.78834 0.0
H487 H 1.04699 1.02629 0.85099 0.0
H488 H 0.21835 1.03322 0.74674 0.0
H489 H 1.01593 0.08622 0.71336 0.0
H490 H 1.0588 0.09001 0.75542 0.0
H491 H 0.99675 0.05196 0.7431 0.0
C492 C 0.20119 0.07632 0.8352 0.0
C493 C 1.14756 0.0595 0.85449 0.0
C494 C 0.19662 0.07367 0.79947 0.0
C495 C 1.13818 0.05425 0.78178 0.0
C496 C 1.08451 1.03712 0.80102 0.0
H497 H 1.05796 1.01758 0.55865 0.0
H498 H 1.04654 1.01719 0.62068 0.0
C499 C 1.0891 1.03976 0.83695 0.0
C500 C 1.13534 0.0513 0.74353 0.0
H501 H 1.0568 0.06638 0.66766 0.0
C502 C 0.18287 1.04047 0.72956 0.0
C503 C 1.08878 0.0604 0.72074 0.0
C504 C 1.03743 0.07306 0.73376 0.0
C505 C 0.18563 1.03875 0.69391 0.0
C506 C 1.14051 0.04883 0.67109 0.0
C507 C 1.09169 0.0588 0.68495 0.0
C508 C 1.14528 0.05031 0.63298 0.0
C509 C 0.23675 1.02577 0.68107 0.0
C510 C 0.20362 0.06979 0.6188 0.0
C511 C 0.21016 0.07004 0.58349 0.0
C512 C 0.15843 0.05093 0.56119 0.0
C513 C 1.09902 1.03232 0.57511 0.0
C514 C 1.09242 1.03214 0.61061 0.0
H515 H 0.25304 1.00994 0.70067 0.0
H516 H 0.21747 1.0113 0.65747 0.0
H517 H 0.28075 1.04682 0.67505 0.0
H518 H 0.2446 0.08474 0.63515 0.0
H519 H 0.25638 0.08494 0.57371 0.0
H520 H 0.72049 0.56724 0.35382 0.0
H521 H 0.72985 0.5691 0.29148 0.0
H522 H 0.52943 0.50419 0.27718 0.0
H523 H 0.51967 0.50255 0.33888 0.0
H524 H 0.71521 0.52007 0.24344 0.0
H525 H 0.52463 0.58062 0.21312 0.0
H526 H 0.56058 0.5782 0.25607 0.0
H527 H 0.49532 0.54354 0.23828 0.0
C528 C 0.67851 0.55334 0.33735 0.0
C529 C 0.61907 0.53504 0.35144 0.0
C530 C 0.68389 0.55441 0.30166 0.0
C531 C 0.62986 0.53738 0.27926 0.0
C532 C 0.57136 0.51829 0.29355 0.0
H533 H 0.5233 0.49731 0.06455 0.0
H534 H 0.53213 0.50228 0.12675 0.0
C535 C 0.56598 0.51722 0.32902 0.0
C536 C 0.63384 0.5393 0.24107 0.0
H537 H 0.55616 0.55692 0.1662 0.0
C538 C 0.68094 0.52851 0.22657 0.0
C539 C 0.5894 0.55039 0.21877 0.0
C540 C 0.54006 0.56416 0.23231 0.0
C541 C 0.68281 0.52713 0.19069 0.0
C542 C 0.63702 0.53732 0.16844 0.0
C543 C 0.59114 0.54891 0.183 0.0
C544 C 0.63327 0.5346 0.13014 0.0
C545 C 0.73209 0.51349 0.17694 0.0
C546 C 0.68688 0.55142 0.11072 0.0
C547 C 0.68188 0.54862 0.07481 0.0
C548 C 0.6231 0.52896 0.05748 0.0
C549 C 0.56946 0.51254 0.07694 0.0
C550 C 0.57441 0.5154 0.11266 0.0
H551 H 0.75331 0.4999 0.19701 0.0
H552 H 0.7089 0.49666 0.1554 0.0
H553 H 0.77321 0.53412 0.1672 0.0
H554 H 0.73247 0.567 0.12329 0.0
H555 H 0.72398 0.5618 0.06063 0.0
H556 H 0.75563 0.5854 0.57312 0.0
H557 H 0.74402 0.58505 0.63458 0.0
H558 H 0.5453 0.51823 0.62002 0.0
H559 H 0.55653 0.51879 0.55795 0.0
H560 H 0.55695 0.56752 0.66737 0.0
H561 H 0.751 0.50943 0.69944 0.0
H562 H 0.77926 0.54639 0.67398 0.0
H563 H 0.71526 0.51117 0.65633 0.0
C564 C 0.70928 0.57065 0.58288 0.0
C565 C 0.65732 0.55176 0.56055 0.0
C566 C 0.70284 0.57032 0.6182 0.0
C567 C 0.64437 0.55097 0.63235 0.0
C568 C 0.59126 0.53308 0.60995 0.0
H569 H 0.54691 0.52608 0.85039 0.0
H570 H 0.53896 0.52143 0.7877 0.0
C571 C 0.59774 0.53335 0.57444 0.0
C572 C 0.63976 0.54931 0.67046 0.0
H573 H 0.71715 0.53268 0.74582 0.0
C574 C 0.59153 0.55957 0.68452 0.0
C575 C 0.6845 0.53876 0.69309 0.0
C576 C 0.73499 0.52549 0.67999 0.0
C577 C 0.58884 0.56098 0.72034 0.0
C578 C 0.635 0.55139 0.74293 0.0
C579 C 0.68196 0.54029 0.72877 0.0
C580 C 0.63805 0.55413 0.7812 0.0
C581 C 0.5382 0.57399 0.73362 0.0
C582 C 0.69667 0.57333 0.7989 0.0
C583 C 0.70137 0.57582 0.83464 0.0
C584 C 0.64769 0.55904 0.85392 0.0
C585 C 0.58906 0.5395 0.83636 0.0
C586 C 0.58433 0.53704 0.80042 0.0
H587 H 0.51691 0.58737 0.71337 0.0
H588 H 0.49727 0.55303 0.74301 0.0
H589 H 0.56015 0.59082 0.75531 0.0
H590 H 0.73905 0.58665 0.78496 0.0
H591 H 0.74739 0.591 0.8472 0.0
loop_
_geom_bond_atom_site_label_1
_geom_bond_atom_site_label_2
_geom_bond_distance
_geom_bond_site_symmetry_2
_ccdc_geom_bond_type
Nd0 C2 2.837 1_455 S
Nd0 O20 2.500 1_456 S
Nd0 O21 2.492 1_455 S
Nd0 O22 2.487 1_455 S
Nd0 O23 2.682 1_545 S
Nd0 O24 2.410 1_455 S
Nd0 O29 2.414 1_456 S
Nd0 O31 2.424 . S
Nd1 C11 2.838 1_655 S
Nd1 O23 2.414 1_654 S
Nd1 O25 2.424 . S
Nd1 O26 2.500 1_654 S
Nd1 O27 2.492 1_655 S
Nd1 O28 2.487 1_655 S
Nd1 O29 2.682 1_565 S
Nd1 O30 2.410 1_655 S
C2 Nd0 2.837 1_655 S
C2 C3 1.497 1_556 S
C2 O20 1.252 1_556 S
C2 O21 1.246 . S
C3 C2 1.497 1_554 S
C3 C4 1.366 . S
C3 C8 1.407 1_554 S
C4 C3 1.366 . S
C4 C5 1.392 . S
C4 H32 0.930 . S
C5 C4 1.392 . S
C5 C6 1.398 . S
C5 H33 0.929 . S
C6 C5 1.398 . S
C6 C7 1.352 1_554 S
C7 C6 1.352 1_556 S
C7 C8 1.384 . S
C7 H34 0.930 . S
C8 C3 1.407 1_556 S
C8 C7 1.384 . S
C8 H35 0.929 . S
C9 O22 1.238 1_455 S
C9 O23 1.273 1_545 S
C10 O24 1.251 1_565 S
C10 O25 1.268 1_556 S
C11 Nd1 2.838 1_455 S
C11 C12 1.493 1_554 S
C11 O26 1.245 1_554 S
C11 O27 1.253 . S
C12 C11 1.493 1_556 S
C12 C13 1.395 . S
C12 C17 1.383 1_556 S
C13 C12 1.395 . S
C13 C14 1.392 . S
C13 H36 0.930 . S
C14 C13 1.392 . S
C14 C15 1.398 . S
C14 H37 0.929 . S
C15 C14 1.398 . S
C15 C16 1.352 1_556 S
C16 C15 1.352 1_554 S
C16 C17 1.384 . S
C16 H38 0.930 . S
C17 C12 1.383 1_554 S
C17 C16 1.384 . S
C17 H39 0.929 . S
C18 O28 1.232 1_655 S
C18 O29 1.274 1_565 S
C19 O30 1.251 1_545 S
C19 O31 1.268 1_554 S
O20 Nd0 2.500 1_654 S
O20 C2 1.252 1_554 S
O21 Nd0 2.492 1_655 S
O21 C2 1.246 . S
O22 Nd0 2.487 1_655 S
O22 C9 1.238 1_655 S
O23 Nd0 2.682 1_565 S
O23 Nd1 2.414 1_456 S
O23 C9 1.273 1_565 S
O24 Nd0 2.410 1_655 S
O24 C10 1.251 1_545 S
O25 Nd1 2.424 . S
O25 C10 1.268 1_554 S
O26 Nd1 2.500 1_456 S
O26 C11 1.245 1_556 S
O27 Nd1 2.492 1_455 S
O27 C11 1.253 . S
O28 Nd1 2.487 1_455 S
O28 C18 1.232 1_455 S
O29 Nd0 2.414 1_654 S
O29 Nd1 2.682 1_545 S
O29 C18 1.274 1_545 S
O30 Nd1 2.410 1_455 S
O30 C19 1.251 1_565 S
O31 Nd0 2.424 . S
O31 C19 1.268 1_556 S
H32 C4 0.930 . S
H33 C5 0.929 . S
H34 C7 0.930 . S
H35 C8 0.929 . S
H36 C13 0.930 . S
H37 C14 0.929 . S
H38 C16 0.930 . S
H39 C17 0.929 . S
Nd40 C42 2.836 . S
Nd40 O60 2.500 . S
Nd40 O61 2.492 . S
Nd40 O62 2.487 . S
Nd40 O63 2.694 1_655 S
Nd40 O64 2.410 1_545 S
Nd40 O69 2.407 1_545 S
Nd40 O71 2.424 1_655 S
Nd41 C51 2.836 . S
Nd41 O63 2.402 1_565 S
Nd41 O65 2.424 1_455 S
Nd41 O66 2.500 . S
Nd41 O67 2.492 . S
Nd41 O68 2.487 . S
Nd41 O69 2.689 1_455 S
Nd41 O70 2.410 1_565 S
C42 Nd40 2.836 . S
C42 C43 1.498 1_545 S
C42 O60 1.258 . S
C42 O61 1.239 . S
C43 C42 1.498 1_565 S
C43 C44 1.366 . S
C43 C48 1.407 . S
C44 C43 1.366 . S
C44 C45 1.392 . S
C44 H72 0.930 . S
C45 C44 1.392 . S
C45 C46 1.398 . S
C45 H73 0.929 . S
C46 C45 1.398 . S
C46 C47 1.352 . S
C47 C46 1.352 . S
C47 C48 1.384 . S
C47 H74 0.930 . S
C48 C43 1.407 . S
C48 C47 1.384 . S
C48 H75 0.929 1_565 S
C49 O62 1.241 . S
C49 O63 1.279 1_655 S
C50 O64 1.251 . S
C50 O65 1.268 . S
C51 Nd41 2.836 . S
C51 C52 1.498 1_565 S
C51 O66 1.258 . S
C51 O67 1.239 . S
C52 C51 1.498 1_545 S
C52 C53 1.366 . S
C52 C57 1.407 . S
C53 C52 1.366 . S
C53 C54 1.392 . S
C53 H76 0.930 . S
C54 C53 1.392 . S
C54 C55 1.398 . S
C54 H77 0.929 . S
C55 C54 1.398 . S
C55 C56 1.352 . S
C56 C55 1.352 . S
C56 C57 1.384 . S
C56 H78 0.930 . S
C57 C52 1.407 . S
C57 C56 1.384 . S
C57 H79 0.929 1_545 S
C58 O68 1.241 . S
C58 O69 1.276 1_455 S
C59 O70 1.251 . S
C59 O71 1.268 . S
O60 Nd40 2.500 . S
O60 C42 1.258 . S
O61 Nd40 2.492 . S
O61 C42 1.239 . S
O62 Nd40 2.487 . S
O62 C49 1.241 . S
O63 Nd40 2.694 1_455 S
O63 Nd41 2.402 1_545 S
O63 C49 1.279 1_455 S
O64 Nd40 2.410 1_565 S
O64 C50 1.251 . S
O65 Nd41 2.424 1_655 S
O65 C50 1.268 . S
O66 Nd41 2.500 . S
O66 C51 1.258 . S
O67 Nd41 2.492 . S
O67 C51 1.239 . S
O68 Nd41 2.487 . S
O68 C58 1.241 . S
O69 Nd40 2.407 1_565 S
O69 Nd41 2.689 1_655 S
O69 C58 1.276 1_655 S
O70 Nd41 2.410 1_545 S
O70 C59 1.251 . S
O71 Nd40 2.424 1_455 S
O71 C59 1.268 . S
H72 C44 0.930 . S
H73 C45 0.929 . S
H74 C47 0.930 . S
H75 C48 0.929 1_545 S
H76 C53 0.930 . S
H77 C54 0.929 . S
H78 C56 0.930 . S
H79 C57 0.929 1_565 S
Nd80 C82 2.837 . S
Nd80 O100 2.500 1_556 S
Nd80 O101 2.492 . S
Nd80 O102 2.487 . S
Nd80 O103 2.682 . S
Nd80 O104 2.410 . S
Nd80 O109 2.414 1_556 S
Nd80 O111 2.424 . S
Nd81 C91 2.838 . S
Nd81 O103 2.414 1_554 S
Nd81 O105 2.424 . S
Nd81 O106 2.500 1_554 S
Nd81 O107 2.492 . S
Nd81 O108 2.487 . S
Nd81 O109 2.682 . S
Nd81 O110 2.410 . S
C82 Nd80 2.837 . S
C82 C83 1.497 1_556 S
C82 O100 1.252 1_556 S
C82 O101 1.246 . S
C83 C82 1.497 1_554 S
C83 C84 1.366 . S
C83 C88 1.407 1_554 S
C84 C83 1.366 . S
C84 C85 1.392 . S
C84 H112 0.930 . S
C85 C84 1.392 . S
C85 C86 1.398 . S
C85 H113 0.929 . S
C86 C85 1.398 . S
C86 C87 1.352 1_554 S
C87 C86 1.352 1_556 S
C87 C88 1.384 . S
C87 H114 0.930 . S
C88 C83 1.407 1_556 S
C88 C87 1.384 . S
C88 H115 0.929 . S
C89 O102 1.241 . S
C89 O103 1.273 . S
C90 O104 1.251 . S
C90 O105 1.268 1_556 S
C91 Nd81 2.838 . S
C91 C92 1.493 1_554 S
C91 O106 1.245 1_554 S
C91 O107 1.253 . S
C92 C91 1.493 1_556 S
C92 C93 1.395 . S
C92 C97 1.383 1_556 S
C93 C92 1.395 . S
C93 C94 1.392 . S
C93 H116 0.930 . S
C94 C93 1.392 . S
C94 C95 1.398 . S
C94 H117 0.929 . S
C95 C94 1.398 . S
C95 C96 1.352 1_556 S
C96 C95 1.352 1_554 S
C96 C97 1.384 . S
C96 H118 0.930 . S
C97 C92 1.383 1_554 S
C97 C96 1.384 . S
C97 H119 0.929 . S
C98 O108 1.241 . S
C98 O109 1.273 . S
C99 O110 1.251 . S
C99 O111 1.268 1_554 S
O100 Nd80 2.500 1_554 S
O100 C82 1.252 1_554 S
O101 Nd80 2.492 . S
O101 C82 1.246 . S
O102 Nd80 2.487 . S
O102 C89 1.241 . S
O103 Nd80 2.682 . S
O103 Nd81 2.414 1_556 S
O103 C89 1.273 . S
O104 Nd80 2.410 . S
O104 C90 1.251 . S
O105 Nd81 2.424 . S
O105 C90 1.268 1_554 S
O106 Nd81 2.500 1_556 S
O106 C91 1.245 1_556 S
O107 Nd81 2.492 . S
O107 C91 1.253 . S
O108 Nd81 2.487 . S
O108 C98 1.241 . S
O109 Nd80 2.414 1_554 S
O109 Nd81 2.682 . S
O109 C98 1.273 . S
O110 Nd81 2.410 . S
O110 C99 1.251 . S
O111 Nd80 2.424 . S
O111 C99 1.268 1_556 S
H112 C84 0.930 . S
H113 C85 0.929 . S
H114 C87 0.930 . S
H115 C88 0.929 . S
H116 C93 0.930 . S
H117 C94 0.929 . S
H118 C96 0.930 . S
H119 C97 0.929 . S
Nd120 C122 2.836 . S
Nd120 O140 2.500 . S
Nd120 O141 2.492 . S
Nd120 O142 2.487 . S
Nd120 O143 2.682 . S
Nd120 O144 2.410 . S
Nd120 O149 2.414 . S
Nd120 O151 2.424 . S
Nd121 C131 2.836 . S
Nd121 O143 2.414 . S
Nd121 O145 2.424 . S
Nd121 O146 2.500 . S
Nd121 O147 2.492 . S
Nd121 O148 2.487 . S
Nd121 O149 2.682 . S
Nd121 O150 2.410 . S
C122 Nd120 2.836 . S
C122 C123 1.498 . S
C122 O140 1.258 . S
C122 O141 1.239 . S
C123 C122 1.498 . S
C123 C124 1.366 . S
C123 C128 1.407 . S
C124 C123 1.366 . S
C124 C125 1.392 . S
C124 H152 0.930 . S
C125 C124 1.392 . S
C125 C126 1.398 . S
C125 H153 0.929 . S
C126 C125 1.398 . S
C126 C127 1.352 . S
C127 C126 1.352 . S
C127 C128 1.384 . S
C127 H154 0.930 . S
C128 C123 1.407 . S
C128 C127 1.384 . S
C128 H155 0.929 . S
C129 O142 1.241 . S
C129 O143 1.273 . S
C130 O144 1.251 . S
C130 O145 1.268 . S
C131 Nd121 2.836 . S
C131 C132 1.498 . S
C131 O146 1.258 . S
C131 O147 1.239 . S
C132 C131 1.498 . S
C132 C133 1.366 . S
C132 C137 1.407 . S
C133 C132 1.366 . S
C133 C134 1.392 . S
C133 H156 0.930 . S
C134 C133 1.392 . S
C134 C135 1.398 . S
C134 H157 0.929 . S
C135 C134 1.398 . S
C135 C136 1.352 . S
C136 C135 1.352 . S
C136 C137 1.384 . S
C136 H158 0.930 . S
C137 C132 1.407 . S
C137 C136 1.384 . S
C137 H159 0.929 . S
C138 O148 1.241 . S
C138 O149 1.273 . S
C139 O150 1.251 . S
C139 O151 1.268 . S
O140 Nd120 2.500 . S
O140 C122 1.258 . S
O141 Nd120 2.492 . S
O141 C122 1.239 . S
O142 Nd120 2.487 . S
O142 C129 1.241 . S
O143 Nd120 2.682 . S
O143 Nd121 2.414 . S
O143 C129 1.273 . S
O144 Nd120 2.410 . S
O144 C130 1.251 . S
O145 Nd121 2.424 . S
O145 C130 1.268 . S
O146 Nd121 2.500 . S
O146 C131 1.258 . S
O147 Nd121 2.492 . S
O147 C131 1.239 . S
O148 Nd121 2.487 . S
O148 C138 1.241 . S
O149 Nd120 2.414 . S
O149 Nd121 2.682 . S
O149 C138 1.273 . S
O150 Nd121 2.410 . S
O150 C139 1.251 . S
O151 Nd120 2.424 . S
O151 C139 1.268 . S
H152 C124 0.930 . S
H153 C125 0.929 . S
H154 C127 0.930 . S
H155 C128 0.929 . S
H156 C133 0.930 . S
H157 C134 0.929 . S
H158 C136 0.930 . S
H159 C137 0.929 . S
H160 C168 0.927 1_556 S
H161 C170 0.930 . S
H162 C172 0.930 . S
H163 C175 0.929 . S
H164 C178 0.930 . S
H165 C180 0.960 . S
H166 C180 0.960 . S
H167 C180 0.960 . S
C168 H160 0.927 1_554 S
C168 C169 1.379 . S
C168 C170 1.384 1_554 S
C169 C168 1.379 . S
C169 C175 1.390 . S
C170 H161 0.930 . S
C170 C168 1.384 1_556 S
C170 C171 1.372 1_556 S
C171 C170 1.372 1_554 S
C171 C172 1.400 . S
C171 C176 1.490 . S
C172 H162 0.930 . S
C172 C171 1.400 . S
C172 C175 1.386 . S
H173 C189 0.930 . S
H174 C190 0.931 . S
C175 H163 0.929 . S
C175 C169 1.390 . S
C175 C172 1.386 . S
C176 C171 1.490 . S
C176 C178 1.392 1_554 S
C176 C179 1.405 . S
H177 C183 0.930 . S
C178 H164 0.930 . S
C178 C176 1.392 1_556 S
C178 C181 1.403 . S
C179 C176 1.405 . S
C179 C180 1.524 . S
C179 C183 1.400 . S
C180 H165 0.960 . S
C180 H166 0.960 . S
C180 H167 0.960 . S
C180 C179 1.524 . S
C181 C178 1.403 . S
C181 C182 1.392 . S
C181 C185 1.495 . S
C182 C181 1.392 . S
C182 C183 1.385 1_556 S
C182 C184 1.478 . S
C183 H177 0.930 . S
C183 C179 1.400 . S
C183 C182 1.385 1_554 S
C184 C182 1.478 . S
C184 C186 1.381 . S
C184 C190 1.383 . S
C185 C181 1.495 . S
C185 H191 0.959 . S
C185 H192 0.961 . S
C185 H193 0.960 . S
C186 C184 1.381 . S
C186 C187 1.394 . S
C186 H194 0.930 . S
C187 C186 1.394 . S
C187 C188 1.383 . S
C187 H195 0.929 . S
C188 C187 1.383 . S
C188 C189 1.377 . S
C189 H173 0.930 . S
C189 C188 1.377 . S
C189 C190 1.379 . S
C190 H174 0.931 . S
C190 C184 1.383 . S
C190 C189 1.379 . S
H191 C185 0.959 . S
H192 C185 0.961 . S
H193 C185 0.960 . S
H194 C186 0.930 . S
H195 C187 0.929 . S
H196 C204 0.929 . S
H197 C206 0.930 . S
H198 C208 0.930 . S
H199 C211 0.929 . S
H200 C214 0.930 . S
H201 C216 0.960 . S
H202 C216 0.960 1_556 S
H203 C216 0.960 . S
C204 H196 0.929 . S
C204 C205 1.377 . S
C204 C206 1.384 . S
C205 C204 1.377 . S
C205 C211 1.390 1_556 S
C206 H197 0.930 . S
C206 C204 1.384 . S
C206 C207 1.372 . S
C207 C206 1.372 . S
C207 C208 1.400 1_556 S
C207 C212 1.490 . S
C208 H198 0.930 . S
C208 C207 1.400 1_554 S
C208 C211 1.386 . S
H209 C225 0.930 . S
H210 C226 0.931 . S
C211 H199 0.929 . S
C211 C205 1.390 1_554 S
C211 C208 1.386 . S
C212 C207 1.490 . S
C212 C214 1.395 . S
C212 C215 1.399 1_556 S
H213 C219 0.930 . S
C214 H200 0.930 . S
C214 C212 1.395 . S
C214 C217 1.403 . S
C215 C212 1.399 1_554 S
C215 C216 1.529 . S
C215 C219 1.399 . S
C216 H201 0.960 . S
C216 H202 0.960 1_554 S
C216 H203 0.960 . S
C216 C215 1.529 . S
C217 C214 1.403 . S
C217 C218 1.395 . S
C217 C221 1.495 . S
C218 C217 1.395 . S
C218 C219 1.382 1_556 S
C218 C220 1.478 1_556 S
C219 H213 0.930 . S
C219 C215 1.399 . S
C219 C218 1.382 1_554 S
C220 C218 1.478 1_554 S
C220 C222 1.381 1_554 S
C220 C226 1.383 . S
C221 C217 1.495 . S
C221 H227 0.959 . S
C221 H228 0.961 1_556 S
C221 H229 0.960 . S
C222 C220 1.381 1_556 S
C222 C223 1.394 . S
C222 H230 0.930 . S
C223 C222 1.394 . S
C223 C224 1.383 1_556 S
C223 H231 0.929 . S
C224 C223 1.383 1_554 S
C224 C225 1.377 . S
C225 H209 0.930 . S
C225 C224 1.377 . S
C225 C226 1.379 . S
C226 H210 0.931 . S
C226 C220 1.383 . S
C226 C225 1.379 . S
H227 C221 0.959 . S
H228 C221 0.961 1_554 S
H229 C221 0.960 . S
H230 C222 0.930 . S
H231 C223 0.929 . S
H232 C240 0.929 . S
H233 C242 0.930 . S
H234 C244 0.930 . S
H235 C247 0.929 . S
H236 C250 0.930 . S
H237 C252 0.960 . S
H238 C252 0.960 . S
H239 C252 0.960 . S
C240 H232 0.929 . S
C240 C241 1.377 . S
C240 C242 1.384 . S
C241 C240 1.377 . S
C241 C247 1.390 . S
C242 H233 0.930 . S
C242 C240 1.384 . S
C242 C243 1.372 . S
C243 C242 1.372 . S
C243 C244 1.400 . S
C243 C248 1.490 . S
C244 H234 0.930 . S
C244 C243 1.400 . S
C244 C247 1.386 . S
H245 C261 0.930 . S
H246 C262 0.931 . S
C247 H235 0.929 . S
C247 C241 1.390 . S
C247 C244 1.386 . S
C248 C243 1.490 . S
C248 C250 1.395 . S
C248 C251 1.403 . S
H249 C255 0.930 . S
C250 H236 0.930 . S
C250 C248 1.395 . S
C250 C253 1.403 . S
C251 C248 1.403 . S
C251 C252 1.524 . S
C251 C255 1.400 . S
C252 H237 0.960 . S
C252 H238 0.960 . S
C252 H239 0.960 . S
C252 C251 1.524 . S
C253 C250 1.403 . S
C253 C254 1.392 . S
C253 C257 1.495 . S
C254 C253 1.392 . S
C254 C255 1.385 . S
C254 C256 1.478 . S
C255 H249 0.930 . S
C255 C251 1.400 . S
C255 C254 1.385 . S
C256 C254 1.478 . S
C256 C258 1.381 . S
C256 C262 1.383 . S
C257 C253 1.495 . S
C257 H263 0.959 . S
C257 H264 0.961 . S
C257 H265 0.960 . S
C258 C256 1.381 . S
C258 C259 1.394 . S
C258 H266 0.930 . S
C259 C258 1.394 . S
C259 C260 1.383 . S
C259 H267 0.929 . S
C260 C259 1.383 . S
C260 C261 1.377 . S
C261 H245 0.930 . S
C261 C260 1.377 . S
C261 C262 1.379 . S
C262 H246 0.931 . S
C262 C256 1.383 . S
C262 C261 1.379 . S
H263 C257 0.959 . S
H264 C257 0.961 . S
H265 C257 0.960 . S
H266 C258 0.930 . S
H267 C259 0.929 . S
H268 C276 0.929 . S
H269 C278 0.930 . S
H270 C280 0.930 . S
H271 C283 0.929 . S
H272 C286 0.930 . S
H273 C288 0.960 . S
H274 C288 0.960 . S
H275 C288 0.960 . S
C276 H268 0.929 . S
C276 C277 1.377 . S
C276 C278 1.384 . S
C277 C276 1.377 . S
C277 C283 1.390 . S
C278 H269 0.930 . S
C278 C276 1.384 . S
C278 C279 1.372 . S
C279 C278 1.372 . S
C279 C280 1.400 . S
C279 C284 1.490 . S
C280 H270 0.930 . S
C280 C279 1.400 . S
C280 C283 1.386 . S
H281 C297 0.930 . S
H282 C298 0.931 . S
C283 H271 0.929 . S
C283 C277 1.390 . S
C283 C280 1.386 . S
C284 C279 1.490 . S
C284 C286 1.395 . S
C284 C287 1.403 . S
H285 C291 0.930 . S
C286 H272 0.930 . S
C286 C284 1.395 . S
C286 C289 1.403 . S
C287 C284 1.403 . S
C287 C288 1.524 . S
C287 C291 1.400 . S
C288 H273 0.960 . S
C288 H274 0.960 . S
C288 H275 0.960 . S
C288 C287 1.524 . S
C289 C286 1.403 . S
C289 C290 1.392 . S
C289 C293 1.495 . S
C290 C289 1.392 . S
C290 C291 1.385 . S
C290 C292 1.478 . S
C291 H285 0.930 . S
C291 C287 1.400 . S
C291 C290 1.385 . S
C292 C290 1.478 . S
C292 C294 1.381 . S
C292 C298 1.383 . S
C293 C289 1.495 . S
C293 H299 0.959 . S
C293 H300 0.961 . S
C293 H301 0.960 . S
C294 C292 1.381 . S
C294 C295 1.394 . S
C294 H302 0.930 . S
C295 C294 1.394 . S
C295 C296 1.383 . S
C295 H303 0.929 . S
C296 C295 1.383 . S
C296 C297 1.377 . S
C297 H281 0.930 . S
C297 C296 1.377 . S
C297 C298 1.379 . S
C298 H282 0.931 . S
C298 C292 1.383 . S
C298 C297 1.379 . S
H299 C293 0.959 . S
H300 C293 0.961 . S
H301 C293 0.960 . S
H302 C294 0.930 . S
H303 C295 0.929 . S
H304 C312 0.929 . S
H305 C314 0.930 . S
H306 C316 0.929 . S
H307 C319 0.928 . S
H308 C322 0.930 . S
H309 C324 0.960 . S
H310 C324 0.960 . S
H311 C324 0.960 . S
C312 H304 0.929 . S
C312 C313 1.376 1_556 S
C312 C314 1.385 . S
C313 C312 1.376 1_554 S
C313 C319 1.390 1_545 S
C314 H305 0.930 . S
C314 C312 1.385 . S
C314 C315 1.373 . S
C315 C314 1.373 . S
C315 C316 1.400 1_545 S
C315 C320 1.493 1_556 S
C316 H306 0.929 . S
C316 C315 1.400 1_565 S
C316 C319 1.385 1_556 S
H317 C333 0.930 . S
H318 C334 0.931 . S
C319 H307 0.928 . S
C319 C313 1.390 1_565 S
C319 C316 1.385 1_554 S
C320 C315 1.493 1_554 S
C320 C322 1.417 . S
C320 C323 1.378 1_544 S
H321 C327 0.930 . S
C322 H308 0.930 . S
C322 C320 1.417 . S
C322 C325 1.403 . S
C323 C320 1.378 1_566 S
C323 C324 1.524 . S
C323 C327 1.400 . S
C324 H309 0.960 . S
C324 H310 0.960 . S
C324 H311 0.960 . S
C324 C323 1.524 . S
C325 C322 1.403 . S
C325 C326 1.392 . S
C325 C329 1.495 . S
C326 C325 1.392 . S
C326 C327 1.385 1_544 S
C326 C328 1.478 . S
C327 H321 0.930 . S
C327 C323 1.400 . S
C327 C326 1.385 1_566 S
C328 C326 1.478 . S
C328 C330 1.381 . S
C328 C334 1.383 1_545 S
C329 C325 1.495 . S
C329 H335 0.959 . S
C329 H336 0.961 . S
C329 H337 0.960 . S
C330 C328 1.381 . S
C330 C331 1.389 1_554 S
C330 H338 0.930 1_554 S
C331 C330 1.389 1_556 S
C331 C332 1.379 1_556 S
C331 H339 0.936 . S
C332 C331 1.379 1_554 S
C332 C333 1.380 1_545 S
C333 H317 0.930 . S
C333 C332 1.380 1_565 S
C333 C334 1.379 . S
C334 H318 0.931 . S
C334 C328 1.383 1_565 S
C334 C333 1.379 . S
H335 C329 0.959 . S
H336 C329 0.961 . S
H337 C329 0.960 . S
H338 C330 0.930 1_556 S
H339 C331 0.936 . S
H340 C348 0.929 . S
H341 C350 0.930 . S
H342 C352 0.930 . S
H343 C355 0.929 . S
H344 C358 0.930 . S
H345 C360 0.960 . S
H346 C360 0.960 . S
H347 C360 0.960 . S
C348 H340 0.929 . S
C348 C349 1.377 . S
C348 C350 1.384 . S
C349 C348 1.377 . S
C349 C355 1.390 . S
C350 H341 0.930 . S
C350 C348 1.384 . S
C350 C351 1.372 . S
C351 C350 1.372 . S
C351 C352 1.400 . S
C351 C356 1.490 . S
C352 H342 0.930 . S
C352 C351 1.400 . S
C352 C355 1.386 . S
H353 C369 0.930 . S
H354 C370 0.931 . S
C355 H343 0.929 . S
C355 C349 1.390 . S
C355 C352 1.386 . S
C356 C351 1.490 . S
C356 C358 1.395 1_545 S
C356 C359 1.403 . S
H357 C363 0.930 . S
C358 H344 0.930 . S
C358 C356 1.395 1_565 S
C358 C361 1.403 . S
C359 C356 1.403 . S
C359 C360 1.524 . S
C359 C363 1.400 . S
C360 H345 0.960 . S
C360 H346 0.960 . S
C360 H347 0.960 . S
C360 C359 1.524 . S
C361 C358 1.403 . S
C361 C362 1.392 . S
C361 C365 1.495 . S
C362 C361 1.392 . S
C362 C363 1.385 1_565 S
C362 C364 1.478 . S
C363 H357 0.930 . S
C363 C359 1.400 . S
C363 C362 1.385 1_545 S
C364 C362 1.478 . S
C364 C366 1.381 . S
C364 C370 1.383 . S
C365 C361 1.495 . S
C365 H371 0.959 . S
C365 H372 0.961 . S
C365 H373 0.960 . S
C366 C364 1.381 . S
C366 C367 1.394 . S
C366 H374 0.930 . S
C367 C366 1.394 . S
C367 C368 1.383 . S
C367 H375 0.929 . S
C368 C367 1.383 . S
C368 C369 1.377 . S
C369 H353 0.930 . S
C369 C368 1.377 . S
C369 C370 1.379 . S
C370 H354 0.931 . S
C370 C364 1.383 . S
C370 C369 1.379 . S
H371 C365 0.959 . S
H372 C365 0.961 . S
H373 C365 0.960 . S
H374 C366 0.930 . S
H375 C367 0.929 . S
H376 C384 0.929 . S
H377 C386 0.930 . S
H378 C388 0.930 . S
H379 C391 0.929 . S
H380 C394 0.930 . S
H381 C396 0.960 1_455 S
H382 C396 0.960 . S
H383 C396 0.960 1_556 S
C384 H376 0.929 . S
C384 C385 1.400 . S
C384 C386 1.384 . S
C385 C384 1.400 . S
C385 C391 1.363 1_554 S
C386 H377 0.930 . S
C386 C384 1.384 . S
C386 C387 1.372 . S
C387 C386 1.372 . S
C387 C388 1.400 1_554 S
C387 C392 1.490 . S
C388 H378 0.930 . S
C388 C387 1.400 1_556 S
C388 C391 1.386 . S
H389 C405 0.930 . S
H390 C406 0.931 . S
C391 H379 0.929 . S
C391 C385 1.363 1_556 S
C391 C388 1.386 . S
C392 C387 1.490 . S
C392 C394 1.391 1_554 S
C392 C395 1.403 . S
H393 C399 0.930 . S
C394 H380 0.930 . S
C394 C392 1.391 1_556 S
C394 C397 1.409 1_655 S
C395 C392 1.403 . S
C395 C396 1.524 . S
C395 C399 1.400 1_655 S
C396 H381 0.960 1_655 S
C396 H382 0.960 . S
C396 H383 0.960 1_554 S
C396 C395 1.524 . S
C397 C394 1.409 1_455 S
C397 C398 1.393 1_556 S
C397 C401 1.495 . S
C398 C397 1.393 1_554 S
C398 C399 1.387 . S
C398 C400 1.473 1_554 S
C399 H393 0.930 . S
C399 C395 1.400 1_455 S
C399 C398 1.387 . S
C400 C398 1.473 1_556 S
C400 C402 1.367 1_556 S
C400 C406 1.399 . S
C401 C397 1.495 . S
C401 H407 0.959 1_455 S
C401 H408 0.961 . S
C401 H409 0.960 1_556 S
C402 C400 1.367 1_554 S
C402 C403 1.394 . S
C402 H410 0.930 . S
C403 C402 1.394 . S
C403 C404 1.363 1_554 S
C403 H411 0.929 . S
C404 C403 1.363 1_556 S
C404 C405 1.394 . S
C405 H389 0.930 . S
C405 C404 1.394 . S
C405 C406 1.379 . S
C406 H390 0.931 . S
C406 C400 1.399 . S
C406 C405 1.379 . S
H407 C401 0.959 1_655 S
H408 C401 0.961 . S
H409 C401 0.960 1_554 S
H410 C402 0.930 . S
H411 C403 0.929 . S
H412 C420 0.929 . S
H413 C422 0.930 . S
H414 C424 0.930 . S
H415 C427 0.929 . S
H416 C430 0.930 . S
H417 C432 0.960 . S
H418 C432 0.960 1_455 S
H419 C432 0.960 1_455 S
C420 H412 0.929 . S
C420 C421 1.377 . S
C420 C422 1.384 . S
C421 C420 1.377 . S
C421 C427 1.390 . S
C422 H413 0.930 . S
C422 C420 1.384 . S
C422 C423 1.372 . S
C423 C422 1.372 . S
C423 C424 1.400 . S
C423 C428 1.490 . S
C424 H414 0.930 . S
C424 C423 1.400 . S
C424 C427 1.386 . S
H425 C441 0.930 . S
H426 C442 0.931 . S
C427 H415 0.929 . S
C427 C421 1.390 . S
C427 C424 1.386 . S
C428 C423 1.490 . S
C428 C430 1.395 . S
C428 C431 1.409 . S
H429 C435 0.930 . S
C430 H416 0.930 . S
C430 C428 1.395 . S
C430 C433 1.403 . S
C431 C428 1.409 . S
C431 C432 1.525 1_455 S
C431 C435 1.393 1_455 S
C432 H417 0.960 . S
C432 H418 0.960 1_655 S
C432 H419 0.960 1_655 S
C432 C431 1.525 1_655 S
C433 C430 1.403 . S
C433 C434 1.392 1_455 S
C433 C437 1.495 . S
C434 C433 1.392 1_655 S
C434 C435 1.385 . S
C434 C436 1.478 . S
C435 H429 0.930 . S
C435 C431 1.393 1_655 S
C435 C434 1.385 . S
C436 C434 1.478 . S
C436 C438 1.381 . S
C436 C442 1.383 . S
C437 C433 1.495 . S
C437 H443 0.959 . S
C437 H444 0.961 1_455 S
C437 H445 0.958 . S
C438 C436 1.381 . S
C438 C439 1.394 . S
C438 H446 0.930 . S
C439 C438 1.394 . S
C439 C440 1.383 . S
C439 H447 0.929 . S
C440 C439 1.383 . S
C440 C441 1.377 . S
C441 H425 0.930 . S
C441 C440 1.377 . S
C441 C442 1.379 . S
C442 H426 0.931 . S
C442 C436 1.383 . S
C442 C441 1.379 . S
H443 C437 0.959 . S
H444 C437 0.961 1_655 S
H445 C437 0.958 . S
H446 C438 0.930 . S
H447 C439 0.929 . S
H448 C456 0.929 . S
H449 C458 0.930 . S
H450 C460 0.931 1_565 S
H451 C463 0.929 1_565 S
H452 C466 0.930 . S
H453 C468 0.960 . S
H454 C468 0.960 . S
H455 C468 0.960 . S
C456 H448 0.929 . S
C456 C457 1.381 . S
C456 C458 1.384 . S
C457 C456 1.381 . S
C457 C463 1.386 1_455 S
C458 H449 0.930 . S
C458 C456 1.384 . S
C458 C459 1.372 . S
C459 C458 1.372 . S
C459 C460 1.399 1_455 S
C459 C464 1.490 . S
C460 H450 0.931 1_545 S
C460 C459 1.399 1_655 S
C460 C463 1.386 . S
H461 C477 0.930 . S
H462 C478 0.931 . S
C463 H451 0.929 1_545 S
C463 C457 1.386 1_655 S
C463 C460 1.386 . S
C464 C459 1.490 . S
C464 C466 1.395 1_545 S
C464 C467 1.403 1_455 S
H465 C471 0.930 . S
C466 H452 0.930 . S
C466 C464 1.395 1_565 S
C466 C469 1.403 . S
C467 C464 1.403 1_655 S
C467 C468 1.524 . S
C467 C471 1.400 . S
C468 H453 0.960 . S
C468 H454 0.960 . S
C468 H455 0.960 . S
C468 C467 1.524 . S
C469 C466 1.403 . S
C469 C470 1.392 . S
C469 C473 1.495 . S
C470 C469 1.392 . S
C470 C471 1.385 1_465 S
C470 C472 1.478 . S
C471 H465 0.930 . S
C471 C467 1.400 . S
C471 C470 1.385 1_645 S
C472 C470 1.478 . S
C472 C474 1.381 1_565 S
C472 C478 1.383 1_455 S
C473 C469 1.495 . S
C473 H479 0.959 . S
C473 H480 0.961 . S
C473 H481 0.960 . S
C474 C472 1.381 1_545 S
C474 C475 1.394 . S
C474 H482 0.930 . S
C475 C474 1.394 . S
C475 C476 1.384 1_545 S
C475 H483 0.929 . S
C476 C475 1.384 1_565 S
C476 C477 1.377 1_455 S
C477 H461 0.930 . S
C477 C476 1.377 1_655 S
C477 C478 1.379 . S
C478 H462 0.931 . S
C478 C472 1.383 1_655 S
C478 C477 1.379 . S
H479 C473 0.959 . S
H480 C473 0.961 . S
H481 C473 0.960 . S
H482 C474 0.930 . S
H483 C475 0.929 . S
H484 C492 0.929 . S
H485 C494 0.930 . S
H486 C496 0.930 . S
H487 C499 0.929 . S
H488 C502 0.930 . S
H489 C504 0.960 . S
H490 C504 0.960 . S
H491 C504 0.960 . S
C492 H484 0.929 . S
C492 C493 1.353 1_445 S
C492 C494 1.384 . S
C493 C492 1.353 1_665 S
C493 C499 1.414 . S
C494 H485 0.930 . S
C494 C492 1.384 . S
C494 C495 1.382 1_455 S
C495 C494 1.382 1_655 S
C495 C496 1.389 1_545 S
C495 C500 1.491 1_655 S
C496 H486 0.930 . S
C496 C495 1.389 1_565 S
C496 C499 1.386 . S
H497 C513 0.930 . S
H498 C514 0.931 . S
C499 H487 0.929 . S
C499 C493 1.414 . S
C499 C496 1.386 . S
C500 C495 1.491 1_455 S
C500 C502 1.409 . S
C500 C503 1.390 1_445 S
H501 C507 0.930 . S
C502 H488 0.930 . S
C502 C500 1.409 . S
C502 C505 1.403 . S
C503 C500 1.390 1_665 S
C503 C504 1.524 . S
C503 C507 1.400 . S
C504 H489 0.960 . S
C504 H490 0.960 . S
C504 H491 0.960 . S
C504 C503 1.524 . S
C505 C502 1.403 . S
C505 C506 1.392 . S
C505 C509 1.495 . S
C506 C505 1.392 . S
C506 C507 1.385 1_445 S
C506 C508 1.478 . S
C507 H501 0.930 . S
C507 C503 1.400 . S
C507 C506 1.385 1_665 S
C508 C506 1.478 . S
C508 C510 1.381 . S
C508 C514 1.383 1_545 S
C509 C505 1.495 . S
C509 H515 0.959 . S
C509 H516 0.961 . S
C509 H517 0.960 . S
C510 C508 1.381 . S
C510 C511 1.394 . S
C510 H518 0.930 . S
C511 C510 1.394 . S
C511 C512 1.356 1_545 S
C511 H519 0.929 . S
C512 C511 1.356 1_565 S
C512 C513 1.402 . S
C513 H497 0.930 . S
C513 C512 1.402 . S
C513 C514 1.379 . S
C514 H498 0.931 . S
C514 C508 1.383 1_565 S
C514 C513 1.379 . S
H515 C509 0.959 . S
H516 C509 0.961 . S
H517 C509 0.960 . S
H518 C510 0.930 . S
H519 C511 0.929 . S
H520 C528 0.929 . S
H521 C530 0.930 . S
H522 C532 0.930 . S
H523 C535 0.929 . S
H524 C538 0.930 . S
H525 C540 0.960 . S
H526 C540 0.960 . S
H527 C540 0.960 . S
C528 H520 0.929 . S
C528 C529 1.377 . S
C528 C530 1.384 . S
C529 C528 1.377 . S
C529 C535 1.390 . S
C530 H521 0.930 . S
C530 C528 1.384 . S
C530 C531 1.372 . S
C531 C530 1.372 . S
C531 C532 1.400 . S
C531 C536 1.490 . S
C532 H522 0.930 . S
C532 C531 1.400 . S
C532 C535 1.386 . S
H533 C549 0.930 . S
H534 C550 0.931 . S
C535 H523 0.929 . S
C535 C529 1.390 . S
C535 C532 1.386 . S
C536 C531 1.490 . S
C536 C538 1.395 . S
C536 C539 1.403 . S
H537 C543 0.930 . S
C538 H524 0.930 . S
C538 C536 1.395 . S
C538 C541 1.403 . S
C539 C536 1.403 . S
C539 C540 1.524 . S
C539 C543 1.400 . S
C540 H525 0.960 . S
C540 H526 0.960 . S
C540 H527 0.960 . S
C540 C539 1.524 . S
C541 C538 1.403 . S
C541 C542 1.392 . S
C541 C545 1.495 . S
C542 C541 1.392 . S
C542 C543 1.385 . S
C542 C544 1.478 . S
C543 H537 0.930 . S
C543 C539 1.400 . S
C543 C542 1.385 . S
C544 C542 1.478 . S
C544 C546 1.381 . S
C544 C550 1.383 . S
C545 C541 1.495 . S
C545 H551 0.959 . S
C545 H552 0.961 . S
C545 H553 0.960 . S
C546 C544 1.381 . S
C546 C547 1.394 . S
C546 H554 0.930 . S
C547 C546 1.394 . S
C547 C548 1.383 . S
C547 H555 0.929 . S
C548 C547 1.383 . S
C548 C549 1.377 . S
C549 H533 0.930 . S
C549 C548 1.377 . S
C549 C550 1.379 . S
C550 H534 0.931 . S
C550 C544 1.383 . S
C550 C549 1.379 . S
H551 C545 0.959 . S
H552 C545 0.961 . S
H553 C545 0.960 . S
H554 C546 0.930 . S
H555 C547 0.929 . S
H556 C564 0.929 . S
H557 C566 0.930 . S
H558 C568 0.930 . S
H559 C571 0.929 . S
H560 C574 0.930 . S
H561 C576 0.960 . S
H562 C576 0.960 . S
H563 C576 0.960 . S
C564 H556 0.929 . S
C564 C565 1.377 . S
C564 C566 1.384 . S
C565 C564 1.377 . S
C565 C571 1.390 . S
C566 H557 0.930 . S
C566 C564 1.384 . S
C566 C567 1.372 . S
C567 C566 1.372 . S
C567 C568 1.400 . S
C567 C572 1.490 . S
C568 H558 0.930 . S
C568 C567 1.400 . S
C568 C571 1.386 . S
H569 C585 0.930 . S
H570 C586 0.931 . S
C571 H559 0.929 . S
C571 C565 1.390 . S
C571 C568 1.386 . S
C572 C567 1.490 . S
C572 C574 1.395 . S
C572 C575 1.403 . S
H573 C579 0.930 . S
C574 H560 0.930 . S
C574 C572 1.395 . S
C574 C577 1.403 . S
C575 C572 1.403 . S
C575 C576 1.524 . S
C575 C579 1.400 . S
C576 H561 0.960 . S
C576 H562 0.960 . S
C576 H563 0.960 . S
C576 C575 1.524 . S
C577 C574 1.403 . S
C577 C578 1.392 . S
C577 C581 1.495 . S
C578 C577 1.392 . S
C578 C579 1.385 . S
C578 C580 1.478 . S
C579 H573 0.930 . S
C579 C575 1.400 . S
C579 C578 1.385 . S
C580 C578 1.478 . S
C580 C582 1.381 . S
C580 C586 1.383 . S
C581 C577 1.495 . S
C581 H587 0.959 . S
C581 H588 0.961 . S
C581 H589 0.960 . S
C582 C580 1.381 . S
C582 C583 1.394 . S
C582 H590 0.930 . S
C583 C582 1.394 . S
C583 C584 1.383 . S
C583 H591 0.929 . S
C584 C583 1.383 . S
C584 C585 1.377 . S
C585 H569 0.930 . S
C585 C584 1.377 . S
C585 C586 1.379 . S
C586 H570 0.931 . S
C586 C580 1.383 . S
C586 C585 1.379 . S
H587 C581 0.959 . S
H588 C581 0.961 . S
H589 C581 0.960 . S
H590 C582 0.930 . S
H591 C583 0.929 . S
C169 C86 0.104 . S
C188 C15 0.177 . S
C205 C95 0.107 . S
C224 C6 0.116 . S
C241 C59 3.496 . S
C260 C130 3.498 . S
C277 C50 3.497 . S
C296 C139 3.490 . S
C313 C19 4.895 . S
C332 C10 4.894 1_544 S
C349 C55 0.900 . S
C368 C46 0.940 . S
C385 C99 4.900 . S
C404 C90 4.892 . S
C421 C126 0.894 . S
C440 C135 0.944 . S
C457 C49 1.457 1_455 S
C476 C18 1.432 1_455 S
C493 C9 1.442 1_665 S
C512 C58 1.447 . S
C529 C129 1.456 . S
C548 C98 1.428 . S
C565 C138 1.457 . S
C584 C89 1.448 . S
