# Generated by pormake.
# Topology wlq, (5)-cn, num edge types: 1
# Building blocks:
#     Node 0, Type 0, BuildingBlock: BEQFEK_clean_sbu_0, # of connection points: 5
#     Node 1, Type 0, BuildingBlock: BEQFEK_clean_sbu_0, # of connection points: 5
#     Node 2, Type 0, BuildingBlock: BEQFEK_clean_sbu_0, # of connection points: 5
#     Node 3, Type 0, BuildingBlock: BEQFEK_clean_sbu_0, # of connection points: 5
#     Node 4, Type 0, BuildingBlock: BEQFEK_clean_sbu_0, # of connection points: 5
#     Node 5, Type 0, BuildingBlock: BEQFEK_clean_sbu_0, # of connection points: 5
#     Node 6, Type 0, BuildingBlock: BEQFEK_clean_sbu_0, # of connection points: 5
#     Node 7, Type 0, BuildingBlock: BEQFEK_clean_sbu_0, # of connection points: 5
#     Node 8, Type 0, BuildingBlock: BEQFEK_clean_sbu_0, # of connection points: 5
#     Node 9, Type 0, BuildingBlock: BEQFEK_clean_sbu_0, # of connection points: 5
#     Node 10, Type 0, BuildingBlock: BEQFEK_clean_sbu_0, # of connection points: 5
#     Node 11, Type 0, BuildingBlock: BEQFEK_clean_sbu_0, # of connection points: 5
#     Node 12, Type 0, BuildingBlock: BEQFEK_clean_sbu_0, # of connection points: 5
#     Node 13, Type 0, BuildingBlock: BEQFEK_clean_sbu_0, # of connection points: 5
#     Node 14, Type 0, BuildingBlock: BEQFEK_clean_sbu_0, # of connection points: 5
#     Node 15, Type 0, BuildingBlock: BEQFEK_clean_sbu_0, # of connection points: 5
#     Node 16, Type 0, BuildingBlock: BEQFEK_clean_sbu_0, # of connection points: 5
#     Node 17, Type 0, BuildingBlock: BEQFEK_clean_sbu_0, # of connection points: 5
#     Node 18, Type 0, BuildingBlock: BEQFEK_clean_sbu_0, # of connection points: 5
#     Node 19, Type 0, BuildingBlock: BEQFEK_clean_sbu_0, # of connection points: 5
#     Node 20, Type 0, BuildingBlock: BEQFEK_clean_sbu_0, # of connection points: 5
#     Node 21, Type 0, BuildingBlock: BEQFEK_clean_sbu_0, # of connection points: 5
#     Node 22, Type 0, BuildingBlock: BEQFEK_clean_sbu_0, # of connection points: 5
#     Node 23, Type 0, BuildingBlock: BEQFEK_clean_sbu_0, # of connection points: 5
#     Node 24, Type 0, BuildingBlock: BEQFEK_clean_sbu_0, # of connection points: 5
#     Node 25, Type 0, BuildingBlock: BEQFEK_clean_sbu_0, # of connection points: 5
#     Node 26, Type 0, BuildingBlock: BEQFEK_clean_sbu_0, # of connection points: 5
#     Node 27, Type 0, BuildingBlock: BEQFEK_clean_sbu_0, # of connection points: 5
#     Node 28, Type 0, BuildingBlock: BEQFEK_clean_sbu_0, # of connection points: 5
#     Node 29, Type 0, BuildingBlock: BEQFEK_clean_sbu_0, # of connection points: 5
#     Node 30, Type 0, BuildingBlock: BEQFEK_clean_sbu_0, # of connection points: 5
#     Node 31, Type 0, BuildingBlock: BEQFEK_clean_sbu_0, # of connection points: 5
#     Node 32, Type 0, BuildingBlock: BEQFEK_clean_sbu_0, # of connection points: 5
#     Node 33, Type 0, BuildingBlock: BEQFEK_clean_sbu_0, # of connection points: 5
#     Node 34, Type 0, BuildingBlock: BEQFEK_clean_sbu_0, # of connection points: 5
#     Node 35, Type 0, BuildingBlock: BEQFEK_clean_sbu_0, # of connection points: 5
#     Edge 36, Type (0, 0), BuildingBlock: UVAHIK_clean_linker_0, # of connection points: 2
#     Edge 37, Type (0, 0), BuildingBlock: UVAHIK_clean_linker_0, # of connection points: 2
#     Edge 38, Type (0, 0), BuildingBlock: UVAHIK_clean_linker_0, # of connection points: 2
#     Edge 39, Type (0, 0), BuildingBlock: UVAHIK_clean_linker_0, # of connection points: 2
#     Edge 40, Type (0, 0), BuildingBlock: UVAHIK_clean_linker_0, # of connection points: 2
#     Edge 41, Type (0, 0), BuildingBlock: UVAHIK_clean_linker_0, # of connection points: 2
#     Edge 42, Type (0, 0), BuildingBlock: UVAHIK_clean_linker_0, # of connection points: 2
#     Edge 43, Type (0, 0), BuildingBlock: UVAHIK_clean_linker_0, # of connection points: 2
#     Edge 44, Type (0, 0), BuildingBlock: UVAHIK_clean_linker_0, # of connection points: 2
#     Edge 45, Type (0, 0), BuildingBlock: UVAHIK_clean_linker_0, # of connection points: 2
#     Edge 46, Type (0, 0), BuildingBlock: UVAHIK_clean_linker_0, # of connection points: 2
#     Edge 47, Type (0, 0), BuildingBlock: UVAHIK_clean_linker_0, # of connection points: 2
#     Edge 48, Type (0, 0), BuildingBlock: UVAHIK_clean_linker_0, # of connection points: 2
#     Edge 49, Type (0, 0), BuildingBlock: UVAHIK_clean_linker_0, # of connection points: 2
#     Edge 50, Type (0, 0), BuildingBlock: UVAHIK_clean_linker_0, # of connection points: 2
#     Edge 51, Type (0, 0), BuildingBlock: UVAHIK_clean_linker_0, # of connection points: 2
#     Edge 52, Type (0, 0), BuildingBlock: UVAHIK_clean_linker_0, # of connection points: 2
#     Edge 53, Type (0, 0), BuildingBlock: UVAHIK_clean_linker_0, # of connection points: 2
#     Edge 54, Type (0, 0), BuildingBlock: UVAHIK_clean_linker_0, # of connection points: 2
#     Edge 55, Type (0, 0), BuildingBlock: UVAHIK_clean_linker_0, # of connection points: 2
#     Edge 56, Type (0, 0), BuildingBlock: UVAHIK_clean_linker_0, # of connection points: 2
#     Edge 57, Type (0, 0), BuildingBlock: UVAHIK_clean_linker_0, # of connection points: 2
#     Edge 58, Type (0, 0), BuildingBlock: UVAHIK_clean_linker_0, # of connection points: 2
#     Edge 59, Type (0, 0), BuildingBlock: UVAHIK_clean_linker_0, # of connection points: 2
#     Edge 60, Type (0, 0), BuildingBlock: UVAHIK_clean_linker_0, # of connection points: 2
#     Edge 61, Type (0, 0), BuildingBlock: UVAHIK_clean_linker_0, # of connection points: 2
#     Edge 62, Type (0, 0), BuildingBlock: UVAHIK_clean_linker_0, # of connection points: 2
#     Edge 63, Type (0, 0), BuildingBlock: UVAHIK_clean_linker_0, # of connection points: 2
#     Edge 64, Type (0, 0), BuildingBlock: UVAHIK_clean_linker_0, # of connection points: 2
#     Edge 65, Type (0, 0), BuildingBlock: UVAHIK_clean_linker_0, # of connection points: 2
#     Edge 66, Type (0, 0), BuildingBlock: UVAHIK_clean_linker_0, # of connection points: 2
#     Edge 67, Type (0, 0), BuildingBlock: UVAHIK_clean_linker_0, # of connection points: 2
#     Edge 68, Type (0, 0), BuildingBlock: UVAHIK_clean_linker_0, # of connection points: 2
#     Edge 69, Type (0, 0), BuildingBlock: UVAHIK_clean_linker_0, # of connection points: 2
#     Edge 70, Type (0, 0), BuildingBlock: UVAHIK_clean_linker_0, # of connection points: 2
#     Edge 71, Type (0, 0), BuildingBlock: UVAHIK_clean_linker_0, # of connection points: 2
#     Edge 72, Type (0, 0), BuildingBlock: UVAHIK_clean_linker_0, # of connection points: 2
#     Edge 73, Type (0, 0), BuildingBlock: UVAHIK_clean_linker_0, # of connection points: 2
#     Edge 74, Type (0, 0), BuildingBlock: UVAHIK_clean_linker_0, # of connection points: 2
#     Edge 75, Type (0, 0), BuildingBlock: UVAHIK_clean_linker_0, # of connection points: 2
#     Edge 76, Type (0, 0), BuildingBlock: UVAHIK_clean_linker_0, # of connection points: 2
#     Edge 77, Type (0, 0), BuildingBlock: UVAHIK_clean_linker_0, # of connection points: 2
#     Edge 78, Type (0, 0), BuildingBlock: UVAHIK_clean_linker_0, # of connection points: 2
#     Edge 79, Type (0, 0), BuildingBlock: UVAHIK_clean_linker_0, # of connection points: 2
#     Edge 80, Type (0, 0), BuildingBlock: UVAHIK_clean_linker_0, # of connection points: 2
#     Edge 81, Type (0, 0), BuildingBlock: UVAHIK_clean_linker_0, # of connection points: 2
#     Edge 82, Type (0, 0), BuildingBlock: UVAHIK_clean_linker_0, # of connection points: 2
#     Edge 83, Type (0, 0), BuildingBlock: UVAHIK_clean_linker_0, # of connection points: 2
#     Edge 84, Type (0, 0), BuildingBlock: UVAHIK_clean_linker_0, # of connection points: 2
#     Edge 85, Type (0, 0), BuildingBlock: UVAHIK_clean_linker_0, # of connection points: 2
#     Edge 86, Type (0, 0), BuildingBlock: UVAHIK_clean_linker_0, # of connection points: 2
#     Edge 87, Type (0, 0), BuildingBlock: UVAHIK_clean_linker_0, # of connection points: 2
#     Edge 88, Type (0, 0), BuildingBlock: UVAHIK_clean_linker_0, # of connection points: 2
#     Edge 89, Type (0, 0), BuildingBlock: UVAHIK_clean_linker_0, # of connection points: 2
#     Edge 90, Type (0, 0), BuildingBlock: UVAHIK_clean_linker_0, # of connection points: 2
#     Edge 91, Type (0, 0), BuildingBlock: UVAHIK_clean_linker_0, # of connection points: 2
#     Edge 92, Type (0, 0), BuildingBlock: UVAHIK_clean_linker_0, # of connection points: 2
#     Edge 93, Type (0, 0), BuildingBlock: UVAHIK_clean_linker_0, # of connection points: 2
#     Edge 94, Type (0, 0), BuildingBlock: UVAHIK_clean_linker_0, # of connection points: 2
#     Edge 95, Type (0, 0), BuildingBlock: UVAHIK_clean_linker_0, # of connection points: 2
#     Edge 96, Type (0, 0), BuildingBlock: UVAHIK_clean_linker_0, # of connection points: 2
#     Edge 97, Type (0, 0), BuildingBlock: UVAHIK_clean_linker_0, # of connection points: 2
#     Edge 98, Type (0, 0), BuildingBlock: UVAHIK_clean_linker_0, # of connection points: 2
#     Edge 99, Type (0, 0), BuildingBlock: UVAHIK_clean_linker_0, # of connection points: 2
#     Edge 100, Type (0, 0), BuildingBlock: UVAHIK_clean_linker_0, # of connection points: 2
#     Edge 101, Type (0, 0), BuildingBlock: UVAHIK_clean_linker_0, # of connection points: 2
#     Edge 102, Type (0, 0), BuildingBlock: UVAHIK_clean_linker_0, # of connection points: 2
#     Edge 103, Type (0, 0), BuildingBlock: UVAHIK_clean_linker_0, # of connection points: 2
#     Edge 104, Type (0, 0), BuildingBlock: UVAHIK_clean_linker_0, # of connection points: 2
#     Edge 105, Type (0, 0), BuildingBlock: UVAHIK_clean_linker_0, # of connection points: 2
#     Edge 106, Type (0, 0), BuildingBlock: UVAHIK_clean_linker_0, # of connection points: 2
#     Edge 107, Type (0, 0), BuildingBlock: UVAHIK_clean_linker_0, # of connection points: 2
#     Edge 108, Type (0, 0), BuildingBlock: UVAHIK_clean_linker_0, # of connection points: 2
#     Edge 109, Type (0, 0), BuildingBlock: UVAHIK_clean_linker_0, # of connection points: 2
#     Edge 110, Type (0, 0), BuildingBlock: UVAHIK_clean_linker_0, # of connection points: 2
#     Edge 111, Type (0, 0), BuildingBlock: UVAHIK_clean_linker_0, # of connection points: 2
#     Edge 112, Type (0, 0), BuildingBlock: UVAHIK_clean_linker_0, # of connection points: 2
#     Edge 113, Type (0, 0), BuildingBlock: UVAHIK_clean_linker_0, # of connection points: 2
#     Edge 114, Type (0, 0), BuildingBlock: UVAHIK_clean_linker_0, # of connection points: 2
#     Edge 115, Type (0, 0), BuildingBlock: UVAHIK_clean_linker_0, # of connection points: 2
#     Edge 116, Type (0, 0), BuildingBlock: UVAHIK_clean_linker_0, # of connection points: 2
#     Edge 117, Type (0, 0), BuildingBlock: UVAHIK_clean_linker_0, # of connection points: 2
#     Edge 118, Type (0, 0), BuildingBlock: UVAHIK_clean_linker_0, # of connection points: 2
#     Edge 119, Type (0, 0), BuildingBlock: UVAHIK_clean_linker_0, # of connection points: 2
#     Edge 120, Type (0, 0), BuildingBlock: UVAHIK_clean_linker_0, # of connection points: 2
#     Edge 121, Type (0, 0), BuildingBlock: UVAHIK_clean_linker_0, # of connection points: 2
#     Edge 122, Type (0, 0), BuildingBlock: UVAHIK_clean_linker_0, # of connection points: 2
#     Edge 123, Type (0, 0), BuildingBlock: UVAHIK_clean_linker_0, # of connection points: 2
#     Edge 124, Type (0, 0), BuildingBlock: UVAHIK_clean_linker_0, # of connection points: 2
#     Edge 125, Type (0, 0), BuildingBlock: UVAHIK_clean_linker_0, # of connection points: 2
# Relax obj value: 0.121
# Max RMSD: 0.139
# Mean RMSD: 0.139
data_MOF--net-wlq--node1-BEQFEK_clean_sbu_0--edge1-UVAHIK_clean_linker_0
_symmetry_space_group_name_H-M    P1
_symmetry_Int_Tables_number       1
_symmetry_cell_setting            triclinic
loop_
_symmetry_equiv_pos_as_xyz
'x, y, z'
_cell_length_a     95.235224
_cell_length_b     95.210639
_cell_length_c     46.541856
_cell_angle_alpha  90.010559
_cell_angle_beta   90.004114
_cell_angle_gamma 119.99847
loop_
_atom_site_label
_atom_site_type_symbol
_atom_site_fract_x
_atom_site_fract_y
_atom_site_fract_z
_atom_type_partial_charge
Co0 Co 0.21949 0.20028 0.974 0.0
Co1 Co 0.23061 0.20468 0.03826 0.0
C2 C 0.25298 0.22562 0.99198 0.0
O3 O 0.24199 0.21801 0.97339 0.0
O4 O 0.25043 0.22197 0.01855 0.0
C5 C 0.21522 0.21178 0.92088 0.0
O6 O 0.22362 0.22583 0.9339 0.0
C7 C 0.24023 0.21962 0.09616 0.0
C8 C 0.233 0.19783 0.12275 0.0
C9 C 0.23962 0.2145 0.12439 0.0
N10 N 0.23405 0.20652 0.07888 0.0
N11 N 0.22989 0.19358 0.09495 0.0
C12 C 0.24724 0.23668 0.08555 0.0
H13 H 0.25142 0.23771 0.06306 0.0
H14 H 0.23781 0.24026 0.08612 0.0
H15 H 0.2575 0.24516 0.09938 0.0
C16 C 0.19323 0.20411 0.99878 0.0
N17 N 0.2072 0.20395 0.0014 0.0
N18 N 0.21161 0.20583 0.02859 0.0
C19 C 0.2004 0.20724 0.04421 0.0
C20 C 0.18846 0.20622 0.02577 0.0
C21 C 0.18475 0.20239 0.97079 0.0
H22 H 0.19239 0.21311 0.95723 0.0
H23 H 0.17281 0.20156 0.97365 0.0
H24 H 0.18312 0.19145 0.95934 0.0
O25 O 0.21891 0.17982 0.982 0.0
O26 O 0.22737 0.18293 0.02719 0.0
H27 H 0.18847 0.20601 0.08448 0.0
H28 H 0.2099 0.22033 0.0833 0.0
C29 C 0.20033 0.20814 0.07629 0.0
H30 H 0.20297 0.19902 0.0857 0.0
H31 H 0.22472 0.18179 0.08696 0.0
O32 O 0.21126 0.19884 0.93475 0.0
C33 C 0.22255 0.17454 0.0042 0.0
Co34 Co 0.79584 0.01912 0.98079 0.0
Co35 Co 0.78915 0.02462 0.04447 0.0
C36 C 0.76915 0.02603 0.99711 0.0
O37 O 0.77775 0.02342 0.97941 0.0
O38 O 0.7718 0.02671 0.02406 0.0
C39 C 0.78504 0.00291 0.92782 0.0
O40 O 0.77096 0.99648 0.94099 0.0
C41 C 0.77423 0.01959 0.10241 0.0
C42 C 0.79589 0.03547 0.1284 0.0
C43 C 0.77933 0.02509 0.13018 0.0
N44 N 0.78726 0.02641 0.085 0.0
N45 N 0.80013 0.03591 0.10073 0.0
C46 C 0.75718 0.00902 0.09229 0.0
H47 H 0.75691 0.00629 0.06905 0.0
H48 H 0.75125 0.99753 0.10465 0.0
H49 H 0.75017 0.01528 0.09617 0.0
C50 C 0.79083 0.98842 0.00487 0.0
N51 N 0.79172 0.00287 0.0079 0.0
N52 N 0.78856 0.00471 0.03474 0.0
C53 C 0.78548 0.99128 0.04967 0.0
C54 C 0.78663 0.98047 0.03105 0.0
C55 C 0.7946 0.98258 0.97765 0.0
H56 H 0.80466 0.99287 0.96611 0.0
H57 H 0.78371 0.97714 0.96366 0.0
H58 H 0.79806 0.97326 0.98206 0.0
O59 O 0.81595 0.03909 0.98984 0.0
O60 O 0.81071 0.04361 0.03421 0.0
H61 H 0.7894 -0.00078 0.09348 0.0
H62 H 0.78048 0.97752 0.08917 0.0
C63 C 0.78077 0.98853 0.08068 0.0
H64 H 0.76852 0.98701 0.08307 0.0
H65 H 0.81186 0.0427 0.09257 0.0
O66 O 0.79779 0.01265 0.94148 0.0
C67 C 0.82002 0.04777 0.01238 0.0
Co68 Co 0.97838 0.77849 0.97577 0.0
Co69 Co 0.97026 0.76768 0.04003 0.0
C70 C 0.96977 0.74496 0.99618 0.0
O71 O 0.97305 0.75576 0.97721 0.0
O72 O 0.96867 0.74775 0.02263 0.0
C73 C 0.99408 0.7804 0.92333 0.0
O74 O 0.99718 0.77007 0.93657 0.0
C75 C 0.97397 0.75993 0.10026 0.0
C76 C 0.95718 0.76606 0.1222 0.0
C77 C 0.96811 0.76075 0.12734 0.0
N78 N 0.96691 0.76472 0.0805 0.0
N79 N 0.95676 0.76817 0.09378 0.0
C80 C 0.98673 0.75572 0.09299 0.0
H81 H 0.99135 0.75977 0.07087 0.0
H82 H 0.99689 0.76139 0.10858 0.0
H83 H 0.98138 0.74236 0.09402 0.0
C84 C 0.00811 0.80454 0.00166 0.0
N85 N 0.9937 0.79085 0.00403 0.0
N86 N 0.9906 0.78672 0.03129 0.0
C87 C 0.00308 0.79789 0.04721 0.0
C88 C 0.01454 0.80945 0.02889 0.0
C89 C 0.01565 0.81239 0.97361 0.0
H90 H 0.01768 0.80382 0.96058 0.0
H91 H 0.02744 0.82369 0.97648 0.0
H92 H 0.00721 0.81509 0.9616 0.0
O93 O 0.95852 0.77959 0.9809 0.0
O94 O 0.95199 0.77034 0.02547 0.0
H95 H 0.9915 0.79455 0.0882 0.0
H96 H 0.01244 0.81061 0.08732 0.0
C97 C 0.00366 0.79829 0.07933 0.0
H98 H 0.00759 0.78979 0.08706 0.0
H99 H 0.94979 0.77233 0.08348 0.0
O100 O 0.98661 0.78634 0.93668 0.0
C101 C 0.94895 0.77541 0.00225 0.0
Co102 Co 0.2019 0.22232 0.56103 0.0
Co103 Co 0.20638 0.2334 0.49681 0.0
C104 C 0.22901 0.255 0.54143 0.0
O105 O 0.2208 0.24426 0.56013 0.0
O106 O 0.2252 0.25271 0.51487 0.0
C107 C 0.21342 0.21739 0.61402 0.0
O108 O 0.22754 0.22532 0.60106 0.0
C109 C 0.21803 0.24067 0.43634 0.0
C110 C 0.19496 0.23413 0.41448 0.0
C111 C 0.21117 0.2394 0.40928 0.0
N112 N 0.20627 0.23613 0.45623 0.0
N113 N 0.19259 0.23246 0.44297 0.0
C114 C 0.23504 0.24497 0.44337 0.0
H115 H 0.23576 0.24115 0.4656 0.0
H116 H 0.23944 0.23917 0.42787 0.0
H117 H 0.24302 0.25831 0.44188 0.0
C118 C 0.20332 0.19476 0.53599 0.0
N119 N 0.20384 0.20906 0.53333 0.0
N120 N 0.20597 0.21352 0.50615 0.0
C121 C 0.20692 0.20202 0.49061 0.0
C122 C 0.2053 0.18984 0.50906 0.0
C123 C 0.20168 0.18641 0.56409 0.0
H124 H 0.21287 0.19366 0.57685 0.0
H125 H 0.19991 0.17408 0.56131 0.0
H126 H 0.19133 0.18567 0.57632 0.0
O127 O 0.18208 0.22329 0.55488 0.0
O128 O 0.18597 0.23233 0.5101 0.0
H129 H 0.20555 0.19004 0.45039 0.0
H130 H 0.2212 0.21099 0.45259 0.0
C131 C 0.20854 0.20216 0.45863 0.0
H132 H 0.20037 0.20587 0.44848 0.0
H133 H 0.1815 0.22838 0.45333 0.0
O134 O 0.20064 0.21413 0.60024 0.0
C135 C 0.17754 0.22795 0.533 0.0
Co136 Co 0.77767 0.98015 0.56673 0.0
Co137 Co 0.76704 0.97601 0.50207 0.0
C138 C 0.7443 0.97296 0.54833 0.0
O139 O 0.75509 0.97533 0.56682 0.0
O140 O 0.74704 0.97305 0.52151 0.0
C141 C 0.78171 0.99508 0.62065 0.0
O142 O 0.77417 0.00162 0.60747 0.0
C143 C 0.75739 0.98113 0.4435 0.0
C144 C 0.76804 0.96948 0.41719 0.0
C145 C 0.75936 0.97754 0.41532 0.0
N146 N 0.76473 0.97552 0.46112 0.0
N147 N 0.77099 0.96854 0.44515 0.0
C148 C 0.74798 0.98895 0.45348 0.0
H149 H 0.7441 0.98573 0.47608 0.0
H150 H 0.7557 0.00232 0.4521 0.0
H151 H 0.73722 0.98524 0.43955 0.0
C152 C 0.80364 0.01153 0.54535 0.0
N153 N 0.7902 0.99711 0.54112 0.0
N154 N 0.78579 0.99577 0.51398 0.0
C155 C 0.79637 0.0095 0.50008 0.0
C156 C 0.80792 0.01998 0.51964 0.0
C157 C 0.81277 0.0167 0.57313 0.0
H158 H 0.81226 0.00612 0.58408 0.0
H159 H 0.80714 0.02189 0.58727 0.0
H160 H 0.82566 0.02603 0.56959 0.0
O161 O 0.77849 0.9607 0.55654 0.0
O162 O 0.76976 0.95696 0.51147 0.0
H163 H 0.79572 0.00347 0.45567 0.0
H164 H 0.80459 0.025 0.4624 0.0
C165 C 0.795 0.01273 0.46906 0.0
H166 H 0.78304 0.01167 0.46528 0.0
H167 H 0.77737 0.96315 0.45337 0.0
O168 O 0.78517 0.98576 0.60669 0.0
C169 C 0.77457 0.95252 0.53341 0.0
Co170 Co 0.01755 0.79865 0.56316 0.0
Co171 Co 0.02275 0.79312 0.49849 0.0
C172 C 0.02613 0.77344 0.54416 0.0
O173 O 0.02336 0.78155 0.56269 0.0
O174 O 0.02607 0.77617 0.51737 0.0
C175 C 0.00334 0.78629 0.61684 0.0
O176 O -0.00108 0.77253 0.60352 0.0
C177 C 0.01874 0.77919 0.43948 0.0
C178 C 0.02878 0.8017 0.41385 0.0
C179 C 0.02171 0.78503 0.41143 0.0
N180 N 0.02368 0.79188 0.45752 0.0
N181 N 0.02977 0.80527 0.44197 0.0
C182 C 0.01203 0.76197 0.44896 0.0
H183 H 0.01713 0.76149 0.47006 0.0
H184 H -0.00132 0.7561 0.45125 0.0
H185 H 0.01477 0.75505 0.43293 0.0
C186 C 0.98611 0.79244 0.54092 0.0
N187 N 0.00075 0.79387 0.53706 0.0
N188 N 0.00254 0.79128 0.50988 0.0
C189 C 0.9889 0.788 0.49553 0.0
C190 C 0.97801 0.78851 0.51484 0.0
C191 C 0.98048 0.79581 0.56877 0.0
H192 H 0.99074 0.8062 0.57978 0.0
H193 H 0.97595 0.785 0.58285 0.0
H194 H 0.97061 0.79862 0.56541 0.0
O195 O 0.03664 0.81948 0.55399 0.0
O196 O 0.04122 0.81504 0.50906 0.0
H197 H 0.99508 0.79449 0.45148 0.0
H198 H 0.97373 0.78046 0.45742 0.0
C199 C 0.9862 0.78392 0.46425 0.0
H200 H 0.98824 0.77367 0.45977 0.0
H201 H 0.03443 0.81688 0.45058 0.0
O202 O 0.01106 0.79952 0.60304 0.0
C203 C 0.04511 0.82413 0.5312 0.0
Co204 Co 0.77792 0.79872 0.06106 0.0
Co205 Co 0.76552 0.79356 0.99737 0.0
C206 C 0.74383 0.77323 0.04411 0.0
O207 O 0.75518 0.7813 0.06191 0.0
O208 O 0.74585 0.77624 0.01727 0.0
C209 C 0.7813 0.78628 0.11375 0.0
O210 O 0.77191 0.77252 0.10048 0.0
C211 C 0.75547 0.77936 0.93907 0.0
C212 C 0.76199 0.80137 0.91356 0.0
C213 C 0.75552 0.78477 0.91134 0.0
N214 N 0.76175 0.79225 0.95683 0.0
N215 N 0.76553 0.80533 0.94141 0.0
C216 C 0.74857 0.76218 0.94881 0.0
H217 H 0.75137 0.76171 0.97182 0.0
H218 H 0.75346 0.75588 0.93569 0.0
H219 H 0.73523 0.75566 0.94577 0.0
C220 C 0.8028 0.79311 0.03526 0.0
N221 N 0.78947 0.79446 0.03303 0.0
N222 N 0.78448 0.79212 0.00615 0.0
C223 C 0.79467 0.78922 0.99033 0.0
C224 C 0.80649 0.78959 0.0084 0.0
C225 C 0.81224 0.79591 0.06247 0.0
H226 H 0.81279 0.80625 0.07442 0.0
H227 H 0.80601 0.78493 0.07614 0.0
H228 H 0.82476 0.79851 0.05809 0.0
O229 O 0.77893 0.81943 0.0535 0.0
O230 O 0.76887 0.81524 0.00931 0.0
H231 H 0.79107 0.79471 0.94726 0.0
H232 H 0.8032 0.78499 0.94976 0.0
C233 C 0.7927 0.78546 0.95888 0.0
H234 H 0.78174 0.77347 0.95555 0.0
H235 H 0.77066 0.81702 0.94988 0.0
O236 O 0.78632 0.79953 0.10021 0.0
C237 C 0.77443 0.82414 0.03161 0.0
Co238 Co 0.19861 0.97921 0.06277 0.0
Co239 Co 0.20217 0.97192 0.99847 0.0
C240 C 0.22414 0.97154 0.04364 0.0
O241 O 0.2166 0.97484 0.06253 0.0
O242 O 0.22011 0.97013 0.01723 0.0
C243 C 0.21068 0.99526 0.11573 0.0
O244 O 0.22465 0.00074 0.10253 0.0
C245 C 0.21617 0.97749 0.94011 0.0
C246 C 0.19496 0.95988 0.91486 0.0
C247 C 0.21116 0.9716 0.91249 0.0
N248 N 0.20345 0.96966 0.95794 0.0
N249 N 0.19084 0.95911 0.9427 0.0
C250 C 0.23298 0.98944 0.9498 0.0
H251 H 0.23326 0.99156 0.97329 0.0
H252 H 0.23749 0.00112 0.93838 0.0
H253 H 0.24125 0.98475 0.94444 0.0
C254 C 0.20201 0.00905 0.03755 0.0
N255 N 0.20161 0.9948 0.035 0.0
N256 N 0.20313 0.99204 0.00775 0.0
C257 C 0.20454 0.00463 0.99205 0.0
C258 C 0.20392 0.01577 0.01047 0.0
C259 C 0.20106 0.01622 0.06563 0.0
H260 H 0.21203 0.01926 0.07845 0.0
H261 H 0.20039 0.02742 0.06281 0.0
H262 H 0.19031 0.00717 0.07782 0.0
O263 O 0.1782 0.95907 0.05599 0.0
O264 O 0.18081 0.9533 0.01082 0.0
H265 H 0.2022 0.01459 0.95182 0.0
H266 H 0.21793 0.0094 0.95307 0.0
C267 C 0.2054 0.00559 0.95998 0.0
H268 H 0.19705 0.99356 0.95051 0.0
H269 H 0.17938 0.9514 0.95129 0.0
O270 O 0.19765 0.98633 0.10206 0.0
C271 C 0.17274 0.94987 0.03415 0.0
Co272 Co 0.01855 0.2192 0.06757 0.0
Co273 Co 0.0229 0.22839 0.00239 0.0
C274 C 0.02806 0.25292 0.04604 0.0
O275 O 0.02516 0.24226 0.06513 0.0
O276 O 0.02747 0.24958 0.01938 0.0
C277 C 0.00551 0.21924 0.12158 0.0
O278 O 0.00168 0.22896 0.10801 0.0
C279 C 0.01884 0.23769 0.94342 0.0
C280 C 0.02179 0.21967 0.91817 0.0
C281 C 0.01819 0.23201 0.91571 0.0
N282 N 0.02253 0.22896 0.96145 0.0
N283 N 0.02454 0.21841 0.94612 0.0
C284 C 0.01442 0.24999 0.95296 0.0
H285 H 0.02565 0.26196 0.95487 0.0
H286 H 0.00852 0.24669 0.97437 0.0
H287 H 0.00624 0.25104 0.93722 0.0
C288 C 0.98621 0.19447 0.048 0.0
N289 N 0.0011 0.20705 0.04289 0.0
N290 N 0.00244 0.21109 0.01559 0.0
C291 C 0.98815 0.20125 0.00247 0.0
C292 C 0.97742 0.19042 0.02264 0.0
C293 C 0.9809 0.18596 0.07634 0.0
H294 H 0.99115 0.18563 0.08692 0.0
H295 H 0.97691 0.19272 0.0904 0.0
H296 H 0.9707 0.17337 0.07373 0.0
O297 O 0.03691 0.21637 0.05815 0.0
O298 O 0.04099 0.22413 0.01251 0.0
H299 H 0.99118 0.19863 0.95767 0.0
H300 H 0.97141 0.19551 0.96698 0.0
C301 C 0.98456 0.20278 0.97171 0.0
H302 H 0.98878 0.21566 0.96674 0.0
H303 H 0.02715 0.20989 0.95492 0.0
O304 O 0.01252 0.21293 0.10794 0.0
C305 C 0.04495 0.21923 0.03499 0.0
Co306 Co 0.79646 0.77902 0.47428 0.0
Co307 Co 0.79081 0.76792 0.53893 0.0
C308 C 0.77129 0.7451 0.49273 0.0
O309 O 0.77936 0.75618 0.47448 0.0
O310 O 0.77402 0.74763 0.51959 0.0
C311 C 0.7842 0.78132 0.42068 0.0
O312 O 0.77043 0.77191 0.43389 0.0
C313 C 0.7767 0.75828 0.59796 0.0
C314 C 0.79924 0.76936 0.62361 0.0
C315 C 0.78253 0.76062 0.62599 0.0
N316 N 0.78946 0.76552 0.57993 0.0
N317 N 0.80286 0.772 0.59551 0.0
C318 C 0.75938 0.74861 0.58849 0.0
H319 H 0.75859 0.74462 0.56591 0.0
H320 H 0.75353 0.75613 0.59003 0.0
H321 H 0.75262 0.7379 0.60267 0.0
C322 C 0.79001 0.80397 0.49688 0.0
N323 N 0.7916 0.79086 0.50063 0.0
N324 N 0.78896 0.78635 0.52777 0.0
C325 C 0.78557 0.79662 0.5422 0.0
C326 C 0.78595 0.80799 0.52296 0.0
C327 C 0.79323 0.81301 0.4691 0.0
H328 H 0.80374 0.81339 0.45807 0.0
H329 H 0.78245 0.80661 0.45501 0.0
H330 H 0.79581 0.82561 0.47257 0.0
O331 O 0.81723 0.78065 0.48354 0.0
O332 O 0.81279 0.77152 0.5284 0.0
H333 H 0.79158 0.79574 0.58618 0.0
H334 H 0.77901 0.80482 0.58079 0.0
C335 C 0.78146 0.79518 0.57347 0.0
H336 H 0.77053 0.78328 0.57742 0.0
H337 H 0.81453 0.77842 0.58694 0.0
O338 O 0.79741 0.78663 0.43446 0.0
C339 C 0.82188 0.77677 0.50627 0.0
Co340 Co 0.21912 0.0199 0.47642 0.0
Co341 Co 0.22905 0.02569 0.54138 0.0
C342 C 0.2525 0.02841 0.49638 0.0
O343 O 0.24176 0.02514 0.4773 0.0
O344 O 0.2495 0.02905 0.5229 0.0
C345 C 0.21564 0.00442 0.42299 0.0
O346 O 0.22352 0.99833 0.43645 0.0
C347 C 0.23855 0.02144 0.60049 0.0
C348 C 0.2267 0.03219 0.62598 0.0
C349 C 0.23583 0.02462 0.62848 0.0
N350 N 0.23114 0.02672 0.58237 0.0
N351 N 0.22421 0.03323 0.59783 0.0
C352 C 0.24864 0.01422 0.59117 0.0
H353 H 0.24085 0.0009 0.58897 0.0
H354 H 0.2582 0.0167 0.60727 0.0
H355 H 0.25432 0.01916 0.57007 0.0
C356 C 0.19347 0.98868 0.49885 0.0
N357 N 0.20665 0.00334 0.50269 0.0
N358 N 0.21073 0.00537 0.53005 0.0
C359 C 0.20017 0.99185 0.54451 0.0
C360 C 0.18901 0.98079 0.52509 0.0
C361 C 0.1847 0.98277 0.47085 0.0
H362 H 0.18489 0.99295 0.45897 0.0
H363 H 0.19085 0.97774 0.45766 0.0
H364 H 0.17191 0.97315 0.47418 0.0
O365 O 0.21781 0.03928 0.48476 0.0
O366 O 0.22551 0.04408 0.53037 0.0
H367 H 0.20005 -0.0011 0.58809 0.0
H368 H 0.19149 0.97727 0.58323 0.0
C369 C 0.2011 0.98941 0.57605 0.0
H370 H 0.21303 0.99069 0.58109 0.0
H371 H 0.21757 0.03821 0.58914 0.0
O372 O 0.21184 0.0136 0.43658 0.0
C373 C 0.22093 0.04785 0.50732 0.0
Co374 Co 0.98003 0.20119 0.48121 0.0
Co375 Co 0.97533 0.20728 0.54565 0.0
C376 C 0.97123 0.22641 0.50041 0.0
O377 O 0.97404 0.21814 0.48225 0.0
O378 O 0.97139 0.22401 0.52734 0.0
C379 C 0.99466 0.21397 0.42824 0.0
O380 O -0.0008 0.22757 0.44223 0.0
C381 C 0.97933 0.22087 0.60458 0.0
C382 C 0.97533 0.19953 0.62991 0.0
C383 C 0.97956 0.21566 0.63231 0.0
N384 N 0.97527 0.20835 0.58655 0.0
N385 N 0.97262 0.19559 0.60194 0.0
C386 C 0.98444 0.23776 0.59511 0.0
H387 H 0.98975 0.23999 0.57323 0.0
H388 H 0.9933 0.24679 0.6104 0.0
H389 H 0.9736 0.23925 0.59442 0.0
C390 C 0.01195 0.20839 0.50236 0.0
N391 N 0.99711 0.20639 0.50667 0.0
N392 N 0.99569 0.20972 0.53357 0.0
C393 C 0.00986 0.21426 0.54721 0.0
C394 C 0.02061 0.21362 0.52778 0.0
C395 C 0.01742 0.20465 0.4747 0.0
H396 H 0.00713 0.19413 0.46403 0.0
H397 H 0.02199 0.2153 0.46023 0.0
H398 H 0.0273 0.20188 0.47837 0.0
O399 O 0.96124 0.18031 0.49078 0.0
O400 O 0.95696 0.18514 0.53565 0.0
H401 H 0.00634 0.20973 0.59232 0.0
H402 H 0.02645 0.22567 0.58278 0.0
C403 C 0.01337 0.22009 0.57762 0.0
H404 H 0.00958 0.2292 0.58122 0.0
H405 H 0.96965 0.18435 0.59316 0.0
O406 O 0.98648 0.20055 0.44127 0.0
C407 C 0.95295 0.17583 0.51378 0.0
Co408 Co 0.88646 0.53375 0.31215 0.0
Co409 Co 0.89841 0.53817 0.3761 0.0
C410 C 0.92008 0.55946 0.32971 0.0
O411 O 0.90884 0.55172 0.31156 0.0
O412 O 0.91804 0.55578 0.35633 0.0
C413 C 0.88117 0.54532 0.25943 0.0
O414 O 0.8892 0.5594 0.27252 0.0
C415 C 0.90807 0.552 0.43488 0.0
C416 C 0.90134 0.52976 0.45982 0.0
C417 C 0.90775 0.54633 0.46253 0.0
N418 N 0.90197 0.53927 0.41673 0.0
N419 N 0.89807 0.52606 0.43183 0.0
C420 C 0.91505 0.56927 0.42558 0.0
H421 H 0.91333 0.56999 0.40216 0.0
H422 H 0.90925 0.57513 0.43739 0.0
H423 H 0.92818 0.57606 0.43077 0.0
C424 C 0.86101 0.53841 0.33819 0.0
N425 N 0.87446 0.53727 0.34035 0.0
N426 N 0.87931 0.53938 0.36731 0.0
C427 C 0.86893 0.54197 0.38322 0.0
C428 C 0.85715 0.54163 0.36514 0.0
C429 C 0.85162 0.53575 0.31097 0.0
H430 H 0.8515 0.52582 0.29837 0.0
H431 H 0.85751 0.54701 0.29795 0.0
H432 H 0.83893 0.53261 0.31546 0.0
O433 O 0.88617 0.51341 0.3192 0.0
O434 O 0.89526 0.51659 0.36394 0.0
H435 H 0.8724 0.53615 0.42612 0.0
H436 H 0.86 0.54558 0.42383 0.0
C437 C 0.87068 0.54542 0.41477 0.0
H438 H 0.8815 0.55745 0.41849 0.0
H439 H 0.89302 0.51445 0.42305 0.0
O440 O 0.87794 0.53249 0.27304 0.0
C441 C 0.89022 0.50821 0.34097 0.0
Co442 Co 0.46358 0.35253 0.30991 0.0
Co443 Co 0.45895 0.35836 0.37458 0.0
C444 C 0.43833 0.36073 0.32912 0.0
O445 O 0.44608 0.35764 0.31033 0.0
O446 O 0.4417 0.36133 0.35577 0.0
C447 C 0.45192 0.33712 0.25627 0.0
O448 O 0.43785 0.33105 0.26939 0.0
C449 C 0.44481 0.35421 0.43305 0.0
C450 C 0.46713 0.36487 0.45933 0.0
C451 C 0.45041 0.35736 0.46123 0.0
N452 N 0.45769 0.35947 0.41543 0.0
N453 N 0.47097 0.36594 0.43132 0.0
C454 C 0.42769 0.34725 0.42283 0.0
H455 H 0.42347 0.33516 0.4131 0.0
H456 H 0.41943 0.34615 0.44059 0.0
H457 H 0.42718 0.35516 0.40588 0.0
C458 C 0.45806 0.32141 0.33279 0.0
N459 N 0.45943 0.33605 0.33638 0.0
N460 N 0.45724 0.33812 0.36365 0.0
C461 C 0.45432 0.32467 0.37832 0.0
C462 C 0.45458 0.3136 0.35911 0.0
C463 C 0.46101 0.31544 0.30493 0.0
H464 H 0.47105 0.3256 0.2931 0.0
H465 H 0.44988 0.31043 0.29159 0.0
H466 H 0.46413 0.3058 0.30845 0.0
O467 O 0.48415 0.37199 0.31844 0.0
O468 O 0.48081 0.37687 0.36377 0.0
H469 H 0.46136 0.33192 0.42188 0.0
H470 H 0.44852 0.31024 0.41723 0.0
C471 C 0.4509 0.32231 0.40986 0.0
H472 H 0.44015 0.32344 0.41476 0.0
H473 H 0.48267 0.37089 0.42304 0.0
O474 O 0.4648 0.34622 0.27016 0.0
C475 C 0.48935 0.38063 0.34096 0.0
Co476 Co 0.64524 0.11111 0.31078 0.0
Co477 Co 0.63943 0.09975 0.37507 0.0
C478 C 0.63847 0.0779 0.32846 0.0
O479 O 0.64113 0.0888 0.31006 0.0
O480 O 0.63767 0.08031 0.35519 0.0
C481 C 0.66036 0.11554 0.25679 0.0
O482 O 0.66632 0.10725 0.2692 0.0
C483 C 0.64556 0.09095 0.43319 0.0
C484 C 0.63007 0.09709 0.45954 0.0
C485 C 0.64086 0.09137 0.46134 0.0
N486 N 0.63801 0.09638 0.41574 0.0
N487 N 0.6287 0.0999 0.43168 0.0
C488 C 0.65629 0.08468 0.42288 0.0
H489 H 0.65367 0.08082 0.40013 0.0
H490 H 0.66915 0.09437 0.4244 0.0
H491 H 0.65463 0.07436 0.43643 0.0
C492 C 0.67531 0.13773 0.33504 0.0
N493 N 0.66127 0.12369 0.33792 0.0
N494 N 0.65907 0.11922 0.3651 0.0
C495 C 0.67177 0.13049 0.38044 0.0
C496 C 0.68245 0.14249 0.36185 0.0
C497 C 0.68188 0.14606 0.30688 0.0
H498 H 0.68481 0.13831 0.29328 0.0
H499 H 0.69304 0.15799 0.30944 0.0
H500 H 0.67252 0.14768 0.29562 0.0
O501 O 0.62508 0.11101 0.31948 0.0
O502 O 0.62026 0.1019 0.36434 0.0
H503 H 0.68236 0.14268 0.42055 0.0
H504 H 0.67698 0.12171 0.41881 0.0
C505 C 0.6732 0.13052 0.41245 0.0
H506 H 0.66133 0.12693 0.42251 0.0
H507 H 0.62154 0.10443 0.42355 0.0
O508 O 0.65151 0.1194 0.27134 0.0
C509 C 0.61625 0.1067 0.34186 0.0
Co510 Co 0.86615 0.55329 0.89844 0.0
Co511 Co 0.87088 0.56489 0.83417 0.0
C512 C 0.89231 0.58656 0.88074 0.0
O513 O 0.88442 0.57547 0.89903 0.0
O514 O 0.8886 0.58442 0.85414 0.0
C515 C 0.87716 0.54865 0.95212 0.0
O516 O 0.89135 0.55701 0.93955 0.0
C517 C 0.88554 0.5738 0.77581 0.0
C518 C 0.86377 0.56743 0.74973 0.0
C519 C 0.88028 0.57321 0.74769 0.0
N520 N 0.87264 0.56838 0.79346 0.0
N521 N 0.85972 0.56474 0.77768 0.0
C522 C 0.9026 0.5802 0.78593 0.0
H523 H 0.90575 0.57048 0.78488 0.0
H524 H 0.91119 0.59034 0.77199 0.0
H525 H 0.90395 0.58436 0.80851 0.0
C526 C 0.86952 0.52688 0.87307 0.0
N527 N 0.86935 0.54086 0.87067 0.0
N528 N 0.87131 0.54543 0.84354 0.0
C529 C 0.87269 0.53425 0.82775 0.0
C530 C 0.87168 0.52225 0.84599 0.0
C531 C 0.86816 0.51851 0.90103 0.0
H532 H 0.85724 0.51673 0.91276 0.0
H533 H 0.87893 0.52632 0.91437 0.0
H534 H 0.86752 0.50666 0.8981 0.0
O535 O 0.84609 0.55357 0.89056 0.0
O536 O 0.84944 0.56234 0.84555 0.0
H537 H 0.86527 0.53783 0.78617 0.0
H538 H 0.87067 0.52215 0.78737 0.0
C539 C 0.87371 0.53428 0.79568 0.0
H540 H 0.88621 0.54314 0.78891 0.0
H541 H 0.84806 0.56015 0.78595 0.0
O542 O 0.86439 0.54482 0.93778 0.0
C543 C 0.84105 0.55762 0.86853 0.0
Co544 Co 0.44501 0.31348 0.89599 0.0
Co545 Co 0.43399 0.30674 0.83169 0.0
C546 C 0.4117 0.30593 0.8772 0.0
O547 O 0.42267 0.30917 0.89579 0.0
O548 O 0.41409 0.30454 0.85066 0.0
C549 C 0.44946 0.3298 0.94886 0.0
O550 O 0.44168 0.33598 0.93535 0.0
C551 C 0.4247 0.31144 0.77317 0.0
C552 C 0.43107 0.29579 0.74779 0.0
C553 C 0.42475 0.30605 0.74547 0.0
N554 N 0.4308 0.3047 0.79102 0.0
N555 N 0.43453 0.29534 0.77567 0.0
C556 C 0.41788 0.32181 0.78282 0.0
H557 H 0.4202 0.32465 0.80605 0.0
H558 H 0.4233 0.33325 0.77036 0.0
H559 H 0.40462 0.3153 0.77875 0.0
C560 C 0.47084 0.34393 0.87163 0.0
N561 N 0.45747 0.32933 0.86861 0.0
N562 N 0.45298 0.32698 0.84145 0.0
C563 C 0.4635 0.34023 0.82628 0.0
C564 C 0.47502 0.35145 0.84507 0.0
C565 C 0.47985 0.35028 0.89931 0.0
H566 H 0.47974 0.34028 0.91168 0.0
H567 H 0.47383 0.35553 0.91226 0.0
H568 H 0.49262 0.35983 0.89545 0.0
O569 O 0.44533 0.29347 0.88868 0.0
O570 O 0.43687 0.28808 0.84353 0.0
H571 H 0.46039 0.33156 0.78297 0.0
H572 H 0.47292 0.35334 0.78632 0.0
C573 C 0.4621 0.34241 0.79479 0.0
H574 H 0.45136 0.34377 0.79098 0.0
H575 H 0.43947 0.28864 0.78423 0.0
O576 O 0.4529 0.3203 0.93544 0.0
C577 C 0.44155 0.28445 0.86662 0.0
Co578 Co 0.68312 0.13166 0.8969 0.0
Co579 Co 0.69048 0.12801 0.83266 0.0
C580 C 0.69202 0.10684 0.87808 0.0
O581 O 0.68836 0.1142 0.89681 0.0
O582 O 0.69322 0.11067 0.85158 0.0
C583 C 0.66655 0.11944 0.94957 0.0
O584 O 0.66078 0.10547 0.93621 0.0
C585 C 0.68677 0.11441 0.77392 0.0
C586 C 0.70158 0.13684 0.74896 0.0
C587 C 0.69209 0.12018 0.74633 0.0
N588 N 0.69281 0.12716 0.792 0.0
N589 N 0.70167 0.1405 0.77689 0.0
C590 C 0.67714 0.09708 0.78325 0.0
H591 H 0.67452 0.09625 0.8066 0.0
H592 H 0.66555 0.09075 0.77125 0.0
H593 H 0.68405 0.09084 0.77833 0.0
C594 C 0.65247 0.12626 0.87181 0.0
N595 N 0.66723 0.12782 0.86921 0.0
N596 N 0.66992 0.12598 0.84209 0.0
C597 C 0.65675 0.1231 0.82652 0.0
C598 C 0.64522 0.12303 0.84498 0.0
C599 C 0.6458 0.12874 0.89928 0.0
H600 H 0.65562 0.1387 0.91185 0.0
H601 H 0.64063 0.11744 0.91219 0.0
H602 H 0.63613 0.13175 0.89515 0.0
O603 O 0.70273 0.15242 0.88997 0.0
O604 O 0.70859 0.14977 0.84491 0.0
H605 H 0.66555 0.12957 0.78346 0.0
H606 H 0.64365 0.11865 0.78628 0.0
C607 C 0.655 0.11975 0.79494 0.0
H608 H 0.65481 0.10821 0.79086 0.0
H609 H 0.70779 0.15213 0.78566 0.0
O610 O 0.67591 0.13243 0.93616 0.0
C611 C 0.71184 0.15798 0.86806 0.0
Co612 Co 0.44562 0.13217 0.39672 0.0
Co613 Co 0.43362 0.12633 0.33275 0.0
C614 C 0.4114 0.10697 0.3795 0.0
O615 O 0.42271 0.11519 0.39726 0.0
O616 O 0.41358 0.10948 0.35253 0.0
C617 C 0.44818 0.11994 0.45016 0.0
O618 O 0.43867 0.10614 0.43709 0.0
C619 C 0.42372 0.11224 0.27409 0.0
C620 C 0.43166 0.13459 0.24873 0.0
C621 C 0.42437 0.11792 0.24635 0.0
N622 N 0.43044 0.12507 0.29202 0.0
N623 N 0.43509 0.13835 0.27665 0.0
C624 C 0.41585 0.09494 0.28363 0.0
H625 H 0.41746 0.09418 0.30708 0.0
H626 H 0.42107 0.08849 0.27192 0.0
H627 H 0.40272 0.08878 0.27845 0.0
C628 C 0.46998 0.12522 0.37291 0.0
N629 N 0.45703 0.12713 0.3697 0.0
N630 N 0.45216 0.1244 0.34275 0.0
C631 C 0.46203 0.12063 0.3279 0.0
C632 C 0.4735 0.12085 0.34669 0.0
C633 C 0.47919 0.1282 0.40044 0.0
H634 H 0.47997 0.13883 0.41167 0.0
H635 H 0.47269 0.11742 0.41453 0.0
H636 H 0.49164 0.13042 0.39655 0.0
O637 O 0.44733 0.15303 0.38801 0.0
O638 O 0.43735 0.14828 0.34375 0.0
H639 H 0.4591 0.12547 0.28405 0.0
H640 H 0.47016 0.11473 0.28853 0.0
C641 C 0.46 0.11611 0.29678 0.0
H642 H 0.44862 0.10442 0.29397 0.0
H643 H 0.44069 0.15004 0.28523 0.0
O644 O 0.45357 0.13311 0.43625 0.0
C645 C 0.443 0.15752 0.36562 0.0
Co646 Co 0.86595 0.31283 0.39815 0.0
Co647 Co 0.87034 0.30593 0.3338 0.0
C648 C 0.89135 0.30471 0.38017 0.0
O649 O 0.8837 0.30811 0.39867 0.0
O650 O 0.88774 0.30354 0.35356 0.0
C651 C 0.87717 0.32823 0.45199 0.0
O652 O 0.89138 0.33362 0.4397 0.0
C653 C 0.88479 0.3113 0.27533 0.0
C654 C 0.86281 0.29624 0.24947 0.0
C655 C 0.87938 0.30663 0.24727 0.0
N656 N 0.87191 0.30413 0.29309 0.0
N657 N 0.85887 0.29506 0.27744 0.0
C658 C 0.90193 0.32165 0.28529 0.0
H659 H 0.90324 0.31881 0.30788 0.0
H660 H 0.90539 0.33461 0.2842 0.0
H661 H 0.91031 0.31981 0.2713 0.0
C662 C 0.87013 0.343 0.37315 0.0
N663 N 0.86963 0.3287 0.37057 0.0
N664 N 0.87141 0.32607 0.34337 0.0
C665 C 0.87301 0.33875 0.32772 0.0
C666 C 0.87232 0.34985 0.34613 0.0
C667 C 0.86892 0.35004 0.4012 0.0
H668 H 0.87954 0.35259 0.41466 0.0
H669 H 0.86872 0.36149 0.39842 0.0
H670 H 0.85782 0.34108 0.41271 0.0
O671 O 0.84554 0.2929 0.39023 0.0
O672 O 0.8487 0.28742 0.34516 0.0
H673 H 0.87115 0.34906 0.28749 0.0
H674 H 0.88624 0.343 0.28862 0.0
C675 C 0.87387 0.33972 0.29563 0.0
H676 H 0.86513 0.32781 0.28619 0.0
H677 H 0.8472 0.28823 0.28583 0.0
O678 O 0.86439 0.31963 0.43745 0.0
C679 C 0.84031 0.28389 0.36812 0.0
Co680 Co 0.68499 0.55207 0.40019 0.0
Co681 Co 0.6922 0.56242 0.33566 0.0
C682 C 0.69341 0.58551 0.37918 0.0
O683 O 0.69039 0.57485 0.3983 0.0
O684 O 0.69412 0.58254 0.35268 0.0
C685 C 0.66939 0.55041 0.45248 0.0
O686 O 0.66596 0.56038 0.43875 0.0
C687 C 0.68849 0.57002 0.27529 0.0
C688 C 0.70403 0.56225 0.25328 0.0
C689 C 0.69383 0.56846 0.24819 0.0
N690 N 0.69515 0.5648 0.29508 0.0
N691 N 0.70455 0.56036 0.28176 0.0
C692 C 0.67651 0.57528 0.28251 0.0
H693 H 0.67179 0.57145 0.30465 0.0
H694 H 0.66633 0.57013 0.26692 0.0
H695 H 0.68261 0.5887 0.28143 0.0
C696 C 0.65492 0.52583 0.3755 0.0
N697 N 0.66928 0.53951 0.37259 0.0
N698 N 0.67197 0.54357 0.34525 0.0
C699 C 0.65921 0.53242 0.32983 0.0
C700 C 0.64805 0.52089 0.34855 0.0
C701 C 0.64781 0.51801 0.40379 0.0
H702 H 0.64545 0.52638 0.41676 0.0
H703 H 0.63624 0.50643 0.4013 0.0
H704 H 0.65664 0.51582 0.41565 0.0
O705 O 0.70471 0.55079 0.39456 0.0
O706 O 0.71054 0.55981 0.34976 0.0
H707 H 0.64858 0.52006 0.28988 0.0
H708 H 0.655 0.54133 0.29063 0.0
C709 C 0.6581 0.53211 0.29776 0.0
H710 H 0.6699 0.53502 0.28821 0.0
H711 H 0.71106 0.55569 0.29208 0.0
O712 O 0.67708 0.5446 0.43951 0.0
C713 C 0.71395 0.55489 0.37275 0.0
Co714 Co 0.4624 0.11164 0.80992 0.0
Co715 Co 0.4579 0.09987 0.87405 0.0
C716 C 0.43749 0.07765 0.82747 0.0
O717 O 0.44521 0.08889 0.80935 0.0
O718 O 0.44075 0.07993 0.85421 0.0
C719 C 0.45008 0.11451 0.75672 0.0
O720 O 0.43633 0.10453 0.76947 0.0
C721 C 0.44354 0.09065 0.93246 0.0
C722 C 0.46545 0.09723 0.95826 0.0
C723 C 0.44891 0.09119 0.96048 0.0
N724 N 0.45641 0.09633 0.9147 0.0
N725 N 0.46941 0.1001 0.9303 0.0
C726 C 0.42642 0.08404 0.92252 0.0
H727 H 0.42512 0.08015 0.89977 0.0
H728 H 0.42299 0.09354 0.92416 0.0
H729 H 0.41799 0.07366 0.93621 0.0
C730 C 0.45757 0.13705 0.83534 0.0
N731 N 0.45819 0.12331 0.83772 0.0
N732 N 0.45646 0.1188 0.86486 0.0
C733 C 0.45483 0.12982 0.8807 0.0
C734 C 0.45541 0.14162 0.86244 0.0
C735 C 0.45891 0.14545 0.80743 0.0
H736 H 0.44868 0.13724 0.79335 0.0
H737 H 0.45852 0.15681 0.81034 0.0
H738 H 0.47036 0.14819 0.79652 0.0
O739 O 0.48322 0.11288 0.81771 0.0
O740 O 0.47964 0.10338 0.86229 0.0
H741 H 0.45725 0.14214 0.92099 0.0
H742 H 0.44192 0.12107 0.92015 0.0
C743 C 0.45428 0.13001 0.91281 0.0
H744 H 0.46297 0.12668 0.92193 0.0
H745 H 0.48108 0.10488 0.92189 0.0
O746 O 0.46324 0.12002 0.77073 0.0
C747 C 0.48829 0.1088 0.83967 0.0
Co748 Co 0.88395 0.35134 0.8119 0.0
Co749 Co 0.89587 0.35906 0.87578 0.0
C750 C 0.91724 0.35849 0.82952 0.0
O751 O 0.90608 0.3551 0.81127 0.0
O752 O 0.91524 0.36042 0.85601 0.0
C753 C 0.87873 0.3347 0.75913 0.0
O754 O 0.88698 0.32885 0.77205 0.0
C755 C 0.90488 0.35408 0.93444 0.0
C756 C 0.90105 0.37173 0.95907 0.0
C757 C 0.90572 0.36018 0.96192 0.0
N758 N 0.89981 0.36165 0.91628 0.0
N759 N 0.89762 0.37222 0.93119 0.0
C760 C 0.90988 0.34216 0.92524 0.0
H761 H 0.92208 0.34582 0.93401 0.0
H762 H 0.91001 0.34137 0.90147 0.0
H763 H 0.90134 0.32998 0.93391 0.0
C764 C 0.85746 0.32213 0.83849 0.0
N765 N 0.87157 0.33618 0.84034 0.0
N766 N 0.8763 0.33909 0.86737 0.0
C767 C 0.86513 0.32681 0.88363 0.0
C768 C 0.85293 0.31571 0.86581 0.0
C769 C 0.84883 0.31488 0.81082 0.0
H770 H 0.85633 0.3114 0.7977 0.0
H771 H 0.83684 0.30392 0.81421 0.0
H772 H 0.8473 0.32403 0.79863 0.0
O773 O 0.88436 0.37184 0.81857 0.0
O774 O 0.89335 0.37781 0.86338 0.0
H775 H 0.85331 0.31736 0.92442 0.0
H776 H 0.8741 0.3222 0.92234 0.0
C777 C 0.86544 0.32613 0.91571 0.0
H778 H 0.86943 0.3383 0.9249 0.0
H779 H 0.8937 0.37973 0.92234 0.0
O780 O 0.87523 0.34406 0.77293 0.0
C781 C 0.88856 0.38122 0.84021 0.0
Co782 Co 0.64568 0.53498 0.81275 0.0
Co783 Co 0.63938 0.53943 0.87729 0.0
C784 C 0.63648 0.55961 0.83166 0.0
O785 O 0.63969 0.5519 0.81298 0.0
O786 O 0.63616 0.55646 0.85833 0.0
C787 C 0.65947 0.54722 0.75864 0.0
O788 O 0.66298 0.56097 0.77117 0.0
C789 C 0.64474 0.55382 0.93568 0.0
C790 C 0.63062 0.53171 0.96175 0.0
C791 C 0.64045 0.54838 0.96381 0.0
N792 N 0.63789 0.54088 0.91802 0.0
N793 N 0.62937 0.52775 0.93378 0.0
C794 C 0.65445 0.57101 0.92556 0.0
H795 H 0.65108 0.57218 0.90329 0.0
H796 H 0.66752 0.57484 0.9257 0.0
H797 H 0.65257 0.57921 0.93997 0.0
C798 C 0.67657 0.54043 0.8363 0.0
N799 N 0.66212 0.5395 0.83958 0.0
N800 N 0.65973 0.54124 0.86691 0.0
C801 C 0.67274 0.54323 0.88199 0.0
C802 C 0.6838 0.54284 0.86303 0.0
C803 C 0.68329 0.53922 0.80792 0.0
H804 H 0.68455 0.54915 0.79378 0.0
H805 H 0.69534 0.54019 0.81003 0.0
H806 H 0.6747 0.52754 0.79751 0.0
O807 O 0.62647 0.51397 0.82108 0.0
O808 O 0.62115 0.51759 0.86604 0.0
H809 H 0.66234 0.53494 0.92374 0.0
H810 H 0.68378 0.54183 0.92171 0.0
C811 C 0.67402 0.54405 0.91405 0.0
H812 H 0.67682 0.55625 0.92131 0.0
H813 H 0.62287 0.51602 0.92547 0.0
O814 O 0.65261 0.53418 0.77314 0.0
C815 C 0.61767 0.50888 0.84347 0.0
Co816 Co 0.55294 0.86702 0.64504 0.0
Co817 Co 0.56411 0.87086 0.70924 0.0
C818 C 0.58606 0.89299 0.66387 0.0
O819 O 0.5751 0.88536 0.64522 0.0
O820 O 0.58378 0.88888 0.69027 0.0
C821 C 0.54795 0.87882 0.59242 0.0
O822 O 0.55573 0.89281 0.60584 0.0
C823 C 0.57319 0.88476 0.76775 0.0
C824 C 0.5675 0.8629 0.79304 0.0
C825 C 0.57327 0.87938 0.79544 0.0
N826 N 0.56751 0.87197 0.74984 0.0
N827 N 0.56422 0.85897 0.76512 0.0
C828 C 0.57945 0.90187 0.75814 0.0
H829 H 0.57669 0.90227 0.73509 0.0
H830 H 0.57405 0.90773 0.77114 0.0
H831 H 0.59277 0.90889 0.76143 0.0
C832 C 0.5268 0.8708 0.67038 0.0
N833 N 0.54037 0.8699 0.67294 0.0
N834 N 0.54488 0.87177 0.70008 0.0
C835 C 0.53415 0.87395 0.71572 0.0
C836 C 0.52249 0.87361 0.69725 0.0
C837 C 0.51772 0.86829 0.64283 0.0
H838 H 0.51791 0.85855 0.63008 0.0
H839 H 0.52366 0.87968 0.63016 0.0
H840 H 0.50493 0.86494 0.64684 0.0
O841 O 0.5531 0.84687 0.65168 0.0
O842 O 0.56146 0.84949 0.69684 0.0
H843 H 0.5376 0.86799 0.75854 0.0
H844 H 0.52433 0.87643 0.75621 0.0
C845 C 0.53541 0.877 0.74739 0.0
H846 H 0.54579 0.88926 0.75169 0.0
H847 H 0.55962 0.84738 0.7565 0.0
O848 O 0.54475 0.86593 0.60579 0.0
C849 C 0.55692 0.84145 0.67346 0.0
Co850 Co 0.12875 0.68542 0.64628 0.0
Co851 Co 0.12324 0.69182 0.71016 0.0
C852 C 0.10194 0.69179 0.66352 0.0
O853 O 0.11024 0.68904 0.6454 0.0
O854 O 0.10529 0.69311 0.69025 0.0
C855 C 0.11788 0.66941 0.593 0.0
O856 O 0.1037 0.6633 0.60573 0.0
C857 C 0.1087 0.68592 0.76834 0.0
C858 C 0.12966 0.70385 0.79373 0.0
C859 C 0.11355 0.69191 0.79598 0.0
N860 N 0.12147 0.69394 0.75062 0.0
N861 N 0.13391 0.70466 0.76597 0.0
C862 C 0.09202 0.6737 0.75853 0.0
H863 H 0.09192 0.67141 0.73513 0.0
H864 H 0.08761 0.66215 0.77035 0.0
H865 H 0.08358 0.67825 0.76332 0.0
C866 C 0.12588 0.65585 0.67154 0.0
N867 N 0.12569 0.66981 0.67399 0.0
N868 N 0.12324 0.67212 0.70102 0.0
C869 C 0.12176 0.65948 0.71667 0.0
C870 C 0.12335 0.64881 0.69845 0.0
C871 C 0.12788 0.64919 0.64365 0.0
H872 H 0.11699 0.64555 0.63021 0.0
H873 H 0.12931 0.63844 0.64668 0.0
H874 H 0.13856 0.65873 0.632 0.0
O875 O 0.1487 0.70585 0.65416 0.0
O876 O 0.14441 0.71098 0.6988 0.0
H877 H 0.12287 0.64897 0.75715 0.0
H878 H 0.10701 0.65391 0.75409 0.0
C879 C 0.1198 0.65798 0.74859 0.0
H880 H 0.12768 0.66989 0.75889 0.0
H881 H 0.14536 0.71253 0.75751 0.0
O882 O 0.13062 0.67873 0.60709 0.0
C883 C 0.15319 0.71489 0.67628 0.0
Co884 Co 0.31041 0.44576 0.64347 0.0
Co885 Co 0.30424 0.43438 0.70783 0.0
C886 C 0.30172 0.4118 0.66197 0.0
O887 O 0.30463 0.42284 0.64369 0.0
O888 O 0.30147 0.41434 0.68881 0.0
C889 C 0.32559 0.44809 0.59048 0.0
O890 O 0.32963 0.43851 0.60398 0.0
C891 C 0.30851 0.42493 0.76678 0.0
C892 C 0.29421 0.43311 0.79189 0.0
C893 C 0.30359 0.42582 0.79449 0.0
N894 N 0.30236 0.43152 0.74865 0.0
N895 N 0.29379 0.43631 0.76387 0.0
C896 C 0.31789 0.41697 0.75748 0.0
H897 H 0.32041 0.41861 0.73408 0.0
H898 H 0.32949 0.42211 0.7694 0.0
H899 H 0.31081 0.40384 0.76256 0.0
C900 C 0.34152 0.47074 0.66737 0.0
N901 N 0.32677 0.45758 0.67055 0.0
N902 N 0.32458 0.45295 0.69763 0.0
C903 C 0.33806 0.46313 0.71258 0.0
C904 C 0.34927 0.47463 0.69377 0.0
C905 C 0.3477 0.47985 0.63974 0.0
H906 H 0.33773 0.48028 0.62821 0.0
H907 H 0.35225 0.47347 0.62596 0.0
H908 H 0.3577 0.49243 0.64351 0.0
O909 O 0.29111 0.44736 0.65162 0.0
O910 O 0.2859 0.4378 0.69619 0.0
H911 H 0.33027 0.46085 0.75633 0.0
H912 H 0.35208 0.47137 0.75201 0.0
C913 C 0.34043 0.46134 0.74386 0.0
H914 H 0.34038 0.44981 0.74721 0.0
H915 H 0.28768 0.44185 0.75511 0.0
O916 O 0.31764 0.45349 0.60386 0.0
C917 C 0.28228 0.44319 0.67399 0.0
Co918 Co 0.53244 0.88683 0.23156 0.0
Co919 Co 0.53709 0.89742 0.16684 0.0
C920 C 0.55857 0.91986 0.21224 0.0
O921 O 0.5507 0.90904 0.23099 0.0
O922 O 0.55481 0.91736 0.18569 0.0
C923 C 0.54387 0.88256 0.28508 0.0
O924 O 0.55792 0.89018 0.27184 0.0
C925 C 0.55091 0.90702 0.10776 0.0
C926 C 0.5283 0.89547 0.08226 0.0
C927 C 0.54501 0.90441 0.07977 0.0
N928 N 0.5382 0.89972 0.12588 0.0
N929 N 0.52476 0.89298 0.1104 0.0
C930 C 0.56822 0.91695 0.11713 0.0
H931 H 0.57336 0.90893 0.12084 0.0
H932 H 0.57559 0.926 0.10047 0.0
H933 H 0.56902 0.9233 0.13753 0.0
C934 C 0.53695 0.8607 0.20828 0.0
N935 N 0.53579 0.87409 0.20481 0.0
N936 N 0.53813 0.87847 0.1776 0.0
C937 C 0.54096 0.86789 0.16286 0.0
C938 C 0.54047 0.85641 0.18196 0.0
C939 C 0.53407 0.8518 0.23613 0.0
H940 H 0.52417 0.85207 0.24819 0.0
H941 H 0.54529 0.85782 0.24926 0.0
H942 H 0.53077 0.83899 0.23255 0.0
O943 O 0.51232 0.88675 0.22346 0.0
O944 O 0.51555 0.89481 0.17804 0.0
H945 H 0.5346 0.86868 0.11907 0.0
H946 H 0.5471 0.85949 0.12404 0.0
C947 C 0.5448 0.86922 0.13148 0.0
H948 H 0.55574 0.88108 0.12721 0.0
H949 H 0.51312 0.88644 0.11908 0.0
O950 O 0.53104 0.87915 0.27128 0.0
C951 C 0.50719 0.89039 0.20108 0.0
Co952 Co 0.11201 0.64645 0.23239 0.0
Co953 Co 0.1016 0.64058 0.16763 0.0
C954 C 0.07846 0.63789 0.21308 0.0
O955 O 0.08931 0.64111 0.23191 0.0
O956 O 0.0813 0.63733 0.18645 0.0
C957 C 0.11562 0.66199 0.28576 0.0
O958 O 0.10763 0.66796 0.27233 0.0
C959 C 0.09134 0.64415 0.10877 0.0
C960 C 0.10388 0.63426 0.08294 0.0
C961 C 0.0941 0.64113 0.0807 0.0
N962 N 0.09934 0.63946 0.12668 0.0
N963 N 0.10669 0.63346 0.11103 0.0
C964 C 0.08065 0.65061 0.11844 0.0
H965 H 0.08817 0.6637 0.12348 0.0
H966 H 0.07176 0.64903 0.10152 0.0
H967 H 0.07404 0.64429 0.1382 0.0
C968 C 0.13732 0.67777 0.20955 0.0
N969 N 0.12425 0.663 0.20592 0.0
N970 N 0.11993 0.66094 0.17868 0.0
C971 C 0.13018 0.67454 0.1641 0.0
C972 C 0.14142 0.68569 0.18332 0.0
C973 C 0.14625 0.68382 0.23738 0.0
H974 H 0.14625 0.67373 0.24924 0.0
H975 H 0.14009 0.68879 0.25071 0.0
H976 H 0.15897 0.69353 0.23378 0.0
O977 O 0.11335 0.6271 0.22391 0.0
O978 O 0.10519 0.6222 0.17854 0.0
H979 H 0.13031 0.66792 0.12026 0.0
H980 H 0.13792 0.68937 0.12559 0.0
C981 C 0.12879 0.67701 0.13272 0.0
H982 H 0.11656 0.67509 0.12817 0.0
H983 H 0.11381 0.62898 0.11955 0.0
O984 O 0.11947 0.65285 0.27215 0.0
C985 C 0.10999 0.61848 0.20138 0.0
Co986 Co 0.34973 0.46463 0.23002 0.0
Co987 Co 0.3565 0.46 0.16573 0.0
C988 C 0.35866 0.43963 0.21161 0.0
O989 O 0.35532 0.44745 0.22984 0.0
O990 O 0.35949 0.44281 0.18484 0.0
C991 C 0.33489 0.45219 0.28358 0.0
O992 O 0.33073 0.4384 0.2706 0.0
C993 C 0.35258 0.44581 0.10761 0.0
C994 C 0.36378 0.46801 0.08099 0.0
C995 C 0.3559 0.45126 0.07935 0.0
N996 N 0.35811 0.45881 0.125 0.0
N997 N 0.36492 0.47202 0.10894 0.0
C998 C 0.34538 0.42876 0.11833 0.0
H999 H 0.33549 0.42607 0.1338 0.0
H1000 H 0.34086 0.4198 0.10057 0.0
H1001 H 0.35484 0.42759 0.13025 0.0
C1002 C 0.31866 0.45818 0.20579 0.0
N1003 N 0.33354 0.46012 0.20277 0.0
N1004 N 0.33599 0.45796 0.17568 0.0
C1005 C 0.32254 0.45457 0.1605 0.0
C1006 C 0.31109 0.45443 0.17923 0.0
C1007 C 0.3121 0.46054 0.23348 0.0
H1008 H 0.32178 0.47105 0.24527 0.0
H1009 H 0.3079 0.44956 0.24699 0.0
H1010 H 0.30179 0.46265 0.22979 0.0
O1011 O 0.36912 0.48545 0.22201 0.0
O1012 O 0.37467 0.48191 0.17718 0.0
H1013 H 0.33052 0.46108 0.11705 0.0
H1014 H 0.30873 0.44905 0.12089 0.0
C1015 C 0.32049 0.45095 0.12899 0.0
H1016 H 0.32106 0.43981 0.12479 0.0
H1017 H 0.37008 0.48379 0.11705 0.0
O1018 O 0.3426 0.46536 0.26961 0.0
C1019 C 0.37806 0.49057 0.19981 0.0
Co1020 Co 0.10858 0.46468 0.73061 0.0
Co1021 Co 0.09787 0.46018 0.66604 0.0
C1022 C 0.07506 0.43951 0.71185 0.0
O1023 O 0.08599 0.44714 0.73054 0.0
O1024 O 0.07773 0.44301 0.68523 0.0
C1025 C 0.11279 0.45298 0.78377 0.0
O1026 O 0.10488 0.43896 0.77047 0.0
C1027 C 0.08771 0.44618 0.60717 0.0
C1028 C 0.09945 0.46868 0.58142 0.0
C1029 C 0.09024 0.45197 0.57909 0.0
N1030 N 0.09532 0.45894 0.62512 0.0
N1031 N 0.10216 0.47232 0.60951 0.0
C1032 C 0.07768 0.42893 0.61682 0.0
H1033 H 0.08546 0.42338 0.61883 0.0
H1034 H 0.06794 0.42178 0.60103 0.0
H1035 H 0.0722 0.42832 0.63807 0.0
C1036 C 0.13411 0.45926 0.70709 0.0
N1037 N 0.12084 0.46062 0.70379 0.0
N1038 N 0.11643 0.45842 0.6766 0.0
C1039 C 0.12686 0.45545 0.6617 0.0
C1040 C 0.13829 0.45573 0.68067 0.0
C1041 C 0.14321 0.46226 0.73476 0.0
H1042 H 0.14308 0.47226 0.74674 0.0
H1043 H 0.13726 0.45112 0.74809 0.0
H1044 H 0.15598 0.46549 0.73094 0.0
O1045 O 0.10958 0.48522 0.72241 0.0
O1046 O 0.10134 0.48211 0.67711 0.0
H1047 H 0.1264 0.46232 0.61813 0.0
H1048 H 0.1351 0.44935 0.62266 0.0
C1049 C 0.12554 0.45187 0.63021 0.0
H1050 H 0.11357 0.44116 0.62564 0.0
H1051 H 0.10892 0.48397 0.61804 0.0
O1052 O 0.11634 0.46589 0.77015 0.0
C1053 C 0.10613 0.49054 0.70007 0.0
Co1054 Co 0.53165 0.64649 0.72999 0.0
Co1055 Co 0.53669 0.63902 0.66642 0.0
C1056 C 0.55786 0.63908 0.71336 0.0
O1057 O 0.54981 0.64234 0.73124 0.0
O1058 O 0.55442 0.63749 0.68666 0.0
C1059 C 0.54304 0.6633 0.78248 0.0
O1060 O 0.55709 0.66911 0.76942 0.0
C1061 C 0.55093 0.64367 0.60801 0.0
C1062 C 0.52936 0.62635 0.58317 0.0
C1063 C 0.54569 0.63759 0.58051 0.0
N1064 N 0.53818 0.63638 0.626 0.0
N1065 N 0.52538 0.62601 0.61097 0.0
C1066 C 0.5679 0.65527 0.61741 0.0
H1067 H 0.56852 0.65683 0.64108 0.0
H1068 H 0.57229 0.66725 0.60714 0.0
H1069 H 0.57604 0.65071 0.61045 0.0
C1070 C 0.53516 0.67603 0.70326 0.0
N1071 N 0.53496 0.66184 0.70155 0.0
N1072 N 0.53725 0.65908 0.67468 0.0
C1073 C 0.53904 0.67164 0.65842 0.0
C1074 C 0.53781 0.68273 0.67605 0.0
C1075 C 0.53341 0.6832 0.73074 0.0
H1076 H 0.54439 0.68703 0.74403 0.0
H1077 H 0.53202 0.69394 0.72705 0.0
H1078 H 0.52279 0.67391 0.74287 0.0
O1079 O 0.51142 0.62621 0.72278 0.0
O1080 O 0.51532 0.62033 0.67843 0.0
H1081 H 0.53843 0.68197 0.61741 0.0
H1082 H 0.55361 0.67612 0.62106 0.0
C1083 C 0.54098 0.67269 0.62648 0.0
H1084 H 0.53267 0.66077 0.6166 0.0
H1085 H 0.51385 0.61873 0.61967 0.0
O1086 O 0.53015 0.65384 0.76887 0.0
C1087 C 0.50666 0.61689 0.70104 0.0
Co1088 Co 0.35076 0.88451 0.73152 0.0
Co1089 Co 0.35719 0.8948 0.66684 0.0
C1090 C 0.36046 0.91846 0.71079 0.0
O1091 O 0.35727 0.90762 0.72966 0.0
O1092 O 0.36054 0.91546 0.68409 0.0
C1093 C 0.3359 0.88354 0.78435 0.0
O1094 O 0.33262 0.89366 0.77075 0.0
C1095 C 0.35432 0.90327 0.60627 0.0
C1096 C 0.3659 0.8912 0.58403 0.0
C1097 C 0.35819 0.90004 0.57902 0.0
N1098 N 0.35938 0.89643 0.62602 0.0
N1099 N 0.36644 0.88941 0.61251 0.0
C1100 C 0.34517 0.91177 0.61372 0.0
H1101 H 0.34086 0.90919 0.6363 0.0
H1102 H 0.3347 0.90791 0.59902 0.0
H1103 H 0.35333 0.92504 0.61143 0.0
C1104 C 0.3193 0.85989 0.70842 0.0
N1105 N 0.33429 0.87258 0.70476 0.0
N1106 N 0.33655 0.87679 0.67748 0.0
C1107 C 0.32287 0.86677 0.66285 0.0
C1108 C 0.31146 0.85586 0.68212 0.0
C1109 C 0.31288 0.85137 0.73649 0.0
H1110 H 0.32257 0.85057 0.74829 0.0
H1111 H 0.30887 0.85841 0.74973 0.0
H1112 H 0.30246 0.83895 0.73331 0.0
O1113 O 0.36962 0.882 0.72459 0.0
O1114 O 0.37514 0.89114 0.67984 0.0
H1115 H 0.33039 0.86794 0.61916 0.0
H1116 H 0.30864 0.85833 0.6237 0.0
C1117 C 0.32053 0.86818 0.63142 0.0
H1118 H 0.32113 0.87991 0.62727 0.0
H1119 H 0.37133 0.88308 0.62276 0.0
O1120 O 0.3433 0.87749 0.77118 0.0
C1121 C 0.37853 0.88582 0.70237 0.0
Co1122 Co 0.12912 0.44435 0.14364 0.0
Co1123 Co 0.12458 0.43284 0.20768 0.0
C1124 C 0.10251 0.41125 0.16235 0.0
O1125 O 0.11066 0.42218 0.14392 0.0
O1126 O 0.10611 0.41346 0.18899 0.0
C1127 C 0.11731 0.44897 0.09086 0.0
O1128 O 0.10329 0.44082 0.10405 0.0
C1129 C 0.11237 0.42524 0.26778 0.0
C1130 C 0.13496 0.4306 0.2902 0.0
C1131 C 0.11883 0.42589 0.29503 0.0
N1132 N 0.12427 0.4296 0.24823 0.0
N1133 N 0.13765 0.43256 0.26181 0.0
C1134 C 0.09562 0.42163 0.26023 0.0
H1135 H 0.0953 0.42565 0.23797 0.0
H1136 H 0.09144 0.4277 0.27556 0.0
H1137 H 0.08722 0.40835 0.2615 0.0
C1138 C 0.12688 0.47134 0.16918 0.0
N1139 N 0.12659 0.45713 0.17159 0.0
N1140 N 0.12461 0.4526 0.19874 0.0
C1141 C 0.1236 0.46401 0.21451 0.0
C1142 C 0.12496 0.47614 0.19624 0.0
C1143 C 0.12844 0.47977 0.14121 0.0
H1144 H 0.1174 0.47234 0.12819 0.0
H1145 H 0.12978 0.49193 0.14416 0.0
H1146 H 0.13901 0.48094 0.12914 0.0
O1147 O 0.14926 0.444 0.15005 0.0
O1148 O 0.14532 0.43453 0.19457 0.0
H1149 H 0.12612 0.47627 0.25486 0.0
H1150 H 0.10972 0.45567 0.25306 0.0
C1151 C 0.12244 0.46397 0.24656 0.0
H1152 H 0.13028 0.45973 0.25626 0.0
H1153 H 0.14877 0.43633 0.25175 0.0
O1154 O 0.13024 0.45261 0.10448 0.0
C1155 C 0.15387 0.43933 0.17182 0.0
Co1156 Co 0.55221 0.6854 0.14392 0.0
Co1157 Co 0.56297 0.69106 0.20857 0.0
C1158 C 0.58555 0.69296 0.1625 0.0
O1159 O 0.57472 0.69009 0.1438 0.0
O1160 O 0.58284 0.69355 0.18917 0.0
C1161 C 0.54845 0.67066 0.0896 0.0
O1162 O 0.55704 0.66502 0.10193 0.0
C1163 C 0.57162 0.68506 0.26699 0.0
C1164 C 0.56464 0.69998 0.29313 0.0
C1165 C 0.57085 0.68961 0.29512 0.0
N1166 N 0.56593 0.69231 0.24937 0.0
N1167 N 0.56189 0.70127 0.26519 0.0
C1168 C 0.57844 0.67477 0.25684 0.0
H1169 H 0.58235 0.67749 0.23413 0.0
H1170 H 0.56903 0.66179 0.2583 0.0
H1171 H 0.58883 0.67678 0.27053 0.0
C1172 C 0.52575 0.65496 0.16736 0.0
N1173 N 0.53968 0.66908 0.17064 0.0
N1174 N 0.5439 0.67121 0.19794 0.0
C1175 C 0.5326 0.65837 0.21297 0.0
C1176 C 0.52082 0.64769 0.19403 0.0
C1177 C 0.51762 0.64852 0.13901 0.0
H1178 H 0.52562 0.646 0.12531 0.0
H1179 H 0.50584 0.63715 0.14123 0.0
H1180 H 0.51577 0.65781 0.12805 0.0
O1181 O 0.55162 0.70522 0.15278 0.0
O1182 O 0.56027 0.7099 0.19793 0.0
H1183 H 0.52024 0.64732 0.25274 0.0
H1184 H 0.54149 0.6537 0.25177 0.0
C1185 C 0.53229 0.65689 0.24499 0.0
H1186 H 0.53525 0.66861 0.25501 0.0
H1187 H 0.55709 0.70817 0.25693 0.0
O1188 O 0.54423 0.67919 0.10425 0.0
C1189 C 0.55548 0.71387 0.17537 0.0
Co1190 Co 0.31253 0.86828 0.1444 0.0
Co1191 Co 0.30631 0.87412 0.20833 0.0
C1192 C 0.3048 0.89428 0.16119 0.0
O1193 O 0.3077 0.88597 0.14335 0.0
O1194 O 0.304 0.8914 0.18805 0.0
C1195 C 0.32731 0.87978 0.09082 0.0
O1196 O 0.33193 0.89373 0.10357 0.0
C1197 C 0.31203 0.8893 0.26616 0.0
C1198 C 0.29697 0.86768 0.29281 0.0
C1199 C 0.30745 0.88426 0.29439 0.0
N1200 N 0.30473 0.8762 0.24891 0.0
N1201 N 0.29564 0.86338 0.26502 0.0
C1202 C 0.32244 0.9063 0.25557 0.0
H1203 H 0.3194 0.90741 0.23302 0.0
H1204 H 0.33536 0.90962 0.25631 0.0
H1205 H 0.32087 0.91493 0.26937 0.0
C1206 C 0.34279 0.8727 0.16909 0.0
N1207 N 0.32861 0.87242 0.17175 0.0
N1208 N 0.32631 0.87483 0.1988 0.0
C1209 C 0.33911 0.87662 0.21431 0.0
C1210 C 0.34993 0.8754 0.19592 0.0
C1211 C 0.3494 0.87076 0.14112 0.0
H1212 H 0.35172 0.881 0.12679 0.0
H1213 H 0.3609 0.87064 0.14383 0.0
H1214 H 0.34028 0.85936 0.13056 0.0
O1215 O 0.2927 0.84787 0.15318 0.0
O1216 O 0.28757 0.85245 0.19767 0.0
H1217 H 0.34975 0.87539 0.2546 0.0
H1218 H 0.34402 0.89071 0.25252 0.0
C1219 C 0.34045 0.87814 0.24632 0.0
H1220 H 0.32861 0.86976 0.25634 0.0
H1221 H 0.28872 0.85161 0.25706 0.0
O1222 O 0.3194 0.86674 0.10507 0.0
C1223 C 0.28382 0.84339 0.17551 0.0
C1224 C 0.39405 0.30632 0.91637 0.0
C1225 C 0.3957 0.3028 0.88762 0.0
C1226 C 0.37881 0.30144 0.92795 0.0
C1227 C 0.33585 0.28661 0.91154 0.0
H1228 H 0.32837 0.26236 0.98233 0.0
C1229 C 0.27207 0.24098 0.9521 0.0
C1230 C 0.26917 0.23824 0.98178 0.0
C1231 C 0.28756 0.25167 0.9418 0.0
C1232 C 0.33028 0.26939 0.96296 0.0
H1233 H 0.38268 0.29235 0.84795 0.0
H1234 H 0.35586 0.28371 0.86838 0.0
H1235 H 0.35529 0.27612 0.96123 0.0
H1236 H 0.28016 0.24531 0.02398 0.0
H1237 H 0.30727 0.26432 0.00596 0.0
H1238 H 0.31077 0.27979 0.91319 0.0
C1239 C 0.36647 0.29029 0.88185 0.0
C1240 C 0.34573 0.27723 0.95078 0.0
C1241 C 0.3818 0.29518 0.87018 0.0
C1242 C 0.28202 0.24703 0.001 0.0
C1243 C 0.29756 0.25786 0.99064 0.0
C1244 C 0.32039 0.2789 0.9239 0.0
C1245 C 0.36483 0.29294 0.9111 0.0
C1246 C 0.34862 0.28571 0.92473 0.0
C1247 C 0.30058 0.26004 0.96087 0.0
C1248 C 0.31735 0.26992 0.9495 0.0
H1249 H 0.40451 0.31242 0.93034 0.0
H1250 H 0.37792 0.30392 0.9504 0.0
H1251 H 0.3378 0.29323 0.89163 0.0
H1252 H 0.26247 0.23447 0.9366 0.0
H1253 H 0.28941 0.25281 0.91878 0.0
C1254 C 0.70056 0.08612 0.86886 0.0
C1255 C 0.69569 0.09425 0.88808 0.0
C1256 C 0.70532 0.07531 0.87915 0.0
C1257 C 0.7055 0.05281 0.94496 0.0
H1258 H 0.74483 0.05751 0.91123 0.0
C1259 C 0.7493 0.03605 0.00232 0.0
C1260 C 0.7566 0.02927 0.98531 0.0
C1261 C 0.73915 0.04104 0.98974 0.0
C1262 C 0.7337 0.05586 0.92065 0.0
H1263 H 0.69135 0.09684 0.93312 0.0
H1264 H 0.69998 0.07849 0.95086 0.0
H1265 H 0.73188 0.07135 0.88955 0.0
H1266 H 0.75797 0.0213 0.94214 0.0
H1267 H 0.74034 0.02994 0.9205 0.0
H1268 H 0.70783 0.03781 0.97681 0.0
C1269 C 0.69991 0.08017 0.92786 0.0
C1270 C 0.72622 0.06375 0.90813 0.0
C1271 C 0.69509 0.09086 0.91762 0.0
C1272 C 0.75278 0.02672 0.95586 0.0
C1273 C 0.74269 0.0317 0.94337 0.0
C1274 C 0.71308 0.04501 0.95765 0.0
C1275 C 0.70535 0.07246 0.90885 0.0
C1276 C 0.71216 0.06253 0.92035 0.0
C1277 C 0.73615 0.03933 0.95997 0.0
C1278 C 0.72736 0.04661 0.94578 0.0
H1279 H 0.70103 0.08835 0.84597 0.0
H1280 H 0.70921 0.06937 0.86386 0.0
H1281 H 0.69454 0.05139 0.95468 0.0
H1282 H 0.75197 0.03813 0.02506 0.0
H1283 H 0.73429 0.04693 0.00305 0.0
C1284 C 0.91178 0.61645 0.87439 0.0
C1285 C 0.90519 0.60245 0.8916 0.0
C1286 C 0.92219 0.63169 0.88644 0.0
C1287 C 0.92913 0.65215 0.95549 0.0
H1288 H 0.9673 0.68705 0.91935 0.0
C1289 C 0.96203 0.71593 0.00587 0.0
C1290 C 0.96638 0.72874 0.98644 0.0
C1291 C 0.95745 0.70035 0.99579 0.0
C1292 C 0.95661 0.67745 0.92967 0.0
H1293 H 0.9054 0.59337 0.93437 0.0
H1294 H 0.9234 0.6198 0.95509 0.0
H1295 H 0.95387 0.66008 0.89753 0.0
H1296 H 0.96997 0.73533 0.9412 0.0
H1297 H 0.96163 0.70839 0.92386 0.0
H1298 H 0.93127 0.66948 0.98684 0.0
C1299 C 0.92032 0.61906 0.93251 0.0
C1300 C 0.94896 0.66202 0.91716 0.0
C1301 C 0.91002 0.60391 0.92055 0.0
C1302 C 0.96666 0.72577 0.95688 0.0
C1303 C 0.962 0.71027 0.94686 0.0
C1304 C 0.93664 0.66757 0.96781 0.0
C1305 C 0.92612 0.63315 0.91585 0.0
C1306 C 0.93503 0.64928 0.92979 0.0
C1307 C 0.95706 0.69728 0.96609 0.0
C1308 C 0.95033 0.68049 0.95483 0.0
H1309 H 0.90835 0.61572 0.85202 0.0
H1310 H 0.92647 0.64239 0.87311 0.0
H1311 H 0.91827 0.64259 0.96552 0.0
H1312 H 0.96181 0.71783 0.02877 0.0
H1313 H 0.95396 0.69066 0.01124 0.0
C1314 C 0.24795 0.28495 0.53517 0.0
C1315 C 0.24219 0.27083 0.55185 0.0
C1316 C 0.25808 0.30019 0.54744 0.0
C1317 C 0.26505 0.31948 0.61769 0.0
H1318 H 0.3006 0.35656 0.58029 0.0
C1319 C 0.29524 0.38297 0.66983 0.0
C1320 C 0.29825 0.39575 0.6511 0.0
C1321 C 0.29123 0.3677 0.65889 0.0
C1322 C 0.29063 0.34634 0.59097 0.0
H1323 H 0.24376 0.26152 0.59363 0.0
H1324 H 0.2614 0.28798 0.61475 0.0
H1325 H 0.28868 0.32986 0.55768 0.0
H1326 H 0.2998 0.40256 0.60612 0.0
H1327 H 0.29246 0.37611 0.58735 0.0
H1328 H 0.26639 0.3359 0.65029 0.0
C1329 C 0.25783 0.28734 0.59247 0.0
C1330 C 0.28385 0.33106 0.57802 0.0
C1331 C 0.24775 0.27218 0.58028 0.0
C1332 C 0.29755 0.39303 0.62128 0.0
C1333 C 0.29349 0.37783 0.61042 0.0
C1334 C 0.2717 0.33474 0.6305 0.0
C1335 C 0.26261 0.30152 0.57654 0.0
C1336 C 0.27085 0.31752 0.59108 0.0
C1337 C 0.29011 0.36491 0.62902 0.0
C1338 C 0.28439 0.34842 0.61707 0.0
H1339 H 0.24389 0.28431 0.51321 0.0
H1340 H 0.26157 0.31095 0.53466 0.0
H1341 H 0.25486 0.30931 0.62809 0.0
H1342 H 0.2958 0.3847 0.69289 0.0
H1343 H 0.2889 0.35806 0.67383 0.0
C1344 C 0.61592 0.91225 0.67085 0.0
C1345 C 0.60195 0.90616 0.65365 0.0
C1346 C 0.63118 0.92296 0.65921 0.0
C1347 C 0.65161 0.93189 0.58979 0.0
H1348 H 0.6868 0.96848 0.62897 0.0
C1349 C 0.71539 0.96594 0.53982 0.0
C1350 C 0.72815 0.96932 0.55887 0.0
C1351 C 0.69988 0.9612 0.55037 0.0
C1352 C 0.67711 0.95824 0.61779 0.0
H1353 H 0.59291 0.90758 0.6115 0.0
H1354 H 0.61936 0.92617 0.59148 0.0
H1355 H 0.6598 0.95464 0.65061 0.0
H1356 H 0.73472 0.97102 0.60399 0.0
H1357 H 0.70783 0.96239 0.62211 0.0
H1358 H 0.66888 0.93489 0.55764 0.0
C1359 C 0.6186 0.92244 0.61369 0.0
C1360 C 0.66167 0.95036 0.6302 0.0
C1361 C 0.60344 0.9118 0.62525 0.0
C1362 C 0.72519 0.96845 0.58862 0.0
C1363 C 0.70974 0.96364 0.5991 0.0
C1364 C 0.66704 0.93966 0.57753 0.0
C1365 C 0.63267 0.92774 0.63023 0.0
C1366 C 0.64882 0.93698 0.61646 0.0
C1367 C 0.69681 0.95968 0.58015 0.0
C1368 C 0.68005 0.95276 0.59158 0.0
H1369 H 0.61517 0.90818 0.69282 0.0
H1370 H 0.64185 0.92684 0.67243 0.0
H1371 H 0.64199 0.92146 0.57888 0.0
H1372 H 0.71729 0.96663 0.5168 0.0
H1373 H 0.69023 0.95847 0.53518 0.0
C1374 C 0.08255 0.7023 0.66921 0.0
C1375 C 0.08903 0.69465 0.65238 0.0
C1376 C 0.0723 0.70722 0.65681 0.0
C1377 C 0.06556 0.72021 0.58691 0.0
H1378 H 0.02856 0.71917 0.62369 0.0
C1379 C 0.03347 0.75176 0.53558 0.0
C1380 C 0.02989 0.76099 0.55463 0.0
C1381 C 0.03791 0.74075 0.54616 0.0
C1382 C 0.03892 0.71962 0.61318 0.0
H1383 H 0.08874 0.68495 0.60997 0.0
H1384 H 0.0709 0.69343 0.58863 0.0
H1385 H 0.0413 0.70507 0.64589 0.0
H1386 H 0.02767 0.76547 0.59976 0.0
H1387 H 0.03574 0.74678 0.61792 0.0
H1388 H 0.06373 0.73528 0.55489 0.0
C1389 C 0.07399 0.69595 0.61117 0.0
C1390 C 0.04618 0.71152 0.6259 0.0
C1391 C 0.08419 0.69106 0.62348 0.0
C1392 C 0.03038 0.75862 0.58437 0.0
C1393 C 0.03486 0.74773 0.59487 0.0
C1394 C 0.05841 0.72839 0.57433 0.0
C1395 C 0.06837 0.70454 0.62742 0.0
C1396 C 0.05971 0.71192 0.61308 0.0
C1397 C 0.03889 0.7388 0.57596 0.0
C1398 C 0.04518 0.72845 0.58755 0.0
H1399 H 0.08602 0.70521 0.69153 0.0
H1400 H 0.06817 0.71387 0.66985 0.0
H1401 H 0.07613 0.72094 0.57671 0.0
H1402 H 0.03309 0.7532 0.51256 0.0
H1403 H 0.04074 0.7339 0.53098 0.0
C1404 C 0.72654 0.75673 0.08505 0.0
C1405 C 0.72794 0.76076 0.05569 0.0
C1406 C 0.71145 0.74645 0.09724 0.0
C1407 C 0.66881 0.71639 0.08199 0.0
H1408 H 0.66053 0.7338 0.15121 0.0
C1409 C 0.60459 0.6964 0.12269 0.0
C1410 C 0.60179 0.69666 0.15232 0.0
C1411 C 0.62014 0.70158 0.11229 0.0
C1412 C 0.66269 0.72853 0.1323 0.0
H1413 H 0.71461 0.75636 0.01579 0.0
H1414 H 0.68806 0.73834 0.0373 0.0
H1415 H 0.68733 0.74764 0.12963 0.0
H1416 H 0.61305 0.70166 0.1944 0.0
H1417 H 0.64029 0.71046 0.17622 0.0
H1418 H 0.64408 0.69733 0.08454 0.0
C1419 C 0.69876 0.74319 0.05076 0.0
C1420 C 0.67806 0.73652 0.11983 0.0
C1421 C 0.71394 0.75355 0.03847 0.0
C1422 C 0.61481 0.70145 0.17145 0.0
C1423 C 0.63043 0.70657 0.161 0.0
C1424 C 0.65342 0.7083 0.09461 0.0
C1425 C 0.69735 0.7399 0.08043 0.0
C1426 C 0.68123 0.73068 0.09434 0.0
C1427 C 0.63333 0.70705 0.13123 0.0
C1428 C 0.6501 0.71443 0.11966 0.0
H1429 H 0.73708 0.76186 0.09895 0.0
H1430 H 0.71078 0.74389 0.12004 0.0
H1431 H 0.67098 0.71151 0.06255 0.0
H1432 H 0.59485 0.69272 0.10726 0.0
H1433 H 0.62189 0.70196 0.08926 0.0
C1434 C 0.30414 0.91083 0.12027 0.0
C1435 C 0.30151 0.90685 0.14964 0.0
C1436 C 0.29929 0.92106 0.10799 0.0
C1437 C 0.28635 0.95087 0.12261 0.0
H1438 H 0.25993 0.93233 0.05449 0.0
C1439 C 0.24073 0.9692 0.08287 0.0
C1440 C 0.23709 0.96836 0.05339 0.0
C1441 C 0.25155 0.96453 0.09298 0.0
C1442 C 0.26757 0.93793 0.07306 0.0
H1443 H 0.29263 0.91132 0.18952 0.0
H1444 H 0.28402 0.92926 0.16785 0.0
H1445 H 0.2735 0.9191 0.0761 0.0
H1446 H 0.24281 0.9629 0.01122 0.0
H1447 H 0.26205 0.95501 0.02888 0.0
H1448 H 0.28029 0.96965 0.11968 0.0
C1449 C 0.28989 0.92441 0.15445 0.0
C1450 C 0.27529 0.93029 0.08555 0.0
C1451 C 0.29476 0.9141 0.16682 0.0
C1452 C 0.24522 0.96354 0.03407 0.0
C1453 C 0.25618 0.95894 0.04423 0.0
C1454 C 0.27873 0.95864 0.10994 0.0
C1455 C 0.2917 0.92759 0.12474 0.0
C1456 C 0.28455 0.93653 0.11069 0.0
C1457 C 0.25916 0.95901 0.07389 0.0
C1458 C 0.26899 0.95208 0.08531 0.0
H1459 H 0.30953 0.90567 0.1064 0.0
H1460 H 0.30111 0.92354 0.08516 0.0
H1461 H 0.29358 0.95604 0.14178 0.0
H1462 H 0.23478 0.97293 0.09843 0.0
H1463 H 0.25335 0.96456 0.11595 0.0
C1464 C 0.0355 0.28193 0.03641 0.0
C1465 C 0.03226 0.26938 0.05586 0.0
C1466 C 0.03993 0.29748 0.04651 0.0
C1467 C 0.04074 0.31987 0.11308 0.0
H1468 H 0.0772 0.35619 0.07589 0.0
C1469 C 0.08354 0.38128 0.16843 0.0
C1470 C 0.08962 0.39536 0.15155 0.0
C1471 C 0.0735 0.36601 0.15614 0.0
C1472 C 0.06683 0.34622 0.08628 0.0
H1473 H 0.03086 0.26332 0.10124 0.0
H1474 H 0.03884 0.29018 0.11849 0.0
H1475 H 0.06531 0.32936 0.05438 0.0
H1476 H 0.08877 0.40456 0.10923 0.0
H1477 H 0.07131 0.37807 0.08808 0.0
H1478 H 0.04279 0.33673 0.14565 0.0
C1479 C 0.03768 0.28809 0.09552 0.0
C1480 C 0.05998 0.33083 0.07388 0.0
C1481 C 0.03325 0.27265 0.08551 0.0
C1482 C 0.08453 0.39394 0.12277 0.0
C1483 C 0.07456 0.37876 0.11056 0.0
C1484 C 0.04769 0.33526 0.12561 0.0
C1485 C 0.04118 0.30074 0.07623 0.0
C1486 C 0.04706 0.3174 0.08741 0.0
C1487 C 0.06937 0.36462 0.12682 0.0
C1488 C 0.06097 0.34854 0.11256 0.0
H1489 H 0.03476 0.27979 0.01345 0.0
H1490 H 0.04241 0.30695 0.03106 0.0
H1491 H 0.03058 0.30984 0.12379 0.0
H1492 H 0.08722 0.38196 0.19064 0.0
H1493 H 0.0697 0.35529 0.16918 0.0
C1494 C 0.69656 0.60486 0.41822 0.0
C1495 C 0.69703 0.60183 0.38874 0.0
C1496 C 0.70155 0.62046 0.42811 0.0
C1497 C 0.72828 0.66291 0.40738 0.0
H1498 H 0.71053 0.67149 0.47586 0.0
C1499 C 0.75513 0.72712 0.45224 0.0
C1500 C 0.75908 0.72896 0.48166 0.0
C1501 C 0.74513 0.71183 0.44052 0.0
C1502 C 0.71561 0.66924 0.45677 0.0
H1503 H 0.70224 0.61275 0.34636 0.0
H1504 H 0.71071 0.6401 0.36366 0.0
H1505 H 0.69679 0.64439 0.45453 0.0
H1506 H 0.75483 0.71618 0.52214 0.0
H1507 H 0.73727 0.68924 0.50144 0.0
H1508 H 0.74715 0.68768 0.40972 0.0
C1509 C 0.7068 0.63037 0.37916 0.0
C1510 C 0.70777 0.65374 0.44453 0.0
C1511 C 0.70186 0.61469 0.36922 0.0
C1512 C 0.75206 0.71517 0.4994 0.0
C1513 C 0.74198 0.69977 0.48758 0.0
C1514 C 0.73602 0.67839 0.41946 0.0
C1515 C 0.70704 0.63349 0.40881 0.0
C1516 C 0.71417 0.65033 0.41994 0.0
C1517 C 0.73879 0.69796 0.45787 0.0
C1518 C 0.7299 0.68167 0.44448 0.0
H1519 H 0.69285 0.59526 0.43395 0.0
H1520 H 0.70176 0.62239 0.45108 0.0
H1521 H 0.73376 0.66069 0.38883 0.0
H1522 H 0.7601 0.73748 0.43794 0.0
H1523 H 0.74262 0.71084 0.41767 0.0
C1524 C 0.28187 0.03762 0.50617 0.0
C1525 C 0.26889 0.03232 0.48677 0.0
C1526 C 0.29756 0.04272 0.49611 0.0
C1527 C 0.32078 0.04325 0.43086 0.0
H1528 H 0.35449 0.08339 0.46396 0.0
C1529 C 0.38145 0.08743 0.37391 0.0
C1530 C 0.39539 0.09487 0.39125 0.0
C1531 C 0.3662 0.07738 0.38627 0.0
C1532 C 0.34527 0.07205 0.45471 0.0
H1533 H 0.26212 0.02749 0.44171 0.0
H1534 H 0.28927 0.03669 0.42437 0.0
H1535 H 0.32764 0.06989 0.48541 0.0
H1536 H 0.40434 0.09673 0.43489 0.0
H1537 H 0.37795 0.07932 0.45608 0.0
H1538 H 0.33842 0.04588 0.39944 0.0
C1539 C 0.28743 0.03672 0.44733 0.0
C1540 C 0.32988 0.06425 0.46712 0.0
C1541 C 0.27182 0.03158 0.45733 0.0
C1542 C 0.39386 0.09142 0.42087 0.0
C1543 C 0.37871 0.08146 0.43312 0.0
C1544 C 0.33618 0.05114 0.4183 0.0
C1545 C 0.30056 0.04265 0.46648 0.0
C1546 C 0.31737 0.04987 0.45514 0.0
C1547 C 0.36468 0.07465 0.41612 0.0
C1548 C 0.34853 0.06571 0.42995 0.0
H1549 H 0.28 0.03821 0.52899 0.0
H1550 H 0.30738 0.04699 0.5115 0.0
H1551 H 0.31149 0.03205 0.42134 0.0
H1552 H 0.38223 0.08981 0.35104 0.0
H1553 H 0.35555 0.07232 0.37266 0.0
C1554 C 0.90715 0.30188 0.42029 0.0
C1555 C 0.90388 0.30108 0.39066 0.0
C1556 C 0.91749 0.29675 0.43111 0.0
C1557 C 0.93259 0.26916 0.41283 0.0
H1558 H 0.95852 0.2872 0.48166 0.0
C1559 C 0.96953 0.24244 0.45965 0.0
C1560 C 0.96727 0.23855 0.48909 0.0
C1561 C 0.96429 0.25239 0.44759 0.0
C1562 C 0.95128 0.28203 0.4625 0.0
H1563 H 0.90975 0.29521 0.34898 0.0
H1564 H 0.92815 0.28653 0.36788 0.0
H1565 H 0.94565 0.3011 0.45905 0.0
H1566 H 0.95855 0.24289 0.52927 0.0
H1567 H 0.94923 0.26038 0.50795 0.0
H1568 H 0.93814 0.25009 0.41632 0.0
C1569 C 0.92235 0.29078 0.38279 0.0
C1570 C 0.9439 0.28996 0.44952 0.0
C1571 C 0.91189 0.29584 0.37192 0.0
C1572 C 0.9604 0.2456 0.50652 0.0
C1573 C 0.95512 0.25564 0.49434 0.0
C1574 C 0.94005 0.26134 0.42563 0.0
C1575 C 0.92495 0.29081 0.41261 0.0
C1576 C 0.93428 0.28349 0.42473 0.0
C1577 C 0.95665 0.25875 0.4646 0.0
C1578 C 0.94934 0.26759 0.45075 0.0
H1579 H 0.90128 0.30593 0.43543 0.0
H1580 H 0.91901 0.29678 0.45417 0.0
H1581 H 0.925 0.26361 0.39418 0.0
H1582 H 0.97502 0.23747 0.44558 0.0
H1583 H 0.96593 0.25484 0.42474 0.0
C1584 C 0.95001 0.57878 0.33578 0.0
C1585 C 0.93598 0.57222 0.31867 0.0
C1586 C 0.96523 0.58915 0.32364 0.0
C1587 C 0.98559 0.59623 0.25442 0.0
H1588 H 0.02047 0.63435 0.29077 0.0
C1589 C 0.04929 0.62974 0.20376 0.0
C1590 C 0.06216 0.63407 0.22307 0.0
C1591 C 0.0337 0.62494 0.214 0.0
C1592 C 0.01088 0.62367 0.2804 0.0
H1593 H 0.92682 0.57239 0.27595 0.0
H1594 H 0.95321 0.59033 0.25507 0.0
H1595 H 0.99354 0.6208 0.31267 0.0
H1596 H 0.06882 0.63738 0.26828 0.0
H1597 H 0.04183 0.62866 0.2859 0.0
H1598 H 0.0029 0.59853 0.22289 0.0
C1599 C 0.95252 0.58726 0.27764 0.0
C1600 C 0.99547 0.61595 0.29295 0.0
C1601 C 0.93739 0.57699 0.2897 0.0
C1602 C 0.05921 0.63407 0.2527 0.0
C1603 C 0.04369 0.6292 0.26288 0.0
C1604 C 0.00099 0.60382 0.24204 0.0
C1605 C 0.96663 0.59307 0.29424 0.0
C1606 C 0.98273 0.60204 0.28025 0.0
C1607 C 0.03067 0.62433 0.24374 0.0
C1608 C 0.01391 0.61749 0.2551 0.0
H1609 H 0.94933 0.57538 0.35816 0.0
H1610 H 0.97595 0.59344 0.33691 0.0
H1611 H 0.97604 0.58539 0.24433 0.0
H1612 H 0.05118 0.62974 0.18081 0.0
H1613 H 0.02398 0.62149 0.19863 0.0
C1614 C 0.35947 0.42279 0.25187 0.0
C1615 C 0.36229 0.4272 0.22267 0.0
C1616 C 0.36451 0.41265 0.2638 0.0
C1617 C 0.37806 0.38346 0.24836 0.0
H1618 H 0.40357 0.40115 0.31771 0.0
C1619 C 0.42273 0.36417 0.28935 0.0
C1620 C 0.42583 0.3645 0.31898 0.0
C1621 C 0.41227 0.36922 0.27893 0.0
C1622 C 0.39618 0.39579 0.29877 0.0
H1623 H 0.37176 0.42357 0.18274 0.0
H1624 H 0.3807 0.40573 0.20383 0.0
H1625 H 0.39026 0.41463 0.29603 0.0
H1626 H 0.41958 0.36953 0.36103 0.0
H1627 H 0.40095 0.37809 0.34281 0.0
H1628 H 0.38406 0.36464 0.25104 0.0
C1629 C 0.37454 0.41022 0.21734 0.0
C1630 C 0.38862 0.40359 0.28623 0.0
C1631 C 0.36948 0.42046 0.2053 0.0
C1632 C 0.41757 0.36927 0.33809 0.0
C1633 C 0.40697 0.37425 0.32761 0.0
C1634 C 0.38551 0.37555 0.26108 0.0
C1635 C 0.37249 0.40661 0.2469 0.0
C1636 C 0.37967 0.39764 0.26071 0.0
C1637 C 0.40448 0.37462 0.29783 0.0
C1638 C 0.39491 0.38178 0.28617 0.0
H1639 H 0.35374 0.42754 0.26587 0.0
H1640 H 0.36249 0.40982 0.2865 0.0
H1641 H 0.37107 0.37852 0.22889 0.0
H1642 H 0.4288 0.3605 0.27392 0.0
H1643 H 0.41087 0.36953 0.25589 0.0
C1644 C 0.57717 0.93732 0.25098 0.0
C1645 C 0.5717 0.93578 0.22244 0.0
C1646 C 0.58783 0.95249 0.26247 0.0
C1647 C 0.61615 0.99542 0.24606 0.0
H1648 H 0.60029 0.00287 0.31796 0.0
C1649 C 0.63493 0.05913 0.28809 0.0
C1650 C 0.63523 0.06188 0.31785 0.0
C1651 C 0.63014 0.04371 0.27744 0.0
C1652 C 0.60517 0.00097 0.29828 0.0
H1653 H 0.57402 0.94889 0.18301 0.0
H1654 H 0.59272 0.97563 0.20333 0.0
H1655 H 0.58668 0.97604 0.29655 0.0
H1656 H 0.63174 0.05073 0.35982 0.0
H1657 H 0.62369 0.02375 0.34119 0.0
H1658 H 0.63459 0.02044 0.2477 0.0
C1659 C 0.58869 0.96497 0.21669 0.0
C1660 C 0.59729 0.98557 0.28591 0.0
C1661 C 0.57796 0.9497 0.20509 0.0
C1662 C 0.63147 0.04899 0.33678 0.0
C1663 C 0.62678 0.03351 0.32608 0.0
C1664 C 0.62415 0.01084 0.2586 0.0
C1665 C 0.5933 0.96652 0.24576 0.0
C1666 C 0.60255 0.98268 0.25949 0.0
C1667 C 0.62567 0.03061 0.29625 0.0
C1668 C 0.61856 0.01387 0.28462 0.0
H1669 H 0.57283 0.92682 0.26485 0.0
H1670 H 0.59143 0.95329 0.28477 0.0
H1671 H 0.62055 0.99348 0.22584 0.0
H1672 H 0.63781 0.06878 0.27279 0.0
H1673 H 0.62925 0.04195 0.25439 0.0
C1674 C 0.36909 0.94778 0.70161 0.0
C1675 C 0.36465 0.93487 0.72086 0.0
C1676 C 0.37408 0.96341 0.71194 0.0
C1677 C 0.37522 0.98616 0.77828 0.0
H1678 H 0.41356 0.02112 0.74265 0.0
C1679 C 0.41878 0.04758 0.83366 0.0
C1680 C 0.42527 0.06152 0.81631 0.0
C1681 C 0.40888 0.03222 0.82157 0.0
C1682 C 0.40271 0.01153 0.75263 0.0
H1683 H 0.36146 0.9282 0.76607 0.0
H1684 H 0.37045 0.95523 0.7838 0.0
H1685 H 0.40067 0.99422 0.72126 0.0
H1686 H 0.4255 0.07031 0.77309 0.0
H1687 H 0.40833 0.04371 0.75236 0.0
H1688 H 0.37775 0.00349 0.8103 0.0
C1689 C 0.36985 0.95337 0.76078 0.0
C1690 C 0.39526 0.99611 0.74027 0.0
C1691 C 0.36482 0.93783 0.75052 0.0
C1692 C 0.42093 0.05984 0.78708 0.0
C1693 C 0.41111 0.04458 0.77509 0.0
C1694 C 0.38277 0.00158 0.79078 0.0
C1695 C 0.37476 0.96642 0.7417 0.0
C1696 C 0.38156 0.98317 0.75314 0.0
C1697 C 0.40534 0.03058 0.79198 0.0
C1698 C 0.39669 0.01438 0.77822 0.0
H1699 H 0.36899 0.94589 0.67864 0.0
H1700 H 0.37758 0.97317 0.69662 0.0
H1701 H 0.36451 0.97652 0.78851 0.0
H1702 H 0.42186 0.04846 0.85624 0.0
H1703 H 0.40461 0.0216 0.8351 0.0
C1704 C 0.94717 0.36915 0.8356 0.0
C1705 C 0.93308 0.36138 0.81866 0.0
C1706 C 0.96237 0.37399 0.82342 0.0
C1707 C 0.98235 0.38681 0.75389 0.0
H1708 H 0.01788 0.38487 0.7905 0.0
C1709 C 0.046 0.41805 0.70284 0.0
C1710 C 0.05886 0.42689 0.72203 0.0
C1711 C 0.0305 0.40706 0.71324 0.0
C1712 C 0.0081 0.38559 0.78005 0.0
H1713 H 0.92381 0.35142 0.7763 0.0
H1714 H 0.95019 0.35984 0.75534 0.0
H1715 H 0.99102 0.37113 0.81265 0.0
H1716 H 0.0656 0.43062 0.76719 0.0
H1717 H 0.03878 0.41204 0.78507 0.0
H1718 H -0.0006 0.40184 0.72205 0.0
C1719 C 0.94954 0.36247 0.7778 0.0
C1720 C 0.99273 0.37769 0.79274 0.0
C1721 C 0.93442 0.35762 0.7899 0.0
C1722 C 0.056 0.42408 0.7517 0.0
C1723 C 0.04058 0.41324 0.76203 0.0
C1724 C 0.99771 0.39484 0.74138 0.0
C1725 C 0.9637 0.37113 0.79414 0.0
C1726 C 0.97976 0.3784 0.77995 0.0
C1727 C 0.02756 0.40475 0.74302 0.0
C1728 C 0.01086 0.39456 0.75453 0.0
H1729 H 0.94654 0.37218 0.85782 0.0
H1730 H 0.97313 0.38069 0.8365 0.0
H1731 H 0.97262 0.38775 0.74373 0.0
H1732 H 0.04782 0.41983 0.67986 0.0
H1733 H 0.02079 0.40054 0.69796 0.0
C1734 C 0.57742 0.62874 0.70781 0.0
C1735 C 0.57062 0.63605 0.72476 0.0
C1736 C 0.58775 0.62393 0.7202 0.0
C1737 C 0.59456 0.61059 0.78971 0.0
H1738 H 0.63262 0.61363 0.75346 0.0
C1739 C 0.62824 0.58059 0.84069 0.0
C1740 C 0.63246 0.57192 0.82147 0.0
C1741 C 0.62336 0.5913 0.83033 0.0
C1742 C 0.62196 0.61262 0.76381 0.0
H1743 H 0.57033 0.64513 0.7675 0.0
H1744 H 0.58827 0.63677 0.78881 0.0
H1745 H 0.61917 0.62709 0.73148 0.0
H1746 H 0.6354 0.56819 0.77627 0.0
H1747 H 0.62659 0.58636 0.75847 0.0
H1748 H 0.59683 0.5956 0.82134 0.0
C1749 C 0.58539 0.63448 0.76616 0.0
C1750 C 0.6143 0.62034 0.75121 0.0
C1751 C 0.57514 0.6393 0.75386 0.0
C1752 C 0.63221 0.57461 0.79179 0.0
C1753 C 0.62729 0.5852 0.7815 0.0
C1754 C 0.60213 0.60276 0.80216 0.0
C1755 C 0.59143 0.62633 0.7497 0.0
C1756 C 0.6004 0.61923 0.76386 0.0
C1757 C 0.62257 0.59351 0.80057 0.0
C1758 C 0.61576 0.60345 0.78913 0.0
H1759 H 0.57421 0.62611 0.68534 0.0
H1760 H 0.5922 0.61761 0.707 0.0
H1761 H 0.58373 0.60932 0.79976 0.0
H1762 H 0.62842 0.57889 0.86367 0.0
H1763 H 0.62001 0.59769 0.84563 0.0
C1764 C 0.20782 0.23178 0.35764 0.0
C1765 C 0.21815 0.2411 0.38011 0.0
C1766 C 0.21362 0.2333 0.32972 0.0
C1767 C 0.2498 0.24478 0.28716 0.0
H1768 H 0.22168 0.24316 0.22541 0.0
C1769 C 0.24826 0.21828 0.1757 0.0
C1770 C 0.24345 0.22375 0.15165 0.0
C1771 C 0.24927 0.22501 0.20282 0.0
C1772 C 0.22992 0.24399 0.24221 0.0
H1773 H 0.24276 0.25976 0.39036 0.0
H1774 H 0.25305 0.26207 0.34134 0.0
H1775 H 0.21538 0.24641 0.27462 0.0
H1776 H 0.23632 0.24097 0.13728 0.0
H1777 H 0.23869 0.25312 0.18423 0.0
H1778 H 0.26417 0.24199 0.25465 0.0
C1779 C 0.24042 0.25349 0.34572 0.0
C1780 C 0.22618 0.24565 0.27051 0.0
C1781 C 0.23454 0.25204 0.37386 0.0
C1782 C 0.24048 0.2367 0.15505 0.0
C1783 C 0.24157 0.2435 0.18217 0.0
C1784 C 0.25358 0.24312 0.25873 0.0
C1785 C 0.22994 0.24422 0.32335 0.0
C1786 C 0.23572 0.24545 0.29335 0.0
C1787 C 0.24544 0.23736 0.20655 0.0
C1788 C 0.24337 0.24216 0.236 0.0
H1789 H 0.19516 0.22313 0.3616 0.0
H1790 H 0.20531 0.22572 0.3131 0.0
H1791 H 0.25739 0.24462 0.30435 0.0
H1792 H 0.25061 0.2083 0.17379 0.0
H1793 H 0.25208 0.2198 0.22108 0.0
C1794 C 0.75645 0.99741 0.384 0.0
C1795 C 0.75458 0.98194 0.38803 0.0
C1796 C 0.75441 0.00231 0.35673 0.0
C1797 C 0.73949 0.98795 0.28259 0.0
H1798 H 0.77663 0.02892 0.26019 0.0
C1799 C 0.76147 0.00393 0.1655 0.0
C1800 C 0.77011 0.02028 0.15729 0.0
C1801 C 0.75567 -0.00032 0.19361 0.0
C1802 C 0.76592 0.01764 0.26605 0.0
H1803 H 0.74846 0.95927 0.36708 0.0
H1804 H 0.74492 0.9678 0.31955 0.0
H1805 H 0.77314 0.02065 0.31012 0.0
H1806 H 0.77875 0.04495 0.17115 0.0
H1807 H 0.76807 0.03758 0.21988 0.0
H1808 H 0.73251 0.98478 0.23826 0.0
C1809 C 0.74777 0.97609 0.33741 0.0
C1810 C 0.76395 0.01289 0.29481 0.0
C1811 C 0.74992 0.97124 0.36459 0.0
C1812 C 0.77207 0.03225 0.17705 0.0
C1813 C 0.76608 0.02801 0.205 0.0
C1814 C 0.7414 0.99277 0.25377 0.0
C1815 C 0.75045 0.99184 0.333 0.0
C1816 C 0.75095 0.99782 0.30331 0.0
C1817 C 0.75837 0.01172 0.21399 0.0
C1818 C 0.75488 0.0075 0.24501 0.0
H1819 H 0.76042 0.00608 0.40142 0.0
H1820 H 0.7565 0.01451 0.35399 0.0
H1821 H 0.72925 0.97634 0.28858 0.0
H1822 H 0.76023 0.99452 0.1509 0.0
H1823 H 0.75003 0.98704 0.19978 0.0
C1824 C 0.97118 0.76695 0.17969 0.0
C1825 C 0.9731 0.75857 0.15652 0.0
C1826 C 0.97559 0.76527 0.20744 0.0
C1827 C 0.00271 0.75632 0.2479 0.0
H1828 H 0.97528 0.75409 0.31139 0.0
C1829 C 0.0268 0.78311 0.35949 0.0
C1830 C 0.01705 0.77611 0.38384 0.0
C1831 C 0.02133 0.77646 0.33225 0.0
C1832 C 0.98299 0.75437 0.29403 0.0
H1833 H 0.98054 0.74113 0.1451 0.0
H1834 H 0.9889 0.73873 0.19366 0.0
H1835 H 0.96515 0.75069 0.26243 0.0
H1836 H 0.99404 0.75635 0.39876 0.0
H1837 H 0.98462 0.74452 0.35129 0.0
H1838 H 0.02077 0.76056 0.27956 0.0
C1839 C 0.98404 0.74671 0.18995 0.0
C1840 C 0.97723 0.75259 0.26594 0.0
C1841 C 0.97942 0.74826 0.16202 0.0
C1842 C 0.00202 0.76183 0.38058 0.0
C1843 C 0.99652 0.75518 0.35328 0.0
C1844 C 0.00853 0.75817 0.27609 0.0
C1845 C 0.9821 0.75518 0.21292 0.0
C1846 C 0.98722 0.75411 0.24255 0.0
C1847 C 0.0059 0.76272 0.32871 0.0
C1848 C -0.0011 0.75773 0.29941 0.0
H1849 H 0.96642 0.77505 0.17641 0.0
H1850 H 0.9742 0.77217 0.2246 0.0
H1851 H 0.01067 0.75755 0.23027 0.0
H1852 H 0.03841 0.79416 0.36136 0.0
H1853 H 0.02879 0.78272 0.31382 0.0
C1854 C 0.77981 0.75221 0.67732 0.0
C1855 C 0.77361 0.75647 0.65358 0.0
C1856 C 0.77319 0.75082 0.70467 0.0
C1857 C 0.75354 0.76844 0.74628 0.0
H1858 H 0.74973 0.73764 0.80458 0.0
C1859 C 0.74204 0.77801 0.86352 0.0
C1860 C 0.7516 0.77581 0.88394 0.0
C1861 C 0.7406 0.77201 0.83562 0.0
C1862 C 0.75079 0.74637 0.78859 0.0
H1863 H 0.75547 0.76244 0.63987 0.0
H1864 H 0.74378 0.75985 0.68758 0.0
H1865 H 0.75466 0.73346 0.7546 0.0
H1866 H 0.76717 0.76568 0.8914 0.0
H1867 H 0.76494 0.7554 0.84269 0.0
H1868 H 0.75056 0.78185 0.78009 0.0
C1869 C 0.7537 0.75747 0.68496 0.0
C1870 C 0.75355 0.74394 0.75995 0.0
C1871 C 0.76025 0.75873 0.65753 0.0
C1872 C 0.75928 0.76706 0.87632 0.0
C1873 C 0.75803 0.76123 0.8483 0.0
C1874 C 0.75091 0.77095 0.77487 0.0
C1875 C 0.76036 0.75389 0.70894 0.0
C1876 C 0.75526 0.75512 0.73858 0.0
C1877 C 0.74903 0.76402 0.82734 0.0
C1878 C 0.74981 0.76013 0.79653 0.0
H1879 H 0.79016 0.75049 0.6749 0.0
H1880 H 0.77872 0.74824 0.72271 0.0
H1881 H 0.75506 0.77743 0.73044 0.0
H1882 H 0.73607 0.78482 0.86892 0.0
H1883 H 0.7333 0.77412 0.82028 0.0
C1884 C 0.22808 0.99355 0.87755 0.0
C1885 C 0.2201 0.97709 0.88513 0.0
C1886 C 0.23412 0.99839 0.84973 0.0
C1887 C 0.22602 0.9818 0.77628 0.0
H1888 H 0.26256 0.02395 0.75729 0.0
C1889 C 0.23828 0.00442 0.65958 0.0
C1890 C 0.23995 0.01983 0.65605 0.0
C1891 C 0.23963 -0.00096 0.68687 0.0
C1892 C 0.25236 0.01211 0.76228 0.0
H1893 H 0.21264 0.95283 0.87019 0.0
H1894 H 0.22361 0.96127 0.82182 0.0
H1895 H 0.25824 0.01456 0.8071 0.0
H1896 H 0.24491 0.04191 0.67798 0.0
H1897 H 0.24727 0.03257 0.72556 0.0
H1898 H 0.21989 0.9795 0.73168 0.0
C1899 C 0.225 0.97045 0.8371 0.0
C1900 C 0.24984 0.00675 0.79081 0.0
C1901 C 0.21882 0.96562 0.86483 0.0
C1902 C 0.24366 0.03 0.68008 0.0
C1903 C 0.24512 0.02469 0.70729 0.0
C1904 C 0.2286 0.98711 0.7478 0.0
C1905 C 0.23228 0.98685 0.82892 0.0
C1906 C 0.2364 0.99169 0.79827 0.0
C1907 C 0.24268 0.00898 0.71112 0.0
C1908 C 0.24155 0.00249 0.74057 0.0
H1909 H 0.22871 0.00258 0.89244 0.0
H1910 H 0.23935 0.01107 0.84412 0.0
H1911 H 0.21537 0.97027 0.78116 0.0
H1912 H 0.23502 0.99614 0.64162 0.0
H1913 H 0.23774 0.98689 0.68914 0.0
C1914 C 0.97805 0.23363 0.67003 0.0
C1915 C 0.98547 0.22525 0.65889 0.0
C1916 C 0.98217 0.24052 0.69755 0.0
C1917 C 0.01255 0.25253 0.75581 0.0
H1918 H 0.97568 0.23269 0.80741 0.0
C1919 C 0.02008 0.25225 0.87918 0.0
C1920 C 0.01276 0.23619 0.88906 0.0
C1921 C 0.01617 0.25563 0.85196 0.0
C1922 C 0.98607 0.2386 0.79324 0.0
H1923 H 0.00355 0.21825 0.66646 0.0
H1924 H 0.01105 0.23057 0.714 0.0
H1925 H 0.9712 0.23121 0.75552 0.0
H1926 H 0.99512 0.21121 0.87937 0.0
H1927 H 0.988 0.2171 0.83235 0.0
H1928 H 0.02741 0.25903 0.79351 0.0
C1929 C 0.00204 0.23182 0.7018 0.0
C1930 C 0.98351 0.23785 0.76358 0.0
C1931 C 0.99768 0.22467 0.67472 0.0
C1932 C 0.00093 0.22369 0.87212 0.0
C1933 C 0.99677 0.22709 0.84535 0.0
C1934 C 0.0151 0.25346 0.78549 0.0
C1935 C 0.99403 0.23942 0.71386 0.0
C1936 C 0.99673 0.24413 0.74457 0.0
C1937 C 0.0046 0.24302 0.83469 0.0
C1938 C 0.00188 0.24583 0.8044 0.0
H1939 H 0.96852 0.23411 0.65814 0.0
H1940 H 0.97579 0.24627 0.70644 0.0
H1941 H 0.02294 0.25753 0.74158 0.0
H1942 H 0.02934 0.26204 0.89188 0.0
H1943 H 0.02243 0.268 0.84413 0.0
C1944 C 0.92021 0.55192 0.51121 0.0
C1945 C 0.91152 0.55501 0.49025 0.0
C1946 C 0.92142 0.55768 0.53924 0.0
C1947 C 0.91306 0.58467 0.58579 0.0
H1948 H 0.9047 0.55198 0.64339 0.0
C1949 C 0.88453 0.582 0.69641 0.0
C1950 C 0.88921 0.57623 0.72022 0.0
C1951 C 0.891 0.58258 0.6692 0.0
C1952 C 0.90738 0.56142 0.62775 0.0
H1953 H 0.89719 0.56648 0.48213 0.0
H1954 H 0.89921 0.57653 0.53097 0.0
H1955 H 0.90937 0.54737 0.59394 0.0
H1956 H 0.90454 0.56667 0.73406 0.0
H1957 H 0.91611 0.56803 0.68676 0.0
H1958 H 0.91038 0.5984 0.6197 0.0
C1959 C 0.90557 0.5701 0.52566 0.0
C1960 C 0.91008 0.55877 0.59928 0.0
C1961 C 0.90449 0.56444 0.49754 0.0
C1962 C 0.90097 0.57159 0.71643 0.0
C1963 C 0.90742 0.57213 0.68917 0.0
C1964 C 0.9103 0.58729 0.61432 0.0
C1965 C 0.91368 0.56642 0.54707 0.0
C1966 C 0.91267 0.57022 0.5778 0.0
C1967 C 0.90222 0.57726 0.66511 0.0
C1968 C 0.90714 0.57555 0.63554 0.0
H1969 H 0.92566 0.54459 0.50611 0.0
H1970 H 0.92799 0.55484 0.55501 0.0
H1971 H 0.91524 0.59385 0.5699 0.0
H1972 H 0.87542 0.58558 0.69865 0.0
H1973 H 0.88656 0.58641 0.65114 0.0
C1974 C 0.44705 0.36276 0.51236 0.0
C1975 C 0.44126 0.35237 0.48849 0.0
C1976 C 0.44029 0.35729 0.53953 0.0
C1977 C 0.4214 0.31986 0.58057 0.0
H1978 H 0.4167 0.34619 0.63914 0.0
C1979 C 0.41104 0.29891 0.69787 0.0
C1980 C 0.42055 0.31083 0.71809 0.0
C1981 C 0.40921 0.30328 0.67004 0.0
C1982 C 0.418 0.3387 0.62306 0.0
H1983 H 0.4237 0.32818 0.47417 0.0
H1984 H 0.41175 0.3186 0.5217 0.0
H1985 H 0.42126 0.35533 0.58918 0.0
H1986 H 0.43567 0.33664 0.72525 0.0
H1987 H 0.43273 0.34435 0.67668 0.0
H1988 H 0.41904 0.30365 0.61429 0.0
C1989 C 0.42145 0.33104 0.51933 0.0
C1990 C 0.42055 0.34391 0.59444 0.0
C1991 C 0.42815 0.33657 0.49207 0.0
C1992 C 0.42781 0.32724 0.71036 0.0
C1993 C 0.42616 0.33162 0.68241 0.0
C1994 C 0.41897 0.31471 0.60914 0.0
C1995 C 0.42773 0.34122 0.54347 0.0
C1996 C 0.42262 0.33471 0.57299 0.0
C1997 C 0.41719 0.31968 0.66166 0.0
C1998 C 0.4176 0.32422 0.63089 0.0
H1999 H 0.45724 0.37496 0.51018 0.0
H2000 H 0.44554 0.36537 0.55771 0.0
H2001 H 0.42321 0.31261 0.56466 0.0
H2002 H 0.40538 0.28617 0.70337 0.0
H2003 H 0.40197 0.29376 0.65484 0.0
C2004 C 0.70015 0.11484 0.69853 0.0
C2005 C 0.68792 0.11134 0.71878 0.0
C2006 C 0.69618 0.10872 0.6706 0.0
C2007 C 0.66196 0.08024 0.62327 0.0
H2008 H 0.68582 0.11305 0.56559 0.0
C2009 C 0.63621 0.08208 0.51229 0.0
C2010 C 0.64675 0.0882 0.48865 0.0
C2011 C 0.64208 0.08148 0.5395 0.0
C2012 C 0.67923 0.10359 0.58126 0.0
H2013 H 0.66198 0.09876 0.72583 0.0
H2014 H 0.65498 0.08815 0.67711 0.0
H2015 H 0.69463 0.11821 0.61526 0.0
H2016 H 0.67174 0.09827 0.47503 0.0
H2017 H 0.68193 0.09693 0.52237 0.0
H2018 H 0.64612 0.06595 0.58912 0.0
C2019 C 0.66767 0.09516 0.68291 0.0
C2020 C 0.6843 0.10654 0.60986 0.0
C2021 C 0.67167 0.10117 0.71095 0.0
C2022 C 0.6632 0.0931 0.49255 0.0
C2023 C 0.66909 0.09256 0.51982 0.0
C2024 C 0.65685 0.07731 0.59459 0.0
C2025 C 0.67987 0.09923 0.66216 0.0
C2026 C 0.67555 0.09506 0.63135 0.0
C2027 C 0.65867 0.08716 0.54374 0.0
C2028 C 0.66524 0.08911 0.57337 0.0
H2029 H 0.71278 0.12272 0.70408 0.0
H2030 H 0.7059 0.11187 0.65535 0.0
H2031 H 0.65509 0.07103 0.63918 0.0
H2032 H 0.62348 0.07829 0.50994 0.0
H2033 H 0.63374 0.07744 0.55747 0.0
C2034 C 0.44478 0.08201 0.01152 0.0
C2035 C 0.44001 0.08791 0.98802 0.0
C2036 C 0.43838 0.08126 0.03886 0.0
C2037 C 0.42256 0.1025 0.08125 0.0
H2038 H 0.41447 0.06973 0.13853 0.0
C2039 C 0.41131 0.11249 0.19825 0.0
C2040 C 0.41992 0.10903 0.21883 0.0
C2041 C 0.4096 0.10659 0.17023 0.0
C2042 C 0.41673 0.07901 0.12281 0.0
H2043 H 0.42461 0.0975 0.97482 0.0
H2044 H 0.4132 0.0959 0.02238 0.0
H2045 H 0.41894 0.06521 0.08846 0.0
H2046 H 0.43342 0.09665 0.22645 0.0
H2047 H 0.43065 0.08647 0.17752 0.0
H2048 H 0.42114 0.11665 0.11544 0.0
C2049 C 0.42187 0.0918 0.01962 0.0
C2050 C 0.41925 0.07639 0.09412 0.0
C2051 C 0.42823 0.09248 0.99222 0.0
C2052 C 0.42627 0.09905 0.21126 0.0
C2053 C 0.42473 0.09329 0.1831 0.0
C2054 C 0.42014 0.10515 0.10986 0.0
C2055 C 0.42718 0.08657 0.04339 0.0
C2056 C 0.42247 0.08825 0.07311 0.0
C2057 C 0.41678 0.09739 0.16201 0.0
C2058 C 0.41747 0.09357 0.13114 0.0
H2059 H 0.4539 0.07848 0.00895 0.0
H2060 H 0.44288 0.07735 0.05672 0.0
H2061 H 0.42531 0.11202 0.06575 0.0
H2062 H 0.40637 0.12023 0.20362 0.0
H2063 H 0.40312 0.10972 0.15475 0.0
C2064 C 0.90203 0.33863 0.99703 0.0
C2065 C 0.90936 0.3551 0.98962 0.0
C2066 C 0.90326 0.33404 0.02506 0.0
C2067 C 0.90898 0.35019 0.09859 0.0
H2068 H 0.90842 0.3104 0.11864 0.0
C2069 C 0.90033 0.32854 0.21575 0.0
C2070 C 0.88827 0.31227 0.21972 0.0
C2071 C 0.90671 0.33428 0.18839 0.0
C2072 C 0.90858 0.32156 0.11337 0.0
H2073 H 0.92428 0.37965 0.00518 0.0
H2074 H 0.92683 0.37168 0.05388 0.0
H2075 H 0.91294 0.31964 0.06874 0.0
H2076 H 0.8739 0.28914 0.19839 0.0
H2077 H 0.8849 0.29914 0.1507 0.0
H2078 H 0.90417 0.3519 0.1429 0.0
C2079 C 0.91988 0.36228 0.03828 0.0
C2080 C 0.91114 0.32684 0.08478 0.0
C2081 C 0.91853 0.36686 0.01036 0.0
C2082 C 0.88323 0.30173 0.196 0.0
C2083 C 0.88963 0.30744 0.1687 0.0
C2084 C 0.90647 0.34494 0.1271 0.0
C2085 C 0.91185 0.34583 0.04624 0.0
C2086 C 0.91105 0.34107 0.07695 0.0
C2087 C 0.90113 0.32388 0.16442 0.0
C2088 C 0.90592 0.3304 0.13477 0.0
H2089 H 0.89442 0.32931 0.98183 0.0
H2090 H 0.89668 0.32127 0.03049 0.0
H2091 H 0.90851 0.36103 0.09337 0.0
H2092 H 0.90418 0.3371 0.23332 0.0
H2093 H 0.91564 0.34699 0.18584 0.0
C2094 C 0.6359 0.55172 0.01546 0.0
C2095 C 0.64606 0.55736 0.99128 0.0
C2096 C 0.64182 0.55806 0.0427 0.0
C2097 C 0.68019 0.57563 0.08149 0.0
H2098 H 0.65418 0.57669 0.1447 0.0
C2099 C 0.68958 0.56153 0.19621 0.0
C2100 C 0.68899 0.57087 0.21909 0.0
C2101 C 0.68551 0.56359 0.16843 0.0
C2102 C 0.66171 0.57672 0.12722 0.0
H2103 H 0.67039 0.57449 0.97675 0.0
H2104 H 0.68058 0.58592 0.02406 0.0
H2105 H 0.64465 0.57488 0.09526 0.0
H2106 H 0.68419 0.59024 0.23011 0.0
H2107 H 0.67652 0.59344 0.18142 0.0
H2108 H 0.69701 0.57703 0.11336 0.0
C2109 C 0.66801 0.5765 0.02197 0.0
C2110 C 0.6562 0.57554 0.09894 0.0
C2111 C 0.66208 0.57011 0.9947 0.0
C2112 C 0.68428 0.58244 0.21334 0.0
C2113 C 0.68005 0.58442 0.18537 0.0
C2114 C 0.68566 0.57678 0.10965 0.0
C2115 C 0.65811 0.57017 0.04642 0.0
C2116 C 0.66514 0.57446 0.07581 0.0
C2117 C 0.68074 0.57506 0.16263 0.0
C2118 C 0.67622 0.57676 0.13286 0.0
H2119 H 0.6235 0.54187 0.01351 0.0
H2120 H 0.63389 0.55273 0.06103 0.0
H2121 H 0.68735 0.57469 0.06432 0.0
H2122 H 0.69307 0.55244 0.19976 0.0
H2123 H 0.68587 0.55597 0.15148 0.0
C2124 C 0.58655 0.88638 0.84345 0.0
C2125 C 0.57684 0.88825 0.82289 0.0
C2126 C 0.58783 0.89243 0.87127 0.0
C2127 C 0.57711 0.91789 0.91754 0.0
H2128 H 0.57314 0.8873 0.97641 0.0
C2129 C 0.54765 0.91229 0.02817 0.0
C2130 C 0.5539 0.90833 0.0522 0.0
C2131 C 0.55437 0.91356 0.00095 0.0
C2132 C 0.57459 0.89617 0.96037 0.0
H2133 H 0.56076 0.89777 0.81519 0.0
H2134 H 0.56278 0.90819 0.86371 0.0
H2135 H 0.57786 0.88273 0.92695 0.0
H2136 H 0.57221 0.90276 0.06666 0.0
H2137 H 0.58406 0.90512 0.01911 0.0
H2138 H 0.57296 0.93083 0.95111 0.0
C2139 C 0.56992 0.90259 0.85825 0.0
C2140 C 0.57732 0.89357 0.9319 0.0
C2141 C 0.56879 0.89669 0.83033 0.0
C2142 C 0.56737 0.90621 0.04868 0.0
C2143 C 0.57403 0.90735 0.02139 0.0
C2144 C 0.57424 0.92042 0.94606 0.0
C2145 C 0.57912 0.90017 0.87931 0.0
C2146 C 0.57829 0.9042 0.90999 0.0
C2147 C 0.56735 0.91067 0.99713 0.0
C2148 C 0.57263 0.9094 0.96767 0.0
H2149 H 0.59278 0.87982 0.83819 0.0
H2150 H 0.59526 0.89059 0.88672 0.0
H2151 H 0.57807 0.92649 0.90134 0.0
H2152 H 0.5372 0.91388 0.03027 0.0
H2153 H 0.54881 0.91593 0.98269 0.0
C2154 C 0.08569 0.63512 0.02943 0.0
C2155 C 0.08939 0.64544 0.05325 0.0
C2156 C 0.0836 0.64003 0.00227 0.0
C2157 C 0.09823 0.67714 0.96085 0.0
H2158 H 0.06828 0.64848 0.90303 0.0
C2159 C 0.1056 0.69766 0.84354 0.0
C2160 C 0.10463 0.68627 0.82334 0.0
C2161 C 0.09978 0.69284 0.87145 0.0
C2162 C 0.07675 0.65663 0.91891 0.0
H2163 H 0.09366 0.66895 0.0674 0.0
H2164 H 0.08986 0.6775 0.01992 0.0
H2165 H 0.06506 0.63955 0.95305 0.0
H2166 H 0.09683 0.66093 0.81633 0.0
H2167 H 0.08682 0.65247 0.86502 0.0
H2168 H 0.11045 0.6939 0.92685 0.0
C2169 C 0.08846 0.66555 0.02233 0.0
C2170 C 0.07487 0.65153 0.94756 0.0
C2171 C 0.09044 0.66057 0.04959 0.0
C2172 C 0.09722 0.66987 0.83117 0.0
C2173 C 0.09155 0.66505 0.8592 0.0
C2174 C 0.10017 0.6822 0.93226 0.0
C2175 C 0.08539 0.65548 0.99826 0.0
C2176 C 0.08581 0.6616 0.96873 0.0
C2177 C 0.09318 0.67655 0.87994 0.0
C2178 C 0.08968 0.67188 0.91078 0.0
H2179 H 0.08492 0.62343 0.03166 0.0
H2180 H 0.08146 0.63207 0.98414 0.0
H2181 H 0.10703 0.6851 0.97653 0.0
H2182 H 0.11135 0.7104 0.83798 0.0
H2183 H 0.10098 0.70198 0.88666 0.0
C2184 C 0.29618 0.41305 0.84287 0.0
C2185 C 0.30815 0.4216 0.82212 0.0
C2186 C 0.3005 0.4114 0.87083 0.0
C2187 C 0.33552 0.41863 0.91757 0.0
H2188 H 0.31113 0.42666 0.97554 0.0
C2189 C 0.36097 0.44709 0.02843 0.0
C2190 C 0.35048 0.44204 0.05218 0.0
C2191 C 0.35523 0.44053 0.00121 0.0
C2192 C 0.3179 0.42407 0.95977 0.0
H2193 H 0.33399 0.43517 0.81419 0.0
H2194 H 0.34162 0.43252 0.86301 0.0
H2195 H 0.30207 0.42257 0.92599 0.0
H2196 H 0.32578 0.42611 0.06618 0.0
H2197 H 0.31574 0.41446 0.01864 0.0
H2198 H 0.3518 0.42098 0.95152 0.0
C2199 C 0.32886 0.42657 0.8576 0.0
C2200 C 0.31268 0.42169 0.93123 0.0
C2201 C 0.32451 0.42804 0.82951 0.0
C2202 C 0.33424 0.42989 0.04841 0.0
C2203 C 0.32845 0.4234 0.02112 0.0
C2204 C 0.34081 0.42113 0.94617 0.0
C2205 C 0.31691 0.4186 0.87885 0.0
C2206 C 0.32157 0.41923 0.90963 0.0
C2207 C 0.33879 0.42896 0.99708 0.0
C2208 C 0.3322 0.42417 0.96749 0.0
H2209 H 0.28347 0.40805 0.83765 0.0
H2210 H 0.29095 0.40491 0.88641 0.0
H2211 H 0.34253 0.41651 0.90162 0.0
H2212 H 0.3735 0.45659 0.03074 0.0
H2213 H 0.36346 0.44524 0.98312 0.0
C2214 C 0.08691 0.42882 0.54823 0.0
C2215 C 0.08601 0.44302 0.5515 0.0
C2216 C 0.08568 0.42211 0.52096 0.0
C2217 C 0.07634 0.42492 0.44378 0.0
H2218 H 0.11186 0.41689 0.42995 0.0
C2219 C 0.09498 0.41425 0.32963 0.0
C2220 C 0.11167 0.42417 0.3241 0.0
C2221 C 0.08888 0.41299 0.35754 0.0
C2222 C 0.1018 0.41897 0.43349 0.0
H2223 H 0.08239 0.46088 0.52902 0.0
H2224 H 0.08052 0.44939 0.48152 0.0
H2225 H 0.10542 0.42061 0.47888 0.0
H2226 H 0.13495 0.44036 0.34385 0.0
H2227 H 0.1244 0.43803 0.39196 0.0
H2228 H 0.07342 0.42417 0.39798 0.0
C2229 C 0.08187 0.44321 0.49994 0.0
C2230 C 0.09797 0.42092 0.4616 0.0
C2231 C 0.08308 0.4499 0.52716 0.0
C2232 C 0.12205 0.43253 0.34717 0.0
C2233 C 0.11602 0.43116 0.37489 0.0
C2234 C 0.08016 0.42292 0.41557 0.0
C2235 C 0.08366 0.42953 0.49638 0.0
C2236 C 0.08555 0.42446 0.46705 0.0
C2237 C 0.09939 0.42139 0.38045 0.0
C2238 C 0.09332 0.42051 0.41014 0.0
H2239 H 0.08957 0.42343 0.56635 0.0
H2240 H 0.087 0.41149 0.51899 0.0
H2241 H 0.06656 0.42742 0.44729 0.0
H2242 H 0.08665 0.40719 0.31274 0.0
H2243 H 0.076 0.40527 0.36131 0.0
C2244 C 0.56349 0.65892 0.54513 0.0
C2245 C 0.55451 0.64251 0.55292 0.0
C2246 C 0.56926 0.66334 0.51704 0.0
C2247 C 0.5586 0.64661 0.44399 0.0
H2248 H 0.59741 0.68653 0.4229 0.0
C2249 C 0.57035 0.66786 0.32652 0.0
C2250 C 0.57435 0.68407 0.32255 0.0
C2251 C 0.57133 0.66225 0.35381 0.0
C2252 C 0.58653 0.67533 0.42846 0.0
H2253 H 0.54508 0.61787 0.53802 0.0
H2254 H 0.55549 0.62553 0.48918 0.0
H2255 H 0.59313 0.67756 0.47295 0.0
H2256 H 0.58307 0.70722 0.34379 0.0
H2257 H 0.58464 0.69743 0.39134 0.0
H2258 H 0.55171 0.64459 0.39984 0.0
C2259 C 0.55789 0.63502 0.50454 0.0
C2260 C 0.58407 0.6702 0.45713 0.0
C2261 C 0.55202 0.63062 0.53253 0.0
C2262 C 0.57996 0.69468 0.34617 0.0
C2263 C 0.58098 0.68909 0.3734 0.0
C2264 C 0.56107 0.65171 0.41539 0.0
C2265 C 0.56613 0.65141 0.49617 0.0
C2266 C 0.5699 0.65595 0.46535 0.0
C2267 C 0.57627 0.6727 0.37771 0.0
C2268 C 0.57489 0.6663 0.40736 0.0
H2269 H 0.56509 0.66832 0.56006 0.0
H2270 H 0.5753 0.67606 0.51128 0.0
H2271 H 0.54739 0.63573 0.44952 0.0
H2272 H 0.56558 0.65925 0.30903 0.0
H2273 H 0.5677 0.64957 0.35639 0.0
C2274 C 0.32977 0.90533 0.3251 0.0
C2275 C 0.31341 0.89342 0.32163 0.0
C2276 C 0.3359 0.91161 0.35235 0.0
C2277 C 0.32443 0.9121 0.42907 0.0
H2278 H 0.36279 0.90899 0.44445 0.0
C2279 C 0.35163 0.91642 0.54385 0.0
C2280 C 0.35405 0.90328 0.54986 0.0
C2281 C 0.34798 0.91904 0.51582 0.0
C2282 C 0.35217 0.91007 0.44046 0.0
H2283 H 0.29046 0.8794 0.34368 0.0
H2284 H 0.30114 0.89012 0.39116 0.0
H2285 H 0.35373 0.9076 0.39519 0.0
H2286 H 0.35462 0.88274 0.5308 0.0
H2287 H 0.34859 0.88747 0.48246 0.0
H2288 H 0.3225 0.91365 0.47479 0.0
C2289 C 0.30924 0.89486 0.37289 0.0
C2290 C 0.34705 0.90945 0.41218 0.0
C2291 C 0.30313 0.8886 0.34568 0.0
C2292 C 0.35294 0.89303 0.52713 0.0
C2293 C 0.34952 0.89575 0.4993 0.0
C2294 C 0.32963 0.9128 0.45746 0.0
C2295 C 0.32582 0.90601 0.37671 0.0
C2296 C 0.33281 0.9099 0.40617 0.0
C2297 C 0.34704 0.90878 0.49327 0.0
C2298 C 0.34321 0.91118 0.46343 0.0
H2299 H 0.33813 0.90905 0.30724 0.0
H2300 H 0.34871 0.92028 0.35454 0.0
H2301 H 0.31352 0.91266 0.42511 0.0
H2302 H 0.3529 0.92492 0.5604 0.0
H2303 H 0.34622 0.92925 0.51166 0.0
C2304 C 0.22588 0.15227 0.0262 0.0
C2305 C 0.22105 0.1583 0.00297 0.0
C2306 C 0.22436 0.13689 0.02471 0.0
C2307 C 0.2015 0.09772 0.98757 0.0
H2308 H 0.23585 0.09049 0.01492 0.0
C2309 C 0.21956 0.044 0.99165 0.0
C2310 C 0.2052 0.03143 0.00335 0.0
C2311 C 0.22158 0.05952 0.98861 0.0
C2312 C 0.22623 0.09237 0.00691 0.0
H2313 H 0.21089 0.15289 0.95988 0.0
H2314 H 0.20827 0.1262 0.9574 0.0
H2315 H 0.23951 0.11778 0.01641 0.0
H2316 H 0.18137 0.02467 0.01961 0.0
H2317 H 0.18479 0.05175 0.0142 0.0
H2318 H 0.1882 0.07231 0.97816 0.0
C2319 C 0.21311 0.13328 0.97683 0.0
C2320 C 0.22825 0.10794 0.0081 0.0
C2321 C 0.2147 0.14864 0.97824 0.0
C2322 C 0.19256 0.03429 0.01059 0.0
C2323 C 0.19451 0.04973 0.00739 0.0
C2324 C 0.19945 0.08214 0.98654 0.0
C2325 C 0.21788 0.12722 4e-05 0.0
C2326 C 0.21588 0.11076 0.99855 0.0
C2327 C 0.20918 0.0626 0.99697 0.0
C2328 C 0.21175 0.07929 0.99634 0.0
H2329 H 0.23081 0.15939 0.04556 0.0
H2330 H 0.22799 0.13245 0.04305 0.0
H2331 H 0.19171 0.09949 0.98026 0.0
H2332 H 0.22943 0.04197 0.98594 0.0
H2333 H 0.23293 0.06916 0.98018 0.0
C2334 C 0.95633 0.1659 0.99665 0.0
C2335 C 0.96045 0.17742 0.01857 0.0
C2336 C 0.94054 0.15273 0.99469 0.0
C2337 C 0.90536 0.12783 0.04002 0.0
H2338 H 0.88234 0.112 0.96793 0.0
C2339 C 0.83971 0.07421 0.03555 0.0
C2340 C 0.83581 0.06304 0.013 0.0
C2341 C 0.85453 0.08873 0.03572 0.0
C2342 C 0.88868 0.11616 0.9882 0.0
H2343 H 0.95133 0.18479 0.05474 0.0
H2344 H 0.92378 0.16172 0.05154 0.0
H2345 H 0.90893 0.13657 0.96843 0.0
H2346 H 0.84453 0.05829 0.97312 0.0
H2347 H 0.87048 0.08335 0.97383 0.0
H2348 H 0.88541 0.1073 0.05979 0.0
C2349 C 0.93274 0.16272 0.03608 0.0
C2350 C 0.90388 0.13025 0.98846 0.0
C2351 C 0.94846 0.17591 0.03789 0.0
C2352 C 0.8471 0.06667 0.99074 0.0
C2353 C 0.86195 0.08111 0.99103 0.0
C2354 C 0.89024 0.11369 0.03974 0.0
C2355 C 0.92869 0.15086 0.01476 0.0
C2356 C 0.91237 0.1362 0.01437 0.0
C2357 C 0.86584 0.09234 0.01347 0.0
C2358 C 0.88174 0.10764 0.01383 0.0
H2359 H 0.96544 0.16676 0.98169 0.0
H2360 H 0.93778 0.1437 0.97818 0.0
H2361 H 0.91176 0.13199 0.06025 0.0
H2362 H 0.83125 0.07183 0.05294 0.0
H2363 H 0.85705 0.0972 0.05315 0.0
C2364 C 0.83133 0.79525 0.98072 0.0
C2365 C 0.81966 0.78623 0.00163 0.0
C2366 C 0.84468 0.79309 0.97668 0.0
C2367 C 0.86075 0.76561 0.99518 0.0
H2368 H 0.90254 0.80461 0.98578 0.0
C2369 C 0.92148 0.76861 0.02031 0.0
C2370 C 0.93393 0.7763 -9e-05 0.0
C2371 C 0.90719 0.76924 0.01777 0.0
C2372 C 0.89093 0.7936 0.98808 0.0
H2373 H 0.81242 0.76766 0.03421 0.0
H2374 H 0.83586 0.76417 0.02791 0.0
H2375 H 0.87791 0.80645 0.98529 0.0
H2376 H 0.94119 0.79082 0.96099 0.0
H2377 H 0.9163 0.79209 0.95689 0.0
H2378 H 0.87394 0.75291 0.99906 0.0
C2379 C 0.83466 0.77266 0.01409 0.0
C2380 C 0.8768 0.79462 0.98766 0.0
C2381 C 0.82129 0.77474 0.01792 0.0
C2382 C 0.93182 0.78474 0.97705 0.0
C2383 C 0.91761 0.78553 0.97472 0.0
C2384 C 0.8749 0.76463 0.99592 0.0
C2385 C 0.84665 0.78196 0.9937 0.0
C2386 C 0.86154 0.78066 0.99156 0.0
C2387 C 0.90515 0.77773 0.99499 0.0
C2388 C 0.89012 0.77865 0.9927 0.0
H2389 H 0.83039 0.80433 0.96817 0.0
H2390 H 0.85358 0.80031 0.96055 0.0
H2391 H 0.8492 0.75457 0.99768 0.0
H2392 H 0.92271 0.762 0.03815 0.0
H2393 H 0.89782 0.76327 0.03387 0.0
C2394 C 0.15142 0.22102 0.55737 0.0
C2395 C 0.16212 0.22813 0.53413 0.0
C2396 C 0.13667 0.22083 0.55813 0.0
C2397 C 0.10747 0.22414 0.51046 0.0
H2398 H 0.08974 0.22942 0.58205 0.0
C2399 C 0.04953 0.22824 0.51269 0.0
C2400 C 0.03763 0.21792 0.53226 0.0
C2401 C 0.06529 0.23092 0.51461 0.0
C2402 C 0.09454 0.22785 0.56196 0.0
H2403 H 0.16588 0.24096 0.49379 0.0
H2404 H 0.14032 0.24094 0.49543 0.0
H2405 H 0.11639 0.23151 0.58181 0.0
H2406 H 0.03283 0.20279 0.56982 0.0
H2407 H 0.06058 0.2076 0.57346 0.0
H2408 H 0.08568 0.22055 0.49061 0.0
C2409 C 0.14316 0.23519 0.51277 0.0
C2410 C 0.10976 0.229 0.56179 0.0
C2411 C 0.15785 0.23527 0.51189 0.0
C2412 C 0.04188 0.21089 0.55463 0.0
C2413 C 0.05772 0.21364 0.55668 0.0
C2414 C 0.09235 0.22312 0.51061 0.0
C2415 C 0.13233 0.22784 0.53578 0.0
C2416 C 0.11637 0.2271 0.53603 0.0
C2417 C 0.06946 0.22338 0.53625 0.0
C2418 C 0.08571 0.22493 0.53634 0.0
H2419 H 0.1543 0.21536 0.57481 0.0
H2420 H 0.12852 0.21486 0.57595 0.0
H2421 H 0.11202 0.22227 0.49035 0.0
H2422 H 0.04655 0.23397 0.49549 0.0
H2423 H 0.07417 0.23871 0.49888 0.0
C2424 C 0.79101 0.83315 0.54885 0.0
C2425 C 0.78243 0.82121 0.52805 0.0
C2426 C 0.78897 0.84668 0.551 0.0
C2427 C 0.77837 0.87148 0.50637 0.0
H2428 H 0.77369 0.88915 0.57842 0.0
C2429 C 0.76772 0.92604 0.51028 0.0
C2430 C 0.77534 0.93739 0.53243 0.0
C2431 C 0.76797 0.91148 0.51021 0.0
C2432 C 0.7752 0.88449 0.55813 0.0
H2433 H 0.76455 0.81353 0.49408 0.0
H2434 H 0.76107 0.83721 0.49762 0.0
H2435 H 0.775 0.86418 0.57847 0.0
H2436 H 0.78955 0.94255 0.5715 0.0
H2437 H 0.79039 0.91747 0.57089 0.0
H2438 H 0.77902 0.8919 0.48598 0.0
C2439 C 0.76944 0.83622 0.5121 0.0
C2440 C 0.77588 0.87017 0.5582 0.0
C2441 C 0.77138 0.82268 0.51014 0.0
C2442 C 0.78343 0.934 0.55423 0.0
C2443 C 0.78381 0.91954 0.55401 0.0
C2444 C 0.77785 0.88587 0.5063 0.0
C2445 C 0.77844 0.8485 0.53217 0.0
C2446 C 0.77745 0.86353 0.53231 0.0
C2447 C 0.77598 0.90804 0.53213 0.0
C2448 C 0.77628 0.89257 0.53218 0.0
H2449 H 0.79976 0.83235 0.56261 0.0
H2450 H 0.79613 0.85603 0.56653 0.0
H2451 H 0.77984 0.86675 0.48612 0.0
H2452 H 0.76131 0.92826 0.49326 0.0
H2453 H 0.76163 0.90281 0.49322 0.0
C2454 C 0.17425 0.95149 0.51261 0.0
C2455 C 0.17562 0.96411 0.53011 0.0
C2456 C 0.16058 0.93609 0.5143 0.0
C2457 C 0.12597 0.90878 0.55913 0.0
H2458 H 0.10528 0.89026 0.48615 0.0
C2459 C 0.06275 0.85155 0.55276 0.0
C2460 C 0.05995 0.84027 0.53086 0.0
C2461 C 0.07695 0.86662 0.5531 0.0
C2462 C 0.11101 0.8951 0.50669 0.0
H2463 H 0.16417 0.97057 0.56373 0.0
H2464 H 0.14025 0.94336 0.56722 0.0
H2465 H 0.13032 0.91631 0.48711 0.0
H2466 H 0.0699 0.83598 0.49213 0.0
H2467 H 0.0949 0.8621 0.49309 0.0
H2468 H 0.10685 0.88747 0.57874 0.0
C2469 C 0.14978 0.94543 0.55219 0.0
C2470 C 0.12533 0.91006 0.50723 0.0
C2471 C 0.16344 0.96093 0.5503 0.0
C2472 C 0.07164 0.84444 0.5092 0.0
C2473 C 0.08595 0.85946 0.5097 0.0
C2474 C 0.11172 0.89371 0.55859 0.0
C2475 C 0.14807 0.93298 0.53369 0.0
C2476 C 0.13295 0.91704 0.53343 0.0
C2477 C 0.0888 0.87073 0.5317 0.0
C2478 C 0.10404 0.8867 0.53235 0.0
H2479 H 0.18359 0.95366 0.49706 0.0
H2480 H 0.15968 0.92664 0.50012 0.0
H2481 H 0.13169 0.91385 0.5796 0.0
H2482 H 0.05392 0.84878 0.56966 0.0
H2483 H 0.07857 0.8751 0.57003 0.0
C2484 C 0.78378 0.85114 0.05478 0.0
C2485 C 0.7754 0.84014 0.03244 0.0
C2486 C 0.78444 0.86611 0.05602 0.0
C2487 C 0.77881 0.89503 0.0111 0.0
H2488 H 0.77653 0.91291 0.08474 0.0
C2489 C 0.7719 0.95124 0.01841 0.0
C2490 C 0.78301 0.96371 0.0363 0.0
C2491 C 0.77007 0.93579 0.01994 0.0
C2492 C 0.77727 0.90808 0.06408 0.0
H2493 H 0.76105 0.83624 0.99397 0.0
H2494 H 0.76187 0.86219 0.99648 0.0
H2495 H 0.77516 0.8866 0.08286 0.0
H2496 H 0.80053 0.96986 0.0705 0.0
H2497 H 0.79714 0.94258 0.07362 0.0
H2498 H 0.78069 0.9164 0.99233 0.0
C2499 C 0.76824 0.8594 0.01274 0.0
C2500 C 0.77655 0.89306 0.06296 0.0
C2501 C 0.7677 0.84447 0.01135 0.0
C2502 C 0.79173 0.96033 0.05677 0.0
C2503 C 0.78982 0.94478 0.05845 0.0
C2504 C 0.77937 0.90994 0.01222 0.0
C2505 C 0.77663 0.87041 0.03509 0.0
C2506 C 0.77731 0.88635 0.03643 0.0
C2507 C 0.77929 0.9325 0.03948 0.0
C2508 C 0.77858 0.91661 0.03869 0.0
H2509 H 0.78993 0.84823 0.0713 0.0
H2510 H 0.79125 0.87439 0.07324 0.0
H2511 H 0.77978 0.89043 0.99037 0.0
H2512 H 0.76498 0.95359 0.00258 0.0
H2513 H 0.76167 0.92649 0.00539 0.0
C2514 C 0.04245 0.8221 0.04924 0.0
C2515 C 0.03013 0.82385 0.03628 0.0
C2516 C 0.05794 0.83558 0.05265 0.0
C2517 C 0.09106 0.86356 0.03466 0.0
H2518 H 0.09802 0.90549 0.05924 0.0
C2519 C 0.1506 0.92375 0.01343 0.0
C2520 C 0.15665 0.93499 0.03613 0.0
C2521 C 0.13534 0.9098 0.01552 0.0
C2522 C 0.09629 0.89384 0.05254 0.0
H2523 H 0.02376 0.84083 0.01814 0.0
H2524 H 0.05078 0.86448 0.02428 0.0
H2525 H 0.07082 0.88183 0.06132 0.0
H2526 H 0.1514 0.94029 0.07892 0.0
H2527 H 0.12485 0.91604 0.08241 0.0
H2528 H 0.11652 0.87561 0.02563 0.0
C2529 C 0.04859 0.85278 0.03175 0.0
C2530 C 0.08071 0.88033 0.05356 0.0
C2531 C 0.03318 0.83929 0.02814 0.0
C2532 C 0.14713 0.93193 0.06097 0.0
C2533 C 0.13187 0.91806 0.06296 0.0
C2534 C 0.10663 0.8771 0.03344 0.0
C2535 C 0.06122 0.85101 0.04346 0.0
C2536 C 0.07792 0.86508 0.04444 0.0
C2537 C 0.12578 0.90688 0.04025 0.0
C2538 C 0.10938 0.8924 0.04219 0.0
H2539 H 0.04027 0.81023 0.05564 0.0
H2540 H 0.06742 0.83392 0.06202 0.0
H2541 H 0.08923 0.85199 0.0272 0.0
H2542 H 0.15762 0.92573 0.99401 0.0
H2543 H 0.13087 0.90145 0.99756 0.0
C2544 C 0.15842 0.19339 0.02613 0.0
C2545 C 0.17363 0.20667 0.03288 0.0
C2546 C 0.14442 0.19449 0.02912 0.0
C2547 C 0.11586 0.19782 0.04912 0.0
H2548 H 0.11812 0.23686 0.01882 0.0
C2549 C 0.06301 0.2107 0.05889 0.0
C2550 C 0.05939 0.21721 0.03475 0.0
C2551 C 0.07688 0.20926 0.05945 0.0
C2552 C 0.11729 0.22585 0.02719 0.0
H2553 H 0.18632 0.2312 0.04926 0.0
H2554 H 0.16174 0.23321 0.05474 0.0
H2555 H 0.14256 0.23461 0.02027 0.0
H2556 H 0.0675 0.22717 0.99209 0.0
H2557 H 0.09178 0.22459 0.99306 0.0
H2558 H 0.09054 0.18893 0.05554 0.0
C2559 C 0.16064 0.222 0.04679 0.0
C2560 C 0.13131 0.22465 0.02839 0.0
C2561 C 0.17464 0.22084 0.04394 0.0
C2562 C 0.06993 0.22211 0.01102 0.0
C2563 C 0.08388 0.22074 0.01165 0.0
C2564 C 0.10186 0.19905 0.04804 0.0
C2565 C 0.14542 0.20894 0.03886 0.0
C2566 C 0.13073 0.21058 0.03923 0.0
C2567 C 0.08752 0.21434 0.03592 0.0
C2568 C 0.1024 0.21304 0.03694 0.0
H2569 H 0.15744 0.18234 0.01761 0.0
H2570 H 0.13291 0.18427 0.02264 0.0
H2571 H 0.11505 0.18686 0.05772 0.0
H2572 H 0.05518 0.20679 0.07758 0.0
H2573 H 0.07943 0.20445 0.07858 0.0
C2574 C 0.94874 0.77485 0.52764 0.0
C2575 C 0.96143 0.78548 0.50961 0.0
C2576 C 0.93339 0.77319 0.52507 0.0
C2577 C 0.91341 0.79527 0.49815 0.0
H2578 H 0.87415 0.75444 0.51315 0.0
C2579 C 0.84914 0.78626 0.48427 0.0
C2580 C 0.83802 0.77805 0.50653 0.0
C2581 C 0.86416 0.78703 0.48377 0.0
C2582 C 0.88504 0.76594 0.50913 0.0
H2583 H 0.96808 0.80238 0.47425 0.0
H2584 H 0.94103 0.79908 0.46892 0.0
H2585 H 0.90021 0.75537 0.51181 0.0
H2586 H 0.83401 0.76429 0.54583 0.0
H2587 H 0.86029 0.76557 0.5448 0.0
H2588 H 0.89813 0.80577 0.49521 0.0
C2589 C 0.94299 0.79226 0.48548 0.0
C2590 C 0.89997 0.76649 0.50836 0.0
C2591 C 0.95841 0.794 0.48823 0.0
C2592 C 0.84231 0.77072 0.5284 0.0
C2593 C 0.85729 0.77135 0.52772 0.0
C2594 C 0.89846 0.79468 0.49866 0.0
C2595 C 0.93037 0.78205 0.50423 0.0
C2596 C 0.91436 0.7812 0.50314 0.0
C2597 C 0.86833 0.77948 0.50535 0.0
C2598 C 0.88415 0.78004 0.5044 0.0
H2599 H 0.95081 0.76811 0.54424 0.0
H2600 H 0.92406 0.76537 0.54011 0.0
H2601 H 0.92425 0.80687 0.4946 0.0
H2602 H 0.84624 0.79207 0.4671 0.0
H2603 H 0.8724 0.79328 0.46618 0.0
C2604 C 0.22065 0.17658 0.49203 0.0
C2605 C 0.20618 0.1752 0.50229 0.0
C2606 C 0.22226 0.16281 0.48975 0.0
C2607 C 0.22551 0.13405 0.50962 0.0
H2608 H 0.19092 0.09282 0.48154 0.0
C2609 C 0.22377 0.07318 0.52978 0.0
C2610 C 0.2193 0.06251 0.50628 0.0
C2611 C 0.22237 0.08711 0.52822 0.0
C2612 C 0.20073 0.10427 0.4893 0.0
H2613 H 0.18179 0.1586 0.51673 0.0
H2614 H 0.18449 0.13446 0.51265 0.0
H2615 H 0.18817 0.1169 0.47823 0.0
H2616 H 0.2098 0.05814 0.46272 0.0
H2617 H 0.20741 0.08233 0.4601 0.0
H2618 H 0.23808 0.1214 0.52064 0.0
C2619 C 0.1946 0.14608 0.50637 0.0
C2620 C 0.19911 0.11802 0.48757 0.0
C2621 C 0.19305 0.15985 0.50878 0.0
C2622 C 0.21334 0.06605 0.48128 0.0
C2623 C 0.21188 0.07989 0.47979 0.0
C2624 C 0.2271 0.12026 0.51148 0.0
C2625 C 0.20935 0.14746 0.49747 0.0
C2626 C 0.21145 0.13305 0.49779 0.0
C2627 C 0.21637 0.09057 0.5032 0.0
C2628 C 0.21471 0.10522 0.5014 0.0
H2629 H 0.2309 0.18837 0.48694 0.0
H2630 H 0.23369 0.1642 0.48246 0.0
H2631 H 0.23514 0.14543 0.51801 0.0
H2632 H 0.2284 0.07081 0.54934 0.0
H2633 H 0.22578 0.09505 0.54671 0.0
C2634 C 0.93499 0.1484 0.49252 0.0
C2635 C 0.93812 0.15968 0.51459 0.0
C2636 C 0.92069 0.13342 0.49239 0.0
C2637 C 0.88693 0.10498 0.53919 0.0
H2638 H 0.86528 0.08717 0.46654 0.0
C2639 C 0.82334 0.04899 0.53401 0.0
C2640 C 0.82147 0.03664 0.51523 0.0
C2641 C 0.83712 0.06432 0.5326 0.0
C2642 C 0.87126 0.09196 0.48693 0.0
H2643 H 0.92868 0.16402 0.55394 0.0
H2644 H 0.90353 0.138 0.5534 0.0
H2645 H 0.89037 0.11331 0.4674 0.0
H2646 H 0.83214 0.0306 0.4797 0.0
H2647 H 0.8563 0.05766 0.4768 0.0
H2648 H 0.86768 0.08371 0.55871 0.0
C2649 C 0.91229 0.14062 0.53645 0.0
C2650 C 0.88566 0.1069 0.48746 0.0
C2651 C 0.92668 0.15557 0.53671 0.0
C2652 C 0.83327 0.04003 0.49416 0.0
C2653 C 0.84706 0.05545 0.49259 0.0
C2654 C 0.87248 0.09013 0.53867 0.0
C2655 C 0.90908 0.12939 0.51419 0.0
C2656 C 0.89369 0.11358 0.51361 0.0
C2657 C 0.84927 0.06762 0.51225 0.0
C2658 C 0.86451 0.08347 0.51255 0.0
H2659 H 0.9436 0.15112 0.47525 0.0
H2660 H 0.91879 0.12496 0.47524 0.0
H2661 H 0.89292 0.10959 0.55963 0.0
H2662 H 0.81428 0.04665 0.55027 0.0
H2663 H 0.83839 0.07354 0.54769 0.0
C2664 C 0.89397 0.48604 0.36226 0.0
C2665 C 0.88896 0.49209 0.3393 0.0
C2666 C 0.8926 0.47074 0.3604 0.0
C2667 C 0.86986 0.43172 0.32283 0.0
H2668 H 0.90429 0.42457 0.34994 0.0
C2669 C 0.88797 0.37804 0.32715 0.0
C2670 C 0.87362 0.36551 0.33898 0.0
C2671 C 0.88998 0.39354 0.32393 0.0
C2672 C 0.89465 0.42642 0.34198 0.0
H2673 H 0.87871 0.48682 0.29627 0.0
H2674 H 0.87639 0.46026 0.29314 0.0
H2675 H 0.9079 0.45183 0.35153 0.0
H2676 H 0.8498 0.3588 0.35521 0.0
H2677 H 0.85321 0.38586 0.34953 0.0
H2678 H 0.85658 0.40632 0.31338 0.0
C2679 C 0.88123 0.46727 0.31264 0.0
C2680 C 0.89664 0.44198 0.34323 0.0
C2681 C 0.88264 0.48254 0.31444 0.0
C2682 C 0.86098 0.36839 0.34614 0.0
C2683 C 0.86293 0.38382 0.34277 0.0
C2684 C 0.86784 0.41616 0.32173 0.0
C2685 C 0.88614 0.46117 0.33561 0.0
C2686 C 0.88422 0.44476 0.33382 0.0
C2687 C 0.87758 0.39665 0.33222 0.0
C2688 C 0.88016 0.41333 0.33147 0.0
H2689 H 0.89888 0.49307 0.38171 0.0
H2690 H 0.89634 0.46627 0.37856 0.0
H2691 H 0.86002 0.43347 0.31562 0.0
H2692 H 0.89783 0.37599 0.32148 0.0
H2693 H 0.90132 0.40316 0.31541 0.0
C2694 C 0.51545 0.39875 0.31571 0.0
C2695 C 0.50563 0.39531 0.34024 0.0
C2696 C 0.5308 0.41252 0.31466 0.0
C2697 C 0.55588 0.45287 0.3464 0.0
H2698 H 0.59169 0.44859 0.31704 0.0
C2699 C 0.6295 0.49105 0.34944 0.0
C2700 C 0.63236 0.50649 0.34177 0.0
C2701 C 0.61407 0.47753 0.34637 0.0
C2702 C 0.58181 0.44997 0.32527 0.0
H2703 H 0.50426 0.40377 0.38289 0.0
H2704 H 0.53122 0.42791 0.38102 0.0
H2705 H 0.56455 0.42486 0.31888 0.0
H2706 H 0.62181 0.52008 0.32387 0.0
H2707 H 0.59462 0.49633 0.31836 0.0
H2708 H 0.57323 0.47794 0.35328 0.0
C2709 C 0.5269 0.41992 0.36255 0.0
C2710 C 0.56626 0.43642 0.32615 0.0
C2711 C 0.51152 0.40605 0.36368 0.0
C2712 C 0.61978 0.50821 0.32988 0.0
C2713 C 0.60427 0.49469 0.32699 0.0
C2714 C 0.57143 0.46646 0.34535 0.0
C2715 C 0.53671 0.42323 0.33806 0.0
C2716 C 0.55316 0.43771 0.33689 0.0
C2717 C 0.60121 0.47926 0.33567 0.0
C2718 C 0.58456 0.46511 0.33498 0.0
H2719 H 0.51131 0.39078 0.2972 0.0
H2720 H 0.53801 0.41486 0.29537 0.0
H2721 H 0.54597 0.45425 0.35452 0.0
H2722 H 0.63912 0.48953 0.35862 0.0
H2723 H 0.61206 0.46583 0.35343 0.0
C2724 C 0.58922 0.09944 0.36293 0.0
C2725 C 0.60098 0.1072 0.34144 0.0
C2726 C 0.57467 0.09968 0.36202 0.0
C2727 C 0.54861 0.1076 0.31279 0.0
H2728 H 0.53031 0.1123 0.38407 0.0
C2729 C 0.49831 0.12501 0.32071 0.0
C2730 C 0.48618 0.1166 0.34128 0.0
C2731 C 0.51151 0.12244 0.31867 0.0
C2732 C 0.53519 0.11081 0.36401 0.0
H2733 H 0.60679 0.1215 0.30239 0.0
H2734 H 0.58172 0.12235 0.30132 0.0
H2735 H 0.55515 0.11097 0.38521 0.0
H2736 H 0.47776 0.09845 0.37484 0.0
H2737 H 0.50085 0.09401 0.37146 0.0
H2738 H 0.52877 0.10795 0.29165 0.0
C2739 C 0.58348 0.11568 0.31844 0.0
C2740 C 0.54941 0.10999 0.36465 0.0
C2741 C 0.59793 0.1153 0.31918 0.0
C2742 C 0.48706 0.10513 0.35894 0.0
C2743 C 0.50027 0.10265 0.35708 0.0
C2744 C 0.53446 0.10859 0.31214 0.0
C2745 C 0.57164 0.10784 0.33979 0.0
C2746 C 0.55631 0.10839 0.33906 0.0
C2747 C 0.51279 0.11154 0.33738 0.0
C2748 C 0.52761 0.11017 0.33777 0.0
H2749 H 0.59114 0.093 0.38026 0.0
H2750 H 0.56573 0.09331 0.3786 0.0
H2751 H 0.55344 0.10611 0.29269 0.0
H2752 H 0.49795 0.13408 0.30717 0.0
H2753 H 0.52107 0.12952 0.30343 0.0
C2754 C 0.71217 0.55816 0.88148 0.0
C2755 C 0.69947 0.54396 0.86954 0.0
C2756 C 0.72759 0.55991 0.88438 0.0
C2757 C 0.7603 0.564 0.86627 0.0
H2758 H 0.76634 0.52869 0.89237 0.0
C2759 C 0.81933 0.56197 0.84686 0.0
C2760 C 0.82507 0.55671 0.86993 0.0
C2761 C 0.80418 0.56095 0.84845 0.0
C2762 C 0.76487 0.53871 0.88522 0.0
H2763 H 0.6924 0.52018 0.85259 0.0
H2764 H 0.71928 0.52312 0.85776 0.0
H2765 H 0.73942 0.52582 0.89425 0.0
H2766 H 0.81939 0.54635 0.91285 0.0
H2767 H 0.79307 0.5446 0.91549 0.0
H2768 H 0.78577 0.57685 0.85713 0.0
C2769 C 0.71745 0.53293 0.86486 0.0
C2770 C 0.74945 0.53702 0.88611 0.0
C2771 C 0.70212 0.53125 0.86178 0.0
C2772 C 0.81536 0.55048 0.89461 0.0
C2773 C 0.80022 0.54939 0.89612 0.0
C2774 C 0.77573 0.56565 0.8652 0.0
C2775 C 0.73043 0.5474 0.87567 0.0
C2776 C 0.74698 0.5496 0.87649 0.0
C2777 C 0.79443 0.55456 0.87305 0.0
C2778 C 0.77815 0.55299 0.87455 0.0
H2779 H 0.71031 0.56809 0.8876 0.0
H2780 H 0.73734 0.57112 0.89308 0.0
H2781 H 0.75873 0.57384 0.85842 0.0
H2782 H 0.8265 0.56683 0.82754 0.0
H2783 H 0.79995 0.56489 0.83021 0.0
C2784 C 0.44864 0.266 0.89316 0.0
C2785 C 0.4426 0.26946 0.86819 0.0
C2786 C 0.4497 0.25194 0.895 0.0
C2787 C 0.43353 0.21114 0.86442 0.0
H2788 H 0.47291 0.21441 0.89527 0.0
C2789 C 0.46749 0.17158 0.86276 0.0
C2790 C 0.45456 0.15621 0.86981 0.0
C2791 C 0.46596 0.18532 0.86602 0.0
C2792 C 0.46184 0.21331 0.88665 0.0
H2793 H 0.43283 0.26075 0.82561 0.0
H2794 H 0.43476 0.23614 0.82885 0.0
H2795 H 0.47026 0.23857 0.89259 0.0
H2796 H 0.43023 0.14298 0.88697 0.0
H2797 H 0.42746 0.16711 0.89282 0.0
H2798 H 0.42527 0.18592 0.85791 0.0
C2799 C 0.43855 0.24432 0.84705 0.0
C2800 C 0.46027 0.22711 0.88528 0.0
C2801 C 0.43755 0.25846 0.84514 0.0
C2802 C 0.44033 0.15478 0.88143 0.0
C2803 C 0.43872 0.16853 0.88451 0.0
C2804 C 0.43506 0.1973 0.86595 0.0
C2805 C 0.44471 0.24097 0.87198 0.0
C2806 C 0.44616 0.2262 0.87393 0.0
C2807 C 0.45142 0.18389 0.87631 0.0
C2808 C 0.4493 0.19828 0.87683 0.0
H2809 H 0.4526 0.27416 0.9114 0.0
H2810 H 0.45431 0.2496 0.91461 0.0
H2811 H 0.42245 0.21004 0.85585 0.0
H2812 H 0.47858 0.17288 0.8538 0.0
H2813 H 0.4759 0.19696 0.85932 0.0
C2814 C 0.73759 0.18054 0.84705 0.0
C2815 C 0.7265 0.17424 0.86993 0.0
C2816 C 0.75148 0.19585 0.84927 0.0
C2817 C 0.76791 0.23451 0.88834 0.0
H2818 H 0.80941 0.2415 0.86117 0.0
C2819 C 0.84004 0.28754 0.88495 0.0
C2820 C 0.83843 0.3003 0.8736 0.0
C2821 C 0.82639 0.27214 0.88809 0.0
C2822 C 0.79794 0.23969 0.86917 0.0
H2823 H 0.72135 0.17914 0.91309 0.0
H2824 H 0.7455 0.20571 0.91686 0.0
H2825 H 0.78558 0.21442 0.85852 0.0
H2826 H 0.82156 0.30754 0.85826 0.0
H2827 H 0.79764 0.28067 0.86381 0.0
H2828 H 0.78025 0.25978 0.89892 0.0
C2829 C 0.74341 0.19889 0.89715 0.0
C2830 C 0.78427 0.22424 0.8673 0.0
C2831 C 0.7296 0.1836 0.895 0.0
C2832 C 0.82298 0.29777 0.867 0.0
C2833 C 0.80934 0.28244 0.87028 0.0
C2834 C 0.78156 0.24997 0.89008 0.0
C2835 C 0.7545 0.20519 0.87434 0.0
C2836 C 0.76909 0.22151 0.87671 0.0
C2837 C 0.81095 0.26936 0.88017 0.0
C2838 C 0.7967 0.25275 0.88034 0.0
H2839 H 0.73557 0.17366 0.82744 0.0
H2840 H 0.75974 0.20048 0.83121 0.0
H2841 H 0.75635 0.23281 0.89558 0.0
H2842 H 0.85191 0.28932 0.89015 0.0
H2843 H 0.82795 0.26233 0.89612 0.0
C2844 C 0.43642 0.17766 0.34403 0.0
C2845 C 0.44421 0.17362 0.36542 0.0
C2846 C 0.43705 0.19263 0.34461 0.0
C2847 C 0.44567 0.22695 0.39332 0.0
H2848 H 0.44912 0.24928 0.32175 0.0
C2849 C 0.46048 0.29396 0.3846 0.0
C2850 C 0.45139 0.29698 0.36438 0.0
C2851 C 0.45876 0.27851 0.38665 0.0
C2852 C 0.448 0.2431 0.3419 0.0
H2853 H 0.45905 0.18229 0.40385 0.0
H2854 H 0.46054 0.20854 0.40436 0.0
H2855 H 0.44833 0.22334 0.32084 0.0
H2856 H 0.43292 0.28633 0.33145 0.0
H2857 H 0.42999 0.25939 0.33483 0.0
H2858 H 0.44573 0.24705 0.4143 0.0
C2859 C 0.45357 0.19999 0.38757 0.0
C2860 C 0.44751 0.22822 0.34139 0.0
C2861 C 0.45282 0.18497 0.38715 0.0
C2862 C 0.44014 0.28426 0.34704 0.0
C2863 C 0.43852 0.26891 0.34891 0.0
C2864 C 0.44633 0.24195 0.39383 0.0
C2865 C 0.44561 0.20398 0.36642 0.0
C2866 C 0.44626 0.21991 0.36707 0.0
C2867 C 0.44805 0.26597 0.3683 0.0
C2868 C 0.44741 0.25011 0.3681 0.0
H2869 H 0.42959 0.16914 0.3271 0.0
H2870 H 0.43057 0.19519 0.32821 0.0
H2871 H 0.44446 0.22078 0.4135 0.0
H2872 H 0.46937 0.30367 0.39792 0.0
H2873 H 0.46632 0.27657 0.40167 0.0
C2874 C 0.71081 0.15535 0.38005 0.0
C2875 C 0.69808 0.15699 0.36864 0.0
C2876 C 0.72623 0.16897 0.38315 0.0
C2877 C 0.75885 0.19754 0.3652 0.0
H2878 H 0.76538 0.23887 0.39251 0.0
C2879 C 0.81819 0.2582 0.34614 0.0
C2880 C 0.82415 0.26906 0.3694 0.0
C2881 C 0.8029 0.24423 0.34766 0.0
C2882 C 0.76377 0.22739 0.38502 0.0
H2883 H 0.69094 0.17389 0.35304 0.0
H2884 H 0.71787 0.19777 0.35845 0.0
H2885 H 0.73837 0.21495 0.39445 0.0
H2886 H 0.81872 0.2737 0.41254 0.0
H2887 H 0.79218 0.24941 0.41508 0.0
H2888 H 0.78426 0.21 0.35572 0.0
C2889 C 0.71605 0.18605 0.36498 0.0
C2890 C 0.74829 0.21373 0.38594 0.0
C2891 C 0.70069 0.17243 0.36174 0.0
C2892 C 0.81451 0.26564 0.39417 0.0
C2893 C 0.79925 0.25175 0.39562 0.0
C2894 C 0.77432 0.21122 0.36413 0.0
C2895 C 0.72906 0.18442 0.37514 0.0
C2896 C 0.74565 0.19869 0.37589 0.0
C2897 C 0.79326 0.24091 0.37239 0.0
C2898 C 0.77692 0.2263 0.3739 0.0
H2899 H 0.70897 0.14349 0.38554 0.0
H2900 H 0.73599 0.16739 0.39139 0.0
H2901 H 0.75714 0.18614 0.35699 0.0
H2902 H 0.82529 0.26047 0.32674 0.0
H2903 H 0.79852 0.23617 0.3293 0.0
C2904 C 0.73147 0.54552 0.39641 0.0
C2905 C 0.729 0.554 0.37411 0.0
C2906 C 0.74565 0.54458 0.39746 0.0
C2907 C 0.77954 0.54955 0.35129 0.0
H2908 H 0.8002 0.55094 0.42393 0.0
C2909 C 0.84269 0.55676 0.35566 0.0
C2910 C 0.844 0.54502 0.37177 0.0
C2911 C 0.8291 0.55854 0.35843 0.0
C2912 C 0.79448 0.55046 0.40355 0.0
H2913 H 0.73961 0.56847 0.3358 0.0
H2914 H 0.76447 0.56725 0.33808 0.0
H2915 H 0.77544 0.55272 0.42346 0.0
H2916 H 0.83259 0.52634 0.40414 0.0
H2917 H 0.80876 0.52968 0.40953 0.0
H2918 H 0.79874 0.54761 0.33139 0.0
C2919 C 0.7553 0.56091 0.35434 0.0
C2920 C 0.78029 0.55141 0.40323 0.0
C2921 C 0.74107 0.5617 0.35311 0.0
C2922 C 0.8319 0.53561 0.3918 0.0
C2923 C 0.8183 0.53749 0.39478 0.0
C2924 C 0.79378 0.5488 0.3516 0.0
C2925 C 0.75772 0.55224 0.37639 0.0
C2926 C 0.77269 0.55103 0.37705 0.0
C2927 C 0.8166 0.54867 0.3775 0.0
C2928 C 0.80143 0.54933 0.37769 0.0
H2929 H 0.72237 0.5394 0.41286 0.0
H2930 H 0.74699 0.5376 0.41451 0.0
H2931 H 0.77383 0.5488 0.33079 0.0
H2932 H 0.85197 0.56421 0.34021 0.0
H2933 H 0.82818 0.56739 0.34516 0.0
C2934 C 0.51532 0.11887 0.81628 0.0
C2935 C 0.50442 0.11009 0.83851 0.0
C2936 C 0.53039 0.1198 0.81461 0.0
C2937 C 0.55186 0.09858 0.83568 0.0
H2938 H 0.59079 0.1403 0.82523 0.0
C2939 C 0.61562 0.10804 0.85493 0.0
C2940 C 0.62864 0.11964 0.83859 0.0
C2941 C 0.60018 0.10606 0.85181 0.0
C2942 C 0.58003 0.1285 0.82756 0.0
H2943 H 0.50084 0.09542 0.87644 0.0
H2944 H 0.52719 0.09695 0.87329 0.0
H2945 H 0.56443 0.13868 0.82649 0.0
H2946 H 0.63579 0.13798 0.80563 0.0
H2947 H 0.60858 0.13414 0.7992 0.0
H2948 H 0.56734 0.08832 0.83649 0.0
C2949 C 0.52398 0.10307 0.85718 0.0
C2950 C 0.56495 0.12761 0.82846 0.0
C2951 C 0.50896 0.1023 0.85908 0.0
C2952 C 0.62586 0.12883 0.81822 0.0
C2953 C 0.61034 0.12677 0.81488 0.0
C2954 C 0.56692 0.09944 0.83446 0.0
C2955 C 0.53482 0.11182 0.83491 0.0
C2956 C 0.55075 0.11267 0.83291 0.0
C2957 C 0.59738 0.11558 0.83207 0.0
C2958 C 0.58123 0.11444 0.8308 0.0
H2959 H 0.51221 0.12505 0.80011 0.0
H2960 H 0.53849 0.12656 0.79714 0.0
H2961 H 0.54105 0.08687 0.83866 0.0
H2962 H 0.61751 0.10081 0.87078 0.0
H2963 H 0.59059 0.09751 0.86571 0.0
C2964 C 0.88149 0.39958 0.81325 0.0
C2965 C 0.88763 0.39626 0.83824 0.0
C2966 C 0.88025 0.41354 0.81134 0.0
C2967 C 0.86904 0.43788 0.82146 0.0
H2968 H 0.90347 0.47931 0.84915 0.0
C2969 C 0.86027 0.49235 0.84561 0.0
C2970 C 0.87295 0.50788 0.83869 0.0
C2971 C 0.86218 0.47885 0.84202 0.0
C2972 C 0.89383 0.46786 0.84102 0.0
H2973 H 0.89747 0.40516 0.88071 0.0
H2974 H 0.89525 0.42958 0.87735 0.0
H2975 H 0.907 0.45561 0.85045 0.0
H2976 H 0.89721 0.52164 0.82139 0.0
H2977 H 0.90064 0.49795 0.81495 0.0
H2978 H 0.85584 0.4501 0.81218 0.0
C2979 C 0.89151 0.42138 0.85918 0.0
C2980 C 0.89578 0.45427 0.84209 0.0
C2981 C 0.89269 0.40735 0.86116 0.0
C2982 C 0.88731 0.50971 0.82689 0.0
C2983 C 0.88929 0.49621 0.82345 0.0
C2984 C 0.86706 0.45145 0.82054 0.0
C2985 C 0.88517 0.42456 0.83431 0.0
C2986 C 0.88336 0.43911 0.8325 0.0
C2987 C 0.87685 0.48068 0.83149 0.0
C2988 C 0.87939 0.46655 0.83051 0.0
H2989 H 0.87752 0.39135 0.79511 0.0
H2990 H 0.87551 0.41576 0.79177 0.0
H2991 H 0.8592 0.42633 0.81411 0.0
H2992 H 0.84907 0.49073 0.85464 0.0
H2993 H 0.85242 0.46707 0.8486 0.0
C2994 C 0.60065 0.48165 0.82073 0.0
C2995 C 0.60295 0.49264 0.84287 0.0
C2996 C 0.58659 0.46647 0.81963 0.0
C2997 C 0.55205 0.43727 0.86451 0.0
H2998 H 0.53255 0.41875 0.79076 0.0
C2999 C 0.48913 0.38086 0.85632 0.0
C3000 C 0.48815 0.36817 0.8395 0.0
C3001 C 0.5027 0.39632 0.85472 0.0
C3002 C 0.53794 0.42376 0.81145 0.0
H3003 H 0.59223 0.49634 0.88118 0.0
H3004 H 0.56751 0.47006 0.87885 0.0
H3005 H 0.55722 0.44527 0.79262 0.0
H3006 H 0.50017 0.36167 0.80705 0.0
H3007 H 0.52395 0.38901 0.80366 0.0
H3008 H 0.53257 0.41589 0.8833 0.0
C3009 C 0.57673 0.47298 0.86267 0.0
C3010 C 0.5521 0.43891 0.81257 0.0
C3011 C 0.59089 0.4881 0.86395 0.0
C3012 C 0.50059 0.37136 0.81992 0.0
C3013 C 0.51418 0.38693 0.8181 0.0
C3014 C 0.53782 0.42225 0.86338 0.0
C3015 C 0.5744 0.46197 0.84048 0.0
C3016 C 0.55933 0.44586 0.83914 0.0
C3017 C 0.51553 0.39942 0.83609 0.0
C3018 C 0.53062 0.41537 0.83688 0.0
H3019 H 0.60976 0.48472 0.80425 0.0
H3020 H 0.58537 0.4582 0.80255 0.0
H3021 H 0.55744 0.44203 0.8853 0.0
H3022 H 0.47959 0.37866 0.87145 0.0
H3023 H 0.50334 0.40579 0.8685 0.0
C3024 C 0.56006 0.81887 0.69458 0.0
C3025 C 0.55589 0.82544 0.67128 0.0
C3026 C 0.55876 0.8036 0.69229 0.0
C3027 C 0.53729 0.7655 0.65151 0.0
H3028 H 0.57018 0.75721 0.68286 0.0
C3029 C 0.55438 0.71111 0.6584 0.0
C3030 C 0.53949 0.69848 0.66828 0.0
C3031 C 0.5567 0.72673 0.65522 0.0
C3032 C 0.56099 0.75939 0.67369 0.0
H3033 H 0.54729 0.8212 0.62713 0.0
H3034 H 0.5451 0.79474 0.62323 0.0
H3035 H 0.57402 0.78455 0.68515 0.0
H3036 H 0.51508 0.69173 0.68103 0.0
H3037 H 0.51902 0.71899 0.67538 0.0
H3038 H 0.52422 0.74035 0.64013 0.0
C3039 C 0.5492 0.80127 0.64335 0.0
C3040 C 0.56309 0.77499 0.67534 0.0
C3041 C 0.55054 0.8165 0.64559 0.0
C3042 C 0.52667 0.70139 0.67341 0.0
C3043 C 0.52893 0.71695 0.67008 0.0
C3044 C 0.53515 0.7499 0.64998 0.0
C3045 C 0.5532 0.79461 0.66669 0.0
C3046 C 0.55121 0.77818 0.66443 0.0
C3047 C 0.54409 0.72987 0.66162 0.0
C3048 C 0.54691 0.74666 0.66124 0.0
H3049 H 0.56422 0.82543 0.71466 0.0
H3050 H 0.56178 0.7987 0.71074 0.0
H3051 H 0.52785 0.76755 0.64312 0.0
H3052 H 0.5644 0.70903 0.65435 0.0
H3053 H 0.56844 0.73642 0.6483 0.0
C3054 C 0.29058 0.83087 0.65683 0.0
C3055 C 0.29446 0.84327 0.67692 0.0
C3056 C 0.27466 0.81794 0.65468 0.0
C3057 C 0.23874 0.7953 0.69909 0.0
H3058 H 0.21626 0.77725 0.62729 0.0
C3059 C 0.17293 0.74208 0.69692 0.0
C3060 C 0.16893 0.73019 0.67567 0.0
C3061 C 0.18781 0.75653 0.69608 0.0
C3062 C 0.22244 0.78202 0.64752 0.0
H3063 H 0.28489 0.8524 0.70956 0.0
H3064 H 0.25712 0.82972 0.70607 0.0
H3065 H 0.24314 0.80146 0.62671 0.0
H3066 H 0.1775 0.72409 0.637 0.0
H3067 H 0.20356 0.74899 0.63607 0.0
H3068 H 0.21843 0.77571 0.71998 0.0
C3069 C 0.26632 0.82992 0.69212 0.0
C3070 C 0.2378 0.79592 0.64714 0.0
C3071 C 0.28215 0.84287 0.69407 0.0
C3072 C 0.18014 0.73305 0.65362 0.0
C3073 C 0.19507 0.74741 0.65296 0.0
C3074 C 0.22349 0.78133 0.69947 0.0
C3075 C 0.26249 0.81717 0.67281 0.0
C3076 C 0.24607 0.80268 0.67294 0.0
C3077 C 0.1991 0.75934 0.67416 0.0
C3078 C 0.21515 0.77449 0.6737 0.0
H3079 H 0.29995 0.83085 0.64368 0.0
H3080 H 0.27204 0.80819 0.63976 0.0
H3081 H 0.24498 0.80012 0.71928 0.0
H3082 H 0.16451 0.74029 0.71408 0.0
H3083 H 0.19039 0.76556 0.71252 0.0
C3084 C 0.26464 0.45285 0.65186 0.0
C3085 C 0.26737 0.44439 0.67389 0.0
C3086 C 0.25044 0.45373 0.65133 0.0
C3087 C 0.21644 0.44837 0.69771 0.0
H3088 H 0.19565 0.44636 0.6249 0.0
C3089 C 0.15314 0.44121 0.69253 0.0
C3090 C 0.15163 0.45242 0.67516 0.0
C3091 C 0.16683 0.43954 0.69053 0.0
C3092 C 0.2014 0.44703 0.64534 0.0
H3093 H 0.25726 0.43013 0.71257 0.0
H3094 H 0.23231 0.4313 0.71127 0.0
H3095 H 0.22052 0.44486 0.62564 0.0
H3096 H 0.1628 0.47025 0.64136 0.0
H3097 H 0.18679 0.4671 0.63737 0.0
H3098 H 0.19716 0.45026 0.71738 0.0
C3099 C 0.2413 0.43758 0.69472 0.0
C3100 C 0.21567 0.44623 0.64581 0.0
C3101 C 0.25559 0.43684 0.69541 0.0
C3102 C 0.16366 0.46139 0.65472 0.0
C3103 C 0.17736 0.45963 0.65254 0.0
C3104 C 0.20212 0.44899 0.69724 0.0
C3105 C 0.23855 0.44604 0.67267 0.0
C3106 C 0.22337 0.44689 0.67203 0.0
C3107 C 0.17924 0.44897 0.67097 0.0
C3108 C 0.19444 0.44829 0.67108 0.0
H3109 H 0.27352 0.4589 0.63504 0.0
H3110 H 0.24888 0.46059 0.63434 0.0
H3111 H 0.22219 0.44927 0.71823 0.0
H3112 H 0.14392 0.43406 0.70827 0.0
H3113 H 0.16786 0.43105 0.70466 0.0
C3114 C 0.48514 0.89397 0.17864 0.0
C3115 C 0.49117 0.88938 0.20223 0.0
C3116 C 0.46995 0.89288 0.18013 0.0
C3117 C 0.43109 0.87155 0.21869 0.0
H3118 H 0.42447 0.90584 0.18893 0.0
C3119 C 0.37843 0.89102 0.21349 0.0
C3120 C 0.36553 0.87651 0.20291 0.0
C3121 C 0.39385 0.89278 0.21629 0.0
C3122 C 0.42618 0.89625 0.19762 0.0
H3123 H 0.48595 0.88015 0.24596 0.0
H3124 H 0.45962 0.87831 0.24843 0.0
H3125 H 0.45148 0.90883 0.18715 0.0
H3126 H 0.3581 0.85219 0.18845 0.0
H3127 H 0.38499 0.85514 0.19348 0.0
H3128 H 0.40582 0.85895 0.22912 0.0
C3129 C 0.46654 0.88261 0.22873 0.0
C3130 C 0.44159 0.89787 0.19626 0.0
C3131 C 0.4817 0.88375 0.22731 0.0
C3132 C 0.36797 0.86349 0.19659 0.0
C3133 C 0.38332 0.86519 0.19957 0.0
C3134 C 0.41569 0.86989 0.2199 0.0
C3135 C 0.46047 0.8871 0.20516 0.0
C3136 C 0.44418 0.88551 0.20669 0.0
C3137 C 0.3965 0.87997 0.20885 0.0
C3138 C 0.41305 0.88218 0.20925 0.0
H3139 H 0.49212 0.89836 0.15902 0.0
H3140 H 0.4655 0.8963 0.16152 0.0
H3141 H 0.43269 0.86176 0.2267 0.0
H3142 H 0.37673 0.90119 0.21846 0.0
H3143 H 0.40376 0.90423 0.22384 0.0
C3144 C 0.11776 0.60026 0.22694 0.0
C3145 C 0.11157 0.60378 0.20221 0.0
C3146 C 0.11914 0.58638 0.22824 0.0
C3147 C 0.10337 0.54588 0.19666 0.0
H3148 H 0.14259 0.5491 0.22823 0.0
C3149 C 0.13725 0.50614 0.19668 0.0
C3150 C 0.12418 0.4908 0.2034 0.0
C3151 C 0.13576 0.51993 0.19958 0.0
C3152 C 0.13157 0.54802 0.21937 0.0
H3153 H 0.10199 0.59538 0.15942 0.0
H3154 H 0.10447 0.57106 0.16171 0.0
H3155 H 0.13992 0.57325 0.22552 0.0
H3156 H 0.09965 0.47766 0.21968 0.0
H3157 H 0.09698 0.50187 0.22499 0.0
H3158 H 0.09517 0.5207 0.18998 0.0
C3159 C 0.10812 0.57906 0.18015 0.0
C3160 C 0.12999 0.56181 0.21799 0.0
C3161 C 0.10679 0.59304 0.17878 0.0
C3162 C 0.10985 0.48944 0.21439 0.0
C3163 C 0.10831 0.50323 0.21715 0.0
C3164 C 0.10492 0.53206 0.19818 0.0
C3165 C 0.11433 0.57562 0.2049 0.0
C3166 C 0.11592 0.56091 0.20647 0.0
C3167 C 0.12114 0.51857 0.20921 0.0
C3168 C 0.11908 0.53301 0.20938 0.0
H3169 H 0.12153 0.60823 0.24544 0.0
H3170 H 0.12378 0.58395 0.24772 0.0
H3171 H 0.09232 0.54479 0.18795 0.0
H3172 H 0.14841 0.50738 0.18821 0.0
H3173 H 0.14583 0.53155 0.19311 0.0
C3174 C 0.40375 0.51256 0.1776 0.0
C3175 C 0.39278 0.50683 0.20072 0.0
C3176 C 0.41775 0.52782 0.17897 0.0
C3177 C 0.43494 0.56727 0.21559 0.0
H3178 H 0.47607 0.57299 0.18898 0.0
C3179 C 0.50737 0.61924 0.2121 0.0
C3180 C 0.50611 0.63215 0.2005 0.0
C3181 C 0.49355 0.60394 0.21495 0.0
C3182 C 0.4647 0.57155 0.19678 0.0
H3183 H 0.38797 0.5127 0.24339 0.0
H3184 H 0.41233 0.5392 0.24567 0.0
H3185 H 0.45191 0.5461 0.18755 0.0
H3186 H 0.48966 0.63972 0.18426 0.0
H3187 H 0.46545 0.61301 0.18923 0.0
H3188 H 0.44772 0.59271 0.22483 0.0
C3189 C 0.41005 0.53196 0.22643 0.0
C3190 C 0.45084 0.5562 0.19561 0.0
C3191 C 0.39611 0.51672 0.22513 0.0
C3192 C 0.49083 0.62983 0.19312 0.0
C3193 C 0.47702 0.6146 0.19611 0.0
C3194 C 0.44878 0.58263 0.21663 0.0
C3195 C 0.42103 0.53768 0.2034 0.0
C3196 C 0.4358 0.55392 0.20488 0.0
C3197 C 0.47827 0.6014 0.20651 0.0
C3198 C 0.46378 0.58494 0.20709 0.0
H3199 H 0.40155 0.50526 0.15848 0.0
H3200 H 0.42592 0.53199 0.16074 0.0
H3201 H 0.4235 0.56592 0.2227 0.0
H3202 H 0.5191 0.62086 0.21795 0.0
H3203 H 0.49484 0.59404 0.22338 0.0
C3204 C 0.10748 0.62018 0.71519 0.0
C3205 C 0.12216 0.63318 0.70543 0.0
C3206 C 0.10561 0.60469 0.71756 0.0
C3207 C 0.1021 0.57253 0.6979 0.0
H3208 H 0.13611 0.56528 0.72696 0.0
C3209 C 0.10333 0.5131 0.67776 0.0
C3210 C 0.10768 0.5068 0.70126 0.0
C3211 C 0.10478 0.52845 0.67943 0.0
C3212 C 0.12645 0.56708 0.71894 0.0
H3213 H 0.14666 0.6407 0.69203 0.0
H3214 H 0.14351 0.61369 0.69622 0.0
H3215 H 0.13916 0.59222 0.73038 0.0
H3216 H 0.11693 0.51174 0.74501 0.0
H3217 H 0.11937 0.53832 0.74782 0.0
H3218 H 0.08938 0.54735 0.68653 0.0
C3219 C 0.13342 0.61533 0.70206 0.0
C3220 C 0.12825 0.58254 0.72072 0.0
C3221 C 0.13523 0.63076 0.69957 0.0
C3222 C 0.1135 0.51619 0.72641 0.0
C3223 C 0.11499 0.5315 0.72802 0.0
C3224 C 0.10033 0.55708 0.69601 0.0
C3225 C 0.11847 0.60206 0.71042 0.0
C3226 C 0.11613 0.58545 0.71012 0.0
C3227 C 0.11069 0.53782 0.70457 0.0
C3228 C 0.11251 0.5542 0.70644 0.0
H3229 H 0.09727 0.62187 0.71979 0.0
H3230 H 0.09403 0.59473 0.72444 0.0
H3231 H 0.09264 0.57445 0.68921 0.0
H3232 H 0.09881 0.50618 0.65808 0.0
H3233 H 0.10151 0.53308 0.6609 0.0
C3234 C 0.36908 0.49949 0.72068 0.0
C3235 C 0.36596 0.48778 0.69957 0.0
C3236 C 0.3847 0.5128 0.72396 0.0
C3237 C 0.42784 0.52866 0.70297 0.0
H3238 H 0.43101 0.57049 0.71459 0.0
C3239 C 0.48624 0.58973 0.68112 0.0
C3240 C 0.49075 0.60178 0.70225 0.0
C3241 C 0.47125 0.57542 0.68264 0.0
C3242 C 0.43032 0.55887 0.71162 0.0
H3243 H 0.37656 0.4804 0.66588 0.0
H3244 H 0.40367 0.50379 0.67086 0.0
H3245 H 0.40448 0.54598 0.71498 0.0
H3246 H 0.48298 0.60829 0.74145 0.0
H3247 H 0.45679 0.58342 0.74383 0.0
H3248 H 0.45371 0.54173 0.69871 0.0
C3249 C 0.39427 0.50265 0.68537 0.0
C3250 C 0.41512 0.5448 0.71199 0.0
C3251 C 0.37872 0.48933 0.6823 0.0
C3252 C 0.47991 0.59925 0.72482 0.0
C3253 C 0.46487 0.58504 0.72615 0.0
C3254 C 0.44302 0.54275 0.7023 0.0
C3255 C 0.39742 0.51469 0.70596 0.0
C3256 C 0.41368 0.52952 0.70747 0.0
C3257 C 0.46041 0.57298 0.70512 0.0
C3258 C 0.44438 0.55799 0.70646 0.0
H3259 H 0.35936 0.49862 0.73402 0.0
H3260 H 0.38674 0.52172 0.74031 0.0
H3261 H 0.42722 0.51709 0.6999 0.0
H3262 H 0.49432 0.59129 0.66348 0.0
H3263 H 0.46803 0.56636 0.666 0.0
C3264 C 0.49672 0.8669 0.72281 0.0
C3265 C 0.50908 0.87669 0.70346 0.0
C3266 C 0.48291 0.86846 0.72521 0.0
C3267 C 0.45857 0.87971 0.68132 0.0
H3268 H 0.43919 0.88268 0.75263 0.0
C3269 C 0.40534 0.89203 0.68197 0.0
C3270 C 0.39328 0.88438 0.703 0.0
C3271 C 0.41951 0.89112 0.6831 0.0
C3272 C 0.4443 0.88161 0.73253 0.0
H3273 H 0.51724 0.8962 0.67253 0.0
H3274 H 0.49308 0.89881 0.67645 0.0
H3275 H 0.46412 0.88126 0.75386 0.0
H3276 H 0.3865 0.86952 0.74144 0.0
H3277 H 0.41097 0.86748 0.74288 0.0
H3278 H 0.43872 0.87961 0.65987 0.0
C3279 C 0.49398 0.88992 0.68963 0.0
C3280 C 0.45861 0.88087 0.73329 0.0
C3281 C 0.50778 0.88847 0.68747 0.0
C3282 C 0.39561 0.87564 0.725 0.0
C3283 C 0.40971 0.87456 0.72594 0.0
C3284 C 0.4442 0.88023 0.68055 0.0
C3285 C 0.48125 0.87968 0.70801 0.0
C3286 C 0.46594 0.88009 0.70766 0.0
C3287 C 0.42187 0.88235 0.70507 0.0
C3288 C 0.43695 0.88135 0.70611 0.0
H3289 H 0.4974 0.85757 0.73503 0.0
H3290 H 0.47321 0.86038 0.73944 0.0
H3291 H 0.46384 0.87881 0.66126 0.0
H3292 H 0.40398 0.89898 0.66486 0.0
H3293 H 0.42873 0.89753 0.66695 0.0
C3294 C 0.28166 0.43854 0.19016 0.0
C3295 C 0.29426 0.45036 0.17338 0.0
C3296 C 0.26598 0.43602 0.1877 0.0
C3297 C 0.23826 0.4424 0.14218 0.0
H3298 H 0.21883 0.44352 0.21478 0.0
C3299 C 0.18066 0.44792 0.14855 0.0
C3300 C 0.16951 0.4396 0.17069 0.0
C3301 C 0.19557 0.44844 0.14773 0.0
C3302 C 0.22391 0.44289 0.19433 0.0
H3303 H 0.30044 0.46845 0.14021 0.0
H3304 H 0.27278 0.46384 0.13543 0.0
H3305 H 0.24519 0.44527 0.21441 0.0
H3306 H 0.1651 0.42496 0.20894 0.0
H3307 H 0.19089 0.42546 0.20707 0.0
H3308 H 0.2169 0.43983 0.12207 0.0
C3309 C 0.27506 0.45652 0.15045 0.0
C3310 C 0.23905 0.44395 0.19414 0.0
C3311 C 0.29083 0.45913 0.1531 0.0
C3312 C 0.17349 0.4316 0.19175 0.0
C3313 C 0.18832 0.43196 0.19074 0.0
C3314 C 0.223 0.44116 0.14237 0.0
C3315 C 0.2626 0.44522 0.16827 0.0
C3316 C 0.24638 0.44374 0.16809 0.0
C3317 C 0.19961 0.4405 0.16885 0.0
C3318 C 0.21566 0.44144 0.16847 0.0
H3319 H 0.28405 0.43156 0.20579 0.0
H3320 H 0.25654 0.42708 0.2014 0.0
H3321 H 0.24363 0.44211 0.12183 0.0
H3322 H 0.178 0.45429 0.13207 0.0
H3323 H 0.20405 0.45535 0.13083 0.0
C3324 C 0.54625 0.73172 0.15285 0.0
C3325 C 0.55446 0.72886 0.17515 0.0
C3326 C 0.54534 0.74591 0.15236 0.0
C3327 C 0.54988 0.77939 0.1992 0.0
H3328 H 0.55201 0.80042 0.12661 0.0
C3329 C 0.5554 0.84205 0.19436 0.0
C3330 C 0.54408 0.84326 0.17678 0.0
C3331 C 0.5575 0.82861 0.19242 0.0
C3332 C 0.55131 0.79461 0.14699 0.0
H3333 H 0.56831 0.73874 0.2143 0.0
H3334 H 0.56713 0.76371 0.21306 0.0
H3335 H 0.55417 0.77591 0.12719 0.0
H3336 H 0.52649 0.8318 0.1427 0.0
H3337 H 0.5304 0.80826 0.13882 0.0
H3338 H 0.54729 0.79825 0.21897 0.0
C3339 C 0.56104 0.75481 0.19627 0.0
C3340 C 0.55248 0.78054 0.14736 0.0
C3341 C 0.5618 0.74053 0.19693 0.0
C3342 C 0.53541 0.83118 0.15625 0.0
C3343 C 0.53762 0.81774 0.15411 0.0
C3344 C 0.54888 0.79352 0.19883 0.0
C3345 C 0.55277 0.75766 0.174 0.0
C3346 C 0.55175 0.77274 0.1735 0.0
C3347 C 0.5484 0.81617 0.17269 0.0
C3348 C 0.54959 0.80126 0.17274 0.0
H3349 H 0.54036 0.72293 0.13583 0.0
H3350 H 0.53862 0.74753 0.13518 0.0
H3351 H 0.54891 0.77355 0.21965 0.0
H3352 H 0.56234 0.85134 0.21015 0.0
H3353 H 0.56607 0.82782 0.20668 0.0
C3354 C 0.2659 0.81616 0.15343 0.0
C3355 C 0.26878 0.8274 0.17546 0.0
C3356 C 0.25167 0.80111 0.15309 0.0
C3357 C 0.21813 0.77249 0.20011 0.0
H3358 H 0.19708 0.75326 0.12768 0.0
C3359 C 0.15568 0.71498 0.19591 0.0
C3360 C 0.15447 0.70251 0.17815 0.0
C3361 C 0.16904 0.73057 0.1939 0.0
C3362 C 0.2029 0.75847 0.14802 0.0
H3363 H 0.25888 0.83167 0.21429 0.0
H3364 H 0.23386 0.80557 0.21332 0.0
H3365 H 0.2216 0.77992 0.12799 0.0
H3366 H 0.16585 0.69654 0.14371 0.0
H3367 H 0.18925 0.72405 0.13975 0.0
H3368 H 0.1993 0.75112 0.22011 0.0
C3369 C 0.24277 0.80824 0.19662 0.0
C3370 C 0.21696 0.7737 0.14824 0.0
C3371 C 0.25708 0.82325 0.19712 0.0
C3372 C 0.16647 0.70604 0.1574 0.0
C3373 C 0.17983 0.72172 0.15522 0.0
C3374 C 0.20401 0.75736 0.19989 0.0
C3375 C 0.23989 0.79696 0.17462 0.0
C3376 C 0.22478 0.78088 0.1743 0.0
C3377 C 0.18141 0.73403 0.17394 0.0
C3378 C 0.19626 0.75019 0.17386 0.0
H3379 H 0.27471 0.81892 0.1365 0.0
H3380 H 0.25002 0.79263 0.13612 0.0
H3381 H 0.22398 0.77747 0.22051 0.0
H3382 H 0.14646 0.71255 0.21188 0.0
H3383 H 0.16982 0.73989 0.20828 0.0
C3384 C 0.22655 0.21744 0.66055 0.0
C3385 C 0.21248 0.21373 0.64498 0.0
C3386 C 0.22591 0.21563 0.69037 0.0
C3387 C 0.2233 0.22265 0.7527 0.0
H3388 H 0.18696 0.18766 0.79285 0.0
C3389 C 0.2161 0.2253 0.87442 0.0
C3390 C 0.21198 0.21107 0.88978 0.0
C3391 C 0.2148 0.22493 0.84453 0.0
C3392 C 0.19724 0.19746 0.78194 0.0
H3393 H 0.18659 0.20455 0.64825 0.0
H3394 H 0.18555 0.20172 0.70022 0.0
H3395 H 0.18807 0.18723 0.74051 0.0
H3396 H 0.20258 0.18515 0.88606 0.0
H3397 H 0.20061 0.18456 0.83392 0.0
H3398 H 0.23271 0.23268 0.79402 0.0
C3399 C 0.19704 0.20582 0.68945 0.0
C3400 C 0.1978 0.19729 0.75197 0.0
C3401 C 0.19765 0.20754 0.65964 0.0
C3402 C 0.20586 0.19634 0.87482 0.0
C3403 C 0.20466 0.19598 0.84492 0.0
C3404 C 0.22277 0.2228 0.78262 0.0
C3405 C 0.21122 0.21017 0.7052 0.0
C3406 C 0.21083 0.2099 0.73703 0.0
C3407 C 0.20945 0.21034 0.82942 0.0
C3408 C 0.20971 0.21024 0.79758 0.0
H3409 H 0.23813 0.2221 0.64983 0.0
H3410 H 0.23699 0.21877 0.70186 0.0
H3411 H 0.23338 0.23269 0.74186 0.0
H3412 H 0.2207 0.23682 0.88538 0.0
H3413 H 0.21825 0.23614 0.83323 0.0
C3414 C 0.80057 0.00894 0.88183 0.0
C3415 C 0.78587 0.00016 0.89681 0.0
C3416 C 0.80101 0.00774 0.85199 0.0
C3417 C 0.77426 0.99781 0.78934 0.0
H3418 H 0.81026 -0.00099 0.74822 0.0
C3419 C 0.79071 0.98849 0.66666 0.0
C3420 C 0.78476 0.99731 0.65186 0.0
C3421 C 0.79201 0.9893 0.69656 0.0
C3422 C 0.80008 0.99858 0.75941 0.0
H3423 H 0.76028 0.98255 0.89248 0.0
H3424 H 0.7611 0.98025 0.84045 0.0
H3425 H 0.80968 0.99786 0.80064 0.0
H3426 H 0.77631 0.01454 0.65663 0.0
H3427 H 0.77885 0.01616 0.70878 0.0
H3428 H 0.76446 0.99816 0.74826 0.0
C3429 C 0.77221 0.98835 0.8517 0.0
C3430 C 0.79981 0.99806 0.78942 0.0
C3431 C 0.77176 0.98959 0.88153 0.0
C3432 C 0.7808 0.00748 0.66744 0.0
C3433 C 0.78215 0.00833 0.69732 0.0
C3434 C 0.77451 0.9983 0.75941 0.0
C3435 C 0.78676 0.9977 0.83655 0.0
C3436 C 0.78689 0.99768 0.8047 0.0
C3437 C 0.78744 -0.00101 0.71225 0.0
C3438 C 0.78744 0.99875 0.7441 0.0
H3439 H 0.81167 0.01718 0.893 0.0
H3440 H 0.81238 0.0152 0.84095 0.0
H3441 H 0.76425 0.99777 0.80046 0.0
H3442 H 0.79388 0.98055 0.65526 0.0
H3443 H 0.79601 0.98186 0.70743 0.0
C3444 C 0.00322 0.80055 0.66192 0.0
C3445 C 0.00123 0.78652 0.64816 0.0
C3446 C 0.0028 0.80122 0.69189 0.0
C3447 C 0.01209 0.7853 0.75492 0.0
H3448 H 0.98365 0.79614 0.79696 0.0
C3449 C 0.00104 0.77348 0.87579 0.0
C3450 C 0.9977 0.78374 0.89248 0.0
C3451 C 0.00279 0.7755 0.84609 0.0
C3452 C 0.99193 0.79343 0.78559 0.0
H3453 H 0.99686 0.7621 0.65481 0.0
H3454 H 0.99644 0.76343 0.70713 0.0
H3455 H 0.98347 0.79631 0.74448 0.0
H3456 H 0.99439 0.80467 0.89149 0.0
H3457 H 0.99804 0.80859 0.83964 0.0
H3458 H 0.02084 0.78269 0.79564 0.0
C3459 C -0.00174 0.77384 0.69471 0.0
C3460 C 0.99171 0.79342 0.75557 0.0
C3461 C -0.00161 0.77305 0.66481 0.0
C3462 C 0.99682 0.79649 0.87907 0.0
C3463 C -0.00121 0.79866 0.84936 0.0
C3464 C 0.01251 0.78556 0.78485 0.0
C3465 C 0.00069 0.78799 0.70846 0.0
C3466 C 0.00157 0.78905 0.74007 0.0
C3467 C 0.0015 0.78799 0.83244 0.0
C3468 C 0.0022 0.7893 0.8006 0.0
H3469 H 0.00537 0.81108 0.64957 0.0
H3470 H 0.00469 0.81225 0.70213 0.0
H3471 H 0.01999 0.78214 0.74331 0.0
H3472 H 0.00167 0.76347 0.88548 0.0
H3473 H 0.00458 0.76687 0.83378 0.0
C3474 C 0.77073 0.77436 0.37278 0.0
C3475 C 0.78438 0.78434 0.38958 0.0
C3476 C 0.77125 0.77613 0.34301 0.0
C3477 C 0.80038 0.79296 0.28253 0.0
H3478 H 0.76146 0.78287 0.23989 0.0
C3479 C 0.79609 0.80048 0.15865 0.0
C3480 C 0.78399 0.78645 0.14498 0.0
C3481 C 0.79736 0.80113 0.18861 0.0
C3482 C 0.77239 0.78569 0.2516 0.0
H3483 H 0.80908 0.80446 0.3886 0.0
H3484 H 0.80982 0.80801 0.33658 0.0
H3485 H 0.76108 0.78355 0.29219 0.0
H3486 H 0.76406 0.76198 0.1518 0.0
H3487 H 0.76612 0.76329 0.2041 0.0
H3488 H 0.81169 0.79546 0.24148 0.0
C3489 C 0.79885 0.79846 0.3463 0.0
C3490 C 0.77219 0.78601 0.28153 0.0
C3491 C 0.7984 0.79651 0.37612 0.0
C3492 C 0.77353 0.77294 0.16171 0.0
C3493 C 0.77462 0.7737 0.1916 0.0
C3494 C 0.80065 0.79292 0.25249 0.0
C3495 C 0.78536 0.78812 0.32932 0.0
C3496 C 0.78607 0.78931 0.29743 0.0
C3497 C 0.78637 0.78788 0.20527 0.0
C3498 C 0.78656 0.78897 0.23688 0.0
H3499 H 0.75978 0.76477 0.38251 0.0
H3500 H 0.76071 0.76772 0.3307 0.0
H3501 H 0.81124 0.79534 0.29399 0.0
H3502 H 0.80433 0.81105 0.14624 0.0
H3503 H 0.80652 0.81217 0.1988 0.0
C3504 C 0.21647 0.99159 0.37663 0.0
C3505 C 0.21254 0.00189 0.39184 0.0
C3506 C 0.21498 0.99042 0.34677 0.0
C3507 C 0.22209 -0.00045 0.28419 0.0
H3508 H 0.18717 0.00067 0.24337 0.0
C3509 C 0.22448 0.00806 0.16198 0.0
C3510 C 0.21015 0.99798 0.14682 0.0
C3511 C 0.22424 0.00924 0.19184 0.0
C3512 C 0.19695 0.00025 0.25446 0.0
H3513 H 0.20341 0.01862 0.38781 0.0
H3514 H 0.20112 0.01683 0.33576 0.0
H3515 H 0.18678 -0.00033 0.29572 0.0
H3516 H 0.18422 0.98171 0.15092 0.0
H3517 H 0.18384 0.98352 0.20301 0.0
H3518 H 0.23203 -0.00036 0.24303 0.0
C3519 C 0.20514 0.00947 0.34686 0.0
C3520 C 0.1968 -0.00017 0.28445 0.0
C3521 C 0.20654 0.01056 0.37671 0.0
C3522 C 0.19547 0.9896 0.16199 0.0
C3523 C 0.19524 0.99069 0.19186 0.0
C3524 C 0.22219 -0.00011 0.25425 0.0
C3525 C 0.20961 -0.0004 0.33151 0.0
C3526 C 0.20939 -0.00051 0.29965 0.0
C3527 C 0.20967 0.00027 0.20717 0.0
C3528 C 0.20966 0.00029 0.23903 0.0
H3529 H 0.221 0.98465 0.38771 0.0
H3530 H 0.21821 0.98245 0.3356 0.0
H3531 H 0.2321 -0.00046 0.29523 0.0
H3532 H 0.23597 0.01479 0.15087 0.0
H3533 H 0.23551 0.017 0.20297 0.0
C3534 C 0.00404 0.20432 0.16669 0.0
C3535 C 0.00325 0.21703 0.15287 0.0
C3536 C 0.00324 0.2031 0.19662 0.0
C3537 C 0.01327 0.22806 0.26014 0.0
H3538 H 0.98253 0.18908 0.30061 0.0
C3539 C 0.00199 0.22826 0.38111 0.0
C3540 C 0.99784 0.21426 0.39722 0.0
C3541 C 0.00363 0.22819 0.35136 0.0
C3542 C 0.99142 0.19997 0.28968 0.0
H3543 H 0.00067 0.23821 0.15934 0.0
H3544 H -0.00041 0.2362 0.21167 0.0
H3545 H 0.98293 0.18929 0.24815 0.0
H3546 H 0.99285 0.18943 0.39514 0.0
H3547 H 0.99629 0.18947 0.3432 0.0
H3548 H 0.02207 0.23873 0.30132 0.0
C3549 C 0.00077 0.2272 0.1993 0.0
C3550 C 0.99155 0.20008 0.25968 0.0
C3551 C 0.00128 0.22827 0.16941 0.0
C3552 C 0.99592 0.20036 0.38317 0.0
C3553 C 0.99778 0.20035 0.35341 0.0
C3554 C 0.01334 0.22789 0.29009 0.0
C3555 C 0.00193 0.21472 0.21312 0.0
C3556 C 0.00228 0.21422 0.24474 0.0
C3557 C 0.0014 0.2142 0.33709 0.0
C3558 C 0.00223 0.21393 0.30525 0.0
H3559 H 0.00549 0.19547 0.15441 0.0
H3560 H 0.00417 0.19339 0.20691 0.0
H3561 H 0.02184 0.23903 0.24898 0.0
H3562 H 0.00342 0.23912 0.39134 0.0
H3563 H 0.00613 0.23898 0.33951 0.0
C3564 C 0.89025 0.54948 -0.00089 0.0
C3565 C 0.87615 0.54535 0.98328 0.0
C3566 C 0.88962 0.54813 0.029 0.0
C3567 C 0.88698 0.55578 0.09093 0.0
H3568 H 0.85132 0.52069 0.13215 0.0
C3569 C 0.88119 0.55868 0.21314 0.0
C3570 C 0.87749 0.54453 0.22844 0.0
C3571 C 0.87945 0.55823 0.18331 0.0
C3572 C 0.86139 0.53054 0.12094 0.0
H3573 H 0.85021 0.5359 0.98626 0.0
H3574 H 0.84917 0.53378 0.03844 0.0
H3575 H 0.85199 0.51998 0.07976 0.0
H3576 H 0.86838 0.51866 0.22462 0.0
H3577 H 0.86563 0.51795 0.17259 0.0
H3578 H 0.89665 0.56613 0.13197 0.0
C3579 C 0.86068 0.53791 0.02777 0.0
C3580 C 0.86171 0.5302 0.09093 0.0
C3581 C 0.86129 0.53919 0.99785 0.0
C3582 C 0.87136 0.52979 0.21345 0.0
C3583 C 0.8697 0.52936 0.18361 0.0
C3584 C 0.88669 0.5561 0.12087 0.0
C3585 C 0.8749 0.5427 0.04372 0.0
C3586 C 0.87455 0.5428 0.0756 0.0
C3587 C 0.87406 0.54364 0.16814 0.0
C3588 C 0.87391 0.54349 0.13625 0.0
H3589 H 0.90186 0.55413 0.9885 0.0
H3590 H 0.90073 0.55157 0.04063 0.0
H3591 H 0.8969 0.56582 0.07979 0.0
H3592 H 0.8858 0.57019 0.2241 0.0
H3593 H 0.88259 0.56938 0.17207 0.0
C3594 C 0.43852 0.32478 0.20947 0.0
C3595 C 0.45269 0.33477 0.22509 0.0
C3596 C 0.43905 0.32387 0.17958 0.0
C3597 C 0.46697 0.33332 0.11783 0.0
H3598 H 0.43227 0.3343 0.07598 0.0
C3599 C 0.44865 0.34271 0.99513 0.0
C3600 C 0.45259 0.33239 0.98001 0.0
C3601 C 0.44995 0.34377 0.02503 0.0
C3602 C 0.44216 0.33422 0.08732 0.0
H3603 H 0.47865 0.35117 0.22178 0.0
H3604 H 0.47952 0.34981 0.16969 0.0
H3605 H 0.43177 0.33384 0.12818 0.0
H3606 H 0.46161 0.31557 0.98421 0.0
H3607 H 0.46359 0.31721 0.03631 0.0
H3608 H 0.47758 0.33416 0.07688 0.0
C3609 C 0.46802 0.34252 0.18048 0.0
C3610 C 0.44173 0.33367 0.11726 0.0
C3611 C 0.4675 0.34336 0.21036 0.0
C3612 C 0.45847 0.32365 0.99524 0.0
C3613 C 0.45969 0.32464 0.02513 0.0
C3614 C 0.46744 0.33393 0.08784 0.0
C3615 C 0.45376 0.33299 0.16472 0.0
C3616 C 0.4541 0.33318 0.13286 0.0
C3617 C 0.45514 0.33447 0.0404 0.0
C3618 C 0.45503 0.33438 0.07226 0.0
H3619 H 0.42694 0.31792 0.22023 0.0
H3620 H 0.4279 0.31617 0.16809 0.0
H3621 H 0.47664 0.33283 0.12921 0.0
H3622 H 0.44421 0.3497 0.98398 0.0
H3623 H 0.44667 0.35172 0.03614 0.0
C3624 C 0.65349 0.10571 0.99577 0.0
C3625 C 0.66369 0.12 0.98061 0.0
C3626 C 0.65223 0.10602 0.02562 0.0
C3627 C 0.6615 0.13346 0.08826 0.0
H3628 H 0.66266 0.0985 0.12888 0.0
C3629 C 0.6535 0.12474 0.2113 0.0
C3630 C 0.66244 0.11879 0.22563 0.0
C3631 C 0.65398 0.12599 0.18139 0.0
C3632 C 0.66252 0.10845 0.11788 0.0
H3633 H 0.68001 0.14595 0.98468 0.0
H3634 H 0.67805 0.14641 0.0367 0.0
H3635 H 0.66188 0.09825 0.07672 0.0
H3636 H 0.67962 0.11034 0.22003 0.0
H3637 H 0.68076 0.11287 0.16789 0.0
H3638 H 0.66267 0.1439 0.12954 0.0
C3639 C 0.67087 0.135 0.02559 0.0
C3640 C 0.66178 0.10816 0.08797 0.0
C3641 C 0.67205 0.13471 0.99574 0.0
C3642 C 0.67247 0.11483 0.20958 0.0
C3643 C 0.67302 0.11616 0.1797 0.0
C3644 C 0.66231 0.13378 0.11825 0.0
C3645 C 0.66121 0.1206 0.04092 0.0
C3646 C 0.66128 0.12066 0.07279 0.0
C3647 C 0.66349 0.12139 0.16522 0.0
C3648 C 0.66289 0.1213 0.13338 0.0
H3649 H 0.64678 0.09422 0.98468 0.0
H3650 H 0.64443 0.09477 0.03677 0.0
H3651 H 0.66101 0.14321 0.07721 0.0
H3652 H 0.64564 0.12789 0.22307 0.0
H3653 H 0.6464 0.12994 0.17091 0.0
C3654 C 0.43674 0.10817 0.70872 0.0
C3655 C 0.45034 0.11795 0.72577 0.0
C3656 C 0.43736 0.11025 0.67902 0.0
C3657 C 0.46672 0.12723 0.61909 0.0
H3658 H 0.42803 0.11754 0.57605 0.0
C3659 C 0.46292 0.1343 0.49497 0.0
C3660 C 0.45071 0.12028 0.48145 0.0
C3661 C 0.4641 0.13512 0.52494 0.0
C3662 C 0.43891 0.12027 0.58787 0.0
H3663 H 0.47505 0.13808 0.72534 0.0
H3664 H 0.47598 0.14213 0.67343 0.0
H3665 H 0.42752 0.11825 0.62834 0.0
H3666 H 0.43046 0.09601 0.48855 0.0
H3667 H 0.43236 0.09764 0.54084 0.0
H3668 H 0.4781 0.12955 0.57818 0.0
C3669 C 0.46497 0.13251 0.68291 0.0
C3670 C 0.43862 0.1206 0.61779 0.0
C3671 C 0.46441 0.13028 0.71267 0.0
C3672 C 0.44002 0.10696 0.49834 0.0
C3673 C 0.44102 0.10791 0.52823 0.0
C3674 C 0.46707 0.12717 0.58906 0.0
C3675 C 0.45153 0.12234 0.66567 0.0
C3676 C 0.45241 0.12372 0.63383 0.0
C3677 C 0.4529 0.12207 0.54173 0.0
C3678 C 0.45305 0.12334 0.57331 0.0
H3679 H 0.42575 0.09848 0.71816 0.0
H3680 H 0.42687 0.10197 0.66648 0.0
H3681 H 0.47751 0.12948 0.63068 0.0
H3682 H 0.47134 0.14472 0.48243 0.0
H3683 H 0.47335 0.14616 0.535 0.0
C3684 C 0.86937 0.34083 0.71306 0.0
C3685 C 0.87522 0.332 0.72809 0.0
C3686 C 0.86801 0.33985 0.68317 0.0
C3687 C 0.86039 0.33097 0.62016 0.0
H3688 H 0.89597 0.33073 0.58013 0.0
C3689 C 0.86108 0.32226 0.49732 0.0
C3690 C 0.87606 0.33065 0.48305 0.0
C3691 C 0.86029 0.32302 0.52719 0.0
C3692 C 0.88604 0.33099 0.59095 0.0
H3693 H 0.88327 0.31444 0.72377 0.0
H3694 H 0.88055 0.31244 0.67167 0.0
H3695 H 0.8952 0.32994 0.63227 0.0
H3696 H 0.90183 0.34715 0.4887 0.0
H3697 H 0.90041 0.34877 0.54075 0.0
H3698 H 0.85151 0.33251 0.5787 0.0
C3699 C 0.87743 0.32047 0.68291 0.0
C3700 C 0.88544 0.33025 0.62087 0.0
C3701 C 0.87889 0.32153 0.71278 0.0
C3702 C 0.89013 0.34042 0.4991 0.0
C3703 C 0.88933 0.34126 0.52894 0.0
C3704 C 0.86102 0.33178 0.59017 0.0
C3705 C 0.87238 0.32993 0.66771 0.0
C3706 C 0.87261 0.3302 0.63584 0.0
C3707 C 0.87446 0.33226 0.54338 0.0
C3708 C 0.87387 0.33182 0.57524 0.0
H3709 H 0.86643 0.34901 0.72424 0.0
H3710 H 0.8642 0.34739 0.67213 0.0
H3711 H 0.85028 0.33085 0.63105 0.0
H3712 H 0.85001 0.31462 0.48556 0.0
H3713 H 0.84867 0.31584 0.53764 0.0
C3714 C 0.6618 0.55723 0.49951 0.0
C3715 C 0.66569 0.5472 0.48332 0.0
C3716 C 0.65992 0.55534 0.52921 0.0
C3717 C 0.67151 0.53874 0.59066 0.0
H3718 H 0.6421 0.54872 0.63159 0.0
C3719 C 0.66037 0.53278 0.71438 0.0
C3720 C 0.6616 0.54667 0.7274 0.0
C3721 C 0.66078 0.53173 0.68447 0.0
C3722 C 0.65038 0.54593 0.62036 0.0
H3723 H 0.66986 0.52682 0.48519 0.0
H3724 H 0.66603 0.52315 0.53704 0.0
H3725 H 0.64142 0.54769 0.57926 0.0
H3726 H 0.66466 0.57051 0.71949 0.0
H3727 H 0.66511 0.56852 0.6673 0.0
H3728 H 0.68022 0.53676 0.63212 0.0
C3729 C 0.66492 0.53279 0.52692 0.0
C3730 C 0.65005 0.54539 0.59043 0.0
C3731 C 0.667 0.53482 0.49721 0.0
C3732 C 0.6637 0.55966 0.71008 0.0
C3733 C 0.66385 0.5585 0.68025 0.0
C3734 C 0.67165 0.53903 0.62067 0.0
C3735 C 0.66165 0.54324 0.54334 0.0
C3736 C 0.66085 0.54213 0.57518 0.0
C3737 C 0.66216 0.54444 0.66722 0.0
C3738 C 0.66131 0.54296 0.63567 0.0
H3739 H 0.66082 0.56695 0.48943 0.0
H3740 H 0.65769 0.56379 0.54115 0.0
H3741 H 0.68016 0.53641 0.57965 0.0
H3742 H 0.65879 0.52261 0.72726 0.0
H3743 H 0.65947 0.52079 0.6748 0.0
C3744 C 0.52835 0.87357 0.33114 0.0
C3745 C 0.54309 0.8795 0.31629 0.0
C3746 C 0.5279 0.87234 0.36104 0.0
C3747 C 0.52904 0.86436 0.42384 0.0
H3748 H 0.5642 0.9 0.46504 0.0
C3749 C 0.53841 0.86351 0.54623 0.0
C3750 C 0.54452 0.87819 0.56137 0.0
C3751 C 0.53693 0.8632 0.51638 0.0
C3752 C 0.55419 0.89005 0.45388 0.0
H3753 H 0.56877 0.888 0.32098 0.0
H3754 H 0.56793 0.88553 0.37315 0.0
H3755 H 0.56443 0.89981 0.41282 0.0
H3756 H 0.55301 0.90391 0.55727 0.0
H3757 H 0.55011 0.9033 0.50518 0.0
H3758 H 0.51861 0.85481 0.465 0.0
C3759 C 0.55678 0.88221 0.36173 0.0
C3760 C 0.55446 0.8898 0.42393 0.0
C3761 C 0.55725 0.88351 0.33183 0.0
C3762 C 0.5484 0.89243 0.5462 0.0
C3763 C 0.54684 0.8921 0.51634 0.0
C3764 C 0.52874 0.86463 0.45384 0.0
C3765 C 0.54216 0.87694 0.3767 0.0
C3766 C 0.54193 0.87694 0.40857 0.0
C3767 C 0.54144 0.87755 0.50105 0.0
C3768 C 0.54133 0.87747 0.46918 0.0
H3769 H 0.51722 0.87038 0.31978 0.0
H3770 H 0.51647 0.86836 0.37192 0.0
H3771 H 0.51925 0.85422 0.41263 0.0
H3772 H 0.5353 0.85231 0.5573 0.0
H3773 H 0.53285 0.85181 0.50526 0.0
C3774 C 0.10483 0.65657 0.5463 0.0
C3775 C 0.11888 0.6669 0.56195 0.0
C3776 C 0.10545 0.6556 0.51645 0.0
C3777 C 0.13347 0.66573 0.45466 0.0
H3778 H 0.09823 0.66579 0.41304 0.0
C3779 C 0.11448 0.6746 0.33217 0.0
C3780 C 0.11868 0.66451 0.31693 0.0
C3781 C 0.11582 0.67565 0.36206 0.0
C3782 C 0.10826 0.66597 0.42432 0.0
H3783 H 0.14473 0.68381 0.55875 0.0
H3784 H 0.14575 0.68233 0.50666 0.0
H3785 H 0.0978 0.6653 0.46523 0.0
H3786 H 0.12821 0.6481 0.32092 0.0
H3787 H 0.13027 0.64972 0.37303 0.0
H3788 H 0.14413 0.66684 0.41364 0.0
C3789 C 0.13429 0.67483 0.51743 0.0
C3790 C 0.10788 0.66541 0.45425 0.0
C3791 C 0.13368 0.67573 0.54729 0.0
C3792 C 0.12486 0.65599 0.33205 0.0
C3793 C 0.12612 0.65698 0.36194 0.0
C3794 C 0.13388 0.66635 0.42467 0.0
C3795 C 0.12011 0.66501 0.50163 0.0
C3796 C 0.12045 0.66523 0.46977 0.0
C3797 C 0.12132 0.66658 0.37731 0.0
C3798 C 0.12127 0.66647 0.40918 0.0
H3799 H 0.09327 0.6495 0.557 0.0
H3800 H 0.09438 0.64766 0.50493 0.0
H3801 H 0.14329 0.6655 0.466 0.0
H3802 H 0.10981 0.68142 0.32111 0.0
H3803 H 0.11234 0.68342 0.37326 0.0
C3804 C 0.32998 0.43927 0.33187 0.0
C3805 C 0.33259 0.45254 0.31485 0.0
C3806 C 0.32968 0.4402 0.36174 0.0
C3807 C 0.32215 0.45945 0.42192 0.0
H3808 H 0.35225 0.45043 0.46289 0.0
C3809 C 0.32702 0.4633 0.54565 0.0
C3810 C 0.32878 0.45114 0.55944 0.0
C3811 C 0.3288 0.46523 0.51585 0.0
C3812 C 0.34363 0.4528 0.45187 0.0
H3813 H 0.33616 0.4769 0.31559 0.0
H3814 H 0.33517 0.47831 0.36811 0.0
H3815 H 0.35155 0.44961 0.41057 0.0
H3816 H 0.33397 0.43164 0.553 0.0
H3817 H 0.33651 0.4346 0.50122 0.0
H3818 H 0.31365 0.46192 0.46307 0.0
C3819 C 0.33359 0.46732 0.35817 0.0
C3820 C 0.34331 0.45239 0.42192 0.0
C3821 C 0.33418 0.46651 0.32823 0.0
C3822 C 0.33268 0.44121 0.54302 0.0
C3823 C 0.33422 0.44298 0.51326 0.0
C3824 C 0.32226 0.45958 0.45196 0.0
C3825 C 0.33171 0.4543 0.37512 0.0
C3826 C 0.33245 0.45553 0.40674 0.0
C3827 C 0.33217 0.45492 0.49922 0.0
C3828 C 0.33288 0.45605 0.46732 0.0
H3829 H 0.32876 0.42836 0.32219 0.0
H3830 H 0.32806 0.42996 0.37445 0.0
H3831 H 0.31365 0.46186 0.41057 0.0
H3832 H 0.32413 0.47121 0.55783 0.0
H3833 H 0.32743 0.47475 0.50586 0.0
C3834 C 0.1221 0.46838 0.82988 0.0
C3835 C 0.11609 0.45367 0.81486 0.0
C3836 C 0.12356 0.46876 0.85973 0.0
C3837 C 0.1065 0.442 0.92242 0.0
H3838 H 0.14133 0.47808 0.96338 0.0
C3839 C 0.13269 0.45857 0.04479 0.0
C3840 C 0.11797 0.45233 0.0598 0.0
C3841 C 0.13304 0.45996 0.01492 0.0
C3842 C 0.13157 0.46788 0.95225 0.0
H3843 H 0.10772 0.42799 0.81914 0.0
H3844 H 0.1106 0.42872 0.87125 0.0
H3845 H 0.14188 0.47741 0.91103 0.0
H3846 H 0.09221 0.44352 0.05548 0.0
H3847 H 0.09286 0.44628 0.00338 0.0
H3848 H 0.09641 0.43222 0.96353 0.0
C3849 C 0.1138 0.43988 0.86 0.0
C3850 C 0.13181 0.46756 0.92226 0.0
C3851 C 0.11225 0.43948 0.83014 0.0
C3852 C 0.10372 0.44823 0.0445 0.0
C3853 C 0.10408 0.4497 0.01463 0.0
C3854 C 0.1063 0.44228 0.95235 0.0
C3855 C 0.11913 0.45446 0.87517 0.0
C3856 C 0.11927 0.45462 0.90702 0.0
C3857 C 0.11868 0.45522 -0.00053 0.0
C3858 C 0.1188 0.45524 0.96762 0.0
H3859 H 0.12517 0.47953 0.81872 0.0
H3860 H 0.12757 0.48016 0.87076 0.0
H3861 H 0.09652 0.43198 0.91134 0.0
H3862 H 0.1439 0.46185 0.05596 0.0
H3863 H 0.14446 0.46413 0.00389 0.0
C3864 C 0.52773 0.65752 0.8287 0.0
C3865 C 0.54235 0.66625 0.81345 0.0
C3866 C 0.52748 0.65875 0.85856 0.0
C3867 C 0.529 0.66811 0.92139 0.0
H3868 H 0.56496 0.66852 0.96125 0.0
C3869 C 0.53859 0.67694 0.04425 0.0
C3870 C 0.54509 0.66845 0.05846 0.0
C3871 C 0.53709 0.67627 0.01437 0.0
C3872 C 0.55473 0.66822 0.95048 0.0
H3873 H 0.56795 0.68389 0.81731 0.0
H3874 H 0.56744 0.68632 0.86936 0.0
H3875 H 0.56479 0.66908 0.9091 0.0
H3876 H 0.55427 0.65188 0.05269 0.0
H3877 H 0.55132 0.65042 0.00062 0.0
H3878 H 0.51872 0.66675 0.96292 0.0
C3879 C 0.55626 0.67819 0.85832 0.0
C3880 C 0.55477 0.66883 0.92056 0.0
C3881 C 0.55653 0.67688 0.82848 0.0
C3882 C 0.54937 0.65869 0.04234 0.0
C3883 C 0.54778 0.65794 0.01249 0.0
C3884 C 0.52893 0.66744 0.95139 0.0
C3885 C 0.54182 0.66882 0.87377 0.0
C3886 C 0.54192 0.66878 0.90565 0.0
C3887 C 0.54198 0.66702 0.99811 0.0
C3888 C 0.54178 0.66744 0.96625 0.0
H3889 H 0.51658 0.64923 0.81773 0.0
H3890 H 0.51618 0.65128 0.8698 0.0
H3891 H 0.51896 0.66816 0.91054 0.0
H3892 H 0.53518 0.68458 0.05608 0.0
H3893 H 0.53269 0.6835 0.00396 0.0
C3894 C 0.33315 0.86768 0.82889 0.0
C3895 C 0.33243 0.88048 0.81528 0.0
C3896 C 0.33122 0.86567 0.85863 0.0
C3897 C 0.31789 0.87935 0.92286 0.0
H3898 H 0.34651 0.86816 0.96355 0.0
C3899 C 0.33257 0.89262 0.04248 0.0
C3900 C 0.32938 0.87918 0.05955 0.0
C3901 C 0.33261 0.89155 0.01262 0.0
C3902 C 0.33838 0.87116 0.95237 0.0
H3903 H 0.32885 0.90101 0.82194 0.0
H3904 H 0.32604 0.89789 0.87371 0.0
H3905 H 0.34629 0.86811 0.91107 0.0
H3906 H 0.3245 0.85435 0.05892 0.0
H3907 H 0.32502 0.85268 0.00639 0.0
H3908 H 0.31058 0.88311 0.96432 0.0
C3909 C 0.32764 0.8891 0.86153 0.0
C3910 C 0.33814 0.87104 0.92236 0.0
C3911 C 0.32935 0.89096 0.83181 0.0
C3912 C 0.32695 0.86488 0.04624 0.0
C3913 C 0.32726 0.86391 0.01629 0.0
C3914 C 0.31833 0.87972 0.9528 0.0
C3915 C 0.32874 0.87654 0.87538 0.0
C3916 C 0.32804 0.87534 0.90723 0.0
C3917 C 0.32972 0.87713 -0.00069 0.0
C3918 C 0.32871 0.87582 0.96774 0.0
H3919 H 0.33538 0.85933 0.81661 0.0
H3920 H 0.33181 0.85568 0.86849 0.0
H3921 H 0.30967 0.88235 0.91199 0.0
H3922 H 0.33445 0.90379 0.05211 0.0
H3923 H 0.3347 0.90195 -0.00013 0.0
loop_
_geom_bond_atom_site_label_1
_geom_bond_atom_site_label_2
_geom_bond_distance
_geom_bond_site_symmetry_2
_ccdc_geom_bond_type
Co0 O3 1.970 . S
Co0 N17 1.989 . S
Co0 O25 1.967 . S
Co0 O32 1.920 . S
Co1 O4 1.966 . S
Co1 N10 2.022 . S
Co1 N18 1.993 . S
Co1 O26 1.941 . S
C2 O3 1.258 1_554 S
C2 O4 1.263 . S
O3 Co0 1.970 . S
O3 C2 1.258 1_556 S
O4 Co1 1.966 . S
O4 C2 1.263 . S
C5 O6 1.235 . S
C5 O32 1.289 . S
O6 C5 1.235 . S
C7 C9 1.400 . S
C7 N10 1.351 . S
C7 C12 1.501 . S
C8 C9 1.387 . S
C8 N11 1.341 . S
C9 C7 1.400 . S
C9 C8 1.387 . S
N10 Co1 2.022 . S
N10 C7 1.351 . S
N10 N11 1.365 . S
N11 C8 1.341 . S
N11 N10 1.365 . S
N11 H31 0.862 . S
C12 C7 1.501 . S
C12 H13 0.961 . S
C12 H14 0.961 . S
C12 H15 0.960 . S
H13 C12 0.961 . S
H14 C12 0.961 . S
H15 C12 0.960 . S
C16 N17 1.342 . S
C16 C20 1.401 1_556 S
C16 C21 1.499 . S
N17 Co0 1.989 . S
N17 C16 1.342 . S
N17 N18 1.388 1_556 S
N18 Co1 1.993 . S
N18 N17 1.388 1_554 S
N18 C19 1.346 . S
C19 N18 1.346 . S
C19 C20 1.396 . S
C19 C29 1.510 . S
C20 C16 1.401 1_554 S
C20 C19 1.396 . S
C21 C16 1.499 . S
C21 H22 0.959 . S
C21 H23 0.960 . S
C21 H24 0.961 . S
H22 C21 0.959 . S
H23 C21 0.960 . S
H24 C21 0.961 . S
O25 Co0 1.967 . S
O25 C33 1.258 1_556 S
O26 Co1 1.941 . S
O26 C33 1.266 . S
H27 C29 0.959 . S
H28 C29 0.961 . S
C29 C19 1.510 . S
C29 H27 0.959 . S
C29 H28 0.961 . S
C29 H30 0.960 . S
H30 C29 0.960 . S
H31 N11 0.862 . S
O32 Co0 1.920 . S
O32 C5 1.289 . S
C33 O25 1.258 1_554 S
C33 O26 1.266 . S
Co34 O37 1.970 . S
Co34 N51 1.989 1_545 S
Co34 O59 1.967 . S
Co34 O66 1.920 . S
Co35 O38 1.966 . S
Co35 N44 2.022 . S
Co35 N52 1.993 1_545 S
Co35 O60 1.941 . S
C36 O37 1.258 1_554 S
C36 O38 1.263 . S
O37 Co34 1.970 . S
O37 C36 1.258 1_556 S
O38 Co35 1.966 . S
O38 C36 1.263 . S
C39 O40 1.235 1_545 S
C39 O66 1.289 . S
O40 C39 1.235 1_565 S
C41 C43 1.400 . S
C41 N44 1.351 . S
C41 C46 1.501 . S
C42 C43 1.387 . S
C42 N45 1.341 . S
C43 C41 1.400 . S
C43 C42 1.387 . S
N44 Co35 2.022 . S
N44 C41 1.351 . S
N44 N45 1.365 . S
N45 C42 1.341 . S
N45 N44 1.365 . S
N45 H65 0.862 . S
C46 C41 1.501 . S
C46 H47 0.961 . S
C46 H48 0.961 . S
C46 H49 0.960 . S
H47 C46 0.961 . S
H48 C46 0.961 . S
H49 C46 0.960 . S
C50 N51 1.342 . S
C50 C54 1.401 1_556 S
C50 C55 1.499 . S
N51 Co34 1.989 1_565 S
N51 C50 1.342 . S
N51 N52 1.388 1_556 S
N52 Co35 1.993 1_565 S
N52 N51 1.388 1_554 S
N52 C53 1.346 . S
C53 N52 1.346 . S
C53 C54 1.396 . S
C53 C63 1.510 . S
C54 C50 1.401 1_554 S
C54 C53 1.396 . S
C55 C50 1.499 . S
C55 H56 0.959 . S
C55 H57 0.960 . S
C55 H58 0.961 . S
H56 C55 0.959 . S
H57 C55 0.960 . S
H58 C55 0.961 . S
O59 Co34 1.967 . S
O59 C67 1.258 1_556 S
O60 Co35 1.941 . S
O60 C67 1.266 . S
H61 C63 0.959 . S
H62 C63 0.961 . S
C63 C53 1.510 . S
C63 H61 0.959 . S
C63 H62 0.961 . S
C63 H64 0.960 . S
H64 C63 0.960 . S
H65 N45 0.862 . S
O66 Co34 1.920 . S
O66 C39 1.289 . S
C67 O59 1.258 1_554 S
C67 O60 1.266 . S
Co68 O71 1.970 . S
Co68 N85 1.989 1_655 S
Co68 O93 1.967 . S
Co68 O100 1.920 . S
Co69 O72 1.966 . S
Co69 N78 2.022 . S
Co69 N86 1.993 1_655 S
Co69 O94 1.941 . S
C70 O71 1.258 1_554 S
C70 O72 1.263 . S
O71 Co68 1.970 . S
O71 C70 1.258 1_556 S
O72 Co69 1.966 . S
O72 C70 1.263 . S
C73 O74 1.235 1_655 S
C73 O100 1.289 . S
O74 C73 1.235 1_455 S
C75 C77 1.400 . S
C75 N78 1.351 . S
C75 C80 1.501 . S
C76 C77 1.387 . S
C76 N79 1.341 . S
C77 C75 1.400 . S
C77 C76 1.387 . S
N78 Co69 2.022 . S
N78 C75 1.351 . S
N78 N79 1.365 . S
N79 C76 1.341 . S
N79 N78 1.365 . S
N79 H99 0.862 . S
C80 C75 1.501 . S
C80 H81 0.961 . S
C80 H82 0.961 . S
C80 H83 0.960 . S
H81 C80 0.961 . S
H82 C80 0.961 . S
H83 C80 0.960 . S
C84 N85 1.342 . S
C84 C88 1.401 1_556 S
C84 C89 1.499 . S
N85 Co68 1.989 1_455 S
N85 C84 1.342 . S
N85 N86 1.388 1_556 S
N86 Co69 1.993 1_455 S
N86 N85 1.388 1_554 S
N86 C87 1.346 . S
C87 N86 1.346 . S
C87 C88 1.396 . S
C87 C97 1.510 . S
C88 C84 1.401 1_554 S
C88 C87 1.396 . S
C89 C84 1.499 . S
C89 H90 0.959 . S
C89 H91 0.960 . S
C89 H92 0.961 . S
H90 C89 0.959 . S
H91 C89 0.960 . S
H92 C89 0.961 . S
O93 Co68 1.967 . S
O93 C101 1.258 1_556 S
O94 Co69 1.941 . S
O94 C101 1.266 . S
H95 C97 0.959 . S
H96 C97 0.961 . S
C97 C87 1.510 . S
C97 H95 0.959 . S
C97 H96 0.961 . S
C97 H98 0.960 . S
H98 C97 0.960 . S
H99 N79 0.862 . S
O100 Co68 1.920 . S
O100 C73 1.289 . S
C101 O93 1.258 1_554 S
C101 O94 1.266 . S
Co102 O105 1.970 . S
Co102 N119 1.989 . S
Co102 O127 1.967 . S
Co102 O134 1.920 . S
Co103 O106 1.966 . S
Co103 N112 2.022 . S
Co103 N120 1.993 . S
Co103 O128 1.941 . S
C104 O105 1.258 . S
C104 O106 1.263 . S
O105 Co102 1.970 . S
O105 C104 1.258 . S
O106 Co103 1.966 . S
O106 C104 1.263 . S
C107 O108 1.235 . S
C107 O134 1.289 . S
O108 C107 1.235 . S
C109 C111 1.400 . S
C109 N112 1.351 . S
C109 C114 1.501 . S
C110 C111 1.387 . S
C110 N113 1.341 . S
C111 C109 1.400 . S
C111 C110 1.387 . S
N112 Co103 2.022 . S
N112 C109 1.351 . S
N112 N113 1.365 . S
N113 C110 1.341 . S
N113 N112 1.365 . S
N113 H133 0.862 . S
C114 C109 1.501 . S
C114 H115 0.961 . S
C114 H116 0.961 . S
C114 H117 0.960 . S
H115 C114 0.961 . S
H116 C114 0.961 . S
H117 C114 0.960 . S
C118 N119 1.342 . S
C118 C122 1.401 . S
C118 C123 1.499 . S
N119 Co102 1.989 . S
N119 C118 1.342 . S
N119 N120 1.388 . S
N120 Co103 1.993 . S
N120 N119 1.388 . S
N120 C121 1.346 . S
C121 N120 1.346 . S
C121 C122 1.396 . S
C121 C131 1.510 . S
C122 C118 1.401 . S
C122 C121 1.396 . S
C123 C118 1.499 . S
C123 H124 0.959 . S
C123 H125 0.960 . S
C123 H126 0.961 . S
H124 C123 0.959 . S
H125 C123 0.960 . S
H126 C123 0.961 . S
O127 Co102 1.967 . S
O127 C135 1.258 . S
O128 Co103 1.941 . S
O128 C135 1.266 . S
H129 C131 0.959 . S
H130 C131 0.961 . S
C131 C121 1.510 . S
C131 H129 0.959 . S
C131 H130 0.961 . S
C131 H132 0.960 . S
H132 C131 0.960 . S
H133 N113 0.862 . S
O134 Co102 1.920 . S
O134 C107 1.289 . S
C135 O127 1.258 . S
C135 O128 1.266 . S
Co136 O139 1.970 . S
Co136 N153 1.989 1_565 S
Co136 O161 1.967 . S
Co136 O168 1.920 . S
Co137 O140 1.966 . S
Co137 N146 2.022 . S
Co137 N154 1.993 1_565 S
Co137 O162 1.941 . S
C138 O139 1.258 . S
C138 O140 1.263 . S
O139 Co136 1.970 . S
O139 C138 1.258 . S
O140 Co137 1.966 . S
O140 C138 1.263 . S
C141 O142 1.235 1_565 S
C141 O168 1.289 . S
O142 C141 1.235 1_545 S
C143 C145 1.400 . S
C143 N146 1.351 . S
C143 C148 1.501 . S
C144 C145 1.387 . S
C144 N147 1.341 . S
C145 C143 1.400 . S
C145 C144 1.387 . S
N146 Co137 2.022 . S
N146 C143 1.351 . S
N146 N147 1.365 . S
N147 C144 1.341 . S
N147 N146 1.365 . S
N147 H167 0.862 . S
C148 C143 1.501 . S
C148 H149 0.961 . S
C148 H150 0.961 . S
C148 H151 0.960 . S
H149 C148 0.961 . S
H150 C148 0.961 . S
H151 C148 0.960 . S
C152 N153 1.342 . S
C152 C156 1.401 . S
C152 C157 1.499 . S
N153 Co136 1.989 1_545 S
N153 C152 1.342 . S
N153 N154 1.388 . S
N154 Co137 1.993 1_545 S
N154 N153 1.388 . S
N154 C155 1.346 . S
C155 N154 1.346 . S
C155 C156 1.396 . S
C155 C165 1.510 . S
C156 C152 1.401 . S
C156 C155 1.396 . S
C157 C152 1.499 . S
C157 H158 0.959 . S
C157 H159 0.960 . S
C157 H160 0.961 . S
H158 C157 0.959 . S
H159 C157 0.960 . S
H160 C157 0.961 . S
O161 Co136 1.967 . S
O161 C169 1.258 . S
O162 Co137 1.941 . S
O162 C169 1.266 . S
H163 C165 0.959 . S
H164 C165 0.961 . S
C165 C155 1.510 . S
C165 H163 0.959 . S
C165 H164 0.961 . S
C165 H166 0.960 . S
H166 C165 0.960 . S
H167 N147 0.862 . S
O168 Co136 1.920 . S
O168 C141 1.289 . S
C169 O161 1.258 . S
C169 O162 1.266 . S
Co170 O173 1.970 . S
Co170 N187 1.989 1_455 S
Co170 O195 1.967 . S
Co170 O202 1.920 . S
Co171 O174 1.966 . S
Co171 N180 2.022 . S
Co171 N188 1.993 1_455 S
Co171 O196 1.941 . S
C172 O173 1.258 . S
C172 O174 1.263 . S
O173 Co170 1.970 . S
O173 C172 1.258 . S
O174 Co171 1.966 . S
O174 C172 1.263 . S
C175 O176 1.235 1_455 S
C175 O202 1.289 . S
O176 C175 1.235 1_655 S
C177 C179 1.400 . S
C177 N180 1.351 . S
C177 C182 1.501 . S
C178 C179 1.387 . S
C178 N181 1.341 . S
C179 C177 1.400 . S
C179 C178 1.387 . S
N180 Co171 2.022 . S
N180 C177 1.351 . S
N180 N181 1.365 . S
N181 C178 1.341 . S
N181 N180 1.365 . S
N181 H201 0.862 . S
C182 C177 1.501 . S
C182 H183 0.961 . S
C182 H184 0.961 . S
C182 H185 0.960 . S
H183 C182 0.961 . S
H184 C182 0.961 . S
H185 C182 0.960 . S
C186 N187 1.342 . S
C186 C190 1.401 . S
C186 C191 1.499 . S
N187 Co170 1.989 1_655 S
N187 C186 1.342 . S
N187 N188 1.388 . S
N188 Co171 1.993 1_655 S
N188 N187 1.388 . S
N188 C189 1.346 . S
C189 N188 1.346 . S
C189 C190 1.396 . S
C189 C199 1.510 . S
C190 C186 1.401 . S
C190 C189 1.396 . S
C191 C186 1.499 . S
C191 H192 0.959 . S
C191 H193 0.960 . S
C191 H194 0.961 . S
H192 C191 0.959 . S
H193 C191 0.960 . S
H194 C191 0.961 . S
O195 Co170 1.967 . S
O195 C203 1.258 . S
O196 Co171 1.941 . S
O196 C203 1.266 . S
H197 C199 0.959 . S
H198 C199 0.961 . S
C199 C189 1.510 . S
C199 H197 0.959 . S
C199 H198 0.961 . S
C199 H200 0.960 . S
H200 C199 0.960 . S
H201 N181 0.862 . S
O202 Co170 1.920 . S
O202 C175 1.289 . S
C203 O195 1.258 . S
C203 O196 1.266 . S
Co204 O207 1.970 . S
Co204 N221 1.989 . S
Co204 O229 1.967 . S
Co204 O236 1.920 . S
Co205 O208 1.966 . S
Co205 N214 2.022 1_554 S
Co205 N222 1.993 . S
Co205 O230 1.941 . S
C206 O207 1.258 . S
C206 O208 1.263 . S
O207 Co204 1.970 . S
O207 C206 1.258 . S
O208 Co205 1.966 . S
O208 C206 1.263 . S
C209 O210 1.235 . S
C209 O236 1.289 . S
O210 C209 1.235 . S
C211 C213 1.400 . S
C211 N214 1.351 . S
C211 C216 1.501 . S
C212 C213 1.387 . S
C212 N215 1.341 . S
C213 C211 1.400 . S
C213 C212 1.387 . S
N214 Co205 2.022 1_556 S
N214 C211 1.351 . S
N214 N215 1.365 . S
N215 C212 1.341 . S
N215 N214 1.365 . S
N215 H235 0.862 . S
C216 C211 1.501 . S
C216 H217 0.961 . S
C216 H218 0.961 . S
C216 H219 0.960 . S
H217 C216 0.961 . S
H218 C216 0.961 . S
H219 C216 0.960 . S
C220 N221 1.342 . S
C220 C224 1.401 . S
C220 C225 1.499 . S
N221 Co204 1.989 . S
N221 C220 1.342 . S
N221 N222 1.388 . S
N222 Co205 1.993 . S
N222 N221 1.388 . S
N222 C223 1.346 . S
C223 N222 1.346 . S
C223 C224 1.396 . S
C223 C233 1.510 1_554 S
C224 C220 1.401 . S
C224 C223 1.396 . S
C225 C220 1.499 . S
C225 H226 0.959 . S
C225 H227 0.960 . S
C225 H228 0.961 . S
H226 C225 0.959 . S
H227 C225 0.960 . S
H228 C225 0.961 . S
O229 Co204 1.967 . S
O229 C237 1.258 . S
O230 Co205 1.941 . S
O230 C237 1.266 . S
H231 C233 0.959 . S
H232 C233 0.961 . S
C233 C223 1.510 1_556 S
C233 H231 0.959 . S
C233 H232 0.961 . S
C233 H234 0.960 . S
H234 C233 0.960 . S
H235 N215 0.862 . S
O236 Co204 1.920 . S
O236 C209 1.289 . S
C237 O229 1.258 . S
C237 O230 1.266 . S
Co238 O241 1.970 . S
Co238 N255 1.989 1_565 S
Co238 O263 1.967 . S
Co238 O270 1.920 . S
Co239 O242 1.966 . S
Co239 N248 2.022 1_554 S
Co239 N256 1.993 1_565 S
Co239 O264 1.941 . S
C240 O241 1.258 . S
C240 O242 1.263 . S
O241 Co238 1.970 . S
O241 C240 1.258 . S
O242 Co239 1.966 . S
O242 C240 1.263 . S
C243 O244 1.235 1_565 S
C243 O270 1.289 . S
O244 C243 1.235 1_545 S
C245 C247 1.400 . S
C245 N248 1.351 . S
C245 C250 1.501 . S
C246 C247 1.387 . S
C246 N249 1.341 . S
C247 C245 1.400 . S
C247 C246 1.387 . S
N248 Co239 2.022 1_556 S
N248 C245 1.351 . S
N248 N249 1.365 . S
N249 C246 1.341 . S
N249 N248 1.365 . S
N249 H269 0.862 . S
C250 C245 1.501 . S
C250 H251 0.961 . S
C250 H252 0.961 . S
C250 H253 0.960 . S
H251 C250 0.961 . S
H252 C250 0.961 . S
H253 C250 0.960 . S
C254 N255 1.342 . S
C254 C258 1.401 . S
C254 C259 1.499 . S
N255 Co238 1.989 1_545 S
N255 C254 1.342 . S
N255 N256 1.388 . S
N256 Co239 1.993 1_545 S
N256 N255 1.388 . S
N256 C257 1.346 . S
C257 N256 1.346 . S
C257 C258 1.396 . S
C257 C267 1.510 1_554 S
C258 C254 1.401 . S
C258 C257 1.396 . S
C259 C254 1.499 . S
C259 H260 0.959 . S
C259 H261 0.960 . S
C259 H262 0.961 . S
H260 C259 0.959 . S
H261 C259 0.960 . S
H262 C259 0.961 . S
O263 Co238 1.967 . S
O263 C271 1.258 . S
O264 Co239 1.941 . S
O264 C271 1.266 . S
H265 C267 0.959 . S
H266 C267 0.961 . S
C267 C257 1.510 1_556 S
C267 H265 0.959 . S
C267 H266 0.961 . S
C267 H268 0.960 . S
H268 C267 0.960 . S
H269 N249 0.862 . S
O270 Co238 1.920 . S
O270 C243 1.289 . S
C271 O263 1.258 . S
C271 O264 1.266 . S
Co272 O275 1.970 . S
Co272 N289 1.989 1_455 S
Co272 O297 1.967 . S
Co272 O304 1.920 . S
Co273 O276 1.966 . S
Co273 N282 2.022 1_554 S
Co273 N290 1.993 1_455 S
Co273 O298 1.941 . S
C274 O275 1.258 . S
C274 O276 1.263 . S
O275 Co272 1.970 . S
O275 C274 1.258 . S
O276 Co273 1.966 . S
O276 C274 1.263 . S
C277 O278 1.235 1_455 S
C277 O304 1.289 . S
O278 C277 1.235 1_655 S
C279 C281 1.400 . S
C279 N282 1.351 . S
C279 C284 1.501 . S
C280 C281 1.387 . S
C280 N283 1.341 . S
C281 C279 1.400 . S
C281 C280 1.387 . S
N282 Co273 2.022 1_556 S
N282 C279 1.351 . S
N282 N283 1.365 . S
N283 C280 1.341 . S
N283 N282 1.365 . S
N283 H303 0.862 . S
C284 C279 1.501 . S
C284 H285 0.961 . S
C284 H286 0.961 . S
C284 H287 0.960 . S
H285 C284 0.961 . S
H286 C284 0.961 . S
H287 C284 0.960 . S
C288 N289 1.342 . S
C288 C292 1.401 . S
C288 C293 1.499 . S
N289 Co272 1.989 1_655 S
N289 C288 1.342 . S
N289 N290 1.388 . S
N290 Co273 1.993 1_655 S
N290 N289 1.388 . S
N290 C291 1.346 . S
C291 N290 1.346 . S
C291 C292 1.396 . S
C291 C301 1.510 1_554 S
C292 C288 1.401 . S
C292 C291 1.396 . S
C293 C288 1.499 . S
C293 H294 0.959 . S
C293 H295 0.960 . S
C293 H296 0.961 . S
H294 C293 0.959 . S
H295 C293 0.960 . S
H296 C293 0.961 . S
O297 Co272 1.967 . S
O297 C305 1.258 . S
O298 Co273 1.941 . S
O298 C305 1.266 . S
H299 C301 0.959 . S
H300 C301 0.961 . S
C301 C291 1.510 1_556 S
C301 H299 0.959 . S
C301 H300 0.961 . S
C301 H302 0.960 . S
H302 C301 0.960 . S
H303 N283 0.862 . S
O304 Co272 1.920 . S
O304 C277 1.289 . S
C305 O297 1.258 . S
C305 O298 1.266 . S
Co306 O309 1.970 . S
Co306 N323 1.989 . S
Co306 O331 1.967 . S
Co306 O338 1.920 . S
Co307 O310 1.966 . S
Co307 N316 2.022 . S
Co307 N324 1.993 . S
Co307 O332 1.941 . S
C308 O309 1.258 . S
C308 O310 1.263 . S
O309 Co306 1.970 . S
O309 C308 1.258 . S
O310 Co307 1.966 . S
O310 C308 1.263 . S
C311 O312 1.235 . S
C311 O338 1.289 . S
O312 C311 1.235 . S
C313 C315 1.400 . S
C313 N316 1.351 . S
C313 C318 1.501 . S
C314 C315 1.387 . S
C314 N317 1.341 . S
C315 C313 1.400 . S
C315 C314 1.387 . S
N316 Co307 2.022 . S
N316 C313 1.351 . S
N316 N317 1.365 . S
N317 C314 1.341 . S
N317 N316 1.365 . S
N317 H337 0.862 . S
C318 C313 1.501 . S
C318 H319 0.961 . S
C318 H320 0.961 . S
C318 H321 0.960 . S
H319 C318 0.961 . S
H320 C318 0.961 . S
H321 C318 0.960 . S
C322 N323 1.342 . S
C322 C326 1.401 . S
C322 C327 1.499 . S
N323 Co306 1.989 . S
N323 C322 1.342 . S
N323 N324 1.388 . S
N324 Co307 1.993 . S
N324 N323 1.388 . S
N324 C325 1.346 . S
C325 N324 1.346 . S
C325 C326 1.396 . S
C325 C335 1.510 . S
C326 C322 1.401 . S
C326 C325 1.396 . S
C327 C322 1.499 . S
C327 H328 0.959 . S
C327 H329 0.960 . S
C327 H330 0.961 . S
H328 C327 0.959 . S
H329 C327 0.960 . S
H330 C327 0.961 . S
O331 Co306 1.967 . S
O331 C339 1.258 . S
O332 Co307 1.941 . S
O332 C339 1.266 . S
H333 C335 0.959 . S
H334 C335 0.961 . S
C335 C325 1.510 . S
C335 H333 0.959 . S
C335 H334 0.961 . S
C335 H336 0.960 . S
H336 C335 0.960 . S
H337 N317 0.862 . S
O338 Co306 1.920 . S
O338 C311 1.289 . S
C339 O331 1.258 . S
C339 O332 1.266 . S
Co340 O343 1.970 . S
Co340 N357 1.989 1_545 S
Co340 O365 1.967 . S
Co340 O372 1.920 . S
Co341 O344 1.966 . S
Co341 N350 2.022 . S
Co341 N358 1.993 1_545 S
Co341 O366 1.941 . S
C342 O343 1.258 . S
C342 O344 1.263 . S
O343 Co340 1.970 . S
O343 C342 1.258 . S
O344 Co341 1.966 . S
O344 C342 1.263 . S
C345 O346 1.235 1_545 S
C345 O372 1.289 . S
O346 C345 1.235 1_565 S
C347 C349 1.400 . S
C347 N350 1.351 . S
C347 C352 1.501 . S
C348 C349 1.387 . S
C348 N351 1.341 . S
C349 C347 1.400 . S
C349 C348 1.387 . S
N350 Co341 2.022 . S
N350 C347 1.351 . S
N350 N351 1.365 . S
N351 C348 1.341 . S
N351 N350 1.365 . S
N351 H371 0.862 . S
C352 C347 1.501 . S
C352 H353 0.961 . S
C352 H354 0.961 . S
C352 H355 0.960 . S
H353 C352 0.961 . S
H354 C352 0.961 . S
H355 C352 0.960 . S
C356 N357 1.342 . S
C356 C360 1.401 . S
C356 C361 1.499 . S
N357 Co340 1.989 1_565 S
N357 C356 1.342 . S
N357 N358 1.388 . S
N358 Co341 1.993 1_565 S
N358 N357 1.388 . S
N358 C359 1.346 . S
C359 N358 1.346 . S
C359 C360 1.396 . S
C359 C369 1.510 . S
C360 C356 1.401 . S
C360 C359 1.396 . S
C361 C356 1.499 . S
C361 H362 0.959 . S
C361 H363 0.960 . S
C361 H364 0.961 . S
H362 C361 0.959 . S
H363 C361 0.960 . S
H364 C361 0.961 . S
O365 Co340 1.967 . S
O365 C373 1.258 . S
O366 Co341 1.941 . S
O366 C373 1.266 . S
H367 C369 0.959 . S
H368 C369 0.961 . S
C369 C359 1.510 . S
C369 H367 0.959 . S
C369 H368 0.961 . S
C369 H370 0.960 . S
H370 C369 0.960 . S
H371 N351 0.862 . S
O372 Co340 1.920 . S
O372 C345 1.289 . S
C373 O365 1.258 . S
C373 O366 1.266 . S
Co374 O377 1.970 . S
Co374 N391 1.989 1_655 S
Co374 O399 1.967 . S
Co374 O406 1.920 . S
Co375 O378 1.966 . S
Co375 N384 2.022 . S
Co375 N392 1.993 1_655 S
Co375 O400 1.941 . S
C376 O377 1.258 . S
C376 O378 1.263 . S
O377 Co374 1.970 . S
O377 C376 1.258 . S
O378 Co375 1.966 . S
O378 C376 1.263 . S
C379 O380 1.235 1_655 S
C379 O406 1.289 . S
O380 C379 1.235 1_455 S
C381 C383 1.400 . S
C381 N384 1.351 . S
C381 C386 1.501 . S
C382 C383 1.387 . S
C382 N385 1.341 . S
C383 C381 1.400 . S
C383 C382 1.387 . S
N384 Co375 2.022 . S
N384 C381 1.351 . S
N384 N385 1.365 . S
N385 C382 1.341 . S
N385 N384 1.365 . S
N385 H405 0.862 . S
C386 C381 1.501 . S
C386 H387 0.961 . S
C386 H388 0.961 . S
C386 H389 0.960 . S
H387 C386 0.961 . S
H388 C386 0.961 . S
H389 C386 0.960 . S
C390 N391 1.342 . S
C390 C394 1.401 . S
C390 C395 1.499 . S
N391 Co374 1.989 1_455 S
N391 C390 1.342 . S
N391 N392 1.388 . S
N392 Co375 1.993 1_455 S
N392 N391 1.388 . S
N392 C393 1.346 . S
C393 N392 1.346 . S
C393 C394 1.396 . S
C393 C403 1.510 . S
C394 C390 1.401 . S
C394 C393 1.396 . S
C395 C390 1.499 . S
C395 H396 0.959 . S
C395 H397 0.960 . S
C395 H398 0.961 . S
H396 C395 0.959 . S
H397 C395 0.960 . S
H398 C395 0.961 . S
O399 Co374 1.967 . S
O399 C407 1.258 . S
O400 Co375 1.941 . S
O400 C407 1.266 . S
H401 C403 0.959 . S
H402 C403 0.961 . S
C403 C393 1.510 . S
C403 H401 0.959 . S
C403 H402 0.961 . S
C403 H404 0.960 . S
H404 C403 0.960 . S
H405 N385 0.862 . S
O406 Co374 1.920 . S
O406 C379 1.289 . S
C407 O399 1.258 . S
C407 O400 1.266 . S
Co408 O411 1.970 . S
Co408 N425 1.989 . S
Co408 O433 1.967 . S
Co408 O440 1.920 . S
Co409 O412 1.966 . S
Co409 N418 2.022 . S
Co409 N426 1.993 . S
Co409 O434 1.941 . S
C410 O411 1.258 . S
C410 O412 1.263 . S
O411 Co408 1.970 . S
O411 C410 1.258 . S
O412 Co409 1.966 . S
O412 C410 1.263 . S
C413 O414 1.235 . S
C413 O440 1.289 . S
O414 C413 1.235 . S
C415 C417 1.400 . S
C415 N418 1.351 . S
C415 C420 1.501 . S
C416 C417 1.387 . S
C416 N419 1.341 . S
C417 C415 1.400 . S
C417 C416 1.387 . S
N418 Co409 2.022 . S
N418 C415 1.351 . S
N418 N419 1.365 . S
N419 C416 1.341 . S
N419 N418 1.365 . S
N419 H439 0.862 . S
C420 C415 1.501 . S
C420 H421 0.961 . S
C420 H422 0.961 . S
C420 H423 0.960 . S
H421 C420 0.961 . S
H422 C420 0.961 . S
H423 C420 0.960 . S
C424 N425 1.342 . S
C424 C428 1.401 . S
C424 C429 1.499 . S
N425 Co408 1.989 . S
N425 C424 1.342 . S
N425 N426 1.388 . S
N426 Co409 1.993 . S
N426 N425 1.388 . S
N426 C427 1.346 . S
C427 N426 1.346 . S
C427 C428 1.396 . S
C427 C437 1.510 . S
C428 C424 1.401 . S
C428 C427 1.396 . S
C429 C424 1.499 . S
C429 H430 0.959 . S
C429 H431 0.960 . S
C429 H432 0.961 . S
H430 C429 0.959 . S
H431 C429 0.960 . S
H432 C429 0.961 . S
O433 Co408 1.967 . S
O433 C441 1.258 . S
O434 Co409 1.941 . S
O434 C441 1.266 . S
H435 C437 0.959 . S
H436 C437 0.961 . S
C437 C427 1.510 . S
C437 H435 0.959 . S
C437 H436 0.961 . S
C437 H438 0.960 . S
H438 C437 0.960 . S
H439 N419 0.862 . S
O440 Co408 1.920 . S
O440 C413 1.289 . S
C441 O433 1.258 . S
C441 O434 1.266 . S
Co442 O445 1.970 . S
Co442 N459 1.989 . S
Co442 O467 1.967 . S
Co442 O474 1.920 . S
Co443 O446 1.966 . S
Co443 N452 2.022 . S
Co443 N460 1.993 . S
Co443 O468 1.941 . S
C444 O445 1.258 . S
C444 O446 1.263 . S
O445 Co442 1.970 . S
O445 C444 1.258 . S
O446 Co443 1.966 . S
O446 C444 1.263 . S
C447 O448 1.235 . S
C447 O474 1.289 . S
O448 C447 1.235 . S
C449 C451 1.400 . S
C449 N452 1.351 . S
C449 C454 1.501 . S
C450 C451 1.387 . S
C450 N453 1.341 . S
C451 C449 1.400 . S
C451 C450 1.387 . S
N452 Co443 2.022 . S
N452 C449 1.351 . S
N452 N453 1.365 . S
N453 C450 1.341 . S
N453 N452 1.365 . S
N453 H473 0.862 . S
C454 C449 1.501 . S
C454 H455 0.961 . S
C454 H456 0.961 . S
C454 H457 0.960 . S
H455 C454 0.961 . S
H456 C454 0.961 . S
H457 C454 0.960 . S
C458 N459 1.342 . S
C458 C462 1.401 . S
C458 C463 1.499 . S
N459 Co442 1.989 . S
N459 C458 1.342 . S
N459 N460 1.388 . S
N460 Co443 1.993 . S
N460 N459 1.388 . S
N460 C461 1.346 . S
C461 N460 1.346 . S
C461 C462 1.396 . S
C461 C471 1.510 . S
C462 C458 1.401 . S
C462 C461 1.396 . S
C463 C458 1.499 . S
C463 H464 0.959 . S
C463 H465 0.960 . S
C463 H466 0.961 . S
H464 C463 0.959 . S
H465 C463 0.960 . S
H466 C463 0.961 . S
O467 Co442 1.967 . S
O467 C475 1.258 . S
O468 Co443 1.941 . S
O468 C475 1.266 . S
H469 C471 0.959 . S
H470 C471 0.961 . S
C471 C461 1.510 . S
C471 H469 0.959 . S
C471 H470 0.961 . S
C471 H472 0.960 . S
H472 C471 0.960 . S
H473 N453 0.862 . S
O474 Co442 1.920 . S
O474 C447 1.289 . S
C475 O467 1.258 . S
C475 O468 1.266 . S
Co476 O479 1.970 . S
Co476 N493 1.989 . S
Co476 O501 1.967 . S
Co476 O508 1.920 . S
Co477 O480 1.966 . S
Co477 N486 2.022 . S
Co477 N494 1.993 . S
Co477 O502 1.941 . S
C478 O479 1.258 . S
C478 O480 1.263 . S
O479 Co476 1.970 . S
O479 C478 1.258 . S
O480 Co477 1.966 . S
O480 C478 1.263 . S
C481 O482 1.235 . S
C481 O508 1.289 . S
O482 C481 1.235 . S
C483 C485 1.400 . S
C483 N486 1.351 . S
C483 C488 1.501 . S
C484 C485 1.387 . S
C484 N487 1.341 . S
C485 C483 1.400 . S
C485 C484 1.387 . S
N486 Co477 2.022 . S
N486 C483 1.351 . S
N486 N487 1.365 . S
N487 C484 1.341 . S
N487 N486 1.365 . S
N487 H507 0.862 . S
C488 C483 1.501 . S
C488 H489 0.961 . S
C488 H490 0.961 . S
C488 H491 0.960 . S
H489 C488 0.961 . S
H490 C488 0.961 . S
H491 C488 0.960 . S
C492 N493 1.342 . S
C492 C496 1.401 . S
C492 C497 1.499 . S
N493 Co476 1.989 . S
N493 C492 1.342 . S
N493 N494 1.388 . S
N494 Co477 1.993 . S
N494 N493 1.388 . S
N494 C495 1.346 . S
C495 N494 1.346 . S
C495 C496 1.396 . S
C495 C505 1.510 . S
C496 C492 1.401 . S
C496 C495 1.396 . S
C497 C492 1.499 . S
C497 H498 0.959 . S
C497 H499 0.960 . S
C497 H500 0.961 . S
H498 C497 0.959 . S
H499 C497 0.960 . S
H500 C497 0.961 . S
O501 Co476 1.967 . S
O501 C509 1.258 . S
O502 Co477 1.941 . S
O502 C509 1.266 . S
H503 C505 0.959 . S
H504 C505 0.961 . S
C505 C495 1.510 . S
C505 H503 0.959 . S
C505 H504 0.961 . S
C505 H506 0.960 . S
H506 C505 0.960 . S
H507 N487 0.862 . S
O508 Co476 1.920 . S
O508 C481 1.289 . S
C509 O501 1.258 . S
C509 O502 1.266 . S
Co510 O513 1.970 . S
Co510 N527 1.989 . S
Co510 O535 1.967 . S
Co510 O542 1.920 . S
Co511 O514 1.966 . S
Co511 N520 2.022 . S
Co511 N528 1.993 . S
Co511 O536 1.941 . S
C512 O513 1.258 . S
C512 O514 1.263 . S
O513 Co510 1.970 . S
O513 C512 1.258 . S
O514 Co511 1.966 . S
O514 C512 1.263 . S
C515 O516 1.235 . S
C515 O542 1.289 . S
O516 C515 1.235 . S
C517 C519 1.400 . S
C517 N520 1.351 . S
C517 C522 1.501 . S
C518 C519 1.387 . S
C518 N521 1.341 . S
C519 C517 1.400 . S
C519 C518 1.387 . S
N520 Co511 2.022 . S
N520 C517 1.351 . S
N520 N521 1.365 . S
N521 C518 1.341 . S
N521 N520 1.365 . S
N521 H541 0.862 . S
C522 C517 1.501 . S
C522 H523 0.961 . S
C522 H524 0.961 . S
C522 H525 0.960 . S
H523 C522 0.961 . S
H524 C522 0.961 . S
H525 C522 0.960 . S
C526 N527 1.342 . S
C526 C530 1.401 . S
C526 C531 1.499 . S
N527 Co510 1.989 . S
N527 C526 1.342 . S
N527 N528 1.388 . S
N528 Co511 1.993 . S
N528 N527 1.388 . S
N528 C529 1.346 . S
C529 N528 1.346 . S
C529 C530 1.396 . S
C529 C539 1.510 . S
C530 C526 1.401 . S
C530 C529 1.396 . S
C531 C526 1.499 . S
C531 H532 0.959 . S
C531 H533 0.960 . S
C531 H534 0.961 . S
H532 C531 0.959 . S
H533 C531 0.960 . S
H534 C531 0.961 . S
O535 Co510 1.967 . S
O535 C543 1.258 . S
O536 Co511 1.941 . S
O536 C543 1.266 . S
H537 C539 0.959 . S
H538 C539 0.961 . S
C539 C529 1.510 . S
C539 H537 0.959 . S
C539 H538 0.961 . S
C539 H540 0.960 . S
H540 C539 0.960 . S
H541 N521 0.862 . S
O542 Co510 1.920 . S
O542 C515 1.289 . S
C543 O535 1.258 . S
C543 O536 1.266 . S
Co544 O547 1.970 . S
Co544 N561 1.989 . S
Co544 O569 1.967 . S
Co544 O576 1.920 . S
Co545 O548 1.966 . S
Co545 N554 2.022 . S
Co545 N562 1.993 . S
Co545 O570 1.941 . S
C546 O547 1.258 . S
C546 O548 1.263 . S
O547 Co544 1.970 . S
O547 C546 1.258 . S
O548 Co545 1.966 . S
O548 C546 1.263 . S
C549 O550 1.235 . S
C549 O576 1.289 . S
O550 C549 1.235 . S
C551 C553 1.400 . S
C551 N554 1.351 . S
C551 C556 1.501 . S
C552 C553 1.387 . S
C552 N555 1.341 . S
C553 C551 1.400 . S
C553 C552 1.387 . S
N554 Co545 2.022 . S
N554 C551 1.351 . S
N554 N555 1.365 . S
N555 C552 1.341 . S
N555 N554 1.365 . S
N555 H575 0.862 . S
C556 C551 1.501 . S
C556 H557 0.961 . S
C556 H558 0.961 . S
C556 H559 0.960 . S
H557 C556 0.961 . S
H558 C556 0.961 . S
H559 C556 0.960 . S
C560 N561 1.342 . S
C560 C564 1.401 . S
C560 C565 1.499 . S
N561 Co544 1.989 . S
N561 C560 1.342 . S
N561 N562 1.388 . S
N562 Co545 1.993 . S
N562 N561 1.388 . S
N562 C563 1.346 . S
C563 N562 1.346 . S
C563 C564 1.396 . S
C563 C573 1.510 . S
C564 C560 1.401 . S
C564 C563 1.396 . S
C565 C560 1.499 . S
C565 H566 0.959 . S
C565 H567 0.960 . S
C565 H568 0.961 . S
H566 C565 0.959 . S
H567 C565 0.960 . S
H568 C565 0.961 . S
O569 Co544 1.967 . S
O569 C577 1.258 . S
O570 Co545 1.941 . S
O570 C577 1.266 . S
H571 C573 0.959 . S
H572 C573 0.961 . S
C573 C563 1.510 . S
C573 H571 0.959 . S
C573 H572 0.961 . S
C573 H574 0.960 . S
H574 C573 0.960 . S
H575 N555 0.862 . S
O576 Co544 1.920 . S
O576 C549 1.289 . S
C577 O569 1.258 . S
C577 O570 1.266 . S
Co578 O581 1.970 . S
Co578 N595 1.989 . S
Co578 O603 1.967 . S
Co578 O610 1.920 . S
Co579 O582 1.966 . S
Co579 N588 2.022 . S
Co579 N596 1.993 . S
Co579 O604 1.941 . S
C580 O581 1.258 . S
C580 O582 1.263 . S
O581 Co578 1.970 . S
O581 C580 1.258 . S
O582 Co579 1.966 . S
O582 C580 1.263 . S
C583 O584 1.235 . S
C583 O610 1.289 . S
O584 C583 1.235 . S
C585 C587 1.400 . S
C585 N588 1.351 . S
C585 C590 1.501 . S
C586 C587 1.387 . S
C586 N589 1.341 . S
C587 C585 1.400 . S
C587 C586 1.387 . S
N588 Co579 2.022 . S
N588 C585 1.351 . S
N588 N589 1.365 . S
N589 C586 1.341 . S
N589 N588 1.365 . S
N589 H609 0.862 . S
C590 C585 1.501 . S
C590 H591 0.961 . S
C590 H592 0.961 . S
C590 H593 0.960 . S
H591 C590 0.961 . S
H592 C590 0.961 . S
H593 C590 0.960 . S
C594 N595 1.342 . S
C594 C598 1.401 . S
C594 C599 1.499 . S
N595 Co578 1.989 . S
N595 C594 1.342 . S
N595 N596 1.388 . S
N596 Co579 1.993 . S
N596 N595 1.388 . S
N596 C597 1.346 . S
C597 N596 1.346 . S
C597 C598 1.396 . S
C597 C607 1.510 . S
C598 C594 1.401 . S
C598 C597 1.396 . S
C599 C594 1.499 . S
C599 H600 0.959 . S
C599 H601 0.960 . S
C599 H602 0.961 . S
H600 C599 0.959 . S
H601 C599 0.960 . S
H602 C599 0.961 . S
O603 Co578 1.967 . S
O603 C611 1.258 . S
O604 Co579 1.941 . S
O604 C611 1.266 . S
H605 C607 0.959 . S
H606 C607 0.961 . S
C607 C597 1.510 . S
C607 H605 0.959 . S
C607 H606 0.961 . S
C607 H608 0.960 . S
H608 C607 0.960 . S
H609 N589 0.862 . S
O610 Co578 1.920 . S
O610 C583 1.289 . S
C611 O603 1.258 . S
C611 O604 1.266 . S
Co612 O615 1.970 . S
Co612 N629 1.989 . S
Co612 O637 1.967 . S
Co612 O644 1.920 . S
Co613 O616 1.966 . S
Co613 N622 2.022 . S
Co613 N630 1.993 . S
Co613 O638 1.941 . S
C614 O615 1.258 . S
C614 O616 1.263 . S
O615 Co612 1.970 . S
O615 C614 1.258 . S
O616 Co613 1.966 . S
O616 C614 1.263 . S
C617 O618 1.235 . S
C617 O644 1.289 . S
O618 C617 1.235 . S
C619 C621 1.400 . S
C619 N622 1.351 . S
C619 C624 1.501 . S
C620 C621 1.387 . S
C620 N623 1.341 . S
C621 C619 1.400 . S
C621 C620 1.387 . S
N622 Co613 2.022 . S
N622 C619 1.351 . S
N622 N623 1.365 . S
N623 C620 1.341 . S
N623 N622 1.365 . S
N623 H643 0.862 . S
C624 C619 1.501 . S
C624 H625 0.961 . S
C624 H626 0.961 . S
C624 H627 0.960 . S
H625 C624 0.961 . S
H626 C624 0.961 . S
H627 C624 0.960 . S
C628 N629 1.342 . S
C628 C632 1.401 . S
C628 C633 1.499 . S
N629 Co612 1.989 . S
N629 C628 1.342 . S
N629 N630 1.388 . S
N630 Co613 1.993 . S
N630 N629 1.388 . S
N630 C631 1.346 . S
C631 N630 1.346 . S
C631 C632 1.396 . S
C631 C641 1.510 . S
C632 C628 1.401 . S
C632 C631 1.396 . S
C633 C628 1.499 . S
C633 H634 0.959 . S
C633 H635 0.960 . S
C633 H636 0.961 . S
H634 C633 0.959 . S
H635 C633 0.960 . S
H636 C633 0.961 . S
O637 Co612 1.967 . S
O637 C645 1.258 . S
O638 Co613 1.941 . S
O638 C645 1.266 . S
H639 C641 0.959 . S
H640 C641 0.961 . S
C641 C631 1.510 . S
C641 H639 0.959 . S
C641 H640 0.961 . S
C641 H642 0.960 . S
H642 C641 0.960 . S
H643 N623 0.862 . S
O644 Co612 1.920 . S
O644 C617 1.289 . S
C645 O637 1.258 . S
C645 O638 1.266 . S
Co646 O649 1.970 . S
Co646 N663 1.989 . S
Co646 O671 1.967 . S
Co646 O678 1.920 . S
Co647 O650 1.966 . S
Co647 N656 2.022 . S
Co647 N664 1.993 . S
Co647 O672 1.941 . S
C648 O649 1.258 . S
C648 O650 1.263 . S
O649 Co646 1.970 . S
O649 C648 1.258 . S
O650 Co647 1.966 . S
O650 C648 1.263 . S
C651 O652 1.235 . S
C651 O678 1.289 . S
O652 C651 1.235 . S
C653 C655 1.400 . S
C653 N656 1.351 . S
C653 C658 1.501 . S
C654 C655 1.387 . S
C654 N657 1.341 . S
C655 C653 1.400 . S
C655 C654 1.387 . S
N656 Co647 2.022 . S
N656 C653 1.351 . S
N656 N657 1.365 . S
N657 C654 1.341 . S
N657 N656 1.365 . S
N657 H677 0.862 . S
C658 C653 1.501 . S
C658 H659 0.961 . S
C658 H660 0.961 . S
C658 H661 0.960 . S
H659 C658 0.961 . S
H660 C658 0.961 . S
H661 C658 0.960 . S
C662 N663 1.342 . S
C662 C666 1.401 . S
C662 C667 1.499 . S
N663 Co646 1.989 . S
N663 C662 1.342 . S
N663 N664 1.388 . S
N664 Co647 1.993 . S
N664 N663 1.388 . S
N664 C665 1.346 . S
C665 N664 1.346 . S
C665 C666 1.396 . S
C665 C675 1.510 . S
C666 C662 1.401 . S
C666 C665 1.396 . S
C667 C662 1.499 . S
C667 H668 0.959 . S
C667 H669 0.960 . S
C667 H670 0.961 . S
H668 C667 0.959 . S
H669 C667 0.960 . S
H670 C667 0.961 . S
O671 Co646 1.967 . S
O671 C679 1.258 . S
O672 Co647 1.941 . S
O672 C679 1.266 . S
H673 C675 0.959 . S
H674 C675 0.961 . S
C675 C665 1.510 . S
C675 H673 0.959 . S
C675 H674 0.961 . S
C675 H676 0.960 . S
H676 C675 0.960 . S
H677 N657 0.862 . S
O678 Co646 1.920 . S
O678 C651 1.289 . S
C679 O671 1.258 . S
C679 O672 1.266 . S
Co680 O683 1.970 . S
Co680 N697 1.989 . S
Co680 O705 1.967 . S
Co680 O712 1.920 . S
Co681 O684 1.966 . S
Co681 N690 2.022 . S
Co681 N698 1.993 . S
Co681 O706 1.941 . S
C682 O683 1.258 . S
C682 O684 1.263 . S
O683 Co680 1.970 . S
O683 C682 1.258 . S
O684 Co681 1.966 . S
O684 C682 1.263 . S
C685 O686 1.235 . S
C685 O712 1.289 . S
O686 C685 1.235 . S
C687 C689 1.400 . S
C687 N690 1.351 . S
C687 C692 1.501 . S
C688 C689 1.387 . S
C688 N691 1.341 . S
C689 C687 1.400 . S
C689 C688 1.387 . S
N690 Co681 2.022 . S
N690 C687 1.351 . S
N690 N691 1.365 . S
N691 C688 1.341 . S
N691 N690 1.365 . S
N691 H711 0.862 . S
C692 C687 1.501 . S
C692 H693 0.961 . S
C692 H694 0.961 . S
C692 H695 0.960 . S
H693 C692 0.961 . S
H694 C692 0.961 . S
H695 C692 0.960 . S
C696 N697 1.342 . S
C696 C700 1.401 . S
C696 C701 1.499 . S
N697 Co680 1.989 . S
N697 C696 1.342 . S
N697 N698 1.388 . S
N698 Co681 1.993 . S
N698 N697 1.388 . S
N698 C699 1.346 . S
C699 N698 1.346 . S
C699 C700 1.396 . S
C699 C709 1.510 . S
C700 C696 1.401 . S
C700 C699 1.396 . S
C701 C696 1.499 . S
C701 H702 0.959 . S
C701 H703 0.960 . S
C701 H704 0.961 . S
H702 C701 0.959 . S
H703 C701 0.960 . S
H704 C701 0.961 . S
O705 Co680 1.967 . S
O705 C713 1.258 . S
O706 Co681 1.941 . S
O706 C713 1.266 . S
H707 C709 0.959 . S
H708 C709 0.961 . S
C709 C699 1.510 . S
C709 H707 0.959 . S
C709 H708 0.961 . S
C709 H710 0.960 . S
H710 C709 0.960 . S
H711 N691 0.862 . S
O712 Co680 1.920 . S
O712 C685 1.289 . S
C713 O705 1.258 . S
C713 O706 1.266 . S
Co714 O717 1.970 . S
Co714 N731 1.989 . S
Co714 O739 1.967 . S
Co714 O746 1.920 . S
Co715 O718 1.966 . S
Co715 N724 2.022 . S
Co715 N732 1.993 . S
Co715 O740 1.941 . S
C716 O717 1.258 . S
C716 O718 1.263 . S
O717 Co714 1.970 . S
O717 C716 1.258 . S
O718 Co715 1.966 . S
O718 C716 1.263 . S
C719 O720 1.235 . S
C719 O746 1.289 . S
O720 C719 1.235 . S
C721 C723 1.400 . S
C721 N724 1.351 . S
C721 C726 1.501 . S
C722 C723 1.387 . S
C722 N725 1.341 . S
C723 C721 1.400 . S
C723 C722 1.387 . S
N724 Co715 2.022 . S
N724 C721 1.351 . S
N724 N725 1.365 . S
N725 C722 1.341 . S
N725 N724 1.365 . S
N725 H745 0.862 . S
C726 C721 1.501 . S
C726 H727 0.961 . S
C726 H728 0.961 . S
C726 H729 0.960 . S
H727 C726 0.961 . S
H728 C726 0.961 . S
H729 C726 0.960 . S
C730 N731 1.342 . S
C730 C734 1.401 . S
C730 C735 1.499 . S
N731 Co714 1.989 . S
N731 C730 1.342 . S
N731 N732 1.388 . S
N732 Co715 1.993 . S
N732 N731 1.388 . S
N732 C733 1.346 . S
C733 N732 1.346 . S
C733 C734 1.396 . S
C733 C743 1.510 . S
C734 C730 1.401 . S
C734 C733 1.396 . S
C735 C730 1.499 . S
C735 H736 0.959 . S
C735 H737 0.960 . S
C735 H738 0.961 . S
H736 C735 0.959 . S
H737 C735 0.960 . S
H738 C735 0.961 . S
O739 Co714 1.967 . S
O739 C747 1.258 . S
O740 Co715 1.941 . S
O740 C747 1.266 . S
H741 C743 0.959 . S
H742 C743 0.961 . S
C743 C733 1.510 . S
C743 H741 0.959 . S
C743 H742 0.961 . S
C743 H744 0.960 . S
H744 C743 0.960 . S
H745 N725 0.862 . S
O746 Co714 1.920 . S
O746 C719 1.289 . S
C747 O739 1.258 . S
C747 O740 1.266 . S
Co748 O751 1.970 . S
Co748 N765 1.989 . S
Co748 O773 1.967 . S
Co748 O780 1.920 . S
Co749 O752 1.966 . S
Co749 N758 2.022 . S
Co749 N766 1.993 . S
Co749 O774 1.941 . S
C750 O751 1.258 . S
C750 O752 1.263 . S
O751 Co748 1.970 . S
O751 C750 1.258 . S
O752 Co749 1.966 . S
O752 C750 1.263 . S
C753 O754 1.235 . S
C753 O780 1.289 . S
O754 C753 1.235 . S
C755 C757 1.400 . S
C755 N758 1.351 . S
C755 C760 1.501 . S
C756 C757 1.387 . S
C756 N759 1.341 . S
C757 C755 1.400 . S
C757 C756 1.387 . S
N758 Co749 2.022 . S
N758 C755 1.351 . S
N758 N759 1.365 . S
N759 C756 1.341 . S
N759 N758 1.365 . S
N759 H779 0.862 . S
C760 C755 1.501 . S
C760 H761 0.961 . S
C760 H762 0.961 . S
C760 H763 0.960 . S
H761 C760 0.961 . S
H762 C760 0.961 . S
H763 C760 0.960 . S
C764 N765 1.342 . S
C764 C768 1.401 . S
C764 C769 1.499 . S
N765 Co748 1.989 . S
N765 C764 1.342 . S
N765 N766 1.388 . S
N766 Co749 1.993 . S
N766 N765 1.388 . S
N766 C767 1.346 . S
C767 N766 1.346 . S
C767 C768 1.396 . S
C767 C777 1.510 . S
C768 C764 1.401 . S
C768 C767 1.396 . S
C769 C764 1.499 . S
C769 H770 0.959 . S
C769 H771 0.960 . S
C769 H772 0.961 . S
H770 C769 0.959 . S
H771 C769 0.960 . S
H772 C769 0.961 . S
O773 Co748 1.967 . S
O773 C781 1.258 . S
O774 Co749 1.941 . S
O774 C781 1.266 . S
H775 C777 0.959 . S
H776 C777 0.961 . S
C777 C767 1.510 . S
C777 H775 0.959 . S
C777 H776 0.961 . S
C777 H778 0.960 . S
H778 C777 0.960 . S
H779 N759 0.862 . S
O780 Co748 1.920 . S
O780 C753 1.289 . S
C781 O773 1.258 . S
C781 O774 1.266 . S
Co782 O785 1.970 . S
Co782 N799 1.989 . S
Co782 O807 1.967 . S
Co782 O814 1.920 . S
Co783 O786 1.966 . S
Co783 N792 2.022 . S
Co783 N800 1.993 . S
Co783 O808 1.941 . S
C784 O785 1.258 . S
C784 O786 1.263 . S
O785 Co782 1.970 . S
O785 C784 1.258 . S
O786 Co783 1.966 . S
O786 C784 1.263 . S
C787 O788 1.235 . S
C787 O814 1.289 . S
O788 C787 1.235 . S
C789 C791 1.400 . S
C789 N792 1.351 . S
C789 C794 1.501 . S
C790 C791 1.387 . S
C790 N793 1.341 . S
C791 C789 1.400 . S
C791 C790 1.387 . S
N792 Co783 2.022 . S
N792 C789 1.351 . S
N792 N793 1.365 . S
N793 C790 1.341 . S
N793 N792 1.365 . S
N793 H813 0.862 . S
C794 C789 1.501 . S
C794 H795 0.961 . S
C794 H796 0.961 . S
C794 H797 0.960 . S
H795 C794 0.961 . S
H796 C794 0.961 . S
H797 C794 0.960 . S
C798 N799 1.342 . S
C798 C802 1.401 . S
C798 C803 1.499 . S
N799 Co782 1.989 . S
N799 C798 1.342 . S
N799 N800 1.388 . S
N800 Co783 1.993 . S
N800 N799 1.388 . S
N800 C801 1.346 . S
C801 N800 1.346 . S
C801 C802 1.396 . S
C801 C811 1.510 . S
C802 C798 1.401 . S
C802 C801 1.396 . S
C803 C798 1.499 . S
C803 H804 0.959 . S
C803 H805 0.960 . S
C803 H806 0.961 . S
H804 C803 0.959 . S
H805 C803 0.960 . S
H806 C803 0.961 . S
O807 Co782 1.967 . S
O807 C815 1.258 . S
O808 Co783 1.941 . S
O808 C815 1.266 . S
H809 C811 0.959 . S
H810 C811 0.961 . S
C811 C801 1.510 . S
C811 H809 0.959 . S
C811 H810 0.961 . S
C811 H812 0.960 . S
H812 C811 0.960 . S
H813 N793 0.862 . S
O814 Co782 1.920 . S
O814 C787 1.289 . S
C815 O807 1.258 . S
C815 O808 1.266 . S
Co816 O819 1.970 . S
Co816 N833 1.989 . S
Co816 O841 1.967 . S
Co816 O848 1.920 . S
Co817 O820 1.966 . S
Co817 N826 2.022 . S
Co817 N834 1.993 . S
Co817 O842 1.941 . S
C818 O819 1.258 . S
C818 O820 1.263 . S
O819 Co816 1.970 . S
O819 C818 1.258 . S
O820 Co817 1.966 . S
O820 C818 1.263 . S
C821 O822 1.235 . S
C821 O848 1.289 . S
O822 C821 1.235 . S
C823 C825 1.400 . S
C823 N826 1.351 . S
C823 C828 1.501 . S
C824 C825 1.387 . S
C824 N827 1.341 . S
C825 C823 1.400 . S
C825 C824 1.387 . S
N826 Co817 2.022 . S
N826 C823 1.351 . S
N826 N827 1.365 . S
N827 C824 1.341 . S
N827 N826 1.365 . S
N827 H847 0.862 . S
C828 C823 1.501 . S
C828 H829 0.961 . S
C828 H830 0.961 . S
C828 H831 0.960 . S
H829 C828 0.961 . S
H830 C828 0.961 . S
H831 C828 0.960 . S
C832 N833 1.342 . S
C832 C836 1.401 . S
C832 C837 1.499 . S
N833 Co816 1.989 . S
N833 C832 1.342 . S
N833 N834 1.388 . S
N834 Co817 1.993 . S
N834 N833 1.388 . S
N834 C835 1.346 . S
C835 N834 1.346 . S
C835 C836 1.396 . S
C835 C845 1.510 . S
C836 C832 1.401 . S
C836 C835 1.396 . S
C837 C832 1.499 . S
C837 H838 0.959 . S
C837 H839 0.960 . S
C837 H840 0.961 . S
H838 C837 0.959 . S
H839 C837 0.960 . S
H840 C837 0.961 . S
O841 Co816 1.967 . S
O841 C849 1.258 . S
O842 Co817 1.941 . S
O842 C849 1.266 . S
H843 C845 0.959 . S
H844 C845 0.961 . S
C845 C835 1.510 . S
C845 H843 0.959 . S
C845 H844 0.961 . S
C845 H846 0.960 . S
H846 C845 0.960 . S
H847 N827 0.862 . S
O848 Co816 1.920 . S
O848 C821 1.289 . S
C849 O841 1.258 . S
C849 O842 1.266 . S
Co850 O853 1.970 . S
Co850 N867 1.989 . S
Co850 O875 1.967 . S
Co850 O882 1.920 . S
Co851 O854 1.966 . S
Co851 N860 2.022 . S
Co851 N868 1.993 . S
Co851 O876 1.941 . S
C852 O853 1.258 . S
C852 O854 1.263 . S
O853 Co850 1.970 . S
O853 C852 1.258 . S
O854 Co851 1.966 . S
O854 C852 1.263 . S
C855 O856 1.235 . S
C855 O882 1.289 . S
O856 C855 1.235 . S
C857 C859 1.400 . S
C857 N860 1.351 . S
C857 C862 1.501 . S
C858 C859 1.387 . S
C858 N861 1.341 . S
C859 C857 1.400 . S
C859 C858 1.387 . S
N860 Co851 2.022 . S
N860 C857 1.351 . S
N860 N861 1.365 . S
N861 C858 1.341 . S
N861 N860 1.365 . S
N861 H881 0.862 . S
C862 C857 1.501 . S
C862 H863 0.961 . S
C862 H864 0.961 . S
C862 H865 0.960 . S
H863 C862 0.961 . S
H864 C862 0.961 . S
H865 C862 0.960 . S
C866 N867 1.342 . S
C866 C870 1.401 . S
C866 C871 1.499 . S
N867 Co850 1.989 . S
N867 C866 1.342 . S
N867 N868 1.388 . S
N868 Co851 1.993 . S
N868 N867 1.388 . S
N868 C869 1.346 . S
C869 N868 1.346 . S
C869 C870 1.396 . S
C869 C879 1.510 . S
C870 C866 1.401 . S
C870 C869 1.396 . S
C871 C866 1.499 . S
C871 H872 0.959 . S
C871 H873 0.960 . S
C871 H874 0.961 . S
H872 C871 0.959 . S
H873 C871 0.960 . S
H874 C871 0.961 . S
O875 Co850 1.967 . S
O875 C883 1.258 . S
O876 Co851 1.941 . S
O876 C883 1.266 . S
H877 C879 0.959 . S
H878 C879 0.961 . S
C879 C869 1.510 . S
C879 H877 0.959 . S
C879 H878 0.961 . S
C879 H880 0.960 . S
H880 C879 0.960 . S
H881 N861 0.862 . S
O882 Co850 1.920 . S
O882 C855 1.289 . S
C883 O875 1.258 . S
C883 O876 1.266 . S
Co884 O887 1.970 . S
Co884 N901 1.989 . S
Co884 O909 1.967 . S
Co884 O916 1.920 . S
Co885 O888 1.966 . S
Co885 N894 2.022 . S
Co885 N902 1.993 . S
Co885 O910 1.941 . S
C886 O887 1.258 . S
C886 O888 1.263 . S
O887 Co884 1.970 . S
O887 C886 1.258 . S
O888 Co885 1.966 . S
O888 C886 1.263 . S
C889 O890 1.235 . S
C889 O916 1.289 . S
O890 C889 1.235 . S
C891 C893 1.400 . S
C891 N894 1.351 . S
C891 C896 1.501 . S
C892 C893 1.387 . S
C892 N895 1.341 . S
C893 C891 1.400 . S
C893 C892 1.387 . S
N894 Co885 2.022 . S
N894 C891 1.351 . S
N894 N895 1.365 . S
N895 C892 1.341 . S
N895 N894 1.365 . S
N895 H915 0.862 . S
C896 C891 1.501 . S
C896 H897 0.961 . S
C896 H898 0.961 . S
C896 H899 0.960 . S
H897 C896 0.961 . S
H898 C896 0.961 . S
H899 C896 0.960 . S
C900 N901 1.342 . S
C900 C904 1.401 . S
C900 C905 1.499 . S
N901 Co884 1.989 . S
N901 C900 1.342 . S
N901 N902 1.388 . S
N902 Co885 1.993 . S
N902 N901 1.388 . S
N902 C903 1.346 . S
C903 N902 1.346 . S
C903 C904 1.396 . S
C903 C913 1.510 . S
C904 C900 1.401 . S
C904 C903 1.396 . S
C905 C900 1.499 . S
C905 H906 0.959 . S
C905 H907 0.960 . S
C905 H908 0.961 . S
H906 C905 0.959 . S
H907 C905 0.960 . S
H908 C905 0.961 . S
O909 Co884 1.967 . S
O909 C917 1.258 . S
O910 Co885 1.941 . S
O910 C917 1.266 . S
H911 C913 0.959 . S
H912 C913 0.961 . S
C913 C903 1.510 . S
C913 H911 0.959 . S
C913 H912 0.961 . S
C913 H914 0.960 . S
H914 C913 0.960 . S
H915 N895 0.862 . S
O916 Co884 1.920 . S
O916 C889 1.289 . S
C917 O909 1.258 . S
C917 O910 1.266 . S
Co918 O921 1.970 . S
Co918 N935 1.989 . S
Co918 O943 1.967 . S
Co918 O950 1.920 . S
Co919 O922 1.966 . S
Co919 N928 2.022 . S
Co919 N936 1.993 . S
Co919 O944 1.941 . S
C920 O921 1.258 . S
C920 O922 1.263 . S
O921 Co918 1.970 . S
O921 C920 1.258 . S
O922 Co919 1.966 . S
O922 C920 1.263 . S
C923 O924 1.235 . S
C923 O950 1.289 . S
O924 C923 1.235 . S
C925 C927 1.400 . S
C925 N928 1.351 . S
C925 C930 1.501 . S
C926 C927 1.387 . S
C926 N929 1.341 . S
C927 C925 1.400 . S
C927 C926 1.387 . S
N928 Co919 2.022 . S
N928 C925 1.351 . S
N928 N929 1.365 . S
N929 C926 1.341 . S
N929 N928 1.365 . S
N929 H949 0.862 . S
C930 C925 1.501 . S
C930 H931 0.961 . S
C930 H932 0.961 . S
C930 H933 0.960 . S
H931 C930 0.961 . S
H932 C930 0.961 . S
H933 C930 0.960 . S
C934 N935 1.342 . S
C934 C938 1.401 . S
C934 C939 1.499 . S
N935 Co918 1.989 . S
N935 C934 1.342 . S
N935 N936 1.388 . S
N936 Co919 1.993 . S
N936 N935 1.388 . S
N936 C937 1.346 . S
C937 N936 1.346 . S
C937 C938 1.396 . S
C937 C947 1.510 . S
C938 C934 1.401 . S
C938 C937 1.396 . S
C939 C934 1.499 . S
C939 H940 0.959 . S
C939 H941 0.960 . S
C939 H942 0.961 . S
H940 C939 0.959 . S
H941 C939 0.960 . S
H942 C939 0.961 . S
O943 Co918 1.967 . S
O943 C951 1.258 . S
O944 Co919 1.941 . S
O944 C951 1.266 . S
H945 C947 0.959 . S
H946 C947 0.961 . S
C947 C937 1.510 . S
C947 H945 0.959 . S
C947 H946 0.961 . S
C947 H948 0.960 . S
H948 C947 0.960 . S
H949 N929 0.862 . S
O950 Co918 1.920 . S
O950 C923 1.289 . S
C951 O943 1.258 . S
C951 O944 1.266 . S
Co952 O955 1.970 . S
Co952 N969 1.989 . S
Co952 O977 1.967 . S
Co952 O984 1.920 . S
Co953 O956 1.966 . S
Co953 N962 2.022 . S
Co953 N970 1.993 . S
Co953 O978 1.941 . S
C954 O955 1.258 . S
C954 O956 1.263 . S
O955 Co952 1.970 . S
O955 C954 1.258 . S
O956 Co953 1.966 . S
O956 C954 1.263 . S
C957 O958 1.235 . S
C957 O984 1.289 . S
O958 C957 1.235 . S
C959 C961 1.400 . S
C959 N962 1.351 . S
C959 C964 1.501 . S
C960 C961 1.387 . S
C960 N963 1.341 . S
C961 C959 1.400 . S
C961 C960 1.387 . S
N962 Co953 2.022 . S
N962 C959 1.351 . S
N962 N963 1.365 . S
N963 C960 1.341 . S
N963 N962 1.365 . S
N963 H983 0.862 . S
C964 C959 1.501 . S
C964 H965 0.961 . S
C964 H966 0.961 . S
C964 H967 0.960 . S
H965 C964 0.961 . S
H966 C964 0.961 . S
H967 C964 0.960 . S
C968 N969 1.342 . S
C968 C972 1.401 . S
C968 C973 1.499 . S
N969 Co952 1.989 . S
N969 C968 1.342 . S
N969 N970 1.388 . S
N970 Co953 1.993 . S
N970 N969 1.388 . S
N970 C971 1.346 . S
C971 N970 1.346 . S
C971 C972 1.396 . S
C971 C981 1.510 . S
C972 C968 1.401 . S
C972 C971 1.396 . S
C973 C968 1.499 . S
C973 H974 0.959 . S
C973 H975 0.960 . S
C973 H976 0.961 . S
H974 C973 0.959 . S
H975 C973 0.960 . S
H976 C973 0.961 . S
O977 Co952 1.967 . S
O977 C985 1.258 . S
O978 Co953 1.941 . S
O978 C985 1.266 . S
H979 C981 0.959 . S
H980 C981 0.961 . S
C981 C971 1.510 . S
C981 H979 0.959 . S
C981 H980 0.961 . S
C981 H982 0.960 . S
H982 C981 0.960 . S
H983 N963 0.862 . S
O984 Co952 1.920 . S
O984 C957 1.289 . S
C985 O977 1.258 . S
C985 O978 1.266 . S
Co986 O989 1.970 . S
Co986 N1003 1.989 . S
Co986 O1011 1.967 . S
Co986 O1018 1.920 . S
Co987 O990 1.966 . S
Co987 N996 2.022 . S
Co987 N1004 1.993 . S
Co987 O1012 1.941 . S
C988 O989 1.258 . S
C988 O990 1.263 . S
O989 Co986 1.970 . S
O989 C988 1.258 . S
O990 Co987 1.966 . S
O990 C988 1.263 . S
C991 O992 1.235 . S
C991 O1018 1.289 . S
O992 C991 1.235 . S
C993 C995 1.400 . S
C993 N996 1.351 . S
C993 C998 1.501 . S
C994 C995 1.387 . S
C994 N997 1.341 . S
C995 C993 1.400 . S
C995 C994 1.387 . S
N996 Co987 2.022 . S
N996 C993 1.351 . S
N996 N997 1.365 . S
N997 C994 1.341 . S
N997 N996 1.365 . S
N997 H1017 0.862 . S
C998 C993 1.501 . S
C998 H999 0.961 . S
C998 H1000 0.961 . S
C998 H1001 0.960 . S
H999 C998 0.961 . S
H1000 C998 0.961 . S
H1001 C998 0.960 . S
C1002 N1003 1.342 . S
C1002 C1006 1.401 . S
C1002 C1007 1.499 . S
N1003 Co986 1.989 . S
N1003 C1002 1.342 . S
N1003 N1004 1.388 . S
N1004 Co987 1.993 . S
N1004 N1003 1.388 . S
N1004 C1005 1.346 . S
C1005 N1004 1.346 . S
C1005 C1006 1.396 . S
C1005 C1015 1.510 . S
C1006 C1002 1.401 . S
C1006 C1005 1.396 . S
C1007 C1002 1.499 . S
C1007 H1008 0.959 . S
C1007 H1009 0.960 . S
C1007 H1010 0.961 . S
H1008 C1007 0.959 . S
H1009 C1007 0.960 . S
H1010 C1007 0.961 . S
O1011 Co986 1.967 . S
O1011 C1019 1.258 . S
O1012 Co987 1.941 . S
O1012 C1019 1.266 . S
H1013 C1015 0.959 . S
H1014 C1015 0.961 . S
C1015 C1005 1.510 . S
C1015 H1013 0.959 . S
C1015 H1014 0.961 . S
C1015 H1016 0.960 . S
H1016 C1015 0.960 . S
H1017 N997 0.862 . S
O1018 Co986 1.920 . S
O1018 C991 1.289 . S
C1019 O1011 1.258 . S
C1019 O1012 1.266 . S
Co1020 O1023 1.970 . S
Co1020 N1037 1.989 . S
Co1020 O1045 1.967 . S
Co1020 O1052 1.920 . S
Co1021 O1024 1.966 . S
Co1021 N1030 2.022 . S
Co1021 N1038 1.993 . S
Co1021 O1046 1.941 . S
C1022 O1023 1.258 . S
C1022 O1024 1.263 . S
O1023 Co1020 1.970 . S
O1023 C1022 1.258 . S
O1024 Co1021 1.966 . S
O1024 C1022 1.263 . S
C1025 O1026 1.235 . S
C1025 O1052 1.289 . S
O1026 C1025 1.235 . S
C1027 C1029 1.400 . S
C1027 N1030 1.351 . S
C1027 C1032 1.501 . S
C1028 C1029 1.387 . S
C1028 N1031 1.341 . S
C1029 C1027 1.400 . S
C1029 C1028 1.387 . S
N1030 Co1021 2.022 . S
N1030 C1027 1.351 . S
N1030 N1031 1.365 . S
N1031 C1028 1.341 . S
N1031 N1030 1.365 . S
N1031 H1051 0.862 . S
C1032 C1027 1.501 . S
C1032 H1033 0.961 . S
C1032 H1034 0.961 . S
C1032 H1035 0.960 . S
H1033 C1032 0.961 . S
H1034 C1032 0.961 . S
H1035 C1032 0.960 . S
C1036 N1037 1.342 . S
C1036 C1040 1.401 . S
C1036 C1041 1.499 . S
N1037 Co1020 1.989 . S
N1037 C1036 1.342 . S
N1037 N1038 1.388 . S
N1038 Co1021 1.993 . S
N1038 N1037 1.388 . S
N1038 C1039 1.346 . S
C1039 N1038 1.346 . S
C1039 C1040 1.396 . S
C1039 C1049 1.510 . S
C1040 C1036 1.401 . S
C1040 C1039 1.396 . S
C1041 C1036 1.499 . S
C1041 H1042 0.959 . S
C1041 H1043 0.960 . S
C1041 H1044 0.961 . S
H1042 C1041 0.959 . S
H1043 C1041 0.960 . S
H1044 C1041 0.961 . S
O1045 Co1020 1.967 . S
O1045 C1053 1.258 . S
O1046 Co1021 1.941 . S
O1046 C1053 1.266 . S
H1047 C1049 0.959 . S
H1048 C1049 0.961 . S
C1049 C1039 1.510 . S
C1049 H1047 0.959 . S
C1049 H1048 0.961 . S
C1049 H1050 0.960 . S
H1050 C1049 0.960 . S
H1051 N1031 0.862 . S
O1052 Co1020 1.920 . S
O1052 C1025 1.289 . S
C1053 O1045 1.258 . S
C1053 O1046 1.266 . S
Co1054 O1057 1.970 . S
Co1054 N1071 1.989 . S
Co1054 O1079 1.967 . S
Co1054 O1086 1.920 . S
Co1055 O1058 1.966 . S
Co1055 N1064 2.022 . S
Co1055 N1072 1.993 . S
Co1055 O1080 1.941 . S
C1056 O1057 1.258 . S
C1056 O1058 1.263 . S
O1057 Co1054 1.970 . S
O1057 C1056 1.258 . S
O1058 Co1055 1.966 . S
O1058 C1056 1.263 . S
C1059 O1060 1.235 . S
C1059 O1086 1.289 . S
O1060 C1059 1.235 . S
C1061 C1063 1.400 . S
C1061 N1064 1.351 . S
C1061 C1066 1.501 . S
C1062 C1063 1.387 . S
C1062 N1065 1.341 . S
C1063 C1061 1.400 . S
C1063 C1062 1.387 . S
N1064 Co1055 2.022 . S
N1064 C1061 1.351 . S
N1064 N1065 1.365 . S
N1065 C1062 1.341 . S
N1065 N1064 1.365 . S
N1065 H1085 0.862 . S
C1066 C1061 1.501 . S
C1066 H1067 0.961 . S
C1066 H1068 0.961 . S
C1066 H1069 0.960 . S
H1067 C1066 0.961 . S
H1068 C1066 0.961 . S
H1069 C1066 0.960 . S
C1070 N1071 1.342 . S
C1070 C1074 1.401 . S
C1070 C1075 1.499 . S
N1071 Co1054 1.989 . S
N1071 C1070 1.342 . S
N1071 N1072 1.388 . S
N1072 Co1055 1.993 . S
N1072 N1071 1.388 . S
N1072 C1073 1.346 . S
C1073 N1072 1.346 . S
C1073 C1074 1.396 . S
C1073 C1083 1.510 . S
C1074 C1070 1.401 . S
C1074 C1073 1.396 . S
C1075 C1070 1.499 . S
C1075 H1076 0.959 . S
C1075 H1077 0.960 . S
C1075 H1078 0.961 . S
H1076 C1075 0.959 . S
H1077 C1075 0.960 . S
H1078 C1075 0.961 . S
O1079 Co1054 1.967 . S
O1079 C1087 1.258 . S
O1080 Co1055 1.941 . S
O1080 C1087 1.266 . S
H1081 C1083 0.959 . S
H1082 C1083 0.961 . S
C1083 C1073 1.510 . S
C1083 H1081 0.959 . S
C1083 H1082 0.961 . S
C1083 H1084 0.960 . S
H1084 C1083 0.960 . S
H1085 N1065 0.862 . S
O1086 Co1054 1.920 . S
O1086 C1059 1.289 . S
C1087 O1079 1.258 . S
C1087 O1080 1.266 . S
Co1088 O1091 1.970 . S
Co1088 N1105 1.989 . S
Co1088 O1113 1.967 . S
Co1088 O1120 1.920 . S
Co1089 O1092 1.966 . S
Co1089 N1098 2.022 . S
Co1089 N1106 1.993 . S
Co1089 O1114 1.941 . S
C1090 O1091 1.258 . S
C1090 O1092 1.263 . S
O1091 Co1088 1.970 . S
O1091 C1090 1.258 . S
O1092 Co1089 1.966 . S
O1092 C1090 1.263 . S
C1093 O1094 1.235 . S
C1093 O1120 1.289 . S
O1094 C1093 1.235 . S
C1095 C1097 1.400 . S
C1095 N1098 1.351 . S
C1095 C1100 1.501 . S
C1096 C1097 1.387 . S
C1096 N1099 1.341 . S
C1097 C1095 1.400 . S
C1097 C1096 1.387 . S
N1098 Co1089 2.022 . S
N1098 C1095 1.351 . S
N1098 N1099 1.365 . S
N1099 C1096 1.341 . S
N1099 N1098 1.365 . S
N1099 H1119 0.862 . S
C1100 C1095 1.501 . S
C1100 H1101 0.961 . S
C1100 H1102 0.961 . S
C1100 H1103 0.960 . S
H1101 C1100 0.961 . S
H1102 C1100 0.961 . S
H1103 C1100 0.960 . S
C1104 N1105 1.342 . S
C1104 C1108 1.401 . S
C1104 C1109 1.499 . S
N1105 Co1088 1.989 . S
N1105 C1104 1.342 . S
N1105 N1106 1.388 . S
N1106 Co1089 1.993 . S
N1106 N1105 1.388 . S
N1106 C1107 1.346 . S
C1107 N1106 1.346 . S
C1107 C1108 1.396 . S
C1107 C1117 1.510 . S
C1108 C1104 1.401 . S
C1108 C1107 1.396 . S
C1109 C1104 1.499 . S
C1109 H1110 0.959 . S
C1109 H1111 0.960 . S
C1109 H1112 0.961 . S
H1110 C1109 0.959 . S
H1111 C1109 0.960 . S
H1112 C1109 0.961 . S
O1113 Co1088 1.967 . S
O1113 C1121 1.258 . S
O1114 Co1089 1.941 . S
O1114 C1121 1.266 . S
H1115 C1117 0.959 . S
H1116 C1117 0.961 . S
C1117 C1107 1.510 . S
C1117 H1115 0.959 . S
C1117 H1116 0.961 . S
C1117 H1118 0.960 . S
H1118 C1117 0.960 . S
H1119 N1099 0.862 . S
O1120 Co1088 1.920 . S
O1120 C1093 1.289 . S
C1121 O1113 1.258 . S
C1121 O1114 1.266 . S
Co1122 O1125 1.970 . S
Co1122 N1139 1.989 . S
Co1122 O1147 1.967 . S
Co1122 O1154 1.920 . S
Co1123 O1126 1.966 . S
Co1123 N1132 2.022 . S
Co1123 N1140 1.993 . S
Co1123 O1148 1.941 . S
C1124 O1125 1.258 . S
C1124 O1126 1.263 . S
O1125 Co1122 1.970 . S
O1125 C1124 1.258 . S
O1126 Co1123 1.966 . S
O1126 C1124 1.263 . S
C1127 O1128 1.235 . S
C1127 O1154 1.289 . S
O1128 C1127 1.235 . S
C1129 C1131 1.400 . S
C1129 N1132 1.351 . S
C1129 C1134 1.501 . S
C1130 C1131 1.387 . S
C1130 N1133 1.341 . S
C1131 C1129 1.400 . S
C1131 C1130 1.387 . S
N1132 Co1123 2.022 . S
N1132 C1129 1.351 . S
N1132 N1133 1.365 . S
N1133 C1130 1.341 . S
N1133 N1132 1.365 . S
N1133 H1153 0.862 . S
C1134 C1129 1.501 . S
C1134 H1135 0.961 . S
C1134 H1136 0.961 . S
C1134 H1137 0.960 . S
H1135 C1134 0.961 . S
H1136 C1134 0.961 . S
H1137 C1134 0.960 . S
C1138 N1139 1.342 . S
C1138 C1142 1.401 . S
C1138 C1143 1.499 . S
N1139 Co1122 1.989 . S
N1139 C1138 1.342 . S
N1139 N1140 1.388 . S
N1140 Co1123 1.993 . S
N1140 N1139 1.388 . S
N1140 C1141 1.346 . S
C1141 N1140 1.346 . S
C1141 C1142 1.396 . S
C1141 C1151 1.510 . S
C1142 C1138 1.401 . S
C1142 C1141 1.396 . S
C1143 C1138 1.499 . S
C1143 H1144 0.959 . S
C1143 H1145 0.960 . S
C1143 H1146 0.961 . S
H1144 C1143 0.959 . S
H1145 C1143 0.960 . S
H1146 C1143 0.961 . S
O1147 Co1122 1.967 . S
O1147 C1155 1.258 . S
O1148 Co1123 1.941 . S
O1148 C1155 1.266 . S
H1149 C1151 0.959 . S
H1150 C1151 0.961 . S
C1151 C1141 1.510 . S
C1151 H1149 0.959 . S
C1151 H1150 0.961 . S
C1151 H1152 0.960 . S
H1152 C1151 0.960 . S
H1153 N1133 0.862 . S
O1154 Co1122 1.920 . S
O1154 C1127 1.289 . S
C1155 O1147 1.258 . S
C1155 O1148 1.266 . S
Co1156 O1159 1.970 . S
Co1156 N1173 1.989 . S
Co1156 O1181 1.967 . S
Co1156 O1188 1.920 . S
Co1157 O1160 1.966 . S
Co1157 N1166 2.022 . S
Co1157 N1174 1.993 . S
Co1157 O1182 1.941 . S
C1158 O1159 1.258 . S
C1158 O1160 1.263 . S
O1159 Co1156 1.970 . S
O1159 C1158 1.258 . S
O1160 Co1157 1.966 . S
O1160 C1158 1.263 . S
C1161 O1162 1.235 . S
C1161 O1188 1.289 . S
O1162 C1161 1.235 . S
C1163 C1165 1.400 . S
C1163 N1166 1.351 . S
C1163 C1168 1.501 . S
C1164 C1165 1.387 . S
C1164 N1167 1.341 . S
C1165 C1163 1.400 . S
C1165 C1164 1.387 . S
N1166 Co1157 2.022 . S
N1166 C1163 1.351 . S
N1166 N1167 1.365 . S
N1167 C1164 1.341 . S
N1167 N1166 1.365 . S
N1167 H1187 0.862 . S
C1168 C1163 1.501 . S
C1168 H1169 0.961 . S
C1168 H1170 0.961 . S
C1168 H1171 0.960 . S
H1169 C1168 0.961 . S
H1170 C1168 0.961 . S
H1171 C1168 0.960 . S
C1172 N1173 1.342 . S
C1172 C1176 1.401 . S
C1172 C1177 1.499 . S
N1173 Co1156 1.989 . S
N1173 C1172 1.342 . S
N1173 N1174 1.388 . S
N1174 Co1157 1.993 . S
N1174 N1173 1.388 . S
N1174 C1175 1.346 . S
C1175 N1174 1.346 . S
C1175 C1176 1.396 . S
C1175 C1185 1.510 . S
C1176 C1172 1.401 . S
C1176 C1175 1.396 . S
C1177 C1172 1.499 . S
C1177 H1178 0.959 . S
C1177 H1179 0.960 . S
C1177 H1180 0.961 . S
H1178 C1177 0.959 . S
H1179 C1177 0.960 . S
H1180 C1177 0.961 . S
O1181 Co1156 1.967 . S
O1181 C1189 1.258 . S
O1182 Co1157 1.941 . S
O1182 C1189 1.266 . S
H1183 C1185 0.959 . S
H1184 C1185 0.961 . S
C1185 C1175 1.510 . S
C1185 H1183 0.959 . S
C1185 H1184 0.961 . S
C1185 H1186 0.960 . S
H1186 C1185 0.960 . S
H1187 N1167 0.862 . S
O1188 Co1156 1.920 . S
O1188 C1161 1.289 . S
C1189 O1181 1.258 . S
C1189 O1182 1.266 . S
Co1190 O1193 1.970 . S
Co1190 N1207 1.989 . S
Co1190 O1215 1.967 . S
Co1190 O1222 1.920 . S
Co1191 O1194 1.966 . S
Co1191 N1200 2.022 . S
Co1191 N1208 1.993 . S
Co1191 O1216 1.941 . S
C1192 O1193 1.258 . S
C1192 O1194 1.263 . S
O1193 Co1190 1.970 . S
O1193 C1192 1.258 . S
O1194 Co1191 1.966 . S
O1194 C1192 1.263 . S
C1195 O1196 1.235 . S
C1195 O1222 1.289 . S
O1196 C1195 1.235 . S
C1197 C1199 1.400 . S
C1197 N1200 1.351 . S
C1197 C1202 1.501 . S
C1198 C1199 1.387 . S
C1198 N1201 1.341 . S
C1199 C1197 1.400 . S
C1199 C1198 1.387 . S
N1200 Co1191 2.022 . S
N1200 C1197 1.351 . S
N1200 N1201 1.365 . S
N1201 C1198 1.341 . S
N1201 N1200 1.365 . S
N1201 H1221 0.862 . S
C1202 C1197 1.501 . S
C1202 H1203 0.961 . S
C1202 H1204 0.961 . S
C1202 H1205 0.960 . S
H1203 C1202 0.961 . S
H1204 C1202 0.961 . S
H1205 C1202 0.960 . S
C1206 N1207 1.342 . S
C1206 C1210 1.401 . S
C1206 C1211 1.499 . S
N1207 Co1190 1.989 . S
N1207 C1206 1.342 . S
N1207 N1208 1.388 . S
N1208 Co1191 1.993 . S
N1208 N1207 1.388 . S
N1208 C1209 1.346 . S
C1209 N1208 1.346 . S
C1209 C1210 1.396 . S
C1209 C1219 1.510 . S
C1210 C1206 1.401 . S
C1210 C1209 1.396 . S
C1211 C1206 1.499 . S
C1211 H1212 0.959 . S
C1211 H1213 0.960 . S
C1211 H1214 0.961 . S
H1212 C1211 0.959 . S
H1213 C1211 0.960 . S
H1214 C1211 0.961 . S
O1215 Co1190 1.967 . S
O1215 C1223 1.258 . S
O1216 Co1191 1.941 . S
O1216 C1223 1.266 . S
H1217 C1219 0.959 . S
H1218 C1219 0.961 . S
C1219 C1209 1.510 . S
C1219 H1217 0.959 . S
C1219 H1218 0.961 . S
C1219 H1220 0.960 . S
H1220 C1219 0.960 . S
H1221 N1201 0.862 . S
O1222 Co1190 1.920 . S
O1222 C1195 1.289 . S
C1223 O1215 1.258 . S
C1223 O1216 1.266 . S
C1224 C1225 1.349 . S
C1224 C1226 1.327 . S
C1224 H1249 0.950 . S
C1225 C1224 1.349 . S
C1225 C1241 1.349 . S
C1226 C1224 1.327 . S
C1226 C1245 1.429 . S
C1226 H1250 0.950 . S
C1227 C1244 1.574 . S
C1227 C1246 1.368 . S
C1227 H1251 0.949 . S
H1228 C1232 0.949 . S
C1229 C1230 1.349 . S
C1229 C1231 1.327 . S
C1229 H1252 0.950 . S
C1230 C1229 1.349 . S
C1230 C1242 1.357 . S
C1231 C1229 1.327 . S
C1231 C1247 1.429 . S
C1231 H1253 0.950 . S
C1232 H1228 0.949 . S
C1232 C1240 1.574 . S
C1232 C1248 1.368 . S
H1233 C1241 0.950 . S
H1234 C1239 0.950 . S
H1235 C1240 0.949 . S
H1236 C1242 0.927 1_554 S
H1237 C1243 0.950 . S
H1238 C1244 0.949 . S
C1239 H1234 0.950 . S
C1239 C1241 1.327 . S
C1239 C1245 1.429 . S
C1240 C1232 1.574 . S
C1240 H1235 0.949 . S
C1240 C1246 1.368 . S
C1241 C1225 1.349 . S
C1241 H1233 0.950 . S
C1241 C1239 1.327 . S
C1242 C1230 1.357 . S
C1242 H1236 0.927 1_556 S
C1242 C1243 1.342 . S
C1243 H1237 0.950 . S
C1243 C1242 1.342 . S
C1243 C1247 1.429 . S
C1244 C1227 1.574 . S
C1244 H1238 0.949 . S
C1244 C1248 1.368 . S
C1245 C1226 1.429 . S
C1245 C1239 1.429 . S
C1245 C1246 1.523 . S
C1246 C1227 1.368 . S
C1246 C1240 1.368 . S
C1246 C1245 1.523 . S
C1247 C1231 1.429 . S
C1247 C1243 1.429 . S
C1247 C1248 1.523 . S
C1248 C1232 1.368 . S
C1248 C1244 1.368 . S
C1248 C1247 1.523 . S
H1249 C1224 0.950 . S
H1250 C1226 0.950 . S
H1251 C1227 0.949 . S
H1252 C1229 0.950 . S
H1253 C1231 0.950 . S
C1254 C1255 1.349 . S
C1254 C1256 1.327 . S
C1254 H1279 0.950 . S
C1255 C1254 1.349 . S
C1255 C1271 1.349 . S
C1256 C1254 1.327 . S
C1256 C1275 1.429 . S
C1256 H1280 0.950 . S
C1257 C1274 1.574 . S
C1257 C1276 1.368 . S
C1257 H1281 0.949 . S
H1258 C1262 0.949 . S
C1259 C1260 1.349 1_554 S
C1259 C1261 1.327 1_554 S
C1259 H1282 0.950 . S
C1260 C1259 1.349 1_556 S
C1260 C1272 1.349 . S
C1261 C1259 1.327 1_556 S
C1261 C1277 1.429 . S
C1261 H1283 0.950 1_556 S
C1262 H1258 0.949 . S
C1262 C1270 1.574 . S
C1262 C1278 1.368 . S
H1263 C1271 0.950 . S
H1264 C1269 0.950 . S
H1265 C1270 0.949 . S
H1266 C1272 0.950 . S
H1267 C1273 0.950 . S
H1268 C1274 0.949 . S
C1269 H1264 0.950 . S
C1269 C1271 1.327 . S
C1269 C1275 1.429 . S
C1270 C1262 1.574 . S
C1270 H1265 0.949 . S
C1270 C1276 1.368 . S
C1271 C1255 1.349 . S
C1271 H1263 0.950 . S
C1271 C1269 1.327 . S
C1272 C1260 1.349 . S
C1272 H1266 0.950 . S
C1272 C1273 1.327 . S
C1273 H1267 0.950 . S
C1273 C1272 1.327 . S
C1273 C1277 1.429 . S
C1274 C1257 1.574 . S
C1274 H1268 0.949 . S
C1274 C1278 1.368 . S
C1275 C1256 1.429 . S
C1275 C1269 1.429 . S
C1275 C1276 1.523 . S
C1276 C1257 1.368 . S
C1276 C1270 1.368 . S
C1276 C1275 1.523 . S
C1277 C1261 1.429 . S
C1277 C1273 1.429 . S
C1277 C1278 1.523 . S
C1278 C1262 1.368 . S
C1278 C1274 1.368 . S
C1278 C1277 1.523 . S
H1279 C1254 0.950 . S
H1280 C1256 0.950 . S
H1281 C1257 0.949 . S
H1282 C1259 0.950 . S
H1283 C1261 0.950 1_554 S
C1284 C1285 1.349 . S
C1284 C1286 1.327 . S
C1284 H1309 0.950 . S
C1285 C1284 1.349 . S
C1285 C1301 1.349 . S
C1286 C1284 1.327 . S
C1286 C1305 1.429 . S
C1286 H1310 0.950 . S
C1287 C1304 1.574 . S
C1287 C1306 1.368 . S
C1287 H1311 0.949 . S
H1288 C1292 0.949 . S
C1289 C1290 1.349 1_554 S
C1289 C1291 1.327 1_554 S
C1289 H1312 0.950 . S
C1290 C1289 1.349 1_556 S
C1290 C1302 1.349 . S
C1291 C1289 1.327 1_556 S
C1291 C1307 1.429 . S
C1291 H1313 0.960 . S
C1292 H1288 0.949 . S
C1292 C1300 1.574 . S
C1292 C1308 1.368 . S
H1293 C1301 0.950 . S
H1294 C1299 0.950 . S
H1295 C1300 0.949 . S
H1296 C1302 0.950 . S
H1297 C1303 0.950 . S
H1298 C1304 0.949 . S
C1299 H1294 0.950 . S
C1299 C1301 1.327 . S
C1299 C1305 1.429 . S
C1300 C1292 1.574 . S
C1300 H1295 0.949 . S
C1300 C1306 1.368 . S
C1301 C1285 1.349 . S
C1301 H1293 0.950 . S
C1301 C1299 1.327 . S
C1302 C1290 1.349 . S
C1302 H1296 0.950 . S
C1302 C1303 1.327 . S
C1303 H1297 0.950 . S
C1303 C1302 1.327 . S
C1303 C1307 1.429 . S
C1304 C1287 1.574 . S
C1304 H1298 0.949 . S
C1304 C1308 1.368 . S
C1305 C1286 1.429 . S
C1305 C1299 1.429 . S
C1305 C1306 1.523 . S
C1306 C1287 1.368 . S
C1306 C1300 1.368 . S
C1306 C1305 1.523 . S
C1307 C1291 1.429 . S
C1307 C1303 1.429 . S
C1307 C1308 1.523 . S
C1308 C1292 1.368 . S
C1308 C1304 1.368 . S
C1308 C1307 1.523 . S
H1309 C1284 0.950 . S
H1310 C1286 0.950 . S
H1311 C1287 0.949 . S
H1312 C1289 0.950 . S
H1313 C1291 0.960 . S
C1314 C1315 1.349 . S
C1314 C1316 1.327 . S
C1314 H1339 0.950 . S
C1315 C1314 1.349 . S
C1315 C1331 1.349 . S
C1316 C1314 1.327 . S
C1316 C1335 1.429 . S
C1316 H1340 0.950 . S
C1317 C1334 1.574 . S
C1317 C1336 1.368 . S
C1317 H1341 0.949 . S
H1318 C1322 0.949 . S
C1319 C1320 1.349 . S
C1319 C1321 1.327 . S
C1319 H1342 0.950 . S
C1320 C1319 1.349 . S
C1320 C1332 1.349 . S
C1321 C1319 1.327 . S
C1321 C1337 1.429 . S
C1321 H1343 0.950 . S
C1322 H1318 0.949 . S
C1322 C1330 1.574 . S
C1322 C1338 1.368 . S
H1323 C1331 0.950 . S
H1324 C1329 0.950 . S
H1325 C1330 0.949 . S
H1326 C1332 0.950 . S
H1327 C1333 0.950 . S
H1328 C1334 0.949 . S
C1329 H1324 0.950 . S
C1329 C1331 1.327 . S
C1329 C1335 1.429 . S
C1330 C1322 1.574 . S
C1330 H1325 0.949 . S
C1330 C1336 1.368 . S
C1331 C1315 1.349 . S
C1331 H1323 0.950 . S
C1331 C1329 1.327 . S
C1332 C1320 1.349 . S
C1332 H1326 0.950 . S
C1332 C1333 1.327 . S
C1333 H1327 0.950 . S
C1333 C1332 1.327 . S
C1333 C1337 1.429 . S
C1334 C1317 1.574 . S
C1334 H1328 0.949 . S
C1334 C1338 1.368 . S
C1335 C1316 1.429 . S
C1335 C1329 1.429 . S
C1335 C1336 1.523 . S
C1336 C1317 1.368 . S
C1336 C1330 1.368 . S
C1336 C1335 1.523 . S
C1337 C1321 1.429 . S
C1337 C1333 1.429 . S
C1337 C1338 1.523 . S
C1338 C1322 1.368 . S
C1338 C1334 1.368 . S
C1338 C1337 1.523 . S
H1339 C1314 0.950 . S
H1340 C1316 0.950 . S
H1341 C1317 0.949 . S
H1342 C1319 0.950 . S
H1343 C1321 0.950 . S
C1344 C1345 1.349 . S
C1344 C1346 1.327 . S
C1344 H1369 0.950 . S
C1345 C1344 1.349 . S
C1345 C1361 1.349 . S
C1346 C1344 1.327 . S
C1346 C1365 1.429 . S
C1346 H1370 0.950 . S
C1347 C1364 1.574 . S
C1347 C1366 1.368 . S
C1347 H1371 0.949 . S
H1348 C1352 0.949 . S
C1349 C1350 1.349 . S
C1349 C1351 1.327 . S
C1349 H1372 0.950 . S
C1350 C1349 1.349 . S
C1350 C1362 1.349 . S
C1351 C1349 1.327 . S
C1351 C1367 1.429 . S
C1351 H1373 0.950 . S
C1352 H1348 0.949 . S
C1352 C1360 1.574 . S
C1352 C1368 1.368 . S
H1353 C1361 0.950 . S
H1354 C1359 0.950 . S
H1355 C1360 0.949 . S
H1356 C1362 0.950 . S
H1357 C1363 0.950 . S
H1358 C1364 0.949 . S
C1359 H1354 0.950 . S
C1359 C1361 1.327 . S
C1359 C1365 1.429 . S
C1360 C1352 1.574 . S
C1360 H1355 0.949 . S
C1360 C1366 1.368 . S
C1361 C1345 1.349 . S
C1361 H1353 0.950 . S
C1361 C1359 1.327 . S
C1362 C1350 1.349 . S
C1362 H1356 0.950 . S
C1362 C1363 1.327 . S
C1363 H1357 0.950 . S
C1363 C1362 1.327 . S
C1363 C1367 1.429 . S
C1364 C1347 1.574 . S
C1364 H1358 0.949 . S
C1364 C1368 1.368 . S
C1365 C1346 1.429 . S
C1365 C1359 1.429 . S
C1365 C1366 1.523 . S
C1366 C1347 1.368 . S
C1366 C1360 1.368 . S
C1366 C1365 1.523 . S
C1367 C1351 1.429 . S
C1367 C1363 1.429 . S
C1367 C1368 1.523 . S
C1368 C1352 1.368 . S
C1368 C1364 1.368 . S
C1368 C1367 1.523 . S
H1369 C1344 0.950 . S
H1370 C1346 0.950 . S
H1371 C1347 0.949 . S
H1372 C1349 0.950 . S
H1373 C1351 0.950 . S
C1374 C1375 1.349 . S
C1374 C1376 1.327 . S
C1374 H1399 0.950 . S
C1375 C1374 1.349 . S
C1375 C1391 1.349 . S
C1376 C1374 1.327 . S
C1376 C1395 1.429 . S
C1376 H1400 0.950 . S
C1377 C1394 1.574 . S
C1377 C1396 1.368 . S
C1377 H1401 0.949 . S
H1378 C1382 0.949 . S
C1379 C1380 1.349 . S
C1379 C1381 1.327 . S
C1379 H1402 0.950 . S
C1380 C1379 1.349 . S
C1380 C1392 1.349 . S
C1381 C1379 1.327 . S
C1381 C1397 1.429 . S
C1381 H1403 0.950 . S
C1382 H1378 0.949 . S
C1382 C1390 1.574 . S
C1382 C1398 1.368 . S
H1383 C1391 0.950 . S
H1384 C1389 0.950 . S
H1385 C1390 0.949 . S
H1386 C1392 0.950 . S
H1387 C1393 0.950 . S
H1388 C1394 0.949 . S
C1389 H1384 0.950 . S
C1389 C1391 1.327 . S
C1389 C1395 1.429 . S
C1390 C1382 1.574 . S
C1390 H1385 0.949 . S
C1390 C1396 1.368 . S
C1391 C1375 1.349 . S
C1391 H1383 0.950 . S
C1391 C1389 1.327 . S
C1392 C1380 1.349 . S
C1392 H1386 0.950 . S
C1392 C1393 1.327 . S
C1393 H1387 0.950 . S
C1393 C1392 1.327 . S
C1393 C1397 1.429 . S
C1394 C1377 1.574 . S
C1394 H1388 0.949 . S
C1394 C1398 1.368 . S
C1395 C1376 1.429 . S
C1395 C1389 1.429 . S
C1395 C1396 1.523 . S
C1396 C1377 1.368 . S
C1396 C1390 1.368 . S
C1396 C1395 1.523 . S
C1397 C1381 1.429 . S
C1397 C1393 1.429 . S
C1397 C1398 1.523 . S
C1398 C1382 1.368 . S
C1398 C1394 1.368 . S
C1398 C1397 1.523 . S
H1399 C1374 0.950 . S
H1400 C1376 0.950 . S
H1401 C1377 0.949 . S
H1402 C1379 0.950 . S
H1403 C1381 0.950 . S
C1404 C1405 1.349 . S
C1404 C1406 1.327 . S
C1404 H1429 0.950 . S
C1405 C1404 1.349 . S
C1405 C1421 1.349 . S
C1406 C1404 1.327 . S
C1406 C1425 1.429 . S
C1406 H1430 0.950 . S
C1407 C1424 1.574 . S
C1407 C1426 1.368 . S
C1407 H1431 0.949 . S
H1408 C1412 0.949 . S
C1409 C1410 1.349 . S
C1409 C1411 1.327 . S
C1409 H1432 0.950 . S
C1410 C1409 1.349 . S
C1410 C1422 1.349 . S
C1411 C1409 1.327 . S
C1411 C1427 1.429 . S
C1411 H1433 0.950 . S
C1412 H1408 0.949 . S
C1412 C1420 1.574 . S
C1412 C1428 1.368 . S
H1413 C1421 0.950 . S
H1414 C1419 0.950 . S
H1415 C1420 0.949 . S
H1416 C1422 0.950 . S
H1417 C1423 0.950 . S
H1418 C1424 0.949 . S
C1419 H1414 0.950 . S
C1419 C1421 1.327 . S
C1419 C1425 1.429 . S
C1420 C1412 1.574 . S
C1420 H1415 0.949 . S
C1420 C1426 1.368 . S
C1421 C1405 1.349 . S
C1421 H1413 0.950 . S
C1421 C1419 1.327 . S
C1422 C1410 1.349 . S
C1422 H1416 0.950 . S
C1422 C1423 1.327 . S
C1423 H1417 0.950 . S
C1423 C1422 1.327 . S
C1423 C1427 1.429 . S
C1424 C1407 1.574 . S
C1424 H1418 0.949 . S
C1424 C1428 1.368 . S
C1425 C1406 1.429 . S
C1425 C1419 1.429 . S
C1425 C1426 1.523 . S
C1426 C1407 1.368 . S
C1426 C1420 1.368 . S
C1426 C1425 1.523 . S
C1427 C1411 1.429 . S
C1427 C1423 1.429 . S
C1427 C1428 1.523 . S
C1428 C1412 1.368 . S
C1428 C1424 1.368 . S
C1428 C1427 1.523 . S
H1429 C1404 0.950 . S
H1430 C1406 0.950 . S
H1431 C1407 0.949 . S
H1432 C1409 0.950 . S
H1433 C1411 0.950 . S
C1434 C1435 1.349 . S
C1434 C1436 1.327 . S
C1434 H1459 0.950 . S
C1435 C1434 1.349 . S
C1435 C1451 1.349 . S
C1436 C1434 1.327 . S
C1436 C1455 1.429 . S
C1436 H1460 0.950 . S
C1437 C1454 1.574 . S
C1437 C1456 1.368 . S
C1437 H1461 0.949 . S
H1438 C1442 0.949 . S
C1439 C1440 1.349 . S
C1439 C1441 1.327 . S
C1439 H1462 0.950 . S
C1440 C1439 1.349 . S
C1440 C1452 1.349 . S
C1441 C1439 1.327 . S
C1441 C1457 1.429 . S
C1441 H1463 0.950 . S
C1442 H1438 0.949 . S
C1442 C1450 1.574 . S
C1442 C1458 1.368 . S
H1443 C1451 0.950 . S
H1444 C1449 0.950 . S
H1445 C1450 0.949 . S
H1446 C1452 0.950 . S
H1447 C1453 0.950 . S
H1448 C1454 0.949 . S
C1449 H1444 0.950 . S
C1449 C1451 1.327 . S
C1449 C1455 1.429 . S
C1450 C1442 1.574 . S
C1450 H1445 0.949 . S
C1450 C1456 1.368 . S
C1451 C1435 1.349 . S
C1451 H1443 0.950 . S
C1451 C1449 1.327 . S
C1452 C1440 1.349 . S
C1452 H1446 0.950 . S
C1452 C1453 1.327 . S
C1453 H1447 0.950 . S
C1453 C1452 1.327 . S
C1453 C1457 1.429 . S
C1454 C1437 1.574 . S
C1454 H1448 0.949 . S
C1454 C1458 1.368 . S
C1455 C1436 1.429 . S
C1455 C1449 1.429 . S
C1455 C1456 1.523 . S
C1456 C1437 1.368 . S
C1456 C1450 1.368 . S
C1456 C1455 1.523 . S
C1457 C1441 1.429 . S
C1457 C1453 1.429 . S
C1457 C1458 1.523 . S
C1458 C1442 1.368 . S
C1458 C1454 1.368 . S
C1458 C1457 1.523 . S
H1459 C1434 0.950 . S
H1460 C1436 0.950 . S
H1461 C1437 0.949 . S
H1462 C1439 0.950 . S
H1463 C1441 0.950 . S
C1464 C1465 1.349 . S
C1464 C1466 1.327 . S
C1464 H1489 0.950 . S
C1465 C1464 1.349 . S
C1465 C1481 1.349 . S
C1466 C1464 1.327 . S
C1466 C1485 1.429 . S
C1466 H1490 0.950 . S
C1467 C1484 1.574 . S
C1467 C1486 1.368 . S
C1467 H1491 0.949 . S
H1468 C1472 0.949 . S
C1469 C1470 1.349 . S
C1469 C1471 1.327 . S
C1469 H1492 0.950 . S
C1470 C1469 1.349 . S
C1470 C1482 1.349 . S
C1471 C1469 1.327 . S
C1471 C1487 1.429 . S
C1471 H1493 0.950 . S
C1472 H1468 0.949 . S
C1472 C1480 1.574 . S
C1472 C1488 1.368 . S
H1473 C1481 0.950 . S
H1474 C1479 0.950 . S
H1475 C1480 0.949 . S
H1476 C1482 0.950 . S
H1477 C1483 0.950 . S
H1478 C1484 0.949 . S
C1479 H1474 0.950 . S
C1479 C1481 1.327 . S
C1479 C1485 1.429 . S
C1480 C1472 1.574 . S
C1480 H1475 0.949 . S
C1480 C1486 1.368 . S
C1481 C1465 1.349 . S
C1481 H1473 0.950 . S
C1481 C1479 1.327 . S
C1482 C1470 1.349 . S
C1482 H1476 0.950 . S
C1482 C1483 1.327 . S
C1483 H1477 0.950 . S
C1483 C1482 1.327 . S
C1483 C1487 1.429 . S
C1484 C1467 1.574 . S
C1484 H1478 0.949 . S
C1484 C1488 1.368 . S
C1485 C1466 1.429 . S
C1485 C1479 1.429 . S
C1485 C1486 1.523 . S
C1486 C1467 1.368 . S
C1486 C1480 1.368 . S
C1486 C1485 1.523 . S
C1487 C1471 1.429 . S
C1487 C1483 1.429 . S
C1487 C1488 1.523 . S
C1488 C1472 1.368 . S
C1488 C1484 1.368 . S
C1488 C1487 1.523 . S
H1489 C1464 0.950 . S
H1490 C1466 0.950 . S
H1491 C1467 0.949 . S
H1492 C1469 0.950 . S
H1493 C1471 0.950 . S
C1494 C1495 1.349 . S
C1494 C1496 1.327 . S
C1494 H1519 0.950 . S
C1495 C1494 1.349 . S
C1495 C1511 1.349 . S
C1496 C1494 1.327 . S
C1496 C1515 1.429 . S
C1496 H1520 0.950 . S
C1497 C1514 1.574 . S
C1497 C1516 1.368 . S
C1497 H1521 0.949 . S
H1498 C1502 0.949 . S
C1499 C1500 1.349 . S
C1499 C1501 1.327 . S
C1499 H1522 0.950 . S
C1500 C1499 1.349 . S
C1500 C1512 1.349 . S
C1501 C1499 1.327 . S
C1501 C1517 1.429 . S
C1501 H1523 0.950 . S
C1502 H1498 0.949 . S
C1502 C1510 1.574 . S
C1502 C1518 1.368 . S
H1503 C1511 0.950 . S
H1504 C1509 0.950 . S
H1505 C1510 0.949 . S
H1506 C1512 0.950 . S
H1507 C1513 0.950 . S
H1508 C1514 0.949 . S
C1509 H1504 0.950 . S
C1509 C1511 1.327 . S
C1509 C1515 1.429 . S
C1510 C1502 1.574 . S
C1510 H1505 0.949 . S
C1510 C1516 1.368 . S
C1511 C1495 1.349 . S
C1511 H1503 0.950 . S
C1511 C1509 1.327 . S
C1512 C1500 1.349 . S
C1512 H1506 0.950 . S
C1512 C1513 1.327 . S
C1513 H1507 0.950 . S
C1513 C1512 1.327 . S
C1513 C1517 1.429 . S
C1514 C1497 1.574 . S
C1514 H1508 0.949 . S
C1514 C1518 1.368 . S
C1515 C1496 1.429 . S
C1515 C1509 1.429 . S
C1515 C1516 1.523 . S
C1516 C1497 1.368 . S
C1516 C1510 1.368 . S
C1516 C1515 1.523 . S
C1517 C1501 1.429 . S
C1517 C1513 1.429 . S
C1517 C1518 1.523 . S
C1518 C1502 1.368 . S
C1518 C1514 1.368 . S
C1518 C1517 1.523 . S
H1519 C1494 0.950 . S
H1520 C1496 0.950 . S
H1521 C1497 0.949 . S
H1522 C1499 0.950 . S
H1523 C1501 0.950 . S
C1524 C1525 1.349 . S
C1524 C1526 1.327 . S
C1524 H1549 0.950 . S
C1525 C1524 1.349 . S
C1525 C1541 1.349 . S
C1526 C1524 1.327 . S
C1526 C1545 1.429 . S
C1526 H1550 0.950 . S
C1527 C1544 1.574 . S
C1527 C1546 1.368 . S
C1527 H1551 0.949 . S
H1528 C1532 0.949 . S
C1529 C1530 1.349 . S
C1529 C1531 1.327 . S
C1529 H1552 0.950 . S
C1530 C1529 1.349 . S
C1530 C1542 1.349 . S
C1531 C1529 1.327 . S
C1531 C1547 1.429 . S
C1531 H1553 0.950 . S
C1532 H1528 0.949 . S
C1532 C1540 1.574 . S
C1532 C1548 1.368 . S
H1533 C1541 0.950 . S
H1534 C1539 0.950 . S
H1535 C1540 0.949 . S
H1536 C1542 0.950 . S
H1537 C1543 0.950 . S
H1538 C1544 0.949 . S
C1539 H1534 0.950 . S
C1539 C1541 1.327 . S
C1539 C1545 1.429 . S
C1540 C1532 1.574 . S
C1540 H1535 0.949 . S
C1540 C1546 1.368 . S
C1541 C1525 1.349 . S
C1541 H1533 0.950 . S
C1541 C1539 1.327 . S
C1542 C1530 1.349 . S
C1542 H1536 0.950 . S
C1542 C1543 1.327 . S
C1543 H1537 0.950 . S
C1543 C1542 1.327 . S
C1543 C1547 1.429 . S
C1544 C1527 1.574 . S
C1544 H1538 0.949 . S
C1544 C1548 1.368 . S
C1545 C1526 1.429 . S
C1545 C1539 1.429 . S
C1545 C1546 1.523 . S
C1546 C1527 1.368 . S
C1546 C1540 1.368 . S
C1546 C1545 1.523 . S
C1547 C1531 1.429 . S
C1547 C1543 1.429 . S
C1547 C1548 1.523 . S
C1548 C1532 1.368 . S
C1548 C1544 1.368 . S
C1548 C1547 1.523 . S
H1549 C1524 0.950 . S
H1550 C1526 0.950 . S
H1551 C1527 0.949 . S
H1552 C1529 0.950 . S
H1553 C1531 0.950 . S
C1554 C1555 1.349 . S
C1554 C1556 1.327 . S
C1554 H1579 0.950 . S
C1555 C1554 1.349 . S
C1555 C1571 1.349 . S
C1556 C1554 1.327 . S
C1556 C1575 1.429 . S
C1556 H1580 0.950 . S
C1557 C1574 1.574 . S
C1557 C1576 1.368 . S
C1557 H1581 0.949 . S
H1558 C1562 0.949 . S
C1559 C1560 1.349 . S
C1559 C1561 1.327 . S
C1559 H1582 0.950 . S
C1560 C1559 1.349 . S
C1560 C1572 1.349 . S
C1561 C1559 1.327 . S
C1561 C1577 1.429 . S
C1561 H1583 0.950 . S
C1562 H1558 0.949 . S
C1562 C1570 1.574 . S
C1562 C1578 1.368 . S
H1563 C1571 0.950 . S
H1564 C1569 0.950 . S
H1565 C1570 0.949 . S
H1566 C1572 0.950 . S
H1567 C1573 0.950 . S
H1568 C1574 0.949 . S
C1569 H1564 0.950 . S
C1569 C1571 1.327 . S
C1569 C1575 1.429 . S
C1570 C1562 1.574 . S
C1570 H1565 0.949 . S
C1570 C1576 1.368 . S
C1571 C1555 1.349 . S
C1571 H1563 0.950 . S
C1571 C1569 1.327 . S
C1572 C1560 1.349 . S
C1572 H1566 0.950 . S
C1572 C1573 1.327 . S
C1573 H1567 0.950 . S
C1573 C1572 1.327 . S
C1573 C1577 1.429 . S
C1574 C1557 1.574 . S
C1574 H1568 0.949 . S
C1574 C1578 1.368 . S
C1575 C1556 1.429 . S
C1575 C1569 1.429 . S
C1575 C1576 1.523 . S
C1576 C1557 1.368 . S
C1576 C1570 1.368 . S
C1576 C1575 1.523 . S
C1577 C1561 1.429 . S
C1577 C1573 1.429 . S
C1577 C1578 1.523 . S
C1578 C1562 1.368 . S
C1578 C1574 1.368 . S
C1578 C1577 1.523 . S
H1579 C1554 0.950 . S
H1580 C1556 0.950 . S
H1581 C1557 0.949 . S
H1582 C1559 0.950 . S
H1583 C1561 0.950 . S
C1584 C1585 1.349 . S
C1584 C1586 1.327 . S
C1584 H1609 0.950 . S
C1585 C1584 1.349 . S
C1585 C1601 1.349 . S
C1586 C1584 1.327 . S
C1586 C1605 1.429 . S
C1586 H1610 0.950 . S
C1587 C1604 1.574 1_655 S
C1587 C1606 1.368 . S
C1587 H1611 0.949 . S
H1588 C1592 0.949 . S
C1589 C1590 1.349 . S
C1589 C1591 1.327 . S
C1589 H1612 0.950 . S
C1590 C1589 1.349 . S
C1590 C1602 1.349 . S
C1591 C1589 1.327 . S
C1591 C1607 1.429 . S
C1591 H1613 0.950 . S
C1592 H1588 0.949 . S
C1592 C1600 1.574 1_455 S
C1592 C1608 1.368 . S
H1593 C1601 0.950 . S
H1594 C1599 0.950 . S
H1595 C1600 0.949 . S
H1596 C1602 0.950 . S
H1597 C1603 0.950 . S
H1598 C1604 0.949 . S
C1599 H1594 0.950 . S
C1599 C1601 1.327 . S
C1599 C1605 1.429 . S
C1600 C1592 1.574 1_655 S
C1600 H1595 0.949 . S
C1600 C1606 1.368 . S
C1601 C1585 1.349 . S
C1601 H1593 0.950 . S
C1601 C1599 1.327 . S
C1602 C1590 1.349 . S
C1602 H1596 0.950 . S
C1602 C1603 1.327 . S
C1603 H1597 0.950 . S
C1603 C1602 1.327 . S
C1603 C1607 1.429 . S
C1604 C1587 1.574 1_455 S
C1604 H1598 0.949 . S
C1604 C1608 1.368 . S
C1605 C1586 1.429 . S
C1605 C1599 1.429 . S
C1605 C1606 1.523 . S
C1606 C1587 1.368 . S
C1606 C1600 1.368 . S
C1606 C1605 1.523 . S
C1607 C1591 1.429 . S
C1607 C1603 1.429 . S
C1607 C1608 1.523 . S
C1608 C1592 1.368 . S
C1608 C1604 1.368 . S
C1608 C1607 1.523 . S
H1609 C1584 0.950 . S
H1610 C1586 0.950 . S
H1611 C1587 0.949 . S
H1612 C1589 0.950 . S
H1613 C1591 0.950 . S
C1614 C1615 1.349 . S
C1614 C1616 1.327 . S
C1614 H1639 0.950 . S
C1615 C1614 1.349 . S
C1615 C1631 1.349 . S
C1616 C1614 1.327 . S
C1616 C1635 1.429 . S
C1616 H1640 0.950 . S
C1617 C1634 1.574 . S
C1617 C1636 1.368 . S
C1617 H1641 0.949 . S
H1618 C1622 0.949 . S
C1619 C1620 1.349 . S
C1619 C1621 1.327 . S
C1619 H1642 0.950 . S
C1620 C1619 1.349 . S
C1620 C1632 1.349 . S
C1621 C1619 1.327 . S
C1621 C1637 1.429 . S
C1621 H1643 0.950 . S
C1622 H1618 0.949 . S
C1622 C1630 1.574 . S
C1622 C1638 1.368 . S
H1623 C1631 0.950 . S
H1624 C1629 0.950 . S
H1625 C1630 0.949 . S
H1626 C1632 0.950 . S
H1627 C1633 0.950 . S
H1628 C1634 0.949 . S
C1629 H1624 0.950 . S
C1629 C1631 1.327 . S
C1629 C1635 1.429 . S
C1630 C1622 1.574 . S
C1630 H1625 0.949 . S
C1630 C1636 1.368 . S
C1631 C1615 1.349 . S
C1631 H1623 0.950 . S
C1631 C1629 1.327 . S
C1632 C1620 1.349 . S
C1632 H1626 0.950 . S
C1632 C1633 1.327 . S
C1633 H1627 0.950 . S
C1633 C1632 1.327 . S
C1633 C1637 1.429 . S
C1634 C1617 1.574 . S
C1634 H1628 0.949 . S
C1634 C1638 1.368 . S
C1635 C1616 1.429 . S
C1635 C1629 1.429 . S
C1635 C1636 1.523 . S
C1636 C1617 1.368 . S
C1636 C1630 1.368 . S
C1636 C1635 1.523 . S
C1637 C1621 1.429 . S
C1637 C1633 1.429 . S
C1637 C1638 1.523 . S
C1638 C1622 1.368 . S
C1638 C1634 1.368 . S
C1638 C1637 1.523 . S
H1639 C1614 0.950 . S
H1640 C1616 0.950 . S
H1641 C1617 0.949 . S
H1642 C1619 0.950 . S
H1643 C1621 0.950 . S
C1644 C1645 1.349 . S
C1644 C1646 1.327 . S
C1644 H1669 0.950 . S
C1645 C1644 1.349 . S
C1645 C1661 1.349 . S
C1646 C1644 1.327 . S
C1646 C1665 1.429 . S
C1646 H1670 0.950 . S
C1647 C1664 1.574 1_565 S
C1647 C1666 1.368 . S
C1647 H1671 0.949 . S
H1648 C1652 0.949 . S
C1649 C1650 1.349 . S
C1649 C1651 1.327 . S
C1649 H1672 0.950 . S
C1650 C1649 1.349 . S
C1650 C1662 1.349 . S
C1651 C1649 1.327 . S
C1651 C1667 1.429 . S
C1651 H1673 0.950 . S
C1652 H1648 0.949 . S
C1652 C1660 1.574 1_545 S
C1652 C1668 1.368 . S
H1653 C1661 0.950 . S
H1654 C1659 0.950 . S
H1655 C1660 0.949 . S
H1656 C1662 0.950 . S
H1657 C1663 0.950 . S
H1658 C1664 0.949 . S
C1659 H1654 0.950 . S
C1659 C1661 1.327 . S
C1659 C1665 1.429 . S
C1660 C1652 1.574 1_565 S
C1660 H1655 0.949 . S
C1660 C1666 1.368 . S
C1661 C1645 1.349 . S
C1661 H1653 0.950 . S
C1661 C1659 1.327 . S
C1662 C1650 1.349 . S
C1662 H1656 0.950 . S
C1662 C1663 1.327 . S
C1663 H1657 0.950 . S
C1663 C1662 1.327 . S
C1663 C1667 1.429 . S
C1664 C1647 1.574 1_545 S
C1664 H1658 0.949 . S
C1664 C1668 1.368 . S
C1665 C1646 1.429 . S
C1665 C1659 1.429 . S
C1665 C1666 1.523 . S
C1666 C1647 1.368 . S
C1666 C1660 1.368 . S
C1666 C1665 1.523 . S
C1667 C1651 1.429 . S
C1667 C1663 1.429 . S
C1667 C1668 1.523 . S
C1668 C1652 1.368 . S
C1668 C1664 1.368 . S
C1668 C1667 1.523 . S
H1669 C1644 0.950 . S
H1670 C1646 0.950 . S
H1671 C1647 0.949 . S
H1672 C1649 0.950 . S
H1673 C1651 0.950 . S
C1674 C1675 1.349 . S
C1674 C1676 1.327 . S
C1674 H1699 0.950 . S
C1675 C1674 1.349 . S
C1675 C1691 1.349 . S
C1676 C1674 1.327 . S
C1676 C1695 1.429 . S
C1676 H1700 0.950 . S
C1677 C1694 1.574 1_565 S
C1677 C1696 1.368 . S
C1677 H1701 0.949 . S
H1678 C1682 0.949 . S
C1679 C1680 1.349 . S
C1679 C1681 1.327 . S
C1679 H1702 0.950 . S
C1680 C1679 1.349 . S
C1680 C1692 1.349 . S
C1681 C1679 1.327 . S
C1681 C1697 1.429 . S
C1681 H1703 0.950 . S
C1682 H1678 0.949 . S
C1682 C1690 1.574 1_545 S
C1682 C1698 1.368 . S
H1683 C1691 0.950 . S
H1684 C1689 0.950 . S
H1685 C1690 0.949 . S
H1686 C1692 0.950 . S
H1687 C1693 0.950 . S
H1688 C1694 0.949 . S
C1689 H1684 0.950 . S
C1689 C1691 1.327 . S
C1689 C1695 1.429 . S
C1690 C1682 1.574 1_565 S
C1690 H1685 0.949 . S
C1690 C1696 1.368 . S
C1691 C1675 1.349 . S
C1691 H1683 0.950 . S
C1691 C1689 1.327 . S
C1692 C1680 1.349 . S
C1692 H1686 0.950 . S
C1692 C1693 1.327 . S
C1693 H1687 0.950 . S
C1693 C1692 1.327 . S
C1693 C1697 1.429 . S
C1694 C1677 1.574 1_545 S
C1694 H1688 0.949 . S
C1694 C1698 1.368 . S
C1695 C1676 1.429 . S
C1695 C1689 1.429 . S
C1695 C1696 1.523 . S
C1696 C1677 1.368 . S
C1696 C1690 1.368 . S
C1696 C1695 1.523 . S
C1697 C1681 1.429 . S
C1697 C1693 1.429 . S
C1697 C1698 1.523 . S
C1698 C1682 1.368 . S
C1698 C1694 1.368 . S
C1698 C1697 1.523 . S
H1699 C1674 0.950 . S
H1700 C1676 0.950 . S
H1701 C1677 0.949 . S
H1702 C1679 0.950 . S
H1703 C1681 0.950 . S
C1704 C1705 1.349 . S
C1704 C1706 1.327 . S
C1704 H1729 0.950 . S
C1705 C1704 1.349 . S
C1705 C1721 1.349 . S
C1706 C1704 1.327 . S
C1706 C1725 1.429 . S
C1706 H1730 0.950 . S
C1707 C1724 1.574 1_655 S
C1707 C1726 1.368 . S
C1707 H1731 0.949 . S
H1708 C1712 0.949 . S
C1709 C1710 1.349 . S
C1709 C1711 1.327 . S
C1709 H1732 0.950 . S
C1710 C1709 1.349 . S
C1710 C1722 1.349 . S
C1711 C1709 1.327 . S
C1711 C1727 1.429 . S
C1711 H1733 0.950 . S
C1712 H1708 0.949 . S
C1712 C1720 1.574 1_455 S
C1712 C1728 1.368 . S
H1713 C1721 0.950 . S
H1714 C1719 0.950 . S
H1715 C1720 0.949 . S
H1716 C1722 0.950 . S
H1717 C1723 0.950 . S
H1718 C1724 0.949 . S
C1719 H1714 0.950 . S
C1719 C1721 1.327 . S
C1719 C1725 1.429 . S
C1720 C1712 1.574 1_655 S
C1720 H1715 0.949 . S
C1720 C1726 1.368 . S
C1721 C1705 1.349 . S
C1721 H1713 0.950 . S
C1721 C1719 1.327 . S
C1722 C1710 1.349 . S
C1722 H1716 0.950 . S
C1722 C1723 1.327 . S
C1723 H1717 0.950 . S
C1723 C1722 1.327 . S
C1723 C1727 1.429 . S
C1724 C1707 1.574 1_455 S
C1724 H1718 0.949 . S
C1724 C1728 1.368 . S
C1725 C1706 1.429 . S
C1725 C1719 1.429 . S
C1725 C1726 1.523 . S
C1726 C1707 1.368 . S
C1726 C1720 1.368 . S
C1726 C1725 1.523 . S
C1727 C1711 1.429 . S
C1727 C1723 1.429 . S
C1727 C1728 1.523 . S
C1728 C1712 1.368 . S
C1728 C1724 1.368 . S
C1728 C1727 1.523 . S
H1729 C1704 0.950 . S
H1730 C1706 0.950 . S
H1731 C1707 0.949 . S
H1732 C1709 0.950 . S
H1733 C1711 0.950 . S
C1734 C1735 1.349 . S
C1734 C1736 1.327 . S
C1734 H1759 0.950 . S
C1735 C1734 1.349 . S
C1735 C1751 1.349 . S
C1736 C1734 1.327 . S
C1736 C1755 1.429 . S
C1736 H1760 0.950 . S
C1737 C1754 1.574 . S
C1737 C1756 1.368 . S
C1737 H1761 0.949 . S
H1738 C1742 0.949 . S
C1739 C1740 1.349 . S
C1739 C1741 1.327 . S
C1739 H1762 0.950 . S
C1740 C1739 1.349 . S
C1740 C1752 1.349 . S
C1741 C1739 1.327 . S
C1741 C1757 1.429 . S
C1741 H1763 0.950 . S
C1742 H1738 0.949 . S
C1742 C1750 1.574 . S
C1742 C1758 1.368 . S
H1743 C1751 0.950 . S
H1744 C1749 0.950 . S
H1745 C1750 0.949 . S
H1746 C1752 0.950 . S
H1747 C1753 0.950 . S
H1748 C1754 0.949 . S
C1749 H1744 0.950 . S
C1749 C1751 1.327 . S
C1749 C1755 1.429 . S
C1750 C1742 1.574 . S
C1750 H1745 0.949 . S
C1750 C1756 1.368 . S
C1751 C1735 1.349 . S
C1751 H1743 0.950 . S
C1751 C1749 1.327 . S
C1752 C1740 1.349 . S
C1752 H1746 0.950 . S
C1752 C1753 1.327 . S
C1753 H1747 0.950 . S
C1753 C1752 1.327 . S
C1753 C1757 1.429 . S
C1754 C1737 1.574 . S
C1754 H1748 0.949 . S
C1754 C1758 1.368 . S
C1755 C1736 1.429 . S
C1755 C1749 1.429 . S
C1755 C1756 1.523 . S
C1756 C1737 1.368 . S
C1756 C1750 1.368 . S
C1756 C1755 1.523 . S
C1757 C1741 1.429 . S
C1757 C1753 1.429 . S
C1757 C1758 1.523 . S
C1758 C1742 1.368 . S
C1758 C1754 1.368 . S
C1758 C1757 1.523 . S
H1759 C1734 0.950 . S
H1760 C1736 0.950 . S
H1761 C1737 0.949 . S
H1762 C1739 0.950 . S
H1763 C1741 0.950 . S
C1764 C1765 1.349 . S
C1764 C1766 1.327 . S
C1764 H1789 0.950 . S
C1765 C1764 1.349 . S
C1765 C1781 1.349 . S
C1766 C1764 1.327 . S
C1766 C1785 1.429 . S
C1766 H1790 0.950 . S
C1767 C1784 1.574 . S
C1767 C1786 1.368 . S
C1767 H1791 0.949 . S
H1768 C1772 0.949 . S
C1769 C1770 1.349 . S
C1769 C1771 1.327 . S
C1769 H1792 0.950 . S
C1770 C1769 1.349 . S
C1770 C1782 1.349 . S
C1771 C1769 1.327 . S
C1771 C1787 1.429 . S
C1771 H1793 0.950 . S
C1772 H1768 0.949 . S
C1772 C1780 1.574 . S
C1772 C1788 1.368 . S
H1773 C1781 0.950 . S
H1774 C1779 0.950 . S
H1775 C1780 0.949 . S
H1776 C1782 0.950 . S
H1777 C1783 0.950 . S
H1778 C1784 0.949 . S
C1779 H1774 0.950 . S
C1779 C1781 1.327 . S
C1779 C1785 1.429 . S
C1780 C1772 1.574 . S
C1780 H1775 0.949 . S
C1780 C1786 1.368 . S
C1781 C1765 1.349 . S
C1781 H1773 0.950 . S
C1781 C1779 1.327 . S
C1782 C1770 1.349 . S
C1782 H1776 0.950 . S
C1782 C1783 1.327 . S
C1783 H1777 0.950 . S
C1783 C1782 1.327 . S
C1783 C1787 1.429 . S
C1784 C1767 1.574 . S
C1784 H1778 0.949 . S
C1784 C1788 1.368 . S
C1785 C1766 1.429 . S
C1785 C1779 1.429 . S
C1785 C1786 1.523 . S
C1786 C1767 1.368 . S
C1786 C1780 1.368 . S
C1786 C1785 1.523 . S
C1787 C1771 1.429 . S
C1787 C1783 1.429 . S
C1787 C1788 1.523 . S
C1788 C1772 1.368 . S
C1788 C1784 1.368 . S
C1788 C1787 1.523 . S
H1789 C1764 0.950 . S
H1790 C1766 0.950 . S
H1791 C1767 0.949 . S
H1792 C1769 0.950 . S
H1793 C1771 0.950 . S
C1794 C1795 1.349 1_545 S
C1794 C1796 1.327 . S
C1794 H1819 0.950 . S
C1795 C1794 1.349 1_565 S
C1795 C1811 1.349 . S
C1796 C1794 1.327 . S
C1796 C1815 1.429 1_545 S
C1796 H1820 0.950 . S
C1797 C1814 1.574 . S
C1797 C1816 1.378 . S
C1797 H1821 0.949 . S
H1798 C1802 0.949 . S
C1799 C1800 1.349 1_565 S
C1799 C1801 1.327 . S
C1799 H1822 0.950 . S
C1800 C1799 1.349 1_545 S
C1800 C1812 1.349 . S
C1801 C1799 1.327 . S
C1801 C1817 1.429 1_565 S
C1801 H1823 0.950 . S
C1802 H1798 0.949 . S
C1802 C1810 1.574 . S
C1802 C1818 1.368 . S
H1803 C1811 0.950 . S
H1804 C1809 0.950 . S
H1805 C1810 0.949 . S
H1806 C1812 0.950 . S
H1807 C1813 0.950 . S
H1808 C1814 0.949 . S
C1809 H1804 0.950 . S
C1809 C1811 1.327 . S
C1809 C1815 1.429 . S
C1810 C1802 1.574 . S
C1810 H1805 0.949 . S
C1810 C1816 1.358 1_545 S
C1811 C1795 1.349 . S
C1811 H1803 0.950 . S
C1811 C1809 1.327 . S
C1812 C1800 1.349 . S
C1812 H1806 0.950 . S
C1812 C1813 1.327 . S
C1813 H1807 0.950 . S
C1813 C1812 1.327 . S
C1813 C1817 1.429 . S
C1814 C1797 1.574 . S
C1814 H1808 0.949 . S
C1814 C1818 1.368 1_565 S
C1815 C1796 1.429 1_565 S
C1815 C1809 1.429 . S
C1815 C1816 1.524 . S
C1816 C1797 1.378 . S
C1816 C1810 1.358 1_565 S
C1816 C1815 1.524 . S
C1817 C1801 1.429 1_545 S
C1817 C1813 1.429 . S
C1817 C1818 1.523 . S
C1818 C1802 1.368 . S
C1818 C1814 1.368 1_545 S
C1818 C1817 1.523 . S
H1819 C1794 0.950 . S
H1820 C1796 0.950 . S
H1821 C1797 0.949 . S
H1822 C1799 0.950 . S
H1823 C1801 0.950 . S
C1824 C1825 1.349 . S
C1824 C1826 1.327 . S
C1824 H1849 0.950 . S
C1825 C1824 1.349 . S
C1825 C1841 1.349 . S
C1826 C1824 1.327 . S
C1826 C1845 1.429 . S
C1826 H1850 0.950 . S
C1827 C1844 1.574 . S
C1827 C1846 1.368 1_455 S
C1827 H1851 0.949 . S
H1828 C1832 0.949 . S
C1829 C1830 1.349 . S
C1829 C1831 1.327 . S
C1829 H1852 0.950 . S
C1830 C1829 1.349 . S
C1830 C1842 1.373 . S
C1831 C1829 1.327 . S
C1831 C1847 1.429 . S
C1831 H1853 0.950 . S
C1832 H1828 0.949 . S
C1832 C1840 1.574 . S
C1832 C1848 1.357 1_655 S
H1833 C1841 0.965 . S
H1834 C1839 0.891 1_455 S
H1835 C1840 0.949 . S
H1836 C1842 0.918 1_655 S
H1837 C1843 0.954 . S
H1838 C1844 0.949 . S
C1839 H1834 0.891 1_655 S
C1839 C1841 1.330 . S
C1839 C1845 1.451 . S
C1840 C1832 1.574 . S
C1840 H1835 0.949 . S
C1840 C1846 1.368 . S
C1841 C1825 1.349 . S
C1841 H1833 0.965 . S
C1841 C1839 1.330 . S
C1842 C1830 1.373 . S
C1842 H1836 0.918 1_455 S
C1842 C1843 1.325 1_455 S
C1843 H1837 0.954 . S
C1843 C1842 1.325 1_655 S
C1843 C1847 1.425 1_655 S
C1844 C1827 1.574 . S
C1844 H1838 0.949 . S
C1844 C1848 1.379 . S
C1845 C1826 1.429 . S
C1845 C1839 1.451 . S
C1845 C1846 1.523 . S
C1846 C1827 1.368 1_655 S
C1846 C1840 1.368 . S
C1846 C1845 1.523 . S
C1847 C1831 1.429 . S
C1847 C1843 1.425 1_455 S
C1847 C1848 1.524 . S
C1848 C1832 1.357 1_455 S
C1848 C1844 1.379 . S
C1848 C1847 1.524 . S
H1849 C1824 0.950 . S
H1850 C1826 0.950 . S
H1851 C1827 0.949 . S
H1852 C1829 0.950 . S
H1853 C1831 0.950 . S
C1854 C1855 1.349 . S
C1854 C1856 1.327 . S
C1854 H1879 0.950 . S
C1855 C1854 1.349 . S
C1855 C1871 1.349 . S
C1856 C1854 1.327 . S
C1856 C1875 1.429 . S
C1856 H1880 0.950 . S
C1857 C1874 1.574 . S
C1857 C1876 1.368 . S
C1857 H1881 0.949 . S
H1858 C1862 0.949 . S
C1859 C1860 1.349 . S
C1859 C1861 1.327 . S
C1859 H1882 0.950 . S
C1860 C1859 1.349 . S
C1860 C1872 1.349 . S
C1861 C1859 1.327 . S
C1861 C1877 1.429 . S
C1861 H1883 0.950 . S
C1862 H1858 0.949 . S
C1862 C1870 1.574 . S
C1862 C1878 1.368 . S
H1863 C1871 0.950 . S
H1864 C1869 0.950 . S
H1865 C1870 0.949 . S
H1866 C1872 0.950 . S
H1867 C1873 0.950 . S
H1868 C1874 0.949 . S
C1869 H1864 0.950 . S
C1869 C1871 1.327 . S
C1869 C1875 1.429 . S
C1870 C1862 1.574 . S
C1870 H1865 0.949 . S
C1870 C1876 1.368 . S
C1871 C1855 1.349 . S
C1871 H1863 0.950 . S
C1871 C1869 1.327 . S
C1872 C1860 1.349 . S
C1872 H1866 0.950 . S
C1872 C1873 1.327 . S
C1873 H1867 0.950 . S
C1873 C1872 1.327 . S
C1873 C1877 1.429 . S
C1874 C1857 1.574 . S
C1874 H1868 0.949 . S
C1874 C1878 1.368 . S
C1875 C1856 1.429 . S
C1875 C1869 1.429 . S
C1875 C1876 1.523 . S
C1876 C1857 1.368 . S
C1876 C1870 1.368 . S
C1876 C1875 1.523 . S
C1877 C1861 1.429 . S
C1877 C1873 1.429 . S
C1877 C1878 1.523 . S
C1878 C1862 1.368 . S
C1878 C1874 1.368 . S
C1878 C1877 1.523 . S
H1879 C1854 0.950 . S
H1880 C1856 0.950 . S
H1881 C1857 0.949 . S
H1882 C1859 0.950 . S
H1883 C1861 0.950 . S
C1884 C1885 1.349 1_545 S
C1884 C1886 1.327 . S
C1884 H1909 0.950 . S
C1885 C1884 1.349 1_565 S
C1885 C1901 1.349 . S
C1886 C1884 1.327 . S
C1886 C1905 1.429 1_545 S
C1886 H1910 0.950 . S
C1887 C1904 1.574 . S
C1887 C1906 1.379 . S
C1887 H1911 0.949 . S
H1888 C1892 0.949 . S
C1889 C1890 1.349 1_565 S
C1889 C1891 1.327 . S
C1889 H1912 0.950 . S
C1890 C1889 1.349 1_545 S
C1890 C1902 1.349 . S
C1891 C1889 1.327 . S
C1891 C1907 1.429 1_565 S
C1891 H1913 0.950 . S
C1892 H1888 0.949 . S
C1892 C1900 1.574 . S
C1892 C1908 1.368 . S
H1893 C1901 0.950 . S
H1894 C1899 0.950 . S
H1895 C1900 0.949 . S
H1896 C1902 0.950 . S
H1897 C1903 0.950 . S
H1898 C1904 0.949 . S
C1899 H1894 0.950 . S
C1899 C1901 1.327 . S
C1899 C1905 1.429 . S
C1900 C1892 1.574 . S
C1900 H1895 0.949 . S
C1900 C1906 1.357 1_545 S
C1901 C1885 1.349 . S
C1901 H1893 0.950 . S
C1901 C1899 1.327 . S
C1902 C1890 1.349 . S
C1902 H1896 0.950 . S
C1902 C1903 1.327 . S
C1903 H1897 0.950 . S
C1903 C1902 1.327 . S
C1903 C1907 1.429 . S
C1904 C1887 1.574 . S
C1904 H1898 0.949 . S
C1904 C1908 1.368 1_565 S
C1905 C1886 1.429 1_565 S
C1905 C1899 1.429 . S
C1905 C1906 1.524 . S
C1906 C1887 1.379 . S
C1906 C1900 1.357 1_565 S
C1906 C1905 1.524 . S
C1907 C1891 1.429 1_545 S
C1907 C1903 1.429 . S
C1907 C1908 1.523 . S
C1908 C1892 1.368 . S
C1908 C1904 1.368 1_545 S
C1908 C1907 1.523 . S
H1909 C1884 0.950 . S
H1910 C1886 0.950 . S
H1911 C1887 0.949 . S
H1912 C1889 0.950 . S
H1913 C1891 0.950 . S
C1914 C1915 1.349 . S
C1914 C1916 1.327 . S
C1914 H1939 0.950 . S
C1915 C1914 1.349 . S
C1915 C1931 1.349 1_655 S
C1916 C1914 1.327 . S
C1916 C1935 1.429 . S
C1916 H1940 0.950 . S
C1917 C1934 1.574 . S
C1917 C1936 1.368 1_455 S
C1917 H1941 0.949 . S
H1918 C1922 0.949 . S
C1919 C1920 1.349 . S
C1919 C1921 1.327 . S
C1919 H1942 0.950 . S
C1920 C1919 1.349 . S
C1920 C1932 1.349 1_455 S
C1921 C1919 1.327 . S
C1921 C1937 1.429 . S
C1921 H1943 0.950 . S
C1922 H1918 0.949 . S
C1922 C1930 1.574 . S
C1922 C1938 1.352 1_655 S
H1923 C1931 0.950 . S
H1924 C1929 0.950 . S
H1925 C1930 0.949 . S
H1926 C1932 0.950 . S
H1927 C1933 0.950 . S
H1928 C1934 0.949 . S
C1929 H1924 0.950 . S
C1929 C1931 1.327 . S
C1929 C1935 1.429 1_455 S
C1930 C1922 1.574 . S
C1930 H1925 0.949 . S
C1930 C1936 1.368 . S
C1931 C1915 1.349 1_455 S
C1931 H1923 0.950 . S
C1931 C1929 1.327 . S
C1932 C1920 1.349 1_655 S
C1932 H1926 0.950 . S
C1932 C1933 1.327 . S
C1933 H1927 0.950 . S
C1933 C1932 1.327 . S
C1933 C1937 1.429 1_655 S
C1934 C1917 1.574 . S
C1934 H1928 0.949 . S
C1934 C1938 1.385 . S
C1935 C1916 1.429 . S
C1935 C1929 1.429 1_655 S
C1935 C1936 1.523 . S
C1936 C1917 1.368 1_655 S
C1936 C1930 1.368 . S
C1936 C1935 1.523 . S
C1937 C1921 1.429 . S
C1937 C1933 1.429 1_455 S
C1937 C1938 1.524 . S
C1938 C1922 1.352 1_455 S
C1938 C1934 1.385 . S
C1938 C1937 1.524 . S
H1939 C1914 0.950 . S
H1940 C1916 0.950 . S
H1941 C1917 0.949 . S
H1942 C1919 0.950 . S
H1943 C1921 0.950 . S
C1944 C1945 1.349 . S
C1944 C1946 1.327 . S
C1944 H1969 0.950 . S
C1945 C1944 1.349 . S
C1945 C1961 1.349 . S
C1946 C1944 1.327 . S
C1946 C1965 1.429 . S
C1946 H1970 0.950 . S
C1947 C1964 1.574 . S
C1947 C1966 1.368 . S
C1947 H1971 0.949 . S
H1948 C1952 0.949 . S
C1949 C1950 1.349 . S
C1949 C1951 1.327 . S
C1949 H1972 0.950 . S
C1950 C1949 1.349 . S
C1950 C1962 1.349 . S
C1951 C1949 1.327 . S
C1951 C1967 1.429 . S
C1951 H1973 0.950 . S
C1952 H1948 0.949 . S
C1952 C1960 1.574 . S
C1952 C1968 1.368 . S
H1953 C1961 0.950 . S
H1954 C1959 0.950 . S
H1955 C1960 0.949 . S
H1956 C1962 0.950 . S
H1957 C1963 0.950 . S
H1958 C1964 0.949 . S
C1959 H1954 0.950 . S
C1959 C1961 1.327 . S
C1959 C1965 1.429 . S
C1960 C1952 1.574 . S
C1960 H1955 0.949 . S
C1960 C1966 1.368 . S
C1961 C1945 1.349 . S
C1961 H1953 0.950 . S
C1961 C1959 1.327 . S
C1962 C1950 1.349 . S
C1962 H1956 0.950 . S
C1962 C1963 1.327 . S
C1963 H1957 0.950 . S
C1963 C1962 1.327 . S
C1963 C1967 1.429 . S
C1964 C1947 1.574 . S
C1964 H1958 0.949 . S
C1964 C1968 1.368 . S
C1965 C1946 1.429 . S
C1965 C1959 1.429 . S
C1965 C1966 1.523 . S
C1966 C1947 1.368 . S
C1966 C1960 1.368 . S
C1966 C1965 1.523 . S
C1967 C1951 1.429 . S
C1967 C1963 1.429 . S
C1967 C1968 1.523 . S
C1968 C1952 1.368 . S
C1968 C1964 1.368 . S
C1968 C1967 1.523 . S
H1969 C1944 0.950 . S
H1970 C1946 0.950 . S
H1971 C1947 0.949 . S
H1972 C1949 0.950 . S
H1973 C1951 0.950 . S
C1974 C1975 1.349 . S
C1974 C1976 1.327 . S
C1974 H1999 0.950 . S
C1975 C1974 1.349 . S
C1975 C1991 1.349 . S
C1976 C1974 1.327 . S
C1976 C1995 1.429 . S
C1976 H2000 0.950 . S
C1977 C1994 1.574 . S
C1977 C1996 1.368 . S
C1977 H2001 0.949 . S
H1978 C1982 0.949 . S
C1979 C1980 1.349 . S
C1979 C1981 1.327 . S
C1979 H2002 0.950 . S
C1980 C1979 1.349 . S
C1980 C1992 1.349 . S
C1981 C1979 1.327 . S
C1981 C1997 1.429 . S
C1981 H2003 0.950 . S
C1982 H1978 0.949 . S
C1982 C1990 1.574 . S
C1982 C1998 1.368 . S
H1983 C1991 0.950 . S
H1984 C1989 0.950 . S
H1985 C1990 0.949 . S
H1986 C1992 0.950 . S
H1987 C1993 0.950 . S
H1988 C1994 0.949 . S
C1989 H1984 0.950 . S
C1989 C1991 1.327 . S
C1989 C1995 1.429 . S
C1990 C1982 1.574 . S
C1990 H1985 0.949 . S
C1990 C1996 1.368 . S
C1991 C1975 1.349 . S
C1991 H1983 0.950 . S
C1991 C1989 1.327 . S
C1992 C1980 1.349 . S
C1992 H1986 0.950 . S
C1992 C1993 1.327 . S
C1993 H1987 0.950 . S
C1993 C1992 1.327 . S
C1993 C1997 1.429 . S
C1994 C1977 1.574 . S
C1994 H1988 0.949 . S
C1994 C1998 1.368 . S
C1995 C1976 1.429 . S
C1995 C1989 1.429 . S
C1995 C1996 1.523 . S
C1996 C1977 1.368 . S
C1996 C1990 1.368 . S
C1996 C1995 1.523 . S
C1997 C1981 1.429 . S
C1997 C1993 1.429 . S
C1997 C1998 1.523 . S
C1998 C1982 1.368 . S
C1998 C1994 1.368 . S
C1998 C1997 1.523 . S
H1999 C1974 0.950 . S
H2000 C1976 0.950 . S
H2001 C1977 0.949 . S
H2002 C1979 0.950 . S
H2003 C1981 0.950 . S
C2004 C2005 1.349 . S
C2004 C2006 1.327 . S
C2004 H2029 0.950 . S
C2005 C2004 1.349 . S
C2005 C2021 1.349 . S
C2006 C2004 1.327 . S
C2006 C2025 1.429 . S
C2006 H2030 0.950 . S
C2007 C2024 1.574 . S
C2007 C2026 1.368 . S
C2007 H2031 0.949 . S
H2008 C2012 0.949 . S
C2009 C2010 1.349 . S
C2009 C2011 1.327 . S
C2009 H2032 0.950 . S
C2010 C2009 1.349 . S
C2010 C2022 1.349 . S
C2011 C2009 1.327 . S
C2011 C2027 1.429 . S
C2011 H2033 0.950 . S
C2012 H2008 0.949 . S
C2012 C2020 1.574 . S
C2012 C2028 1.368 . S
H2013 C2021 0.950 . S
H2014 C2019 0.950 . S
H2015 C2020 0.949 . S
H2016 C2022 0.950 . S
H2017 C2023 0.950 . S
H2018 C2024 0.949 . S
C2019 H2014 0.950 . S
C2019 C2021 1.327 . S
C2019 C2025 1.429 . S
C2020 C2012 1.574 . S
C2020 H2015 0.949 . S
C2020 C2026 1.368 . S
C2021 C2005 1.349 . S
C2021 H2013 0.950 . S
C2021 C2019 1.327 . S
C2022 C2010 1.349 . S
C2022 H2016 0.950 . S
C2022 C2023 1.327 . S
C2023 H2017 0.950 . S
C2023 C2022 1.327 . S
C2023 C2027 1.429 . S
C2024 C2007 1.574 . S
C2024 H2018 0.949 . S
C2024 C2028 1.368 . S
C2025 C2006 1.429 . S
C2025 C2019 1.429 . S
C2025 C2026 1.523 . S
C2026 C2007 1.368 . S
C2026 C2020 1.368 . S
C2026 C2025 1.523 . S
C2027 C2011 1.429 . S
C2027 C2023 1.429 . S
C2027 C2028 1.523 . S
C2028 C2012 1.368 . S
C2028 C2024 1.368 . S
C2028 C2027 1.523 . S
H2029 C2004 0.950 . S
H2030 C2006 0.950 . S
H2031 C2007 0.949 . S
H2032 C2009 0.950 . S
H2033 C2011 0.950 . S
C2034 C2035 1.350 . S
C2034 C2036 1.325 1_556 S
C2034 H2059 0.951 . S
C2035 C2034 1.350 . S
C2035 C2051 1.349 . S
C2036 C2034 1.325 1_554 S
C2036 C2055 1.429 . S
C2036 H2060 0.950 . S
C2037 C2054 1.574 . S
C2037 C2056 1.368 . S
C2037 H2061 0.949 . S
H2038 C2042 0.949 . S
C2039 C2040 1.349 . S
C2039 C2041 1.327 . S
C2039 H2062 0.950 . S
C2040 C2039 1.349 . S
C2040 C2052 1.349 . S
C2041 C2039 1.327 . S
C2041 C2057 1.429 . S
C2041 H2063 0.950 . S
C2042 H2038 0.949 . S
C2042 C2050 1.574 . S
C2042 C2058 1.368 . S
H2043 C2051 0.950 . S
H2044 C2049 0.950 . S
H2045 C2050 0.949 . S
H2046 C2052 0.950 . S
H2047 C2053 0.950 . S
H2048 C2054 0.949 . S
C2049 H2044 0.950 . S
C2049 C2051 1.327 1_554 S
C2049 C2055 1.429 . S
C2050 C2042 1.574 . S
C2050 H2045 0.949 . S
C2050 C2056 1.368 . S
C2051 C2035 1.349 . S
C2051 H2043 0.950 . S
C2051 C2049 1.327 1_556 S
C2052 C2040 1.349 . S
C2052 H2046 0.950 . S
C2052 C2053 1.327 . S
C2053 H2047 0.950 . S
C2053 C2052 1.327 . S
C2053 C2057 1.429 . S
C2054 C2037 1.574 . S
C2054 H2048 0.949 . S
C2054 C2058 1.368 . S
C2055 C2036 1.429 . S
C2055 C2049 1.429 . S
C2055 C2056 1.523 . S
C2056 C2037 1.368 . S
C2056 C2050 1.368 . S
C2056 C2055 1.523 . S
C2057 C2041 1.429 . S
C2057 C2053 1.429 . S
C2057 C2058 1.523 . S
C2058 C2042 1.368 . S
C2058 C2054 1.368 . S
C2058 C2057 1.523 . S
H2059 C2034 0.951 . S
H2060 C2036 0.950 . S
H2061 C2037 0.949 . S
H2062 C2039 0.950 . S
H2063 C2041 0.950 . S
C2064 C2065 1.349 . S
C2064 C2066 1.327 1_556 S
C2064 H2089 0.950 . S
C2065 C2064 1.349 . S
C2065 C2081 1.351 . S
C2066 C2064 1.327 1_554 S
C2066 C2085 1.429 . S
C2066 H2090 0.950 . S
C2067 C2084 1.574 . S
C2067 C2086 1.368 . S
C2067 H2091 0.949 . S
H2068 C2072 0.949 . S
C2069 C2070 1.349 . S
C2069 C2071 1.327 . S
C2069 H2092 0.950 . S
C2070 C2069 1.349 . S
C2070 C2082 1.349 . S
C2071 C2069 1.327 . S
C2071 C2087 1.429 . S
C2071 H2093 0.950 . S
C2072 H2068 0.949 . S
C2072 C2080 1.574 . S
C2072 C2088 1.368 . S
H2073 C2081 0.952 . S
H2074 C2079 0.950 . S
H2075 C2080 0.949 . S
H2076 C2082 0.950 . S
H2077 C2083 0.950 . S
H2078 C2084 0.949 . S
C2079 H2074 0.950 . S
C2079 C2081 1.322 1_554 S
C2079 C2085 1.429 . S
C2080 C2072 1.574 . S
C2080 H2075 0.949 . S
C2080 C2086 1.368 . S
C2081 C2065 1.351 . S
C2081 H2073 0.952 . S
C2081 C2079 1.322 1_556 S
C2082 C2070 1.349 . S
C2082 H2076 0.950 . S
C2082 C2083 1.327 . S
C2083 H2077 0.950 . S
C2083 C2082 1.327 . S
C2083 C2087 1.429 . S
C2084 C2067 1.574 . S
C2084 H2078 0.949 . S
C2084 C2088 1.368 . S
C2085 C2066 1.429 . S
C2085 C2079 1.429 . S
C2085 C2086 1.523 . S
C2086 C2067 1.368 . S
C2086 C2080 1.368 . S
C2086 C2085 1.523 . S
C2087 C2071 1.429 . S
C2087 C2083 1.429 . S
C2087 C2088 1.523 . S
C2088 C2072 1.368 . S
C2088 C2084 1.368 . S
C2088 C2087 1.523 . S
H2089 C2064 0.950 . S
H2090 C2066 0.950 . S
H2091 C2067 0.949 . S
H2092 C2069 0.950 . S
H2093 C2071 0.950 . S
C2094 C2095 1.349 . S
C2094 C2096 1.327 1_556 S
C2094 H2119 0.950 . S
C2095 C2094 1.349 . S
C2095 C2111 1.349 . S
C2096 C2094 1.327 1_554 S
C2096 C2115 1.429 . S
C2096 H2120 0.950 . S
C2097 C2114 1.574 . S
C2097 C2116 1.368 . S
C2097 H2121 0.949 . S
H2098 C2102 0.949 . S
C2099 C2100 1.349 . S
C2099 C2101 1.327 . S
C2099 H2122 0.950 . S
C2100 C2099 1.349 . S
C2100 C2112 1.349 . S
C2101 C2099 1.327 . S
C2101 C2117 1.429 . S
C2101 H2123 0.950 . S
C2102 H2098 0.949 . S
C2102 C2110 1.574 . S
C2102 C2118 1.368 . S
H2103 C2111 0.950 . S
H2104 C2109 0.950 . S
H2105 C2110 0.949 . S
H2106 C2112 0.950 . S
H2107 C2113 0.950 . S
H2108 C2114 0.949 . S
C2109 H2104 0.950 . S
C2109 C2111 1.327 1_554 S
C2109 C2115 1.429 . S
C2110 C2102 1.574 . S
C2110 H2105 0.949 . S
C2110 C2116 1.368 . S
C2111 C2095 1.349 . S
C2111 H2103 0.950 . S
C2111 C2109 1.327 1_556 S
C2112 C2100 1.349 . S
C2112 H2106 0.950 . S
C2112 C2113 1.327 . S
C2113 H2107 0.950 . S
C2113 C2112 1.327 . S
C2113 C2117 1.429 . S
C2114 C2097 1.574 . S
C2114 H2108 0.949 . S
C2114 C2118 1.368 . S
C2115 C2096 1.429 . S
C2115 C2109 1.429 . S
C2115 C2116 1.523 . S
C2116 C2097 1.368 . S
C2116 C2110 1.368 . S
C2116 C2115 1.523 . S
C2117 C2101 1.429 . S
C2117 C2113 1.429 . S
C2117 C2118 1.523 . S
C2118 C2102 1.368 . S
C2118 C2114 1.368 . S
C2118 C2117 1.523 . S
H2119 C2094 0.950 . S
H2120 C2096 0.950 . S
H2121 C2097 0.949 . S
H2122 C2099 0.950 . S
H2123 C2101 0.950 . S
C2124 C2125 1.349 . S
C2124 C2126 1.327 . S
C2124 H2149 0.950 . S
C2125 C2124 1.349 . S
C2125 C2141 1.349 . S
C2126 C2124 1.327 . S
C2126 C2145 1.429 . S
C2126 H2150 0.950 . S
C2127 C2144 1.574 . S
C2127 C2146 1.368 . S
C2127 H2151 0.949 . S
H2128 C2132 0.949 . S
C2129 C2130 1.349 . S
C2129 C2131 1.327 . S
C2129 H2152 0.950 . S
C2130 C2129 1.349 . S
C2130 C2142 1.349 . S
C2131 C2129 1.327 . S
C2131 C2147 1.419 1_554 S
C2131 H2153 0.950 . S
C2132 H2128 0.949 . S
C2132 C2140 1.574 . S
C2132 C2148 1.368 . S
H2133 C2141 0.950 . S
H2134 C2139 0.950 . S
H2135 C2140 0.949 . S
H2136 C2142 0.950 . S
H2137 C2143 0.950 . S
H2138 C2144 0.949 . S
C2139 H2134 0.950 . S
C2139 C2141 1.327 . S
C2139 C2145 1.429 . S
C2140 C2132 1.574 . S
C2140 H2135 0.949 . S
C2140 C2146 1.368 . S
C2141 C2125 1.349 . S
C2141 H2133 0.950 . S
C2141 C2139 1.327 . S
C2142 C2130 1.349 . S
C2142 H2136 0.950 . S
C2142 C2143 1.327 . S
C2143 H2137 0.950 . S
C2143 C2142 1.327 . S
C2143 C2147 1.417 1_554 S
C2144 C2127 1.574 . S
C2144 H2138 0.949 . S
C2144 C2148 1.368 . S
C2145 C2126 1.429 . S
C2145 C2139 1.429 . S
C2145 C2146 1.523 . S
C2146 C2127 1.368 . S
C2146 C2140 1.368 . S
C2146 C2145 1.523 . S
C2147 C2131 1.419 1_556 S
C2147 C2143 1.417 1_556 S
C2147 C2148 1.542 . S
C2148 C2132 1.368 . S
C2148 C2144 1.368 . S
C2148 C2147 1.542 . S
H2149 C2124 0.950 . S
H2150 C2126 0.950 . S
H2151 C2127 0.949 . S
H2152 C2129 0.950 . S
H2153 C2131 0.950 . S
C2154 C2155 1.349 . S
C2154 C2156 1.327 . S
C2154 H2179 0.950 . S
C2155 C2154 1.349 . S
C2155 C2171 1.349 . S
C2156 C2154 1.327 . S
C2156 C2175 1.419 1_554 S
C2156 H2180 0.950 . S
C2157 C2174 1.574 . S
C2157 C2176 1.368 . S
C2157 H2181 0.949 . S
H2158 C2162 0.949 . S
C2159 C2160 1.349 . S
C2159 C2161 1.327 . S
C2159 H2182 0.950 . S
C2160 C2159 1.349 . S
C2160 C2172 1.349 . S
C2161 C2159 1.327 . S
C2161 C2177 1.429 . S
C2161 H2183 0.950 . S
C2162 H2158 0.949 . S
C2162 C2170 1.574 . S
C2162 C2178 1.368 . S
H2163 C2171 0.950 . S
H2164 C2169 0.950 . S
H2165 C2170 0.949 . S
H2166 C2172 0.950 . S
H2167 C2173 0.950 . S
H2168 C2174 0.949 . S
C2169 H2164 0.950 . S
C2169 C2171 1.327 . S
C2169 C2175 1.418 1_554 S
C2170 C2162 1.574 . S
C2170 H2165 0.949 . S
C2170 C2176 1.368 . S
C2171 C2155 1.349 . S
C2171 H2163 0.950 . S
C2171 C2169 1.327 . S
C2172 C2160 1.349 . S
C2172 H2166 0.950 . S
C2172 C2173 1.327 . S
C2173 H2167 0.950 . S
C2173 C2172 1.327 . S
C2173 C2177 1.429 . S
C2174 C2157 1.574 . S
C2174 H2168 0.949 . S
C2174 C2178 1.368 . S
C2175 C2156 1.419 1_556 S
C2175 C2169 1.418 1_556 S
C2175 C2176 1.542 . S
C2176 C2157 1.368 . S
C2176 C2170 1.368 . S
C2176 C2175 1.542 . S
C2177 C2161 1.429 . S
C2177 C2173 1.429 . S
C2177 C2178 1.523 . S
C2178 C2162 1.368 . S
C2178 C2174 1.368 . S
C2178 C2177 1.523 . S
H2179 C2154 0.950 . S
H2180 C2156 0.950 . S
H2181 C2157 0.949 . S
H2182 C2159 0.950 . S
H2183 C2161 0.950 . S
C2184 C2185 1.349 . S
C2184 C2186 1.327 . S
C2184 H2209 0.950 . S
C2185 C2184 1.349 . S
C2185 C2201 1.349 . S
C2186 C2184 1.327 . S
C2186 C2205 1.429 . S
C2186 H2210 0.950 . S
C2187 C2204 1.574 . S
C2187 C2206 1.368 . S
C2187 H2211 0.949 . S
H2188 C2192 0.949 . S
C2189 C2190 1.349 . S
C2189 C2191 1.327 . S
C2189 H2212 0.950 . S
C2190 C2189 1.349 . S
C2190 C2202 1.349 . S
C2191 C2189 1.327 . S
C2191 C2207 1.418 1_554 S
C2191 H2213 0.950 . S
C2192 H2188 0.949 . S
C2192 C2200 1.574 . S
C2192 C2208 1.368 . S
H2193 C2201 0.950 . S
H2194 C2199 0.950 . S
H2195 C2200 0.949 . S
H2196 C2202 0.950 . S
H2197 C2203 0.950 . S
H2198 C2204 0.949 . S
C2199 H2194 0.950 . S
C2199 C2201 1.327 . S
C2199 C2205 1.429 . S
C2200 C2192 1.574 . S
C2200 H2195 0.949 . S
C2200 C2206 1.368 . S
C2201 C2185 1.349 . S
C2201 H2193 0.950 . S
C2201 C2199 1.327 . S
C2202 C2190 1.349 . S
C2202 H2196 0.950 . S
C2202 C2203 1.327 . S
C2203 H2197 0.950 . S
C2203 C2202 1.327 . S
C2203 C2207 1.418 1_554 S
C2204 C2187 1.574 . S
C2204 H2198 0.949 . S
C2204 C2208 1.368 . S
C2205 C2186 1.429 . S
C2205 C2199 1.429 . S
C2205 C2206 1.523 . S
C2206 C2187 1.368 . S
C2206 C2200 1.368 . S
C2206 C2205 1.523 . S
C2207 C2191 1.418 1_556 S
C2207 C2203 1.418 1_556 S
C2207 C2208 1.543 . S
C2208 C2192 1.368 . S
C2208 C2204 1.368 . S
C2208 C2207 1.543 . S
H2209 C2184 0.950 . S
H2210 C2186 0.950 . S
H2211 C2187 0.949 . S
H2212 C2189 0.950 . S
H2213 C2191 0.950 . S
C2214 C2215 1.349 . S
C2214 C2216 1.327 . S
C2214 H2239 0.950 . S
C2215 C2214 1.349 . S
C2215 C2231 1.349 . S
C2216 C2214 1.327 . S
C2216 C2235 1.429 . S
C2216 H2240 0.950 . S
C2217 C2234 1.574 . S
C2217 C2236 1.368 . S
C2217 H2241 0.949 . S
H2218 C2222 0.949 . S
C2219 C2220 1.349 . S
C2219 C2221 1.327 . S
C2219 H2242 0.950 . S
C2220 C2219 1.349 . S
C2220 C2232 1.349 . S
C2221 C2219 1.327 . S
C2221 C2237 1.429 . S
C2221 H2243 0.950 . S
C2222 H2218 0.949 . S
C2222 C2230 1.574 . S
C2222 C2238 1.368 . S
H2223 C2231 0.950 . S
H2224 C2229 0.950 . S
H2225 C2230 0.949 . S
H2226 C2232 0.950 . S
H2227 C2233 0.950 . S
H2228 C2234 0.949 . S
C2229 H2224 0.950 . S
C2229 C2231 1.327 . S
C2229 C2235 1.429 . S
C2230 C2222 1.574 . S
C2230 H2225 0.949 . S
C2230 C2236 1.368 . S
C2231 C2215 1.349 . S
C2231 H2223 0.950 . S
C2231 C2229 1.327 . S
C2232 C2220 1.349 . S
C2232 H2226 0.950 . S
C2232 C2233 1.327 . S
C2233 H2227 0.950 . S
C2233 C2232 1.327 . S
C2233 C2237 1.429 . S
C2234 C2217 1.574 . S
C2234 H2228 0.949 . S
C2234 C2238 1.368 . S
C2235 C2216 1.429 . S
C2235 C2229 1.429 . S
C2235 C2236 1.523 . S
C2236 C2217 1.368 . S
C2236 C2230 1.368 . S
C2236 C2235 1.523 . S
C2237 C2221 1.429 . S
C2237 C2233 1.429 . S
C2237 C2238 1.523 . S
C2238 C2222 1.368 . S
C2238 C2234 1.368 . S
C2238 C2237 1.523 . S
H2239 C2214 0.950 . S
H2240 C2216 0.950 . S
H2241 C2217 0.949 . S
H2242 C2219 0.950 . S
H2243 C2221 0.950 . S
C2244 C2245 1.349 . S
C2244 C2246 1.327 . S
C2244 H2269 0.950 . S
C2245 C2244 1.349 . S
C2245 C2261 1.349 . S
C2246 C2244 1.327 . S
C2246 C2265 1.429 . S
C2246 H2270 0.950 . S
C2247 C2264 1.574 . S
C2247 C2266 1.368 . S
C2247 H2271 0.949 . S
H2248 C2252 0.949 . S
C2249 C2250 1.349 . S
C2249 C2251 1.327 . S
C2249 H2272 0.950 . S
C2250 C2249 1.349 . S
C2250 C2262 1.349 . S
C2251 C2249 1.327 . S
C2251 C2267 1.429 . S
C2251 H2273 0.950 . S
C2252 H2248 0.949 . S
C2252 C2260 1.574 . S
C2252 C2268 1.368 . S
H2253 C2261 0.950 . S
H2254 C2259 0.950 . S
H2255 C2260 0.949 . S
H2256 C2262 0.950 . S
H2257 C2263 0.950 . S
H2258 C2264 0.949 . S
C2259 H2254 0.950 . S
C2259 C2261 1.327 . S
C2259 C2265 1.429 . S
C2260 C2252 1.574 . S
C2260 H2255 0.949 . S
C2260 C2266 1.368 . S
C2261 C2245 1.349 . S
C2261 H2253 0.950 . S
C2261 C2259 1.327 . S
C2262 C2250 1.349 . S
C2262 H2256 0.950 . S
C2262 C2263 1.327 . S
C2263 H2257 0.950 . S
C2263 C2262 1.327 . S
C2263 C2267 1.429 . S
C2264 C2247 1.574 . S
C2264 H2258 0.949 . S
C2264 C2268 1.368 . S
C2265 C2246 1.429 . S
C2265 C2259 1.429 . S
C2265 C2266 1.523 . S
C2266 C2247 1.368 . S
C2266 C2260 1.368 . S
C2266 C2265 1.523 . S
C2267 C2251 1.429 . S
C2267 C2263 1.429 . S
C2267 C2268 1.523 . S
C2268 C2252 1.368 . S
C2268 C2264 1.368 . S
C2268 C2267 1.523 . S
H2269 C2244 0.950 . S
H2270 C2246 0.950 . S
H2271 C2247 0.949 . S
H2272 C2249 0.950 . S
H2273 C2251 0.950 . S
C2274 C2275 1.349 . S
C2274 C2276 1.327 . S
C2274 H2299 0.950 . S
C2275 C2274 1.349 . S
C2275 C2291 1.349 . S
C2276 C2274 1.327 . S
C2276 C2295 1.429 . S
C2276 H2300 0.950 . S
C2277 C2294 1.574 . S
C2277 C2296 1.368 . S
C2277 H2301 0.949 . S
H2278 C2282 0.949 . S
C2279 C2280 1.349 . S
C2279 C2281 1.327 . S
C2279 H2302 0.950 . S
C2280 C2279 1.349 . S
C2280 C2292 1.349 . S
C2281 C2279 1.327 . S
C2281 C2297 1.429 . S
C2281 H2303 0.950 . S
C2282 H2278 0.949 . S
C2282 C2290 1.574 . S
C2282 C2298 1.368 . S
H2283 C2291 0.950 . S
H2284 C2289 0.950 . S
H2285 C2290 0.949 . S
H2286 C2292 0.950 . S
H2287 C2293 0.950 . S
H2288 C2294 0.949 . S
C2289 H2284 0.950 . S
C2289 C2291 1.327 . S
C2289 C2295 1.429 . S
C2290 C2282 1.574 . S
C2290 H2285 0.949 . S
C2290 C2296 1.368 . S
C2291 C2275 1.349 . S
C2291 H2283 0.950 . S
C2291 C2289 1.327 . S
C2292 C2280 1.349 . S
C2292 H2286 0.950 . S
C2292 C2293 1.327 . S
C2293 H2287 0.950 . S
C2293 C2292 1.327 . S
C2293 C2297 1.429 . S
C2294 C2277 1.574 . S
C2294 H2288 0.949 . S
C2294 C2298 1.368 . S
C2295 C2276 1.429 . S
C2295 C2289 1.429 . S
C2295 C2296 1.523 . S
C2296 C2277 1.368 . S
C2296 C2290 1.368 . S
C2296 C2295 1.523 . S
C2297 C2281 1.429 . S
C2297 C2293 1.429 . S
C2297 C2298 1.523 . S
C2298 C2282 1.368 . S
C2298 C2294 1.368 . S
C2298 C2297 1.523 . S
H2299 C2274 0.950 . S
H2300 C2276 0.950 . S
H2301 C2277 0.949 . S
H2302 C2279 0.950 . S
H2303 C2281 0.950 . S
C2304 C2305 1.349 . S
C2304 C2306 1.327 . S
C2304 H2329 0.950 . S
C2305 C2304 1.349 . S
C2305 C2321 1.349 1_554 S
C2306 C2304 1.327 . S
C2306 C2325 1.429 . S
C2306 H2330 0.950 . S
C2307 C2324 1.574 . S
C2307 C2326 1.368 1_556 S
C2307 H2331 0.949 . S
H2308 C2312 0.949 . S
C2309 C2310 1.349 . S
C2309 C2311 1.327 1_554 S
C2309 H2332 0.950 1_554 S
C2310 C2309 1.349 . S
C2310 C2322 1.349 . S
C2311 C2309 1.327 1_556 S
C2311 C2327 1.426 1_556 S
C2311 H2333 0.953 . S
C2312 H2308 0.949 . S
C2312 C2320 1.574 . S
C2312 C2328 1.368 . S
H2313 C2321 0.950 . S
H2314 C2319 0.950 . S
H2315 C2320 0.949 . S
H2316 C2322 0.950 . S
H2317 C2323 0.950 . S
H2318 C2324 0.949 . S
C2319 H2314 0.950 . S
C2319 C2321 1.327 . S
C2319 C2325 1.429 1_556 S
C2320 C2312 1.574 . S
C2320 H2315 0.949 . S
C2320 C2326 1.368 . S
C2321 C2305 1.349 1_556 S
C2321 H2313 0.950 . S
C2321 C2319 1.327 . S
C2322 C2310 1.349 . S
C2322 H2316 0.950 . S
C2322 C2323 1.327 . S
C2323 H2317 0.950 . S
C2323 C2322 1.327 . S
C2323 C2327 1.429 . S
C2324 C2307 1.574 . S
C2324 H2318 0.949 . S
C2324 C2328 1.368 1_556 S
C2325 C2306 1.429 . S
C2325 C2319 1.429 1_554 S
C2325 C2326 1.523 . S
C2326 C2307 1.368 1_554 S
C2326 C2320 1.368 . S
C2326 C2325 1.523 . S
C2327 C2311 1.426 1_554 S
C2327 C2323 1.429 . S
C2327 C2328 1.523 . S
C2328 C2312 1.368 . S
C2328 C2324 1.368 1_554 S
C2328 C2327 1.523 . S
H2329 C2304 0.950 . S
H2330 C2306 0.950 . S
H2331 C2307 0.949 . S
H2332 C2309 0.950 1_556 S
H2333 C2311 0.953 . S
C2334 C2335 1.349 . S
C2334 C2336 1.328 . S
C2334 H2359 0.950 1_554 S
C2335 C2334 1.349 . S
C2335 C2351 1.349 . S
C2336 C2334 1.328 . S
C2336 C2355 1.436 . S
C2336 H2360 0.941 1_554 S
C2337 C2354 1.574 . S
C2337 C2356 1.368 . S
C2337 H2361 0.949 . S
H2338 C2342 0.949 . S
C2339 C2340 1.349 . S
C2339 C2341 1.327 . S
C2339 H2362 0.950 . S
C2340 C2339 1.349 . S
C2340 C2352 1.349 1_554 S
C2341 C2339 1.327 . S
C2341 C2357 1.429 . S
C2341 H2363 0.950 . S
C2342 H2338 0.949 . S
C2342 C2350 1.574 . S
C2342 C2358 1.368 1_556 S
H2343 C2351 0.950 . S
H2344 C2349 0.950 . S
H2345 C2350 0.949 . S
H2346 C2352 0.950 . S
H2347 C2353 0.950 . S
H2348 C2354 0.949 . S
C2349 H2344 0.950 . S
C2349 C2351 1.327 . S
C2349 C2355 1.429 . S
C2350 C2342 1.574 . S
C2350 H2345 0.949 . S
C2350 C2356 1.368 1_556 S
C2351 C2335 1.349 . S
C2351 H2343 0.950 . S
C2351 C2349 1.327 . S
C2352 C2340 1.349 1_556 S
C2352 H2346 0.950 . S
C2352 C2353 1.327 . S
C2353 H2347 0.950 . S
C2353 C2352 1.327 . S
C2353 C2357 1.429 1_556 S
C2354 C2337 1.574 . S
C2354 H2348 0.949 . S
C2354 C2358 1.368 . S
C2355 C2336 1.436 . S
C2355 C2349 1.429 . S
C2355 C2356 1.523 . S
C2356 C2337 1.368 . S
C2356 C2350 1.368 1_554 S
C2356 C2355 1.523 . S
C2357 C2341 1.429 . S
C2357 C2353 1.429 1_554 S
C2357 C2358 1.523 . S
C2358 C2342 1.368 1_554 S
C2358 C2354 1.368 . S
C2358 C2357 1.523 . S
H2359 C2334 0.950 1_556 S
H2360 C2336 0.941 1_556 S
H2361 C2337 0.949 . S
H2362 C2339 0.950 . S
H2363 C2341 0.950 . S
C2364 C2365 1.349 . S
C2364 C2366 1.327 . S
C2364 H2389 0.950 . S
C2365 C2364 1.349 . S
C2365 C2381 1.349 . S
C2366 C2364 1.327 . S
C2366 C2385 1.429 . S
C2366 H2390 0.950 . S
C2367 C2384 1.574 . S
C2367 C2386 1.368 . S
C2367 H2391 0.939 1_554 S
H2368 C2372 0.949 . S
C2369 C2370 1.349 1_556 S
C2369 C2371 1.329 . S
C2369 H2392 0.950 . S
C2370 C2369 1.349 1_554 S
C2370 C2382 1.349 . S
C2371 C2369 1.329 . S
C2371 C2387 1.417 1_556 S
C2371 H2393 0.960 . S
C2372 H2368 0.949 . S
C2372 C2380 1.574 . S
C2372 C2388 1.368 . S
H2373 C2381 0.950 . S
H2374 C2379 0.950 . S
H2375 C2380 0.949 . S
H2376 C2382 0.950 . S
H2377 C2383 0.950 . S
H2378 C2384 0.949 1_556 S
C2379 H2374 0.950 . S
C2379 C2381 1.327 . S
C2379 C2385 1.429 . S
C2380 C2372 1.574 . S
C2380 H2375 0.949 . S
C2380 C2386 1.368 . S
C2381 C2365 1.349 . S
C2381 H2373 0.950 . S
C2381 C2379 1.327 . S
C2382 C2370 1.349 . S
C2382 H2376 0.950 . S
C2382 C2383 1.327 . S
C2383 H2377 0.950 . S
C2383 C2382 1.327 . S
C2383 C2387 1.429 . S
C2384 C2367 1.574 . S
C2384 H2378 0.949 1_554 S
C2384 C2388 1.368 . S
C2385 C2366 1.429 . S
C2385 C2379 1.429 . S
C2385 C2386 1.523 . S
C2386 C2367 1.368 . S
C2386 C2380 1.368 . S
C2386 C2385 1.523 . S
C2387 C2371 1.417 1_554 S
C2387 C2383 1.429 . S
C2387 C2388 1.523 . S
C2388 C2372 1.368 . S
C2388 C2384 1.368 . S
C2388 C2387 1.523 . S
H2389 C2364 0.950 . S
H2390 C2366 0.950 . S
H2391 C2367 0.939 1_556 S
H2392 C2369 0.950 . S
H2393 C2371 0.960 . S
C2394 C2395 1.349 . S
C2394 C2396 1.327 . S
C2394 H2419 0.950 . S
C2395 C2394 1.349 . S
C2395 C2411 1.349 . S
C2396 C2394 1.327 . S
C2396 C2415 1.429 . S
C2396 H2420 0.950 . S
C2397 C2414 1.574 . S
C2397 C2416 1.368 . S
C2397 H2421 0.949 . S
H2398 C2402 0.949 . S
C2399 C2400 1.349 . S
C2399 C2401 1.327 . S
C2399 H2422 0.950 . S
C2400 C2399 1.349 . S
C2400 C2412 1.349 . S
C2401 C2399 1.327 . S
C2401 C2417 1.429 . S
C2401 H2423 0.950 . S
C2402 H2398 0.949 . S
C2402 C2410 1.574 . S
C2402 C2418 1.368 . S
H2403 C2411 0.950 . S
H2404 C2409 0.950 . S
H2405 C2410 0.949 . S
H2406 C2412 0.950 . S
H2407 C2413 0.950 . S
H2408 C2414 0.949 . S
C2409 H2404 0.950 . S
C2409 C2411 1.327 . S
C2409 C2415 1.429 . S
C2410 C2402 1.574 . S
C2410 H2405 0.949 . S
C2410 C2416 1.368 . S
C2411 C2395 1.349 . S
C2411 H2403 0.950 . S
C2411 C2409 1.327 . S
C2412 C2400 1.349 . S
C2412 H2406 0.950 . S
C2412 C2413 1.327 . S
C2413 H2407 0.950 . S
C2413 C2412 1.327 . S
C2413 C2417 1.429 . S
C2414 C2397 1.574 . S
C2414 H2408 0.949 . S
C2414 C2418 1.368 . S
C2415 C2396 1.429 . S
C2415 C2409 1.429 . S
C2415 C2416 1.523 . S
C2416 C2397 1.368 . S
C2416 C2410 1.368 . S
C2416 C2415 1.523 . S
C2417 C2401 1.429 . S
C2417 C2413 1.429 . S
C2417 C2418 1.523 . S
C2418 C2402 1.368 . S
C2418 C2414 1.368 . S
C2418 C2417 1.523 . S
H2419 C2394 0.950 . S
H2420 C2396 0.950 . S
H2421 C2397 0.949 . S
H2422 C2399 0.950 . S
H2423 C2401 0.950 . S
C2424 C2425 1.349 . S
C2424 C2426 1.327 . S
C2424 H2449 0.950 . S
C2425 C2424 1.349 . S
C2425 C2441 1.349 . S
C2426 C2424 1.327 . S
C2426 C2445 1.429 . S
C2426 H2450 0.950 . S
C2427 C2444 1.574 . S
C2427 C2446 1.368 . S
C2427 H2451 0.949 . S
H2428 C2432 0.949 . S
C2429 C2430 1.349 . S
C2429 C2431 1.327 . S
C2429 H2452 0.950 . S
C2430 C2429 1.349 . S
C2430 C2442 1.349 . S
C2431 C2429 1.327 . S
C2431 C2447 1.429 . S
C2431 H2453 0.950 . S
C2432 H2428 0.949 . S
C2432 C2440 1.574 . S
C2432 C2448 1.368 . S
H2433 C2441 0.950 . S
H2434 C2439 0.950 . S
H2435 C2440 0.949 . S
H2436 C2442 0.950 . S
H2437 C2443 0.950 . S
H2438 C2444 0.949 . S
C2439 H2434 0.950 . S
C2439 C2441 1.327 . S
C2439 C2445 1.429 . S
C2440 C2432 1.574 . S
C2440 H2435 0.949 . S
C2440 C2446 1.368 . S
C2441 C2425 1.349 . S
C2441 H2433 0.950 . S
C2441 C2439 1.327 . S
C2442 C2430 1.349 . S
C2442 H2436 0.950 . S
C2442 C2443 1.327 . S
C2443 H2437 0.950 . S
C2443 C2442 1.327 . S
C2443 C2447 1.429 . S
C2444 C2427 1.574 . S
C2444 H2438 0.949 . S
C2444 C2448 1.368 . S
C2445 C2426 1.429 . S
C2445 C2439 1.429 . S
C2445 C2446 1.523 . S
C2446 C2427 1.368 . S
C2446 C2440 1.368 . S
C2446 C2445 1.523 . S
C2447 C2431 1.429 . S
C2447 C2443 1.429 . S
C2447 C2448 1.523 . S
C2448 C2432 1.368 . S
C2448 C2444 1.368 . S
C2448 C2447 1.523 . S
H2449 C2424 0.950 . S
H2450 C2426 0.950 . S
H2451 C2427 0.949 . S
H2452 C2429 0.950 . S
H2453 C2431 0.950 . S
C2454 C2455 1.349 . S
C2454 C2456 1.327 . S
C2454 H2479 0.950 . S
C2455 C2454 1.349 . S
C2455 C2471 1.349 . S
C2456 C2454 1.327 . S
C2456 C2475 1.429 . S
C2456 H2480 0.950 . S
C2457 C2474 1.574 . S
C2457 C2476 1.368 . S
C2457 H2481 0.949 . S
H2458 C2462 0.949 . S
C2459 C2460 1.349 . S
C2459 C2461 1.327 . S
C2459 H2482 0.950 . S
C2460 C2459 1.349 . S
C2460 C2472 1.349 . S
C2461 C2459 1.327 . S
C2461 C2477 1.429 . S
C2461 H2483 0.950 . S
C2462 H2458 0.949 . S
C2462 C2470 1.574 . S
C2462 C2478 1.368 . S
H2463 C2471 0.950 . S
H2464 C2469 0.950 . S
H2465 C2470 0.949 . S
H2466 C2472 0.950 . S
H2467 C2473 0.950 . S
H2468 C2474 0.949 . S
C2469 H2464 0.950 . S
C2469 C2471 1.327 . S
C2469 C2475 1.429 . S
C2470 C2462 1.574 . S
C2470 H2465 0.949 . S
C2470 C2476 1.368 . S
C2471 C2455 1.349 . S
C2471 H2463 0.950 . S
C2471 C2469 1.327 . S
C2472 C2460 1.349 . S
C2472 H2466 0.950 . S
C2472 C2473 1.327 . S
C2473 H2467 0.950 . S
C2473 C2472 1.327 . S
C2473 C2477 1.429 . S
C2474 C2457 1.574 . S
C2474 H2468 0.949 . S
C2474 C2478 1.368 . S
C2475 C2456 1.429 . S
C2475 C2469 1.429 . S
C2475 C2476 1.523 . S
C2476 C2457 1.368 . S
C2476 C2470 1.368 . S
C2476 C2475 1.523 . S
C2477 C2461 1.429 . S
C2477 C2473 1.429 . S
C2477 C2478 1.523 . S
C2478 C2462 1.368 . S
C2478 C2474 1.368 . S
C2478 C2477 1.523 . S
H2479 C2454 0.950 . S
H2480 C2456 0.950 . S
H2481 C2457 0.949 . S
H2482 C2459 0.950 . S
H2483 C2461 0.950 . S
C2484 C2485 1.349 . S
C2484 C2486 1.327 . S
C2484 H2509 0.950 . S
C2485 C2484 1.349 . S
C2485 C2501 1.349 . S
C2486 C2484 1.327 . S
C2486 C2505 1.429 . S
C2486 H2510 0.950 . S
C2487 C2504 1.574 . S
C2487 C2506 1.368 . S
C2487 H2511 0.949 1_554 S
H2488 C2492 0.949 . S
C2489 C2490 1.328 1_556 S
C2489 C2491 1.325 1_556 S
C2489 H2512 0.973 . S
C2490 C2489 1.328 1_554 S
C2490 C2502 1.349 . S
C2491 C2489 1.325 1_554 S
C2491 C2507 1.453 . S
C2491 H2513 0.927 1_554 S
C2492 H2488 0.949 . S
C2492 C2500 1.574 . S
C2492 C2508 1.368 . S
H2493 C2501 0.950 . S
H2494 C2499 0.950 1_556 S
H2495 C2500 0.949 . S
H2496 C2502 0.950 . S
H2497 C2503 0.950 . S
H2498 C2504 0.949 1_556 S
C2499 H2494 0.950 1_554 S
C2499 C2501 1.327 . S
C2499 C2505 1.429 . S
C2500 C2492 1.574 . S
C2500 H2495 0.949 . S
C2500 C2506 1.368 . S
C2501 C2485 1.349 . S
C2501 H2493 0.950 . S
C2501 C2499 1.327 . S
C2502 C2490 1.349 . S
C2502 H2496 0.950 . S
C2502 C2503 1.327 . S
C2503 H2497 0.950 . S
C2503 C2502 1.327 . S
C2503 C2507 1.429 . S
C2504 C2487 1.574 . S
C2504 H2498 0.949 1_554 S
C2504 C2508 1.368 . S
C2505 C2486 1.429 . S
C2505 C2499 1.429 . S
C2505 C2506 1.523 . S
C2506 C2487 1.368 . S
C2506 C2500 1.368 . S
C2506 C2505 1.523 . S
C2507 C2491 1.453 . S
C2507 C2503 1.429 . S
C2507 C2508 1.523 . S
C2508 C2492 1.368 . S
C2508 C2504 1.368 . S
C2508 C2507 1.523 . S
H2509 C2484 0.950 . S
H2510 C2486 0.950 . S
H2511 C2487 0.949 1_556 S
H2512 C2489 0.973 . S
H2513 C2491 0.927 1_556 S
C2514 C2515 1.349 . S
C2514 C2516 1.327 . S
C2514 H2539 0.950 . S
C2515 C2514 1.349 . S
C2515 C2531 1.353 . S
C2516 C2514 1.327 . S
C2516 C2535 1.429 . S
C2516 H2540 0.950 . S
C2517 C2534 1.574 . S
C2517 C2536 1.368 . S
C2517 H2541 0.949 1_554 S
H2518 C2522 0.949 . S
C2519 C2520 1.349 . S
C2519 C2521 1.327 . S
C2519 H2542 0.950 . S
C2520 C2519 1.349 . S
C2520 C2532 1.349 . S
C2521 C2519 1.327 . S
C2521 C2537 1.429 . S
C2521 H2543 0.943 1_554 S
C2522 H2518 0.949 . S
C2522 C2530 1.574 . S
C2522 C2538 1.368 . S
H2523 C2531 0.946 1_556 S
H2524 C2529 0.950 1_556 S
H2525 C2530 0.949 . S
H2526 C2532 0.950 . S
H2527 C2533 0.950 . S
H2528 C2534 0.949 1_556 S
C2529 H2524 0.950 1_554 S
C2529 C2531 1.327 . S
C2529 C2535 1.429 . S
C2530 C2522 1.574 . S
C2530 H2525 0.949 . S
C2530 C2536 1.368 . S
C2531 C2515 1.353 . S
C2531 H2523 0.946 1_554 S
C2531 C2529 1.327 . S
C2532 C2520 1.349 . S
C2532 H2526 0.950 . S
C2532 C2533 1.327 . S
C2533 H2527 0.950 . S
C2533 C2532 1.327 . S
C2533 C2537 1.429 . S
C2534 C2517 1.574 . S
C2534 H2528 0.949 1_554 S
C2534 C2538 1.368 . S
C2535 C2516 1.429 . S
C2535 C2529 1.429 . S
C2535 C2536 1.523 . S
C2536 C2517 1.368 . S
C2536 C2530 1.368 . S
C2536 C2535 1.523 . S
C2537 C2521 1.429 . S
C2537 C2533 1.429 . S
C2537 C2538 1.523 . S
C2538 C2522 1.368 . S
C2538 C2534 1.368 . S
C2538 C2537 1.523 . S
H2539 C2514 0.950 . S
H2540 C2516 0.950 . S
H2541 C2517 0.949 1_556 S
H2542 C2519 0.950 . S
H2543 C2521 0.943 1_556 S
C2544 C2545 1.349 1_556 S
C2544 C2546 1.327 . S
C2544 H2569 0.950 . S
C2545 C2544 1.349 1_554 S
C2545 C2561 1.349 . S
C2546 C2544 1.327 . S
C2546 C2565 1.429 1_556 S
C2546 H2570 0.950 . S
C2547 C2564 1.574 . S
C2547 C2566 1.368 . S
C2547 H2571 0.949 . S
H2548 C2552 0.949 1_556 S
C2549 C2550 1.349 . S
C2549 C2551 1.327 . S
C2549 H2572 0.950 . S
C2550 C2549 1.349 . S
C2550 C2562 1.349 . S
C2551 C2549 1.327 . S
C2551 C2567 1.429 . S
C2551 H2573 0.950 . S
C2552 H2548 0.949 1_554 S
C2552 C2560 1.572 1_554 S
C2552 C2568 1.368 . S
H2553 C2561 0.950 . S
H2554 C2559 0.950 . S
H2555 C2560 0.969 . S
H2556 C2562 0.950 1_556 S
H2557 C2563 0.950 1_556 S
H2558 C2564 0.949 . S
C2559 H2554 0.950 . S
C2559 C2561 1.327 . S
C2559 C2565 1.429 . S
C2560 C2552 1.572 1_556 S
C2560 H2555 0.969 . S
C2560 C2566 1.349 1_556 S
C2561 C2545 1.349 . S
C2561 H2553 0.950 . S
C2561 C2559 1.327 . S
C2562 C2550 1.349 . S
C2562 H2556 0.950 1_554 S
C2562 C2563 1.327 . S
C2563 H2557 0.950 1_554 S
C2563 C2562 1.327 . S
C2563 C2567 1.429 . S
C2564 C2547 1.574 . S
C2564 H2558 0.949 . S
C2564 C2568 1.368 . S
C2565 C2546 1.429 1_554 S
C2565 C2559 1.429 . S
C2565 C2566 1.523 . S
C2566 C2547 1.368 . S
C2566 C2560 1.349 1_554 S
C2566 C2565 1.523 . S
C2567 C2551 1.429 . S
C2567 C2563 1.429 . S
C2567 C2568 1.523 . S
C2568 C2552 1.368 . S
C2568 C2564 1.368 . S
C2568 C2567 1.523 . S
H2569 C2544 0.950 . S
H2570 C2546 0.950 . S
H2571 C2547 0.949 . S
H2572 C2549 0.950 . S
H2573 C2551 0.950 . S
C2574 C2575 1.349 . S
C2574 C2576 1.327 . S
C2574 H2599 0.950 . S
C2575 C2574 1.349 . S
C2575 C2591 1.349 . S
C2576 C2574 1.327 . S
C2576 C2595 1.429 . S
C2576 H2600 0.950 . S
C2577 C2594 1.574 . S
C2577 C2596 1.368 . S
C2577 H2601 0.949 . S
H2578 C2582 0.949 . S
C2579 C2580 1.349 . S
C2579 C2581 1.327 . S
C2579 H2602 0.950 . S
C2580 C2579 1.349 . S
C2580 C2592 1.349 . S
C2581 C2579 1.327 . S
C2581 C2597 1.429 . S
C2581 H2603 0.950 . S
C2582 H2578 0.949 . S
C2582 C2590 1.574 . S
C2582 C2598 1.368 . S
H2583 C2591 0.950 . S
H2584 C2589 0.950 . S
H2585 C2590 0.949 . S
H2586 C2592 0.950 . S
H2587 C2593 0.950 . S
H2588 C2594 0.949 . S
C2589 H2584 0.950 . S
C2589 C2591 1.327 . S
C2589 C2595 1.429 . S
C2590 C2582 1.574 . S
C2590 H2585 0.949 . S
C2590 C2596 1.368 . S
C2591 C2575 1.349 . S
C2591 H2583 0.950 . S
C2591 C2589 1.327 . S
C2592 C2580 1.349 . S
C2592 H2586 0.950 . S
C2592 C2593 1.327 . S
C2593 H2587 0.950 . S
C2593 C2592 1.327 . S
C2593 C2597 1.429 . S
C2594 C2577 1.574 . S
C2594 H2588 0.949 . S
C2594 C2598 1.368 . S
C2595 C2576 1.429 . S
C2595 C2589 1.429 . S
C2595 C2596 1.523 . S
C2596 C2577 1.368 . S
C2596 C2590 1.368 . S
C2596 C2595 1.523 . S
C2597 C2581 1.429 . S
C2597 C2593 1.429 . S
C2597 C2598 1.523 . S
C2598 C2582 1.368 . S
C2598 C2594 1.368 . S
C2598 C2597 1.523 . S
H2599 C2574 0.950 . S
H2600 C2576 0.950 . S
H2601 C2577 0.949 . S
H2602 C2579 0.950 . S
H2603 C2581 0.950 . S
C2604 C2605 1.349 . S
C2604 C2606 1.327 . S
C2604 H2629 0.950 . S
C2605 C2604 1.349 . S
C2605 C2621 1.349 . S
C2606 C2604 1.327 . S
C2606 C2625 1.429 . S
C2606 H2630 0.950 . S
C2607 C2624 1.574 . S
C2607 C2626 1.368 . S
C2607 H2631 0.949 . S
H2608 C2612 0.949 . S
C2609 C2610 1.349 . S
C2609 C2611 1.327 . S
C2609 H2632 0.950 . S
C2610 C2609 1.349 . S
C2610 C2622 1.349 . S
C2611 C2609 1.327 . S
C2611 C2627 1.429 . S
C2611 H2633 0.950 . S
C2612 H2608 0.949 . S
C2612 C2620 1.574 . S
C2612 C2628 1.368 . S
H2613 C2621 0.950 . S
H2614 C2619 0.950 . S
H2615 C2620 0.949 . S
H2616 C2622 0.950 . S
H2617 C2623 0.950 . S
H2618 C2624 0.949 . S
C2619 H2614 0.950 . S
C2619 C2621 1.327 . S
C2619 C2625 1.429 . S
C2620 C2612 1.574 . S
C2620 H2615 0.949 . S
C2620 C2626 1.368 . S
C2621 C2605 1.349 . S
C2621 H2613 0.950 . S
C2621 C2619 1.327 . S
C2622 C2610 1.349 . S
C2622 H2616 0.950 . S
C2622 C2623 1.327 . S
C2623 H2617 0.950 . S
C2623 C2622 1.327 . S
C2623 C2627 1.429 . S
C2624 C2607 1.574 . S
C2624 H2618 0.949 . S
C2624 C2628 1.368 . S
C2625 C2606 1.429 . S
C2625 C2619 1.429 . S
C2625 C2626 1.523 . S
C2626 C2607 1.368 . S
C2626 C2620 1.368 . S
C2626 C2625 1.523 . S
C2627 C2611 1.429 . S
C2627 C2623 1.429 . S
C2627 C2628 1.523 . S
C2628 C2612 1.368 . S
C2628 C2624 1.368 . S
C2628 C2627 1.523 . S
H2629 C2604 0.950 . S
H2630 C2606 0.950 . S
H2631 C2607 0.949 . S
H2632 C2609 0.950 . S
H2633 C2611 0.950 . S
C2634 C2635 1.349 . S
C2634 C2636 1.327 . S
C2634 H2659 0.950 . S
C2635 C2634 1.349 . S
C2635 C2651 1.349 . S
C2636 C2634 1.327 . S
C2636 C2655 1.429 . S
C2636 H2660 0.950 . S
C2637 C2654 1.574 . S
C2637 C2656 1.368 . S
C2637 H2661 0.949 . S
H2638 C2642 0.949 . S
C2639 C2640 1.349 . S
C2639 C2641 1.327 . S
C2639 H2662 0.950 . S
C2640 C2639 1.349 . S
C2640 C2652 1.349 . S
C2641 C2639 1.327 . S
C2641 C2657 1.429 . S
C2641 H2663 0.950 . S
C2642 H2638 0.949 . S
C2642 C2650 1.574 . S
C2642 C2658 1.368 . S
H2643 C2651 0.950 . S
H2644 C2649 0.950 . S
H2645 C2650 0.949 . S
H2646 C2652 0.950 . S
H2647 C2653 0.950 . S
H2648 C2654 0.949 . S
C2649 H2644 0.950 . S
C2649 C2651 1.327 . S
C2649 C2655 1.429 . S
C2650 C2642 1.574 . S
C2650 H2645 0.949 . S
C2650 C2656 1.368 . S
C2651 C2635 1.349 . S
C2651 H2643 0.950 . S
C2651 C2649 1.327 . S
C2652 C2640 1.349 . S
C2652 H2646 0.950 . S
C2652 C2653 1.327 . S
C2653 H2647 0.950 . S
C2653 C2652 1.327 . S
C2653 C2657 1.429 . S
C2654 C2637 1.574 . S
C2654 H2648 0.949 . S
C2654 C2658 1.368 . S
C2655 C2636 1.429 . S
C2655 C2649 1.429 . S
C2655 C2656 1.523 . S
C2656 C2637 1.368 . S
C2656 C2650 1.368 . S
C2656 C2655 1.523 . S
C2657 C2641 1.429 . S
C2657 C2653 1.429 . S
C2657 C2658 1.523 . S
C2658 C2642 1.368 . S
C2658 C2654 1.368 . S
C2658 C2657 1.523 . S
H2659 C2634 0.950 . S
H2660 C2636 0.950 . S
H2661 C2637 0.949 . S
H2662 C2639 0.950 . S
H2663 C2641 0.950 . S
C2664 C2665 1.349 . S
C2664 C2666 1.327 . S
C2664 H2689 0.950 . S
C2665 C2664 1.349 . S
C2665 C2681 1.349 . S
C2666 C2664 1.327 . S
C2666 C2685 1.429 . S
C2666 H2690 0.950 . S
C2667 C2684 1.574 . S
C2667 C2686 1.368 . S
C2667 H2691 0.949 . S
H2668 C2672 0.949 . S
C2669 C2670 1.349 . S
C2669 C2671 1.327 . S
C2669 H2692 0.950 . S
C2670 C2669 1.349 . S
C2670 C2682 1.349 . S
C2671 C2669 1.327 . S
C2671 C2687 1.429 . S
C2671 H2693 0.950 . S
C2672 H2668 0.949 . S
C2672 C2680 1.574 . S
C2672 C2688 1.368 . S
H2673 C2681 0.950 . S
H2674 C2679 0.950 . S
H2675 C2680 0.949 . S
H2676 C2682 0.950 . S
H2677 C2683 0.950 . S
H2678 C2684 0.949 . S
C2679 H2674 0.950 . S
C2679 C2681 1.327 . S
C2679 C2685 1.429 . S
C2680 C2672 1.574 . S
C2680 H2675 0.949 . S
C2680 C2686 1.368 . S
C2681 C2665 1.349 . S
C2681 H2673 0.950 . S
C2681 C2679 1.327 . S
C2682 C2670 1.349 . S
C2682 H2676 0.950 . S
C2682 C2683 1.327 . S
C2683 H2677 0.950 . S
C2683 C2682 1.327 . S
C2683 C2687 1.429 . S
C2684 C2667 1.574 . S
C2684 H2678 0.949 . S
C2684 C2688 1.368 . S
C2685 C2666 1.429 . S
C2685 C2679 1.429 . S
C2685 C2686 1.523 . S
C2686 C2667 1.368 . S
C2686 C2680 1.368 . S
C2686 C2685 1.523 . S
C2687 C2671 1.429 . S
C2687 C2683 1.429 . S
C2687 C2688 1.523 . S
C2688 C2672 1.368 . S
C2688 C2684 1.368 . S
C2688 C2687 1.523 . S
H2689 C2664 0.950 . S
H2690 C2666 0.950 . S
H2691 C2667 0.949 . S
H2692 C2669 0.950 . S
H2693 C2671 0.950 . S
C2694 C2695 1.349 . S
C2694 C2696 1.327 . S
C2694 H2719 0.950 . S
C2695 C2694 1.349 . S
C2695 C2711 1.349 . S
C2696 C2694 1.327 . S
C2696 C2715 1.429 . S
C2696 H2720 0.950 . S
C2697 C2714 1.574 . S
C2697 C2716 1.368 . S
C2697 H2721 0.949 . S
H2698 C2702 0.949 . S
C2699 C2700 1.349 . S
C2699 C2701 1.327 . S
C2699 H2722 0.950 . S
C2700 C2699 1.349 . S
C2700 C2712 1.349 . S
C2701 C2699 1.327 . S
C2701 C2717 1.429 . S
C2701 H2723 0.950 . S
C2702 H2698 0.949 . S
C2702 C2710 1.574 . S
C2702 C2718 1.368 . S
H2703 C2711 0.950 . S
H2704 C2709 0.950 . S
H2705 C2710 0.949 . S
H2706 C2712 0.950 . S
H2707 C2713 0.950 . S
H2708 C2714 0.949 . S
C2709 H2704 0.950 . S
C2709 C2711 1.327 . S
C2709 C2715 1.429 . S
C2710 C2702 1.574 . S
C2710 H2705 0.949 . S
C2710 C2716 1.368 . S
C2711 C2695 1.349 . S
C2711 H2703 0.950 . S
C2711 C2709 1.327 . S
C2712 C2700 1.349 . S
C2712 H2706 0.950 . S
C2712 C2713 1.327 . S
C2713 H2707 0.950 . S
C2713 C2712 1.327 . S
C2713 C2717 1.429 . S
C2714 C2697 1.574 . S
C2714 H2708 0.949 . S
C2714 C2718 1.368 . S
C2715 C2696 1.429 . S
C2715 C2709 1.429 . S
C2715 C2716 1.523 . S
C2716 C2697 1.368 . S
C2716 C2710 1.368 . S
C2716 C2715 1.523 . S
C2717 C2701 1.429 . S
C2717 C2713 1.429 . S
C2717 C2718 1.523 . S
C2718 C2702 1.368 . S
C2718 C2714 1.368 . S
C2718 C2717 1.523 . S
H2719 C2694 0.950 . S
H2720 C2696 0.950 . S
H2721 C2697 0.949 . S
H2722 C2699 0.950 . S
H2723 C2701 0.950 . S
C2724 C2725 1.349 . S
C2724 C2726 1.327 . S
C2724 H2749 0.950 . S
C2725 C2724 1.349 . S
C2725 C2741 1.349 . S
C2726 C2724 1.327 . S
C2726 C2745 1.429 . S
C2726 H2750 0.950 . S
C2727 C2744 1.574 . S
C2727 C2746 1.368 . S
C2727 H2751 0.949 . S
H2728 C2732 0.949 . S
C2729 C2730 1.349 . S
C2729 C2731 1.327 . S
C2729 H2752 0.950 . S
C2730 C2729 1.349 . S
C2730 C2742 1.349 . S
C2731 C2729 1.327 . S
C2731 C2747 1.429 . S
C2731 H2753 0.950 . S
C2732 H2728 0.949 . S
C2732 C2740 1.574 . S
C2732 C2748 1.368 . S
H2733 C2741 0.950 . S
H2734 C2739 0.950 . S
H2735 C2740 0.949 . S
H2736 C2742 0.950 . S
H2737 C2743 0.950 . S
H2738 C2744 0.949 . S
C2739 H2734 0.950 . S
C2739 C2741 1.327 . S
C2739 C2745 1.429 . S
C2740 C2732 1.574 . S
C2740 H2735 0.949 . S
C2740 C2746 1.368 . S
C2741 C2725 1.349 . S
C2741 H2733 0.950 . S
C2741 C2739 1.327 . S
C2742 C2730 1.349 . S
C2742 H2736 0.950 . S
C2742 C2743 1.327 . S
C2743 H2737 0.950 . S
C2743 C2742 1.327 . S
C2743 C2747 1.429 . S
C2744 C2727 1.574 . S
C2744 H2738 0.949 . S
C2744 C2748 1.368 . S
C2745 C2726 1.429 . S
C2745 C2739 1.429 . S
C2745 C2746 1.523 . S
C2746 C2727 1.368 . S
C2746 C2740 1.368 . S
C2746 C2745 1.523 . S
C2747 C2731 1.429 . S
C2747 C2743 1.429 . S
C2747 C2748 1.523 . S
C2748 C2732 1.368 . S
C2748 C2744 1.368 . S
C2748 C2747 1.523 . S
H2749 C2724 0.950 . S
H2750 C2726 0.950 . S
H2751 C2727 0.949 . S
H2752 C2729 0.950 . S
H2753 C2731 0.950 . S
C2754 C2755 1.349 . S
C2754 C2756 1.327 . S
C2754 H2779 0.950 . S
C2755 C2754 1.349 . S
C2755 C2771 1.349 . S
C2756 C2754 1.327 . S
C2756 C2775 1.429 . S
C2756 H2780 0.950 . S
C2757 C2774 1.574 . S
C2757 C2776 1.368 . S
C2757 H2781 0.949 . S
H2758 C2762 0.949 . S
C2759 C2760 1.349 . S
C2759 C2761 1.327 . S
C2759 H2782 0.950 . S
C2760 C2759 1.349 . S
C2760 C2772 1.349 . S
C2761 C2759 1.327 . S
C2761 C2777 1.429 . S
C2761 H2783 0.950 . S
C2762 H2758 0.949 . S
C2762 C2770 1.574 . S
C2762 C2778 1.368 . S
H2763 C2771 0.950 . S
H2764 C2769 0.950 . S
H2765 C2770 0.949 . S
H2766 C2772 0.950 . S
H2767 C2773 0.950 . S
H2768 C2774 0.949 . S
C2769 H2764 0.950 . S
C2769 C2771 1.327 . S
C2769 C2775 1.429 . S
C2770 C2762 1.574 . S
C2770 H2765 0.949 . S
C2770 C2776 1.368 . S
C2771 C2755 1.349 . S
C2771 H2763 0.950 . S
C2771 C2769 1.327 . S
C2772 C2760 1.349 . S
C2772 H2766 0.950 . S
C2772 C2773 1.327 . S
C2773 H2767 0.950 . S
C2773 C2772 1.327 . S
C2773 C2777 1.429 . S
C2774 C2757 1.574 . S
C2774 H2768 0.949 . S
C2774 C2778 1.368 . S
C2775 C2756 1.429 . S
C2775 C2769 1.429 . S
C2775 C2776 1.523 . S
C2776 C2757 1.368 . S
C2776 C2770 1.368 . S
C2776 C2775 1.523 . S
C2777 C2761 1.429 . S
C2777 C2773 1.429 . S
C2777 C2778 1.523 . S
C2778 C2762 1.368 . S
C2778 C2774 1.368 . S
C2778 C2777 1.523 . S
H2779 C2754 0.950 . S
H2780 C2756 0.950 . S
H2781 C2757 0.949 . S
H2782 C2759 0.950 . S
H2783 C2761 0.950 . S
C2784 C2785 1.349 . S
C2784 C2786 1.327 . S
C2784 H2809 0.950 . S
C2785 C2784 1.349 . S
C2785 C2801 1.349 . S
C2786 C2784 1.327 . S
C2786 C2805 1.429 . S
C2786 H2810 0.950 . S
C2787 C2804 1.574 . S
C2787 C2806 1.368 . S
C2787 H2811 0.949 . S
H2788 C2792 0.949 . S
C2789 C2790 1.349 . S
C2789 C2791 1.327 . S
C2789 H2812 0.950 . S
C2790 C2789 1.349 . S
C2790 C2802 1.349 . S
C2791 C2789 1.327 . S
C2791 C2807 1.429 . S
C2791 H2813 0.950 . S
C2792 H2788 0.949 . S
C2792 C2800 1.574 . S
C2792 C2808 1.368 . S
H2793 C2801 0.950 . S
H2794 C2799 0.950 . S
H2795 C2800 0.949 . S
H2796 C2802 0.950 . S
H2797 C2803 0.950 . S
H2798 C2804 0.949 . S
C2799 H2794 0.950 . S
C2799 C2801 1.327 . S
C2799 C2805 1.429 . S
C2800 C2792 1.574 . S
C2800 H2795 0.949 . S
C2800 C2806 1.368 . S
C2801 C2785 1.349 . S
C2801 H2793 0.950 . S
C2801 C2799 1.327 . S
C2802 C2790 1.349 . S
C2802 H2796 0.950 . S
C2802 C2803 1.327 . S
C2803 H2797 0.950 . S
C2803 C2802 1.327 . S
C2803 C2807 1.429 . S
C2804 C2787 1.574 . S
C2804 H2798 0.949 . S
C2804 C2808 1.368 . S
C2805 C2786 1.429 . S
C2805 C2799 1.429 . S
C2805 C2806 1.523 . S
C2806 C2787 1.368 . S
C2806 C2800 1.368 . S
C2806 C2805 1.523 . S
C2807 C2791 1.429 . S
C2807 C2803 1.429 . S
C2807 C2808 1.523 . S
C2808 C2792 1.368 . S
C2808 C2804 1.368 . S
C2808 C2807 1.523 . S
H2809 C2784 0.950 . S
H2810 C2786 0.950 . S
H2811 C2787 0.949 . S
H2812 C2789 0.950 . S
H2813 C2791 0.950 . S
C2814 C2815 1.349 . S
C2814 C2816 1.327 . S
C2814 H2839 0.950 . S
C2815 C2814 1.349 . S
C2815 C2831 1.349 . S
C2816 C2814 1.327 . S
C2816 C2835 1.429 . S
C2816 H2840 0.950 . S
C2817 C2834 1.574 . S
C2817 C2836 1.368 . S
C2817 H2841 0.949 . S
H2818 C2822 0.949 . S
C2819 C2820 1.349 . S
C2819 C2821 1.327 . S
C2819 H2842 0.950 . S
C2820 C2819 1.349 . S
C2820 C2832 1.349 . S
C2821 C2819 1.327 . S
C2821 C2837 1.429 . S
C2821 H2843 0.950 . S
C2822 H2818 0.949 . S
C2822 C2830 1.574 . S
C2822 C2838 1.368 . S
H2823 C2831 0.950 . S
H2824 C2829 0.950 . S
H2825 C2830 0.949 . S
H2826 C2832 0.950 . S
H2827 C2833 0.950 . S
H2828 C2834 0.949 . S
C2829 H2824 0.950 . S
C2829 C2831 1.327 . S
C2829 C2835 1.429 . S
C2830 C2822 1.574 . S
C2830 H2825 0.949 . S
C2830 C2836 1.368 . S
C2831 C2815 1.349 . S
C2831 H2823 0.950 . S
C2831 C2829 1.327 . S
C2832 C2820 1.349 . S
C2832 H2826 0.950 . S
C2832 C2833 1.327 . S
C2833 H2827 0.950 . S
C2833 C2832 1.327 . S
C2833 C2837 1.429 . S
C2834 C2817 1.574 . S
C2834 H2828 0.949 . S
C2834 C2838 1.368 . S
C2835 C2816 1.429 . S
C2835 C2829 1.429 . S
C2835 C2836 1.523 . S
C2836 C2817 1.368 . S
C2836 C2830 1.368 . S
C2836 C2835 1.523 . S
C2837 C2821 1.429 . S
C2837 C2833 1.429 . S
C2837 C2838 1.523 . S
C2838 C2822 1.368 . S
C2838 C2834 1.368 . S
C2838 C2837 1.523 . S
H2839 C2814 0.950 . S
H2840 C2816 0.950 . S
H2841 C2817 0.949 . S
H2842 C2819 0.950 . S
H2843 C2821 0.950 . S
C2844 C2845 1.349 . S
C2844 C2846 1.327 . S
C2844 H2869 0.950 . S
C2845 C2844 1.349 . S
C2845 C2861 1.349 . S
C2846 C2844 1.327 . S
C2846 C2865 1.429 . S
C2846 H2870 0.950 . S
C2847 C2864 1.574 . S
C2847 C2866 1.368 . S
C2847 H2871 0.949 . S
H2848 C2852 0.949 . S
C2849 C2850 1.349 . S
C2849 C2851 1.327 . S
C2849 H2872 0.950 . S
C2850 C2849 1.349 . S
C2850 C2862 1.349 . S
C2851 C2849 1.327 . S
C2851 C2867 1.429 . S
C2851 H2873 0.950 . S
C2852 H2848 0.949 . S
C2852 C2860 1.574 . S
C2852 C2868 1.368 . S
H2853 C2861 0.950 . S
H2854 C2859 0.950 . S
H2855 C2860 0.949 . S
H2856 C2862 0.950 . S
H2857 C2863 0.950 . S
H2858 C2864 0.949 . S
C2859 H2854 0.950 . S
C2859 C2861 1.327 . S
C2859 C2865 1.429 . S
C2860 C2852 1.574 . S
C2860 H2855 0.949 . S
C2860 C2866 1.368 . S
C2861 C2845 1.349 . S
C2861 H2853 0.950 . S
C2861 C2859 1.327 . S
C2862 C2850 1.349 . S
C2862 H2856 0.950 . S
C2862 C2863 1.327 . S
C2863 H2857 0.950 . S
C2863 C2862 1.327 . S
C2863 C2867 1.429 . S
C2864 C2847 1.574 . S
C2864 H2858 0.949 . S
C2864 C2868 1.368 . S
C2865 C2846 1.429 . S
C2865 C2859 1.429 . S
C2865 C2866 1.523 . S
C2866 C2847 1.368 . S
C2866 C2860 1.368 . S
C2866 C2865 1.523 . S
C2867 C2851 1.429 . S
C2867 C2863 1.429 . S
C2867 C2868 1.523 . S
C2868 C2852 1.368 . S
C2868 C2864 1.368 . S
C2868 C2867 1.523 . S
H2869 C2844 0.950 . S
H2870 C2846 0.950 . S
H2871 C2847 0.949 . S
H2872 C2849 0.950 . S
H2873 C2851 0.950 . S
C2874 C2875 1.349 . S
C2874 C2876 1.327 . S
C2874 H2899 0.950 . S
C2875 C2874 1.349 . S
C2875 C2891 1.349 . S
C2876 C2874 1.327 . S
C2876 C2895 1.429 . S
C2876 H2900 0.950 . S
C2877 C2894 1.574 . S
C2877 C2896 1.368 . S
C2877 H2901 0.949 . S
H2878 C2882 0.949 . S
C2879 C2880 1.349 . S
C2879 C2881 1.327 . S
C2879 H2902 0.950 . S
C2880 C2879 1.349 . S
C2880 C2892 1.349 . S
C2881 C2879 1.327 . S
C2881 C2897 1.429 . S
C2881 H2903 0.950 . S
C2882 H2878 0.949 . S
C2882 C2890 1.574 . S
C2882 C2898 1.368 . S
H2883 C2891 0.950 . S
H2884 C2889 0.950 . S
H2885 C2890 0.949 . S
H2886 C2892 0.950 . S
H2887 C2893 0.950 . S
H2888 C2894 0.949 . S
C2889 H2884 0.950 . S
C2889 C2891 1.327 . S
C2889 C2895 1.429 . S
C2890 C2882 1.574 . S
C2890 H2885 0.949 . S
C2890 C2896 1.368 . S
C2891 C2875 1.349 . S
C2891 H2883 0.950 . S
C2891 C2889 1.327 . S
C2892 C2880 1.349 . S
C2892 H2886 0.950 . S
C2892 C2893 1.327 . S
C2893 H2887 0.950 . S
C2893 C2892 1.327 . S
C2893 C2897 1.429 . S
C2894 C2877 1.574 . S
C2894 H2888 0.949 . S
C2894 C2898 1.368 . S
C2895 C2876 1.429 . S
C2895 C2889 1.429 . S
C2895 C2896 1.523 . S
C2896 C2877 1.368 . S
C2896 C2890 1.368 . S
C2896 C2895 1.523 . S
C2897 C2881 1.429 . S
C2897 C2893 1.429 . S
C2897 C2898 1.523 . S
C2898 C2882 1.368 . S
C2898 C2894 1.368 . S
C2898 C2897 1.523 . S
H2899 C2874 0.950 . S
H2900 C2876 0.950 . S
H2901 C2877 0.949 . S
H2902 C2879 0.950 . S
H2903 C2881 0.950 . S
C2904 C2905 1.349 . S
C2904 C2906 1.327 . S
C2904 H2929 0.950 . S
C2905 C2904 1.349 . S
C2905 C2921 1.349 . S
C2906 C2904 1.327 . S
C2906 C2925 1.429 . S
C2906 H2930 0.950 . S
C2907 C2924 1.574 . S
C2907 C2926 1.368 . S
C2907 H2931 0.949 . S
H2908 C2912 0.949 . S
C2909 C2910 1.349 . S
C2909 C2911 1.327 . S
C2909 H2932 0.950 . S
C2910 C2909 1.349 . S
C2910 C2922 1.349 . S
C2911 C2909 1.327 . S
C2911 C2927 1.429 . S
C2911 H2933 0.950 . S
C2912 H2908 0.949 . S
C2912 C2920 1.574 . S
C2912 C2928 1.368 . S
H2913 C2921 0.950 . S
H2914 C2919 0.950 . S
H2915 C2920 0.949 . S
H2916 C2922 0.950 . S
H2917 C2923 0.950 . S
H2918 C2924 0.949 . S
C2919 H2914 0.950 . S
C2919 C2921 1.327 . S
C2919 C2925 1.429 . S
C2920 C2912 1.574 . S
C2920 H2915 0.949 . S
C2920 C2926 1.368 . S
C2921 C2905 1.349 . S
C2921 H2913 0.950 . S
C2921 C2919 1.327 . S
C2922 C2910 1.349 . S
C2922 H2916 0.950 . S
C2922 C2923 1.327 . S
C2923 H2917 0.950 . S
C2923 C2922 1.327 . S
C2923 C2927 1.429 . S
C2924 C2907 1.574 . S
C2924 H2918 0.949 . S
C2924 C2928 1.368 . S
C2925 C2906 1.429 . S
C2925 C2919 1.429 . S
C2925 C2926 1.523 . S
C2926 C2907 1.368 . S
C2926 C2920 1.368 . S
C2926 C2925 1.523 . S
C2927 C2911 1.429 . S
C2927 C2923 1.429 . S
C2927 C2928 1.523 . S
C2928 C2912 1.368 . S
C2928 C2924 1.368 . S
C2928 C2927 1.523 . S
H2929 C2904 0.950 . S
H2930 C2906 0.950 . S
H2931 C2907 0.949 . S
H2932 C2909 0.950 . S
H2933 C2911 0.950 . S
C2934 C2935 1.349 . S
C2934 C2936 1.327 . S
C2934 H2959 0.950 . S
C2935 C2934 1.349 . S
C2935 C2951 1.349 . S
C2936 C2934 1.327 . S
C2936 C2955 1.429 . S
C2936 H2960 0.950 . S
C2937 C2954 1.574 . S
C2937 C2956 1.368 . S
C2937 H2961 0.949 . S
H2938 C2942 0.949 . S
C2939 C2940 1.349 . S
C2939 C2941 1.327 . S
C2939 H2962 0.950 . S
C2940 C2939 1.349 . S
C2940 C2952 1.349 . S
C2941 C2939 1.327 . S
C2941 C2957 1.429 . S
C2941 H2963 0.950 . S
C2942 H2938 0.949 . S
C2942 C2950 1.574 . S
C2942 C2958 1.368 . S
H2943 C2951 0.950 . S
H2944 C2949 0.950 . S
H2945 C2950 0.949 . S
H2946 C2952 0.950 . S
H2947 C2953 0.950 . S
H2948 C2954 0.949 . S
C2949 H2944 0.950 . S
C2949 C2951 1.327 . S
C2949 C2955 1.429 . S
C2950 C2942 1.574 . S
C2950 H2945 0.949 . S
C2950 C2956 1.368 . S
C2951 C2935 1.349 . S
C2951 H2943 0.950 . S
C2951 C2949 1.327 . S
C2952 C2940 1.349 . S
C2952 H2946 0.950 . S
C2952 C2953 1.327 . S
C2953 H2947 0.950 . S
C2953 C2952 1.327 . S
C2953 C2957 1.429 . S
C2954 C2937 1.574 . S
C2954 H2948 0.949 . S
C2954 C2958 1.368 . S
C2955 C2936 1.429 . S
C2955 C2949 1.429 . S
C2955 C2956 1.523 . S
C2956 C2937 1.368 . S
C2956 C2950 1.368 . S
C2956 C2955 1.523 . S
C2957 C2941 1.429 . S
C2957 C2953 1.429 . S
C2957 C2958 1.523 . S
C2958 C2942 1.368 . S
C2958 C2954 1.368 . S
C2958 C2957 1.523 . S
H2959 C2934 0.950 . S
H2960 C2936 0.950 . S
H2961 C2937 0.949 . S
H2962 C2939 0.950 . S
H2963 C2941 0.950 . S
C2964 C2965 1.349 . S
C2964 C2966 1.327 . S
C2964 H2989 0.950 . S
C2965 C2964 1.349 . S
C2965 C2981 1.349 . S
C2966 C2964 1.327 . S
C2966 C2985 1.429 . S
C2966 H2990 0.950 . S
C2967 C2984 1.574 . S
C2967 C2986 1.368 . S
C2967 H2991 0.949 . S
H2968 C2972 0.949 . S
C2969 C2970 1.349 . S
C2969 C2971 1.327 . S
C2969 H2992 0.950 . S
C2970 C2969 1.349 . S
C2970 C2982 1.349 . S
C2971 C2969 1.327 . S
C2971 C2987 1.429 . S
C2971 H2993 0.950 . S
C2972 H2968 0.949 . S
C2972 C2980 1.574 . S
C2972 C2988 1.368 . S
H2973 C2981 0.950 . S
H2974 C2979 0.950 . S
H2975 C2980 0.949 . S
H2976 C2982 0.950 . S
H2977 C2983 0.950 . S
H2978 C2984 0.949 . S
C2979 H2974 0.950 . S
C2979 C2981 1.327 . S
C2979 C2985 1.429 . S
C2980 C2972 1.574 . S
C2980 H2975 0.949 . S
C2980 C2986 1.368 . S
C2981 C2965 1.349 . S
C2981 H2973 0.950 . S
C2981 C2979 1.327 . S
C2982 C2970 1.349 . S
C2982 H2976 0.950 . S
C2982 C2983 1.327 . S
C2983 H2977 0.950 . S
C2983 C2982 1.327 . S
C2983 C2987 1.429 . S
C2984 C2967 1.574 . S
C2984 H2978 0.949 . S
C2984 C2988 1.368 . S
C2985 C2966 1.429 . S
C2985 C2979 1.429 . S
C2985 C2986 1.523 . S
C2986 C2967 1.368 . S
C2986 C2980 1.368 . S
C2986 C2985 1.523 . S
C2987 C2971 1.429 . S
C2987 C2983 1.429 . S
C2987 C2988 1.523 . S
C2988 C2972 1.368 . S
C2988 C2984 1.368 . S
C2988 C2987 1.523 . S
H2989 C2964 0.950 . S
H2990 C2966 0.950 . S
H2991 C2967 0.949 . S
H2992 C2969 0.950 . S
H2993 C2971 0.950 . S
C2994 C2995 1.349 . S
C2994 C2996 1.327 . S
C2994 H3019 0.950 . S
C2995 C2994 1.349 . S
C2995 C3011 1.349 . S
C2996 C2994 1.327 . S
C2996 C3015 1.429 . S
C2996 H3020 0.950 . S
C2997 C3014 1.574 . S
C2997 C3016 1.368 . S
C2997 H3021 0.949 . S
H2998 C3002 0.949 . S
C2999 C3000 1.349 . S
C2999 C3001 1.327 . S
C2999 H3022 0.950 . S
C3000 C2999 1.349 . S
C3000 C3012 1.349 . S
C3001 C2999 1.327 . S
C3001 C3017 1.429 . S
C3001 H3023 0.950 . S
C3002 H2998 0.949 . S
C3002 C3010 1.574 . S
C3002 C3018 1.368 . S
H3003 C3011 0.950 . S
H3004 C3009 0.950 . S
H3005 C3010 0.949 . S
H3006 C3012 0.950 . S
H3007 C3013 0.950 . S
H3008 C3014 0.949 . S
C3009 H3004 0.950 . S
C3009 C3011 1.327 . S
C3009 C3015 1.429 . S
C3010 C3002 1.574 . S
C3010 H3005 0.949 . S
C3010 C3016 1.368 . S
C3011 C2995 1.349 . S
C3011 H3003 0.950 . S
C3011 C3009 1.327 . S
C3012 C3000 1.349 . S
C3012 H3006 0.950 . S
C3012 C3013 1.327 . S
C3013 H3007 0.950 . S
C3013 C3012 1.327 . S
C3013 C3017 1.429 . S
C3014 C2997 1.574 . S
C3014 H3008 0.949 . S
C3014 C3018 1.368 . S
C3015 C2996 1.429 . S
C3015 C3009 1.429 . S
C3015 C3016 1.523 . S
C3016 C2997 1.368 . S
C3016 C3010 1.368 . S
C3016 C3015 1.523 . S
C3017 C3001 1.429 . S
C3017 C3013 1.429 . S
C3017 C3018 1.523 . S
C3018 C3002 1.368 . S
C3018 C3014 1.368 . S
C3018 C3017 1.523 . S
H3019 C2994 0.950 . S
H3020 C2996 0.950 . S
H3021 C2997 0.949 . S
H3022 C2999 0.950 . S
H3023 C3001 0.950 . S
C3024 C3025 1.349 . S
C3024 C3026 1.327 . S
C3024 H3049 0.950 . S
C3025 C3024 1.349 . S
C3025 C3041 1.349 . S
C3026 C3024 1.327 . S
C3026 C3045 1.429 . S
C3026 H3050 0.950 . S
C3027 C3044 1.574 . S
C3027 C3046 1.368 . S
C3027 H3051 0.949 . S
H3028 C3032 0.949 . S
C3029 C3030 1.349 . S
C3029 C3031 1.327 . S
C3029 H3052 0.950 . S
C3030 C3029 1.349 . S
C3030 C3042 1.349 . S
C3031 C3029 1.327 . S
C3031 C3047 1.429 . S
C3031 H3053 0.950 . S
C3032 H3028 0.949 . S
C3032 C3040 1.574 . S
C3032 C3048 1.368 . S
H3033 C3041 0.950 . S
H3034 C3039 0.950 . S
H3035 C3040 0.949 . S
H3036 C3042 0.950 . S
H3037 C3043 0.950 . S
H3038 C3044 0.949 . S
C3039 H3034 0.950 . S
C3039 C3041 1.327 . S
C3039 C3045 1.429 . S
C3040 C3032 1.574 . S
C3040 H3035 0.949 . S
C3040 C3046 1.368 . S
C3041 C3025 1.349 . S
C3041 H3033 0.950 . S
C3041 C3039 1.327 . S
C3042 C3030 1.349 . S
C3042 H3036 0.950 . S
C3042 C3043 1.327 . S
C3043 H3037 0.950 . S
C3043 C3042 1.327 . S
C3043 C3047 1.429 . S
C3044 C3027 1.574 . S
C3044 H3038 0.949 . S
C3044 C3048 1.368 . S
C3045 C3026 1.429 . S
C3045 C3039 1.429 . S
C3045 C3046 1.523 . S
C3046 C3027 1.368 . S
C3046 C3040 1.368 . S
C3046 C3045 1.523 . S
C3047 C3031 1.429 . S
C3047 C3043 1.429 . S
C3047 C3048 1.523 . S
C3048 C3032 1.368 . S
C3048 C3044 1.368 . S
C3048 C3047 1.523 . S
H3049 C3024 0.950 . S
H3050 C3026 0.950 . S
H3051 C3027 0.949 . S
H3052 C3029 0.950 . S
H3053 C3031 0.950 . S
C3054 C3055 1.349 . S
C3054 C3056 1.327 . S
C3054 H3079 0.950 . S
C3055 C3054 1.349 . S
C3055 C3071 1.349 . S
C3056 C3054 1.327 . S
C3056 C3075 1.429 . S
C3056 H3080 0.950 . S
C3057 C3074 1.574 . S
C3057 C3076 1.368 . S
C3057 H3081 0.949 . S
H3058 C3062 0.949 . S
C3059 C3060 1.349 . S
C3059 C3061 1.327 . S
C3059 H3082 0.950 . S
C3060 C3059 1.349 . S
C3060 C3072 1.349 . S
C3061 C3059 1.327 . S
C3061 C3077 1.429 . S
C3061 H3083 0.950 . S
C3062 H3058 0.949 . S
C3062 C3070 1.574 . S
C3062 C3078 1.368 . S
H3063 C3071 0.950 . S
H3064 C3069 0.950 . S
H3065 C3070 0.949 . S
H3066 C3072 0.950 . S
H3067 C3073 0.950 . S
H3068 C3074 0.949 . S
C3069 H3064 0.950 . S
C3069 C3071 1.327 . S
C3069 C3075 1.429 . S
C3070 C3062 1.574 . S
C3070 H3065 0.949 . S
C3070 C3076 1.368 . S
C3071 C3055 1.349 . S
C3071 H3063 0.950 . S
C3071 C3069 1.327 . S
C3072 C3060 1.349 . S
C3072 H3066 0.950 . S
C3072 C3073 1.327 . S
C3073 H3067 0.950 . S
C3073 C3072 1.327 . S
C3073 C3077 1.429 . S
C3074 C3057 1.574 . S
C3074 H3068 0.949 . S
C3074 C3078 1.368 . S
C3075 C3056 1.429 . S
C3075 C3069 1.429 . S
C3075 C3076 1.523 . S
C3076 C3057 1.368 . S
C3076 C3070 1.368 . S
C3076 C3075 1.523 . S
C3077 C3061 1.429 . S
C3077 C3073 1.429 . S
C3077 C3078 1.523 . S
C3078 C3062 1.368 . S
C3078 C3074 1.368 . S
C3078 C3077 1.523 . S
H3079 C3054 0.950 . S
H3080 C3056 0.950 . S
H3081 C3057 0.949 . S
H3082 C3059 0.950 . S
H3083 C3061 0.950 . S
C3084 C3085 1.349 . S
C3084 C3086 1.327 . S
C3084 H3109 0.950 . S
C3085 C3084 1.349 . S
C3085 C3101 1.349 . S
C3086 C3084 1.327 . S
C3086 C3105 1.429 . S
C3086 H3110 0.950 . S
C3087 C3104 1.574 . S
C3087 C3106 1.368 . S
C3087 H3111 0.949 . S
H3088 C3092 0.949 . S
C3089 C3090 1.349 . S
C3089 C3091 1.327 . S
C3089 H3112 0.950 . S
C3090 C3089 1.349 . S
C3090 C3102 1.349 . S
C3091 C3089 1.327 . S
C3091 C3107 1.429 . S
C3091 H3113 0.950 . S
C3092 H3088 0.949 . S
C3092 C3100 1.574 . S
C3092 C3108 1.368 . S
H3093 C3101 0.950 . S
H3094 C3099 0.950 . S
H3095 C3100 0.949 . S
H3096 C3102 0.950 . S
H3097 C3103 0.950 . S
H3098 C3104 0.949 . S
C3099 H3094 0.950 . S
C3099 C3101 1.327 . S
C3099 C3105 1.429 . S
C3100 C3092 1.574 . S
C3100 H3095 0.949 . S
C3100 C3106 1.368 . S
C3101 C3085 1.349 . S
C3101 H3093 0.950 . S
C3101 C3099 1.327 . S
C3102 C3090 1.349 . S
C3102 H3096 0.950 . S
C3102 C3103 1.327 . S
C3103 H3097 0.950 . S
C3103 C3102 1.327 . S
C3103 C3107 1.429 . S
C3104 C3087 1.574 . S
C3104 H3098 0.949 . S
C3104 C3108 1.368 . S
C3105 C3086 1.429 . S
C3105 C3099 1.429 . S
C3105 C3106 1.523 . S
C3106 C3087 1.368 . S
C3106 C3100 1.368 . S
C3106 C3105 1.523 . S
C3107 C3091 1.429 . S
C3107 C3103 1.429 . S
C3107 C3108 1.523 . S
C3108 C3092 1.368 . S
C3108 C3104 1.368 . S
C3108 C3107 1.523 . S
H3109 C3084 0.950 . S
H3110 C3086 0.950 . S
H3111 C3087 0.949 . S
H3112 C3089 0.950 . S
H3113 C3091 0.950 . S
C3114 C3115 1.349 . S
C3114 C3116 1.327 . S
C3114 H3139 0.950 . S
C3115 C3114 1.349 . S
C3115 C3131 1.349 . S
C3116 C3114 1.327 . S
C3116 C3135 1.429 . S
C3116 H3140 0.950 . S
C3117 C3134 1.574 . S
C3117 C3136 1.368 . S
C3117 H3141 0.949 . S
H3118 C3122 0.949 . S
C3119 C3120 1.349 . S
C3119 C3121 1.327 . S
C3119 H3142 0.950 . S
C3120 C3119 1.349 . S
C3120 C3132 1.349 . S
C3121 C3119 1.327 . S
C3121 C3137 1.429 . S
C3121 H3143 0.950 . S
C3122 H3118 0.949 . S
C3122 C3130 1.574 . S
C3122 C3138 1.368 . S
H3123 C3131 0.950 . S
H3124 C3129 0.950 . S
H3125 C3130 0.949 . S
H3126 C3132 0.950 . S
H3127 C3133 0.950 . S
H3128 C3134 0.949 . S
C3129 H3124 0.950 . S
C3129 C3131 1.327 . S
C3129 C3135 1.429 . S
C3130 C3122 1.574 . S
C3130 H3125 0.949 . S
C3130 C3136 1.368 . S
C3131 C3115 1.349 . S
C3131 H3123 0.950 . S
C3131 C3129 1.327 . S
C3132 C3120 1.349 . S
C3132 H3126 0.950 . S
C3132 C3133 1.327 . S
C3133 H3127 0.950 . S
C3133 C3132 1.327 . S
C3133 C3137 1.429 . S
C3134 C3117 1.574 . S
C3134 H3128 0.949 . S
C3134 C3138 1.368 . S
C3135 C3116 1.429 . S
C3135 C3129 1.429 . S
C3135 C3136 1.523 . S
C3136 C3117 1.368 . S
C3136 C3130 1.368 . S
C3136 C3135 1.523 . S
C3137 C3121 1.429 . S
C3137 C3133 1.429 . S
C3137 C3138 1.523 . S
C3138 C3122 1.368 . S
C3138 C3134 1.368 . S
C3138 C3137 1.523 . S
H3139 C3114 0.950 . S
H3140 C3116 0.950 . S
H3141 C3117 0.949 . S
H3142 C3119 0.950 . S
H3143 C3121 0.950 . S
C3144 C3145 1.349 . S
C3144 C3146 1.327 . S
C3144 H3169 0.950 . S
C3145 C3144 1.349 . S
C3145 C3161 1.349 . S
C3146 C3144 1.327 . S
C3146 C3165 1.429 . S
C3146 H3170 0.950 . S
C3147 C3164 1.574 . S
C3147 C3166 1.368 . S
C3147 H3171 0.949 . S
H3148 C3152 0.949 . S
C3149 C3150 1.349 . S
C3149 C3151 1.327 . S
C3149 H3172 0.950 . S
C3150 C3149 1.349 . S
C3150 C3162 1.349 . S
C3151 C3149 1.327 . S
C3151 C3167 1.429 . S
C3151 H3173 0.950 . S
C3152 H3148 0.949 . S
C3152 C3160 1.574 . S
C3152 C3168 1.368 . S
H3153 C3161 0.950 . S
H3154 C3159 0.950 . S
H3155 C3160 0.949 . S
H3156 C3162 0.950 . S
H3157 C3163 0.950 . S
H3158 C3164 0.949 . S
C3159 H3154 0.950 . S
C3159 C3161 1.327 . S
C3159 C3165 1.429 . S
C3160 C3152 1.574 . S
C3160 H3155 0.949 . S
C3160 C3166 1.368 . S
C3161 C3145 1.349 . S
C3161 H3153 0.950 . S
C3161 C3159 1.327 . S
C3162 C3150 1.349 . S
C3162 H3156 0.950 . S
C3162 C3163 1.327 . S
C3163 H3157 0.950 . S
C3163 C3162 1.327 . S
C3163 C3167 1.429 . S
C3164 C3147 1.574 . S
C3164 H3158 0.949 . S
C3164 C3168 1.368 . S
C3165 C3146 1.429 . S
C3165 C3159 1.429 . S
C3165 C3166 1.523 . S
C3166 C3147 1.368 . S
C3166 C3160 1.368 . S
C3166 C3165 1.523 . S
C3167 C3151 1.429 . S
C3167 C3163 1.429 . S
C3167 C3168 1.523 . S
C3168 C3152 1.368 . S
C3168 C3164 1.368 . S
C3168 C3167 1.523 . S
H3169 C3144 0.950 . S
H3170 C3146 0.950 . S
H3171 C3147 0.949 . S
H3172 C3149 0.950 . S
H3173 C3151 0.950 . S
C3174 C3175 1.349 . S
C3174 C3176 1.327 . S
C3174 H3199 0.950 . S
C3175 C3174 1.349 . S
C3175 C3191 1.349 . S
C3176 C3174 1.327 . S
C3176 C3195 1.429 . S
C3176 H3200 0.950 . S
C3177 C3194 1.574 . S
C3177 C3196 1.368 . S
C3177 H3201 0.949 . S
H3178 C3182 0.949 . S
C3179 C3180 1.349 . S
C3179 C3181 1.327 . S
C3179 H3202 0.950 . S
C3180 C3179 1.349 . S
C3180 C3192 1.349 . S
C3181 C3179 1.327 . S
C3181 C3197 1.429 . S
C3181 H3203 0.950 . S
C3182 H3178 0.949 . S
C3182 C3190 1.574 . S
C3182 C3198 1.368 . S
H3183 C3191 0.950 . S
H3184 C3189 0.950 . S
H3185 C3190 0.949 . S
H3186 C3192 0.950 . S
H3187 C3193 0.950 . S
H3188 C3194 0.949 . S
C3189 H3184 0.950 . S
C3189 C3191 1.327 . S
C3189 C3195 1.429 . S
C3190 C3182 1.574 . S
C3190 H3185 0.949 . S
C3190 C3196 1.368 . S
C3191 C3175 1.349 . S
C3191 H3183 0.950 . S
C3191 C3189 1.327 . S
C3192 C3180 1.349 . S
C3192 H3186 0.950 . S
C3192 C3193 1.327 . S
C3193 H3187 0.950 . S
C3193 C3192 1.327 . S
C3193 C3197 1.429 . S
C3194 C3177 1.574 . S
C3194 H3188 0.949 . S
C3194 C3198 1.368 . S
C3195 C3176 1.429 . S
C3195 C3189 1.429 . S
C3195 C3196 1.523 . S
C3196 C3177 1.368 . S
C3196 C3190 1.368 . S
C3196 C3195 1.523 . S
C3197 C3181 1.429 . S
C3197 C3193 1.429 . S
C3197 C3198 1.523 . S
C3198 C3182 1.368 . S
C3198 C3194 1.368 . S
C3198 C3197 1.523 . S
H3199 C3174 0.950 . S
H3200 C3176 0.950 . S
H3201 C3177 0.949 . S
H3202 C3179 0.950 . S
H3203 C3181 0.950 . S
C3204 C3205 1.349 . S
C3204 C3206 1.327 . S
C3204 H3229 0.950 . S
C3205 C3204 1.349 . S
C3205 C3221 1.349 . S
C3206 C3204 1.327 . S
C3206 C3225 1.429 . S
C3206 H3230 0.950 . S
C3207 C3224 1.574 . S
C3207 C3226 1.368 . S
C3207 H3231 0.949 . S
H3208 C3212 0.949 . S
C3209 C3210 1.349 . S
C3209 C3211 1.327 . S
C3209 H3232 0.950 . S
C3210 C3209 1.349 . S
C3210 C3222 1.349 . S
C3211 C3209 1.327 . S
C3211 C3227 1.429 . S
C3211 H3233 0.950 . S
C3212 H3208 0.949 . S
C3212 C3220 1.574 . S
C3212 C3228 1.368 . S
H3213 C3221 0.950 . S
H3214 C3219 0.950 . S
H3215 C3220 0.949 . S
H3216 C3222 0.950 . S
H3217 C3223 0.950 . S
H3218 C3224 0.949 . S
C3219 H3214 0.950 . S
C3219 C3221 1.327 . S
C3219 C3225 1.429 . S
C3220 C3212 1.574 . S
C3220 H3215 0.949 . S
C3220 C3226 1.368 . S
C3221 C3205 1.349 . S
C3221 H3213 0.950 . S
C3221 C3219 1.327 . S
C3222 C3210 1.349 . S
C3222 H3216 0.950 . S
C3222 C3223 1.327 . S
C3223 H3217 0.950 . S
C3223 C3222 1.327 . S
C3223 C3227 1.429 . S
C3224 C3207 1.574 . S
C3224 H3218 0.949 . S
C3224 C3228 1.368 . S
C3225 C3206 1.429 . S
C3225 C3219 1.429 . S
C3225 C3226 1.523 . S
C3226 C3207 1.368 . S
C3226 C3220 1.368 . S
C3226 C3225 1.523 . S
C3227 C3211 1.429 . S
C3227 C3223 1.429 . S
C3227 C3228 1.523 . S
C3228 C3212 1.368 . S
C3228 C3224 1.368 . S
C3228 C3227 1.523 . S
H3229 C3204 0.950 . S
H3230 C3206 0.950 . S
H3231 C3207 0.949 . S
H3232 C3209 0.950 . S
H3233 C3211 0.950 . S
C3234 C3235 1.349 . S
C3234 C3236 1.327 . S
C3234 H3259 0.950 . S
C3235 C3234 1.349 . S
C3235 C3251 1.349 . S
C3236 C3234 1.327 . S
C3236 C3255 1.429 . S
C3236 H3260 0.950 . S
C3237 C3254 1.574 . S
C3237 C3256 1.368 . S
C3237 H3261 0.949 . S
H3238 C3242 0.949 . S
C3239 C3240 1.349 . S
C3239 C3241 1.327 . S
C3239 H3262 0.950 . S
C3240 C3239 1.349 . S
C3240 C3252 1.349 . S
C3241 C3239 1.327 . S
C3241 C3257 1.429 . S
C3241 H3263 0.950 . S
C3242 H3238 0.949 . S
C3242 C3250 1.574 . S
C3242 C3258 1.368 . S
H3243 C3251 0.950 . S
H3244 C3249 0.950 . S
H3245 C3250 0.949 . S
H3246 C3252 0.950 . S
H3247 C3253 0.950 . S
H3248 C3254 0.949 . S
C3249 H3244 0.950 . S
C3249 C3251 1.327 . S
C3249 C3255 1.429 . S
C3250 C3242 1.574 . S
C3250 H3245 0.949 . S
C3250 C3256 1.368 . S
C3251 C3235 1.349 . S
C3251 H3243 0.950 . S
C3251 C3249 1.327 . S
C3252 C3240 1.349 . S
C3252 H3246 0.950 . S
C3252 C3253 1.327 . S
C3253 H3247 0.950 . S
C3253 C3252 1.327 . S
C3253 C3257 1.429 . S
C3254 C3237 1.574 . S
C3254 H3248 0.949 . S
C3254 C3258 1.368 . S
C3255 C3236 1.429 . S
C3255 C3249 1.429 . S
C3255 C3256 1.523 . S
C3256 C3237 1.368 . S
C3256 C3250 1.368 . S
C3256 C3255 1.523 . S
C3257 C3241 1.429 . S
C3257 C3253 1.429 . S
C3257 C3258 1.523 . S
C3258 C3242 1.368 . S
C3258 C3254 1.368 . S
C3258 C3257 1.523 . S
H3259 C3234 0.950 . S
H3260 C3236 0.950 . S
H3261 C3237 0.949 . S
H3262 C3239 0.950 . S
H3263 C3241 0.950 . S
C3264 C3265 1.349 . S
C3264 C3266 1.327 . S
C3264 H3289 0.950 . S
C3265 C3264 1.349 . S
C3265 C3281 1.349 . S
C3266 C3264 1.327 . S
C3266 C3285 1.429 . S
C3266 H3290 0.950 . S
C3267 C3284 1.574 . S
C3267 C3286 1.368 . S
C3267 H3291 0.949 . S
H3268 C3272 0.949 . S
C3269 C3270 1.349 . S
C3269 C3271 1.327 . S
C3269 H3292 0.950 . S
C3270 C3269 1.349 . S
C3270 C3282 1.349 . S
C3271 C3269 1.327 . S
C3271 C3287 1.429 . S
C3271 H3293 0.950 . S
C3272 H3268 0.949 . S
C3272 C3280 1.574 . S
C3272 C3288 1.368 . S
H3273 C3281 0.950 . S
H3274 C3279 0.950 . S
H3275 C3280 0.949 . S
H3276 C3282 0.950 . S
H3277 C3283 0.950 . S
H3278 C3284 0.949 . S
C3279 H3274 0.950 . S
C3279 C3281 1.327 . S
C3279 C3285 1.429 . S
C3280 C3272 1.574 . S
C3280 H3275 0.949 . S
C3280 C3286 1.368 . S
C3281 C3265 1.349 . S
C3281 H3273 0.950 . S
C3281 C3279 1.327 . S
C3282 C3270 1.349 . S
C3282 H3276 0.950 . S
C3282 C3283 1.327 . S
C3283 H3277 0.950 . S
C3283 C3282 1.327 . S
C3283 C3287 1.429 . S
C3284 C3267 1.574 . S
C3284 H3278 0.949 . S
C3284 C3288 1.368 . S
C3285 C3266 1.429 . S
C3285 C3279 1.429 . S
C3285 C3286 1.523 . S
C3286 C3267 1.368 . S
C3286 C3280 1.368 . S
C3286 C3285 1.523 . S
C3287 C3271 1.429 . S
C3287 C3283 1.429 . S
C3287 C3288 1.523 . S
C3288 C3272 1.368 . S
C3288 C3284 1.368 . S
C3288 C3287 1.523 . S
H3289 C3264 0.950 . S
H3290 C3266 0.950 . S
H3291 C3267 0.949 . S
H3292 C3269 0.950 . S
H3293 C3271 0.950 . S
C3294 C3295 1.349 . S
C3294 C3296 1.327 . S
C3294 H3319 0.950 . S
C3295 C3294 1.349 . S
C3295 C3311 1.349 . S
C3296 C3294 1.327 . S
C3296 C3315 1.429 . S
C3296 H3320 0.950 . S
C3297 C3314 1.574 . S
C3297 C3316 1.368 . S
C3297 H3321 0.949 . S
H3298 C3302 0.949 . S
C3299 C3300 1.349 . S
C3299 C3301 1.327 . S
C3299 H3322 0.950 . S
C3300 C3299 1.349 . S
C3300 C3312 1.349 . S
C3301 C3299 1.327 . S
C3301 C3317 1.429 . S
C3301 H3323 0.950 . S
C3302 H3298 0.949 . S
C3302 C3310 1.574 . S
C3302 C3318 1.368 . S
H3303 C3311 0.950 . S
H3304 C3309 0.950 . S
H3305 C3310 0.949 . S
H3306 C3312 0.950 . S
H3307 C3313 0.950 . S
H3308 C3314 0.949 . S
C3309 H3304 0.950 . S
C3309 C3311 1.327 . S
C3309 C3315 1.429 . S
C3310 C3302 1.574 . S
C3310 H3305 0.949 . S
C3310 C3316 1.368 . S
C3311 C3295 1.349 . S
C3311 H3303 0.950 . S
C3311 C3309 1.327 . S
C3312 C3300 1.349 . S
C3312 H3306 0.950 . S
C3312 C3313 1.327 . S
C3313 H3307 0.950 . S
C3313 C3312 1.327 . S
C3313 C3317 1.429 . S
C3314 C3297 1.574 . S
C3314 H3308 0.949 . S
C3314 C3318 1.368 . S
C3315 C3296 1.429 . S
C3315 C3309 1.429 . S
C3315 C3316 1.523 . S
C3316 C3297 1.368 . S
C3316 C3310 1.368 . S
C3316 C3315 1.523 . S
C3317 C3301 1.429 . S
C3317 C3313 1.429 . S
C3317 C3318 1.523 . S
C3318 C3302 1.368 . S
C3318 C3314 1.368 . S
C3318 C3317 1.523 . S
H3319 C3294 0.950 . S
H3320 C3296 0.950 . S
H3321 C3297 0.949 . S
H3322 C3299 0.950 . S
H3323 C3301 0.950 . S
C3324 C3325 1.349 . S
C3324 C3326 1.327 . S
C3324 H3349 0.950 . S
C3325 C3324 1.349 . S
C3325 C3341 1.349 . S
C3326 C3324 1.327 . S
C3326 C3345 1.429 . S
C3326 H3350 0.950 . S
C3327 C3344 1.574 . S
C3327 C3346 1.368 . S
C3327 H3351 0.949 . S
H3328 C3332 0.949 . S
C3329 C3330 1.349 . S
C3329 C3331 1.327 . S
C3329 H3352 0.950 . S
C3330 C3329 1.349 . S
C3330 C3342 1.349 . S
C3331 C3329 1.327 . S
C3331 C3347 1.429 . S
C3331 H3353 0.950 . S
C3332 H3328 0.949 . S
C3332 C3340 1.574 . S
C3332 C3348 1.368 . S
H3333 C3341 0.950 . S
H3334 C3339 0.950 . S
H3335 C3340 0.949 . S
H3336 C3342 0.950 . S
H3337 C3343 0.950 . S
H3338 C3344 0.949 . S
C3339 H3334 0.950 . S
C3339 C3341 1.327 . S
C3339 C3345 1.429 . S
C3340 C3332 1.574 . S
C3340 H3335 0.949 . S
C3340 C3346 1.368 . S
C3341 C3325 1.349 . S
C3341 H3333 0.950 . S
C3341 C3339 1.327 . S
C3342 C3330 1.349 . S
C3342 H3336 0.950 . S
C3342 C3343 1.327 . S
C3343 H3337 0.950 . S
C3343 C3342 1.327 . S
C3343 C3347 1.429 . S
C3344 C3327 1.574 . S
C3344 H3338 0.949 . S
C3344 C3348 1.368 . S
C3345 C3326 1.429 . S
C3345 C3339 1.429 . S
C3345 C3346 1.523 . S
C3346 C3327 1.368 . S
C3346 C3340 1.368 . S
C3346 C3345 1.523 . S
C3347 C3331 1.429 . S
C3347 C3343 1.429 . S
C3347 C3348 1.523 . S
C3348 C3332 1.368 . S
C3348 C3344 1.368 . S
C3348 C3347 1.523 . S
H3349 C3324 0.950 . S
H3350 C3326 0.950 . S
H3351 C3327 0.949 . S
H3352 C3329 0.950 . S
H3353 C3331 0.950 . S
C3354 C3355 1.349 . S
C3354 C3356 1.327 . S
C3354 H3379 0.950 . S
C3355 C3354 1.349 . S
C3355 C3371 1.349 . S
C3356 C3354 1.327 . S
C3356 C3375 1.429 . S
C3356 H3380 0.950 . S
C3357 C3374 1.574 . S
C3357 C3376 1.368 . S
C3357 H3381 0.949 . S
H3358 C3362 0.949 . S
C3359 C3360 1.349 . S
C3359 C3361 1.327 . S
C3359 H3382 0.950 . S
C3360 C3359 1.349 . S
C3360 C3372 1.349 . S
C3361 C3359 1.327 . S
C3361 C3377 1.429 . S
C3361 H3383 0.950 . S
C3362 H3358 0.949 . S
C3362 C3370 1.574 . S
C3362 C3378 1.368 . S
H3363 C3371 0.950 . S
H3364 C3369 0.950 . S
H3365 C3370 0.949 . S
H3366 C3372 0.950 . S
H3367 C3373 0.950 . S
H3368 C3374 0.949 . S
C3369 H3364 0.950 . S
C3369 C3371 1.327 . S
C3369 C3375 1.429 . S
C3370 C3362 1.574 . S
C3370 H3365 0.949 . S
C3370 C3376 1.368 . S
C3371 C3355 1.349 . S
C3371 H3363 0.950 . S
C3371 C3369 1.327 . S
C3372 C3360 1.349 . S
C3372 H3366 0.950 . S
C3372 C3373 1.327 . S
C3373 H3367 0.950 . S
C3373 C3372 1.327 . S
C3373 C3377 1.429 . S
C3374 C3357 1.574 . S
C3374 H3368 0.949 . S
C3374 C3378 1.368 . S
C3375 C3356 1.429 . S
C3375 C3369 1.429 . S
C3375 C3376 1.523 . S
C3376 C3357 1.368 . S
C3376 C3370 1.368 . S
C3376 C3375 1.523 . S
C3377 C3361 1.429 . S
C3377 C3373 1.429 . S
C3377 C3378 1.523 . S
C3378 C3362 1.368 . S
C3378 C3374 1.368 . S
C3378 C3377 1.523 . S
H3379 C3354 0.950 . S
H3380 C3356 0.950 . S
H3381 C3357 0.949 . S
H3382 C3359 0.950 . S
H3383 C3361 0.950 . S
C3384 C3385 1.349 . S
C3384 C3386 1.327 . S
C3384 H3409 0.950 . S
C3385 C3384 1.349 . S
C3385 C3401 1.349 . S
C3386 C3384 1.327 . S
C3386 C3405 1.429 . S
C3386 H3410 0.950 . S
C3387 C3404 1.574 . S
C3387 C3406 1.368 . S
C3387 H3411 0.949 . S
H3388 C3392 0.949 . S
C3389 C3390 1.349 . S
C3389 C3391 1.327 . S
C3389 H3412 0.950 . S
C3390 C3389 1.349 . S
C3390 C3402 1.349 . S
C3391 C3389 1.327 . S
C3391 C3407 1.429 . S
C3391 H3413 0.950 . S
C3392 H3388 0.949 . S
C3392 C3400 1.574 . S
C3392 C3408 1.368 . S
H3393 C3401 0.950 . S
H3394 C3399 0.950 . S
H3395 C3400 0.949 . S
H3396 C3402 0.950 . S
H3397 C3403 0.950 . S
H3398 C3404 0.949 . S
C3399 H3394 0.950 . S
C3399 C3401 1.327 . S
C3399 C3405 1.429 . S
C3400 C3392 1.574 . S
C3400 H3395 0.949 . S
C3400 C3406 1.368 . S
C3401 C3385 1.349 . S
C3401 H3393 0.950 . S
C3401 C3399 1.327 . S
C3402 C3390 1.349 . S
C3402 H3396 0.950 . S
C3402 C3403 1.327 . S
C3403 H3397 0.950 . S
C3403 C3402 1.327 . S
C3403 C3407 1.429 . S
C3404 C3387 1.574 . S
C3404 H3398 0.949 . S
C3404 C3408 1.368 . S
C3405 C3386 1.429 . S
C3405 C3399 1.429 . S
C3405 C3406 1.523 . S
C3406 C3387 1.368 . S
C3406 C3400 1.368 . S
C3406 C3405 1.523 . S
C3407 C3391 1.429 . S
C3407 C3403 1.429 . S
C3407 C3408 1.523 . S
C3408 C3392 1.368 . S
C3408 C3404 1.368 . S
C3408 C3407 1.523 . S
H3409 C3384 0.950 . S
H3410 C3386 0.950 . S
H3411 C3387 0.949 . S
H3412 C3389 0.950 . S
H3413 C3391 0.950 . S
C3414 C3415 1.349 . S
C3414 C3416 1.327 . S
C3414 H3439 0.950 . S
C3415 C3414 1.349 . S
C3415 C3431 1.349 1_545 S
C3416 C3414 1.327 . S
C3416 C3435 1.429 . S
C3416 H3440 0.950 . S
C3417 C3434 1.574 . S
C3417 C3436 1.368 1_565 S
C3417 H3441 0.949 . S
H3418 C3422 0.949 . S
C3419 C3420 1.349 . S
C3419 C3421 1.327 . S
C3419 H3442 0.950 . S
C3420 C3419 1.349 . S
C3420 C3432 1.349 1_565 S
C3421 C3419 1.327 . S
C3421 C3437 1.429 . S
C3421 H3443 0.950 . S
C3422 H3418 0.949 . S
C3422 C3430 1.574 . S
C3422 C3438 1.344 1_545 S
H3423 C3431 0.950 . S
H3424 C3429 0.950 . S
H3425 C3430 0.949 . S
H3426 C3432 0.950 . S
H3427 C3433 0.950 . S
H3428 C3434 0.949 . S
C3429 H3424 0.950 . S
C3429 C3431 1.327 . S
C3429 C3435 1.429 1_565 S
C3430 C3422 1.574 . S
C3430 H3425 0.949 . S
C3430 C3436 1.368 . S
C3431 C3415 1.349 1_565 S
C3431 H3423 0.950 . S
C3431 C3429 1.327 . S
C3432 C3420 1.349 1_545 S
C3432 H3426 0.950 . S
C3432 C3433 1.327 . S
C3433 H3427 0.950 . S
C3433 C3432 1.327 . S
C3433 C3437 1.429 1_545 S
C3434 C3417 1.574 . S
C3434 H3428 0.949 . S
C3434 C3438 1.392 . S
C3435 C3416 1.429 . S
C3435 C3429 1.429 1_545 S
C3435 C3436 1.523 . S
C3436 C3417 1.368 1_545 S
C3436 C3430 1.368 . S
C3436 C3435 1.523 . S
C3437 C3421 1.429 . S
C3437 C3433 1.429 1_565 S
C3437 C3438 1.527 . S
C3438 C3422 1.344 1_565 S
C3438 C3434 1.392 . S
C3438 C3437 1.527 . S
H3439 C3414 0.950 . S
H3440 C3416 0.950 . S
H3441 C3417 0.949 . S
H3442 C3419 0.950 . S
H3443 C3421 0.950 . S
C3444 C3445 1.349 . S
C3444 C3446 1.327 . S
C3444 H3469 0.950 . S
C3445 C3444 1.349 . S
C3445 C3461 1.349 . S
C3446 C3444 1.327 . S
C3446 C3465 1.429 . S
C3446 H3470 0.950 . S
C3447 C3464 1.571 1_455 S
C3447 C3466 1.373 . S
C3447 H3471 0.969 . S
H3448 C3452 0.949 . S
C3449 C3450 1.349 . S
C3449 C3451 1.327 . S
C3449 H3472 0.950 . S
C3450 C3449 1.349 . S
C3450 C3462 1.349 . S
C3451 C3449 1.327 . S
C3451 C3467 1.429 . S
C3451 H3473 0.950 . S
C3452 H3448 0.949 . S
C3452 C3460 1.574 . S
C3452 C3468 1.368 . S
H3453 C3461 0.950 . S
H3454 C3459 0.950 . S
H3455 C3460 0.950 1_455 S
H3456 C3462 0.950 . S
H3457 C3463 0.950 . S
H3458 C3464 0.957 . S
C3459 H3454 0.950 . S
C3459 C3461 1.327 . S
C3459 C3465 1.429 . S
C3460 C3452 1.574 . S
C3460 H3455 0.950 1_655 S
C3460 C3466 1.345 1_655 S
C3461 C3445 1.349 . S
C3461 H3453 0.950 . S
C3461 C3459 1.327 . S
C3462 C3450 1.349 . S
C3462 H3456 0.950 . S
C3462 C3463 1.327 . S
C3463 H3457 0.950 . S
C3463 C3462 1.327 . S
C3463 C3467 1.429 . S
C3464 C3447 1.571 1_655 S
C3464 H3458 0.957 . S
C3464 C3468 1.397 . S
C3465 C3446 1.429 . S
C3465 C3459 1.429 . S
C3465 C3466 1.527 . S
C3466 C3447 1.373 . S
C3466 C3460 1.345 1_455 S
C3466 C3465 1.527 . S
C3467 C3451 1.429 . S
C3467 C3463 1.429 . S
C3467 C3468 1.523 . S
C3468 C3452 1.368 . S
C3468 C3464 1.397 . S
C3468 C3467 1.523 . S
H3469 C3444 0.950 . S
H3470 C3446 0.950 . S
H3471 C3447 0.969 . S
H3472 C3449 0.950 . S
H3473 C3451 0.950 . S
C3474 C3475 1.349 . S
C3474 C3476 1.327 . S
C3474 H3499 0.950 . S
C3475 C3474 1.349 . S
C3475 C3491 1.349 . S
C3476 C3474 1.327 . S
C3476 C3495 1.429 . S
C3476 H3500 0.950 . S
C3477 C3494 1.574 . S
C3477 C3496 1.368 . S
C3477 H3501 0.949 . S
H3478 C3482 0.949 . S
C3479 C3480 1.349 . S
C3479 C3481 1.327 . S
C3479 H3502 0.950 . S
C3480 C3479 1.349 . S
C3480 C3492 1.349 . S
C3481 C3479 1.327 . S
C3481 C3497 1.429 . S
C3481 H3503 0.950 . S
C3482 H3478 0.949 . S
C3482 C3490 1.574 . S
C3482 C3498 1.368 . S
H3483 C3491 0.950 . S
H3484 C3489 0.950 . S
H3485 C3490 0.949 . S
H3486 C3492 0.950 . S
H3487 C3493 0.950 . S
H3488 C3494 0.949 . S
C3489 H3484 0.950 . S
C3489 C3491 1.327 . S
C3489 C3495 1.429 . S
C3490 C3482 1.574 . S
C3490 H3485 0.949 . S
C3490 C3496 1.368 . S
C3491 C3475 1.349 . S
C3491 H3483 0.950 . S
C3491 C3489 1.327 . S
C3492 C3480 1.349 . S
C3492 H3486 0.950 . S
C3492 C3493 1.327 . S
C3493 H3487 0.950 . S
C3493 C3492 1.327 . S
C3493 C3497 1.429 . S
C3494 C3477 1.574 . S
C3494 H3488 0.949 . S
C3494 C3498 1.368 . S
C3495 C3476 1.429 . S
C3495 C3489 1.429 . S
C3495 C3496 1.523 . S
C3496 C3477 1.368 . S
C3496 C3490 1.368 . S
C3496 C3495 1.523 . S
C3497 C3481 1.429 . S
C3497 C3493 1.429 . S
C3497 C3498 1.523 . S
C3498 C3482 1.368 . S
C3498 C3494 1.368 . S
C3498 C3497 1.523 . S
H3499 C3474 0.950 . S
H3500 C3476 0.950 . S
H3501 C3477 0.949 . S
H3502 C3479 0.950 . S
H3503 C3481 0.950 . S
C3504 C3505 1.349 1_565 S
C3504 C3506 1.327 . S
C3504 H3529 0.950 . S
C3505 C3504 1.349 1_545 S
C3505 C3521 1.349 . S
C3506 C3504 1.327 . S
C3506 C3525 1.429 1_565 S
C3506 H3530 0.950 . S
C3507 C3524 1.574 . S
C3507 C3526 1.368 . S
C3507 H3531 0.949 . S
H3508 C3512 0.949 . S
C3509 C3510 1.349 1_545 S
C3509 C3511 1.327 . S
C3509 H3532 0.950 . S
C3510 C3509 1.349 1_565 S
C3510 C3522 1.349 . S
C3511 C3509 1.327 . S
C3511 C3527 1.429 1_545 S
C3511 H3533 0.950 . S
C3512 H3508 0.949 . S
C3512 C3520 1.574 . S
C3512 C3528 1.389 . S
H3513 C3521 0.950 . S
H3514 C3519 0.950 . S
H3515 C3520 0.949 . S
H3516 C3522 0.950 . S
H3517 C3523 0.950 . S
H3518 C3524 0.949 . S
C3519 H3514 0.950 . S
C3519 C3521 1.327 . S
C3519 C3525 1.429 . S
C3520 C3512 1.574 . S
C3520 H3515 0.949 . S
C3520 C3526 1.368 1_565 S
C3521 C3505 1.349 . S
C3521 H3513 0.950 . S
C3521 C3519 1.327 . S
C3522 C3510 1.349 . S
C3522 H3516 0.950 . S
C3522 C3523 1.327 . S
C3523 H3517 0.950 . S
C3523 C3522 1.327 . S
C3523 C3527 1.429 . S
C3524 C3507 1.574 . S
C3524 H3518 0.949 . S
C3524 C3528 1.348 1_545 S
C3525 C3506 1.429 1_545 S
C3525 C3519 1.429 . S
C3525 C3526 1.523 . S
C3526 C3507 1.368 . S
C3526 C3520 1.368 1_545 S
C3526 C3525 1.523 . S
C3527 C3511 1.429 1_565 S
C3527 C3523 1.429 . S
C3527 C3528 1.527 . S
C3528 C3512 1.389 . S
C3528 C3524 1.348 1_565 S
C3528 C3527 1.527 . S
H3529 C3504 0.950 . S
H3530 C3506 0.950 . S
H3531 C3507 0.949 . S
H3532 C3509 0.950 . S
H3533 C3511 0.950 . S
C3534 C3535 1.349 . S
C3534 C3536 1.327 . S
C3534 H3559 0.950 . S
C3535 C3534 1.349 . S
C3535 C3551 1.349 . S
C3536 C3534 1.327 . S
C3536 C3555 1.429 . S
C3536 H3560 0.950 . S
C3537 C3554 1.574 . S
C3537 C3556 1.341 1_655 S
C3537 H3561 0.949 . S
H3538 C3542 0.930 . S
C3539 C3540 1.349 . S
C3539 C3541 1.327 . S
C3539 H3562 0.950 . S
C3540 C3539 1.349 . S
C3540 C3552 1.349 . S
C3541 C3539 1.327 . S
C3541 C3557 1.429 . S
C3541 H3563 0.950 . S
C3542 H3538 0.930 . S
C3542 C3550 1.575 . S
C3542 C3558 1.354 1_455 S
H3543 C3551 0.950 . S
H3544 C3549 0.946 1_655 S
H3545 C3550 0.949 . S
H3546 C3552 0.950 . S
H3547 C3553 0.976 . S
H3548 C3554 0.949 . S
C3549 H3544 0.946 1_455 S
C3549 C3551 1.327 . S
C3549 C3555 1.429 . S
C3550 C3542 1.575 . S
C3550 H3545 0.949 . S
C3550 C3556 1.394 . S
C3551 C3535 1.349 . S
C3551 H3543 0.950 . S
C3551 C3549 1.327 . S
C3552 C3540 1.349 . S
C3552 H3546 0.950 . S
C3552 C3553 1.327 . S
C3553 H3547 0.976 . S
C3553 C3552 1.327 . S
C3553 C3557 1.429 . S
C3554 C3537 1.574 . S
C3554 H3548 0.949 . S
C3554 C3558 1.368 . S
C3555 C3536 1.429 . S
C3555 C3549 1.429 . S
C3555 C3556 1.526 . S
C3556 C3537 1.341 1_455 S
C3556 C3550 1.394 . S
C3556 C3555 1.526 . S
C3557 C3541 1.429 . S
C3557 C3553 1.429 . S
C3557 C3558 1.523 . S
C3558 C3542 1.354 1_655 S
C3558 C3554 1.368 . S
C3558 C3557 1.523 . S
H3559 C3534 0.950 . S
H3560 C3536 0.950 . S
H3561 C3537 0.949 . S
H3562 C3539 0.950 . S
H3563 C3541 0.950 . S
C3564 C3565 1.349 . S
C3564 C3566 1.327 1_556 S
C3564 H3589 0.950 . S
C3565 C3564 1.349 . S
C3565 C3581 1.340 1_556 S
C3566 C3564 1.327 1_554 S
C3566 C3585 1.429 . S
C3566 H3590 0.950 . S
C3567 C3584 1.574 . S
C3567 C3586 1.368 . S
C3567 H3591 0.949 . S
H3568 C3572 0.949 . S
C3569 C3570 1.349 . S
C3569 C3571 1.327 . S
C3569 H3592 0.950 . S
C3570 C3569 1.349 . S
C3570 C3582 1.349 . S
C3571 C3569 1.327 . S
C3571 C3587 1.429 . S
C3571 H3593 0.950 . S
C3572 H3568 0.949 . S
C3572 C3580 1.574 . S
C3572 C3588 1.368 . S
H3573 C3581 0.943 1_556 S
H3574 C3579 0.950 . S
H3575 C3580 0.949 . S
H3576 C3582 0.950 . S
H3577 C3583 0.950 . S
H3578 C3584 0.949 . S
C3579 H3574 0.950 . S
C3579 C3581 1.343 . S
C3579 C3585 1.429 . S
C3580 C3572 1.574 . S
C3580 H3575 0.949 . S
C3580 C3586 1.368 . S
C3581 C3565 1.340 1_554 S
C3581 H3573 0.943 1_554 S
C3581 C3579 1.343 . S
C3582 C3570 1.349 . S
C3582 H3576 0.950 . S
C3582 C3583 1.327 . S
C3583 H3577 0.950 . S
C3583 C3582 1.327 . S
C3583 C3587 1.429 . S
C3584 C3567 1.574 . S
C3584 H3578 0.949 . S
C3584 C3588 1.368 . S
C3585 C3566 1.429 . S
C3585 C3579 1.429 . S
C3585 C3586 1.523 . S
C3586 C3567 1.368 . S
C3586 C3580 1.368 . S
C3586 C3585 1.523 . S
C3587 C3571 1.429 . S
C3587 C3583 1.429 . S
C3587 C3588 1.523 . S
C3588 C3572 1.368 . S
C3588 C3584 1.368 . S
C3588 C3587 1.523 . S
H3589 C3564 0.950 . S
H3590 C3566 0.950 . S
H3591 C3567 0.949 . S
H3592 C3569 0.950 . S
H3593 C3571 0.950 . S
C3594 C3595 1.349 . S
C3594 C3596 1.327 . S
C3594 H3619 0.950 . S
C3595 C3594 1.349 . S
C3595 C3611 1.349 . S
C3596 C3594 1.327 . S
C3596 C3615 1.429 . S
C3596 H3620 0.950 . S
C3597 C3614 1.574 . S
C3597 C3616 1.368 . S
C3597 H3621 0.949 . S
H3598 C3602 0.949 . S
C3599 C3600 1.349 . S
C3599 C3601 1.327 1_556 S
C3599 H3622 0.950 . S
C3600 C3599 1.349 . S
C3600 C3612 1.345 1_556 S
C3601 C3599 1.327 1_554 S
C3601 C3617 1.429 . S
C3601 H3623 0.950 . S
C3602 H3598 0.949 . S
C3602 C3610 1.574 . S
C3602 C3618 1.368 . S
H3603 C3611 0.950 . S
H3604 C3609 0.950 . S
H3605 C3610 0.949 . S
H3606 C3612 0.946 1_556 S
H3607 C3613 0.950 . S
H3608 C3614 0.949 . S
C3609 H3604 0.950 . S
C3609 C3611 1.327 . S
C3609 C3615 1.429 . S
C3610 C3602 1.574 . S
C3610 H3605 0.949 . S
C3610 C3616 1.368 . S
C3611 C3595 1.349 . S
C3611 H3603 0.950 . S
C3611 C3609 1.327 . S
C3612 C3600 1.345 1_554 S
C3612 H3606 0.946 1_554 S
C3612 C3613 1.335 . S
C3613 H3607 0.950 . S
C3613 C3612 1.335 . S
C3613 C3617 1.429 . S
C3614 C3597 1.574 . S
C3614 H3608 0.949 . S
C3614 C3618 1.368 . S
C3615 C3596 1.429 . S
C3615 C3609 1.429 . S
C3615 C3616 1.523 . S
C3616 C3597 1.368 . S
C3616 C3610 1.368 . S
C3616 C3615 1.523 . S
C3617 C3601 1.429 . S
C3617 C3613 1.429 . S
C3617 C3618 1.523 . S
C3618 C3602 1.368 . S
C3618 C3614 1.368 . S
C3618 C3617 1.523 . S
H3619 C3594 0.950 . S
H3620 C3596 0.950 . S
H3621 C3597 0.949 . S
H3622 C3599 0.950 . S
H3623 C3601 0.950 . S
C3624 C3625 1.368 . S
C3624 C3626 1.290 1_556 S
C3624 H3649 0.969 . S
C3625 C3624 1.368 . S
C3625 C3641 1.349 . S
C3626 C3624 1.290 1_554 S
C3626 C3645 1.429 . S
C3626 H3650 0.950 . S
C3627 C3644 1.574 . S
C3627 C3646 1.368 . S
C3627 H3651 0.949 . S
H3628 C3632 0.949 . S
C3629 C3630 1.349 . S
C3629 C3631 1.327 . S
C3629 H3652 0.950 . S
C3630 C3629 1.349 . S
C3630 C3642 1.349 . S
C3631 C3629 1.327 . S
C3631 C3647 1.429 . S
C3631 H3653 0.950 . S
C3632 H3628 0.949 . S
C3632 C3640 1.574 . S
C3632 C3648 1.368 . S
H3633 C3641 0.950 . S
H3634 C3639 0.950 . S
H3635 C3640 0.949 . S
H3636 C3642 0.950 . S
H3637 C3643 0.950 . S
H3638 C3644 0.949 . S
C3639 H3634 0.950 . S
C3639 C3641 1.327 1_554 S
C3639 C3645 1.429 . S
C3640 C3632 1.574 . S
C3640 H3635 0.949 . S
C3640 C3646 1.368 . S
C3641 C3625 1.349 . S
C3641 H3633 0.950 . S
C3641 C3639 1.327 1_556 S
C3642 C3630 1.349 . S
C3642 H3636 0.950 . S
C3642 C3643 1.327 . S
C3643 H3637 0.950 . S
C3643 C3642 1.327 . S
C3643 C3647 1.429 . S
C3644 C3627 1.574 . S
C3644 H3638 0.949 . S
C3644 C3648 1.368 . S
C3645 C3626 1.429 . S
C3645 C3639 1.429 . S
C3645 C3646 1.523 . S
C3646 C3627 1.368 . S
C3646 C3640 1.368 . S
C3646 C3645 1.523 . S
C3647 C3631 1.429 . S
C3647 C3643 1.429 . S
C3647 C3648 1.523 . S
C3648 C3632 1.368 . S
C3648 C3644 1.368 . S
C3648 C3647 1.523 . S
H3649 C3624 0.969 . S
H3650 C3626 0.950 . S
H3651 C3627 0.949 . S
H3652 C3629 0.950 . S
H3653 C3631 0.950 . S
C3654 C3655 1.349 . S
C3654 C3656 1.327 . S
C3654 H3679 0.950 . S
C3655 C3654 1.349 . S
C3655 C3671 1.349 . S
C3656 C3654 1.327 . S
C3656 C3675 1.429 . S
C3656 H3680 0.950 . S
C3657 C3674 1.574 . S
C3657 C3676 1.368 . S
C3657 H3681 0.949 . S
H3658 C3662 0.949 . S
C3659 C3660 1.349 . S
C3659 C3661 1.327 . S
C3659 H3682 0.950 . S
C3660 C3659 1.349 . S
C3660 C3672 1.349 . S
C3661 C3659 1.327 . S
C3661 C3677 1.429 . S
C3661 H3683 0.950 . S
C3662 H3658 0.949 . S
C3662 C3670 1.574 . S
C3662 C3678 1.368 . S
H3663 C3671 0.950 . S
H3664 C3669 0.950 . S
H3665 C3670 0.949 . S
H3666 C3672 0.950 . S
H3667 C3673 0.950 . S
H3668 C3674 0.949 . S
C3669 H3664 0.950 . S
C3669 C3671 1.327 . S
C3669 C3675 1.429 . S
C3670 C3662 1.574 . S
C3670 H3665 0.949 . S
C3670 C3676 1.368 . S
C3671 C3655 1.349 . S
C3671 H3663 0.950 . S
C3671 C3669 1.327 . S
C3672 C3660 1.349 . S
C3672 H3666 0.950 . S
C3672 C3673 1.327 . S
C3673 H3667 0.950 . S
C3673 C3672 1.327 . S
C3673 C3677 1.429 . S
C3674 C3657 1.574 . S
C3674 H3668 0.949 . S
C3674 C3678 1.368 . S
C3675 C3656 1.429 . S
C3675 C3669 1.429 . S
C3675 C3676 1.523 . S
C3676 C3657 1.368 . S
C3676 C3670 1.368 . S
C3676 C3675 1.523 . S
C3677 C3661 1.429 . S
C3677 C3673 1.429 . S
C3677 C3678 1.523 . S
C3678 C3662 1.368 . S
C3678 C3674 1.368 . S
C3678 C3677 1.523 . S
H3679 C3654 0.950 . S
H3680 C3656 0.950 . S
H3681 C3657 0.949 . S
H3682 C3659 0.950 . S
H3683 C3661 0.950 . S
C3684 C3685 1.349 . S
C3684 C3686 1.327 . S
C3684 H3709 0.950 . S
C3685 C3684 1.349 . S
C3685 C3701 1.349 . S
C3686 C3684 1.327 . S
C3686 C3705 1.429 . S
C3686 H3710 0.950 . S
C3687 C3704 1.574 . S
C3687 C3706 1.368 . S
C3687 H3711 0.949 . S
H3688 C3692 0.949 . S
C3689 C3690 1.349 . S
C3689 C3691 1.327 . S
C3689 H3712 0.950 . S
C3690 C3689 1.349 . S
C3690 C3702 1.349 . S
C3691 C3689 1.327 . S
C3691 C3707 1.429 . S
C3691 H3713 0.950 . S
C3692 H3688 0.949 . S
C3692 C3700 1.574 . S
C3692 C3708 1.368 . S
H3693 C3701 0.950 . S
H3694 C3699 0.950 . S
H3695 C3700 0.949 . S
H3696 C3702 0.950 . S
H3697 C3703 0.950 . S
H3698 C3704 0.949 . S
C3699 H3694 0.950 . S
C3699 C3701 1.327 . S
C3699 C3705 1.429 . S
C3700 C3692 1.574 . S
C3700 H3695 0.949 . S
C3700 C3706 1.368 . S
C3701 C3685 1.349 . S
C3701 H3693 0.950 . S
C3701 C3699 1.327 . S
C3702 C3690 1.349 . S
C3702 H3696 0.950 . S
C3702 C3703 1.327 . S
C3703 H3697 0.950 . S
C3703 C3702 1.327 . S
C3703 C3707 1.429 . S
C3704 C3687 1.574 . S
C3704 H3698 0.949 . S
C3704 C3708 1.368 . S
C3705 C3686 1.429 . S
C3705 C3699 1.429 . S
C3705 C3706 1.523 . S
C3706 C3687 1.368 . S
C3706 C3700 1.368 . S
C3706 C3705 1.523 . S
C3707 C3691 1.429 . S
C3707 C3703 1.429 . S
C3707 C3708 1.523 . S
C3708 C3692 1.368 . S
C3708 C3704 1.368 . S
C3708 C3707 1.523 . S
H3709 C3684 0.950 . S
H3710 C3686 0.950 . S
H3711 C3687 0.949 . S
H3712 C3689 0.950 . S
H3713 C3691 0.950 . S
C3714 C3715 1.349 . S
C3714 C3716 1.327 . S
C3714 H3739 0.950 . S
C3715 C3714 1.349 . S
C3715 C3731 1.349 . S
C3716 C3714 1.327 . S
C3716 C3735 1.429 . S
C3716 H3740 0.950 . S
C3717 C3734 1.574 . S
C3717 C3736 1.368 . S
C3717 H3741 0.949 . S
H3718 C3722 0.949 . S
C3719 C3720 1.349 . S
C3719 C3721 1.327 . S
C3719 H3742 0.950 . S
C3720 C3719 1.349 . S
C3720 C3732 1.349 . S
C3721 C3719 1.327 . S
C3721 C3737 1.429 . S
C3721 H3743 0.950 . S
C3722 H3718 0.949 . S
C3722 C3730 1.574 . S
C3722 C3738 1.368 . S
H3723 C3731 0.950 . S
H3724 C3729 0.950 . S
H3725 C3730 0.949 . S
H3726 C3732 0.950 . S
H3727 C3733 0.950 . S
H3728 C3734 0.949 . S
C3729 H3724 0.950 . S
C3729 C3731 1.327 . S
C3729 C3735 1.429 . S
C3730 C3722 1.574 . S
C3730 H3725 0.949 . S
C3730 C3736 1.368 . S
C3731 C3715 1.349 . S
C3731 H3723 0.950 . S
C3731 C3729 1.327 . S
C3732 C3720 1.349 . S
C3732 H3726 0.950 . S
C3732 C3733 1.327 . S
C3733 H3727 0.950 . S
C3733 C3732 1.327 . S
C3733 C3737 1.429 . S
C3734 C3717 1.574 . S
C3734 H3728 0.949 . S
C3734 C3738 1.368 . S
C3735 C3716 1.429 . S
C3735 C3729 1.429 . S
C3735 C3736 1.523 . S
C3736 C3717 1.368 . S
C3736 C3730 1.368 . S
C3736 C3735 1.523 . S
C3737 C3721 1.429 . S
C3737 C3733 1.429 . S
C3737 C3738 1.523 . S
C3738 C3722 1.368 . S
C3738 C3734 1.368 . S
C3738 C3737 1.523 . S
H3739 C3714 0.950 . S
H3740 C3716 0.950 . S
H3741 C3717 0.949 . S
H3742 C3719 0.950 . S
H3743 C3721 0.950 . S
C3744 C3745 1.349 . S
C3744 C3746 1.327 . S
C3744 H3769 0.950 . S
C3745 C3744 1.349 . S
C3745 C3761 1.349 . S
C3746 C3744 1.327 . S
C3746 C3765 1.429 . S
C3746 H3770 0.950 . S
C3747 C3764 1.574 . S
C3747 C3766 1.368 . S
C3747 H3771 0.949 . S
H3748 C3752 0.949 . S
C3749 C3750 1.349 . S
C3749 C3751 1.327 . S
C3749 H3772 0.950 . S
C3750 C3749 1.349 . S
C3750 C3762 1.349 . S
C3751 C3749 1.327 . S
C3751 C3767 1.429 . S
C3751 H3773 0.950 . S
C3752 H3748 0.949 . S
C3752 C3760 1.574 . S
C3752 C3768 1.368 . S
H3753 C3761 0.950 . S
H3754 C3759 0.950 . S
H3755 C3760 0.949 . S
H3756 C3762 0.950 . S
H3757 C3763 0.950 . S
H3758 C3764 0.949 . S
C3759 H3754 0.950 . S
C3759 C3761 1.327 . S
C3759 C3765 1.429 . S
C3760 C3752 1.574 . S
C3760 H3755 0.949 . S
C3760 C3766 1.368 . S
C3761 C3745 1.349 . S
C3761 H3753 0.950 . S
C3761 C3759 1.327 . S
C3762 C3750 1.349 . S
C3762 H3756 0.950 . S
C3762 C3763 1.327 . S
C3763 H3757 0.950 . S
C3763 C3762 1.327 . S
C3763 C3767 1.429 . S
C3764 C3747 1.574 . S
C3764 H3758 0.949 . S
C3764 C3768 1.368 . S
C3765 C3746 1.429 . S
C3765 C3759 1.429 . S
C3765 C3766 1.523 . S
C3766 C3747 1.368 . S
C3766 C3760 1.368 . S
C3766 C3765 1.523 . S
C3767 C3751 1.429 . S
C3767 C3763 1.429 . S
C3767 C3768 1.523 . S
C3768 C3752 1.368 . S
C3768 C3764 1.368 . S
C3768 C3767 1.523 . S
H3769 C3744 0.950 . S
H3770 C3746 0.950 . S
H3771 C3747 0.949 . S
H3772 C3749 0.950 . S
H3773 C3751 0.950 . S
C3774 C3775 1.349 . S
C3774 C3776 1.327 . S
C3774 H3799 0.950 . S
C3775 C3774 1.349 . S
C3775 C3791 1.349 . S
C3776 C3774 1.327 . S
C3776 C3795 1.429 . S
C3776 H3800 0.950 . S
C3777 C3794 1.574 . S
C3777 C3796 1.368 . S
C3777 H3801 0.949 . S
H3778 C3782 0.949 . S
C3779 C3780 1.349 . S
C3779 C3781 1.327 . S
C3779 H3802 0.950 . S
C3780 C3779 1.349 . S
C3780 C3792 1.349 . S
C3781 C3779 1.327 . S
C3781 C3797 1.429 . S
C3781 H3803 0.950 . S
C3782 H3778 0.949 . S
C3782 C3790 1.574 . S
C3782 C3798 1.368 . S
H3783 C3791 0.950 . S
H3784 C3789 0.950 . S
H3785 C3790 0.949 . S
H3786 C3792 0.950 . S
H3787 C3793 0.950 . S
H3788 C3794 0.949 . S
C3789 H3784 0.950 . S
C3789 C3791 1.327 . S
C3789 C3795 1.429 . S
C3790 C3782 1.574 . S
C3790 H3785 0.949 . S
C3790 C3796 1.368 . S
C3791 C3775 1.349 . S
C3791 H3783 0.950 . S
C3791 C3789 1.327 . S
C3792 C3780 1.349 . S
C3792 H3786 0.950 . S
C3792 C3793 1.327 . S
C3793 H3787 0.950 . S
C3793 C3792 1.327 . S
C3793 C3797 1.429 . S
C3794 C3777 1.574 . S
C3794 H3788 0.949 . S
C3794 C3798 1.368 . S
C3795 C3776 1.429 . S
C3795 C3789 1.429 . S
C3795 C3796 1.523 . S
C3796 C3777 1.368 . S
C3796 C3790 1.368 . S
C3796 C3795 1.523 . S
C3797 C3781 1.429 . S
C3797 C3793 1.429 . S
C3797 C3798 1.523 . S
C3798 C3782 1.368 . S
C3798 C3794 1.368 . S
C3798 C3797 1.523 . S
H3799 C3774 0.950 . S
H3800 C3776 0.950 . S
H3801 C3777 0.949 . S
H3802 C3779 0.950 . S
H3803 C3781 0.950 . S
C3804 C3805 1.349 . S
C3804 C3806 1.327 . S
C3804 H3829 0.950 . S
C3805 C3804 1.349 . S
C3805 C3821 1.349 . S
C3806 C3804 1.327 . S
C3806 C3825 1.429 . S
C3806 H3830 0.950 . S
C3807 C3824 1.574 . S
C3807 C3826 1.368 . S
C3807 H3831 0.949 . S
H3808 C3812 0.949 . S
C3809 C3810 1.349 . S
C3809 C3811 1.327 . S
C3809 H3832 0.950 . S
C3810 C3809 1.349 . S
C3810 C3822 1.349 . S
C3811 C3809 1.327 . S
C3811 C3827 1.429 . S
C3811 H3833 0.950 . S
C3812 H3808 0.949 . S
C3812 C3820 1.574 . S
C3812 C3828 1.368 . S
H3813 C3821 0.950 . S
H3814 C3819 0.950 . S
H3815 C3820 0.949 . S
H3816 C3822 0.950 . S
H3817 C3823 0.950 . S
H3818 C3824 0.949 . S
C3819 H3814 0.950 . S
C3819 C3821 1.327 . S
C3819 C3825 1.429 . S
C3820 C3812 1.574 . S
C3820 H3815 0.949 . S
C3820 C3826 1.368 . S
C3821 C3805 1.349 . S
C3821 H3813 0.950 . S
C3821 C3819 1.327 . S
C3822 C3810 1.349 . S
C3822 H3816 0.950 . S
C3822 C3823 1.327 . S
C3823 H3817 0.950 . S
C3823 C3822 1.327 . S
C3823 C3827 1.429 . S
C3824 C3807 1.574 . S
C3824 H3818 0.949 . S
C3824 C3828 1.368 . S
C3825 C3806 1.429 . S
C3825 C3819 1.429 . S
C3825 C3826 1.523 . S
C3826 C3807 1.368 . S
C3826 C3820 1.368 . S
C3826 C3825 1.523 . S
C3827 C3811 1.429 . S
C3827 C3823 1.429 . S
C3827 C3828 1.523 . S
C3828 C3812 1.368 . S
C3828 C3824 1.368 . S
C3828 C3827 1.523 . S
H3829 C3804 0.950 . S
H3830 C3806 0.950 . S
H3831 C3807 0.949 . S
H3832 C3809 0.950 . S
H3833 C3811 0.950 . S
C3834 C3835 1.349 . S
C3834 C3836 1.327 . S
C3834 H3859 0.950 . S
C3835 C3834 1.349 . S
C3835 C3851 1.349 . S
C3836 C3834 1.327 . S
C3836 C3855 1.429 . S
C3836 H3860 0.950 . S
C3837 C3854 1.574 . S
C3837 C3856 1.368 . S
C3837 H3861 0.949 . S
H3838 C3842 0.949 . S
C3839 C3840 1.349 . S
C3839 C3841 1.327 . S
C3839 H3862 0.950 . S
C3840 C3839 1.349 . S
C3840 C3852 1.349 . S
C3841 C3839 1.327 . S
C3841 C3857 1.418 1_554 S
C3841 H3863 0.950 . S
C3842 H3838 0.949 . S
C3842 C3850 1.574 . S
C3842 C3858 1.368 . S
H3843 C3851 0.950 . S
H3844 C3849 0.950 . S
H3845 C3850 0.949 . S
H3846 C3852 0.950 . S
H3847 C3853 0.950 . S
H3848 C3854 0.949 . S
C3849 H3844 0.950 . S
C3849 C3851 1.327 . S
C3849 C3855 1.429 . S
C3850 C3842 1.574 . S
C3850 H3845 0.949 . S
C3850 C3856 1.368 . S
C3851 C3835 1.349 . S
C3851 H3843 0.950 . S
C3851 C3849 1.327 . S
C3852 C3840 1.349 . S
C3852 H3846 0.950 . S
C3852 C3853 1.327 . S
C3853 H3847 0.950 . S
C3853 C3852 1.327 . S
C3853 C3857 1.415 1_554 S
C3854 C3837 1.574 . S
C3854 H3848 0.949 . S
C3854 C3858 1.368 . S
C3855 C3836 1.429 . S
C3855 C3849 1.429 . S
C3855 C3856 1.523 . S
C3856 C3837 1.368 . S
C3856 C3850 1.368 . S
C3856 C3855 1.523 . S
C3857 C3841 1.418 1_556 S
C3857 C3853 1.415 1_556 S
C3857 C3858 1.546 . S
C3858 C3842 1.368 . S
C3858 C3854 1.368 . S
C3858 C3857 1.546 . S
H3859 C3834 0.950 . S
H3860 C3836 0.950 . S
H3861 C3837 0.949 . S
H3862 C3839 0.950 . S
H3863 C3841 0.950 . S
C3864 C3865 1.349 . S
C3864 C3866 1.327 . S
C3864 H3889 0.950 . S
C3865 C3864 1.349 . S
C3865 C3881 1.349 . S
C3866 C3864 1.327 . S
C3866 C3885 1.429 . S
C3866 H3890 0.950 . S
C3867 C3884 1.574 . S
C3867 C3886 1.368 . S
C3867 H3891 0.949 . S
H3868 C3872 0.949 . S
C3869 C3870 1.349 . S
C3869 C3871 1.327 . S
C3869 H3892 0.950 . S
C3870 C3869 1.349 . S
C3870 C3882 1.349 . S
C3871 C3869 1.327 . S
C3871 C3887 1.417 1_554 S
C3871 H3893 0.950 . S
C3872 H3868 0.949 . S
C3872 C3880 1.574 . S
C3872 C3888 1.368 . S
H3873 C3881 0.950 . S
H3874 C3879 0.950 . S
H3875 C3880 0.949 . S
H3876 C3882 0.950 . S
H3877 C3883 0.950 . S
H3878 C3884 0.949 . S
C3879 H3874 0.950 . S
C3879 C3881 1.327 . S
C3879 C3885 1.429 . S
C3880 C3872 1.574 . S
C3880 H3875 0.949 . S
C3880 C3886 1.368 . S
C3881 C3865 1.349 . S
C3881 H3873 0.950 . S
C3881 C3879 1.327 . S
C3882 C3870 1.349 . S
C3882 H3876 0.950 . S
C3882 C3883 1.327 . S
C3883 H3877 0.950 . S
C3883 C3882 1.327 . S
C3883 C3887 1.415 1_554 S
C3884 C3867 1.574 . S
C3884 H3878 0.949 . S
C3884 C3888 1.368 . S
C3885 C3866 1.429 . S
C3885 C3879 1.429 . S
C3885 C3886 1.523 . S
C3886 C3867 1.368 . S
C3886 C3880 1.368 . S
C3886 C3885 1.523 . S
C3887 C3871 1.417 1_556 S
C3887 C3883 1.415 1_556 S
C3887 C3888 1.546 . S
C3888 C3872 1.368 . S
C3888 C3884 1.368 . S
C3888 C3887 1.546 . S
H3889 C3864 0.950 . S
H3890 C3866 0.950 . S
H3891 C3867 0.949 . S
H3892 C3869 0.950 . S
H3893 C3871 0.950 . S
C3894 C3895 1.349 . S
C3894 C3896 1.327 . S
C3894 H3919 0.950 . S
C3895 C3894 1.349 . S
C3895 C3911 1.349 . S
C3896 C3894 1.327 . S
C3896 C3915 1.429 . S
C3896 H3920 0.950 . S
C3897 C3914 1.574 . S
C3897 C3916 1.368 . S
C3897 H3921 0.949 . S
H3898 C3902 0.949 . S
C3899 C3900 1.349 . S
C3899 C3901 1.327 . S
C3899 H3922 0.950 . S
C3900 C3899 1.349 . S
C3900 C3912 1.349 . S
C3901 C3899 1.327 . S
C3901 C3917 1.417 1_554 S
C3901 H3923 0.950 . S
C3902 H3898 0.949 . S
C3902 C3910 1.574 . S
C3902 C3918 1.368 . S
H3903 C3911 0.950 . S
H3904 C3909 0.950 . S
H3905 C3910 0.949 . S
H3906 C3912 0.950 . S
H3907 C3913 0.950 . S
H3908 C3914 0.949 . S
C3909 H3904 0.950 . S
C3909 C3911 1.327 . S
C3909 C3915 1.429 . S
C3910 C3902 1.574 . S
C3910 H3905 0.949 . S
C3910 C3916 1.368 . S
C3911 C3895 1.349 . S
C3911 H3903 0.950 . S
C3911 C3909 1.327 . S
C3912 C3900 1.349 . S
C3912 H3906 0.950 . S
C3912 C3913 1.327 . S
C3913 H3907 0.950 . S
C3913 C3912 1.327 . S
C3913 C3917 1.416 1_554 S
C3914 C3897 1.574 . S
C3914 H3908 0.949 . S
C3914 C3918 1.368 . S
C3915 C3896 1.429 . S
C3915 C3909 1.429 . S
C3915 C3916 1.523 . S
C3916 C3897 1.368 . S
C3916 C3910 1.368 . S
C3916 C3915 1.523 . S
C3917 C3901 1.417 1_556 S
C3917 C3913 1.416 1_556 S
C3917 C3918 1.545 . S
C3918 C3902 1.368 . S
C3918 C3914 1.368 . S
C3918 C3917 1.545 . S
H3919 C3894 0.950 . S
H3920 C3896 0.950 . S
H3921 C3897 0.949 . S
H3922 C3899 0.950 . S
H3923 C3901 0.950 . S
C1225 C546 1.620 . S
C1230 C2 1.620 1_556 S
C1255 C580 1.619 . S
C1260 C36 1.619 1_556 S
C1285 C512 1.620 . S
C1290 C70 1.620 1_556 S
C1315 C104 1.620 . S
C1320 C886 1.620 . S
C1345 C818 1.620 . S
C1350 C138 1.620 . S
C1375 C852 1.619 . S
C1380 C172 1.619 . S
C1405 C206 1.620 . S
C1410 C1158 1.620 . S
C1435 C1192 1.619 . S
C1440 C240 1.619 . S
C1465 C274 1.620 . S
C1470 C1124 1.620 . S
C1495 C682 1.620 . S
C1500 C308 1.620 . S
C1525 C342 1.620 . S
C1530 C614 1.620 . S
C1555 C648 1.619 . S
C1560 C376 1.619 . S
C1585 C410 1.620 . S
C1590 C954 1.620 . S
C1615 C988 1.619 . S
C1620 C444 1.619 . S
C1645 C920 1.620 . S
C1650 C478 1.620 . S
C1675 C1090 1.620 . S
C1680 C716 1.620 . S
C1705 C750 1.620 . S
C1710 C1022 1.620 . S
C1735 C1056 1.619 . S
C1740 C784 1.619 . S
C1765 C111 1.229 . S
C1770 C9 1.228 . S
C1795 C145 1.228 . S
C1800 C43 1.228 . S
C1825 C77 1.228 . S
C1830 C179 1.228 . S
C1855 C315 1.229 . S
C1860 C213 1.228 . S
C1885 C247 1.228 . S
C1890 C349 1.228 . S
C1915 C383 1.228 . S
C1920 C281 1.228 . S
C1945 C417 1.228 . S
C1950 C519 1.228 . S
C1975 C451 1.228 . S
C1980 C553 1.228 . S
C2005 C587 1.228 . S
C2010 C485 1.228 . S
C2035 C723 1.228 . S
C2040 C621 1.228 . S
C2065 C757 1.228 . S
C2070 C655 1.228 . S
C2095 C791 1.228 . S
C2100 C689 1.228 . S
C2125 C825 1.228 . S
C2130 C927 1.228 . S
C2155 C961 1.228 . S
C2160 C859 1.228 . S
C2185 C893 1.228 . S
C2190 C995 1.228 . S
C2215 C1029 1.229 . S
C2220 C1131 1.229 . S
C2245 C1063 1.228 . S
C2250 C1165 1.228 . S
C2275 C1199 1.228 . S
C2280 C1097 1.228 . S
C2305 C33 1.530 . S
C2310 C258 1.535 . S
C2335 C292 1.535 . S
C2340 C67 1.530 . S
C2365 C224 1.535 . S
C2370 C101 1.530 . S
C2395 C135 1.530 . S
C2400 C394 1.535 . S
C2425 C326 1.535 . S
C2430 C169 1.529 . S
C2455 C360 1.535 . S
C2460 C203 1.530 . S
C2485 C237 1.530 . S
C2490 C54 1.535 . S
C2515 C88 1.535 . S
C2520 C271 1.530 . S
C2545 C20 1.535 . S
C2550 C305 1.530 . S
C2575 C190 1.535 . S
C2580 C339 1.530 . S
C2605 C122 1.535 . S
C2610 C373 1.529 . S
C2635 C407 1.530 . S
C2640 C156 1.535 . S
C2665 C441 1.529 . S
C2670 C666 1.535 . S
C2695 C475 1.530 . S
C2700 C700 1.535 . S
C2725 C509 1.530 . S
C2730 C632 1.535 . S
C2755 C802 1.535 . S
C2760 C543 1.530 . S
C2785 C577 1.529 . S
C2790 C734 1.535 . S
C2815 C611 1.530 . S
C2820 C768 1.535 . S
C2845 C645 1.530 . S
C2850 C462 1.535 . S
C2875 C496 1.535 . S
C2880 C679 1.530 . S
C2905 C713 1.530 . S
C2910 C428 1.535 . S
C2935 C747 1.530 . S
C2940 C598 1.535 . S
C2965 C781 1.530 . S
C2970 C530 1.535 . S
C2995 C815 1.530 . S
C3000 C564 1.535 . S
C3025 C849 1.530 . S
C3030 C1074 1.535 . S
C3055 C1108 1.535 . S
C3060 C883 1.530 . S
C3085 C917 1.530 . S
C3090 C1040 1.535 . S
C3115 C951 1.530 . S
C3120 C1210 1.535 . S
C3145 C985 1.529 . S
C3150 C1142 1.535 . S
C3175 C1019 1.530 . S
C3180 C1176 1.535 . S
C3205 C870 1.535 . S
C3210 C1053 1.530 . S
C3235 C904 1.535 . S
C3240 C1087 1.530 . S
C3265 C836 1.535 . S
C3270 C1121 1.530 . S
C3295 C1006 1.535 . S
C3300 C1155 1.530 . S
C3325 C1189 1.529 . S
C3330 C938 1.535 . S
C3355 C1223 1.530 . S
C3360 C972 1.535 . S
C3385 C107 1.084 . S
C3390 C5 1.084 . S
C3415 C39 1.084 . S
C3420 C141 1.084 . S
C3445 C175 1.084 . S
C3450 C73 1.084 . S
C3475 C311 1.084 . S
C3480 C209 1.084 . S
C3505 C345 1.084 . S
C3510 C243 1.084 . S
C3535 C277 1.084 . S
C3540 C379 1.084 . S
C3565 C515 1.084 . S
C3570 C413 1.084 . S
C3595 C447 1.084 . S
C3600 C549 1.084 . S
C3625 C583 1.084 . S
C3630 C481 1.084 . S
C3655 C719 1.084 . S
C3660 C617 1.084 . S
C3685 C753 1.084 . S
C3690 C651 1.084 . S
C3715 C685 1.084 . S
C3720 C787 1.084 . S
C3745 C923 1.084 . S
C3750 C821 1.084 . S
C3775 C855 1.084 . S
C3780 C957 1.084 . S
C3805 C991 1.084 . S
C3810 C889 1.084 . S
C3835 C1025 1.084 . S
C3840 C1127 1.084 . S
C3865 C1059 1.084 . S
C3870 C1161 1.084 . S
C3895 C1093 1.084 . S
C3900 C1195 1.084 . S
