# Generated by pormake.
# Topology smu, (6)-cn, num edge types: 1
# Building blocks:
#     Node 0, Type 0, BuildingBlock: BETDEL_clean_sbu_0, # of connection points: 6
#     Node 1, Type 0, BuildingBlock: BETDEL_clean_sbu_0, # of connection points: 6
#     Node 2, Type 0, BuildingBlock: BETDEL_clean_sbu_0, # of connection points: 6
#     Node 3, Type 0, BuildingBlock: BETDEL_clean_sbu_0, # of connection points: 6
#     Node 4, Type 0, BuildingBlock: BETDEL_clean_sbu_0, # of connection points: 6
#     Node 5, Type 0, BuildingBlock: BETDEL_clean_sbu_0, # of connection points: 6
#     Edge 6, Type (0, 0), BuildingBlock: EZIPEK_clean_linker_0, # of connection points: 2
#     Edge 7, Type (0, 0), BuildingBlock: EZIPEK_clean_linker_0, # of connection points: 2
#     Edge 8, Type (0, 0), BuildingBlock: EZIPEK_clean_linker_0, # of connection points: 2
#     Edge 9, Type (0, 0), BuildingBlock: EZIPEK_clean_linker_0, # of connection points: 2
#     Edge 10, Type (0, 0), BuildingBlock: EZIPEK_clean_linker_0, # of connection points: 2
#     Edge 11, Type (0, 0), BuildingBlock: EZIPEK_clean_linker_0, # of connection points: 2
#     Edge 12, Type (0, 0), BuildingBlock: EZIPEK_clean_linker_0, # of connection points: 2
#     Edge 13, Type (0, 0), BuildingBlock: EZIPEK_clean_linker_0, # of connection points: 2
#     Edge 14, Type (0, 0), BuildingBlock: EZIPEK_clean_linker_0, # of connection points: 2
#     Edge 15, Type (0, 0), BuildingBlock: EZIPEK_clean_linker_0, # of connection points: 2
#     Edge 16, Type (0, 0), BuildingBlock: EZIPEK_clean_linker_0, # of connection points: 2
#     Edge 17, Type (0, 0), BuildingBlock: EZIPEK_clean_linker_0, # of connection points: 2
#     Edge 18, Type (0, 0), BuildingBlock: EZIPEK_clean_linker_0, # of connection points: 2
#     Edge 19, Type (0, 0), BuildingBlock: EZIPEK_clean_linker_0, # of connection points: 2
#     Edge 20, Type (0, 0), BuildingBlock: EZIPEK_clean_linker_0, # of connection points: 2
#     Edge 21, Type (0, 0), BuildingBlock: EZIPEK_clean_linker_0, # of connection points: 2
#     Edge 22, Type (0, 0), BuildingBlock: EZIPEK_clean_linker_0, # of connection points: 2
#     Edge 23, Type (0, 0), BuildingBlock: EZIPEK_clean_linker_0, # of connection points: 2
# Relax obj value: 0.198
# Max RMSD: 0.273
# Mean RMSD: 0.273
data_MOF--net-smu--node1-BETDEL_clean_sbu_0--edge1-EZIPEK_clean_linker_0
_symmetry_space_group_name_H-M    P1
_symmetry_Int_Tables_number       1
_symmetry_cell_setting            triclinic
loop_
_symmetry_equiv_pos_as_xyz
'x, y, z'
_cell_length_a     24.090786
_cell_length_b     24.085754
_cell_length_c     20.018535
_cell_angle_alpha  90.531048
_cell_angle_beta   89.895022
_cell_angle_gamma 119.74994
loop_
_atom_site_label
_atom_site_type_symbol
_atom_site_fract_x
_atom_site_fract_y
_atom_site_fract_z
_atom_type_partial_charge
Dy0 Dy 0.39358 0.08021 0.27453 0.0
C1 C 0.21861 0.16255 0.28516 0.0
C2 C 0.51254 0.09077 0.25678 0.0
Dy3 Dy 0.29808 0.11293 0.26642 0.0
O4 O 0.47516 0.06533 0.3078 0.0
O5 O 0.48154 0.10394 0.21239 0.0
O6 O 0.36727 0.02763 0.36706 0.0
O7 O 0.35064 0.10719 0.35836 0.0
C8 C 0.34177 0.05863 0.39447 0.0
C9 C 0.32729 0.08294 0.1411 0.0
O10 O 0.37398 0.21396 0.26054 0.0
O11 O 0.45333 0.18989 0.27079 0.0
O12 O 0.20993 0.11952 0.24026 0.0
O13 O 0.26714 0.17431 0.32237 0.0
O14 O 0.31479 0.12849 0.15404 0.0
O15 O 0.32367 0.05649 0.19579 0.0
O16 O 0.30303 0.9811 0.25877 0.0
O17 O 0.23215 0.01348 0.29514 0.0
C18 C 0.43462 0.23268 0.26395 0.0
C19 C 0.24437 0.96735 0.27968 0.0
Dy20 Dy 0.7141 0.62839 0.27493 0.0
C21 C 0.97996 0.79689 0.27276 0.0
C22 C 0.60072 0.51263 0.25575 0.0
Dy23 Dy 0.848 0.7299 0.26926 0.0
O24 O 0.61504 0.55025 0.30749 0.0
O25 O 0.64511 0.54238 0.21172 0.0
O26 O 0.72396 0.61062 0.38418 0.0
O27 O 0.77525 0.70238 0.35058 0.0
C28 C 0.75863 0.66965 0.40375 0.0
C29 C 0.7886 0.72231 0.15123 0.0
O30 O 0.86266 0.64882 0.29925 0.0
O31 O 0.76707 0.5724 0.25852 0.0
O32 O 0.94448 0.74348 0.24144 0.0
O33 O 0.94302 0.81473 0.30278 0.0
O34 O 0.84212 0.77028 0.1715 0.0
O35 O 0.77744 0.67443 0.18849 0.0
O36 O 0.70157 0.71729 0.26523 0.0
O37 O 0.80635 0.79112 0.29677 0.0
C38 C 0.82597 0.59016 0.278 0.0
C39 C 0.74681 0.77719 0.28261 0.0
Dy40 Dy 0.94186 0.30882 0.27142 0.0
C41 C 0.82272 0.03641 0.27474 0.0
C42 C 0.94566 0.42659 0.25955 0.0
Dy43 Dy 0.89463 0.16779 0.26787 0.0
O44 O 0.96205 0.40614 0.31166 0.0
O45 O 0.93592 0.3861 0.21129 0.0
O46 O 0.91001 0.30147 0.37862 0.0
O47 O 0.94405 0.24305 0.3467 0.0
C48 C 0.9281 0.26202 0.3987 0.0
C49 C 0.9477 0.22429 0.14987 0.0
O50 O 0.80773 0.16822 0.30326 0.0
O51 O 0.83477 0.26057 0.24941 0.0
O52 O 0.80561 0.07359 0.24597 0.0
O53 O 0.87959 0.07151 0.30062 0.0
O54 O 0.93762 0.16865 0.16823 0.0
O55 O 0.91507 0.23956 0.18892 0.0
O56 O 0.03716 0.3056 0.2654 0.0
O57 O 0.99343 0.19864 0.29739 0.0
C58 C 0.79078 0.20649 0.276 0.0
C59 C 0.04375 0.25519 0.2844 0.0
Dy60 Dy 0.03758 0.28716 0.77684 0.0
C61 C 0.29933 0.46032 0.76639 0.0
C62 C 0.92056 0.17832 0.76629 0.0
Dy63 Dy 0.16712 0.38017 0.76137 0.0
O64 O 0.93413 0.22501 0.80876 0.0
O65 O 0.96847 0.19493 0.72638 0.0
O66 O 0.05921 0.25303 0.87 0.0
O67 O 0.10398 0.35107 0.85542 0.0
C68 C 0.09028 0.30764 0.89916 0.0
C69 C 0.09424 0.33372 0.64256 0.0
O70 O 0.18007 0.29951 0.78868 0.0
O71 O 0.08753 0.23341 0.73689 0.0
O72 O 0.26055 0.46557 0.72475 0.0
O73 O 0.26534 0.41298 0.80579 0.0
O74 O 0.15137 0.34172 0.65119 0.0
O75 O 0.08185 0.35099 0.6963 0.0
O76 O 0.0337 0.38255 0.77168 0.0
O77 O 0.14219 0.45347 0.78769 0.0
C78 C 0.14385 0.24498 0.75942 0.0
C79 C 0.08322 0.44251 0.78153 0.0
Dy80 Dy 0.25783 0.97656 0.76104 0.0
C81 C 0.16367 0.71 0.76076 0.0
C82 C 0.27346 0.09654 0.73593 0.0
Dy83 Dy 0.22098 0.84321 0.75638 0.0
O84 O 0.29036 0.07896 0.78987 0.0
O85 O 0.25443 0.04943 0.69361 0.0
O86 O 0.21402 0.97062 0.8584 0.0
O87 O 0.26137 0.91732 0.84328 0.0
C88 C 0.23659 0.93837 0.88731 0.0
C89 C 0.25078 0.90678 0.63492 0.0
O90 O 0.1277 0.82804 0.78779 0.0
O91 O 0.14886 0.92674 0.75438 0.0
O92 O 0.15302 0.74279 0.7166 0.0
O93 O 0.20667 0.75039 0.80216 0.0
O94 O 0.2663 0.86421 0.6516 0.0
O95 O 0.21771 0.9091 0.68213 0.0
O96 O 0.35611 0.97723 0.7533 0.0
O97 O 0.3193 0.8708 0.77809 0.0
C98 C 0.10733 0.86724 0.77191 0.0
C99 C 0.367 0.92869 0.76836 0.0
Dy100 Dy 0.72337 0.75266 0.76763 0.0
C101 C 0.55395 0.84675 0.77036 0.0
C102 C 0.82886 0.73805 0.75457 0.0
Dy103 Dy 0.62898 0.78789 0.76265 0.0
O104 O 0.7997 0.73547 0.80967 0.0
O105 O 0.79363 0.73776 0.70535 0.0
O106 O 0.75816 0.79776 0.86572 0.0
O107 O 0.65835 0.74547 0.84984 0.0
C108 C 0.70314 0.77269 0.8942 0.0
C109 C 0.66628 0.76139 0.63845 0.0
O110 O 0.70583 0.88406 0.78912 0.0
O111 O 0.78218 0.86123 0.75423 0.0
O112 O 0.56083 0.81849 0.71793 0.0
O113 O 0.58651 0.84091 0.81867 0.0
O114 O 0.60816 0.74277 0.65754 0.0
O115 O 0.70081 0.79475 0.68661 0.0
O116 O 0.62734 0.65493 0.75565 0.0
O117 O 0.55918 0.69102 0.79031 0.0
C118 C 0.76488 0.90317 0.77351 0.0
C119 C 0.56842 0.64367 0.77312 0.0
C120 C 0.21862 0.9593 1.00701 0.0
C121 C 0.2633 0.96476 0.957 0.0
C122 C 0.35026 0.04356 0.03127 0.0
C123 C 0.30514 0.0433 0.0771 0.0
N124 N 0.19471 1.0027 0.10665 0.0
N125 N 0.37219 0.0274 0.91735 0.0
C126 C 0.23876 1.00173 0.06414 0.0
C127 C 0.32942 0.01042 0.96834 0.0
N128 N 0.15614 0.91299 0.99922 0.0
N129 N 0.41376 0.07614 0.04738 0.0
H130 H 0.35975 0.00766 0.86994 0.0
H131 H 0.4188 0.06565 0.92029 0.0
H132 H 0.43117 0.10353 0.09095 0.0
H133 H 0.44833 0.07183 1.02007 0.0
H134 H 0.11975 0.90478 0.03237 0.0
H135 H 0.14135 0.87913 0.96082 0.0
H136 H 0.14578 0.97927 0.09751 0.0
H137 H 0.20713 0.02973 0.15058 0.0
C138 C 0.64563 0.69309 0.52797 0.0
C139 C 0.68895 0.74036 0.57475 0.0
C140 C 0.77777 0.7374 0.51188 0.0
C141 C 0.73491 0.69287 0.46401 0.0
N142 N 0.63064 0.65296 0.41441 0.0
N143 N 0.79831 0.82638 0.58468 0.0
C144 C 0.66949 0.6772 0.46901 0.0
C145 C 0.75573 0.7676 0.55959 0.0
N146 N 0.58105 0.66356 0.53701 0.0
N147 N 0.8404 0.75279 0.51108 0.0
H148 H 0.78444 0.85432 0.61216 0.0
H149 H 0.84591 0.85125 0.56947 0.0
H150 H 0.85835 0.73338 0.47609 0.0
H151 H 0.87265 0.78061 0.54845 0.0
H152 H 0.54946 0.62272 0.51001 0.0
H153 H 0.55809 0.67682 0.57207 0.0
H154 H 0.58474 0.64689 0.41207 0.0
H155 H 0.64762 0.64859 0.36818 0.0
C156 C 0.97903 0.29721 0.04576 0.0
C157 C 0.99306 0.26121 0.0921 0.0
C158 C 0.08754 0.28378 0.02116 0.0
C159 C 0.06627 0.3083 0.96957 0.0
N160 N 0.98395 0.32996 0.93097 0.0
N161 N 0.06252 0.2174 0.11821 0.0
C162 C 0.01055 0.31379 0.98185 0.0
C163 C 0.04806 0.25417 0.07831 0.0
N164 N 0.93445 0.31454 0.0611 0.0
N165 N 0.14634 0.28864 1.01537 0.0
H166 H 0.04326 0.20163 0.16516 0.0
H167 H 0.09376 0.2013 0.10385 0.0
H168 H 0.17607 0.3103 0.97445 0.0
H169 H 0.16823 0.27748 0.05366 0.0
H170 H 0.92795 0.347 0.03283 0.0
H171 H 0.9079 0.3015 0.10484 0.0
H172 H 0.93889 0.3259 0.93361 0.0
H173 H 1.0046 0.34277 0.88422 0.0
C174 C 0.36533 0.03338 0.50744 0.0
C175 C 0.3233 0.04421 0.46744 0.0
C176 C 0.23493 0.97247 0.54265 0.0
C177 C 0.27581 0.95379 0.57619 0.0
N178 N 0.38052 0.96261 0.57965 0.0
N179 N 0.21952 0.03135 0.45158 0.0
C180 C 0.34116 0.9835 0.55586 0.0
C181 C 0.25871 0.01705 0.48771 0.0
N182 N 0.42962 0.07173 0.4986 0.0
N183 N 0.17204 0.94415 0.56025 0.0
H184 H 0.23755 0.06616 0.41458 0.0
H185 H 0.17027 0.0097 0.45751 0.0
H186 H 0.15042 0.90362 0.59 0.0
H187 H 0.1407 0.95931 0.54444 0.0
H188 H 0.46383 0.07133 0.53007 0.0
H189 H 0.448 0.1088 0.46394 0.0
H190 H 0.42444 0.97515 0.55779 0.0
H191 H 0.36839 0.92931 0.61729 0.0
C192 C 0.72932 0.79808 1.01561 0.0
C193 C 0.70316 0.75023 0.96541 0.0
C194 C 0.71664 0.67708 0.0437 0.0
C195 C 0.75181 0.72816 0.09036 0.0
N196 N 0.7929 0.84122 0.11539 0.0
N197 N 0.68153 0.64586 0.9286 0.0
C198 C 0.7581 0.7895 0.07469 0.0
C199 C 0.69847 0.68984 0.9791 0.0
N200 N 0.7268 0.853 1.00632 0.0
N201 N 0.70124 0.61616 0.05967 0.0
H202 H 0.66797 0.65268 0.88144 0.0
H203 H 0.68548 0.60483 0.93185 0.0
H204 H 0.71554 0.60444 0.1037 0.0
H205 H 0.6695 0.57633 0.03157 0.0
H206 H 0.74175 0.88969 0.04138 0.0
H207 H 0.70473 0.8598 0.96482 0.0
H208 H 0.81115 0.88829 0.10004 0.0
H209 H 0.80398 0.83821 0.16474 0.0
C210 C 0.03698 0.3286 0.45856 0.0
C211 C 0.97062 0.28145 0.46091 0.0
C212 C 0.98286 0.2815 0.58301 0.0
C213 C 0.05182 0.31631 0.57928 0.0
N214 N 0.14303 0.36983 0.50555 0.0
N215 N 0.88302 0.20722 0.52794 0.0
C216 C 0.07838 0.3381 0.51452 0.0
C217 C 0.94476 0.2558 0.5238 0.0
N218 N 0.06064 0.36647 0.40381 0.0
N219 N 0.95193 0.27671 0.64153 0.0
H220 H 0.85318 0.18838 0.48629 0.0
H221 H 0.86375 0.18243 0.57204 0.0
H222 H 0.97444 0.29688 0.68628 0.0
H223 H 0.90277 0.2592 0.64362 0.0
H224 H 0.10698 0.40521 0.40141 0.0
H225 H 0.03167 0.36405 0.36423 0.0
H226 H 0.16385 0.37894 0.4583 0.0
H227 H 0.17599 0.38393 0.54435 0.0
C228 C 0.61889 0.1101 0.20978 0.0
C229 C 0.58439 0.12241 0.25985 0.0
C230 C 0.686 0.19289 0.31895 0.0
C231 C 0.72067 0.18287 0.26753 0.0
N232 N 0.72174 0.13958 0.15894 0.0
N233 N 0.58763 0.1893 0.35245 0.0
C234 C 0.68747 0.14387 0.21128 0.0
C235 C 0.61865 0.16757 0.31185 0.0
N236 N 0.58599 0.06432 0.16217 0.0
N237 N 0.71721 0.22554 0.37557 0.0
H238 H 0.53916 0.17437 0.34798 0.0
H239 H 0.61118 0.22719 0.3861 0.0
H240 H 0.76664 0.24678 0.38151 0.0
H241 H 0.6937 0.22773 0.41838 0.0
H242 H 0.60744 0.0477 0.12841 0.0
H243 H 0.53617 0.03932 0.15939 0.0
H244 H 0.70144 0.11739 0.11358 0.0
H245 H 0.7716 0.1627 0.15889 0.0
C246 C 0.56901 0.40416 0.30657 0.0
C247 C 0.55865 0.44065 0.25735 0.0
C248 C 0.47705 0.3393 0.20517 0.0
C249 C 0.4814 0.30363 0.25947 0.0
N250 N 0.52558 0.30475 0.36778 0.0
N251 N 0.49821 0.44241 0.16275 0.0
C252 C 0.52595 0.33679 0.31165 0.0
C253 C 0.51145 0.40792 0.20735 0.0
N254 N 0.62202 0.433 0.34658 0.0
N255 N 0.44193 0.30746 0.14998 0.0
H256 H 0.52281 0.49231 0.16245 0.0
H257 H 0.45963 0.42191 0.12977 0.0
H258 H 0.41819 0.25775 0.14543 0.0
H259 H 0.44159 0.33016 0.1061 0.0
H260 H 0.6358 0.40768 0.37796 0.0
H261 H 0.65618 0.48124 0.34331 0.0
H262 H 0.55174 0.32769 0.41062 0.0
H263 H 0.49486 0.25589 0.37402 0.0
C264 C 0.85961 0.45017 0.30437 0.0
C265 C 0.91452 0.46835 0.26321 0.0
C266 C 0.90403 0.5602 0.2241 0.0
C267 C 0.85412 0.5461 0.27104 0.0
N268 N 0.79055 0.48175 0.36238 0.0
N269 N 0.99217 0.54462 0.18798 0.0
C270 C 0.8336 0.49209 0.31281 0.0
C271 C 0.93741 0.52446 0.22409 0.0
N272 N 0.82988 0.39113 0.33302 0.0
N273 N 0.91779 0.60622 0.17737 0.0
H274 H 0.01676 0.51915 0.18592 0.0
H275 H 0.01583 0.58867 0.16429 0.0
H276 H 0.89326 0.63166 0.17447 0.0
H277 H 0.94896 0.61503 0.13767 0.0
H278 H 0.78589 0.37213 0.35703 0.0
H279 H 0.84561 0.35821 0.32703 0.0
H280 H 0.77901 0.4478 0.39955 0.0
H281 H 0.77028 0.51083 0.3697 0.0
C282 C 0.08675 0.54004 0.83342 0.0
C283 C 0.0785 0.50216 0.77556 0.0
C284 C 0.1218 0.59939 0.70673 0.0
C285 C 0.13023 0.63769 0.76477 0.0
N286 N 0.10181 0.64012 0.87999 0.0
N287 N 0.07155 0.49296 0.65615 0.0
C288 C 0.10688 0.60662 0.82715 0.0
C289 C 0.08987 0.5311 0.7119 0.0
N290 N 0.07761 0.5127 0.89483 0.0
N291 N 0.14847 0.62803 0.64748 0.0
H292 H 0.04834 0.44318 0.65904 0.0
H293 H 0.0732 0.50993 0.60811 0.0
H294 H 0.17466 0.67741 0.64165 0.0
H295 H 0.15001 0.60301 0.60549 0.0
H296 H 0.09045 0.5388 0.93941 0.0
H297 H 0.05974 0.4637 0.90058 0.0
H298 H 0.0798 0.61891 0.9248 0.0
H299 H 0.11341 0.68787 0.87668 0.0
C300 C 0.47904 0.95321 0.72985 0.0
C301 C 0.43149 0.93343 0.78005 0.0
C302 C 0.47014 0.86468 0.82835 0.0
C303 C 0.51446 0.8798 0.77527 0.0
N304 N 0.57245 0.95078 0.68511 0.0
N305 N 0.40187 0.89336 0.89144 0.0
C306 C 0.52241 0.92802 0.72879 0.0
C307 C 0.43457 0.89731 0.83425 0.0
N308 N 0.48291 0.99642 0.684 0.0
N309 N 0.45789 0.81553 0.87048 0.0
H310 H 0.37532 0.9166 0.89667 0.0
H311 H 0.40655 0.87308 0.93532 0.0
H312 H 0.48013 0.78799 0.86663 0.0
H313 H 0.42086 0.7977 0.90516 0.0
H314 H 0.51236 0.00998 0.64228 0.0
H315 H 0.45603 0.01936 0.68869 0.0
H316 H 0.58404 0.98809 0.65222 0.0
H317 H 0.60563 0.93491 0.68471 0.0
C318 C 0.40907 0.50715 0.71063 0.0
C319 C 0.37157 0.50018 0.76853 0.0
C320 C 0.47167 0.56237 0.83282 0.0
C321 C 0.50812 0.57942 0.77315 0.0
N322 N 0.51231 0.56526 0.65496 0.0
N323 N 0.36842 0.52585 0.88484 0.0
C324 C 0.47705 0.5501 0.71208 0.0
C325 C 0.40333 0.52809 0.82996 0.0
N326 N 0.38001 0.47124 0.65489 0.0
N327 N 0.50317 0.58037 0.89262 0.0
H328 H 0.31868 0.50367 0.88465 0.0
H329 H 0.38876 0.55108 0.92891 0.0
H330 H 0.55298 0.60565 0.89539 0.0
H331 H 0.48071 0.56494 0.93864 0.0
H332 H 0.40478 0.46908 0.61322 0.0
H333 H 0.33104 0.43905 0.65234 0.0
H334 H 0.49247 0.55194 0.60739 0.0
H335 H 0.56205 0.59304 0.65556 0.0
C336 C 0.14346 0.18766 0.34679 0.0
C337 C 0.18279 0.19793 0.2906 0.0
C338 C 0.15289 0.27506 0.24609 0.0
C339 C 0.10605 0.25667 0.2967 0.0
N340 N 0.07351 0.21488 0.40754 0.0
N341 N 0.23257 0.25641 0.19046 0.0
C342 C 0.10764 0.21979 0.35133 0.0
C343 C 0.19042 0.24388 0.24165 0.0
N344 N 0.13652 0.14339 0.39341 0.0
N345 N 0.16158 0.32241 0.20319 0.0
H346 H 0.26205 0.23618 0.18738 0.0
H347 H 0.23798 0.28562 0.15025 0.0
H348 H 0.13625 0.3469 0.20774 0.0
H349 H 0.19649 0.3409 0.16641 0.0
H350 H 0.10247 0.12734 0.43118 0.0
H351 H 0.16209 0.11891 0.39213 0.0
H352 H 0.07819 0.19623 0.45252 0.0
H353 H 0.04363 0.23423 0.41033 0.0
C354 C 0.08779 0.84 0.21526 0.0
C355 C 0.05173 0.82985 0.27531 0.0
C356 C 0.15238 0.8813 0.3393 0.0
C357 C 0.18715 0.90195 0.27929 0.0
N358 N 0.19309 0.88173 0.16349 0.0
N359 N 0.05011 0.83368 0.39601 0.0
C360 C 0.15629 0.8744 0.2182 0.0
C361 C 0.0842 0.8478 0.33793 0.0
N362 N 0.05676 0.8205 0.15519 0.0
N363 N 0.18578 0.8918 0.39734 0.0
H364 H 1.00066 0.80417 0.39786 0.0
H365 H 0.07058 0.85253 0.44241 0.0
H366 H 0.23566 0.91423 0.39738 0.0
H367 H 0.16474 0.87262 0.44306 0.0
H368 H 0.0793 0.82512 0.10974 0.0
H369 H 1.00767 0.80142 0.14953 0.0
H370 H 0.17542 0.85967 0.1175 0.0
H371 H 0.24291 0.90613 0.16623 0.0
C372 C 0.78235 0.93847 0.34517 0.0
C373 C 0.78193 0.96536 0.28272 0.0
C374 C 0.71593 0.85594 0.23675 0.0
C375 C 0.73447 0.8322 0.29158 0.0
N376 N 0.77011 0.84641 0.40527 0.0
N377 N 0.73604 0.94903 0.17176 0.0
C378 C 0.76185 0.87221 0.34854 0.0
C379 C 0.74362 0.92389 0.22963 0.0
N380 N 0.80003 0.97593 0.40155 0.0
N381 N 0.67386 0.81362 0.19109 0.0
H382 H 0.75784 0.99773 0.16256 0.0
H383 H 0.70875 0.92186 0.13149 0.0
H384 H 0.65325 0.76436 0.19694 0.0
H385 H 0.65533 0.82624 0.15086 0.0
H386 H 0.79683 0.95843 0.44958 0.0
H387 H 0.81136 0.02373 0.40108 0.0
H388 H 0.7976 0.87292 0.44599 0.0
H389 H 0.74944 0.7972 0.4098 0.0
C390 C 0.18103 0.18253 0.68557 0.0
C391 C 0.17117 0.20132 0.75025 0.0
C392 C 0.24934 0.17441 0.79622 0.0
C393 C 0.25078 0.14493 0.73515 0.0
N394 N 0.22411 0.12845 0.61776 0.0
N395 N 0.18661 0.20186 0.86933 0.0
C396 C 0.21817 0.15104 0.67861 0.0
C397 C 0.20242 0.19294 0.80611 0.0
N398 N 0.15824 0.19793 0.63046 0.0
N399 N 0.29511 0.18828 0.84372 0.0
H400 H 0.15064 0.21302 0.87886 0.0
H401 H 0.20408 0.19109 0.91198 0.0
H402 H 0.33497 0.1831 0.83471 0.0
H403 H 0.29866 0.21379 0.88737 0.0
H404 H 0.16999 0.1927 0.58165 0.0
H405 H 0.13006 0.21949 0.63322 0.0
H406 H 0.19414 0.12141 0.5773 0.0
H407 H 0.25998 0.11735 0.60759 0.0
C408 C 1.00564 0.85626 0.71845 0.0
C409 C 0.03603 0.83975 0.76924 0.0
C410 C 0.93087 0.74827 0.79821 0.0
C411 C 0.90018 0.76946 0.75336 0.0
N412 N 0.91091 0.85998 0.69026 0.0
N413 N 0.0214 0.78057 0.87122 0.0
C414 C 0.93803 0.82784 0.71861 0.0
C415 C 0.99679 0.78869 0.81313 0.0
N416 N 0.03969 0.89758 0.66862 0.0
N417 N 0.89721 0.68946 0.82685 0.0
H418 H 0.06776 0.81219 0.88712 0.0
H419 H 0.99348 0.74758 0.90739 0.0
H420 H 0.84897 0.65829 0.81645 0.0
H421 H 0.91885 0.66936 0.8553 0.0
H422 H 0.01771 0.90406 0.62689 0.0
H423 H 0.08902 0.92119 0.66504 0.0
H424 H 0.93778 0.90568 0.67045 0.0
H425 H 0.86289 0.84571 0.69449 0.0
C426 C 0.88322 0.0745 0.82735 0.0
C427 C 0.87305 0.10931 0.77619 0.0
C428 C 0.79997 0.00833 0.71892 0.0
C429 C 0.80855 0.97347 0.7709 0.0
N430 N 0.84934 0.97222 0.88019 0.0
N431 N 0.81065 0.10931 0.68322 0.0
C432 C 0.84773 1.00627 0.82669 0.0
C433 C 0.82816 0.07602 0.72479 0.0
N434 N 0.92831 0.10647 0.87558 0.0
N435 N 0.76558 0.9766 0.66329 0.0
H436 H 0.82843 0.15834 0.68928 0.0
H437 H 0.77403 0.08791 0.64806 0.0
H438 H 0.74415 0.92711 0.65745 0.0
H439 H 0.76273 0.99953 0.62068 0.0
H440 H 0.94497 0.08436 0.90796 0.0
H441 H 0.95075 0.15576 0.88209 0.0
H442 H 0.87006 0.99291 0.92597 0.0
H443 H 0.82641 0.92242 0.88016 0.0
loop_
_geom_bond_atom_site_label_1
_geom_bond_atom_site_label_2
_geom_bond_distance
_geom_bond_site_symmetry_2
_ccdc_geom_bond_type
Dy0 O4 2.398 . S
Dy0 O5 2.491 . S
Dy0 O6 2.403 . S
Dy0 O7 2.664 . S
Dy0 O11 2.326 . S
Dy0 O15 2.310 . S
Dy0 O16 2.351 1_545 S
C1 O12 1.185 . S
C1 O13 1.355 . S
C2 O4 1.185 . S
C2 O5 1.355 . S
Dy3 O7 2.310 . S
Dy3 O10 2.351 . S
Dy3 O12 2.398 . S
Dy3 O13 2.491 . S
Dy3 O14 2.403 . S
Dy3 O15 2.664 . S
Dy3 O17 2.326 . S
O4 Dy0 2.398 . S
O4 C2 1.185 . S
O5 Dy0 2.491 . S
O5 C2 1.355 . S
O6 Dy0 2.403 . S
O6 C8 1.254 . S
O7 Dy0 2.664 . S
O7 Dy3 2.310 . S
O7 C8 1.268 . S
C8 O6 1.254 . S
C8 O7 1.268 . S
C9 O14 1.254 . S
C9 O15 1.268 . S
O10 Dy3 2.351 . S
O10 C18 1.249 . S
O11 Dy0 2.326 . S
O11 C18 1.267 . S
O12 C1 1.185 . S
O12 Dy3 2.398 . S
O13 C1 1.355 . S
O13 Dy3 2.491 . S
O14 Dy3 2.403 . S
O14 C9 1.254 . S
O15 Dy0 2.310 . S
O15 Dy3 2.664 . S
O15 C9 1.268 . S
O16 Dy0 2.351 1_565 S
O16 C19 1.249 . S
O17 Dy3 2.326 . S
O17 C19 1.267 1_545 S
C18 O10 1.249 . S
C18 O11 1.267 . S
C19 O16 1.249 . S
C19 O17 1.267 1_565 S
Dy20 O24 2.398 . S
Dy20 O25 2.491 . S
Dy20 O26 2.403 . S
Dy20 O27 2.664 . S
Dy20 O31 2.326 . S
Dy20 O35 2.310 . S
Dy20 O36 2.351 . S
C21 O32 1.185 . S
C21 O33 1.355 . S
C22 O24 1.185 . S
C22 O25 1.355 . S
Dy23 O27 2.310 . S
Dy23 O30 2.351 . S
Dy23 O32 2.398 . S
Dy23 O33 2.491 . S
Dy23 O34 2.403 . S
Dy23 O35 2.664 . S
Dy23 O37 2.326 . S
O24 Dy20 2.398 . S
O24 C22 1.185 . S
O25 Dy20 2.491 . S
O25 C22 1.355 . S
O26 Dy20 2.403 . S
O26 C28 1.254 . S
O27 Dy20 2.664 . S
O27 Dy23 2.310 . S
O27 C28 1.268 . S
C28 O26 1.254 . S
C28 O27 1.268 . S
C29 O34 1.254 . S
C29 O35 1.268 . S
O30 Dy23 2.351 . S
O30 C38 1.249 . S
O31 Dy20 2.326 . S
O31 C38 1.267 . S
O32 C21 1.185 . S
O32 Dy23 2.398 . S
O33 C21 1.355 . S
O33 Dy23 2.491 . S
O34 Dy23 2.403 . S
O34 C29 1.254 . S
O35 Dy20 2.310 . S
O35 Dy23 2.664 . S
O35 C29 1.268 . S
O36 Dy20 2.351 . S
O36 C39 1.249 . S
O37 Dy23 2.326 . S
O37 C39 1.267 . S
C38 O30 1.249 . S
C38 O31 1.267 . S
C39 O36 1.249 . S
C39 O37 1.267 . S
Dy40 O44 2.398 . S
Dy40 O45 2.491 . S
Dy40 O46 2.403 . S
Dy40 O47 2.664 . S
Dy40 O51 2.326 . S
Dy40 O55 2.310 . S
Dy40 O56 2.351 1_655 S
C41 O52 1.185 . S
C41 O53 1.355 . S
C42 O44 1.185 . S
C42 O45 1.355 . S
Dy43 O47 2.310 . S
Dy43 O50 2.351 . S
Dy43 O52 2.398 . S
Dy43 O53 2.491 . S
Dy43 O54 2.403 . S
Dy43 O55 2.664 . S
Dy43 O57 2.326 . S
O44 Dy40 2.398 . S
O44 C42 1.185 . S
O45 Dy40 2.491 . S
O45 C42 1.355 . S
O46 Dy40 2.403 . S
O46 C48 1.254 . S
O47 Dy40 2.664 . S
O47 Dy43 2.310 . S
O47 C48 1.268 . S
C48 O46 1.254 . S
C48 O47 1.268 . S
C49 O54 1.254 . S
C49 O55 1.268 . S
O50 Dy43 2.351 . S
O50 C58 1.249 . S
O51 Dy40 2.326 . S
O51 C58 1.267 . S
O52 C41 1.185 . S
O52 Dy43 2.398 . S
O53 C41 1.355 . S
O53 Dy43 2.491 . S
O54 Dy43 2.403 . S
O54 C49 1.254 . S
O55 Dy40 2.310 . S
O55 Dy43 2.664 . S
O55 C49 1.268 . S
O56 Dy40 2.351 1_455 S
O56 C59 1.249 . S
O57 Dy43 2.326 . S
O57 C59 1.267 1_655 S
C58 O50 1.249 . S
C58 O51 1.267 . S
C59 O56 1.249 . S
C59 O57 1.267 1_455 S
Dy60 O64 2.398 1_455 S
Dy60 O65 2.491 1_455 S
Dy60 O66 2.403 . S
Dy60 O67 2.664 . S
Dy60 O71 2.326 . S
Dy60 O75 2.310 . S
Dy60 O76 2.351 . S
C61 O72 1.185 . S
C61 O73 1.355 . S
C62 O64 1.185 . S
C62 O65 1.355 . S
Dy63 O67 2.310 . S
Dy63 O70 2.351 . S
Dy63 O72 2.398 . S
Dy63 O73 2.491 . S
Dy63 O74 2.403 . S
Dy63 O75 2.664 . S
Dy63 O77 2.326 . S
O64 Dy60 2.398 1_655 S
O64 C62 1.185 . S
O65 Dy60 2.491 1_655 S
O65 C62 1.355 . S
O66 Dy60 2.403 . S
O66 C68 1.254 . S
O67 Dy60 2.664 . S
O67 Dy63 2.310 . S
O67 C68 1.268 . S
C68 O66 1.254 . S
C68 O67 1.268 . S
C69 O74 1.254 . S
C69 O75 1.268 . S
O70 Dy63 2.351 . S
O70 C78 1.249 . S
O71 Dy60 2.326 . S
O71 C78 1.267 . S
O72 C61 1.185 . S
O72 Dy63 2.398 . S
O73 C61 1.355 . S
O73 Dy63 2.491 . S
O74 Dy63 2.403 . S
O74 C69 1.254 . S
O75 Dy60 2.310 . S
O75 Dy63 2.664 . S
O75 C69 1.268 . S
O76 Dy60 2.351 . S
O76 C79 1.249 . S
O77 Dy63 2.326 . S
O77 C79 1.267 . S
C78 O70 1.249 . S
C78 O71 1.267 . S
C79 O76 1.249 . S
C79 O77 1.267 . S
Dy80 O84 2.398 1_565 S
Dy80 O85 2.491 1_565 S
Dy80 O86 2.403 . S
Dy80 O87 2.664 . S
Dy80 O91 2.326 . S
Dy80 O95 2.310 . S
Dy80 O96 2.351 . S
C81 O92 1.185 . S
C81 O93 1.355 . S
C82 O84 1.185 . S
C82 O85 1.355 . S
Dy83 O87 2.310 . S
Dy83 O90 2.351 . S
Dy83 O92 2.398 . S
Dy83 O93 2.491 . S
Dy83 O94 2.403 . S
Dy83 O95 2.664 . S
Dy83 O97 2.326 . S
O84 Dy80 2.398 1_545 S
O84 C82 1.185 . S
O85 Dy80 2.491 1_545 S
O85 C82 1.355 . S
O86 Dy80 2.403 . S
O86 C88 1.254 . S
O87 Dy80 2.664 . S
O87 Dy83 2.310 . S
O87 C88 1.268 . S
C88 O86 1.254 . S
C88 O87 1.268 . S
C89 O94 1.254 . S
C89 O95 1.268 . S
O90 Dy83 2.351 . S
O90 C98 1.249 . S
O91 Dy80 2.326 . S
O91 C98 1.267 . S
O92 C81 1.185 . S
O92 Dy83 2.398 . S
O93 C81 1.355 . S
O93 Dy83 2.491 . S
O94 Dy83 2.403 . S
O94 C89 1.254 . S
O95 Dy80 2.310 . S
O95 Dy83 2.664 . S
O95 C89 1.268 . S
O96 Dy80 2.351 . S
O96 C99 1.249 . S
O97 Dy83 2.326 . S
O97 C99 1.267 . S
C98 O90 1.249 . S
C98 O91 1.267 . S
C99 O96 1.249 . S
C99 O97 1.267 . S
Dy100 O104 2.398 . S
Dy100 O105 2.491 . S
Dy100 O106 2.403 . S
Dy100 O107 2.664 . S
Dy100 O111 2.326 . S
Dy100 O115 2.310 . S
Dy100 O116 2.351 . S
C101 O112 1.185 . S
C101 O113 1.355 . S
C102 O104 1.185 . S
C102 O105 1.355 . S
Dy103 O107 2.310 . S
Dy103 O110 2.351 . S
Dy103 O112 2.398 . S
Dy103 O113 2.491 . S
Dy103 O114 2.403 . S
Dy103 O115 2.664 . S
Dy103 O117 2.326 . S
O104 Dy100 2.398 . S
O104 C102 1.185 . S
O105 Dy100 2.491 . S
O105 C102 1.355 . S
O106 Dy100 2.403 . S
O106 C108 1.254 . S
O107 Dy100 2.664 . S
O107 Dy103 2.310 . S
O107 C108 1.268 . S
C108 O106 1.254 . S
C108 O107 1.268 . S
C109 O114 1.254 . S
C109 O115 1.268 . S
O110 Dy103 2.351 . S
O110 C118 1.249 . S
O111 Dy100 2.326 . S
O111 C118 1.267 . S
O112 C101 1.185 . S
O112 Dy103 2.398 . S
O113 C101 1.355 . S
O113 Dy103 2.491 . S
O114 Dy103 2.403 . S
O114 C109 1.254 . S
O115 Dy100 2.310 . S
O115 Dy103 2.664 . S
O115 C109 1.268 . S
O116 Dy100 2.351 . S
O116 C119 1.249 . S
O117 Dy103 2.326 . S
O117 C119 1.267 . S
C118 O110 1.249 . S
C118 O111 1.267 . S
C119 O116 1.249 . S
C119 O117 1.267 . S
C120 C121 1.363 1_554 S
C120 C126 1.379 . S
C120 N128 1.356 . S
C121 C120 1.363 1_556 S
C121 C127 1.363 1_565 S
C122 C123 1.363 1_556 S
C122 C127 1.379 . S
C122 N129 1.356 . S
C123 C122 1.363 1_554 S
C123 C126 1.363 1_545 S
N124 C126 1.356 1_545 S
N124 H136 0.984 1_545 S
N124 H137 0.985 . S
N125 C127 1.356 1_565 S
N125 H130 0.984 . S
N125 H131 0.985 1_565 S
C126 C120 1.379 . S
C126 C123 1.363 1_565 S
C126 N124 1.356 1_565 S
C127 C121 1.363 1_545 S
C127 C122 1.379 . S
C127 N125 1.356 1_545 S
N128 C120 1.356 . S
N128 H134 0.984 . S
N128 H135 0.984 1_554 S
N129 C122 1.356 . S
N129 H132 0.984 1_556 S
N129 H133 0.985 . S
H130 N125 0.984 . S
H131 N125 0.985 1_545 S
H132 N129 0.984 1_554 S
H133 N129 0.985 . S
H134 N128 0.984 . S
H135 N128 0.984 1_556 S
H136 N124 0.984 1_565 S
H137 N124 0.985 . S
C138 C139 1.363 . S
C138 C144 1.379 . S
C138 N146 1.356 . S
C139 C138 1.363 . S
C139 C145 1.363 . S
C140 C141 1.363 . S
C140 C145 1.379 . S
C140 N147 1.356 . S
C141 C140 1.363 . S
C141 C144 1.363 . S
N142 C144 1.356 . S
N142 H154 0.984 . S
N142 H155 0.985 . S
N143 C145 1.356 . S
N143 H148 0.984 . S
N143 H149 0.985 . S
C144 C138 1.379 . S
C144 C141 1.363 . S
C144 N142 1.356 . S
C145 C139 1.363 . S
C145 C140 1.379 . S
C145 N143 1.356 . S
N146 C138 1.356 . S
N146 H152 0.984 . S
N146 H153 0.984 . S
N147 C140 1.356 . S
N147 H150 0.984 . S
N147 H151 0.985 . S
H148 N143 0.984 . S
H149 N143 0.985 . S
H150 N147 0.984 . S
H151 N147 0.985 . S
H152 N146 0.984 . S
H153 N146 0.984 . S
H154 N142 0.984 . S
H155 N142 0.985 . S
C156 C157 1.363 1_556 S
C156 C162 1.379 . S
C156 N164 1.356 . S
C157 C156 1.363 1_554 S
C157 C163 1.363 1_655 S
C158 C159 1.363 1_554 S
C158 C163 1.379 . S
C158 N165 1.356 . S
C159 C158 1.363 1_556 S
C159 C162 1.363 1_455 S
N160 C162 1.356 1_455 S
N160 H172 0.984 1_455 S
N160 H173 0.985 . S
N161 C163 1.356 1_655 S
N161 H166 0.984 . S
N161 H167 0.985 1_655 S
C162 C156 1.379 . S
C162 C159 1.363 1_655 S
C162 N160 1.356 1_655 S
C163 C157 1.363 1_455 S
C163 C158 1.379 . S
C163 N161 1.356 1_455 S
N164 C156 1.356 . S
N164 H170 0.984 . S
N164 H171 0.984 1_556 S
N165 C158 1.356 . S
N165 H168 0.984 1_554 S
N165 H169 0.985 . S
H166 N161 0.984 . S
H167 N161 0.985 1_455 S
H168 N165 0.984 1_556 S
H169 N165 0.985 . S
H170 N164 0.984 . S
H171 N164 0.984 1_554 S
H172 N160 0.984 1_655 S
H173 N160 0.985 . S
C174 C175 1.363 . S
C174 C180 1.379 1_545 S
C174 N182 1.356 . S
C175 C174 1.363 . S
C175 C181 1.363 . S
C176 C177 1.363 . S
C176 C181 1.379 1_565 S
C176 N183 1.356 . S
C177 C176 1.363 . S
C177 C180 1.363 . S
N178 C180 1.356 . S
N178 H190 0.984 . S
N178 H191 0.985 . S
N179 C181 1.356 . S
N179 H184 0.984 . S
N179 H185 0.985 . S
C180 C174 1.379 1_565 S
C180 C177 1.363 . S
C180 N178 1.356 . S
C181 C175 1.363 . S
C181 C176 1.379 1_545 S
C181 N179 1.356 . S
N182 C174 1.356 . S
N182 H188 0.984 . S
N182 H189 0.984 . S
N183 C176 1.356 . S
N183 H186 0.984 . S
N183 H187 0.985 . S
H184 N179 0.984 . S
H185 N179 0.985 . S
H186 N183 0.984 . S
H187 N183 0.985 . S
H188 N182 0.984 . S
H189 N182 0.984 . S
H190 N178 0.984 . S
H191 N178 0.985 . S
C192 C193 1.363 . S
C192 C198 1.379 1_556 S
C192 N200 1.356 . S
C193 C192 1.363 . S
C193 C199 1.363 . S
C194 C195 1.363 . S
C194 C199 1.379 1_554 S
C194 N201 1.356 . S
C195 C194 1.363 . S
C195 C198 1.363 . S
N196 C198 1.356 . S
N196 H208 0.984 . S
N196 H209 0.985 . S
N197 C199 1.356 . S
N197 H202 0.984 . S
N197 H203 0.985 . S
C198 C192 1.379 1_554 S
C198 C195 1.363 . S
C198 N196 1.356 . S
C199 C193 1.363 . S
C199 C194 1.379 1_556 S
C199 N197 1.356 . S
N200 C192 1.356 . S
N200 H206 0.984 . S
N200 H207 0.984 . S
N201 C194 1.356 . S
N201 H204 0.984 . S
N201 H205 0.985 . S
H202 N197 0.984 . S
H203 N197 0.985 . S
H204 N201 0.984 . S
H205 N201 0.985 . S
H206 N200 0.984 . S
H207 N200 0.984 . S
H208 N196 0.984 . S
H209 N196 0.985 . S
C210 C211 1.363 1_455 S
C210 C216 1.379 . S
C210 N218 1.356 . S
C211 C210 1.363 1_655 S
C211 C217 1.363 . S
C212 C213 1.363 1_655 S
C212 C217 1.379 . S
C212 N219 1.356 . S
C213 C212 1.363 1_455 S
C213 C216 1.363 . S
N214 C216 1.356 . S
N214 H226 0.984 . S
N214 H227 0.985 . S
N215 C217 1.356 . S
N215 H220 0.984 . S
N215 H221 0.985 . S
C216 C210 1.379 . S
C216 C213 1.363 . S
C216 N214 1.356 . S
C217 C211 1.363 . S
C217 C212 1.379 . S
C217 N215 1.356 . S
N218 C210 1.356 . S
N218 H224 0.984 . S
N218 H225 0.984 1_455 S
N219 C212 1.356 . S
N219 H222 0.984 1_655 S
N219 H223 0.985 . S
H220 N215 0.984 . S
H221 N215 0.985 . S
H222 N219 0.984 1_455 S
H223 N219 0.985 . S
H224 N218 0.984 . S
H225 N218 0.984 1_655 S
H226 N214 0.984 . S
H227 N214 0.985 . S
C228 C229 1.363 . S
C228 C234 1.379 . S
C228 N236 1.356 . S
C229 C228 1.363 . S
C229 C235 1.363 . S
C230 C231 1.363 . S
C230 C235 1.379 . S
C230 N237 1.356 . S
C231 C230 1.363 . S
C231 C234 1.363 . S
N232 C234 1.356 . S
N232 H244 0.984 . S
N232 H245 0.985 . S
N233 C235 1.356 . S
N233 H238 0.984 . S
N233 H239 0.985 . S
C234 C228 1.379 . S
C234 C231 1.363 . S
C234 N232 1.356 . S
C235 C229 1.363 . S
C235 C230 1.379 . S
C235 N233 1.356 . S
N236 C228 1.356 . S
N236 H242 0.984 . S
N236 H243 0.984 . S
N237 C230 1.356 . S
N237 H240 0.984 . S
N237 H241 0.985 . S
H238 N233 0.984 . S
H239 N233 0.985 . S
H240 N237 0.984 . S
H241 N237 0.985 . S
H242 N236 0.984 . S
H243 N236 0.984 . S
H244 N232 0.984 . S
H245 N232 0.985 . S
C246 C247 1.363 . S
C246 C252 1.379 . S
C246 N254 1.356 . S
C247 C246 1.363 . S
C247 C253 1.363 . S
C248 C249 1.363 . S
C248 C253 1.379 . S
C248 N255 1.356 . S
C249 C248 1.363 . S
C249 C252 1.363 . S
N250 C252 1.356 . S
N250 H262 0.984 . S
N250 H263 0.985 . S
N251 C253 1.356 . S
N251 H256 0.984 . S
N251 H257 0.985 . S
C252 C246 1.379 . S
C252 C249 1.363 . S
C252 N250 1.356 . S
C253 C247 1.363 . S
C253 C248 1.379 . S
C253 N251 1.356 . S
N254 C246 1.356 . S
N254 H260 0.984 . S
N254 H261 0.984 . S
N255 C248 1.356 . S
N255 H258 0.984 . S
N255 H259 0.985 . S
H256 N251 0.984 . S
H257 N251 0.985 . S
H258 N255 0.984 . S
H259 N255 0.985 . S
H260 N254 0.984 . S
H261 N254 0.984 . S
H262 N250 0.984 . S
H263 N250 0.985 . S
C264 C265 1.363 . S
C264 C270 1.379 . S
C264 N272 1.356 . S
C265 C264 1.363 . S
C265 C271 1.363 . S
C266 C267 1.363 . S
C266 C271 1.379 . S
C266 N273 1.356 . S
C267 C266 1.363 . S
C267 C270 1.363 . S
N268 C270 1.356 . S
N268 H280 0.984 . S
N268 H281 0.985 . S
N269 C271 1.356 . S
N269 H274 0.984 . S
N269 H275 0.985 . S
C270 C264 1.379 . S
C270 C267 1.363 . S
C270 N268 1.356 . S
C271 C265 1.363 . S
C271 C266 1.379 . S
C271 N269 1.356 . S
N272 C264 1.356 . S
N272 H278 0.984 . S
N272 H279 0.984 . S
N273 C266 1.356 . S
N273 H276 0.984 . S
N273 H277 0.985 . S
H274 N269 0.984 . S
H275 N269 0.985 . S
H276 N273 0.984 . S
H277 N273 0.985 . S
H278 N272 0.984 . S
H279 N272 0.984 . S
H280 N268 0.984 . S
H281 N268 0.985 . S
C282 C283 1.363 . S
C282 C288 1.379 . S
C282 N290 1.356 . S
C283 C282 1.363 . S
C283 C289 1.363 . S
C284 C285 1.363 . S
C284 C289 1.379 . S
C284 N291 1.356 . S
C285 C284 1.363 . S
C285 C288 1.363 . S
N286 C288 1.356 . S
N286 H298 0.984 . S
N286 H299 0.985 . S
N287 C289 1.356 . S
N287 H292 0.984 . S
N287 H293 0.985 . S
C288 C282 1.379 . S
C288 C285 1.363 . S
C288 N286 1.356 . S
C289 C283 1.363 . S
C289 C284 1.379 . S
C289 N287 1.356 . S
N290 C282 1.356 . S
N290 H296 0.984 . S
N290 H297 0.984 . S
N291 C284 1.356 . S
N291 H294 0.984 . S
N291 H295 0.985 . S
H292 N287 0.984 . S
H293 N287 0.985 . S
H294 N291 0.984 . S
H295 N291 0.985 . S
H296 N290 0.984 . S
H297 N290 0.984 . S
H298 N286 0.984 . S
H299 N286 0.985 . S
C300 C301 1.363 . S
C300 C306 1.379 . S
C300 N308 1.356 . S
C301 C300 1.363 . S
C301 C307 1.363 . S
C302 C303 1.363 . S
C302 C307 1.379 . S
C302 N309 1.356 . S
C303 C302 1.363 . S
C303 C306 1.363 . S
N304 C306 1.356 . S
N304 H316 0.984 . S
N304 H317 0.985 . S
N305 C307 1.356 . S
N305 H310 0.984 . S
N305 H311 0.985 . S
C306 C300 1.379 . S
C306 C303 1.363 . S
C306 N304 1.356 . S
C307 C301 1.363 . S
C307 C302 1.379 . S
C307 N305 1.356 . S
N308 C300 1.356 . S
N308 H314 0.984 . S
N308 H315 0.984 . S
N309 C302 1.356 . S
N309 H312 0.984 . S
N309 H313 0.985 . S
H310 N305 0.984 . S
H311 N305 0.985 . S
H312 N309 0.984 . S
H313 N309 0.985 . S
H314 N308 0.984 . S
H315 N308 0.984 . S
H316 N304 0.984 . S
H317 N304 0.985 . S
C318 C319 1.363 . S
C318 C324 1.379 . S
C318 N326 1.356 . S
C319 C318 1.363 . S
C319 C325 1.363 . S
C320 C321 1.363 . S
C320 C325 1.379 . S
C320 N327 1.356 . S
C321 C320 1.363 . S
C321 C324 1.363 . S
N322 C324 1.356 . S
N322 H334 0.984 . S
N322 H335 0.985 . S
N323 C325 1.356 . S
N323 H328 0.984 . S
N323 H329 0.985 . S
C324 C318 1.379 . S
C324 C321 1.363 . S
C324 N322 1.356 . S
C325 C319 1.363 . S
C325 C320 1.379 . S
C325 N323 1.356 . S
N326 C318 1.356 . S
N326 H332 0.984 . S
N326 H333 0.984 . S
N327 C320 1.356 . S
N327 H330 0.984 . S
N327 H331 0.985 . S
H328 N323 0.984 . S
H329 N323 0.985 . S
H330 N327 0.984 . S
H331 N327 0.985 . S
H332 N326 0.984 . S
H333 N326 0.984 . S
H334 N322 0.984 . S
H335 N322 0.985 . S
C336 C337 1.363 . S
C336 C342 1.379 . S
C336 N344 1.356 . S
C337 C336 1.363 . S
C337 C343 1.363 . S
C338 C339 1.363 . S
C338 C343 1.379 . S
C338 N345 1.356 . S
C339 C338 1.363 . S
C339 C342 1.363 . S
N340 C342 1.356 1_655 S
N340 H352 0.984 . S
N340 H353 0.985 . S
N341 C343 1.356 . S
N341 H346 0.984 . S
N341 H347 0.985 . S
C342 C336 1.379 . S
C342 C339 1.363 . S
C342 N340 1.356 1_455 S
C343 C337 1.363 . S
C343 C338 1.379 . S
C343 N341 1.356 . S
N344 C336 1.356 . S
N344 H350 0.984 1_455 S
N344 H351 0.984 . S
N345 C338 1.356 . S
N345 H348 0.984 . S
N345 H349 0.985 . S
H346 N341 0.984 . S
H347 N341 0.985 . S
H348 N345 0.984 . S
H349 N345 0.985 . S
H350 N344 0.984 1_655 S
H351 N344 0.984 . S
H352 N340 0.984 . S
H353 N340 0.985 . S
C354 C355 1.363 . S
C354 C360 1.379 . S
C354 N362 1.349 1_455 S
C355 C354 1.363 . S
C355 C361 1.363 . S
C356 C357 1.363 . S
C356 C361 1.379 . S
C356 N363 1.356 1_565 S
C357 C356 1.363 . S
C357 C360 1.363 . S
N358 C360 1.356 . S
N358 H370 0.984 . S
N358 H371 0.985 . S
N359 C361 1.356 . S
N359 H364 0.984 1_455 S
N359 H365 0.985 . S
C360 C354 1.379 . S
C360 C357 1.363 . S
C360 N358 1.356 . S
C361 C355 1.363 . S
C361 C356 1.379 . S
C361 N359 1.356 . S
N362 C354 1.349 1_655 S
N362 H368 0.979 1_655 S
N362 H369 0.997 . S
N363 C356 1.356 1_545 S
N363 H366 0.984 . S
N363 H367 0.985 . S
H364 N359 0.984 1_655 S
H365 N359 0.985 . S
H366 N363 0.984 . S
H367 N363 0.985 . S
H368 N362 0.979 1_455 S
H369 N362 0.997 . S
H370 N358 0.984 . S
H371 N358 0.985 . S
C372 C373 1.363 . S
C372 C378 1.379 . S
C372 N380 1.356 . S
C373 C372 1.363 . S
C373 C379 1.363 . S
C374 C375 1.363 . S
C374 C379 1.379 . S
C374 N381 1.356 . S
C375 C374 1.363 . S
C375 C378 1.363 . S
N376 C378 1.356 . S
N376 H388 0.984 . S
N376 H389 0.985 . S
N377 C379 1.347 1_545 S
N377 H382 0.992 . S
N377 H383 0.987 1_545 S
C378 C372 1.379 . S
C378 C375 1.363 . S
C378 N376 1.356 . S
C379 C373 1.363 . S
C379 C374 1.379 . S
C379 N377 1.347 1_565 S
N380 C372 1.356 . S
N380 H386 0.984 . S
N380 H387 0.984 1_565 S
N381 C374 1.356 . S
N381 H384 0.984 . S
N381 H385 0.985 . S
H382 N377 0.992 . S
H383 N377 0.987 1_565 S
H384 N381 0.984 . S
H385 N381 0.985 . S
H386 N380 0.984 . S
H387 N380 0.984 1_545 S
H388 N376 0.984 . S
H389 N376 0.985 . S
C390 C391 1.363 . S
C390 C396 1.379 . S
C390 N398 1.356 . S
C391 C390 1.363 . S
C391 C397 1.363 . S
C392 C393 1.363 . S
C392 C397 1.379 . S
C392 N399 1.356 . S
C393 C392 1.363 . S
C393 C396 1.363 . S
N394 C396 1.356 . S
N394 H406 0.984 . S
N394 H407 0.985 . S
N395 C397 1.356 . S
N395 H400 0.984 . S
N395 H401 0.985 . S
C396 C390 1.379 . S
C396 C393 1.363 . S
C396 N394 1.356 . S
C397 C391 1.363 . S
C397 C392 1.379 . S
C397 N395 1.356 . S
N398 C390 1.356 . S
N398 H404 0.984 . S
N398 H405 0.984 . S
N399 C392 1.356 . S
N399 H402 0.984 . S
N399 H403 0.985 . S
H400 N395 0.984 . S
H401 N395 0.985 . S
H402 N399 0.984 . S
H403 N399 0.985 . S
H404 N398 0.984 . S
H405 N398 0.984 . S
H406 N394 0.984 . S
H407 N394 0.985 . S
C408 C409 1.363 . S
C408 C414 1.379 1_455 S
C408 N416 1.356 . S
C409 C408 1.363 . S
C409 C415 1.363 . S
C410 C411 1.363 . S
C410 C415 1.379 1_655 S
C410 N417 1.356 . S
C411 C410 1.363 . S
C411 C414 1.363 . S
N412 C414 1.356 . S
N412 H424 0.984 . S
N412 H425 0.985 . S
N413 C415 1.356 . S
N413 H418 0.984 . S
N413 H419 0.985 . S
C414 C408 1.379 1_655 S
C414 C411 1.363 . S
C414 N412 1.356 . S
C415 C409 1.363 . S
C415 C410 1.379 1_455 S
C415 N413 1.356 . S
N416 C408 1.356 . S
N416 H422 0.984 . S
N416 H423 0.984 . S
N417 C410 1.356 . S
N417 H420 0.984 . S
N417 H421 0.985 . S
H418 N413 0.984 . S
H419 N413 0.985 . S
H420 N417 0.984 . S
H421 N417 0.985 . S
H422 N416 0.984 . S
H423 N416 0.984 . S
H424 N412 0.984 . S
H425 N412 0.985 . S
C426 C427 1.363 . S
C426 C432 1.379 1_545 S
C426 N434 1.356 . S
C427 C426 1.363 . S
C427 C433 1.363 . S
C428 C429 1.363 . S
C428 C433 1.379 1_565 S
C428 N435 1.356 . S
C429 C428 1.363 . S
C429 C432 1.363 . S
N430 C432 1.356 . S
N430 H442 0.984 . S
N430 H443 0.985 . S
N431 C433 1.356 . S
N431 H436 0.984 . S
N431 H437 0.985 . S
C432 C426 1.379 1_565 S
C432 C429 1.363 . S
C432 N430 1.356 . S
C433 C427 1.363 . S
C433 C428 1.379 1_545 S
C433 N431 1.356 . S
N434 C426 1.356 . S
N434 H440 0.984 . S
N434 H441 0.984 . S
N435 C428 1.356 . S
N435 H438 0.984 . S
N435 H439 0.985 . S
H436 N431 0.984 . S
H437 N431 0.985 . S
H438 N435 0.984 . S
H439 N435 0.985 . S
H440 N434 0.984 . S
H441 N434 0.984 . S
H442 N430 0.984 . S
H443 N430 0.985 . S
C121 C88 1.909 . S
C123 C9 2.222 . S
C139 C109 2.218 . S
C141 C28 1.934 . S
C157 C49 2.222 . S
C159 C68 1.909 . S
C175 C8 1.934 . S
C177 C89 2.218 . S
C193 C108 1.909 . S
C195 C29 2.222 . S
C211 C48 1.934 . S
C213 C69 2.218 . S
C229 C2 1.759 . S
C231 C58 1.681 . S
C247 C22 1.759 . S
C249 C18 1.681 . S
C265 C42 1.759 . S
C267 C38 1.681 . S
C283 C79 1.719 . S
C285 C81 1.614 . S
C301 C99 1.719 . S
C303 C101 1.614 . S
C319 C61 1.614 . S
C321 C119 1.719 . S
C337 C1 1.169 . S
C339 C59 1.254 . S
C355 C21 1.169 1_455 S
C357 C19 1.254 . S
C373 C41 1.169 1_565 S
C375 C39 1.254 . S
C391 C78 1.223 . S
C393 C82 1.286 . S
C409 C98 1.223 . S
C411 C102 1.286 . S
C427 C62 1.286 . S
C429 C118 1.223 . S
