# Generated by pormake.
# Topology dia, (4)-cn, num edge types: 1
# Building blocks:
#     Node 0, Type 0, BuildingBlock: GALJAG_clean_sbu_0, # of connection points: 4
#     Node 1, Type 0, BuildingBlock: GALJAG_clean_sbu_0, # of connection points: 4
#     Node 2, Type 0, BuildingBlock: GALJAG_clean_sbu_0, # of connection points: 4
#     Node 3, Type 0, BuildingBlock: GALJAG_clean_sbu_0, # of connection points: 4
#     Node 4, Type 0, BuildingBlock: GALJAG_clean_sbu_0, # of connection points: 4
#     Node 5, Type 0, BuildingBlock: GALJAG_clean_sbu_0, # of connection points: 4
#     Node 6, Type 0, BuildingBlock: GALJAG_clean_sbu_0, # of connection points: 4
#     Node 7, Type 0, BuildingBlock: GALJAG_clean_sbu_0, # of connection points: 4
#     Edge 8, Type (0, 0), BuildingBlock: OJICUG_clean_linker_0, # of connection points: 2
#     Edge 9, Type (0, 0), BuildingBlock: OJICUG_clean_linker_0, # of connection points: 2
#     Edge 10, Type (0, 0), BuildingBlock: OJICUG_clean_linker_0, # of connection points: 2
#     Edge 11, Type (0, 0), BuildingBlock: OJICUG_clean_linker_0, # of connection points: 2
#     Edge 12, Type (0, 0), BuildingBlock: OJICUG_clean_linker_0, # of connection points: 2
#     Edge 13, Type (0, 0), BuildingBlock: OJICUG_clean_linker_0, # of connection points: 2
#     Edge 14, Type (0, 0), BuildingBlock: OJICUG_clean_linker_0, # of connection points: 2
#     Edge 15, Type (0, 0), BuildingBlock: OJICUG_clean_linker_0, # of connection points: 2
#     Edge 16, Type (0, 0), BuildingBlock: OJICUG_clean_linker_0, # of connection points: 2
#     Edge 17, Type (0, 0), BuildingBlock: OJICUG_clean_linker_0, # of connection points: 2
#     Edge 18, Type (0, 0), BuildingBlock: OJICUG_clean_linker_0, # of connection points: 2
#     Edge 19, Type (0, 0), BuildingBlock: OJICUG_clean_linker_0, # of connection points: 2
#     Edge 20, Type (0, 0), BuildingBlock: OJICUG_clean_linker_0, # of connection points: 2
#     Edge 21, Type (0, 0), BuildingBlock: OJICUG_clean_linker_0, # of connection points: 2
#     Edge 22, Type (0, 0), BuildingBlock: OJICUG_clean_linker_0, # of connection points: 2
#     Edge 23, Type (0, 0), BuildingBlock: OJICUG_clean_linker_0, # of connection points: 2
# Relax obj value: 0.058
# Max RMSD: 0.096
# Mean RMSD: 0.096
data_MOF--net-dia--node1-GALJAG_clean_sbu_0--edge1-OJICUG_clean_linker_0
_symmetry_space_group_name_H-M    P1
_symmetry_Int_Tables_number       1
_symmetry_cell_setting            triclinic
loop_
_symmetry_equiv_pos_as_xyz
'x, y, z'
_cell_length_a     16.869675
_cell_length_b     29.210467
_cell_length_c     29.18577
_cell_angle_alpha  89.997962
_cell_angle_beta   90.234737
_cell_angle_gamma 90.254077
loop_
_atom_site_label
_atom_site_type_symbol
_atom_site_fract_x
_atom_site_fract_y
_atom_site_fract_z
_atom_type_partial_charge
In0 In 0.11818 0.12308 0.62383 0.0
O1 O 0.22307 0.15846 0.58909 0.0
O2 O 0.10611 0.17784 0.56943 0.0
C3 C 0.18032 0.06284 0.68351 0.0
C4 C 0.05608 0.18259 0.68396 0.0
C5 C 0.0559 0.06323 0.56352 0.0
O6 O 0.22345 0.08831 0.65878 0.0
O7 O 0.1067 0.06801 0.67796 0.0
O8 O 0.01291 0.08784 0.58896 0.0
O9 O 0.12955 0.06902 0.5687 0.0
C10 C 0.17968 0.18347 0.56407 0.0
O11 O 0.01302 0.15767 0.65845 0.0
O12 O 0.12972 0.17726 0.67897 0.0
In13 In 0.86688 0.37235 0.87294 0.0
O14 O 0.97227 0.33743 0.83881 0.0
O15 O 0.85565 0.31782 0.81816 0.0
C16 C 0.92836 0.43256 0.93316 0.0
C17 C 0.80533 0.43232 0.8128 0.0
C18 C 0.80436 0.31245 0.93284 0.0
O19 O 0.97174 0.40778 0.90811 0.0
O20 O 0.85479 0.42676 0.92763 0.0
O21 O 0.76143 0.33723 0.90732 0.0
O22 O 0.87803 0.31804 0.92788 0.0
C23 C 0.9293 0.31239 0.81337 0.0
O24 O 0.76202 0.40708 0.83765 0.0
O25 O 0.87892 0.42704 0.81841 0.0
In26 In 0.61507 0.12407 0.12409 0.0
O27 O 0.50985 0.15868 0.15872 0.0
O28 O 0.6266 0.1791 0.17833 0.0
C29 C 0.55348 0.06362 0.06415 0.0
C30 C 0.67734 0.18367 0.06381 0.0
C31 C 0.67712 0.06444 0.1844 0.0
O32 O 0.51012 0.08884 0.08877 0.0
O33 O 0.62705 0.0691 0.06998 0.0
O34 O 0.72021 0.08961 0.15936 0.0
O35 O 0.60348 0.06961 0.17888 0.0
C36 C 0.55297 0.18414 0.18366 0.0
O37 O 0.72034 0.15901 0.08939 0.0
O38 O 0.60368 0.17813 0.06889 0.0
In39 In 0.86608 0.8734 0.37304 0.0
O40 O 0.76069 0.90831 0.33839 0.0
O41 O 0.87734 0.92838 0.31878 0.0
C42 C 0.80455 0.81325 0.43303 0.0
C43 C 0.92746 0.81371 0.31284 0.0
C44 C 0.92878 0.93328 0.43317 0.0
O45 O 0.76121 0.83825 0.40797 0.0
O46 O 0.87813 0.81874 0.42756 0.0
O47 O 0.97165 0.90861 0.40772 0.0
O48 O 0.85511 0.92753 0.42809 0.0
C49 C 0.80368 0.93368 0.31349 0.0
O50 O 0.97082 0.83858 0.33822 0.0
O51 O 0.85388 0.81916 0.31799 0.0
In52 In 0.11475 0.62356 0.12361 0.0
O53 O 0.22019 0.65863 0.08921 0.0
O54 O 0.10363 0.67791 0.06868 0.0
C55 C 0.17658 0.56369 0.18376 0.0
C56 C 0.05278 0.6836 0.18326 0.0
C57 C 0.05311 0.56332 0.06347 0.0
O58 O 0.21975 0.58885 0.15875 0.0
O59 O 0.10296 0.56897 0.17827 0.0
O60 O 0.00978 0.58812 0.08853 0.0
O61 O 0.12669 0.56913 0.06894 0.0
C62 C 0.17731 0.68347 0.06373 0.0
O63 O 0.00959 0.6586 0.15789 0.0
O64 O 0.12638 0.67809 0.17833 0.0
In65 In 0.36545 0.37366 0.37344 0.0
O66 O 0.47037 0.33921 0.33843 0.0
O67 O 0.35352 0.3189 0.31891 0.0
C68 C 0.428 0.43378 0.43339 0.0
C69 C 0.30297 0.43351 0.3135 0.0
C70 C 0.30416 0.31362 0.43363 0.0
O71 O 0.4709 0.40878 0.4083 0.0
O72 O 0.35432 0.42827 0.42803 0.0
O73 O 0.26071 0.33849 0.4085 0.0
O74 O 0.37772 0.31922 0.42817 0.0
C75 C 0.42712 0.31388 0.31343 0.0
O76 O 0.25999 0.4083 0.33857 0.0
O77 O 0.37662 0.42829 0.31885 0.0
In78 In 0.36754 0.87262 0.87355 0.0
O79 O 0.47294 0.83805 0.83905 0.0
O80 O 0.35629 0.81775 0.81914 0.0
C81 C 0.4289 0.93287 0.93378 0.0
C82 C 0.30597 0.93238 0.8132 0.0
C83 C 0.30487 0.81282 0.93351 0.0
O84 O 0.47233 0.9077 0.90914 0.0
O85 O 0.35534 0.92743 0.92784 0.0
O86 O 0.26202 0.83763 0.90798 0.0
O87 O 0.37856 0.81835 0.92855 0.0
C88 C 0.42994 0.81269 0.81395 0.0
O89 O 0.26267 0.90711 0.83804 0.0
O90 O 0.37956 0.92726 0.81897 0.0
In91 In 0.61789 0.62359 0.62388 0.0
O92 O 0.51297 0.65804 0.65887 0.0
O93 O 0.6298 0.67817 0.67863 0.0
C94 C 0.55529 0.56375 0.56367 0.0
C95 C 0.67956 0.68367 0.56387 0.0
C96 C 0.67989 0.56338 0.68363 0.0
O97 O 0.5124 0.58871 0.58881 0.0
O98 O 0.62897 0.56918 0.5691 0.0
O99 O 0.72307 0.5887 0.65878 0.0
O100 O 0.60628 0.5687 0.67819 0.0
C101 C 0.55619 0.68324 0.68401 0.0
O102 O 0.72287 0.65869 0.58897 0.0
O103 O 0.60598 0.67819 0.5693 0.0
C104 C 0.32377 0.2538 0.49384 0.0
C105 C 0.27211 0.28042 0.467 0.0
H106 H 0.33509 0.20222 0.54564 0.0
C107 C 0.19 0.27496 0.47241 0.0
H108 H 0.38743 0.25728 0.49042 0.0
C109 C 0.16012 0.24345 0.50403 0.0
C110 C 0.21178 0.21679 0.53084 0.0
H111 H 0.14879 0.295 0.45222 0.0
H112 H 0.09646 0.23996 0.50743 0.0
C113 C 0.2939 0.22228 0.52546 0.0
C114 C 0.79442 0.52454 0.72187 0.0
C115 C 0.71226 0.5299 0.7166 0.0
H116 H 0.88822 0.48938 0.75648 0.0
C117 C 0.6608 0.50285 0.74316 0.0
H118 H 0.83546 0.54489 0.70187 0.0
C119 C 0.69091 0.47106 0.77442 0.0
C120 C 0.77306 0.46572 0.77971 0.0
H121 H 0.59711 0.50622 0.73984 0.0
H122 H 0.64985 0.45073 0.79443 0.0
C123 C 0.82453 0.49275 0.75313 0.0
C124 C 0.57298 0.00308 0.00478 0.0
C125 C 0.52135 0.03018 0.0309 0.0
H126 H 0.58427 0.95101 0.95354 0.0
C127 C 0.43924 0.02499 0.02485 0.0
H128 H 0.63664 0.00631 0.00871 0.0
C129 C 0.40934 0.99331 0.99326 0.0
C130 C 0.46098 0.96623 0.96712 0.0
H131 H 0.39806 0.0454 0.04449 0.0
H132 H 0.34568 0.99008 0.98931 0.0
C133 C 0.54309 0.9714 0.97319 0.0
C134 C 0.04182 0.7749 0.27502 0.0
C135 C 0.95968 0.78055 0.27964 0.0
H136 H 0.13557 0.73973 0.24086 0.0
C137 C 0.90819 0.7541 0.25226 0.0
H138 H 0.08289 0.79478 0.29565 0.0
C139 C 0.93828 0.72256 0.22088 0.0
C140 C 0.02043 0.71688 0.21629 0.0
H141 H 0.84452 0.75773 0.25506 0.0
H142 H 0.89723 0.70265 0.20025 0.0
C143 C 0.0719 0.74336 0.24364 0.0
C144 C 0.32509 0.99289 0.75362 0.0
C145 C 0.27367 0.9656 0.77995 0.0
H146 H 0.33594 0.04511 0.70242 0.0
C147 C 0.19151 0.97049 0.77424 0.0
H148 H 0.38878 0.98988 0.75729 0.0
C149 C 0.16135 0.00211 0.74284 0.0
C150 C 0.21276 0.02945 0.71654 0.0
H151 H 0.15048 0.94993 0.79404 0.0
H152 H 0.09765 0.00513 0.7392 0.0
C153 C 0.29493 0.02452 0.72221 0.0
C154 C 0.90889 0.4922 0.99346 0.0
C155 C 0.96049 0.46595 0.96646 0.0
H156 H 0.89768 0.54362 0.04536 0.0
C157 C 0.04261 0.47198 0.97163 0.0
H158 H 0.84522 0.48828 0.99023 0.0
C159 C 0.07255 0.50368 0.00319 0.0
C160 C 0.02094 0.52993 0.03018 0.0
H161 H 0.08376 0.45225 0.95129 0.0
H162 H 0.13621 0.50759 0.00641 0.0
C163 C 0.93883 0.52389 0.02502 0.0
C164 C 0.40811 0.25345 0.25366 0.0
C165 C 0.45949 0.28078 0.28023 0.0
H166 H 0.39735 0.20141 0.20224 0.0
C167 C 0.54165 0.27612 0.27473 0.0
H168 H 0.34442 0.2563 0.25716 0.0
C169 C 0.57187 0.2447 0.24328 0.0
C170 C 0.5205 0.21734 0.21673 0.0
H171 H 0.58264 0.29672 0.29471 0.0
H172 H 0.63556 0.24185 0.2398 0.0
C173 C 0.43833 0.22203 0.22221 0.0
C174 C 0.82392 0.75334 0.49318 0.0
C175 C 0.77237 0.7801 0.4664 0.0
H176 H 0.83504 0.70183 0.54505 0.0
C177 C 0.69024 0.77489 0.47196 0.0
H178 H 0.88759 0.75662 0.48965 0.0
C179 C 0.66023 0.74353 0.50369 0.0
C180 C 0.71179 0.71679 0.53047 0.0
H181 H 0.64911 0.79504 0.45182 0.0
H182 H 0.59656 0.74027 0.50722 0.0
C183 C 0.79392 0.72198 0.52491 0.0
C184 C 0.15779 0.50355 0.24377 0.0
C185 C 0.20906 0.53046 0.21694 0.0
H186 H 0.14724 0.45174 0.29539 0.0
C187 C 0.29125 0.52521 0.22213 0.0
H188 H 0.09408 0.50686 0.24051 0.0
C189 C 0.32159 0.49365 0.25354 0.0
C190 C 0.27034 0.46674 0.28036 0.0
H191 H 0.33216 0.54545 0.20193 0.0
H192 H 0.3853 0.49036 0.25678 0.0
C193 C 0.18814 0.47199 0.27519 0.0
C194 C 0.68939 0.27402 0.97108 0.0
C195 C 0.77162 0.27947 0.9662 0.0
H196 H 0.59516 0.23939 0.00586 0.0
C197 C 0.82275 0.25313 0.99365 0.0
H198 H 0.64859 0.29385 0.9504 0.0
C199 C 0.79224 0.22197 0.02541 0.0
C200 C 0.71002 0.21654 0.03032 0.0
H201 H 0.88647 0.2566 0.99065 0.0
H202 H 0.83305 0.20216 0.0461 0.0
C203 C 0.65889 0.24285 0.00285 0.0
C204 C 0.82227 0.99425 0.25395 0.0
C205 C 0.77104 0.96716 0.28061 0.0
H206 H 0.83276 0.04632 0.2026 0.0
C207 C 0.68884 0.97243 0.27549 0.0
H208 H 0.88598 0.99096 0.25716 0.0
C209 C 0.65845 0.00415 0.24425 0.0
C210 C 0.70968 0.03119 0.21754 0.0
H211 H 0.64797 0.95204 0.29558 0.0
H212 H 0.59473 0.00742 0.24101 0.0
C213 C 0.79188 0.02596 0.22271 0.0
C214 C 0.91048 0.99256 0.49393 0.0
C215 C 0.96157 0.96647 0.46646 0.0
H216 H 0.90022 0.04365 0.5462 0.0
C217 C 0.04378 0.97248 0.47114 0.0
H218 H 0.84676 0.98866 0.49107 0.0
C219 C 0.07431 0.00398 0.50272 0.0
C220 C 0.02321 0.03006 0.53019 0.0
H221 H 0.08455 0.95287 0.45043 0.0
H222 H 0.13803 0.00788 0.50558 0.0
C223 C 0.941 0.02405 0.52549 0.0
C224 C 0.04419 0.27363 0.77597 0.0
C225 C 0.96199 0.27917 0.78038 0.0
H226 H 0.13835 0.23864 0.74196 0.0
C227 C 0.91082 0.25262 0.75291 0.0
H228 H 0.08502 0.29359 0.79669 0.0
C229 C 0.94127 0.22116 0.72158 0.0
C230 C 0.02347 0.21565 0.71712 0.0
H231 H 0.84711 0.25615 0.75556 0.0
H232 H 0.90043 0.20122 0.70084 0.0
C233 C 0.07464 0.24216 0.74463 0.0
C234 C 0.44157 0.72096 0.72266 0.0
C235 C 0.52375 0.71627 0.71727 0.0
H236 H 0.34755 0.75518 0.75753 0.0
C237 C 0.57505 0.74349 0.744 0.0
H238 H 0.40063 0.70044 0.70255 0.0
C239 C 0.54473 0.77484 0.7755 0.0
C240 C 0.46253 0.77956 0.78085 0.0
H241 H 0.63875 0.74062 0.74059 0.0
H242 H 0.58564 0.79538 0.79559 0.0
C243 C 0.41126 0.75231 0.75414 0.0
C244 C 0.15912 0.74295 0.00304 0.0
C245 C 0.21014 0.71655 0.0305 0.0
H246 H 0.14905 0.79415 0.95079 0.0
C247 C 0.29239 0.72207 0.0258 0.0
H248 H 0.09538 0.73943 0.0059 0.0
C249 C 0.32302 0.75339 0.99424 0.0
C250 C 0.27201 0.77979 0.96677 0.0
H251 H 0.3331 0.7022 0.04649 0.0
H252 H 0.38676 0.75691 0.99138 0.0
C253 C 0.18976 0.77428 0.97148 0.0
C254 C 0.4097 0.49372 0.49352 0.0
C255 C 0.46078 0.46703 0.46662 0.0
H256 H 0.39951 0.54528 0.54535 0.0
C257 C 0.54301 0.47244 0.47186 0.0
H258 H 0.34596 0.49029 0.49023 0.0
C259 C 0.57358 0.50393 0.50343 0.0
C260 C 0.5225 0.5306 0.53035 0.0
H261 H 0.58377 0.45236 0.45161 0.0
H262 H 0.63731 0.50735 0.50673 0.0
C263 C 0.44027 0.52521 0.52509 0.0
loop_
_geom_bond_atom_site_label_1
_geom_bond_atom_site_label_2
_geom_bond_distance
_geom_bond_site_symmetry_2
_ccdc_geom_bond_type
In0 O1 2.294 . S
In0 O2 2.326 . S
In0 O6 2.266 . S
In0 O7 2.326 . S
In0 O8 2.266 . S
In0 O9 2.326 . S
In0 O11 2.294 . S
In0 O12 2.326 . S
O1 In0 2.294 . S
O1 C10 1.240 . S
O2 In0 2.326 . S
O2 C10 1.252 . S
C3 O6 1.252 . S
C3 O7 1.260 . S
C4 O11 1.240 . S
C4 O12 1.252 . S
C5 O8 1.252 . S
C5 O9 1.260 . S
O6 In0 2.266 . S
O6 C3 1.252 . S
O7 In0 2.326 . S
O7 C3 1.260 . S
O8 In0 2.266 . S
O8 C5 1.252 . S
O9 In0 2.326 . S
O9 C5 1.260 . S
C10 O1 1.240 . S
C10 O2 1.252 . S
O11 In0 2.294 . S
O11 C4 1.240 . S
O12 In0 2.326 . S
O12 C4 1.252 . S
In13 O14 2.294 . S
In13 O15 2.326 . S
In13 O19 2.266 . S
In13 O20 2.326 . S
In13 O21 2.266 . S
In13 O22 2.326 . S
In13 O24 2.294 . S
In13 O25 2.326 . S
O14 In13 2.294 . S
O14 C23 1.240 . S
O15 In13 2.326 . S
O15 C23 1.252 . S
C16 O19 1.252 . S
C16 O20 1.260 . S
C17 O24 1.240 . S
C17 O25 1.252 . S
C18 O21 1.252 . S
C18 O22 1.260 . S
O19 In13 2.266 . S
O19 C16 1.252 . S
O20 In13 2.326 . S
O20 C16 1.260 . S
O21 In13 2.266 . S
O21 C18 1.252 . S
O22 In13 2.326 . S
O22 C18 1.260 . S
C23 O14 1.240 . S
C23 O15 1.252 . S
O24 In13 2.294 . S
O24 C17 1.240 . S
O25 In13 2.326 . S
O25 C17 1.252 . S
In26 O27 2.294 . S
In26 O28 2.326 . S
In26 O32 2.266 . S
In26 O33 2.326 . S
In26 O34 2.266 . S
In26 O35 2.326 . S
In26 O37 2.294 . S
In26 O38 2.326 . S
O27 In26 2.294 . S
O27 C36 1.240 . S
O28 In26 2.326 . S
O28 C36 1.252 . S
C29 O32 1.252 . S
C29 O33 1.260 . S
C30 O37 1.240 . S
C30 O38 1.252 . S
C31 O34 1.252 . S
C31 O35 1.260 . S
O32 In26 2.266 . S
O32 C29 1.252 . S
O33 In26 2.326 . S
O33 C29 1.260 . S
O34 In26 2.266 . S
O34 C31 1.252 . S
O35 In26 2.326 . S
O35 C31 1.260 . S
C36 O27 1.240 . S
C36 O28 1.252 . S
O37 In26 2.294 . S
O37 C30 1.240 . S
O38 In26 2.326 . S
O38 C30 1.252 . S
In39 O40 2.294 . S
In39 O41 2.326 . S
In39 O45 2.266 . S
In39 O46 2.326 . S
In39 O47 2.266 . S
In39 O48 2.326 . S
In39 O50 2.294 . S
In39 O51 2.326 . S
O40 In39 2.294 . S
O40 C49 1.240 . S
O41 In39 2.326 . S
O41 C49 1.252 . S
C42 O45 1.252 . S
C42 O46 1.260 . S
C43 O50 1.240 . S
C43 O51 1.252 . S
C44 O47 1.252 . S
C44 O48 1.260 . S
O45 In39 2.266 . S
O45 C42 1.252 . S
O46 In39 2.326 . S
O46 C42 1.260 . S
O47 In39 2.266 . S
O47 C44 1.252 . S
O48 In39 2.326 . S
O48 C44 1.260 . S
C49 O40 1.240 . S
C49 O41 1.252 . S
O50 In39 2.294 . S
O50 C43 1.240 . S
O51 In39 2.326 . S
O51 C43 1.252 . S
In52 O53 2.294 . S
In52 O54 2.326 . S
In52 O58 2.266 . S
In52 O59 2.326 . S
In52 O60 2.266 . S
In52 O61 2.326 . S
In52 O63 2.294 . S
In52 O64 2.326 . S
O53 In52 2.294 . S
O53 C62 1.240 . S
O54 In52 2.326 . S
O54 C62 1.252 . S
C55 O58 1.252 . S
C55 O59 1.260 . S
C56 O63 1.240 . S
C56 O64 1.252 . S
C57 O60 1.252 . S
C57 O61 1.260 . S
O58 In52 2.266 . S
O58 C55 1.252 . S
O59 In52 2.326 . S
O59 C55 1.260 . S
O60 In52 2.266 . S
O60 C57 1.252 . S
O61 In52 2.326 . S
O61 C57 1.260 . S
C62 O53 1.240 . S
C62 O54 1.252 . S
O63 In52 2.294 . S
O63 C56 1.240 . S
O64 In52 2.326 . S
O64 C56 1.252 . S
In65 O66 2.294 . S
In65 O67 2.326 . S
In65 O71 2.266 . S
In65 O72 2.326 . S
In65 O73 2.266 . S
In65 O74 2.326 . S
In65 O76 2.294 . S
In65 O77 2.326 . S
O66 In65 2.294 . S
O66 C75 1.240 . S
O67 In65 2.326 . S
O67 C75 1.252 . S
C68 O71 1.252 . S
C68 O72 1.260 . S
C69 O76 1.240 . S
C69 O77 1.252 . S
C70 O73 1.252 . S
C70 O74 1.260 . S
O71 In65 2.266 . S
O71 C68 1.252 . S
O72 In65 2.326 . S
O72 C68 1.260 . S
O73 In65 2.266 . S
O73 C70 1.252 . S
O74 In65 2.326 . S
O74 C70 1.260 . S
C75 O66 1.240 . S
C75 O67 1.252 . S
O76 In65 2.294 . S
O76 C69 1.240 . S
O77 In65 2.326 . S
O77 C69 1.252 . S
In78 O79 2.294 . S
In78 O80 2.326 . S
In78 O84 2.266 . S
In78 O85 2.326 . S
In78 O86 2.266 . S
In78 O87 2.326 . S
In78 O89 2.294 . S
In78 O90 2.326 . S
O79 In78 2.294 . S
O79 C88 1.240 . S
O80 In78 2.326 . S
O80 C88 1.252 . S
C81 O84 1.252 . S
C81 O85 1.260 . S
C82 O89 1.240 . S
C82 O90 1.252 . S
C83 O86 1.252 . S
C83 O87 1.260 . S
O84 In78 2.266 . S
O84 C81 1.252 . S
O85 In78 2.326 . S
O85 C81 1.260 . S
O86 In78 2.266 . S
O86 C83 1.252 . S
O87 In78 2.326 . S
O87 C83 1.260 . S
C88 O79 1.240 . S
C88 O80 1.252 . S
O89 In78 2.294 . S
O89 C82 1.240 . S
O90 In78 2.326 . S
O90 C82 1.252 . S
In91 O92 2.294 . S
In91 O93 2.326 . S
In91 O97 2.266 . S
In91 O98 2.326 . S
In91 O99 2.266 . S
In91 O100 2.326 . S
In91 O102 2.294 . S
In91 O103 2.326 . S
O92 In91 2.294 . S
O92 C101 1.240 . S
O93 In91 2.326 . S
O93 C101 1.252 . S
C94 O97 1.252 . S
C94 O98 1.260 . S
C95 O102 1.240 . S
C95 O103 1.252 . S
C96 O99 1.252 . S
C96 O100 1.260 . S
O97 In91 2.266 . S
O97 C94 1.252 . S
O98 In91 2.326 . S
O98 C94 1.260 . S
O99 In91 2.266 . S
O99 C96 1.252 . S
O100 In91 2.326 . S
O100 C96 1.260 . S
C101 O92 1.240 . S
C101 O93 1.252 . S
O102 In91 2.294 . S
O102 C95 1.240 . S
O103 In91 2.326 . S
O103 C95 1.252 . S
C104 C105 1.387 . S
C104 H108 0.950 . S
C104 C113 1.390 . S
C105 C104 1.387 . S
C105 C107 1.387 . S
H106 C113 0.950 . S
C107 C105 1.387 . S
C107 C109 1.390 . S
C107 H111 0.950 . S
H108 C104 0.950 . S
C109 C107 1.390 . S
C109 C110 1.387 . S
C109 H112 0.950 . S
C110 C109 1.387 . S
C110 C113 1.387 . S
H111 C107 0.950 . S
H112 C109 0.950 . S
C113 C104 1.390 . S
C113 H106 0.950 . S
C113 C110 1.387 . S
C114 C115 1.387 . S
C114 H118 0.950 . S
C114 C123 1.390 . S
C115 C114 1.387 . S
C115 C117 1.387 . S
H116 C123 0.950 . S
C117 C115 1.387 . S
C117 C119 1.390 . S
C117 H121 0.950 . S
H118 C114 0.950 . S
C119 C117 1.390 . S
C119 C120 1.387 . S
C119 H122 0.950 . S
C120 C119 1.387 . S
C120 C123 1.387 . S
H121 C117 0.950 . S
H122 C119 0.950 . S
C123 C114 1.390 . S
C123 H116 0.950 . S
C123 C120 1.387 . S
C124 C125 1.387 1_565 S
C124 H128 0.950 . S
C124 C133 1.390 1_554 S
C125 C124 1.387 1_545 S
C125 C127 1.387 . S
H126 C133 0.950 . S
C127 C125 1.387 . S
C127 C129 1.390 1_544 S
C127 H131 0.950 . S
H128 C124 0.950 . S
C129 C127 1.390 1_566 S
C129 C130 1.387 . S
C129 H132 0.950 . S
C130 C129 1.387 . S
C130 C133 1.387 . S
H131 C127 0.950 . S
H132 C129 0.950 . S
C133 C124 1.390 1_556 S
C133 H126 0.950 . S
C133 C130 1.387 . S
C134 C135 1.387 1_455 S
C134 H138 0.950 . S
C134 C143 1.390 . S
C135 C134 1.387 1_655 S
C135 C137 1.387 . S
H136 C143 0.950 . S
C137 C135 1.387 . S
C137 C139 1.390 . S
C137 H141 0.950 . S
H138 C134 0.950 . S
C139 C137 1.390 . S
C139 C140 1.387 1_655 S
C139 H142 0.950 . S
C140 C139 1.387 1_455 S
C140 C143 1.387 . S
H141 C137 0.950 . S
H142 C139 0.950 . S
C143 C134 1.390 . S
C143 H136 0.950 . S
C143 C140 1.387 . S
C144 C145 1.387 1_545 S
C144 H148 0.950 . S
C144 C153 1.390 . S
C145 C144 1.387 1_565 S
C145 C147 1.387 . S
H146 C153 0.950 . S
C147 C145 1.387 . S
C147 C149 1.390 . S
C147 H151 0.950 . S
H148 C144 0.950 . S
C149 C147 1.390 . S
C149 C150 1.387 1_565 S
C149 H152 0.950 . S
C150 C149 1.387 1_545 S
C150 C153 1.387 . S
H151 C147 0.950 . S
H152 C149 0.950 . S
C153 C144 1.390 . S
C153 H146 0.950 . S
C153 C150 1.387 . S
C154 C155 1.387 1_554 S
C154 H158 0.950 . S
C154 C163 1.390 1_655 S
C155 C154 1.387 1_556 S
C155 C157 1.387 . S
H156 C163 0.950 . S
C157 C155 1.387 . S
C157 C159 1.390 1_655 S
C157 H161 0.950 . S
H158 C154 0.950 . S
C159 C157 1.390 1_455 S
C159 C160 1.387 1_556 S
C159 H162 0.950 . S
C160 C159 1.387 1_554 S
C160 C163 1.387 . S
H161 C157 0.950 . S
H162 C159 0.950 . S
C163 C154 1.390 1_455 S
C163 H156 0.950 . S
C163 C160 1.387 . S
C164 C165 1.387 . S
C164 H168 0.950 . S
C164 C173 1.390 . S
C165 C164 1.387 . S
C165 C167 1.387 . S
H166 C173 0.950 . S
C167 C165 1.387 . S
C167 C169 1.390 . S
C167 H171 0.950 . S
H168 C164 0.950 . S
C169 C167 1.390 . S
C169 C170 1.387 . S
C169 H172 0.950 . S
C170 C169 1.387 . S
C170 C173 1.387 . S
H171 C167 0.950 . S
H172 C169 0.950 . S
C173 C164 1.390 . S
C173 H166 0.950 . S
C173 C170 1.387 . S
C174 C175 1.387 . S
C174 H178 0.950 . S
C174 C183 1.390 . S
C175 C174 1.387 . S
C175 C177 1.387 . S
H176 C183 0.950 . S
C177 C175 1.387 . S
C177 C179 1.390 . S
C177 H181 0.950 . S
H178 C174 0.950 . S
C179 C177 1.390 . S
C179 C180 1.387 . S
C179 H182 0.950 . S
C180 C179 1.387 . S
C180 C183 1.387 . S
H181 C177 0.950 . S
H182 C179 0.950 . S
C183 C174 1.390 . S
C183 H176 0.950 . S
C183 C180 1.387 . S
C184 C185 1.387 . S
C184 H188 0.950 . S
C184 C193 1.390 . S
C185 C184 1.387 . S
C185 C187 1.387 . S
H186 C193 0.950 . S
C187 C185 1.387 . S
C187 C189 1.390 . S
C187 H191 0.950 . S
H188 C184 0.950 . S
C189 C187 1.390 . S
C189 C190 1.387 . S
C189 H192 0.950 . S
C190 C189 1.387 . S
C190 C193 1.387 . S
H191 C187 0.950 . S
H192 C189 0.950 . S
C193 C184 1.390 . S
C193 H186 0.950 . S
C193 C190 1.387 . S
C194 C195 1.387 . S
C194 H198 0.950 . S
C194 C203 1.390 1_556 S
C195 C194 1.387 . S
C195 C197 1.387 . S
H196 C203 0.950 . S
C197 C195 1.387 . S
C197 C199 1.390 1_556 S
C197 H201 0.950 . S
H198 C194 0.950 . S
C199 C197 1.390 1_554 S
C199 C200 1.387 . S
C199 H202 0.950 . S
C200 C199 1.387 . S
C200 C203 1.387 . S
H201 C197 0.950 . S
H202 C199 0.950 . S
C203 C194 1.390 1_554 S
C203 H196 0.950 . S
C203 C200 1.387 . S
C204 C205 1.387 . S
C204 H208 0.950 . S
C204 C213 1.390 . S
C205 C204 1.387 . S
C205 C207 1.387 . S
H206 C213 0.950 . S
C207 C205 1.387 . S
C207 C209 1.390 1_565 S
C207 H211 0.949 1_565 S
H208 C204 0.950 . S
C209 C207 1.390 1_545 S
C209 C210 1.387 . S
C209 H212 0.950 . S
C210 C209 1.387 . S
C210 C213 1.387 1_545 S
H211 C207 0.949 1_545 S
H212 C209 0.950 . S
C213 C204 1.390 . S
C213 H206 0.950 . S
C213 C210 1.387 1_565 S
C214 C215 1.387 . S
C214 H218 0.950 . S
C214 C223 1.390 . S
C215 C214 1.387 . S
C215 C217 1.382 1_665 S
H216 C223 0.950 . S
C217 C215 1.382 1_445 S
C217 C219 1.394 . S
C217 H221 0.951 . S
H218 C214 0.950 . S
C219 C217 1.394 . S
C219 C220 1.387 . S
C219 H222 0.950 . S
C220 C219 1.387 . S
C220 C223 1.387 1_445 S
H221 C217 0.951 . S
H222 C219 0.950 . S
C223 C214 1.390 . S
C223 H216 0.950 . S
C223 C220 1.387 1_665 S
C224 C225 1.387 1_455 S
C224 H228 0.950 . S
C224 C233 1.390 . S
C225 C224 1.387 1_655 S
C225 C227 1.387 . S
H226 C233 0.950 . S
C227 C225 1.387 . S
C227 C229 1.390 . S
C227 H231 0.950 . S
H228 C224 0.950 . S
C229 C227 1.390 . S
C229 C230 1.387 1_655 S
C229 H232 0.950 . S
C230 C229 1.387 1_455 S
C230 C233 1.387 . S
H231 C227 0.950 . S
H232 C229 0.950 . S
C233 C224 1.390 . S
C233 H226 0.950 . S
C233 C230 1.387 . S
C234 C235 1.387 . S
C234 H238 0.950 . S
C234 C243 1.390 . S
C235 C234 1.387 . S
C235 C237 1.387 . S
H236 C243 0.950 . S
C237 C235 1.387 . S
C237 C239 1.390 . S
C237 H241 0.950 . S
H238 C234 0.950 . S
C239 C237 1.390 . S
C239 C240 1.387 . S
C239 H242 0.950 . S
C240 C239 1.387 . S
C240 C243 1.387 . S
H241 C237 0.950 . S
H242 C239 0.950 . S
C243 C234 1.390 . S
C243 H236 0.950 . S
C243 C240 1.387 . S
C244 C245 1.387 1_556 S
C244 H248 0.950 . S
C244 C253 1.390 . S
C245 C244 1.387 1_554 S
C245 C247 1.387 . S
H246 C253 0.950 . S
C247 C245 1.387 . S
C247 C249 1.390 . S
C247 H251 0.950 . S
H248 C244 0.950 . S
C249 C247 1.390 . S
C249 C250 1.387 1_554 S
C249 H252 0.950 . S
C250 C249 1.387 1_556 S
C250 C253 1.387 . S
H251 C247 0.950 . S
H252 C249 0.950 . S
C253 C244 1.390 . S
C253 H246 0.950 . S
C253 C250 1.387 . S
C254 C255 1.387 . S
C254 H258 0.950 . S
C254 C263 1.390 . S
C255 C254 1.387 . S
C255 C257 1.387 . S
H256 C263 0.950 . S
C257 C255 1.387 . S
C257 C259 1.390 . S
C257 H261 0.950 . S
H258 C254 0.950 . S
C259 C257 1.390 . S
C259 C260 1.387 . S
C259 H262 0.950 . S
C260 C259 1.387 . S
C260 C263 1.387 . S
H261 C257 0.950 . S
H262 C259 0.950 . S
C263 C254 1.390 . S
C263 H256 0.950 . S
C263 C260 1.387 . S
C105 C70 1.514 . S
C110 C10 1.515 . S
C115 C96 1.514 . S
C120 C17 1.515 . S
C125 C29 1.515 . S
C130 C81 1.515 . S
C135 C43 1.514 . S
C140 C56 1.514 . S
C145 C82 1.515 . S
C150 C3 1.514 . S
C155 C16 1.515 . S
C160 C57 1.515 . S
C165 C75 1.514 . S
C170 C36 1.514 . S
C175 C42 1.514 . S
C180 C95 1.515 . S
C185 C55 1.514 . S
C190 C69 1.515 . S
C195 C18 1.514 . S
C200 C30 1.515 . S
C205 C49 1.515 . S
C210 C31 1.514 . S
C215 C44 1.515 . S
C220 C5 1.515 . S
C225 C23 1.514 . S
C230 C4 1.514 . S
C235 C101 1.514 . S
C240 C88 1.514 . S
C245 C62 1.515 . S
C250 C83 1.514 . S
C255 C68 1.515 . S
C260 C94 1.515 . S
