# Generated by pormake.
# Topology uos, (4)-cn, num edge types: 1
# Building blocks:
#     Node 0, Type 0, BuildingBlock: QUQFOY_clean_sbu_1, # of connection points: 4
#     Node 1, Type 0, BuildingBlock: QUQFOY_clean_sbu_1, # of connection points: 4
#     Node 2, Type 0, BuildingBlock: QUQFOY_clean_sbu_1, # of connection points: 4
#     Node 3, Type 0, BuildingBlock: QUQFOY_clean_sbu_1, # of connection points: 4
#     Node 4, Type 0, BuildingBlock: QUQFOY_clean_sbu_1, # of connection points: 4
#     Node 5, Type 0, BuildingBlock: QUQFOY_clean_sbu_1, # of connection points: 4
#     Node 6, Type 0, BuildingBlock: QUQFOY_clean_sbu_1, # of connection points: 4
#     Node 7, Type 0, BuildingBlock: QUQFOY_clean_sbu_1, # of connection points: 4
#     Node 8, Type 0, BuildingBlock: QUQFOY_clean_sbu_1, # of connection points: 4
#     Node 9, Type 0, BuildingBlock: QUQFOY_clean_sbu_1, # of connection points: 4
#     Node 10, Type 0, BuildingBlock: QUQFOY_clean_sbu_1, # of connection points: 4
#     Node 11, Type 0, BuildingBlock: QUQFOY_clean_sbu_1, # of connection points: 4
#     Node 12, Type 0, BuildingBlock: QUQFOY_clean_sbu_1, # of connection points: 4
#     Node 13, Type 0, BuildingBlock: QUQFOY_clean_sbu_1, # of connection points: 4
#     Node 14, Type 0, BuildingBlock: QUQFOY_clean_sbu_1, # of connection points: 4
#     Node 15, Type 0, BuildingBlock: QUQFOY_clean_sbu_1, # of connection points: 4
#     Node 16, Type 0, BuildingBlock: QUQFOY_clean_sbu_1, # of connection points: 4
#     Node 17, Type 0, BuildingBlock: QUQFOY_clean_sbu_1, # of connection points: 4
#     Node 18, Type 0, BuildingBlock: QUQFOY_clean_sbu_1, # of connection points: 4
#     Node 19, Type 0, BuildingBlock: QUQFOY_clean_sbu_1, # of connection points: 4
#     Node 20, Type 0, BuildingBlock: QUQFOY_clean_sbu_1, # of connection points: 4
#     Node 21, Type 0, BuildingBlock: QUQFOY_clean_sbu_1, # of connection points: 4
#     Node 22, Type 0, BuildingBlock: QUQFOY_clean_sbu_1, # of connection points: 4
#     Node 23, Type 0, BuildingBlock: QUQFOY_clean_sbu_1, # of connection points: 4
#     Node 24, Type 0, BuildingBlock: QUQFOY_clean_sbu_1, # of connection points: 4
#     Node 25, Type 0, BuildingBlock: QUQFOY_clean_sbu_1, # of connection points: 4
#     Node 26, Type 0, BuildingBlock: QUQFOY_clean_sbu_1, # of connection points: 4
#     Node 27, Type 0, BuildingBlock: QUQFOY_clean_sbu_1, # of connection points: 4
#     Node 28, Type 0, BuildingBlock: QUQFOY_clean_sbu_1, # of connection points: 4
#     Node 29, Type 0, BuildingBlock: QUQFOY_clean_sbu_1, # of connection points: 4
#     Node 30, Type 0, BuildingBlock: QUQFOY_clean_sbu_1, # of connection points: 4
#     Node 31, Type 0, BuildingBlock: QUQFOY_clean_sbu_1, # of connection points: 4
#     Edge 32, Type (0, 0), BuildingBlock: XIVTED_clean_linker_0, # of connection points: 2
#     Edge 33, Type (0, 0), BuildingBlock: XIVTED_clean_linker_0, # of connection points: 2
#     Edge 34, Type (0, 0), BuildingBlock: XIVTED_clean_linker_0, # of connection points: 2
#     Edge 35, Type (0, 0), BuildingBlock: XIVTED_clean_linker_0, # of connection points: 2
#     Edge 36, Type (0, 0), BuildingBlock: XIVTED_clean_linker_0, # of connection points: 2
#     Edge 37, Type (0, 0), BuildingBlock: XIVTED_clean_linker_0, # of connection points: 2
#     Edge 38, Type (0, 0), BuildingBlock: XIVTED_clean_linker_0, # of connection points: 2
#     Edge 39, Type (0, 0), BuildingBlock: XIVTED_clean_linker_0, # of connection points: 2
#     Edge 40, Type (0, 0), BuildingBlock: XIVTED_clean_linker_0, # of connection points: 2
#     Edge 41, Type (0, 0), BuildingBlock: XIVTED_clean_linker_0, # of connection points: 2
#     Edge 42, Type (0, 0), BuildingBlock: XIVTED_clean_linker_0, # of connection points: 2
#     Edge 43, Type (0, 0), BuildingBlock: XIVTED_clean_linker_0, # of connection points: 2
#     Edge 44, Type (0, 0), BuildingBlock: XIVTED_clean_linker_0, # of connection points: 2
#     Edge 45, Type (0, 0), BuildingBlock: XIVTED_clean_linker_0, # of connection points: 2
#     Edge 46, Type (0, 0), BuildingBlock: XIVTED_clean_linker_0, # of connection points: 2
#     Edge 47, Type (0, 0), BuildingBlock: XIVTED_clean_linker_0, # of connection points: 2
#     Edge 48, Type (0, 0), BuildingBlock: XIVTED_clean_linker_0, # of connection points: 2
#     Edge 49, Type (0, 0), BuildingBlock: XIVTED_clean_linker_0, # of connection points: 2
#     Edge 50, Type (0, 0), BuildingBlock: XIVTED_clean_linker_0, # of connection points: 2
#     Edge 51, Type (0, 0), BuildingBlock: XIVTED_clean_linker_0, # of connection points: 2
#     Edge 52, Type (0, 0), BuildingBlock: XIVTED_clean_linker_0, # of connection points: 2
#     Edge 53, Type (0, 0), BuildingBlock: XIVTED_clean_linker_0, # of connection points: 2
#     Edge 54, Type (0, 0), BuildingBlock: XIVTED_clean_linker_0, # of connection points: 2
#     Edge 55, Type (0, 0), BuildingBlock: XIVTED_clean_linker_0, # of connection points: 2
#     Edge 56, Type (0, 0), BuildingBlock: XIVTED_clean_linker_0, # of connection points: 2
#     Edge 57, Type (0, 0), BuildingBlock: XIVTED_clean_linker_0, # of connection points: 2
#     Edge 58, Type (0, 0), BuildingBlock: XIVTED_clean_linker_0, # of connection points: 2
#     Edge 59, Type (0, 0), BuildingBlock: XIVTED_clean_linker_0, # of connection points: 2
#     Edge 60, Type (0, 0), BuildingBlock: XIVTED_clean_linker_0, # of connection points: 2
#     Edge 61, Type (0, 0), BuildingBlock: XIVTED_clean_linker_0, # of connection points: 2
#     Edge 62, Type (0, 0), BuildingBlock: XIVTED_clean_linker_0, # of connection points: 2
#     Edge 63, Type (0, 0), BuildingBlock: XIVTED_clean_linker_0, # of connection points: 2
#     Edge 64, Type (0, 0), BuildingBlock: XIVTED_clean_linker_0, # of connection points: 2
#     Edge 65, Type (0, 0), BuildingBlock: XIVTED_clean_linker_0, # of connection points: 2
#     Edge 66, Type (0, 0), BuildingBlock: XIVTED_clean_linker_0, # of connection points: 2
#     Edge 67, Type (0, 0), BuildingBlock: XIVTED_clean_linker_0, # of connection points: 2
#     Edge 68, Type (0, 0), BuildingBlock: XIVTED_clean_linker_0, # of connection points: 2
#     Edge 69, Type (0, 0), BuildingBlock: XIVTED_clean_linker_0, # of connection points: 2
#     Edge 70, Type (0, 0), BuildingBlock: XIVTED_clean_linker_0, # of connection points: 2
#     Edge 71, Type (0, 0), BuildingBlock: XIVTED_clean_linker_0, # of connection points: 2
#     Edge 72, Type (0, 0), BuildingBlock: XIVTED_clean_linker_0, # of connection points: 2
#     Edge 73, Type (0, 0), BuildingBlock: XIVTED_clean_linker_0, # of connection points: 2
#     Edge 74, Type (0, 0), BuildingBlock: XIVTED_clean_linker_0, # of connection points: 2
#     Edge 75, Type (0, 0), BuildingBlock: XIVTED_clean_linker_0, # of connection points: 2
#     Edge 76, Type (0, 0), BuildingBlock: XIVTED_clean_linker_0, # of connection points: 2
#     Edge 77, Type (0, 0), BuildingBlock: XIVTED_clean_linker_0, # of connection points: 2
#     Edge 78, Type (0, 0), BuildingBlock: XIVTED_clean_linker_0, # of connection points: 2
#     Edge 79, Type (0, 0), BuildingBlock: XIVTED_clean_linker_0, # of connection points: 2
#     Edge 80, Type (0, 0), BuildingBlock: XIVTED_clean_linker_0, # of connection points: 2
#     Edge 81, Type (0, 0), BuildingBlock: XIVTED_clean_linker_0, # of connection points: 2
#     Edge 82, Type (0, 0), BuildingBlock: XIVTED_clean_linker_0, # of connection points: 2
#     Edge 83, Type (0, 0), BuildingBlock: XIVTED_clean_linker_0, # of connection points: 2
#     Edge 84, Type (0, 0), BuildingBlock: XIVTED_clean_linker_0, # of connection points: 2
#     Edge 85, Type (0, 0), BuildingBlock: XIVTED_clean_linker_0, # of connection points: 2
#     Edge 86, Type (0, 0), BuildingBlock: XIVTED_clean_linker_0, # of connection points: 2
#     Edge 87, Type (0, 0), BuildingBlock: XIVTED_clean_linker_0, # of connection points: 2
#     Edge 88, Type (0, 0), BuildingBlock: XIVTED_clean_linker_0, # of connection points: 2
#     Edge 89, Type (0, 0), BuildingBlock: XIVTED_clean_linker_0, # of connection points: 2
#     Edge 90, Type (0, 0), BuildingBlock: XIVTED_clean_linker_0, # of connection points: 2
#     Edge 91, Type (0, 0), BuildingBlock: XIVTED_clean_linker_0, # of connection points: 2
#     Edge 92, Type (0, 0), BuildingBlock: XIVTED_clean_linker_0, # of connection points: 2
#     Edge 93, Type (0, 0), BuildingBlock: XIVTED_clean_linker_0, # of connection points: 2
#     Edge 94, Type (0, 0), BuildingBlock: XIVTED_clean_linker_0, # of connection points: 2
#     Edge 95, Type (0, 0), BuildingBlock: XIVTED_clean_linker_0, # of connection points: 2
# Relax obj value: 0.057
# Max RMSD: 0.126
# Mean RMSD: 0.126
data_MOF--net-uos--node1-QUQFOY_clean_sbu_1--edge1-XIVTED_clean_linker_0
_symmetry_space_group_name_H-M    P1
_symmetry_Int_Tables_number       1
_symmetry_cell_setting            triclinic
loop_
_symmetry_equiv_pos_as_xyz
'x, y, z'
_cell_length_a     90.633953
_cell_length_b     90.631144
_cell_length_c     24.217741
_cell_angle_alpha  89.985162
_cell_angle_beta   90.014915
_cell_angle_gamma 90.051383
loop_
_atom_site_label
_atom_site_type_symbol
_atom_site_fract_x
_atom_site_fract_y
_atom_site_fract_z
_atom_type_partial_charge
O0 O 0.16094 0.13322 0.18259 0.0
Cd1 Cd 0.17198 0.14164 0.11522 0.0
Cd2 Cd 0.16457 0.16702 0.16592 0.0
O3 O 0.14904 0.15369 0.20233 0.0
O4 O 0.17252 0.12507 0.06129 0.0
O5 O 0.16003 0.14569 0.04679 0.0
C6 C 0.16358 0.13256 0.03077 0.0
C7 C 0.15807 0.1918 0.15208 0.0
C8 C 0.15107 0.13998 0.20978 0.0
C9 C 0.19626 0.15677 0.17021 0.0
O10 O 0.18599 0.1641 0.19294 0.0
O11 O 0.19345 0.14826 0.12983 0.0
O12 O 0.15958 0.18624 0.20056 0.0
O13 O 0.16 0.1832 0.11027 0.0
O14 O 0.11265 0.91346 0.43138 0.0
Cd15 Cd 0.10419 0.92379 0.36253 0.0
Cd16 Cd 0.07874 0.91533 0.40871 0.0
O17 O 0.09244 0.90085 0.44907 0.0
O18 O 0.12071 0.92437 0.30845 0.0
O19 O 0.10039 0.91122 0.29557 0.0
C20 C 0.11343 0.915 0.279 0.0
C21 C 0.05483 0.90687 0.38982 0.0
C22 C 0.10598 0.90344 0.45829 0.0
C23 C 0.08712 0.94759 0.41266 0.0
O24 O 0.07984 0.93707 0.43423 0.0
O25 O 0.09651 0.94499 0.37492 0.0
O26 O 0.05943 0.90902 0.43937 0.0
O27 O 0.06389 0.90939 0.34983 0.0
O28 O 0.33537 0.86374 0.68562 0.0
Cd29 Cd 0.3246 0.85586 0.61672 0.0
Cd30 Cd 0.33258 0.83002 0.66037 0.0
O31 O 0.3477 0.84321 0.69978 0.0
O32 O 0.32447 0.87244 0.5628 0.0
O33 O 0.337 0.85175 0.54968 0.0
C34 C 0.3336 0.8649 0.53324 0.0
C35 C 0.34042 0.80594 0.64108 0.0
C36 C 0.34546 0.85671 0.71067 0.0
C37 C 0.30056 0.83914 0.66683 0.0
O38 O 0.31099 0.83156 0.68749 0.0
O39 O 0.30325 0.84861 0.62943 0.0
O40 O 0.33857 0.81059 0.69071 0.0
O41 O 0.33789 0.81503 0.60117 0.0
O42 O 0.38505 0.08784 0.93447 0.0
Cd43 Cd 0.3919 0.07514 0.86862 0.0
Cd44 Cd 0.41926 0.08062 0.91416 0.0
O45 O 0.40722 0.09487 0.96153 0.0
O46 O 0.37492 0.0753 0.81642 0.0
O47 O 0.39637 0.0859 0.79786 0.0
C48 C 0.38287 0.08324 0.7837 0.0
C49 C 0.44363 0.08798 0.89722 0.0
C50 C 0.3933 0.09538 0.9661 0.0
C51 C 0.40747 0.04943 0.91791 0.0
O52 O 0.41684 0.05881 0.93477 0.0
O53 O 0.39708 0.05327 0.88563 0.0
O54 O 0.43896 0.08489 0.94591 0.0
O55 O 0.43444 0.08691 0.85676 0.0
O56 O 0.16483 0.8648 0.81366 0.0
Cd57 Cd 0.17543 0.85648 0.8822 0.0
Cd58 Cd 0.16718 0.83092 0.83707 0.0
O59 O 0.15251 0.84438 0.79664 0.0
O60 O 0.17572 0.87284 0.93696 0.0
O61 O 0.16291 0.85226 0.9489 0.0
C62 C 0.16645 0.86531 0.96603 0.0
C63 C 0.15894 0.80698 0.85692 0.0
C64 C 0.15486 0.85795 0.78718 0.0
C65 C 0.19935 0.83959 0.83198 0.0
O66 O 0.18887 0.83213 0.81105 0.0
O67 O 0.19672 0.84908 0.86935 0.0
O68 O 0.16104 0.81147 0.8072 0.0
O69 O 0.16139 0.81618 0.89655 0.0
O70 O 0.38735 0.9119 0.06779 0.0
Cd71 Cd 0.3956 0.92304 0.13517 0.0
Cd72 Cd 0.42113 0.91641 0.08234 0.0
O73 O 0.40806 0.90083 0.04484 0.0
O74 O 0.37886 0.92332 0.18844 0.0
O75 O 0.39966 0.91126 0.20411 0.0
C76 C 0.38641 0.91457 0.2195 0.0
C77 C 0.44607 0.91046 0.09595 0.0
C78 C 0.39424 0.90246 0.03893 0.0
C79 C 0.40998 0.94786 0.08024 0.0
O80 O 0.41761 0.93788 0.05703 0.0
O81 O 0.4016 0.9447 0.12063 0.0
O82 O 0.44051 0.91213 0.04752 0.0
O83 O 0.43737 0.9119 0.13777 0.0
O84 O 0.33656 0.13587 0.31579 0.0
Cd85 Cd 0.32381 0.14239 0.38192 0.0
Cd86 Cd 0.32875 0.16995 0.33656 0.0
O87 O 0.34299 0.15817 0.28819 0.0
O88 O 0.32408 0.12517 0.433 0.0
O89 O 0.3345 0.1466 0.45309 0.0
C90 C 0.33193 0.13302 0.46633 0.0
C91 C 0.33593 0.19433 0.35438 0.0
C92 C 0.3438 0.14426 0.28373 0.0
C93 C 0.29774 0.15768 0.33348 0.0
O94 O 0.30691 0.16729 0.31676 0.0
O95 O 0.30184 0.14726 0.3652 0.0
O96 O 0.33272 0.1898 0.30561 0.0
O97 O 0.33507 0.18499 0.39443 0.0
O98 O 0.11111 0.08273 0.56481 0.0
Cd99 Cd 0.10316 0.07216 0.63401 0.0
Cd100 Cd 0.0774 0.08001 0.58949 0.0
O101 O 0.09058 0.09492 0.54888 0.0
O102 O 0.11974 0.07215 0.68785 0.0
O103 O 0.09905 0.08468 0.70077 0.0
C104 C 0.11221 0.08133 0.71724 0.0
C105 C 0.05334 0.08781 0.60909 0.0
C106 C 0.10411 0.09265 0.53868 0.0
C107 C 0.08651 0.04797 0.58464 0.0
O108 O 0.07894 0.05832 0.56351 0.0
O109 O 0.09596 0.05077 0.622 0.0
O110 O 0.05789 0.08579 0.55942 0.0
O111 O 0.06254 0.08553 0.64883 0.0
O112 O 0.83815 0.8591 0.81324 0.0
Cd113 Cd 0.82702 0.85057 0.8802 0.0
Cd114 Cd 0.83376 0.82526 0.82792 0.0
O115 O 0.84931 0.83842 0.79052 0.0
O116 O 0.82669 0.86705 0.93449 0.0
O117 O 0.83893 0.84626 0.94849 0.0
C118 C 0.83553 0.85941 0.96484 0.0
C119 C 0.84018 0.8006 0.84433 0.0
C120 C 0.84773 0.85225 0.78486 0.0
C121 C 0.80215 0.83575 0.82658 0.0
O122 O 0.81214 0.82825 0.80288 0.0
O123 O 0.80542 0.84431 0.86633 0.0
O124 O 0.83849 0.80574 0.79524 0.0
O125 O 0.83847 0.80958 0.88519 0.0
O126 O 0.887 0.08266 0.56514 0.0
Cd127 Cd 0.89501 0.07115 0.63128 0.0
Cd128 Cd 0.92145 0.07772 0.58387 0.0
O129 O 0.90833 0.09174 0.53795 0.0
O130 O 0.87825 0.07065 0.6841 0.0
O131 O 0.89916 0.08245 0.70108 0.0
C132 C 0.88587 0.07913 0.71597 0.0
C133 C 0.94521 0.08632 0.60378 0.0
C134 C 0.89439 0.09104 0.53361 0.0
C135 C 0.91112 0.04586 0.58306 0.0
O136 O 0.92021 0.05545 0.56534 0.0
O137 O 0.90061 0.04961 0.61484 0.0
O138 O 0.94112 0.08318 0.55434 0.0
O139 O 0.93574 0.08467 0.64307 0.0
O140 O 0.65431 0.14319 0.3192 0.0
Cd141 Cd 0.66996 0.14534 0.37982 0.0
Cd142 Cd 0.66965 0.17512 0.34123 0.0
O143 O 0.65492 0.1659 0.28645 0.0
O144 O 0.66716 0.12676 0.42235 0.0
O145 O 0.66358 0.14894 0.45827 0.0
C146 C 0.66303 0.13476 0.4635 0.0
C147 C 0.6648 0.20008 0.35902 0.0
C148 C 0.64999 0.15281 0.28482 0.0
C149 C 0.69837 0.15778 0.33613 0.0
O150 O 0.69154 0.16993 0.3305 0.0
O151 O 0.69182 0.14641 0.35488 0.0
O152 O 0.66922 0.19551 0.31167 0.0
O153 O 0.66331 0.19048 0.39794 0.0
O154 O 0.6145 0.916 0.06509 0.0
Cd155 Cd 0.60637 0.92653 0.13404 0.0
Cd156 Cd 0.58046 0.92081 0.0802 0.0
O157 O 0.59352 0.90585 0.03938 0.0
O158 O 0.62334 0.92651 0.18627 0.0
O159 O 0.60267 0.91424 0.20211 0.0
C160 C 0.61595 0.91757 0.21709 0.0
C161 C 0.55567 0.91406 0.09267 0.0
C162 C 0.60739 0.90716 0.0343 0.0
C163 C 0.59178 0.95223 0.08466 0.0
O164 O 0.58385 0.94272 0.05998 0.0
O165 O 0.60045 0.94834 0.12324 0.0
O166 O 0.5611 0.91678 0.04469 0.0
O167 O 0.56438 0.91507 0.13468 0.0
O168 O 0.8356 0.12947 0.18183 0.0
Cd169 Cd 0.82381 0.13623 0.1144 0.0
Cd170 Cd 0.82994 0.1637 0.15686 0.0
O171 O 0.84474 0.15133 0.2022 0.0
O172 O 0.82443 0.11934 0.06223 0.0
O173 O 0.83517 0.14085 0.04529 0.0
C174 C 0.83263 0.12736 0.03064 0.0
C175 C 0.83704 0.18832 0.14227 0.0
C176 C 0.84421 0.13749 0.21017 0.0
C177 C 0.79826 0.15202 0.15993 0.0
O178 O 0.80777 0.16144 0.17571 0.0
O179 O 0.80207 0.14125 0.12956 0.0
O180 O 0.83395 0.18326 0.19044 0.0
O181 O 0.83626 0.17932 0.1011 0.0
O182 O 0.60997 0.09703 0.94037 0.0
Cd183 Cd 0.60586 0.08172 0.87922 0.0
Cd184 Cd 0.57724 0.08434 0.92414 0.0
O185 O 0.58719 0.10061 0.96932 0.0
O186 O 0.62415 0.08327 0.83419 0.0
O187 O 0.602 0.08887 0.80182 0.0
C188 C 0.61612 0.08832 0.7946 0.0
C189 C 0.5524 0.08898 0.90415 0.0
C190 C 0.60083 0.10364 0.97141 0.0
C191 C 0.59294 0.05484 0.93247 0.0
O192 O 0.58219 0.06302 0.94637 0.0
O193 O 0.60329 0.05978 0.9021 0.0
O194 O 0.55695 0.08638 0.95344 0.0
O195 O 0.56198 0.08876 0.86478 0.0
O196 O 0.66649 0.86672 0.68369 0.0
Cd197 Cd 0.67688 0.85836 0.61477 0.0
Cd198 Cd 0.66852 0.83289 0.65921 0.0
O199 O 0.65376 0.84646 0.69867 0.0
O200 O 0.67699 0.87457 0.55943 0.0
O201 O 0.66412 0.85395 0.54897 0.0
C202 C 0.66763 0.86694 0.53111 0.0
C203 C 0.66023 0.80892 0.64083 0.0
C204 C 0.65628 0.85994 0.70907 0.0
C205 C 0.70075 0.84122 0.66374 0.0
O206 O 0.69023 0.83396 0.68531 0.0
O207 O 0.69812 0.85071 0.62638 0.0
O208 O 0.66223 0.81365 0.69027 0.0
O209 O 0.6628 0.81788 0.60057 0.0
O210 O 0.88803 0.90917 0.43149 0.0
Cd211 Cd 0.89484 0.92039 0.36271 0.0
Cd212 Cd 0.92239 0.91466 0.40571 0.0
O213 O 0.90996 0.90083 0.45526 0.0
O214 O 0.87767 0.91983 0.31152 0.0
O215 O 0.89887 0.90867 0.29378 0.0
C216 C 0.88538 0.91141 0.27976 0.0
C217 C 0.94651 0.90667 0.38762 0.0
C218 C 0.89609 0.90124 0.46236 0.0
C219 C 0.91124 0.94635 0.40439 0.0
O220 O 0.92082 0.93708 0.42065 0.0
O221 O 0.90019 0.94217 0.37604 0.0
O222 O 0.94224 0.91034 0.43629 0.0
O223 O 0.937 0.90737 0.34806 0.0
O224 O 0.65084 0.64375 0.69223 0.0
Cd225 Cd 0.66645 0.64596 0.63141 0.0
Cd226 Cd 0.66574 0.67575 0.66783 0.0
O227 O 0.65099 0.66667 0.72278 0.0
O228 O 0.66374 0.62753 0.58783 0.0
O229 O 0.65997 0.64985 0.55328 0.0
C230 C 0.65953 0.63569 0.54717 0.0
C231 C 0.66055 0.70046 0.64708 0.0
C232 C 0.64628 0.65352 0.72557 0.0
C233 C 0.69472 0.65888 0.67445 0.0
O234 O 0.68769 0.67092 0.67961 0.0
O235 O 0.68834 0.64736 0.65604 0.0
O236 O 0.6649 0.69634 0.69513 0.0
O237 O 0.65935 0.69054 0.60918 0.0
O238 O 0.61709 0.41485 0.93302 0.0
Cd239 Cd 0.61039 0.42721 0.86645 0.0
Cd240 Cd 0.58388 0.42244 0.91816 0.0
O241 O 0.59545 0.40605 0.95746 0.0
O242 O 0.62804 0.42569 0.81816 0.0
O243 O 0.60603 0.41718 0.79405 0.0
C244 C 0.61992 0.41862 0.78339 0.0
C245 C 0.55872 0.41743 0.90557 0.0
C246 C 0.60937 0.40617 0.96223 0.0
C247 C 0.59751 0.45319 0.91935 0.0
O248 O 0.58868 0.44394 0.941 0.0
O249 O 0.6064 0.44922 0.88158 0.0
O250 O 0.56436 0.41965 0.95355 0.0
O251 O 0.56741 0.41808 0.86343 0.0
O252 O 0.84842 0.35506 0.17788 0.0
Cd253 Cd 0.83295 0.35262 0.11672 0.0
Cd254 Cd 0.83319 0.32287 0.15937 0.0
O255 O 0.84767 0.33267 0.21362 0.0
O256 O 0.83555 0.37144 0.07536 0.0
O257 O 0.83943 0.3495 0.03796 0.0
C258 C 0.83977 0.36371 0.03366 0.0
C259 C 0.83794 0.29768 0.1455 0.0
C260 C 0.85258 0.34578 0.21379 0.0
C261 C 0.80446 0.34031 0.16095 0.0
O262 O 0.81128 0.32822 0.16835 0.0
O263 O 0.81104 0.35152 0.14106 0.0
O264 O 0.83342 0.30278 0.19196 0.0
O265 O 0.83963 0.30688 0.10533 0.0
O266 O 0.88636 0.58521 0.42905 0.0
Cd267 Cd 0.89498 0.57422 0.36201 0.0
Cd268 Cd 0.92029 0.58094 0.4163 0.0
O269 O 0.90694 0.59644 0.45275 0.0
O270 O 0.87822 0.57339 0.30905 0.0
O271 O 0.89863 0.58606 0.29285 0.0
C272 C 0.88549 0.58229 0.27769 0.0
C273 C 0.94502 0.58769 0.40307 0.0
C274 C 0.89311 0.59478 0.45783 0.0
C275 C 0.90961 0.54934 0.41614 0.0
O276 O 0.91704 0.55927 0.44065 0.0
O277 O 0.90131 0.55266 0.37572 0.0
O278 O 0.93952 0.5857 0.45143 0.0
O279 O 0.93642 0.58595 0.36109 0.0
O280 O 0.66672 0.36705 0.31521 0.0
Cd281 Cd 0.67892 0.3608 0.38206 0.0
Cd282 Cd 0.67278 0.33322 0.34076 0.0
O283 O 0.65815 0.34512 0.29295 0.0
O284 O 0.67739 0.37828 0.43103 0.0
O285 O 0.66884 0.35614 0.45383 0.0
C286 C 0.67026 0.37001 0.4652 0.0
C287 C 0.66537 0.30888 0.35828 0.0
C288 C 0.65844 0.35898 0.28573 0.0
C289 C 0.70448 0.34514 0.33658 0.0
O290 O 0.69503 0.33544 0.32272 0.0
O291 O 0.70066 0.35625 0.36527 0.0
O292 O 0.66871 0.31341 0.30962 0.0
O293 O 0.66623 0.3182 0.39839 0.0
O294 O 0.88971 0.40486 0.55705 0.0
Cd295 Cd 0.89408 0.41994 0.6188 0.0
Cd296 Cd 0.92264 0.41661 0.57725 0.0
O297 O 0.91261 0.40054 0.53131 0.0
O298 O 0.87611 0.41835 0.6656 0.0
O299 O 0.89847 0.41234 0.69509 0.0
C300 C 0.88441 0.41296 0.70384 0.0
C301 C 0.9472 0.4113 0.59947 0.0
C302 C 0.89892 0.39794 0.52735 0.0
C303 C 0.90782 0.44652 0.56712 0.0
O304 O 0.91842 0.43803 0.55421 0.0
O305 O 0.89716 0.44188 0.59666 0.0
O306 O 0.94303 0.41395 0.54976 0.0
O307 O 0.9374 0.41188 0.63805 0.0
O308 O 0.83375 0.63246 0.81086 0.0
Cd309 Cd 0.82262 0.63936 0.87969 0.0
Cd310 Cd 0.82778 0.66696 0.83442 0.0
O311 O 0.84175 0.65445 0.786 0.0
O312 O 0.82389 0.62258 0.93239 0.0
O313 O 0.83454 0.64422 0.94736 0.0
C314 C 0.83225 0.63075 0.96282 0.0
C315 C 0.83542 0.69149 0.84714 0.0
C316 C 0.84155 0.64055 0.77961 0.0
C317 C 0.79624 0.65496 0.83836 0.0
O318 O 0.80534 0.66461 0.82109 0.0
O319 O 0.80067 0.64415 0.8674 0.0
O320 O 0.83141 0.6865 0.79982 0.0
O321 O 0.83516 0.68253 0.8885 0.0
O322 O 0.60527 0.59882 0.06788 0.0
Cd323 Cd 0.60267 0.58311 0.12887 0.0
Cd324 Cd 0.57356 0.58289 0.07957 0.0
O325 O 0.58259 0.5998 0.03492 0.0
O326 O 0.62115 0.58608 0.17211 0.0
O327 O 0.5989 0.58958 0.20733 0.0
C328 C 0.61306 0.59016 0.21306 0.0
C329 C 0.54794 0.58506 0.09158 0.0
C330 C 0.59584 0.60427 0.0349 0.0
C331 C 0.5925 0.55509 0.07489 0.0
O332 O 0.58099 0.56209 0.06043 0.0
O333 O 0.60225 0.56108 0.10539 0.0
O334 O 0.55381 0.58243 0.04433 0.0
O335 O 0.55665 0.5863 0.13348 0.0
O336 O 0.34514 0.36036 0.3079 0.0
Cd337 Cd 0.32922 0.35805 0.36752 0.0
Cd338 Cd 0.33091 0.32795 0.33378 0.0
O339 O 0.34634 0.33709 0.28168 0.0
O340 O 0.33149 0.37634 0.41202 0.0
O341 O 0.33542 0.35392 0.44563 0.0
C342 C 0.33565 0.36807 0.45246 0.0
C343 C 0.33582 0.30307 0.35294 0.0
C344 C 0.35056 0.35038 0.27735 0.0
C345 C 0.3016 0.34444 0.32298 0.0
O346 O 0.30905 0.33262 0.31871 0.0
O347 O 0.30748 0.35616 0.34186 0.0
O348 O 0.33198 0.30755 0.30476 0.0
O349 O 0.33666 0.31272 0.39193 0.0
O350 O 0.37848 0.58537 0.0661 0.0
Cd351 Cd 0.38497 0.57341 0.1335 0.0
Cd352 Cd 0.41266 0.57854 0.08931 0.0
O353 O 0.40058 0.59371 0.04449 0.0
O354 O 0.36841 0.57494 0.18685 0.0
O355 O 0.39049 0.5847 0.20178 0.0
C356 C 0.37698 0.58283 0.21753 0.0
C357 C 0.43778 0.58434 0.09968 0.0
C358 C 0.38671 0.59368 0.03727 0.0
C359 C 0.39972 0.54722 0.08879 0.0
O360 O 0.4094 0.5564 0.07243 0.0
O361 O 0.38909 0.55144 0.11903 0.0
O362 O 0.43203 0.5813 0.05258 0.0
O363 O 0.42919 0.58437 0.14213 0.0
O364 O 0.16127 0.64025 0.81648 0.0
Cd365 Cd 0.17256 0.64762 0.8842 0.0
Cd366 Cd 0.16616 0.67473 0.83908 0.0
O367 O 0.15217 0.66181 0.79199 0.0
O368 O 0.17281 0.63045 0.93529 0.0
O369 O 0.16102 0.65125 0.95384 0.0
C370 C 0.16427 0.63785 0.96757 0.0
C371 C 0.15786 0.69872 0.8571 0.0
C372 C 0.15291 0.64792 0.78585 0.0
C373 C 0.19805 0.66422 0.83967 0.0
O374 O 0.18854 0.67344 0.82241 0.0
O375 O 0.19416 0.6534 0.86974 0.0
O376 O 0.1612 0.69438 0.80817 0.0
O377 O 0.15909 0.68935 0.89697 0.0
O378 O 0.11381 0.40894 0.56677 0.0
Cd379 Cd 0.10832 0.42314 0.62927 0.0
Cd380 Cd 0.07976 0.41931 0.58895 0.0
O381 O 0.09105 0.40513 0.5377 0.0
O382 O 0.12534 0.42261 0.68092 0.0
O383 O 0.10321 0.41385 0.70209 0.0
C384 C 0.1169 0.41578 0.71536 0.0
C385 C 0.05552 0.41191 0.60746 0.0
C386 C 0.1048 0.40264 0.53434 0.0
C387 C 0.0931 0.44997 0.58475 0.0
O388 O 0.08222 0.44156 0.57473 0.0
O389 O 0.10466 0.44495 0.60791 0.0
O390 O 0.05973 0.41582 0.55899 0.0
O391 O 0.06509 0.41225 0.64688 0.0
O392 O 0.33468 0.63968 0.68359 0.0
Cd393 Cd 0.32326 0.64755 0.61696 0.0
Cd394 Cd 0.32985 0.6741 0.66484 0.0
O395 O 0.34373 0.66098 0.71143 0.0
O396 O 0.32228 0.63034 0.56623 0.0
O397 O 0.33446 0.65083 0.54614 0.0
C398 C 0.33077 0.6375 0.53299 0.0
C399 C 0.33843 0.69784 0.64442 0.0
C400 C 0.34297 0.64703 0.71558 0.0
C401 C 0.29796 0.6639 0.66438 0.0
O402 O 0.30753 0.67295 0.6825 0.0
O403 O 0.30176 0.65336 0.63284 0.0
O404 O 0.3352 0.69385 0.6939 0.0
O405 O 0.33694 0.68825 0.60544 0.0
O406 O 0.11348 0.58913 0.43395 0.0
Cd407 Cd 0.10634 0.57711 0.36761 0.0
Cd408 Cd 0.07917 0.58199 0.41634 0.0
O409 O 0.09162 0.59688 0.46128 0.0
O410 O 0.12308 0.57787 0.31464 0.0
O411 O 0.10138 0.58816 0.29798 0.0
C412 C 0.11486 0.5858 0.28291 0.0
C413 C 0.05441 0.58853 0.40217 0.0
C414 C 0.10559 0.59707 0.46538 0.0
C415 C 0.09183 0.55079 0.41501 0.0
O416 O 0.08221 0.5598 0.43297 0.0
O417 O 0.10212 0.55521 0.38346 0.0
O418 O 0.05952 0.58541 0.45027 0.0
O419 O 0.06344 0.58813 0.36101 0.0
O420 O 0.15746 0.35951 0.18505 0.0
Cd421 Cd 0.17149 0.3547 0.12119 0.0
Cd422 Cd 0.16944 0.32587 0.16773 0.0
O423 O 0.15551 0.3371 0.22017 0.0
O424 O 0.17043 0.37252 0.07337 0.0
O425 O 0.16227 0.35059 0.04712 0.0
C426 C 0.16387 0.3645 0.0369 0.0
C427 C 0.16308 0.30106 0.15336 0.0
C428 C 0.15222 0.35071 0.22075 0.0
C429 C 0.19941 0.34102 0.16423 0.0
O430 O 0.19167 0.32981 0.17677 0.0
O431 O 0.1936 0.3521 0.14051 0.0
O432 O 0.16765 0.30584 0.20028 0.0
O433 O 0.16212 0.31039 0.11329 0.0
O434 O 0.39132 0.40214 0.93264 0.0
Cd435 Cd 0.39286 0.41823 0.8734 0.0
Cd436 Cd 0.42326 0.41821 0.91191 0.0
O437 O 0.41422 0.4026 0.96364 0.0
O438 O 0.37418 0.41541 0.83152 0.0
O439 O 0.39629 0.41256 0.79412 0.0
C440 C 0.3821 0.41184 0.78945 0.0
C441 C 0.44879 0.41508 0.8997 0.0
C442 C 0.40118 0.39753 0.96552 0.0
C443 C 0.40489 0.44653 0.91883 0.0
O444 O 0.41712 0.43981 0.92383 0.0
O445 O 0.39356 0.43994 0.89992 0.0
O446 O 0.44313 0.41886 0.94615 0.0
O447 O 0.43994 0.41312 0.85862 0.0
H448 H 0.28919 0.16829 0.23371 0.0
H449 H 0.20351 0.16163 0.27763 0.0
H450 H 0.27203 0.14746 0.38058 0.0
H451 H 0.2229 0.15273 0.11838 0.0
H452 H 0.22821 0.16156 0.31883 0.0
H453 H 0.26445 0.16784 0.19336 0.0
C454 C 0.28018 0.16375 0.25772 0.0
C455 C 0.28263 0.15795 0.31071 0.0
C456 C 0.22701 0.15964 0.27491 0.0
C457 C 0.25437 0.15756 0.26483 0.0
C458 C 0.21298 0.15979 0.25126 0.0
C459 C 0.2112 0.15724 0.19444 0.0
C460 C 0.23935 0.15732 0.24126 0.0
C461 C 0.22382 0.15473 0.16231 0.0
C462 C 0.26613 0.1634 0.23442 0.0
C463 C 0.27059 0.15204 0.33964 0.0
N464 N 0.23742 0.15501 0.1861 0.0
N465 N 0.25689 0.15214 0.31651 0.0
H466 H 0.09251 0.97416 0.3619 0.0
H467 H 0.09257 0.0215 0.63504 0.0
H468 H 0.07879 0.95507 0.51691 0.0
H469 H 0.07801 0.04034 0.4807 0.0
H470 H 0.09169 0.99688 0.59246 0.0
H471 H 0.09135 0.99877 0.40449 0.0
C472 C 0.0892 0.97516 0.40471 0.0
C473 C 0.08566 0.9626 0.43585 0.0
C474 C 0.08861 0.00644 0.56823 0.0
C475 C 0.0847 0.99049 0.48485 0.0
C476 C 0.08914 0.02044 0.59238 0.0
C477 C 0.08528 0.03294 0.56143 0.0
C478 C 0.08463 0.00503 0.51242 0.0
C479 C 0.08094 0.03097 0.50619 0.0
C480 C 0.08851 0.98915 0.42887 0.0
C481 C 0.08147 0.96449 0.49127 0.0
N482 N 0.08091 0.0173 0.4832 0.0
N483 N 0.08129 0.97816 0.51424 0.0
H484 H 0.20672 0.83095 0.72797 0.0
H485 H 0.29318 0.83065 0.77107 0.0
H486 H 0.226 0.84524 0.88192 0.0
H487 H 0.27395 0.84498 0.6171 0.0
H488 H 0.26851 0.83011 0.81241 0.0
H489 H 0.23139 0.83019 0.68683 0.0
C490 C 0.21616 0.83375 0.75333 0.0
C491 C 0.21433 0.83816 0.80851 0.0
C492 C 0.26973 0.8333 0.76954 0.0
C493 C 0.24249 0.83714 0.76174 0.0
C494 C 0.28375 0.83351 0.74576 0.0
C495 C 0.28559 0.83785 0.69051 0.0
C496 C 0.25744 0.83709 0.73749 0.0
C497 C 0.273 0.8416 0.65983 0.0
C498 C 0.23018 0.83342 0.72966 0.0
C499 C 0.22694 0.84182 0.83924 0.0
N500 N 0.25941 0.84102 0.68364 0.0
N501 N 0.24054 0.84112 0.81553 0.0
H502 H 0.4178 0.04126 0.01848 0.0
H503 H 0.41468 0.95545 0.97305 0.0
H504 H 0.39821 0.0234 0.87041 0.0
H505 H 0.40486 0.97426 0.13253 0.0
H506 H 0.41362 0.98017 0.93228 0.0
H507 H 0.41811 0.01651 0.05872 0.0
C508 C 0.41368 0.0321 0.99423 0.0
C509 C 0.40802 0.03435 0.94089 0.0
C510 C 0.41171 0.97884 0.97615 0.0
C511 C 0.40851 0.00607 0.98663 0.0
C512 C 0.41243 0.9648 -0.00043 0.0
C513 C 0.40991 0.96285 0.05633 0.0
C514 C 0.40885 0.99103 0.00997 0.0
C515 C 0.40686 0.97531 0.08864 0.0
C516 C 0.41376 0.01804 0.01744 0.0
C517 C 0.40266 0.02211 0.91162 0.0
N518 N 0.40658 0.98894 0.06507 0.0
N519 N 0.40318 0.00842 0.93468 0.0
H520 H 0.77623 0.84187 0.8805 0.0
H521 H 0.72711 0.84657 0.61155 0.0
H522 H 0.79363 0.82927 0.7215 0.0
H523 H 0.70867 0.83205 0.76662 0.0
H524 H 0.75194 0.84439 0.65165 0.0
H525 H 0.75134 0.84241 0.84015 0.0
C526 C 0.7748 0.83917 0.83725 0.0
C527 C 0.78697 0.83544 0.80434 0.0
C528 C 0.74242 0.84162 0.67661 0.0
C529 C 0.75875 0.8364 0.75795 0.0
C530 C 0.72829 0.84289 0.65388 0.0
C531 C 0.71585 0.83941 0.68574 0.0
C532 C 0.74403 0.83724 0.73193 0.0
C533 C 0.71799 0.83472 0.74047 0.0
C534 C 0.76064 0.83946 0.81436 0.0
C535 C 0.78452 0.83207 0.74845 0.0
N536 N 0.7318 0.83393 0.76207 0.0
N537 N 0.77071 0.8328 0.72682 0.0
H538 H 0.93561 0.96133 0.44095 0.0
H539 H 0.88899 0.02539 0.57998 0.0
H540 H 0.8887 0.96611 0.416 0.0
H541 H 0.9346 0.03186 0.53466 0.0
H542 H 0.88934 0.00148 0.53325 0.0
H543 H 0.93609 0.98558 0.48591 0.0
C544 C 0.92545 0.96755 0.44437 0.0
C545 C 0.9121 0.96172 0.42459 0.0
C546 C 0.89928 0.00812 0.53379 0.0
C547 C 0.91253 0.98917 0.47721 0.0
C548 C 0.89915 0.02169 0.56094 0.0
C549 C 0.91179 0.03064 0.5612 0.0
C550 C 0.91222 0.00334 0.5075 0.0
C551 C 0.9246 0.02532 0.53533 0.0
C552 C 0.92574 0.98134 0.47009 0.0
C553 C 0.89925 0.97023 0.43026 0.0
N554 N 0.92451 0.01198 0.50963 0.0
N555 N 0.89975 0.98344 0.4567 0.0
H556 H 0.71755 0.18042 0.31701 0.0
H557 H 0.77684 0.13056 0.16025 0.0
H558 H 0.71396 0.13301 0.30673 0.0
H559 H 0.78514 0.17548 0.21092 0.0
H560 H 0.75275 0.13165 0.20592 0.0
H561 H 0.74165 0.17907 0.27262 0.0
C562 C 0.7219 0.1697 0.30587 0.0
C563 C 0.71372 0.1568 0.31563 0.0
C564 C 0.75985 0.14126 0.20685 0.0
C565 C 0.74126 0.15521 0.2638 0.0
C566 C 0.77354 0.1407 0.18036 0.0
C567 C 0.78304 0.15295 0.18176 0.0
C568 C 0.75557 0.1542 0.23442 0.0
C569 C 0.77821 0.16576 0.20888 0.0
C570 C 0.73566 0.16894 0.28041 0.0
C571 C 0.71993 0.14321 0.3003 0.0
N572 N 0.76483 0.16604 0.23407 0.0
N573 N 0.73328 0.14278 0.27466 0.0
H574 H 0.60399 0.02998 0.88278 0.0
H575 H 0.59702 0.97763 0.14316 0.0
H576 H 0.58337 0.04537 0.0326 0.0
H577 H 0.58722 0.9616 0.97945 0.0
H578 H 0.59787 0.00294 0.10617 0.0
H579 H 0.60394 0.00476 0.92078 0.0
C580 C 0.59956 0.02805 0.9237 0.0
C581 C 0.59356 0.03968 0.9545 0.0
C582 C 0.59553 0.99382 0.0786 0.0
C583 C 0.5938 0.01119 0.99828 0.0
C584 C 0.59505 0.97945 0.09957 0.0
C585 C 0.5919 0.96758 0.06436 0.0
C586 C 0.59332 0.99619 0.0219 0.0
C587 C 0.58949 0.97049 0.0081 0.0
C588 C 0.59948 0.01373 0.94516 0.0
C589 C 0.58794 0.03665 0.00734 0.0
N590 N 0.5904 0.9845 0.98844 0.0
N591 N 0.5883 0.0227 0.02782 0.0
H592 H 0.71338 0.68193 0.69371 0.0
H593 H 0.7753 0.63305 0.84079 0.0
H594 H 0.71101 0.63442 0.70254 0.0
H595 H 0.78195 0.67834 0.7913 0.0
H596 H 0.75067 0.63373 0.79911 0.0
H597 H 0.73776 0.68107 0.73604 0.0
C598 C 0.71804 0.67129 0.70417 0.0
C599 C 0.71013 0.65822 0.6945 0.0
C600 C 0.75752 0.64352 0.79761 0.0
C601 C 0.73803 0.65718 0.7439 0.0
C602 C 0.77152 0.64319 0.82184 0.0
C603 C 0.78072 0.65566 0.8195 0.0
C604 C 0.75264 0.65645 0.77138 0.0
C605 C 0.77527 0.66845 0.79396 0.0
C606 C 0.73197 0.67082 0.72844 0.0
C607 C 0.71676 0.64476 0.70892 0.0
N608 N 0.76161 0.66851 0.77094 0.0
N609 N 0.73029 0.64459 0.73334 0.0
H610 H 0.60367 0.47877 0.86341 0.0
H611 H 0.60491 0.53108 0.1262 0.0
H612 H 0.59256 0.46203 0.02494 0.0
H613 H 0.58529 0.54522 0.97279 0.0
H614 H 0.60729 0.50599 0.08778 0.0
H615 H 0.60375 0.50396 0.90155 0.0
C616 C 0.60134 0.48041 0.90685 0.0
C617 C 0.59794 0.46839 0.94103 0.0
C618 C 0.60255 0.51467 0.06268 0.0
C619 C 0.59844 0.49687 0.98481 0.0
C620 C 0.60124 0.52892 0.0844 0.0
C621 C 0.59477 0.54012 0.0527 0.0
C622 C 0.59779 0.51185 0.0085 0.0
C623 C 0.59017 0.53681 0.99873 0.0
C624 C 0.60137 0.49471 0.92845 0.0
C625 C 0.59504 0.47105 0.99711 0.0
N626 N 0.59186 0.52299 0.97813 0.0
N627 N 0.59545 0.48502 0.01742 0.0
H628 H 0.71779 0.32104 0.2909 0.0
H629 H 0.78858 0.36537 0.18416 0.0
H630 H 0.72552 0.3669 0.32968 0.0
H631 H 0.78545 0.31784 0.18487 0.0
H632 H 0.76428 0.36665 0.2284 0.0
H633 H 0.74172 0.32007 0.24502 0.0
C634 C 0.72458 0.33088 0.29019 0.0
C635 C 0.71964 0.34407 0.3143 0.0
C636 C 0.76891 0.35596 0.2186 0.0
C637 C 0.747 0.34308 0.26091 0.0
C638 C 0.78271 0.35522 0.19288 0.0
C639 C 0.78907 0.34148 0.18092 0.0
C640 C 0.7614 0.34286 0.23189 0.0
C641 C 0.78101 0.32868 0.19357 0.0
C642 C 0.73823 0.33033 0.26384 0.0
C643 C 0.72892 0.35647 0.31199 0.0
N644 N 0.76762 0.32969 0.21837 0.0
N645 N 0.74212 0.35571 0.28537 0.0
H646 H 0.91842 0.45551 0.46787 0.0
H647 H 0.91383 0.5408 0.52274 0.0
H648 H 0.89699 0.47182 0.61468 0.0
H649 H 0.90521 0.52342 0.36003 0.0
H650 H 0.91268 0.51567 0.56011 0.0
H651 H 0.91853 0.48058 0.43006 0.0
C652 C 0.91379 0.4644 0.49222 0.0
C653 C 0.9077 0.46164 0.54451 0.0
C654 C 0.91106 0.51741 0.51627 0.0
C655 C 0.90805 0.49026 0.50188 0.0
C656 C 0.91184 0.53167 0.49481 0.0
C657 C 0.90966 0.53414 0.43815 0.0
C658 C 0.90848 0.50552 0.48059 0.0
C659 C 0.90694 0.52196 0.40392 0.0
C660 C 0.91379 0.47863 0.47047 0.0
C661 C 0.90174 0.47351 0.57415 0.0
N662 N 0.90659 0.50811 0.4256 0.0
N663 N 0.90223 0.48739 0.55269 0.0
H664 H 0.28368 0.3683 0.30107 0.0
H665 H 0.21653 0.31797 0.19788 0.0
H666 H 0.28457 0.32068 0.29646 0.0
H667 H 0.21773 0.36513 0.17306 0.0
H668 H 0.24121 0.31907 0.23726 0.0
H669 H 0.259 0.36773 0.2593 0.0
C670 C 0.27865 0.35774 0.29178 0.0
C671 C 0.28623 0.34452 0.30226 0.0
C672 C 0.23615 0.32919 0.22292 0.0
C673 C 0.25812 0.34381 0.2542 0.0
C674 C 0.22204 0.32856 0.20027 0.0
C675 C 0.21502 0.34148 0.18214 0.0
C676 C 0.24333 0.34285 0.2281 0.0
C677 C 0.22275 0.35488 0.18628 0.0
C678 C 0.26463 0.35743 0.26757 0.0
C679 C 0.27921 0.33116 0.289 0.0
N680 N 0.23646 0.35525 0.20924 0.0
N681 N 0.26559 0.33116 0.26574 0.0
H682 H 0.37777 0.52626 0.08874 0.0
H683 H 0.42749 0.46568 0.93784 0.0
H684 H 0.42307 0.53335 0.04046 0.0
H685 H 0.38007 0.46213 0.94836 0.0
H686 H 0.42617 0.48988 0.98112 0.0
H687 H 0.37861 0.50183 0.0452 0.0
C688 C 0.38793 0.52262 0.0696 0.0
C689 C 0.40037 0.53187 0.0682 0.0
C690 C 0.41602 0.48388 0.97371 0.0
C691 C 0.40135 0.50407 0.01807 0.0
C692 C 0.41676 0.47005 0.94889 0.0
C693 C 0.40386 0.46186 0.93944 0.0
C694 C 0.4023 0.48957 0.98991 0.0
C695 C 0.39028 0.46811 0.95459 0.0
C696 C 0.38836 0.50875 0.04435 0.0
C697 C 0.4132 0.52663 0.04241 0.0
N698 N 0.38985 0.48157 0.97952 0.0
N699 N 0.41335 0.51311 0.01843 0.0
H700 H 0.27749 0.64179 0.66738 0.0
H701 H 0.21257 0.68851 0.79959 0.0
H702 H 0.28377 0.68756 0.71093 0.0
H703 H 0.21817 0.64196 0.8309 0.0
H704 H 0.23691 0.689 0.75517 0.0
H705 H 0.2534 0.64229 0.71275 0.0
C706 C 0.27372 0.65201 0.68572 0.0
C707 C 0.28266 0.66466 0.68542 0.0
C708 C 0.23282 0.67873 0.77225 0.0
C709 C 0.25515 0.66525 0.73747 0.0
C710 C 0.21898 0.67844 0.79762 0.0
C711 C 0.21337 0.66518 0.81909 0.0
C712 C 0.2409 0.66561 0.76714 0.0
C713 C 0.22211 0.65244 0.8153 0.0
C714 C 0.26004 0.65223 0.71209 0.0
C715 C 0.27724 0.67755 0.71037 0.0
N716 N 0.23536 0.65293 0.78915 0.0
N717 N 0.26379 0.67755 0.73528 0.0
H718 H 0.0688 0.46633 0.5585 0.0
H719 H 0.11451 0.53081 0.41402 0.0
H720 H 0.11636 0.46846 0.56319 0.0
H721 H 0.06911 0.53591 0.46446 0.0
H722 H 0.11489 0.50644 0.45775 0.0
H723 H 0.06829 0.49072 0.51541 0.0
C724 C 0.07914 0.47199 0.5509 0.0
C725 C 0.09265 0.46536 0.56456 0.0
C726 C 0.10485 0.5129 0.45903 0.0
C727 C 0.09214 0.49314 0.51422 0.0
C728 C 0.10457 0.52674 0.43363 0.0
C729 C 0.09176 0.53542 0.43561 0.0
C730 C 0.09217 0.50763 0.48591 0.0
C731 C 0.07924 0.52962 0.46206 0.0
C732 C 0.07883 0.48589 0.52624 0.0
C733 C 0.1057 0.4732 0.5537 0.0
N734 N 0.07975 0.51608 0.48608 0.0
N735 N 0.10513 0.48663 0.52865 0.0
H736 H 0.17159 0.10692 0.97987 0.0
H737 H 0.10184 0.10492 0.77699 0.0
H738 H 0.13983 0.14228 0.97029 0.0
H739 H 0.13827 0.07439 0.76754 0.0
H740 H 0.11457 0.11794 0.85191 0.0
H741 H 0.15883 0.09433 0.90473 0.0
C742 C 0.16199 0.11211 0.96163 0.0
C743 C 0.15678 0.1257 0.98141 0.0
C744 C 0.11974 0.10836 0.83349 0.0
C745 C 0.14194 0.11119 0.89564 0.0
C746 C 0.11243 0.10086 0.79102 0.0
C747 C 0.11899 0.08853 0.76596 0.0
C748 C 0.13366 0.10344 0.85125 0.0
C749 C 0.13279 0.08384 0.78556 0.0
C750 C 0.15468 0.10489 0.91875 0.0
C751 C 0.14427 0.13186 0.95616 0.0
N752 N 0.13964 0.09129 0.82695 0.0
N753 N 0.13721 0.12451 0.91481 0.0
H754 H 0.17395 0.89093 0.01826 0.0
H755 H 0.10361 0.89128 0.21849 0.0
H756 H 0.14247 0.85522 0.0244 0.0
H757 H 0.13934 0.92266 0.22907 0.0
H758 H 0.11669 0.87868 0.14345 0.0
H759 H 0.16074 0.90318 0.093 0.0
C760 C 0.16432 0.8856 0.03565 0.0
C761 C 0.15933 0.87201 0.01503 0.0
C762 C 0.12163 0.88835 0.16213 0.0
C763 C 0.14397 0.88612 0.10039 0.0
C764 C 0.11412 0.89561 0.20468 0.0
C765 C 0.12038 0.90805 0.23012 0.0
C766 C 0.13545 0.89363 0.1447 0.0
C767 C 0.13409 0.91311 0.21077 0.0
C768 C 0.15674 0.89263 0.0783 0.0
C769 C 0.14675 0.86565 0.0392 0.0
N770 N 0.14114 0.90588 0.16934 0.0
N771 N 0.13944 0.8728 0.08038 0.0
H772 H 0.39663 0.89144 0.28213 0.0
H773 H 0.32614 0.89061 0.4815 0.0
H774 H 0.36027 0.92193 0.26826 0.0
H775 H 0.35759 0.85492 0.47479 0.0
H776 H 0.33935 0.90294 0.40681 0.0
H777 H 0.38364 0.87891 0.35765 0.0
C778 C 0.38601 0.8956 0.29535 0.0
C779 C 0.37953 0.90776 0.26881 0.0
C780 C 0.34334 0.89237 0.42139 0.0
C781 C 0.36457 0.89341 0.35476 0.0
C782 C 0.33577 0.8853 0.46401 0.0
C783 C 0.34074 0.87169 0.48441 0.0
C784 C 0.3561 0.88589 0.39917 0.0
C785 C 0.35331 0.86537 0.46014 0.0
C786 C 0.37855 0.88837 0.33815 0.0
C787 C 0.36569 0.9126 0.2874 0.0
N788 N 0.36062 0.87256 0.41903 0.0
N789 N 0.35869 0.90542 0.32912 0.0
H790 H 0.3937 0.10587 0.72009 0.0
H791 H 0.32469 0.10674 0.51436 0.0
H792 H 0.35662 0.07623 0.73485 0.0
H793 H 0.35479 0.14343 0.5298 0.0
H794 H 0.33743 0.09434 0.59012 0.0
H795 H 0.38108 0.11843 0.64378 0.0
C796 C 0.383 0.10189 0.70687 0.0
C797 C 0.37621 0.08998 0.73388 0.0
C798 C 0.3412 0.10514 0.57722 0.0
C799 C 0.36169 0.10434 0.64701 0.0
C800 C 0.33391 0.11225 0.53401 0.0
C801 C 0.33865 0.12617 0.51581 0.0
C802 C 0.35347 0.11188 0.60207 0.0
C803 C 0.3507 0.13275 0.54277 0.0
C804 C 0.37575 0.10914 0.66367 0.0
C805 C 0.36227 0.08538 0.71531 0.0
N806 N 0.35778 0.1255 0.58429 0.0
N807 N 0.35549 0.09255 0.67307 0.0
H808 H 0.85913 0.8493 0.02517 0.0
H809 H 0.85896 0.91817 0.232 0.0
H810 H 0.82774 0.885 0.01648 0.0
H811 H 0.89584 0.88833 0.21751 0.0
H812 H 0.84658 0.9051 0.15712 0.0
H813 H 0.87168 0.86208 0.10115 0.0
C814 C 0.85478 0.85973 0.03964 0.0
C815 C 0.84237 0.86609 0.01442 0.0
C816 C 0.85741 0.90144 0.17004 0.0
C817 C 0.85672 0.8808 0.10088 0.0
C818 C 0.86451 0.90893 0.21277 0.0
C819 C 0.87848 0.90436 0.231 0.0
C820 C 0.86423 0.88917 0.14555 0.0
C821 C 0.88511 0.89228 0.20455 0.0
C822 C 0.86201 0.86707 0.08268 0.0
C823 C 0.83728 0.87969 0.03458 0.0
N824 N 0.87788 0.88503 0.16336 0.0
N825 N 0.84446 0.88657 0.07653 0.0
H826 H 0.82604 0.10118 0.98093 0.0
H827 H 0.8958 0.10237 0.77864 0.0
H828 H 0.85574 0.13831 0.96974 0.0
H829 H 0.86004 0.07109 0.76529 0.0
H830 H 0.88265 0.11458 0.85445 0.0
H831 H 0.83942 0.08917 0.90605 0.0
C832 C 0.83531 0.10687 0.96239 0.0
C833 C 0.83976 0.12079 0.98155 0.0
C834 C 0.87773 0.10501 0.83499 0.0
C835 C 0.85531 0.10697 0.89621 0.0
C836 C 0.88528 0.09796 0.79208 0.0
C837 C 0.879 0.08569 0.76561 0.0
C838 C 0.86388 0.09966 0.85177 0.0
C839 C 0.86529 0.08053 0.7844 0.0
C840 C 0.84297 0.09998 0.91968 0.0
C841 C 0.85188 0.12761 0.95599 0.0
N842 N 0.8582 0.08753 0.82625 0.0
N843 N 0.85931 0.12059 0.91485 0.0
H844 H 0.60493 0.08947 0.68938 0.0
H845 H 0.66366 0.1449 0.57018 0.0
H846 H 0.64305 0.10128 0.78657 0.0
H847 H 0.64798 0.10889 0.46952 0.0
H848 H 0.65238 0.13307 0.65147 0.0
H849 H 0.61682 0.10058 0.60785 0.0
C850 C 0.61578 0.09437 0.69345 0.0
C851 C 0.6231 0.09438 0.74445 0.0
C852 C 0.65149 0.1278 0.61146 0.0
C853 C 0.63641 0.1074 0.65262 0.0
C854 C 0.65787 0.13453 0.56529 0.0
C855 C 0.65683 0.12777 0.51337 0.0
C856 C 0.64363 0.11455 0.60505 0.0
C857 C 0.64916 0.11435 0.50903 0.0
C858 C 0.62253 0.10066 0.64715 0.0
C859 C 0.63712 0.10092 0.74777 0.0
N860 N 0.64268 0.10825 0.55419 0.0
N861 N 0.64326 0.10734 0.70259 0.0
H862 H 0.64369 0.8565 0.47332 0.0
H863 H 0.64202 0.92522 0.26553 0.0
H864 H 0.67487 0.8925 0.47789 0.0
H865 H 0.60622 0.894 0.27873 0.0
H866 H 0.65476 0.91253 0.34034 0.0
H867 H 0.63064 0.86892 0.39776 0.0
C868 C 0.64788 0.86692 0.45808 0.0
C869 C 0.6604 0.87346 0.48199 0.0
C870 C 0.64409 0.90847 0.32717 0.0
C871 C 0.64546 0.88778 0.39597 0.0
C872 C 0.63678 0.91574 0.28446 0.0
C873 C 0.62301 0.91068 0.26585 0.0
C874 C 0.63768 0.89592 0.35135 0.0
C875 C 0.61678 0.89832 0.29197 0.0
C876 C 0.64036 0.87406 0.41524 0.0
C877 C 0.66527 0.88704 0.46083 0.0
N878 N 0.6242 0.8913 0.33321 0.0
N879 N 0.6578 0.89373 0.41915 0.0
H880 H 0.65958 0.64663 0.44154 0.0
H881 H 0.6025 0.58969 0.31923 0.0
H882 H 0.64523 0.60941 0.53884 0.0
H883 H 0.63919 0.60474 0.22067 0.0
H884 H 0.61427 0.60061 0.40131 0.0
H885 H 0.64839 0.63513 0.35945 0.0
C886 C 0.65409 0.63606 0.44554 0.0
C887 C 0.6534 0.62888 0.49676 0.0
C888 C 0.6197 0.60145 0.36159 0.0
C889 C 0.64032 0.616 0.40412 0.0
C890 C 0.613 0.59528 0.31495 0.0
C891 C 0.61996 0.59625 0.26337 0.0
C892 C 0.63315 0.60901 0.35603 0.0
C893 C 0.63355 0.60364 0.25987 0.0
C894 C 0.64777 0.62952 0.39888 0.0
C895 C 0.64613 0.61522 0.4999 0.0
N896 N 0.63964 0.6099 0.30548 0.0
N897 N 0.63971 0.60928 0.45431 0.0
H898 H 0.60874 0.41544 0.67876 0.0
H899 H 0.6665 0.35822 0.56859 0.0
H900 H 0.64648 0.40503 0.78 0.0
H901 H 0.65689 0.39668 0.47005 0.0
H902 H 0.65368 0.36987 0.64719 0.0
H903 H 0.62087 0.40307 0.60014 0.0
C904 C 0.61952 0.41051 0.68436 0.0
C905 C 0.62674 0.41136 0.73542 0.0
C906 C 0.6544 0.37566 0.60814 0.0
C907 C 0.64024 0.39689 0.64734 0.0
C908 C 0.66166 0.36906 0.56358 0.0
C909 C 0.66286 0.37662 0.5133 0.0
C910 C 0.64787 0.38957 0.60129 0.0
C911 C 0.65636 0.39062 0.50853 0.0
C912 C 0.62639 0.40351 0.63979 0.0
C913 C 0.64067 0.40475 0.74093 0.0
N914 N 0.64898 0.39661 0.55187 0.0
N915 N 0.64693 0.39764 0.69751 0.0
H916 H 0.89632 0.41102 0.80776 0.0
H917 H 0.83881 0.35426 0.92612 0.0
H918 H 0.85753 0.39996 0.71314 0.0
H919 H 0.85464 0.3897 0.02925 0.0
H920 H 0.84954 0.3668 0.84524 0.0
H921 H 0.88506 0.39916 0.88908 0.0
C922 C 0.88545 0.40613 0.80422 0.0
C923 C 0.87777 0.40656 0.75401 0.0
C924 C 0.8506 0.37178 0.88571 0.0
C925 C 0.86517 0.39268 0.84553 0.0
C926 C 0.84454 0.36465 0.93164 0.0
C927 C 0.84577 0.37104 0.98413 0.0
C928 C 0.85833 0.38507 0.89289 0.0
C929 C 0.85333 0.38451 0.98929 0.0
C930 C 0.87907 0.39942 0.8504 0.0
C931 C 0.86373 0.40001 0.75135 0.0
N932 N 0.85949 0.39101 0.9443 0.0
N933 N 0.85795 0.39316 0.79632 0.0
H934 H 0.86018 0.57318 0.2272 0.0
H935 H 0.85498 0.64255 0.0237 0.0
H936 H 0.8943 0.60631 0.21665 0.0
H937 H 0.8268 0.60426 0.01237 0.0
H938 H 0.86853 0.63058 0.09908 0.0
H939 H 0.8471 0.58526 0.15175 0.0
C940 C 0.86499 0.58295 0.20868 0.0
C941 C 0.87837 0.58873 0.22823 0.0
C942 C 0.85936 0.62484 0.08012 0.0
C943 C 0.8633 0.60279 0.14212 0.0
C944 C 0.85154 0.63171 0.03741 0.0
C945 C 0.83973 0.6244 0.0117 0.0
C946 C 0.85523 0.61062 0.09747 0.0
C947 C 0.83584 0.61031 0.03088 0.0
C948 C 0.85749 0.58987 0.16561 0.0
C949 C 0.88406 0.60143 0.20264 0.0
N950 N 0.84355 0.6039 0.07254 0.0
N951 N 0.87643 0.60811 0.16112 0.0
H952 H 0.33561 0.35662 0.55728 0.0
H953 H 0.39226 0.41332 0.68293 0.0
H954 H 0.34944 0.39456 0.46285 0.0
H955 H 0.35602 0.39718 0.78148 0.0
H956 H 0.38031 0.40295 0.60026 0.0
H957 H 0.34665 0.36781 0.64022 0.0
C958 C 0.34093 0.36729 0.55411 0.0
C959 C 0.34155 0.37474 0.50343 0.0
C960 C 0.37501 0.40176 0.6401 0.0
C961 C 0.35446 0.38729 0.597 0.0
C962 C 0.38181 0.40762 0.68708 0.0
C963 C 0.37504 0.40617 0.73884 0.0
C964 C 0.36166 0.39403 0.64546 0.0
C965 C 0.36151 0.39865 0.74216 0.0
C966 C 0.34717 0.37365 0.60124 0.0
C967 C 0.34861 0.38853 0.50134 0.0
N968 N 0.35533 0.39269 0.69616 0.0
N969 N 0.35496 0.3943 0.54735 0.0
H970 H 0.32134 0.6119 0.48566 0.0
H971 H 0.38952 0.60525 0.27772 0.0
H972 H 0.35435 0.64596 0.46909 0.0
H973 H 0.35064 0.57781 0.26874 0.0
H974 H 0.37809 0.61911 0.35346 0.0
H975 H 0.33293 0.59837 0.41027 0.0
C976 C 0.33097 0.6166 0.46582 0.0
C977 C 0.33687 0.6301 0.48363 0.0
C978 C 0.37211 0.61002 0.33495 0.0
C979 C 0.35037 0.61451 0.39768 0.0
C980 C 0.37867 0.60203 0.29207 0.0
C981 C 0.37102 0.59035 0.26689 0.0
C982 C 0.35788 0.6062 0.35301 0.0
C983 C 0.35694 0.58674 0.28684 0.0
C984 C 0.3376 0.60884 0.42281 0.0
C985 C 0.34939 0.63563 0.45642 0.0
N986 N 0.35084 0.59463 0.32867 0.0
N987 N 0.3558 0.62776 0.41501 0.0
H988 H 0.17241 0.61188 0.01562 0.0
H989 H 0.10332 0.60836 0.2207 0.0
H990 H 0.14074 0.64721 0.0298 0.0
H991 H 0.14107 0.57955 0.23282 0.0
H992 H 0.11548 0.62146 0.14457 0.0
H993 H 0.15996 0.59889 0.09058 0.0
C994 C 0.16289 0.61697 0.03482 0.0
C995 C 0.15763 0.63068 0.0165 0.0
C996 C 0.12105 0.61223 0.16383 0.0
C997 C 0.14316 0.61572 0.10194 0.0
C998 C 0.11408 0.60468 0.20693 0.0
C999 C 0.1212 0.59285 0.23316 0.0
C1000 C 0.13518 0.60782 0.14658 0.0
C1001 C 0.13518 0.58862 0.21392 0.0
C1002 C 0.15577 0.60953 0.07758 0.0
C1003 C 0.14523 0.63671 0.04288 0.0
N1004 N 0.1417 0.59609 0.17186 0.0
N1005 N 0.13834 0.62915 0.08406 0.0
H1006 H 0.14279 0.42301 0.7661 0.0
H1007 H 0.14264 0.35342 0.96761 0.0
H1008 H 0.10562 0.39342 0.77886 0.0
H1009 H 0.17037 0.39152 0.99365 0.0
H1010 H 0.13062 0.36633 0.89071 0.0
H1011 H 0.15447 0.41031 0.84365 0.0
C1012 C 0.13702 0.41392 0.78559 0.0
C1013 C 0.1232 0.40929 0.76614 0.0
C1014 C 0.13937 0.37182 0.91325 0.0
C1015 C 0.13665 0.39451 0.85412 0.0
C1016 C 0.14632 0.36442 0.95674 0.0
C1017 C 0.15752 0.37141 0.987 0.0
C1018 C 0.14381 0.38621 0.89955 0.0
C1019 C 0.16176 0.38573 0.97149 0.0
C1020 C 0.14371 0.40667 0.82977 0.0
C1021 C 0.11624 0.39742 0.79285 0.0
N1022 N 0.15493 0.39263 0.92877 0.0
N1023 N 0.12311 0.39033 0.83519 0.0
H1024 H 0.16166 0.2844 0.058 0.0
H1025 H 0.14739 0.21034 0.23023 0.0
H1026 H 0.15591 0.28185 0.23459 0.0
H1027 H 0.16197 0.20958 0.06065 0.0
H1028 H 0.14569 0.23705 0.22575 0.0
H1029 H 0.15753 0.25755 0.05218 0.0
C1030 C 0.15935 0.27824 0.09533 0.0
C1031 C 0.15928 0.2853 0.14693 0.0
C1032 C 0.14917 0.2311 0.18925 0.0
C1033 C 0.15448 0.25484 0.14058 0.0
C1034 C 0.15012 0.21581 0.19177 0.0
C1035 C 0.15504 0.20774 0.14598 0.0
C1036 C 0.1533 0.23851 0.14074 0.0
C1037 C 0.15821 0.21542 0.09699 0.0
C1038 C 0.15705 0.26295 0.09201 0.0
C1039 C 0.15625 0.27684 0.19403 0.0
N1040 N 0.15748 0.23045 0.09581 0.0
N1041 N 0.15403 0.26211 0.1897 0.0
H1042 H 0.96312 0.909 0.29265 0.0
H1043 H 0.03702 0.89233 0.46119 0.0
H1044 H 0.96524 0.89494 0.46264 0.0
H1045 H 0.03744 0.91136 0.29794 0.0
H1046 H 0.01059 0.8884 0.45318 0.0
H1047 H 0.99 0.90546 0.28527 0.0
C1048 C 0.96919 0.90489 0.32798 0.0
C1049 C 0.96204 0.90244 0.37855 0.0
C1050 C 0.01641 0.89331 0.41873 0.0
C1051 C 0.99255 0.89838 0.37049 0.0
C1052 C 0.03153 0.89554 0.42331 0.0
C1053 C 0.03937 0.90238 0.38051 0.0
C1054 C 0.00892 0.89818 0.37133 0.0
C1055 C 0.03175 0.90612 0.33201 0.0
C1056 C 0.9845 0.90294 0.32384 0.0
C1057 C 0.97037 0.89718 0.42311 0.0
N1058 N 0.01685 0.9042 0.32903 0.0
N1059 N 0.98515 0.89543 0.41813 0.0
H1060 H 0.3555 0.78819 0.71091 0.0
H1061 H 0.33552 0.71412 0.54893 0.0
H1062 H 0.33479 0.7884 0.55055 0.0
H1063 H 0.35155 0.71652 0.71641 0.0
H1064 H 0.33968 0.74086 0.53942 0.0
H1065 H 0.35898 0.76169 0.70348 0.0
C1066 C 0.35182 0.78264 0.67376 0.0
C1067 C 0.34464 0.79043 0.63166 0.0
C1068 C 0.34249 0.73545 0.57787 0.0
C1069 C 0.34831 0.75992 0.62322 0.0
C1070 C 0.34019 0.72022 0.58322 0.0
C1071 C 0.34301 0.7132 0.63379 0.0
C1072 C 0.34777 0.74355 0.62329 0.0
C1073 C 0.34901 0.72155 0.67697 0.0
C1074 C 0.35379 0.76748 0.66951 0.0
C1075 C 0.34031 0.78273 0.58405 0.0
N1076 N 0.35108 0.73626 0.67085 0.0
N1077 N 0.34197 0.7678 0.58147 0.0
H1078 H 0.46116 0.10169 0.97117 0.0
H1079 H 0.53618 0.08592 0.80817 0.0
H1080 H 0.46149 0.08362 0.80646 0.0
H1081 H 0.53275 0.0991 0.97887 0.0
H1082 H 0.50925 0.08887 0.79888 0.0
H1083 H 0.48767 0.10521 0.96599 0.0
C1084 C 0.46685 0.09859 0.93358 0.0
C1085 C 0.4592 0.09217 0.88949 0.0
C1086 C 0.51447 0.09126 0.83808 0.0
C1087 C 0.48974 0.09585 0.88356 0.0
C1088 C 0.5298 0.08962 0.84335 0.0
C1089 C 0.53663 0.09207 0.89458 0.0
C1090 C 0.5061 0.09554 0.88425 0.0
C1091 C 0.52792 0.09685 0.93885 0.0
C1092 C 0.48202 0.10058 0.93061 0.0
C1093 C 0.46706 0.08855 0.84143 0.0
N1094 N 0.51316 0.09835 0.93269 0.0
N1095 N 0.48201 0.09021 0.84001 0.0
H1096 H 0.16263 0.79022 0.95096 0.0
H1097 H 0.14416 0.71667 0.78423 0.0
H1098 H 0.14548 0.7885 0.78491 0.0
H1099 H 0.16181 0.71596 0.94958 0.0
H1100 H 0.14055 0.74315 0.79184 0.0
H1101 H 0.1587 0.76343 0.95908 0.0
C1102 C 0.15779 0.78426 0.91669 0.0
C1103 C 0.15458 0.79151 0.86688 0.0
C1104 C 0.14507 0.73727 0.82689 0.0
C1105 C 0.15009 0.76106 0.87576 0.0
C1106 C 0.14712 0.72212 0.82251 0.0
C1107 C 0.15346 0.71419 0.86607 0.0
C1108 C 0.14968 0.74468 0.87482 0.0
C1109 C 0.15692 0.72174 0.91499 0.0
C1110 C 0.15559 0.76899 0.92126 0.0
C1111 C 0.14834 0.78331 0.82374 0.0
N1112 N 0.15524 0.73666 0.91775 0.0
N1113 N 0.14642 0.76856 0.82904 0.0
H1114 H 0.46344 0.91328 0.18903 0.0
H1115 H 0.53732 0.90435 0.01209 0.0
H1116 H 0.46519 0.90163 0.0164 0.0
H1117 H 0.53798 0.91547 0.1853 0.0
H1118 H 0.51083 0.90069 0.01738 0.0
H1119 H 0.49052 0.9116 0.19309 0.0
C1120 C 0.46949 0.91016 0.15228 0.0
C1121 C 0.46208 0.90775 0.10214 0.0
C1122 C 0.5167 0.90383 0.05451 0.0
C1123 C 0.4929 0.90586 0.10641 0.0
C1124 C 0.53187 0.90594 0.05146 0.0
C1125 C 0.53985 0.91038 0.09819 0.0
C1126 C 0.50928 0.90635 0.10454 0.0
C1127 C 0.53221 0.91209 0.14824 0.0
C1128 C 0.48492 0.90925 0.15457 0.0
C1129 C 0.47043 0.90376 0.05577 0.0
N1130 N 0.51728 0.91025 0.15 0.0
N1131 N 0.48534 0.90305 0.05899 0.0
H1132 H 0.34919 0.21224 0.28052 0.0
H1133 H 0.33428 0.28663 0.44898 0.0
H1134 H 0.33187 0.21183 0.44638 0.0
H1135 H 0.34503 0.28372 0.2758 0.0
H1136 H 0.33757 0.25967 0.45671 0.0
H1137 H 0.35255 0.23875 0.28688 0.0
C1138 C 0.34621 0.21777 0.3186 0.0
C1139 C 0.34004 0.20991 0.36267 0.0
C1140 C 0.33936 0.26502 0.41729 0.0
C1141 C 0.34355 0.24044 0.36999 0.0
C1142 C 0.33753 0.28035 0.41292 0.0
C1143 C 0.33919 0.28732 0.36151 0.0
C1144 C 0.34307 0.2568 0.37004 0.0
C1145 C 0.3434 0.27876 0.31604 0.0
C1146 C 0.34811 0.23294 0.32224 0.0
C1147 C 0.33661 0.21756 0.41139 0.0
N1148 N 0.34512 0.264 0.32136 0.0
N1149 N 0.33817 0.23252 0.4135 0.0
H1150 H 0.96308 0.10092 0.53304 0.0
H1151 H 0.03641 0.08335 0.7022 0.0
H1152 H 0.9622 0.08228 0.69686 0.0
H1153 H 0.03487 0.10139 0.53745 0.0
H1154 H 0.00953 0.08667 0.70937 0.0
H1155 H 0.98942 0.10525 0.54251 0.0
C1156 C 0.96846 0.09788 0.57137 0.0
C1157 C 0.96054 0.09106 0.61394 0.0
C1158 C 0.01515 0.09012 0.67207 0.0
C1159 C 0.99087 0.09567 0.6248 0.0
C1160 C 0.03047 0.08828 0.66806 0.0
C1161 C 0.0378 0.09189 0.61883 0.0
C1162 C 0.00725 0.09568 0.62661 0.0
C1163 C 0.02962 0.09822 0.57582 0.0
C1164 C 0.98353 0.10035 0.57682 0.0
C1165 C 0.96798 0.08753 0.66301 0.0
N1166 N 0.01482 0.09978 0.58056 0.0
N1167 N 0.98285 0.08962 0.66679 0.0
H1168 H 0.84589 0.70929 0.76649 0.0
H1169 H 0.83686 0.78377 0.9385 0.0
H1170 H 0.83471 0.70928 0.9396 0.0
H1171 H 0.85015 0.78122 0.7677 0.0
H1172 H 0.83868 0.75674 0.94478 0.0
H1173 H 0.85027 0.73568 0.77099 0.0
C1174 C 0.84446 0.71487 0.80569 0.0
C1175 C 0.83977 0.70713 0.85259 0.0
C1176 C 0.84138 0.76215 0.90623 0.0
C1177 C 0.84457 0.73757 0.85803 0.0
C1178 C 0.84038 0.77756 0.90267 0.0
C1179 C 0.84316 0.78471 0.85228 0.0
C1180 C 0.84522 0.75395 0.85908 0.0
C1181 C 0.84769 0.77616 0.80716 0.0
C1182 C 0.84698 0.72998 0.8083 0.0
C1183 C 0.83828 0.71488 0.90246 0.0
N1184 N 0.84845 0.76128 0.81154 0.0
N1185 N 0.84046 0.72977 0.90374 0.0
H1186 H 0.6654 0.21661 0.45494 0.0
H1187 H 0.65245 0.29095 0.28359 0.0
H1188 H 0.65671 0.21945 0.28011 0.0
H1189 H 0.66881 0.29142 0.45083 0.0
H1190 H 0.6489 0.26446 0.29005 0.0
H1191 H 0.66227 0.24361 0.46173 0.0
C1192 C 0.66264 0.22288 0.41828 0.0
C1193 C 0.66151 0.21588 0.36675 0.0
C1194 C 0.65318 0.27029 0.32567 0.0
C1195 C 0.6578 0.24644 0.37421 0.0
C1196 C 0.65518 0.28545 0.32198 0.0
C1197 C 0.66115 0.29332 0.36643 0.0
C1198 C 0.65741 0.2628 0.37389 0.0
C1199 C 0.66425 0.28568 0.41553 0.0
C1200 C 0.6609 0.23823 0.42213 0.0
C1201 C 0.65792 0.22443 0.3205 0.0
N1202 N 0.66258 0.27073 0.41772 0.0
N1203 N 0.65625 0.23921 0.32534 0.0
H1204 H 0.84508 0.27884 0.22754 0.0
H1205 H 0.83582 0.20559 0.04835 0.0
H1206 H 0.83783 0.28036 0.05158 0.0
H1207 H 0.84655 0.20698 0.22186 0.0
H1208 H 0.83879 0.2326 0.04421 0.0
H1209 H 0.84795 0.2523 0.22221 0.0
C1210 C 0.84415 0.27354 0.18757 0.0
C1211 C 0.84104 0.28177 0.14003 0.0
C1212 C 0.84068 0.22692 0.08291 0.0
C1213 C 0.84415 0.25114 0.1335 0.0
C1214 C 0.83903 0.21154 0.08524 0.0
C1215 C 0.84073 0.20409 0.13571 0.0
C1216 C 0.8441 0.23477 0.13136 0.0
C1217 C 0.84489 0.21228 0.18227 0.0
C1218 C 0.84583 0.25834 0.18446 0.0
C1219 C 0.84017 0.27436 0.08922 0.0
N1220 N 0.84631 0.22712 0.179 0.0
N1221 N 0.84151 0.25937 0.08733 0.0
H1222 H 0.66188 0.71639 0.54991 0.0
H1223 H 0.64522 0.79145 0.71181 0.0
H1224 H 0.65115 0.72011 0.72287 0.0
H1225 H 0.6655 0.7911 0.55069 0.0
H1226 H 0.64177 0.76492 0.70592 0.0
H1227 H 0.65836 0.74327 0.54021 0.0
C1228 C 0.65858 0.72282 0.5855 0.0
C1229 C 0.65699 0.71612 0.63742 0.0
C1230 C 0.64686 0.77059 0.67148 0.0
C1231 C 0.65282 0.74654 0.62663 0.0
C1232 C 0.6488 0.78577 0.6748 0.0
C1233 C 0.65587 0.79341 0.63207 0.0
C1234 C 0.65224 0.76288 0.62543 0.0
C1235 C 0.66007 0.78555 0.58467 0.0
C1236 C 0.65662 0.7381 0.58001 0.0
C1237 C 0.65271 0.72487 0.68228 0.0
N1238 N 0.65842 0.7706 0.58295 0.0
N1239 N 0.65084 0.73958 0.67586 0.0
H1240 H 0.53994 0.40967 0.98745 0.0
H1241 H 0.46622 0.41419 0.80597 0.0
H1242 H 0.54112 0.4185 0.81236 0.0
H1243 H 0.46808 0.41157 0.98378 0.0
H1244 H 0.49339 0.41271 0.80325 0.0
H1245 H 0.51339 0.4069 0.9824 0.0
C1246 C 0.53459 0.41099 0.94773 0.0
C1247 C 0.54274 0.41451 0.90037 0.0
C1248 C 0.48777 0.41237 0.84269 0.0
C1249 C 0.51209 0.41148 0.89428 0.0
C1250 C 0.47231 0.41317 0.84425 0.0
C1251 C 0.46492 0.41315 0.89521 0.0
C1252 C 0.49573 0.41138 0.89241 0.0
C1253 C 0.4733 0.41181 0.94358 0.0
C1254 C 0.51938 0.40941 0.94485 0.0
C1255 C 0.53521 0.41586 0.84991 0.0
N1256 N 0.48819 0.41102 0.94093 0.0
N1257 N 0.52023 0.41449 0.84822 0.0
H1258 H 0.96325 0.59856 0.48196 0.0
H1259 H 0.03737 0.58722 0.30784 0.0
H1260 H 0.96284 0.58496 0.31123 0.0
H1261 H 0.03532 0.5972 0.48187 0.0
H1262 H 0.01036 0.58982 0.30269 0.0
H1263 H 0.9898 0.60181 0.47682 0.0
C1264 C 0.96876 0.59634 0.44314 0.0
C1265 C 0.96085 0.59129 0.39716 0.0
C1266 C 0.01589 0.5916 0.34177 0.0
C1267 C 0.99146 0.59483 0.39106 0.0
C1268 C 0.03127 0.59017 0.34468 0.0
C1269 C 0.03855 0.59183 0.3955 0.0
C1270 C 0.00785 0.59481 0.38996 0.0
C1271 C 0.03016 0.59563 0.44197 0.0
C1272 C 0.98397 0.59821 0.4402 0.0
C1273 C 0.96856 0.5888 0.34773 0.0
N1274 N 0.01531 0.5969 0.43811 0.0
N1275 N 0.98352 0.59041 0.34613 0.0
H1276 H 0.96323 0.41506 0.69549 0.0
H1277 H 0.03813 0.39754 0.53508 0.0
H1278 H 0.96663 0.39951 0.52764 0.0
H1279 H 0.03783 0.4164 0.69849 0.0
H1280 H 0.01166 0.39374 0.541 0.0
H1281 H 0.99009 0.41172 0.70597 0.0
C1282 C 0.96959 0.41073 0.66127 0.0
C1283 C 0.9628 0.40777 0.61035 0.0
C1284 C 0.01731 0.3986 0.57599 0.0
C1285 C 0.99323 0.40386 0.622 0.0
C1286 C 0.03245 0.40074 0.57258 0.0
C1287 C 0.04007 0.40747 0.61605 0.0
C1288 C 0.0096 0.40353 0.62277 0.0
C1289 C 0.03226 0.41122 0.66403 0.0
C1290 C 0.98487 0.40886 0.6672 0.0
C1291 C 0.97146 0.40218 0.5673 0.0
N1292 N 0.01732 0.40946 0.66579 0.0
N1293 N 0.98618 0.4005 0.57404 0.0
H1294 H 0.45557 0.58454 0.19248 0.0
H1295 H 0.5285 0.58804 0.00746 0.0
H1296 H 0.45657 0.59011 0.01552 0.0
H1297 H 0.53052 0.5859 0.18537 0.0
H1298 H 0.50191 0.58988 0.01247 0.0
H1299 H 0.4827 0.58632 0.19395 0.0
C1300 C 0.46146 0.58632 0.15415 0.0
C1301 C 0.45383 0.58703 0.10373 0.0
C1302 C 0.50808 0.58907 0.05066 0.0
C1303 C 0.48465 0.58899 0.10507 0.0
C1304 C 0.52333 0.58796 0.04778 0.0
C1305 C 0.53176 0.5867 0.09607 0.0
C1306 C 0.50102 0.58879 0.10224 0.0
C1307 C 0.5244 0.58682 0.14713 0.0
C1308 C 0.47691 0.58728 0.15499 0.0
C1309 C 0.46197 0.58932 0.05529 0.0
N1310 N 0.50938 0.58772 0.14893 0.0
N1311 N 0.47688 0.59013 0.0572 0.0
H1312 H 0.15642 0.11246 0.25148 0.0
H1313 H 0.09382 0.11673 0.48242 0.0
H1314 H 0.12775 0.15016 0.27079 0.0
H1315 H 0.13043 0.08632 0.48894 0.0
H1316 H 0.10463 0.12804 0.40019 0.0
H1317 H 0.14502 0.10119 0.33244 0.0
C1318 C 0.14761 0.1183 0.27233 0.0
C1319 C 0.14307 0.13231 0.25447 0.0
C1320 C 0.11033 0.11895 0.41986 0.0
C1321 C 0.13009 0.11951 0.34739 0.0
C1322 C 0.10419 0.11251 0.46683 0.0
C1323 C 0.11124 0.10056 0.49257 0.0
C1324 C 0.12351 0.11328 0.39813 0.0
C1325 C 0.12464 0.09554 0.47057 0.0
C1326 C 0.1412 0.1119 0.31882 0.0
C1327 C 0.13164 0.13937 0.28326 0.0
N1328 N 0.13029 0.10186 0.42435 0.0
N1329 N 0.12555 0.13289 0.32841 0.0
H1330 H 0.09629 0.8795 0.5169 0.0
H1331 H 0.1607 0.8849 0.74098 0.0
H1332 H 0.13262 0.91021 0.50503 0.0
H1333 H 0.13111 0.84765 0.72897 0.0
H1334 H 0.14896 0.8957 0.65968 0.0
H1335 H 0.10777 0.86862 0.59858 0.0
C1336 C 0.10674 0.88388 0.53119 0.0
C1337 C 0.11351 0.89579 0.50412 0.0
C1338 C 0.14502 0.88518 0.67495 0.0
C1339 C 0.12656 0.88354 0.59797 0.0
C1340 C 0.15164 0.87906 0.72161 0.0
C1341 C 0.1469 0.86533 0.7417 0.0
C1342 C 0.13353 0.87758 0.64847 0.0
C1343 C 0.13515 0.85824 0.71477 0.0
C1344 C 0.11327 0.87768 0.57787 0.0
C1345 C 0.12704 0.90101 0.52449 0.0
N1346 N 0.12887 0.86444 0.66949 0.0
N1347 N 0.13307 0.89492 0.57046 0.0
H1348 H 0.36626 0.90724 0.00097 0.0
H1349 H 0.37015 0.84651 0.76334 0.0
H1350 H 0.40468 0.88003 0.97389 0.0
H1351 H 0.33911 0.88265 0.7631 0.0
H1352 H 0.38192 0.85704 0.84522 0.0
H1353 H 0.35468 0.89618 0.91998 0.0
C1354 C 0.37221 0.89882 0.97839 0.0
C1355 C 0.3865 0.89459 0.99411 0.0
C1356 C 0.37259 0.8627 0.82698 0.0
C1357 C 0.37334 0.882 0.90114 0.0
C1358 C 0.36588 0.85672 0.78023 0.0
C1359 C 0.35363 0.86372 0.75638 0.0
C1360 C 0.36687 0.87564 0.85042 0.0
C1361 C 0.34857 0.87691 0.77999 0.0
C1362 C 0.36563 0.89261 0.93189 0.0
C1363 C 0.39367 0.88365 0.96313 0.0
N1364 N 0.35515 0.88239 0.82599 0.0
N1365 N 0.38702 0.87774 0.91801 0.0
H1366 H 0.40478 0.09901 0.0686 0.0
H1367 H 0.34679 0.15563 0.18072 0.0
H1368 H 0.36709 0.11032 0.96829 0.0
H1369 H 0.35944 0.11848 0.28163 0.0
H1370 H 0.35928 0.14422 0.10163 0.0
H1371 H 0.39318 0.11139 0.1475 0.0
C1372 C 0.39416 0.10428 0.06308 0.0
C1373 C 0.38682 0.1037 0.0121 0.0
C1374 C 0.35935 0.13867 0.14128 0.0
C1375 C 0.37379 0.11794 0.10129 0.0
C1376 C 0.35237 0.14517 0.18632 0.0
C1377 C 0.35215 0.13793 0.23753 0.0
C1378 C 0.3665 0.12512 0.14816 0.0
C1379 C 0.35937 0.12434 0.24266 0.0
C1380 C 0.38756 0.11121 0.10803 0.0
C1381 C 0.37302 0.11053 0.00709 0.0
N1382 N 0.36642 0.11839 0.19845 0.0
N1383 N 0.36696 0.11753 0.0512 0.0
H1384 H 0.90823 0.87927 0.52571 0.0
H1385 H 0.84254 0.87986 0.74419 0.0
H1386 H 0.86878 0.90547 0.50679 0.0
H1387 H 0.87171 0.84251 0.7263 0.0
H1388 H 0.85476 0.89171 0.66609 0.0
H1389 H 0.89724 0.86754 0.60721 0.0
C1390 C 0.89726 0.8825 0.53852 0.0
C1391 C 0.88939 0.89333 0.50936 0.0
C1392 C 0.85851 0.88095 0.67944 0.0
C1393 C 0.87695 0.8802 0.6027 0.0
C1394 C 0.85163 0.87421 0.72425 0.0
C1395 C 0.85607 0.86013 0.74157 0.0
C1396 C 0.87003 0.87363 0.65213 0.0
C1397 C 0.86788 0.85333 0.71405 0.0
C1398 C 0.89102 0.87582 0.58494 0.0
C1399 C 0.87521 0.89712 0.52779 0.0
N1400 N 0.87447 0.86016 0.67057 0.0
N1401 N 0.86949 0.89063 0.57351 0.0
H1402 H 0.86747 0.14946 0.26744 0.0
H1403 H 0.86627 0.08688 0.49693 0.0
H1404 H 0.8401 0.11052 0.25734 0.0
H1405 H 0.90529 0.11313 0.46748 0.0
H1406 H 0.85453 0.09844 0.41745 0.0
H1407 H 0.87996 0.13876 0.34796 0.0
C1408 C 0.86415 0.13864 0.28192 0.0
C1409 C 0.85273 0.13086 0.25571 0.0
C1410 C 0.86565 0.10169 0.42848 0.0
C1411 C 0.86672 0.11879 0.34786 0.0
C1412 C 0.87233 0.09519 0.47409 0.0
C1413 C 0.88682 0.09901 0.4887 0.0
C1414 C 0.87342 0.11223 0.3976 0.0
C1415 C 0.89413 0.10982 0.45741 0.0
C1416 C 0.87128 0.13258 0.32773 0.0
C1417 C 0.84888 0.11689 0.27611 0.0
N1418 N 0.88733 0.1161 0.41322 0.0
N1419 N 0.85576 0.11137 0.32129 0.0
H1420 H 0.62863 0.13164 0.28726 0.0
H1421 H 0.62625 0.11993 0.97024 0.0
H1422 H 0.64928 0.1635 0.17967 0.0
H1423 H 0.58781 0.1105 0.06942 0.0
H1424 H 0.63626 0.13471 0.04643 0.0
H1425 H 0.61456 0.12218 0.20842 0.0
C1426 C 0.63005 0.13674 0.24714 0.0
C1427 C 0.64011 0.14831 0.23969 0.0
C1428 C 0.62553 0.12957 0.05097 0.0
C1429 C 0.62441 0.13739 0.14973 0.0
C1430 C 0.61987 0.12111 0.00778 0.0
C1431 C 0.60624 0.11395 0.0138 0.0
C1432 C 0.61769 0.13049 0.10079 0.0
C1433 C 0.59836 0.11586 0.06315 0.0
C1434 C 0.622 0.1314 0.20238 0.0
C1435 C 0.64156 0.15459 0.187 0.0
N1436 N 0.60433 0.12373 0.10527 0.0
N1437 N 0.634 0.14884 0.1436 0.0
H1438 H 0.63122 0.85044 0.76104 0.0
H1439 H 0.63548 0.9117 0.99673 0.0
H1440 H 0.6631 0.88588 0.76088 0.0
H1441 H 0.59664 0.88513 0.96808 0.0
H1442 H 0.6471 0.9004 0.91624 0.0
H1443 H 0.61936 0.86152 0.8416 0.0
C1444 C 0.63566 0.86061 0.77769 0.0
C1445 C 0.64817 0.86725 0.75424 0.0
C1446 C 0.63604 0.89703 0.92767 0.0
C1447 C 0.6348 0.87982 0.84678 0.0
C1448 C 0.62945 0.90338 0.97387 0.0
C1449 C 0.61505 0.89938 0.98908 0.0
C1450 C 0.62825 0.88649 0.89678 0.0
C1451 C 0.60774 0.88859 0.95772 0.0
C1452 C 0.62889 0.86691 0.82368 0.0
C1453 C 0.65345 0.88042 0.7775 0.0
N1454 N 0.61443 0.88251 0.91302 0.0
N1455 N 0.6468 0.88622 0.8228 0.0
H1456 H 0.58305 0.60944 0.93491 0.0
H1457 H 0.64448 0.66546 0.82871 0.0
H1458 H 0.61977 0.62272 0.03712 0.0
H1459 H 0.62557 0.63167 0.72491 0.0
H1460 H 0.62999 0.656 0.90674 0.0
H1461 H 0.59325 0.62406 0.85893 0.0
C1462 C 0.59309 0.61567 0.94174 0.0
C1463 C 0.60069 0.61477 0.99213 0.0
C1464 C 0.6289 0.65085 0.86659 0.0
C1465 C 0.61221 0.63154 0.90587 0.0
C1466 C 0.63707 0.65624 0.82214 0.0
C1467 C 0.63627 0.64922 0.7706 0.0
C1468 C 0.61966 0.63861 0.85884 0.0
C1469 C 0.62658 0.63728 0.76421 0.0
C1470 C 0.5989 0.62392 0.89835 0.0
C1471 C 0.61368 0.62301 0.99867 0.0
N1472 N 0.61863 0.63233 0.80793 0.0
N1473 N 0.61908 0.63105 0.95585 0.0
H1474 H 0.66222 0.38642 0.24267 0.0
H1475 H 0.59753 0.38364 0.02408 0.0
H1476 H 0.63615 0.34683 0.22334 0.0
H1477 H 0.63746 0.40895 0.00062 0.0
H1478 H 0.60909 0.37137 0.10355 0.0
H1479 H 0.65022 0.39686 0.16177 0.0
C1480 C 0.65386 0.37996 0.22173 0.0
C1481 C 0.65021 0.36571 0.23967 0.0
C1482 C 0.61529 0.37952 0.08046 0.0
C1483 C 0.63647 0.37762 0.14687 0.0
C1484 C 0.60875 0.38651 0.03527 0.0
C1485 C 0.61653 0.39739 0.00591 0.0
C1486 C 0.62955 0.38369 0.09675 0.0
C1487 C 0.63103 0.40066 0.02203 0.0
C1488 C 0.64712 0.38589 0.17528 0.0
C1489 C 0.63932 0.35784 0.21067 0.0
N1490 N 0.637 0.39397 0.06678 0.0
N1491 N 0.63276 0.36394 0.16559 0.0
H1492 H 0.87317 0.38215 0.52633 0.0
H1493 H 0.87389 0.367 0.21076 0.0
H1494 H 0.91262 0.39045 0.43134 0.0
H1495 H 0.85238 0.33625 0.32048 0.0
H1496 H 0.88707 0.37751 0.28996 0.0
H1497 H 0.86377 0.36682 0.45054 0.0
C1498 C 0.87989 0.38063 0.48976 0.0
C1499 C 0.89364 0.38759 0.48484 0.0
C1500 C 0.87964 0.3683 0.29642 0.0
C1501 C 0.8829 0.37041 0.39833 0.0
C1502 C 0.87211 0.36235 0.25144 0.0
C1503 C 0.86207 0.35078 0.25934 0.0
C1504 C 0.87671 0.36292 0.34962 0.0
C1505 C 0.86011 0.34512 0.31278 0.0
C1506 C 0.87457 0.37185 0.44683 0.0
C1507 C 0.90196 0.38525 0.43675 0.0
N1508 N 0.86716 0.35146 0.35625 0.0
N1509 N 0.89634 0.37705 0.39482 0.0
H1510 H 0.83809 0.61289 0.7371 0.0
H1511 H 0.90242 0.61905 0.51579 0.0
H1512 H 0.86323 0.653 0.71573 0.0
H1513 H 0.86578 0.58886 0.49956 0.0
H1514 H 0.88996 0.63065 0.59432 0.0
H1515 H 0.85033 0.60248 0.65634 0.0
C1516 C 0.84627 0.61947 0.71569 0.0
C1517 C 0.84964 0.63384 0.73313 0.0
C1518 C 0.88463 0.62157 0.57316 0.0
C1519 C 0.86364 0.62199 0.64064 0.0
C1520 C 0.89171 0.61495 0.52842 0.0
C1521 C 0.88513 0.60295 0.50122 0.0
C1522 C 0.87103 0.61596 0.59126 0.0
C1523 C 0.87124 0.59809 0.51923 0.0
C1524 C 0.85316 0.61356 0.66935 0.0
C1525 C 0.86028 0.64189 0.70356 0.0
N1526 N 0.86472 0.60452 0.56352 0.0
N1527 N 0.86696 0.63582 0.65877 0.0
H1528 H 0.35494 0.33659 0.17865 0.0
H1529 H 0.41343 0.39519 0.06799 0.0
H1530 H 0.36981 0.37356 0.2763 0.0
H1531 H 0.3792 0.37692 0.96456 0.0
H1532 H 0.40362 0.38109 0.1463 0.0
H1533 H 0.37008 0.34545 0.10152 0.0
C1534 C 0.36161 0.3464 0.18419 0.0
C1535 C 0.36104 0.35448 0.23356 0.0
C1536 C 0.39847 0.38001 0.10613 0.0
C1537 C 0.37842 0.36442 0.14633 0.0
C1538 C 0.40407 0.38795 0.06149 0.0
C1539 C 0.39698 0.3873 0.01003 0.0
C1540 C 0.38593 0.37116 0.09874 0.0
C1541 C 0.38485 0.37783 0.0038 0.0
C1542 C 0.37017 0.35144 0.14022 0.0
C1543 C 0.36984 0.36713 0.23861 0.0
N1544 N 0.37965 0.37013 0.04781 0.0
N1545 N 0.37818 0.37176 0.19537 0.0
H1546 H 0.35928 0.59081 0.99252 0.0
H1547 H 0.36533 0.65754 0.78154 0.0
H1548 H 0.39931 0.61645 0.97911 0.0
H1549 H 0.338 0.61919 0.75345 0.0
H1550 H 0.37637 0.64503 0.86149 0.0
H1551 H 0.34924 0.60403 0.91335 0.0
C1552 C 0.36591 0.59932 0.97326 0.0
C1553 C 0.38018 0.6025 0.99229 0.0
C1554 C 0.36802 0.63938 0.83741 0.0
C1555 C 0.36874 0.61763 0.90164 0.0
C1556 C 0.36172 0.64648 0.79194 0.0
C1557 C 0.35072 0.63939 0.76086 0.0
C1558 C 0.36303 0.62527 0.8523 0.0
C1559 C 0.34647 0.62507 0.77608 0.0
C1560 C 0.36021 0.60677 0.92783 0.0
C1561 C 0.38829 0.61361 0.96552 0.0
N1562 N 0.35253 0.61855 0.82103 0.0
N1563 N 0.38243 0.62084 0.92147 0.0
H1564 H 0.12975 0.65879 0.7251 0.0
H1565 H 0.13379 0.59447 0.50313 0.0
H1566 H 0.15811 0.62079 0.74178 0.0
H1567 H 0.09359 0.61906 0.52917 0.0
H1568 H 0.14489 0.60719 0.58148 0.0
H1569 H 0.11794 0.64702 0.6451 0.0
C1570 C 0.13343 0.64797 0.71213 0.0
C1571 C 0.14491 0.64074 0.74012 0.0
C1572 C 0.13365 0.60982 0.56992 0.0
C1573 C 0.13172 0.62747 0.6486 0.0
C1574 C 0.12733 0.60265 0.52498 0.0
C1575 C 0.11271 0.60566 0.50976 0.0
C1576 C 0.12538 0.62023 0.59947 0.0
C1577 C 0.10487 0.61635 0.53976 0.0
C1578 C 0.1267 0.64129 0.66665 0.0
C1579 C 0.14926 0.62673 0.72164 0.0
N1580 N 0.11133 0.6233 0.58329 0.0
N1581 N 0.14275 0.62062 0.67674 0.0
H1582 H 0.13354 0.37425 0.21704 0.0
H1583 H 0.12976 0.38581 0.53532 0.0
H1584 H 0.15039 0.3407 0.32662 0.0
H1585 H 0.09262 0.39776 0.43316 0.0
H1586 H 0.1397 0.3712 0.45856 0.0
H1587 H 0.12025 0.38529 0.29498 0.0
C1588 C 0.13432 0.36916 0.25742 0.0
C1589 C 0.14304 0.35659 0.26567 0.0
C1590 C 0.12929 0.3769 0.45338 0.0
C1591 C 0.12825 0.36927 0.35448 0.0
C1592 C 0.12368 0.38527 0.49685 0.0
C1593 C 0.1104 0.39299 0.49031 0.0
C1594 C 0.12176 0.37664 0.40279 0.0
C1595 C 0.10288 0.39192 0.4398 0.0
C1596 C 0.12672 0.3754 0.30162 0.0
C1597 C 0.14371 0.35037 0.31865 0.0
N1598 N 0.1088 0.38408 0.3975 0.0
N1599 N 0.13661 0.35694 0.36145 0.0
loop_
_geom_bond_atom_site_label_1
_geom_bond_atom_site_label_2
_geom_bond_distance
_geom_bond_site_symmetry_2
_ccdc_geom_bond_type
O0 Cd1 2.223 . S
O0 C8 1.315 . S
Cd1 O0 2.223 . S
Cd1 O4 2.297 . S
Cd1 O5 2.439 . S
Cd1 O11 2.240 . S
Cd2 O3 2.240 . S
Cd2 O10 2.223 . S
Cd2 O12 2.297 . S
Cd2 O13 2.439 . S
O3 Cd2 2.240 . S
O3 C8 1.279 . S
O4 Cd1 2.297 . S
O4 C6 1.247 . S
O5 Cd1 2.439 . S
O5 C6 1.208 . S
C6 O4 1.247 . S
C6 O5 1.208 . S
C7 O12 1.247 . S
C7 O13 1.208 . S
C8 O0 1.315 . S
C8 O3 1.279 . S
C9 O10 1.315 . S
C9 O11 1.279 . S
O10 Cd2 2.223 . S
O10 C9 1.315 . S
O11 Cd1 2.240 . S
O11 C9 1.279 . S
O12 Cd2 2.297 . S
O12 C7 1.247 . S
O13 Cd2 2.439 . S
O13 C7 1.208 . S
O14 Cd15 2.223 . S
O14 C22 1.315 . S
Cd15 O14 2.223 . S
Cd15 O18 2.297 . S
Cd15 O19 2.439 . S
Cd15 O25 2.240 . S
Cd16 O17 2.240 . S
Cd16 O24 2.223 . S
Cd16 O26 2.297 . S
Cd16 O27 2.439 . S
O17 Cd16 2.240 . S
O17 C22 1.279 . S
O18 Cd15 2.297 . S
O18 C20 1.247 . S
O19 Cd15 2.439 . S
O19 C20 1.208 . S
C20 O18 1.247 . S
C20 O19 1.208 . S
C21 O26 1.247 . S
C21 O27 1.208 . S
C22 O14 1.315 . S
C22 O17 1.279 . S
C23 O24 1.315 . S
C23 O25 1.279 . S
O24 Cd16 2.223 . S
O24 C23 1.315 . S
O25 Cd15 2.240 . S
O25 C23 1.279 . S
O26 Cd16 2.297 . S
O26 C21 1.247 . S
O27 Cd16 2.439 . S
O27 C21 1.208 . S
O28 Cd29 2.223 . S
O28 C36 1.315 . S
Cd29 O28 2.223 . S
Cd29 O32 2.297 . S
Cd29 O33 2.439 . S
Cd29 O39 2.240 . S
Cd30 O31 2.240 . S
Cd30 O38 2.223 . S
Cd30 O40 2.297 . S
Cd30 O41 2.439 . S
O31 Cd30 2.240 . S
O31 C36 1.279 . S
O32 Cd29 2.297 . S
O32 C34 1.247 . S
O33 Cd29 2.439 . S
O33 C34 1.208 . S
C34 O32 1.247 . S
C34 O33 1.208 . S
C35 O40 1.247 . S
C35 O41 1.208 . S
C36 O28 1.315 . S
C36 O31 1.279 . S
C37 O38 1.315 . S
C37 O39 1.279 . S
O38 Cd30 2.223 . S
O38 C37 1.315 . S
O39 Cd29 2.240 . S
O39 C37 1.279 . S
O40 Cd30 2.297 . S
O40 C35 1.247 . S
O41 Cd30 2.439 . S
O41 C35 1.208 . S
O42 Cd43 2.223 . S
O42 C50 1.315 . S
Cd43 O42 2.223 . S
Cd43 O46 2.297 . S
Cd43 O47 2.439 . S
Cd43 O53 2.240 . S
Cd44 O45 2.240 . S
Cd44 O52 2.223 . S
Cd44 O54 2.297 . S
Cd44 O55 2.439 . S
O45 Cd44 2.240 . S
O45 C50 1.279 . S
O46 Cd43 2.297 . S
O46 C48 1.247 . S
O47 Cd43 2.439 . S
O47 C48 1.208 . S
C48 O46 1.247 . S
C48 O47 1.208 . S
C49 O54 1.247 . S
C49 O55 1.208 . S
C50 O42 1.315 . S
C50 O45 1.279 . S
C51 O52 1.315 . S
C51 O53 1.279 . S
O52 Cd44 2.223 . S
O52 C51 1.315 . S
O53 Cd43 2.240 . S
O53 C51 1.279 . S
O54 Cd44 2.297 . S
O54 C49 1.247 . S
O55 Cd44 2.439 . S
O55 C49 1.208 . S
O56 Cd57 2.223 . S
O56 C64 1.315 . S
Cd57 O56 2.223 . S
Cd57 O60 2.297 . S
Cd57 O61 2.439 . S
Cd57 O67 2.240 . S
Cd58 O59 2.240 . S
Cd58 O66 2.223 . S
Cd58 O68 2.297 . S
Cd58 O69 2.439 . S
O59 Cd58 2.240 . S
O59 C64 1.279 . S
O60 Cd57 2.297 . S
O60 C62 1.247 . S
O61 Cd57 2.439 . S
O61 C62 1.208 . S
C62 O60 1.247 . S
C62 O61 1.208 . S
C63 O68 1.247 . S
C63 O69 1.208 . S
C64 O56 1.315 . S
C64 O59 1.279 . S
C65 O66 1.315 . S
C65 O67 1.279 . S
O66 Cd58 2.223 . S
O66 C65 1.315 . S
O67 Cd57 2.240 . S
O67 C65 1.279 . S
O68 Cd58 2.297 . S
O68 C63 1.247 . S
O69 Cd58 2.439 . S
O69 C63 1.208 . S
O70 Cd71 2.223 . S
O70 C78 1.315 . S
Cd71 O70 2.223 . S
Cd71 O74 2.297 . S
Cd71 O75 2.439 . S
Cd71 O81 2.240 . S
Cd72 O73 2.240 . S
Cd72 O80 2.223 . S
Cd72 O82 2.297 . S
Cd72 O83 2.439 . S
O73 Cd72 2.240 . S
O73 C78 1.279 . S
O74 Cd71 2.297 . S
O74 C76 1.247 . S
O75 Cd71 2.439 . S
O75 C76 1.208 . S
C76 O74 1.247 . S
C76 O75 1.208 . S
C77 O82 1.247 . S
C77 O83 1.208 . S
C78 O70 1.315 . S
C78 O73 1.279 . S
C79 O80 1.315 . S
C79 O81 1.279 . S
O80 Cd72 2.223 . S
O80 C79 1.315 . S
O81 Cd71 2.240 . S
O81 C79 1.279 . S
O82 Cd72 2.297 . S
O82 C77 1.247 . S
O83 Cd72 2.439 . S
O83 C77 1.208 . S
O84 Cd85 2.223 . S
O84 C92 1.315 . S
Cd85 O84 2.223 . S
Cd85 O88 2.297 . S
Cd85 O89 2.439 . S
Cd85 O95 2.240 . S
Cd86 O87 2.240 . S
Cd86 O94 2.223 . S
Cd86 O96 2.297 . S
Cd86 O97 2.439 . S
O87 Cd86 2.240 . S
O87 C92 1.279 . S
O88 Cd85 2.297 . S
O88 C90 1.247 . S
O89 Cd85 2.439 . S
O89 C90 1.208 . S
C90 O88 1.247 . S
C90 O89 1.208 . S
C91 O96 1.247 . S
C91 O97 1.208 . S
C92 O84 1.315 . S
C92 O87 1.279 . S
C93 O94 1.315 . S
C93 O95 1.279 . S
O94 Cd86 2.223 . S
O94 C93 1.315 . S
O95 Cd85 2.240 . S
O95 C93 1.279 . S
O96 Cd86 2.297 . S
O96 C91 1.247 . S
O97 Cd86 2.439 . S
O97 C91 1.208 . S
O98 Cd99 2.223 . S
O98 C106 1.315 . S
Cd99 O98 2.223 . S
Cd99 O102 2.297 . S
Cd99 O103 2.439 . S
Cd99 O109 2.240 . S
Cd100 O101 2.240 . S
Cd100 O108 2.223 . S
Cd100 O110 2.297 . S
Cd100 O111 2.439 . S
O101 Cd100 2.240 . S
O101 C106 1.279 . S
O102 Cd99 2.297 . S
O102 C104 1.247 . S
O103 Cd99 2.439 . S
O103 C104 1.208 . S
C104 O102 1.247 . S
C104 O103 1.208 . S
C105 O110 1.247 . S
C105 O111 1.208 . S
C106 O98 1.315 . S
C106 O101 1.279 . S
C107 O108 1.315 . S
C107 O109 1.279 . S
O108 Cd100 2.223 . S
O108 C107 1.315 . S
O109 Cd99 2.240 . S
O109 C107 1.279 . S
O110 Cd100 2.297 . S
O110 C105 1.247 . S
O111 Cd100 2.439 . S
O111 C105 1.208 . S
O112 Cd113 2.223 . S
O112 C120 1.315 . S
Cd113 O112 2.223 . S
Cd113 O116 2.297 . S
Cd113 O117 2.439 . S
Cd113 O123 2.240 . S
Cd114 O115 2.240 . S
Cd114 O122 2.223 . S
Cd114 O124 2.297 . S
Cd114 O125 2.439 . S
O115 Cd114 2.240 . S
O115 C120 1.279 . S
O116 Cd113 2.297 . S
O116 C118 1.247 . S
O117 Cd113 2.439 . S
O117 C118 1.208 . S
C118 O116 1.247 . S
C118 O117 1.208 . S
C119 O124 1.247 . S
C119 O125 1.208 . S
C120 O112 1.315 . S
C120 O115 1.279 . S
C121 O122 1.315 . S
C121 O123 1.279 . S
O122 Cd114 2.223 . S
O122 C121 1.315 . S
O123 Cd113 2.240 . S
O123 C121 1.279 . S
O124 Cd114 2.297 . S
O124 C119 1.247 . S
O125 Cd114 2.439 . S
O125 C119 1.208 . S
O126 Cd127 2.223 . S
O126 C134 1.315 . S
Cd127 O126 2.223 . S
Cd127 O130 2.297 . S
Cd127 O131 2.439 . S
Cd127 O137 2.240 . S
Cd128 O129 2.240 . S
Cd128 O136 2.223 . S
Cd128 O138 2.297 . S
Cd128 O139 2.439 . S
O129 Cd128 2.240 . S
O129 C134 1.279 . S
O130 Cd127 2.297 . S
O130 C132 1.247 . S
O131 Cd127 2.439 . S
O131 C132 1.208 . S
C132 O130 1.247 . S
C132 O131 1.208 . S
C133 O138 1.247 . S
C133 O139 1.208 . S
C134 O126 1.315 . S
C134 O129 1.279 . S
C135 O136 1.315 . S
C135 O137 1.279 . S
O136 Cd128 2.223 . S
O136 C135 1.315 . S
O137 Cd127 2.240 . S
O137 C135 1.279 . S
O138 Cd128 2.297 . S
O138 C133 1.247 . S
O139 Cd128 2.439 . S
O139 C133 1.208 . S
O140 Cd141 2.223 . S
O140 C148 1.315 . S
Cd141 O140 2.223 . S
Cd141 O144 2.297 . S
Cd141 O145 2.439 . S
Cd141 O151 2.240 . S
Cd142 O143 2.240 . S
Cd142 O150 2.223 . S
Cd142 O152 2.297 . S
Cd142 O153 2.439 . S
O143 Cd142 2.240 . S
O143 C148 1.279 . S
O144 Cd141 2.297 . S
O144 C146 1.247 . S
O145 Cd141 2.439 . S
O145 C146 1.208 . S
C146 O144 1.247 . S
C146 O145 1.208 . S
C147 O152 1.247 . S
C147 O153 1.208 . S
C148 O140 1.315 . S
C148 O143 1.279 . S
C149 O150 1.315 . S
C149 O151 1.279 . S
O150 Cd142 2.223 . S
O150 C149 1.315 . S
O151 Cd141 2.240 . S
O151 C149 1.279 . S
O152 Cd142 2.297 . S
O152 C147 1.247 . S
O153 Cd142 2.439 . S
O153 C147 1.208 . S
O154 Cd155 2.223 . S
O154 C162 1.315 . S
Cd155 O154 2.223 . S
Cd155 O158 2.297 . S
Cd155 O159 2.439 . S
Cd155 O165 2.240 . S
Cd156 O157 2.240 . S
Cd156 O164 2.223 . S
Cd156 O166 2.297 . S
Cd156 O167 2.439 . S
O157 Cd156 2.240 . S
O157 C162 1.279 . S
O158 Cd155 2.297 . S
O158 C160 1.247 . S
O159 Cd155 2.439 . S
O159 C160 1.208 . S
C160 O158 1.247 . S
C160 O159 1.208 . S
C161 O166 1.247 . S
C161 O167 1.208 . S
C162 O154 1.315 . S
C162 O157 1.279 . S
C163 O164 1.315 . S
C163 O165 1.279 . S
O164 Cd156 2.223 . S
O164 C163 1.315 . S
O165 Cd155 2.240 . S
O165 C163 1.279 . S
O166 Cd156 2.297 . S
O166 C161 1.247 . S
O167 Cd156 2.439 . S
O167 C161 1.208 . S
O168 Cd169 2.223 . S
O168 C176 1.315 . S
Cd169 O168 2.223 . S
Cd169 O172 2.297 . S
Cd169 O173 2.439 . S
Cd169 O179 2.240 . S
Cd170 O171 2.240 . S
Cd170 O178 2.223 . S
Cd170 O180 2.297 . S
Cd170 O181 2.439 . S
O171 Cd170 2.240 . S
O171 C176 1.279 . S
O172 Cd169 2.297 . S
O172 C174 1.247 . S
O173 Cd169 2.439 . S
O173 C174 1.208 . S
C174 O172 1.247 . S
C174 O173 1.208 . S
C175 O180 1.247 . S
C175 O181 1.208 . S
C176 O168 1.315 . S
C176 O171 1.279 . S
C177 O178 1.315 . S
C177 O179 1.279 . S
O178 Cd170 2.223 . S
O178 C177 1.315 . S
O179 Cd169 2.240 . S
O179 C177 1.279 . S
O180 Cd170 2.297 . S
O180 C175 1.247 . S
O181 Cd170 2.439 . S
O181 C175 1.208 . S
O182 Cd183 2.223 . S
O182 C190 1.315 . S
Cd183 O182 2.223 . S
Cd183 O186 2.297 . S
Cd183 O187 2.439 . S
Cd183 O193 2.240 . S
Cd184 O185 2.240 . S
Cd184 O192 2.223 . S
Cd184 O194 2.297 . S
Cd184 O195 2.439 . S
O185 Cd184 2.240 . S
O185 C190 1.279 . S
O186 Cd183 2.297 . S
O186 C188 1.247 . S
O187 Cd183 2.439 . S
O187 C188 1.208 . S
C188 O186 1.247 . S
C188 O187 1.208 . S
C189 O194 1.247 . S
C189 O195 1.208 . S
C190 O182 1.315 . S
C190 O185 1.279 . S
C191 O192 1.315 . S
C191 O193 1.279 . S
O192 Cd184 2.223 . S
O192 C191 1.315 . S
O193 Cd183 2.240 . S
O193 C191 1.279 . S
O194 Cd184 2.297 . S
O194 C189 1.247 . S
O195 Cd184 2.439 . S
O195 C189 1.208 . S
O196 Cd197 2.223 . S
O196 C204 1.315 . S
Cd197 O196 2.223 . S
Cd197 O200 2.297 . S
Cd197 O201 2.439 . S
Cd197 O207 2.240 . S
Cd198 O199 2.240 . S
Cd198 O206 2.223 . S
Cd198 O208 2.297 . S
Cd198 O209 2.439 . S
O199 Cd198 2.240 . S
O199 C204 1.279 . S
O200 Cd197 2.297 . S
O200 C202 1.247 . S
O201 Cd197 2.439 . S
O201 C202 1.208 . S
C202 O200 1.247 . S
C202 O201 1.208 . S
C203 O208 1.247 . S
C203 O209 1.208 . S
C204 O196 1.315 . S
C204 O199 1.279 . S
C205 O206 1.315 . S
C205 O207 1.279 . S
O206 Cd198 2.223 . S
O206 C205 1.315 . S
O207 Cd197 2.240 . S
O207 C205 1.279 . S
O208 Cd198 2.297 . S
O208 C203 1.247 . S
O209 Cd198 2.439 . S
O209 C203 1.208 . S
O210 Cd211 2.223 . S
O210 C218 1.315 . S
Cd211 O210 2.223 . S
Cd211 O214 2.297 . S
Cd211 O215 2.439 . S
Cd211 O221 2.240 . S
Cd212 O213 2.240 . S
Cd212 O220 2.223 . S
Cd212 O222 2.297 . S
Cd212 O223 2.439 . S
O213 Cd212 2.240 . S
O213 C218 1.279 . S
O214 Cd211 2.297 . S
O214 C216 1.247 . S
O215 Cd211 2.439 . S
O215 C216 1.208 . S
C216 O214 1.247 . S
C216 O215 1.208 . S
C217 O222 1.247 . S
C217 O223 1.208 . S
C218 O210 1.315 . S
C218 O213 1.279 . S
C219 O220 1.315 . S
C219 O221 1.279 . S
O220 Cd212 2.223 . S
O220 C219 1.315 . S
O221 Cd211 2.240 . S
O221 C219 1.279 . S
O222 Cd212 2.297 . S
O222 C217 1.247 . S
O223 Cd212 2.439 . S
O223 C217 1.208 . S
O224 Cd225 2.223 . S
O224 C232 1.315 . S
Cd225 O224 2.223 . S
Cd225 O228 2.297 . S
Cd225 O229 2.439 . S
Cd225 O235 2.240 . S
Cd226 O227 2.240 . S
Cd226 O234 2.223 . S
Cd226 O236 2.297 . S
Cd226 O237 2.439 . S
O227 Cd226 2.240 . S
O227 C232 1.279 . S
O228 Cd225 2.297 . S
O228 C230 1.247 . S
O229 Cd225 2.439 . S
O229 C230 1.208 . S
C230 O228 1.247 . S
C230 O229 1.208 . S
C231 O236 1.247 . S
C231 O237 1.208 . S
C232 O224 1.315 . S
C232 O227 1.279 . S
C233 O234 1.315 . S
C233 O235 1.279 . S
O234 Cd226 2.223 . S
O234 C233 1.315 . S
O235 Cd225 2.240 . S
O235 C233 1.279 . S
O236 Cd226 2.297 . S
O236 C231 1.247 . S
O237 Cd226 2.439 . S
O237 C231 1.208 . S
O238 Cd239 2.223 . S
O238 C246 1.315 . S
Cd239 O238 2.223 . S
Cd239 O242 2.297 . S
Cd239 O243 2.439 . S
Cd239 O249 2.240 . S
Cd240 O241 2.240 . S
Cd240 O248 2.223 . S
Cd240 O250 2.297 . S
Cd240 O251 2.439 . S
O241 Cd240 2.240 . S
O241 C246 1.279 . S
O242 Cd239 2.297 . S
O242 C244 1.247 . S
O243 Cd239 2.439 . S
O243 C244 1.208 . S
C244 O242 1.247 . S
C244 O243 1.208 . S
C245 O250 1.247 . S
C245 O251 1.208 . S
C246 O238 1.315 . S
C246 O241 1.279 . S
C247 O248 1.315 . S
C247 O249 1.279 . S
O248 Cd240 2.223 . S
O248 C247 1.315 . S
O249 Cd239 2.240 . S
O249 C247 1.279 . S
O250 Cd240 2.297 . S
O250 C245 1.247 . S
O251 Cd240 2.439 . S
O251 C245 1.208 . S
O252 Cd253 2.223 . S
O252 C260 1.315 . S
Cd253 O252 2.223 . S
Cd253 O256 2.297 . S
Cd253 O257 2.439 . S
Cd253 O263 2.240 . S
Cd254 O255 2.240 . S
Cd254 O262 2.223 . S
Cd254 O264 2.297 . S
Cd254 O265 2.439 . S
O255 Cd254 2.240 . S
O255 C260 1.279 . S
O256 Cd253 2.297 . S
O256 C258 1.247 . S
O257 Cd253 2.439 . S
O257 C258 1.208 . S
C258 O256 1.247 . S
C258 O257 1.208 . S
C259 O264 1.247 . S
C259 O265 1.208 . S
C260 O252 1.315 . S
C260 O255 1.279 . S
C261 O262 1.315 . S
C261 O263 1.279 . S
O262 Cd254 2.223 . S
O262 C261 1.315 . S
O263 Cd253 2.240 . S
O263 C261 1.279 . S
O264 Cd254 2.297 . S
O264 C259 1.247 . S
O265 Cd254 2.439 . S
O265 C259 1.208 . S
O266 Cd267 2.223 . S
O266 C274 1.315 . S
Cd267 O266 2.223 . S
Cd267 O270 2.297 . S
Cd267 O271 2.439 . S
Cd267 O277 2.240 . S
Cd268 O269 2.240 . S
Cd268 O276 2.223 . S
Cd268 O278 2.297 . S
Cd268 O279 2.439 . S
O269 Cd268 2.240 . S
O269 C274 1.279 . S
O270 Cd267 2.297 . S
O270 C272 1.247 . S
O271 Cd267 2.439 . S
O271 C272 1.208 . S
C272 O270 1.247 . S
C272 O271 1.208 . S
C273 O278 1.247 . S
C273 O279 1.208 . S
C274 O266 1.315 . S
C274 O269 1.279 . S
C275 O276 1.315 . S
C275 O277 1.279 . S
O276 Cd268 2.223 . S
O276 C275 1.315 . S
O277 Cd267 2.240 . S
O277 C275 1.279 . S
O278 Cd268 2.297 . S
O278 C273 1.247 . S
O279 Cd268 2.439 . S
O279 C273 1.208 . S
O280 Cd281 2.223 . S
O280 C288 1.315 . S
Cd281 O280 2.223 . S
Cd281 O284 2.297 . S
Cd281 O285 2.439 . S
Cd281 O291 2.240 . S
Cd282 O283 2.240 . S
Cd282 O290 2.223 . S
Cd282 O292 2.297 . S
Cd282 O293 2.439 . S
O283 Cd282 2.240 . S
O283 C288 1.279 . S
O284 Cd281 2.297 . S
O284 C286 1.247 . S
O285 Cd281 2.439 . S
O285 C286 1.208 . S
C286 O284 1.247 . S
C286 O285 1.208 . S
C287 O292 1.247 . S
C287 O293 1.208 . S
C288 O280 1.315 . S
C288 O283 1.279 . S
C289 O290 1.315 . S
C289 O291 1.279 . S
O290 Cd282 2.223 . S
O290 C289 1.315 . S
O291 Cd281 2.240 . S
O291 C289 1.279 . S
O292 Cd282 2.297 . S
O292 C287 1.247 . S
O293 Cd282 2.439 . S
O293 C287 1.208 . S
O294 Cd295 2.223 . S
O294 C302 1.315 . S
Cd295 O294 2.223 . S
Cd295 O298 2.297 . S
Cd295 O299 2.439 . S
Cd295 O305 2.240 . S
Cd296 O297 2.240 . S
Cd296 O304 2.223 . S
Cd296 O306 2.297 . S
Cd296 O307 2.439 . S
O297 Cd296 2.240 . S
O297 C302 1.279 . S
O298 Cd295 2.297 . S
O298 C300 1.247 . S
O299 Cd295 2.439 . S
O299 C300 1.208 . S
C300 O298 1.247 . S
C300 O299 1.208 . S
C301 O306 1.247 . S
C301 O307 1.208 . S
C302 O294 1.315 . S
C302 O297 1.279 . S
C303 O304 1.315 . S
C303 O305 1.279 . S
O304 Cd296 2.223 . S
O304 C303 1.315 . S
O305 Cd295 2.240 . S
O305 C303 1.279 . S
O306 Cd296 2.297 . S
O306 C301 1.247 . S
O307 Cd296 2.439 . S
O307 C301 1.208 . S
O308 Cd309 2.223 . S
O308 C316 1.315 . S
Cd309 O308 2.223 . S
Cd309 O312 2.297 . S
Cd309 O313 2.439 . S
Cd309 O319 2.240 . S
Cd310 O311 2.240 . S
Cd310 O318 2.223 . S
Cd310 O320 2.297 . S
Cd310 O321 2.439 . S
O311 Cd310 2.240 . S
O311 C316 1.279 . S
O312 Cd309 2.297 . S
O312 C314 1.247 . S
O313 Cd309 2.439 . S
O313 C314 1.208 . S
C314 O312 1.247 . S
C314 O313 1.208 . S
C315 O320 1.247 . S
C315 O321 1.208 . S
C316 O308 1.315 . S
C316 O311 1.279 . S
C317 O318 1.315 . S
C317 O319 1.279 . S
O318 Cd310 2.223 . S
O318 C317 1.315 . S
O319 Cd309 2.240 . S
O319 C317 1.279 . S
O320 Cd310 2.297 . S
O320 C315 1.247 . S
O321 Cd310 2.439 . S
O321 C315 1.208 . S
O322 Cd323 2.223 . S
O322 C330 1.315 . S
Cd323 O322 2.223 . S
Cd323 O326 2.297 . S
Cd323 O327 2.439 . S
Cd323 O333 2.240 . S
Cd324 O325 2.240 . S
Cd324 O332 2.223 . S
Cd324 O334 2.297 . S
Cd324 O335 2.439 . S
O325 Cd324 2.240 . S
O325 C330 1.279 . S
O326 Cd323 2.297 . S
O326 C328 1.247 . S
O327 Cd323 2.439 . S
O327 C328 1.208 . S
C328 O326 1.247 . S
C328 O327 1.208 . S
C329 O334 1.247 . S
C329 O335 1.208 . S
C330 O322 1.315 . S
C330 O325 1.279 . S
C331 O332 1.315 . S
C331 O333 1.279 . S
O332 Cd324 2.223 . S
O332 C331 1.315 . S
O333 Cd323 2.240 . S
O333 C331 1.279 . S
O334 Cd324 2.297 . S
O334 C329 1.247 . S
O335 Cd324 2.439 . S
O335 C329 1.208 . S
O336 Cd337 2.223 . S
O336 C344 1.315 . S
Cd337 O336 2.223 . S
Cd337 O340 2.297 . S
Cd337 O341 2.439 . S
Cd337 O347 2.240 . S
Cd338 O339 2.240 . S
Cd338 O346 2.223 . S
Cd338 O348 2.297 . S
Cd338 O349 2.439 . S
O339 Cd338 2.240 . S
O339 C344 1.279 . S
O340 Cd337 2.297 . S
O340 C342 1.247 . S
O341 Cd337 2.439 . S
O341 C342 1.208 . S
C342 O340 1.247 . S
C342 O341 1.208 . S
C343 O348 1.247 . S
C343 O349 1.208 . S
C344 O336 1.315 . S
C344 O339 1.279 . S
C345 O346 1.315 . S
C345 O347 1.279 . S
O346 Cd338 2.223 . S
O346 C345 1.315 . S
O347 Cd337 2.240 . S
O347 C345 1.279 . S
O348 Cd338 2.297 . S
O348 C343 1.247 . S
O349 Cd338 2.439 . S
O349 C343 1.208 . S
O350 Cd351 2.223 . S
O350 C358 1.315 . S
Cd351 O350 2.223 . S
Cd351 O354 2.297 . S
Cd351 O355 2.439 . S
Cd351 O361 2.240 . S
Cd352 O353 2.240 . S
Cd352 O360 2.223 . S
Cd352 O362 2.297 . S
Cd352 O363 2.439 . S
O353 Cd352 2.240 . S
O353 C358 1.279 . S
O354 Cd351 2.297 . S
O354 C356 1.247 . S
O355 Cd351 2.439 . S
O355 C356 1.208 . S
C356 O354 1.247 . S
C356 O355 1.208 . S
C357 O362 1.247 . S
C357 O363 1.208 . S
C358 O350 1.315 . S
C358 O353 1.279 . S
C359 O360 1.315 . S
C359 O361 1.279 . S
O360 Cd352 2.223 . S
O360 C359 1.315 . S
O361 Cd351 2.240 . S
O361 C359 1.279 . S
O362 Cd352 2.297 . S
O362 C357 1.247 . S
O363 Cd352 2.439 . S
O363 C357 1.208 . S
O364 Cd365 2.223 . S
O364 C372 1.315 . S
Cd365 O364 2.223 . S
Cd365 O368 2.297 . S
Cd365 O369 2.439 . S
Cd365 O375 2.240 . S
Cd366 O367 2.240 . S
Cd366 O374 2.223 . S
Cd366 O376 2.297 . S
Cd366 O377 2.439 . S
O367 Cd366 2.240 . S
O367 C372 1.279 . S
O368 Cd365 2.297 . S
O368 C370 1.247 . S
O369 Cd365 2.439 . S
O369 C370 1.208 . S
C370 O368 1.247 . S
C370 O369 1.208 . S
C371 O376 1.247 . S
C371 O377 1.208 . S
C372 O364 1.315 . S
C372 O367 1.279 . S
C373 O374 1.315 . S
C373 O375 1.279 . S
O374 Cd366 2.223 . S
O374 C373 1.315 . S
O375 Cd365 2.240 . S
O375 C373 1.279 . S
O376 Cd366 2.297 . S
O376 C371 1.247 . S
O377 Cd366 2.439 . S
O377 C371 1.208 . S
O378 Cd379 2.223 . S
O378 C386 1.315 . S
Cd379 O378 2.223 . S
Cd379 O382 2.297 . S
Cd379 O383 2.439 . S
Cd379 O389 2.240 . S
Cd380 O381 2.240 . S
Cd380 O388 2.223 . S
Cd380 O390 2.297 . S
Cd380 O391 2.439 . S
O381 Cd380 2.240 . S
O381 C386 1.279 . S
O382 Cd379 2.297 . S
O382 C384 1.247 . S
O383 Cd379 2.439 . S
O383 C384 1.208 . S
C384 O382 1.247 . S
C384 O383 1.208 . S
C385 O390 1.247 . S
C385 O391 1.208 . S
C386 O378 1.315 . S
C386 O381 1.279 . S
C387 O388 1.315 . S
C387 O389 1.279 . S
O388 Cd380 2.223 . S
O388 C387 1.315 . S
O389 Cd379 2.240 . S
O389 C387 1.279 . S
O390 Cd380 2.297 . S
O390 C385 1.247 . S
O391 Cd380 2.439 . S
O391 C385 1.208 . S
O392 Cd393 2.223 . S
O392 C400 1.315 . S
Cd393 O392 2.223 . S
Cd393 O396 2.297 . S
Cd393 O397 2.439 . S
Cd393 O403 2.240 . S
Cd394 O395 2.240 . S
Cd394 O402 2.223 . S
Cd394 O404 2.297 . S
Cd394 O405 2.439 . S
O395 Cd394 2.240 . S
O395 C400 1.279 . S
O396 Cd393 2.297 . S
O396 C398 1.247 . S
O397 Cd393 2.439 . S
O397 C398 1.208 . S
C398 O396 1.247 . S
C398 O397 1.208 . S
C399 O404 1.247 . S
C399 O405 1.208 . S
C400 O392 1.315 . S
C400 O395 1.279 . S
C401 O402 1.315 . S
C401 O403 1.279 . S
O402 Cd394 2.223 . S
O402 C401 1.315 . S
O403 Cd393 2.240 . S
O403 C401 1.279 . S
O404 Cd394 2.297 . S
O404 C399 1.247 . S
O405 Cd394 2.439 . S
O405 C399 1.208 . S
O406 Cd407 2.223 . S
O406 C414 1.315 . S
Cd407 O406 2.223 . S
Cd407 O410 2.297 . S
Cd407 O411 2.439 . S
Cd407 O417 2.240 . S
Cd408 O409 2.240 . S
Cd408 O416 2.223 . S
Cd408 O418 2.297 . S
Cd408 O419 2.439 . S
O409 Cd408 2.240 . S
O409 C414 1.279 . S
O410 Cd407 2.297 . S
O410 C412 1.247 . S
O411 Cd407 2.439 . S
O411 C412 1.208 . S
C412 O410 1.247 . S
C412 O411 1.208 . S
C413 O418 1.247 . S
C413 O419 1.208 . S
C414 O406 1.315 . S
C414 O409 1.279 . S
C415 O416 1.315 . S
C415 O417 1.279 . S
O416 Cd408 2.223 . S
O416 C415 1.315 . S
O417 Cd407 2.240 . S
O417 C415 1.279 . S
O418 Cd408 2.297 . S
O418 C413 1.247 . S
O419 Cd408 2.439 . S
O419 C413 1.208 . S
O420 Cd421 2.223 . S
O420 C428 1.315 . S
Cd421 O420 2.223 . S
Cd421 O424 2.297 . S
Cd421 O425 2.439 . S
Cd421 O431 2.240 . S
Cd422 O423 2.240 . S
Cd422 O430 2.223 . S
Cd422 O432 2.297 . S
Cd422 O433 2.439 . S
O423 Cd422 2.240 . S
O423 C428 1.279 . S
O424 Cd421 2.297 . S
O424 C426 1.247 . S
O425 Cd421 2.439 . S
O425 C426 1.208 . S
C426 O424 1.247 . S
C426 O425 1.208 . S
C427 O432 1.247 . S
C427 O433 1.208 . S
C428 O420 1.315 . S
C428 O423 1.279 . S
C429 O430 1.315 . S
C429 O431 1.279 . S
O430 Cd422 2.223 . S
O430 C429 1.315 . S
O431 Cd421 2.240 . S
O431 C429 1.279 . S
O432 Cd422 2.297 . S
O432 C427 1.247 . S
O433 Cd422 2.439 . S
O433 C427 1.208 . S
O434 Cd435 2.223 . S
O434 C442 1.315 . S
Cd435 O434 2.223 . S
Cd435 O438 2.297 . S
Cd435 O439 2.439 . S
Cd435 O445 2.240 . S
Cd436 O437 2.240 . S
Cd436 O444 2.223 . S
Cd436 O446 2.297 . S
Cd436 O447 2.439 . S
O437 Cd436 2.240 . S
O437 C442 1.279 . S
O438 Cd435 2.297 . S
O438 C440 1.247 . S
O439 Cd435 2.439 . S
O439 C440 1.208 . S
C440 O438 1.247 . S
C440 O439 1.208 . S
C441 O446 1.247 . S
C441 O447 1.208 . S
C442 O434 1.315 . S
C442 O437 1.279 . S
C443 O444 1.315 . S
C443 O445 1.279 . S
O444 Cd436 2.223 . S
O444 C443 1.315 . S
O445 Cd435 2.240 . S
O445 C443 1.279 . S
O446 Cd436 2.297 . S
O446 C441 1.247 . S
O447 Cd436 2.439 . S
O447 C441 1.208 . S
H448 C454 0.930 . S
H449 C458 0.930 . S
H450 C463 0.929 . S
H451 C461 0.929 . S
H452 C456 0.929 . S
H453 C462 0.929 . S
C454 H448 0.930 . S
C454 C455 1.367 . S
C454 C462 1.378 . S
C455 C454 1.367 . S
C455 C463 1.433 . S
C456 H452 0.929 . S
C456 C458 1.378 . S
C456 C460 1.350 . S
C457 C460 1.463 . S
C457 C462 1.350 . S
C457 N465 1.427 . S
C458 H449 0.930 . S
C458 C456 1.378 . S
C458 C459 1.367 . S
C459 C458 1.367 . S
C459 C461 1.433 . S
C460 C456 1.350 . S
C460 C457 1.463 . S
C460 N464 1.427 . S
C461 H451 0.929 . S
C461 C459 1.433 . S
C461 N464 1.384 . S
C462 H453 0.929 . S
C462 C454 1.378 . S
C462 C457 1.350 . S
C463 H450 0.929 . S
C463 C455 1.433 . S
C463 N465 1.384 . S
N464 C460 1.427 . S
N464 C461 1.384 . S
N465 C457 1.427 . S
N465 C463 1.384 . S
H466 C472 0.930 . S
H467 C476 0.930 . S
H468 C481 0.929 . S
H469 C479 0.929 . S
H470 C474 0.929 . S
H471 C480 0.929 . S
C472 H466 0.930 . S
C472 C473 1.367 . S
C472 C480 1.378 . S
C473 C472 1.367 . S
C473 C481 1.433 . S
C474 H470 0.929 . S
C474 C476 1.378 . S
C474 C478 1.350 . S
C475 C478 1.463 1_565 S
C475 C480 1.350 . S
C475 N483 1.427 . S
C476 H467 0.930 . S
C476 C474 1.378 . S
C476 C477 1.367 . S
C477 C476 1.367 . S
C477 C479 1.433 . S
C478 C474 1.350 . S
C478 C475 1.463 1_545 S
C478 N482 1.427 . S
C479 H469 0.929 . S
C479 C477 1.433 . S
C479 N482 1.384 . S
C480 H471 0.929 . S
C480 C472 1.378 . S
C480 C475 1.350 . S
C481 H468 0.929 . S
C481 C473 1.433 . S
C481 N483 1.384 . S
N482 C478 1.427 . S
N482 C479 1.384 . S
N483 C475 1.427 . S
N483 C481 1.384 . S
H484 C490 0.930 . S
H485 C494 0.930 . S
H486 C499 0.929 . S
H487 C497 0.929 . S
H488 C492 0.929 . S
H489 C498 0.929 . S
C490 H484 0.930 . S
C490 C491 1.367 . S
C490 C498 1.378 . S
C491 C490 1.367 . S
C491 C499 1.433 . S
C492 H488 0.929 . S
C492 C494 1.378 . S
C492 C496 1.350 . S
C493 C496 1.463 . S
C493 C498 1.350 . S
C493 N501 1.427 . S
C494 H485 0.930 . S
C494 C492 1.378 . S
C494 C495 1.367 . S
C495 C494 1.367 . S
C495 C497 1.433 . S
C496 C492 1.350 . S
C496 C493 1.463 . S
C496 N500 1.427 . S
C497 H487 0.929 . S
C497 C495 1.433 . S
C497 N500 1.384 . S
C498 H489 0.929 . S
C498 C490 1.378 . S
C498 C493 1.350 . S
C499 H486 0.929 . S
C499 C491 1.433 . S
C499 N501 1.384 . S
N500 C496 1.427 . S
N500 C497 1.384 . S
N501 C493 1.427 . S
N501 C499 1.384 . S
H502 C508 0.930 . S
H503 C512 0.930 . S
H504 C517 0.929 . S
H505 C515 0.929 . S
H506 C510 0.929 . S
H507 C516 0.929 . S
C508 H502 0.930 . S
C508 C509 1.367 1_554 S
C508 C516 1.378 . S
C509 C508 1.367 1_556 S
C509 C517 1.433 . S
C510 H506 0.929 . S
C510 C512 1.378 . S
C510 C514 1.350 1_556 S
C511 C514 1.463 1_546 S
C511 C516 1.350 1_556 S
C511 N519 1.427 . S
C512 H503 0.930 . S
C512 C510 1.378 . S
C512 C513 1.367 1_556 S
C513 C512 1.367 1_554 S
C513 C515 1.433 . S
C514 C510 1.350 1_554 S
C514 C511 1.463 1_564 S
C514 N518 1.427 . S
C515 H505 0.929 . S
C515 C513 1.433 . S
C515 N518 1.384 . S
C516 H507 0.929 . S
C516 C508 1.378 . S
C516 C511 1.350 1_554 S
C517 H504 0.929 . S
C517 C509 1.433 . S
C517 N519 1.384 . S
N518 C514 1.427 . S
N518 C515 1.384 . S
N519 C511 1.427 . S
N519 C517 1.384 . S
H520 C526 0.930 . S
H521 C530 0.930 . S
H522 C535 0.929 . S
H523 C533 0.929 . S
H524 C528 0.929 . S
H525 C534 0.929 . S
C526 H520 0.930 . S
C526 C527 1.367 . S
C526 C534 1.378 . S
C527 C526 1.367 . S
C527 C535 1.433 . S
C528 H524 0.929 . S
C528 C530 1.378 . S
C528 C532 1.350 . S
C529 C532 1.463 . S
C529 C534 1.350 . S
C529 N537 1.427 . S
C530 H521 0.930 . S
C530 C528 1.378 . S
C530 C531 1.367 . S
C531 C530 1.367 . S
C531 C533 1.433 . S
C532 C528 1.350 . S
C532 C529 1.463 . S
C532 N536 1.427 . S
C533 H523 0.929 . S
C533 C531 1.433 . S
C533 N536 1.384 . S
C534 H525 0.929 . S
C534 C526 1.378 . S
C534 C529 1.350 . S
C535 H522 0.929 . S
C535 C527 1.433 . S
C535 N537 1.384 . S
N536 C532 1.427 . S
N536 C533 1.384 . S
N537 C529 1.427 . S
N537 C535 1.384 . S
H538 C544 0.930 . S
H539 C548 0.930 . S
H540 C553 0.929 . S
H541 C551 0.929 . S
H542 C546 0.929 . S
H543 C552 0.929 . S
C544 H538 0.930 . S
C544 C545 1.367 . S
C544 C552 1.378 . S
C545 C544 1.367 . S
C545 C553 1.433 . S
C546 H542 0.929 . S
C546 C548 1.378 . S
C546 C550 1.350 . S
C547 C550 1.463 1_565 S
C547 C552 1.350 . S
C547 N555 1.427 . S
C548 H539 0.930 . S
C548 C546 1.378 . S
C548 C549 1.367 . S
C549 C548 1.367 . S
C549 C551 1.433 . S
C550 C546 1.350 . S
C550 C547 1.463 1_545 S
C550 N554 1.427 . S
C551 H541 0.929 . S
C551 C549 1.433 . S
C551 N554 1.384 . S
C552 H543 0.929 . S
C552 C544 1.378 . S
C552 C547 1.350 . S
C553 H540 0.929 . S
C553 C545 1.433 . S
C553 N555 1.384 . S
N554 C550 1.427 . S
N554 C551 1.384 . S
N555 C547 1.427 . S
N555 C553 1.384 . S
H556 C562 0.930 . S
H557 C566 0.930 . S
H558 C571 0.929 . S
H559 C569 0.929 . S
H560 C564 0.929 . S
H561 C570 0.929 . S
C562 H556 0.930 . S
C562 C563 1.367 . S
C562 C570 1.378 . S
C563 C562 1.367 . S
C563 C571 1.433 . S
C564 H560 0.929 . S
C564 C566 1.378 . S
C564 C568 1.350 . S
C565 C568 1.463 . S
C565 C570 1.350 . S
C565 N573 1.427 . S
C566 H557 0.930 . S
C566 C564 1.378 . S
C566 C567 1.367 . S
C567 C566 1.367 . S
C567 C569 1.433 . S
C568 C564 1.350 . S
C568 C565 1.463 . S
C568 N572 1.427 . S
C569 H559 0.929 . S
C569 C567 1.433 . S
C569 N572 1.384 . S
C570 H561 0.929 . S
C570 C562 1.378 . S
C570 C565 1.350 . S
C571 H558 0.929 . S
C571 C563 1.433 . S
C571 N573 1.384 . S
N572 C568 1.427 . S
N572 C569 1.384 . S
N573 C565 1.427 . S
N573 C571 1.384 . S
H574 C580 0.930 . S
H575 C584 0.930 . S
H576 C589 0.929 . S
H577 C587 0.929 . S
H578 C582 0.929 . S
H579 C588 0.929 . S
C580 H574 0.930 . S
C580 C581 1.367 . S
C580 C588 1.378 . S
C581 C580 1.367 . S
C581 C589 1.433 1_556 S
C582 H578 0.929 . S
C582 C584 1.378 . S
C582 C586 1.350 . S
C583 C586 1.463 1_546 S
C583 C588 1.350 . S
C583 N591 1.427 1_556 S
C584 H575 0.930 . S
C584 C582 1.378 . S
C584 C585 1.367 . S
C585 C584 1.367 . S
C585 C587 1.433 1_554 S
C586 C582 1.350 . S
C586 C583 1.463 1_564 S
C586 N590 1.427 1_554 S
C587 H577 0.929 . S
C587 C585 1.433 1_556 S
C587 N590 1.384 . S
C588 H579 0.929 . S
C588 C580 1.378 . S
C588 C583 1.350 . S
C589 H576 0.929 . S
C589 C581 1.433 1_554 S
C589 N591 1.384 . S
N590 C586 1.427 1_556 S
N590 C587 1.384 . S
N591 C583 1.427 1_554 S
N591 C589 1.384 . S
H592 C598 0.930 . S
H593 C602 0.930 . S
H594 C607 0.929 . S
H595 C605 0.929 . S
H596 C600 0.929 . S
H597 C606 0.929 . S
C598 H592 0.930 . S
C598 C599 1.367 . S
C598 C606 1.378 . S
C599 C598 1.367 . S
C599 C607 1.433 . S
C600 H596 0.929 . S
C600 C602 1.378 . S
C600 C604 1.350 . S
C601 C604 1.463 . S
C601 C606 1.350 . S
C601 N609 1.427 . S
C602 H593 0.930 . S
C602 C600 1.378 . S
C602 C603 1.367 . S
C603 C602 1.367 . S
C603 C605 1.433 . S
C604 C600 1.350 . S
C604 C601 1.463 . S
C604 N608 1.427 . S
C605 H595 0.929 . S
C605 C603 1.433 . S
C605 N608 1.384 . S
C606 H597 0.929 . S
C606 C598 1.378 . S
C606 C601 1.350 . S
C607 H594 0.929 . S
C607 C599 1.433 . S
C607 N609 1.384 . S
N608 C604 1.427 . S
N608 C605 1.384 . S
N609 C601 1.427 . S
N609 C607 1.384 . S
H610 C616 0.930 . S
H611 C620 0.930 . S
H612 C625 0.929 . S
H613 C623 0.929 . S
H614 C618 0.929 . S
H615 C624 0.929 . S
C616 H610 0.930 . S
C616 C617 1.367 . S
C616 C624 1.378 . S
C617 C616 1.367 . S
C617 C625 1.433 1_556 S
C618 H614 0.929 . S
C618 C620 1.378 . S
C618 C622 1.350 . S
C619 C622 1.463 1_556 S
C619 C624 1.350 . S
C619 N627 1.427 1_556 S
C620 H611 0.930 . S
C620 C618 1.378 . S
C620 C621 1.367 . S
C621 C620 1.367 . S
C621 C623 1.433 1_554 S
C622 C618 1.350 . S
C622 C619 1.463 1_554 S
C622 N626 1.427 1_554 S
C623 H613 0.929 . S
C623 C621 1.433 1_556 S
C623 N626 1.384 . S
C624 H615 0.929 . S
C624 C616 1.378 . S
C624 C619 1.350 . S
C625 H612 0.929 . S
C625 C617 1.433 1_554 S
C625 N627 1.384 . S
N626 C622 1.427 1_556 S
N626 C623 1.384 . S
N627 C619 1.427 1_554 S
N627 C625 1.384 . S
H628 C634 0.930 . S
H629 C638 0.930 . S
H630 C643 0.929 . S
H631 C641 0.929 . S
H632 C636 0.929 . S
H633 C642 0.929 . S
C634 H628 0.930 . S
C634 C635 1.367 . S
C634 C642 1.378 . S
C635 C634 1.367 . S
C635 C643 1.433 . S
C636 H632 0.929 . S
C636 C638 1.378 . S
C636 C640 1.350 . S
C637 C640 1.463 . S
C637 C642 1.350 . S
C637 N645 1.427 . S
C638 H629 0.930 . S
C638 C636 1.378 . S
C638 C639 1.367 . S
C639 C638 1.367 . S
C639 C641 1.433 . S
C640 C636 1.350 . S
C640 C637 1.463 . S
C640 N644 1.427 . S
C641 H631 0.929 . S
C641 C639 1.433 . S
C641 N644 1.384 . S
C642 H633 0.929 . S
C642 C634 1.378 . S
C642 C637 1.350 . S
C643 H630 0.929 . S
C643 C635 1.433 . S
C643 N645 1.384 . S
N644 C640 1.427 . S
N644 C641 1.384 . S
N645 C637 1.427 . S
N645 C643 1.384 . S
H646 C652 0.930 . S
H647 C656 0.930 . S
H648 C661 0.929 . S
H649 C659 0.929 . S
H650 C654 0.929 . S
H651 C660 0.929 . S
C652 H646 0.930 . S
C652 C653 1.367 . S
C652 C660 1.378 . S
C653 C652 1.367 . S
C653 C661 1.433 . S
C654 H650 0.929 . S
C654 C656 1.378 . S
C654 C658 1.350 . S
C655 C658 1.463 . S
C655 C660 1.350 . S
C655 N663 1.427 . S
C656 H647 0.930 . S
C656 C654 1.378 . S
C656 C657 1.367 . S
C657 C656 1.367 . S
C657 C659 1.433 . S
C658 C654 1.350 . S
C658 C655 1.463 . S
C658 N662 1.427 . S
C659 H649 0.929 . S
C659 C657 1.433 . S
C659 N662 1.384 . S
C660 H651 0.929 . S
C660 C652 1.378 . S
C660 C655 1.350 . S
C661 H648 0.929 . S
C661 C653 1.433 . S
C661 N663 1.384 . S
N662 C658 1.427 . S
N662 C659 1.384 . S
N663 C655 1.427 . S
N663 C661 1.384 . S
H664 C670 0.930 . S
H665 C674 0.930 . S
H666 C679 0.929 . S
H667 C677 0.929 . S
H668 C672 0.929 . S
H669 C678 0.929 . S
C670 H664 0.930 . S
C670 C671 1.367 . S
C670 C678 1.378 . S
C671 C670 1.367 . S
C671 C679 1.433 . S
C672 H668 0.929 . S
C672 C674 1.378 . S
C672 C676 1.350 . S
C673 C676 1.463 . S
C673 C678 1.350 . S
C673 N681 1.427 . S
C674 H665 0.930 . S
C674 C672 1.378 . S
C674 C675 1.367 . S
C675 C674 1.367 . S
C675 C677 1.433 . S
C676 C672 1.350 . S
C676 C673 1.463 . S
C676 N680 1.427 . S
C677 H667 0.929 . S
C677 C675 1.433 . S
C677 N680 1.384 . S
C678 H669 0.929 . S
C678 C670 1.378 . S
C678 C673 1.350 . S
C679 H666 0.929 . S
C679 C671 1.433 . S
C679 N681 1.384 . S
N680 C676 1.427 . S
N680 C677 1.384 . S
N681 C673 1.427 . S
N681 C679 1.384 . S
H682 C688 0.930 . S
H683 C692 0.930 . S
H684 C697 0.929 . S
H685 C695 0.929 . S
H686 C690 0.929 . S
H687 C696 0.929 . S
C688 H682 0.930 . S
C688 C689 1.367 . S
C688 C696 1.378 . S
C689 C688 1.367 . S
C689 C697 1.433 . S
C690 H686 0.929 . S
C690 C692 1.378 . S
C690 C694 1.350 . S
C691 C694 1.463 1_554 S
C691 C696 1.350 . S
C691 N699 1.427 . S
C692 H683 0.930 . S
C692 C690 1.378 . S
C692 C693 1.367 . S
C693 C692 1.367 . S
C693 C695 1.433 . S
C694 C690 1.350 . S
C694 C691 1.463 1_556 S
C694 N698 1.427 . S
C695 H685 0.929 . S
C695 C693 1.433 . S
C695 N698 1.384 . S
C696 H687 0.929 . S
C696 C688 1.378 . S
C696 C691 1.350 . S
C697 H684 0.929 . S
C697 C689 1.433 . S
C697 N699 1.384 . S
N698 C694 1.427 . S
N698 C695 1.384 . S
N699 C691 1.427 . S
N699 C697 1.384 . S
H700 C706 0.930 . S
H701 C710 0.930 . S
H702 C715 0.929 . S
H703 C713 0.929 . S
H704 C708 0.929 . S
H705 C714 0.929 . S
C706 H700 0.930 . S
C706 C707 1.367 . S
C706 C714 1.378 . S
C707 C706 1.367 . S
C707 C715 1.433 . S
C708 H704 0.929 . S
C708 C710 1.378 . S
C708 C712 1.350 . S
C709 C712 1.463 . S
C709 C714 1.350 . S
C709 N717 1.427 . S
C710 H701 0.930 . S
C710 C708 1.378 . S
C710 C711 1.367 . S
C711 C710 1.367 . S
C711 C713 1.433 . S
C712 C708 1.350 . S
C712 C709 1.463 . S
C712 N716 1.427 . S
C713 H703 0.929 . S
C713 C711 1.433 . S
C713 N716 1.384 . S
C714 H705 0.929 . S
C714 C706 1.378 . S
C714 C709 1.350 . S
C715 H702 0.929 . S
C715 C707 1.433 . S
C715 N717 1.384 . S
N716 C712 1.427 . S
N716 C713 1.384 . S
N717 C709 1.427 . S
N717 C715 1.384 . S
H718 C724 0.930 . S
H719 C728 0.930 . S
H720 C733 0.929 . S
H721 C731 0.929 . S
H722 C726 0.929 . S
H723 C732 0.929 . S
C724 H718 0.930 . S
C724 C725 1.367 . S
C724 C732 1.378 . S
C725 C724 1.367 . S
C725 C733 1.433 . S
C726 H722 0.929 . S
C726 C728 1.378 . S
C726 C730 1.350 . S
C727 C730 1.463 . S
C727 C732 1.350 . S
C727 N735 1.427 . S
C728 H719 0.930 . S
C728 C726 1.378 . S
C728 C729 1.367 . S
C729 C728 1.367 . S
C729 C731 1.433 . S
C730 C726 1.350 . S
C730 C727 1.463 . S
C730 N734 1.427 . S
C731 H721 0.929 . S
C731 C729 1.433 . S
C731 N734 1.384 . S
C732 H723 0.929 . S
C732 C724 1.378 . S
C732 C727 1.350 . S
C733 H720 0.929 . S
C733 C725 1.433 . S
C733 N735 1.384 . S
N734 C730 1.427 . S
N734 C731 1.384 . S
N735 C727 1.427 . S
N735 C733 1.384 . S
H736 C742 0.930 . S
H737 C746 0.930 . S
H738 C751 0.929 1_554 S
H739 C749 0.929 . S
H740 C744 0.929 . S
H741 C750 0.929 . S
C742 H736 0.930 . S
C742 C743 1.367 . S
C742 C750 1.378 . S
C743 C742 1.367 . S
C743 C751 1.433 . S
C744 H740 0.929 . S
C744 C746 1.378 . S
C744 C748 1.350 . S
C745 C748 1.463 . S
C745 C750 1.350 . S
C745 N753 1.427 . S
C746 H737 0.930 . S
C746 C744 1.378 . S
C746 C747 1.367 . S
C747 C746 1.367 . S
C747 C749 1.433 . S
C748 C744 1.350 . S
C748 C745 1.463 . S
C748 N752 1.427 . S
C749 H739 0.929 . S
C749 C747 1.433 . S
C749 N752 1.384 . S
C750 H741 0.929 . S
C750 C742 1.378 . S
C750 C745 1.350 . S
C751 H738 0.929 1_556 S
C751 C743 1.433 . S
C751 N753 1.384 . S
N752 C748 1.427 . S
N752 C749 1.384 . S
N753 C745 1.427 . S
N753 C751 1.384 . S
H754 C760 0.930 . S
H755 C764 0.930 . S
H756 C769 0.929 . S
H757 C767 0.929 . S
H758 C762 0.929 . S
H759 C768 0.929 . S
C760 H754 0.930 . S
C760 C761 1.367 . S
C760 C768 1.378 . S
C761 C760 1.367 . S
C761 C769 1.433 . S
C762 H758 0.929 . S
C762 C764 1.378 . S
C762 C766 1.350 . S
C763 C766 1.463 . S
C763 C768 1.350 . S
C763 N771 1.427 . S
C764 H755 0.930 . S
C764 C762 1.378 . S
C764 C765 1.367 . S
C765 C764 1.367 . S
C765 C767 1.433 . S
C766 C762 1.350 . S
C766 C763 1.463 . S
C766 N770 1.427 . S
C767 H757 0.929 . S
C767 C765 1.433 . S
C767 N770 1.384 . S
C768 H759 0.929 . S
C768 C760 1.378 . S
C768 C763 1.350 . S
C769 H756 0.929 . S
C769 C761 1.433 . S
C769 N771 1.384 . S
N770 C766 1.427 . S
N770 C767 1.384 . S
N771 C763 1.427 . S
N771 C769 1.384 . S
H772 C778 0.930 . S
H773 C782 0.930 . S
H774 C787 0.929 . S
H775 C785 0.929 . S
H776 C780 0.929 . S
H777 C786 0.929 . S
C778 H772 0.930 . S
C778 C779 1.367 . S
C778 C786 1.378 . S
C779 C778 1.367 . S
C779 C787 1.433 . S
C780 H776 0.929 . S
C780 C782 1.378 . S
C780 C784 1.350 . S
C781 C784 1.463 . S
C781 C786 1.350 . S
C781 N789 1.427 . S
C782 H773 0.930 . S
C782 C780 1.378 . S
C782 C783 1.367 . S
C783 C782 1.367 . S
C783 C785 1.433 . S
C784 C780 1.350 . S
C784 C781 1.463 . S
C784 N788 1.427 . S
C785 H775 0.929 . S
C785 C783 1.433 . S
C785 N788 1.384 . S
C786 H777 0.929 . S
C786 C778 1.378 . S
C786 C781 1.350 . S
C787 H774 0.929 . S
C787 C779 1.433 . S
C787 N789 1.384 . S
N788 C784 1.427 . S
N788 C785 1.384 . S
N789 C781 1.427 . S
N789 C787 1.384 . S
H790 C796 0.930 . S
H791 C800 0.930 . S
H792 C805 0.929 . S
H793 C803 0.929 . S
H794 C798 0.929 . S
H795 C804 0.929 . S
C796 H790 0.930 . S
C796 C797 1.367 . S
C796 C804 1.378 . S
C797 C796 1.367 . S
C797 C805 1.433 . S
C798 H794 0.929 . S
C798 C800 1.378 . S
C798 C802 1.350 . S
C799 C802 1.463 . S
C799 C804 1.350 . S
C799 N807 1.427 . S
C800 H791 0.930 . S
C800 C798 1.378 . S
C800 C801 1.367 . S
C801 C800 1.367 . S
C801 C803 1.433 . S
C802 C798 1.350 . S
C802 C799 1.463 . S
C802 N806 1.427 . S
C803 H793 0.929 . S
C803 C801 1.433 . S
C803 N806 1.384 . S
C804 H795 0.929 . S
C804 C796 1.378 . S
C804 C799 1.350 . S
C805 H792 0.929 . S
C805 C797 1.433 . S
C805 N807 1.384 . S
N806 C802 1.427 . S
N806 C803 1.384 . S
N807 C799 1.427 . S
N807 C805 1.384 . S
H808 C814 0.930 . S
H809 C818 0.930 . S
H810 C823 0.929 1_556 S
H811 C821 0.929 . S
H812 C816 0.929 . S
H813 C822 0.929 . S
C814 H808 0.930 . S
C814 C815 1.367 . S
C814 C822 1.378 . S
C815 C814 1.367 . S
C815 C823 1.433 . S
C816 H812 0.929 . S
C816 C818 1.378 . S
C816 C820 1.350 . S
C817 C820 1.463 . S
C817 C822 1.350 . S
C817 N825 1.427 . S
C818 H809 0.930 . S
C818 C816 1.378 . S
C818 C819 1.367 . S
C819 C818 1.367 . S
C819 C821 1.433 . S
C820 C816 1.350 . S
C820 C817 1.463 . S
C820 N824 1.427 . S
C821 H811 0.929 . S
C821 C819 1.433 . S
C821 N824 1.384 . S
C822 H813 0.929 . S
C822 C814 1.378 . S
C822 C817 1.350 . S
C823 H810 0.929 1_554 S
C823 C815 1.433 . S
C823 N825 1.384 . S
N824 C820 1.427 . S
N824 C821 1.384 . S
N825 C817 1.427 . S
N825 C823 1.384 . S
H826 C832 0.930 . S
H827 C836 0.930 . S
H828 C841 0.929 . S
H829 C839 0.929 . S
H830 C834 0.929 . S
H831 C840 0.929 . S
C832 H826 0.930 . S
C832 C833 1.367 . S
C832 C840 1.378 . S
C833 C832 1.367 . S
C833 C841 1.433 . S
C834 H830 0.929 . S
C834 C836 1.378 . S
C834 C838 1.350 . S
C835 C838 1.463 . S
C835 C840 1.350 . S
C835 N843 1.427 . S
C836 H827 0.930 . S
C836 C834 1.378 . S
C836 C837 1.367 . S
C837 C836 1.367 . S
C837 C839 1.433 . S
C838 C834 1.350 . S
C838 C835 1.463 . S
C838 N842 1.427 . S
C839 H829 0.929 . S
C839 C837 1.433 . S
C839 N842 1.384 . S
C840 H831 0.929 . S
C840 C832 1.378 . S
C840 C835 1.350 . S
C841 H828 0.929 . S
C841 C833 1.433 . S
C841 N843 1.384 . S
N842 C838 1.427 . S
N842 C839 1.384 . S
N843 C835 1.427 . S
N843 C841 1.384 . S
H844 C850 0.930 . S
H845 C854 0.930 . S
H846 C859 0.929 . S
H847 C857 0.929 . S
H848 C852 0.929 . S
H849 C858 0.929 . S
C850 H844 0.930 . S
C850 C851 1.367 . S
C850 C858 1.378 . S
C851 C850 1.367 . S
C851 C859 1.433 . S
C852 H848 0.929 . S
C852 C854 1.378 . S
C852 C856 1.350 . S
C853 C856 1.463 . S
C853 C858 1.350 . S
C853 N861 1.427 . S
C854 H845 0.930 . S
C854 C852 1.378 . S
C854 C855 1.367 . S
C855 C854 1.367 . S
C855 C857 1.433 . S
C856 C852 1.350 . S
C856 C853 1.463 . S
C856 N860 1.427 . S
C857 H847 0.929 . S
C857 C855 1.433 . S
C857 N860 1.384 . S
C858 H849 0.929 . S
C858 C850 1.378 . S
C858 C853 1.350 . S
C859 H846 0.929 . S
C859 C851 1.433 . S
C859 N861 1.384 . S
N860 C856 1.427 . S
N860 C857 1.384 . S
N861 C853 1.427 . S
N861 C859 1.384 . S
H862 C868 0.930 . S
H863 C872 0.930 . S
H864 C877 0.929 . S
H865 C875 0.929 . S
H866 C870 0.929 . S
H867 C876 0.929 . S
C868 H862 0.930 . S
C868 C869 1.367 . S
C868 C876 1.378 . S
C869 C868 1.367 . S
C869 C877 1.433 . S
C870 H866 0.929 . S
C870 C872 1.378 . S
C870 C874 1.350 . S
C871 C874 1.463 . S
C871 C876 1.350 . S
C871 N879 1.427 . S
C872 H863 0.930 . S
C872 C870 1.378 . S
C872 C873 1.367 . S
C873 C872 1.367 . S
C873 C875 1.433 . S
C874 C870 1.350 . S
C874 C871 1.463 . S
C874 N878 1.427 . S
C875 H865 0.929 . S
C875 C873 1.433 . S
C875 N878 1.384 . S
C876 H867 0.929 . S
C876 C868 1.378 . S
C876 C871 1.350 . S
C877 H864 0.929 . S
C877 C869 1.433 . S
C877 N879 1.384 . S
N878 C874 1.427 . S
N878 C875 1.384 . S
N879 C871 1.427 . S
N879 C877 1.384 . S
H880 C886 0.930 . S
H881 C890 0.930 . S
H882 C895 0.929 . S
H883 C893 0.929 . S
H884 C888 0.929 . S
H885 C894 0.929 . S
C886 H880 0.930 . S
C886 C887 1.367 . S
C886 C894 1.378 . S
C887 C886 1.367 . S
C887 C895 1.433 . S
C888 H884 0.929 . S
C888 C890 1.378 . S
C888 C892 1.350 . S
C889 C892 1.463 . S
C889 C894 1.350 . S
C889 N897 1.427 . S
C890 H881 0.930 . S
C890 C888 1.378 . S
C890 C891 1.367 . S
C891 C890 1.367 . S
C891 C893 1.433 . S
C892 C888 1.350 . S
C892 C889 1.463 . S
C892 N896 1.427 . S
C893 H883 0.929 . S
C893 C891 1.433 . S
C893 N896 1.384 . S
C894 H885 0.929 . S
C894 C886 1.378 . S
C894 C889 1.350 . S
C895 H882 0.929 . S
C895 C887 1.433 . S
C895 N897 1.384 . S
N896 C892 1.427 . S
N896 C893 1.384 . S
N897 C889 1.427 . S
N897 C895 1.384 . S
H898 C904 0.930 . S
H899 C908 0.930 . S
H900 C913 0.929 . S
H901 C911 0.929 . S
H902 C906 0.929 . S
H903 C912 0.929 . S
C904 H898 0.930 . S
C904 C905 1.367 . S
C904 C912 1.378 . S
C905 C904 1.367 . S
C905 C913 1.433 . S
C906 H902 0.929 . S
C906 C908 1.378 . S
C906 C910 1.350 . S
C907 C910 1.463 . S
C907 C912 1.350 . S
C907 N915 1.427 . S
C908 H899 0.930 . S
C908 C906 1.378 . S
C908 C909 1.367 . S
C909 C908 1.367 . S
C909 C911 1.433 . S
C910 C906 1.350 . S
C910 C907 1.463 . S
C910 N914 1.427 . S
C911 H901 0.929 . S
C911 C909 1.433 . S
C911 N914 1.384 . S
C912 H903 0.929 . S
C912 C904 1.378 . S
C912 C907 1.350 . S
C913 H900 0.929 . S
C913 C905 1.433 . S
C913 N915 1.384 . S
N914 C910 1.427 . S
N914 C911 1.384 . S
N915 C907 1.427 . S
N915 C913 1.384 . S
H916 C922 0.930 . S
H917 C926 0.930 . S
H918 C931 0.929 . S
H919 C929 0.929 1_554 S
H920 C924 0.929 . S
H921 C930 0.929 . S
C922 H916 0.930 . S
C922 C923 1.367 . S
C922 C930 1.378 . S
C923 C922 1.367 . S
C923 C931 1.433 . S
C924 H920 0.929 . S
C924 C926 1.378 . S
C924 C928 1.350 . S
C925 C928 1.463 . S
C925 C930 1.350 . S
C925 N933 1.427 . S
C926 H917 0.930 . S
C926 C924 1.378 . S
C926 C927 1.367 . S
C927 C926 1.367 . S
C927 C929 1.433 . S
C928 C924 1.350 . S
C928 C925 1.463 . S
C928 N932 1.427 . S
C929 H919 0.929 1_556 S
C929 C927 1.433 . S
C929 N932 1.384 . S
C930 H921 0.929 . S
C930 C922 1.378 . S
C930 C925 1.350 . S
C931 H918 0.929 . S
C931 C923 1.433 . S
C931 N933 1.384 . S
N932 C928 1.427 . S
N932 C929 1.384 . S
N933 C925 1.427 . S
N933 C931 1.384 . S
H934 C940 0.930 . S
H935 C944 0.930 . S
H936 C949 0.929 . S
H937 C947 0.929 . S
H938 C942 0.929 . S
H939 C948 0.929 . S
C940 H934 0.930 . S
C940 C941 1.367 . S
C940 C948 1.378 . S
C941 C940 1.367 . S
C941 C949 1.433 . S
C942 H938 0.929 . S
C942 C944 1.378 . S
C942 C946 1.350 . S
C943 C946 1.463 . S
C943 C948 1.350 . S
C943 N951 1.427 . S
C944 H935 0.930 . S
C944 C942 1.378 . S
C944 C945 1.367 . S
C945 C944 1.367 . S
C945 C947 1.433 . S
C946 C942 1.350 . S
C946 C943 1.463 . S
C946 N950 1.427 . S
C947 H937 0.929 . S
C947 C945 1.433 . S
C947 N950 1.384 . S
C948 H939 0.929 . S
C948 C940 1.378 . S
C948 C943 1.350 . S
C949 H936 0.929 . S
C949 C941 1.433 . S
C949 N951 1.384 . S
N950 C946 1.427 . S
N950 C947 1.384 . S
N951 C943 1.427 . S
N951 C949 1.384 . S
H952 C958 0.930 . S
H953 C962 0.930 . S
H954 C967 0.929 . S
H955 C965 0.929 . S
H956 C960 0.929 . S
H957 C966 0.929 . S
C958 H952 0.930 . S
C958 C959 1.367 . S
C958 C966 1.378 . S
C959 C958 1.367 . S
C959 C967 1.433 . S
C960 H956 0.929 . S
C960 C962 1.378 . S
C960 C964 1.350 . S
C961 C964 1.463 . S
C961 C966 1.350 . S
C961 N969 1.427 . S
C962 H953 0.930 . S
C962 C960 1.378 . S
C962 C963 1.367 . S
C963 C962 1.367 . S
C963 C965 1.433 . S
C964 C960 1.350 . S
C964 C961 1.463 . S
C964 N968 1.427 . S
C965 H955 0.929 . S
C965 C963 1.433 . S
C965 N968 1.384 . S
C966 H957 0.929 . S
C966 C958 1.378 . S
C966 C961 1.350 . S
C967 H954 0.929 . S
C967 C959 1.433 . S
C967 N969 1.384 . S
N968 C964 1.427 . S
N968 C965 1.384 . S
N969 C961 1.427 . S
N969 C967 1.384 . S
H970 C976 0.930 . S
H971 C980 0.930 . S
H972 C985 0.929 . S
H973 C983 0.929 . S
H974 C978 0.929 . S
H975 C984 0.929 . S
C976 H970 0.930 . S
C976 C977 1.367 . S
C976 C984 1.378 . S
C977 C976 1.367 . S
C977 C985 1.433 . S
C978 H974 0.929 . S
C978 C980 1.378 . S
C978 C982 1.350 . S
C979 C982 1.463 . S
C979 C984 1.350 . S
C979 N987 1.427 . S
C980 H971 0.930 . S
C980 C978 1.378 . S
C980 C981 1.367 . S
C981 C980 1.367 . S
C981 C983 1.433 . S
C982 C978 1.350 . S
C982 C979 1.463 . S
C982 N986 1.427 . S
C983 H973 0.929 . S
C983 C981 1.433 . S
C983 N986 1.384 . S
C984 H975 0.929 . S
C984 C976 1.378 . S
C984 C979 1.350 . S
C985 H972 0.929 . S
C985 C977 1.433 . S
C985 N987 1.384 . S
N986 C982 1.427 . S
N986 C983 1.384 . S
N987 C979 1.427 . S
N987 C985 1.384 . S
H988 C994 0.930 . S
H989 C998 0.930 . S
H990 C1003 0.929 . S
H991 C1001 0.929 . S
H992 C996 0.929 . S
H993 C1002 0.929 . S
C994 H988 0.930 . S
C994 C995 1.367 . S
C994 C1002 1.378 . S
C995 C994 1.367 . S
C995 C1003 1.433 . S
C996 H992 0.929 . S
C996 C998 1.378 . S
C996 C1000 1.350 . S
C997 C1000 1.463 . S
C997 C1002 1.350 . S
C997 N1005 1.427 . S
C998 H989 0.930 . S
C998 C996 1.378 . S
C998 C999 1.367 . S
C999 C998 1.367 . S
C999 C1001 1.433 . S
C1000 C996 1.350 . S
C1000 C997 1.463 . S
C1000 N1004 1.427 . S
C1001 H991 0.929 . S
C1001 C999 1.433 . S
C1001 N1004 1.384 . S
C1002 H993 0.929 . S
C1002 C994 1.378 . S
C1002 C997 1.350 . S
C1003 H990 0.929 . S
C1003 C995 1.433 . S
C1003 N1005 1.384 . S
N1004 C1000 1.427 . S
N1004 C1001 1.384 . S
N1005 C997 1.427 . S
N1005 C1003 1.384 . S
H1006 C1012 0.930 . S
H1007 C1016 0.930 . S
H1008 C1021 0.929 . S
H1009 C1019 0.929 1_554 S
H1010 C1014 0.929 . S
H1011 C1020 0.929 . S
C1012 H1006 0.930 . S
C1012 C1013 1.367 . S
C1012 C1020 1.378 . S
C1013 C1012 1.367 . S
C1013 C1021 1.433 . S
C1014 H1010 0.929 . S
C1014 C1016 1.378 . S
C1014 C1018 1.350 . S
C1015 C1018 1.463 . S
C1015 C1020 1.350 . S
C1015 N1023 1.427 . S
C1016 H1007 0.930 . S
C1016 C1014 1.378 . S
C1016 C1017 1.367 . S
C1017 C1016 1.367 . S
C1017 C1019 1.433 . S
C1018 C1014 1.350 . S
C1018 C1015 1.463 . S
C1018 N1022 1.427 . S
C1019 H1009 0.929 1_556 S
C1019 C1017 1.433 . S
C1019 N1022 1.384 . S
C1020 H1011 0.929 . S
C1020 C1012 1.378 . S
C1020 C1015 1.350 . S
C1021 H1008 0.929 . S
C1021 C1013 1.433 . S
C1021 N1023 1.384 . S
N1022 C1018 1.427 . S
N1022 C1019 1.384 . S
N1023 C1015 1.427 . S
N1023 C1021 1.384 . S
H1024 C1030 0.930 . S
H1025 C1034 0.930 . S
H1026 C1039 0.929 . S
H1027 C1037 0.929 . S
H1028 C1032 0.929 . S
H1029 C1038 0.929 . S
C1030 H1024 0.930 . S
C1030 C1031 1.367 . S
C1030 C1038 1.378 . S
C1031 C1030 1.367 . S
C1031 C1039 1.433 . S
C1032 H1028 0.929 . S
C1032 C1034 1.378 . S
C1032 C1036 1.350 . S
C1033 C1036 1.463 . S
C1033 C1038 1.350 . S
C1033 N1041 1.427 . S
C1034 H1025 0.930 . S
C1034 C1032 1.378 . S
C1034 C1035 1.367 . S
C1035 C1034 1.367 . S
C1035 C1037 1.433 . S
C1036 C1032 1.350 . S
C1036 C1033 1.463 . S
C1036 N1040 1.427 . S
C1037 H1027 0.929 . S
C1037 C1035 1.433 . S
C1037 N1040 1.384 . S
C1038 H1029 0.929 . S
C1038 C1030 1.378 . S
C1038 C1033 1.350 . S
C1039 H1026 0.929 . S
C1039 C1031 1.433 . S
C1039 N1041 1.384 . S
N1040 C1036 1.427 . S
N1040 C1037 1.384 . S
N1041 C1033 1.427 . S
N1041 C1039 1.384 . S
H1042 C1048 0.930 . S
H1043 C1052 0.930 . S
H1044 C1057 0.929 . S
H1045 C1055 0.929 . S
H1046 C1050 0.929 . S
H1047 C1056 0.929 . S
C1048 H1042 0.930 . S
C1048 C1049 1.367 . S
C1048 C1056 1.378 . S
C1049 C1048 1.367 . S
C1049 C1057 1.433 . S
C1050 H1046 0.929 . S
C1050 C1052 1.378 . S
C1050 C1054 1.350 . S
C1051 C1054 1.463 1_655 S
C1051 C1056 1.350 . S
C1051 N1059 1.427 . S
C1052 H1043 0.930 . S
C1052 C1050 1.378 . S
C1052 C1053 1.367 . S
C1053 C1052 1.367 . S
C1053 C1055 1.433 . S
C1054 C1050 1.350 . S
C1054 C1051 1.463 1_455 S
C1054 N1058 1.427 . S
C1055 H1045 0.929 . S
C1055 C1053 1.433 . S
C1055 N1058 1.384 . S
C1056 H1047 0.929 . S
C1056 C1048 1.378 . S
C1056 C1051 1.350 . S
C1057 H1044 0.929 . S
C1057 C1049 1.433 . S
C1057 N1059 1.384 . S
N1058 C1054 1.427 . S
N1058 C1055 1.384 . S
N1059 C1051 1.427 . S
N1059 C1057 1.384 . S
H1060 C1066 0.930 . S
H1061 C1070 0.930 . S
H1062 C1075 0.929 . S
H1063 C1073 0.929 . S
H1064 C1068 0.929 . S
H1065 C1074 0.929 . S
C1066 H1060 0.930 . S
C1066 C1067 1.367 . S
C1066 C1074 1.378 . S
C1067 C1066 1.367 . S
C1067 C1075 1.433 . S
C1068 H1064 0.929 . S
C1068 C1070 1.378 . S
C1068 C1072 1.350 . S
C1069 C1072 1.463 . S
C1069 C1074 1.350 . S
C1069 N1077 1.427 . S
C1070 H1061 0.930 . S
C1070 C1068 1.378 . S
C1070 C1071 1.367 . S
C1071 C1070 1.367 . S
C1071 C1073 1.433 . S
C1072 C1068 1.350 . S
C1072 C1069 1.463 . S
C1072 N1076 1.427 . S
C1073 H1063 0.929 . S
C1073 C1071 1.433 . S
C1073 N1076 1.384 . S
C1074 H1065 0.929 . S
C1074 C1066 1.378 . S
C1074 C1069 1.350 . S
C1075 H1062 0.929 . S
C1075 C1067 1.433 . S
C1075 N1077 1.384 . S
N1076 C1072 1.427 . S
N1076 C1073 1.384 . S
N1077 C1069 1.427 . S
N1077 C1075 1.384 . S
H1078 C1084 0.930 . S
H1079 C1088 0.930 . S
H1080 C1093 0.929 . S
H1081 C1091 0.929 . S
H1082 C1086 0.929 . S
H1083 C1092 0.929 . S
C1084 H1078 0.930 . S
C1084 C1085 1.367 . S
C1084 C1092 1.378 . S
C1085 C1084 1.367 . S
C1085 C1093 1.433 . S
C1086 H1082 0.929 . S
C1086 C1088 1.378 . S
C1086 C1090 1.350 . S
C1087 C1090 1.463 . S
C1087 C1092 1.350 . S
C1087 N1095 1.427 . S
C1088 H1079 0.930 . S
C1088 C1086 1.378 . S
C1088 C1089 1.367 . S
C1089 C1088 1.367 . S
C1089 C1091 1.433 . S
C1090 C1086 1.350 . S
C1090 C1087 1.463 . S
C1090 N1094 1.427 . S
C1091 H1081 0.929 . S
C1091 C1089 1.433 . S
C1091 N1094 1.384 . S
C1092 H1083 0.929 . S
C1092 C1084 1.378 . S
C1092 C1087 1.350 . S
C1093 H1080 0.929 . S
C1093 C1085 1.433 . S
C1093 N1095 1.384 . S
N1094 C1090 1.427 . S
N1094 C1091 1.384 . S
N1095 C1087 1.427 . S
N1095 C1093 1.384 . S
H1096 C1102 0.930 . S
H1097 C1106 0.930 . S
H1098 C1111 0.929 . S
H1099 C1109 0.929 . S
H1100 C1104 0.929 . S
H1101 C1110 0.929 . S
C1102 H1096 0.930 . S
C1102 C1103 1.367 . S
C1102 C1110 1.378 . S
C1103 C1102 1.367 . S
C1103 C1111 1.433 . S
C1104 H1100 0.929 . S
C1104 C1106 1.378 . S
C1104 C1108 1.350 . S
C1105 C1108 1.463 . S
C1105 C1110 1.350 . S
C1105 N1113 1.427 . S
C1106 H1097 0.930 . S
C1106 C1104 1.378 . S
C1106 C1107 1.367 . S
C1107 C1106 1.367 . S
C1107 C1109 1.433 . S
C1108 C1104 1.350 . S
C1108 C1105 1.463 . S
C1108 N1112 1.427 . S
C1109 H1099 0.929 . S
C1109 C1107 1.433 . S
C1109 N1112 1.384 . S
C1110 H1101 0.929 . S
C1110 C1102 1.378 . S
C1110 C1105 1.350 . S
C1111 H1098 0.929 . S
C1111 C1103 1.433 . S
C1111 N1113 1.384 . S
N1112 C1108 1.427 . S
N1112 C1109 1.384 . S
N1113 C1105 1.427 . S
N1113 C1111 1.384 . S
H1114 C1120 0.930 . S
H1115 C1124 0.930 . S
H1116 C1129 0.929 . S
H1117 C1127 0.929 . S
H1118 C1122 0.929 . S
H1119 C1128 0.929 . S
C1120 H1114 0.930 . S
C1120 C1121 1.367 . S
C1120 C1128 1.378 . S
C1121 C1120 1.367 . S
C1121 C1129 1.433 . S
C1122 H1118 0.929 . S
C1122 C1124 1.378 . S
C1122 C1126 1.350 . S
C1123 C1126 1.463 . S
C1123 C1128 1.350 . S
C1123 N1131 1.427 . S
C1124 H1115 0.930 . S
C1124 C1122 1.378 . S
C1124 C1125 1.367 . S
C1125 C1124 1.367 . S
C1125 C1127 1.433 . S
C1126 C1122 1.350 . S
C1126 C1123 1.463 . S
C1126 N1130 1.427 . S
C1127 H1117 0.929 . S
C1127 C1125 1.433 . S
C1127 N1130 1.384 . S
C1128 H1119 0.929 . S
C1128 C1120 1.378 . S
C1128 C1123 1.350 . S
C1129 H1116 0.929 . S
C1129 C1121 1.433 . S
C1129 N1131 1.384 . S
N1130 C1126 1.427 . S
N1130 C1127 1.384 . S
N1131 C1123 1.427 . S
N1131 C1129 1.384 . S
H1132 C1138 0.930 . S
H1133 C1142 0.930 . S
H1134 C1147 0.929 . S
H1135 C1145 0.929 . S
H1136 C1140 0.929 . S
H1137 C1146 0.929 . S
C1138 H1132 0.930 . S
C1138 C1139 1.367 . S
C1138 C1146 1.378 . S
C1139 C1138 1.367 . S
C1139 C1147 1.433 . S
C1140 H1136 0.929 . S
C1140 C1142 1.378 . S
C1140 C1144 1.350 . S
C1141 C1144 1.463 . S
C1141 C1146 1.350 . S
C1141 N1149 1.427 . S
C1142 H1133 0.930 . S
C1142 C1140 1.378 . S
C1142 C1143 1.367 . S
C1143 C1142 1.367 . S
C1143 C1145 1.433 . S
C1144 C1140 1.350 . S
C1144 C1141 1.463 . S
C1144 N1148 1.427 . S
C1145 H1135 0.929 . S
C1145 C1143 1.433 . S
C1145 N1148 1.384 . S
C1146 H1137 0.929 . S
C1146 C1138 1.378 . S
C1146 C1141 1.350 . S
C1147 H1134 0.929 . S
C1147 C1139 1.433 . S
C1147 N1149 1.384 . S
N1148 C1144 1.427 . S
N1148 C1145 1.384 . S
N1149 C1141 1.427 . S
N1149 C1147 1.384 . S
H1150 C1156 0.930 . S
H1151 C1160 0.930 . S
H1152 C1165 0.929 . S
H1153 C1163 0.929 . S
H1154 C1158 0.929 . S
H1155 C1164 0.929 . S
C1156 H1150 0.930 . S
C1156 C1157 1.367 . S
C1156 C1164 1.378 . S
C1157 C1156 1.367 . S
C1157 C1165 1.433 . S
C1158 H1154 0.929 . S
C1158 C1160 1.378 . S
C1158 C1162 1.350 . S
C1159 C1162 1.463 1_655 S
C1159 C1164 1.350 . S
C1159 N1167 1.427 . S
C1160 H1151 0.930 . S
C1160 C1158 1.378 . S
C1160 C1161 1.367 . S
C1161 C1160 1.367 . S
C1161 C1163 1.433 . S
C1162 C1158 1.350 . S
C1162 C1159 1.463 1_455 S
C1162 N1166 1.427 . S
C1163 H1153 0.929 . S
C1163 C1161 1.433 . S
C1163 N1166 1.384 . S
C1164 H1155 0.929 . S
C1164 C1156 1.378 . S
C1164 C1159 1.350 . S
C1165 H1152 0.929 . S
C1165 C1157 1.433 . S
C1165 N1167 1.384 . S
N1166 C1162 1.427 . S
N1166 C1163 1.384 . S
N1167 C1159 1.427 . S
N1167 C1165 1.384 . S
H1168 C1174 0.930 . S
H1169 C1178 0.930 . S
H1170 C1183 0.929 . S
H1171 C1181 0.929 . S
H1172 C1176 0.929 . S
H1173 C1182 0.929 . S
C1174 H1168 0.930 . S
C1174 C1175 1.367 . S
C1174 C1182 1.378 . S
C1175 C1174 1.367 . S
C1175 C1183 1.433 . S
C1176 H1172 0.929 . S
C1176 C1178 1.378 . S
C1176 C1180 1.350 . S
C1177 C1180 1.463 . S
C1177 C1182 1.350 . S
C1177 N1185 1.427 . S
C1178 H1169 0.930 . S
C1178 C1176 1.378 . S
C1178 C1179 1.367 . S
C1179 C1178 1.367 . S
C1179 C1181 1.433 . S
C1180 C1176 1.350 . S
C1180 C1177 1.463 . S
C1180 N1184 1.427 . S
C1181 H1171 0.929 . S
C1181 C1179 1.433 . S
C1181 N1184 1.384 . S
C1182 H1173 0.929 . S
C1182 C1174 1.378 . S
C1182 C1177 1.350 . S
C1183 H1170 0.929 . S
C1183 C1175 1.433 . S
C1183 N1185 1.384 . S
N1184 C1180 1.427 . S
N1184 C1181 1.384 . S
N1185 C1177 1.427 . S
N1185 C1183 1.384 . S
H1186 C1192 0.930 . S
H1187 C1196 0.930 . S
H1188 C1201 0.929 . S
H1189 C1199 0.929 . S
H1190 C1194 0.929 . S
H1191 C1200 0.929 . S
C1192 H1186 0.930 . S
C1192 C1193 1.367 . S
C1192 C1200 1.378 . S
C1193 C1192 1.367 . S
C1193 C1201 1.433 . S
C1194 H1190 0.929 . S
C1194 C1196 1.378 . S
C1194 C1198 1.350 . S
C1195 C1198 1.463 . S
C1195 C1200 1.350 . S
C1195 N1203 1.427 . S
C1196 H1187 0.930 . S
C1196 C1194 1.378 . S
C1196 C1197 1.367 . S
C1197 C1196 1.367 . S
C1197 C1199 1.433 . S
C1198 C1194 1.350 . S
C1198 C1195 1.463 . S
C1198 N1202 1.427 . S
C1199 H1189 0.929 . S
C1199 C1197 1.433 . S
C1199 N1202 1.384 . S
C1200 H1191 0.929 . S
C1200 C1192 1.378 . S
C1200 C1195 1.350 . S
C1201 H1188 0.929 . S
C1201 C1193 1.433 . S
C1201 N1203 1.384 . S
N1202 C1198 1.427 . S
N1202 C1199 1.384 . S
N1203 C1195 1.427 . S
N1203 C1201 1.384 . S
H1204 C1210 0.930 . S
H1205 C1214 0.930 . S
H1206 C1219 0.929 . S
H1207 C1217 0.929 . S
H1208 C1212 0.929 . S
H1209 C1218 0.929 . S
C1210 H1204 0.930 . S
C1210 C1211 1.367 . S
C1210 C1218 1.378 . S
C1211 C1210 1.367 . S
C1211 C1219 1.433 . S
C1212 H1208 0.929 . S
C1212 C1214 1.378 . S
C1212 C1216 1.350 . S
C1213 C1216 1.463 . S
C1213 C1218 1.350 . S
C1213 N1221 1.427 . S
C1214 H1205 0.930 . S
C1214 C1212 1.378 . S
C1214 C1215 1.367 . S
C1215 C1214 1.367 . S
C1215 C1217 1.433 . S
C1216 C1212 1.350 . S
C1216 C1213 1.463 . S
C1216 N1220 1.427 . S
C1217 H1207 0.929 . S
C1217 C1215 1.433 . S
C1217 N1220 1.384 . S
C1218 H1209 0.929 . S
C1218 C1210 1.378 . S
C1218 C1213 1.350 . S
C1219 H1206 0.929 . S
C1219 C1211 1.433 . S
C1219 N1221 1.384 . S
N1220 C1216 1.427 . S
N1220 C1217 1.384 . S
N1221 C1213 1.427 . S
N1221 C1219 1.384 . S
H1222 C1228 0.930 . S
H1223 C1232 0.930 . S
H1224 C1237 0.929 . S
H1225 C1235 0.929 . S
H1226 C1230 0.929 . S
H1227 C1236 0.929 . S
C1228 H1222 0.930 . S
C1228 C1229 1.367 . S
C1228 C1236 1.378 . S
C1229 C1228 1.367 . S
C1229 C1237 1.433 . S
C1230 H1226 0.929 . S
C1230 C1232 1.378 . S
C1230 C1234 1.350 . S
C1231 C1234 1.463 . S
C1231 C1236 1.350 . S
C1231 N1239 1.427 . S
C1232 H1223 0.930 . S
C1232 C1230 1.378 . S
C1232 C1233 1.367 . S
C1233 C1232 1.367 . S
C1233 C1235 1.433 . S
C1234 C1230 1.350 . S
C1234 C1231 1.463 . S
C1234 N1238 1.427 . S
C1235 H1225 0.929 . S
C1235 C1233 1.433 . S
C1235 N1238 1.384 . S
C1236 H1227 0.929 . S
C1236 C1228 1.378 . S
C1236 C1231 1.350 . S
C1237 H1224 0.929 . S
C1237 C1229 1.433 . S
C1237 N1239 1.384 . S
N1238 C1234 1.427 . S
N1238 C1235 1.384 . S
N1239 C1231 1.427 . S
N1239 C1237 1.384 . S
H1240 C1246 0.930 . S
H1241 C1250 0.930 . S
H1242 C1255 0.929 . S
H1243 C1253 0.929 . S
H1244 C1248 0.929 . S
H1245 C1254 0.929 . S
C1246 H1240 0.930 . S
C1246 C1247 1.367 . S
C1246 C1254 1.378 . S
C1247 C1246 1.367 . S
C1247 C1255 1.433 . S
C1248 H1244 0.929 . S
C1248 C1250 1.378 . S
C1248 C1252 1.350 . S
C1249 C1252 1.463 . S
C1249 C1254 1.350 . S
C1249 N1257 1.427 . S
C1250 H1241 0.930 . S
C1250 C1248 1.378 . S
C1250 C1251 1.367 . S
C1251 C1250 1.367 . S
C1251 C1253 1.433 . S
C1252 C1248 1.350 . S
C1252 C1249 1.463 . S
C1252 N1256 1.427 . S
C1253 H1243 0.929 . S
C1253 C1251 1.433 . S
C1253 N1256 1.384 . S
C1254 H1245 0.929 . S
C1254 C1246 1.378 . S
C1254 C1249 1.350 . S
C1255 H1242 0.929 . S
C1255 C1247 1.433 . S
C1255 N1257 1.384 . S
N1256 C1252 1.427 . S
N1256 C1253 1.384 . S
N1257 C1249 1.427 . S
N1257 C1255 1.384 . S
H1258 C1264 0.930 . S
H1259 C1268 0.930 . S
H1260 C1273 0.929 . S
H1261 C1271 0.929 . S
H1262 C1266 0.929 . S
H1263 C1272 0.929 . S
C1264 H1258 0.930 . S
C1264 C1265 1.367 . S
C1264 C1272 1.378 . S
C1265 C1264 1.367 . S
C1265 C1273 1.433 . S
C1266 H1262 0.929 . S
C1266 C1268 1.378 . S
C1266 C1270 1.350 . S
C1267 C1270 1.463 1_655 S
C1267 C1272 1.350 . S
C1267 N1275 1.427 . S
C1268 H1259 0.930 . S
C1268 C1266 1.378 . S
C1268 C1269 1.367 . S
C1269 C1268 1.367 . S
C1269 C1271 1.433 . S
C1270 C1266 1.350 . S
C1270 C1267 1.463 1_455 S
C1270 N1274 1.427 . S
C1271 H1261 0.929 . S
C1271 C1269 1.433 . S
C1271 N1274 1.384 . S
C1272 H1263 0.929 . S
C1272 C1264 1.378 . S
C1272 C1267 1.350 . S
C1273 H1260 0.929 . S
C1273 C1265 1.433 . S
C1273 N1275 1.384 . S
N1274 C1270 1.427 . S
N1274 C1271 1.384 . S
N1275 C1267 1.427 . S
N1275 C1273 1.384 . S
H1276 C1282 0.930 . S
H1277 C1286 0.930 . S
H1278 C1291 0.929 . S
H1279 C1289 0.929 . S
H1280 C1284 0.929 . S
H1281 C1290 0.929 . S
C1282 H1276 0.930 . S
C1282 C1283 1.367 . S
C1282 C1290 1.378 . S
C1283 C1282 1.367 . S
C1283 C1291 1.433 . S
C1284 H1280 0.929 . S
C1284 C1286 1.378 . S
C1284 C1288 1.350 . S
C1285 C1288 1.463 1_655 S
C1285 C1290 1.350 . S
C1285 N1293 1.427 . S
C1286 H1277 0.930 . S
C1286 C1284 1.378 . S
C1286 C1287 1.367 . S
C1287 C1286 1.367 . S
C1287 C1289 1.433 . S
C1288 C1284 1.350 . S
C1288 C1285 1.463 1_455 S
C1288 N1292 1.427 . S
C1289 H1279 0.929 . S
C1289 C1287 1.433 . S
C1289 N1292 1.384 . S
C1290 H1281 0.929 . S
C1290 C1282 1.378 . S
C1290 C1285 1.350 . S
C1291 H1278 0.929 . S
C1291 C1283 1.433 . S
C1291 N1293 1.384 . S
N1292 C1288 1.427 . S
N1292 C1289 1.384 . S
N1293 C1285 1.427 . S
N1293 C1291 1.384 . S
H1294 C1300 0.930 . S
H1295 C1304 0.930 . S
H1296 C1309 0.929 . S
H1297 C1307 0.929 . S
H1298 C1302 0.929 . S
H1299 C1308 0.929 . S
C1300 H1294 0.930 . S
C1300 C1301 1.367 . S
C1300 C1308 1.378 . S
C1301 C1300 1.367 . S
C1301 C1309 1.433 . S
C1302 H1298 0.929 . S
C1302 C1304 1.378 . S
C1302 C1306 1.350 . S
C1303 C1306 1.463 . S
C1303 C1308 1.350 . S
C1303 N1311 1.427 . S
C1304 H1295 0.930 . S
C1304 C1302 1.378 . S
C1304 C1305 1.367 . S
C1305 C1304 1.367 . S
C1305 C1307 1.433 . S
C1306 C1302 1.350 . S
C1306 C1303 1.463 . S
C1306 N1310 1.427 . S
C1307 H1297 0.929 . S
C1307 C1305 1.433 . S
C1307 N1310 1.384 . S
C1308 H1299 0.929 . S
C1308 C1300 1.378 . S
C1308 C1303 1.350 . S
C1309 H1296 0.929 . S
C1309 C1301 1.433 . S
C1309 N1311 1.384 . S
N1310 C1306 1.427 . S
N1310 C1307 1.384 . S
N1311 C1303 1.427 . S
N1311 C1309 1.384 . S
H1312 C1318 0.930 . S
H1313 C1322 0.930 . S
H1314 C1327 0.929 . S
H1315 C1325 0.929 . S
H1316 C1320 0.929 . S
H1317 C1326 0.929 . S
C1318 H1312 0.930 . S
C1318 C1319 1.367 . S
C1318 C1326 1.378 . S
C1319 C1318 1.367 . S
C1319 C1327 1.433 . S
C1320 H1316 0.929 . S
C1320 C1322 1.378 . S
C1320 C1324 1.350 . S
C1321 C1324 1.463 . S
C1321 C1326 1.350 . S
C1321 N1329 1.427 . S
C1322 H1313 0.930 . S
C1322 C1320 1.378 . S
C1322 C1323 1.367 . S
C1323 C1322 1.367 . S
C1323 C1325 1.433 . S
C1324 C1320 1.350 . S
C1324 C1321 1.463 . S
C1324 N1328 1.427 . S
C1325 H1315 0.929 . S
C1325 C1323 1.433 . S
C1325 N1328 1.384 . S
C1326 H1317 0.929 . S
C1326 C1318 1.378 . S
C1326 C1321 1.350 . S
C1327 H1314 0.929 . S
C1327 C1319 1.433 . S
C1327 N1329 1.384 . S
N1328 C1324 1.427 . S
N1328 C1325 1.384 . S
N1329 C1321 1.427 . S
N1329 C1327 1.384 . S
H1330 C1336 0.930 . S
H1331 C1340 0.930 . S
H1332 C1345 0.929 . S
H1333 C1343 0.929 . S
H1334 C1338 0.929 . S
H1335 C1344 0.929 . S
C1336 H1330 0.930 . S
C1336 C1337 1.367 . S
C1336 C1344 1.378 . S
C1337 C1336 1.367 . S
C1337 C1345 1.433 . S
C1338 H1334 0.929 . S
C1338 C1340 1.378 . S
C1338 C1342 1.350 . S
C1339 C1342 1.463 . S
C1339 C1344 1.350 . S
C1339 N1347 1.427 . S
C1340 H1331 0.930 . S
C1340 C1338 1.378 . S
C1340 C1341 1.367 . S
C1341 C1340 1.367 . S
C1341 C1343 1.433 . S
C1342 C1338 1.350 . S
C1342 C1339 1.463 . S
C1342 N1346 1.427 . S
C1343 H1333 0.929 . S
C1343 C1341 1.433 . S
C1343 N1346 1.384 . S
C1344 H1335 0.929 . S
C1344 C1336 1.378 . S
C1344 C1339 1.350 . S
C1345 H1332 0.929 . S
C1345 C1337 1.433 . S
C1345 N1347 1.384 . S
N1346 C1342 1.427 . S
N1346 C1343 1.384 . S
N1347 C1339 1.427 . S
N1347 C1345 1.384 . S
H1348 C1354 0.930 . S
H1349 C1358 0.930 . S
H1350 C1363 0.929 1_554 S
H1351 C1361 0.929 . S
H1352 C1356 0.929 . S
H1353 C1362 0.929 . S
C1354 H1348 0.930 . S
C1354 C1355 1.367 . S
C1354 C1362 1.378 . S
C1355 C1354 1.367 . S
C1355 C1363 1.433 . S
C1356 H1352 0.929 . S
C1356 C1358 1.378 . S
C1356 C1360 1.350 . S
C1357 C1360 1.463 . S
C1357 C1362 1.350 . S
C1357 N1365 1.427 . S
C1358 H1349 0.930 . S
C1358 C1356 1.378 . S
C1358 C1359 1.367 . S
C1359 C1358 1.367 . S
C1359 C1361 1.433 . S
C1360 C1356 1.350 . S
C1360 C1357 1.463 . S
C1360 N1364 1.427 . S
C1361 H1351 0.929 . S
C1361 C1359 1.433 . S
C1361 N1364 1.384 . S
C1362 H1353 0.929 . S
C1362 C1354 1.378 . S
C1362 C1357 1.350 . S
C1363 H1350 0.929 1_556 S
C1363 C1355 1.433 . S
C1363 N1365 1.384 . S
N1364 C1360 1.427 . S
N1364 C1361 1.384 . S
N1365 C1357 1.427 . S
N1365 C1363 1.384 . S
H1366 C1372 0.930 . S
H1367 C1376 0.930 . S
H1368 C1381 0.929 1_556 S
H1369 C1379 0.929 . S
H1370 C1374 0.929 . S
H1371 C1380 0.929 . S
C1372 H1366 0.930 . S
C1372 C1373 1.367 . S
C1372 C1380 1.378 . S
C1373 C1372 1.367 . S
C1373 C1381 1.433 . S
C1374 H1370 0.929 . S
C1374 C1376 1.378 . S
C1374 C1378 1.350 . S
C1375 C1378 1.463 . S
C1375 C1380 1.350 . S
C1375 N1383 1.427 . S
C1376 H1367 0.930 . S
C1376 C1374 1.378 . S
C1376 C1377 1.367 . S
C1377 C1376 1.367 . S
C1377 C1379 1.433 . S
C1378 C1374 1.350 . S
C1378 C1375 1.463 . S
C1378 N1382 1.427 . S
C1379 H1369 0.929 . S
C1379 C1377 1.433 . S
C1379 N1382 1.384 . S
C1380 H1371 0.929 . S
C1380 C1372 1.378 . S
C1380 C1375 1.350 . S
C1381 H1368 0.929 1_554 S
C1381 C1373 1.433 . S
C1381 N1383 1.384 . S
N1382 C1378 1.427 . S
N1382 C1379 1.384 . S
N1383 C1375 1.427 . S
N1383 C1381 1.384 . S
H1384 C1390 0.930 . S
H1385 C1394 0.930 . S
H1386 C1399 0.929 . S
H1387 C1397 0.929 . S
H1388 C1392 0.929 . S
H1389 C1398 0.929 . S
C1390 H1384 0.930 . S
C1390 C1391 1.367 . S
C1390 C1398 1.378 . S
C1391 C1390 1.367 . S
C1391 C1399 1.433 . S
C1392 H1388 0.929 . S
C1392 C1394 1.378 . S
C1392 C1396 1.350 . S
C1393 C1396 1.463 . S
C1393 C1398 1.350 . S
C1393 N1401 1.427 . S
C1394 H1385 0.930 . S
C1394 C1392 1.378 . S
C1394 C1395 1.367 . S
C1395 C1394 1.367 . S
C1395 C1397 1.433 . S
C1396 C1392 1.350 . S
C1396 C1393 1.463 . S
C1396 N1400 1.427 . S
C1397 H1387 0.929 . S
C1397 C1395 1.433 . S
C1397 N1400 1.384 . S
C1398 H1389 0.929 . S
C1398 C1390 1.378 . S
C1398 C1393 1.350 . S
C1399 H1386 0.929 . S
C1399 C1391 1.433 . S
C1399 N1401 1.384 . S
N1400 C1396 1.427 . S
N1400 C1397 1.384 . S
N1401 C1393 1.427 . S
N1401 C1399 1.384 . S
H1402 C1408 0.930 . S
H1403 C1412 0.930 . S
H1404 C1417 0.929 . S
H1405 C1415 0.929 . S
H1406 C1410 0.929 . S
H1407 C1416 0.929 . S
C1408 H1402 0.930 . S
C1408 C1409 1.367 . S
C1408 C1416 1.378 . S
C1409 C1408 1.367 . S
C1409 C1417 1.433 . S
C1410 H1406 0.929 . S
C1410 C1412 1.378 . S
C1410 C1414 1.350 . S
C1411 C1414 1.463 . S
C1411 C1416 1.350 . S
C1411 N1419 1.427 . S
C1412 H1403 0.930 . S
C1412 C1410 1.378 . S
C1412 C1413 1.367 . S
C1413 C1412 1.367 . S
C1413 C1415 1.433 . S
C1414 C1410 1.350 . S
C1414 C1411 1.463 . S
C1414 N1418 1.427 . S
C1415 H1405 0.929 . S
C1415 C1413 1.433 . S
C1415 N1418 1.384 . S
C1416 H1407 0.929 . S
C1416 C1408 1.378 . S
C1416 C1411 1.350 . S
C1417 H1404 0.929 . S
C1417 C1409 1.433 . S
C1417 N1419 1.384 . S
N1418 C1414 1.427 . S
N1418 C1415 1.384 . S
N1419 C1411 1.427 . S
N1419 C1417 1.384 . S
H1420 C1426 0.930 . S
H1421 C1430 0.930 1_556 S
H1422 C1435 0.929 . S
H1423 C1433 0.929 . S
H1424 C1428 0.929 . S
H1425 C1434 0.929 . S
C1426 H1420 0.930 . S
C1426 C1427 1.367 . S
C1426 C1434 1.378 . S
C1427 C1426 1.367 . S
C1427 C1435 1.433 . S
C1428 H1424 0.929 . S
C1428 C1430 1.378 . S
C1428 C1432 1.350 . S
C1429 C1432 1.463 . S
C1429 C1434 1.350 . S
C1429 N1437 1.427 . S
C1430 H1421 0.930 1_554 S
C1430 C1428 1.378 . S
C1430 C1431 1.367 . S
C1431 C1430 1.367 . S
C1431 C1433 1.433 . S
C1432 C1428 1.350 . S
C1432 C1429 1.463 . S
C1432 N1436 1.427 . S
C1433 H1423 0.929 . S
C1433 C1431 1.433 . S
C1433 N1436 1.384 . S
C1434 H1425 0.929 . S
C1434 C1426 1.378 . S
C1434 C1429 1.350 . S
C1435 H1422 0.929 . S
C1435 C1427 1.433 . S
C1435 N1437 1.384 . S
N1436 C1432 1.427 . S
N1436 C1433 1.384 . S
N1437 C1429 1.427 . S
N1437 C1435 1.384 . S
H1438 C1444 0.930 . S
H1439 C1448 0.930 . S
H1440 C1453 0.929 . S
H1441 C1451 0.929 1_554 S
H1442 C1446 0.929 . S
H1443 C1452 0.929 . S
C1444 H1438 0.930 . S
C1444 C1445 1.367 . S
C1444 C1452 1.378 . S
C1445 C1444 1.367 . S
C1445 C1453 1.433 . S
C1446 H1442 0.929 . S
C1446 C1448 1.378 . S
C1446 C1450 1.350 . S
C1447 C1450 1.463 . S
C1447 C1452 1.350 . S
C1447 N1455 1.427 . S
C1448 H1439 0.930 . S
C1448 C1446 1.378 . S
C1448 C1449 1.367 . S
C1449 C1448 1.367 . S
C1449 C1451 1.433 . S
C1450 C1446 1.350 . S
C1450 C1447 1.463 . S
C1450 N1454 1.427 . S
C1451 H1441 0.929 1_556 S
C1451 C1449 1.433 . S
C1451 N1454 1.384 . S
C1452 H1443 0.929 . S
C1452 C1444 1.378 . S
C1452 C1447 1.350 . S
C1453 H1440 0.929 . S
C1453 C1445 1.433 . S
C1453 N1455 1.384 . S
N1454 C1450 1.427 . S
N1454 C1451 1.384 . S
N1455 C1447 1.427 . S
N1455 C1453 1.384 . S
H1456 C1462 0.930 . S
H1457 C1466 0.930 . S
H1458 C1471 0.929 1_554 S
H1459 C1469 0.929 . S
H1460 C1464 0.929 . S
H1461 C1470 0.929 . S
C1462 H1456 0.930 . S
C1462 C1463 1.367 . S
C1462 C1470 1.378 . S
C1463 C1462 1.367 . S
C1463 C1471 1.433 . S
C1464 H1460 0.929 . S
C1464 C1466 1.378 . S
C1464 C1468 1.350 . S
C1465 C1468 1.463 . S
C1465 C1470 1.350 . S
C1465 N1473 1.427 . S
C1466 H1457 0.930 . S
C1466 C1464 1.378 . S
C1466 C1467 1.367 . S
C1467 C1466 1.367 . S
C1467 C1469 1.433 . S
C1468 C1464 1.350 . S
C1468 C1465 1.463 . S
C1468 N1472 1.427 . S
C1469 H1459 0.929 . S
C1469 C1467 1.433 . S
C1469 N1472 1.384 . S
C1470 H1461 0.929 . S
C1470 C1462 1.378 . S
C1470 C1465 1.350 . S
C1471 H1458 0.929 1_556 S
C1471 C1463 1.433 . S
C1471 N1473 1.384 . S
N1472 C1468 1.427 . S
N1472 C1469 1.384 . S
N1473 C1465 1.427 . S
N1473 C1471 1.384 . S
H1474 C1480 0.930 . S
H1475 C1484 0.930 . S
H1476 C1489 0.929 . S
H1477 C1487 0.929 . S
H1478 C1482 0.929 . S
H1479 C1488 0.929 . S
C1480 H1474 0.930 . S
C1480 C1481 1.367 . S
C1480 C1488 1.378 . S
C1481 C1480 1.367 . S
C1481 C1489 1.433 . S
C1482 H1478 0.929 . S
C1482 C1484 1.378 . S
C1482 C1486 1.350 . S
C1483 C1486 1.463 . S
C1483 C1488 1.350 . S
C1483 N1491 1.427 . S
C1484 H1475 0.930 . S
C1484 C1482 1.378 . S
C1484 C1485 1.367 . S
C1485 C1484 1.367 . S
C1485 C1487 1.433 . S
C1486 C1482 1.350 . S
C1486 C1483 1.463 . S
C1486 N1490 1.427 . S
C1487 H1477 0.929 . S
C1487 C1485 1.433 . S
C1487 N1490 1.384 . S
C1488 H1479 0.929 . S
C1488 C1480 1.378 . S
C1488 C1483 1.350 . S
C1489 H1476 0.929 . S
C1489 C1481 1.433 . S
C1489 N1491 1.384 . S
N1490 C1486 1.427 . S
N1490 C1487 1.384 . S
N1491 C1483 1.427 . S
N1491 C1489 1.384 . S
H1492 C1498 0.930 . S
H1493 C1502 0.930 . S
H1494 C1507 0.929 . S
H1495 C1505 0.929 . S
H1496 C1500 0.929 . S
H1497 C1506 0.929 . S
C1498 H1492 0.930 . S
C1498 C1499 1.367 . S
C1498 C1506 1.378 . S
C1499 C1498 1.367 . S
C1499 C1507 1.433 . S
C1500 H1496 0.929 . S
C1500 C1502 1.378 . S
C1500 C1504 1.350 . S
C1501 C1504 1.463 . S
C1501 C1506 1.350 . S
C1501 N1509 1.427 . S
C1502 H1493 0.930 . S
C1502 C1500 1.378 . S
C1502 C1503 1.367 . S
C1503 C1502 1.367 . S
C1503 C1505 1.433 . S
C1504 C1500 1.350 . S
C1504 C1501 1.463 . S
C1504 N1508 1.427 . S
C1505 H1495 0.929 . S
C1505 C1503 1.433 . S
C1505 N1508 1.384 . S
C1506 H1497 0.929 . S
C1506 C1498 1.378 . S
C1506 C1501 1.350 . S
C1507 H1494 0.929 . S
C1507 C1499 1.433 . S
C1507 N1509 1.384 . S
N1508 C1504 1.427 . S
N1508 C1505 1.384 . S
N1509 C1501 1.427 . S
N1509 C1507 1.384 . S
H1510 C1516 0.930 . S
H1511 C1520 0.930 . S
H1512 C1525 0.929 . S
H1513 C1523 0.929 . S
H1514 C1518 0.929 . S
H1515 C1524 0.929 . S
C1516 H1510 0.930 . S
C1516 C1517 1.367 . S
C1516 C1524 1.378 . S
C1517 C1516 1.367 . S
C1517 C1525 1.433 . S
C1518 H1514 0.929 . S
C1518 C1520 1.378 . S
C1518 C1522 1.350 . S
C1519 C1522 1.463 . S
C1519 C1524 1.350 . S
C1519 N1527 1.427 . S
C1520 H1511 0.930 . S
C1520 C1518 1.378 . S
C1520 C1521 1.367 . S
C1521 C1520 1.367 . S
C1521 C1523 1.433 . S
C1522 C1518 1.350 . S
C1522 C1519 1.463 . S
C1522 N1526 1.427 . S
C1523 H1513 0.929 . S
C1523 C1521 1.433 . S
C1523 N1526 1.384 . S
C1524 H1515 0.929 . S
C1524 C1516 1.378 . S
C1524 C1519 1.350 . S
C1525 H1512 0.929 . S
C1525 C1517 1.433 . S
C1525 N1527 1.384 . S
N1526 C1522 1.427 . S
N1526 C1523 1.384 . S
N1527 C1519 1.427 . S
N1527 C1525 1.384 . S
H1528 C1534 0.930 . S
H1529 C1538 0.930 . S
H1530 C1543 0.929 . S
H1531 C1541 0.929 1_556 S
H1532 C1536 0.929 . S
H1533 C1542 0.929 . S
C1534 H1528 0.930 . S
C1534 C1535 1.367 . S
C1534 C1542 1.378 . S
C1535 C1534 1.367 . S
C1535 C1543 1.433 . S
C1536 H1532 0.929 . S
C1536 C1538 1.378 . S
C1536 C1540 1.350 . S
C1537 C1540 1.463 . S
C1537 C1542 1.350 . S
C1537 N1545 1.427 . S
C1538 H1529 0.930 . S
C1538 C1536 1.378 . S
C1538 C1539 1.367 . S
C1539 C1538 1.367 . S
C1539 C1541 1.433 . S
C1540 C1536 1.350 . S
C1540 C1537 1.463 . S
C1540 N1544 1.427 . S
C1541 H1531 0.929 1_554 S
C1541 C1539 1.433 . S
C1541 N1544 1.384 . S
C1542 H1533 0.929 . S
C1542 C1534 1.378 . S
C1542 C1537 1.350 . S
C1543 H1530 0.929 . S
C1543 C1535 1.433 . S
C1543 N1545 1.384 . S
N1544 C1540 1.427 . S
N1544 C1541 1.384 . S
N1545 C1537 1.427 . S
N1545 C1543 1.384 . S
H1546 C1552 0.930 . S
H1547 C1556 0.930 . S
H1548 C1561 0.929 . S
H1549 C1559 0.929 . S
H1550 C1554 0.929 . S
H1551 C1560 0.929 . S
C1552 H1546 0.930 . S
C1552 C1553 1.367 . S
C1552 C1560 1.378 . S
C1553 C1552 1.367 . S
C1553 C1561 1.433 . S
C1554 H1550 0.929 . S
C1554 C1556 1.378 . S
C1554 C1558 1.350 . S
C1555 C1558 1.463 . S
C1555 C1560 1.350 . S
C1555 N1563 1.427 . S
C1556 H1547 0.930 . S
C1556 C1554 1.378 . S
C1556 C1557 1.367 . S
C1557 C1556 1.367 . S
C1557 C1559 1.433 . S
C1558 C1554 1.350 . S
C1558 C1555 1.463 . S
C1558 N1562 1.427 . S
C1559 H1549 0.929 . S
C1559 C1557 1.433 . S
C1559 N1562 1.384 . S
C1560 H1551 0.929 . S
C1560 C1552 1.378 . S
C1560 C1555 1.350 . S
C1561 H1548 0.929 . S
C1561 C1553 1.433 . S
C1561 N1563 1.384 . S
N1562 C1558 1.427 . S
N1562 C1559 1.384 . S
N1563 C1555 1.427 . S
N1563 C1561 1.384 . S
H1564 C1570 0.930 . S
H1565 C1574 0.930 . S
H1566 C1579 0.929 . S
H1567 C1577 0.929 . S
H1568 C1572 0.929 . S
H1569 C1578 0.929 . S
C1570 H1564 0.930 . S
C1570 C1571 1.367 . S
C1570 C1578 1.378 . S
C1571 C1570 1.367 . S
C1571 C1579 1.433 . S
C1572 H1568 0.929 . S
C1572 C1574 1.378 . S
C1572 C1576 1.350 . S
C1573 C1576 1.463 . S
C1573 C1578 1.350 . S
C1573 N1581 1.427 . S
C1574 H1565 0.930 . S
C1574 C1572 1.378 . S
C1574 C1575 1.367 . S
C1575 C1574 1.367 . S
C1575 C1577 1.433 . S
C1576 C1572 1.350 . S
C1576 C1573 1.463 . S
C1576 N1580 1.427 . S
C1577 H1567 0.929 . S
C1577 C1575 1.433 . S
C1577 N1580 1.384 . S
C1578 H1569 0.929 . S
C1578 C1570 1.378 . S
C1578 C1573 1.350 . S
C1579 H1566 0.929 . S
C1579 C1571 1.433 . S
C1579 N1581 1.384 . S
N1580 C1576 1.427 . S
N1580 C1577 1.384 . S
N1581 C1573 1.427 . S
N1581 C1579 1.384 . S
H1582 C1588 0.930 . S
H1583 C1592 0.930 . S
H1584 C1597 0.929 . S
H1585 C1595 0.929 . S
H1586 C1590 0.929 . S
H1587 C1596 0.929 . S
C1588 H1582 0.930 . S
C1588 C1589 1.367 . S
C1588 C1596 1.378 . S
C1589 C1588 1.367 . S
C1589 C1597 1.433 . S
C1590 H1586 0.929 . S
C1590 C1592 1.378 . S
C1590 C1594 1.350 . S
C1591 C1594 1.463 . S
C1591 C1596 1.350 . S
C1591 N1599 1.427 . S
C1592 H1583 0.930 . S
C1592 C1590 1.378 . S
C1592 C1593 1.367 . S
C1593 C1592 1.367 . S
C1593 C1595 1.433 . S
C1594 C1590 1.350 . S
C1594 C1591 1.463 . S
C1594 N1598 1.427 . S
C1595 H1585 0.929 . S
C1595 C1593 1.433 . S
C1595 N1598 1.384 . S
C1596 H1587 0.929 . S
C1596 C1588 1.378 . S
C1596 C1591 1.350 . S
C1597 H1584 0.929 . S
C1597 C1589 1.433 . S
C1597 N1599 1.384 . S
N1598 C1594 1.427 . S
N1598 C1595 1.384 . S
N1599 C1591 1.427 . S
N1599 C1597 1.384 . S
C455 C93 1.322 . S
C459 C9 1.329 . S
C473 C23 1.331 . S
C477 C107 1.325 . S
C491 C65 1.323 . S
C495 C37 1.328 . S
C509 C51 1.327 . S
C513 C79 1.324 . S
C527 C121 1.325 . S
C531 C205 1.331 . S
C545 C219 1.321 . S
C549 C135 1.332 . S
C563 C149 1.321 . S
C567 C177 1.332 . S
C581 C191 1.330 . S
C585 C163 1.326 . S
C599 C233 1.321 . S
C603 C317 1.331 . S
C617 C247 1.328 . S
C621 C331 1.329 . S
C635 C289 1.321 . S
C639 C261 1.332 . S
C653 C303 1.326 . S
C657 C275 1.325 . S
C671 C345 1.333 . S
C675 C429 1.321 . S
C689 C359 1.333 . S
C693 C443 1.321 . S
C707 C401 1.333 . S
C711 C373 1.322 . S
C725 C387 1.321 . S
C729 C415 1.332 . S
C743 C6 1.289 1_556 S
C747 C104 1.296 . S
C761 C62 1.286 1_554 S
C765 C20 1.299 . S
C779 C76 1.298 . S
C783 C34 1.286 . S
C797 C48 1.295 . S
C801 C90 1.289 . S
C815 C118 1.297 1_554 S
C819 C216 1.288 . S
C833 C174 1.286 1_556 S
C837 C132 1.299 . S
C851 C188 1.292 . S
C855 C146 1.293 . S
C869 C202 1.297 . S
C873 C160 1.287 . S
C887 C230 1.293 . S
C891 C328 1.292 . S
C905 C244 1.292 . S
C909 C286 1.293 . S
C923 C300 1.292 . S
C927 C258 1.293 1_556 S
C941 C272 1.286 . S
C945 C314 1.299 1_554 S
C959 C342 1.291 . S
C963 C440 1.294 . S
C977 C398 1.291 . S
C981 C356 1.294 . S
C995 C370 1.287 1_554 S
C999 C412 1.298 . S
C1013 C384 1.288 . S
C1017 C426 1.298 1_556 S
C1031 C427 1.605 . S
C1035 C7 1.592 . S
C1049 C217 1.605 . S
C1053 C21 1.593 . S
C1067 C35 1.593 . S
C1071 C399 1.604 . S
C1085 C49 1.594 . S
C1089 C189 1.603 . S
C1103 C63 1.604 . S
C1107 C371 1.593 . S
C1121 C77 1.605 . S
C1125 C161 1.592 . S
C1139 C91 1.594 . S
C1143 C343 1.603 . S
C1157 C133 1.593 . S
C1161 C105 1.604 . S
C1175 C315 1.597 . S
C1179 C119 1.600 . S
C1193 C147 1.602 . S
C1197 C287 1.596 . S
C1211 C259 1.594 . S
C1215 C175 1.604 . S
C1229 C231 1.603 . S
C1233 C203 1.595 . S
C1247 C245 1.593 . S
C1251 C441 1.605 . S
C1265 C273 1.592 . S
C1269 C413 1.605 . S
C1283 C301 1.605 . S
C1287 C385 1.592 . S
C1301 C357 1.596 . S
C1305 C329 1.602 . S
C1319 C8 2.042 . S
C1323 C106 2.044 . S
C1337 C22 2.044 . S
C1341 C64 2.043 . S
C1355 C78 2.045 1_556 S
C1359 C36 2.046 . S
C1373 C50 2.046 1_554 S
C1377 C92 2.046 . S
C1391 C218 2.044 . S
C1395 C120 2.042 . S
C1409 C176 2.045 . S
C1413 C134 2.044 . S
C1427 C148 2.042 . S
C1431 C190 2.042 1_554 S
C1445 C204 2.046 . S
C1449 C162 2.045 1_556 S
C1463 C330 2.046 1_556 S
C1467 C232 2.046 . S
C1481 C288 2.043 . S
C1485 C246 2.044 1_554 S
C1499 C302 2.042 . S
C1503 C260 2.042 . S
C1517 C316 2.044 . S
C1521 C274 2.045 . S
C1535 C344 2.046 . S
C1539 C442 2.046 1_554 S
C1553 C358 2.043 1_556 S
C1557 C400 2.044 . S
C1571 C372 2.043 . S
C1575 C414 2.042 . S
C1589 C428 2.042 . S
C1593 C386 2.042 . S
