# Generated by pormake.
# Topology pem, (4)-cn, num edge types: 1
# Building blocks:
#     Node 0, Type 0, BuildingBlock: AZAVOO_clean_sbu_0, # of connection points: 4
#     Node 1, Type 0, BuildingBlock: AZAVOO_clean_sbu_0, # of connection points: 4
#     Node 2, Type 0, BuildingBlock: AZAVOO_clean_sbu_0, # of connection points: 4
#     Node 3, Type 0, BuildingBlock: AZAVOO_clean_sbu_0, # of connection points: 4
#     Node 4, Type 0, BuildingBlock: AZAVOO_clean_sbu_0, # of connection points: 4
#     Node 5, Type 0, BuildingBlock: AZAVOO_clean_sbu_0, # of connection points: 4
#     Node 6, Type 0, BuildingBlock: AZAVOO_clean_sbu_0, # of connection points: 4
#     Node 7, Type 0, BuildingBlock: AZAVOO_clean_sbu_0, # of connection points: 4
#     Node 8, Type 0, BuildingBlock: AZAVOO_clean_sbu_0, # of connection points: 4
#     Node 9, Type 0, BuildingBlock: AZAVOO_clean_sbu_0, # of connection points: 4
#     Node 10, Type 0, BuildingBlock: AZAVOO_clean_sbu_0, # of connection points: 4
#     Node 11, Type 0, BuildingBlock: AZAVOO_clean_sbu_0, # of connection points: 4
#     Node 12, Type 0, BuildingBlock: AZAVOO_clean_sbu_0, # of connection points: 4
#     Node 13, Type 0, BuildingBlock: AZAVOO_clean_sbu_0, # of connection points: 4
#     Node 14, Type 0, BuildingBlock: AZAVOO_clean_sbu_0, # of connection points: 4
#     Node 15, Type 0, BuildingBlock: AZAVOO_clean_sbu_0, # of connection points: 4
#     Node 16, Type 0, BuildingBlock: AZAVOO_clean_sbu_0, # of connection points: 4
#     Node 17, Type 0, BuildingBlock: AZAVOO_clean_sbu_0, # of connection points: 4
#     Node 18, Type 0, BuildingBlock: AZAVOO_clean_sbu_0, # of connection points: 4
#     Node 19, Type 0, BuildingBlock: AZAVOO_clean_sbu_0, # of connection points: 4
#     Node 20, Type 0, BuildingBlock: AZAVOO_clean_sbu_0, # of connection points: 4
#     Node 21, Type 0, BuildingBlock: AZAVOO_clean_sbu_0, # of connection points: 4
#     Node 22, Type 0, BuildingBlock: AZAVOO_clean_sbu_0, # of connection points: 4
#     Node 23, Type 0, BuildingBlock: AZAVOO_clean_sbu_0, # of connection points: 4
#     Node 24, Type 0, BuildingBlock: AZAVOO_clean_sbu_0, # of connection points: 4
#     Node 25, Type 0, BuildingBlock: AZAVOO_clean_sbu_0, # of connection points: 4
#     Node 26, Type 0, BuildingBlock: AZAVOO_clean_sbu_0, # of connection points: 4
#     Node 27, Type 0, BuildingBlock: AZAVOO_clean_sbu_0, # of connection points: 4
#     Node 28, Type 0, BuildingBlock: AZAVOO_clean_sbu_0, # of connection points: 4
#     Node 29, Type 0, BuildingBlock: AZAVOO_clean_sbu_0, # of connection points: 4
#     Node 30, Type 0, BuildingBlock: AZAVOO_clean_sbu_0, # of connection points: 4
#     Node 31, Type 0, BuildingBlock: AZAVOO_clean_sbu_0, # of connection points: 4
#     Edge 32, Type (0, 0), BuildingBlock: XIVTED_clean_linker_0, # of connection points: 2
#     Edge 33, Type (0, 0), BuildingBlock: XIVTED_clean_linker_0, # of connection points: 2
#     Edge 34, Type (0, 0), BuildingBlock: XIVTED_clean_linker_0, # of connection points: 2
#     Edge 35, Type (0, 0), BuildingBlock: XIVTED_clean_linker_0, # of connection points: 2
#     Edge 36, Type (0, 0), BuildingBlock: XIVTED_clean_linker_0, # of connection points: 2
#     Edge 37, Type (0, 0), BuildingBlock: XIVTED_clean_linker_0, # of connection points: 2
#     Edge 38, Type (0, 0), BuildingBlock: XIVTED_clean_linker_0, # of connection points: 2
#     Edge 39, Type (0, 0), BuildingBlock: XIVTED_clean_linker_0, # of connection points: 2
#     Edge 40, Type (0, 0), BuildingBlock: XIVTED_clean_linker_0, # of connection points: 2
#     Edge 41, Type (0, 0), BuildingBlock: XIVTED_clean_linker_0, # of connection points: 2
#     Edge 42, Type (0, 0), BuildingBlock: XIVTED_clean_linker_0, # of connection points: 2
#     Edge 43, Type (0, 0), BuildingBlock: XIVTED_clean_linker_0, # of connection points: 2
#     Edge 44, Type (0, 0), BuildingBlock: XIVTED_clean_linker_0, # of connection points: 2
#     Edge 45, Type (0, 0), BuildingBlock: XIVTED_clean_linker_0, # of connection points: 2
#     Edge 46, Type (0, 0), BuildingBlock: XIVTED_clean_linker_0, # of connection points: 2
#     Edge 47, Type (0, 0), BuildingBlock: XIVTED_clean_linker_0, # of connection points: 2
#     Edge 48, Type (0, 0), BuildingBlock: XIVTED_clean_linker_0, # of connection points: 2
#     Edge 49, Type (0, 0), BuildingBlock: XIVTED_clean_linker_0, # of connection points: 2
#     Edge 50, Type (0, 0), BuildingBlock: XIVTED_clean_linker_0, # of connection points: 2
#     Edge 51, Type (0, 0), BuildingBlock: XIVTED_clean_linker_0, # of connection points: 2
#     Edge 52, Type (0, 0), BuildingBlock: XIVTED_clean_linker_0, # of connection points: 2
#     Edge 53, Type (0, 0), BuildingBlock: XIVTED_clean_linker_0, # of connection points: 2
#     Edge 54, Type (0, 0), BuildingBlock: XIVTED_clean_linker_0, # of connection points: 2
#     Edge 55, Type (0, 0), BuildingBlock: XIVTED_clean_linker_0, # of connection points: 2
#     Edge 56, Type (0, 0), BuildingBlock: XIVTED_clean_linker_0, # of connection points: 2
#     Edge 57, Type (0, 0), BuildingBlock: XIVTED_clean_linker_0, # of connection points: 2
#     Edge 58, Type (0, 0), BuildingBlock: XIVTED_clean_linker_0, # of connection points: 2
#     Edge 59, Type (0, 0), BuildingBlock: XIVTED_clean_linker_0, # of connection points: 2
#     Edge 60, Type (0, 0), BuildingBlock: XIVTED_clean_linker_0, # of connection points: 2
#     Edge 61, Type (0, 0), BuildingBlock: XIVTED_clean_linker_0, # of connection points: 2
#     Edge 62, Type (0, 0), BuildingBlock: XIVTED_clean_linker_0, # of connection points: 2
#     Edge 63, Type (0, 0), BuildingBlock: XIVTED_clean_linker_0, # of connection points: 2
#     Edge 64, Type (0, 0), BuildingBlock: XIVTED_clean_linker_0, # of connection points: 2
#     Edge 65, Type (0, 0), BuildingBlock: XIVTED_clean_linker_0, # of connection points: 2
#     Edge 66, Type (0, 0), BuildingBlock: XIVTED_clean_linker_0, # of connection points: 2
#     Edge 67, Type (0, 0), BuildingBlock: XIVTED_clean_linker_0, # of connection points: 2
#     Edge 68, Type (0, 0), BuildingBlock: XIVTED_clean_linker_0, # of connection points: 2
#     Edge 69, Type (0, 0), BuildingBlock: XIVTED_clean_linker_0, # of connection points: 2
#     Edge 70, Type (0, 0), BuildingBlock: XIVTED_clean_linker_0, # of connection points: 2
#     Edge 71, Type (0, 0), BuildingBlock: XIVTED_clean_linker_0, # of connection points: 2
#     Edge 72, Type (0, 0), BuildingBlock: XIVTED_clean_linker_0, # of connection points: 2
#     Edge 73, Type (0, 0), BuildingBlock: XIVTED_clean_linker_0, # of connection points: 2
#     Edge 74, Type (0, 0), BuildingBlock: XIVTED_clean_linker_0, # of connection points: 2
#     Edge 75, Type (0, 0), BuildingBlock: XIVTED_clean_linker_0, # of connection points: 2
#     Edge 76, Type (0, 0), BuildingBlock: XIVTED_clean_linker_0, # of connection points: 2
#     Edge 77, Type (0, 0), BuildingBlock: XIVTED_clean_linker_0, # of connection points: 2
#     Edge 78, Type (0, 0), BuildingBlock: XIVTED_clean_linker_0, # of connection points: 2
#     Edge 79, Type (0, 0), BuildingBlock: XIVTED_clean_linker_0, # of connection points: 2
#     Edge 80, Type (0, 0), BuildingBlock: XIVTED_clean_linker_0, # of connection points: 2
#     Edge 81, Type (0, 0), BuildingBlock: XIVTED_clean_linker_0, # of connection points: 2
#     Edge 82, Type (0, 0), BuildingBlock: XIVTED_clean_linker_0, # of connection points: 2
#     Edge 83, Type (0, 0), BuildingBlock: XIVTED_clean_linker_0, # of connection points: 2
#     Edge 84, Type (0, 0), BuildingBlock: XIVTED_clean_linker_0, # of connection points: 2
#     Edge 85, Type (0, 0), BuildingBlock: XIVTED_clean_linker_0, # of connection points: 2
#     Edge 86, Type (0, 0), BuildingBlock: XIVTED_clean_linker_0, # of connection points: 2
#     Edge 87, Type (0, 0), BuildingBlock: XIVTED_clean_linker_0, # of connection points: 2
#     Edge 88, Type (0, 0), BuildingBlock: XIVTED_clean_linker_0, # of connection points: 2
#     Edge 89, Type (0, 0), BuildingBlock: XIVTED_clean_linker_0, # of connection points: 2
#     Edge 90, Type (0, 0), BuildingBlock: XIVTED_clean_linker_0, # of connection points: 2
#     Edge 91, Type (0, 0), BuildingBlock: XIVTED_clean_linker_0, # of connection points: 2
#     Edge 92, Type (0, 0), BuildingBlock: XIVTED_clean_linker_0, # of connection points: 2
#     Edge 93, Type (0, 0), BuildingBlock: XIVTED_clean_linker_0, # of connection points: 2
#     Edge 94, Type (0, 0), BuildingBlock: XIVTED_clean_linker_0, # of connection points: 2
#     Edge 95, Type (0, 0), BuildingBlock: XIVTED_clean_linker_0, # of connection points: 2
# Relax obj value: 0.059
# Max RMSD: 0.040
# Mean RMSD: 0.036
data_MOF--net-pem--node1-AZAVOO_clean_sbu_0--edge1-XIVTED_clean_linker_0
_symmetry_space_group_name_H-M    P1
_symmetry_Int_Tables_number       1
_symmetry_cell_setting            triclinic
loop_
_symmetry_equiv_pos_as_xyz
'x, y, z'
_cell_length_a     42.886406
_cell_length_b     44.789527
_cell_length_c     44.426182
_cell_angle_alpha  90.041219
_cell_angle_beta   90.113974
_cell_angle_gamma 90.343598
loop_
_atom_site_label
_atom_site_type_symbol
_atom_site_fract_x
_atom_site_fract_y
_atom_site_fract_z
_atom_type_partial_charge
Mg0 Mg 0.09251 0.09087 0.09991 0.0
O1 O 0.05618 0.06305 0.0741 0.0
O2 O 0.0202 0.05069 0.10852 0.0
Mg3 Mg 0.03223 0.0689 0.15493 0.0
C4 C 0.03079 0.04996 0.08166 0.0
C5 C 0.13555 0.08517 0.04481 0.0
O6 O 0.13399 0.05792 0.05555 0.0
O7 O 0.05873 0.13127 0.10022 0.0
O8 O 0.02705 0.11662 0.13748 0.0
O9 O 0.11819 0.04915 0.11219 0.0
O10 O 0.08019 0.06734 0.1395 0.0
C11 C 0.03617 0.13607 0.1184 0.0
C12 C 0.09946 0.04598 0.13461 0.0
O13 O 0.11813 0.10509 0.05631 0.0
Mg14 Mg 0.13229 0.84512 0.32611 0.0
O15 O 0.16657 0.82118 0.29543 0.0
O16 O 0.20255 0.85495 0.28112 0.0
Mg17 Mg 0.18868 0.90103 0.2982 0.0
C18 C 0.19163 0.82834 0.28166 0.0
C19 C 0.1066 0.79069 0.36844 0.0
O20 O 0.11534 0.80648 0.39194 0.0
O21 O 0.17021 0.84688 0.36298 0.0
O22 O 0.1997 0.88435 0.34534 0.0
O23 O 0.10122 0.85671 0.28667 0.0
O24 O 0.14152 0.88354 0.3016 0.0
C25 C 0.19299 0.86529 0.3657 0.0
C26 C 0.11943 0.87942 0.28249 0.0
O27 O 0.11191 0.80047 0.34203 0.0
Mg28 Mg 0.38143 0.89597 0.58524 0.0
O29 O 0.41785 0.92899 0.56755 0.0
O30 O 0.44678 0.9431 0.60723 0.0
Mg31 Mg 0.42841 0.92167 0.65009 0.0
C32 C 0.44043 0.94383 0.57913 0.0
C33 C 0.35025 0.85996 0.53224 0.0
O34 O 0.34678 0.84032 0.55378 0.0
O35 O 0.42053 0.86055 0.58916 0.0
O36 O 0.4433 0.87663 0.63168 0.0
O37 O 0.34788 0.93338 0.59601 0.0
O38 O 0.38444 0.91709 0.62659 0.0
C39 C 0.44038 0.85751 0.61053 0.0
C40 C 0.36292 0.93607 0.6211 0.0
O41 O 0.36634 0.88337 0.53734 0.0
Mg42 Mg 0.34483 0.12066 0.83087 0.0
O43 O 0.31212 0.15206 0.8062 0.0
O44 O 0.26926 0.12595 0.79367 0.0
Mg45 Mg 0.27552 0.07735 0.80759 0.0
C46 C 0.28495 0.15025 0.7946 0.0
C47 C 0.40277 0.16142 0.83576 0.0
O48 O 0.41187 0.13939 0.81842 0.0
O49 O 0.31238 0.12203 0.8722 0.0
O50 O 0.2728 0.09286 0.85671 0.0
O51 O 0.36659 0.10847 0.78723 0.0
O52 O 0.32614 0.0845 0.80614 0.0
C53 C 0.28629 0.10882 0.87673 0.0
C54 C 0.34537 0.08809 0.78417 0.0
O55 O 0.37514 0.16071 0.84628 0.0
Mg56 Mg 0.10449 0.88296 0.37799 0.0
O57 O 0.07134 0.91357 0.40339 0.0
O58 O 0.03304 0.92416 0.37046 0.0
Mg59 Mg 0.04466 0.9068 0.32352 0.0
C60 C 0.04522 0.9255 0.39672 0.0
C61 C 0.14512 0.88794 0.43442 0.0
O62 O 0.14248 0.91534 0.42427 0.0
O63 O 0.06627 0.84631 0.37982 0.0
O64 O 0.03556 0.85964 0.34126 0.0
O65 O 0.13421 0.922 0.3635 0.0
O66 O 0.0927 0.90628 0.33899 0.0
C67 C 0.04345 0.84131 0.36186 0.0
C68 C 0.11461 0.9258 0.34178 0.0
O69 O 0.12948 0.86736 0.42144 0.0
Mg70 Mg 0.35813 0.84785 0.64507 0.0
O71 O 0.32665 0.82451 0.67837 0.0
O72 O 0.28848 0.85543 0.69233 0.0
Mg73 Mg 0.29695 0.90056 0.66975 0.0
C74 C 0.30205 0.83013 0.69336 0.0
C75 C 0.39195 0.79226 0.60977 0.0
O76 O 0.38622 0.80686 0.58485 0.0
O77 O 0.31939 0.84331 0.60858 0.0
O78 O 0.28768 0.88003 0.62357 0.0
O79 O 0.38805 0.86614 0.6828 0.0
O80 O 0.34585 0.88821 0.66584 0.0
C81 C 0.2956 0.86008 0.60459 0.0
C82 C 0.36821 0.88763 0.68508 0.0
O83 O 0.38241 0.80278 0.63474 0.0
Mg84 Mg 0.3986 0.09231 0.87566 0.0
O85 O 0.42414 0.05453 0.89932 0.0
O86 O 0.45976 0.03524 0.86832 0.0
Mg87 Mg 0.45835 0.06203 0.82487 0.0
C88 C 0.44556 0.03574 0.89353 0.0
C89 C 0.36013 0.12729 0.9273 0.0
O90 O 0.35936 0.14968 0.90825 0.0
O91 O 0.4409 0.12325 0.88414 0.0
O92 O 0.47412 0.10317 0.85131 0.0
O93 O 0.36577 0.05845 0.85617 0.0
O94 O 0.40941 0.07245 0.83399 0.0
C95 C 0.46752 0.12271 0.87121 0.0
C96 C 0.38572 0.05468 0.83472 0.0
O97 O 0.37521 0.10384 0.92054 0.0
Mg98 Mg 0.1483 0.11907 0.1398 0.0
O99 O 0.17795 0.14562 0.17281 0.0
O100 O 0.21577 0.11682 0.19129 0.0
Mg101 Mg 0.21094 0.07126 0.16846 0.0
C102 C 0.20142 0.14168 0.18997 0.0
C103 C 0.1171 0.17463 0.1022 0.0
O104 O 0.12682 0.16257 0.07701 0.0
O105 O 0.18639 0.12406 0.10354 0.0
O106 O 0.22154 0.09274 0.12273 0.0
O107 O 0.11925 0.10337 0.17829 0.0
O108 O 0.16091 0.07947 0.16239 0.0
C109 C 0.21255 0.11055 0.10205 0.0
C110 C 0.13892 0.08191 0.18196 0.0
O111 O 0.12351 0.16239 0.12725 0.0
Mg112 Mg 0.5965 0.38897 0.86918 0.0
O113 O 0.56145 0.41407 0.89803 0.0
O114 O 0.52036 0.42512 0.86884 0.0
Mg115 Mg 0.52963 0.40901 0.82112 0.0
C116 C 0.53448 0.42534 0.89417 0.0
C117 C 0.65196 0.38646 0.9136 0.0
O118 O 0.6623 0.40329 0.89154 0.0
O119 O 0.56461 0.34721 0.87013 0.0
O120 O 0.52602 0.36113 0.83915 0.0
O121 O 0.61849 0.43227 0.85679 0.0
O122 O 0.57972 0.41204 0.83113 0.0
C123 C 0.53899 0.34196 0.85625 0.0
C124 C 0.59833 0.4344 0.83526 0.0
O125 O 0.62445 0.37567 0.91167 0.0
Mg126 Mg 0.8478 0.36305 0.14085 0.0
O127 O 0.81594 0.33192 0.16724 0.0
O128 O 0.77496 0.35796 0.18363 0.0
Mg129 Mg 0.77935 0.40552 0.16639 0.0
C130 C 0.79034 0.33372 0.18168 0.0
C131 C 0.89221 0.30905 0.14624 0.0
O132 O 0.88849 0.3177 0.17424 0.0
O133 O 0.81397 0.36118 0.10034 0.0
O134 O 0.77363 0.3873 0.11823 0.0
O135 O 0.87144 0.37614 0.18343 0.0
O136 O 0.83008 0.39932 0.16572 0.0
C137 C 0.7867 0.37228 0.09737 0.0
C138 C 0.85016 0.39609 0.1871 0.0
O139 O 0.87729 0.32267 0.12564 0.0
Mg140 Mg 0.8842 0.59011 0.38602 0.0
O141 O 0.91295 0.55433 0.40919 0.0
O142 O 0.94696 0.53486 0.37657 0.0
Mg143 Mg 0.94029 0.55914 0.33185 0.0
C144 C 0.93468 0.53608 0.40271 0.0
C145 C 0.84979 0.6272 0.4382 0.0
O146 O 0.84904 0.64898 0.4185 0.0
O147 O 0.92608 0.62292 0.3894 0.0
O148 O 0.95627 0.60237 0.35424 0.0
O149 O 0.85029 0.55468 0.37104 0.0
O150 O 0.89213 0.56777 0.3453 0.0
C151 C 0.95102 0.62278 0.3736 0.0
C152 C 0.86885 0.5498 0.34873 0.0
O153 O 0.86391 0.60318 0.43168 0.0
Mg154 Mg 0.85325 0.61874 0.32764 0.0
O155 O 0.82129 0.65018 0.3019 0.0
O156 O 0.77861 0.6231 0.29064 0.0
Mg157 Mg 0.78601 0.57402 0.30262 0.0
C158 C 0.79374 0.64777 0.29116 0.0
C159 C 0.88051 0.68139 0.35814 0.0
O160 O 0.85276 0.68798 0.36856 0.0
O161 O 0.81904 0.62038 0.36784 0.0
O162 O 0.78263 0.58758 0.35242 0.0
O163 O 0.87866 0.60553 0.28586 0.0
O164 O 0.83597 0.58319 0.3017 0.0
C165 C 0.79438 0.6048 0.37244 0.0
C166 C 0.85758 0.58521 0.28172 0.0
O167 O 0.88455 0.65735 0.34348 0.0
Mg168 Mg 0.65018 0.34507 0.83745 0.0
O169 O 0.68195 0.32414 0.80175 0.0
O170 O 0.71491 0.35998 0.78634 0.0
Mg171 Mg 0.70667 0.4021 0.81344 0.0
C172 C 0.70432 0.3333 0.78511 0.0
C173 C 0.61688 0.29414 0.87467 0.0
O174 O 0.61668 0.31505 0.89537 0.0
O175 O 0.69003 0.34022 0.8714 0.0
O176 O 0.72232 0.3759 0.85492 0.0
O177 O 0.61826 0.36119 0.80104 0.0
O178 O 0.65831 0.38717 0.81824 0.0
C179 C 0.71563 0.35485 0.87321 0.0
C180 C 0.63625 0.38436 0.79869 0.0
O181 O 0.63017 0.29927 0.8496 0.0
Mg182 Mg 0.87909 0.88591 0.89106 0.0
O183 O 0.9147 0.90766 0.92304 0.0
O184 O 0.91856 0.87683 0.96252 0.0
Mg185 Mg 0.8881 0.83571 0.95619 0.0
C186 C 0.92596 0.9009 0.94879 0.0
C187 C 0.88316 0.94758 0.86055 0.0
O188 O 0.87564 0.95415 0.88842 0.0
O189 O 0.91694 0.85226 0.87456 0.0
O190 O 0.91671 0.82325 0.91538 0.0
O191 O 0.84012 0.9078 0.91748 0.0
O192 O 0.85915 0.86355 0.92781 0.0
C193 C 0.92614 0.82903 0.88882 0.0
C194 C 0.84092 0.88497 0.9352 0.0
O195 O 0.88894 0.92048 0.85398 0.0
Mg196 Mg 0.85506 0.12886 0.63672 0.0
O197 O 0.82708 0.16744 0.65778 0.0
O198 O 0.82957 0.20557 0.62516 0.0
Mg199 Mg 0.85346 0.19099 0.58231 0.0
C200 C 0.82099 0.19437 0.65027 0.0
C201 C 0.84966 0.10362 0.7015 0.0
O202 O 0.86021 0.13078 0.70651 0.0
O203 O 0.81193 0.11719 0.60754 0.0
O204 O 0.81406 0.15731 0.57761 0.0
O205 O 0.8988 0.15022 0.65457 0.0
O206 O 0.8789 0.15965 0.60981 0.0
C207 C 0.80083 0.13324 0.58628 0.0
C208 C 0.89889 0.1662 0.63035 0.0
O209 O 0.84219 0.09629 0.67473 0.0
Mg210 Mg 0.60287 0.09665 0.38486 0.0
O211 O 0.57401 0.07389 0.42192 0.0
O212 O 0.57604 0.10401 0.46225 0.0
Mg213 Mg 0.60033 0.14729 0.45003 0.0
C214 C 0.5676 0.07975 0.4494 0.0
C215 C 0.61358 0.04903 0.33859 0.0
O216 O 0.64116 0.05848 0.3474 0.0
O217 O 0.56026 0.12635 0.37368 0.0
O218 O 0.56178 0.15394 0.41558 0.0
O219 O 0.64585 0.07721 0.40638 0.0
O220 O 0.62661 0.12122 0.41787 0.0
C221 C 0.54902 0.14672 0.39063 0.0
C222 C 0.64622 0.10041 0.42364 0.0
O223 O 0.58952 0.06094 0.35013 0.0
Mg224 Mg 0.62845 0.83678 0.13923 0.0
O225 O 0.66091 0.80747 0.16756 0.0
O226 O 0.67324 0.76773 0.13925 0.0
Mg227 Mg 0.64913 0.77109 0.09398 0.0
C228 C 0.67533 0.78293 0.16348 0.0
C229 C 0.60845 0.88406 0.18556 0.0
O230 O 0.58181 0.87111 0.17867 0.0
O231 O 0.67117 0.85322 0.11199 0.0
O232 O 0.68105 0.81115 0.08668 0.0
O233 O 0.5874 0.81004 0.15604 0.0
O234 O 0.61404 0.7992 0.11515 0.0
C235 C 0.68761 0.83815 0.09348 0.0
C236 C 0.59252 0.79193 0.13393 0.0
O237 O 0.63325 0.87496 0.17296 0.0
Mg238 Mg 0.88793 0.08944 0.58038 0.0
O239 O 0.91595 0.06444 0.54502 0.0
O240 O 0.92288 0.09456 0.50524 0.0
Mg241 Mg 0.90014 0.13909 0.51541 0.0
C242 C 0.92674 0.06974 0.51881 0.0
C243 C 0.8702 0.0415 0.62352 0.0
O244 O 0.84451 0.0545 0.6144 0.0
O245 O 0.93268 0.11486 0.59379 0.0
O246 O 0.93674 0.14302 0.55243 0.0
O247 O 0.84454 0.07426 0.55699 0.0
O248 O 0.86863 0.1166 0.54653 0.0
C249 C 0.94702 0.13438 0.57795 0.0
C250 C 0.84693 0.09766 0.5402 0.0
O251 O 0.89619 0.05184 0.6144 0.0
Mg252 Mg 0.65085 0.13109 0.33354 0.0
O253 O 0.68516 0.15779 0.30594 0.0
O254 O 0.72997 0.13325 0.30027 0.0
Mg255 Mg 0.72309 0.08798 0.32305 0.0
C256 C 0.71289 0.15609 0.29591 0.0
C257 C 0.60486 0.18029 0.34705 0.0
O258 O 0.61702 0.17173 0.37273 0.0
O259 O 0.64005 0.10232 0.29176 0.0
O260 O 0.685 0.07741 0.2883 0.0
O261 O 0.67364 0.14912 0.37517 0.0
O262 O 0.68821 0.10742 0.35317 0.0
C263 C 0.65755 0.08316 0.27877 0.0
C264 C 0.69269 0.12697 0.37396 0.0
O265 O 0.61279 0.16638 0.32329 0.0
Mg266 Mg 0.5871 0.87423 0.08844 0.0
O267 O 0.55208 0.89852 0.05896 0.0
O268 O 0.50734 0.90387 0.0841 0.0
Mg269 Mg 0.51435 0.8843 0.13097 0.0
C270 C 0.52392 0.90739 0.06052 0.0
C271 C 0.63637 0.85924 0.04204 0.0
O272 O 0.62567 0.83354 0.05188 0.0
O273 O 0.59582 0.91762 0.11495 0.0
O274 O 0.55075 0.92101 0.14005 0.0
O275 O 0.5671 0.83121 0.07248 0.0
O276 O 0.55042 0.85492 0.1129 0.0
C277 C 0.5779 0.93101 0.13356 0.0
C278 C 0.54727 0.83313 0.09422 0.0
O279 O 0.62561 0.88315 0.05347 0.0
Mg280 Mg 0.84106 0.84712 0.84034 0.0
O281 O 0.8031 0.82116 0.81569 0.0
O282 O 0.7582 0.84621 0.81534 0.0
Mg283 Mg 0.76863 0.89107 0.83781 0.0
C284 C 0.77433 0.82325 0.80881 0.0
C285 C 0.86981 0.78533 0.83318 0.0
O286 O 0.84277 0.78075 0.84627 0.0
O287 O 0.84811 0.87612 0.79812 0.0
O288 O 0.80311 0.90097 0.79986 0.0
O289 O 0.82323 0.82856 0.88374 0.0
O290 O 0.80612 0.87045 0.86384 0.0
C291 C 0.82925 0.89541 0.78736 0.0
C292 C 0.80355 0.8503 0.8843 0.0
O293 O 0.87715 0.81191 0.82573 0.0
Mg294 Mg 0.3829 0.58469 0.08715 0.0
O295 O 0.41149 0.55969 0.05227 0.0
O296 O 0.41878 0.58952 0.01236 0.0
Mg297 Mg 0.39527 0.63395 0.02159 0.0
C298 C 0.42258 0.56483 0.02617 0.0
C299 C 0.36518 0.53444 0.12843 0.0
O300 O 0.33946 0.5462 0.11779 0.0
O301 O 0.42697 0.61169 0.10082 0.0
O302 O 0.43077 0.63974 0.05931 0.0
O303 O 0.33991 0.56906 0.06321 0.0
O304 O 0.3636 0.61151 0.05269 0.0
C305 C 0.44078 0.63178 0.08514 0.0
C306 C 0.34219 0.59233 0.04627 0.0
O307 O 0.39108 0.54656 0.12133 0.0
Mg308 Mg 0.14524 0.63606 0.84257 0.0
O309 O 0.18186 0.66364 0.81846 0.0
O310 O 0.22511 0.63661 0.81257 0.0
Mg311 Mg 0.21519 0.59003 0.8307 0.0
C312 C 0.20993 0.66086 0.80956 0.0
C313 C 0.09999 0.68589 0.85817 0.0
O314 O 0.11208 0.67695 0.88375 0.0
O315 O 0.13451 0.61117 0.79824 0.0
O316 O 0.17818 0.5844 0.79385 0.0
O317 O 0.16732 0.64949 0.88638 0.0
O318 O 0.18056 0.60925 0.86102 0.0
C319 C 0.15145 0.59236 0.78407 0.0
C320 C 0.18545 0.62676 0.88349 0.0
O321 O 0.1086 0.67296 0.83406 0.0
Mg322 Mg 0.08371 0.3814 0.5988 0.0
O323 O 0.04788 0.40297 0.56806 0.0
O324 O 0.00314 0.40788 0.59329 0.0
Mg325 Mg 0.01051 0.39021 0.64088 0.0
C326 C 0.01944 0.41102 0.56947 0.0
C327 C 0.11977 0.37484 0.54004 0.0
O328 O 0.09482 0.35812 0.53642 0.0
O329 O 0.09023 0.42621 0.62318 0.0
O330 O 0.04546 0.42862 0.64885 0.0
O331 O 0.06617 0.33667 0.58501 0.0
O332 O 0.0476 0.36141 0.62389 0.0
C333 C 0.07205 0.43948 0.64162 0.0
C334 C 0.04591 0.33858 0.60635 0.0
O335 O 0.1224 0.39045 0.5639 0.0
Mg336 Mg 0.13591 0.33697 0.62813 0.0
O337 O 0.16902 0.30829 0.65589 0.0
O338 O 0.1789 0.26681 0.62927 0.0
Mg339 Mg 0.15254 0.26854 0.58486 0.0
C340 C 0.18251 0.28319 0.65256 0.0
C341 C 0.1183 0.38289 0.6761 0.0
O342 O 0.09261 0.36739 0.67176 0.0
O343 O 0.17749 0.35152 0.59764 0.0
O344 O 0.18315 0.30802 0.57373 0.0
O345 O 0.09572 0.31052 0.64802 0.0
O346 O 0.11984 0.29874 0.60605 0.0
C347 C 0.19135 0.33504 0.5783 0.0
C348 C 0.09953 0.29194 0.62609 0.0
O349 O 0.14243 0.37619 0.66092 0.0
Mg350 Mg 0.3456 0.63338 0.12625 0.0
O351 O 0.31798 0.6692 0.15114 0.0
O352 O 0.31395 0.70882 0.12046 0.0
Mg353 Mg 0.33813 0.69863 0.07626 0.0
C354 C 0.30854 0.69555 0.14533 0.0
C355 C 0.36047 0.58959 0.17559 0.0
O356 O 0.3873 0.59955 0.16543 0.0
O357 O 0.30128 0.62203 0.09859 0.0
O358 O 0.30029 0.66339 0.07037 0.0
O359 O 0.38913 0.65508 0.14322 0.0
O360 O 0.36691 0.66649 0.09994 0.0
C361 C 0.28859 0.63838 0.0784 0.0
C362 C 0.38799 0.67205 0.11979 0.0
O363 O 0.33549 0.59901 0.16336 0.0
Mg364 Mg 0.60613 0.5828 0.60094 0.0
O365 O 0.57646 0.55336 0.5703 0.0
O366 O 0.53524 0.53843 0.59765 0.0
Mg367 Mg 0.54157 0.5521 0.6468 0.0
C368 C 0.55025 0.53997 0.57288 0.0
C369 C 0.65099 0.58039 0.54786 0.0
O370 O 0.64826 0.55293 0.55787 0.0
O371 O 0.56761 0.61923 0.5988 0.0
O372 O 0.53353 0.60016 0.63193 0.0
O373 O 0.63529 0.54381 0.61666 0.0
O374 O 0.591 0.55662 0.6374 0.0
C375 C 0.54276 0.62123 0.6147 0.0
C376 C 0.61401 0.53847 0.63645 0.0
O377 O 0.63431 0.60056 0.55997 0.0
Mg378 Mg 0.89973 0.37903 0.09493 0.0
O379 O 0.93037 0.41106 0.06852 0.0
O380 O 0.96788 0.42845 0.09915 0.0
Mg381 Mg 0.95906 0.40984 0.14621 0.0
C382 C 0.9547 0.42682 0.0734 0.0
C383 C 0.86207 0.33922 0.04633 0.0
O384 O 0.85701 0.32082 0.06876 0.0
O385 O 0.93925 0.34434 0.09372 0.0
O386 O 0.97165 0.36376 0.12814 0.0
O387 O 0.86884 0.41736 0.1076 0.0
O388 O 0.90977 0.40357 0.13411 0.0
C389 C 0.9641 0.34314 0.10963 0.0
C390 C 0.88765 0.42247 0.12985 0.0
O391 O 0.87878 0.36244 0.05047 0.0
Mg392 Mg 0.62884 0.63189 0.63993 0.0
O393 O 0.65687 0.65924 0.67404 0.0
O394 O 0.69254 0.62886 0.69431 0.0
Mg395 Mg 0.68684 0.58219 0.67438 0.0
C396 C 0.67964 0.65441 0.69195 0.0
C397 C 0.58882 0.68805 0.6394 0.0
O398 O 0.60634 0.67582 0.61871 0.0
O399 O 0.67057 0.63407 0.60748 0.0
O400 O 0.70241 0.60089 0.6289 0.0
O401 O 0.59505 0.61785 0.67613 0.0
O402 O 0.63864 0.59429 0.66541 0.0
C403 C 0.69585 0.61905 0.60769 0.0
C404 C 0.61472 0.59703 0.68256 0.0
O405 O 0.60617 0.67524 0.62014 0.0
Mg406 Mg 0.38925 0.38508 0.38163 0.0
O407 O 0.4229 0.41254 0.41074 0.0
O408 O 0.43468 0.38483 0.45125 0.0
Mg409 Mg 0.4087 0.34069 0.44871 0.0
C410 C 0.43745 0.40852 0.4355 0.0
C411 C 0.36889 0.43237 0.33637 0.0
O412 O 0.34315 0.42526 0.35069 0.0
O413 O 0.43103 0.35604 0.36533 0.0
O414 O 0.43935 0.33131 0.40826 0.0
O415 O 0.34904 0.40369 0.40807 0.0
O416 O 0.37403 0.36276 0.42046 0.0
C417 C 0.44626 0.337 0.38095 0.0
C418 C 0.35327 0.38231 0.42707 0.0
O419 O 0.39398 0.41884 0.34316 0.0
Mg420 Mg 0.09434 0.59338 0.8768 0.0
O421 O 0.06188 0.56656 0.90752 0.0
O422 O 0.05151 0.59496 0.9479 0.0
Mg423 Mg 0.07626 0.63956 0.94288 0.0
C424 C 0.04854 0.57085 0.93281 0.0
C425 C 0.11321 0.54583 0.83122 0.0
O426 O 0.13945 0.55323 0.84464 0.0
O427 O 0.05264 0.62187 0.86054 0.0
O428 O 0.04403 0.6476 0.90286 0.0
O429 O 0.1345 0.57514 0.90311 0.0
O430 O 0.1104 0.61699 0.91449 0.0
C431 C 0.03715 0.64102 0.87569 0.0
C432 C 0.1307 0.5971 0.92157 0.0
O433 O 0.08826 0.55898 0.83904 0.0
Mg434 Mg 0.33361 0.34459 0.3496 0.0
O435 O 0.29891 0.31469 0.32525 0.0
O436 O 0.25353 0.33809 0.31906 0.0
Mg437 Mg 0.26017 0.38516 0.33801 0.0
C438 C 0.2708 0.31519 0.31595 0.0
C439 C 0.3807 0.29717 0.36509 0.0
O440 O 0.36922 0.30708 0.39051 0.0
O441 O 0.34286 0.36979 0.30522 0.0
O442 O 0.29703 0.39307 0.30146 0.0
O443 O 0.31312 0.32987 0.39343 0.0
O444 O 0.29642 0.36929 0.36885 0.0
C445 C 0.32422 0.38728 0.29135 0.0
C446 C 0.29342 0.35141 0.39132 0.0
O447 O 0.37166 0.30929 0.34072 0.0
H448 H 0.98367 0.01068 0.09289 0.0
H449 H 0.94996 0.95451 0.92827 0.0
H450 H 0.04073 0.04492 0.02044 0.0
H451 H 0.94639 0.89748 0.00668 0.0
H452 H 0.97665 -0.00716 0.95881 0.0
H453 H 0.96047 0.975 0.05829 0.0
C454 C 0.99116 0.01097 0.06962 0.0
C455 C 0.01445 0.03072 0.05964 0.0
C456 C 0.97022 0.97172 0.96898 0.0
C457 C 0.98782 -0.01034 0.01992 0.0
C458 C 0.95505 0.94989 0.95169 0.0
C459 C 0.94562 0.92283 0.96501 0.0
C460 C 0.97525 0.96649 -0.00028 0.0
C461 C 0.95293 0.91799 -0.00459 0.0
C462 C 0.97802 -0.0096 0.04995 0.0
C463 C 0.02302 0.02993 0.0291 0.0
N464 N 0.96688 0.93976 0.01178 0.0
N465 N 0.00964 0.00962 0.01016 0.0
H466 H 0.25338 0.72285 0.13598 0.0
H467 H 0.25439 0.8213 0.27788 0.0
H468 H 0.32124 0.70355 0.20492 0.0
H469 H 0.167 0.78307 0.24821 0.0
H470 H 0.28223 0.78421 0.2475 0.0
H471 H 0.22311 0.75138 0.17282 0.0
C472 C 0.26174 0.7246 0.15895 0.0
C473 C 0.28967 0.7111 0.16768 0.0
C474 C 0.25697 0.78382 0.24803 0.0
C475 C 0.25587 0.74383 0.20925 0.0
C476 C 0.24116 0.80498 0.26506 0.0
C477 C 0.20849 0.80513 0.26526 0.0
C478 C 0.23988 0.76351 0.23048 0.0
C479 C 0.19225 0.78351 0.24855 0.0
C480 C 0.24446 0.7406 0.17986 0.0
C481 C 0.29968 0.71372 0.19759 0.0
N482 N 0.20816 0.76383 0.23125 0.0
N483 N 0.28302 0.73038 0.21735 0.0
H484 H 0.48607 0.98292 0.59633 0.0
H485 H 0.53365 0.03124 0.42959 0.0
H486 H 0.43977 0.9476 0.51736 0.0
H487 H 0.56123 0.07852 0.51027 0.0
H488 H 0.50322 -0.00351 0.4607 0.0
H489 H 0.51816 0.01423 0.56419 0.0
C490 C 0.48264 0.98169 0.5722 0.0
C491 C 0.46006 0.96268 0.55954 0.0
C492 C 0.51599 0.01451 0.47146 0.0
C493 C 0.49688 -0.00137 0.52253 0.0
C494 C 0.53342 0.03424 0.45379 0.0
C495 C 0.54984 0.05789 0.46736 0.0
C496 C 0.51538 0.01839 0.50282 0.0
C497 C 0.54873 0.06079 0.49877 0.0
C498 C 0.50098 -0.00034 0.55384 0.0
C499 C 0.45678 0.96208 0.52808 0.0
N500 N 0.53182 0.04128 0.51539 0.0
N501 N 0.47504 0.97985 0.51058 0.0
H502 H 0.22416 0.1672 0.79289 0.0
H503 H 0.23871 0.25626 0.64781 0.0
H504 H 0.31609 0.19288 0.76284 0.0
H505 H 0.16964 0.2836 0.71247 0.0
H506 H 0.2672 0.23079 0.6881 0.0
H507 H 0.20205 0.20773 0.7627 0.0
C508 C 0.23965 0.18166 0.78023 0.0
C509 C 0.27186 0.17671 0.77999 0.0
C510 C 0.24616 0.24292 0.69352 0.0
C511 C 0.24689 0.22232 0.74534 0.0
C512 C 0.22989 0.25721 0.67063 0.0
C513 C 0.20188 0.27174 0.67705 0.0
C514 C 0.23363 0.24237 0.72264 0.0
C515 C 0.19126 0.27256 0.70684 0.0
C516 C 0.2271 0.20481 0.76327 0.0
C517 C 0.29109 0.19607 0.76347 0.0
N518 N 0.2068 0.25734 0.72857 0.0
N519 N 0.27821 0.21768 0.74612 0.0
H520 H 0.98315 0.92494 0.40816 0.0
H521 H 0.97965 0.07813 0.48662 0.0
H522 H 0.06997 0.96511 0.4367 0.0
H523 H 0.91656 0.00962 0.5181 0.0
H524 H 0.01077 0.03967 0.4616 0.0
H525 H 0.95511 0.95799 0.44278 0.0
C526 C -0.00377 0.94054 0.422 0.0
C527 C 0.02874 0.94258 0.41973 0.0
C528 C 0.99024 0.03315 0.47422 0.0
C529 C -0.00291 0.98048 0.45832 0.0
C530 C 0.9724 0.05497 0.48816 0.0
C531 C 0.94555 0.04683 0.50413 0.0
C532 C 0.98052 0.00327 0.4756 0.0
C533 C 0.93718 0.01659 0.50589 0.0
C534 C 0.98033 0.95916 0.44172 0.0
C535 C 0.04484 0.96296 0.43804 0.0
N536 N 0.95437 -0.00421 0.49126 0.0
N537 N 0.02874 0.98171 0.45622 0.0
H538 H 0.24826 0.8312 0.72661 0.0
H539 H 0.26819 0.6635 0.78454 0.0
H540 H 0.32628 0.77487 0.70391 0.0
H541 H 0.18619 0.71672 0.80091 0.0
H542 H 0.29173 0.7057 0.75828 0.0
H543 H 0.22687 0.79081 0.75727 0.0
C544 C 0.26092 0.8104 0.7281 0.0
C545 C 0.289 0.80636 0.71252 0.0
C546 C 0.26861 0.70814 0.7677 0.0
C547 C 0.26472 0.76018 0.74754 0.0
C548 C 0.25516 0.68407 0.78272 0.0
C549 C 0.22508 0.6865 0.79475 0.0
C550 C 0.25186 0.73482 0.76471 0.0
C551 C 0.20936 0.71376 0.79181 0.0
C552 C 0.2487 0.78737 0.74561 0.0
C553 C 0.30446 0.77896 0.71537 0.0
N554 N 0.22292 0.73684 0.77698 0.0
N555 N 0.29206 0.7569 0.73249 0.0
H556 H 0.4182 0.02672 0.94846 0.0
H557 H 0.5492 0.91397 0.00442 0.0
H558 H 0.49355 -0.00429 0.89231 0.0
H559 H 0.4681 0.93669 0.05706 0.0
H560 H 0.52821 0.94262 0.96253 0.0
H561 H 0.4352 -0.00725 -0.012 0.0
C562 C 0.43826 0.01271 0.94437 0.0
C563 C 0.45463 0.01425 0.91708 0.0
C564 C 0.51491 0.94119 0.98318 0.0
C565 C 0.4742 0.97536 0.9623 0.0
C566 C 0.52691 0.92488 0.00716 0.0
C567 C 0.5105 0.92311 0.03441 0.0
C568 C 0.4864 0.95605 0.9865 0.0
C569 C 0.48161 0.93752 0.03652 0.0
C570 C 0.44789 -0.00674 0.96696 0.0
C571 C 0.4803 -0.00461 0.91302 0.0
N572 N 0.47059 0.95358 0.01294 0.0
N573 N 0.48941 0.97687 0.93547 0.0
H574 H 0.21521 0.30928 0.28576 0.0
H575 H 0.25183 0.14387 0.22807 0.0
H576 H 0.29874 0.2609 0.30895 0.0
H577 H 0.17403 0.1963 0.19666 0.0
H578 H 0.26753 0.18527 0.26062 0.0
H579 H 0.19753 0.26643 0.25615 0.0
C580 C 0.22974 0.28961 0.28482 0.0
C581 C 0.25859 0.28878 0.29973 0.0
C582 C 0.24703 0.18768 0.24658 0.0
C583 C 0.23856 0.23975 0.26579 0.0
C584 C 0.23806 0.16406 0.22797 0.0
C585 C 0.21162 0.16661 0.20951 0.0
C586 C 0.22939 0.21401 0.24682 0.0
C587 C 0.19465 0.19333 0.2104 0.0
C588 C 0.21968 0.26519 0.26782 0.0
C589 C 0.27642 0.26265 0.29769 0.0
N590 N 0.20383 0.21597 0.22875 0.0
N591 N 0.26615 0.23922 0.28095 0.0
H592 H 0.40997 0.5052 0.02464 0.0
H593 H 0.56284 0.46088 0.93572 0.0
H594 H 0.47609 0.57162 -0.00558 0.0
H595 H 0.47297 0.42594 0.909 0.0
H596 H 0.53689 0.49274 0.97299 0.0
H597 H 0.43915 0.46693 -0.00322 0.0
C598 C 0.43084 0.51156 0.01246 0.0
C599 C 0.44064 0.54143 0.01138 0.0
C600 C 0.52307 0.47765 0.95926 0.0
C601 C 0.47413 0.49819 0.98072 0.0
C602 C 0.53774 0.45947 0.93822 0.0
C603 C 0.51983 0.44112 0.91928 0.0
C604 C 0.49051 0.47668 0.96174 0.0
C605 C 0.48742 0.44012 0.9231 0.0
C606 C 0.44731 0.48987 -0.00332 0.0
C607 C 0.46771 0.54878 -0.00463 0.0
N608 N 0.47367 0.45775 0.944 0.0
N609 N 0.48369 0.52721 0.98068 0.0
H610 H 0.73492 0.32731 0.21121 0.0
H611 H 0.76958 0.16133 0.2675 0.0
H612 H 0.8187 0.27937 0.18803 0.0
H613 H 0.68412 0.20903 0.28476 0.0
H614 H 0.78863 0.2042 0.23862 0.0
H615 H 0.71636 0.28372 0.23849 0.0
C616 C 0.74942 0.30759 0.21179 0.0
C617 C 0.77845 0.30703 0.19736 0.0
C618 C 0.76571 0.20517 0.24874 0.0
C619 C 0.75732 0.25697 0.22869 0.0
C620 C 0.75485 0.18076 0.26526 0.0
C621 C 0.72522 0.18158 0.27858 0.0
C622 C 0.7468 0.23048 0.24566 0.0
C623 C 0.70711 0.20732 0.2749 0.0
C624 C 0.73878 0.28266 0.22739 0.0
C625 C 0.79615 0.28078 0.19883 0.0
N626 N 0.71821 0.23071 0.25882 0.0
N627 N 0.78533 0.25678 0.21433 0.0
H628 H 0.04484 0.4186 0.51342 0.0
H629 H 0.90927 0.52664 0.45828 0.0
H630 H 0.9622 0.43744 0.56541 0.0
H631 H 0.98497 0.49853 0.40102 0.0
H632 H 0.92819 0.49342 0.4975 0.0
H633 H 0.02293 0.44678 0.47152 0.0
C634 C 0.02201 0.42849 0.51599 0.0
C635 C 0.00544 0.42587 0.5431 0.0
C636 C 0.9406 0.49441 0.47632 0.0
C637 C 0.98037 0.45824 0.49526 0.0
C638 C 0.92989 0.51348 0.45392 0.0
C639 C 0.94569 0.51554 0.42635 0.0
C640 C 0.96745 0.47738 0.47126 0.0
C641 C 0.97211 0.49773 0.42194 0.0
C642 C 0.00952 0.44456 0.49203 0.0
C643 C 0.97589 0.43899 0.54502 0.0
N644 N 0.98228 0.47951 0.44427 0.0
N645 N 0.96441 0.4548 0.5215 0.0
H646 H 0.82143 0.6936 0.2606 0.0
H647 H 0.66174 0.77618 0.22304 0.0
H648 H 0.73224 0.66199 0.29265 0.0
H649 H 0.73441 0.76327 0.15746 0.0
H650 H 0.69343 0.74911 0.26032 0.0
H651 H 0.7948 0.73435 0.23413 0.0
C652 C 0.79635 0.69561 0.2625 0.0
C653 C 0.77882 0.67427 0.27827 0.0
C654 C 0.70257 0.75286 0.23792 0.0
C655 C 0.74868 0.72077 0.24897 0.0
C656 C 0.68466 0.76827 0.21682 0.0
C657 C 0.69554 0.77143 0.1873 0.0
C658 C 0.73165 0.74143 0.22937 0.0
C659 C 0.72523 0.76081 0.18003 0.0
C660 C 0.78127 0.71874 0.24746 0.0
C661 C 0.74643 0.67777 0.28019 0.0
N662 N 0.74231 0.74614 0.20095 0.0
N663 N 0.7323 0.70058 0.26556 0.0
H664 H 0.78957 0.1786 0.70203 0.0
H665 H 0.74199 0.34692 0.73782 0.0
H666 H 0.8116 0.2542 0.64537 0.0
H667 H 0.70149 0.27194 0.78508 0.0
H668 H 0.76968 0.3125 0.70537 0.0
H669 H 0.75935 0.2118 0.73474 0.0
C670 C 0.78812 0.2021 0.69649 0.0
C671 C 0.80312 0.21362 0.6709 0.0
C672 C 0.75464 0.30348 0.72272 0.0
C673 C 0.76877 0.25147 0.70804 0.0
C674 C 0.73884 0.32316 0.74132 0.0
C675 C 0.71946 0.31228 0.76426 0.0
C676 C 0.75135 0.2726 0.72714 0.0
C677 C 0.71615 0.28124 0.76759 0.0
C678 C 0.77078 0.22096 0.71506 0.0
C679 C 0.8004 0.24422 0.66475 0.0
N680 N 0.73214 0.2624 0.74931 0.0
N681 N 0.78365 0.26201 0.6832 0.0
H682 H 0.79856 0.76797 0.79855 0.0
H683 H 0.65621 0.71107 0.6975 0.0
H684 H 0.7163 0.82094 0.78253 0.0
H685 H 0.73111 0.65459 0.72831 0.0
H686 H 0.67813 0.75219 0.72712 0.0
H687 H 0.77449 0.72678 0.77133 0.0
C688 C 0.77539 0.77097 0.78933 0.0
C689 C 0.75945 0.79803 0.79279 0.0
C690 C 0.68964 0.73074 0.72745 0.0
C691 C 0.73174 0.75078 0.76144 0.0
C692 C 0.6772 0.70727 0.71051 0.0
C693 C 0.69191 0.67934 0.71032 0.0
C694 C 0.71705 0.72626 0.74411 0.0
C695 C 0.71897 0.6757 0.72771 0.0
C696 C 0.76162 0.74735 0.77383 0.0
C697 C 0.72942 0.80048 0.78042 0.0
N698 N 0.73072 0.69893 0.74377 0.0
N699 N 0.71657 0.77716 0.76513 0.0
H700 H 0.42517 0.46801 0.43857 0.0
H701 H 0.58023 0.5087 0.52905 0.0
H702 H 0.49527 0.40243 0.45918 0.0
H703 H 0.48934 0.53911 0.55645 0.0
H704 H 0.55561 0.48062 0.48761 0.0
H705 H 0.456 0.50564 0.46621 0.0
C706 C 0.44742 0.46183 0.44826 0.0
C707 C 0.45772 0.43225 0.44712 0.0
C708 C 0.54129 0.49394 0.50246 0.0
C709 C 0.49288 0.47473 0.47778 0.0
C710 C 0.5552 0.50984 0.52596 0.0
C711 C 0.53657 0.52567 0.54626 0.0
C712 C 0.5088 0.49476 0.49898 0.0
C713 C 0.50431 0.52666 0.54145 0.0
C714 C 0.46483 0.48314 0.46398 0.0
C715 C 0.48653 0.42505 0.46003 0.0
N716 N 0.49134 0.5113 0.51824 0.0
N717 N 0.50316 0.4462 0.475 0.0
H718 H 0.99193 0.5739 0.95972 0.0
H719 H 0.01589 0.43761 0.06117 0.0
H720 H 0.06603 0.51295 0.93801 0.0
H721 H 0.92277 0.45566 0.02932 0.0
H722 H 0.03682 0.46907 0.02063 0.0
H723 H 0.96672 0.53451 -0.0104 0.0
C724 C 0.00252 0.55203 0.9609 0.0
C725 C 0.03091 0.54639 0.94654 0.0
C726 C 0.01184 0.46575 0.0224 0.0
C727 C 0.00304 0.5021 0.98106 0.0
C728 C -6e-05 0.44814 0.04555 0.0
C729 C 0.96766 0.44431 0.04848 0.0
C730 C 0.99121 0.48025 0.00284 0.0
C731 C 0.94784 0.45814 0.02765 0.0
C732 C 0.98818 0.52968 0.97778 0.0
C733 C 0.04398 0.51788 0.9487 0.0
N734 N 0.95993 0.47608 0.00594 0.0
N735 N 0.03027 0.49685 0.96633 0.0
H736 H 0.14715 0.00658 0.13916 0.0
H737 H 0.06452 0.8992 0.25879 0.0
H738 H 0.05513 0.02394 0.17385 0.0
H739 H 0.1642 0.90761 0.24949 0.0
H740 H 0.05798 0.93851 0.22065 0.0
H741 H 0.15103 0.96363 0.17273 0.0
C742 C 0.12758 0.00118 0.15358 0.0
C743 C 0.10079 0.01901 0.15375 0.0
C744 C 0.08124 0.93153 0.22688 0.0
C745 C 0.10505 0.96972 0.19211 0.0
C746 C 0.08497 0.909 0.24836 0.0
C747 C 0.11495 0.90037 0.25733 0.0
C748 C 0.10772 0.94492 0.21395 0.0
C749 C 0.14072 0.91396 0.24355 0.0
C750 C 0.12989 0.97675 0.17284 0.0
C751 C 0.07626 0.01101 0.17308 0.0
N752 N 0.13653 0.93551 0.22249 0.0
N753 N 0.07895 0.9869 0.1915 0.0
H754 H 0.31315 0.81319 0.51423 0.0
H755 H 0.22933 0.91021 0.38716 0.0
H756 H 0.3402 0.90288 0.48957 0.0
H757 H 0.20475 0.81818 0.40416 0.0
H758 H 0.26879 0.90762 0.42624 0.0
H759 H 0.27371 0.81366 0.47433 0.0
C760 C 0.31117 0.8328 0.50012 0.0
C761 C 0.33003 0.85807 0.50529 0.0
C762 C 0.25489 0.8879 0.42151 0.0
C763 C 0.28459 0.85888 0.46001 0.0
C764 C 0.2322 0.88939 0.39922 0.0
C765 C 0.21395 0.86424 0.39212 0.0
C766 C 0.25962 0.86103 0.43696 0.0
C767 C 0.21839 0.83806 0.40888 0.0
C768 C 0.28853 0.83307 0.47745 0.0
C769 C 0.32629 0.88287 0.48642 0.0
N770 N 0.24099 0.83705 0.43047 0.0
N771 N 0.30386 0.88271 0.46483 0.0
H772 H 0.38847 0.0859 0.73949 0.0
H773 H 0.30742 0.95613 0.64352 0.0
H774 H 0.30165 0.04559 0.7677 0.0
H775 H 0.40653 0.97226 0.64623 0.0
H776 H 0.30047 -0.00487 0.68221 0.0
H777 H 0.39076 0.05077 0.69772 0.0
C778 C 0.3696 0.06995 0.73667 0.0
C779 C 0.3448 0.06873 0.75718 0.0
C780 C 0.32367 -0.00988 0.67413 0.0
C781 C 0.34736 0.02836 0.70924 0.0
C782 C 0.32759 0.96815 0.65202 0.0
C783 C 0.35759 0.96103 0.64195 0.0
C784 C 0.34992 0.00537 0.68546 0.0
C785 C 0.38308 0.97684 0.65374 0.0
C786 C 0.37105 0.04978 0.71289 0.0
C787 C 0.32114 0.04739 0.7524 0.0
N788 N 0.37867 -0.00166 0.67476 0.0
N789 N 0.32299 0.02795 0.72888 0.0
H790 H 0.29149 0.07092 0.92376 0.0
H791 H 0.14276 0.13651 0.01067 0.0
H792 H 0.2441 0.15036 0.89481 0.0
H793 H 0.18393 0.05039 0.02738 0.0
H794 H 0.1834 0.14629 0.97275 0.0
H795 H 0.25691 0.06799 0.96745 0.0
C796 C 0.27419 0.08813 0.92711 0.0
C797 C 0.27071 0.11106 0.90606 0.0
C798 C 0.18343 0.12529 0.9848 0.0
C799 C 0.23031 0.10744 0.95526 0.0
C800 C 0.16024 0.11969 0.00637 0.0
C801 C 0.15956 0.09238 0.02186 0.0
C802 C 0.20624 0.10356 0.97905 0.0
C803 C 0.18307 0.07155 0.01568 0.0
C804 C 0.25422 0.08633 0.95181 0.0
C805 C 0.24765 0.13259 0.91094 0.0
N806 N 0.2053 0.07756 -0.00516 0.0
N807 N 0.2281 0.13017 0.93497 0.0
H808 H 0.08873 0.07417 0.21899 0.0
H809 H 0.16853 0.95289 0.32439 0.0
H810 H 0.18117 0.04054 0.20227 0.0
H811 H 0.06912 0.95499 0.30997 0.0
H812 H 0.17494 -0.00815 0.28614 0.0
H813 H 0.08242 0.03704 0.25903 0.0
C814 C 0.10788 0.05931 0.22398 0.0
C815 C 0.13566 0.06068 0.20734 0.0
C816 C 0.15173 0.98382 0.29147 0.0
C817 C 0.1286 0.0184 0.25322 0.0
C818 C 0.14804 0.96177 0.31337 0.0
C819 C 0.11826 0.95064 0.32022 0.0
C820 C 0.12538 -0.00465 0.27687 0.0
C821 C 0.09249 0.96276 0.30516 0.0
C822 C 0.10415 0.03803 0.24668 0.0
C823 C 0.15949 0.04055 0.21456 0.0
N824 N 0.09661 0.98462 0.28428 0.0
N825 N 0.15549 0.02035 0.23706 0.0
H826 H 0.26394 0.81336 0.57681 0.0
H827 H 0.18635 0.92694 0.45934 0.0
H828 H 0.28673 0.90673 0.568 0.0
H829 H 0.15758 0.83455 0.46394 0.0
H830 H 0.22544 0.91762 0.49739 0.0
H831 H 0.22779 0.81799 0.53357 0.0
C832 C 0.26176 0.8346 0.56539 0.0
C833 C 0.27814 0.85976 0.5759 0.0
C834 C 0.21059 0.89926 0.49036 0.0
C835 C 0.23695 0.86534 0.52715 0.0
C836 C 0.18801 0.90463 0.46856 0.0
C837 C 0.16823 0.88161 0.45856 0.0
C838 C 0.21363 0.8706 0.50278 0.0
C839 C 0.17211 0.85305 0.4712 0.0
C840 C 0.24098 0.83732 0.54099 0.0
C841 C 0.27436 0.88685 0.56066 0.0
N842 N 0.1943 0.84835 0.49279 0.0
N843 N 0.2542 0.88891 0.53726 0.0
H844 H 0.33807 0.01382 0.83016 0.0
H845 H 0.42153 0.91177 0.7084 0.0
H846 H 0.42526 0.03914 0.78877 0.0
H847 H 0.32142 0.91614 0.71528 0.0
H848 H 0.42576 0.95292 0.74476 0.0
H849 H 0.33348 0.97247 0.79417 0.0
C850 C 0.35642 0.01056 0.81378 0.0
C851 C 0.38246 0.02969 0.81299 0.0
C852 C 0.40288 0.9448 0.73824 0.0
C853 C 0.37746 0.98231 0.7721 0.0
C854 C 0.40047 0.92127 0.71769 0.0
C855 C 0.37108 0.91081 0.70857 0.0
C856 C 0.37571 0.95733 0.75034 0.0
C857 C 0.3445 0.92389 0.72125 0.0
C858 C 0.3537 0.98704 0.79323 0.0
C859 C 0.40525 0.0246 0.79092 0.0
N860 N 0.34742 0.94636 0.74166 0.0
N861 N 0.40236 0.00127 0.77153 0.0
H862 H 0.35965 0.08666 0.97298 0.0
H863 H 0.20911 0.15232 0.05604 0.0
H864 H 0.31473 0.16754 0.94347 0.0
H865 H 0.26425 0.07851 0.08821 0.0
H866 H 0.24606 0.15864 0.01412 0.0
H867 H 0.32382 0.08395 0.01519 0.0
C868 C 0.34243 0.10407 0.97554 0.0
C869 C 0.34031 0.1274 0.95462 0.0
C870 C 0.25002 0.1412 0.03053 0.0
C871 C 0.29869 0.12429 0.0031 0.0
C872 C 0.22889 0.13751 0.05436 0.0
C873 C 0.23362 0.11498 0.07588 0.0
C874 C 0.27575 0.122 0.02809 0.0
C875 C 0.25961 0.09635 0.07243 0.0
C876 C 0.32186 0.10249 -0.0003 0.0
C877 C 0.31737 0.14927 0.95918 0.0
N878 N 0.2795 0.10026 0.0491 0.0
N879 N 0.29728 0.14708 0.98283 0.0
H880 H 0.90227 0.27918 0.09239 0.0
H881 H 0.02798 0.17029 0.16733 0.0
H882 H 0.93386 0.28388 0.18458 0.0
H883 H 0.00734 0.16723 0.07245 0.0
H884 H -0.00552 0.2136 0.17251 0.0
H885 H 0.94011 0.23899 0.08324 0.0
C886 C 0.91706 0.2718 0.11067 0.0
C887 C 0.91463 0.28481 0.13939 0.0
C888 C -0.00273 0.20376 0.15041 0.0
C889 C 0.95809 0.23923 0.12898 0.0
C890 C 0.01659 0.17911 0.14746 0.0
C891 C 0.02041 0.16528 0.11946 0.0
C892 C 0.98093 0.21453 0.12527 0.0
C893 C 0.00512 0.1775 0.0944 0.0
C894 C 0.93866 0.24891 0.10542 0.0
C895 C 0.93456 0.27446 0.16215 0.0
N896 N 0.98566 0.20131 0.09794 0.0
N897 N 0.95529 0.25243 0.15644 0.0
H898 H 0.48781 0.32976 0.88993 0.0
H899 H 0.46008 0.17111 0.81098 0.0
H900 H 0.55254 0.28958 0.82829 0.0
H901 H 0.39524 0.20938 0.87415 0.0
H902 H 0.49549 0.21291 0.81966 0.0
H903 H 0.45555 0.28431 0.88791 0.0
C904 C 0.49552 0.31099 0.87653 0.0
C905 C 0.52302 0.31301 0.85967 0.0
C906 C 0.47354 0.21226 0.83165 0.0
C907 C 0.48587 0.26151 0.85632 0.0
C908 C 0.45321 0.18833 0.82671 0.0
C909 C 0.42445 0.18673 0.84175 0.0
C910 C 0.46521 0.235 0.85178 0.0
C911 C 0.41706 0.20973 0.86197 0.0
C912 C 0.47703 0.28519 0.87517 0.0
C913 C 0.53172 0.28856 0.84201 0.0
N914 N 0.43728 0.23295 0.86633 0.0
N915 N 0.5131 0.26388 0.84063 0.0
H916 H 0.95646 0.66776 0.41665 0.0
H917 H 0.09279 0.74899 0.32591 0.0
H918 H 6e-05 0.63299 0.33646 0.0
H919 H 0.07429 0.77153 0.41861 0.0
H920 H 0.05588 0.70788 0.32955 0.0
H921 H -0.00338 0.70749 0.4183 0.0
C922 C 0.97445 0.66831 0.39958 0.0
C923 C 0.97479 0.64691 0.3764 0.0
C924 C 0.06005 0.72153 0.34929 0.0
C925 C 0.02035 0.69213 0.37805 0.0
C926 C 0.08121 0.74508 0.34721 0.0
C927 C 0.08676 0.76372 0.37201 0.0
C928 C 0.04392 0.7165 0.37632 0.0
C929 C 0.07091 0.75751 0.39901 0.0
C930 C -0.0026 0.69085 0.40063 0.0
C931 C -0.00135 0.6488 0.35484 0.0
N932 N 0.04992 0.73454 0.40041 0.0
N933 N 0.02015 0.67099 0.35612 0.0
H934 H 0.97293 0.3051 0.06138 0.0
H935 H 0.10112 0.20971 0.14968 0.0
H936 H 0.00448 0.32311 0.15192 0.0
H937 H 0.08469 0.19868 0.05442 0.0
H938 H 0.06384 0.25029 0.15045 0.0
H939 H 0.01138 0.26458 0.05797 0.0
C940 C 0.98784 0.3005 0.0805 0.0
C941 C 0.98559 0.31755 0.10693 0.0
C942 C 0.0685 0.23925 0.12925 0.0
C943 C 0.02949 0.27164 0.10316 0.0
C944 C 0.08983 0.21599 0.1288 0.0
C945 C 0.09617 0.2008 0.10191 0.0
C946 C 0.05298 0.24742 0.10266 0.0
C947 C 0.08069 0.20995 0.0756 0.0
C948 C 0.00989 0.27757 0.07848 0.0
C949 C 0.00552 0.31073 0.13101 0.0
N950 N 0.05962 0.23261 0.07665 0.0
N951 N 0.02647 0.28835 0.12856 0.0
H952 H 0.57721 0.71621 0.58426 0.0
H953 H 0.45746 0.82926 0.66128 0.0
H954 H 0.55294 0.71667 0.6784 0.0
H955 H 0.46892 0.82534 0.56495 0.0
H956 H 0.49378 0.7884 0.66689 0.0
H957 H 0.53978 0.75685 0.57564 0.0
C958 C 0.56424 0.72506 0.60312 0.0
C959 C 0.56822 0.71332 0.63223 0.0
C960 C 0.48852 0.7963 0.64443 0.0
C961 C 0.52557 0.7594 0.62247 0.0
C962 C 0.46771 0.81969 0.64122 0.0
C963 C 0.46033 0.83081 0.61261 0.0
C964 C 0.50257 0.78385 0.61888 0.0
C965 C 0.47401 0.81732 0.58739 0.0
C966 C 0.54283 0.74811 0.59816 0.0
C967 C 0.55067 0.72527 0.65572 0.0
N968 N 0.49478 0.7946 0.59111 0.0
N969 N 0.53019 0.74758 0.65035 0.0
H970 H 0.93189 0.6854 0.32243 0.0
H971 H 0.01517 0.8185 0.41232 0.0
H972 H 0.88944 0.72582 0.40031 0.0
H973 H 0.02766 0.80285 0.31742 0.0
H974 H 0.97659 0.77738 0.41365 0.0
H975 H 0.97447 0.72163 0.32562 0.0
C976 C 0.93157 0.70184 0.34032 0.0
C977 C 0.90688 0.70275 0.361 0.0
C978 C 0.98806 0.78286 0.39266 0.0
C979 C 0.95594 0.74414 0.36495 0.0
C980 C 0.01021 0.80601 0.39197 0.0
C981 C 0.02445 0.81393 0.36471 0.0
C982 C 0.98069 0.7674 0.366 0.0
C983 C 0.01705 0.79741 0.33884 0.0
C984 C 0.95586 0.72258 0.34203 0.0
C985 C 0.90786 0.72453 0.38375 0.0
N986 N -0.00425 0.77491 0.34012 0.0
N987 N 0.93208 0.74436 0.38521 0.0
H988 H 0.46406 0.17174 0.90923 0.0
H989 H 0.61902 0.24333 0.84094 0.0
H990 H 0.52582 0.12685 0.84749 0.0
H991 H 0.57216 0.28219 0.91727 0.0
H992 H 0.58466 0.20004 0.8443 0.0
H993 H 0.50302 0.21199 0.91434 0.0
C994 C 0.48587 0.17009 0.89711 0.0
C995 C 0.49144 0.14595 0.87766 0.0
C996 C 0.58204 0.21783 0.8606 0.0
C997 C 0.53579 0.19185 0.8832 0.0
C998 C 0.60171 0.2426 0.85865 0.0
C999 C 0.59847 0.26642 0.87882 0.0
C1000 C 0.5586 0.2169 0.88266 0.0
C1001 C 0.57558 0.26421 0.90135 0.0
C1002 C 0.50808 0.19305 0.90004 0.0
C1003 C 0.52014 0.14507 0.86249 0.0
N1004 N 0.55622 0.24001 0.90247 0.0
N1005 N 0.54095 0.16774 0.86536 0.0
H1006 H 0.86006 0.11285 0.76157 0.0
H1007 H 0.89128 0.94162 0.79948 0.0
H1008 H 0.84408 0.04265 0.69681 0.0
H1009 H 0.86925 0.00669 0.86768 0.0
H1010 H 0.88183 0.97972 0.76071 0.0
H1011 H 0.8693 0.0751 0.80025 0.0
C1012 C 0.85828 0.08948 0.75548 0.0
C1013 C 0.85148 0.0809 0.72576 0.0
C1014 C 0.87882 0.98541 0.78417 0.0
C1015 C 0.86273 0.03754 0.7699 0.0
C1016 C 0.88444 0.96382 0.80627 0.0
C1017 C 0.88068 0.9708 0.83684 0.0
C1018 C 0.86961 0.01423 0.7927 0.0
C1019 C 0.87226 0.00015 0.84441 0.0
C1020 C 0.86365 0.06794 0.77758 0.0
C1021 C 0.84947 0.05024 0.7193 0.0
N1022 N 0.86699 0.02073 0.82252 0.0
N1023 N 0.8554 0.02965 0.74109 0.0
H1024 H 0.68254 0.05651 0.4492 0.0
H1025 H 0.75648 0.17075 0.56722 0.0
H1026 H 0.65701 0.14908 0.45874 0.0
H1027 H 0.78002 0.0773 0.56805 0.0
H1028 H 0.71596 0.16069 0.53058 0.0
H1029 H 0.71608 0.06145 0.49398 0.0
C1030 C 0.68374 0.07774 0.46084 0.0
C1031 C 0.66664 0.10235 0.45042 0.0
C1032 C 0.72958 0.14214 0.53886 0.0
C1033 C 0.7045 0.10801 0.50153 0.0
C1034 C 0.75268 0.14789 0.55996 0.0
C1035 C 0.77196 0.1249 0.57023 0.0
C1036 C 0.72578 0.11315 0.52743 0.0
C1037 C 0.76572 0.09566 0.56048 0.0
C1038 C 0.7027 0.08047 0.48644 0.0
C1039 C 0.66916 0.12933 0.4662 0.0
N1040 N 0.74346 0.09063 0.53902 0.0
N1041 N 0.68772 0.1314 0.4908 0.0
H1042 H 0.65938 0.91551 0.20579 0.0
H1043 H 0.56113 0.02585 0.31086 0.0
H1044 H 0.5593 0.90985 0.21474 0.0
H1045 H 0.66135 0.01771 0.31396 0.0
H1046 H 0.55943 0.98634 0.2725 0.0
H1047 H 0.66001 0.95644 0.24216 0.0
C1048 C 0.63755 0.92277 0.21549 0.0
C1049 C 0.60929 0.90901 0.20742 0.0
C1050 C 0.58174 -0.00679 0.28172 0.0
C1051 C 0.60983 0.95588 0.24912 0.0
C1052 C 0.58271 0.01572 0.30359 0.0
C1053 C 0.61139 0.02506 0.31571 0.0
C1054 C 0.60965 0.98007 0.27194 0.0
C1055 C 0.63867 0.01125 0.30534 0.0
C1056 C 0.63792 0.94613 0.23629 0.0
C1057 C 0.58167 0.91961 0.22052 0.0
N1058 N 0.63711 -0.01045 0.28407 0.0
N1059 N 0.58263 0.9424 0.24073 0.0
H1060 H 0.80051 0.92667 0.95911 0.0
H1061 H 0.74157 0.81014 0.08262 0.0
H1062 H 0.83648 0.83811 0.97386 0.0
H1063 H 0.69658 0.89508 0.07041 0.0
H1064 H 0.78255 0.82559 0.04857 0.0
H1065 H 0.76673 0.92018 0.0035 0.0
C1066 C 0.80181 0.90616 0.97193 0.0
C1067 C 0.8218 0.88305 0.9629 0.0
C1068 C 0.764 0.84118 0.05337 0.0
C1069 C 0.78364 0.87568 0.01357 0.0
C1070 C 0.74063 0.83236 0.07302 0.0
C1071 C 0.71538 0.85114 0.07882 0.0
C1072 C 0.76203 0.86889 0.03879 0.0
C1073 C 0.71564 0.8799 0.06627 0.0
C1074 C 0.78258 0.90253 -0.00276 0.0
C1075 C 0.82224 0.85688 0.98013 0.0
N1076 N 0.73832 0.88774 0.04617 0.0
N1077 N 0.8035 0.85396 0.00441 0.0
H1078 H 0.91584 0.01571 0.65915 0.0
H1079 H 0.78998 0.92936 0.75414 0.0
H1080 H 0.81899 0.00755 0.63358 0.0
H1081 H 0.8858 0.90027 0.75722 0.0
H1082 H 0.80223 0.96065 0.7115 0.0
H1083 H 0.90786 0.97537 0.69629 0.0
C1084 C 0.89312 0.00519 0.66102 0.0
C1085 C 0.86789 0.01533 0.64366 0.0
C1086 C 0.82063 0.94724 0.7212 0.0
C1087 C 0.85877 0.96962 0.68563 0.0
C1088 C 0.81369 0.92939 0.74579 0.0
C1089 C 0.83699 0.91236 0.75968 0.0
C1090 C 0.85122 0.94855 0.71026 0.0
C1091 C 0.86717 0.91318 0.74731 0.0
C1092 C 0.88864 0.9822 0.68208 0.0
C1093 C 0.83898 0.00092 0.64685 0.0
N1094 N 0.8736 0.93138 0.72344 0.0
N1095 N 0.83518 0.97911 0.6676 0.0
H1096 H 0.81462 0.05491 0.50916 0.0
H1097 H 0.71523 0.16931 0.41282 0.0
H1098 H 0.83214 0.14982 0.5119 0.0
H1099 H 0.72757 0.07753 0.38598 0.0
H1100 H 0.75453 0.16247 0.45224 0.0
H1101 H 0.77876 0.06248 0.46693 0.0
C1102 C 0.81104 0.07732 0.50072 0.0
C1103 C 0.8264 0.10179 0.51389 0.0
C1104 C 0.7489 0.14397 0.43744 0.0
C1105 C 0.78531 0.1106 0.46591 0.0
C1106 C 0.72649 0.14784 0.41498 0.0
C1107 C 0.71827 0.12398 0.39602 0.0
C1108 C 0.76284 0.11595 0.44121 0.0
C1109 C 0.73341 0.09658 0.39994 0.0
C1110 C 0.79069 0.0816 0.4766 0.0
C1111 C 0.8209 0.13035 0.50219 0.0
N1112 N 0.75477 0.09322 0.42231 0.0
N1113 N 0.80054 0.13404 0.47901 0.0
H1114 H 0.54335 0.97003 0.16682 0.0
H1115 H 0.69144 0.04897 0.24013 0.0
H1116 H 0.63775 0.9532 0.13811 0.0
H1117 H 0.59707 0.07661 0.25837 0.0
H1118 H 0.67206 0.01562 0.20107 0.0
H1119 H 0.5623 0.01071 0.19846 0.0
C1120 C 0.56807 0.9751 0.16685 0.0
C1121 C 0.58903 0.95796 0.14985 0.0
C1122 C 0.65557 0.02923 0.21329 0.0
C1123 C 0.61088 0.0047 0.18627 0.0
C1124 C 0.6666 0.0483 0.23572 0.0
C1125 C 0.64583 0.06558 0.25276 0.0
C1126 C 0.62344 0.02713 0.20782 0.0
C1127 C 0.61394 0.0638 0.24578 0.0
C1128 C 0.57884 -0.00156 0.18492 0.0
C1129 C 0.62074 0.96578 0.15077 0.0
N1130 N 0.60368 0.04464 0.22405 0.0
N1131 N 0.63073 -0.01163 0.16895 0.0
H1132 H 0.65927 0.90687 0.00913 0.0
H1133 H 0.78688 0.80726 0.92487 0.0
H1134 H 0.66977 0.81192 0.02184 0.0
H1135 H 0.76369 0.89649 0.89628 0.0
H1136 H 0.74666 0.8103 0.96354 0.0
H1137 H 0.70026 0.90529 0.97051 0.0
C1138 C 0.6701 0.88575 0.00379 0.0
C1139 C 0.66096 0.85948 0.01866 0.0
C1140 C 0.75017 0.82915 0.94865 0.0
C1141 C 0.70772 0.85753 0.97475 0.0
C1142 C 0.77315 0.82741 0.92655 0.0
C1143 C 0.77846 0.85153 0.90709 0.0
C1144 C 0.73239 0.85525 0.95148 0.0
C1145 C 0.7601 0.87719 0.91052 0.0
C1146 C 0.69341 0.88484 0.98174 0.0
C1147 C 0.67586 0.83272 0.0109 0.0
N1148 N 0.73793 0.87843 0.93235 0.0
N1149 N 0.69849 0.83247 -0.01037 0.0
H1150 H 0.97063 0.83773 0.84367 0.0
H1151 H 0.06894 0.70572 0.90708 0.0
H1152 H 0.93432 0.77163 0.90524 0.0
H1153 H 0.0746 0.71877 0.81094 0.0
H1154 H 0.02615 0.74069 0.90915 0.0
H1155 H 0.014 0.80332 0.83167 0.0
C1156 C 0.97144 0.81598 0.85425 0.0
C1157 C 0.94921 0.80789 0.87607 0.0
C1158 C 0.03681 0.73604 0.88757 0.0
C1159 C -0.00148 0.76926 0.86302 0.0
C1160 C 0.06137 0.71608 0.88632 0.0
C1161 C 0.07519 0.70887 0.8587 0.0
C1162 C 0.02614 0.7497 0.86118 0.0
C1163 C 0.06434 0.72347 0.83265 0.0
C1164 C -0.00385 0.7965 0.84747 0.0
C1165 C 0.95132 0.77934 0.88898 0.0
N1166 N 0.04033 0.74336 0.83448 0.0
N1167 N 0.97573 0.76145 0.88272 0.0
H1168 H 0.457 0.64611 0.14388 0.0
H1169 H 0.5935 0.7543 0.08588 0.0
H1170 H 0.48771 0.65461 0.05187 0.0
H1171 H 0.54995 0.76601 0.17255 0.0
H1172 H 0.56176 0.71007 0.07754 0.0
H1173 H 0.49795 0.6821 0.15906 0.0
C1174 C 0.47279 0.65492 0.12705 0.0
C1175 C 0.46867 0.64779 0.09652 0.0
C1176 C 0.55928 0.72206 0.09857 0.0
C1177 C 0.51516 0.68856 0.11356 0.0
C1178 C 0.5776 0.74731 0.10344 0.0
C1179 C 0.57452 0.76389 0.13001 0.0
C1180 C 0.53742 0.71316 0.12033 0.0
C1181 C 0.55305 0.75387 0.15171 0.0
C1182 C 0.49591 0.6756 0.13566 0.0
C1183 C 0.48966 0.65989 0.07559 0.0
N1184 N 0.5351 0.7292 0.14632 0.0
N1185 N 0.51172 0.67977 0.08445 0.0
H1186 H 0.01127 0.32622 0.65659 0.0
H1187 H 0.91347 0.19573 0.5787 0.0
H1188 H 0.02665 0.29741 0.56514 0.0
H1189 H 0.93019 0.19725 0.67452 0.0
H1190 H 0.9479 0.23886 0.57301 0.0
H1191 H 0.97418 0.28471 0.66321 0.0
C1192 C 0.00651 0.31142 0.63782 0.0
C1193 C 0.02188 0.31525 0.61024 0.0
C1194 C 0.94395 0.22982 0.59529 0.0
C1195 C 0.97968 0.26814 0.6176 0.0
C1196 C 0.92419 0.20529 0.5986 0.0
C1197 C 0.91911 0.19278 0.62712 0.0
C1198 C 0.95814 0.24248 0.62076 0.0
C1199 C 0.9337 0.20609 0.6521 0.0
C1200 C 0.98559 0.28769 0.64168 0.0
C1201 C 0.01525 0.29526 0.58675 0.0
N1202 N 0.95253 0.23037 0.64837 0.0
N1203 N -0.00545 0.27262 0.59093 0.0
H1204 H 0.98262 0.65057 0.90359 0.0
H1205 H 0.92691 0.7832 0.80397 0.0
H1206 H 0.02946 0.66639 0.81931 0.0
H1207 H 0.86404 0.73029 0.85814 0.0
H1208 H 0.96566 0.74286 0.80753 0.0
H1209 H 0.93994 0.68206 0.88711 0.0
C1210 C 0.98363 0.6604 0.88132 0.0
C1211 C 0.00957 0.65595 0.86279 0.0
C1212 C 0.94311 0.74003 0.81811 0.0
C1213 C 0.96091 0.69277 0.84391 0.0
C1214 C 0.92108 0.76305 0.81622 0.0
C1215 C 0.89235 0.76038 0.83121 0.0
C1216 C 0.93655 0.71476 0.83579 0.0
C1217 C 0.88596 0.73366 0.84656 0.0
C1218 C 0.95923 0.67837 0.87189 0.0
C1219 C 0.00972 0.66922 0.83415 0.0
N1220 N 0.90803 0.71226 0.84891 0.0
N1221 N 0.98596 0.68767 0.82574 0.0
H1222 H 0.40649 0.27313 0.41484 0.0
H1223 H 0.52581 0.16297 0.33433 0.0
H1224 H 0.40731 0.26504 0.31798 0.0
H1225 H 0.50637 0.16724 0.42945 0.0
H1226 H 0.48255 0.19828 0.32533 0.0
H1227 H 0.44401 0.23368 0.41839 0.0
C1228 C 0.41448 0.26294 0.39414 0.0
C1229 C 0.40369 0.27261 0.36604 0.0
C1230 C 0.48763 0.19104 0.34805 0.0
C1231 C 0.44729 0.22648 0.36998 0.0
C1232 C 0.51215 0.17086 0.35316 0.0
C1233 C 0.52013 0.1628 0.38274 0.0
C1234 C 0.47112 0.20265 0.37274 0.0
C1235 C 0.50162 0.17341 0.40633 0.0
C1236 C 0.43606 0.24017 0.3962 0.0
C1237 C 0.41513 0.25831 0.34012 0.0
N1238 N 0.47834 0.19283 0.40082 0.0
N1239 N 0.43655 0.23595 0.34267 0.0
H1240 H -0.00623 0.15543 0.54351 0.0
H1241 H 0.05951 0.26577 0.66732 0.0
H1242 H 0.96665 0.1459 0.63646 0.0
H1243 H 0.09787 0.25438 0.57832 0.0
H1244 H 0.02733 0.22065 0.65926 0.0
H1245 H 0.03528 0.18894 0.55849 0.0
C1246 C -0.00319 0.1602 0.56726 0.0
C1247 C 0.97609 0.14868 0.58868 0.0
C1248 C 0.04342 0.22777 0.6419 0.0
C1249 C 0.02357 0.18784 0.60617 0.0
C1250 C 0.0616 0.25355 0.64639 0.0
C1251 C 0.08155 0.26381 0.62351 0.0
C1252 C 0.04519 0.21251 0.61429 0.0
C1253 C 0.08326 0.24727 0.5968 0.0
C1254 C 0.02059 0.17945 0.57587 0.0
C1255 C 0.98176 0.15492 0.61919 0.0
N1256 N 0.06524 0.2227 0.59293 0.0
N1257 N 0.00456 0.17486 0.62707 0.0
H1258 H 0.41855 0.70252 0.16428 0.0
H1259 H 0.52794 0.79206 0.05275 0.0
H1260 H 0.40558 0.69977 0.06798 0.0
H1261 H 0.50915 0.82388 0.14261 0.0
H1262 H 0.48736 0.75403 0.05901 0.0
H1263 H 0.45598 0.74361 0.15793 0.0
C1264 C 0.42347 0.71072 0.14184 0.0
C1265 C 0.40912 0.6978 0.11658 0.0
C1266 C 0.4919 0.76959 0.07718 0.0
C1267 C 0.4519 0.74426 0.1092 0.0
C1268 C 0.51507 0.79122 0.07369 0.0
C1269 C 0.5217 0.81125 0.09714 0.0
C1270 C 0.47561 0.76775 0.10446 0.0
C1271 C 0.50449 0.80905 0.12387 0.0
C1272 C 0.44467 0.73416 0.13826 0.0
C1273 C 0.41616 0.70921 0.08801 0.0
N1274 N 0.48235 0.78746 0.12693 0.0
N1275 N 0.4374 0.73159 0.08504 0.0
H1276 H 0.58841 0.38782 0.75774 0.0
H1277 H 0.66754 0.51614 0.65977 0.0
H1278 H 0.67448 0.43139 0.7833 0.0
H1279 H 0.56764 0.50544 0.66339 0.0
H1280 H 0.67276 0.47801 0.69892 0.0
H1281 H 0.58226 0.42448 0.7171 0.0
C1282 C 0.6062 0.4048 0.75467 0.0
C1283 C 0.63233 0.40611 0.77377 0.0
C1284 C 0.64971 0.48391 0.691 0.0
C1285 C 0.62553 0.44778 0.72724 0.0
C1286 C 0.64673 0.50544 0.66853 0.0
C1287 C 0.61712 0.51387 0.65833 0.0
C1288 C 0.62292 0.47021 0.7029 0.0
C1289 C 0.59087 0.49967 0.67075 0.0
C1290 C 0.60258 0.42574 0.73158 0.0
C1291 C 0.65436 0.42892 0.76893 0.0
N1292 N 0.59437 0.47835 0.6923 0.0
N1293 N 0.65058 0.44867 0.74605 0.0
H1294 H 0.87103 0.36945 -0.00623 0.0
H1295 H 0.70992 0.31558 0.92089 0.0
H1296 H 0.81288 0.30153 0.03421 0.0
H1297 H 0.77412 0.37796 0.87973 0.0
H1298 H 0.74831 0.30692 0.96098 0.0
H1299 H 0.83739 0.36903 0.94964 0.0
C1300 C 0.85139 0.35413 -0.00681 0.0
C1301 C 0.84462 0.3357 0.01782 0.0
C1302 C 0.75403 0.3222 0.94292 0.0
C1303 C 0.80557 0.33535 0.96739 0.0
C1304 C 0.73213 0.32719 0.92007 0.0
C1305 C 0.73867 0.34768 0.89697 0.0
C1306 C 0.78261 0.33777 0.94252 0.0
C1307 C 0.76781 0.36216 0.89713 0.0
C1308 C 0.83211 0.35391 0.96796 0.0
C1309 C 0.81894 0.31615 0.01571 0.0
N1310 N 0.78851 0.35703 0.91956 0.0
N1311 N 0.80006 0.31677 -0.00892 0.0
H1312 H 0.81107 0.55244 0.25386 0.0
H1313 H 0.928 0.44398 0.17283 0.0
H1314 H 0.91031 0.56859 0.25296 0.0
H1315 H 0.83758 0.46029 0.1336 0.0
H1316 H 0.91981 0.48519 0.20752 0.0
H1317 H 0.81791 0.5144 0.21436 0.0
C1318 C 0.83418 0.54818 0.24519 0.0
C1319 C 0.86014 0.56379 0.25652 0.0
C1320 C 0.90192 0.47998 0.19106 0.0
C1321 C 0.86814 0.52009 0.2122 0.0
C1322 C 0.90661 0.45641 0.17111 0.0
C1323 C 0.88369 0.44878 0.14984 0.0
C1324 C 0.8738 0.49576 0.19031 0.0
C1325 C 0.85607 0.46559 0.14937 0.0
C1326 C 0.83804 0.52659 0.22267 0.0
C1327 C 0.88962 0.55729 0.24465 0.0
N1328 N 0.85172 0.48812 0.16955 0.0
N1329 N 0.89287 0.53569 0.22346 0.0
H1330 H 0.7645 0.65153 0.40005 0.0
H1331 H 0.6986 0.54489 0.53041 0.0
H1332 H 0.78745 0.55869 0.4108 0.0
H1333 H 0.65784 0.63079 0.51184 0.0
H1334 H 0.73667 0.55357 0.49109 0.0
H1335 H 0.73084 0.64821 0.44502 0.0
C1336 C 0.76293 0.63068 0.4123 0.0
C1337 C 0.77878 0.60535 0.40199 0.0
C1338 C 0.7194 0.57057 0.49538 0.0
C1339 C 0.74039 0.60127 0.45283 0.0
C1340 C 0.69749 0.56561 0.51791 0.0
C1341 C 0.67454 0.58693 0.52421 0.0
C1342 C 0.71854 0.59704 0.47856 0.0
C1343 C 0.6749 0.61361 0.50754 0.0
C1344 C 0.74353 0.6287 0.43768 0.0
C1345 C 0.77569 0.57872 0.41819 0.0
N1346 N 0.69644 0.61785 0.48528 0.0
N1347 N 0.75691 0.57739 0.44272 0.0
H1348 H 0.64122 0.47927 0.83342 0.0
H1349 H 0.55978 0.57296 0.70251 0.0
H1350 H 0.5551 0.45019 0.79204 0.0
H1351 H 0.6586 0.57425 0.72035 0.0
H1352 H 0.55333 0.53456 0.74172 0.0
H1353 H 0.64339 0.52113 0.79848 0.0
C1354 C 0.62249 0.48188 0.81726 0.0
C1355 C 0.59792 0.46112 0.81569 0.0
C1356 C 0.57635 0.54345 0.73707 0.0
C1357 C 0.60031 0.50919 0.77559 0.0
C1358 C 0.58001 0.56543 0.71495 0.0
C1359 C 0.60982 0.5765 0.70806 0.0
C1360 C 0.60263 0.53315 0.75275 0.0
C1361 C 0.63533 0.56591 0.72454 0.0
C1362 C 0.62387 0.50572 0.79721 0.0
C1363 C 0.57443 0.46565 0.79411 0.0
N1364 N 0.63116 0.54489 0.74615 0.0
N1365 N 0.57619 0.48924 0.77483 0.0
H1366 H 0.80597 0.38719 0.04077 0.0
H1367 H 0.6405 0.35109 0.9633 0.0
H1368 H 0.72759 0.35139 0.08961 0.0
H1369 H 0.71006 0.40937 0.92443 0.0
H1370 H 0.67478 0.34384 0.00703 0.0
H1371 H 0.77384 0.38825 -0.00507 0.0
C1372 C 0.78223 0.37883 0.04158 0.0
C1373 C 0.76944 0.36885 0.06878 0.0
C1374 C 0.68249 0.35816 -0.01115 0.0
C1375 C 0.73254 0.37002 0.01667 0.0
C1376 C 0.66292 0.36232 0.96391 0.0
C1377 C 0.67228 0.38098 0.94017 0.0
C1378 C 0.71168 0.37263 -0.01001 0.0
C1379 C 0.70171 0.39487 0.94219 0.0
C1380 C 0.76381 0.37967 0.01555 0.0
C1381 C 0.7383 0.35903 0.06893 0.0
N1382 N 0.7203 0.3904 0.96657 0.0
N1383 N 0.72092 0.35978 0.04328 0.0
H1384 H 0.8136 0.52548 0.32947 0.0
H1385 H 0.89591 0.40084 0.22924 0.0
H1386 H 0.91314 0.51525 0.32197 0.0
H1387 H 0.80532 0.43572 0.20629 0.0
H1388 H 0.89881 0.43574 0.27126 0.0
H1389 H 0.8066 0.48552 0.29189 0.0
C1390 C 0.83394 0.51471 0.3201 0.0
C1391 C 0.86405 0.52415 0.3283 0.0
C1392 C 0.87814 0.43553 0.2572 0.0
C1393 C 0.85625 0.47842 0.28607 0.0
C1394 C 0.87637 0.41551 0.23328 0.0
C1395 C 0.85032 0.41534 0.21415 0.0
C1396 C 0.85352 0.45532 0.2624 0.0
C1397 C 0.82582 0.43505 0.22045 0.0
C1398 C 0.82993 0.49209 0.29865 0.0
C1399 C 0.8896 0.50947 0.31562 0.0
N1400 N 0.82799 0.4543 0.24411 0.0
N1401 N 0.88514 0.48734 0.29519 0.0
H1402 H 0.84263 0.58406 0.48106 0.0
H1403 H 0.7003 0.66338 0.5646 0.0
H1404 H 0.8114 0.67245 0.45732 0.0
H1405 H 0.74373 0.58179 0.5943 0.0
H1406 H 0.7397 0.66752 0.52465 0.0
H1407 H 0.80588 0.58346 0.52261 0.0
C1408 C 0.82834 0.60356 0.48481 0.0
C1409 C 0.83017 0.62835 0.46559 0.0
C1410 C 0.74063 0.64887 0.54011 0.0
C1411 C 0.78758 0.62771 0.51329 0.0
C1412 C 0.71807 0.64641 0.56278 0.0
C1413 C 0.71874 0.62227 0.58293 0.0
C1414 C 0.76374 0.62688 0.53748 0.0
C1415 C 0.74232 0.60092 0.57949 0.0
C1416 C 0.80723 0.60318 0.50857 0.0
C1417 C 0.81086 0.65289 0.47161 0.0
N1418 N 0.7637 0.60369 0.55723 0.0
N1419 N 0.79019 0.65188 0.49483 0.0
H1420 H 0.50933 0.64448 0.66053 0.0
H1421 H 0.42117 0.76687 0.56112 0.0
H1422 H 0.53059 0.65903 0.56684 0.0
H1423 H 0.41119 0.75796 0.65736 0.0
H1424 H 0.45913 0.7262 0.56161 0.0
H1425 H 0.47224 0.6853 0.65881 0.0
C1426 C 0.50623 0.6564 0.63953 0.0
C1427 C 0.52301 0.64825 0.61374 0.0
C1428 C 0.44847 0.73305 0.58256 0.0
C1429 C 0.47992 0.69503 0.61147 0.0
C1430 C 0.42664 0.75617 0.58232 0.0
C1431 C 0.41284 0.7659 0.60927 0.0
C1432 C 0.45645 0.71937 0.60991 0.0
C1433 C 0.42109 0.75127 0.63602 0.0
C1434 C 0.48495 0.67972 0.63856 0.0
C1435 C 0.51821 0.66467 0.58725 0.0
N1436 N 0.44232 0.72885 0.63564 0.0
N1437 N 0.49686 0.68716 0.58671 0.0
H1438 H 0.31049 0.55839 0.1992 0.0
H1439 H 0.41802 0.45739 0.30559 0.0
H1440 H 0.41035 0.56872 0.20689 0.0
H1441 H 0.31773 0.46015 0.31305 0.0
H1442 H 0.41544 0.49568 0.26641 0.0
H1443 H 0.31234 0.51969 0.23829 0.0
C1444 C 0.33271 0.55272 0.20924 0.0
C1445 C 0.36026 0.56691 0.19982 0.0
C1446 C 0.39401 0.48798 0.27673 0.0
C1447 C 0.36258 0.52273 0.24433 0.0
C1448 C 0.3955 0.46609 0.29907 0.0
C1449 C 0.36809 0.45563 0.31273 0.0
C1450 C 0.36492 0.49937 0.26786 0.0
C1451 C 0.33949 0.46767 0.30328 0.0
C1452 C 0.33377 0.53064 0.2315 0.0
C1453 C 0.38848 0.55846 0.21342 0.0
N1454 N 0.33864 0.4888 0.28137 0.0
N1455 N 0.3889 0.53694 0.23487 0.0
H1456 H 0.24393 0.67486 0.05719 0.0
H1457 H 0.17112 0.55617 0.9458 0.0
H1458 H 0.26701 0.58154 0.06437 0.0
H1459 H 0.13279 0.64375 0.96102 0.0
H1460 H 0.20504 0.56315 -0.01015 0.0
H1461 H 0.20132 0.66224 0.0236 0.0
C1462 C 0.23975 0.65154 0.05192 0.0
C1463 C 0.25945 0.62924 0.06307 0.0
C1464 C 0.18871 0.58051 0.98386 0.0
C1465 C 0.21059 0.61456 0.02403 0.0
C1466 C 0.16945 0.57664 0.95867 0.0
C1467 C 0.1491 0.59946 0.94967 0.0
C1468 C 0.18772 0.6075 -9e-05 0.0
C1469 C 0.14796 0.62551 0.9671 0.0
C1470 C 0.21531 0.64433 0.03271 0.0
C1471 C 0.25252 0.5994 0.05597 0.0
N1472 N 0.1672 0.62889 -0.00887 0.0
N1473 N 0.22897 0.5929 0.03627 0.0
H1474 H 0.06312 0.5208 0.80159 0.0
H1475 H 0.1673 0.4192 0.69323 0.0
H1476 H 0.16363 0.5184 0.80627 0.0
H1477 H 0.06929 0.40336 0.70906 0.0
H1478 H 0.16596 0.46006 0.73002 0.0
H1479 H 0.06451 0.48202 0.76267 0.0
C1480 C 0.08544 0.51211 0.7945 0.0
C1481 C 0.11327 0.52269 0.8074 0.0
C1482 C 0.14482 0.44751 0.72545 0.0
C1483 C 0.11504 0.47849 0.76288 0.0
C1484 C 0.14557 0.42423 0.70445 0.0
C1485 C 0.11843 0.40771 0.69815 0.0
C1486 C 0.1167 0.4544 0.74005 0.0
C1487 C 0.09085 0.41535 0.71328 0.0
C1488 C 0.08623 0.48995 0.77234 0.0
C1489 C 0.14157 0.51074 0.79716 0.0
N1490 N 0.09068 0.43815 0.73343 0.0
N1491 N 0.14173 0.48934 0.77549 0.0
H1492 H 0.23498 0.30026 0.55284 0.0
H1493 H 0.35947 0.34179 0.47257 0.0
H1494 H 0.21104 0.39306 0.5646 0.0
H1495 H 0.30455 0.41765 0.4456 0.0
H1496 H 0.32574 0.33473 0.51553 0.0
H1497 H 0.27749 0.31457 0.52095 0.0
C1498 C 0.23891 0.32388 0.54907 0.0
C1499 C 0.21908 0.34549 0.56138 0.0
C1500 C 0.32078 0.35281 0.50012 0.0
C1501 C 0.26944 0.36233 0.5251 0.0
C1502 C 0.34043 0.35713 0.47567 0.0
C1503 C 0.33467 0.38006 0.45504 0.0
C1504 C 0.29429 0.37079 0.50352 0.0
C1505 C 0.30957 0.39936 0.46073 0.0
C1506 C 0.26377 0.33209 0.53109 0.0
C1507 C 0.2258 0.3757 0.55562 0.0
N1508 N 0.28987 0.39397 0.48419 0.0
N1509 N 0.25025 0.38329 0.53738 0.0
H1510 H 0.38381 0.39935 0.26991 0.0
H1511 H 0.31396 0.50046 0.13786 0.0
H1512 H 0.28631 0.41078 0.24891 0.0
H1513 H 0.41035 0.50844 0.16499 0.0
H1514 H 0.30689 0.4603 0.17337 0.0
H1515 H 0.39708 0.43203 0.22697 0.0
C1516 C 0.36528 0.4082 0.25599 0.0
C1517 C 0.33387 0.40268 0.2633 0.0
C1518 C 0.32972 0.47061 0.17168 0.0
C1519 C 0.34882 0.43965 0.21444 0.0
C1520 C 0.33381 0.49371 0.15128 0.0
C1521 C 0.36271 0.50824 0.14867 0.0
C1522 C 0.35459 0.46176 0.1901 0.0
C1523 C 0.38762 0.49794 0.16642 0.0
C1524 C 0.37287 0.42696 0.23168 0.0
C1525 C 0.31082 0.41476 0.24458 0.0
N1526 N 0.38292 0.47545 0.18674 0.0
N1527 N 0.31876 0.43269 0.2213 0.0
H1528 H 0.30752 0.54948 0.01793 0.0
H1529 H 0.22058 0.57642 0.88888 0.0
H1530 H 0.32995 0.64346 0.01476 0.0
H1531 H 0.20817 0.66402 0.92743 0.0
H1532 H 0.26109 0.56643 0.92613 0.0
H1533 H 0.27073 0.55643 0.97659 0.0
C1534 C 0.30502 0.57151 0.00821 0.0
C1535 C 0.32183 0.59594 0.01972 0.0
C1536 C 0.24937 0.58776 0.92658 0.0
C1537 C 0.28003 0.60401 0.97216 0.0
C1538 C 0.22651 0.59363 0.90508 0.0
C1539 C 0.21099 0.62111 0.90506 0.0
C1540 C 0.25683 0.60955 0.94821 0.0
C1541 C 0.21951 0.64251 0.92671 0.0
C1542 C 0.28419 0.57542 0.98444 0.0
C1543 C 0.31755 0.62403 0.00641 0.0
N1544 N 0.24197 0.63631 0.94739 0.0
N1545 N 0.29672 0.62739 0.98356 0.0
H1546 H 0.0374 0.47686 0.67682 0.0
H1547 H 0.18498 0.56238 0.74181 0.0
H1548 H 0.13035 0.4656 0.64157 0.0
H1549 H 0.09061 0.5863 0.76472 0.0
H1550 H 0.16505 0.52972 0.70237 0.0
H1551 H 0.05583 0.51924 0.70644 0.0
C1552 C 0.06164 0.4835 0.67497 0.0
C1553 C 0.08241 0.46738 0.65678 0.0
C1554 C 0.14865 0.54247 0.71561 0.0
C1555 C 0.10368 0.51609 0.69088 0.0
C1556 C 0.16001 0.56116 0.73823 0.0
C1557 C 0.13941 0.57693 0.75687 0.0
C1558 C 0.11638 0.53919 0.71163 0.0
C1559 C 0.10734 0.5746 0.75091 0.0
C1560 C 0.07211 0.50783 0.69187 0.0
C1561 C 0.11349 0.47726 0.65527 0.0
N1562 N 0.09678 0.55567 0.7291 0.0
N1563 N 0.12325 0.50073 0.67239 0.0
H1564 H 0.13637 0.32465 0.51071 0.0
H1565 H 0.27558 0.31133 0.43416 0.0
H1566 H 0.16208 0.41737 0.52058 0.0
H1567 H 0.25381 0.39877 0.39952 0.0
H1568 H 0.23407 0.31665 0.47118 0.0
H1569 H 0.17876 0.31816 0.4749 0.0
C1570 C 0.15099 0.34369 0.50527 0.0
C1571 C 0.14582 0.37158 0.51864 0.0
C1572 C 0.23814 0.33455 0.45528 0.0
C1573 C 0.19455 0.36425 0.47769 0.0
C1574 C 0.2619 0.33158 0.43418 0.0
C1575 C 0.26782 0.35444 0.41337 0.0
C1576 C 0.22037 0.36076 0.45595 0.0
C1577 C 0.24963 0.3804 0.41483 0.0
C1578 C 0.17537 0.33988 0.48506 0.0
C1579 C 0.16551 0.39548 0.51085 0.0
N1580 N 0.22681 0.38298 0.43595 0.0
N1581 N 0.18892 0.39136 0.49053 0.0
H1582 H 0.50026 0.32875 0.40998 0.0
H1583 H 0.5697 0.20411 0.29994 0.0
H1584 H 0.45501 0.30906 0.32553 0.0
H1585 H 0.59054 0.21552 0.39438 0.0
H1586 H 0.53336 0.24676 0.30321 0.0
H1587 H 0.54105 0.29369 0.39773 0.0
C1588 C 0.49919 0.31723 0.38853 0.0
C1589 C 0.47391 0.32136 0.36902 0.0
C1590 C 0.54616 0.23986 0.32302 0.0
C1591 C 0.52042 0.28007 0.35505 0.0
C1592 C 0.56687 0.21561 0.32119 0.0
C1593 C 0.58321 0.2061 0.34694 0.0
C1594 C 0.54235 0.25479 0.35064 0.0
C1595 C 0.57856 0.22177 0.37389 0.0
C1596 C 0.52241 0.29696 0.38161 0.0
C1597 C 0.47402 0.30621 0.3413 0.0
N1598 N 0.55872 0.2451 0.37495 0.0
N1599 N 0.49668 0.28565 0.33529 0.0
loop_
_geom_bond_atom_site_label_1
_geom_bond_atom_site_label_2
_geom_bond_distance
_geom_bond_site_symmetry_2
_ccdc_geom_bond_type
Mg0 O1 2.028 . S
Mg0 O7 1.986 . S
Mg0 O9 2.114 . S
Mg0 O10 2.251 . S
Mg0 O13 2.010 . S
O1 Mg0 2.028 . S
O1 C4 1.250 . S
O2 Mg3 2.028 . S
O2 C4 1.248 . S
Mg3 O2 2.028 . S
Mg3 O8 2.032 . S
Mg3 O10 2.079 . S
C4 O1 1.250 . S
C4 O2 1.248 . S
C5 O6 1.264 . S
C5 O13 1.249 . S
O6 C5 1.264 . S
O7 Mg0 1.986 . S
O7 C11 1.246 . S
O8 Mg3 2.032 . S
O8 C11 1.259 . S
O9 Mg0 2.114 . S
O9 C12 1.252 . S
O10 Mg0 2.251 . S
O10 Mg3 2.079 . S
O10 C12 1.273 . S
C11 O7 1.246 . S
C11 O8 1.259 . S
C12 O9 1.252 . S
C12 O10 1.273 . S
O13 Mg0 2.010 . S
O13 C5 1.249 . S
Mg14 O15 2.028 . S
Mg14 O21 1.986 . S
Mg14 O23 2.114 . S
Mg14 O24 2.251 . S
Mg14 O27 2.010 . S
O15 Mg14 2.028 . S
O15 C18 1.250 . S
O16 Mg17 2.028 . S
O16 C18 1.248 . S
Mg17 O16 2.028 . S
Mg17 O22 2.032 . S
Mg17 O24 2.079 . S
C18 O15 1.250 . S
C18 O16 1.248 . S
C19 O20 1.264 . S
C19 O27 1.249 . S
O20 C19 1.264 . S
O21 Mg14 1.986 . S
O21 C25 1.246 . S
O22 Mg17 2.032 . S
O22 C25 1.259 . S
O23 Mg14 2.114 . S
O23 C26 1.252 . S
O24 Mg14 2.251 . S
O24 Mg17 2.079 . S
O24 C26 1.273 . S
C25 O21 1.246 . S
C25 O22 1.259 . S
C26 O23 1.252 . S
C26 O24 1.273 . S
O27 Mg14 2.010 . S
O27 C19 1.249 . S
Mg28 O29 2.028 . S
Mg28 O35 1.986 . S
Mg28 O37 2.114 . S
Mg28 O38 2.251 . S
Mg28 O41 2.010 . S
O29 Mg28 2.028 . S
O29 C32 1.250 . S
O30 Mg31 2.028 . S
O30 C32 1.248 . S
Mg31 O30 2.028 . S
Mg31 O36 2.032 . S
Mg31 O38 2.079 . S
C32 O29 1.250 . S
C32 O30 1.248 . S
C33 O34 1.264 . S
C33 O41 1.249 . S
O34 C33 1.264 . S
O35 Mg28 1.986 . S
O35 C39 1.246 . S
O36 Mg31 2.032 . S
O36 C39 1.259 . S
O37 Mg28 2.114 . S
O37 C40 1.252 . S
O38 Mg28 2.251 . S
O38 Mg31 2.079 . S
O38 C40 1.273 . S
C39 O35 1.246 . S
C39 O36 1.259 . S
C40 O37 1.252 . S
C40 O38 1.273 . S
O41 Mg28 2.010 . S
O41 C33 1.249 . S
Mg42 O43 2.028 . S
Mg42 O49 1.986 . S
Mg42 O51 2.114 . S
Mg42 O52 2.251 . S
Mg42 O55 2.010 . S
O43 Mg42 2.028 . S
O43 C46 1.250 . S
O44 Mg45 2.028 . S
O44 C46 1.248 . S
Mg45 O44 2.028 . S
Mg45 O50 2.032 . S
Mg45 O52 2.079 . S
C46 O43 1.250 . S
C46 O44 1.248 . S
C47 O48 1.264 . S
C47 O55 1.249 . S
O48 C47 1.264 . S
O49 Mg42 1.986 . S
O49 C53 1.246 . S
O50 Mg45 2.032 . S
O50 C53 1.259 . S
O51 Mg42 2.114 . S
O51 C54 1.252 . S
O52 Mg42 2.251 . S
O52 Mg45 2.079 . S
O52 C54 1.273 . S
C53 O49 1.246 . S
C53 O50 1.259 . S
C54 O51 1.252 . S
C54 O52 1.273 . S
O55 Mg42 2.010 . S
O55 C47 1.249 . S
Mg56 O57 2.028 . S
Mg56 O63 1.986 . S
Mg56 O65 2.114 . S
Mg56 O66 2.251 . S
Mg56 O69 2.010 . S
O57 Mg56 2.028 . S
O57 C60 1.250 . S
O58 Mg59 2.028 . S
O58 C60 1.248 . S
Mg59 O58 2.028 . S
Mg59 O64 2.032 . S
Mg59 O66 2.079 . S
C60 O57 1.250 . S
C60 O58 1.248 . S
C61 O62 1.264 . S
C61 O69 1.249 . S
O62 C61 1.264 . S
O63 Mg56 1.986 . S
O63 C67 1.246 . S
O64 Mg59 2.032 . S
O64 C67 1.259 . S
O65 Mg56 2.114 . S
O65 C68 1.252 . S
O66 Mg56 2.251 . S
O66 Mg59 2.079 . S
O66 C68 1.273 . S
C67 O63 1.246 . S
C67 O64 1.259 . S
C68 O65 1.252 . S
C68 O66 1.273 . S
O69 Mg56 2.010 . S
O69 C61 1.249 . S
Mg70 O71 2.028 . S
Mg70 O77 1.986 . S
Mg70 O79 2.114 . S
Mg70 O80 2.251 . S
Mg70 O83 2.010 . S
O71 Mg70 2.028 . S
O71 C74 1.250 . S
O72 Mg73 2.028 . S
O72 C74 1.248 . S
Mg73 O72 2.028 . S
Mg73 O78 2.032 . S
Mg73 O80 2.079 . S
C74 O71 1.250 . S
C74 O72 1.248 . S
C75 O76 1.264 . S
C75 O83 1.249 . S
O76 C75 1.264 . S
O77 Mg70 1.986 . S
O77 C81 1.246 . S
O78 Mg73 2.032 . S
O78 C81 1.259 . S
O79 Mg70 2.114 . S
O79 C82 1.252 . S
O80 Mg70 2.251 . S
O80 Mg73 2.079 . S
O80 C82 1.273 . S
C81 O77 1.246 . S
C81 O78 1.259 . S
C82 O79 1.252 . S
C82 O80 1.273 . S
O83 Mg70 2.010 . S
O83 C75 1.249 . S
Mg84 O85 2.028 . S
Mg84 O91 1.986 . S
Mg84 O93 2.114 . S
Mg84 O94 2.251 . S
Mg84 O97 2.010 . S
O85 Mg84 2.028 . S
O85 C88 1.250 . S
O86 Mg87 2.028 . S
O86 C88 1.248 . S
Mg87 O86 2.028 . S
Mg87 O92 2.032 . S
Mg87 O94 2.079 . S
C88 O85 1.250 . S
C88 O86 1.248 . S
C89 O90 1.264 . S
C89 O97 1.249 . S
O90 C89 1.264 . S
O91 Mg84 1.986 . S
O91 C95 1.246 . S
O92 Mg87 2.032 . S
O92 C95 1.259 . S
O93 Mg84 2.114 . S
O93 C96 1.252 . S
O94 Mg84 2.251 . S
O94 Mg87 2.079 . S
O94 C96 1.273 . S
C95 O91 1.246 . S
C95 O92 1.259 . S
C96 O93 1.252 . S
C96 O94 1.273 . S
O97 Mg84 2.010 . S
O97 C89 1.249 . S
Mg98 O99 2.028 . S
Mg98 O105 1.986 . S
Mg98 O107 2.114 . S
Mg98 O108 2.251 . S
Mg98 O111 2.010 . S
O99 Mg98 2.028 . S
O99 C102 1.250 . S
O100 Mg101 2.028 . S
O100 C102 1.248 . S
Mg101 O100 2.028 . S
Mg101 O106 2.032 . S
Mg101 O108 2.079 . S
C102 O99 1.250 . S
C102 O100 1.248 . S
C103 O104 1.264 . S
C103 O111 1.249 . S
O104 C103 1.264 . S
O105 Mg98 1.986 . S
O105 C109 1.246 . S
O106 Mg101 2.032 . S
O106 C109 1.259 . S
O107 Mg98 2.114 . S
O107 C110 1.252 . S
O108 Mg98 2.251 . S
O108 Mg101 2.079 . S
O108 C110 1.273 . S
C109 O105 1.246 . S
C109 O106 1.259 . S
C110 O107 1.252 . S
C110 O108 1.273 . S
O111 Mg98 2.010 . S
O111 C103 1.249 . S
Mg112 O113 2.028 . S
Mg112 O119 1.986 . S
Mg112 O121 2.114 . S
Mg112 O122 2.251 . S
Mg112 O125 2.010 . S
O113 Mg112 2.028 . S
O113 C116 1.250 . S
O114 Mg115 2.028 . S
O114 C116 1.248 . S
Mg115 O114 2.028 . S
Mg115 O120 2.032 . S
Mg115 O122 2.079 . S
C116 O113 1.250 . S
C116 O114 1.248 . S
C117 O118 1.264 . S
C117 O125 1.249 . S
O118 C117 1.264 . S
O119 Mg112 1.986 . S
O119 C123 1.246 . S
O120 Mg115 2.032 . S
O120 C123 1.259 . S
O121 Mg112 2.114 . S
O121 C124 1.252 . S
O122 Mg112 2.251 . S
O122 Mg115 2.079 . S
O122 C124 1.273 . S
C123 O119 1.246 . S
C123 O120 1.259 . S
C124 O121 1.252 . S
C124 O122 1.273 . S
O125 Mg112 2.010 . S
O125 C117 1.249 . S
Mg126 O127 2.028 . S
Mg126 O133 1.986 . S
Mg126 O135 2.114 . S
Mg126 O136 2.251 . S
Mg126 O139 2.010 . S
O127 Mg126 2.028 . S
O127 C130 1.250 . S
O128 Mg129 2.028 . S
O128 C130 1.248 . S
Mg129 O128 2.028 . S
Mg129 O134 2.032 . S
Mg129 O136 2.079 . S
C130 O127 1.250 . S
C130 O128 1.248 . S
C131 O132 1.264 . S
C131 O139 1.249 . S
O132 C131 1.264 . S
O133 Mg126 1.986 . S
O133 C137 1.246 . S
O134 Mg129 2.032 . S
O134 C137 1.259 . S
O135 Mg126 2.114 . S
O135 C138 1.252 . S
O136 Mg126 2.251 . S
O136 Mg129 2.079 . S
O136 C138 1.273 . S
C137 O133 1.246 . S
C137 O134 1.259 . S
C138 O135 1.252 . S
C138 O136 1.273 . S
O139 Mg126 2.010 . S
O139 C131 1.249 . S
Mg140 O141 2.028 . S
Mg140 O147 1.986 . S
Mg140 O149 2.114 . S
Mg140 O150 2.251 . S
Mg140 O153 2.010 . S
O141 Mg140 2.028 . S
O141 C144 1.250 . S
O142 Mg143 2.028 . S
O142 C144 1.248 . S
Mg143 O142 2.028 . S
Mg143 O148 2.032 . S
Mg143 O150 2.079 . S
C144 O141 1.250 . S
C144 O142 1.248 . S
C145 O146 1.264 . S
C145 O153 1.249 . S
O146 C145 1.264 . S
O147 Mg140 1.986 . S
O147 C151 1.246 . S
O148 Mg143 2.032 . S
O148 C151 1.259 . S
O149 Mg140 2.114 . S
O149 C152 1.252 . S
O150 Mg140 2.251 . S
O150 Mg143 2.079 . S
O150 C152 1.273 . S
C151 O147 1.246 . S
C151 O148 1.259 . S
C152 O149 1.252 . S
C152 O150 1.273 . S
O153 Mg140 2.010 . S
O153 C145 1.249 . S
Mg154 O155 2.028 . S
Mg154 O161 1.986 . S
Mg154 O163 2.114 . S
Mg154 O164 2.251 . S
Mg154 O167 2.010 . S
O155 Mg154 2.028 . S
O155 C158 1.250 . S
O156 Mg157 2.028 . S
O156 C158 1.248 . S
Mg157 O156 2.028 . S
Mg157 O162 2.032 . S
Mg157 O164 2.079 . S
C158 O155 1.250 . S
C158 O156 1.248 . S
C159 O160 1.264 . S
C159 O167 1.249 . S
O160 C159 1.264 . S
O161 Mg154 1.986 . S
O161 C165 1.246 . S
O162 Mg157 2.032 . S
O162 C165 1.259 . S
O163 Mg154 2.114 . S
O163 C166 1.252 . S
O164 Mg154 2.251 . S
O164 Mg157 2.079 . S
O164 C166 1.273 . S
C165 O161 1.246 . S
C165 O162 1.259 . S
C166 O163 1.252 . S
C166 O164 1.273 . S
O167 Mg154 2.010 . S
O167 C159 1.249 . S
Mg168 O169 2.028 . S
Mg168 O175 1.986 . S
Mg168 O177 2.114 . S
Mg168 O178 2.251 . S
Mg168 O181 2.010 . S
O169 Mg168 2.028 . S
O169 C172 1.250 . S
O170 Mg171 2.028 . S
O170 C172 1.248 . S
Mg171 O170 2.028 . S
Mg171 O176 2.032 . S
Mg171 O178 2.079 . S
C172 O169 1.250 . S
C172 O170 1.248 . S
C173 O174 1.264 . S
C173 O181 1.249 . S
O174 C173 1.264 . S
O175 Mg168 1.986 . S
O175 C179 1.246 . S
O176 Mg171 2.032 . S
O176 C179 1.259 . S
O177 Mg168 2.114 . S
O177 C180 1.252 . S
O178 Mg168 2.251 . S
O178 Mg171 2.079 . S
O178 C180 1.273 . S
C179 O175 1.246 . S
C179 O176 1.259 . S
C180 O177 1.252 . S
C180 O178 1.273 . S
O181 Mg168 2.010 . S
O181 C173 1.249 . S
Mg182 O183 2.028 . S
Mg182 O189 1.986 . S
Mg182 O191 2.114 . S
Mg182 O192 2.251 . S
Mg182 O195 2.010 . S
O183 Mg182 2.028 . S
O183 C186 1.250 . S
O184 Mg185 2.028 . S
O184 C186 1.248 . S
Mg185 O184 2.028 . S
Mg185 O190 2.032 . S
Mg185 O192 2.079 . S
C186 O183 1.250 . S
C186 O184 1.248 . S
C187 O188 1.264 . S
C187 O195 1.249 . S
O188 C187 1.264 . S
O189 Mg182 1.986 . S
O189 C193 1.246 . S
O190 Mg185 2.032 . S
O190 C193 1.259 . S
O191 Mg182 2.114 . S
O191 C194 1.252 . S
O192 Mg182 2.251 . S
O192 Mg185 2.079 . S
O192 C194 1.273 . S
C193 O189 1.246 . S
C193 O190 1.259 . S
C194 O191 1.252 . S
C194 O192 1.273 . S
O195 Mg182 2.010 . S
O195 C187 1.249 . S
Mg196 O197 2.028 . S
Mg196 O203 1.986 . S
Mg196 O205 2.114 . S
Mg196 O206 2.251 . S
Mg196 O209 2.010 . S
O197 Mg196 2.028 . S
O197 C200 1.250 . S
O198 Mg199 2.028 . S
O198 C200 1.248 . S
Mg199 O198 2.028 . S
Mg199 O204 2.032 . S
Mg199 O206 2.079 . S
C200 O197 1.250 . S
C200 O198 1.248 . S
C201 O202 1.264 . S
C201 O209 1.249 . S
O202 C201 1.264 . S
O203 Mg196 1.986 . S
O203 C207 1.246 . S
O204 Mg199 2.032 . S
O204 C207 1.259 . S
O205 Mg196 2.114 . S
O205 C208 1.252 . S
O206 Mg196 2.251 . S
O206 Mg199 2.079 . S
O206 C208 1.273 . S
C207 O203 1.246 . S
C207 O204 1.259 . S
C208 O205 1.252 . S
C208 O206 1.273 . S
O209 Mg196 2.010 . S
O209 C201 1.249 . S
Mg210 O211 2.028 . S
Mg210 O217 1.986 . S
Mg210 O219 2.114 . S
Mg210 O220 2.251 . S
Mg210 O223 2.010 . S
O211 Mg210 2.028 . S
O211 C214 1.250 . S
O212 Mg213 2.028 . S
O212 C214 1.248 . S
Mg213 O212 2.028 . S
Mg213 O218 2.032 . S
Mg213 O220 2.079 . S
C214 O211 1.250 . S
C214 O212 1.248 . S
C215 O216 1.264 . S
C215 O223 1.249 . S
O216 C215 1.264 . S
O217 Mg210 1.986 . S
O217 C221 1.246 . S
O218 Mg213 2.032 . S
O218 C221 1.259 . S
O219 Mg210 2.114 . S
O219 C222 1.252 . S
O220 Mg210 2.251 . S
O220 Mg213 2.079 . S
O220 C222 1.273 . S
C221 O217 1.246 . S
C221 O218 1.259 . S
C222 O219 1.252 . S
C222 O220 1.273 . S
O223 Mg210 2.010 . S
O223 C215 1.249 . S
Mg224 O225 2.028 . S
Mg224 O231 1.986 . S
Mg224 O233 2.114 . S
Mg224 O234 2.251 . S
Mg224 O237 2.010 . S
O225 Mg224 2.028 . S
O225 C228 1.250 . S
O226 Mg227 2.028 . S
O226 C228 1.248 . S
Mg227 O226 2.028 . S
Mg227 O232 2.032 . S
Mg227 O234 2.079 . S
C228 O225 1.250 . S
C228 O226 1.248 . S
C229 O230 1.264 . S
C229 O237 1.249 . S
O230 C229 1.264 . S
O231 Mg224 1.986 . S
O231 C235 1.246 . S
O232 Mg227 2.032 . S
O232 C235 1.259 . S
O233 Mg224 2.114 . S
O233 C236 1.252 . S
O234 Mg224 2.251 . S
O234 Mg227 2.079 . S
O234 C236 1.273 . S
C235 O231 1.246 . S
C235 O232 1.259 . S
C236 O233 1.252 . S
C236 O234 1.273 . S
O237 Mg224 2.010 . S
O237 C229 1.249 . S
Mg238 O239 2.028 . S
Mg238 O245 1.986 . S
Mg238 O247 2.114 . S
Mg238 O248 2.251 . S
Mg238 O251 2.010 . S
O239 Mg238 2.028 . S
O239 C242 1.250 . S
O240 Mg241 2.028 . S
O240 C242 1.248 . S
Mg241 O240 2.028 . S
Mg241 O246 2.032 . S
Mg241 O248 2.079 . S
C242 O239 1.250 . S
C242 O240 1.248 . S
C243 O244 1.264 . S
C243 O251 1.249 . S
O244 C243 1.264 . S
O245 Mg238 1.986 . S
O245 C249 1.246 . S
O246 Mg241 2.032 . S
O246 C249 1.259 . S
O247 Mg238 2.114 . S
O247 C250 1.252 . S
O248 Mg238 2.251 . S
O248 Mg241 2.079 . S
O248 C250 1.273 . S
C249 O245 1.246 . S
C249 O246 1.259 . S
C250 O247 1.252 . S
C250 O248 1.273 . S
O251 Mg238 2.010 . S
O251 C243 1.249 . S
Mg252 O253 2.028 . S
Mg252 O259 1.986 . S
Mg252 O261 2.114 . S
Mg252 O262 2.251 . S
Mg252 O265 2.010 . S
O253 Mg252 2.028 . S
O253 C256 1.250 . S
O254 Mg255 2.028 . S
O254 C256 1.248 . S
Mg255 O254 2.028 . S
Mg255 O260 2.032 . S
Mg255 O262 2.079 . S
C256 O253 1.250 . S
C256 O254 1.248 . S
C257 O258 1.264 . S
C257 O265 1.249 . S
O258 C257 1.264 . S
O259 Mg252 1.986 . S
O259 C263 1.246 . S
O260 Mg255 2.032 . S
O260 C263 1.259 . S
O261 Mg252 2.114 . S
O261 C264 1.252 . S
O262 Mg252 2.251 . S
O262 Mg255 2.079 . S
O262 C264 1.273 . S
C263 O259 1.246 . S
C263 O260 1.259 . S
C264 O261 1.252 . S
C264 O262 1.273 . S
O265 Mg252 2.010 . S
O265 C257 1.249 . S
Mg266 O267 2.028 . S
Mg266 O273 1.986 . S
Mg266 O275 2.114 . S
Mg266 O276 2.251 . S
Mg266 O279 2.010 . S
O267 Mg266 2.028 . S
O267 C270 1.250 . S
O268 Mg269 2.028 . S
O268 C270 1.248 . S
Mg269 O268 2.028 . S
Mg269 O274 2.032 . S
Mg269 O276 2.079 . S
C270 O267 1.250 . S
C270 O268 1.248 . S
C271 O272 1.264 . S
C271 O279 1.249 . S
O272 C271 1.264 . S
O273 Mg266 1.986 . S
O273 C277 1.246 . S
O274 Mg269 2.032 . S
O274 C277 1.259 . S
O275 Mg266 2.114 . S
O275 C278 1.252 . S
O276 Mg266 2.251 . S
O276 Mg269 2.079 . S
O276 C278 1.273 . S
C277 O273 1.246 . S
C277 O274 1.259 . S
C278 O275 1.252 . S
C278 O276 1.273 . S
O279 Mg266 2.010 . S
O279 C271 1.249 . S
Mg280 O281 2.028 . S
Mg280 O287 1.986 . S
Mg280 O289 2.114 . S
Mg280 O290 2.251 . S
Mg280 O293 2.010 . S
O281 Mg280 2.028 . S
O281 C284 1.250 . S
O282 Mg283 2.028 . S
O282 C284 1.248 . S
Mg283 O282 2.028 . S
Mg283 O288 2.032 . S
Mg283 O290 2.079 . S
C284 O281 1.250 . S
C284 O282 1.248 . S
C285 O286 1.264 . S
C285 O293 1.249 . S
O286 C285 1.264 . S
O287 Mg280 1.986 . S
O287 C291 1.246 . S
O288 Mg283 2.032 . S
O288 C291 1.259 . S
O289 Mg280 2.114 . S
O289 C292 1.252 . S
O290 Mg280 2.251 . S
O290 Mg283 2.079 . S
O290 C292 1.273 . S
C291 O287 1.246 . S
C291 O288 1.259 . S
C292 O289 1.252 . S
C292 O290 1.273 . S
O293 Mg280 2.010 . S
O293 C285 1.249 . S
Mg294 O295 2.028 . S
Mg294 O301 1.986 . S
Mg294 O303 2.114 . S
Mg294 O304 2.251 . S
Mg294 O307 2.010 . S
O295 Mg294 2.028 . S
O295 C298 1.250 . S
O296 Mg297 2.028 . S
O296 C298 1.248 . S
Mg297 O296 2.028 . S
Mg297 O302 2.032 . S
Mg297 O304 2.079 . S
C298 O295 1.250 . S
C298 O296 1.248 . S
C299 O300 1.264 . S
C299 O307 1.249 . S
O300 C299 1.264 . S
O301 Mg294 1.986 . S
O301 C305 1.246 . S
O302 Mg297 2.032 . S
O302 C305 1.259 . S
O303 Mg294 2.114 . S
O303 C306 1.252 . S
O304 Mg294 2.251 . S
O304 Mg297 2.079 . S
O304 C306 1.273 . S
C305 O301 1.246 . S
C305 O302 1.259 . S
C306 O303 1.252 . S
C306 O304 1.273 . S
O307 Mg294 2.010 . S
O307 C299 1.249 . S
Mg308 O309 2.028 . S
Mg308 O315 1.986 . S
Mg308 O317 2.114 . S
Mg308 O318 2.251 . S
Mg308 O321 2.010 . S
O309 Mg308 2.028 . S
O309 C312 1.250 . S
O310 Mg311 2.028 . S
O310 C312 1.248 . S
Mg311 O310 2.028 . S
Mg311 O316 2.032 . S
Mg311 O318 2.079 . S
C312 O309 1.250 . S
C312 O310 1.248 . S
C313 O314 1.264 . S
C313 O321 1.249 . S
O314 C313 1.264 . S
O315 Mg308 1.986 . S
O315 C319 1.246 . S
O316 Mg311 2.032 . S
O316 C319 1.259 . S
O317 Mg308 2.114 . S
O317 C320 1.252 . S
O318 Mg308 2.251 . S
O318 Mg311 2.079 . S
O318 C320 1.273 . S
C319 O315 1.246 . S
C319 O316 1.259 . S
C320 O317 1.252 . S
C320 O318 1.273 . S
O321 Mg308 2.010 . S
O321 C313 1.249 . S
Mg322 O323 2.028 . S
Mg322 O329 1.986 . S
Mg322 O331 2.114 . S
Mg322 O332 2.251 . S
Mg322 O335 2.010 . S
O323 Mg322 2.028 . S
O323 C326 1.250 . S
O324 Mg325 2.028 . S
O324 C326 1.248 . S
Mg325 O324 2.028 . S
Mg325 O330 2.032 . S
Mg325 O332 2.079 . S
C326 O323 1.250 . S
C326 O324 1.248 . S
C327 O328 1.264 . S
C327 O335 1.249 . S
O328 C327 1.264 . S
O329 Mg322 1.986 . S
O329 C333 1.246 . S
O330 Mg325 2.032 . S
O330 C333 1.259 . S
O331 Mg322 2.114 . S
O331 C334 1.252 . S
O332 Mg322 2.251 . S
O332 Mg325 2.079 . S
O332 C334 1.273 . S
C333 O329 1.246 . S
C333 O330 1.259 . S
C334 O331 1.252 . S
C334 O332 1.273 . S
O335 Mg322 2.010 . S
O335 C327 1.249 . S
Mg336 O337 2.028 . S
Mg336 O343 1.986 . S
Mg336 O345 2.114 . S
Mg336 O346 2.251 . S
Mg336 O349 2.010 . S
O337 Mg336 2.028 . S
O337 C340 1.250 . S
O338 Mg339 2.028 . S
O338 C340 1.248 . S
Mg339 O338 2.028 . S
Mg339 O344 2.032 . S
Mg339 O346 2.079 . S
C340 O337 1.250 . S
C340 O338 1.248 . S
C341 O342 1.264 . S
C341 O349 1.249 . S
O342 C341 1.264 . S
O343 Mg336 1.986 . S
O343 C347 1.246 . S
O344 Mg339 2.032 . S
O344 C347 1.259 . S
O345 Mg336 2.114 . S
O345 C348 1.252 . S
O346 Mg336 2.251 . S
O346 Mg339 2.079 . S
O346 C348 1.273 . S
C347 O343 1.246 . S
C347 O344 1.259 . S
C348 O345 1.252 . S
C348 O346 1.273 . S
O349 Mg336 2.010 . S
O349 C341 1.249 . S
Mg350 O351 2.028 . S
Mg350 O357 1.986 . S
Mg350 O359 2.114 . S
Mg350 O360 2.251 . S
Mg350 O363 2.010 . S
O351 Mg350 2.028 . S
O351 C354 1.250 . S
O352 Mg353 2.028 . S
O352 C354 1.248 . S
Mg353 O352 2.028 . S
Mg353 O358 2.032 . S
Mg353 O360 2.079 . S
C354 O351 1.250 . S
C354 O352 1.248 . S
C355 O356 1.264 . S
C355 O363 1.249 . S
O356 C355 1.264 . S
O357 Mg350 1.986 . S
O357 C361 1.246 . S
O358 Mg353 2.032 . S
O358 C361 1.259 . S
O359 Mg350 2.114 . S
O359 C362 1.252 . S
O360 Mg350 2.251 . S
O360 Mg353 2.079 . S
O360 C362 1.273 . S
C361 O357 1.246 . S
C361 O358 1.259 . S
C362 O359 1.252 . S
C362 O360 1.273 . S
O363 Mg350 2.010 . S
O363 C355 1.249 . S
Mg364 O365 2.028 . S
Mg364 O371 1.986 . S
Mg364 O373 2.114 . S
Mg364 O374 2.251 . S
Mg364 O377 2.010 . S
O365 Mg364 2.028 . S
O365 C368 1.250 . S
O366 Mg367 2.028 . S
O366 C368 1.248 . S
Mg367 O366 2.028 . S
Mg367 O372 2.032 . S
Mg367 O374 2.079 . S
C368 O365 1.250 . S
C368 O366 1.248 . S
C369 O370 1.264 . S
C369 O377 1.249 . S
O370 C369 1.264 . S
O371 Mg364 1.986 . S
O371 C375 1.246 . S
O372 Mg367 2.032 . S
O372 C375 1.259 . S
O373 Mg364 2.114 . S
O373 C376 1.252 . S
O374 Mg364 2.251 . S
O374 Mg367 2.079 . S
O374 C376 1.273 . S
C375 O371 1.246 . S
C375 O372 1.259 . S
C376 O373 1.252 . S
C376 O374 1.273 . S
O377 Mg364 2.010 . S
O377 C369 1.249 . S
Mg378 O379 2.028 . S
Mg378 O385 1.986 . S
Mg378 O387 2.114 . S
Mg378 O388 2.251 . S
Mg378 O391 2.010 . S
O379 Mg378 2.028 . S
O379 C382 1.250 . S
O380 Mg381 2.028 . S
O380 C382 1.248 . S
Mg381 O380 2.028 . S
Mg381 O386 2.032 . S
Mg381 O388 2.079 . S
C382 O379 1.250 . S
C382 O380 1.248 . S
C383 O384 1.264 . S
C383 O391 1.249 . S
O384 C383 1.264 . S
O385 Mg378 1.986 . S
O385 C389 1.246 . S
O386 Mg381 2.032 . S
O386 C389 1.259 . S
O387 Mg378 2.114 . S
O387 C390 1.252 . S
O388 Mg378 2.251 . S
O388 Mg381 2.079 . S
O388 C390 1.273 . S
C389 O385 1.246 . S
C389 O386 1.259 . S
C390 O387 1.252 . S
C390 O388 1.273 . S
O391 Mg378 2.010 . S
O391 C383 1.249 . S
Mg392 O393 2.028 . S
Mg392 O399 1.986 . S
Mg392 O401 2.114 . S
Mg392 O402 2.251 . S
Mg392 O405 2.010 . S
O393 Mg392 2.028 . S
O393 C396 1.250 . S
O394 Mg395 2.028 . S
O394 C396 1.248 . S
Mg395 O394 2.028 . S
Mg395 O400 2.032 . S
Mg395 O402 2.079 . S
C396 O393 1.250 . S
C396 O394 1.248 . S
C397 O398 1.264 . S
C397 O405 1.249 . S
O398 C397 1.264 . S
O399 Mg392 1.986 . S
O399 C403 1.246 . S
O400 Mg395 2.032 . S
O400 C403 1.259 . S
O401 Mg392 2.114 . S
O401 C404 1.252 . S
O402 Mg392 2.251 . S
O402 Mg395 2.079 . S
O402 C404 1.273 . S
C403 O399 1.246 . S
C403 O400 1.259 . S
C404 O401 1.252 . S
C404 O402 1.273 . S
O405 Mg392 2.010 . S
O405 C397 1.249 . S
Mg406 O407 2.028 . S
Mg406 O413 1.986 . S
Mg406 O415 2.114 . S
Mg406 O416 2.251 . S
Mg406 O419 2.010 . S
O407 Mg406 2.028 . S
O407 C410 1.250 . S
O408 Mg409 2.028 . S
O408 C410 1.248 . S
Mg409 O408 2.028 . S
Mg409 O414 2.032 . S
Mg409 O416 2.079 . S
C410 O407 1.250 . S
C410 O408 1.248 . S
C411 O412 1.264 . S
C411 O419 1.249 . S
O412 C411 1.264 . S
O413 Mg406 1.986 . S
O413 C417 1.246 . S
O414 Mg409 2.032 . S
O414 C417 1.259 . S
O415 Mg406 2.114 . S
O415 C418 1.252 . S
O416 Mg406 2.251 . S
O416 Mg409 2.079 . S
O416 C418 1.273 . S
C417 O413 1.246 . S
C417 O414 1.259 . S
C418 O415 1.252 . S
C418 O416 1.273 . S
O419 Mg406 2.010 . S
O419 C411 1.249 . S
Mg420 O421 2.028 . S
Mg420 O427 1.986 . S
Mg420 O429 2.114 . S
Mg420 O430 2.251 . S
Mg420 O433 2.010 . S
O421 Mg420 2.028 . S
O421 C424 1.250 . S
O422 Mg423 2.028 . S
O422 C424 1.248 . S
Mg423 O422 2.028 . S
Mg423 O428 2.032 . S
Mg423 O430 2.079 . S
C424 O421 1.250 . S
C424 O422 1.248 . S
C425 O426 1.264 . S
C425 O433 1.249 . S
O426 C425 1.264 . S
O427 Mg420 1.986 . S
O427 C431 1.246 . S
O428 Mg423 2.032 . S
O428 C431 1.259 . S
O429 Mg420 2.114 . S
O429 C432 1.252 . S
O430 Mg420 2.251 . S
O430 Mg423 2.079 . S
O430 C432 1.273 . S
C431 O427 1.246 . S
C431 O428 1.259 . S
C432 O429 1.252 . S
C432 O430 1.273 . S
O433 Mg420 2.010 . S
O433 C425 1.249 . S
Mg434 O435 2.028 . S
Mg434 O441 1.986 . S
Mg434 O443 2.114 . S
Mg434 O444 2.251 . S
Mg434 O447 2.010 . S
O435 Mg434 2.028 . S
O435 C438 1.250 . S
O436 Mg437 2.028 . S
O436 C438 1.248 . S
Mg437 O436 2.028 . S
Mg437 O442 2.032 . S
Mg437 O444 2.079 . S
C438 O435 1.250 . S
C438 O436 1.248 . S
C439 O440 1.264 . S
C439 O447 1.249 . S
O440 C439 1.264 . S
O441 Mg434 1.986 . S
O441 C445 1.246 . S
O442 Mg437 2.032 . S
O442 C445 1.259 . S
O443 Mg434 2.114 . S
O443 C446 1.252 . S
O444 Mg434 2.251 . S
O444 Mg437 2.079 . S
O444 C446 1.273 . S
C445 O441 1.246 . S
C445 O442 1.259 . S
C446 O443 1.252 . S
C446 O444 1.273 . S
O447 Mg434 2.010 . S
O447 C439 1.249 . S
H448 C454 0.930 . S
H449 C458 0.930 . S
H450 C463 0.929 . S
H451 C461 0.929 . S
H452 C456 0.929 1_445 S
H453 C462 0.929 1_665 S
C454 H448 0.930 . S
C454 C455 1.367 . S
C454 C462 1.378 . S
C455 C454 1.367 . S
C455 C463 1.433 . S
C456 H452 0.929 1_665 S
C456 C458 1.378 . S
C456 C460 1.350 . S
C457 C460 1.463 1_444 S
C457 C462 1.350 . S
C457 N465 1.427 1_554 S
C458 H449 0.930 . S
C458 C456 1.378 . S
C458 C459 1.367 . S
C459 C458 1.367 . S
C459 C461 1.433 . S
C460 C456 1.350 . S
C460 C457 1.463 1_666 S
C460 N464 1.427 1_556 S
C461 H451 0.929 . S
C461 C459 1.433 . S
C461 N464 1.384 1_556 S
C462 H453 0.929 1_445 S
C462 C454 1.378 . S
C462 C457 1.350 . S
C463 H450 0.929 . S
C463 C455 1.433 . S
C463 N465 1.384 1_554 S
N464 C460 1.427 1_554 S
N464 C461 1.384 1_554 S
N465 C457 1.427 1_556 S
N465 C463 1.384 1_556 S
H466 C472 0.930 . S
H467 C476 0.930 . S
H468 C481 0.929 . S
H469 C479 0.929 . S
H470 C474 0.929 . S
H471 C480 0.929 . S
C472 H466 0.930 . S
C472 C473 1.367 . S
C472 C480 1.378 . S
C473 C472 1.367 . S
C473 C481 1.433 . S
C474 H470 0.929 . S
C474 C476 1.378 . S
C474 C478 1.350 . S
C475 C478 1.463 . S
C475 C480 1.350 . S
C475 N483 1.427 . S
C476 H467 0.930 . S
C476 C474 1.378 . S
C476 C477 1.367 . S
C477 C476 1.367 . S
C477 C479 1.433 . S
C478 C474 1.350 . S
C478 C475 1.463 . S
C478 N482 1.427 . S
C479 H469 0.929 . S
C479 C477 1.433 . S
C479 N482 1.384 . S
C480 H471 0.929 . S
C480 C472 1.378 . S
C480 C475 1.350 . S
C481 H468 0.929 . S
C481 C473 1.433 . S
C481 N483 1.384 . S
N482 C478 1.427 . S
N482 C479 1.384 . S
N483 C475 1.427 . S
N483 C481 1.384 . S
H484 C490 0.930 . S
H485 C494 0.930 . S
H486 C499 0.929 . S
H487 C497 0.929 . S
H488 C492 0.929 . S
H489 C498 0.928 1_545 S
C490 H484 0.930 . S
C490 C491 1.367 . S
C490 C498 1.378 . S
C491 C490 1.367 . S
C491 C499 1.433 . S
C492 H488 0.929 . S
C492 C494 1.378 . S
C492 C496 1.350 . S
C493 C496 1.463 1_565 S
C493 C498 1.350 . S
C493 N501 1.427 . S
C494 H485 0.930 . S
C494 C492 1.378 . S
C494 C495 1.367 . S
C495 C494 1.367 . S
C495 C497 1.433 . S
C496 C492 1.350 . S
C496 C493 1.463 1_545 S
C496 N500 1.427 . S
C497 H487 0.929 . S
C497 C495 1.433 . S
C497 N500 1.384 . S
C498 H489 0.928 1_565 S
C498 C490 1.378 . S
C498 C493 1.350 . S
C499 H486 0.929 . S
C499 C491 1.433 . S
C499 N501 1.384 . S
N500 C496 1.427 . S
N500 C497 1.384 . S
N501 C493 1.427 . S
N501 C499 1.384 . S
H502 C508 0.930 . S
H503 C512 0.930 . S
H504 C517 0.929 . S
H505 C515 0.929 . S
H506 C510 0.929 . S
H507 C516 0.929 . S
C508 H502 0.930 . S
C508 C509 1.367 . S
C508 C516 1.378 . S
C509 C508 1.367 . S
C509 C517 1.433 . S
C510 H506 0.929 . S
C510 C512 1.378 . S
C510 C514 1.350 . S
C511 C514 1.463 . S
C511 C516 1.350 . S
C511 N519 1.427 . S
C512 H503 0.930 . S
C512 C510 1.378 . S
C512 C513 1.367 . S
C513 C512 1.367 . S
C513 C515 1.433 . S
C514 C510 1.350 . S
C514 C511 1.463 . S
C514 N518 1.427 . S
C515 H505 0.929 . S
C515 C513 1.433 . S
C515 N518 1.384 . S
C516 H507 0.929 . S
C516 C508 1.378 . S
C516 C511 1.350 . S
C517 H504 0.929 . S
C517 C509 1.433 . S
C517 N519 1.384 . S
N518 C514 1.427 . S
N518 C515 1.384 . S
N519 C511 1.427 . S
N519 C517 1.384 . S
H520 C526 0.930 . S
H521 C530 0.930 . S
H522 C535 0.929 . S
H523 C533 0.929 . S
H524 C528 0.929 . S
H525 C534 0.929 1_655 S
C526 H520 0.930 . S
C526 C527 1.367 . S
C526 C534 1.378 . S
C527 C526 1.367 . S
C527 C535 1.433 . S
C528 H524 0.929 . S
C528 C530 1.378 1_455 S
C528 C532 1.350 1_455 S
C529 C532 1.463 1_465 S
C529 C534 1.350 . S
C529 N537 1.427 1_565 S
C530 H521 0.930 . S
C530 C528 1.378 1_655 S
C530 C531 1.367 . S
C531 C530 1.367 . S
C531 C533 1.433 . S
C532 C528 1.350 1_655 S
C532 C529 1.463 1_645 S
C532 N536 1.427 1_545 S
C533 H523 0.929 . S
C533 C531 1.433 . S
C533 N536 1.384 1_545 S
C534 H525 0.929 1_455 S
C534 C526 1.378 . S
C534 C529 1.350 . S
C535 H522 0.929 . S
C535 C527 1.433 . S
C535 N537 1.384 1_565 S
N536 C532 1.427 1_565 S
N536 C533 1.384 1_565 S
N537 C529 1.427 1_545 S
N537 C535 1.384 1_545 S
H538 C544 0.930 . S
H539 C548 0.930 . S
H540 C553 0.929 . S
H541 C551 0.929 . S
H542 C546 0.929 . S
H543 C552 0.929 . S
C544 H538 0.930 . S
C544 C545 1.367 . S
C544 C552 1.378 . S
C545 C544 1.367 . S
C545 C553 1.433 . S
C546 H542 0.929 . S
C546 C548 1.378 . S
C546 C550 1.350 . S
C547 C550 1.463 . S
C547 C552 1.350 . S
C547 N555 1.427 . S
C548 H539 0.930 . S
C548 C546 1.378 . S
C548 C549 1.367 . S
C549 C548 1.367 . S
C549 C551 1.433 . S
C550 C546 1.350 . S
C550 C547 1.463 . S
C550 N554 1.427 . S
C551 H541 0.929 . S
C551 C549 1.433 . S
C551 N554 1.384 . S
C552 H543 0.929 . S
C552 C544 1.378 . S
C552 C547 1.350 . S
C553 H540 0.929 . S
C553 C545 1.433 . S
C553 N555 1.384 . S
N554 C550 1.427 . S
N554 C551 1.384 . S
N555 C547 1.427 . S
N555 C553 1.384 . S
H556 C562 0.930 . S
H557 C566 0.930 . S
H558 C571 0.929 . S
H559 C569 0.929 . S
H560 C564 0.929 . S
H561 C570 0.929 . S
C562 H556 0.930 . S
C562 C563 1.367 . S
C562 C570 1.378 1_556 S
C563 C562 1.367 . S
C563 C571 1.433 . S
C564 H560 0.929 . S
C564 C566 1.378 1_556 S
C564 C568 1.350 1_556 S
C565 C568 1.463 1_546 S
C565 C570 1.350 1_556 S
C565 N573 1.427 . S
C566 H557 0.930 . S
C566 C564 1.378 1_554 S
C566 C567 1.367 . S
C567 C566 1.367 . S
C567 C569 1.433 . S
C568 C564 1.350 1_554 S
C568 C565 1.463 1_564 S
C568 N572 1.427 . S
C569 H559 0.929 . S
C569 C567 1.433 . S
C569 N572 1.384 . S
C570 H561 0.929 . S
C570 C562 1.378 1_554 S
C570 C565 1.350 1_554 S
C571 H558 0.929 . S
C571 C563 1.433 . S
C571 N573 1.384 . S
N572 C568 1.427 . S
N572 C569 1.384 . S
N573 C565 1.427 . S
N573 C571 1.384 . S
H574 C580 0.930 . S
H575 C584 0.930 . S
H576 C589 0.929 . S
H577 C587 0.929 . S
H578 C582 0.929 . S
H579 C588 0.929 . S
C580 H574 0.930 . S
C580 C581 1.367 . S
C580 C588 1.378 . S
C581 C580 1.367 . S
C581 C589 1.433 . S
C582 H578 0.929 . S
C582 C584 1.378 . S
C582 C586 1.350 . S
C583 C586 1.463 . S
C583 C588 1.350 . S
C583 N591 1.427 . S
C584 H575 0.930 . S
C584 C582 1.378 . S
C584 C585 1.367 . S
C585 C584 1.367 . S
C585 C587 1.433 . S
C586 C582 1.350 . S
C586 C583 1.463 . S
C586 N590 1.427 . S
C587 H577 0.929 . S
C587 C585 1.433 . S
C587 N590 1.384 . S
C588 H579 0.929 . S
C588 C580 1.378 . S
C588 C583 1.350 . S
C589 H576 0.929 . S
C589 C581 1.433 . S
C589 N591 1.384 . S
N590 C586 1.427 . S
N590 C587 1.384 . S
N591 C583 1.427 . S
N591 C589 1.384 . S
H592 C598 0.930 . S
H593 C602 0.930 . S
H594 C607 0.929 . S
H595 C605 0.929 . S
H596 C600 0.929 . S
H597 C606 0.929 . S
C598 H592 0.930 . S
C598 C599 1.367 . S
C598 C606 1.378 . S
C599 C598 1.367 . S
C599 C607 1.433 . S
C600 H596 0.929 . S
C600 C602 1.378 . S
C600 C604 1.350 . S
C601 C604 1.463 1_554 S
C601 C606 1.350 . S
C601 N609 1.427 . S
C602 H593 0.930 . S
C602 C600 1.378 . S
C602 C603 1.367 . S
C603 C602 1.367 . S
C603 C605 1.433 . S
C604 C600 1.350 . S
C604 C601 1.463 1_556 S
C604 N608 1.427 . S
C605 H595 0.929 . S
C605 C603 1.433 . S
C605 N608 1.384 . S
C606 H597 0.929 . S
C606 C598 1.378 . S
C606 C601 1.350 . S
C607 H594 0.929 . S
C607 C599 1.433 . S
C607 N609 1.384 . S
N608 C604 1.427 . S
N608 C605 1.384 . S
N609 C601 1.427 . S
N609 C607 1.384 . S
H610 C616 0.930 . S
H611 C620 0.930 . S
H612 C625 0.929 . S
H613 C623 0.929 . S
H614 C618 0.929 . S
H615 C624 0.929 . S
C616 H610 0.930 . S
C616 C617 1.367 . S
C616 C624 1.378 . S
C617 C616 1.367 . S
C617 C625 1.433 . S
C618 H614 0.929 . S
C618 C620 1.378 . S
C618 C622 1.350 . S
C619 C622 1.463 . S
C619 C624 1.350 . S
C619 N627 1.427 . S
C620 H611 0.930 . S
C620 C618 1.378 . S
C620 C621 1.367 . S
C621 C620 1.367 . S
C621 C623 1.433 . S
C622 C618 1.350 . S
C622 C619 1.463 . S
C622 N626 1.427 . S
C623 H613 0.929 . S
C623 C621 1.433 . S
C623 N626 1.384 . S
C624 H615 0.929 . S
C624 C616 1.378 . S
C624 C619 1.350 . S
C625 H612 0.929 . S
C625 C617 1.433 . S
C625 N627 1.384 . S
N626 C622 1.427 . S
N626 C623 1.384 . S
N627 C619 1.427 . S
N627 C625 1.384 . S
H628 C634 0.930 . S
H629 C638 0.930 . S
H630 C643 0.929 . S
H631 C641 0.929 . S
H632 C636 0.929 . S
H633 C642 0.929 . S
C634 H628 0.930 . S
C634 C635 1.367 . S
C634 C642 1.378 . S
C635 C634 1.367 . S
C635 C643 1.433 . S
C636 H632 0.929 . S
C636 C638 1.378 . S
C636 C640 1.350 . S
C637 C640 1.463 1_455 S
C637 C642 1.350 . S
C637 N645 1.427 . S
C638 H629 0.930 . S
C638 C636 1.378 . S
C638 C639 1.367 . S
C639 C638 1.367 . S
C639 C641 1.433 . S
C640 C636 1.350 . S
C640 C637 1.463 1_655 S
C640 N644 1.427 . S
C641 H631 0.929 . S
C641 C639 1.433 . S
C641 N644 1.384 . S
C642 H633 0.929 . S
C642 C634 1.378 . S
C642 C637 1.350 . S
C643 H630 0.929 . S
C643 C635 1.433 . S
C643 N645 1.384 . S
N644 C640 1.427 . S
N644 C641 1.384 . S
N645 C637 1.427 . S
N645 C643 1.384 . S
H646 C652 0.930 . S
H647 C656 0.930 . S
H648 C661 0.929 . S
H649 C659 0.929 . S
H650 C654 0.929 . S
H651 C660 0.929 . S
C652 H646 0.930 . S
C652 C653 1.367 . S
C652 C660 1.378 . S
C653 C652 1.367 . S
C653 C661 1.433 . S
C654 H650 0.929 . S
C654 C656 1.378 . S
C654 C658 1.350 . S
C655 C658 1.463 . S
C655 C660 1.350 . S
C655 N663 1.427 . S
C656 H647 0.930 . S
C656 C654 1.378 . S
C656 C657 1.367 . S
C657 C656 1.367 . S
C657 C659 1.433 . S
C658 C654 1.350 . S
C658 C655 1.463 . S
C658 N662 1.427 . S
C659 H649 0.929 . S
C659 C657 1.433 . S
C659 N662 1.384 . S
C660 H651 0.929 . S
C660 C652 1.378 . S
C660 C655 1.350 . S
C661 H648 0.929 . S
C661 C653 1.433 . S
C661 N663 1.384 . S
N662 C658 1.427 . S
N662 C659 1.384 . S
N663 C655 1.427 . S
N663 C661 1.384 . S
H664 C670 0.930 . S
H665 C674 0.930 . S
H666 C679 0.929 . S
H667 C677 0.929 . S
H668 C672 0.929 . S
H669 C678 0.929 . S
C670 H664 0.930 . S
C670 C671 1.367 . S
C670 C678 1.378 . S
C671 C670 1.367 . S
C671 C679 1.433 . S
C672 H668 0.929 . S
C672 C674 1.378 . S
C672 C676 1.350 . S
C673 C676 1.463 . S
C673 C678 1.350 . S
C673 N681 1.427 . S
C674 H665 0.930 . S
C674 C672 1.378 . S
C674 C675 1.367 . S
C675 C674 1.367 . S
C675 C677 1.433 . S
C676 C672 1.350 . S
C676 C673 1.463 . S
C676 N680 1.427 . S
C677 H667 0.929 . S
C677 C675 1.433 . S
C677 N680 1.384 . S
C678 H669 0.929 . S
C678 C670 1.378 . S
C678 C673 1.350 . S
C679 H666 0.929 . S
C679 C671 1.433 . S
C679 N681 1.384 . S
N680 C676 1.427 . S
N680 C677 1.384 . S
N681 C673 1.427 . S
N681 C679 1.384 . S
H682 C688 0.930 . S
H683 C692 0.930 . S
H684 C697 0.929 . S
H685 C695 0.929 . S
H686 C690 0.929 . S
H687 C696 0.929 . S
C688 H682 0.930 . S
C688 C689 1.367 . S
C688 C696 1.378 . S
C689 C688 1.367 . S
C689 C697 1.433 . S
C690 H686 0.929 . S
C690 C692 1.378 . S
C690 C694 1.350 . S
C691 C694 1.463 . S
C691 C696 1.350 . S
C691 N699 1.427 . S
C692 H683 0.930 . S
C692 C690 1.378 . S
C692 C693 1.367 . S
C693 C692 1.367 . S
C693 C695 1.433 . S
C694 C690 1.350 . S
C694 C691 1.463 . S
C694 N698 1.427 . S
C695 H685 0.929 . S
C695 C693 1.433 . S
C695 N698 1.384 . S
C696 H687 0.929 . S
C696 C688 1.378 . S
C696 C691 1.350 . S
C697 H684 0.929 . S
C697 C689 1.433 . S
C697 N699 1.384 . S
N698 C694 1.427 . S
N698 C695 1.384 . S
N699 C691 1.427 . S
N699 C697 1.384 . S
H700 C706 0.930 . S
H701 C710 0.930 . S
H702 C715 0.929 . S
H703 C713 0.929 . S
H704 C708 0.929 . S
H705 C714 0.929 . S
C706 H700 0.930 . S
C706 C707 1.367 . S
C706 C714 1.378 . S
C707 C706 1.367 . S
C707 C715 1.433 . S
C708 H704 0.929 . S
C708 C710 1.378 . S
C708 C712 1.350 . S
C709 C712 1.463 . S
C709 C714 1.350 . S
C709 N717 1.427 . S
C710 H701 0.930 . S
C710 C708 1.378 . S
C710 C711 1.367 . S
C711 C710 1.367 . S
C711 C713 1.433 . S
C712 C708 1.350 . S
C712 C709 1.463 . S
C712 N716 1.427 . S
C713 H703 0.929 . S
C713 C711 1.433 . S
C713 N716 1.384 . S
C714 H705 0.929 . S
C714 C706 1.378 . S
C714 C709 1.350 . S
C715 H702 0.929 . S
C715 C707 1.433 . S
C715 N717 1.384 . S
N716 C712 1.427 . S
N716 C713 1.384 . S
N717 C709 1.427 . S
N717 C715 1.384 . S
H718 C724 0.930 . S
H719 C728 0.930 . S
H720 C733 0.929 . S
H721 C731 0.929 . S
H722 C726 0.932 . S
H723 C732 0.929 . S
C724 H718 0.930 . S
C724 C725 1.367 . S
C724 C732 1.378 1_455 S
C725 C724 1.367 . S
C725 C733 1.433 . S
C726 H722 0.932 . S
C726 C728 1.375 1_455 S
C726 C730 1.349 1_455 S
C727 C730 1.463 1_456 S
C727 C732 1.350 1_455 S
C727 N735 1.427 . S
C728 H719 0.930 . S
C728 C726 1.375 1_655 S
C728 C729 1.367 . S
C729 C728 1.367 . S
C729 C731 1.433 . S
C730 C726 1.349 1_655 S
C730 C727 1.463 1_654 S
C730 N734 1.427 . S
C731 H721 0.929 . S
C731 C729 1.433 . S
C731 N734 1.384 . S
C732 H723 0.929 . S
C732 C724 1.378 1_655 S
C732 C727 1.350 1_655 S
C733 H720 0.929 . S
C733 C725 1.433 . S
C733 N735 1.384 . S
N734 C730 1.427 . S
N734 C731 1.384 . S
N735 C727 1.427 . S
N735 C733 1.384 . S
H736 C742 0.930 . S
H737 C746 0.930 . S
H738 C751 0.929 . S
H739 C749 0.929 . S
H740 C744 0.929 . S
H741 C750 0.940 . S
C742 H736 0.930 . S
C742 C743 1.367 . S
C742 C750 1.351 1_545 S
C743 C742 1.367 . S
C743 C751 1.433 . S
C744 H740 0.929 . S
C744 C746 1.378 . S
C744 C748 1.350 . S
C745 C748 1.463 . S
C745 C750 1.367 . S
C745 N753 1.427 . S
C746 H737 0.930 . S
C746 C744 1.378 . S
C746 C747 1.367 . S
C747 C746 1.367 . S
C747 C749 1.433 . S
C748 C744 1.350 . S
C748 C745 1.463 . S
C748 N752 1.427 . S
C749 H739 0.929 . S
C749 C747 1.433 . S
C749 N752 1.384 . S
C750 H741 0.940 . S
C750 C742 1.351 1_565 S
C750 C745 1.367 . S
C751 H738 0.929 . S
C751 C743 1.433 . S
C751 N753 1.384 1_545 S
N752 C748 1.427 . S
N752 C749 1.384 . S
N753 C745 1.427 . S
N753 C751 1.384 1_565 S
H754 C760 0.930 . S
H755 C764 0.930 . S
H756 C769 0.929 . S
H757 C767 0.929 . S
H758 C762 0.929 . S
H759 C768 0.929 . S
C760 H754 0.930 . S
C760 C761 1.367 . S
C760 C768 1.378 . S
C761 C760 1.367 . S
C761 C769 1.433 . S
C762 H758 0.929 . S
C762 C764 1.378 . S
C762 C766 1.350 . S
C763 C766 1.463 . S
C763 C768 1.350 . S
C763 N771 1.427 . S
C764 H755 0.930 . S
C764 C762 1.378 . S
C764 C765 1.367 . S
C765 C764 1.367 . S
C765 C767 1.433 . S
C766 C762 1.350 . S
C766 C763 1.463 . S
C766 N770 1.427 . S
C767 H757 0.929 . S
C767 C765 1.433 . S
C767 N770 1.384 . S
C768 H759 0.929 . S
C768 C760 1.378 . S
C768 C763 1.350 . S
C769 H756 0.929 . S
C769 C761 1.433 . S
C769 N771 1.384 . S
N770 C766 1.427 . S
N770 C767 1.384 . S
N771 C763 1.427 . S
N771 C769 1.384 . S
H772 C778 0.930 . S
H773 C782 0.930 . S
H774 C787 0.929 . S
H775 C785 0.936 . S
H776 C780 0.929 . S
H777 C786 0.929 . S
C778 H772 0.930 . S
C778 C779 1.367 . S
C778 C786 1.378 . S
C779 C778 1.367 . S
C779 C787 1.433 . S
C780 H776 0.929 . S
C780 C782 1.378 . S
C780 C784 1.350 1_565 S
C781 C784 1.463 . S
C781 C786 1.350 . S
C781 N789 1.427 . S
C782 H773 0.930 . S
C782 C780 1.378 . S
C782 C783 1.367 . S
C783 C782 1.367 . S
C783 C785 1.406 1_565 S
C784 C780 1.350 1_545 S
C784 C781 1.463 . S
C784 N788 1.427 . S
C785 H775 0.936 . S
C785 C783 1.406 1_545 S
C785 N788 1.405 . S
C786 H777 0.929 . S
C786 C778 1.378 . S
C786 C781 1.350 . S
C787 H774 0.929 . S
C787 C779 1.433 . S
C787 N789 1.384 . S
N788 C784 1.427 . S
N788 C785 1.405 . S
N789 C781 1.427 . S
N789 C787 1.384 . S
H790 C796 0.930 . S
H791 C800 0.930 . S
H792 C805 0.929 . S
H793 C803 0.929 . S
H794 C798 0.929 . S
H795 C804 0.929 . S
C796 H790 0.930 . S
C796 C797 1.367 . S
C796 C804 1.378 . S
C797 C796 1.367 . S
C797 C805 1.433 . S
C798 H794 0.929 . S
C798 C800 1.378 1_556 S
C798 C802 1.350 . S
C799 C802 1.463 . S
C799 C804 1.350 . S
C799 N807 1.427 . S
C800 H791 0.930 . S
C800 C798 1.378 1_554 S
C800 C801 1.367 . S
C801 C800 1.367 . S
C801 C803 1.433 . S
C802 C798 1.350 . S
C802 C799 1.463 . S
C802 N806 1.427 1_556 S
C803 H793 0.929 . S
C803 C801 1.433 . S
C803 N806 1.384 . S
C804 H795 0.929 . S
C804 C796 1.378 . S
C804 C799 1.350 . S
C805 H792 0.929 . S
C805 C797 1.433 . S
C805 N807 1.384 . S
N806 C802 1.427 1_554 S
N806 C803 1.384 . S
N807 C799 1.427 . S
N807 C805 1.384 . S
H808 C814 0.930 . S
H809 C818 0.930 . S
H810 C823 0.929 . S
H811 C821 0.929 1_545 S
H812 C816 0.929 . S
H813 C822 0.929 . S
C814 H808 0.930 . S
C814 C815 1.367 . S
C814 C822 1.378 . S
C815 C814 1.367 . S
C815 C823 1.433 . S
C816 H812 0.929 . S
C816 C818 1.378 . S
C816 C820 1.350 1_565 S
C817 C820 1.463 . S
C817 C822 1.350 . S
C817 N825 1.427 . S
C818 H809 0.930 . S
C818 C816 1.378 . S
C818 C819 1.367 . S
C819 C818 1.367 . S
C819 C821 1.433 . S
C820 C816 1.350 1_545 S
C820 C817 1.463 . S
C820 N824 1.427 . S
C821 H811 0.929 1_565 S
C821 C819 1.433 . S
C821 N824 1.384 1_565 S
C822 H813 0.929 . S
C822 C814 1.378 . S
C822 C817 1.350 . S
C823 H810 0.929 . S
C823 C815 1.433 . S
C823 N825 1.384 . S
N824 C820 1.427 . S
N824 C821 1.384 1_545 S
N825 C817 1.427 . S
N825 C823 1.384 . S
H826 C832 0.930 . S
H827 C836 0.930 . S
H828 C841 0.929 . S
H829 C839 0.929 . S
H830 C834 0.929 . S
H831 C840 0.929 . S
C832 H826 0.930 . S
C832 C833 1.367 . S
C832 C840 1.378 . S
C833 C832 1.367 . S
C833 C841 1.433 . S
C834 H830 0.929 . S
C834 C836 1.378 . S
C834 C838 1.350 . S
C835 C838 1.463 . S
C835 C840 1.350 . S
C835 N843 1.427 . S
C836 H827 0.930 . S
C836 C834 1.378 . S
C836 C837 1.367 . S
C837 C836 1.367 . S
C837 C839 1.433 . S
C838 C834 1.350 . S
C838 C835 1.463 . S
C838 N842 1.427 . S
C839 H829 0.929 . S
C839 C837 1.433 . S
C839 N842 1.384 . S
C840 H831 0.929 . S
C840 C832 1.378 . S
C840 C835 1.350 . S
C841 H828 0.929 . S
C841 C833 1.433 . S
C841 N843 1.384 . S
N842 C838 1.427 . S
N842 C839 1.384 . S
N843 C835 1.427 . S
N843 C841 1.384 . S
H844 C850 0.930 . S
H845 C854 0.930 . S
H846 C859 0.929 . S
H847 C857 0.929 . S
H848 C852 0.929 . S
H849 C858 0.929 . S
C850 H844 0.930 . S
C850 C851 1.367 . S
C850 C858 1.378 1_545 S
C851 C850 1.367 . S
C851 C859 1.433 . S
C852 H848 0.929 . S
C852 C854 1.378 . S
C852 C856 1.350 . S
C853 C856 1.463 . S
C853 C858 1.350 . S
C853 N861 1.433 . S
C854 H845 0.930 . S
C854 C852 1.378 . S
C854 C855 1.367 . S
C855 C854 1.367 . S
C855 C857 1.433 . S
C856 C852 1.350 . S
C856 C853 1.463 . S
C856 N860 1.427 . S
C857 H847 0.929 . S
C857 C855 1.433 . S
C857 N860 1.384 . S
C858 H849 0.929 . S
C858 C850 1.378 1_565 S
C858 C853 1.350 . S
C859 H846 0.929 . S
C859 C851 1.433 . S
C859 N861 1.375 1_545 S
N860 C856 1.427 . S
N860 C857 1.384 . S
N861 C853 1.433 . S
N861 C859 1.375 1_565 S
H862 C868 0.930 . S
H863 C872 0.930 . S
H864 C877 0.929 . S
H865 C875 0.929 . S
H866 C870 0.929 . S
H867 C876 0.929 . S
C868 H862 0.930 . S
C868 C869 1.367 1_554 S
C868 C876 1.378 . S
C869 C868 1.367 1_556 S
C869 C877 1.433 . S
C870 H866 0.929 . S
C870 C872 1.378 . S
C870 C874 1.350 . S
C871 C874 1.463 . S
C871 C876 1.350 . S
C871 N879 1.427 1_554 S
C872 H863 0.930 . S
C872 C870 1.378 . S
C872 C873 1.367 . S
C873 C872 1.367 . S
C873 C875 1.433 . S
C874 C870 1.350 . S
C874 C871 1.463 . S
C874 N878 1.427 . S
C875 H865 0.929 . S
C875 C873 1.433 . S
C875 N878 1.384 . S
C876 H867 0.929 . S
C876 C868 1.378 . S
C876 C871 1.350 . S
C877 H864 0.929 . S
C877 C869 1.433 . S
C877 N879 1.384 . S
N878 C874 1.427 . S
N878 C875 1.384 . S
N879 C871 1.427 1_556 S
N879 C877 1.384 . S
H880 C886 0.930 . S
H881 C890 0.930 . S
H882 C895 0.929 . S
H883 C893 0.929 . S
H884 C888 0.929 . S
H885 C894 0.929 . S
C886 H880 0.930 . S
C886 C887 1.367 . S
C886 C894 1.378 . S
C887 C886 1.367 . S
C887 C895 1.433 . S
C888 H884 0.929 . S
C888 C890 1.378 . S
C888 C892 1.350 1_455 S
C889 C892 1.463 . S
C889 C894 1.350 . S
C889 N897 1.427 . S
C890 H881 0.930 . S
C890 C888 1.378 . S
C890 C891 1.367 . S
C891 C890 1.367 . S
C891 C893 1.433 . S
C892 C888 1.350 1_655 S
C892 C889 1.463 . S
C892 N896 1.427 . S
C893 H883 0.929 . S
C893 C891 1.433 . S
C893 N896 1.384 1_455 S
C894 H885 0.929 . S
C894 C886 1.378 . S
C894 C889 1.350 . S
C895 H882 0.929 . S
C895 C887 1.433 . S
C895 N897 1.384 . S
N896 C892 1.427 . S
N896 C893 1.384 1_655 S
N897 C889 1.427 . S
N897 C895 1.384 . S
H898 C904 0.930 . S
H899 C908 0.930 . S
H900 C913 0.929 . S
H901 C911 0.929 . S
H902 C906 0.929 . S
H903 C912 0.929 . S
C904 H898 0.930 . S
C904 C905 1.367 . S
C904 C912 1.378 . S
C905 C904 1.367 . S
C905 C913 1.433 . S
C906 H902 0.929 . S
C906 C908 1.378 . S
C906 C910 1.350 . S
C907 C910 1.463 . S
C907 C912 1.350 . S
C907 N915 1.427 . S
C908 H899 0.930 . S
C908 C906 1.378 . S
C908 C909 1.367 . S
C909 C908 1.367 . S
C909 C911 1.433 . S
C910 C906 1.350 . S
C910 C907 1.463 . S
C910 N914 1.427 . S
C911 H901 0.929 . S
C911 C909 1.433 . S
C911 N914 1.384 . S
C912 H903 0.929 . S
C912 C904 1.378 . S
C912 C907 1.350 . S
C913 H900 0.929 . S
C913 C905 1.433 . S
C913 N915 1.384 . S
N914 C910 1.427 . S
N914 C911 1.384 . S
N915 C907 1.427 . S
N915 C913 1.384 . S
H916 C922 0.930 . S
H917 C926 0.930 . S
H918 C931 0.929 . S
H919 C929 0.929 . S
H920 C924 0.929 . S
H921 C930 0.929 . S
C922 H916 0.930 . S
C922 C923 1.367 . S
C922 C930 1.378 . S
C923 C922 1.367 . S
C923 C931 1.433 . S
C924 H920 0.929 . S
C924 C926 1.378 . S
C924 C928 1.350 . S
C925 C928 1.463 . S
C925 C930 1.350 1_455 S
C925 N933 1.427 1_455 S
C926 H917 0.930 . S
C926 C924 1.378 . S
C926 C927 1.367 . S
C927 C926 1.367 . S
C927 C929 1.433 . S
C928 C924 1.350 . S
C928 C925 1.463 . S
C928 N932 1.427 . S
C929 H919 0.929 . S
C929 C927 1.433 . S
C929 N932 1.384 . S
C930 H921 0.929 . S
C930 C922 1.378 . S
C930 C925 1.350 1_655 S
C931 H918 0.929 . S
C931 C923 1.433 . S
C931 N933 1.384 . S
N932 C928 1.427 . S
N932 C929 1.384 . S
N933 C925 1.427 1_655 S
N933 C931 1.384 . S
H934 C940 0.930 . S
H935 C944 0.930 . S
H936 C949 0.929 . S
H937 C947 0.929 . S
H938 C942 0.929 . S
H939 C948 0.929 . S
C940 H934 0.930 . S
C940 C941 1.367 . S
C940 C948 1.378 . S
C941 C940 1.367 . S
C941 C949 1.433 . S
C942 H938 0.929 . S
C942 C944 1.378 . S
C942 C946 1.350 . S
C943 C946 1.463 . S
C943 C948 1.350 1_455 S
C943 N951 1.427 . S
C944 H935 0.930 . S
C944 C942 1.378 . S
C944 C945 1.367 . S
C945 C944 1.367 . S
C945 C947 1.433 . S
C946 C942 1.350 . S
C946 C943 1.463 . S
C946 N950 1.427 . S
C947 H937 0.929 . S
C947 C945 1.433 . S
C947 N950 1.384 . S
C948 H939 0.929 . S
C948 C940 1.378 . S
C948 C943 1.350 1_655 S
C949 H936 0.929 . S
C949 C941 1.433 . S
C949 N951 1.384 1_655 S
N950 C946 1.427 . S
N950 C947 1.384 . S
N951 C943 1.427 . S
N951 C949 1.384 1_455 S
H952 C958 0.930 . S
H953 C962 0.930 . S
H954 C967 0.929 . S
H955 C965 0.929 . S
H956 C960 0.929 . S
H957 C966 0.929 . S
C958 H952 0.930 . S
C958 C959 1.367 . S
C958 C966 1.378 . S
C959 C958 1.367 . S
C959 C967 1.433 . S
C960 H956 0.929 . S
C960 C962 1.378 . S
C960 C964 1.350 . S
C961 C964 1.463 . S
C961 C966 1.350 . S
C961 N969 1.427 . S
C962 H953 0.930 . S
C962 C960 1.378 . S
C962 C963 1.367 . S
C963 C962 1.367 . S
C963 C965 1.433 . S
C964 C960 1.350 . S
C964 C961 1.463 . S
C964 N968 1.427 . S
C965 H955 0.929 . S
C965 C963 1.433 . S
C965 N968 1.384 . S
C966 H957 0.929 . S
C966 C958 1.378 . S
C966 C961 1.350 . S
C967 H954 0.929 . S
C967 C959 1.433 . S
C967 N969 1.384 . S
N968 C964 1.427 . S
N968 C965 1.384 . S
N969 C961 1.427 . S
N969 C967 1.384 . S
H970 C976 0.930 . S
H971 C980 0.930 . S
H972 C985 0.929 . S
H973 C983 0.929 . S
H974 C978 0.929 . S
H975 C984 0.929 1_455 S
C976 H970 0.930 . S
C976 C977 1.367 . S
C976 C984 1.378 . S
C977 C976 1.367 . S
C977 C985 1.433 . S
C978 H974 0.929 . S
C978 C980 1.378 1_655 S
C978 C982 1.350 . S
C979 C982 1.463 . S
C979 C984 1.350 . S
C979 N987 1.427 . S
C980 H971 0.930 . S
C980 C978 1.378 1_455 S
C980 C981 1.367 . S
C981 C980 1.367 . S
C981 C983 1.433 . S
C982 C978 1.350 . S
C982 C979 1.463 . S
C982 N986 1.427 1_655 S
C983 H973 0.929 . S
C983 C981 1.433 . S
C983 N986 1.384 . S
C984 H975 0.929 1_655 S
C984 C976 1.378 . S
C984 C979 1.350 . S
C985 H972 0.929 . S
C985 C977 1.433 . S
C985 N987 1.384 . S
N986 C982 1.427 1_455 S
N986 C983 1.384 . S
N987 C979 1.427 . S
N987 C985 1.384 . S
H988 C994 0.930 . S
H989 C998 0.930 . S
H990 C1003 0.929 . S
H991 C1001 0.929 . S
H992 C996 0.929 . S
H993 C1002 0.929 . S
C994 H988 0.930 . S
C994 C995 1.367 . S
C994 C1002 1.378 . S
C995 C994 1.367 . S
C995 C1003 1.433 . S
C996 H992 0.929 . S
C996 C998 1.378 . S
C996 C1000 1.350 . S
C997 C1000 1.463 . S
C997 C1002 1.350 . S
C997 N1005 1.427 . S
C998 H989 0.930 . S
C998 C996 1.378 . S
C998 C999 1.367 . S
C999 C998 1.367 . S
C999 C1001 1.433 . S
C1000 C996 1.350 . S
C1000 C997 1.463 . S
C1000 N1004 1.427 . S
C1001 H991 0.929 . S
C1001 C999 1.433 . S
C1001 N1004 1.384 . S
C1002 H993 0.929 . S
C1002 C994 1.378 . S
C1002 C997 1.350 . S
C1003 H990 0.929 . S
C1003 C995 1.433 . S
C1003 N1005 1.384 . S
N1004 C1000 1.427 . S
N1004 C1001 1.384 . S
N1005 C997 1.427 . S
N1005 C1003 1.384 . S
H1006 C1012 0.930 . S
H1007 C1016 0.930 . S
H1008 C1021 0.929 . S
H1009 C1019 0.932 . S
H1010 C1014 0.929 . S
H1011 C1020 0.929 . S
C1012 H1006 0.930 . S
C1012 C1013 1.367 . S
C1012 C1020 1.378 . S
C1013 C1012 1.367 . S
C1013 C1021 1.433 . S
C1014 H1010 0.929 . S
C1014 C1016 1.378 . S
C1014 C1018 1.350 1_565 S
C1015 C1018 1.463 . S
C1015 C1020 1.350 . S
C1015 N1023 1.427 . S
C1016 H1007 0.930 . S
C1016 C1014 1.378 . S
C1016 C1017 1.367 . S
C1017 C1016 1.367 . S
C1017 C1019 1.421 1_565 S
C1018 C1014 1.350 1_545 S
C1018 C1015 1.463 . S
C1018 N1022 1.427 . S
C1019 H1009 0.932 . S
C1019 C1017 1.421 1_545 S
C1019 N1022 1.393 . S
C1020 H1011 0.929 . S
C1020 C1012 1.378 . S
C1020 C1015 1.350 . S
C1021 H1008 0.929 . S
C1021 C1013 1.433 . S
C1021 N1023 1.384 . S
N1022 C1018 1.427 . S
N1022 C1019 1.393 . S
N1023 C1015 1.427 . S
N1023 C1021 1.384 . S
H1024 C1030 0.930 . S
H1025 C1034 0.930 . S
H1026 C1039 0.929 . S
H1027 C1037 0.929 . S
H1028 C1032 0.929 . S
H1029 C1038 0.929 . S
C1030 H1024 0.930 . S
C1030 C1031 1.367 . S
C1030 C1038 1.378 . S
C1031 C1030 1.367 . S
C1031 C1039 1.433 . S
C1032 H1028 0.929 . S
C1032 C1034 1.378 . S
C1032 C1036 1.350 . S
C1033 C1036 1.463 . S
C1033 C1038 1.350 . S
C1033 N1041 1.427 . S
C1034 H1025 0.930 . S
C1034 C1032 1.378 . S
C1034 C1035 1.367 . S
C1035 C1034 1.367 . S
C1035 C1037 1.433 . S
C1036 C1032 1.350 . S
C1036 C1033 1.463 . S
C1036 N1040 1.427 . S
C1037 H1027 0.929 . S
C1037 C1035 1.433 . S
C1037 N1040 1.384 . S
C1038 H1029 0.929 . S
C1038 C1030 1.378 . S
C1038 C1033 1.350 . S
C1039 H1026 0.929 . S
C1039 C1031 1.433 . S
C1039 N1041 1.384 . S
N1040 C1036 1.427 . S
N1040 C1037 1.384 . S
N1041 C1033 1.427 . S
N1041 C1039 1.384 . S
H1042 C1048 0.930 . S
H1043 C1052 0.930 . S
H1044 C1057 0.929 . S
H1045 C1055 0.929 1_565 S
H1046 C1050 0.929 . S
H1047 C1056 0.929 . S
C1048 H1042 0.930 . S
C1048 C1049 1.367 . S
C1048 C1056 1.378 . S
C1049 C1048 1.367 . S
C1049 C1057 1.433 . S
C1050 H1046 0.929 . S
C1050 C1052 1.378 . S
C1050 C1054 1.350 1_545 S
C1051 C1054 1.463 . S
C1051 C1056 1.350 . S
C1051 N1059 1.427 . S
C1052 H1043 0.930 . S
C1052 C1050 1.378 . S
C1052 C1053 1.367 . S
C1053 C1052 1.367 . S
C1053 C1055 1.433 . S
C1054 C1050 1.350 1_565 S
C1054 C1051 1.463 . S
C1054 N1058 1.427 . S
C1055 H1045 0.929 1_545 S
C1055 C1053 1.433 . S
C1055 N1058 1.384 1_545 S
C1056 H1047 0.929 . S
C1056 C1048 1.378 . S
C1056 C1051 1.350 . S
C1057 H1044 0.929 . S
C1057 C1049 1.433 . S
C1057 N1059 1.384 . S
N1058 C1054 1.427 . S
N1058 C1055 1.384 1_565 S
N1059 C1051 1.427 . S
N1059 C1057 1.384 . S
H1060 C1066 0.930 . S
H1061 C1070 0.930 . S
H1062 C1075 0.929 . S
H1063 C1073 0.929 . S
H1064 C1068 0.929 . S
H1065 C1074 0.929 1_554 S
C1066 H1060 0.930 . S
C1066 C1067 1.367 . S
C1066 C1074 1.378 . S
C1067 C1066 1.367 . S
C1067 C1075 1.433 . S
C1068 H1064 0.929 . S
C1068 C1070 1.378 . S
C1068 C1072 1.350 . S
C1069 C1072 1.463 . S
C1069 C1074 1.350 1_554 S
C1069 N1077 1.427 1_554 S
C1070 H1061 0.930 . S
C1070 C1068 1.378 . S
C1070 C1071 1.367 . S
C1071 C1070 1.367 . S
C1071 C1073 1.433 . S
C1072 C1068 1.350 . S
C1072 C1069 1.463 . S
C1072 N1076 1.427 . S
C1073 H1063 0.929 . S
C1073 C1071 1.433 . S
C1073 N1076 1.384 . S
C1074 H1065 0.929 1_556 S
C1074 C1066 1.378 . S
C1074 C1069 1.350 1_556 S
C1075 H1062 0.929 . S
C1075 C1067 1.433 . S
C1075 N1077 1.384 . S
N1076 C1072 1.427 . S
N1076 C1073 1.384 . S
N1077 C1069 1.427 1_556 S
N1077 C1075 1.384 . S
H1078 C1084 0.934 . S
H1079 C1088 0.930 . S
H1080 C1093 0.929 . S
H1081 C1091 0.929 . S
H1082 C1086 0.929 . S
H1083 C1092 0.929 . S
C1084 H1078 0.934 . S
C1084 C1085 1.367 . S
C1084 C1092 1.378 1_545 S
C1085 C1084 1.367 . S
C1085 C1093 1.433 . S
C1086 H1082 0.929 . S
C1086 C1088 1.378 . S
C1086 C1090 1.350 . S
C1087 C1090 1.463 . S
C1087 C1092 1.350 . S
C1087 N1095 1.427 1_565 S
C1088 H1079 0.930 . S
C1088 C1086 1.378 . S
C1088 C1089 1.367 . S
C1089 C1088 1.367 . S
C1089 C1091 1.433 . S
C1090 C1086 1.350 . S
C1090 C1087 1.463 . S
C1090 N1094 1.427 . S
C1091 H1081 0.929 . S
C1091 C1089 1.433 . S
C1091 N1094 1.384 . S
C1092 H1083 0.929 . S
C1092 C1084 1.378 1_565 S
C1092 C1087 1.350 . S
C1093 H1080 0.929 . S
C1093 C1085 1.433 . S
C1093 N1095 1.384 . S
N1094 C1090 1.427 . S
N1094 C1091 1.384 . S
N1095 C1087 1.427 1_545 S
N1095 C1093 1.384 . S
H1096 C1102 0.930 . S
H1097 C1106 0.930 . S
H1098 C1111 0.929 . S
H1099 C1109 0.929 . S
H1100 C1104 0.929 . S
H1101 C1110 0.929 . S
C1102 H1096 0.930 . S
C1102 C1103 1.367 . S
C1102 C1110 1.378 . S
C1103 C1102 1.367 . S
C1103 C1111 1.433 . S
C1104 H1100 0.929 . S
C1104 C1106 1.378 . S
C1104 C1108 1.350 . S
C1105 C1108 1.463 . S
C1105 C1110 1.350 . S
C1105 N1113 1.427 . S
C1106 H1097 0.930 . S
C1106 C1104 1.378 . S
C1106 C1107 1.367 . S
C1107 C1106 1.367 . S
C1107 C1109 1.433 . S
C1108 C1104 1.350 . S
C1108 C1105 1.463 . S
C1108 N1112 1.427 . S
C1109 H1099 0.929 . S
C1109 C1107 1.433 . S
C1109 N1112 1.384 . S
C1110 H1101 0.929 . S
C1110 C1102 1.378 . S
C1110 C1105 1.350 . S
C1111 H1098 0.929 . S
C1111 C1103 1.433 . S
C1111 N1113 1.384 . S
N1112 C1108 1.427 . S
N1112 C1109 1.384 . S
N1113 C1105 1.427 . S
N1113 C1111 1.384 . S
H1114 C1120 0.930 1_545 S
H1115 C1124 0.930 . S
H1116 C1129 0.929 . S
H1117 C1127 0.929 . S
H1118 C1122 0.929 . S
H1119 C1128 0.929 . S
C1120 H1114 0.930 1_565 S
C1120 C1121 1.367 . S
C1120 C1128 1.378 1_565 S
C1121 C1120 1.367 . S
C1121 C1129 1.433 . S
C1122 H1118 0.929 . S
C1122 C1124 1.378 . S
C1122 C1126 1.350 . S
C1123 C1126 1.463 . S
C1123 C1128 1.350 . S
C1123 N1131 1.427 1_545 S
C1124 H1115 0.930 . S
C1124 C1122 1.378 . S
C1124 C1125 1.367 . S
C1125 C1124 1.367 . S
C1125 C1127 1.433 . S
C1126 C1122 1.350 . S
C1126 C1123 1.463 . S
C1126 N1130 1.427 . S
C1127 H1117 0.929 . S
C1127 C1125 1.433 . S
C1127 N1130 1.384 . S
C1128 H1119 0.929 . S
C1128 C1120 1.378 1_545 S
C1128 C1123 1.350 . S
C1129 H1116 0.929 . S
C1129 C1121 1.433 . S
C1129 N1131 1.384 . S
N1130 C1126 1.427 . S
N1130 C1127 1.384 . S
N1131 C1123 1.427 1_565 S
N1131 C1129 1.384 . S
H1132 C1138 0.930 . S
H1133 C1142 0.930 . S
H1134 C1147 0.929 . S
H1135 C1145 0.929 . S
H1136 C1140 0.929 . S
H1137 C1146 0.929 . S
C1138 H1132 0.930 . S
C1138 C1139 1.367 . S
C1138 C1146 1.378 . S
C1139 C1138 1.367 . S
C1139 C1147 1.433 . S
C1140 H1136 0.929 . S
C1140 C1142 1.378 . S
C1140 C1144 1.350 . S
C1141 C1144 1.463 . S
C1141 C1146 1.350 1_556 S
C1141 N1149 1.427 . S
C1142 H1133 0.930 . S
C1142 C1140 1.378 . S
C1142 C1143 1.367 . S
C1143 C1142 1.367 . S
C1143 C1145 1.433 . S
C1144 C1140 1.350 . S
C1144 C1141 1.463 . S
C1144 N1148 1.427 . S
C1145 H1135 0.929 . S
C1145 C1143 1.433 . S
C1145 N1148 1.384 . S
C1146 H1137 0.929 . S
C1146 C1138 1.378 . S
C1146 C1141 1.350 1_554 S
C1147 H1134 0.929 . S
C1147 C1139 1.433 . S
C1147 N1149 1.384 1_554 S
N1148 C1144 1.427 . S
N1148 C1145 1.384 . S
N1149 C1141 1.427 . S
N1149 C1147 1.384 1_556 S
H1150 C1156 0.930 . S
H1151 C1160 0.930 . S
H1152 C1165 0.929 . S
H1153 C1163 0.929 . S
H1154 C1158 0.929 . S
H1155 C1164 0.929 . S
C1156 H1150 0.930 . S
C1156 C1157 1.367 . S
C1156 C1164 1.378 1_655 S
C1157 C1156 1.367 . S
C1157 C1165 1.433 . S
C1158 H1154 0.929 . S
C1158 C1160 1.378 . S
C1158 C1162 1.350 . S
C1159 C1162 1.463 . S
C1159 C1164 1.350 . S
C1159 N1167 1.427 1_455 S
C1160 H1151 0.930 . S
C1160 C1158 1.378 . S
C1160 C1161 1.367 . S
C1161 C1160 1.367 . S
C1161 C1163 1.433 . S
C1162 C1158 1.350 . S
C1162 C1159 1.463 . S
C1162 N1166 1.427 . S
C1163 H1153 0.929 . S
C1163 C1161 1.433 . S
C1163 N1166 1.384 . S
C1164 H1155 0.929 . S
C1164 C1156 1.378 1_455 S
C1164 C1159 1.350 . S
C1165 H1152 0.929 . S
C1165 C1157 1.433 . S
C1165 N1167 1.384 . S
N1166 C1162 1.427 . S
N1166 C1163 1.384 . S
N1167 C1159 1.427 1_655 S
N1167 C1165 1.384 . S
H1168 C1174 0.930 . S
H1169 C1178 0.930 . S
H1170 C1183 0.929 . S
H1171 C1181 0.929 . S
H1172 C1176 0.929 . S
H1173 C1182 0.929 . S
C1174 H1168 0.930 . S
C1174 C1175 1.367 . S
C1174 C1182 1.378 . S
C1175 C1174 1.367 . S
C1175 C1183 1.433 . S
C1176 H1172 0.929 . S
C1176 C1178 1.378 . S
C1176 C1180 1.350 . S
C1177 C1180 1.463 . S
C1177 C1182 1.350 . S
C1177 N1185 1.427 . S
C1178 H1169 0.930 . S
C1178 C1176 1.378 . S
C1178 C1179 1.367 . S
C1179 C1178 1.367 . S
C1179 C1181 1.433 . S
C1180 C1176 1.350 . S
C1180 C1177 1.463 . S
C1180 N1184 1.427 . S
C1181 H1171 0.929 . S
C1181 C1179 1.433 . S
C1181 N1184 1.384 . S
C1182 H1173 0.929 . S
C1182 C1174 1.378 . S
C1182 C1177 1.350 . S
C1183 H1170 0.929 . S
C1183 C1175 1.433 . S
C1183 N1185 1.384 . S
N1184 C1180 1.427 . S
N1184 C1181 1.384 . S
N1185 C1177 1.427 . S
N1185 C1183 1.384 . S
H1186 C1192 0.930 . S
H1187 C1196 0.930 . S
H1188 C1201 0.929 . S
H1189 C1199 0.929 . S
H1190 C1194 0.929 . S
H1191 C1200 0.929 . S
C1192 H1186 0.930 . S
C1192 C1193 1.367 . S
C1192 C1200 1.378 . S
C1193 C1192 1.367 . S
C1193 C1201 1.433 . S
C1194 H1190 0.929 . S
C1194 C1196 1.378 . S
C1194 C1198 1.350 . S
C1195 C1198 1.463 . S
C1195 C1200 1.350 1_655 S
C1195 N1203 1.427 . S
C1196 H1187 0.930 . S
C1196 C1194 1.378 . S
C1196 C1197 1.367 . S
C1197 C1196 1.367 . S
C1197 C1199 1.433 . S
C1198 C1194 1.350 . S
C1198 C1195 1.463 . S
C1198 N1202 1.427 . S
C1199 H1189 0.929 . S
C1199 C1197 1.433 . S
C1199 N1202 1.384 . S
C1200 H1191 0.929 . S
C1200 C1192 1.378 . S
C1200 C1195 1.350 1_455 S
C1201 H1188 0.929 . S
C1201 C1193 1.433 . S
C1201 N1203 1.384 1_455 S
N1202 C1198 1.427 . S
N1202 C1199 1.384 . S
N1203 C1195 1.427 . S
N1203 C1201 1.384 1_655 S
H1204 C1210 0.930 . S
H1205 C1214 0.930 . S
H1206 C1219 0.929 . S
H1207 C1217 0.929 . S
H1208 C1212 0.929 . S
H1209 C1218 0.929 . S
C1210 H1204 0.930 . S
C1210 C1211 1.367 . S
C1210 C1218 1.378 1_455 S
C1211 C1210 1.367 . S
C1211 C1219 1.433 . S
C1212 H1208 0.929 . S
C1212 C1214 1.378 . S
C1212 C1216 1.350 . S
C1213 C1216 1.463 . S
C1213 C1218 1.350 . S
C1213 N1221 1.427 1_655 S
C1214 H1205 0.930 . S
C1214 C1212 1.378 . S
C1214 C1215 1.367 . S
C1215 C1214 1.367 . S
C1215 C1217 1.433 . S
C1216 C1212 1.350 . S
C1216 C1213 1.463 . S
C1216 N1220 1.427 . S
C1217 H1207 0.929 . S
C1217 C1215 1.433 . S
C1217 N1220 1.384 . S
C1218 H1209 0.929 . S
C1218 C1210 1.378 1_655 S
C1218 C1213 1.350 . S
C1219 H1206 0.929 . S
C1219 C1211 1.433 . S
C1219 N1221 1.384 . S
N1220 C1216 1.427 . S
N1220 C1217 1.384 . S
N1221 C1213 1.427 1_455 S
N1221 C1219 1.384 . S
H1222 C1228 0.930 . S
H1223 C1232 0.930 . S
H1224 C1237 0.929 . S
H1225 C1235 0.929 . S
H1226 C1230 0.929 . S
H1227 C1236 0.929 . S
C1228 H1222 0.930 . S
C1228 C1229 1.367 . S
C1228 C1236 1.378 . S
C1229 C1228 1.367 . S
C1229 C1237 1.433 . S
C1230 H1226 0.929 . S
C1230 C1232 1.378 . S
C1230 C1234 1.350 . S
C1231 C1234 1.463 . S
C1231 C1236 1.350 . S
C1231 N1239 1.427 . S
C1232 H1223 0.930 . S
C1232 C1230 1.378 . S
C1232 C1233 1.367 . S
C1233 C1232 1.367 . S
C1233 C1235 1.433 . S
C1234 C1230 1.350 . S
C1234 C1231 1.463 . S
C1234 N1238 1.427 . S
C1235 H1225 0.929 . S
C1235 C1233 1.433 . S
C1235 N1238 1.384 . S
C1236 H1227 0.929 . S
C1236 C1228 1.378 . S
C1236 C1231 1.350 . S
C1237 H1224 0.929 . S
C1237 C1229 1.433 . S
C1237 N1239 1.384 . S
N1238 C1234 1.427 . S
N1238 C1235 1.384 . S
N1239 C1231 1.427 . S
N1239 C1237 1.384 . S
H1240 C1246 0.927 1_455 S
H1241 C1250 0.930 . S
H1242 C1255 0.929 . S
H1243 C1253 0.929 . S
H1244 C1248 0.929 . S
H1245 C1254 0.929 . S
C1246 H1240 0.927 1_655 S
C1246 C1247 1.384 . S
C1246 C1254 1.365 1_655 S
C1247 C1246 1.384 . S
C1247 C1255 1.433 . S
C1248 H1244 0.929 . S
C1248 C1250 1.378 . S
C1248 C1252 1.350 . S
C1249 C1252 1.463 . S
C1249 C1254 1.350 . S
C1249 N1257 1.427 1_455 S
C1250 H1241 0.930 . S
C1250 C1248 1.378 . S
C1250 C1251 1.367 . S
C1251 C1250 1.367 . S
C1251 C1253 1.433 . S
C1252 C1248 1.350 . S
C1252 C1249 1.463 . S
C1252 N1256 1.427 . S
C1253 H1243 0.929 . S
C1253 C1251 1.433 . S
C1253 N1256 1.384 . S
C1254 H1245 0.929 . S
C1254 C1246 1.365 1_455 S
C1254 C1249 1.350 . S
C1255 H1242 0.929 . S
C1255 C1247 1.433 . S
C1255 N1257 1.384 . S
N1256 C1252 1.427 . S
N1256 C1253 1.384 . S
N1257 C1249 1.427 1_655 S
N1257 C1255 1.384 . S
H1258 C1264 0.930 . S
H1259 C1268 0.930 . S
H1260 C1273 0.929 . S
H1261 C1271 0.929 . S
H1262 C1266 0.929 . S
H1263 C1272 0.929 . S
C1264 H1258 0.930 . S
C1264 C1265 1.367 . S
C1264 C1272 1.378 . S
C1265 C1264 1.367 . S
C1265 C1273 1.433 . S
C1266 H1262 0.929 . S
C1266 C1268 1.378 . S
C1266 C1270 1.350 . S
C1267 C1270 1.463 . S
C1267 C1272 1.350 . S
C1267 N1275 1.427 . S
C1268 H1259 0.930 . S
C1268 C1266 1.378 . S
C1268 C1269 1.367 . S
C1269 C1268 1.367 . S
C1269 C1271 1.433 . S
C1270 C1266 1.350 . S
C1270 C1267 1.463 . S
C1270 N1274 1.427 . S
C1271 H1261 0.929 . S
C1271 C1269 1.433 . S
C1271 N1274 1.384 . S
C1272 H1263 0.929 . S
C1272 C1264 1.378 . S
C1272 C1267 1.350 . S
C1273 H1260 0.929 . S
C1273 C1265 1.433 . S
C1273 N1275 1.384 . S
N1274 C1270 1.427 . S
N1274 C1271 1.384 . S
N1275 C1267 1.427 . S
N1275 C1273 1.384 . S
H1276 C1282 0.930 . S
H1277 C1286 0.930 . S
H1278 C1291 0.929 . S
H1279 C1289 0.929 . S
H1280 C1284 0.929 . S
H1281 C1290 0.929 . S
C1282 H1276 0.930 . S
C1282 C1283 1.367 . S
C1282 C1290 1.378 . S
C1283 C1282 1.367 . S
C1283 C1291 1.433 . S
C1284 H1280 0.929 . S
C1284 C1286 1.378 . S
C1284 C1288 1.350 . S
C1285 C1288 1.463 . S
C1285 C1290 1.350 . S
C1285 N1293 1.427 . S
C1286 H1277 0.930 . S
C1286 C1284 1.378 . S
C1286 C1287 1.367 . S
C1287 C1286 1.367 . S
C1287 C1289 1.433 . S
C1288 C1284 1.350 . S
C1288 C1285 1.463 . S
C1288 N1292 1.427 . S
C1289 H1279 0.929 . S
C1289 C1287 1.433 . S
C1289 N1292 1.384 . S
C1290 H1281 0.929 . S
C1290 C1282 1.378 . S
C1290 C1285 1.350 . S
C1291 H1278 0.929 . S
C1291 C1283 1.433 . S
C1291 N1293 1.384 . S
N1292 C1288 1.427 . S
N1292 C1289 1.384 . S
N1293 C1285 1.427 . S
N1293 C1291 1.384 . S
H1294 C1300 0.930 . S
H1295 C1304 0.930 . S
H1296 C1309 0.929 . S
H1297 C1307 0.929 . S
H1298 C1302 0.929 . S
H1299 C1308 0.929 . S
C1300 H1294 0.930 . S
C1300 C1301 1.367 . S
C1300 C1308 1.378 1_554 S
C1301 C1300 1.367 . S
C1301 C1309 1.433 . S
C1302 H1298 0.929 . S
C1302 C1304 1.378 . S
C1302 C1306 1.350 . S
C1303 C1306 1.463 . S
C1303 C1308 1.350 . S
C1303 N1311 1.427 1_556 S
C1304 H1295 0.930 . S
C1304 C1302 1.378 . S
C1304 C1305 1.367 . S
C1305 C1304 1.367 . S
C1305 C1307 1.433 . S
C1306 C1302 1.350 . S
C1306 C1303 1.463 . S
C1306 N1310 1.427 . S
C1307 H1297 0.929 . S
C1307 C1305 1.433 . S
C1307 N1310 1.384 . S
C1308 H1299 0.929 . S
C1308 C1300 1.378 1_556 S
C1308 C1303 1.350 . S
C1309 H1296 0.929 . S
C1309 C1301 1.433 . S
C1309 N1311 1.384 . S
N1310 C1306 1.427 . S
N1310 C1307 1.384 . S
N1311 C1303 1.427 1_554 S
N1311 C1309 1.384 . S
H1312 C1318 0.930 . S
H1313 C1322 0.930 . S
H1314 C1327 0.929 . S
H1315 C1325 0.929 . S
H1316 C1320 0.929 . S
H1317 C1326 0.929 . S
C1318 H1312 0.930 . S
C1318 C1319 1.367 . S
C1318 C1326 1.378 . S
C1319 C1318 1.367 . S
C1319 C1327 1.433 . S
C1320 H1316 0.929 . S
C1320 C1322 1.378 . S
C1320 C1324 1.350 . S
C1321 C1324 1.463 . S
C1321 C1326 1.350 . S
C1321 N1329 1.427 . S
C1322 H1313 0.930 . S
C1322 C1320 1.378 . S
C1322 C1323 1.367 . S
C1323 C1322 1.367 . S
C1323 C1325 1.433 . S
C1324 C1320 1.350 . S
C1324 C1321 1.463 . S
C1324 N1328 1.427 . S
C1325 H1315 0.929 . S
C1325 C1323 1.433 . S
C1325 N1328 1.384 . S
C1326 H1317 0.929 . S
C1326 C1318 1.378 . S
C1326 C1321 1.350 . S
C1327 H1314 0.929 . S
C1327 C1319 1.433 . S
C1327 N1329 1.384 . S
N1328 C1324 1.427 . S
N1328 C1325 1.384 . S
N1329 C1321 1.427 . S
N1329 C1327 1.384 . S
H1330 C1336 0.930 . S
H1331 C1340 0.930 . S
H1332 C1345 0.929 . S
H1333 C1343 0.929 . S
H1334 C1338 0.929 . S
H1335 C1344 0.929 . S
C1336 H1330 0.930 . S
C1336 C1337 1.367 . S
C1336 C1344 1.378 . S
C1337 C1336 1.367 . S
C1337 C1345 1.433 . S
C1338 H1334 0.929 . S
C1338 C1340 1.378 . S
C1338 C1342 1.350 . S
C1339 C1342 1.463 . S
C1339 C1344 1.350 . S
C1339 N1347 1.427 . S
C1340 H1331 0.930 . S
C1340 C1338 1.378 . S
C1340 C1341 1.367 . S
C1341 C1340 1.367 . S
C1341 C1343 1.433 . S
C1342 C1338 1.350 . S
C1342 C1339 1.463 . S
C1342 N1346 1.427 . S
C1343 H1333 0.929 . S
C1343 C1341 1.433 . S
C1343 N1346 1.384 . S
C1344 H1335 0.929 . S
C1344 C1336 1.378 . S
C1344 C1339 1.350 . S
C1345 H1332 0.929 . S
C1345 C1337 1.433 . S
C1345 N1347 1.384 . S
N1346 C1342 1.427 . S
N1346 C1343 1.384 . S
N1347 C1339 1.427 . S
N1347 C1345 1.384 . S
H1348 C1354 0.930 . S
H1349 C1358 0.930 . S
H1350 C1363 0.929 . S
H1351 C1361 0.929 . S
H1352 C1356 0.929 . S
H1353 C1362 0.929 . S
C1354 H1348 0.930 . S
C1354 C1355 1.367 . S
C1354 C1362 1.378 . S
C1355 C1354 1.367 . S
C1355 C1363 1.433 . S
C1356 H1352 0.929 . S
C1356 C1358 1.378 . S
C1356 C1360 1.350 . S
C1357 C1360 1.463 . S
C1357 C1362 1.350 . S
C1357 N1365 1.427 . S
C1358 H1349 0.930 . S
C1358 C1356 1.378 . S
C1358 C1359 1.367 . S
C1359 C1358 1.367 . S
C1359 C1361 1.433 . S
C1360 C1356 1.350 . S
C1360 C1357 1.463 . S
C1360 N1364 1.427 . S
C1361 H1351 0.929 . S
C1361 C1359 1.433 . S
C1361 N1364 1.384 . S
C1362 H1353 0.929 . S
C1362 C1354 1.378 . S
C1362 C1357 1.350 . S
C1363 H1350 0.929 . S
C1363 C1355 1.433 . S
C1363 N1365 1.384 . S
N1364 C1360 1.427 . S
N1364 C1361 1.384 . S
N1365 C1357 1.427 . S
N1365 C1363 1.384 . S
H1366 C1372 0.930 . S
H1367 C1376 0.930 . S
H1368 C1381 0.929 . S
H1369 C1379 0.929 . S
H1370 C1374 0.929 . S
H1371 C1380 0.929 . S
C1372 H1366 0.930 . S
C1372 C1373 1.367 . S
C1372 C1380 1.378 . S
C1373 C1372 1.367 . S
C1373 C1381 1.433 . S
C1374 H1370 0.929 . S
C1374 C1376 1.378 1_554 S
C1374 C1378 1.350 . S
C1375 C1378 1.463 . S
C1375 C1380 1.350 . S
C1375 N1383 1.427 . S
C1376 H1367 0.930 . S
C1376 C1374 1.378 1_556 S
C1376 C1377 1.367 . S
C1377 C1376 1.367 . S
C1377 C1379 1.433 . S
C1378 C1374 1.350 . S
C1378 C1375 1.463 . S
C1378 N1382 1.427 . S
C1379 H1369 0.929 . S
C1379 C1377 1.433 . S
C1379 N1382 1.384 1_556 S
C1380 H1371 0.929 . S
C1380 C1372 1.378 . S
C1380 C1375 1.350 . S
C1381 H1368 0.929 . S
C1381 C1373 1.433 . S
C1381 N1383 1.384 . S
N1382 C1378 1.427 . S
N1382 C1379 1.384 1_554 S
N1383 C1375 1.427 . S
N1383 C1381 1.384 . S
H1384 C1390 0.930 . S
H1385 C1394 0.930 . S
H1386 C1399 0.929 . S
H1387 C1397 0.929 . S
H1388 C1392 0.929 . S
H1389 C1398 0.929 . S
C1390 H1384 0.930 . S
C1390 C1391 1.367 . S
C1390 C1398 1.378 . S
C1391 C1390 1.367 . S
C1391 C1399 1.433 . S
C1392 H1388 0.929 . S
C1392 C1394 1.378 . S
C1392 C1396 1.350 . S
C1393 C1396 1.463 . S
C1393 C1398 1.350 . S
C1393 N1401 1.427 . S
C1394 H1385 0.930 . S
C1394 C1392 1.378 . S
C1394 C1395 1.367 . S
C1395 C1394 1.367 . S
C1395 C1397 1.433 . S
C1396 C1392 1.350 . S
C1396 C1393 1.463 . S
C1396 N1400 1.427 . S
C1397 H1387 0.929 . S
C1397 C1395 1.433 . S
C1397 N1400 1.384 . S
C1398 H1389 0.929 . S
C1398 C1390 1.378 . S
C1398 C1393 1.350 . S
C1399 H1386 0.929 . S
C1399 C1391 1.433 . S
C1399 N1401 1.384 . S
N1400 C1396 1.427 . S
N1400 C1397 1.384 . S
N1401 C1393 1.427 . S
N1401 C1399 1.384 . S
H1402 C1408 0.930 . S
H1403 C1412 0.930 . S
H1404 C1417 0.929 . S
H1405 C1415 0.929 . S
H1406 C1410 0.929 . S
H1407 C1416 0.929 . S
C1408 H1402 0.930 . S
C1408 C1409 1.367 . S
C1408 C1416 1.378 . S
C1409 C1408 1.367 . S
C1409 C1417 1.433 . S
C1410 H1406 0.929 . S
C1410 C1412 1.378 . S
C1410 C1414 1.350 . S
C1411 C1414 1.463 . S
C1411 C1416 1.350 . S
C1411 N1419 1.427 . S
C1412 H1403 0.930 . S
C1412 C1410 1.378 . S
C1412 C1413 1.367 . S
C1413 C1412 1.367 . S
C1413 C1415 1.433 . S
C1414 C1410 1.350 . S
C1414 C1411 1.463 . S
C1414 N1418 1.427 . S
C1415 H1405 0.929 . S
C1415 C1413 1.433 . S
C1415 N1418 1.384 . S
C1416 H1407 0.929 . S
C1416 C1408 1.378 . S
C1416 C1411 1.350 . S
C1417 H1404 0.929 . S
C1417 C1409 1.433 . S
C1417 N1419 1.384 . S
N1418 C1414 1.427 . S
N1418 C1415 1.384 . S
N1419 C1411 1.427 . S
N1419 C1417 1.384 . S
H1420 C1426 0.930 . S
H1421 C1430 0.930 . S
H1422 C1435 0.929 . S
H1423 C1433 0.929 . S
H1424 C1428 0.929 . S
H1425 C1434 0.929 . S
C1426 H1420 0.930 . S
C1426 C1427 1.367 . S
C1426 C1434 1.378 . S
C1427 C1426 1.367 . S
C1427 C1435 1.433 . S
C1428 H1424 0.929 . S
C1428 C1430 1.378 . S
C1428 C1432 1.350 . S
C1429 C1432 1.463 . S
C1429 C1434 1.350 . S
C1429 N1437 1.427 . S
C1430 H1421 0.930 . S
C1430 C1428 1.378 . S
C1430 C1431 1.367 . S
C1431 C1430 1.367 . S
C1431 C1433 1.433 . S
C1432 C1428 1.350 . S
C1432 C1429 1.463 . S
C1432 N1436 1.427 . S
C1433 H1423 0.929 . S
C1433 C1431 1.433 . S
C1433 N1436 1.384 . S
C1434 H1425 0.929 . S
C1434 C1426 1.378 . S
C1434 C1429 1.350 . S
C1435 H1422 0.929 . S
C1435 C1427 1.433 . S
C1435 N1437 1.384 . S
N1436 C1432 1.427 . S
N1436 C1433 1.384 . S
N1437 C1429 1.427 . S
N1437 C1435 1.384 . S
H1438 C1444 0.930 . S
H1439 C1448 0.930 . S
H1440 C1453 0.929 . S
H1441 C1451 0.929 . S
H1442 C1446 0.929 . S
H1443 C1452 0.929 . S
C1444 H1438 0.930 . S
C1444 C1445 1.367 . S
C1444 C1452 1.378 . S
C1445 C1444 1.367 . S
C1445 C1453 1.433 . S
C1446 H1442 0.929 . S
C1446 C1448 1.378 . S
C1446 C1450 1.350 . S
C1447 C1450 1.463 . S
C1447 C1452 1.350 . S
C1447 N1455 1.427 . S
C1448 H1439 0.930 . S
C1448 C1446 1.378 . S
C1448 C1449 1.367 . S
C1449 C1448 1.367 . S
C1449 C1451 1.433 . S
C1450 C1446 1.350 . S
C1450 C1447 1.463 . S
C1450 N1454 1.427 . S
C1451 H1441 0.929 . S
C1451 C1449 1.433 . S
C1451 N1454 1.384 . S
C1452 H1443 0.929 . S
C1452 C1444 1.378 . S
C1452 C1447 1.350 . S
C1453 H1440 0.929 . S
C1453 C1445 1.433 . S
C1453 N1455 1.384 . S
N1454 C1450 1.427 . S
N1454 C1451 1.384 . S
N1455 C1447 1.427 . S
N1455 C1453 1.384 . S
H1456 C1462 0.930 . S
H1457 C1466 0.930 . S
H1458 C1471 0.929 . S
H1459 C1469 0.929 . S
H1460 C1464 0.929 1_554 S
H1461 C1470 0.929 . S
C1462 H1456 0.930 . S
C1462 C1463 1.367 . S
C1462 C1470 1.378 . S
C1463 C1462 1.367 . S
C1463 C1471 1.433 . S
C1464 H1460 0.929 1_556 S
C1464 C1466 1.378 . S
C1464 C1468 1.350 1_556 S
C1465 C1468 1.463 . S
C1465 C1470 1.350 . S
C1465 N1473 1.427 . S
C1466 H1457 0.930 . S
C1466 C1464 1.378 . S
C1466 C1467 1.367 . S
C1467 C1466 1.367 . S
C1467 C1469 1.433 . S
C1468 C1464 1.350 1_554 S
C1468 C1465 1.463 . S
C1468 N1472 1.427 . S
C1469 H1459 0.929 . S
C1469 C1467 1.433 . S
C1469 N1472 1.384 1_556 S
C1470 H1461 0.929 . S
C1470 C1462 1.378 . S
C1470 C1465 1.350 . S
C1471 H1458 0.929 . S
C1471 C1463 1.433 . S
C1471 N1473 1.384 . S
N1472 C1468 1.427 . S
N1472 C1469 1.384 1_554 S
N1473 C1465 1.427 . S
N1473 C1471 1.384 . S
H1474 C1480 0.930 . S
H1475 C1484 0.930 . S
H1476 C1489 0.929 . S
H1477 C1487 0.929 . S
H1478 C1482 0.929 . S
H1479 C1488 0.929 . S
C1480 H1474 0.930 . S
C1480 C1481 1.367 . S
C1480 C1488 1.378 . S
C1481 C1480 1.367 . S
C1481 C1489 1.433 . S
C1482 H1478 0.929 . S
C1482 C1484 1.378 . S
C1482 C1486 1.350 . S
C1483 C1486 1.463 . S
C1483 C1488 1.350 . S
C1483 N1491 1.427 . S
C1484 H1475 0.930 . S
C1484 C1482 1.378 . S
C1484 C1485 1.367 . S
C1485 C1484 1.367 . S
C1485 C1487 1.433 . S
C1486 C1482 1.350 . S
C1486 C1483 1.463 . S
C1486 N1490 1.427 . S
C1487 H1477 0.929 . S
C1487 C1485 1.433 . S
C1487 N1490 1.384 . S
C1488 H1479 0.929 . S
C1488 C1480 1.378 . S
C1488 C1483 1.350 . S
C1489 H1476 0.929 . S
C1489 C1481 1.433 . S
C1489 N1491 1.384 . S
N1490 C1486 1.427 . S
N1490 C1487 1.384 . S
N1491 C1483 1.427 . S
N1491 C1489 1.384 . S
H1492 C1498 0.930 . S
H1493 C1502 0.930 . S
H1494 C1507 0.929 . S
H1495 C1505 0.929 . S
H1496 C1500 0.929 . S
H1497 C1506 0.929 . S
C1498 H1492 0.930 . S
C1498 C1499 1.367 . S
C1498 C1506 1.378 . S
C1499 C1498 1.367 . S
C1499 C1507 1.433 . S
C1500 H1496 0.929 . S
C1500 C1502 1.378 . S
C1500 C1504 1.350 . S
C1501 C1504 1.463 . S
C1501 C1506 1.350 . S
C1501 N1509 1.427 . S
C1502 H1493 0.930 . S
C1502 C1500 1.378 . S
C1502 C1503 1.367 . S
C1503 C1502 1.367 . S
C1503 C1505 1.433 . S
C1504 C1500 1.350 . S
C1504 C1501 1.463 . S
C1504 N1508 1.427 . S
C1505 H1495 0.929 . S
C1505 C1503 1.433 . S
C1505 N1508 1.384 . S
C1506 H1497 0.929 . S
C1506 C1498 1.378 . S
C1506 C1501 1.350 . S
C1507 H1494 0.929 . S
C1507 C1499 1.433 . S
C1507 N1509 1.384 . S
N1508 C1504 1.427 . S
N1508 C1505 1.384 . S
N1509 C1501 1.427 . S
N1509 C1507 1.384 . S
H1510 C1516 0.930 . S
H1511 C1520 0.930 . S
H1512 C1525 0.929 . S
H1513 C1523 0.929 . S
H1514 C1518 0.929 . S
H1515 C1524 0.929 . S
C1516 H1510 0.930 . S
C1516 C1517 1.367 . S
C1516 C1524 1.378 . S
C1517 C1516 1.367 . S
C1517 C1525 1.433 . S
C1518 H1514 0.929 . S
C1518 C1520 1.378 . S
C1518 C1522 1.350 . S
C1519 C1522 1.463 . S
C1519 C1524 1.350 . S
C1519 N1527 1.427 . S
C1520 H1511 0.930 . S
C1520 C1518 1.378 . S
C1520 C1521 1.367 . S
C1521 C1520 1.367 . S
C1521 C1523 1.433 . S
C1522 C1518 1.350 . S
C1522 C1519 1.463 . S
C1522 N1526 1.427 . S
C1523 H1513 0.929 . S
C1523 C1521 1.433 . S
C1523 N1526 1.384 . S
C1524 H1515 0.929 . S
C1524 C1516 1.378 . S
C1524 C1519 1.350 . S
C1525 H1512 0.929 . S
C1525 C1517 1.433 . S
C1525 N1527 1.384 . S
N1526 C1522 1.427 . S
N1526 C1523 1.384 . S
N1527 C1519 1.427 . S
N1527 C1525 1.384 . S
H1528 C1534 0.930 . S
H1529 C1538 0.930 . S
H1530 C1543 0.934 . S
H1531 C1541 0.929 . S
H1532 C1536 0.929 . S
H1533 C1542 0.929 . S
C1534 H1528 0.930 . S
C1534 C1535 1.367 . S
C1534 C1542 1.378 . S
C1535 C1534 1.367 . S
C1535 C1543 1.417 1_554 S
C1536 H1532 0.929 . S
C1536 C1538 1.378 . S
C1536 C1540 1.350 . S
C1537 C1540 1.463 . S
C1537 C1542 1.350 1_556 S
C1537 N1545 1.427 . S
C1538 H1529 0.930 . S
C1538 C1536 1.378 . S
C1538 C1539 1.367 . S
C1539 C1538 1.367 . S
C1539 C1541 1.433 . S
C1540 C1536 1.350 . S
C1540 C1537 1.463 . S
C1540 N1544 1.427 . S
C1541 H1531 0.929 . S
C1541 C1539 1.433 . S
C1541 N1544 1.384 . S
C1542 H1533 0.929 . S
C1542 C1534 1.378 . S
C1542 C1537 1.350 1_554 S
C1543 H1530 0.934 . S
C1543 C1535 1.417 1_556 S
C1543 N1545 1.396 . S
N1544 C1540 1.427 . S
N1544 C1541 1.384 . S
N1545 C1537 1.427 . S
N1545 C1543 1.396 . S
H1546 C1552 0.930 . S
H1547 C1556 0.930 . S
H1548 C1561 0.929 . S
H1549 C1559 0.929 . S
H1550 C1554 0.929 . S
H1551 C1560 0.929 . S
C1552 H1546 0.930 . S
C1552 C1553 1.367 . S
C1552 C1560 1.378 . S
C1553 C1552 1.367 . S
C1553 C1561 1.433 . S
C1554 H1550 0.929 . S
C1554 C1556 1.378 . S
C1554 C1558 1.350 . S
C1555 C1558 1.463 . S
C1555 C1560 1.350 . S
C1555 N1563 1.427 . S
C1556 H1547 0.930 . S
C1556 C1554 1.378 . S
C1556 C1557 1.367 . S
C1557 C1556 1.367 . S
C1557 C1559 1.433 . S
C1558 C1554 1.350 . S
C1558 C1555 1.463 . S
C1558 N1562 1.427 . S
C1559 H1549 0.929 . S
C1559 C1557 1.433 . S
C1559 N1562 1.384 . S
C1560 H1551 0.929 . S
C1560 C1552 1.378 . S
C1560 C1555 1.350 . S
C1561 H1548 0.929 . S
C1561 C1553 1.433 . S
C1561 N1563 1.384 . S
N1562 C1558 1.427 . S
N1562 C1559 1.384 . S
N1563 C1555 1.427 . S
N1563 C1561 1.384 . S
H1564 C1570 0.930 . S
H1565 C1574 0.930 . S
H1566 C1579 0.929 . S
H1567 C1577 0.929 . S
H1568 C1572 0.929 . S
H1569 C1578 0.929 . S
C1570 H1564 0.930 . S
C1570 C1571 1.367 . S
C1570 C1578 1.378 . S
C1571 C1570 1.367 . S
C1571 C1579 1.433 . S
C1572 H1568 0.929 . S
C1572 C1574 1.378 . S
C1572 C1576 1.350 . S
C1573 C1576 1.463 . S
C1573 C1578 1.350 . S
C1573 N1581 1.427 . S
C1574 H1565 0.930 . S
C1574 C1572 1.378 . S
C1574 C1575 1.367 . S
C1575 C1574 1.367 . S
C1575 C1577 1.433 . S
C1576 C1572 1.350 . S
C1576 C1573 1.463 . S
C1576 N1580 1.427 . S
C1577 H1567 0.929 . S
C1577 C1575 1.433 . S
C1577 N1580 1.384 . S
C1578 H1569 0.929 . S
C1578 C1570 1.378 . S
C1578 C1573 1.350 . S
C1579 H1566 0.929 . S
C1579 C1571 1.433 . S
C1579 N1581 1.384 . S
N1580 C1576 1.427 . S
N1580 C1577 1.384 . S
N1581 C1573 1.427 . S
N1581 C1579 1.384 . S
H1582 C1588 0.930 . S
H1583 C1592 0.930 . S
H1584 C1597 0.929 . S
H1585 C1595 0.929 . S
H1586 C1590 0.929 . S
H1587 C1596 0.929 . S
C1588 H1582 0.930 . S
C1588 C1589 1.367 . S
C1588 C1596 1.378 . S
C1589 C1588 1.367 . S
C1589 C1597 1.433 . S
C1590 H1586 0.929 . S
C1590 C1592 1.378 . S
C1590 C1594 1.350 . S
C1591 C1594 1.463 . S
C1591 C1596 1.350 . S
C1591 N1599 1.427 . S
C1592 H1583 0.930 . S
C1592 C1590 1.378 . S
C1592 C1593 1.367 . S
C1593 C1592 1.367 . S
C1593 C1595 1.433 . S
C1594 C1590 1.350 . S
C1594 C1591 1.463 . S
C1594 N1598 1.427 . S
C1595 H1585 0.929 . S
C1595 C1593 1.433 . S
C1595 N1598 1.384 . S
C1596 H1587 0.929 . S
C1596 C1588 1.378 . S
C1596 C1591 1.350 . S
C1597 H1584 0.929 . S
C1597 C1589 1.433 . S
C1597 N1599 1.384 . S
N1598 C1594 1.427 . S
N1598 C1595 1.384 . S
N1599 C1591 1.427 . S
N1599 C1597 1.384 . S
C455 C4 1.219 . S
C459 C186 1.230 . S
C473 C354 1.186 . S
C477 C18 1.190 . S
C491 C32 1.259 . S
C495 C214 1.266 . S
C509 C46 1.245 . S
C513 C340 1.232 . S
C527 C60 1.202 . S
C531 C242 1.201 . S
C545 C74 1.238 . S
C549 C312 1.239 . S
C563 C88 1.218 . S
C567 C270 1.218 . S
C581 C438 1.225 . S
C585 C102 1.225 . S
C599 C298 1.212 . S
C603 C116 1.206 . S
C617 C130 1.237 . S
C621 C256 1.238 . S
C635 C326 1.216 . S
C639 C144 1.216 . S
C653 C158 1.242 . S
C657 C228 1.247 . S
C671 C200 1.200 . S
C675 C172 1.190 . S
C689 C284 1.228 . S
C693 C396 1.228 . S
C707 C410 1.230 . S
C711 C368 1.227 . S
C725 C424 1.257 . S
C729 C382 1.262 . S
C743 C12 1.531 . S
C747 C26 1.530 . S
C761 C33 1.334 . S
C765 C25 1.458 . S
C779 C54 1.532 . S
C783 C40 1.536 . S
C797 C53 1.494 . S
C801 C5 1.374 . S
C815 C110 1.504 . S
C819 C68 1.505 . S
C833 C81 1.493 . S
C837 C61 1.377 . S
C851 C96 1.481 . S
C855 C82 1.483 . S
C869 C89 1.392 . S
C873 C109 1.506 . S
C887 C131 1.384 . S
C891 C11 1.502 . S
C905 C123 1.429 . S
C909 C47 1.315 . S
C923 C151 1.485 . S
C927 C19 1.377 . S
C941 C389 1.513 . S
C945 C103 1.401 . S
C959 C397 1.389 . S
C963 C39 1.511 . S
C977 C159 1.315 . S
C981 C67 1.430 . S
C995 C95 1.489 . S
C999 C173 1.379 . S
C1013 C201 1.342 . S
C1017 C187 1.344 . S
C1031 C222 1.463 . S
C1035 C207 1.416 . S
C1049 C229 1.348 . S
C1053 C215 1.333 . S
C1067 C194 1.465 . S
C1071 C235 1.414 . S
C1085 C243 1.362 . S
C1089 C291 1.458 . S
C1103 C250 1.576 . S
C1107 C264 1.571 . S
C1121 C277 1.516 . S
C1125 C263 1.517 . S
C1139 C271 1.366 . S
C1143 C292 1.514 . S
C1157 C193 1.458 . S
C1161 C313 1.347 . S
C1175 C305 1.464 . S
C1179 C236 1.506 . S
C1193 C334 1.546 . S
C1197 C208 1.547 . S
C1211 C431 1.386 . S
C1215 C285 1.293 . S
C1229 C439 1.299 . S
C1233 C221 1.400 . S
C1247 C249 1.451 . S
C1251 C348 1.504 . S
C1265 C362 1.542 . S
C1269 C278 1.540 . S
C1283 C180 1.527 . S
C1287 C376 1.531 . S
C1301 C383 1.355 . S
C1305 C179 1.463 . S
C1319 C166 1.530 . S
C1323 C390 1.534 . S
C1337 C165 1.487 . S
C1341 C369 1.374 . S
C1355 C124 1.502 . S
C1359 C404 1.506 . S
C1373 C137 1.496 . S
C1377 C117 1.368 . S
C1391 C152 1.480 . S
C1395 C138 1.478 . S
C1409 C145 1.391 . S
C1413 C403 1.504 . S
C1427 C375 1.491 . S
C1431 C75 1.366 . S
C1445 C355 1.347 . S
C1449 C411 1.354 . S
C1463 C361 1.414 . S
C1467 C432 1.461 . S
C1481 C425 1.353 . S
C1485 C341 1.339 . S
C1499 C347 1.424 . S
C1503 C418 1.466 . S
C1517 C445 1.469 . S
C1521 C299 1.345 . S
C1535 C306 1.578 . S
C1539 C320 1.573 . S
C1553 C333 1.516 . S
C1557 C319 1.511 . S
C1571 C327 1.377 . S
C1575 C446 1.519 . S
C1589 C417 1.444 . S
C1593 C257 1.359 . S
