# Generated by pormake.
# Topology ecf, (8)-cn, num edge types: 1
# Building blocks:
#     Node 0, Type 0, BuildingBlock: VETTIZ_charged_sbu_0, # of connection points: 8
#     Node 1, Type 0, BuildingBlock: VETTIZ_charged_sbu_0, # of connection points: 8
#     Node 2, Type 0, BuildingBlock: VETTIZ_charged_sbu_0, # of connection points: 8
#     Node 3, Type 0, BuildingBlock: VETTIZ_charged_sbu_0, # of connection points: 8
#     Node 4, Type 0, BuildingBlock: VETTIZ_charged_sbu_0, # of connection points: 8
#     Node 5, Type 0, BuildingBlock: VETTIZ_charged_sbu_0, # of connection points: 8
#     Edge 6, Type (0, 0), BuildingBlock: ZUJKAS_clean_linker_0, # of connection points: 2
#     Edge 7, Type (0, 0), BuildingBlock: ZUJKAS_clean_linker_0, # of connection points: 2
#     Edge 8, Type (0, 0), BuildingBlock: ZUJKAS_clean_linker_0, # of connection points: 2
#     Edge 9, Type (0, 0), BuildingBlock: ZUJKAS_clean_linker_0, # of connection points: 2
#     Edge 10, Type (0, 0), BuildingBlock: ZUJKAS_clean_linker_0, # of connection points: 2
#     Edge 11, Type (0, 0), BuildingBlock: ZUJKAS_clean_linker_0, # of connection points: 2
#     Edge 12, Type (0, 0), BuildingBlock: ZUJKAS_clean_linker_0, # of connection points: 2
#     Edge 13, Type (0, 0), BuildingBlock: ZUJKAS_clean_linker_0, # of connection points: 2
#     Edge 14, Type (0, 0), BuildingBlock: ZUJKAS_clean_linker_0, # of connection points: 2
#     Edge 15, Type (0, 0), BuildingBlock: ZUJKAS_clean_linker_0, # of connection points: 2
#     Edge 16, Type (0, 0), BuildingBlock: ZUJKAS_clean_linker_0, # of connection points: 2
#     Edge 17, Type (0, 0), BuildingBlock: ZUJKAS_clean_linker_0, # of connection points: 2
#     Edge 18, Type (0, 0), BuildingBlock: ZUJKAS_clean_linker_0, # of connection points: 2
#     Edge 19, Type (0, 0), BuildingBlock: ZUJKAS_clean_linker_0, # of connection points: 2
#     Edge 20, Type (0, 0), BuildingBlock: ZUJKAS_clean_linker_0, # of connection points: 2
#     Edge 21, Type (0, 0), BuildingBlock: ZUJKAS_clean_linker_0, # of connection points: 2
#     Edge 22, Type (0, 0), BuildingBlock: ZUJKAS_clean_linker_0, # of connection points: 2
#     Edge 23, Type (0, 0), BuildingBlock: ZUJKAS_clean_linker_0, # of connection points: 2
#     Edge 24, Type (0, 0), BuildingBlock: ZUJKAS_clean_linker_0, # of connection points: 2
#     Edge 25, Type (0, 0), BuildingBlock: ZUJKAS_clean_linker_0, # of connection points: 2
#     Edge 26, Type (0, 0), BuildingBlock: ZUJKAS_clean_linker_0, # of connection points: 2
#     Edge 27, Type (0, 0), BuildingBlock: ZUJKAS_clean_linker_0, # of connection points: 2
#     Edge 28, Type (0, 0), BuildingBlock: ZUJKAS_clean_linker_0, # of connection points: 2
#     Edge 29, Type (0, 0), BuildingBlock: ZUJKAS_clean_linker_0, # of connection points: 2
# Relax obj value: 0.148
# Max RMSD: 0.140
# Mean RMSD: 0.140
data_MOF--net-ecf--node1-VETTIZ_charged_sbu_0--edge1-ZUJKAS_clean_linker_0
_symmetry_space_group_name_H-M    P1
_symmetry_Int_Tables_number       1
_symmetry_cell_setting            triclinic
loop_
_symmetry_equiv_pos_as_xyz
'x, y, z'
_cell_length_a     41.897375
_cell_length_b     41.837936
_cell_length_c     34.836539
_cell_angle_alpha  89.053729
_cell_angle_beta   90.8491
_cell_angle_gamma 120.17973
loop_
_atom_site_label
_atom_site_type_symbol
_atom_site_fract_x
_atom_site_fract_y
_atom_site_fract_z
_atom_type_partial_charge
Fe0 Fe 0.13169 0.30382 0.24999 0.0
O1 O 0.11151 0.30904 0.29927 0.0
Fe2 Fe 0.20303 0.39139 0.22989 0.0
Fe3 Fe 0.08373 0.26756 0.33421 0.0
O4 O 0.17747 0.34949 0.26568 0.0
O5 O 0.17857 0.3516 0.26867 0.0
O6 O 0.11212 0.31148 0.30168 0.0
Fe7 Fe 0.15805 0.35703 0.31837 0.0
C8 C 0.0492 0.24475 0.25454 0.0
O9 O 0.15111 0.27238 0.27548 0.0
O10 O 0.10158 0.23434 0.30987 0.0
O11 O 0.21041 0.40453 0.32808 0.0
O12 O 0.24316 0.41121 0.27237 0.0
O13 O 0.21596 0.3556 0.20293 0.0
O14 O 0.15846 0.30352 0.19967 0.0
O15 O 0.12499 0.28356 0.37507 0.0
O16 O 0.17726 0.32588 0.34693 0.0
C17 C 0.19262 0.32349 0.18877 0.0
O18 O 0.13905 0.3894 0.29259 0.0
O19 O 0.18596 0.42484 0.25383 0.0
O20 O 0.08098 0.25723 0.23819 0.0
O21 O 0.04484 0.25031 0.29023 0.0
C22 C 0.13173 0.24206 0.2935 0.0
C23 C 0.16014 0.30192 0.37336 0.0
C24 C 0.0939 0.33472 0.37706 0.0
O25 O 0.07124 0.30345 0.36084 0.0
O26 O 0.12889 0.35577 0.36849 0.0
C27 C 0.24095 0.4183 0.30824 0.0
O28 O 0.15951 0.37292 0.19004 0.0
O29 O 0.11111 0.33386 0.2244 0.0
C30 C 0.15744 0.41863 0.27239 0.0
C31 C 0.12469 0.3545 0.19522 0.0
Fe32 Fe 0.84964 0.14663 0.75229 0.0
O33 O 0.87014 0.17348 0.80146 0.0
Fe34 Fe 0.78277 0.16855 0.72772 0.0
Fe35 Fe 0.89438 0.15845 0.84012 0.0
O36 O 0.80571 0.15065 0.7654 0.0
O37 O 0.80486 0.15233 0.76825 0.0
O38 O 0.86938 0.17525 0.80415 0.0
Fe39 Fe 0.82532 0.17898 0.81789 0.0
C40 C 0.84488 0.0845 0.79947 0.0
O41 O 0.8995 0.14739 0.74435 0.0
O42 O 0.93419 0.17652 0.79818 0.0
O43 O 0.8484 0.23006 0.79107 0.0
O44 O 0.80379 0.22085 0.7492 0.0
O45 O 0.82638 0.18969 0.68884 0.0
O46 O 0.87362 0.19664 0.72446 0.0
O47 O 0.90976 0.20863 0.86449 0.0
O48 O 0.85405 0.20733 0.86838 0.0
C49 C 0.86103 0.20465 0.69488 0.0
O50 O 0.77515 0.17863 0.82468 0.0
O51 O 0.74232 0.15189 0.76879 0.0
O52 O 0.82709 0.09602 0.77928 0.0
O53 O 0.87426 0.10636 0.81779 0.0
C54 C 0.93073 0.16534 0.76295 0.0
C55 C 0.88862 0.22005 0.87818 0.0
C56 C 0.81671 0.11987 0.87427 0.0
O57 O 0.85162 0.13614 0.87898 0.0
O58 O 0.80191 0.1287 0.84696 0.0
C59 C 0.83283 0.24217 0.76821 0.0
O60 O 0.76628 0.11795 0.70392 0.0
O61 O 0.82114 0.11776 0.70207 0.0
C62 C 0.74484 0.16261 0.80411 0.0
C63 C 0.78683 0.10531 0.6915 0.0
Fe64 Fe 0.69694 0.8508 0.24042 0.0
O65 O 0.6849 0.87079 0.286 0.0
Fe66 Fe 0.6133 0.77529 0.21504 0.0
Fe67 Fe 0.72163 0.90055 0.32483 0.0
O68 O 0.65136 0.80365 0.25382 0.0
O69 O 0.64879 0.80274 0.25624 0.0
O70 O 0.68243 0.86981 0.28847 0.0
Fe71 Fe 0.63766 0.82245 0.30326 0.0
C72 C 0.75395 0.85502 0.29629 0.0
O73 O 0.74257 0.90348 0.23094 0.0
O74 O 0.74089 0.93863 0.28032 0.0
O75 O 0.6051 0.83809 0.27254 0.0
O76 O 0.5768 0.79186 0.23063 0.0
O77 O 0.63446 0.81718 0.17308 0.0
O78 O 0.6675 0.8677 0.20719 0.0
O79 O 0.68096 0.90971 0.34452 0.0
O80 O 0.63296 0.8498 0.35183 0.0
C81 C 0.65138 0.85229 0.1762 0.0
O82 O 0.5917 0.76969 0.31165 0.0
O83 O 0.58976 0.73577 0.25883 0.0
O84 O 0.72768 0.83482 0.27347 0.0
O85 O 0.7594 0.88614 0.30764 0.0
C86 C 0.75107 0.93496 0.24636 0.0
C87 C 0.651 0.88475 0.3611 0.0
C88 C 0.69023 0.82455 0.36388 0.0
O89 O 0.70445 0.8595 0.36651 0.0
O90 O 0.66897 0.8064 0.33603 0.0
C91 C 0.57963 0.8197 0.24807 0.0
O92 O 0.65333 0.76418 0.19605 0.0
O93 O 0.70376 0.82324 0.19394 0.0
C94 C 0.57938 0.73878 0.29309 0.0
C95 C 0.68602 0.78859 0.18379 0.0
Fe96 Fe 0.91463 0.73491 0.70532 0.0
O97 O 0.88716 0.69333 0.74018 0.0
Fe98 Fe 0.84042 0.64535 0.72142 0.0
Fe99 Fe 0.86818 0.69853 0.79028 0.0
O100 O 0.88643 0.69093 0.73764 0.0
O101 O 0.82076 0.65095 0.77171 0.0
O102 O 0.82198 0.65313 0.77488 0.0
Fe103 Fe 0.79705 0.61124 0.81083 0.0
C104 C 0.95057 0.75609 0.78428 0.0
O105 O 0.8979 0.76837 0.73113 0.0
O106 O 0.84885 0.73047 0.76621 0.0
O107 O 0.75625 0.59102 0.76892 0.0
O108 O 0.78808 0.59776 0.71249 0.0
O109 O 0.82066 0.67611 0.69335 0.0
O110 O 0.87253 0.71999 0.66578 0.0
O111 O 0.8422 0.69871 0.84136 0.0
O112 O 0.78439 0.647 0.83817 0.0
C113 C 0.8374 0.70128 0.66786 0.0
O114 O 0.81428 0.57811 0.78664 0.0
O115 O 0.86002 0.6134 0.74648 0.0
O116 O 0.95411 0.75069 0.74836 0.0
O117 O 0.91943 0.74492 0.80152 0.0
C118 C 0.86822 0.76088 0.74837 0.0
C119 C 0.80804 0.67894 0.85246 0.0
C120 C 0.87578 0.64803 0.84427 0.0
O121 O 0.88882 0.66801 0.81459 0.0
O122 O 0.84106 0.63001 0.85014 0.0
C123 C 0.75788 0.584 0.73288 0.0
O124 O 0.86869 0.64639 0.67066 0.0
O125 O 0.9262 0.69902 0.67734 0.0
C126 C 0.84265 0.58468 0.76757 0.0
C127 C 0.9035 0.66759 0.66149 0.0
Fe128 Fe 0.10445 0.84444 0.20224 0.0
O129 O 0.12936 0.82901 0.23958 0.0
Fe130 Fe 0.17467 0.82445 0.22261 0.0
Fe131 Fe 0.14918 0.85468 0.28938 0.0
O132 O 0.13015 0.82729 0.23686 0.0
O133 O 0.19469 0.85034 0.2727 0.0
O134 O 0.19379 0.85201 0.27564 0.0
Fe135 Fe 0.21707 0.8336 0.31246 0.0
C136 C 0.15204 0.91729 0.24526 0.0
O137 O 0.06426 0.8235 0.24379 0.0
O138 O 0.09847 0.85228 0.29795 0.0
O139 O 0.1976 0.78219 0.28895 0.0
O140 O 0.15199 0.77286 0.24869 0.0
O141 O 0.1464 0.79695 0.17168 0.0
O142 O 0.09065 0.79566 0.17533 0.0
O143 O 0.12588 0.80405 0.31576 0.0
O144 O 0.17309 0.81047 0.35103 0.0
C145 C 0.11202 0.78461 0.16141 0.0
O146 O 0.25791 0.85221 0.27163 0.0
O147 O 0.22538 0.82576 0.21552 0.0
O148 O 0.12255 0.89517 0.22724 0.0
O149 O 0.17097 0.90594 0.26365 0.0
C150 C 0.0673 0.83381 0.2793 0.0
C151 C 0.13842 0.79559 0.34504 0.0
C152 C 0.21143 0.8953 0.35086 0.0
O153 O 0.17712 0.88263 0.34019 0.0
O154 O 0.23238 0.88325 0.33809 0.0
C155 C 0.16868 0.76068 0.26987 0.0
O156 O 0.19767 0.87505 0.19411 0.0
O157 O 0.14769 0.8699 0.16423 0.0
C158 C 0.25568 0.84197 0.23617 0.0
C159 C 0.18262 0.8854 0.16841 0.0
Fe160 Fe 0.27981 0.0995 0.71807 0.0
O161 O 0.31681 0.13169 0.75531 0.0
Fe162 Fe 0.36201 0.18091 0.73661 0.0
Fe163 Fe 0.30439 0.15092 0.8012 0.0
O164 O 0.31913 0.13277 0.75275 0.0
O165 O 0.35054 0.20018 0.78383 0.0
O166 O 0.34798 0.19915 0.7864 0.0
Fe167 Fe 0.3862 0.22888 0.8246 0.0
C168 C 0.24422 0.14169 0.74733 0.0
O169 O 0.26487 0.06266 0.76366 0.0
O170 O 0.26108 0.0973 0.81239 0.0
O171 O 0.42383 0.21387 0.80883 0.0
O172 O 0.39664 0.1677 0.7667 0.0
O173 O 0.36721 0.15395 0.68793 0.0
O174 O 0.32185 0.09319 0.697 0.0
O175 O 0.33685 0.13694 0.83319 0.0
O176 O 0.36675 0.18762 0.86741 0.0
C177 C 0.35034 0.1189 0.67908 0.0
O178 O 0.40811 0.26804 0.7803 0.0
O179 O 0.4063 0.23451 0.72716 0.0
O180 O 0.24028 0.11092 0.73671 0.0
O181 O 0.27075 0.16362 0.76897 0.0
C182 C 0.25557 0.06641 0.79804 0.0
C183 C 0.35193 0.15267 0.86434 0.0
C184 C 0.31331 0.21293 0.85713 0.0
O185 O 0.2969 0.17806 0.8478 0.0
O186 O 0.34517 0.23823 0.84387 0.0
C187 C 0.4219 0.18654 0.79117 0.0
O188 O 0.32822 0.19406 0.70419 0.0
O189 O 0.2932 0.13953 0.67563 0.0
C190 C 0.41824 0.26534 0.74579 0.0
C191 C 0.30679 0.17452 0.67699 0.0
H192 H 0.09762 0.41802 0.30586 0.0
H193 H 0.08257 0.46777 0.30409 0.0
H194 H 0.17915 0.53489 0.23559 0.0
H195 H 0.19377 0.48576 0.23633 0.0
H196 H 0.12066 0.53658 0.33116 0.0
H197 H 0.10393 0.54707 0.17531 0.0
H198 H 0.10473 0.508 0.19706 0.0
H199 H 0.14722 0.54957 0.18502 0.0
C200 C 0.11536 0.44323 0.29004 0.0
C201 C 0.14681 0.44766 0.27108 0.0
C202 C 0.10671 0.47163 0.28903 0.0
C203 C 0.12921 0.50481 0.26888 0.0
C204 C 0.1606 0.50919 0.25022 0.0
H205 H 0.20046 0.7266 0.30874 0.0
H206 H 0.18207 0.66165 0.30955 0.0
C207 C 0.16913 0.48099 0.25103 0.0
C208 C 0.1221 0.5363 0.26937 0.0
H209 H 0.12417 0.60387 0.21123 0.0
C210 C 0.12057 0.55081 0.30489 0.0
C211 C 0.12092 0.55453 0.23519 0.0
C212 C 0.11884 0.53866 0.19604 0.0
C213 C 0.12109 0.58459 0.30715 0.0
C214 C 0.12428 0.60492 0.27306 0.0
C215 C 0.12254 0.58882 0.23748 0.0
C216 C 0.13353 0.64426 0.2738 0.0
C217 C 0.11905 0.59849 0.34621 0.0
C218 C 0.11309 0.65672 0.25235 0.0
C219 C 0.12396 0.69443 0.25129 0.0
C220 C 0.15561 0.72038 0.27151 0.0
C221 C 0.17578 0.7076 0.293 0.0
C222 C 0.16506 0.67019 0.29386 0.0
H223 H 0.10259 0.57508 0.36625 0.0
H224 H 0.14732 0.61464 0.35846 0.0
H225 H 0.10658 0.61645 0.34463 0.0
H226 H 0.0889 0.63731 0.23622 0.0
H227 H 0.10782 0.70325 0.23435 0.0
H228 H 0.4442 0.14831 0.74598 0.0
H229 H 0.49658 0.13849 0.75784 0.0
H230 H 0.5179 0.19429 0.86616 0.0
H231 H 0.46601 0.20441 0.85462 0.0
H232 H 0.57249 0.20269 0.77308 0.0
H233 H 0.51966 0.09501 0.88845 0.0
H234 H 0.48942 0.10076 0.85507 0.0
H235 H 0.51117 0.13287 0.89344 0.0
C236 C 0.45973 0.15801 0.77254 0.0
C237 C 0.45119 0.17741 0.7992 0.0
C238 C 0.48959 0.15241 0.77925 0.0
C239 C 0.5108 0.16546 0.81299 0.0
C240 C 0.50157 0.18369 0.84017 0.0
H241 H 0.737 0.21257 0.84654 0.0
H242 H 0.67904 0.21271 0.85609 0.0
C243 C 0.47209 0.18967 0.83334 0.0
C244 C 0.54456 0.16305 0.81837 0.0
H245 H 0.58297 0.12217 0.87273 0.0
C246 C 0.57485 0.18514 0.79486 0.0
C247 C 0.54737 0.14019 0.84694 0.0
C248 C 0.51518 0.1156 0.87238 0.0
C249 C 0.60808 0.18497 0.79911 0.0
C250 C 0.61104 0.16226 0.82779 0.0
C251 C 0.58068 0.13999 0.85125 0.0
C252 C 0.64447 0.15896 0.83083 0.0
C253 C 0.6396 0.20847 0.77237 0.0
C254 C 0.64373 0.12796 0.81527 0.0
C255 C 0.67658 0.12793 0.80962 0.0
C256 C 0.71063 0.15876 0.81985 0.0
C257 C 0.71107 0.18837 0.83874 0.0
C258 C 0.67809 0.18856 0.84398 0.0
H259 H 0.63123 0.2209 0.74869 0.0
H260 H 0.66238 0.23119 0.78881 0.0
H261 H 0.65051 0.19171 0.75973 0.0
H262 H 0.61802 0.10491 0.80496 0.0
H263 H 0.67556 0.10473 0.7951 0.0
H264 H 0.25171 0.46594 0.36722 0.0
H265 H 0.31072 0.51981 0.38661 0.0
H266 H 0.36816 0.48838 0.30754 0.0
H267 H 0.31008 0.43456 0.28897 0.0
H268 H 0.40802 0.51735 0.37404 0.0
H269 H 0.35725 0.60772 0.31255 0.0
H270 H 0.33119 0.57746 0.35143 0.0
H271 H 0.33241 0.55834 0.30606 0.0
C272 C 0.27706 0.47006 0.35478 0.0
C273 C 0.27616 0.44637 0.32606 0.0
C274 C 0.3107 0.50101 0.3656 0.0
C275 C 0.34375 0.50859 0.34781 0.0
C276 C 0.34305 0.48329 0.32147 0.0
H277 H 0.5532 0.66684 0.27233 0.0
H278 H 0.4979 0.61194 0.29577 0.0
C279 C 0.3097 0.45258 0.31072 0.0
C280 C 0.37869 0.54421 0.35308 0.0
H281 H 0.41989 0.63566 0.32812 0.0
C282 C 0.41052 0.54338 0.36474 0.0
C283 C 0.38197 0.57819 0.34083 0.0
C284 C 0.34904 0.58072 0.32674 0.0
C285 C 0.44568 0.57515 0.36265 0.0
C286 C 0.44907 0.6085 0.3483 0.0
C287 C 0.41713 0.60997 0.33907 0.0
C288 C 0.48536 0.64097 0.33842 0.0
C289 C 0.479 0.57252 0.37468 0.0
C290 C 0.4968 0.67555 0.35471 0.0
C291 C 0.5285 0.7071 0.34137 0.0
C292 C 0.54902 0.70474 0.31097 0.0
C293 C 0.5381 0.66977 0.29567 0.0
C294 C 0.50661 0.63825 0.30926 0.0
H295 H 0.47151 0.54942 0.39545 0.0
H296 H 0.49098 0.56723 0.34902 0.0
H297 H 0.50052 0.59869 0.38786 0.0
H298 H 0.48058 0.67828 0.377 0.0
H299 H 0.53592 0.73355 0.35376 0.0
H300 H 0.82652 0.27918 0.70666 0.0
H301 H 0.84119 0.34342 0.70341 0.0
H302 H 0.88438 0.36015 0.81911 0.0
H303 H 0.87059 0.29579 0.82214 0.0
H304 H 0.80806 0.36843 0.74872 0.0
H305 H 0.95968 0.4559 0.76707 0.0
H306 H 0.93759 0.40755 0.75482 0.0
H307 H 0.93818 0.42098 0.80372 0.0
C308 C 0.83981 0.29673 0.73117 0.0
C309 C 0.84707 0.28239 0.76481 0.0
C310 C 0.84829 0.33348 0.72922 0.0
C311 C 0.864 0.35672 0.76092 0.0
C312 C 0.87294 0.343 0.79399 0.0
H313 H 0.82504 0.53099 0.82172 0.0
H314 H 0.83527 0.47863 0.81957 0.0
C315 C 0.86486 0.30617 0.7958 0.0
C316 C 0.8663 0.39333 0.76082 0.0
H317 H 0.92419 0.48597 0.77439 0.0
C318 C 0.83359 0.39411 0.75394 0.0
C319 C 0.89961 0.42691 0.76747 0.0
C320 C 0.93585 0.42797 0.77333 0.0
C321 C 0.83306 0.42729 0.7543 0.0
C322 C 0.86598 0.46064 0.76242 0.0
C323 C 0.89897 0.46024 0.76842 0.0
C324 C 0.86558 0.4956 0.76636 0.0
C325 C 0.7971 0.4264 0.74624 0.0
C326 C 0.88055 0.52326 0.73783 0.0
C327 C 0.87477 0.55349 0.73895 0.0
C328 C 0.85377 0.55619 0.76854 0.0
C329 C 0.8408 0.52945 0.79818 0.0
C330 C 0.84674 0.49956 0.79712 0.0
H331 H 0.77652 0.40032 0.73214 0.0
H332 H 0.78527 0.42855 0.77371 0.0
H333 H 0.80163 0.4501 0.72761 0.0
H334 H 0.89518 0.52059 0.71385 0.0
H335 H 0.8852 0.57368 0.71577 0.0
H336 H 0.32471 0.9001 0.24607 0.0
H337 H 0.38264 0.90098 0.23563 0.0
H338 H 0.32281 0.79382 0.18289 0.0
H339 H 0.26443 0.79291 0.19314 0.0
H340 H 0.36612 0.79891 0.24986 0.0
H341 H 0.44823 0.90953 0.14335 0.0
H342 H 0.42716 0.92245 0.17993 0.0
H343 H 0.39851 0.88736 0.14613 0.0
C344 C 0.32403 0.8773 0.23102 0.0
C345 C 0.29017 0.84641 0.22041 0.0
C346 C 0.35717 0.8779 0.22495 0.0
C347 C 0.35702 0.84755 0.20836 0.0
C348 C 0.32345 0.81764 0.19548 0.0
H349 H 0.53692 0.80424 0.18386 0.0
H350 H 0.48461 0.81384 0.17291 0.0
C351 C 0.2902 0.81723 0.2011 0.0
C352 C 0.39093 0.84487 0.21014 0.0
H353 H 0.48106 0.88763 0.18201 0.0
C354 C 0.39113 0.81805 0.23471 0.0
C355 C 0.42356 0.87009 0.19059 0.0
C356 C 0.42446 0.89884 0.16324 0.0
C357 C 0.42335 0.81628 0.2409 0.0
C358 C 0.45616 0.84201 0.22208 0.0
C359 C 0.45588 0.86831 0.19679 0.0
C360 C 0.49046 0.84052 0.22722 0.0
C361 C 0.42229 0.78697 0.26756 0.0
C362 C 0.51151 0.8532 0.26111 0.0
C363 C 0.54167 0.84795 0.26745 0.0
C364 C 0.55077 0.8295 0.24016 0.0
C365 C 0.53035 0.81815 0.20566 0.0
C366 C 0.50058 0.82377 0.19921 0.0
H367 H 0.39377 0.76671 0.27683 0.0
H368 H 0.43427 0.77189 0.2533 0.0
H369 H 0.4393 0.80031 0.29348 0.0
H370 H 0.50396 0.8662 0.28304 0.0
H371 H 0.55686 0.85696 0.29429 0.0
H372 H 0.45818 0.27214 0.68116 0.0
H373 H 0.51389 0.32737 0.65848 0.0
H374 H 0.50287 0.3914 0.74753 0.0
H375 H 0.44711 0.33667 0.77031 0.0
H376 H 0.52595 0.42846 0.67276 0.0
H377 H 0.60955 0.36642 0.7249 0.0
H378 H 0.57244 0.34004 0.69173 0.0
H379 H 0.56224 0.34823 0.73917 0.0
C380 C 0.46712 0.29807 0.69555 0.0
C381 C 0.44829 0.29971 0.72799 0.0
C382 C 0.49911 0.32958 0.68259 0.0
C383 C 0.51279 0.36328 0.70172 0.0
C384 C 0.49283 0.36558 0.73246 0.0
H385 H 0.68937 0.56969 0.75205 0.0
H386 H 0.63047 0.51744 0.73271 0.0
C387 C 0.46096 0.33415 0.74552 0.0
C388 C 0.54936 0.39549 0.69223 0.0
H389 H 0.6416 0.42823 0.70482 0.0
C390 C 0.5513 0.4283 0.67909 0.0
C391 C 0.58239 0.3951 0.7002 0.0
C392 C 0.58187 0.36072 0.71498 0.0
C393 C 0.58538 0.46119 0.67538 0.0
C394 C 0.61825 0.46142 0.68594 0.0
C395 C 0.61642 0.42805 0.69669 0.0
C396 C 0.65372 0.49636 0.69198 0.0
C397 C 0.58574 0.49561 0.66117 0.0
C398 C 0.68669 0.5022 0.67545 0.0
C399 C 0.72079 0.53226 0.68672 0.0
C400 C 0.72236 0.55646 0.71519 0.0
C401 C 0.68916 0.55145 0.7302 0.0
C402 C 0.65531 0.52173 0.71882 0.0
H403 H 0.56238 0.4886 0.641 0.0
H404 H 0.58246 0.51005 0.68592 0.0
H405 H 0.61201 0.51486 0.64649 0.0
H406 H 0.68614 0.48272 0.65496 0.0
H407 H 0.74591 0.53526 0.67483 0.0
H408 H 0.19797 0.25045 0.27078 0.0
H409 H 0.21458 0.20235 0.26567 0.0
H410 H 0.10723 0.12124 0.30802 0.0
H411 H 0.09084 0.16917 0.31437 0.0
H412 H 0.16089 0.11093 0.33888 0.0
H413 H 0.17748 0.12781 0.18047 0.0
H414 H 0.20713 0.16852 0.20748 0.0
H415 H 0.15801 0.14999 0.20783 0.0
C416 C 0.17796 0.2224 0.27921 0.0
C417 C 0.1429 0.21361 0.29262 0.0
C418 C 0.18745 0.1949 0.27607 0.0
C419 C 0.16188 0.15803 0.28568 0.0
C420 C 0.12739 0.14947 0.30029 0.0
H421 H 0.11876 0.95098 0.20864 0.0
H422 H 0.1286 0.01255 0.21932 0.0
C423 C 0.11802 0.17695 0.30384 0.0
C424 C 0.1701 0.12786 0.27949 0.0
H425 H 0.18604 0.08155 0.2094 0.0
C426 C 0.16677 0.10468 0.31065 0.0
C427 C 0.17763 0.1197 0.24257 0.0
C428 C 0.17999 0.14256 0.20757 0.0
C429 C 0.16917 0.0727 0.30568 0.0
C430 C 0.17606 0.06419 0.26863 0.0
C431 C 0.18102 0.08828 0.2378 0.0
C432 C 0.17328 0.02818 0.26023 0.0
C433 C 0.16216 0.04724 0.33971 0.0
C434 C 0.19587 0.01672 0.27886 0.0
C435 C 0.19004 0.98107 0.27309 0.0
C436 C 0.16171 0.95649 0.24831 0.0
C437 C 0.14058 0.96894 0.22822 0.0
C438 C 0.14626 0.00429 0.23418 0.0
H439 H 0.15007 0.05409 0.36422 0.0
H440 H 0.14315 0.018 0.33176 0.0
H441 H 0.18864 0.0498 0.34954 0.0
H442 H 0.21748 0.03501 0.29842 0.0
H443 H 0.20699 0.97248 0.28885 0.0
H444 H 0.0018 0.21195 0.78544 0.0
H445 H 0.05732 0.21564 0.76045 0.0
H446 H 0.99321 0.13809 0.67177 0.0
H447 H 0.9369 0.13364 0.69711 0.0
H448 H 0.03134 0.11522 0.71627 0.0
H449 H 0.12619 0.25901 0.6703 0.0
H450 H 0.10743 0.25785 0.71655 0.0
H451 H 0.07711 0.24069 0.67538 0.0
C452 C 0.99942 0.19612 0.76018 0.0
C453 C 0.96477 0.17191 0.74375 0.0
C454 C 0.03139 0.19876 0.74552 0.0
C455 C 0.02948 0.17751 0.71396 0.0
C456 C 0.99526 0.15499 0.69596 0.0
H457 H 0.19952 0.11649 0.68449 0.0
H458 H 0.14957 0.12799 0.66633 0.0
C459 C 0.96312 0.15238 0.71059 0.0
C460 C 0.06185 0.17384 0.705 0.0
H461 H 0.15541 0.2247 0.69507 0.0
C462 C 0.05834 0.13894 0.71046 0.0
C463 C 0.097 0.20488 0.6976 0.0
C464 C 0.10206 0.24262 0.68924 0.0
C465 C 0.0894 0.13469 0.712 0.0
C466 C 0.12484 0.16617 0.70714 0.0
C467 C 0.1282 0.2007 0.69909 0.0
C468 C 0.15857 0.16406 0.71408 0.0
C469 C 0.08418 0.09701 0.72159 0.0
C470 C 0.18121 0.18202 0.74587 0.0
C471 C 0.20997 0.17576 0.75619 0.0
C472 C 0.21615 0.15114 0.735 0.0
C473 C 0.1947 0.13484 0.70194 0.0
C474 C 0.1663 0.14147 0.69141 0.0
H475 H 0.05572 0.07727 0.73144 0.0
H476 H 0.08947 0.0854 0.69565 0.0
H477 H 0.10394 0.09905 0.74436 0.0
H478 H 0.17564 0.19965 0.76364 0.0
H479 H 0.22633 0.18897 0.78156 0.0
H480 H 0.04587 0.22413 0.17951 0.0
H481 H 0.99118 0.1799 0.14362 0.0
H482 H 0.92277 0.16885 0.24001 0.0
H483 H 0.97691 0.2129 0.27601 0.0
H484 H 0.95105 0.10927 0.17046 0.0
H485 H 0.85782 0.16484 0.15013 0.0
H486 H 0.90709 0.19429 0.15704 0.0
H487 H 0.87689 0.1748 0.19775 0.0
C488 C 0.01911 0.2128 0.1929 0.0
C489 C 0.01588 0.22149 0.23107 0.0
C490 C 0.98788 0.18779 0.17211 0.0
C491 C 0.9529 0.17149 0.1889 0.0
C492 C 0.94941 0.1818 0.22607 0.0
H493 H 0.78289 0.0058 0.27175 0.0
H494 H 0.82693 0.06189 0.23856 0.0
C495 C 0.98053 0.20661 0.24692 0.0
C496 C 0.92114 0.13863 0.17175 0.0
H497 H 0.82755 0.09815 0.16839 0.0
C498 C 0.92408 0.10686 0.16823 0.0
C499 C 0.88622 0.13577 0.16797 0.0
C500 C 0.88193 0.16944 0.16799 0.0
C501 C 0.89249 0.07163 0.16752 0.0
C502 C 0.85736 0.06855 0.16987 0.0
C503 C 0.85456 0.10059 0.16727 0.0
C504 C 0.82574 0.03465 0.18581 0.0
C505 C 0.89713 0.03811 0.16923 0.0
C506 C 0.80972 1.00068 0.1668 0.0
C507 C 0.78464 0.96812 0.18605 0.0
C508 C 0.77518 0.96925 0.22447 0.0
C509 C 0.78973 0.0037 0.24238 0.0
C510 C 0.81475 0.03595 0.22329 0.0
H511 H 0.92659 0.0456 0.16852 0.0
H512 H 0.88463 0.02193 0.1959 0.0
H513 H 0.88272 0.02002 0.14442 0.0
H514 H 0.81751 0.9992 0.13767 0.0
H515 H 0.77334 0.94209 0.17114 0.0
H516 H 0.80952 0.03595 0.74104 0.0
H517 H 0.80394 0.97529 0.7334 0.0
H518 H 0.85106 0.98376 0.84637 0.0
H519 H 0.85774 0.04479 0.85364 0.0
H520 H 0.88833 0.97129 0.79352 0.0
H521 H 0.73911 0.87142 0.7741 0.0
H522 H 0.75602 0.9104 0.7419 0.0
H523 H 0.75609 0.91725 0.79276 0.0
C524 C 0.81772 0.02439 0.76465 0.0
C525 C 0.83435 0.04516 0.79782 0.0
C526 C 0.81438 0.98963 0.76031 0.0
C527 C 0.82694 0.97487 0.78939 0.0
C528 C 0.84128 0.99463 0.82352 0.0
H529 H 0.81896 0.76331 0.79737 0.0
H530 H 0.80685 0.81419 0.80559 0.0
C531 C 0.84508 0.02949 0.82765 0.0
C532 C 0.8297 0.94144 0.78255 0.0
H533 H 0.78073 0.85046 0.75732 0.0
C534 C 0.86471 0.94482 0.78587 0.0
C535 C 0.79888 0.90687 0.77273 0.0
C536 C 0.76034 0.90108 0.77051 0.0
C537 C 0.86986 0.91478 0.77941 0.0
C538 C 0.83934 0.88057 0.76821 0.0
C539 C 0.80416 0.8769 0.76537 0.0
C540 C 0.84359 0.84823 0.76031 0.0
C541 C 0.90792 0.91986 0.78535 0.0
C542 C 0.86739 0.85007 0.73133 0.0
C543 C 0.87467 0.82125 0.72676 0.0
C544 C 0.85788 0.78981 0.75079 0.0
C545 C 0.83246 0.78718 0.77843 0.0
C546 C 0.82544 0.81619 0.78317 0.0
H547 H 0.9256 0.94418 0.80353 0.0
H548 H 0.90639 0.89497 0.79901 0.0
H549 H 0.92156 0.92445 0.75711 0.0
H550 H 0.88105 0.87424 0.71282 0.0
H551 H 0.89393 0.82388 0.70483 0.0
H552 H 0.79398 0.87356 0.36247 0.0
H553 H 0.84264 0.86014 0.38086 0.0
H554 H 0.82175 0.7966 0.27781 0.0
H555 H 0.77235 0.80923 0.25959 0.0
H556 H 0.84022 0.7672 0.34596 0.0
H557 H 0.93862 0.9169 0.31824 0.0
H558 H 0.90327 0.90579 0.3531 0.0
H559 H 0.89085 0.89495 0.30349 0.0
C560 C 0.79957 0.85645 0.34389 0.0
C561 C 0.78016 0.84323 0.30908 0.0
C562 C 0.82718 0.84867 0.35456 0.0
C563 C 0.83617 0.82804 0.3303 0.0
C564 C 0.81519 0.81269 0.29683 0.0
H565 H 0.9967 0.7866 0.25577 0.0
H566 H 0.94033 0.78069 0.281 0.0
C567 C 0.78718 0.82007 0.28635 0.0
C568 C 0.8701 0.82622 0.33708 0.0
H569 H 0.96368 0.87903 0.33013 0.0
C570 C 0.86729 0.79167 0.34311 0.0
C571 C 0.90534 0.85831 0.33382 0.0
C572 C 0.90996 0.89611 0.32657 0.0
C573 C 0.89891 0.78816 0.3441 0.0
C574 C 0.93394 0.81993 0.33817 0.0
C575 C 0.9368 0.85472 0.33478 0.0
C576 C 0.96698 0.81751 0.32876 0.0
C577 C 0.89441 0.75038 0.35044 0.0
C578 C 0.00091 0.84007 0.34732 0.0
C579 C 0.03358 0.844 0.33252 0.0
C580 C 0.03279 0.82576 0.29865 0.0
C581 C 0.99846 0.80146 0.28161 0.0
C582 C 0.96597 0.79754 0.2964 0.0
H583 H 0.87026 0.73296 0.36899 0.0
H584 H 0.88934 0.73634 0.3224 0.0
H585 H 0.91945 0.75213 0.36384 0.0
H586 H 0.00231 0.85599 0.37214 0.0
H587 H 0.05952 0.86277 0.34647 0.0
H588 H 0.19737 0.04661 0.8457 0.0
H589 H 0.15602 0.9844 0.87067 0.0
H590 H 0.22961 0.94858 0.82977 0.0
H591 H 0.27009 0.01034 0.80329 0.0
H592 H 0.16586 0.91818 0.79221 0.0
H593 H 0.13447 0.90225 0.94736 0.0
H594 H 0.13848 0.94385 0.92713 0.0
H595 H 0.17808 0.93778 0.92815 0.0
C596 C 0.20527 0.02574 0.84327 0.0
C597 C 0.23605 0.03262 0.82155 0.0
C598 C 0.18194 0.9903 0.8581 0.0
C599 C 0.1897 0.96177 0.85205 0.0
C600 C 0.22311 0.97018 0.83474 0.0
H601 H 0.00869 0.7448 0.78969 0.0
H602 H 0.06913 0.78621 0.81882 0.0
C603 C 0.24592 0.00526 0.81919 0.0
C604 C 0.15905 0.923 0.85261 0.0
H605 H 0.08509 0.86029 0.90494 0.0
C606 C 0.14884 0.90496 0.81718 0.0
C607 C 0.13673 0.90606 0.88508 0.0
C608 C 0.14766 0.92333 0.92419 0.0
C609 C 0.11543 0.87205 0.8124 0.0
C610 C 0.09195 0.85599 0.8444 0.0
C611 C 0.1032 0.87268 0.88054 0.0
C612 C 0.05376 0.82528 0.83893 0.0
C613 C 0.10433 0.8567 0.77231 0.0
C614 C 0.02443 0.832 0.84367 0.0
C615 C 0.98977 0.80795 0.82792 0.0
C616 C 0.98447 0.77746 0.80672 0.0
C617 C 0.01273 0.76885 0.80512 0.0
C618 C 0.04703 0.79227 0.82189 0.0
H619 H 0.12262 0.87646 0.74999 0.0
H620 H 0.106 0.83116 0.77015 0.0
H621 H 0.07554 0.84968 0.76567 0.0
H622 H 0.02906 0.85727 0.85686 0.0
H623 H 0.96802 0.81468 0.82982 0.0
H624 H 0.15521 0.25569 0.15415 0.0
H625 H 0.17414 0.23454 0.09853 0.0
H626 H 0.27609 0.3389 0.09334 0.0
H627 H 0.25783 0.36012 0.14925 0.0
H628 H 0.18903 0.26398 0.02577 0.0
H629 H 0.31262 0.26606 0.08762 0.0
H630 H 0.27899 0.2689 0.11692 0.0
H631 H 0.31399 0.30936 0.09239 0.0
C632 C 0.18185 0.27409 0.14148 0.0
C633 C 0.205 0.30966 0.15642 0.0
C634 C 0.19259 0.26192 0.10959 0.0
C635 C 0.22673 0.28492 0.09201 0.0
C636 C 0.24998 0.32032 0.10692 0.0
H637 H 0.34125 0.28107 0.89011 0.0
H638 H 0.31777 0.29719 0.94577 0.0
C639 C 0.23937 0.33248 0.13888 0.0
C640 C 0.23739 0.27259 0.0571 0.0
H641 H 0.30559 0.26078 1.01952 0.0
C642 C 0.21434 0.26295 0.0245 0.0
C643 C 0.27038 0.27115 0.05548 0.0
C644 C 0.29524 0.27905 0.09008 0.0
C645 C 0.22397 0.25302 0.99001 0.0
C646 C 0.25736 0.25243 0.9882 0.0
C647 C 0.28012 0.26153 0.02092 0.0
C648 C 0.26959 0.24293 0.95253 0.0
C649 C 0.19892 0.24421 0.95546 0.0
C650 C 0.25003 0.2071 0.93754 0.0
C651 C 0.26338 0.19765 0.9056 0.0
C652 C 0.29667 0.22388 0.88808 0.0
C653 C 0.31554 0.26007 0.90265 0.0
C654 C 0.30223 0.26939 0.93461 0.0
H655 H 0.17825 0.2531 0.95924 0.0
H656 H 0.21522 0.25779 0.92926 0.0
H657 H 0.18385 0.2139 0.95082 0.0
H658 H 0.22499 0.18612 0.95123 0.0
H659 H 0.24811 0.16951 0.89537 0.0
H660 H 0.84717 0.21845 0.62073 0.0
H661 H 0.89268 0.25386 0.57087 0.0
H662 H 0.98093 0.28259 0.65274 0.0
H663 H 0.93599 0.24695 0.70236 0.0
H664 H 0.95073 0.32832 0.56446 0.0
H665 H 0.00471 0.23113 0.56879 0.0
H666 H 0.96222 0.22076 0.59177 0.0
H667 H 0.00588 0.25156 0.61407 0.0
C668 C 0.87624 0.2326 0.62822 0.0
C669 C 0.88785 0.22939 0.66547 0.0
C670 C 0.90224 0.25285 0.59969 0.0
C671 C 0.94025 0.27026 0.60787 0.0
C672 C 0.95181 0.2687 0.6455 0.0
H673 H 0.12555 0.357 0.44806 0.0
H674 H 0.09217 0.35043 0.50777 0.0
C675 C 0.92596 0.24838 0.67391 0.0
C676 C 0.96782 0.28852 0.57676 0.0
H677 H 0.03465 0.28276 0.52754 0.0
C678 C 0.9692 0.31848 0.55647 0.0
C679 C 0.99212 0.27583 0.56647 0.0
C680 C 0.99108 0.24287 0.58613 0.0
C681 C 0.99399 0.33587 0.52599 0.0
C682 C 0.01761 0.32257 0.5151 0.0
C683 C 0.01686 0.29325 0.53609 0.0
C684 C 0.04017 0.3354 0.47954 0.0
C685 C 0.99458 0.36829 0.50573 0.0
C686 C 0.02252 0.33059 0.4438 0.0
C687 C 0.04154 0.33445 0.40987 0.0
C688 C 0.07862 0.34317 0.41087 0.0
C689 C 0.09722 0.35097 0.44638 0.0
C690 C 0.07803 0.34684 0.48051 0.0
H691 H 0.98544 0.38298 0.52503 0.0
H692 H 0.02259 0.38827 0.49495 0.0
H693 H 0.97523 0.35811 0.48089 0.0
H694 H 0.99325 0.32102 0.44214 0.0
H695 H 0.02643 0.32789 0.3829 0.0
H696 H 0.63318 0.83193 0.10061 0.0
H697 H 0.65164 0.87292 0.04403 0.0
H698 H 0.70343 0.96804 0.11749 0.0
H699 H 0.68483 0.92768 0.17389 0.0
H700 H 0.66435 0.97639 0.05501 0.0
H701 H 0.76018 0.92888 1.00903 0.0
H702 H 0.7128 0.89339 1.01527 0.0
H703 H 0.73978 0.91876 0.05611 0.0
C704 C 0.64793 0.86157 0.10475 0.0
C705 C 0.65764 0.87639 0.1419 0.0
C706 C 0.65869 0.88496 0.07235 0.0
C707 C 0.67939 0.92356 0.0765 0.0
C708 C 0.68753 0.93838 0.11354 0.0
H709 H 0.83934 0.0987 0.93877 0.0
H710 H 0.80218 0.04973 0.98439 0.0
C711 C 0.67686 0.91514 0.14582 0.0
C712 C 0.6946 0.94879 0.04265 0.0
H713 H 0.75867 0.97528 0.97159 0.0
C714 C 0.68465 0.97592 0.03643 0.0
C715 C 0.72146 0.94843 1.01878 0.0
C716 C 0.73453 0.92106 0.02512 0.0
C717 C 0.70136 0.00315 1.00752 0.0
C718 C 0.72845 0.00295 0.98386 0.0
C719 C 0.73771 0.97526 0.98953 0.0
C720 C 0.75014 0.0331 0.9556 0.0
C721 C 0.69116 0.03288 1.00371 0.0
C722 C 0.73332 0.04025 0.92397 0.0
C723 C 0.75465 0.06865 0.8976 0.0
C724 C 0.79323 0.09024 0.90229 0.0
C725 C 0.80978 0.08279 0.93404 0.0
C726 C 0.78854 0.05464 0.96025 0.0
H727 H 0.67536 0.0333 0.02884 0.0
H728 H 0.71626 0.06054 1.00053 0.0
H729 H 0.67376 0.02779 0.97766 0.0
H730 H 0.7038 0.0236 0.91939 0.0
H731 H 0.74099 0.07341 0.87339 0.0
H732 H 0.86336 0.76012 0.61856 0.0
H733 H 0.83047 0.77165 0.56714 0.0
H734 H 0.73037 0.67114 0.59678 0.0
H735 H 0.76326 0.6594 0.64916 0.0
H736 H 0.79552 0.72851 0.50389 0.0
H737 H 0.69726 0.74818 0.59226 0.0
H738 H 0.73723 0.74851 0.61277 0.0
H739 H 0.69718 0.70553 0.59981 0.0
C740 C 0.83429 0.74038 0.61444 0.0
C741 C 0.81601 0.70873 0.63812 0.0
C742 C 0.81552 0.74706 0.58485 0.0
C743 C 0.77793 0.72238 0.57806 0.0
C744 C 0.75929 0.69085 0.60177 0.0
H745 H 0.67761 0.75316 0.36481 0.0
H746 H 0.69478 0.72305 0.41567 0.0
C747 C 0.77813 0.68415 0.63169 0.0
C748 C 0.75903 0.73009 0.54573 0.0
H749 H 0.69443 0.75506 0.52535 0.0
C750 C 0.77307 0.73383 0.50847 0.0
C751 C 0.72996 0.73736 0.5518 0.0
C752 C 0.71458 0.73501 0.5913 0.0
C753 C 0.75965 0.7457 0.47742 0.0
C754 C 0.73098 0.7535 0.48365 0.0
C755 C 0.71618 0.74873 0.52062 0.0
C756 C 0.71877 0.77038 0.45318 0.0
C757 C 0.77749 0.75165 0.43862 0.0
C758 C 0.72591 0.80663 0.45769 0.0
C759 C 0.71622 0.82381 0.42887 0.0
C760 C 0.69882 0.80507 0.39482 0.0
C761 C 0.69093 0.76838 0.39064 0.0
C762 C 0.70089 0.75121 0.41957 0.0
H763 H 0.80311 0.74994 0.44002 0.0
H764 H 0.75787 0.7302 0.41857 0.0
H765 H 0.78436 0.77908 0.42647 0.0
H766 H 0.73966 0.82194 0.48336 0.0
H767 H 0.72257 0.85199 0.43331 0.0
H768 H 0.86288 0.62945 0.92092 0.0
H769 H 0.9094 0.6446 0.97171 0.0
H770 H 0.99544 0.68857 0.88684 0.0
H771 H 0.94951 0.67419 0.83622 0.0
H772 H 0.96531 0.62678 0.98634 0.0
H773 H 0.02556 0.77708 0.95574 0.0
H774 H 0.98182 0.74271 0.93583 0.0
H775 H 0.02425 0.7501 0.9156 0.0
C776 C 0.89162 0.64174 0.91303 0.0
C777 C 0.90244 0.65095 0.87454 0.0
C778 C 0.91821 0.65048 0.94209 0.0
C779 C 0.95599 0.6685 0.93315 0.0
C780 C 0.96658 0.6755 0.89454 0.0
H781 H 0.14326 0.78508 0.09256 0.0
H782 H 0.10959 0.75175 0.03448 0.0
C783 C 0.94016 0.66702 0.86559 0.0
C784 C 0.98436 0.68177 0.96425 0.0
H785 H 0.05379 0.7604 1.00469 0.0
C786 C 0.98481 0.65598 0.99024 0.0
C787 C 0.0101 0.71988 0.96911 0.0
C788 C 0.01038 0.74913 0.94284 0.0
C789 C 0.00984 0.66729 0.02131 0.0
C790 C 0.0346 0.70547 0.02701 0.0
C791 C 0.03502 0.73113 1.00022 0.0
C792 C 0.05689 0.71987 0.06285 0.0
C793 C 0.00935 0.63821 0.04786 0.0
C794 C 0.03882 0.71226 0.09824 0.0
C795 C 0.05792 0.73113 0.13116 0.0
C796 C 0.09557 0.75812 0.12952 0.0
C797 C 0.11442 0.76399 0.09476 0.0
C798 C 0.09511 0.7452 0.06155 0.0
H799 H 0.99963 0.61172 0.03264 0.0
H800 H 0.03712 0.64727 0.06033 0.0
H801 H 0.98992 0.63284 0.07168 0.0
H802 H 0.0093 0.69356 0.09999 0.0
H803 H 0.04266 0.72624 0.15753 0.0
H804 H 0.35641 0.15408 0.6109 0.0
H805 H 0.33769 0.1232 0.54865 0.0
H806 H 0.3344 0.0266 0.5985 0.0
H807 H 0.3522 0.05698 0.66087 0.0
H808 H 0.35842 0.08459 0.49672 0.0
H809 H 0.22597 0.99149 0.56926 0.0
H810 H 0.26139 0.03386 0.59048 0.0
H811 H 0.26504 0.99282 0.59274 0.0
C812 C 0.35353 0.12699 0.60812 0.0
C813 C 0.35577 0.1079 0.64074 0.0
C814 C 0.34233 0.10916 0.57261 0.0
C815 C 0.33354 0.07219 0.56927 0.0
C816 C 0.34018 0.05483 0.60069 0.0
H817 H 0.28053 0.92529 0.38243 0.0
H818 H 0.30842 0.97164 0.43185 0.0
C819 C 0.35093 0.07241 0.63618 0.0
C820 C 0.31371 0.05038 0.53476 0.0
H821 H 0.23373 0.97332 0.50725 0.0
C822 C 0.33107 0.06042 0.49892 0.0
C823 C 0.27748 0.01951 0.53736 0.0
C824 C 0.25616 0.00894 0.57443 0.0
C825 C 0.31396 0.0392 0.46605 0.0
C826 C 0.27885 0.00676 0.46929 0.0
C827 C 0.26076 0.99791 0.50474 0.0
C828 C 0.26179 0.97999 0.43731 0.0
C829 C 0.33374 0.05176 0.42818 0.0
C830 C 0.22559 0.96822 0.42437 0.0
C831 C 0.20905 0.94101 0.39601 0.0
C832 C 0.22835 0.92487 0.38031 0.0
C833 C 0.26463 0.93699 0.39345 0.0
C834 C 0.28096 0.96395 0.42163 0.0
H835 H 0.35266 0.08219 0.42747 0.0
H836 H 0.35068 0.03851 0.4242 0.0
H837 H 0.31396 0.04403 0.40377 0.0
H838 H 0.21007 0.97994 0.43637 0.0
H839 H 0.18115 0.93247 0.38666 0.0
H840 H 0.74266 0.64265 0.8917 0.0
H841 H 0.72488 0.66354 0.94834 0.0
H842 H 0.8284 0.76642 0.94528 0.0
H843 H 0.84646 0.74603 0.8884 0.0
H844 H 0.76392 0.68389 1.01964 0.0
H845 H 0.75085 0.79912 0.95478 0.0
H846 H 0.75119 0.76364 0.92625 0.0
H847 H 0.79356 0.80034 0.94566 0.0
C848 C 0.76158 0.66992 0.90269 0.0
C849 C 0.79607 0.6926 0.88532 0.0
C850 C 0.75136 0.68175 0.93521 0.0
C851 C 0.77518 0.71662 0.95087 0.0
C852 C 0.80936 0.73961 0.93336 0.0
H853 H 0.7528 0.83033 0.14785 0.0
H854 H 0.77671 0.81283 0.0934 0.0
C855 C 0.81969 0.72777 0.9009 0.0
C856 C 0.76479 0.72817 0.98645 0.0
H857 H 0.74481 0.79161 0.02217 0.0
C858 C 0.75969 0.70742 0.02022 0.0
C859 C 0.7596 0.75905 0.98719 0.0
C860 C 0.76377 0.78174 0.95152 0.0
C861 C 0.74966 0.71676 0.05479 0.0
C862 C 0.74376 0.74722 0.05541 0.0
C863 C 0.74936 0.76829 0.02171 0.0
C864 C 0.73048 0.75694 0.09026 0.0
C865 C 0.74605 0.69423 0.09043 0.0
C866 C 0.69662 0.73131 0.10682 0.0
C867 C 0.68291 0.74111 0.13811 0.0
C868 C 0.70257 0.77699 0.15335 0.0
C869 C 0.73686 0.80243 0.13706 0.0
C870 C 0.75057 0.79253 0.10579 0.0
H871 H 0.76218 0.67988 0.08813 0.0
H872 H 0.75551 0.71182 0.11636 0.0
H873 H 0.71663 0.6728 0.09431 0.0
H874 H 0.6802 0.70394 0.09486 0.0
H875 H 0.65633 0.72078 0.14956 0.0
H876 H 0.15209 0.77841 0.41795 0.0
H877 H 0.10659 0.74258 0.46759 0.0
H878 H 0.01828 0.72023 0.38783 0.0
H879 H 0.06323 0.75616 0.33844 0.0
H880 H 0.01125 0.74816 0.45476 0.0
H881 H 0.03656 0.63246 0.48585 0.0
H882 H 0.07748 0.67717 0.48848 0.0
H883 H 0.05378 0.66114 0.44327 0.0
C884 C 0.123 0.76532 0.41077 0.0
C885 C 0.11146 0.77037 0.37416 0.0
C886 C 0.09696 0.74463 0.43915 0.0
C887 C 0.05891 0.72831 0.43138 0.0
C888 C 0.04741 0.73239 0.39452 0.0
H889 H 0.87134 0.64313 0.59078 0.0
H890 H 0.90474 0.64952 0.53105 0.0
C891 C 0.07329 0.75304 0.36626 0.0
C892 C 0.03116 0.71003 0.46242 0.0
H893 H 0.00011 0.64216 0.53148 0.0
C894 C 0.00842 0.72462 0.47116 0.0
C895 C 0.02747 0.67932 0.48384 0.0
C896 C 0.04986 0.66133 0.47471 0.0
C897 C 0.98332 0.7105 0.50168 0.0
C898 C 0.98016 0.68028 0.52373 0.0
C899 C 0.00225 0.66506 0.5144 0.0
C900 C 0.95741 0.66734 0.55918 0.0
C901 C 0.96181 0.72938 0.51126 0.0
C902 C 0.97514 0.67233 0.59485 0.0
C903 C 0.95607 0.66824 0.62879 0.0
C904 C 0.91878 0.65885 0.62783 0.0
C905 C 0.89995 0.65006 0.59241 0.0
C906 C 0.91918 0.65426 0.55826 0.0
H907 H 0.97278 0.75653 0.49634 0.0
H908 H 0.9326 0.71162 0.50224 0.0
H909 H 0.96239 0.73384 0.54266 0.0
H910 H 0.00449 0.68214 0.59639 0.0
H911 H 0.97127 0.67519 0.65571 0.0
H912 H 0.33527 0.08076 0.86587 0.0
H913 H 0.31327 0.03771 0.92026 0.0
H914 H 0.3292 0.12592 0.99478 0.0
H915 H 0.35216 0.16958 0.94039 0.0
H916 H 0.34704 0.07808 0.03111 0.0
H917 H 0.21027 1.00021 0.96037 0.0
H918 H 0.24612 0.00125 0.9319 0.0
H919 H 0.24642 0.04354 0.94155 0.0
C920 C 0.33478 0.09124 0.89396 0.0
C921 C 0.34528 0.12864 0.89869 0.0
C922 C 0.32191 0.06647 0.92502 0.0
C923 C 0.31862 0.0783 0.96147 0.0
C924 C 0.33122 0.11606 0.96687 0.0
H925 H 0.16419 0.93174 0.13185 0.0
H926 H 0.1995 0.97968 0.0843 0.0
C927 C 0.3445 0.14105 0.93577 0.0
C928 C 0.30011 0.05089 0.99317 0.0
H929 H 0.21959 0.97234 1.01627 0.0
C930 C 0.31914 0.05499 0.02796 0.0
C931 C 0.26342 0.02107 0.98935 0.0
C932 C 0.24024 0.01641 0.95394 0.0
C933 C 0.30268 0.02991 0.05881 0.0
C934 C 0.26647 0.99933 0.05446 0.0
C935 C 0.24745 0.99547 1.01967 0.0
C936 C 0.24678 0.97182 0.08591 0.0
C937 C 0.32393 0.03708 0.09605 0.0
C938 C 0.26161 0.95147 0.10338 0.0
C939 C 0.24151 0.92418 0.13126 0.0
C940 C 0.20586 0.91616 0.1415 0.0
C941 C 0.1914 0.9369 0.12434 0.0
C942 C 0.21161 0.9644 0.09708 0.0
H943 H 0.34608 0.06649 0.09836 0.0
H944 H 0.30541 0.02988 0.12113 0.0
H945 H 0.33718 0.01985 0.09736 0.0
H946 H 0.28827 0.95593 0.09475 0.0
H947 H 0.2533 0.9085 0.14374 0.0
H948 H 0.28789 0.15005 0.60376 0.0
H949 H 0.26995 0.17708 0.55124 0.0
H950 H 0.28525 0.2656 0.62505 0.0
H951 H 0.30473 0.23923 0.6776 0.0
H952 H 0.21271 0.18508 0.54624 0.0
H953 H 0.33639 0.32414 0.53086 0.0
H954 H 0.33662 0.28792 0.55951 0.0
H955 H 0.31814 0.31496 0.57858 0.0
C956 C 0.28785 0.17552 0.60878 0.0
C957 C 0.29781 0.19254 0.64489 0.0
C958 C 0.27759 0.191 0.57863 0.0
C959 C 0.2766 0.22372 0.58379 0.0
C960 C 0.28672 0.24094 0.61984 0.0
H961 H 0.137 0.27784 0.44595 0.0
H962 H 0.16753 0.26149 0.49608 0.0
C963 C 0.29763 0.22572 0.64999 0.0
C964 C 0.26246 0.23791 0.55213 0.0
H965 H 0.28188 0.31431 0.49754 0.0
C966 C 0.22807 0.21331 0.53552 0.0
C967 C 0.28255 0.2746 0.53754 0.0
C968 C 0.32064 0.30183 0.55226 0.0
C969 C 0.21301 0.22433 0.50536 0.0
C970 C 0.2322 0.26146 0.49205 0.0
C971 C 0.26695 0.28598 0.508 0.0
C972 C 0.21582 0.2752 0.46241 0.0
C973 C 0.17683 0.19575 0.4877 0.0
C974 C 0.23365 0.29038 0.42729 0.0
C975 C 0.21636 0.30041 0.39848 0.0
C976 C 0.18088 0.29517 0.40432 0.0
C977 C 0.16399 0.28152 0.44015 0.0
C978 C 0.18138 0.27203 0.46889 0.0
H979 H 0.17191 0.16729 0.49237 0.0
H980 H 0.15387 0.19726 0.50136 0.0
H981 H 0.17601 0.20058 0.45635 0.0
H982 H 0.26041 0.2934 0.42175 0.0
H983 H 0.23012 0.31096 0.37125 0.0
H984 H 0.05124 0.32977 0.20276 0.0
H985 H 0.00577 0.31608 0.15179 0.0
H986 H 0.09229 0.3587 0.06749 0.0
H987 H 0.13837 0.37312 0.11864 0.0
H988 H 0.03701 0.37767 0.05246 0.0
H989 H 0.9751 0.22718 0.08303 0.0
H990 H 0.97659 0.25425 0.12315 0.0
H991 H 0.01891 0.26119 0.10311 0.0
C992 C 0.06079 0.33678 0.17343 0.0
C993 C 0.0985 0.35223 0.16475 0.0
C994 C 0.03465 0.32871 0.1443 0.0
C995 C 0.04549 0.33551 0.10577 0.0
C996 C 0.08329 0.35298 0.09707 0.0
H997 H 0.95815 0.27824 0.88141 0.0
H998 H 0.99196 0.31102 0.93873 0.0
C999 C 0.10962 0.36131 0.12632 0.0
C1000 C 0.01729 0.32257 0.07454 0.0
H1001 H 0.94719 0.24438 0.03416 0.0
C1002 C 0.01723 0.34855 0.04856 0.0
C1003 C 0.9912 0.28455 0.06969 0.0
C1004 C 0.99049 0.25509 0.09597 0.0
C1005 C 0.99219 0.33752 1.01751 0.0
C1006 C 0.96701 0.29944 1.01185 0.0
C1007 C 0.96626 0.27359 0.03861 0.0
C1008 C 0.94452 0.28525 0.97612 0.0
C1009 C 0.99308 0.36681 0.99098 0.0
C1010 C 0.90624 0.26024 0.97762 0.0
C1011 C 0.88669 0.2414 0.94455 0.0
C1012 C 0.90533 0.24689 0.90973 0.0
C1013 C 0.94304 0.27366 0.90784 0.0
C1014 C 0.96241 0.29258 0.94063 0.0
H1015 H 0.00317 0.39336 1.0062 0.0
H1016 H 0.01238 0.3719 0.96712 0.0
H1017 H 0.96536 0.35812 0.97858 0.0
H1018 H 0.8919 0.25392 1.00476 0.0
H1019 H 0.85779 0.22048 0.94694 0.0
H1020 H 0.8173 0.06924 0.65389 0.0
H1021 H 0.78864 0.02343 0.60265 0.0
H1022 H 0.68925 0.02949 0.61097 0.0
H1023 H 0.71682 0.07404 0.66212 0.0
H1024 H 0.67348 0.95859 0.60213 0.0
H1025 H 0.77555 0.05128 0.49367 0.0
H1026 H 0.79487 0.04044 0.53478 0.0
H1027 H 0.77257 0.0672 0.54055 0.0
C1028 C 0.78929 0.06066 0.64495 0.0
C1029 C 0.76971 0.07587 0.66198 0.0
C1030 C 0.77297 0.03457 0.61554 0.0
C1031 C 0.73695 0.02346 0.6025 0.0
C1032 C 0.71705 0.03762 0.62041 0.0
H1033 H 0.64915 0.94699 0.37737 0.0
H1034 H 0.6644 0.97728 0.43978 0.0
C1035 C 0.73312 0.06339 0.64969 0.0
C1036 C 0.72003 0.99849 0.56914 0.0
H1037 H 0.72887 0.99312 0.47258 0.0
C1038 C 0.68566 0.96599 0.5738 0.0
C1039 C 0.73564 0.00846 0.53208 0.0
C1040 C 0.77151 0.04387 0.5247 0.0
C1041 C 0.66631 0.94349 0.54238 0.0
C1042 C 0.68203 0.95344 0.50538 0.0
C1043 C 0.71668 0.98558 0.50091 0.0
C1044 C 0.66344 0.93142 0.47052 0.0
C1045 C 0.62875 0.90999 0.54891 0.0
C1046 C 0.65541 0.89464 0.46745 0.0
C1047 C 0.64563 0.8769 0.43187 0.0
C1048 C 0.64448 0.89597 0.39874 0.0
C1049 C 0.6493 0.9315 0.40255 0.0
C1050 C 0.65851 0.94898 0.43813 0.0
H1051 H 0.61632 0.91202 0.57606 0.0
H1052 H 0.6096 0.90624 0.52478 0.0
H1053 H 0.63154 0.88501 0.55095 0.0
H1054 H 0.65962 0.88068 0.49176 0.0
H1055 H 0.64309 0.84992 0.42959 0.0
loop_
_geom_bond_atom_site_label_1
_geom_bond_atom_site_label_2
_geom_bond_distance
_geom_bond_site_symmetry_2
_ccdc_geom_bond_type
Fe0 O1 1.886 . S
Fe0 O4 1.715 . S
Fe0 O9 2.077 . S
Fe0 O14 1.935 . S
Fe0 O20 2.077 . S
Fe0 O29 1.935 . S
O1 Fe0 1.886 . S
O1 Fe3 1.715 . S
Fe2 O4 1.886 . S
Fe2 O5 1.715 . S
Fe2 O12 1.935 . S
Fe2 O13 2.077 . S
Fe2 O19 1.935 . S
Fe2 O28 2.077 . S
Fe3 O1 1.715 . S
Fe3 O6 1.886 . S
Fe3 O10 1.935 . S
Fe3 O15 2.077 . S
Fe3 O21 1.935 . S
Fe3 O25 2.077 . S
O4 Fe0 1.715 . S
O4 Fe2 1.886 . S
O5 Fe2 1.715 . S
O5 Fe7 1.886 . S
O6 Fe3 1.886 . S
O6 Fe7 1.715 . S
Fe7 O5 1.886 . S
Fe7 O6 1.715 . S
Fe7 O11 2.077 . S
Fe7 O16 1.935 . S
Fe7 O18 2.077 . S
Fe7 O26 1.935 . S
C8 O20 1.381 . S
C8 O21 1.421 . S
O9 Fe0 2.077 . S
O9 C22 1.381 . S
O10 Fe3 1.935 . S
O10 C22 1.421 . S
O11 Fe7 2.077 . S
O11 C27 1.381 . S
O12 Fe2 1.935 . S
O12 C27 1.421 . S
O13 Fe2 2.077 . S
O13 C17 1.381 . S
O14 Fe0 1.935 . S
O14 C17 1.421 . S
O15 Fe3 2.077 . S
O15 C23 1.381 . S
O16 Fe7 1.935 . S
O16 C23 1.421 . S
C17 O13 1.381 . S
C17 O14 1.421 . S
O18 Fe7 2.077 . S
O18 C30 1.381 . S
O19 Fe2 1.935 . S
O19 C30 1.421 . S
O20 Fe0 2.077 . S
O20 C8 1.381 . S
O21 Fe3 1.935 . S
O21 C8 1.421 . S
C22 O9 1.381 . S
C22 O10 1.421 . S
C23 O15 1.381 . S
C23 O16 1.421 . S
C24 O25 1.381 . S
C24 O26 1.421 . S
O25 Fe3 2.077 . S
O25 C24 1.381 . S
O26 Fe7 1.935 . S
O26 C24 1.421 . S
C27 O11 1.381 . S
C27 O12 1.421 . S
O28 Fe2 2.077 . S
O28 C31 1.381 . S
O29 Fe0 1.935 . S
O29 C31 1.421 . S
C30 O18 1.381 . S
C30 O19 1.421 . S
C31 O28 1.381 . S
C31 O29 1.421 . S
Fe32 O33 1.886 . S
Fe32 O36 1.715 . S
Fe32 O41 2.077 . S
Fe32 O46 1.935 . S
Fe32 O52 2.077 . S
Fe32 O61 1.935 . S
O33 Fe32 1.886 . S
O33 Fe35 1.715 . S
Fe34 O36 1.886 . S
Fe34 O37 1.715 . S
Fe34 O44 1.935 . S
Fe34 O45 2.077 . S
Fe34 O51 1.935 . S
Fe34 O60 2.077 . S
Fe35 O33 1.715 . S
Fe35 O38 1.886 . S
Fe35 O42 1.935 . S
Fe35 O47 2.077 . S
Fe35 O53 1.935 . S
Fe35 O57 2.077 . S
O36 Fe32 1.715 . S
O36 Fe34 1.886 . S
O37 Fe34 1.715 . S
O37 Fe39 1.886 . S
O38 Fe35 1.886 . S
O38 Fe39 1.715 . S
Fe39 O37 1.886 . S
Fe39 O38 1.715 . S
Fe39 O43 2.077 . S
Fe39 O48 1.935 . S
Fe39 O50 2.077 . S
Fe39 O58 1.935 . S
C40 O52 1.381 . S
C40 O53 1.421 . S
O41 Fe32 2.077 . S
O41 C54 1.381 . S
O42 Fe35 1.935 . S
O42 C54 1.421 . S
O43 Fe39 2.077 . S
O43 C59 1.381 . S
O44 Fe34 1.935 . S
O44 C59 1.421 . S
O45 Fe34 2.077 . S
O45 C49 1.381 . S
O46 Fe32 1.935 . S
O46 C49 1.421 . S
O47 Fe35 2.077 . S
O47 C55 1.381 . S
O48 Fe39 1.935 . S
O48 C55 1.421 . S
C49 O45 1.381 . S
C49 O46 1.421 . S
O50 Fe39 2.077 . S
O50 C62 1.381 . S
O51 Fe34 1.935 . S
O51 C62 1.421 . S
O52 Fe32 2.077 . S
O52 C40 1.381 . S
O53 Fe35 1.935 . S
O53 C40 1.421 . S
C54 O41 1.381 . S
C54 O42 1.421 . S
C55 O47 1.381 . S
C55 O48 1.421 . S
C56 O57 1.381 . S
C56 O58 1.421 . S
O57 Fe35 2.077 . S
O57 C56 1.381 . S
O58 Fe39 1.935 . S
O58 C56 1.421 . S
C59 O43 1.381 . S
C59 O44 1.421 . S
O60 Fe34 2.077 . S
O60 C63 1.381 . S
O61 Fe32 1.935 . S
O61 C63 1.421 . S
C62 O50 1.381 . S
C62 O51 1.421 . S
C63 O60 1.381 . S
C63 O61 1.421 . S
Fe64 O65 1.886 . S
Fe64 O68 1.715 . S
Fe64 O73 2.077 . S
Fe64 O78 1.935 . S
Fe64 O84 2.077 . S
Fe64 O93 1.935 . S
O65 Fe64 1.886 . S
O65 Fe67 1.715 . S
Fe66 O68 1.886 . S
Fe66 O69 1.715 . S
Fe66 O76 1.935 . S
Fe66 O77 2.077 . S
Fe66 O83 1.935 . S
Fe66 O92 2.077 . S
Fe67 O65 1.715 . S
Fe67 O70 1.886 . S
Fe67 O74 1.935 . S
Fe67 O79 2.077 . S
Fe67 O85 1.935 . S
Fe67 O89 2.077 . S
O68 Fe64 1.715 . S
O68 Fe66 1.886 . S
O69 Fe66 1.715 . S
O69 Fe71 1.886 . S
O70 Fe67 1.886 . S
O70 Fe71 1.715 . S
Fe71 O69 1.886 . S
Fe71 O70 1.715 . S
Fe71 O75 2.077 . S
Fe71 O80 1.935 . S
Fe71 O82 2.077 . S
Fe71 O90 1.935 . S
C72 O84 1.381 . S
C72 O85 1.421 . S
O73 Fe64 2.077 . S
O73 C86 1.381 . S
O74 Fe67 1.935 . S
O74 C86 1.421 . S
O75 Fe71 2.077 . S
O75 C91 1.381 . S
O76 Fe66 1.935 . S
O76 C91 1.421 . S
O77 Fe66 2.077 . S
O77 C81 1.381 . S
O78 Fe64 1.935 . S
O78 C81 1.421 . S
O79 Fe67 2.077 . S
O79 C87 1.381 . S
O80 Fe71 1.935 . S
O80 C87 1.421 . S
C81 O77 1.381 . S
C81 O78 1.421 . S
O82 Fe71 2.077 . S
O82 C94 1.381 . S
O83 Fe66 1.935 . S
O83 C94 1.421 . S
O84 Fe64 2.077 . S
O84 C72 1.381 . S
O85 Fe67 1.935 . S
O85 C72 1.421 . S
C86 O73 1.381 . S
C86 O74 1.421 . S
C87 O79 1.381 . S
C87 O80 1.421 . S
C88 O89 1.381 . S
C88 O90 1.421 . S
O89 Fe67 2.077 . S
O89 C88 1.381 . S
O90 Fe71 1.935 . S
O90 C88 1.421 . S
C91 O75 1.381 . S
C91 O76 1.421 . S
O92 Fe66 2.077 . S
O92 C95 1.381 . S
O93 Fe64 1.935 . S
O93 C95 1.421 . S
C94 O82 1.381 . S
C94 O83 1.421 . S
C95 O92 1.381 . S
C95 O93 1.421 . S
Fe96 O97 1.886 . S
Fe96 O100 1.715 . S
Fe96 O105 2.077 . S
Fe96 O110 1.935 . S
Fe96 O116 2.077 . S
Fe96 O125 1.935 . S
O97 Fe96 1.886 . S
O97 Fe99 1.715 . S
Fe98 O100 1.886 . S
Fe98 O101 1.715 . S
Fe98 O108 1.935 . S
Fe98 O109 2.077 . S
Fe98 O115 1.935 . S
Fe98 O124 2.077 . S
Fe99 O97 1.715 . S
Fe99 O102 1.886 . S
Fe99 O106 1.935 . S
Fe99 O111 2.077 . S
Fe99 O117 1.935 . S
Fe99 O121 2.077 . S
O100 Fe96 1.715 . S
O100 Fe98 1.886 . S
O101 Fe98 1.715 . S
O101 Fe103 1.886 . S
O102 Fe99 1.886 . S
O102 Fe103 1.715 . S
Fe103 O101 1.886 . S
Fe103 O102 1.715 . S
Fe103 O107 2.077 . S
Fe103 O112 1.935 . S
Fe103 O114 2.077 . S
Fe103 O122 1.935 . S
C104 O116 1.381 . S
C104 O117 1.421 . S
O105 Fe96 2.077 . S
O105 C118 1.381 . S
O106 Fe99 1.935 . S
O106 C118 1.421 . S
O107 Fe103 2.077 . S
O107 C123 1.381 . S
O108 Fe98 1.935 . S
O108 C123 1.421 . S
O109 Fe98 2.077 . S
O109 C113 1.381 . S
O110 Fe96 1.935 . S
O110 C113 1.421 . S
O111 Fe99 2.077 . S
O111 C119 1.381 . S
O112 Fe103 1.935 . S
O112 C119 1.421 . S
C113 O109 1.381 . S
C113 O110 1.421 . S
O114 Fe103 2.077 . S
O114 C126 1.381 . S
O115 Fe98 1.935 . S
O115 C126 1.421 . S
O116 Fe96 2.077 . S
O116 C104 1.381 . S
O117 Fe99 1.935 . S
O117 C104 1.421 . S
C118 O105 1.381 . S
C118 O106 1.421 . S
C119 O111 1.381 . S
C119 O112 1.421 . S
C120 O121 1.381 . S
C120 O122 1.421 . S
O121 Fe99 2.077 . S
O121 C120 1.381 . S
O122 Fe103 1.935 . S
O122 C120 1.421 . S
C123 O107 1.381 . S
C123 O108 1.421 . S
O124 Fe98 2.077 . S
O124 C127 1.381 . S
O125 Fe96 1.935 . S
O125 C127 1.421 . S
C126 O114 1.381 . S
C126 O115 1.421 . S
C127 O124 1.381 . S
C127 O125 1.421 . S
Fe128 O129 1.886 . S
Fe128 O132 1.715 . S
Fe128 O137 2.077 . S
Fe128 O142 1.935 . S
Fe128 O148 2.077 . S
Fe128 O157 1.935 . S
O129 Fe128 1.886 . S
O129 Fe131 1.715 . S
Fe130 O132 1.886 . S
Fe130 O133 1.715 . S
Fe130 O140 1.935 . S
Fe130 O141 2.077 . S
Fe130 O147 1.935 . S
Fe130 O156 2.077 . S
Fe131 O129 1.715 . S
Fe131 O134 1.886 . S
Fe131 O138 1.935 . S
Fe131 O143 2.077 . S
Fe131 O149 1.935 . S
Fe131 O153 2.077 . S
O132 Fe128 1.715 . S
O132 Fe130 1.886 . S
O133 Fe130 1.715 . S
O133 Fe135 1.886 . S
O134 Fe131 1.886 . S
O134 Fe135 1.715 . S
Fe135 O133 1.886 . S
Fe135 O134 1.715 . S
Fe135 O139 2.077 . S
Fe135 O144 1.935 . S
Fe135 O146 2.077 . S
Fe135 O154 1.935 . S
C136 O148 1.381 . S
C136 O149 1.421 . S
O137 Fe128 2.077 . S
O137 C150 1.381 . S
O138 Fe131 1.935 . S
O138 C150 1.421 . S
O139 Fe135 2.077 . S
O139 C155 1.381 . S
O140 Fe130 1.935 . S
O140 C155 1.421 . S
O141 Fe130 2.077 . S
O141 C145 1.381 . S
O142 Fe128 1.935 . S
O142 C145 1.421 . S
O143 Fe131 2.077 . S
O143 C151 1.381 . S
O144 Fe135 1.935 . S
O144 C151 1.421 . S
C145 O141 1.381 . S
C145 O142 1.421 . S
O146 Fe135 2.077 . S
O146 C158 1.381 . S
O147 Fe130 1.935 . S
O147 C158 1.421 . S
O148 Fe128 2.077 . S
O148 C136 1.381 . S
O149 Fe131 1.935 . S
O149 C136 1.421 . S
C150 O137 1.381 . S
C150 O138 1.421 . S
C151 O143 1.381 . S
C151 O144 1.421 . S
C152 O153 1.381 . S
C152 O154 1.421 . S
O153 Fe131 2.077 . S
O153 C152 1.381 . S
O154 Fe135 1.935 . S
O154 C152 1.421 . S
C155 O139 1.381 . S
C155 O140 1.421 . S
O156 Fe130 2.077 . S
O156 C159 1.381 . S
O157 Fe128 1.935 . S
O157 C159 1.421 . S
C158 O146 1.381 . S
C158 O147 1.421 . S
C159 O156 1.381 . S
C159 O157 1.421 . S
Fe160 O161 1.886 . S
Fe160 O164 1.715 . S
Fe160 O169 2.077 . S
Fe160 O174 1.935 . S
Fe160 O180 2.077 . S
Fe160 O189 1.935 . S
O161 Fe160 1.886 . S
O161 Fe163 1.715 . S
Fe162 O164 1.886 . S
Fe162 O165 1.715 . S
Fe162 O172 1.935 . S
Fe162 O173 2.077 . S
Fe162 O179 1.935 . S
Fe162 O188 2.077 . S
Fe163 O161 1.715 . S
Fe163 O166 1.886 . S
Fe163 O170 1.935 . S
Fe163 O175 2.077 . S
Fe163 O181 1.935 . S
Fe163 O185 2.077 . S
O164 Fe160 1.715 . S
O164 Fe162 1.886 . S
O165 Fe162 1.715 . S
O165 Fe167 1.886 . S
O166 Fe163 1.886 . S
O166 Fe167 1.715 . S
Fe167 O165 1.886 . S
Fe167 O166 1.715 . S
Fe167 O171 2.077 . S
Fe167 O176 1.935 . S
Fe167 O178 2.077 . S
Fe167 O186 1.935 . S
C168 O180 1.381 . S
C168 O181 1.421 . S
O169 Fe160 2.077 . S
O169 C182 1.381 . S
O170 Fe163 1.935 . S
O170 C182 1.421 . S
O171 Fe167 2.077 . S
O171 C187 1.381 . S
O172 Fe162 1.935 . S
O172 C187 1.421 . S
O173 Fe162 2.077 . S
O173 C177 1.381 . S
O174 Fe160 1.935 . S
O174 C177 1.421 . S
O175 Fe163 2.077 . S
O175 C183 1.381 . S
O176 Fe167 1.935 . S
O176 C183 1.421 . S
C177 O173 1.381 . S
C177 O174 1.421 . S
O178 Fe167 2.077 . S
O178 C190 1.381 . S
O179 Fe162 1.935 . S
O179 C190 1.421 . S
O180 Fe160 2.077 . S
O180 C168 1.381 . S
O181 Fe163 1.935 . S
O181 C168 1.421 . S
C182 O169 1.381 . S
C182 O170 1.421 . S
C183 O175 1.381 . S
C183 O176 1.421 . S
C184 O185 1.381 . S
C184 O186 1.421 . S
O185 Fe163 2.077 . S
O185 C184 1.381 . S
O186 Fe167 1.935 . S
O186 C184 1.421 . S
C187 O171 1.381 . S
C187 O172 1.421 . S
O188 Fe162 2.077 . S
O188 C191 1.381 . S
O189 Fe160 1.935 . S
O189 C191 1.421 . S
C190 O178 1.381 . S
C190 O179 1.421 . S
C191 O188 1.381 . S
C191 O189 1.421 . S
H192 C200 0.929 . S
H193 C202 0.930 . S
H194 C204 0.930 . S
H195 C207 0.929 . S
H196 C210 0.930 . S
H197 C212 0.960 . S
H198 C212 0.960 . S
H199 C212 0.960 . S
C200 H192 0.929 . S
C200 C201 1.377 . S
C200 C202 1.384 . S
C201 C200 1.377 . S
C201 C207 1.390 . S
C202 H193 0.930 . S
C202 C200 1.384 . S
C202 C203 1.372 . S
C203 C202 1.372 . S
C203 C204 1.400 . S
C203 C208 1.490 . S
C204 H194 0.930 . S
C204 C203 1.400 . S
C204 C207 1.386 . S
H205 C221 0.930 . S
H206 C222 0.931 . S
C207 H195 0.929 . S
C207 C201 1.390 . S
C207 C204 1.386 . S
C208 C203 1.490 . S
C208 C210 1.395 . S
C208 C211 1.403 . S
H209 C215 0.930 . S
C210 H196 0.930 . S
C210 C208 1.395 . S
C210 C213 1.403 . S
C211 C208 1.403 . S
C211 C212 1.524 . S
C211 C215 1.400 . S
C212 H197 0.960 . S
C212 H198 0.960 . S
C212 H199 0.960 . S
C212 C211 1.524 . S
C213 C210 1.403 . S
C213 C214 1.392 . S
C213 C217 1.495 . S
C214 C213 1.392 . S
C214 C215 1.385 . S
C214 C216 1.478 . S
C215 H209 0.930 . S
C215 C211 1.400 . S
C215 C214 1.385 . S
C216 C214 1.478 . S
C216 C218 1.381 . S
C216 C222 1.383 . S
C217 C213 1.495 . S
C217 H223 0.959 . S
C217 H224 0.961 . S
C217 H225 0.960 . S
C218 C216 1.381 . S
C218 C219 1.394 . S
C218 H226 0.930 . S
C219 C218 1.394 . S
C219 C220 1.383 . S
C219 H227 0.929 . S
C220 C219 1.383 . S
C220 C221 1.377 . S
C221 H205 0.930 . S
C221 C220 1.377 . S
C221 C222 1.379 . S
C222 H206 0.931 . S
C222 C216 1.383 . S
C222 C221 1.379 . S
H223 C217 0.959 . S
H224 C217 0.961 . S
H225 C217 0.960 . S
H226 C218 0.930 . S
H227 C219 0.929 . S
H228 C236 0.929 . S
H229 C238 0.930 . S
H230 C240 0.930 . S
H231 C243 0.929 . S
H232 C246 0.930 . S
H233 C248 0.960 . S
H234 C248 0.960 . S
H235 C248 0.960 . S
C236 H228 0.929 . S
C236 C237 1.377 . S
C236 C238 1.384 . S
C237 C236 1.377 . S
C237 C243 1.390 . S
C238 H229 0.930 . S
C238 C236 1.384 . S
C238 C239 1.372 . S
C239 C238 1.372 . S
C239 C240 1.400 . S
C239 C244 1.490 . S
C240 H230 0.930 . S
C240 C239 1.400 . S
C240 C243 1.386 . S
H241 C257 0.930 . S
H242 C258 0.931 . S
C243 H231 0.929 . S
C243 C237 1.390 . S
C243 C240 1.386 . S
C244 C239 1.490 . S
C244 C246 1.395 . S
C244 C247 1.403 . S
H245 C251 0.930 . S
C246 H232 0.930 . S
C246 C244 1.395 . S
C246 C249 1.403 . S
C247 C244 1.403 . S
C247 C248 1.524 . S
C247 C251 1.400 . S
C248 H233 0.960 . S
C248 H234 0.960 . S
C248 H235 0.960 . S
C248 C247 1.524 . S
C249 C246 1.403 . S
C249 C250 1.392 . S
C249 C253 1.495 . S
C250 C249 1.392 . S
C250 C251 1.385 . S
C250 C252 1.478 . S
C251 H245 0.930 . S
C251 C247 1.400 . S
C251 C250 1.385 . S
C252 C250 1.478 . S
C252 C254 1.381 . S
C252 C258 1.383 . S
C253 C249 1.495 . S
C253 H259 0.959 . S
C253 H260 0.961 . S
C253 H261 0.960 . S
C254 C252 1.381 . S
C254 C255 1.394 . S
C254 H262 0.930 . S
C255 C254 1.394 . S
C255 C256 1.383 . S
C255 H263 0.929 . S
C256 C255 1.383 . S
C256 C257 1.377 . S
C257 H241 0.930 . S
C257 C256 1.377 . S
C257 C258 1.379 . S
C258 H242 0.931 . S
C258 C252 1.383 . S
C258 C257 1.379 . S
H259 C253 0.959 . S
H260 C253 0.961 . S
H261 C253 0.960 . S
H262 C254 0.930 . S
H263 C255 0.929 . S
H264 C272 0.929 . S
H265 C274 0.930 . S
H266 C276 0.930 . S
H267 C279 0.929 . S
H268 C282 0.930 . S
H269 C284 0.960 . S
H270 C284 0.960 . S
H271 C284 0.960 . S
C272 H264 0.929 . S
C272 C273 1.377 . S
C272 C274 1.384 . S
C273 C272 1.377 . S
C273 C279 1.390 . S
C274 H265 0.930 . S
C274 C272 1.384 . S
C274 C275 1.372 . S
C275 C274 1.372 . S
C275 C276 1.400 . S
C275 C280 1.490 . S
C276 H266 0.930 . S
C276 C275 1.400 . S
C276 C279 1.386 . S
H277 C293 0.930 . S
H278 C294 0.931 . S
C279 H267 0.929 . S
C279 C273 1.390 . S
C279 C276 1.386 . S
C280 C275 1.490 . S
C280 C282 1.395 . S
C280 C283 1.403 . S
H281 C287 0.930 . S
C282 H268 0.930 . S
C282 C280 1.395 . S
C282 C285 1.403 . S
C283 C280 1.403 . S
C283 C284 1.524 . S
C283 C287 1.400 . S
C284 H269 0.960 . S
C284 H270 0.960 . S
C284 H271 0.960 . S
C284 C283 1.524 . S
C285 C282 1.403 . S
C285 C286 1.392 . S
C285 C289 1.495 . S
C286 C285 1.392 . S
C286 C287 1.385 . S
C286 C288 1.478 . S
C287 H281 0.930 . S
C287 C283 1.400 . S
C287 C286 1.385 . S
C288 C286 1.478 . S
C288 C290 1.381 . S
C288 C294 1.383 . S
C289 C285 1.495 . S
C289 H295 0.959 . S
C289 H296 0.961 . S
C289 H297 0.960 . S
C290 C288 1.381 . S
C290 C291 1.394 . S
C290 H298 0.930 . S
C291 C290 1.394 . S
C291 C292 1.383 . S
C291 H299 0.929 . S
C292 C291 1.383 . S
C292 C293 1.377 . S
C293 H277 0.930 . S
C293 C292 1.377 . S
C293 C294 1.379 . S
C294 H278 0.931 . S
C294 C288 1.383 . S
C294 C293 1.379 . S
H295 C289 0.959 . S
H296 C289 0.961 . S
H297 C289 0.960 . S
H298 C290 0.930 . S
H299 C291 0.929 . S
H300 C308 0.929 . S
H301 C310 0.930 . S
H302 C312 0.930 . S
H303 C315 0.929 . S
H304 C318 0.930 . S
H305 C320 0.960 . S
H306 C320 0.960 . S
H307 C320 0.960 . S
C308 H300 0.929 . S
C308 C309 1.377 . S
C308 C310 1.384 . S
C309 C308 1.377 . S
C309 C315 1.390 . S
C310 H301 0.930 . S
C310 C308 1.384 . S
C310 C311 1.372 . S
C311 C310 1.372 . S
C311 C312 1.400 . S
C311 C316 1.490 . S
C312 H302 0.930 . S
C312 C311 1.400 . S
C312 C315 1.386 . S
H313 C329 0.930 . S
H314 C330 0.931 . S
C315 H303 0.929 . S
C315 C309 1.390 . S
C315 C312 1.386 . S
C316 C311 1.490 . S
C316 C318 1.395 . S
C316 C319 1.403 . S
H317 C323 0.930 . S
C318 H304 0.930 . S
C318 C316 1.395 . S
C318 C321 1.403 . S
C319 C316 1.403 . S
C319 C320 1.524 . S
C319 C323 1.400 . S
C320 H305 0.960 . S
C320 H306 0.960 . S
C320 H307 0.960 . S
C320 C319 1.524 . S
C321 C318 1.403 . S
C321 C322 1.392 . S
C321 C325 1.495 . S
C322 C321 1.392 . S
C322 C323 1.385 . S
C322 C324 1.478 . S
C323 H317 0.930 . S
C323 C319 1.400 . S
C323 C322 1.385 . S
C324 C322 1.478 . S
C324 C326 1.381 . S
C324 C330 1.383 . S
C325 C321 1.495 . S
C325 H331 0.959 . S
C325 H332 0.961 . S
C325 H333 0.960 . S
C326 C324 1.381 . S
C326 C327 1.394 . S
C326 H334 0.930 . S
C327 C326 1.394 . S
C327 C328 1.383 . S
C327 H335 0.929 . S
C328 C327 1.383 . S
C328 C329 1.377 . S
C329 H313 0.930 . S
C329 C328 1.377 . S
C329 C330 1.379 . S
C330 H314 0.931 . S
C330 C324 1.383 . S
C330 C329 1.379 . S
H331 C325 0.959 . S
H332 C325 0.961 . S
H333 C325 0.960 . S
H334 C326 0.930 . S
H335 C327 0.929 . S
H336 C344 0.929 . S
H337 C346 0.930 . S
H338 C348 0.930 . S
H339 C351 0.929 . S
H340 C354 0.930 . S
H341 C356 0.960 . S
H342 C356 0.960 . S
H343 C356 0.960 . S
C344 H336 0.929 . S
C344 C345 1.377 . S
C344 C346 1.384 . S
C345 C344 1.377 . S
C345 C351 1.390 . S
C346 H337 0.930 . S
C346 C344 1.384 . S
C346 C347 1.372 . S
C347 C346 1.372 . S
C347 C348 1.400 . S
C347 C352 1.490 . S
C348 H338 0.930 . S
C348 C347 1.400 . S
C348 C351 1.386 . S
H349 C365 0.930 . S
H350 C366 0.931 . S
C351 H339 0.929 . S
C351 C345 1.390 . S
C351 C348 1.386 . S
C352 C347 1.490 . S
C352 C354 1.395 . S
C352 C355 1.403 . S
H353 C359 0.930 . S
C354 H340 0.930 . S
C354 C352 1.395 . S
C354 C357 1.403 . S
C355 C352 1.403 . S
C355 C356 1.524 . S
C355 C359 1.400 . S
C356 H341 0.960 . S
C356 H342 0.960 . S
C356 H343 0.960 . S
C356 C355 1.524 . S
C357 C354 1.403 . S
C357 C358 1.392 . S
C357 C361 1.495 . S
C358 C357 1.392 . S
C358 C359 1.385 . S
C358 C360 1.478 . S
C359 H353 0.930 . S
C359 C355 1.400 . S
C359 C358 1.385 . S
C360 C358 1.478 . S
C360 C362 1.381 . S
C360 C366 1.383 . S
C361 C357 1.495 . S
C361 H367 0.959 . S
C361 H368 0.961 . S
C361 H369 0.960 . S
C362 C360 1.381 . S
C362 C363 1.394 . S
C362 H370 0.930 . S
C363 C362 1.394 . S
C363 C364 1.383 . S
C363 H371 0.929 . S
C364 C363 1.383 . S
C364 C365 1.377 . S
C365 H349 0.930 . S
C365 C364 1.377 . S
C365 C366 1.379 . S
C366 H350 0.931 . S
C366 C360 1.383 . S
C366 C365 1.379 . S
H367 C361 0.959 . S
H368 C361 0.961 . S
H369 C361 0.960 . S
H370 C362 0.930 . S
H371 C363 0.929 . S
H372 C380 0.929 . S
H373 C382 0.930 . S
H374 C384 0.930 . S
H375 C387 0.929 . S
H376 C390 0.930 . S
H377 C392 0.960 . S
H378 C392 0.960 . S
H379 C392 0.960 . S
C380 H372 0.929 . S
C380 C381 1.377 . S
C380 C382 1.384 . S
C381 C380 1.377 . S
C381 C387 1.390 . S
C382 H373 0.930 . S
C382 C380 1.384 . S
C382 C383 1.372 . S
C383 C382 1.372 . S
C383 C384 1.400 . S
C383 C388 1.490 . S
C384 H374 0.930 . S
C384 C383 1.400 . S
C384 C387 1.386 . S
H385 C401 0.930 . S
H386 C402 0.931 . S
C387 H375 0.929 . S
C387 C381 1.390 . S
C387 C384 1.386 . S
C388 C383 1.490 . S
C388 C390 1.395 . S
C388 C391 1.403 . S
H389 C395 0.930 . S
C390 H376 0.930 . S
C390 C388 1.395 . S
C390 C393 1.403 . S
C391 C388 1.403 . S
C391 C392 1.524 . S
C391 C395 1.400 . S
C392 H377 0.960 . S
C392 H378 0.960 . S
C392 H379 0.960 . S
C392 C391 1.524 . S
C393 C390 1.403 . S
C393 C394 1.392 . S
C393 C397 1.495 . S
C394 C393 1.392 . S
C394 C395 1.385 . S
C394 C396 1.478 . S
C395 H389 0.930 . S
C395 C391 1.400 . S
C395 C394 1.385 . S
C396 C394 1.478 . S
C396 C398 1.381 . S
C396 C402 1.383 . S
C397 C393 1.495 . S
C397 H403 0.959 . S
C397 H404 0.961 . S
C397 H405 0.960 . S
C398 C396 1.381 . S
C398 C399 1.394 . S
C398 H406 0.930 . S
C399 C398 1.394 . S
C399 C400 1.383 . S
C399 H407 0.929 . S
C400 C399 1.383 . S
C400 C401 1.377 . S
C401 H385 0.930 . S
C401 C400 1.377 . S
C401 C402 1.379 . S
C402 H386 0.931 . S
C402 C396 1.383 . S
C402 C401 1.379 . S
H403 C397 0.959 . S
H404 C397 0.961 . S
H405 C397 0.960 . S
H406 C398 0.930 . S
H407 C399 0.929 . S
H408 C416 0.929 . S
H409 C418 0.930 . S
H410 C420 0.930 . S
H411 C423 0.929 . S
H412 C426 0.930 . S
H413 C428 0.960 . S
H414 C428 0.960 . S
H415 C428 0.960 . S
C416 H408 0.929 . S
C416 C417 1.377 . S
C416 C418 1.384 . S
C417 C416 1.377 . S
C417 C423 1.390 . S
C418 H409 0.930 . S
C418 C416 1.384 . S
C418 C419 1.372 . S
C419 C418 1.372 . S
C419 C420 1.400 . S
C419 C424 1.490 . S
C420 H410 0.930 . S
C420 C419 1.400 . S
C420 C423 1.386 . S
H421 C437 0.930 . S
H422 C438 0.931 . S
C423 H411 0.929 . S
C423 C417 1.390 . S
C423 C420 1.386 . S
C424 C419 1.490 . S
C424 C426 1.395 . S
C424 C427 1.403 . S
H425 C431 0.930 . S
C426 H412 0.930 . S
C426 C424 1.395 . S
C426 C429 1.403 . S
C427 C424 1.403 . S
C427 C428 1.524 . S
C427 C431 1.400 . S
C428 H413 0.960 . S
C428 H414 0.960 . S
C428 H415 0.960 . S
C428 C427 1.524 . S
C429 C426 1.403 . S
C429 C430 1.392 . S
C429 C433 1.495 . S
C430 C429 1.392 . S
C430 C431 1.385 . S
C430 C432 1.478 . S
C431 H425 0.930 . S
C431 C427 1.400 . S
C431 C430 1.385 . S
C432 C430 1.478 . S
C432 C434 1.381 . S
C432 C438 1.383 1_545 S
C433 C429 1.495 . S
C433 H439 0.959 . S
C433 H440 0.961 . S
C433 H441 0.960 . S
C434 C432 1.381 . S
C434 C435 1.394 1_545 S
C434 H442 0.930 . S
C435 C434 1.394 1_565 S
C435 C436 1.383 . S
C435 H443 0.929 . S
C436 C435 1.383 . S
C436 C437 1.377 . S
C437 H421 0.930 . S
C437 C436 1.377 . S
C437 C438 1.379 . S
C438 H422 0.931 . S
C438 C432 1.383 1_565 S
C438 C437 1.379 . S
H439 C433 0.959 . S
H440 C433 0.961 . S
H441 C433 0.960 . S
H442 C434 0.930 . S
H443 C435 0.929 . S
H444 C452 0.929 . S
H445 C454 0.930 . S
H446 C456 0.930 . S
H447 C459 0.929 . S
H448 C462 0.930 . S
H449 C464 0.960 . S
H450 C464 0.960 . S
H451 C464 0.960 . S
C452 H444 0.929 . S
C452 C453 1.377 . S
C452 C454 1.384 . S
C453 C452 1.377 . S
C453 C459 1.390 . S
C454 H445 0.930 . S
C454 C452 1.384 . S
C454 C455 1.372 1_655 S
C455 C454 1.372 1_455 S
C455 C456 1.400 . S
C455 C460 1.490 . S
C456 H446 0.930 . S
C456 C455 1.400 . S
C456 C459 1.386 1_455 S
H457 C473 0.930 . S
H458 C474 0.931 . S
C459 H447 0.929 . S
C459 C453 1.390 . S
C459 C456 1.386 1_655 S
C460 C455 1.490 . S
C460 C462 1.395 . S
C460 C463 1.403 . S
H461 C467 0.930 . S
C462 H448 0.930 . S
C462 C460 1.395 . S
C462 C465 1.403 . S
C463 C460 1.403 . S
C463 C464 1.524 . S
C463 C467 1.400 . S
C464 H449 0.960 . S
C464 H450 0.960 . S
C464 H451 0.960 . S
C464 C463 1.524 . S
C465 C462 1.403 . S
C465 C466 1.392 . S
C465 C469 1.495 . S
C466 C465 1.392 . S
C466 C467 1.385 . S
C466 C468 1.478 . S
C467 H461 0.930 . S
C467 C463 1.400 . S
C467 C466 1.385 . S
C468 C466 1.478 . S
C468 C470 1.381 . S
C468 C474 1.383 . S
C469 C465 1.495 . S
C469 H475 0.959 . S
C469 H476 0.961 . S
C469 H477 0.960 . S
C470 C468 1.381 . S
C470 C471 1.394 . S
C470 H478 0.930 . S
C471 C470 1.394 . S
C471 C472 1.383 . S
C471 H479 0.929 . S
C472 C471 1.383 . S
C472 C473 1.377 . S
C473 H457 0.930 . S
C473 C472 1.377 . S
C473 C474 1.379 . S
C474 H458 0.931 . S
C474 C468 1.383 . S
C474 C473 1.379 . S
H475 C469 0.959 . S
H476 C469 0.961 . S
H477 C469 0.960 . S
H478 C470 0.930 . S
H479 C471 0.929 . S
H480 C488 0.929 . S
H481 C490 0.930 . S
H482 C492 0.930 . S
H483 C495 0.929 . S
H484 C498 0.930 . S
H485 C500 0.960 . S
H486 C500 0.960 . S
H487 C500 0.960 . S
C488 H480 0.929 . S
C488 C489 1.377 . S
C488 C490 1.384 1_455 S
C489 C488 1.377 . S
C489 C495 1.390 . S
C490 H481 0.930 . S
C490 C488 1.384 1_655 S
C490 C491 1.372 . S
C491 C490 1.372 . S
C491 C492 1.400 . S
C491 C496 1.490 . S
C492 H482 0.930 . S
C492 C491 1.400 . S
C492 C495 1.386 1_655 S
H493 C509 0.930 . S
H494 C510 0.931 1_545 S
C495 H483 0.929 . S
C495 C489 1.390 . S
C495 C492 1.386 1_455 S
C496 C491 1.490 . S
C496 C498 1.395 . S
C496 C499 1.403 . S
H497 C503 0.930 . S
C498 H484 0.930 . S
C498 C496 1.395 . S
C498 C501 1.403 . S
C499 C496 1.403 . S
C499 C500 1.524 . S
C499 C503 1.400 . S
C500 H485 0.960 . S
C500 H486 0.960 . S
C500 H487 0.960 . S
C500 C499 1.524 . S
C501 C498 1.403 . S
C501 C502 1.392 . S
C501 C505 1.495 . S
C502 C501 1.392 . S
C502 C503 1.385 . S
C502 C504 1.478 . S
C503 H497 0.930 . S
C503 C499 1.400 . S
C503 C502 1.385 . S
C504 C502 1.478 . S
C504 C506 1.380 1_545 S
C504 C510 1.383 1_545 S
C505 C501 1.495 . S
C505 H511 0.959 . S
C505 H512 0.961 . S
C505 H513 0.960 . S
C506 C504 1.380 1_565 S
C506 C507 1.397 . S
C506 H514 0.928 1_565 S
C507 C506 1.397 . S
C507 C508 1.383 . S
C507 H515 0.929 . S
C508 C507 1.383 . S
C508 C509 1.377 . S
C509 H493 0.930 . S
C509 C508 1.377 . S
C509 C510 1.379 . S
C510 H494 0.931 1_565 S
C510 C504 1.383 1_565 S
C510 C509 1.379 . S
H511 C505 0.959 . S
H512 C505 0.961 . S
H513 C505 0.960 . S
H514 C506 0.928 1_545 S
H515 C507 0.929 . S
H516 C524 0.929 . S
H517 C526 0.930 1_565 S
H518 C528 0.930 . S
H519 C531 0.929 . S
H520 C534 0.930 . S
H521 C536 0.960 . S
H522 C536 0.960 . S
H523 C536 0.960 . S
C524 H516 0.929 . S
C524 C525 1.377 . S
C524 C526 1.384 . S
C525 C524 1.377 . S
C525 C531 1.390 . S
C526 H517 0.930 1_545 S
C526 C524 1.384 . S
C526 C527 1.372 1_545 S
C527 C526 1.372 1_565 S
C527 C528 1.400 . S
C527 C532 1.490 . S
C528 H518 0.930 . S
C528 C527 1.400 . S
C528 C531 1.386 1_565 S
H529 C545 0.930 . S
H530 C546 0.931 . S
C531 H519 0.929 . S
C531 C525 1.390 . S
C531 C528 1.386 1_545 S
C532 C527 1.490 . S
C532 C534 1.395 . S
C532 C535 1.403 . S
H533 C539 0.930 . S
C534 H520 0.930 . S
C534 C532 1.395 . S
C534 C537 1.403 . S
C535 C532 1.403 . S
C535 C536 1.524 . S
C535 C539 1.400 . S
C536 H521 0.960 . S
C536 H522 0.960 . S
C536 H523 0.960 . S
C536 C535 1.524 . S
C537 C534 1.403 . S
C537 C538 1.392 . S
C537 C541 1.495 . S
C538 C537 1.392 . S
C538 C539 1.385 . S
C538 C540 1.478 . S
C539 H533 0.930 . S
C539 C535 1.400 . S
C539 C538 1.385 . S
C540 C538 1.478 . S
C540 C542 1.381 . S
C540 C546 1.383 . S
C541 C537 1.495 . S
C541 H547 0.959 . S
C541 H548 0.961 . S
C541 H549 0.960 . S
C542 C540 1.381 . S
C542 C543 1.394 . S
C542 H550 0.930 . S
C543 C542 1.394 . S
C543 C544 1.383 . S
C543 H551 0.929 . S
C544 C543 1.383 . S
C544 C545 1.377 . S
C545 H529 0.930 . S
C545 C544 1.377 . S
C545 C546 1.379 . S
C546 H530 0.931 . S
C546 C540 1.383 . S
C546 C545 1.379 . S
H547 C541 0.959 . S
H548 C541 0.961 . S
H549 C541 0.960 . S
H550 C542 0.930 . S
H551 C543 0.929 . S
H552 C560 0.929 . S
H553 C562 0.930 . S
H554 C564 0.930 . S
H555 C567 0.929 . S
H556 C570 0.930 . S
H557 C572 0.960 . S
H558 C572 0.960 . S
H559 C572 0.960 . S
C560 H552 0.929 . S
C560 C561 1.377 . S
C560 C562 1.384 . S
C561 C560 1.377 . S
C561 C567 1.390 . S
C562 H553 0.930 . S
C562 C560 1.384 . S
C562 C563 1.372 . S
C563 C562 1.372 . S
C563 C564 1.400 . S
C563 C568 1.490 . S
C564 H554 0.930 . S
C564 C563 1.400 . S
C564 C567 1.386 . S
H565 C581 0.930 . S
H566 C582 0.930 . S
C567 H555 0.929 . S
C567 C561 1.390 . S
C567 C564 1.386 . S
C568 C563 1.490 . S
C568 C570 1.395 . S
C568 C571 1.403 . S
H569 C575 0.930 . S
C570 H556 0.930 . S
C570 C568 1.395 . S
C570 C573 1.403 . S
C571 C568 1.403 . S
C571 C572 1.524 . S
C571 C575 1.400 . S
C572 H557 0.960 . S
C572 H558 0.960 . S
C572 H559 0.960 . S
C572 C571 1.524 . S
C573 C570 1.403 . S
C573 C574 1.392 . S
C573 C577 1.495 . S
C574 C573 1.392 . S
C574 C575 1.385 . S
C574 C576 1.478 . S
C575 H569 0.930 . S
C575 C571 1.400 . S
C575 C574 1.385 . S
C576 C574 1.478 . S
C576 C578 1.381 . S
C576 C582 1.381 . S
C577 C573 1.495 . S
C577 H583 0.959 . S
C577 H584 0.961 . S
C577 H585 0.960 . S
C578 C576 1.381 . S
C578 C579 1.394 1_655 S
C578 H586 0.930 . S
C579 C578 1.394 1_455 S
C579 C580 1.383 . S
C579 H587 0.929 . S
C580 C579 1.383 . S
C580 C581 1.377 . S
C581 H565 0.930 . S
C581 C580 1.377 . S
C581 C582 1.382 1_455 S
C582 H566 0.930 . S
C582 C576 1.381 . S
C582 C581 1.382 1_655 S
H583 C577 0.959 . S
H584 C577 0.961 . S
H585 C577 0.960 . S
H586 C578 0.930 . S
H587 C579 0.929 . S
H588 C596 0.929 . S
H589 C598 0.930 . S
H590 C600 0.930 . S
H591 C603 0.929 . S
H592 C606 0.930 . S
H593 C608 0.960 . S
H594 C608 0.960 . S
H595 C608 0.960 . S
C596 H588 0.929 . S
C596 C597 1.377 . S
C596 C598 1.384 . S
C597 C596 1.377 . S
C597 C603 1.390 . S
C598 H589 0.930 . S
C598 C596 1.384 . S
C598 C599 1.372 1_545 S
C599 C598 1.372 1_565 S
C599 C600 1.400 . S
C599 C604 1.490 . S
C600 H590 0.930 . S
C600 C599 1.400 . S
C600 C603 1.386 1_565 S
H601 C617 0.930 . S
H602 C618 0.931 . S
C603 H591 0.929 . S
C603 C597 1.390 . S
C603 C600 1.386 1_545 S
C604 C599 1.490 . S
C604 C606 1.395 . S
C604 C607 1.403 . S
H605 C611 0.930 . S
C606 H592 0.930 . S
C606 C604 1.395 . S
C606 C609 1.403 . S
C607 C604 1.403 . S
C607 C608 1.524 . S
C607 C611 1.400 . S
C608 H593 0.960 . S
C608 H594 0.960 . S
C608 H595 0.960 . S
C608 C607 1.524 . S
C609 C606 1.403 . S
C609 C610 1.392 . S
C609 C613 1.495 . S
C610 C609 1.392 . S
C610 C611 1.385 . S
C610 C612 1.478 . S
C611 H605 0.930 . S
C611 C607 1.400 . S
C611 C610 1.385 . S
C612 C610 1.478 . S
C612 C614 1.381 1_455 S
C612 C618 1.383 . S
C613 C609 1.495 . S
C613 H619 0.959 . S
C613 H620 0.961 . S
C613 H621 0.960 . S
C614 C612 1.381 1_655 S
C614 C615 1.394 . S
C614 H622 0.930 . S
C615 C614 1.394 . S
C615 C616 1.383 . S
C615 H623 0.929 . S
C616 C615 1.383 . S
C616 C617 1.377 . S
C617 H601 0.930 . S
C617 C616 1.377 . S
C617 C618 1.379 1_655 S
C618 H602 0.931 . S
C618 C612 1.383 . S
C618 C617 1.379 1_455 S
H619 C613 0.959 . S
H620 C613 0.961 . S
H621 C613 0.960 . S
H622 C614 0.930 . S
H623 C615 0.929 . S
H624 C632 0.929 . S
H625 C634 0.930 . S
H626 C636 0.930 . S
H627 C639 0.929 . S
H628 C642 0.930 . S
H629 C644 0.960 . S
H630 C644 0.960 . S
H631 C644 0.960 . S
C632 H624 0.929 . S
C632 C633 1.377 . S
C632 C634 1.384 . S
C633 C632 1.377 . S
C633 C639 1.390 . S
C634 H625 0.930 . S
C634 C632 1.384 . S
C634 C635 1.372 . S
C635 C634 1.372 . S
C635 C636 1.400 . S
C635 C640 1.490 . S
C636 H626 0.930 . S
C636 C635 1.400 . S
C636 C639 1.386 . S
H637 C653 0.930 . S
H638 C654 0.931 . S
C639 H627 0.929 . S
C639 C633 1.390 . S
C639 C636 1.386 . S
C640 C635 1.490 . S
C640 C642 1.395 1_554 S
C640 C643 1.403 . S
H641 C647 0.930 . S
C642 H628 0.930 . S
C642 C640 1.395 1_556 S
C642 C645 1.403 . S
C643 C640 1.403 . S
C643 C644 1.524 . S
C643 C647 1.400 1_554 S
C644 H629 0.960 . S
C644 H630 0.960 . S
C644 H631 0.960 . S
C644 C643 1.524 . S
C645 C642 1.403 . S
C645 C646 1.392 . S
C645 C649 1.495 . S
C646 C645 1.392 . S
C646 C647 1.385 . S
C646 C648 1.478 . S
C647 H641 0.930 . S
C647 C643 1.400 1_556 S
C647 C646 1.385 . S
C648 C646 1.478 . S
C648 C650 1.381 . S
C648 C654 1.383 . S
C649 C645 1.495 . S
C649 H655 0.959 . S
C649 H656 0.961 . S
C649 H657 0.960 . S
C650 C648 1.381 . S
C650 C651 1.394 . S
C650 H658 0.930 . S
C651 C650 1.394 . S
C651 C652 1.383 . S
C651 H659 0.929 . S
C652 C651 1.383 . S
C652 C653 1.377 . S
C653 H637 0.930 . S
C653 C652 1.377 . S
C653 C654 1.379 . S
C654 H638 0.931 . S
C654 C648 1.383 . S
C654 C653 1.379 . S
H655 C649 0.959 . S
H656 C649 0.961 . S
H657 C649 0.960 . S
H658 C650 0.930 . S
H659 C651 0.929 . S
H660 C668 0.929 . S
H661 C670 0.930 . S
H662 C672 0.930 . S
H663 C675 0.929 . S
H664 C678 0.930 . S
H665 C680 0.960 . S
H666 C680 0.960 . S
H667 C680 0.960 . S
C668 H660 0.929 . S
C668 C669 1.377 . S
C668 C670 1.384 . S
C669 C668 1.377 . S
C669 C675 1.390 . S
C670 H661 0.930 . S
C670 C668 1.384 . S
C670 C671 1.372 . S
C671 C670 1.372 . S
C671 C672 1.400 . S
C671 C676 1.490 . S
C672 H662 0.930 . S
C672 C671 1.400 . S
C672 C675 1.386 . S
H673 C689 0.930 . S
H674 C690 0.931 . S
C675 H663 0.929 . S
C675 C669 1.390 . S
C675 C672 1.386 . S
C676 C671 1.490 . S
C676 C678 1.395 . S
C676 C679 1.403 . S
H677 C683 0.930 . S
C678 H664 0.930 . S
C678 C676 1.395 . S
C678 C681 1.403 1_655 S
C679 C676 1.403 . S
C679 C680 1.524 . S
C679 C683 1.400 1_655 S
C680 H665 0.960 . S
C680 H666 0.960 . S
C680 H667 0.960 . S
C680 C679 1.524 . S
C681 C678 1.403 1_455 S
C681 C682 1.392 . S
C681 C685 1.495 . S
C682 C681 1.392 . S
C682 C683 1.385 . S
C682 C684 1.478 . S
C683 H677 0.930 . S
C683 C679 1.400 1_455 S
C683 C682 1.385 . S
C684 C682 1.478 . S
C684 C686 1.381 . S
C684 C690 1.383 . S
C685 C681 1.495 . S
C685 H691 0.959 . S
C685 H692 0.961 . S
C685 H693 0.960 . S
C686 C684 1.381 . S
C686 C687 1.394 . S
C686 H694 0.930 . S
C687 C686 1.394 . S
C687 C688 1.383 . S
C687 H695 0.929 . S
C688 C687 1.383 . S
C688 C689 1.377 . S
C689 H673 0.930 . S
C689 C688 1.377 . S
C689 C690 1.379 . S
C690 H674 0.931 . S
C690 C684 1.383 . S
C690 C689 1.379 . S
H691 C685 0.959 . S
H692 C685 0.961 . S
H693 C685 0.960 . S
H694 C686 0.930 . S
H695 C687 0.929 . S
H696 C704 0.929 . S
H697 C706 0.930 . S
H698 C708 0.930 . S
H699 C711 0.929 . S
H700 C714 0.930 . S
H701 C716 0.960 . S
H702 C716 0.960 . S
H703 C716 0.960 . S
C704 H696 0.929 . S
C704 C705 1.377 . S
C704 C706 1.384 . S
C705 C704 1.377 . S
C705 C711 1.390 . S
C706 H697 0.930 . S
C706 C704 1.384 . S
C706 C707 1.372 . S
C707 C706 1.372 . S
C707 C708 1.400 . S
C707 C712 1.490 . S
C708 H698 0.930 . S
C708 C707 1.400 . S
C708 C711 1.386 . S
H709 C725 0.930 . S
H710 C726 0.931 . S
C711 H699 0.929 . S
C711 C705 1.390 . S
C711 C708 1.386 . S
C712 C707 1.490 . S
C712 C714 1.395 . S
C712 C715 1.403 . S
H713 C719 0.930 . S
C714 H700 0.930 . S
C714 C712 1.395 . S
C714 C717 1.403 1_564 S
C715 C712 1.403 . S
C715 C716 1.524 . S
C715 C719 1.400 1_564 S
C716 H701 0.960 . S
C716 H702 0.960 . S
C716 H703 0.960 . S
C716 C715 1.524 . S
C717 C714 1.403 1_546 S
C717 C718 1.392 . S
C717 C721 1.495 . S
C718 C717 1.392 . S
C718 C719 1.385 . S
C718 C720 1.478 . S
C719 H713 0.930 . S
C719 C715 1.400 1_546 S
C719 C718 1.385 . S
C720 C718 1.478 . S
C720 C722 1.381 . S
C720 C726 1.383 . S
C721 C717 1.495 . S
C721 H727 0.959 . S
C721 H728 0.961 . S
C721 H729 0.960 . S
C722 C720 1.381 . S
C722 C723 1.394 . S
C722 H730 0.930 . S
C723 C722 1.394 . S
C723 C724 1.383 . S
C723 H731 0.929 . S
C724 C723 1.383 . S
C724 C725 1.377 . S
C725 H709 0.930 . S
C725 C724 1.377 . S
C725 C726 1.379 . S
C726 H710 0.931 . S
C726 C720 1.383 . S
C726 C725 1.379 . S
H727 C721 0.959 . S
H728 C721 0.961 . S
H729 C721 0.960 . S
H730 C722 0.930 . S
H731 C723 0.929 . S
H732 C740 0.929 . S
H733 C742 0.930 . S
H734 C744 0.930 . S
H735 C747 0.929 . S
H736 C750 0.930 . S
H737 C752 0.960 . S
H738 C752 0.960 . S
H739 C752 0.960 . S
C740 H732 0.929 . S
C740 C741 1.377 . S
C740 C742 1.384 . S
C741 C740 1.377 . S
C741 C747 1.390 . S
C742 H733 0.930 . S
C742 C740 1.384 . S
C742 C743 1.372 . S
C743 C742 1.372 . S
C743 C744 1.400 . S
C743 C748 1.490 . S
C744 H734 0.930 . S
C744 C743 1.400 . S
C744 C747 1.386 . S
H745 C761 0.930 . S
H746 C762 0.931 . S
C747 H735 0.929 . S
C747 C741 1.390 . S
C747 C744 1.386 . S
C748 C743 1.490 . S
C748 C750 1.395 . S
C748 C751 1.403 . S
H749 C755 0.930 . S
C750 H736 0.930 . S
C750 C748 1.395 . S
C750 C753 1.403 . S
C751 C748 1.403 . S
C751 C752 1.524 . S
C751 C755 1.400 . S
C752 H737 0.960 . S
C752 H738 0.960 . S
C752 H739 0.960 . S
C752 C751 1.524 . S
C753 C750 1.403 . S
C753 C754 1.392 . S
C753 C757 1.495 . S
C754 C753 1.392 . S
C754 C755 1.385 . S
C754 C756 1.478 . S
C755 H749 0.930 . S
C755 C751 1.400 . S
C755 C754 1.385 . S
C756 C754 1.478 . S
C756 C758 1.381 . S
C756 C762 1.383 . S
C757 C753 1.495 . S
C757 H763 0.959 . S
C757 H764 0.961 . S
C757 H765 0.960 . S
C758 C756 1.381 . S
C758 C759 1.394 . S
C758 H766 0.930 . S
C759 C758 1.394 . S
C759 C760 1.383 . S
C759 H767 0.929 . S
C760 C759 1.383 . S
C760 C761 1.377 . S
C761 H745 0.930 . S
C761 C760 1.377 . S
C761 C762 1.379 . S
C762 H746 0.931 . S
C762 C756 1.383 . S
C762 C761 1.379 . S
H763 C757 0.959 . S
H764 C757 0.961 . S
H765 C757 0.960 . S
H766 C758 0.930 . S
H767 C759 0.929 . S
H768 C776 0.929 . S
H769 C778 0.930 . S
H770 C780 0.930 . S
H771 C783 0.929 . S
H772 C786 0.930 . S
H773 C788 0.960 1_455 S
H774 C788 0.960 . S
H775 C788 0.960 1_455 S
C776 H768 0.929 . S
C776 C777 1.377 . S
C776 C778 1.384 . S
C777 C776 1.377 . S
C777 C783 1.390 . S
C778 H769 0.930 . S
C778 C776 1.384 . S
C778 C779 1.372 . S
C779 C778 1.372 . S
C779 C780 1.400 . S
C779 C784 1.490 . S
C780 H770 0.930 . S
C780 C779 1.400 . S
C780 C783 1.386 . S
H781 C797 0.930 . S
H782 C798 0.931 . S
C783 H771 0.929 . S
C783 C777 1.390 . S
C783 C780 1.386 . S
C784 C779 1.490 . S
C784 C786 1.395 . S
C784 C787 1.403 . S
H785 C791 0.930 . S
C786 H772 0.930 . S
C786 C784 1.395 . S
C786 C789 1.403 1_556 S
C787 C784 1.403 . S
C787 C788 1.524 . S
C787 C791 1.400 1_656 S
C788 H773 0.960 1_655 S
C788 H774 0.960 . S
C788 H775 0.960 1_655 S
C788 C787 1.524 . S
C789 C786 1.403 1_554 S
C789 C790 1.392 1_655 S
C789 C793 1.495 . S
C790 C789 1.392 1_455 S
C790 C791 1.385 . S
C790 C792 1.478 . S
C791 H785 0.930 . S
C791 C787 1.400 1_454 S
C791 C790 1.385 . S
C792 C790 1.478 . S
C792 C794 1.381 . S
C792 C798 1.383 . S
C793 C789 1.495 . S
C793 H799 0.959 . S
C793 H800 0.961 1_655 S
C793 H801 0.960 . S
C794 C792 1.381 . S
C794 C795 1.394 . S
C794 H802 0.930 . S
C795 C794 1.394 . S
C795 C796 1.383 . S
C795 H803 0.929 . S
C796 C795 1.383 . S
C796 C797 1.377 . S
C797 H781 0.930 . S
C797 C796 1.377 . S
C797 C798 1.379 . S
C798 H782 0.931 . S
C798 C792 1.383 . S
C798 C797 1.379 . S
H799 C793 0.959 . S
H800 C793 0.961 1_455 S
H801 C793 0.960 . S
H802 C794 0.930 . S
H803 C795 0.929 . S
H804 C812 0.929 . S
H805 C814 0.930 . S
H806 C816 0.930 . S
H807 C819 0.929 . S
H808 C822 0.930 . S
H809 C824 0.960 . S
H810 C824 0.960 . S
H811 C824 0.960 . S
C812 H804 0.929 . S
C812 C813 1.377 . S
C812 C814 1.384 . S
C813 C812 1.377 . S
C813 C819 1.390 . S
C814 H805 0.930 . S
C814 C812 1.384 . S
C814 C815 1.372 . S
C815 C814 1.372 . S
C815 C816 1.400 . S
C815 C820 1.490 . S
C816 H806 0.930 . S
C816 C815 1.400 . S
C816 C819 1.386 . S
H817 C833 0.930 . S
H818 C834 0.931 . S
C819 H807 0.929 . S
C819 C813 1.390 . S
C819 C816 1.386 . S
C820 C815 1.490 . S
C820 C822 1.395 . S
C820 C823 1.403 1_545 S
H821 C827 0.930 . S
C822 H808 0.930 . S
C822 C820 1.395 . S
C822 C825 1.403 . S
C823 C820 1.403 1_565 S
C823 C824 1.524 . S
C823 C827 1.400 . S
C824 H809 0.960 . S
C824 H810 0.960 . S
C824 H811 0.960 . S
C824 C823 1.524 . S
C825 C822 1.403 . S
C825 C826 1.392 1_545 S
C825 C829 1.495 . S
C826 C825 1.392 1_565 S
C826 C827 1.385 . S
C826 C828 1.478 . S
C827 H821 0.930 . S
C827 C823 1.400 . S
C827 C826 1.385 . S
C828 C826 1.478 . S
C828 C830 1.381 . S
C828 C834 1.383 . S
C829 C825 1.495 . S
C829 H835 0.959 . S
C829 H836 0.961 . S
C829 H837 0.960 . S
C830 C828 1.381 . S
C830 C831 1.394 . S
C830 H838 0.930 . S
C831 C830 1.394 . S
C831 C832 1.383 . S
C831 H839 0.929 . S
C832 C831 1.383 . S
C832 C833 1.377 . S
C833 H817 0.930 . S
C833 C832 1.377 . S
C833 C834 1.379 . S
C834 H818 0.931 . S
C834 C828 1.383 . S
C834 C833 1.379 . S
H835 C829 0.959 . S
H836 C829 0.961 . S
H837 C829 0.960 . S
H838 C830 0.930 . S
H839 C831 0.929 . S
H840 C848 0.929 . S
H841 C850 0.930 . S
H842 C852 0.930 . S
H843 C855 0.929 . S
H844 C858 0.930 . S
H845 C860 0.960 . S
H846 C860 0.960 . S
H847 C860 0.960 . S
C848 H840 0.929 . S
C848 C849 1.377 . S
C848 C850 1.384 . S
C849 C848 1.377 . S
C849 C855 1.390 . S
C850 H841 0.930 . S
C850 C848 1.384 . S
C850 C851 1.372 . S
C851 C850 1.372 . S
C851 C852 1.400 . S
C851 C856 1.490 . S
C852 H842 0.930 . S
C852 C851 1.400 . S
C852 C855 1.386 . S
H853 C869 0.930 . S
H854 C870 0.931 . S
C855 H843 0.929 . S
C855 C849 1.390 . S
C855 C852 1.386 . S
C856 C851 1.490 . S
C856 C858 1.395 1_556 S
C856 C859 1.403 . S
H857 C863 0.930 . S
C858 H844 0.930 . S
C858 C856 1.395 1_554 S
C858 C861 1.403 . S
C859 C856 1.403 . S
C859 C860 1.524 . S
C859 C863 1.400 1_556 S
C860 H845 0.960 . S
C860 H846 0.960 . S
C860 H847 0.960 . S
C860 C859 1.524 . S
C861 C858 1.403 . S
C861 C862 1.392 . S
C861 C865 1.495 . S
C862 C861 1.392 . S
C862 C863 1.385 . S
C862 C864 1.478 . S
C863 H857 0.930 . S
C863 C859 1.400 1_554 S
C863 C862 1.385 . S
C864 C862 1.478 . S
C864 C866 1.381 . S
C864 C870 1.383 . S
C865 C861 1.495 . S
C865 H871 0.959 . S
C865 H872 0.961 . S
C865 H873 0.960 . S
C866 C864 1.381 . S
C866 C867 1.394 . S
C866 H874 0.930 . S
C867 C866 1.394 . S
C867 C868 1.383 . S
C867 H875 0.929 . S
C868 C867 1.383 . S
C868 C869 1.377 . S
C869 H853 0.930 . S
C869 C868 1.377 . S
C869 C870 1.379 . S
C870 H854 0.931 . S
C870 C864 1.383 . S
C870 C869 1.379 . S
H871 C865 0.959 . S
H872 C865 0.961 . S
H873 C865 0.960 . S
H874 C866 0.930 . S
H875 C867 0.929 . S
H876 C884 0.929 . S
H877 C886 0.930 . S
H878 C888 0.930 . S
H879 C891 0.929 . S
H880 C894 0.930 . S
H881 C896 0.960 1_655 S
H882 C896 0.960 . S
H883 C896 0.960 . S
C884 H876 0.929 . S
C884 C885 1.377 . S
C884 C886 1.384 . S
C885 C884 1.377 . S
C885 C891 1.390 . S
C886 H877 0.930 . S
C886 C884 1.384 . S
C886 C887 1.372 . S
C887 C886 1.372 . S
C887 C888 1.400 . S
C887 C892 1.490 . S
C888 H878 0.930 . S
C888 C887 1.400 . S
C888 C891 1.386 . S
H889 C905 0.930 . S
H890 C906 0.931 . S
C891 H879 0.929 . S
C891 C885 1.390 . S
C891 C888 1.386 . S
C892 C887 1.490 . S
C892 C894 1.395 . S
C892 C895 1.403 . S
H893 C899 0.930 . S
C894 H880 0.930 . S
C894 C892 1.395 . S
C894 C897 1.403 1_455 S
C895 C892 1.403 . S
C895 C896 1.524 . S
C895 C899 1.400 1_455 S
C896 H881 0.960 1_455 S
C896 H882 0.960 . S
C896 H883 0.960 . S
C896 C895 1.524 . S
C897 C894 1.403 1_655 S
C897 C898 1.392 . S
C897 C901 1.495 . S
C898 C897 1.392 . S
C898 C899 1.385 . S
C898 C900 1.478 . S
C899 H893 0.930 . S
C899 C895 1.400 1_655 S
C899 C898 1.385 . S
C900 C898 1.478 . S
C900 C902 1.381 . S
C900 C906 1.383 . S
C901 C897 1.495 . S
C901 H907 0.959 1_655 S
C901 H908 0.961 . S
C901 H909 0.959 1_655 S
C902 C900 1.381 . S
C902 C903 1.394 . S
C902 H910 0.930 . S
C903 C902 1.394 . S
C903 C904 1.383 . S
C903 H911 0.929 . S
C904 C903 1.383 . S
C904 C905 1.377 . S
C905 H889 0.930 . S
C905 C904 1.377 . S
C905 C906 1.379 . S
C906 H890 0.931 . S
C906 C900 1.383 . S
C906 C905 1.379 . S
H907 C901 0.959 1_455 S
H908 C901 0.961 . S
H909 C901 0.959 1_455 S
H910 C902 0.930 . S
H911 C903 0.929 . S
H912 C920 0.929 . S
H913 C922 0.930 . S
H914 C924 0.930 . S
H915 C927 0.929 . S
H916 C930 0.930 . S
H917 C932 0.960 . S
H918 C932 0.960 . S
H919 C932 0.960 . S
C920 H912 0.929 . S
C920 C921 1.377 . S
C920 C922 1.384 . S
C921 C920 1.377 . S
C921 C927 1.390 . S
C922 H913 0.930 . S
C922 C920 1.384 . S
C922 C923 1.372 . S
C923 C922 1.372 . S
C923 C924 1.400 . S
C923 C928 1.490 . S
C924 H914 0.930 . S
C924 C923 1.400 . S
C924 C927 1.386 . S
H925 C941 0.930 . S
H926 C942 0.931 . S
C927 H915 0.929 . S
C927 C921 1.390 . S
C927 C924 1.386 . S
C928 C923 1.490 . S
C928 C930 1.395 . S
C928 C931 1.403 . S
H929 C935 0.930 . S
C930 H916 0.930 . S
C930 C928 1.395 . S
C930 C933 1.403 1_546 S
C931 C928 1.403 . S
C931 C932 1.524 . S
C931 C935 1.400 1_546 S
C932 H917 0.960 . S
C932 H918 0.960 . S
C932 H919 0.960 . S
C932 C931 1.524 . S
C933 C930 1.403 1_564 S
C933 C934 1.392 . S
C933 C937 1.495 . S
C934 C933 1.392 . S
C934 C935 1.385 . S
C934 C936 1.478 . S
C935 H929 0.930 . S
C935 C931 1.400 1_564 S
C935 C934 1.385 . S
C936 C934 1.478 . S
C936 C938 1.381 . S
C936 C942 1.383 . S
C937 C933 1.495 . S
C937 H943 0.959 . S
C937 H944 0.961 . S
C937 H945 0.960 . S
C938 C936 1.381 . S
C938 C939 1.394 . S
C938 H946 0.930 . S
C939 C938 1.394 . S
C939 C940 1.383 . S
C939 H947 0.929 . S
C940 C939 1.383 . S
C940 C941 1.377 . S
C941 H925 0.930 . S
C941 C940 1.377 . S
C941 C942 1.379 . S
C942 H926 0.931 . S
C942 C936 1.383 . S
C942 C941 1.379 . S
H943 C937 0.959 . S
H944 C937 0.961 . S
H945 C937 0.960 . S
H946 C938 0.930 . S
H947 C939 0.929 . S
H948 C956 0.929 . S
H949 C958 0.930 . S
H950 C960 0.930 . S
H951 C963 0.929 . S
H952 C966 0.930 . S
H953 C968 0.960 . S
H954 C968 0.960 . S
H955 C968 0.960 . S
C956 H948 0.929 . S
C956 C957 1.377 . S
C956 C958 1.384 . S
C957 C956 1.377 . S
C957 C963 1.390 . S
C958 H949 0.930 . S
C958 C956 1.384 . S
C958 C959 1.372 . S
C959 C958 1.372 . S
C959 C960 1.400 . S
C959 C964 1.490 . S
C960 H950 0.930 . S
C960 C959 1.400 . S
C960 C963 1.386 . S
H961 C977 0.930 . S
H962 C978 0.931 . S
C963 H951 0.929 . S
C963 C957 1.390 . S
C963 C960 1.386 . S
C964 C959 1.490 . S
C964 C966 1.395 . S
C964 C967 1.403 . S
H965 C971 0.930 . S
C966 H952 0.930 . S
C966 C964 1.395 . S
C966 C969 1.403 . S
C967 C964 1.403 . S
C967 C968 1.524 . S
C967 C971 1.400 . S
C968 H953 0.960 . S
C968 H954 0.960 . S
C968 H955 0.960 . S
C968 C967 1.524 . S
C969 C966 1.403 . S
C969 C970 1.392 . S
C969 C973 1.495 . S
C970 C969 1.392 . S
C970 C971 1.385 . S
C970 C972 1.478 . S
C971 H965 0.930 . S
C971 C967 1.400 . S
C971 C970 1.385 . S
C972 C970 1.478 . S
C972 C974 1.381 . S
C972 C978 1.383 . S
C973 C969 1.495 . S
C973 H979 0.959 . S
C973 H980 0.961 . S
C973 H981 0.960 . S
C974 C972 1.381 . S
C974 C975 1.394 . S
C974 H982 0.930 . S
C975 C974 1.394 . S
C975 C976 1.383 . S
C975 H983 0.929 . S
C976 C975 1.383 . S
C976 C977 1.377 . S
C977 H961 0.930 . S
C977 C976 1.377 . S
C977 C978 1.379 . S
C978 H962 0.931 . S
C978 C972 1.383 . S
C978 C977 1.379 . S
H979 C973 0.959 . S
H980 C973 0.961 . S
H981 C973 0.960 . S
H982 C974 0.930 . S
H983 C975 0.929 . S
H984 C992 0.929 . S
H985 C994 0.930 . S
H986 C996 0.930 . S
H987 C999 0.929 . S
H988 C1002 0.930 . S
H989 C1004 0.960 . S
H990 C1004 0.960 . S
H991 C1004 0.960 1_455 S
C992 H984 0.929 . S
C992 C993 1.377 . S
C992 C994 1.384 . S
C993 C992 1.377 . S
C993 C999 1.390 . S
C994 H985 0.930 . S
C994 C992 1.384 . S
C994 C995 1.372 . S
C995 C994 1.372 . S
C995 C996 1.400 . S
C995 C1000 1.490 . S
C996 H986 0.930 . S
C996 C995 1.400 . S
C996 C999 1.386 . S
H997 C1013 0.930 . S
H998 C1014 0.931 . S
C999 H987 0.929 . S
C999 C993 1.390 . S
C999 C996 1.386 . S
C1000 C995 1.490 . S
C1000 C1002 1.395 . S
C1000 C1003 1.403 1_455 S
H1001 C1007 0.930 . S
C1002 H988 0.930 . S
C1002 C1000 1.395 . S
C1002 C1005 1.403 1_554 S
C1003 C1000 1.403 1_655 S
C1003 C1004 1.524 . S
C1003 C1007 1.400 1_554 S
C1004 H989 0.960 . S
C1004 H990 0.960 . S
C1004 H991 0.960 1_655 S
C1004 C1003 1.524 . S
C1005 C1002 1.403 1_556 S
C1005 C1006 1.392 1_455 S
C1005 C1009 1.495 . S
C1006 C1005 1.392 1_655 S
C1006 C1007 1.385 . S
C1006 C1008 1.478 . S
C1007 H1001 0.930 . S
C1007 C1003 1.400 1_556 S
C1007 C1006 1.385 . S
C1008 C1006 1.478 . S
C1008 C1010 1.381 . S
C1008 C1014 1.383 . S
C1009 C1005 1.495 . S
C1009 H1015 0.959 . S
C1009 H1016 0.961 . S
C1009 H1017 0.960 1_455 S
C1010 C1008 1.381 . S
C1010 C1011 1.394 . S
C1010 H1018 0.930 . S
C1011 C1010 1.394 . S
C1011 C1012 1.383 . S
C1011 H1019 0.929 . S
C1012 C1011 1.383 . S
C1012 C1013 1.377 . S
C1013 H997 0.930 . S
C1013 C1012 1.377 . S
C1013 C1014 1.379 . S
C1014 H998 0.931 . S
C1014 C1008 1.383 . S
C1014 C1013 1.379 . S
H1015 C1009 0.959 . S
H1016 C1009 0.961 . S
H1017 C1009 0.960 1_655 S
H1018 C1010 0.930 . S
H1019 C1011 0.929 . S
H1020 C1028 0.929 . S
H1021 C1030 0.930 . S
H1022 C1032 0.930 . S
H1023 C1035 0.929 . S
H1024 C1038 0.930 . S
H1025 C1040 0.960 . S
H1026 C1040 0.960 . S
H1027 C1040 0.960 . S
C1028 H1020 0.929 . S
C1028 C1029 1.377 . S
C1028 C1030 1.384 . S
C1029 C1028 1.377 . S
C1029 C1035 1.390 . S
C1030 H1021 0.930 . S
C1030 C1028 1.384 . S
C1030 C1031 1.372 . S
C1031 C1030 1.372 . S
C1031 C1032 1.400 . S
C1031 C1036 1.490 . S
C1032 H1022 0.930 . S
C1032 C1031 1.400 . S
C1032 C1035 1.386 . S
H1033 C1049 0.930 . S
H1034 C1050 0.931 . S
C1035 H1023 0.929 . S
C1035 C1029 1.390 . S
C1035 C1032 1.386 . S
C1036 C1031 1.490 . S
C1036 C1038 1.395 1_545 S
C1036 C1039 1.403 . S
H1037 C1043 0.930 . S
C1038 H1024 0.930 . S
C1038 C1036 1.395 1_565 S
C1038 C1041 1.403 . S
C1039 C1036 1.403 . S
C1039 C1040 1.524 . S
C1039 C1043 1.400 . S
C1040 H1025 0.960 . S
C1040 H1026 0.960 . S
C1040 H1027 0.960 . S
C1040 C1039 1.524 . S
C1041 C1038 1.403 . S
C1041 C1042 1.392 . S
C1041 C1045 1.495 . S
C1042 C1041 1.392 . S
C1042 C1043 1.385 1_565 S
C1042 C1044 1.478 . S
C1043 H1037 0.930 . S
C1043 C1039 1.400 . S
C1043 C1042 1.385 1_545 S
C1044 C1042 1.478 . S
C1044 C1046 1.381 . S
C1044 C1050 1.383 . S
C1045 C1041 1.495 . S
C1045 H1051 0.959 . S
C1045 H1052 0.961 . S
C1045 H1053 0.960 . S
C1046 C1044 1.381 . S
C1046 C1047 1.394 . S
C1046 H1054 0.930 . S
C1047 C1046 1.394 . S
C1047 C1048 1.383 . S
C1047 H1055 0.929 . S
C1048 C1047 1.383 . S
C1048 C1049 1.377 . S
C1049 H1033 0.930 . S
C1049 C1048 1.377 . S
C1049 C1050 1.379 . S
C1050 H1034 0.931 . S
C1050 C1044 1.383 . S
C1050 C1049 1.379 . S
H1051 C1045 0.959 . S
H1052 C1045 0.961 . S
H1053 C1045 0.960 . S
H1054 C1046 0.930 . S
H1055 C1047 0.929 . S
C201 C30 1.068 . S
C220 C155 1.097 . S
C237 C187 1.072 . S
C256 C62 1.025 . S
C273 C27 1.059 . S
C292 C94 1.067 . S
C309 C59 1.072 . S
C328 C126 1.025 . S
C345 C158 1.075 . S
C364 C91 1.040 . S
C381 C190 1.059 . S
C400 C123 1.099 . S
C417 C22 0.885 . S
C436 C136 0.908 . S
C453 C54 0.882 . S
C472 C168 0.834 . S
C489 C8 0.890 . S
C508 C86 0.839 . S
C525 C40 0.888 . S
C544 C118 0.833 . S
C561 C72 0.875 . S
C580 C150 0.927 . S
C597 C182 0.874 . S
C616 C104 0.864 . S
C633 C17 1.485 . S
C652 C184 1.522 . S
C669 C49 1.481 . S
C688 C24 1.522 . S
C705 C81 1.482 . S
C724 C56 1.521 . S
C741 C113 1.493 . S
C760 C88 1.488 . S
C777 C120 1.503 . S
C796 C145 1.514 . S
C813 C177 1.483 . S
C832 C152 1.529 . S
C849 C119 1.515 . S
C868 C95 1.505 . S
C885 C151 1.508 . S
C904 C127 1.458 . S
C921 C183 1.511 . S
C940 C159 1.511 . S
C957 C191 1.491 . S
C976 C23 1.509 . S
C993 C31 1.491 . S
C1012 C55 1.533 . S
C1029 C63 1.480 . S
C1048 C87 1.487 . S
