# Generated by pormake.
# Topology fch, (5)-cn, num edge types: 1
# Building blocks:
#     Node 0, Type 0, BuildingBlock: BEQFEK_clean_sbu_0, # of connection points: 5
#     Node 1, Type 0, BuildingBlock: BEQFEK_clean_sbu_0, # of connection points: 5
#     Node 2, Type 0, BuildingBlock: BEQFEK_clean_sbu_0, # of connection points: 5
#     Node 3, Type 0, BuildingBlock: BEQFEK_clean_sbu_0, # of connection points: 5
#     Node 4, Type 0, BuildingBlock: BEQFEK_clean_sbu_0, # of connection points: 5
#     Node 5, Type 0, BuildingBlock: BEQFEK_clean_sbu_0, # of connection points: 5
#     Node 6, Type 0, BuildingBlock: BEQFEK_clean_sbu_0, # of connection points: 5
#     Node 7, Type 0, BuildingBlock: BEQFEK_clean_sbu_0, # of connection points: 5
#     Node 8, Type 0, BuildingBlock: BEQFEK_clean_sbu_0, # of connection points: 5
#     Node 9, Type 0, BuildingBlock: BEQFEK_clean_sbu_0, # of connection points: 5
#     Node 10, Type 0, BuildingBlock: BEQFEK_clean_sbu_0, # of connection points: 5
#     Node 11, Type 0, BuildingBlock: BEQFEK_clean_sbu_0, # of connection points: 5
#     Node 12, Type 0, BuildingBlock: BEQFEK_clean_sbu_0, # of connection points: 5
#     Node 13, Type 0, BuildingBlock: BEQFEK_clean_sbu_0, # of connection points: 5
#     Node 14, Type 0, BuildingBlock: BEQFEK_clean_sbu_0, # of connection points: 5
#     Node 15, Type 0, BuildingBlock: BEQFEK_clean_sbu_0, # of connection points: 5
#     Node 16, Type 0, BuildingBlock: BEQFEK_clean_sbu_0, # of connection points: 5
#     Node 17, Type 0, BuildingBlock: BEQFEK_clean_sbu_0, # of connection points: 5
#     Node 18, Type 0, BuildingBlock: BEQFEK_clean_sbu_0, # of connection points: 5
#     Node 19, Type 0, BuildingBlock: BEQFEK_clean_sbu_0, # of connection points: 5
#     Node 20, Type 0, BuildingBlock: BEQFEK_clean_sbu_0, # of connection points: 5
#     Node 21, Type 0, BuildingBlock: BEQFEK_clean_sbu_0, # of connection points: 5
#     Node 22, Type 0, BuildingBlock: BEQFEK_clean_sbu_0, # of connection points: 5
#     Node 23, Type 0, BuildingBlock: BEQFEK_clean_sbu_0, # of connection points: 5
#     Node 24, Type 0, BuildingBlock: BEQFEK_clean_sbu_0, # of connection points: 5
#     Node 25, Type 0, BuildingBlock: BEQFEK_clean_sbu_0, # of connection points: 5
#     Node 26, Type 0, BuildingBlock: BEQFEK_clean_sbu_0, # of connection points: 5
#     Node 27, Type 0, BuildingBlock: BEQFEK_clean_sbu_0, # of connection points: 5
#     Node 28, Type 0, BuildingBlock: BEQFEK_clean_sbu_0, # of connection points: 5
#     Node 29, Type 0, BuildingBlock: BEQFEK_clean_sbu_0, # of connection points: 5
#     Node 30, Type 0, BuildingBlock: BEQFEK_clean_sbu_0, # of connection points: 5
#     Node 31, Type 0, BuildingBlock: BEQFEK_clean_sbu_0, # of connection points: 5
#     Node 32, Type 0, BuildingBlock: BEQFEK_clean_sbu_0, # of connection points: 5
#     Node 33, Type 0, BuildingBlock: BEQFEK_clean_sbu_0, # of connection points: 5
#     Node 34, Type 0, BuildingBlock: BEQFEK_clean_sbu_0, # of connection points: 5
#     Node 35, Type 0, BuildingBlock: BEQFEK_clean_sbu_0, # of connection points: 5
#     Node 36, Type 0, BuildingBlock: BEQFEK_clean_sbu_0, # of connection points: 5
#     Node 37, Type 0, BuildingBlock: BEQFEK_clean_sbu_0, # of connection points: 5
#     Node 38, Type 0, BuildingBlock: BEQFEK_clean_sbu_0, # of connection points: 5
#     Node 39, Type 0, BuildingBlock: BEQFEK_clean_sbu_0, # of connection points: 5
#     Node 40, Type 0, BuildingBlock: BEQFEK_clean_sbu_0, # of connection points: 5
#     Node 41, Type 0, BuildingBlock: BEQFEK_clean_sbu_0, # of connection points: 5
#     Node 42, Type 0, BuildingBlock: BEQFEK_clean_sbu_0, # of connection points: 5
#     Node 43, Type 0, BuildingBlock: BEQFEK_clean_sbu_0, # of connection points: 5
#     Node 44, Type 0, BuildingBlock: BEQFEK_clean_sbu_0, # of connection points: 5
#     Node 45, Type 0, BuildingBlock: BEQFEK_clean_sbu_0, # of connection points: 5
#     Node 46, Type 0, BuildingBlock: BEQFEK_clean_sbu_0, # of connection points: 5
#     Node 47, Type 0, BuildingBlock: BEQFEK_clean_sbu_0, # of connection points: 5
#     Edge 48, Type (0, 0), BuildingBlock: XIVTED_clean_linker_0, # of connection points: 2
#     Edge 49, Type (0, 0), BuildingBlock: XIVTED_clean_linker_0, # of connection points: 2
#     Edge 50, Type (0, 0), BuildingBlock: XIVTED_clean_linker_0, # of connection points: 2
#     Edge 51, Type (0, 0), BuildingBlock: XIVTED_clean_linker_0, # of connection points: 2
#     Edge 52, Type (0, 0), BuildingBlock: XIVTED_clean_linker_0, # of connection points: 2
#     Edge 53, Type (0, 0), BuildingBlock: XIVTED_clean_linker_0, # of connection points: 2
#     Edge 54, Type (0, 0), BuildingBlock: XIVTED_clean_linker_0, # of connection points: 2
#     Edge 55, Type (0, 0), BuildingBlock: XIVTED_clean_linker_0, # of connection points: 2
#     Edge 56, Type (0, 0), BuildingBlock: XIVTED_clean_linker_0, # of connection points: 2
#     Edge 57, Type (0, 0), BuildingBlock: XIVTED_clean_linker_0, # of connection points: 2
#     Edge 58, Type (0, 0), BuildingBlock: XIVTED_clean_linker_0, # of connection points: 2
#     Edge 59, Type (0, 0), BuildingBlock: XIVTED_clean_linker_0, # of connection points: 2
#     Edge 60, Type (0, 0), BuildingBlock: XIVTED_clean_linker_0, # of connection points: 2
#     Edge 61, Type (0, 0), BuildingBlock: XIVTED_clean_linker_0, # of connection points: 2
#     Edge 62, Type (0, 0), BuildingBlock: XIVTED_clean_linker_0, # of connection points: 2
#     Edge 63, Type (0, 0), BuildingBlock: XIVTED_clean_linker_0, # of connection points: 2
#     Edge 64, Type (0, 0), BuildingBlock: XIVTED_clean_linker_0, # of connection points: 2
#     Edge 65, Type (0, 0), BuildingBlock: XIVTED_clean_linker_0, # of connection points: 2
#     Edge 66, Type (0, 0), BuildingBlock: XIVTED_clean_linker_0, # of connection points: 2
#     Edge 67, Type (0, 0), BuildingBlock: XIVTED_clean_linker_0, # of connection points: 2
#     Edge 68, Type (0, 0), BuildingBlock: XIVTED_clean_linker_0, # of connection points: 2
#     Edge 69, Type (0, 0), BuildingBlock: XIVTED_clean_linker_0, # of connection points: 2
#     Edge 70, Type (0, 0), BuildingBlock: XIVTED_clean_linker_0, # of connection points: 2
#     Edge 71, Type (0, 0), BuildingBlock: XIVTED_clean_linker_0, # of connection points: 2
#     Edge 72, Type (0, 0), BuildingBlock: XIVTED_clean_linker_0, # of connection points: 2
#     Edge 73, Type (0, 0), BuildingBlock: XIVTED_clean_linker_0, # of connection points: 2
#     Edge 74, Type (0, 0), BuildingBlock: XIVTED_clean_linker_0, # of connection points: 2
#     Edge 75, Type (0, 0), BuildingBlock: XIVTED_clean_linker_0, # of connection points: 2
#     Edge 76, Type (0, 0), BuildingBlock: XIVTED_clean_linker_0, # of connection points: 2
#     Edge 77, Type (0, 0), BuildingBlock: XIVTED_clean_linker_0, # of connection points: 2
#     Edge 78, Type (0, 0), BuildingBlock: XIVTED_clean_linker_0, # of connection points: 2
#     Edge 79, Type (0, 0), BuildingBlock: XIVTED_clean_linker_0, # of connection points: 2
#     Edge 80, Type (0, 0), BuildingBlock: XIVTED_clean_linker_0, # of connection points: 2
#     Edge 81, Type (0, 0), BuildingBlock: XIVTED_clean_linker_0, # of connection points: 2
#     Edge 82, Type (0, 0), BuildingBlock: XIVTED_clean_linker_0, # of connection points: 2
#     Edge 83, Type (0, 0), BuildingBlock: XIVTED_clean_linker_0, # of connection points: 2
#     Edge 84, Type (0, 0), BuildingBlock: XIVTED_clean_linker_0, # of connection points: 2
#     Edge 85, Type (0, 0), BuildingBlock: XIVTED_clean_linker_0, # of connection points: 2
#     Edge 86, Type (0, 0), BuildingBlock: XIVTED_clean_linker_0, # of connection points: 2
#     Edge 87, Type (0, 0), BuildingBlock: XIVTED_clean_linker_0, # of connection points: 2
#     Edge 88, Type (0, 0), BuildingBlock: XIVTED_clean_linker_0, # of connection points: 2
#     Edge 89, Type (0, 0), BuildingBlock: XIVTED_clean_linker_0, # of connection points: 2
#     Edge 90, Type (0, 0), BuildingBlock: XIVTED_clean_linker_0, # of connection points: 2
#     Edge 91, Type (0, 0), BuildingBlock: XIVTED_clean_linker_0, # of connection points: 2
#     Edge 92, Type (0, 0), BuildingBlock: XIVTED_clean_linker_0, # of connection points: 2
#     Edge 93, Type (0, 0), BuildingBlock: XIVTED_clean_linker_0, # of connection points: 2
#     Edge 94, Type (0, 0), BuildingBlock: XIVTED_clean_linker_0, # of connection points: 2
#     Edge 95, Type (0, 0), BuildingBlock: XIVTED_clean_linker_0, # of connection points: 2
#     Edge 96, Type (0, 0), BuildingBlock: XIVTED_clean_linker_0, # of connection points: 2
#     Edge 97, Type (0, 0), BuildingBlock: XIVTED_clean_linker_0, # of connection points: 2
#     Edge 98, Type (0, 0), BuildingBlock: XIVTED_clean_linker_0, # of connection points: 2
#     Edge 99, Type (0, 0), BuildingBlock: XIVTED_clean_linker_0, # of connection points: 2
#     Edge 100, Type (0, 0), BuildingBlock: XIVTED_clean_linker_0, # of connection points: 2
#     Edge 101, Type (0, 0), BuildingBlock: XIVTED_clean_linker_0, # of connection points: 2
#     Edge 102, Type (0, 0), BuildingBlock: XIVTED_clean_linker_0, # of connection points: 2
#     Edge 103, Type (0, 0), BuildingBlock: XIVTED_clean_linker_0, # of connection points: 2
#     Edge 104, Type (0, 0), BuildingBlock: XIVTED_clean_linker_0, # of connection points: 2
#     Edge 105, Type (0, 0), BuildingBlock: XIVTED_clean_linker_0, # of connection points: 2
#     Edge 106, Type (0, 0), BuildingBlock: XIVTED_clean_linker_0, # of connection points: 2
#     Edge 107, Type (0, 0), BuildingBlock: XIVTED_clean_linker_0, # of connection points: 2
#     Edge 108, Type (0, 0), BuildingBlock: XIVTED_clean_linker_0, # of connection points: 2
#     Edge 109, Type (0, 0), BuildingBlock: XIVTED_clean_linker_0, # of connection points: 2
#     Edge 110, Type (0, 0), BuildingBlock: XIVTED_clean_linker_0, # of connection points: 2
#     Edge 111, Type (0, 0), BuildingBlock: XIVTED_clean_linker_0, # of connection points: 2
#     Edge 112, Type (0, 0), BuildingBlock: XIVTED_clean_linker_0, # of connection points: 2
#     Edge 113, Type (0, 0), BuildingBlock: XIVTED_clean_linker_0, # of connection points: 2
#     Edge 114, Type (0, 0), BuildingBlock: XIVTED_clean_linker_0, # of connection points: 2
#     Edge 115, Type (0, 0), BuildingBlock: XIVTED_clean_linker_0, # of connection points: 2
#     Edge 116, Type (0, 0), BuildingBlock: XIVTED_clean_linker_0, # of connection points: 2
#     Edge 117, Type (0, 0), BuildingBlock: XIVTED_clean_linker_0, # of connection points: 2
#     Edge 118, Type (0, 0), BuildingBlock: XIVTED_clean_linker_0, # of connection points: 2
#     Edge 119, Type (0, 0), BuildingBlock: XIVTED_clean_linker_0, # of connection points: 2
#     Edge 120, Type (0, 0), BuildingBlock: XIVTED_clean_linker_0, # of connection points: 2
#     Edge 121, Type (0, 0), BuildingBlock: XIVTED_clean_linker_0, # of connection points: 2
#     Edge 122, Type (0, 0), BuildingBlock: XIVTED_clean_linker_0, # of connection points: 2
#     Edge 123, Type (0, 0), BuildingBlock: XIVTED_clean_linker_0, # of connection points: 2
#     Edge 124, Type (0, 0), BuildingBlock: XIVTED_clean_linker_0, # of connection points: 2
#     Edge 125, Type (0, 0), BuildingBlock: XIVTED_clean_linker_0, # of connection points: 2
#     Edge 126, Type (0, 0), BuildingBlock: XIVTED_clean_linker_0, # of connection points: 2
#     Edge 127, Type (0, 0), BuildingBlock: XIVTED_clean_linker_0, # of connection points: 2
#     Edge 128, Type (0, 0), BuildingBlock: XIVTED_clean_linker_0, # of connection points: 2
#     Edge 129, Type (0, 0), BuildingBlock: XIVTED_clean_linker_0, # of connection points: 2
#     Edge 130, Type (0, 0), BuildingBlock: XIVTED_clean_linker_0, # of connection points: 2
#     Edge 131, Type (0, 0), BuildingBlock: XIVTED_clean_linker_0, # of connection points: 2
#     Edge 132, Type (0, 0), BuildingBlock: XIVTED_clean_linker_0, # of connection points: 2
#     Edge 133, Type (0, 0), BuildingBlock: XIVTED_clean_linker_0, # of connection points: 2
#     Edge 134, Type (0, 0), BuildingBlock: XIVTED_clean_linker_0, # of connection points: 2
#     Edge 135, Type (0, 0), BuildingBlock: XIVTED_clean_linker_0, # of connection points: 2
#     Edge 136, Type (0, 0), BuildingBlock: XIVTED_clean_linker_0, # of connection points: 2
#     Edge 137, Type (0, 0), BuildingBlock: XIVTED_clean_linker_0, # of connection points: 2
#     Edge 138, Type (0, 0), BuildingBlock: XIVTED_clean_linker_0, # of connection points: 2
#     Edge 139, Type (0, 0), BuildingBlock: XIVTED_clean_linker_0, # of connection points: 2
#     Edge 140, Type (0, 0), BuildingBlock: XIVTED_clean_linker_0, # of connection points: 2
#     Edge 141, Type (0, 0), BuildingBlock: XIVTED_clean_linker_0, # of connection points: 2
#     Edge 142, Type (0, 0), BuildingBlock: XIVTED_clean_linker_0, # of connection points: 2
#     Edge 143, Type (0, 0), BuildingBlock: XIVTED_clean_linker_0, # of connection points: 2
#     Edge 144, Type (0, 0), BuildingBlock: XIVTED_clean_linker_0, # of connection points: 2
#     Edge 145, Type (0, 0), BuildingBlock: XIVTED_clean_linker_0, # of connection points: 2
#     Edge 146, Type (0, 0), BuildingBlock: XIVTED_clean_linker_0, # of connection points: 2
#     Edge 147, Type (0, 0), BuildingBlock: XIVTED_clean_linker_0, # of connection points: 2
#     Edge 148, Type (0, 0), BuildingBlock: XIVTED_clean_linker_0, # of connection points: 2
#     Edge 149, Type (0, 0), BuildingBlock: XIVTED_clean_linker_0, # of connection points: 2
#     Edge 150, Type (0, 0), BuildingBlock: XIVTED_clean_linker_0, # of connection points: 2
#     Edge 151, Type (0, 0), BuildingBlock: XIVTED_clean_linker_0, # of connection points: 2
#     Edge 152, Type (0, 0), BuildingBlock: XIVTED_clean_linker_0, # of connection points: 2
#     Edge 153, Type (0, 0), BuildingBlock: XIVTED_clean_linker_0, # of connection points: 2
#     Edge 154, Type (0, 0), BuildingBlock: XIVTED_clean_linker_0, # of connection points: 2
#     Edge 155, Type (0, 0), BuildingBlock: XIVTED_clean_linker_0, # of connection points: 2
#     Edge 156, Type (0, 0), BuildingBlock: XIVTED_clean_linker_0, # of connection points: 2
#     Edge 157, Type (0, 0), BuildingBlock: XIVTED_clean_linker_0, # of connection points: 2
#     Edge 158, Type (0, 0), BuildingBlock: XIVTED_clean_linker_0, # of connection points: 2
#     Edge 159, Type (0, 0), BuildingBlock: XIVTED_clean_linker_0, # of connection points: 2
#     Edge 160, Type (0, 0), BuildingBlock: XIVTED_clean_linker_0, # of connection points: 2
#     Edge 161, Type (0, 0), BuildingBlock: XIVTED_clean_linker_0, # of connection points: 2
#     Edge 162, Type (0, 0), BuildingBlock: XIVTED_clean_linker_0, # of connection points: 2
#     Edge 163, Type (0, 0), BuildingBlock: XIVTED_clean_linker_0, # of connection points: 2
#     Edge 164, Type (0, 0), BuildingBlock: XIVTED_clean_linker_0, # of connection points: 2
#     Edge 165, Type (0, 0), BuildingBlock: XIVTED_clean_linker_0, # of connection points: 2
#     Edge 166, Type (0, 0), BuildingBlock: XIVTED_clean_linker_0, # of connection points: 2
#     Edge 167, Type (0, 0), BuildingBlock: XIVTED_clean_linker_0, # of connection points: 2
# Relax obj value: 0.848
# Max RMSD: 0.194
# Mean RMSD: 0.194
data_MOF--net-fch--node1-BEQFEK_clean_sbu_0--edge1-XIVTED_clean_linker_0
_symmetry_space_group_name_H-M    P1
_symmetry_Int_Tables_number       1
_symmetry_cell_setting            triclinic
loop_
_symmetry_equiv_pos_as_xyz
'x, y, z'
_cell_length_a     74.046776
_cell_length_b     74.045946
_cell_length_c     74.027733
_cell_angle_alpha  90.007133
_cell_angle_beta   89.995354
_cell_angle_gamma 89.977555
loop_
_atom_site_label
_atom_site_type_symbol
_atom_site_fract_x
_atom_site_fract_y
_atom_site_fract_z
_atom_type_partial_charge
Co0 Co 0.06891 0.43161 0.15076 0.0
Co1 Co 0.03774 0.40428 0.15693 0.0
C2 C 0.03135 0.44483 0.15323 0.0
O3 O 0.04808 0.44776 0.15081 0.0
O4 O 0.02546 0.42884 0.15597 0.0
C5 C 0.09582 0.45652 0.15801 0.0
O6 O 0.08616 0.45841 0.17278 0.0
C7 C 0.00603 0.38589 0.14376 0.0
C8 C 0.00246 0.36311 0.16272 0.0
C9 C 0.99527 0.37105 0.14737 0.0
N10 N 0.01923 0.38654 0.15613 0.0
N11 N 0.01711 0.37287 0.16743 0.0
C12 C 0.00306 0.40016 0.12972 0.0
H13 H 0.99069 0.40792 0.13313 0.0
H14 H 0.01475 0.40948 0.12904 0.0
H15 H 0.00102 0.39403 0.11624 0.0
C16 C 0.07526 0.40942 0.11892 0.0
N17 N 0.06605 0.41308 0.13406 0.0
N18 N 0.05346 0.40081 0.13658 0.0
C19 C 0.0546 0.38859 0.12301 0.0
C20 C 0.06834 0.39382 0.11141 0.0
C21 C 0.09041 0.42081 0.11188 0.0
H22 H 0.10154 0.42091 0.12192 0.0
H23 H 0.08566 0.43493 0.11021 0.0
H24 H 0.09571 0.4157 0.09883 0.0
O25 O 0.07301 0.42162 0.17443 0.0
O26 O 0.05156 0.4016 0.18008 0.0
H27 H 0.0396 0.3665 0.13434 0.0
H28 H 0.04955 0.36194 0.11247 0.0
C29 C 0.04282 0.37233 0.12093 0.0
H30 H 0.0301 0.37629 0.11413 0.0
H31 H 0.02555 0.3703 0.17842 0.0
O32 O 0.09057 0.44569 0.14581 0.0
C33 C 0.06586 0.41 0.18472 0.0
Co34 Co 0.56996 0.07206 0.14976 0.0
Co35 Co 0.59575 0.03894 0.1503 0.0
C36 C 0.55533 0.03452 0.14743 0.0
O37 O 0.55307 0.05155 0.14785 0.0
O38 O 0.57111 0.02765 0.14824 0.0
C39 C 0.54408 0.09747 0.15946 0.0
O40 O 0.54179 0.08598 0.17279 0.0
C41 C 0.61256 0.00706 0.13491 0.0
C42 C 0.63628 0.00263 0.15248 0.0
C43 C 0.62714 0.99567 0.13771 0.0
N44 N 0.61318 0.02031 0.14725 0.0
N45 N 0.62748 0.01772 0.15763 0.0
C46 C 0.59715 0.00446 0.12205 0.0
H47 H 0.58921 0.01708 0.12071 0.0
H48 H 0.60204 0.00039 0.10852 0.0
H49 H 0.58824 0.99357 0.12722 0.0
C50 C 0.59101 0.08149 0.11792 0.0
N51 N 0.58789 0.07081 0.1322 0.0
N52 N 0.59921 0.05712 0.13207 0.0
C53 C 0.61006 0.05881 0.11744 0.0
C54 C 0.60509 0.07426 0.10802 0.0
C55 C 0.57996 0.09783 0.11342 0.0
H56 H 0.57999 0.1072 0.12511 0.0
H57 H 0.56578 0.09368 0.1109 0.0
H58 H 0.58528 0.10504 0.1014 0.0
O59 O 0.58068 0.0731 0.17346 0.0
O60 O 0.59829 0.04892 0.17539 0.0
H61 H 0.63165 0.04054 0.12367 0.0
H62 H 0.63345 0.05127 0.10177 0.0
C63 C 0.62397 0.04533 0.11175 0.0
H64 H 0.61717 0.03362 0.10538 0.0
H65 H 0.63096 0.02598 0.16851 0.0
O66 O 0.55585 0.09417 0.14744 0.0
C67 C 0.59148 0.06317 0.18224 0.0
Co68 Co 0.91611 0.57271 0.15323 0.0
Co69 Co 0.95082 0.59635 0.15182 0.0
C70 C 0.95178 0.55517 0.15055 0.0
O71 O 0.93469 0.55363 0.15112 0.0
O72 O 0.95923 0.57068 0.15081 0.0
C73 C 0.88847 0.55139 0.16695 0.0
O74 O 0.89989 0.55041 0.1805 0.0
C75 C 0.98236 0.60591 0.13178 0.0
C76 C 0.99399 0.62928 0.14619 0.0
C77 C -0.00305 0.61767 0.13176 0.0
N78 N 0.97152 0.61016 0.14564 0.0
N79 N 0.97842 0.62421 0.15421 0.0
C80 C 0.97805 0.59129 0.11846 0.0
H81 H 0.96328 0.58895 0.11784 0.0
H82 H 0.98312 0.59484 0.1048 0.0
H83 H 0.98447 0.5785 0.12288 0.0
C84 C 0.90673 0.59419 0.12129 0.0
N85 N 0.91796 0.58991 0.13486 0.0
N86 N 0.93201 0.60075 0.13465 0.0
C87 C 0.92999 0.61258 0.12091 0.0
C88 C 0.91389 0.60881 0.11202 0.0
C89 C 0.89013 0.58358 0.11671 0.0
H90 H 0.87882 0.58819 0.1254 0.0
H91 H 0.89247 0.56903 0.11938 0.0
H92 H 0.88627 0.58533 0.10234 0.0
O93 O 0.91799 0.58463 0.1765 0.0
O94 O 0.94284 0.60142 0.17706 0.0
H95 H 0.94872 0.63304 0.12935 0.0
H96 H 0.93604 0.63857 0.10918 0.0
C97 C 0.94288 0.62755 0.1167 0.0
H98 H 0.95402 0.62224 0.10821 0.0
H99 H 0.97268 0.63013 0.16564 0.0
O100 O 0.89252 0.56089 0.15325 0.0
C101 C 0.92859 0.59537 0.18458 0.0
Co102 Co 0.42588 0.92234 0.1537 0.0
Co103 Co 0.40213 0.95697 0.15298 0.0
C104 C 0.44324 0.95767 0.14872 0.0
O105 O 0.44477 0.94058 0.14943 0.0
O106 O 0.42782 0.96523 0.1501 0.0
C107 C 0.44664 0.89393 0.16738 0.0
O108 O 0.44856 0.90531 0.18086 0.0
C109 C 0.39095 0.98754 0.13232 0.0
C110 C 0.36868 -0.00024 0.14796 0.0
C111 C 0.37901 0.00201 0.13246 0.0
N112 N 0.38797 0.97746 0.14705 0.0
N113 N 0.3746 0.98472 0.15638 0.0
C114 C 0.40448 0.98248 0.11813 0.0
H115 H 0.40721 0.96777 0.11844 0.0
H116 H 0.3996 0.98632 0.10449 0.0
H117 H 0.41743 0.98949 0.1209 0.0
C118 C 0.40219 0.91203 0.12368 0.0
N119 N 0.40738 0.92364 0.1366 0.0
N120 N 0.39651 0.93768 0.13674 0.0
C121 C 0.38374 0.93526 0.12395 0.0
C122 C 0.38694 0.91893 0.11526 0.0
C123 C 0.41253 0.89534 0.11879 0.0
H124 H 0.42722 0.89775 0.12044 0.0
H125 H 0.40984 0.89114 0.10466 0.0
H126 H 0.40854 0.88424 0.12803 0.0
O127 O 0.41585 0.92537 0.17772 0.0
O128 O 0.39829 0.94971 0.17861 0.0
H129 H 0.35688 0.94082 0.11412 0.0
H130 H 0.37298 0.95875 0.1111 0.0
C131 C 0.36843 0.94798 0.12045 0.0
H132 H 0.36394 0.95432 0.13326 0.0
H133 H 0.36966 0.97954 0.16851 0.0
O134 O 0.43714 0.89846 0.15383 0.0
C135 C 0.40535 0.93595 0.18613 0.0
Co136 Co 0.07291 0.55868 0.84659 0.0
Co137 Co 0.04082 0.58552 0.84242 0.0
C138 C 0.03548 0.545 0.84774 0.0
O139 O 0.05238 0.5423 0.84903 0.0
O140 O 0.0292 0.56083 0.84497 0.0
C141 C 0.09881 0.53419 0.83623 0.0
O142 O 0.08715 0.53252 0.82295 0.0
C143 C 0.01029 0.60467 0.85784 0.0
C144 C 0.00402 0.62527 0.83718 0.0
C145 C -0.00141 0.61875 0.85387 0.0
N146 N 0.02222 0.60312 0.8443 0.0
N147 N 0.01853 0.61556 0.83203 0.0
C148 C 0.00931 0.59186 0.87347 0.0
H149 H 0.99529 0.5868 0.87508 0.0
H150 H 0.01872 0.58038 0.8716 0.0
H151 H 0.01311 0.59898 0.88608 0.0
C152 C 0.08312 0.58356 0.87543 0.0
N153 N 0.0715 0.57795 0.86272 0.0
N154 N 0.05854 0.58994 0.86073 0.0
C155 C 0.06175 0.60387 0.87207 0.0
C156 C 0.07744 0.60025 0.88169 0.0
C157 C 0.09933 0.57302 0.88133 0.0
H158 H 0.1104 0.57511 0.87144 0.0
H159 H 0.09606 0.5584 0.88164 0.0
H160 H 0.10402 0.57731 0.8949 0.0
O161 O 0.07429 0.56811 0.82226 0.0
O162 O 0.05217 0.58777 0.81813 0.0
H163 H 0.04689 0.6248 0.85855 0.0
H164 H 0.05932 0.63231 0.87819 0.0
C165 C 0.0512 0.62112 0.8724 0.0
H166 H 0.03902 0.61928 0.88089 0.0
H167 H 0.02568 0.61717 0.81999 0.0
O168 O 0.0953 0.54488 0.84919 0.0
C169 C 0.06603 0.57935 0.81238 0.0
Co170 Co 0.43021 0.06968 0.84621 0.0
Co171 Co 0.40181 0.03888 0.84298 0.0
C172 C 0.44241 0.03186 0.84588 0.0
O173 O 0.44598 0.04857 0.84733 0.0
O174 O 0.42617 0.02639 0.84394 0.0
C175 C 0.45482 0.09516 0.83481 0.0
O176 O 0.45554 0.08377 0.82122 0.0
C177 C 0.38325 0.0088 0.85976 0.0
C178 C 0.3619 0.00195 0.8401 0.0
C179 C 0.36924 0.99679 0.85654 0.0
N180 N 0.38402 0.02059 0.84602 0.0
N181 N 0.37111 0.01657 0.83436 0.0
C182 C 0.39682 0.00818 0.87476 0.0
H183 H 0.40812 0.01763 0.87217 0.0
H184 H 0.39028 0.01219 0.88762 0.0
H185 H 0.40207 0.99422 0.87638 0.0
C186 C 0.40747 0.08048 0.87648 0.0
N187 N 0.41189 0.06875 0.86341 0.0
N188 N 0.39915 0.05649 0.86177 0.0
C189 C 0.38591 0.0603 0.87375 0.0
C190 C 0.39077 0.07567 0.88338 0.0
C191 C 0.41908 0.09609 0.88199 0.0
H192 H 0.43351 0.09212 0.88152 0.0
H193 H 0.41571 0.10079 0.89583 0.0
H194 H 0.41701 0.10739 0.87236 0.0
O195 O 0.41935 0.07178 0.82258 0.0
O196 O 0.39857 0.05064 0.81885 0.0
H197 H 0.35759 0.0594 0.88073 0.0
H198 H 0.36963 0.03845 0.88317 0.0
C199 C 0.36816 0.05068 0.87466 0.0
H200 H 0.36387 0.04646 0.86095 0.0
H201 H 0.36892 0.02347 0.82227 0.0
O202 O 0.4448 0.09159 0.84827 0.0
C203 C 0.40727 0.06432 0.81306 0.0
Co204 Co 0.91793 0.41971 0.84368 0.0
Co205 Co 0.9521 0.39512 0.84445 0.0
C206 C 0.95457 0.43586 0.84716 0.0
O207 O 0.93751 0.43764 0.84619 0.0
O208 O 0.96191 0.42028 0.84669 0.0
C209 C 0.89154 0.44323 0.83141 0.0
O210 O 0.90307 0.44435 0.81796 0.0
C211 C 0.98413 0.37962 0.86149 0.0
C212 C 0.99119 0.35735 0.84292 0.0
C213 C 0.99682 0.36614 0.85847 0.0
N214 N 0.97158 0.37874 0.84842 0.0
N215 N 0.97574 0.36526 0.83748 0.0
C216 C 0.98476 0.39418 0.87553 0.0
H217 H -0.00207 0.40131 0.87488 0.0
H218 H 0.97355 0.40391 0.87372 0.0
H219 H 0.98342 0.38817 0.88917 0.0
C220 C 0.90807 0.39786 0.87513 0.0
N221 N 0.91933 0.40192 0.86152 0.0
N222 N 0.93326 0.39089 0.86174 0.0
C223 C 0.93109 0.37915 0.87555 0.0
C224 C 0.91504 0.38319 0.88446 0.0
C225 C 0.8918 0.40892 0.87986 0.0
H226 H 0.88058 0.40534 0.87059 0.0
H227 H 0.89485 0.42347 0.87806 0.0
H228 H 0.8874 0.40663 0.894 0.0
O229 O 0.91862 0.40872 0.81991 0.0
O230 O 0.94352 0.39205 0.81901 0.0
H231 H 0.94919 0.35805 0.86734 0.0
H232 H 0.93702 0.35348 0.88804 0.0
C233 C 0.94383 0.3641 0.87994 0.0
H234 H 0.95527 0.36952 0.88791 0.0
H235 H 0.96836 0.36184 0.82597 0.0
O236 O 0.89504 0.43283 0.84459 0.0
C237 C 0.92934 0.39832 0.81156 0.0
Co238 Co 0.56376 0.91036 0.84603 0.0
Co239 Co 0.5898 0.94318 0.84329 0.0
C240 C 0.54871 0.94703 0.84525 0.0
O241 O 0.54605 0.93015 0.84683 0.0
O242 O 0.56464 0.95332 0.84351 0.0
C243 C 0.54088 0.88296 0.83501 0.0
O244 O 0.54005 0.89352 0.82077 0.0
C245 C 0.60138 0.97603 0.85977 0.0
C246 C 0.62483 0.98506 0.84373 0.0
C247 C 0.61364 0.99006 0.85792 0.0
N248 N 0.6049 0.96355 0.84715 0.0
N249 N 0.61903 0.96888 0.83763 0.0
C250 C 0.58683 0.97394 0.87369 0.0
H251 H 0.58407 0.95945 0.87625 0.0
H252 H 0.5907 0.98065 0.88652 0.0
H253 H 0.57417 0.98013 0.86861 0.0
C254 C 0.58626 0.90212 0.87754 0.0
N255 N 0.58161 0.91283 0.86369 0.0
N256 N 0.59323 0.92619 0.86233 0.0
C257 C 0.60585 0.9243 0.87535 0.0
C258 C 0.60186 0.90893 0.88533 0.0
C259 C 0.57563 0.88592 0.88331 0.0
H260 H 0.57907 0.87438 0.87438 0.0
H261 H 0.56098 0.88869 0.88192 0.0
H262 H 0.5786 0.88216 0.89751 0.0
O263 O 0.57531 0.90911 0.82257 0.0
O264 O 0.59479 0.93163 0.81945 0.0
H265 H 0.62726 0.94018 0.86402 0.0
H266 H 0.63277 0.9295 0.88534 0.0
C267 C 0.62196 0.93629 0.87748 0.0
H268 H 0.61789 0.94875 0.88472 0.0
H269 H 0.62442 0.96171 0.82676 0.0
O270 O 0.55067 0.88757 0.84832 0.0
C271 C 0.58717 0.9174 0.81342 0.0
Co272 Co 0.15655 0.08118 0.42558 0.0
Co273 Co 0.15546 0.04794 0.40003 0.0
C274 C 0.15546 0.04464 0.44118 0.0
O275 O 0.15535 0.06162 0.4436 0.0
O276 O 0.15582 0.038 0.4253 0.0
C277 C 0.16897 0.10823 0.44875 0.0
O278 O 0.18283 0.09722 0.45001 0.0
C279 C 0.13763 0.0153 0.38985 0.0
C280 C 0.1514 0.0063 0.36497 0.0
C281 C 0.13828 0.00133 0.37741 0.0
N282 N 0.14992 0.02773 0.38524 0.0
N283 N 0.15806 0.02243 0.37026 0.0
C284 C 0.12511 0.01734 0.40563 0.0
H285 H 0.123 0.03182 0.40882 0.0
H286 H 0.1119 0.01082 0.40281 0.0
H287 H 0.13119 0.01088 0.41769 0.0
C288 C 0.12347 0.09043 0.40615 0.0
N289 N 0.13775 0.07963 0.40884 0.0
N290 N 0.13718 0.066 0.39747 0.0
C291 C 0.12235 0.06784 0.38696 0.0
C292 C 0.11314 0.0833 0.39228 0.0
C293 C 0.11984 0.10721 0.41685 0.0
H294 H 0.13171 0.1163 0.41593 0.0
H295 H 0.11798 0.10358 0.43128 0.0
H296 H 0.10777 0.11455 0.4119 0.0
O297 O 0.17946 0.08094 0.41308 0.0
O298 O 0.17988 0.0578 0.39405 0.0
H299 H 0.12843 0.04923 0.36558 0.0
H300 H 0.10705 0.06087 0.36313 0.0
C301 C 0.11651 0.05456 0.3729 0.0
H302 H 0.10947 0.04313 0.37952 0.0
H303 H 0.16845 0.02955 0.36393 0.0
O304 O 0.15577 0.10403 0.43866 0.0
C305 C 0.18735 0.07167 0.40103 0.0
Co306 Co 0.9145 0.15831 0.42511 0.0
Co307 Co 0.94772 0.16023 0.39958 0.0
C308 C 0.95086 0.15993 0.44083 0.0
O309 O 0.93394 0.15836 0.44318 0.0
O310 O 0.95748 0.16117 0.42497 0.0
C311 C 0.88652 0.16904 0.44775 0.0
O312 O 0.8968 0.18344 0.44912 0.0
C313 C 0.98139 0.1444 0.38962 0.0
C314 C 0.98953 0.15805 0.36439 0.0
C315 C 0.99516 0.14539 0.37702 0.0
N316 N 0.96837 0.15606 0.38493 0.0
N317 N 0.97319 0.16416 0.36976 0.0
C318 C 0.98001 0.1319 0.40549 0.0
H319 H 0.96566 0.12925 0.40887 0.0
H320 H 0.98699 0.11894 0.40266 0.0
H321 H 0.98643 0.13828 0.41742 0.0
C322 C 0.90801 0.12477 0.40542 0.0
N323 N 0.91759 0.13985 0.40827 0.0
N324 N 0.93116 0.14058 0.39684 0.0
C325 C 0.9305 0.12581 0.3861 0.0
C326 C 0.91589 0.11529 0.39136 0.0
C327 C 0.89163 0.11965 0.41613 0.0
H328 H 0.88149 0.13064 0.41518 0.0
H329 H 0.8954 0.11817 0.43056 0.0
H330 H 0.88543 0.10694 0.4112 0.0
O331 O 0.91306 0.18117 0.4127 0.0
O332 O 0.93591 0.18383 0.39353 0.0
H333 H 0.94821 0.13375 0.36459 0.0
H334 H 0.93848 0.11144 0.36201 0.0
C335 C 0.94405 0.12131 0.37182 0.0
H336 H 0.95615 0.11524 0.37823 0.0
H337 H 0.9655 0.17401 0.36325 0.0
O338 O 0.89161 0.15596 0.43789 0.0
C339 C 0.92145 0.18996 0.40065 0.0
Co340 Co 0.83926 0.91573 0.42164 0.0
Co341 Co 0.83959 0.94941 0.39667 0.0
C342 C 0.83743 0.95202 0.43779 0.0
O343 O 0.83827 0.93502 0.43989 0.0
O344 O 0.83749 0.95897 0.42204 0.0
C345 C 0.82746 0.88825 0.44438 0.0
O346 O 0.81333 0.89895 0.4455 0.0
C347 C 0.85658 0.98277 0.38762 0.0
C348 C 0.8442 0.99125 0.36184 0.0
C349 C 0.85644 0.99659 0.375 0.0
N350 N 0.84485 0.97004 0.3824 0.0
N351 N 0.8375 0.97506 0.36692 0.0
C352 C 0.86836 0.981 0.404 0.0
H353 H 0.87047 0.96657 0.40741 0.0
H354 H 0.88162 0.98762 0.40176 0.0
H355 H 0.86163 0.98752 0.41569 0.0
C356 C 0.87383 0.90887 0.40391 0.0
N357 N 0.85882 0.91875 0.40608 0.0
N358 N 0.859 0.93247 0.3948 0.0
C359 C 0.87426 0.93157 0.38483 0.0
C360 C 0.88417 0.91667 0.39044 0.0
C361 C 0.87803 0.89224 0.41464 0.0
H362 H 0.86696 0.8823 0.41284 0.0
H363 H 0.87866 0.89576 0.4292 0.0
H364 H 0.89093 0.88591 0.4104 0.0
O365 O 0.81727 0.91457 0.40765 0.0
O366 O 0.8162 0.93817 0.38921 0.0
H367 H 0.86774 0.94963 0.36311 0.0
H368 H 0.88988 0.93932 0.36145 0.0
C369 C 0.87973 0.94509 0.37085 0.0
H370 H 0.88583 0.95697 0.37761 0.0
H371 H 0.82777 0.9676 0.35997 0.0
O372 O 0.8407 0.89281 0.4345 0.0
C373 C 0.80948 0.92354 0.39532 0.0
Co374 Co 0.08121 0.83614 0.42312 0.0
Co375 Co 0.0479 0.83672 0.39771 0.0
C376 C 0.04477 0.83621 0.43892 0.0
O377 O 0.06176 0.83667 0.44129 0.0
O378 O 0.0381 0.83581 0.42304 0.0
C379 C 0.10868 0.82393 0.44585 0.0
O380 O 0.09785 0.80994 0.44717 0.0
C381 C 0.01508 0.85432 0.38783 0.0
C382 C 0.00659 0.84143 0.36231 0.0
C383 C 0.00143 0.85418 0.37504 0.0
N384 N 0.02755 0.8421 0.3831 0.0
N385 N 0.02252 0.83444 0.36778 0.0
C386 C 0.01698 0.86652 0.40388 0.0
H387 H 0.03142 0.86829 0.40746 0.0
H388 H 0.01083 0.87992 0.40114 0.0
H389 H 0.01009 0.86037 0.41566 0.0
C390 C 0.08929 0.86996 0.40443 0.0
N391 N 0.07908 0.85519 0.40675 0.0
N392 N 0.06546 0.8555 0.39535 0.0
C393 C 0.06676 0.87059 0.38516 0.0
C394 C 0.0818 0.88029 0.39075 0.0
C395 C 0.10575 0.87411 0.41542 0.0
H396 H 0.11547 0.86277 0.41421 0.0
H397 H 0.1019 0.8753 0.42986 0.0
H398 H 0.11247 0.88672 0.41093 0.0
O399 O 0.0815 0.81347 0.41016 0.0
O400 O 0.05835 0.81271 0.39117 0.0
H401 H 0.04823 0.86432 0.36376 0.0
H402 H 0.05936 0.88596 0.36152 0.0
C403 C 0.0533 0.87627 0.3712 0.0
H404 H 0.04175 0.88302 0.37792 0.0
H405 H 0.02981 0.82431 0.3612 0.0
O406 O 0.10416 0.83718 0.43595 0.0
C407 C 0.07247 0.80554 0.39796 0.0
Co408 Co 0.1487 0.92172 0.56006 0.0
Co409 Co 0.15299 0.95289 0.5878 0.0
C410 C 0.15093 0.95913 0.54695 0.0
O411 O 0.14872 0.94243 0.54368 0.0
O412 O 0.15296 0.96482 0.56311 0.0
C413 C 0.1591 0.89453 0.53668 0.0
O414 O 0.17339 0.90499 0.53565 0.0
C415 C 0.13661 0.98354 0.60542 0.0
C416 C 0.1559 0.99065 0.62703 0.0
C417 C 0.13956 0.99564 0.61936 0.0
N418 N 0.15033 0.97173 0.60503 0.0
N419 N 0.1618 0.97592 0.61806 0.0
C420 C 0.12186 0.98409 0.59157 0.0
H421 H 0.12435 0.97416 0.58065 0.0
H422 H 0.10874 0.98081 0.59799 0.0
H423 H 0.1208 -0.00211 0.58579 0.0
C424 C 0.11726 0.9132 0.5823 0.0
N425 N 0.13125 0.9239 0.57806 0.0
N426 N 0.13333 0.9363 0.5906 0.0
C427 C 0.12076 0.93359 0.60356 0.0
C428 C 0.1102 0.91887 0.59868 0.0
C429 C 0.11091 0.89786 0.57077 0.0
H430 H 0.11212 0.90152 0.55629 0.0
H431 H 0.09667 0.8943 0.57377 0.0
H432 H 0.11957 0.8859 0.57331 0.0
O433 O 0.17214 0.91884 0.57126 0.0
O434 O 0.17646 0.94012 0.5918 0.0
H435 H 0.11376 0.93504 0.63183 0.0
H436 H 0.11167 0.95584 0.61954 0.0
C437 C 0.12001 0.94352 0.62116 0.0
H438 H 0.13378 0.94752 0.62547 0.0
H439 H 0.17381 0.96898 0.62058 0.0
O440 O 0.14573 0.89944 0.54624 0.0
C441 C 0.1818 0.92609 0.58337 0.0
Co442 Co 0.07045 0.14714 0.56189 0.0
Co443 Co 0.03908 0.15016 0.58964 0.0
C444 C 0.03315 0.15152 0.54879 0.0
O445 O 0.04984 0.14924 0.54551 0.0
O446 O 0.02732 0.15229 0.56501 0.0
C447 C 0.09772 0.15839 0.53901 0.0
O448 O 0.08755 0.17294 0.53897 0.0
C449 C 0.00765 0.13387 0.6061 0.0
C450 C 0.00129 0.15212 0.62883 0.0
C451 C 0.99554 0.13657 0.62011 0.0
N452 N 0.02011 0.14699 0.60664 0.0
N453 N 0.01637 0.15781 0.62035 0.0
C454 C 0.00656 0.12004 0.59136 0.0
H455 H 0.99265 0.11956 0.58579 0.0
H456 H 0.01633 0.12304 0.58044 0.0
H457 H 0.00978 0.10651 0.59691 0.0
C458 C 0.07832 0.11429 0.58216 0.0
N459 N 0.06759 0.12842 0.57847 0.0
N460 N 0.05509 0.12988 0.59101 0.0
C461 C 0.0577 0.11671 0.60337 0.0
C462 C 0.07252 0.10646 0.59812 0.0
C463 C 0.0942 0.10893 0.57086 0.0
H464 H 0.09084 0.11039 0.55634 0.0
H465 H 0.09832 0.09477 0.57358 0.0
H466 H 0.1057 0.11803 0.57393 0.0
O467 O 0.07417 0.16937 0.57509 0.0
O468 O 0.05257 0.17278 0.59548 0.0
H469 H 0.04442 0.12897 0.62607 0.0
H470 H 0.05592 0.108 0.63117 0.0
C471 C 0.04778 0.11531 0.62092 0.0
H472 H 0.03505 0.10774 0.61879 0.0
H473 H 0.02383 0.1693 0.62363 0.0
O474 O 0.09261 0.14457 0.54779 0.0
C475 C 0.06703 0.17821 0.58787 0.0
Co476 Co 0.84254 0.07198 0.55964 0.0
Co477 Co 0.83897 0.04008 0.58669 0.0
C478 C 0.84016 0.03484 0.5457 0.0
O479 O 0.84219 0.05164 0.54284 0.0
O480 O 0.83856 0.02871 0.56175 0.0
C481 C 0.83172 0.09916 0.53651 0.0
O482 O 0.81754 0.08853 0.53553 0.0
C483 C 0.85587 0.00908 0.60332 0.0
C484 C 0.83718 0.00166 0.62536 0.0
C485 C 0.85331 0.99678 0.61719 0.0
N486 N 0.84211 0.02086 0.60346 0.0
N487 N 0.831 0.01647 0.61673 0.0
C488 C 0.8703 0.00879 0.58914 0.0
H489 H 0.8674 0.0187 0.57831 0.0
H490 H 0.8835 0.01228 0.59526 0.0
H491 H 0.87146 0.99502 0.5833 0.0
C492 C 0.87449 0.08003 0.58131 0.0
N493 N 0.8604 0.06943 0.57717 0.0
N494 N 0.85864 0.05672 0.58945 0.0
C495 C 0.87154 0.05913 0.60215 0.0
C496 C 0.88198 0.07396 0.59735 0.0
C497 C 0.88056 0.09563 0.56997 0.0
H498 H 0.87897 0.09231 0.55545 0.0
H499 H 0.89488 0.09912 0.57269 0.0
H500 H 0.87198 0.10754 0.57302 0.0
O501 O 0.81937 0.07456 0.57142 0.0
O502 O 0.81546 0.05266 0.59138 0.0
H503 H 0.85907 0.04464 0.62401 0.0
H504 H 0.87917 0.05707 0.6302 0.0
C505 C 0.87272 0.0488 0.61949 0.0
H506 H 0.88109 0.03658 0.6174 0.0
H507 H 0.81906 0.02336 0.61968 0.0
O508 O 0.84516 0.09443 0.54607 0.0
C509 C 0.80995 0.06694 0.58348 0.0
Co510 Co 0.9241 0.84679 0.55902 0.0
Co511 Co 0.95492 0.84272 0.58723 0.0
C512 C 0.96174 0.84374 0.54648 0.0
O513 O 0.94509 0.84606 0.54303 0.0
O514 O 0.96727 0.84209 0.56275 0.0
C515 C 0.89751 0.83635 0.53505 0.0
O516 O 0.90794 0.822 0.53447 0.0
C517 C 0.98581 0.85842 0.60524 0.0
C518 C 0.99165 0.83924 0.62733 0.0
C519 C -0.00247 0.85518 0.61947 0.0
N520 N 0.97343 0.84521 0.60486 0.0
N521 N 0.97685 0.83384 0.61819 0.0
C522 C 0.98725 0.87286 0.59113 0.0
H523 H 0.97753 0.87049 0.58001 0.0
H524 H 0.98423 0.88619 0.59722 0.0
H525 H 0.00122 0.87333 0.58571 0.0
C526 C 0.91539 0.87851 0.58069 0.0
N527 N 0.92622 0.86455 0.57671 0.0
N528 N 0.93854 0.86269 0.58938 0.0
C529 C 0.93568 0.87547 0.60211 0.0
C530 C 0.92092 0.88585 0.59697 0.0
C531 C 0.89982 0.88436 0.5692 0.0
H532 H 0.88826 0.87512 0.57155 0.0
H533 H 0.9036 0.88352 0.55472 0.0
H534 H 0.8956 0.89838 0.5724 0.0
O535 O 0.92067 0.82365 0.57059 0.0
O536 O 0.94177 0.81946 0.59133 0.0
H537 H 0.949 0.86282 0.62458 0.0
H538 H 0.93722 0.88353 0.63011 0.0
C539 C 0.94551 0.87655 0.61974 0.0
H540 H 0.95815 0.88433 0.61786 0.0
H541 H 0.96938 0.82218 0.62077 0.0
O542 O 0.9022 0.84979 0.54463 0.0
C543 C 0.92773 0.81413 0.58292 0.0
Co544 Co 0.42933 0.15262 0.06523 0.0
Co545 Co 0.40275 0.15906 0.03338 0.0
C546 C 0.44361 0.15688 0.02828 0.0
O547 O 0.44621 0.15396 0.045 0.0
O548 O 0.4277 0.15923 0.02205 0.0
C549 C 0.45319 0.15936 0.09336 0.0
O550 O 0.45488 0.17465 0.08451 0.0
C551 C 0.38584 0.14532 0.00117 0.0
C552 C 0.36297 0.16387 0.9963 0.0
C553 C 0.37137 0.14845 0.9898 0.0
N554 N 0.38585 0.15801 0.01408 0.0
N555 N 0.37216 0.1691 0.01116 0.0
C556 C 0.40027 0.13127 -0.00085 0.0
H557 H 0.4097 0.13155 0.01077 0.0
H558 H 0.39425 0.11762 -0.00182 0.0
H559 H 0.40787 0.13377 0.98646 0.0
C560 C 0.40758 0.12019 0.07 0.0
N561 N 0.41139 0.13552 0.06116 0.0
N562 N 0.39929 0.13831 0.04845 0.0
C563 C 0.38699 0.12481 0.04918 0.0
C564 C 0.39201 0.11293 0.06275 0.0
C565 C 0.41863 0.11284 0.08526 0.0
H566 H 0.41773 0.12223 0.09691 0.0
H567 H 0.433 0.11208 0.0811 0.0
H568 H 0.41391 0.09929 0.08958 0.0
O569 O 0.41838 0.1759 0.0697 0.0
O570 O 0.39891 0.18164 0.04772 0.0
H571 H 0.36517 0.13693 0.03436 0.0
H572 H 0.35992 0.11529 0.04446 0.0
C573 C 0.37054 0.12333 0.03757 0.0
H574 H 0.37408 0.1163 0.02484 0.0
H575 H 0.3691 0.18022 0.01926 0.0
O576 O 0.44283 0.14717 0.0872 0.0
C577 C 0.40668 0.18606 0.06245 0.0
Co578 Co 0.42156 0.84226 0.92227 0.0
Co579 Co 0.39673 0.84234 0.95629 0.0
C580 C 0.43751 0.84575 0.95894 0.0
O581 O 0.43939 0.84508 0.94187 0.0
O582 O 0.4219 0.84486 0.96619 0.0
C583 C 0.44418 0.82944 0.89535 0.0
O584 O 0.4452 0.81596 0.90686 0.0
C585 C 0.38059 0.85971 0.98776 0.0
C586 C 0.35873 0.84082 0.99518 0.0
C587 C 0.367 0.85679 0.00035 0.0
N588 N 0.38023 0.8462 0.97566 0.0
N589 N 0.36701 0.83504 0.98004 0.0
C590 C 0.39474 0.87417 0.98805 0.0
H591 H 0.40492 0.87196 0.97733 0.0
H592 H 0.38841 0.88752 0.9857 0.0
H593 H 0.4014 0.87451 0.00149 0.0
C594 C 0.39869 0.87277 0.91201 0.0
N595 N 0.40337 0.85963 0.92358 0.0
N596 N 0.3922 0.85952 0.93739 0.0
C597 C 0.37978 0.87266 0.93486 0.0
C598 C 0.3835 0.88143 0.91867 0.0
C599 C 0.40935 0.87749 0.89547 0.0
H600 H 0.424 0.87636 0.89838 0.0
H601 H 0.40639 0.89139 0.89074 0.0
H602 H 0.40602 0.86778 0.88455 0.0
O603 O 0.41093 0.8184 0.92309 0.0
O604 O 0.39388 0.81689 0.94768 0.0
H605 H 0.3588 0.86348 0.95263 0.0
H606 H 0.3533 0.8837 0.94004 0.0
C607 C 0.36422 0.87633 0.9472 0.0
H608 H 0.36889 0.88478 0.95864 0.0
H609 H 0.36397 0.82323 0.97299 0.0
O610 O 0.43443 0.84303 0.89919 0.0
C611 C 0.40049 0.80976 0.9335 0.0
Co612 Co 0.15617 0.42277 0.91571 0.0
Co613 Co 0.15505 0.40047 0.95127 0.0
C614 C 0.153 0.44158 0.95075 0.0
O615 O 0.15371 0.44246 0.93361 0.0
O616 O 0.15345 0.42639 0.95883 0.0
C617 C 0.16899 0.44364 0.88714 0.0
O618 O 0.18265 0.44556 0.8983 0.0
C619 C 0.13516 0.39122 0.98301 0.0
C620 C 0.15 0.36834 0.9951 0.0
C621 C 0.13526 0.37963 -0.00224 0.0
N622 N 0.14921 0.38714 0.97237 0.0
N623 N 0.15806 0.37341 0.97955 0.0
C624 C 0.12151 0.4054 0.97828 0.0
H625 H 0.12116 0.40763 0.96348 0.0
H626 H 0.10785 0.40147 0.98304 0.0
H627 H 0.1254 0.41837 0.9847 0.0
C628 C 0.12443 0.4006 0.90721 0.0
N629 N 0.13804 0.40539 0.9182 0.0
N630 N 0.13799 0.39506 0.93264 0.0
C631 C 0.12436 0.38303 0.93112 0.0
C632 C 0.11532 0.38618 0.91496 0.0
C633 C 0.1196 0.41062 0.89032 0.0
H634 H 0.12835 0.40586 0.87913 0.0
H635 H 0.122 0.42529 0.89222 0.0
H636 H 0.10526 0.4085 0.88655 0.0
O637 O 0.1797 0.41134 0.91789 0.0
O638 O 0.18035 0.39563 0.94346 0.0
H639 H 0.13313 0.36337 0.95057 0.0
H640 H 0.11311 0.35706 0.93802 0.0
C641 C 0.1204 0.36843 0.94452 0.0
H642 H 0.11176 0.37395 0.95543 0.0
H643 H 0.16965 0.36764 0.97398 0.0
O644 O 0.15574 0.43377 0.89173 0.0
C645 C 0.18787 0.40118 0.92901 0.0
Co646 Co 0.56926 0.15557 0.91083 0.0
Co647 Co 0.59385 0.15641 0.94488 0.0
C648 C 0.55264 0.15688 0.94694 0.0
O649 O 0.55077 0.15578 0.92991 0.0
O650 O 0.56829 0.15748 0.95408 0.0
C651 C 0.54683 0.16652 0.88271 0.0
O652 O 0.54558 0.18096 0.89296 0.0
C653 C 0.60347 0.13956 0.97832 0.0
C654 C 0.62901 0.15253 0.98658 0.0
C655 C 0.61637 0.13975 0.99192 0.0
N656 N 0.60811 0.15172 0.96574 0.0
N657 N 0.62341 0.15947 0.97068 0.0
C658 C 0.58757 0.12718 0.9764 0.0
H659 H 0.58391 0.12553 0.96197 0.0
H660 H 0.59052 0.11374 0.98235 0.0
H661 H 0.57578 0.13313 0.98347 0.0
C662 C 0.58837 0.12167 0.90443 0.0
N663 N 0.58573 0.13678 0.91404 0.0
N664 N 0.59681 0.13707 0.92792 0.0
C665 C 0.60715 0.12201 0.92735 0.0
C666 C 0.60201 0.11177 0.91252 0.0
C667 C 0.57748 0.11659 0.88816 0.0
H668 H 0.57903 0.12719 0.8777 0.0
H669 H 0.56298 0.11597 0.8919 0.0
H670 H 0.58178 0.10343 0.88242 0.0
O671 O 0.58191 0.17836 0.91004 0.0
O672 O 0.60017 0.18027 0.93373 0.0
H673 H 0.6281 0.12907 0.94611 0.0
H674 H 0.63084 0.10719 0.93552 0.0
C675 C 0.62092 0.11689 0.94121 0.0
H676 H 0.61409 0.11032 0.95279 0.0
H677 H 0.62998 0.16947 0.96324 0.0
O678 O 0.55675 0.15347 0.88775 0.0
C679 C 0.59364 0.18685 0.91918 0.0
Co680 Co 0.84682 0.56412 0.91863 0.0
Co681 Co 0.84316 0.59106 0.95075 0.0
C682 C 0.84624 0.55034 0.95603 0.0
O683 O 0.84777 0.54751 0.93917 0.0
O684 O 0.8442 0.56631 0.9622 0.0
C685 C 0.83664 0.53965 0.89253 0.0
O686 O 0.82266 0.53882 0.90343 0.0
C687 C 0.85849 0.60853 0.98238 0.0
C688 C 0.83886 0.63018 0.9884 0.0
C689 C 0.85481 0.62241 0.99442 0.0
N690 N 0.84548 0.60825 0.96975 0.0
N691 N 0.83385 0.62132 0.9733 0.0
C692 C 0.87321 0.5947 0.98364 0.0
H693 H 0.87371 0.58898 -0.00251 0.0
H694 H 0.8712 0.58376 0.97364 0.0
H695 H 0.88643 0.60111 0.98081 0.0
C696 C 0.87754 0.5872 0.9097 0.0
N697 N 0.8639 0.58251 0.92065 0.0
N698 N 0.86224 0.59452 0.93365 0.0
C699 C 0.87482 0.6075 0.93117 0.0
C700 C 0.88484 0.60326 0.91589 0.0
C701 C 0.8835 0.57623 0.89378 0.0
H702 H 0.87421 0.57881 0.88231 0.0
H703 H 0.88285 0.56165 0.89713 0.0
H704 H 0.89748 0.57969 0.88963 0.0
O705 O 0.82304 0.57473 0.91654 0.0
O706 O 0.81921 0.59439 0.93875 0.0
H707 H 0.86267 0.62917 0.94615 0.0
H708 H 0.88334 0.63519 0.93456 0.0
C709 C 0.87629 0.62437 0.94219 0.0
H710 H 0.88415 0.62148 0.95459 0.0
H711 H 0.82227 0.6239 0.96569 0.0
O712 O 0.84972 0.55003 0.89646 0.0
C713 C 0.81346 0.58635 0.92465 0.0
Co714 Co 0.56131 0.84482 0.07691 0.0
Co715 Co 0.58749 0.84009 0.04441 0.0
C716 C 0.54687 0.84533 0.03974 0.0
O717 O 0.54443 0.84685 0.05667 0.0
O718 O 0.5626 0.8425 0.03325 0.0
C719 C 0.53745 0.83535 0.10394 0.0
O720 O 0.5355 0.82149 0.09304 0.0
C721 C 0.60578 0.85472 0.013 0.0
C722 C 0.62648 0.83409 0.00694 0.0
C723 C 0.61963 0.85052 0.00112 0.0
N724 N 0.60467 0.84156 0.02541 0.0
N725 N 0.61718 0.82933 0.02184 0.0
C726 C 0.59272 0.87013 0.01176 0.0
H727 H 0.58693 0.87081 -0.00206 0.0
H728 H 0.58176 0.86872 0.02184 0.0
H729 H 0.59982 0.88303 0.0144 0.0
C730 C 0.58579 0.87464 0.08548 0.0
N731 N 0.58046 0.86106 0.07473 0.0
N732 N 0.59221 0.85883 0.0616 0.0
C733 C 0.60575 0.87084 0.06386 0.0
C734 C 0.60209 0.88123 0.07906 0.0
C735 C 0.57505 0.88141 0.10123 0.0
H736 H 0.56042 0.88076 0.09808 0.0
H737 H 0.57869 0.89552 0.1047 0.0
H738 H 0.57767 0.87262 0.11309 0.0
O739 O 0.5707 0.82046 0.07861 0.0
O740 O 0.58986 0.81598 0.05613 0.0
H741 H 0.63388 0.8777 0.06036 0.0
H742 H 0.62013 0.87964 0.04045 0.0
C743 C 0.62261 0.87143 0.05272 0.0
H744 H 0.62656 0.85761 0.04857 0.0
H745 H 0.6191 0.81754 0.02934 0.0
O746 O 0.54806 0.84809 0.09951 0.0
C747 C 0.58173 0.81042 0.07023 0.0
Co748 Co 0.15287 0.56783 0.06566 0.0
Co749 Co 0.15625 0.59407 0.0332 0.0
C750 C 0.15369 0.55336 0.02835 0.0
O751 O 0.15244 0.55102 0.04531 0.0
O752 O 0.15541 0.56918 0.02169 0.0
C753 C 0.16189 0.54334 0.09253 0.0
O754 O 0.17616 0.54143 0.08215 0.0
C755 C 0.14146 0.61108 0.00141 0.0
C756 C 0.15945 0.63443 0.9967 0.0
C757 C 0.14426 0.62571 0.99014 0.0
N758 N 0.15414 0.61128 0.01431 0.0
N759 N 0.16486 0.62529 0.01152 0.0
C760 C 0.12792 0.59621 -0.00082 0.0
H761 H 0.13198 0.58759 0.9876 0.0
H762 H 0.12719 0.58781 0.01156 0.0
H763 H 0.11435 0.60174 0.99621 0.0
C764 C 0.12053 0.58899 0.07294 0.0
N765 N 0.13537 0.58566 0.06313 0.0
N766 N 0.13662 0.59743 0.04988 0.0
C767 C 0.12248 0.60896 0.05113 0.0
C768 C 0.11184 0.60382 0.06569 0.0
C769 C 0.11476 0.57788 0.08883 0.0
H770 H 0.12552 0.57825 0.09925 0.0
H771 H 0.11305 0.56362 0.08455 0.0
H772 H 0.102 0.5829 0.09486 0.0
O773 O 0.17632 0.57873 0.06829 0.0
O774 O 0.18004 0.5978 0.04557 0.0
H775 H 0.1316 0.63082 0.03441 0.0
H776 H 0.10984 0.63445 0.04496 0.0
C777 C 0.11878 0.62428 0.03851 0.0
H778 H 0.11183 0.61907 0.02632 0.0
H779 H 0.17596 0.6285 0.01959 0.0
O780 O 0.14941 0.5541 0.08782 0.0
C781 C 0.18576 0.5903 0.05997 0.0
Co782 Co 0.84829 0.43049 0.07825 0.0
Co783 Co 0.84388 0.4034 0.04633 0.0
C784 C 0.84716 0.4442 0.04096 0.0
O785 O 0.8491 0.44709 0.05776 0.0
O786 O 0.84483 0.42822 0.03491 0.0
C787 C 0.83793 0.45454 0.10457 0.0
O788 O 0.82404 0.45542 0.09356 0.0
C789 C 0.85929 0.38596 0.01472 0.0
C790 C 0.83938 0.36473 0.00822 0.0
C791 C 0.85552 0.37229 0.00244 0.0
N792 N 0.84613 0.38632 0.0272 0.0
N793 N 0.83433 0.3735 0.02336 0.0
C794 C 0.87429 0.3995 0.01388 0.0
H795 H 0.87557 0.40494 -3e-05 0.0
H796 H 0.872 0.41067 0.02356 0.0
H797 H 0.88722 0.39288 0.01751 0.0
C798 C 0.8786 0.40694 0.08715 0.0
N799 N 0.86518 0.41196 0.07608 0.0
N800 N 0.86309 0.39981 0.06328 0.0
C801 C 0.87512 0.38637 0.06605 0.0
C802 C 0.88526 0.39046 0.0813 0.0
C803 C 0.88479 0.41786 0.10301 0.0
H804 H 0.87563 0.41531 0.1146 0.0
H805 H 0.88417 0.43246 0.09969 0.0
H806 H 0.89879 0.4143 0.10697 0.0
O807 O 0.82454 0.41992 0.08053 0.0
O808 O 0.82004 0.40005 0.05865 0.0
H809 H 0.86185 0.365 0.05162 0.0
H810 H 0.88215 0.35817 0.0634 0.0
C811 C 0.8757 0.36915 0.05549 0.0
H812 H 0.8837 0.37129 0.04301 0.0
H813 H 0.82262 0.37103 0.0308 0.0
O814 O 0.85119 0.4444 0.10054 0.0
C815 C 0.81468 0.40829 0.07279 0.0
Co816 Co 0.57755 0.92768 0.65317 0.0
Co817 Co 0.54542 0.90069 0.65504 0.0
C818 C 0.54006 0.94145 0.65457 0.0
O819 O 0.55695 0.94427 0.6535 0.0
O820 O 0.53379 0.92542 0.65545 0.0
C821 C 0.60391 0.95195 0.66387 0.0
O822 O 0.59346 0.95247 0.67821 0.0
C823 C 0.51333 0.88436 0.63963 0.0
C824 C 0.50861 0.86062 0.65709 0.0
C825 C 0.50175 0.86992 0.64236 0.0
N826 N 0.52657 0.88351 0.65198 0.0
N827 N 0.52379 0.86922 0.66231 0.0
C828 C 0.51093 0.89978 0.62675 0.0
H829 H 0.49855 0.90741 0.63037 0.0
H830 H 0.52278 0.90892 0.62711 0.0
H831 H 0.50926 0.89473 0.61277 0.0
C832 C 0.58545 0.90786 0.6201 0.0
N833 N 0.57533 0.9106 0.63484 0.0
N834 N 0.56223 0.89861 0.63546 0.0
C835 C 0.56385 0.88759 0.62097 0.0
C836 C 0.57852 0.89324 0.61078 0.0
C837 C 0.60153 0.91912 0.61521 0.0
H838 H 0.61145 0.91866 0.62642 0.0
H839 H 0.59724 0.93338 0.61349 0.0
H840 H 0.60818 0.9143 0.60267 0.0
O841 O 0.58019 0.91555 0.67602 0.0
O842 O 0.5578 0.8959 0.67863 0.0
H843 H 0.54747 0.86511 0.62908 0.0
H844 H 0.55785 0.86269 0.60706 0.0
C845 C 0.5514 0.87232 0.61657 0.0
H846 H 0.53907 0.87775 0.61006 0.0
H847 H 0.532 0.86557 0.67317 0.0
O848 O 0.59952 0.942 0.6506 0.0
C849 C 0.57207 0.90331 0.68478 0.0
Co850 Co 0.06401 0.58018 0.65016 0.0
Co851 Co 0.08922 0.54661 0.65038 0.0
C852 C 0.04808 0.5439 0.64791 0.0
O853 O 0.04581 0.56092 0.64767 0.0
O854 O 0.06386 0.53712 0.64917 0.0
C855 C 0.04224 0.60758 0.66355 0.0
O856 O 0.04126 0.59612 0.67706 0.0
C857 C 0.1005 0.51494 0.63158 0.0
C858 C 0.12341 0.50428 0.64742 0.0
C859 C 0.11247 0.50056 0.63265 0.0
N860 N 0.10397 0.52636 0.64516 0.0
N861 N 0.11777 0.52008 0.65456 0.0
C862 C 0.08624 0.51837 0.61762 0.0
H863 H 0.08382 0.53307 0.61612 0.0
H864 H 0.09021 0.51256 0.60438 0.0
H865 H 0.07336 0.51213 0.62205 0.0
C866 C 0.08674 0.59012 0.61919 0.0
N867 N 0.08195 0.57871 0.63244 0.0
N868 N 0.09329 0.56504 0.63289 0.0
C869 C 0.1059 0.56747 0.61996 0.0
C870 C 0.10216 0.58346 0.61089 0.0
C871 C 0.07617 0.60663 0.61422 0.0
H872 H 0.06153 0.60411 0.61611 0.0
H873 H 0.07867 0.61066 0.6 0.0
H874 H 0.08018 0.6179 0.62325 0.0
O875 O 0.07533 0.57906 0.67379 0.0
O876 O 0.09411 0.55579 0.67514 0.0
H877 H 0.1328 0.56239 0.60986 0.0
H878 H 0.11742 0.54358 0.60861 0.0
C879 C 0.12171 0.55524 0.61698 0.0
H880 H 0.12675 0.55007 0.6301 0.0
H881 H 0.12303 0.5263 0.66606 0.0
O882 O 0.0516 0.60351 0.64975 0.0
C883 C 0.08678 0.56961 0.68232 0.0
Co884 Co 0.41891 0.06268 0.65206 0.0
Co885 Co 0.45122 0.08944 0.65469 0.0
C886 C 0.4561 0.0485 0.65271 0.0
O887 O 0.43922 0.04577 0.65133 0.0
O888 O 0.4624 0.06448 0.65428 0.0
C889 C 0.39248 0.0394 0.66391 0.0
O890 O 0.40371 0.03887 0.67764 0.0
C891 C 0.4825 0.10622 0.63798 0.0
C892 C 0.48929 0.1283 0.65685 0.0
C893 C 0.49471 0.12013 0.64089 0.0
N894 N 0.47034 0.10632 0.65143 0.0
N895 N 0.47436 0.11964 0.66261 0.0
C896 C 0.48312 0.09208 0.62351 0.0
H897 H 0.49699 0.08653 0.62232 0.0
H898 H 0.47342 0.08106 0.62636 0.0
H899 H 0.47941 0.09817 0.61035 0.0
C900 C 0.40974 0.08498 0.62082 0.0
N901 N 0.42086 0.08052 0.63441 0.0
N902 N 0.43383 0.09257 0.63576 0.0
C903 C 0.43113 0.10541 0.62307 0.0
C904 C 0.41576 0.101 0.61325 0.0
C905 C 0.39382 0.07386 0.6152 0.0
H906 H 0.397 0.05929 0.61668 0.0
H907 H 0.38995 0.07663 0.60099 0.0
H908 H 0.38222 0.07705 0.62414 0.0
O909 O 0.41735 0.07411 0.67549 0.0
O910 O 0.43971 0.09365 0.67876 0.0
H911 H 0.44622 0.12713 0.63499 0.0
H912 H 0.434 0.13321 0.61473 0.0
C913 C 0.44193 0.12241 0.62145 0.0
H914 H 0.45413 0.11972 0.61321 0.0
H915 H 0.46715 0.12256 0.67438 0.0
O916 O 0.39641 0.04898 0.65022 0.0
C917 C 0.42558 0.08588 0.68476 0.0
Co918 Co 0.92602 0.42446 0.65344 0.0
Co919 Co 0.89913 0.45676 0.6551 0.0
C920 C 0.93955 0.4621 0.65063 0.0
O921 O 0.94246 0.44517 0.65071 0.0
O922 O 0.92358 0.46836 0.65225 0.0
C923 C 0.95121 0.39874 0.6639 0.0
O924 O 0.95301 0.4102 0.67734 0.0
C925 C 0.88088 0.48714 0.63838 0.0
C926 C 0.85963 0.49408 0.65814 0.0
C927 C 0.86701 0.49928 0.64173 0.0
N928 N 0.88154 0.47524 0.65203 0.0
N929 N 0.86867 0.4793 0.66372 0.0
C930 C 0.8945 0.48785 0.62343 0.0
H931 H 0.90479 0.4771 0.625 0.0
H932 H 0.88771 0.48587 0.61024 0.0
H933 H 0.90112 0.5013 0.62322 0.0
C934 C 0.90282 0.41352 0.62343 0.0
N935 N 0.9073 0.42514 0.63659 0.0
N936 N 0.89526 0.43817 0.63747 0.0
C937 C 0.88243 0.43501 0.62486 0.0
C938 C 0.88682 0.41927 0.61562 0.0
C939 C 0.91426 0.39774 0.61798 0.0
H940 H 0.92873 0.40158 0.61842 0.0
H941 H 0.91093 0.39296 0.60418 0.0
H942 H 0.91211 0.38654 0.62771 0.0
O943 O 0.91596 0.42371 0.67764 0.0
O944 O 0.89722 0.44701 0.68022 0.0
H945 H 0.86079 0.4511 0.63555 0.0
H946 H 0.85499 0.43826 0.61557 0.0
C947 C 0.86578 0.44617 0.62232 0.0
H948 H 0.86903 0.45797 0.61371 0.0
H949 H 0.86643 0.47233 0.67577 0.0
O950 O 0.9401 0.40223 0.65131 0.0
C951 C 0.90493 0.43309 0.68676 0.0
Co952 Co 0.56934 0.06773 0.33721 0.0
Co953 Co 0.53573 0.09284 0.33976 0.0
C954 C 0.53264 0.05206 0.34217 0.0
O955 O 0.54965 0.05017 0.34062 0.0
O956 O 0.52539 0.06771 0.34198 0.0
C957 C 0.59569 0.04425 0.32385 0.0
O958 O 0.58384 0.04247 0.31076 0.0
C959 C 0.50499 0.10848 0.35839 0.0
C960 C 0.49911 0.13304 0.34248 0.0
C961 C 0.49352 0.12323 0.35739 0.0
N962 N 0.51703 0.10966 0.3449 0.0
N963 N 0.51355 0.12442 0.33548 0.0
C964 C 0.50365 0.09258 0.37084 0.0
H965 H 0.49285 0.08343 0.36591 0.0
H966 H 0.51661 0.08506 0.37115 0.0
H967 H 0.50013 0.09682 0.38473 0.0
C968 C 0.58079 0.08851 0.36863 0.0
N969 N 0.56912 0.08538 0.35515 0.0
N970 N 0.55526 0.09641 0.35651 0.0
C971 C 0.55785 0.1071 0.37111 0.0
C972 C 0.57404 0.1023 0.3793 0.0
C973 C 0.59768 0.0778 0.37165 0.0
H974 H 0.6061 0.07826 0.35926 0.0
H975 H 0.59407 0.06348 0.37421 0.0
H976 H 0.60569 0.0831 0.38315 0.0
O977 O 0.56768 0.07876 0.31371 0.0
O978 O 0.54359 0.09662 0.31412 0.0
H979 H 0.53871 0.12838 0.36668 0.0
H980 H 0.55094 0.13004 0.38775 0.0
C981 C 0.54452 0.12059 0.37806 0.0
H982 H 0.53346 0.11341 0.38514 0.0
H983 H 0.52085 0.12847 0.32412 0.0
O984 O 0.59216 0.05455 0.3371 0.0
C985 C 0.55718 0.08985 0.30604 0.0
Co986 Co 0.92642 0.57008 0.33815 0.0
Co987 Co 0.90118 0.53663 0.34067 0.0
C988 C 0.94203 0.53326 0.34195 0.0
O989 O 0.94399 0.55028 0.34065 0.0
O990 O 0.92633 0.52613 0.34206 0.0
C991 C 0.94961 0.59666 0.32468 0.0
O992 O 0.95104 0.58514 0.31126 0.0
C993 C 0.88581 0.50591 0.35948 0.0
C994 C 0.8609 0.50016 0.34406 0.0
C995 C 0.87096 0.49455 0.3588 0.0
N996 N 0.88445 0.5179 0.34598 0.0
N997 N 0.8695 0.51449 0.33683 0.0
C998 C 0.9019 0.50454 0.37167 0.0
H999 H 0.91084 0.49355 0.36675 0.0
H1000 H 0.90958 0.5174 0.37169 0.0
H1001 H 0.89786 0.50126 0.38569 0.0
C1002 C 0.90649 0.58111 0.37027 0.0
N1003 N 0.90929 0.56961 0.35656 0.0
N1004 N 0.89813 0.55586 0.35787 0.0
C1005 C 0.88765 0.55838 0.37264 0.0
C1006 C 0.89276 0.57439 0.381 0.0
C1007 C 0.91728 0.59796 0.37324 0.0
H1008 H 0.9165 0.60655 0.361 0.0
H1009 H 0.93166 0.59431 0.37537 0.0
H1010 H 0.91228 0.60582 0.38499 0.0
O1011 O 0.91466 0.56901 0.315 0.0
O1012 O 0.89672 0.545 0.31528 0.0
H1013 H 0.86606 0.53964 0.36802 0.0
H1014 H 0.86457 0.55173 0.38919 0.0
C1015 C 0.87393 0.54523 0.37946 0.0
H1016 H 0.88093 0.53401 0.38647 0.0
H1017 H 0.86527 0.52181 0.32555 0.0
O1018 O 0.93964 0.59282 0.3381 0.0
C1019 C 0.90331 0.55878 0.30738 0.0
Co1020 Co 0.42055 0.92269 0.34096 0.0
Co1021 Co 0.45445 0.89802 0.3423 0.0
C1022 C 0.45748 0.93868 0.34386 0.0
O1023 O 0.44041 0.94039 0.34285 0.0
O1024 O 0.46484 0.92309 0.34382 0.0
C1025 C 0.39438 0.94681 0.32901 0.0
O1026 O 0.40592 0.94846 0.31562 0.0
C1027 C 0.48644 0.88277 0.35901 0.0
C1028 C 0.4914 0.85807 0.34297 0.0
C1029 C 0.49802 0.86817 0.35726 0.0
N1030 N 0.47341 0.88124 0.34653 0.0
N1031 N 0.47632 0.86639 0.33706 0.0
C1032 C 0.48861 0.89893 0.371 0.0
H1033 H 0.47566 0.90635 0.3722 0.0
H1034 H 0.49321 0.89501 0.38466 0.0
H1035 H 0.49893 0.90805 0.36508 0.0
C1036 C 0.41093 0.90258 0.37341 0.0
N1037 N 0.42183 0.90548 0.35924 0.0
N1038 N 0.43584 0.89461 0.36009 0.0
C1039 C 0.43417 0.88426 0.37507 0.0
C1040 C 0.41839 0.88912 0.38401 0.0
C1041 C 0.39411 0.91321 0.37707 0.0
H1042 H 0.38517 0.91261 0.36506 0.0
H1043 H 0.39773 0.92757 0.37938 0.0
H1044 H 0.38665 0.90794 0.38895 0.0
O1045 O 0.42066 0.91104 0.3177 0.0
O1046 O 0.44543 0.89421 0.31705 0.0
H1047 H 0.45316 0.86297 0.37015 0.0
H1048 H 0.44234 0.86198 0.39204 0.0
C1049 C 0.44803 0.87112 0.38161 0.0
H1050 H 0.45947 0.87863 0.38767 0.0
H1051 H 0.46824 0.86213 0.32632 0.0
O1052 O 0.39794 0.93609 0.34191 0.0
C1053 C 0.43117 0.90027 0.30958 0.0
Co1054 Co 0.06737 0.41647 0.34324 0.0
Co1055 Co 0.09336 0.44936 0.34328 0.0
C1056 C 0.05253 0.45371 0.3437 0.0
O1057 O 0.05027 0.4367 0.34384 0.0
O1058 O 0.06837 0.46053 0.34332 0.0
C1059 C 0.04329 0.39013 0.33159 0.0
O1060 O 0.04223 0.40107 0.31766 0.0
C1061 C 0.10908 0.48104 0.36013 0.0
C1062 C 0.13311 0.48658 0.34332 0.0
C1063 C 0.1235 0.49278 0.35814 0.0
N1064 N 0.11024 0.4683 0.3473 0.0
N1065 N 0.12471 0.47157 0.33736 0.0
C1066 C 0.09341 0.48284 0.37281 0.0
H1067 H 0.08478 0.47061 0.37235 0.0
H1068 H 0.09816 0.48485 0.38684 0.0
H1069 H 0.08528 0.49483 0.36896 0.0
C1070 C 0.08699 0.40735 0.37606 0.0
N1071 N 0.08421 0.41812 0.36179 0.0
N1072 N 0.09576 0.43162 0.36208 0.0
C1073 C 0.10649 0.42965 0.37675 0.0
C1074 C 0.10111 0.4143 0.38611 0.0
C1075 C 0.07622 0.39064 0.37984 0.0
H1076 H 0.07688 0.38156 0.36794 0.0
H1077 H 0.06186 0.39438 0.38195 0.0
H1078 H 0.08131 0.38324 0.39183 0.0
O1079 O 0.07961 0.41521 0.32039 0.0
O1080 O 0.0984 0.43842 0.31896 0.0
H1081 H 0.12859 0.44718 0.37013 0.0
H1082 H 0.13064 0.43604 0.3918 0.0
C1083 C 0.12109 0.44248 0.38221 0.0
H1084 H 0.11494 0.45433 0.38898 0.0
H1085 H 0.12862 0.46379 0.32627 0.0
O1086 O 0.05349 0.39419 0.34476 0.0
C1087 C 0.09153 0.42421 0.31208 0.0
Co1088 Co 0.6531 0.5723 0.92941 0.0
Co1089 Co 0.65629 0.53931 0.90363 0.0
C1090 C 0.65472 0.5355 0.94468 0.0
O1091 O 0.65319 0.55245 0.94687 0.0
O1092 O 0.65617 0.5287 0.92888 0.0
C1093 C 0.66375 0.60037 0.95174 0.0
O1094 O 0.67834 0.5903 0.95258 0.0
C1095 C 0.63984 0.50784 0.88716 0.0
C1096 C 0.65867 0.50086 0.86509 0.0
C1097 C 0.64262 0.49567 0.8732 0.0
N1098 N 0.65341 0.51984 0.88711 0.0
N1099 N 0.6646 0.5157 0.87383 0.0
C1100 C 0.62533 0.50733 0.90126 0.0
H1101 H 0.624 0.49344 0.90674 0.0
H1102 H 0.62825 0.51695 0.91233 0.0
H1103 H 0.6122 0.51114 0.89516 0.0
C1104 C 0.62157 0.58016 0.90718 0.0
N1105 N 0.63532 0.56935 0.91189 0.0
N1106 N 0.63689 0.55613 0.90012 0.0
C1107 C 0.62416 0.55837 0.88721 0.0
C1108 C 0.61411 0.57366 0.89133 0.0
C1109 C 0.61594 0.59649 0.9177 0.0
H1110 H 0.62532 0.60777 0.91463 0.0
H1111 H 0.61674 0.59361 0.93238 0.0
H1112 H 0.60197 0.60069 0.91426 0.0
O1113 O 0.67625 0.57449 0.9176 0.0
O1114 O 0.68002 0.55139 0.89898 0.0
H1115 H 0.63644 0.54313 0.86577 0.0
H1116 H 0.61618 0.5552 0.85935 0.0
C1117 C 0.62282 0.5474 0.87029 0.0
H1118 H 0.61459 0.5352 0.87296 0.0
H1119 H 0.67639 0.52283 0.8709 0.0
O1120 O 0.65035 0.59504 0.94245 0.0
C1121 C 0.6856 0.56607 0.90601 0.0
Co1122 Co 0.42492 0.65422 0.92483 0.0
Co1123 Co 0.45908 0.65441 0.90035 0.0
C1124 C 0.46143 0.65065 0.94113 0.0
O1125 O 0.44434 0.65136 0.94277 0.0
O1126 O 0.46889 0.65166 0.92562 0.0
C1127 C 0.398 0.66647 0.94773 0.0
O1128 O 0.40949 0.67991 0.94918 0.0
C1129 C 0.49006 0.63662 0.88396 0.0
C1130 C 0.49786 0.65545 0.86217 0.0
C1131 C 0.50249 0.63919 0.8702 0.0
N1132 N 0.47847 0.65056 0.88391 0.0
N1133 N 0.48308 0.66171 0.87076 0.0
C1134 C 0.49007 0.62202 0.89797 0.0
H1135 H 0.50342 0.62151 0.90476 0.0
H1136 H 0.47927 0.62426 0.90809 0.0
H1137 H 0.48771 0.60873 0.89153 0.0
C1138 C 0.41496 0.62372 0.90184 0.0
N1139 N 0.42643 0.63689 0.90665 0.0
N1140 N 0.44029 0.63717 0.89554 0.0
C1141 C 0.43784 0.62414 0.88297 0.0
C1142 C 0.42171 0.61525 0.88659 0.0
C1143 C 0.39839 0.61886 0.91238 0.0
H1144 H 0.38746 0.62856 0.90906 0.0
H1145 H 0.40123 0.61988 0.92706 0.0
H1146 H 0.39373 0.60497 0.90928 0.0
O1147 O 0.42554 0.67806 0.91419 0.0
O1148 O 0.4503 0.67981 0.89739 0.0
H1149 H 0.45563 0.63373 0.86217 0.0
H1150 H 0.44275 0.61387 0.85614 0.0
C1151 C 0.45007 0.6208 0.86724 0.0
H1152 H 0.46138 0.61202 0.87157 0.0
H1153 H 0.47637 0.67376 0.86788 0.0
O1154 O 0.40185 0.65319 0.93756 0.0
C1155 C 0.43595 0.68679 0.90382 0.0
Co1156 Co 0.34473 0.42247 0.92454 0.0
Co1157 Co 0.34504 0.45613 0.89917 0.0
C1158 C 0.3481 0.45928 0.94 0.0
O1159 O 0.34752 0.44224 0.94209 0.0
O1160 O 0.34726 0.46634 0.9243 0.0
C1161 C 0.33169 0.39603 0.94757 0.0
O1162 O 0.31838 0.40774 0.94848 0.0
C1163 C 0.36294 0.48714 0.88277 0.0
C1164 C 0.34416 0.49475 0.86087 0.0
C1165 C 0.36025 0.49966 0.86909 0.0
N1166 N 0.3492 0.47531 0.88253 0.0
N1167 N 0.3381 0.4798 0.86929 0.0
C1168 C 0.37742 0.48727 0.8969 0.0
H1169 H 0.3782 0.5008 0.90329 0.0
H1170 H 0.3749 0.47682 0.90729 0.0
H1171 H 0.39068 0.48438 0.89058 0.0
C1172 C 0.37513 0.41165 0.90174 0.0
N1173 N 0.36219 0.42346 0.90639 0.0
N1174 N 0.36214 0.4371 0.89501 0.0
C1175 C 0.37508 0.43419 0.88247 0.0
C1176 C 0.38368 0.41795 0.88633 0.0
C1177 C 0.37968 0.39515 0.91253 0.0
H1178 H 0.3699 0.38429 0.90921 0.0
H1179 H 0.37853 0.39816 0.92716 0.0
H1180 H 0.39355 0.3903 0.90963 0.0
O1181 O 0.32093 0.42336 0.91377 0.0
O1182 O 0.31971 0.44745 0.89596 0.0
H1183 H 0.36564 0.45157 0.86126 0.0
H1184 H 0.38561 0.43864 0.85563 0.0
C1185 C 0.37855 0.44613 0.86654 0.0
H1186 H 0.3872 0.45758 0.87077 0.0
H1187 H 0.32615 0.47296 0.86631 0.0
O1188 O 0.3453 0.39956 0.93773 0.0
C1189 C 0.31247 0.43349 0.90291 0.0
Co1190 Co 0.57145 0.34757 0.93146 0.0
Co1191 Co 0.54061 0.34255 0.90346 0.0
C1192 C 0.53393 0.34507 0.94419 0.0
O1193 O 0.55059 0.34743 0.94752 0.0
O1194 O 0.52834 0.3428 0.92802 0.0
C1195 C 0.59797 0.33754 0.95549 0.0
O1196 O 0.5874 0.32332 0.95636 0.0
C1197 C 0.50978 0.35805 0.8852 0.0
C1198 C 0.5035 0.33827 0.86376 0.0
C1199 C 0.49792 0.35456 0.87115 0.0
N1200 N 0.52196 0.34465 0.88592 0.0
N1201 N 0.51826 0.33291 0.87299 0.0
C1202 C 0.50866 0.37297 0.89882 0.0
H1203 H 0.49471 0.37392 0.90424 0.0
H1204 H 0.51834 0.37077 0.91002 0.0
H1205 H 0.51195 0.38603 0.89231 0.0
C1206 C 0.57992 0.37874 0.909 0.0
N1207 N 0.56922 0.36478 0.91331 0.0
N1208 N 0.55697 0.36246 0.90066 0.0
C1209 C 0.55976 0.37491 0.88758 0.0
C1210 C 0.5744 0.38556 0.89249 0.0
C1211 C 0.59527 0.38514 0.9205 0.0
H1212 H 0.59148 0.38432 0.93497 0.0
H1213 H 0.59906 0.39926 0.91719 0.0
H1214 H 0.60712 0.37624 0.91825 0.0
O1215 O 0.57488 0.32419 0.92048 0.0
O1216 O 0.55386 0.31917 0.89987 0.0
H1217 H 0.54629 0.36157 0.8656 0.0
H1218 H 0.55844 0.38183 0.85929 0.0
C1219 C 0.54999 0.37542 0.86989 0.0
H1220 H 0.53749 0.38351 0.8714 0.0
H1221 H 0.52555 0.32106 0.87073 0.0
O1222 O 0.5934 0.35084 0.94566 0.0
C1223 C 0.56796 0.31424 0.90843 0.0
Co1224 Co 0.65512 0.41819 0.06964 0.0
Co1225 Co 0.65623 0.45115 0.09553 0.0
C1226 C 0.65606 0.45528 0.05464 0.0
O1227 O 0.65533 0.43828 0.05239 0.0
O1228 O 0.65662 0.46211 0.07048 0.0
C1229 C 0.66621 0.39125 0.04609 0.0
O1230 O 0.68047 0.40177 0.04518 0.0
C1231 C 0.64031 0.48345 0.1108 0.0
C1232 C 0.65641 0.48823 0.13548 0.0
C1233 C 0.6421 0.49492 0.12546 0.0
N1234 N 0.65275 0.47036 0.11222 0.0
N1235 N 0.66232 0.47321 0.12703 0.0
C1236 C 0.62811 0.48565 0.0948 0.0
H1237 H 0.62749 0.47297 0.08686 0.0
H1238 H 0.61428 0.48944 0.09904 0.0
H1239 H 0.63341 0.49663 0.08608 0.0
C1240 C 0.62148 0.41085 0.08872 0.0
N1241 N 0.6365 0.42067 0.08635 0.0
N1242 N 0.63676 0.43416 0.0979 0.0
C1243 C 0.62175 0.43311 0.10828 0.0
C1244 C 0.61159 0.41838 0.10266 0.0
C1245 C 0.61656 0.39484 0.07739 0.0
H1246 H 0.62745 0.38459 0.07834 0.0
H1247 H 0.61553 0.39905 0.06303 0.0
H1248 H 0.60365 0.38863 0.08176 0.0
O1249 O 0.67789 0.41624 0.08197 0.0
O1250 O 0.68012 0.43941 0.10074 0.0
H1251 H 0.62873 0.45063 0.1303 0.0
H1252 H 0.60663 0.44037 0.13211 0.0
C1253 C 0.6166 0.44634 0.12265 0.0
H1254 H 0.61036 0.45836 0.11628 0.0
H1255 H 0.673 0.46503 0.13125 0.0
O1256 O 0.65298 0.39581 0.05599 0.0
C1257 C 0.68652 0.42497 0.09386 0.0
Co1258 Co 0.57632 0.64776 0.06782 0.0
Co1259 Co 0.54309 0.64944 0.09344 0.0
C1260 C 0.53937 0.64656 0.05255 0.0
O1261 O 0.5564 0.64602 0.05048 0.0
O1262 O 0.53239 0.64799 0.06827 0.0
C1263 C 0.60336 0.65933 0.04476 0.0
O1264 O 0.59228 0.67314 0.04352 0.0
C1265 C 0.51167 0.63323 0.11062 0.0
C1266 C 0.5055 0.65243 0.13263 0.0
C1267 C 0.49975 0.63649 0.1247 0.0
N1268 N 0.52403 0.64648 0.1104 0.0
N1269 N 0.52039 0.65785 0.12368 0.0
C1270 C 0.51051 0.61869 0.0966 0.0
H1271 H 0.52066 0.62079 0.08582 0.0
H1272 H 0.51308 0.60536 0.10289 0.0
H1273 H 0.49673 0.61841 0.09069 0.0
C1274 C 0.58581 0.61699 0.0906 0.0
N1275 N 0.57451 0.63034 0.08589 0.0
N1276 N 0.56099 0.63113 0.09739 0.0
C1277 C 0.56349 0.61827 0.1101 0.0
C1278 C 0.57931 0.60896 0.10619 0.0
C1279 C 0.60218 0.61179 0.07992 0.0
H1280 H 0.59917 0.61267 0.06527 0.0
H1281 H 0.6067 0.59787 0.08314 0.0
H1282 H 0.61327 0.62138 0.08298 0.0
O1283 O 0.57699 0.6715 0.07862 0.0
O1284 O 0.55368 0.67395 0.09716 0.0
H1285 H 0.55918 0.60854 0.13727 0.0
H1286 H 0.53983 0.6076 0.12263 0.0
C1287 C 0.5518 0.61575 0.12639 0.0
H1288 H 0.54715 0.62902 0.13153 0.0
H1289 H 0.52783 0.6695 0.12638 0.0
O1290 O 0.5991 0.64599 0.05466 0.0
C1291 C 0.5678 0.68053 0.08987 0.0
Co1292 Co 0.34761 0.57763 0.06368 0.0
Co1293 Co 0.34211 0.54512 0.08971 0.0
C1294 C 0.34687 0.5405 0.04907 0.0
O1295 O 0.34879 0.55739 0.04671 0.0
O1296 O 0.34402 0.53401 0.06479 0.0
C1297 C 0.33856 0.60463 0.03984 0.0
O1298 O 0.32437 0.59408 0.03838 0.0
C1299 C 0.35614 0.51316 0.10747 0.0
C1300 C 0.33566 0.50735 0.12839 0.0
C1301 C 0.35182 0.50119 0.12121 0.0
N1302 N 0.3433 0.52593 0.10673 0.0
N1303 N 0.33115 0.52251 0.11936 0.0
C1304 C 0.37132 0.5117 0.09416 0.0
H1305 H 0.37155 0.49796 0.08816 0.0
H1306 H 0.37003 0.52197 0.08337 0.0
H1307 H 0.38439 0.51391 0.10109 0.0
C1308 C 0.37775 0.58527 0.08793 0.0
N1309 N 0.36392 0.57486 0.08262 0.0
N1310 N 0.36145 0.56171 0.09432 0.0
C1311 C 0.37368 0.56357 0.10774 0.0
C1312 C 0.38433 0.57856 0.10409 0.0
C1313 C 0.3846 0.60112 0.07742 0.0
H1314 H 0.38422 0.59805 0.06276 0.0
H1315 H 0.39862 0.60467 0.08134 0.0
H1316 H 0.37568 0.6129 0.07995 0.0
O1317 O 0.32359 0.58017 0.07351 0.0
O1318 O 0.31824 0.55752 0.09225 0.0
H1319 H 0.36046 0.54844 0.12867 0.0
H1320 H 0.38108 0.55954 0.13566 0.0
C1321 C 0.37431 0.55223 0.12446 0.0
H1322 H 0.38209 0.53975 0.12166 0.0
H1323 H 0.31959 0.53028 0.12155 0.0
O1324 O 0.35139 0.60005 0.05028 0.0
C1325 C 0.31329 0.57205 0.08446 0.0
Co1326 Co 0.41203 0.34503 0.06572 0.0
Co1327 Co 0.44537 0.34331 0.09122 0.0
C1328 C 0.44849 0.34469 0.05005 0.0
O1329 O 0.43154 0.34585 0.04769 0.0
O1330 O 0.45512 0.3434 0.06589 0.0
C1331 C 0.38462 0.33348 0.04301 0.0
O1332 O 0.39535 0.31936 0.04219 0.0
C1333 C 0.47798 0.36068 0.10224 0.0
C1334 C 0.48749 0.34527 0.12593 0.0
C1335 C 0.49207 0.35942 0.11451 0.0
N1336 N 0.46586 0.34778 0.106 0.0
N1337 N 0.47149 0.33863 0.12025 0.0
C1338 C 0.47541 0.37433 0.08752 0.0
H1339 H 0.46084 0.37636 0.08473 0.0
H1340 H 0.48165 0.38744 0.09125 0.0
H1341 H 0.48177 0.36931 0.07492 0.0
C1342 C 0.40375 0.37695 0.08766 0.0
N1343 N 0.41449 0.36304 0.08322 0.0
N1344 N 0.428 0.36204 0.0947 0.0
C1345 C 0.42614 0.37529 0.10707 0.0
C1346 C 0.41067 0.38512 0.10303 0.0
C1347 C 0.38757 0.38253 0.0769 0.0
H1348 H 0.37591 0.37396 0.0808 0.0
H1349 H 0.39019 0.3805 0.06229 0.0
H1350 H 0.38407 0.39691 0.0793 0.0
O1351 O 0.41143 0.32172 0.07763 0.0
O1352 O 0.43452 0.31924 0.09656 0.0
H1353 H 0.44263 0.36453 0.12834 0.0
H1354 H 0.43145 0.38557 0.13387 0.0
C1355 C 0.4383 0.37784 0.12301 0.0
H1356 H 0.4505 0.3854 0.11872 0.0
H1357 H 0.46463 0.32768 0.12587 0.0
O1358 O 0.38906 0.34683 0.05282 0.0
C1359 C 0.42023 0.31286 0.08936 0.0
Co1360 Co 0.92575 0.65363 0.5795 0.0
Co1361 Co 0.90067 0.65491 0.54579 0.0
C1362 C 0.94192 0.6527 0.54334 0.0
O1363 O 0.94413 0.6518 0.56034 0.0
O1364 O 0.92617 0.65422 0.53656 0.0
C1365 C 0.94716 0.66616 0.60764 0.0
O1366 O 0.94811 0.68016 0.59678 0.0
C1367 C 0.89047 0.63691 0.51328 0.0
C1368 C 0.86722 0.65225 0.50266 0.0
C1369 C 0.87877 0.63801 0.49872 0.0
N1370 N 0.88632 0.64998 0.52508 0.0
N1371 N 0.87229 0.65908 0.5188 0.0
C1372 C 0.90511 0.62329 0.51644 0.0
H1373 H 0.90731 0.62128 0.53112 0.0
H1374 H 0.90168 0.61019 0.51002 0.0
H1375 H 0.91794 0.62831 0.51057 0.0
C1376 C 0.90309 0.6224 0.58838 0.0
N1377 N 0.90792 0.63591 0.57732 0.0
N1378 N 0.89669 0.63669 0.56359 0.0
C1379 C 0.88414 0.62362 0.56557 0.0
C1380 C 0.88777 0.6142 0.5814 0.0
C1381 C 0.91339 0.61721 0.60499 0.0
H1382 H 0.92809 0.61876 0.60256 0.0
H1383 H 0.91055 0.60307 0.60903 0.0
H1384 H 0.90952 0.62637 0.61621 0.0
O1385 O 0.9143 0.67718 0.57907 0.0
O1386 O 0.89551 0.67942 0.55587 0.0
H1387 H 0.85751 0.61317 0.55984 0.0
H1388 H 0.87308 0.61306 0.54113 0.0
C1389 C 0.8685 0.62082 0.5531 0.0
H1390 H 0.86324 0.63404 0.54842 0.0
H1391 H 0.8665 0.67017 0.52527 0.0
O1392 O 0.93796 0.65247 0.60291 0.0
C1393 C 0.90282 0.68606 0.56998 0.0
Co1394 Co 0.92933 0.34622 0.42812 0.0
Co1395 Co 0.90208 0.3406 0.45956 0.0
C1396 C 0.94304 0.34017 0.46493 0.0
O1397 O 0.94598 0.34338 0.44834 0.0
O1398 O 0.92695 0.33867 0.47097 0.0
C1399 C 0.95175 0.33688 0.39986 0.0
O1400 O 0.95204 0.32173 0.40908 0.0
C1401 C 0.88531 0.35575 0.49137 0.0
C1402 C 0.86292 0.33698 0.49738 0.0
C1403 C 0.87117 0.35273 0.50326 0.0
N1404 N 0.88523 0.34264 0.47886 0.0
N1405 N 0.87178 0.33147 0.48244 0.0
C1406 C 0.89956 0.37006 0.49256 0.0
H1407 H 0.91104 0.36695 0.48348 0.0
H1408 H 0.89382 0.38325 0.48844 0.0
H1409 H 0.90442 0.37134 0.50669 0.0
C1410 C 0.90821 0.37878 0.42227 0.0
N1411 N 0.9124 0.36428 0.43225 0.0
N1412 N 0.89989 0.36165 0.44459 0.0
C1413 C 0.88701 0.37444 0.44256 0.0
C1414 C 0.89196 0.38567 0.42837 0.0
C1415 C 0.91906 0.38513 0.40643 0.0
H1416 H 0.93367 0.38425 0.40962 0.0
H1417 H 0.91561 0.39925 0.40276 0.0
H1418 H 0.91629 0.37623 0.3947 0.0
O1419 O 0.91661 0.32402 0.42331 0.0
O1420 O 0.8968 0.31838 0.44498 0.0
H1421 H 0.86485 0.36051 0.4551 0.0
H1422 H 0.85874 0.38144 0.44402 0.0
C1423 C 0.86924 0.37452 0.45218 0.0
H1424 H 0.87065 0.38191 0.46512 0.0
H1425 H 0.86879 0.31999 0.47483 0.0
O1426 O 0.94302 0.35033 0.40598 0.0
C1427 C 0.90432 0.31425 0.43003 0.0
Co1428 Co 0.65046 0.93441 0.41651 0.0
Co1429 Co 0.6559 0.90755 0.44827 0.0
C1430 C 0.65373 0.94858 0.45332 0.0
O1431 O 0.65082 0.95164 0.43668 0.0
O1432 O 0.65622 0.93254 0.45905 0.0
C1433 C 0.65932 0.95707 0.38791 0.0
O1434 O 0.67428 0.95855 0.39733 0.0
C1435 C 0.64132 0.89516 0.4815 0.0
C1436 C 0.65707 0.87094 0.48889 0.0
C1437 C 0.64338 0.88226 0.49485 0.0
N1438 N 0.65334 0.89191 0.4684 0.0
N1439 N 0.66272 0.87735 0.47275 0.0
C1440 C 0.62755 0.90999 0.48061 0.0
H1441 H 0.62454 0.91353 0.46638 0.0
H1442 H 0.61489 0.90592 0.48754 0.0
H1443 H 0.63298 0.92221 0.48733 0.0
C1444 C 0.61881 0.91163 0.40983 0.0
N1445 N 0.6332 0.91633 0.41978 0.0
N1446 N 0.63573 0.90433 0.43262 0.0
C1447 C 0.62297 0.8914 0.43114 0.0
C1448 C 0.61191 0.89559 0.41659 0.0
C1449 C 0.6119 0.92242 0.39419 0.0
H1450 H 0.613 0.93705 0.39722 0.0
H1451 H 0.59761 0.91909 0.39112 0.0
H1452 H 0.6203 0.91951 0.38213 0.0
O1453 O 0.67388 0.92311 0.41337 0.0
O1454 O 0.67878 0.90287 0.43487 0.0
H1455 H 0.61419 0.86396 0.4359 0.0
H1456 H 0.61597 0.87802 0.4557 0.0
C1457 C 0.62227 0.87471 0.44251 0.0
H1458 H 0.63614 0.86967 0.44505 0.0
H1459 H 0.67308 0.87194 0.46487 0.0
O1460 O 0.64647 0.94745 0.39394 0.0
C1461 C 0.68368 0.91102 0.42051 0.0
Co1462 Co 0.06076 0.64506 0.42057 0.0
Co1463 Co 0.08853 0.6508 0.45146 0.0
C1464 C 0.04786 0.64841 0.45807 0.0
O1465 O 0.04459 0.64573 0.44143 0.0
O1466 O 0.06401 0.65076 0.46368 0.0
C1467 C 0.03702 0.65402 0.39318 0.0
O1468 O 0.03584 0.66872 0.40305 0.0
C1469 C 0.10699 0.6369 0.4829 0.0
C1470 C 0.12833 0.6571 0.48807 0.0
C1471 C 0.12105 0.64109 0.4945 0.0
N1472 N 0.10616 0.64962 0.47005 0.0
N1473 N 0.11903 0.6616 0.47307 0.0
C1474 C 0.09341 0.62204 0.48492 0.0
H1475 H 0.08248 0.62334 0.47477 0.0
H1476 H 0.10006 0.60877 0.48299 0.0
H1477 H 0.08761 0.62229 0.49875 0.0
C1478 C 0.08341 0.61368 0.41304 0.0
N1479 N 0.079 0.62793 0.42332 0.0
N1480 N 0.09147 0.63048 0.43571 0.0
C1481 C 0.10451 0.6179 0.43346 0.0
C1482 C 0.09977 0.6069 0.41902 0.0
C1483 C 0.07213 0.6069 0.39769 0.0
H1484 H 0.05762 0.60761 0.40136 0.0
H1485 H 0.07563 0.59277 0.39412 0.0
H1486 H 0.07435 0.61566 0.38573 0.0
O1487 O 0.07158 0.66847 0.4165 0.0
O1488 O 0.09202 0.67371 0.43765 0.0
H1489 H 0.13264 0.61051 0.43564 0.0
H1490 H 0.12009 0.61002 0.45641 0.0
C1491 C 0.122 0.61749 0.44358 0.0
H1492 H 0.12648 0.63141 0.44674 0.0
H1493 H 0.12118 0.67308 0.46517 0.0
O1494 O 0.04678 0.64098 0.39859 0.0
C1495 C 0.08361 0.67846 0.42341 0.0
Co1496 Co 0.34789 0.05914 0.42706 0.0
Co1497 Co 0.34118 0.08667 0.45802 0.0
C1498 C 0.34425 0.046 0.46441 0.0
O1499 O 0.3472 0.04289 0.44779 0.0
O1500 O 0.34153 0.06206 0.47009 0.0
C1501 C 0.3394 0.03547 0.39961 0.0
O1502 O 0.32462 0.03435 0.40937 0.0
C1503 C 0.35536 0.10521 0.48925 0.0
C1504 C 0.33505 0.12632 0.49494 0.0
C1505 C 0.35134 0.11928 0.50091 0.0
N1506 N 0.34227 0.10417 0.47677 0.0
N1507 N 0.33019 0.11688 0.48013 0.0
C1508 C 0.37055 0.09192 0.49073 0.0
H1509 H 0.37151 0.0868 0.50479 0.0
H1510 H 0.36864 0.0805 0.48126 0.0
H1511 H 0.38349 0.09863 0.48738 0.0
C1512 C 0.37865 0.08251 0.41977 0.0
N1513 N 0.36464 0.07759 0.43012 0.0
N1514 N 0.36157 0.09006 0.44241 0.0
C1515 C 0.37356 0.10362 0.43998 0.0
C1516 C 0.38472 0.09919 0.42558 0.0
C1517 C 0.38553 0.07167 0.40414 0.0
H1518 H 0.37636 0.07359 0.39244 0.0
H1519 H 0.38558 0.05712 0.40769 0.0
H1520 H 0.39937 0.07587 0.40023 0.0
O1521 O 0.32449 0.06982 0.42273 0.0
O1522 O 0.31829 0.0899 0.44398 0.0
H1523 H 0.35887 0.12515 0.45276 0.0
H1524 H 0.37938 0.13215 0.44144 0.0
C1525 C 0.37302 0.12135 0.44966 0.0
H1526 H 0.38061 0.1202 0.4625 0.0
H1527 H 0.31849 0.1189 0.47253 0.0
O1528 O 0.35239 0.04524 0.4051 0.0
C1529 C 0.31409 0.08158 0.4295 0.0
Co1530 Co 0.0681 0.33672 0.58269 0.0
Co1531 Co 0.09264 0.33335 0.54876 0.0
C1532 C 0.05143 0.33385 0.5467 0.0
O1533 O 0.04961 0.336 0.56363 0.0
O1534 O 0.06705 0.33233 0.53963 0.0
C1535 C 0.04454 0.32864 0.61075 0.0
O1536 O 0.04234 0.31405 0.6009 0.0
C1537 C 0.10229 0.34793 0.51442 0.0
C1538 C 0.12788 0.33459 0.50689 0.0
C1539 C 0.11513 0.34694 0.50087 0.0
N1540 N 0.10697 0.33657 0.5277 0.0
N1541 N 0.12232 0.3286 0.52321 0.0
C1542 C 0.08642 0.36046 0.51553 0.0
H1543 H 0.08286 0.36321 0.52982 0.0
H1544 H 0.08935 0.3734 0.50856 0.0
H1545 H 0.07459 0.35407 0.50896 0.0
C1546 C 0.08822 0.37036 0.58717 0.0
N1547 N 0.08505 0.35485 0.57839 0.0
N1548 N 0.09604 0.3535 0.5645 0.0
C1549 C 0.10683 0.36822 0.5642 0.0
C1550 C 0.10211 0.37934 0.5785 0.0
C1551 C 0.07758 0.37668 0.60317 0.0
H1552 H 0.07898 0.3667 0.61425 0.0
H1553 H 0.06306 0.3774 0.5995 0.0
H1554 H 0.08221 0.39007 0.60805 0.0
O1555 O 0.08019 0.3136 0.58482 0.0
O1556 O 0.09856 0.31024 0.56136 0.0
H1557 H 0.12785 0.35953 0.54623 0.0
H1558 H 0.13068 0.38219 0.55502 0.0
C1559 C 0.12073 0.37212 0.55008 0.0
H1560 H 0.11401 0.37775 0.53794 0.0
H1561 H 0.12896 0.31911 0.53124 0.0
O1562 O 0.05557 0.34068 0.60554 0.0
C1563 C 0.09187 0.3045 0.57618 0.0
Co1564 Co 0.65105 0.06846 0.57604 0.0
Co1565 Co 0.65273 0.09522 0.54371 0.0
C1566 C 0.6524 0.05414 0.53909 0.0
O1567 O 0.65094 0.05108 0.55592 0.0
O1568 O 0.65347 0.07025 0.53312 0.0
C1569 C 0.66286 0.04569 0.6034 0.0
O1570 O 0.67713 0.0451 0.59287 0.0
C1571 C 0.6356 0.10629 0.51108 0.0
C1572 C 0.65031 0.13059 0.50207 0.0
C1573 C 0.63673 0.11867 0.4971 0.0
N1574 N 0.64805 0.11041 0.52353 0.0
N1575 N 0.65677 0.12506 0.51822 0.0
C1576 C 0.6225 0.09098 0.51305 0.0
H1577 H 0.62011 0.08796 0.52751 0.0
H1578 H 0.60948 0.09424 0.50637 0.0
H1579 H 0.62822 0.07869 0.5067 0.0
C1580 C 0.61849 0.0892 0.58459 0.0
N1581 N 0.63268 0.08558 0.57392 0.0
N1582 N 0.63355 0.09756 0.56085 0.0
C1583 C 0.61981 0.10939 0.56289 0.0
C1584 C 0.6099 0.1045 0.57807 0.0
C1585 C 0.6131 0.0778 0.6004 0.0
H1586 H 0.62174 0.0813 0.61213 0.0
H1587 H 0.61523 0.06332 0.59719 0.0
H1588 H 0.59874 0.07995 0.60409 0.0
O1589 O 0.67403 0.08086 0.57743 0.0
O1590 O 0.67665 0.10067 0.55511 0.0
H1591 H 0.62993 0.13158 0.54725 0.0
H1592 H 0.6084 0.13583 0.55812 0.0
C1593 C 0.61679 0.12554 0.55113 0.0
H1594 H 0.6097 0.12127 0.53865 0.0
H1595 H 0.66737 0.13098 0.52535 0.0
O1596 O 0.6493 0.05509 0.5987 0.0
C1597 C 0.68286 0.09305 0.56927 0.0
Co1598 Co 0.3419 0.92294 0.58484 0.0
Co1599 Co 0.34172 0.89803 0.551 0.0
C1600 C 0.34286 0.93926 0.5487 0.0
O1601 O 0.34342 0.94138 0.56573 0.0
O1602 O 0.34193 0.92353 0.54179 0.0
C1603 C 0.329 0.94481 0.61241 0.0
O1604 O 0.31518 0.94562 0.60132 0.0
C1605 C 0.35988 0.8881 0.51842 0.0
C1606 C 0.34509 0.86436 0.50812 0.0
C1607 C 0.359 0.87622 0.50397 0.0
N1608 N 0.347 0.88373 0.53034 0.0
N1609 N 0.33823 0.86942 0.52425 0.0
C1610 C 0.37314 0.9031 0.5214 0.0
H1611 H 0.37512 0.90549 0.53605 0.0
H1612 H 0.38632 0.89991 0.51499 0.0
H1613 H 0.36779 0.91574 0.51542 0.0
C1614 C 0.374 0.90146 0.59371 0.0
N1615 N 0.36016 0.90562 0.58277 0.0
N1616 N 0.3599 0.89446 0.56896 0.0
C1617 C 0.37362 0.8826 0.5708 0.0
C1618 C 0.38296 0.88663 0.58658 0.0
C1619 C 0.37896 0.91217 0.61013 0.0
H1620 H 0.37023 0.90795 0.62156 0.0
H1621 H 0.37661 0.92675 0.60761 0.0
H1622 H 0.3933 0.91011 0.61393 0.0
O1623 O 0.31859 0.91106 0.58419 0.0
O1624 O 0.31718 0.89248 0.56076 0.0
H1625 H 0.3644 0.86149 0.55322 0.0
H1626 H 0.3854 0.85659 0.56478 0.0
C1627 C 0.3773 0.8673 0.55811 0.0
H1628 H 0.38496 0.87243 0.54631 0.0
H1629 H 0.32734 0.86341 0.53085 0.0
O1630 O 0.34266 0.93534 0.60813 0.0
C1631 C 0.31011 0.89952 0.5748 0.0
H1632 H 0.10685 0.4442 0.28473 0.0
H1633 H 0.05459 0.38814 0.2127 0.0
H1634 H 0.08461 0.39164 0.29676 0.0
H1635 H 0.09613 0.42631 0.19769 0.0
H1636 H 0.06663 0.38805 0.24353 0.0
H1637 H 0.10518 0.43695 0.25248 0.0
C1638 C 0.10208 0.43099 0.28062 0.0
C1639 C 0.0954 0.41872 0.29336 0.0
C1640 C 0.07326 0.39619 0.23335 0.0
C1641 C 0.09308 0.4105 0.25675 0.0
C1642 C 0.06634 0.39628 0.2158 0.0
C1643 C 0.07409 0.40752 0.20271 0.0
C1644 C 0.0878 0.4076 0.23778 0.0
C1645 C 0.08945 0.41768 0.20742 0.0
C1646 C 0.10105 0.42686 0.26224 0.0
C1647 C 0.08944 0.40172 0.28733 0.0
N1648 N 0.09558 0.41774 0.22464 0.0
N1649 N 0.08802 0.39827 0.26943 0.0
H1650 H 0.58557 0.03999 0.20985 0.0
H1651 H 0.5818 0.11092 0.28889 0.0
H1652 H 0.59877 0.09543 0.19798 0.0
H1653 H 0.54019 0.07123 0.28015 0.0
H1654 H 0.59375 0.10457 0.25848 0.0
H1655 H 0.57647 0.04912 0.24038 0.0
C1656 C 0.58732 0.05392 0.21397 0.0
C1657 C 0.59296 0.067 0.20157 0.0
C1658 C 0.58174 0.09763 0.26312 0.0
C1659 C 0.58224 0.07752 0.23595 0.0
C1660 C 0.57474 0.10148 0.28021 0.0
C1661 C 0.55973 0.09192 0.28664 0.0
C1662 C 0.57403 0.08365 0.25295 0.0
C1663 C 0.55149 0.0792 0.27536 0.0
C1664 C 0.58178 0.05917 0.23118 0.0
C1665 C 0.59455 0.08499 0.20733 0.0
N1666 N 0.55897 0.07515 0.25915 0.0
N1667 N 0.58908 0.08981 0.22416 0.0
H1668 H 0.95229 0.58802 0.21133 0.0
H1669 H 0.88278 0.58474 0.29169 0.0
H1670 H 0.89749 0.60495 0.20137 0.0
H1671 H 0.9203 0.54174 0.2804 0.0
H1672 H 0.88912 0.59769 0.26172 0.0
H1673 H 0.94339 0.57846 0.24176 0.0
C1674 C 0.93861 0.59054 0.21589 0.0
C1675 C 0.92559 0.5973 0.204 0.0
C1676 C 0.89557 0.58518 0.26569 0.0
C1677 C 0.91527 0.58599 0.23824 0.0
C1678 C 0.89169 0.57761 0.28253 0.0
C1679 C 0.90069 0.56193 0.28815 0.0
C1680 C 0.90902 0.57731 0.25495 0.0
C1681 C 0.91275 0.55357 0.27625 0.0
C1682 C 0.93346 0.58472 0.23303 0.0
C1683 C 0.90789 0.59987 0.21032 0.0
N1684 N 0.91688 0.56158 0.26031 0.0
N1685 N 0.90314 0.59404 0.22705 0.0
H1686 H 0.45523 0.90573 0.28262 0.0
H1687 H 0.38347 0.91235 0.20364 0.0
H1688 H 0.39959 0.89211 0.29297 0.0
H1689 H 0.42636 0.95083 0.21146 0.0
H1690 H 0.39009 0.89941 0.23357 0.0
H1691 H 0.44689 0.91477 0.25188 0.0
C1692 C 0.44143 0.90384 0.27812 0.0
C1693 C 0.42804 0.8982 0.29019 0.0
C1694 C 0.39774 0.91095 0.22884 0.0
C1695 C 0.41838 0.90893 0.25557 0.0
C1696 C 0.39374 0.91853 0.21204 0.0
C1697 C 0.40405 0.93298 0.20552 0.0
C1698 C 0.41256 0.91751 0.23864 0.0
C1699 C 0.4178 0.94004 0.21638 0.0
C1700 C 0.43661 0.90936 0.26078 0.0
C1701 C 0.41025 0.89638 0.28391 0.0
N1702 N 0.42187 0.93204 0.23233 0.0
N1703 N 0.40584 0.90193 0.26701 0.0
H1704 H 0.10355 0.54931 0.70855 0.0
H1705 H 0.05267 0.6016 0.78573 0.0
H1706 H 0.07671 0.60037 0.69965 0.0
H1707 H 0.09459 0.56243 0.79659 0.0
H1708 H 0.06241 0.60242 0.75413 0.0
H1709 H 0.10225 0.55491 0.74111 0.0
C1710 C 0.09773 0.56183 0.71341 0.0
C1711 C 0.08983 0.57416 0.70144 0.0
C1712 C 0.06961 0.59385 0.76354 0.0
C1713 C 0.08803 0.5805 0.73845 0.0
C1714 C 0.06399 0.59333 0.78153 0.0
C1715 C 0.07258 0.5817 0.79373 0.0
C1716 C 0.08372 0.5825 0.75778 0.0
C1717 C 0.08733 0.5714 0.78761 0.0
C1718 C 0.09695 0.56502 0.73197 0.0
C1719 C 0.08257 0.59026 0.70844 0.0
N1720 N 0.09226 0.57184 0.77002 0.0
N1721 N 0.08153 0.5928 0.72651 0.0
H1722 H 0.44242 0.10383 0.71268 0.0
H1723 H 0.38748 0.04977 0.78504 0.0
H1724 H 0.39386 0.0744 0.69926 0.0
H1725 H 0.42121 0.09527 0.79911 0.0
H1726 H 0.38812 0.05977 0.75349 0.0
H1727 H 0.4337 0.10259 0.74457 0.0
C1728 C 0.42979 0.09745 0.71638 0.0
C1729 C 0.41911 0.08883 0.70337 0.0
C1730 C 0.39511 0.06771 0.76359 0.0
C1731 C 0.40921 0.08709 0.73964 0.0
C1732 C 0.39475 0.06198 0.78157 0.0
C1733 C 0.40464 0.07142 0.79463 0.0
C1734 C 0.40561 0.0828 0.75875 0.0
C1735 C 0.41372 0.08728 0.78941 0.0
C1736 C 0.42481 0.09671 0.73456 0.0
C1737 C 0.40277 0.08084 0.70889 0.0
N1738 N 0.41427 0.09228 0.77184 0.0
N1739 N 0.39851 0.07984 0.72664 0.0
H1740 H 0.8997 0.38582 0.79396 0.0
H1741 H 0.91607 0.4532 0.71502 0.0
H1742 H 0.95195 0.41003 0.78559 0.0
H1743 H 0.89222 0.40195 0.70121 0.0
H1744 H 0.92267 0.44152 0.74538 0.0
H1745 H 0.89132 0.39393 0.76282 0.0
C1746 C 0.90961 0.3922 0.78529 0.0
C1747 C 0.92664 0.39698 0.79206 0.0
C1748 C 0.91564 0.43302 0.73577 0.0
C1749 C 0.91677 0.4073 0.75737 0.0
C1750 C 0.91157 0.43977 0.71868 0.0
C1751 C 0.90336 0.42856 0.70589 0.0
C1752 C 0.91115 0.41512 0.74004 0.0
C1753 C 0.89832 0.41101 0.71094 0.0
C1754 C 0.90475 0.39702 0.76773 0.0
C1755 C 0.93886 0.40578 0.78064 0.0
N1756 N 0.90227 0.40476 0.72774 0.0
N1757 N 0.93352 0.41108 0.76392 0.0
H1758 H 0.57542 0.88586 0.79868 0.0
H1759 H 0.60406 0.91398 0.69936 0.0
H1760 H 0.60686 0.93341 0.78618 0.0
H1761 H 0.55585 0.88354 0.71182 0.0
H1762 H 0.61256 0.91306 0.73108 0.0
H1763 H 0.57603 0.87739 0.76696 0.0
C1764 C 0.5827 0.89443 0.78932 0.0
C1765 C 0.5907 0.91069 0.79501 0.0
C1766 C 0.6003 0.90633 0.72679 0.0
C1767 C 0.59152 0.90082 0.75875 0.0
C1768 C 0.59537 0.90682 0.70871 0.0
C1769 C 0.5789 0.89924 0.70303 0.0
C1770 C 0.58878 0.89809 0.73927 0.0
C1771 C 0.56849 0.8898 0.71567 0.0
C1772 C 0.58303 0.88951 0.77123 0.0
C1773 C 0.60028 0.92094 0.78233 0.0
N1774 N 0.57348 0.88972 0.73334 0.0
N1775 N 0.60021 0.91595 0.76466 0.0
H1776 H 0.21372 0.05038 0.38583 0.0
H1777 H 0.30413 0.06943 0.39628 0.0
H1778 H 0.20421 0.10343 0.40817 0.0
H1779 H 0.2843 0.10036 0.44165 0.0
H1780 H 0.27408 0.06989 0.38308 0.0
H1781 H 0.2462 0.05588 0.38786 0.0
C1782 C 0.21845 0.06339 0.39057 0.0
C1783 C 0.20631 0.07629 0.39719 0.0
C1784 C 0.27631 0.07657 0.3959 0.0
C1785 C 0.24326 0.08269 0.39962 0.0
C1786 C 0.29347 0.07642 0.40347 0.0
C1787 C 0.29661 0.08446 0.42041 0.0
C1788 C 0.26216 0.08479 0.40533 0.0
C1789 C 0.2824 0.09374 0.42875 0.0
C1790 C 0.237 0.06656 0.39172 0.0
C1791 C 0.21314 0.09293 0.40328 0.0
N1792 N 0.26568 0.09349 0.42118 0.0
N1793 N 0.23118 0.09547 0.4048 0.0
H1794 H 0.93944 0.21826 0.38457 0.0
H1795 H 0.91212 0.30613 0.39511 0.0
H1796 H 0.88837 0.20358 0.40863 0.0
H1797 H 0.88763 0.28361 0.44304 0.0
H1798 H 0.91251 0.27621 0.38147 0.0
H1799 H 0.93055 0.25004 0.38641 0.0
C1800 C 0.92616 0.22167 0.38967 0.0
C1801 C 0.91483 0.20834 0.39684 0.0
C1802 C 0.90691 0.27787 0.39489 0.0
C1803 C 0.90461 0.24445 0.39908 0.0
C1804 C 0.90657 0.29491 0.4027 0.0
C1805 C 0.90034 0.29723 0.42052 0.0
C1806 C 0.90094 0.26305 0.40493 0.0
C1807 C 0.89283 0.28235 0.42943 0.0
C1808 C 0.92105 0.2398 0.3907 0.0
C1809 C 0.89773 0.21349 0.40335 0.0
N1810 N 0.89358 0.26575 0.42161 0.0
N1811 N 0.89335 0.23118 0.4048 0.0
H1812 H 0.7962 0.88944 0.39703 0.0
H1813 H 0.71104 0.88867 0.43222 0.0
H1814 H 0.78126 0.94388 0.38249 0.0
H1815 H 0.69659 0.92551 0.3893 0.0
H1816 H 0.74162 0.88712 0.41985 0.0
H1817 H 0.76432 0.8813 0.39843 0.0
C1818 C 0.78618 0.89959 0.39373 0.0
C1819 C 0.79128 0.91753 0.3902 0.0
C1820 C 0.73157 0.89509 0.41283 0.0
C1821 C 0.75498 0.90839 0.39224 0.0
C1822 C 0.71417 0.8961 0.42002 0.0
C1823 C 0.70136 0.90749 0.41203 0.0
C1824 C 0.73609 0.90564 0.39766 0.0
C1825 C 0.70612 0.91681 0.39616 0.0
C1826 C 0.76803 0.89495 0.39473 0.0
C1827 C 0.77786 0.93 0.38555 0.0
N1828 N 0.72322 0.91599 0.38974 0.0
N1829 N 0.7602 0.92526 0.38705 0.0
H1830 H 0.05216 0.77882 0.38204 0.0
H1831 H 0.10652 0.70572 0.43419 0.0
H1832 H 0.10488 0.78968 0.40448 0.0
H1833 H 0.06763 0.6916 0.39301 0.0
H1834 H 0.10764 0.73637 0.42181 0.0
H1835 H 0.05886 0.74647 0.38327 0.0
C1836 C 0.0653 0.77444 0.38674 0.0
C1837 C 0.07776 0.78687 0.39365 0.0
C1838 C 0.09912 0.72642 0.41532 0.0
C1839 C 0.08535 0.75012 0.39548 0.0
C1840 C 0.09843 0.70897 0.42245 0.0
C1841 C 0.08667 0.69622 0.41492 0.0
C1842 C 0.08777 0.73109 0.4008 0.0
C1843 C 0.07662 0.7011 0.39954 0.0
C1844 C 0.06912 0.75599 0.38752 0.0
C1845 C 0.09466 0.78048 0.3995 0.0
N1846 N 0.07714 0.71824 0.3932 0.0
N1847 N 0.0978 0.76252 0.4007 0.0
H1848 H 0.28336 0.88388 0.55424 0.0
H1849 H 0.2089 0.93809 0.60596 0.0
H1850 H 0.29334 0.90846 0.60623 0.0
H1851 H 0.19575 0.89579 0.56793 0.0
H1852 H 0.23983 0.92637 0.60738 0.0
H1853 H 0.25088 0.88624 0.55997 0.0
C1854 C 0.27875 0.88935 0.56701 0.0
C1855 C 0.29103 0.8964 0.57955 0.0
C1856 C 0.23003 0.91952 0.59896 0.0
C1857 C 0.25411 0.89949 0.58601 0.0
C1858 C 0.21242 0.92625 0.59811 0.0
C1859 C 0.19983 0.91818 0.58654 0.0
C1860 C 0.23502 0.90482 0.58798 0.0
C1861 C 0.20508 0.90273 0.57678 0.0
C1862 C 0.26023 0.89077 0.57027 0.0
C1863 C 0.28432 0.90327 0.59595 0.0
N1864 N 0.22234 0.89675 0.57749 0.0
N1865 N 0.2663 0.90502 0.59854 0.0
H1866 H 0.05361 0.20539 0.6095 0.0
H1867 H 0.11026 0.27712 0.55902 0.0
H1868 H 0.09975 0.19072 0.57691 0.0
H1869 H 0.08179 0.28983 0.60836 0.0
H1870 H 0.10921 0.24516 0.56726 0.0
H1871 H 0.06558 0.23615 0.61164 0.0
C1872 C 0.06639 0.20852 0.60312 0.0
C1873 C 0.0754 0.19565 0.59259 0.0
C1874 C 0.10357 0.25502 0.57647 0.0
C1875 C 0.08902 0.23063 0.59479 0.0
C1876 C 0.10419 0.27326 0.57176 0.0
C1877 C 0.09562 0.28607 0.58273 0.0
C1878 C 0.09407 0.24969 0.59205 0.0
C1879 C 0.08811 0.28034 0.59921 0.0
C1880 C 0.07325 0.22605 0.60435 0.0
C1881 C 0.09205 0.20037 0.58475 0.0
N1882 N 0.0871 0.26251 0.60316 0.0
N1883 N 0.09812 0.21758 0.58567 0.0
H1884 H 0.78225 0.0529 0.60406 0.0
H1885 H 0.6959 0.08695 0.60299 0.0
H1886 H 0.79644 0.09859 0.57064 0.0
H1887 H 0.71201 0.10621 0.55036 0.0
H1888 H 0.72757 0.0841 0.61143 0.0
H1889 H 0.75112 0.06399 0.60502 0.0
C1890 C 0.77893 0.06543 0.59729 0.0
C1891 C 0.79189 0.07462 0.58702 0.0
C1892 C 0.72418 0.08906 0.5981 0.0
C1893 C 0.7565 0.08749 0.58814 0.0
C1894 C 0.70613 0.09088 0.59329 0.0
C1895 C 0.70137 0.09636 0.57574 0.0
C1896 C 0.73754 0.0927 0.58524 0.0
C1897 C 0.71512 0.10172 0.56392 0.0
C1898 C 0.76119 0.07186 0.59793 0.0
C1899 C 0.78684 0.09084 0.57848 0.0
N1900 N 0.73268 0.09948 0.56881 0.0
N1901 N 0.76947 0.09654 0.57892 0.0
H1902 H 0.88672 0.71353 0.5507 0.0
H1903 H 0.94042 0.78656 0.60453 0.0
H1904 H 0.91228 0.7017 0.60182 0.0
H1905 H 0.89679 0.80067 0.56841 0.0
H1906 H 0.92918 0.75544 0.60504 0.0
H1907 H 0.88849 0.74578 0.5579 0.0
C1908 C 0.89232 0.71767 0.56357 0.0
C1909 C 0.89977 0.70497 0.57544 0.0
C1910 C 0.92192 0.76548 0.59726 0.0
C1911 C 0.90215 0.74162 0.5836 0.0
C1912 C 0.92836 0.78321 0.59697 0.0
C1913 C 0.91981 0.79612 0.5861 0.0
C1914 C 0.90704 0.76071 0.58643 0.0
C1915 C 0.9041 0.79107 0.57667 0.0
C1916 C 0.89337 0.73605 0.56768 0.0
C1917 C 0.90678 0.71107 0.59202 0.0
N1918 N 0.89842 0.7737 0.57678 0.0
N1919 N 0.90816 0.72898 0.59544 0.0
H1920 H 0.38497 0.21392 0.05071 0.0
H1921 H 0.43906 0.28522 0.10563 0.0
H1922 H 0.42117 0.19855 0.09386 0.0
H1923 H 0.38793 0.29786 0.08053 0.0
H1924 H 0.43142 0.25311 0.10383 0.0
H1925 H 0.38422 0.2446 0.06301 0.0
C1926 C 0.39251 0.2169 0.06288 0.0
C1927 C 0.40347 0.20378 0.07098 0.0
C1928 C 0.42171 0.26297 0.09909 0.0
C1929 C 0.40283 0.2387 0.08499 0.0
C1930 C 0.42607 0.28129 0.10016 0.0
C1931 C 0.41436 0.29415 0.09276 0.0
C1932 C 0.4057 0.25766 0.09034 0.0
C1933 C 0.39761 0.28833 0.08594 0.0
C1934 C 0.39205 0.23437 0.06995 0.0
C1935 C 0.41283 0.20833 0.08689 0.0
N1936 N 0.39396 0.27048 0.08451 0.0
N1937 N 0.41258 0.2255 0.09316 0.0
H1938 H 0.45662 0.7143 0.91577 0.0
H1939 H 0.3864 0.7928 0.90428 0.0
H1940 H 0.4058 0.70227 0.89011 0.0
H1941 H 0.41458 0.78356 0.95434 0.0
H1942 H 0.39541 0.76251 0.89398 0.0
H1943 H 0.44509 0.74439 0.92363 0.0
C1944 C 0.44336 0.71834 0.91107 0.0
C1945 C 0.43218 0.70606 0.90209 0.0
C1946 C 0.3992 0.76701 0.90738 0.0
C1947 C 0.41883 0.73987 0.91141 0.0
C1948 C 0.39383 0.78405 0.91336 0.0
C1949 C 0.39944 0.79035 0.93031 0.0
C1950 C 0.41082 0.75671 0.91819 0.0
C1951 C 0.40964 0.77892 0.94137 0.0
C1952 C 0.43666 0.73526 0.91589 0.0
C1953 C 0.41484 0.7116 0.89681 0.0
N1954 N 0.41538 0.76274 0.93495 0.0
N1955 N 0.40861 0.72818 0.9016 0.0
H1956 H 0.29595 0.40668 0.88417 0.0
H1957 H 0.21461 0.40847 0.95282 0.0
H1958 H 0.28616 0.45114 0.9204 0.0
H1959 H 0.20477 0.3911 0.89811 0.0
H1960 H 0.2456 0.41647 0.94426 0.0
H1961 H 0.26556 0.39494 0.89091 0.0
C1962 C 0.28708 0.41431 0.89296 0.0
C1963 C 0.29316 0.43013 0.90136 0.0
C1964 C 0.23674 0.41047 0.93429 0.0
C1965 C 0.25946 0.41619 0.91013 0.0
C1966 C 0.21926 0.40557 0.93924 0.0
C1967 C 0.2073 0.3991 0.92612 0.0
C1968 C 0.24221 0.40854 0.91624 0.0
C1969 C 0.21375 0.396 0.90857 0.0
C1970 C 0.26999 0.40747 0.89703 0.0
C1971 C 0.28163 0.43918 0.91328 0.0
N1972 N 0.23083 0.40088 0.90403 0.0
N1973 N 0.26539 0.4319 0.91759 0.0
H1974 H 0.59903 0.30177 0.92358 0.0
H1975 H 0.58652 0.20204 0.88652 0.0
H1976 H 0.55658 0.28613 0.88667 0.0
H1977 H 0.60895 0.21439 0.93895 0.0
H1978 H 0.58452 0.23422 0.88004 0.0
H1979 H 0.61091 0.27122 0.92257 0.0
C1980 C 0.59227 0.29198 0.91507 0.0
C1981 C 0.57644 0.29643 0.9055 0.0
C1982 C 0.59022 0.22985 0.89279 0.0
C1983 C 0.59032 0.26147 0.9042 0.0
C1984 C 0.59143 0.21151 0.89654 0.0
C1985 C 0.59745 0.20555 0.91355 0.0
C1986 C 0.59525 0.2423 0.90605 0.0
C1987 C 0.60401 0.2184 0.92579 0.0
C1988 C 0.59916 0.27456 0.91452 0.0
C1989 C 0.56861 0.28322 0.89445 0.0
N1990 N 0.60245 0.23627 0.9219 0.0
N1991 N 0.57554 0.26621 0.89426 0.0
H1992 H 0.78587 0.60591 0.94016 0.0
H1993 H 0.69765 0.6002 0.91198 0.0
H1994 H 0.79865 0.57254 0.89398 0.0
H1995 H 0.71504 0.54823 0.89198 0.0
H1996 H 0.72898 0.61011 0.91286 0.0
H1997 H 0.7541 0.60521 0.9312 0.0
C1998 C 0.78208 0.59882 0.92793 0.0
C1999 C 0.79487 0.58904 0.91801 0.0
C2000 C 0.72594 0.59658 0.90823 0.0
C2001 C 0.75872 0.58827 0.90758 0.0
C2002 C 0.70807 0.59091 0.90756 0.0
C2003 C 0.70382 0.57314 0.90238 0.0
C2004 C 0.73964 0.58435 0.90375 0.0
C2005 C 0.71777 0.56192 0.89631 0.0
C2006 C 0.76396 0.59851 0.92273 0.0
C2007 C 0.78921 0.58004 0.90225 0.0
N2008 N 0.73517 0.56765 0.89741 0.0
N2009 N 0.7715 0.57956 0.89775 0.0
H2010 H 0.60267 0.7832 0.05595 0.0
H2011 H 0.54893 0.70743 0.10729 0.0
H2012 H 0.56557 0.79503 0.09946 0.0
H2013 H 0.59876 0.69688 0.07878 0.0
H2014 H 0.55577 0.73976 0.10623 0.0
H2015 H 0.60255 0.75146 0.06519 0.0
C2016 C 0.5947 0.77919 0.06754 0.0
C2017 C 0.58388 0.79172 0.07671 0.0
C2018 C 0.56534 0.73029 0.10049 0.0
C2019 C 0.58354 0.75558 0.08725 0.0
C2020 C 0.56144 0.71186 0.10113 0.0
C2021 C 0.57306 0.6995 0.09276 0.0
C2022 C 0.58082 0.73627 0.09124 0.0
C2023 C 0.58917 0.70597 0.08506 0.0
C2024 C 0.59466 0.76111 0.07285 0.0
C2025 C 0.5739 0.78581 0.09177 0.0
N2026 N 0.59241 0.72394 0.08419 0.0
N2027 N 0.57376 0.76812 0.09638 0.0
H2028 H 0.30124 0.60538 0.07483 0.0
H2029 H 0.21364 0.6088 0.04373 0.0
H2030 H 0.28324 0.55513 0.09835 0.0
H2031 H 0.19981 0.57894 0.09193 0.0
H2032 H 0.24521 0.60879 0.05343 0.0
H2033 H 0.26996 0.61498 0.07188 0.0
C2034 C 0.2907 0.59641 0.07955 0.0
C2035 C 0.29481 0.57917 0.0864 0.0
C2036 C 0.23517 0.60273 0.06215 0.0
C2037 C 0.25903 0.59003 0.08271 0.0
C2038 C 0.21716 0.60266 0.05653 0.0
C2039 C 0.20415 0.5936 0.06685 0.0
C2040 C 0.24005 0.59363 0.07812 0.0
C2041 C 0.20945 0.58581 0.08335 0.0
C2042 C 0.27285 0.60189 0.07771 0.0
C2043 C 0.28065 0.56838 0.09276 0.0
N2044 N 0.22705 0.58568 0.08828 0.0
N2045 N 0.2633 0.57392 0.09054 0.0
H2046 H 0.78675 0.38785 0.05901 0.0
H2047 H 0.71396 0.44341 0.11092 0.0
H2048 H 0.80079 0.42298 0.10348 0.0
H2049 H 0.70137 0.39252 0.08531 0.0
H2050 H 0.74601 0.43526 0.11011 0.0
H2051 H 0.75534 0.38817 0.06945 0.0
C2052 C 0.78331 0.39538 0.07108 0.0
C2053 C 0.79632 0.40571 0.08011 0.0
C2054 C 0.73615 0.42574 0.10502 0.0
C2055 C 0.7606 0.4063 0.09199 0.0
C2056 C 0.71787 0.43038 0.10554 0.0
C2057 C 0.70506 0.41886 0.09776 0.0
C2058 C 0.74149 0.40963 0.09644 0.0
C2059 C 0.71086 0.40205 0.09104 0.0
C2060 C 0.76542 0.39554 0.07707 0.0
C2061 C 0.79114 0.41511 0.09581 0.0
N2062 N 0.72869 0.39812 0.09016 0.0
N2063 N 0.77364 0.41546 0.10104 0.0
H2064 H 0.98862 0.55323 0.14797 0.0
H2065 H 0.99403 0.4452 0.15564 0.0
H2066 H 0.94124 0.51953 0.15238 0.0
H2067 H 0.04012 0.48042 0.1496 0.0
H2068 H 0.9742 0.47182 0.15452 0.0
H2069 H 0.00744 0.52627 0.1484 0.0
C2070 C 0.98214 0.54016 0.14898 0.0
C2071 C 0.96327 0.53872 0.15015 0.0
C2072 C 0.98867 0.47365 0.15343 0.0
C2073 C 0.98489 0.50758 0.15074 0.0
C2074 C -1e-05 0.45847 0.15411 0.0
C2075 C 0.01881 0.46051 0.15274 0.0
C2076 C 0.99622 0.49097 0.1514 0.0
C2077 C 0.02574 0.47807 0.1507 0.0
C2078 C 0.99293 0.52471 0.14924 0.0
C2079 C 0.95572 0.52132 0.15143 0.0
N2080 N 0.01449 0.49253 0.15012 0.0
N2081 N 0.96655 0.50644 0.15174 0.0
H2082 H 0.55381 -0.00269 0.14673 0.0
H2083 H 0.44545 0.99457 0.14591 0.0
H2084 H 0.51983 0.04472 0.14566 0.0
H2085 H 0.47869 0.94667 0.14762 0.0
H2086 H 0.47273 0.013 0.14453 0.0
H2087 H 0.52666 0.97839 0.14587 0.0
C2088 C 0.54068 0.00375 0.14626 0.0
C2089 C 0.53916 0.02267 0.14633 0.0
C2090 C 0.47408 -0.00155 0.14515 0.0
C2091 C 0.50801 0.00107 0.14535 0.0
C2092 C 0.45847 0.98789 0.14593 0.0
C2093 C 0.45971 0.969 0.14695 0.0
C2094 C 0.49115 0.99012 0.14543 0.0
C2095 C 0.47703 0.96117 0.14687 0.0
C2096 C 0.52518 0.99294 0.14578 0.0
C2097 C 0.52175 0.03022 0.14568 0.0
N2098 N 0.49204 0.97176 0.14619 0.0
N2099 N 0.50692 0.01943 0.14526 0.0
H2100 H 0.94395 0.47139 0.84586 0.0
H2101 H 0.04473 0.50973 0.85343 0.0
H2102 H 0.99137 0.43785 0.85127 0.0
H2103 H -0.00171 0.54397 0.84484 0.0
H2104 H 0.02498 0.48355 0.85426 0.0
H2105 H 0.96319 0.49819 0.84698 0.0
C2106 C 0.9584 0.46963 0.84735 0.0
C2107 C 0.96604 0.45227 0.84841 0.0
C2108 C 0.01905 0.49676 0.85222 0.0
C2109 C 0.98815 0.48301 0.84969 0.0
C2110 C 0.03035 0.5118 0.85177 0.0
C2111 C 0.02321 0.52918 0.84898 0.0
C2112 C 0.00038 0.49896 0.84989 0.0
C2113 C 0.00442 0.53087 0.84697 0.0
C2114 C 0.96937 0.48497 0.84796 0.0
C2115 C 0.98485 0.45091 0.85032 0.0
N2116 N 0.99366 0.51594 0.84741 0.0
N2117 N 0.99523 0.46605 0.85087 0.0
H2118 H 0.549 0.98406 0.84402 0.0
H2119 H 0.44114 0.9946 0.84512 0.0
H2120 H 0.5126 0.9386 0.84688 0.0
H2121 H 0.47853 0.03931 0.84712 0.0
H2122 H 0.46688 0.9737 0.84507 0.0
H2123 H 0.52307 0.00438 0.84439 0.0
C2124 C 0.53557 0.97832 0.84474 0.0
C2125 C 0.53304 0.95955 0.84545 0.0
C2126 C 0.4694 0.9881 0.84555 0.0
C2127 C 0.50315 0.98284 0.84582 0.0
C2128 C 0.45472 3e-05 0.84556 0.0
C2129 C 0.45762 0.01877 0.84612 0.0
C2130 C 0.48711 0.99495 0.84602 0.0
C2131 C 0.47555 0.025 0.84671 0.0
C2132 C 0.52073 0.98996 0.84496 0.0
C2133 C 0.51524 0.95296 0.84634 0.0
N2134 N 0.48954 0.01316 0.8466 0.0
N2135 N 0.501 0.96458 0.84647 0.0
H2136 H 0.1546 0.05373 0.47718 0.0
H2137 H 0.14955 0.9511 0.51093 0.0
H2138 H 0.15528 0.00755 0.44157 0.0
H2139 H 0.1535 0.99634 0.54753 0.0
H2140 H 0.15072 0.97188 0.48551 0.0
H2141 H 0.15346 0.03327 0.50311 0.0
C2142 C 0.15451 0.0393 0.47478 0.0
C2143 C 0.15498 0.03239 0.45709 0.0
C2144 C 0.15134 0.97731 0.49908 0.0
C2145 C 0.15363 0.00887 0.4868 0.0
C2146 C 0.15063 0.96543 0.51367 0.0
C2147 C 0.15143 0.97193 0.53149 0.0
C2148 C 0.15281 0.99595 0.50219 0.0
C2149 C 0.15287 0.99069 0.53406 0.0
C2150 C 0.15386 0.02763 0.48962 0.0
C2151 C 0.15485 0.01355 0.45489 0.0
N2152 N 0.1535 0.00203 0.51958 0.0
N2153 N 0.15416 0.0025 0.46954 0.0
H2154 H 0.99594 0.15349 0.54924 0.0
H2155 H 0.98788 0.16241 0.44146 0.0
H2156 H 0.04156 0.15386 0.51289 0.0
H2157 H 0.94169 0.1571 0.47668 0.0
H2158 H 0.00765 0.16091 0.4678 0.0
H2159 H 0.97573 0.15633 0.52314 0.0
C2160 C 0.00172 0.1542 0.53582 0.0
C2161 C 0.02051 0.15339 0.53331 0.0
C2162 C 0.99319 0.16009 0.46978 0.0
C2163 C -0.00255 0.15667 0.50338 0.0
C2164 C 0.98186 0.16095 0.45471 0.0
C2165 C 0.96305 0.15977 0.45678 0.0
C2166 C 0.9857 0.1581 0.48713 0.0
C2167 C 0.9561 0.15801 0.47438 0.0
C2168 C 0.99017 0.1558 0.52092 0.0
C2169 C 0.02719 0.15435 0.51555 0.0
N2170 N 0.96741 0.1572 0.48884 0.0
N2171 N 0.0157 0.15594 0.50134 0.0
H2172 H 0.8405 0.04388 0.50991 0.0
H2173 H 0.83739 0.9421 0.47356 0.0
H2174 H 0.83812 -0.0024 0.54531 0.0
H2175 H 0.83638 0.9891 0.43905 0.0
H2176 H 0.83769 0.96192 0.49997 0.0
H2177 H 0.83924 0.02379 0.48395 0.0
C2178 C 0.83973 0.02947 0.51227 0.0
C2179 C 0.83944 0.02246 0.52991 0.0
C2180 C 0.83737 0.96789 0.48662 0.0
C2181 C 0.83796 -0.00076 0.49999 0.0
C2182 C 0.83719 0.95658 0.4715 0.0
C2183 C 0.83694 0.96391 0.45397 0.0
C2184 C 0.83733 0.9867 0.48427 0.0
C2185 C 0.83665 0.98279 0.45223 0.0
C2186 C 0.83897 0.01798 0.49737 0.0
C2187 C 0.83837 0.00363 0.53199 0.0
N2188 N 0.83691 0.9935 0.46716 0.0
N2189 N 0.8377 0.99267 0.51721 0.0
H2190 H -0.00106 0.84081 0.54732 0.0
H2191 H 0.00771 0.83579 0.43934 0.0
H2192 H 0.95387 0.84391 0.51043 0.0
H2193 H 0.05389 0.83757 0.47492 0.0
H2194 H 0.98788 0.8375 0.46558 0.0
H2195 H 0.01942 0.83852 0.52133 0.0
C2196 C 0.99334 0.84102 0.5338 0.0
C2197 C 0.97462 0.84257 0.53112 0.0
C2198 C 0.00235 0.83751 0.46768 0.0
C2199 C -0.00204 0.8399 0.50133 0.0
C2200 C 0.01372 0.83653 0.45266 0.0
C2201 C 0.03255 0.83663 0.45485 0.0
C2202 C 0.0098 0.83854 0.48512 0.0
C2203 C 0.03947 0.8375 0.47253 0.0
C2204 C 0.00504 0.83972 0.51897 0.0
C2205 C 0.96816 0.84278 0.51325 0.0
N2206 N 0.02811 0.83843 0.48697 0.0
N2207 N 0.97978 0.84144 0.49912 0.0
H2208 H 0.51703 0.15697 0.93651 0.0
H2209 H 0.47924 0.15598 0.03782 0.0
H2210 H 0.55089 0.15794 0.98399 0.0
H2211 H 0.44453 0.15905 0.99104 0.0
H2212 H 0.50548 0.15638 0.01806 0.0
H2213 H 0.49035 0.15745 0.95596 0.0
C2214 C 0.51889 0.15729 0.95102 0.0
C2215 C 0.53631 0.15736 0.95859 0.0
C2216 C 0.49215 0.157 0.01207 0.0
C2217 C 0.5057 0.1579 0.98096 0.0
C2218 C 0.47709 0.15675 0.02336 0.0
C2219 C 0.45956 0.15746 0.01612 0.0
C2220 C 0.48981 0.15791 0.99328 0.0
C2221 C 0.45776 0.15851 -0.00275 0.0
C2222 C 0.50361 0.15758 0.96212 0.0
C2223 C 0.53779 0.15782 0.9775 0.0
N2224 N 0.47269 0.15865 0.98648 0.0
N2225 N 0.52272 0.15803 0.98799 0.0
H2226 H 0.47306 0.84537 0.94838 0.0
H2227 H 0.51152 0.85013 0.04935 0.0
H2228 H 0.4394 0.84881 0.99591 0.0
H2229 H 0.5456 0.84324 0.00251 0.0
H2230 H 0.4852 0.85122 0.02971 0.0
H2231 H 0.49981 0.84614 0.96768 0.0
C2232 C 0.47125 0.84636 0.96287 0.0
C2233 C 0.45387 0.84697 0.97051 0.0
C2234 C 0.49842 0.8495 0.02369 0.0
C2235 C 0.48459 0.84783 0.99271 0.0
C2236 C 0.51352 0.84889 0.03491 0.0
C2237 C 0.5309 0.84652 0.02762 0.0
C2238 C 0.50055 0.84775 0.00493 0.0
C2239 C 0.53251 0.84502 0.00877 0.0
C2240 C 0.48658 0.84677 0.97388 0.0
C2241 C 0.45248 0.84825 0.98938 0.0
N2242 N 0.51753 0.84563 -0.00192 0.0
N2243 N 0.46761 0.8486 -0.00019 0.0
H2244 H 0.15387 0.47678 0.93873 0.0
H2245 H 0.15093 0.5181 0.03868 0.0
H2246 H 0.1504 0.44502 0.98752 0.0
H2247 H 0.15512 0.55145 0.99101 0.0
H2248 H 0.1501 0.49142 0.01968 0.0
H2249 H 0.15362 0.50431 0.95711 0.0
C2250 C 0.15298 0.47556 0.95328 0.0
C2251 C 0.15219 0.45848 0.96156 0.0
C2252 C 0.15119 0.50453 0.01329 0.0
C2253 C 0.15194 0.49 0.98267 0.0
C2254 C 0.15167 0.51987 0.02418 0.0
C2255 C 0.15314 0.53716 0.01649 0.0
C2256 C 0.15218 0.50631 0.99445 0.0
C2257 C 0.15403 0.53842 -0.00244 0.0
C2258 C 0.15287 0.49131 0.96376 0.0
C2259 C 0.15107 0.45781 0.98048 0.0
N2260 N 0.15355 0.5232 0.98718 0.0
N2261 N 0.15102 0.4733 0.99034 0.0
H2262 H 0.84748 0.51445 0.94721 0.0
H2263 H 0.84901 0.48008 0.04965 0.0
H2264 H 0.84594 0.55026 0.99324 0.0
H2265 H 0.84575 0.44421 0.00376 0.0
H2266 H 0.84899 0.50583 0.02918 0.0
H2267 H 0.84793 0.48866 0.96766 0.0
C2268 C 0.84726 0.51693 0.96163 0.0
C2269 C 0.84666 0.53463 0.96848 0.0
C2270 C 0.84827 0.49234 0.02356 0.0
C2271 C 0.84717 0.50497 0.99204 0.0
C2272 C 0.84832 0.47757 0.03525 0.0
C2273 C 0.84736 0.45987 0.02845 0.0
C2274 C 0.84733 0.4895 0.00485 0.0
C2275 C 0.84646 0.45758 0.00964 0.0
C2276 C 0.84749 0.50214 0.9733 0.0
C2277 C 0.84636 0.5369 0.98732 0.0
N2278 N 0.84648 0.47222 -0.00149 0.0
N2279 N 0.84664 0.52225 -0.00158 0.0
H2280 H 0.44702 0.01267 0.65133 0.0
H2281 H 0.54909 0.97729 0.6551 0.0
H2282 H 0.49328 0.04804 0.65434 0.0
H2283 H 0.50282 0.94182 0.65397 0.0
H2284 H 0.52887 0.00324 0.65459 0.0
H2285 H 0.46721 0.98667 0.65192 0.0
C2286 C 0.46144 0.01502 0.65208 0.0
C2287 C 0.46843 0.03266 0.65279 0.0
C2288 C 0.52311 0.9898 0.65447 0.0
C2289 C 0.4917 0.00274 0.65351 0.0
C2290 C 0.53466 0.97491 0.65476 0.0
C2291 C 0.52768 0.95726 0.65458 0.0
C2292 C 0.50436 0.98713 0.65396 0.0
C2293 C 0.50884 0.95514 0.65416 0.0
C2294 C 0.47297 0.0001 0.65245 0.0
C2295 C 0.48725 0.03473 0.65379 0.0
N2296 N 0.49785 0.96989 0.65384 0.0
N2297 N 0.49821 0.01997 0.65411 0.0
H2298 H 0.93946 0.49931 0.64961 0.0
H2299 H 0.04752 0.50685 0.64697 0.0
H2300 H 0.97542 0.4534 0.64813 0.0
H2301 H 0.01215 0.55323 0.64717 0.0
H2302 H 0.0211 0.48716 0.6467 0.0
H2303 H 0.96572 0.51937 0.64804 0.0
C2304 C 0.95284 0.49343 0.64891 0.0
C2305 C 0.95518 0.4746 0.64907 0.0
C2306 C 0.0191 0.50164 0.64675 0.0
C2307 C 0.98532 0.49751 0.64729 0.0
C2308 C 0.03421 0.51292 0.64691 0.0
C2309 C 0.03212 0.53177 0.64714 0.0
C2310 C 0.00168 0.5092 0.64688 0.0
C2311 C 0.01447 0.5388 0.64702 0.0
C2312 C 0.96784 0.5049 0.64801 0.0
C2313 C 0.97288 0.4678 0.64808 0.0
N2314 N -5e-05 0.52752 0.64695 0.0
N2315 N 0.98722 0.47922 0.64729 0.0
H2316 H 0.49455 0.94121 0.34551 0.0
H2317 H 0.49556 0.0497 0.34456 0.0
H2318 H 0.44633 0.97401 0.34425 0.0
H2319 H 0.54366 0.01674 0.34322 0.0
H2320 H 0.47728 0.02217 0.3459 0.0
H2321 H 0.51277 0.96878 0.34609 0.0
C2322 C 0.48777 0.95418 0.34539 0.0
C2323 C 0.46885 0.95522 0.34476 0.0
C2324 C 0.49184 0.02098 0.34536 0.0
C2325 C 0.48967 0.98692 0.34543 0.0
C2326 C 0.5023 0.03671 0.34461 0.0
C2327 C 0.52121 0.03561 0.3437 0.0
C2328 C 0.50033 0.00398 0.34523 0.0
C2329 C 0.52915 0.01834 0.34385 0.0
C2330 C 0.49819 0.96994 0.34572 0.0
C2331 C 0.46087 0.97247 0.34469 0.0
N2332 N 0.51869 0.00326 0.34455 0.0
N2333 N 0.47129 0.98758 0.34498 0.0
H2334 H 0.01706 0.44338 0.34446 0.0
H2335 H 0.97748 0.54397 0.34184 0.0
H2336 H 0.05073 0.49098 0.34351 0.0
H2337 H 0.94417 0.49618 0.3443 0.0
H2338 H 0.00435 0.52493 0.34271 0.0
H2339 H 0.99037 0.46258 0.34461 0.0
C2340 C 0.01889 0.45789 0.34429 0.0
C2341 C 0.03628 0.46553 0.34394 0.0
C2342 C 0.99118 0.51859 0.3431 0.0
C2343 C 0.0055 0.48771 0.34409 0.0
C2344 C 0.97577 0.52947 0.34261 0.0
C2345 C 0.95843 0.5217 0.34296 0.0
C2346 C 0.98936 0.49974 0.34392 0.0
C2347 C 0.95719 0.5028 0.34397 0.0
C2348 C 0.00357 0.46887 0.34438 0.0
C2349 C 0.03765 0.48445 0.34375 0.0
N2350 N 0.97243 0.4925 0.34437 0.0
N2351 N 0.02248 0.49488 0.3438 0.0
H2352 H 0.65345 0.54579 0.98019 0.0
H2353 H 0.65694 0.445 0.01912 0.0
H2354 H 0.65653 0.49833 0.94641 0.0
H2355 H 0.65529 0.49249 0.05295 0.0
H2356 H 0.65669 0.46429 0.99247 0.0
H2357 H 0.65394 0.52651 0.00686 0.0
C2358 C 0.65422 0.5313 0.97833 0.0
C2359 C 0.65495 0.52371 0.96093 0.0
C2360 C 0.6564 0.47053 0.0057 0.0
C2361 C 0.65553 0.50147 0.99164 0.0
C2362 C 0.65653 0.4595 0.02099 0.0
C2363 C 0.65613 0.4671 0.03841 0.0
C2364 C 0.65583 0.48936 0.00771 0.0
C2365 C 0.65564 0.48601 0.03985 0.0
C2366 C 0.65452 0.52029 0.99364 0.0
C2367 C 0.65596 0.50482 0.9595 0.0
N2368 N 0.65548 0.49647 0.02471 0.0
N2369 N 0.65621 0.49437 0.97465 0.0
H2370 H 0.45011 0.64973 0.9764 0.0
H2371 H 0.55005 0.64398 0.01726 0.0
H2372 H 0.49841 0.64785 0.94376 0.0
H2373 H 0.50216 0.64788 0.05034 0.0
H2374 H 0.53118 0.64413 0.99035 0.0
H2375 H 0.46874 0.64786 0.00354 0.0
C2376 C 0.46464 0.64887 0.97489 0.0
C2377 C 0.47268 0.649 0.95768 0.0
C2378 C 0.52476 0.64492 0.00347 0.0
C2379 C 0.49413 0.64686 0.98888 0.0
C2380 C 0.53554 0.64482 0.01892 0.0
C2381 C 0.52773 0.64598 0.0362 0.0
C2382 C 0.50593 0.64619 0.00517 0.0
C2383 C 0.50882 0.647 0.03734 0.0
C2384 C 0.47527 0.64782 0.99045 0.0
C2385 C 0.49159 0.64785 0.95669 0.0
N2386 N 0.49857 0.64712 0.02205 0.0
N2387 N 0.50164 0.64686 0.97205 0.0
H2388 H 0.35098 0.55016 0.01363 0.0
H2389 H 0.34783 0.449 0.9756 0.0
H2390 H 0.34495 0.5033 0.04784 0.0
H2391 H 0.3505 0.49633 0.94162 0.0
H2392 H 0.34817 0.46846 0.00221 0.0
H2393 H 0.35213 0.53048 0.98732 0.0
C2394 C 0.34992 0.53571 0.01566 0.0
C2395 C 0.34781 0.52842 0.03307 0.0
C2396 C 0.34872 0.47459 0.98895 0.0
C2397 C 0.34914 0.5057 0.00275 0.0
C2398 C 0.34857 0.46348 0.9737 0.0
C2399 C 0.34909 0.47101 0.95626 0.0
C2400 C 0.34943 0.49341 0.98684 0.0
C2401 C 0.35002 0.48989 0.95474 0.0
C2402 C 0.35057 0.52446 0.00056 0.0
C2403 C 0.34653 0.50956 0.03472 0.0
N2404 N 0.35013 0.50042 0.96981 0.0
N2405 N 0.3472 0.49886 0.01976 0.0
H2406 H 0.43932 0.3453 0.01407 0.0
H2407 H 0.54197 0.34645 0.98016 0.0
H2408 H 0.48555 0.34416 0.04961 0.0
H2409 H 0.49663 0.34332 0.94359 0.0
H2410 H 0.52119 0.34633 0.00556 0.0
H2411 H 0.45973 0.34528 0.98808 0.0
C2412 C 0.45375 0.34506 0.01644 0.0
C2413 C 0.46069 0.34475 0.03412 0.0
C2414 C 0.51573 0.34565 0.99201 0.0
C2415 C 0.48415 0.34472 0.00434 0.0
C2416 C 0.52761 0.34575 0.97742 0.0
C2417 C 0.52108 0.3449 0.95961 0.0
C2418 C 0.49706 0.34476 0.98892 0.0
C2419 C 0.5023 0.34396 0.95705 0.0
C2420 C 0.46539 0.34502 0.00157 0.0
C2421 C 0.47953 0.34441 0.03628 0.0
N2422 N 0.49094 0.34395 0.97155 0.0
N2423 N 0.49056 0.34443 0.0216 0.0
H2424 H 0.97786 0.65113 0.55264 0.0
H2425 H 0.01188 0.64705 0.45004 0.0
H2426 H 0.9425 0.65275 0.50629 0.0
H2427 H 0.04844 0.65103 0.49531 0.0
H2428 H 0.98647 0.64802 0.47081 0.0
H2429 H 0.00389 0.65007 0.53227 0.0
C2430 C 0.97553 0.65124 0.5382 0.0
C2431 C 0.95789 0.652 0.53121 0.0
C2432 C 2e-05 0.6487 0.47626 0.0
C2433 C 0.9877 0.65077 0.5078 0.0
C2434 C 0.01461 0.64811 0.46438 0.0
C2435 C 0.03242 0.64897 0.47089 0.0
C2436 C 0.00311 0.65009 0.49491 0.0
C2437 C 0.03498 0.65037 0.48965 0.0
C2438 C 0.99043 0.65066 0.52658 0.0
C2439 C 0.95578 0.65214 0.51235 0.0
N2440 N 0.02049 0.65087 0.50101 0.0
N2441 N 0.97047 0.6515 0.50136 0.0
H2442 H 0.01586 0.33633 0.557 0.0
H2443 H 0.97864 0.33794 0.45558 0.0
H2444 H 0.04963 0.33072 0.50977 0.0
H2445 H 0.94356 0.33793 0.50218 0.0
H2446 H 0.00465 0.33545 0.47546 0.0
H2447 H 0.98925 0.33697 0.53746 0.0
C2448 C 0.01772 0.3352 0.54253 0.0
C2449 C 0.0351 0.33358 0.53504 0.0
C2450 C 0.99129 0.33594 0.48139 0.0
C2451 C 0.00458 0.33436 0.51257 0.0
C2452 C 0.97636 0.3374 0.47002 0.0
C2453 C 0.9588 0.33821 0.47719 0.0
C2454 C 0.98879 0.33536 0.50017 0.0
C2455 C 0.95682 0.33734 0.49604 0.0
C2456 C 0.00248 0.33555 0.53138 0.0
C2457 C 0.03657 0.3321 0.51619 0.0
N2458 N 0.97164 0.33605 0.50689 0.0
N2459 N 0.02155 0.3326 0.50564 0.0
H2460 H 0.65345 0.05516 0.50201 0.0
H2461 H 0.65697 0.94755 0.49032 0.0
H2462 H 0.65249 0.01788 0.54686 0.0
H2463 H 0.65112 0.98476 0.44578 0.0
H2464 H 0.65685 0.97314 0.51121 0.0
H2465 H 0.65406 0.02955 0.48121 0.0
C2466 C 0.65335 0.04161 0.50751 0.0
C2467 C 0.65285 0.03872 0.52626 0.0
C2468 C 0.65559 0.9757 0.49687 0.0
C2469 C 0.65364 0.00926 0.50243 0.0
C2470 C 0.65567 0.96108 0.48491 0.0
C2471 C 0.654 0.96395 0.46622 0.0
C2472 C 0.65392 0.99337 0.49013 0.0
C2473 C 0.6524 0.98184 0.46005 0.0
C2474 C 0.6537 0.02697 0.4956 0.0
C2475 C 0.65281 0.0208 0.53253 0.0
N2476 N 0.65242 0.99582 0.47195 0.0
N2477 N 0.65322 0.00678 0.52066 0.0
H2478 H 0.34321 0.97515 0.55834 0.0
H2479 H 0.34638 0.01014 0.45607 0.0
H2480 H 0.34309 0.94017 0.51166 0.0
H2481 H 0.3415 0.04622 0.50165 0.0
H2482 H 0.3461 0.98455 0.4766 0.0
H2483 H 0.34347 0.00137 0.53821 0.0
C2484 C 0.34327 0.97295 0.54388 0.0
C2485 C 0.34316 0.95535 0.53672 0.0
C2486 C 0.34507 -0.00196 0.48217 0.0
C2487 C 0.34345 0.98539 0.5136 0.0
C2488 C 0.34526 0.01273 0.47043 0.0
C2489 C 0.34396 0.03045 0.4771 0.0
C2490 C 0.34364 0.00093 0.50085 0.0
C2491 C 0.34249 0.03282 0.49588 0.0
C2492 C 0.34339 0.98795 0.5324 0.0
C2493 C 0.3432 0.95341 0.51785 0.0
N2494 N 0.3424 0.01823 0.50711 0.0
N2495 N 0.34337 0.96821 0.50699 0.0
H2496 H 0.17725 0.51042 0.0989 0.0
H2497 H 0.10393 0.4887 0.17411 0.0
H2498 H 0.14022 0.54935 0.12157 0.0
H2499 H 0.12346 0.45058 0.13452 0.0
H2500 H 0.1269 0.51028 0.16408 0.0
H2501 H 0.16718 0.48834 0.12138 0.0
C2502 C 0.16737 0.51446 0.10891 0.0
C2503 C 0.15912 0.53148 0.10814 0.0
C2504 C 0.12639 0.49701 0.15795 0.0
C2505 C 0.1478 0.50654 0.13375 0.0
C2506 C 0.11332 0.48473 0.16361 0.0
C2507 C 0.11153 0.46812 0.15471 0.0
C2508 C 0.13775 0.49247 0.14347 0.0
C2509 C 0.12413 0.46349 0.14137 0.0
C2510 C 0.16166 0.50188 0.12169 0.0
C2511 C 0.14654 0.53615 0.12148 0.0
N2512 N 0.13659 0.47574 0.13594 0.0
N2513 N 0.14103 0.52362 0.13362 0.0
H2514 H 0.54916 0.12789 0.13948 0.0
H2515 H 0.4478 0.13379 0.11924 0.0
H2516 H 0.50988 0.10069 0.17286 0.0
H2517 H 0.48441 0.17625 0.10332 0.0
H2518 H 0.46946 0.12407 0.14205 0.0
H2519 H 0.52571 0.14867 0.12933 0.0
C2520 C 0.53565 0.12656 0.14495 0.0
C2521 C 0.53128 0.11234 0.15664 0.0
C2522 C 0.47261 0.13578 0.13387 0.0
C2523 C 0.5044 0.13576 0.14489 0.0
C2524 C 0.4603 0.14124 0.12076 0.0
C2525 C 0.46458 0.15553 0.10913 0.0
C2526 C 0.48945 0.1444 0.13498 0.0
C2527 C 0.48076 0.16496 0.11186 0.0
C2528 C 0.52229 0.13846 0.13923 0.0
C2529 C 0.51371 0.11134 0.1636 0.0
N2530 N 0.49285 0.15894 0.12424 0.0
N2531 N 0.50074 0.12262 0.15723 0.0
H2532 H 0.85853 0.55394 0.14573 0.0
H2533 H 0.86091 0.45234 0.13331 0.0
H2534 H 0.88458 0.51938 0.18478 0.0
H2535 H 0.81734 0.48433 0.11144 0.0
H2536 H 0.86624 0.47569 0.15592 0.0
H2537 H 0.83913 0.52885 0.13693 0.0
C2538 C 0.8598 0.54118 0.15279 0.0
C2539 C 0.87349 0.53849 0.16557 0.0
C2540 C 0.85521 0.47742 0.14648 0.0
C2541 C 0.85177 0.50971 0.15531 0.0
C2542 C 0.85228 0.46416 0.13348 0.0
C2543 C 0.83904 0.46672 0.1202 0.0
C2544 C 0.84514 0.4935 0.14583 0.0
C2545 C 0.82795 0.48204 0.12123 0.0
C2546 C 0.8487 0.52686 0.14781 0.0
C2547 C 0.87441 0.52186 0.17457 0.0
N2548 N 0.83156 0.49512 0.13354 0.0
N2549 N 0.86406 0.50787 0.16886 0.0
H2550 H 0.44126 0.86396 0.14678 0.0
H2551 H 0.54234 0.85771 0.13279 0.0
H2552 H 0.47857 0.88772 0.18471 0.0
H2553 H 0.50636 0.81707 0.11155 0.0
H2554 H 0.52006 0.86488 0.15595 0.0
H2555 H 0.46441 0.84226 0.13804 0.0
C2556 C 0.4542 0.86427 0.1536 0.0
C2557 C 0.45828 0.87794 0.16602 0.0
C2558 C 0.5172 0.85406 0.14653 0.0
C2559 C 0.48489 0.85355 0.15584 0.0
C2560 C 0.52986 0.85008 0.13322 0.0
C2561 C 0.52588 0.8372 0.11995 0.0
C2562 C 0.50031 0.84544 0.14619 0.0
C2563 C 0.50975 0.82739 0.12133 0.0
C2564 C 0.46741 0.85185 0.14867 0.0
C2565 C 0.47506 0.87759 0.17476 0.0
N2566 N 0.49729 0.83206 0.13393 0.0
N2567 N 0.48801 0.86593 0.16908 0.0
H2568 H 0.10585 0.50418 0.81598 0.0
H2569 H 0.18517 0.47636 0.88205 0.0
H2570 H 0.12856 0.53807 0.85765 0.0
H2571 H 0.14746 0.43923 0.85763 0.0
H2572 H 0.1739 0.50027 0.86224 0.0
H2573 H 0.13018 0.48238 0.82095 0.0
C2574 C 0.11616 0.50721 0.82591 0.0
C2575 C 0.11494 0.52263 0.83685 0.0
C2576 C 0.16853 0.48673 0.86084 0.0
C2577 C 0.14275 0.49799 0.84233 0.0
C2578 C 0.17498 0.47307 0.87208 0.0
C2579 C 0.16676 0.45602 0.87181 0.0
C2580 C 0.15393 0.48313 0.84931 0.0
C2581 C 0.15377 0.4524 0.85855 0.0
C2582 C 0.13004 0.49481 0.82866 0.0
C2583 C 0.12877 0.52607 0.84929 0.0
N2584 N 0.14746 0.46598 0.84803 0.0
N2585 N 0.142 0.51367 0.8519 0.0
H2586 H 0.5139 0.18237 0.87792 0.0
H2587 H 0.48455 0.10169 0.81399 0.0
H2588 H 0.55047 0.14371 0.85412 0.0
H2589 H 0.4516 0.12508 0.85605 0.0
H2590 H 0.50661 0.12591 0.81833 0.0
H2591 H 0.48958 0.17049 0.85896 0.0
C2592 C 0.51696 0.17182 0.86826 0.0
C2593 C 0.534 0.16357 0.86791 0.0
C2594 C 0.49432 0.12593 0.82626 0.0
C2595 C 0.50645 0.15008 0.84636 0.0
C2596 C 0.48178 0.11212 0.82387 0.0
C2597 C 0.46655 0.11114 0.83509 0.0
C2598 C 0.49146 0.13883 0.83984 0.0
C2599 C 0.46345 0.12511 0.84748 0.0
C2600 C 0.50308 0.16504 0.85751 0.0
C2601 C 0.53733 0.15007 0.85508 0.0
N2602 N 0.47596 0.13828 0.84972 0.0
N2603 N 0.52355 0.14348 0.845 0.0
H2604 H 0.88778 0.47528 0.81355 0.0
H2605 H 0.81697 0.50906 0.88651 0.0
H2606 H 0.86184 0.44116 0.85307 0.0
H2607 H 0.8598 0.54154 0.86392 0.0
H2608 H 0.82397 0.48529 0.86465 0.0
H2609 H 0.86776 0.50005 0.82233 0.0
C2610 C 0.87752 0.47283 0.82369 0.0
C2611 C 0.87677 0.45638 0.83303 0.0
C2612 C 0.8315 0.49782 0.86423 0.0
C2613 C 0.85394 0.48446 0.84296 0.0
C2614 C 0.82756 0.51137 0.87668 0.0
C2615 C 0.83821 0.52701 0.87732 0.0
C2616 C 0.84605 0.5001 0.85233 0.0
C2617 C 0.85159 0.52944 0.86415 0.0
C2618 C 0.86614 0.48697 0.82869 0.0
C2619 C 0.86312 0.45384 0.8459 0.0
N2620 N 0.85533 0.51596 0.85233 0.0
N2621 N 0.85241 0.46788 0.85073 0.0
H2622 H 0.54343 0.85437 0.85803 0.0
H2623 H 0.4415 0.851 0.86562 0.0
H2624 H 0.5095 0.87729 0.81654 0.0
H2625 H 0.47479 0.80967 0.88975 0.0
H2626 H 0.46543 0.8571 0.84384 0.0
H2627 H 0.519 0.83392 0.86628 0.0
C2628 C 0.53095 0.85479 0.8504 0.0
C2629 C 0.52822 0.86784 0.83698 0.0
C2630 C 0.46734 0.84635 0.85357 0.0
C2631 C 0.50017 0.84481 0.84651 0.0
C2632 C 0.45372 0.84296 0.86607 0.0
C2633 C 0.45646 0.83022 0.87979 0.0
C2634 C 0.48392 0.83728 0.8552 0.0
C2635 C 0.47232 0.81989 0.87958 0.0
C2636 C 0.51703 0.84305 0.85503 0.0
C2637 C 0.51198 0.86763 0.82724 0.0
N2638 N 0.48573 0.824 0.86779 0.0
N2639 N 0.49832 0.85665 0.83256 0.0
H2640 H 0.18427 0.11162 0.48212 0.0
H2641 H 0.10667 0.17974 0.5103 0.0
H2642 H 0.14822 0.13831 0.4449 0.0
H2643 H 0.12618 0.13539 0.54274 0.0
H2644 H 0.13148 0.17459 0.48902 0.0
H2645 H 0.17294 0.13099 0.5064 0.0
C2646 C 0.17445 0.12199 0.47892 0.0
C2647 C 0.1667 0.12307 0.46169 0.0
C2648 C 0.13055 0.16633 0.50106 0.0
C2649 C 0.15383 0.14507 0.48919 0.0
C2650 C 0.11641 0.16919 0.51315 0.0
C2651 C 0.11414 0.15759 0.52793 0.0
C2652 C 0.14249 0.15191 0.50397 0.0
C2653 C 0.12721 0.1443 0.53118 0.0
C2654 C 0.16798 0.13297 0.49278 0.0
C2655 C 0.15415 0.13679 0.45818 0.0
N2656 N 0.14073 0.14164 0.51912 0.0
N2657 N 0.14781 0.14707 0.47194 0.0
H2658 H 0.81201 0.10722 0.5064 0.0
H2659 H 0.88083 0.18495 0.48051 0.0
H2660 H 0.85378 0.12819 0.54125 0.0
H2661 H 0.85752 0.14706 0.44286 0.0
H2662 H 0.86009 0.174 0.50382 0.0
H2663 H 0.81829 0.13151 0.48485 0.0
C2664 C 0.82219 0.11718 0.50971 0.0
C2665 C 0.83282 0.11545 0.52529 0.0
C2666 C 0.85917 0.16853 0.49028 0.0
C2667 C 0.83978 0.1432 0.501 0.0
C2668 C 0.87095 0.17476 0.47699 0.0
C2669 C 0.87117 0.16644 0.45999 0.0
C2670 C 0.84757 0.15407 0.48636 0.0
C2671 C 0.85803 0.15343 0.45602 0.0
C2672 C 0.82571 0.13103 0.49746 0.0
C2673 C 0.84566 0.12881 0.5291 0.0
N2674 N 0.84693 0.14739 0.46924 0.0
N2675 N 0.84898 0.14202 0.51687 0.0
H2676 H 0.8892 0.81579 0.50558 0.0
H2677 H 0.81183 0.88426 0.47752 0.0
H2678 H 0.86892 0.8592 0.53882 0.0
H2679 H 0.84869 0.85855 0.4404 0.0
H2680 H 0.82294 0.86455 0.50163 0.0
H2681 H 0.86484 0.82147 0.48395 0.0
C2682 C 0.8794 0.82625 0.50851 0.0
C2683 C 0.88133 0.83745 0.52366 0.0
C2684 C 0.82814 0.86286 0.48806 0.0
C2685 C 0.85347 0.84372 0.49928 0.0
C2686 C 0.8218 0.87404 0.4743 0.0
C2687 C 0.82981 0.87331 0.45717 0.0
C2688 C 0.84241 0.85091 0.48446 0.0
C2689 C 0.84255 0.85979 0.45362 0.0
C2690 C 0.8655 0.82941 0.49622 0.0
C2691 C 0.86815 0.85062 0.527 0.0
N2692 N 0.84873 0.84929 0.46728 0.0
N2693 N 0.85489 0.85358 0.51474 0.0
H2694 H 0.13625 0.86608 0.54133 0.0
H2695 H 0.13871 0.84453 0.44133 0.0
H2696 H 0.17957 0.88533 0.50741 0.0
H2697 H 0.1125 0.80895 0.47929 0.0
H2698 H 0.15821 0.85545 0.46547 0.0
H2699 H 0.13109 0.84139 0.52018 0.0
C2700 C 0.14484 0.86493 0.52954 0.0
C2701 C 0.15797 0.87802 0.52576 0.0
C2702 C 0.1486 0.84485 0.46846 0.0
C2703 C 0.15208 0.84998 0.50148 0.0
C2704 C 0.13744 0.83866 0.45468 0.0
C2705 C 0.1237 0.82626 0.45853 0.0
C2706 C 0.14551 0.83899 0.48623 0.0
C2707 C 0.12276 0.8188 0.4759 0.0
C2708 C 0.14203 0.85074 0.51755 0.0
C2709 C 0.16904 0.8757 0.51058 0.0
N2710 N 0.13315 0.82572 0.48931 0.0
N2711 N 0.16553 0.8622 0.4987 0.0
H2712 H 0.60929 0.98354 0.68211 0.0
H2713 H 0.68176 0.01464 0.60961 0.0
H2714 H 0.63288 0.94909 0.6414 0.0
H2715 H 0.64041 0.04889 0.63236 0.0
H2716 H 0.67375 0.99112 0.63143 0.0
H2717 H 0.6307 0.00734 0.67384 0.0
C2718 C 0.61929 0.98082 0.67179 0.0
C2719 C 0.61904 0.9646 0.66201 0.0
C2720 C 0.66682 0.004 0.63194 0.0
C2721 C 0.64349 0.9915 0.65274 0.0
C2722 C 0.67136 0.0174 0.61953 0.0
C2723 C 0.66132 0.03344 0.61891 0.0
C2724 C 0.65232 0.00685 0.64379 0.0
C2725 C 0.64812 0.03646 0.63214 0.0
C2726 C 0.63148 0.99437 0.66711 0.0
C2727 C 0.63237 0.96164 0.64891 0.0
N2728 N 0.64378 0.02313 0.6439 0.0
N2729 N 0.64392 0.97511 0.64444 0.0
H2730 H 0.94395 0.64374 0.63665 0.0
H2731 H 0.04538 0.63748 0.64231 0.0
H2732 H 0.97779 0.68556 0.61425 0.0
H2733 H 0.0116 0.61334 0.68322 0.0
H2734 H 0.02155 0.65929 0.63597 0.0
H2735 H 0.9678 0.63636 0.65811 0.0
C2736 C 0.95627 0.65164 0.63656 0.0
C2737 C 0.9592 0.66486 0.62335 0.0
C2738 C 0.01951 0.64957 0.6467 0.0
C2739 C 0.9866 0.65631 0.64753 0.0
C2740 C 0.03308 0.63705 0.65024 0.0
C2741 C 0.03016 0.62329 0.66288 0.0
C2742 C 0.00279 0.64789 0.6555 0.0
C2743 C 0.0142 0.62353 0.67307 0.0
C2744 C 0.96985 0.64752 0.64887 0.0
C2745 C 0.97518 0.67498 0.624 0.0
N2746 N 0.00083 0.63531 0.66877 0.0
N2747 N 0.98856 0.67013 0.63555 0.0
H2748 H 0.31066 0.97645 0.61702 0.0
H2749 H 0.38609 0.00985 0.685 0.0
H2750 H 0.3508 0.9423 0.64196 0.0
H2751 H 0.36304 0.04164 0.64189 0.0
H2752 H 0.36315 0.98668 0.67968 0.0
H2753 H 0.31973 0.00112 0.63704 0.0
C2754 C 0.32096 0.97396 0.62711 0.0
C2755 C 0.33045 0.95758 0.62751 0.0
C2756 C 0.36286 -0.00103 0.67176 0.0
C2757 C 0.3407 0.98552 0.65031 0.0
C2758 C 0.37593 0.01216 0.67472 0.0
C2759 C 0.37674 0.02735 0.66344 0.0
C2760 C 0.35052 0.00116 0.65755 0.0
C2761 C 0.36315 0.02984 0.65052 0.0
C2762 C 0.32611 0.98803 0.63849 0.0
C2763 C 0.34352 0.95495 0.64094 0.0
N2764 N 0.35072 0.01669 0.64772 0.0
N2765 N 0.34853 0.96894 0.65163 0.0
H2766 H 0.94682 0.36891 0.64278 0.0
H2767 H 0.04915 0.35291 0.63801 0.0
H2768 H 0.98322 0.39313 0.68134 0.0
H2769 H 0.01119 0.31412 0.61678 0.0
H2770 H 0.02548 0.36497 0.65749 0.0
H2771 H 0.96954 0.34599 0.63619 0.0
C2772 C 0.95951 0.36921 0.65007 0.0
C2773 C 0.96337 0.38315 0.66228 0.0
C2774 C 0.02242 0.35351 0.64893 0.0
C2775 C 0.98945 0.35716 0.65469 0.0
C2776 C 0.03592 0.34667 0.63778 0.0
C2777 C 0.03194 0.33283 0.6255 0.0
C2778 C 0.00478 0.34673 0.64739 0.0
C2779 C 0.01471 0.32501 0.62588 0.0
C2780 C 0.97243 0.35606 0.64641 0.0
C2781 C 0.97985 0.38276 0.6716 0.0
N2782 N 0.00157 0.33241 0.63631 0.0
N2783 N 0.99249 0.37021 0.66729 0.0
H2784 H 0.67742 0.9876 0.37785 0.0
H2785 H 0.60009 0.01133 0.3078 0.0
H2786 H 0.63501 0.95138 0.36092 0.0
H2787 H 0.62686 0.04977 0.34249 0.0
H2788 H 0.62243 0.98853 0.31646 0.0
H2789 H 0.66817 0.00885 0.35425 0.0
C2790 C 0.66647 0.98392 0.36887 0.0
C2791 C 0.65655 0.96804 0.37162 0.0
C2792 C 0.62369 0.00213 0.32171 0.0
C2793 C 0.64616 0.99202 0.34469 0.0
C2794 C 0.611 0.01513 0.31678 0.0
C2795 C 0.61139 0.03221 0.32493 0.0
C2796 C 0.63681 0.00641 0.33471 0.0
C2797 C 0.62586 0.03654 0.33633 0.0
C2798 C 0.66125 0.99601 0.35542 0.0
C2799 C 0.64265 0.96377 0.35952 0.0
N2800 N 0.63785 0.02359 0.34116 0.0
N2801 N 0.63766 0.97585 0.34671 0.0
H2802 H 0.00744 0.67366 0.38317 0.0
H2803 H 0.98287 0.60045 0.30925 0.0
H2804 H 0.04219 0.63026 0.36557 0.0
H2805 H 0.94443 0.62772 0.34355 0.0
H2806 H 0.00623 0.62158 0.31929 0.0
H2807 H 0.98667 0.66655 0.35843 0.0
C2808 C 0.01089 0.6629 0.37387 0.0
C2809 C 0.02618 0.6521 0.37669 0.0
C2810 C 0.99253 0.62326 0.32413 0.0
C2811 C 0.00279 0.64418 0.34843 0.0
C2812 C 0.97921 0.61127 0.3184 0.0
C2813 C 0.96194 0.61208 0.3261 0.0
C2814 C 0.98837 0.63607 0.33748 0.0
C2815 C 0.95779 0.6264 0.33774 0.0
C2816 C -0.00091 0.65893 0.35976 0.0
C2817 C 0.03022 0.63853 0.36413 0.0
N2818 N 0.97104 0.63768 0.34338 0.0
N2819 N 0.01841 0.63476 0.35067 0.0
H2820 H 0.31934 0.00631 0.38928 0.0
H2821 H 0.39166 0.98065 0.31466 0.0
H2822 H 0.36377 0.04008 0.3724 0.0
H2823 H 0.36352 0.94236 0.34841 0.0
H2824 H 0.37159 0.00451 0.32564 0.0
H2825 H 0.3262 0.98555 0.36448 0.0
C2826 C 0.33029 0.00954 0.38014 0.0
C2827 C 0.3414 0.02457 0.38317 0.0
C2828 C 0.36949 0.99076 0.33017 0.0
C2829 C 0.34903 0.00117 0.35481 0.0
C2830 C 0.38087 0.97715 0.3239 0.0
C2831 C 0.37951 0.95971 0.33112 0.0
C2832 C 0.35671 0.98673 0.34357 0.0
C2833 C 0.36525 0.95581 0.34292 0.0
C2834 C 0.33413 -0.00225 0.36599 0.0
C2835 C 0.35522 0.02832 0.3708 0.0
N2836 N 0.35456 0.96933 0.34907 0.0
N2837 N 0.35883 0.01652 0.35728 0.0
H2838 H 0.04733 0.35977 0.35181 0.0
H2839 H 0.94755 0.36158 0.37296 0.0
H2840 H 0.00984 0.38702 0.31649 0.0
H2841 H 0.98058 0.31645 0.38938 0.0
H2842 H 0.96888 0.36797 0.3487 0.0
H2843 H 0.02303 0.34 0.3619 0.0
C2844 C 0.03404 0.36125 0.34585 0.0
C2845 C 0.03037 0.3753 0.33374 0.0
C2846 C 0.97125 0.35638 0.3573 0.0
C2847 C 0.00252 0.35314 0.34546 0.0
C2848 C 0.95917 0.35286 0.37125 0.0
C2849 C 0.96267 0.33882 0.38344 0.0
C2850 C 0.98714 0.34611 0.35593 0.0
C2851 C 0.97764 0.32763 0.38044 0.0
C2852 C 0.02019 0.34992 0.35153 0.0
C2853 C 0.01309 0.37651 0.32612 0.0
N2854 N 0.98964 0.33182 0.36724 0.0
N2855 N -0.00041 0.36591 0.33254 0.0
H2856 H 0.64068 0.62869 0.9476 0.0
H2857 H 0.63296 0.63788 0.0488 0.0
H2858 H 0.6823 0.60785 0.98269 0.0
H2859 H 0.60932 0.67764 0.01334 0.0
H2860 H 0.65495 0.63054 0.02542 0.0
H2861 H 0.63263 0.6507 0.97073 0.0
C2862 C 0.64837 0.62903 0.96006 0.0
C2863 C 0.66177 0.61615 0.96355 0.0
C2864 C 0.64529 0.64124 0.0229 0.0
C2865 C 0.65249 0.64097 0.99009 0.0
C2866 C 0.63267 0.64533 0.03621 0.0
C2867 C 0.61903 0.65795 0.03271 0.0
C2868 C 0.64384 0.64947 0.00587 0.0
C2869 C 0.61943 0.66753 0.01638 0.0
C2870 C 0.64387 0.64167 0.97321 0.0
C2871 C 0.67161 0.61736 0.97967 0.0
N2872 N 0.63132 0.66271 0.0033 0.0
N2873 N 0.66641 0.62923 0.99263 0.0
H2874 H 0.39315 0.68412 0.97973 0.0
H2875 H 0.31973 0.61206 0.00903 0.0
H2876 H 0.36794 0.64562 0.94394 0.0
H2877 H 0.36196 0.63283 0.04345 0.0
H2878 H 0.32771 0.63459 0.98623 0.0
H2879 H 0.37173 0.67562 0.00341 0.0
C2880 C 0.38277 0.67428 0.97668 0.0
C2881 C 0.3826 0.6651 0.96012 0.0
C2882 C 0.33487 0.63449 -0.00101 0.0
C2883 C 0.35819 0.65552 0.98693 0.0
C2884 C 0.33038 0.62164 0.01197 0.0
C2885 C 0.34062 0.62028 0.02785 0.0
C2886 C 0.34955 0.64603 0.00206 0.0
C2887 C 0.35409 0.63315 0.03113 0.0
C2888 C 0.37059 0.66946 0.99018 0.0
C2889 C 0.36878 0.65263 0.95675 0.0
N2890 N 0.35838 0.64536 0.01817 0.0
N2891 N 0.35727 0.64795 0.9702 0.0
H2892 H 0.37943 0.3151 0.01146 0.0
H2893 H 0.31144 0.39066 0.97793 0.0
H2894 H 0.35584 0.35632 0.04529 0.0
H2895 H 0.35303 0.36608 0.94525 0.0
H2896 H 0.31741 0.36841 0.00162 0.0
H2897 H 0.35921 0.32416 0.98694 0.0
C2898 C 0.36962 0.32568 0.01391 0.0
C2899 C 0.36962 0.3354 0.03017 0.0
C2900 C 0.32485 0.36763 0.98904 0.0
C2901 C 0.34655 0.34562 0.00239 0.0
C2902 C 0.32149 0.3803 0.97554 0.0
C2903 C 0.33219 0.38049 0.9599 0.0
C2904 C 0.33886 0.35508 0.98673 0.0
C2905 C 0.34485 0.36665 0.95736 0.0
C2906 C 0.35813 0.33082 -7e-05 0.0
C2907 C 0.35655 0.34884 0.03274 0.0
N2908 N 0.34806 0.35464 0.97081 0.0
N2909 N 0.34571 0.35379 0.01884 0.0
H2910 H 0.68241 0.38681 0.01328 0.0
H2911 H 0.60608 0.31735 0.98525 0.0
H2912 H 0.64486 0.36167 0.05008 0.0
H2913 H 0.62667 0.3602 0.9515 0.0
H2914 H 0.63018 0.32342 0.00705 0.0
H2915 H 0.67205 0.36645 0.98937 0.0
C2916 C 0.67243 0.37661 0.01647 0.0
C2917 C 0.66401 0.3762 0.03342 0.0
C2918 C 0.62965 0.33114 0.99463 0.0
C2919 C 0.65231 0.35304 0.00639 0.0
C2920 C 0.61591 0.32775 0.98224 0.0
C2921 C 0.61411 0.33872 0.96691 0.0
C2922 C 0.64165 0.34545 0.99149 0.0
C2923 C 0.62732 0.35181 0.96347 0.0
C2924 C 0.66653 0.36505 0.00285 0.0
C2925 C 0.65129 0.36267 0.03698 0.0
N2926 N 0.64042 0.35502 0.97584 0.0
N2927 N 0.64556 0.35179 0.02344 0.0
H2928 H 0.08839 0.36393 0.10324 0.0
H2929 H 0.11903 0.40877 0.01389 0.0
H2930 H 0.05964 0.40849 0.07937 0.0
H2931 H 0.12507 0.35103 0.01902 0.0
H2932 H 0.09868 0.40877 0.03938 0.0
H2933 H 0.10265 0.35779 0.07375 0.0
C2934 C 0.08465 0.37197 0.09161 0.0
C2935 C 0.07293 0.38669 0.0935 0.0
C2936 C 0.10414 0.39601 0.03473 0.0
C2937 C 0.08938 0.38025 0.06036 0.0
C2938 C 0.11565 0.39596 0.01994 0.0
C2939 C 0.12312 0.37974 0.01366 0.0
C2940 C 0.10052 0.37984 0.04384 0.0
C2941 C 0.11933 0.36379 0.02325 0.0
C2942 C 0.09281 0.36855 0.0749 0.0
C2943 C 0.06863 0.397 0.07828 0.0
N2944 N 0.10833 0.36423 0.038 0.0
N2945 N 0.07711 0.3938 0.06239 0.0
H2946 H 0.6457 0.1265 0.01039 0.0
H2947 H 0.58386 0.071 0.07875 0.0
H2948 H 0.58756 0.12959 0.0127 0.0
H2949 H 0.63628 0.08985 0.09551 0.0
H2950 H 0.58825 0.08549 0.04943 0.0
H2951 H 0.64525 0.10772 0.03792 0.0
C2952 C 0.63287 0.12311 0.01655 0.0
C2953 C 0.61659 0.12902 0.0088 0.0
C2954 C 0.59893 0.08624 0.0594 0.0
C2955 C 0.61602 0.10754 0.03983 0.0
C2956 C 0.59649 0.07787 0.076 0.0
C2957 C 0.60972 0.07939 0.0894 0.0
C2958 C 0.61472 0.09621 0.05618 0.0
C2959 C 0.62584 0.08844 0.08537 0.0
C2960 C 0.63265 0.1124 0.03215 0.0
C2961 C 0.60038 0.12455 0.01749 0.0
N2962 N 0.62787 0.09674 0.06906 0.0
N2963 N 0.60051 0.11395 0.03239 0.0
H2964 H 0.93156 0.61499 0.08028 0.0
H2965 H 0.83944 0.63029 0.02688 0.0
H2966 H 0.8797 0.62097 0.10603 0.0
H2967 H 0.89126 0.62422 0.00102 0.0
H2968 H 0.85466 0.63246 0.05611 0.0
H2969 H 0.91793 0.62378 0.05146 0.0
C2970 C 0.91738 0.61856 0.0799 0.0
C2971 C 0.90663 0.61706 0.0954 0.0
C2972 C 0.86273 0.63076 0.04404 0.0
C2973 C 0.89088 0.62676 0.06257 0.0
C2974 C 0.85405 0.62959 0.02735 0.0
C2975 C 0.86408 0.62636 0.01163 0.0
C2976 C 0.88158 0.62874 0.04495 0.0
C2977 C 0.88296 0.62579 0.01293 0.0
C2978 C 0.90956 0.62345 0.06345 0.0
C2979 C 0.88833 0.62169 0.09424 0.0
N2980 N 0.89111 0.62671 0.02934 0.0
N2981 N 0.88095 0.62611 0.07804 0.0
H2982 H 0.36035 0.84248 0.03351 0.0
H2983 H 0.37884 0.93587 0.08357 0.0
H2984 H 0.36589 0.89347 0.00596 0.0
H2985 H 0.37442 0.88465 0.11084 0.0
H2986 H 0.3684 0.92157 0.05564 0.0
H2987 H 0.35963 0.85852 0.06236 0.0
C2988 C 0.36125 0.85708 0.03354 0.0
C2989 C 0.36391 0.86663 0.01741 0.0
C2990 C 0.36943 0.91349 0.06779 0.0
C2991 C 0.36318 0.88507 0.05029 0.0
C2992 C 0.37526 0.92169 0.08373 0.0
C2993 C 0.37767 0.91131 0.09936 0.0
C2994 C 0.36609 0.8948 0.06754 0.0
C2995 C 0.37299 0.89299 0.09892 0.0
C2996 C 0.3609 0.86623 0.05 0.0
C2997 C 0.36475 0.88553 0.01815 0.0
N2998 N 0.36765 0.88524 0.08319 0.0
N2999 N 0.36464 0.89413 0.03435 0.0
H3000 H 0.11243 0.61132 0.88191 0.0
H3001 H 0.10823 0.63204 0.98672 0.0
H3002 H 0.06295 0.61445 0.91237 0.0
H3003 H 0.15762 0.62905 0.95612 0.0
H3004 H 0.09105 0.63256 0.9585 0.0
H3005 H 0.12868 0.62467 0.90737 0.0
C3006 C 0.10499 0.61513 0.89392 0.0
C3007 C 0.08649 0.61151 0.89534 0.0
C3008 C 0.10565 0.63209 0.95789 0.0
C3009 C 0.10487 0.62655 0.92449 0.0
C3010 C 0.11542 0.63171 0.97397 0.0
C3011 C 0.13423 0.62995 0.97357 0.0
C3012 C 0.11484 0.63053 0.94136 0.0
C3013 C 0.14306 0.63016 0.95687 0.0
C3014 C 0.11422 0.62276 0.90842 0.0
C3015 C 0.07729 0.61693 0.91093 0.0
N3016 N 0.13325 0.63005 0.94137 0.0
N3017 N 0.08665 0.62389 0.92509 0.0
H3018 H 0.36676 0.16117 0.95561 0.0
H3019 H 0.3763 0.06231 0.9145 0.0
H3020 H 0.36492 0.11235 0.98721 0.0
H3021 H 0.38198 0.11131 0.88364 0.0
H3022 H 0.36463 0.08007 0.93992 0.0
H3023 H 0.36474 0.14298 0.928 0.0
C3024 C 0.36562 0.14662 0.95668 0.0
C3025 C 0.36662 0.13811 0.97352 0.0
C3026 C 0.36813 0.08692 0.92748 0.0
C3027 C 0.36445 0.11728 0.94226 0.0
C3028 C 0.37469 0.07678 0.913 0.0
C3029 C 0.38042 0.0855 0.89724 0.0
C3030 C 0.36739 0.10586 0.92609 0.0
C3031 C 0.37805 0.10421 0.89581 0.0
C3032 C 0.36453 0.13624 0.94098 0.0
C3033 C 0.3649 0.1193 0.97435 0.0
N3034 N 0.37197 0.11383 0.91017 0.0
N3035 N 0.36419 0.10945 0.9589 0.0
H3036 H 0.84037 0.36387 0.97001 0.0
H3037 H 0.93267 0.3779 0.91639 0.0
H3038 H 0.89207 0.37086 0.99588 0.0
H3039 H 0.8809 0.3711 0.89071 0.0
H3040 H 0.91894 0.3701 0.94547 0.0
H3041 H 0.85569 0.3612 0.94088 0.0
C3042 C 0.85497 0.3647 0.96958 0.0
C3043 C 0.86492 0.36829 0.98528 0.0
C3044 C 0.91062 0.37003 0.93344 0.0
C3045 C 0.88256 0.36529 0.95204 0.0
C3046 C 0.91849 0.37435 0.91686 0.0
C3047 C 0.9078 0.37532 0.90128 0.0
C3048 C 0.89193 0.36675 0.93439 0.0
C3049 C 0.88949 0.37073 0.90254 0.0
C3050 C 0.86372 0.36322 0.95294 0.0
C3051 C 0.88381 0.36899 0.984 0.0
N3052 N 0.88206 0.36687 0.91886 0.0
N3053 N 0.89201 0.36775 0.96763 0.0
H3054 H 0.61428 0.87466 0.88941 0.0
H3055 H 0.62447 0.88678 0.9955 0.0
H3056 H 0.61121 0.92605 0.91653 0.0
H3057 H 0.62554 0.83537 0.9682 0.0
H3058 H 0.62614 0.90203 0.96628 0.0
H3059 H 0.6251 0.86081 0.91737 0.0
C3060 C 0.6162 0.88304 0.90126 0.0
C3061 C 0.6116 0.90138 0.90092 0.0
C3062 C 0.62621 0.88741 0.96666 0.0
C3063 C 0.62373 0.88573 0.9329 0.0
C3064 C 0.62506 0.87872 0.98333 0.0
C3065 C 0.62412 0.85984 0.98413 0.0
C3066 C 0.62637 0.8771 0.95074 0.0
C3067 C 0.62592 0.84998 0.96808 0.0
C3068 C 0.62237 0.87518 0.91719 0.0
C3069 C 0.61453 0.91181 0.9164 0.0
N3070 N 0.62663 0.85874 0.95199 0.0
N3071 N 0.62012 0.90376 0.93192 0.0
H3072 H 0.01628 0.14043 0.4066 0.0
H3073 H 0.10072 0.09581 0.35963 0.0
H3074 H 0.01477 0.13039 0.34923 0.0
H3075 H 0.08425 0.08434 0.41426 0.0
H3076 H 0.07121 0.11043 0.35424 0.0
H3077 H 0.04391 0.12301 0.40876 0.0
C3078 C 0.0216 0.13426 0.39447 0.0
C3079 C 0.01281 0.13616 0.37784 0.0
C3080 C 0.07401 0.10442 0.36727 0.0
C3081 C 0.04495 0.1167 0.3801 0.0
C3082 C 0.09072 0.09605 0.3703 0.0
C3083 C 0.09477 0.08907 0.38743 0.0
C3084 C 0.06166 0.10592 0.3816 0.0
C3085 C 0.08158 0.08974 0.40093 0.0
C3086 C 0.03747 0.12441 0.3957 0.0
C3087 C 0.02103 0.12891 0.36236 0.0
N3088 N 0.06571 0.09825 0.3978 0.0
N3089 N 0.03672 0.11938 0.36384 0.0
H3090 H 0.9032 0.10316 0.35873 0.0
H3091 H 0.86234 0.01721 0.40489 0.0
H3092 H 0.91782 0.08568 0.41228 0.0
H3093 H 0.87138 0.01633 0.34733 0.0
H3094 H 0.87995 0.04466 0.40709 0.0
H3095 H 0.88994 0.07311 0.35296 0.0
C3096 C 0.904 0.09282 0.36904 0.0
C3097 C 0.91141 0.09672 0.38602 0.0
C3098 C 0.87834 0.03836 0.39398 0.0
C3099 C 0.89609 0.06299 0.37979 0.0
C3100 C 0.8684 0.02254 0.39273 0.0
C3101 C 0.86612 0.01399 0.37602 0.0
C3102 C 0.88567 0.04607 0.37834 0.0
C3103 C 0.87316 0.02238 0.36052 0.0
C3104 C 0.8964 0.0758 0.3658 0.0
C3105 C 0.91207 0.0831 0.39907 0.0
N3106 N 0.88269 0.03806 0.36203 0.0
N3107 N 0.90424 0.06692 0.39579 0.0
H3108 H 0.91293 0.91782 0.41254 0.0
H3109 H 0.98262 0.86886 0.34662 0.0
H3110 H 0.89728 0.90386 0.35826 0.0
H3111 H 0.98061 0.8618 0.40443 0.0
H3112 H 0.95468 0.88699 0.34843 0.0
H3113 H 0.94251 0.90419 0.40727 0.0
C3114 C 0.91595 0.91215 0.39938 0.0
C3115 C 0.90281 0.91174 0.38584 0.0
C3116 C 0.96059 0.88158 0.36066 0.0
C3117 C 0.93631 0.89594 0.37978 0.0
C3118 C 0.97641 0.87124 0.35965 0.0
C3119 C 0.98433 0.86445 0.37549 0.0
C3120 C 0.95288 0.88511 0.37763 0.0
C3121 C 0.97562 0.86758 0.392 0.0
C3122 C 0.93271 0.90429 0.39641 0.0
C3123 C 0.90721 0.90434 0.36898 0.0
N3124 N 0.9605 0.87781 0.39264 0.0
N3125 N 0.92365 0.89649 0.36642 0.0
H3126 H 0.13117 0.98123 0.40741 0.0
H3127 H 0.09385 0.8942 0.35858 0.0
H3128 H 0.12508 0.98078 0.34947 0.0
H3129 H 0.08102 0.90862 0.41348 0.0
H3130 H 0.10635 0.92475 0.35388 0.0
H3131 H 0.11467 0.95312 0.40924 0.0
C3132 C 0.12592 0.97548 0.39507 0.0
C3133 C 0.12878 0.98382 0.37833 0.0
C3134 C 0.10051 0.92126 0.36684 0.0
C3135 C 0.11052 0.95092 0.38025 0.0
C3136 C 0.09337 0.90396 0.36947 0.0
C3137 C 0.08662 0.89906 0.38646 0.0
C3138 C 0.101 0.93343 0.3814 0.0
C3139 C 0.0863 0.91195 0.40025 0.0
C3140 C 0.11664 0.95926 0.39611 0.0
C3141 C 0.12283 0.97491 0.36267 0.0
N3142 N 0.09361 0.92848 0.39749 0.0
N3143 N 0.11393 0.95885 0.36398 0.0
H3144 H 0.0799 0.93535 0.61157 0.0
H3145 H 0.03061 0.84074 0.62639 0.0
H3146 H 0.10633 0.88361 0.60815 0.0
H3147 H 0.00275 0.89169 0.62217 0.0
H3148 H 0.05939 0.85696 0.62757 0.0
H3149 H 0.05269 0.92032 0.62306 0.0
C3150 C 0.08004 0.92086 0.61362 0.0
C3151 C 0.0951 0.91058 0.60863 0.0
C3152 C 0.04697 0.86461 0.62658 0.0
C3153 C 0.06424 0.89335 0.62154 0.0
C3154 C 0.03056 0.85537 0.62599 0.0
C3155 C 0.01442 0.86491 0.62352 0.0
C3156 C 0.04713 0.88351 0.62476 0.0
C3157 C 0.01501 0.88383 0.62327 0.0
C3158 C 0.06454 0.91228 0.62008 0.0
C3159 C 0.09476 0.8919 0.61153 0.0
N3160 N 0.03114 0.89253 0.6236 0.0
N3161 N 0.07947 0.88383 0.61758 0.0
H3162 H 0.10751 0.10488 0.60897 0.0
H3163 H 0.10298 -0.00117 0.62335 0.0
H3164 H 0.05781 0.07466 0.60939 0.0
H3165 H 0.1523 0.02969 0.62464 0.0
H3166 H 0.08566 0.02694 0.62387 0.0
H3167 H 0.12351 0.07836 0.62039 0.0
C3168 C 0.09997 0.09265 0.61174 0.0
C3169 C 0.08147 0.09169 0.60797 0.0
C3170 C 0.10026 0.02759 0.62427 0.0
C3171 C 0.09958 0.06131 0.62082 0.0
C3172 C 0.11014 0.01157 0.62382 0.0
C3173 C 0.12904 0.01207 0.6233 0.0
C3174 C 0.10942 0.0442 0.62412 0.0
C3175 C 0.1377 0.0288 0.62476 0.0
C3176 C 0.10906 0.07754 0.61827 0.0
C3177 C 0.07215 0.07576 0.61202 0.0
N3178 N 0.12782 0.04426 0.62476 0.0
N3179 N 0.08138 0.06103 0.61795 0.0
H3180 H 0.91247 0.05705 0.60915 0.0
H3181 H 0.96244 0.15087 0.62721 0.0
H3182 H 0.88631 0.10901 0.60745 0.0
H3183 H 0.99004 0.10001 0.62079 0.0
H3184 H 0.93356 0.13479 0.62743 0.0
H3185 H 0.93994 0.07162 0.62063 0.0
C3186 C 0.91246 0.07148 0.61156 0.0
C3187 C 0.89737 0.08196 0.60709 0.0
C3188 C 0.94594 0.12712 0.62614 0.0
C3189 C 0.92852 0.09868 0.62 0.0
C3190 C 0.9624 0.13628 0.62609 0.0
C3191 C 0.97852 0.12677 0.62334 0.0
C3192 C 0.94569 0.10832 0.6235 0.0
C3193 C 0.97782 0.10789 0.62216 0.0
C3194 C 0.9281 0.0798 0.618 0.0
C3195 C 0.89789 0.10057 0.61042 0.0
N3196 N 0.96163 0.09928 0.622 0.0
N3197 N 0.9133 0.1084 0.61649 0.0
H3198 H 0.89006 0.99378 0.61996 0.0
H3199 H 0.88596 0.88748 0.60783 0.0
H3200 H 0.84097 0.9627 0.62321 0.0
H3201 H 0.93565 0.91769 0.60811 0.0
H3202 H 0.86989 0.91417 0.61876 0.0
H3203 H 0.90755 0.96579 0.62068 0.0
C3204 C 0.88299 0.98103 0.62084 0.0
C3205 C 0.86407 0.98043 0.62086 0.0
C3206 C 0.88435 0.91495 0.61675 0.0
C3207 C 0.88392 0.94841 0.62198 0.0
C3208 C 0.89349 0.89973 0.61053 0.0
C3209 C 0.91201 0.90063 0.60687 0.0
C3210 C 0.89381 0.93124 0.61905 0.0
C3211 C 0.9213 0.91662 0.61071 0.0
C3212 C 0.89297 0.96506 0.62145 0.0
C3213 C 0.85556 0.96367 0.6229 0.0
N3214 N 0.91202 0.93146 0.6163 0.0
N3215 N 0.86554 0.94827 0.62305 0.0
H3216 H 0.34941 0.02262 0.12397 0.0
H3217 H 0.40421 0.08057 0.05177 0.0
H3218 H 0.40642 0.01755 0.11283 0.0
H3219 H 0.36356 0.10564 0.08498 0.0
H3220 H 0.39767 0.05151 0.06615 0.0
H3221 H 0.34828 0.04857 0.10314 0.0
C3222 C 0.36157 0.02667 0.11693 0.0
C3223 C 0.37789 0.01734 0.11965 0.0
C3224 C 0.38983 0.06328 0.06993 0.0
C3225 C 0.37653 0.0465 0.09575 0.0
C3226 C 0.39344 0.07973 0.06165 0.0
C3227 C 0.38435 0.09527 0.0673 0.0
C3228 C 0.37713 0.06249 0.08398 0.0
C3229 C 0.37071 0.09376 0.08032 0.0
C3230 C 0.36086 0.04136 0.10505 0.0
C3231 C 0.3933 0.0234 0.11045 0.0
N3232 N 0.36762 0.0776 0.08849 0.0
N3233 N 0.3922 0.03747 0.09885 0.0
H3234 H 0.37056 0.88526 0.88452 0.0
H3235 H 0.3666 0.99229 0.89325 0.0
H3236 H 0.37667 0.91379 0.93487 0.0
H3237 H 0.36173 0.96352 0.84286 0.0
H3238 H 0.36466 0.96364 0.90951 0.0
H3239 H 0.36139 0.91346 0.86993 0.0
C3240 C 0.36962 0.89747 0.89254 0.0
C3241 C 0.37456 0.89738 0.9108 0.0
C3242 C 0.36384 0.96358 0.8949 0.0
C3243 C 0.36436 0.92966 0.89428 0.0
C3244 C 0.36514 0.97992 0.88562 0.0
C3245 C 0.36502 0.98015 0.86669 0.0
C3246 C 0.36242 0.94737 0.88515 0.0
C3247 C 0.36216 0.96387 0.85748 0.0
C3248 C 0.36443 0.91355 0.88424 0.0
C3249 C 0.37299 0.9134 0.92072 0.0
N3250 N 0.36128 0.94808 0.86678 0.0
N3251 N 0.3683 0.929 0.91226 0.0
H3252 H 0.02938 0.35955 0.84282 0.0
H3253 H 0.08389 0.38033 0.93328 0.0
H3254 H 0.00419 0.36632 0.89489 0.0
H3255 H 0.10894 0.37287 0.88126 0.0
H3256 H 0.05505 0.37048 0.92047 0.0
H3257 H 0.05894 0.35948 0.8575 0.0
C3258 C 0.03008 0.36088 0.85738 0.0
C3259 C 0.01438 0.36365 0.8676 0.0
C3260 C 0.06689 0.37074 0.9119 0.0
C3261 C 0.0481 0.36367 0.8845 0.0
C3262 C 0.08336 0.37624 0.91924 0.0
C3263 C 0.09866 0.37758 0.90821 0.0
C3264 C 0.06579 0.36664 0.89339 0.0
C3265 C 0.0973 0.37228 0.8901 0.0
C3266 C 0.04695 0.3609 0.86575 0.0
C3267 C 0.016 0.36508 0.88641 0.0
N3268 N 0.08109 0.36724 0.88318 0.0
N3269 N 0.03259 0.36531 0.89425 0.0
H3270 H 0.64276 0.01081 0.86778 0.0
H3271 H 0.58011 0.08329 0.91754 0.0
H3272 H 0.58451 0.00993 0.86871 0.0
H3273 H 0.63311 0.09757 0.89831 0.0
H3274 H 0.58448 0.05264 0.90618 0.0
H3275 H 0.64201 0.03994 0.88396 0.0
C3276 C 0.62987 0.0166 0.87157 0.0
C3277 C 0.61369 0.00757 0.86753 0.0
C3278 C 0.59527 0.06238 0.9046 0.0
C3279 C 0.61276 0.04049 0.88596 0.0
C3280 C 0.59282 0.07976 0.91119 0.0
C3281 C 0.60625 0.09278 0.9087 0.0
C3282 C 0.61126 0.05801 0.89538 0.0
C3283 C 0.6225 0.08774 0.90041 0.0
C3284 C 0.62946 0.03313 0.88079 0.0
C3285 C 0.59734 0.01579 0.87239 0.0
N3286 N 0.62454 0.07068 0.89382 0.0
N3287 N 0.59732 0.03167 0.88143 0.0
H3288 H 0.88791 0.61514 0.88134 0.0
H3289 H 0.99419 0.6238 0.8903 0.0
H3290 H 0.91621 0.61349 0.93215 0.0
H3291 H 0.96543 0.62569 0.83971 0.0
H3292 H 0.96551 0.62645 0.90642 0.0
H3293 H 0.91548 0.62569 0.86656 0.0
C3294 C 0.89992 0.61736 0.88939 0.0
C3295 C 0.90004 0.6132 0.90783 0.0
C3296 C 0.96547 0.6265 0.89179 0.0
C3297 C 0.93161 0.62494 0.89112 0.0
C3298 C 0.98182 0.6248 0.8826 0.0
C3299 C 0.98203 0.62379 0.8637 0.0
C3300 C 0.94926 0.62713 0.88196 0.0
C3301 C 0.96576 0.6261 0.85433 0.0
C3302 C 0.91564 0.62336 0.881 0.0
C3303 C 0.91574 0.61647 0.91783 0.0
N3304 N 0.94997 0.62731 0.86356 0.0
N3305 N 0.93106 0.62183 0.90927 0.0
H3306 H 0.63198 0.96303 0.15375 0.0
H3307 H 0.61499 0.91078 0.06132 0.0
H3308 H 0.63046 0.98883 0.1016 0.0
H3309 H 0.61287 0.88588 0.11389 0.0
H3310 H 0.62759 0.9381 0.07513 0.0
H3311 H 0.63213 0.93353 0.1388 0.0
C3312 C 0.63195 0.96243 0.13913 0.0
C3313 C 0.63055 0.97822 0.12884 0.0
C3314 C 0.62465 0.92656 0.08362 0.0
C3315 C 0.63058 0.94473 0.11167 0.0
C3316 C 0.61756 0.91098 0.07573 0.0
C3317 C 0.61263 0.89632 0.0866 0.0
C3318 C 0.62673 0.92739 0.10248 0.0
C3319 C 0.61619 0.89713 0.10516 0.0
C3320 C 0.63196 0.94563 0.1306 0.0
C3321 C 0.63077 0.97685 0.10997 0.0
N3322 N 0.62279 0.91253 0.11258 0.0
N3323 N 0.63047 0.96035 0.10196 0.0
H3324 H 0.10196 0.63476 0.08334 0.0
H3325 H 0.01395 0.58802 0.11763 0.0
H3326 H 0.08081 0.58597 0.05979 0.0
H3327 H 0.01784 0.6461 0.12034 0.0
H3328 H 0.03986 0.58733 0.09782 0.0
H3329 H 0.07235 0.64029 0.09761 0.0
C3330 C 0.09088 0.62557 0.08076 0.0
C3331 C 0.09359 0.60991 0.0705 0.0
C3332 C 0.03488 0.6003 0.10243 0.0
C3333 C 0.06032 0.61575 0.08695 0.0
C3334 C 0.01986 0.60073 0.11363 0.0
C3335 C 0.01311 0.61722 0.11999 0.0
C3336 C 0.04371 0.61642 0.09797 0.0
C3337 C 0.02244 0.63311 0.11544 0.0
C3338 C 0.0741 0.62865 0.08893 0.0
C3339 C 0.07909 0.59818 0.06766 0.0
N3340 N 0.03738 0.63234 0.10472 0.0
N3341 N 0.06314 0.60119 0.07609 0.0
H3342 H 0.96198 0.36555 0.16189 0.0
H3343 H 0.91568 0.3767 0.06579 0.0
H3344 H 0.99092 0.36448 0.11141 0.0
H3345 H 0.8873 0.38015 0.11648 0.0
H3346 H 0.94205 0.36459 0.08176 0.0
H3347 H 0.9335 0.36309 0.14523 0.0
C3348 C 0.96229 0.36447 0.14729 0.0
C3349 C 0.97862 0.36588 0.13788 0.0
C3350 C 0.92995 0.36767 0.08937 0.0
C3351 C 0.94633 0.36325 0.11877 0.0
C3352 C 0.91492 0.37449 0.08024 0.0
C3353 C 0.8996 0.37975 0.08997 0.0
C3354 C 0.92954 0.36623 0.10832 0.0
C3355 C 0.89912 0.37661 0.10862 0.0
C3356 C 0.94608 0.36314 0.13778 0.0
C3357 C 0.97846 0.3642 0.11904 0.0
N3358 N 0.914 0.37032 0.11726 0.0
N3359 N 0.96252 0.3633 0.11004 0.0
H3360 H 0.59497 0.86175 0.60035 0.0
H3361 H 0.63654 0.9106 0.51697 0.0
H3362 H 0.5751 0.91264 0.58035 0.0
H3363 H 0.62983 0.85287 0.51317 0.0
H3364 H 0.61798 0.91082 0.54399 0.0
H3365 H 0.61035 0.85672 0.57112 0.0
C3366 C 0.59344 0.87154 0.58959 0.0
C3367 C 0.58393 0.88764 0.59255 0.0
C3368 C 0.62041 0.8981 0.53717 0.0
C3369 C 0.60163 0.88233 0.55987 0.0
C3370 C 0.63092 0.89797 0.5217 0.0
C3371 C 0.63401 0.8818 0.51241 0.0
C3372 C 0.61328 0.88187 0.54376 0.0
C3373 C 0.62741 0.86565 0.51984 0.0
C3374 C 0.60223 0.86873 0.57307 0.0
C3375 C 0.58241 0.9001 0.57847 0.0
N3376 N 0.61722 0.86606 0.53519 0.0
N3377 N 0.59145 0.89734 0.56283 0.0
H3378 H 0.12599 0.60505 0.50067 0.0
H3379 H 0.11396 0.61801 0.60659 0.0
H3380 H 0.12623 0.65681 0.52731 0.0
H3381 H 0.11145 0.56651 0.57958 0.0
H3382 H 0.1248 0.63185 0.5786 0.0
H3383 H 0.1271 0.59018 0.53011 0.0
C3384 C 0.12634 0.61326 0.51276 0.0
C3385 C 0.12537 0.63212 0.5117 0.0
C3386 C 0.12217 0.61747 0.57884 0.0
C3387 C 0.12683 0.61531 0.54534 0.0
C3388 C 0.11596 0.60961 0.59477 0.0
C3389 C 0.11157 0.59122 0.59518 0.0
C3390 C 0.12383 0.60684 0.56321 0.0
C3391 C 0.11465 0.58078 0.57972 0.0
C3392 C 0.12713 0.60479 0.52955 0.0
C3393 C 0.12671 0.6422 0.52765 0.0
N3394 N 0.12034 0.5888 0.56424 0.0
N3395 N 0.12704 0.63365 0.54388 0.0
H3396 H 0.43189 0.11293 0.58237 0.0
H3397 H 0.33679 0.12589 0.53403 0.0
H3398 H 0.38065 0.11129 0.60991 0.0
H3399 H 0.38768 0.12388 0.50584 0.0
H3400 H 0.35313 0.12798 0.56269 0.0
H3401 H 0.41658 0.12414 0.55523 0.0
C3402 C 0.41746 0.11532 0.58277 0.0
C3403 C 0.40739 0.11088 0.59814 0.0
C3404 C 0.36074 0.12728 0.55022 0.0
C3405 C 0.38979 0.12342 0.56731 0.0
C3406 C 0.35141 0.12617 0.53388 0.0
C3407 C 0.36095 0.12401 0.51769 0.0
C3408 C 0.37971 0.12626 0.55027 0.0
C3409 C 0.37986 0.12468 0.51815 0.0
C3410 C 0.40871 0.12162 0.5673 0.0
C3411 C 0.38877 0.11421 0.5981 0.0
N3412 N 0.38865 0.12545 0.53422 0.0
N3413 N 0.3805 0.12003 0.58282 0.0
H3414 H 0.86292 0.33927 0.53649 0.0
H3415 H 0.87676 0.43503 0.5839 0.0
H3416 H 0.86928 0.38939 0.50758 0.0
H3417 H 0.8761 0.38429 0.61237 0.0
H3418 H 0.86692 0.41938 0.55642 0.0
H3419 H 0.8606 0.35629 0.56478 0.0
C3420 C 0.86361 0.35388 0.53611 0.0
C3421 C 0.86696 0.36295 0.51984 0.0
C3422 C 0.86862 0.4117 0.56875 0.0
C3423 C 0.86436 0.38247 0.55199 0.0
C3424 C 0.87411 0.42065 0.58442 0.0
C3425 C 0.87747 0.41081 0.60021 0.0
C3426 C 0.86654 0.39282 0.56898 0.0
C3427 C 0.87391 0.39224 0.60029 0.0
C3428 C 0.86235 0.36359 0.55223 0.0
C3429 C 0.86751 0.38187 0.51997 0.0
N3430 N 0.86887 0.38377 0.58483 0.0
N3431 N 0.86648 0.39101 0.53584 0.0
H3432 H 0.57526 0.07969 0.40768 0.0
H3433 H 0.62306 0.14685 0.47711 0.0
H3434 H 0.58708 0.13454 0.3923 0.0
H3435 H 0.62957 0.08897 0.47672 0.0
H3436 H 0.60576 0.14455 0.44866 0.0
H3437 H 0.58961 0.08498 0.43685 0.0
C3438 C 0.58073 0.09294 0.41063 0.0
C3439 C 0.58022 0.10667 0.39768 0.0
C3440 C 0.61091 0.13241 0.45499 0.0
C3441 C 0.59682 0.11281 0.43085 0.0
C3442 C 0.62076 0.1337 0.47112 0.0
C3443 C 0.62711 0.118 0.47963 0.0
C3444 C 0.60746 0.1153 0.44755 0.0
C3445 C 0.62412 0.10133 0.4712 0.0
C3446 C 0.58899 0.09594 0.42719 0.0
C3447 C 0.58732 0.12366 0.40206 0.0
N3448 N 0.61439 0.10042 0.45576 0.0
N3449 N 0.59552 0.12628 0.41834 0.0
H3450 H 0.86061 0.58777 0.39378 0.0
H3451 H 0.90903 0.62847 0.48013 0.0
H3452 H 0.91528 0.57555 0.40948 0.0
H3453 H 0.85092 0.62554 0.47757 0.0
H3454 H 0.91101 0.61069 0.45278 0.0
H3455 H 0.85581 0.60246 0.42335 0.0
C3456 C 0.87143 0.58791 0.40363 0.0
C3457 C 0.88837 0.58063 0.39935 0.0
C3458 C 0.89778 0.61366 0.45827 0.0
C3459 C 0.88321 0.59748 0.43262 0.0
C3460 C 0.89664 0.6237 0.47405 0.0
C3461 C 0.87979 0.62782 0.48159 0.0
C3462 C 0.88194 0.60798 0.44959 0.0
C3463 C 0.86418 0.62234 0.47232 0.0
C3464 C 0.86874 0.59631 0.42038 0.0
C3465 C 0.90207 0.58116 0.41233 0.0
N3466 N 0.86561 0.61263 0.45673 0.0
N3467 N 0.89925 0.58962 0.4283 0.0
H3468 H 0.40609 0.85704 0.39792 0.0
H3469 H 0.36863 0.90643 0.4852 0.0
H3470 H 0.41829 0.91211 0.41217 0.0
H3471 H 0.37104 0.84828 0.48273 0.0
H3472 H 0.38573 0.90818 0.45744 0.0
H3473 H 0.39282 0.85257 0.42818 0.0
C3474 C 0.40625 0.86802 0.40758 0.0
C3475 C 0.4131 0.88497 0.40271 0.0
C3476 C 0.38282 0.89499 0.46304 0.0
C3477 C 0.39785 0.88017 0.4368 0.0
C3478 C 0.37319 0.89398 0.47909 0.0
C3479 C 0.36907 0.87718 0.48675 0.0
C3480 C 0.38807 0.87907 0.4542 0.0
C3481 C 0.37423 0.8615 0.47739 0.0
C3482 C 0.39866 0.86552 0.42474 0.0
C3483 C 0.41299 0.89888 0.41548 0.0
N3484 N 0.3835 0.86281 0.46153 0.0
N3485 N 0.4053 0.89623 0.43187 0.0
H3486 H 0.08622 0.35244 0.479 0.0
H3487 H 0.13354 0.40004 0.39709 0.0
H3488 H 0.14347 0.36254 0.48256 0.0
H3489 H 0.08024 0.41402 0.41578 0.0
H3490 H 0.13894 0.3839 0.42582 0.0
H3491 H 0.08474 0.37129 0.4522 0.0
C3492 C 0.09847 0.35885 0.47427 0.0
C3493 C 0.11485 0.35659 0.48343 0.0
C3494 C 0.12624 0.39085 0.4237 0.0
C3495 C 0.11337 0.37771 0.45232 0.0
C3496 C 0.12322 0.40009 0.40746 0.0
C3497 C 0.10641 0.4082 0.40424 0.0
C3498 C 0.11219 0.38959 0.43638 0.0
C3499 C 0.09332 0.40782 0.41784 0.0
C3500 C 0.09763 0.36953 0.45891 0.0
C3501 C 0.13052 0.36426 0.47599 0.0
N3502 N 0.09637 0.3984 0.43321 0.0
N3503 N 0.12942 0.37461 0.4608 0.0
H3504 H 0.61229 0.60791 0.87845 0.0
H3505 H 0.50583 0.60242 0.86717 0.0
H3506 H 0.58225 0.5582 0.88133 0.0
H3507 H 0.53645 0.65183 0.86446 0.0
H3508 H 0.534 0.58521 0.8665 0.0
H3509 H 0.58538 0.62329 0.86709 0.0
C3510 C 0.60003 0.60021 0.87634 0.0
C3511 C 0.59924 0.58193 0.88105 0.0
C3512 C 0.53458 0.59981 0.86587 0.0
C3513 C 0.5684 0.59935 0.8684 0.0
C3514 C 0.51851 0.60962 0.86648 0.0
C3515 C 0.51893 0.62854 0.86663 0.0
C3516 C 0.55114 0.60903 0.86543 0.0
C3517 C 0.53561 0.63723 0.86468 0.0
C3518 C 0.58468 0.60896 0.8699 0.0
C3519 C 0.58324 0.57239 0.87793 0.0
N3520 N 0.5511 0.62741 0.86448 0.0
N3521 N 0.56828 0.5813 0.8721 0.0
H3522 H 0.39702 0.50443 0.86773 0.0
H3523 H 0.38764 0.61136 0.87348 0.0
H3524 H 0.34661 0.53307 0.86231 0.0
H3525 H 0.43814 0.58308 0.87948 0.0
H3526 H 0.37331 0.58321 0.86383 0.0
H3527 H 0.41314 0.5332 0.86687 0.0
C3528 C 0.38935 0.51679 0.86644 0.0
C3529 C 0.37043 0.51648 0.86581 0.0
C3530 C 0.38759 0.58316 0.86696 0.0
C3531 C 0.38876 0.54939 0.86437 0.0
C3532 C 0.39574 0.59921 0.87243 0.0
C3533 C 0.41397 0.59935 0.87747 0.0
C3534 C 0.39774 0.56712 0.86672 0.0
C3535 C 0.42401 0.58342 0.87574 0.0
C3536 C 0.39856 0.53321 0.86573 0.0
C3537 C 0.36121 0.53278 0.86312 0.0
N3538 N 0.41569 0.56783 0.87078 0.0
N3539 N 0.37044 0.54862 0.86279 0.0
H3540 H 0.49366 0.39105 0.86713 0.0
H3541 H 0.38678 0.38342 0.87418 0.0
H3542 H 0.46447 0.34077 0.86465 0.0
H3543 H 0.41597 0.43358 0.87813 0.0
H3544 H 0.41454 0.36829 0.86454 0.0
H3545 H 0.46509 0.40746 0.86519 0.0
C3546 C 0.4812 0.38348 0.86617 0.0
C3547 C 0.48129 0.36457 0.86672 0.0
C3548 C 0.41485 0.38266 0.86721 0.0
C3549 C 0.44861 0.38317 0.8642 0.0
C3550 C 0.39903 0.39127 0.87269 0.0
C3551 C 0.39928 0.40964 0.87718 0.0
C3552 C 0.43104 0.39252 0.86638 0.0
C3553 C 0.41533 0.41935 0.87484 0.0
C3554 C 0.46491 0.39284 0.86488 0.0
C3555 C 0.4649 0.35538 0.86453 0.0
N3556 N 0.43068 0.4106 0.86988 0.0
N3557 N 0.44916 0.36477 0.86369 0.0
H3558 H 0.55895 0.41657 0.88005 0.0
H3559 H 0.6555 0.46209 0.86567 0.0
H3560 H 0.60953 0.38791 0.88233 0.0
H3561 H 0.60585 0.49202 0.87103 0.0
H3562 H 0.63803 0.43409 0.86388 0.0
H3563 H 0.57503 0.44339 0.869 0.0
C3564 C 0.57339 0.41586 0.87779 0.0
C3565 C 0.58307 0.40029 0.88235 0.0
C3566 C 0.63093 0.4468 0.86529 0.0
C3567 C 0.6015 0.43067 0.87 0.0
C3568 C 0.6409 0.46276 0.86625 0.0
C3569 C 0.6321 0.47924 0.86921 0.0
C3570 C 0.61205 0.44742 0.86723 0.0
C3571 C 0.61317 0.47947 0.86962 0.0
C3572 C 0.58257 0.43113 0.8716 0.0
C3573 C 0.60171 0.39988 0.87922 0.0
N3574 N 0.60376 0.46375 0.86892 0.0
N3575 N 0.61038 0.41494 0.87346 0.0
H3576 H 0.5827 0.42295 0.08116 0.0
H3577 H 0.51245 0.37003 0.14363 0.0
H3578 H 0.59816 0.40339 0.13373 0.0
H3579 H 0.51153 0.371 0.08537 0.0
H3580 H 0.54092 0.38731 0.14292 0.0
H3581 H 0.55249 0.4105 0.08564 0.0
C3582 C 0.57952 0.4163 0.09381 0.0
C3583 C 0.59275 0.41402 0.10707 0.0
C3584 C 0.53423 0.3839 0.13036 0.0
C3585 C 0.55851 0.39948 0.1122 0.0
C3586 C 0.51808 0.37405 0.13074 0.0
C3587 C 0.50921 0.36968 0.11455 0.0
C3588 C 0.54137 0.38939 0.11367 0.0
C3589 C 0.51723 0.37489 0.09822 0.0
C3590 C 0.56239 0.4091 0.09632 0.0
C3591 C 0.58815 0.40534 0.12325 0.0
N3592 N 0.53274 0.38455 0.09821 0.0
N3593 N 0.57135 0.39816 0.12534 0.0
H3594 H 0.6137 0.60597 0.11865 0.0
H3595 H 0.60561 0.49932 0.12787 0.0
H3596 H 0.56335 0.57705 0.11518 0.0
H3597 H 0.65584 0.52846 0.1313 0.0
H3598 H 0.58918 0.52799 0.12878 0.0
H3599 H 0.62857 0.57839 0.1291 0.0
C3600 C 0.60575 0.59381 0.12042 0.0
C3601 C 0.58741 0.59356 0.11583 0.0
C3602 C 0.60379 0.52815 0.12952 0.0
C3603 C 0.60424 0.56199 0.12752 0.0
C3604 C 0.61314 0.51182 0.12884 0.0
C3605 C 0.63205 0.51171 0.12887 0.0
C3606 C 0.61348 0.54444 0.13019 0.0
C3607 C 0.64123 0.52809 0.13096 0.0
C3608 C 0.61421 0.57809 0.12636 0.0
C3609 C 0.57757 0.57766 0.11853 0.0
N3610 N 0.63186 0.54387 0.13123 0.0
N3611 N 0.58618 0.56237 0.12392 0.0
H3612 H 0.38838 0.61268 0.11686 0.0
H3613 H 0.4941 0.59997 0.12718 0.0
H3614 H 0.41488 0.56094 0.11453 0.0
H3615 H 0.46686 0.65123 0.13163 0.0
H3616 H 0.46489 0.58466 0.12828 0.0
H3617 H 0.41622 0.62618 0.12835 0.0
C3618 C 0.40004 0.60414 0.11914 0.0
C3619 C 0.39959 0.58581 0.11454 0.0
C3620 C 0.46529 0.59924 0.12923 0.0
C3621 C 0.43149 0.60108 0.12731 0.0
C3622 C 0.48194 0.60798 0.12838 0.0
C3623 C 0.48276 0.62689 0.12858 0.0
C3624 C 0.44938 0.60954 0.1302 0.0
C3625 C 0.46674 0.63662 0.13113 0.0
C3626 C 0.41592 0.61181 0.12566 0.0
C3627 C 0.41485 0.57518 0.11786 0.0
N3628 N 0.45065 0.62785 0.1315 0.0
N3629 N 0.43036 0.58305 0.12373 0.0
H3630 H 0.42838 0.41596 0.11259 0.0
H3631 H 0.33597 0.46865 0.12743 0.0
H3632 H 0.37617 0.39034 0.11452 0.0
H3633 H 0.38805 0.49455 0.12512 0.0
H3634 H 0.35103 0.4393 0.12911 0.0
H3635 H 0.41462 0.44408 0.12331 0.0
C3636 C 0.41408 0.41621 0.11565 0.0
C3637 C 0.40327 0.40104 0.11241 0.0
C3638 C 0.35919 0.45141 0.12839 0.0
C3639 C 0.38741 0.43303 0.12436 0.0
C3640 C 0.3506 0.46815 0.1275 0.0
C3641 C 0.36081 0.48392 0.12539 0.0
C3642 C 0.37812 0.45051 0.12717 0.0
C3643 C 0.37969 0.4826 0.12581 0.0
C3644 C 0.4062 0.43224 0.12168 0.0
C3645 C 0.38484 0.40195 0.11653 0.0
N3646 N 0.38776 0.46615 0.12636 0.0
N3647 N 0.37742 0.41777 0.12205 0.0
H3648 H 0.87478 0.61068 0.61553 0.0
H3649 H 0.86327 0.50437 0.60522 0.0
H3650 H 0.87905 0.58251 0.56479 0.0
H3651 H 0.86174 0.53265 0.65609 0.0
H3652 H 0.86287 0.53334 0.58939 0.0
H3653 H 0.86368 0.583 0.62971 0.0
C3654 C 0.87309 0.59866 0.60736 0.0
C3655 C 0.87806 0.59866 0.58911 0.0
C3656 C 0.86244 0.53323 0.60402 0.0
C3657 C 0.86558 0.56698 0.60514 0.0
C3658 C 0.86286 0.5167 0.61304 0.0
C3659 C 0.86328 0.51622 0.63196 0.0
C3660 C 0.86244 0.54934 0.61403 0.0
C3661 C 0.86173 0.5325 0.64147 0.0
C3662 C 0.86676 0.58289 0.61541 0.0
C3663 C 0.87542 0.58293 0.57895 0.0
N3664 N 0.8617 0.54844 0.63241 0.0
N3665 N 0.86962 0.56759 0.58718 0.0
H3666 H 0.86906 0.4928 0.39559 0.0
H3667 H 0.87889 0.38617 0.39422 0.0
H3668 H 0.86437 0.46027 0.34757 0.0
H3669 H 0.88187 0.41795 0.44285 0.0
H3670 H 0.86753 0.41252 0.37791 0.0
H3671 H 0.86812 0.46534 0.414 0.0
C3672 C 0.86781 0.47982 0.38897 0.0
C3673 C 0.86747 0.4786 0.3701 0.0
C3674 C 0.87032 0.41373 0.39222 0.0
C3675 C 0.86607 0.44727 0.39091 0.0
C3676 C 0.87675 0.39869 0.40149 0.0
C3677 C 0.88146 0.40014 0.41974 0.0
C3678 C 0.86892 0.43036 0.40124 0.0
C3679 C 0.87842 0.41647 0.42871 0.0
C3680 C 0.86709 0.46418 0.39945 0.0
C3681 C 0.86498 0.46166 0.36212 0.0
N3682 N 0.87263 0.43112 0.41927 0.0
N3683 N 0.86469 0.44658 0.37256 0.0
H3684 H 0.53093 0.86266 0.34208 0.0
H3685 H 0.58204 0.8836 0.43448 0.0
H3686 H 0.50425 0.86694 0.39363 0.0
H3687 H 0.6073 0.88417 0.38205 0.0
H3688 H 0.55473 0.87072 0.42082 0.0
H3689 H 0.56016 0.86339 0.35749 0.0
C3690 C 0.53128 0.86351 0.35668 0.0
C3691 C 0.51532 0.86542 0.36662 0.0
C3692 C 0.56635 0.8734 0.41234 0.0
C3693 C 0.5485 0.8664 0.38431 0.0
C3694 C 0.58189 0.88067 0.42015 0.0
C3695 C 0.59665 0.88519 0.40925 0.0
C3696 C 0.56569 0.8707 0.39354 0.0
C3697 C 0.59596 0.88116 0.39079 0.0
C3698 C 0.54793 0.864 0.36548 0.0
C3699 C 0.51637 0.86623 0.38549 0.0
N3700 N 0.58063 0.87434 0.38345 0.0
N3701 N 0.53272 0.86701 0.39375 0.0
H3702 H 0.1257 0.49792 0.39462 0.0
H3703 H 0.11069 0.60345 0.3842 0.0
H3704 H 0.12853 0.52618 0.34382 0.0
H3705 H 0.11158 0.57624 0.43562 0.0
H3706 H 0.12238 0.57615 0.36977 0.0
H3707 H 0.12547 0.52693 0.41047 0.0
C3708 C 0.12631 0.51029 0.38684 0.0
C3709 C 0.1265 0.50981 0.36793 0.0
C3710 C 0.12033 0.57617 0.38425 0.0
C3711 C 0.1265 0.54293 0.38585 0.0
C3712 C 0.11367 0.59174 0.39245 0.0
C3713 C 0.10997 0.59184 0.41099 0.0
C3714 C 0.12304 0.56055 0.39468 0.0
C3715 C 0.11419 0.57653 0.42123 0.0
C3716 C 0.12636 0.52682 0.39587 0.0
C3717 C 0.12811 0.52607 0.35844 0.0
N3718 N 0.12022 0.56133 0.41287 0.0
N3719 N 0.12773 0.54202 0.36749 0.0
H3720 H 0.49115 0.12579 0.3941 0.0
H3721 H 0.38526 0.11138 0.39108 0.0
H3722 H 0.4593 0.12883 0.3455 0.0
H3723 H 0.4161 0.11135 0.4404 0.0
H3724 H 0.41129 0.12374 0.37501 0.0
H3725 H 0.46337 0.12617 0.41205 0.0
C3726 C 0.47825 0.12661 0.38726 0.0
C3727 C 0.47733 0.12662 0.36837 0.0
C3728 C 0.41234 0.12138 0.38941 0.0
C3729 C 0.44563 0.12731 0.38865 0.0
C3730 C 0.39749 0.11437 0.39855 0.0
C3731 C 0.3988 0.11018 0.41693 0.0
C3732 C 0.42868 0.1239 0.39872 0.0
C3733 C 0.41474 0.11435 0.42614 0.0
C3734 C 0.46243 0.12699 0.39748 0.0
C3735 C 0.46046 0.12849 0.36008 0.0
N3736 N 0.42926 0.12068 0.41685 0.0
N3737 N 0.44521 0.12843 0.37027 0.0
H3738 H 0.0833 0.48255 0.61881 0.0
H3739 H 0.13295 0.3925 0.59394 0.0
H3740 H 0.14129 0.47915 0.62351 0.0
H3741 H 0.08219 0.40862 0.57055 0.0
H3742 H 0.13749 0.42369 0.60469 0.0
H3743 H 0.08322 0.45494 0.60152 0.0
C3744 C 0.09614 0.47637 0.61571 0.0
C3745 C 0.11243 0.48369 0.62196 0.0
C3746 C 0.12559 0.42046 0.59683 0.0
C3747 C 0.1123 0.45115 0.60291 0.0
C3748 C 0.12306 0.40278 0.59068 0.0
C3749 C 0.10718 0.39824 0.58148 0.0
C3750 C 0.11196 0.43335 0.59391 0.0
C3751 C 0.09458 0.41176 0.57767 0.0
C3752 C 0.09605 0.46037 0.60597 0.0
C3753 C 0.12846 0.47409 0.61867 0.0
N3754 N 0.09712 0.42868 0.58412 0.0
N3755 N 0.12801 0.45819 0.60942 0.0
H3756 H 0.5276 0.12859 0.65488 0.0
H3757 H 0.57823 0.11259 0.56104 0.0
H3758 H 0.50009 0.12076 0.60415 0.0
H3759 H 0.60497 0.11575 0.61262 0.0
H3760 H 0.54989 0.12188 0.57554 0.0
H3761 H 0.55629 0.1304 0.63864 0.0
C3762 C 0.52759 0.12742 0.64029 0.0
C3763 C 0.51157 0.12382 0.63089 0.0
C3764 C 0.56202 0.12082 0.58364 0.0
C3765 C 0.54427 0.12581 0.61222 0.0
C3766 C 0.57816 0.11564 0.57535 0.0
C3767 C 0.59374 0.11319 0.58577 0.0
C3768 C 0.56159 0.12355 0.60245 0.0
C3769 C 0.59308 0.11723 0.60424 0.0
C3770 C 0.54397 0.12839 0.63102 0.0
C3771 C 0.51225 0.12266 0.61199 0.0
N3772 N 0.5772 0.12201 0.61205 0.0
N3773 N 0.52838 0.12341 0.60328 0.0
H3774 H 0.49508 0.86782 0.6061 0.0
H3775 H 0.38866 0.87427 0.6207 0.0
H3776 H 0.46912 0.86385 0.65805 0.0
H3777 H 0.41457 0.87997 0.5689 0.0
H3778 H 0.41752 0.86499 0.63384 0.0
H3779 H 0.46545 0.86701 0.59151 0.0
C3780 C 0.48309 0.86682 0.61441 0.0
C3781 C 0.48439 0.86657 0.63328 0.0
C3782 C 0.41689 0.868 0.61954 0.0
C3783 C 0.45056 0.86527 0.61677 0.0
C3784 C 0.40044 0.87329 0.61207 0.0
C3785 C 0.39942 0.87808 0.59381 0.0
C3786 C 0.43242 0.86766 0.60865 0.0
C3787 C 0.4149 0.8764 0.58307 0.0
C3788 C 0.46621 0.86617 0.60609 0.0
C3789 C 0.4686 0.86434 0.64344 0.0
N3790 N 0.43087 0.87157 0.59072 0.0
N3791 N 0.45227 0.86406 0.63507 0.0
loop_
_geom_bond_atom_site_label_1
_geom_bond_atom_site_label_2
_geom_bond_distance
_geom_bond_site_symmetry_2
_ccdc_geom_bond_type
Co0 O3 1.970 . S
Co0 N17 1.989 . S
Co0 O25 1.967 . S
Co0 O32 1.920 . S
Co1 O4 1.966 . S
Co1 N10 2.022 . S
Co1 N18 1.993 . S
Co1 O26 1.941 . S
C2 O3 1.258 . S
C2 O4 1.263 . S
O3 Co0 1.970 . S
O3 C2 1.258 . S
O4 Co1 1.966 . S
O4 C2 1.263 . S
C5 O6 1.235 . S
C5 O32 1.289 . S
O6 C5 1.235 . S
C7 C9 1.400 1_455 S
C7 N10 1.351 . S
C7 C12 1.501 1_455 S
C8 C9 1.387 1_455 S
C8 N11 1.341 . S
C9 C7 1.400 1_655 S
C9 C8 1.387 1_655 S
N10 Co1 2.022 . S
N10 C7 1.351 . S
N10 N11 1.365 . S
N11 C8 1.341 . S
N11 N10 1.365 . S
N11 H31 0.862 . S
C12 C7 1.501 1_655 S
C12 H13 0.961 1_655 S
C12 H14 0.961 . S
C12 H15 0.960 . S
H13 C12 0.961 1_455 S
H14 C12 0.961 . S
H15 C12 0.960 . S
C16 N17 1.342 . S
C16 C20 1.401 . S
C16 C21 1.499 . S
N17 Co0 1.989 . S
N17 C16 1.342 . S
N17 N18 1.388 . S
N18 Co1 1.993 . S
N18 N17 1.388 . S
N18 C19 1.346 . S
C19 N18 1.346 . S
C19 C20 1.396 . S
C19 C29 1.510 . S
C20 C16 1.401 . S
C20 C19 1.396 . S
C21 C16 1.499 . S
C21 H22 0.959 . S
C21 H23 0.960 . S
C21 H24 0.961 . S
H22 C21 0.959 . S
H23 C21 0.960 . S
H24 C21 0.961 . S
O25 Co0 1.967 . S
O25 C33 1.258 . S
O26 Co1 1.941 . S
O26 C33 1.266 . S
H27 C29 0.959 . S
H28 C29 0.961 . S
C29 C19 1.510 . S
C29 H27 0.959 . S
C29 H28 0.961 . S
C29 H30 0.960 . S
H30 C29 0.960 . S
H31 N11 0.862 . S
O32 Co0 1.920 . S
O32 C5 1.289 . S
C33 O25 1.258 . S
C33 O26 1.266 . S
Co34 O37 1.970 . S
Co34 N51 1.989 . S
Co34 O59 1.967 . S
Co34 O66 1.920 . S
Co35 O38 1.966 . S
Co35 N44 2.022 . S
Co35 N52 1.993 . S
Co35 O60 1.941 . S
C36 O37 1.258 . S
C36 O38 1.263 . S
O37 Co34 1.970 . S
O37 C36 1.258 . S
O38 Co35 1.966 . S
O38 C36 1.263 . S
C39 O40 1.235 . S
C39 O66 1.289 . S
O40 C39 1.235 . S
C41 C43 1.400 1_545 S
C41 N44 1.351 . S
C41 C46 1.501 1_545 S
C42 C43 1.387 1_545 S
C42 N45 1.341 . S
C43 C41 1.400 1_565 S
C43 C42 1.387 1_565 S
N44 Co35 2.022 . S
N44 C41 1.351 . S
N44 N45 1.365 . S
N45 C42 1.341 . S
N45 N44 1.365 . S
N45 H65 0.862 . S
C46 C41 1.501 1_565 S
C46 H47 0.961 1_565 S
C46 H48 0.961 . S
C46 H49 0.960 . S
H47 C46 0.961 1_545 S
H48 C46 0.961 . S
H49 C46 0.960 . S
C50 N51 1.342 . S
C50 C54 1.401 . S
C50 C55 1.499 . S
N51 Co34 1.989 . S
N51 C50 1.342 . S
N51 N52 1.388 . S
N52 Co35 1.993 . S
N52 N51 1.388 . S
N52 C53 1.346 . S
C53 N52 1.346 . S
C53 C54 1.396 . S
C53 C63 1.510 . S
C54 C50 1.401 . S
C54 C53 1.396 . S
C55 C50 1.499 . S
C55 H56 0.959 . S
C55 H57 0.960 . S
C55 H58 0.961 . S
H56 C55 0.959 . S
H57 C55 0.960 . S
H58 C55 0.961 . S
O59 Co34 1.967 . S
O59 C67 1.258 . S
O60 Co35 1.941 . S
O60 C67 1.266 . S
H61 C63 0.959 . S
H62 C63 0.961 . S
C63 C53 1.510 . S
C63 H61 0.959 . S
C63 H62 0.961 . S
C63 H64 0.960 . S
H64 C63 0.960 . S
H65 N45 0.862 . S
O66 Co34 1.920 . S
O66 C39 1.289 . S
C67 O59 1.258 . S
C67 O60 1.266 . S
Co68 O71 1.970 . S
Co68 N85 1.989 . S
Co68 O93 1.967 . S
Co68 O100 1.920 . S
Co69 O72 1.966 . S
Co69 N78 2.022 . S
Co69 N86 1.993 . S
Co69 O94 1.941 . S
C70 O71 1.258 . S
C70 O72 1.263 . S
O71 Co68 1.970 . S
O71 C70 1.258 . S
O72 Co69 1.966 . S
O72 C70 1.263 . S
C73 O74 1.235 . S
C73 O100 1.289 . S
O74 C73 1.235 . S
C75 C77 1.400 1_655 S
C75 N78 1.351 . S
C75 C80 1.501 1_655 S
C76 C77 1.387 1_655 S
C76 N79 1.341 . S
C77 C75 1.400 1_455 S
C77 C76 1.387 1_455 S
N78 Co69 2.022 . S
N78 C75 1.351 . S
N78 N79 1.365 . S
N79 C76 1.341 . S
N79 N78 1.365 . S
N79 H99 0.862 . S
C80 C75 1.501 1_455 S
C80 H81 0.961 1_455 S
C80 H82 0.961 . S
C80 H83 0.960 . S
H81 C80 0.961 1_655 S
H82 C80 0.961 . S
H83 C80 0.960 . S
C84 N85 1.342 . S
C84 C88 1.401 . S
C84 C89 1.499 . S
N85 Co68 1.989 . S
N85 C84 1.342 . S
N85 N86 1.388 . S
N86 Co69 1.993 . S
N86 N85 1.388 . S
N86 C87 1.346 . S
C87 N86 1.346 . S
C87 C88 1.396 . S
C87 C97 1.510 . S
C88 C84 1.401 . S
C88 C87 1.396 . S
C89 C84 1.499 . S
C89 H90 0.959 . S
C89 H91 0.960 . S
C89 H92 0.961 . S
H90 C89 0.959 . S
H91 C89 0.960 . S
H92 C89 0.961 . S
O93 Co68 1.967 . S
O93 C101 1.258 . S
O94 Co69 1.941 . S
O94 C101 1.266 . S
H95 C97 0.959 . S
H96 C97 0.961 . S
C97 C87 1.510 . S
C97 H95 0.959 . S
C97 H96 0.961 . S
C97 H98 0.960 . S
H98 C97 0.960 . S
H99 N79 0.862 . S
O100 Co68 1.920 . S
O100 C73 1.289 . S
C101 O93 1.258 . S
C101 O94 1.266 . S
Co102 O105 1.970 . S
Co102 N119 1.989 . S
Co102 O127 1.967 . S
Co102 O134 1.920 . S
Co103 O106 1.966 . S
Co103 N112 2.022 . S
Co103 N120 1.993 . S
Co103 O128 1.941 . S
C104 O105 1.258 . S
C104 O106 1.263 . S
O105 Co102 1.970 . S
O105 C104 1.258 . S
O106 Co103 1.966 . S
O106 C104 1.263 . S
C107 O108 1.235 . S
C107 O134 1.289 . S
O108 C107 1.235 . S
C109 C111 1.400 1_565 S
C109 N112 1.351 . S
C109 C114 1.501 1_565 S
C110 C111 1.387 1_565 S
C110 N113 1.341 . S
C111 C109 1.400 1_545 S
C111 C110 1.387 1_545 S
N112 Co103 2.022 . S
N112 C109 1.351 . S
N112 N113 1.365 . S
N113 C110 1.341 . S
N113 N112 1.365 . S
N113 H133 0.862 . S
C114 C109 1.501 1_545 S
C114 H115 0.961 1_545 S
C114 H116 0.961 . S
C114 H117 0.960 . S
H115 C114 0.961 1_565 S
H116 C114 0.961 . S
H117 C114 0.960 . S
C118 N119 1.342 . S
C118 C122 1.401 . S
C118 C123 1.499 . S
N119 Co102 1.989 . S
N119 C118 1.342 . S
N119 N120 1.388 . S
N120 Co103 1.993 . S
N120 N119 1.388 . S
N120 C121 1.346 . S
C121 N120 1.346 . S
C121 C122 1.396 . S
C121 C131 1.510 . S
C122 C118 1.401 . S
C122 C121 1.396 . S
C123 C118 1.499 . S
C123 H124 0.959 . S
C123 H125 0.960 . S
C123 H126 0.961 . S
H124 C123 0.959 . S
H125 C123 0.960 . S
H126 C123 0.961 . S
O127 Co102 1.967 . S
O127 C135 1.258 . S
O128 Co103 1.941 . S
O128 C135 1.266 . S
H129 C131 0.959 . S
H130 C131 0.961 . S
C131 C121 1.510 . S
C131 H129 0.959 . S
C131 H130 0.961 . S
C131 H132 0.960 . S
H132 C131 0.960 . S
H133 N113 0.862 . S
O134 Co102 1.920 . S
O134 C107 1.289 . S
C135 O127 1.258 . S
C135 O128 1.266 . S
Co136 O139 1.970 . S
Co136 N153 1.989 . S
Co136 O161 1.967 . S
Co136 O168 1.920 . S
Co137 O140 1.966 . S
Co137 N146 2.022 . S
Co137 N154 1.993 . S
Co137 O162 1.941 . S
C138 O139 1.258 . S
C138 O140 1.263 . S
O139 Co136 1.970 . S
O139 C138 1.258 . S
O140 Co137 1.966 . S
O140 C138 1.263 . S
C141 O142 1.235 . S
C141 O168 1.289 . S
O142 C141 1.235 . S
C143 C145 1.400 1_455 S
C143 N146 1.351 . S
C143 C148 1.501 1_455 S
C144 C145 1.387 1_455 S
C144 N147 1.341 . S
C145 C143 1.400 1_655 S
C145 C144 1.387 1_655 S
N146 Co137 2.022 . S
N146 C143 1.351 . S
N146 N147 1.365 . S
N147 C144 1.341 . S
N147 N146 1.365 . S
N147 H167 0.862 . S
C148 C143 1.501 1_655 S
C148 H149 0.961 1_655 S
C148 H150 0.961 . S
C148 H151 0.960 . S
H149 C148 0.961 1_455 S
H150 C148 0.961 . S
H151 C148 0.960 . S
C152 N153 1.342 . S
C152 C156 1.401 . S
C152 C157 1.499 . S
N153 Co136 1.989 . S
N153 C152 1.342 . S
N153 N154 1.388 . S
N154 Co137 1.993 . S
N154 N153 1.388 . S
N154 C155 1.346 . S
C155 N154 1.346 . S
C155 C156 1.396 . S
C155 C165 1.510 . S
C156 C152 1.401 . S
C156 C155 1.396 . S
C157 C152 1.499 . S
C157 H158 0.959 . S
C157 H159 0.960 . S
C157 H160 0.961 . S
H158 C157 0.959 . S
H159 C157 0.960 . S
H160 C157 0.961 . S
O161 Co136 1.967 . S
O161 C169 1.258 . S
O162 Co137 1.941 . S
O162 C169 1.266 . S
H163 C165 0.959 . S
H164 C165 0.961 . S
C165 C155 1.510 . S
C165 H163 0.959 . S
C165 H164 0.961 . S
C165 H166 0.960 . S
H166 C165 0.960 . S
H167 N147 0.862 . S
O168 Co136 1.920 . S
O168 C141 1.289 . S
C169 O161 1.258 . S
C169 O162 1.266 . S
Co170 O173 1.970 . S
Co170 N187 1.989 . S
Co170 O195 1.967 . S
Co170 O202 1.920 . S
Co171 O174 1.966 . S
Co171 N180 2.022 . S
Co171 N188 1.993 . S
Co171 O196 1.941 . S
C172 O173 1.258 . S
C172 O174 1.263 . S
O173 Co170 1.970 . S
O173 C172 1.258 . S
O174 Co171 1.966 . S
O174 C172 1.263 . S
C175 O176 1.235 . S
C175 O202 1.289 . S
O176 C175 1.235 . S
C177 C179 1.400 1_545 S
C177 N180 1.351 . S
C177 C182 1.501 1_545 S
C178 C179 1.387 1_545 S
C178 N181 1.341 . S
C179 C177 1.400 1_565 S
C179 C178 1.387 1_565 S
N180 Co171 2.022 . S
N180 C177 1.351 . S
N180 N181 1.365 . S
N181 C178 1.341 . S
N181 N180 1.365 . S
N181 H201 0.862 . S
C182 C177 1.501 1_565 S
C182 H183 0.961 1_565 S
C182 H184 0.961 . S
C182 H185 0.960 . S
H183 C182 0.961 1_545 S
H184 C182 0.961 . S
H185 C182 0.960 . S
C186 N187 1.342 . S
C186 C190 1.401 . S
C186 C191 1.499 . S
N187 Co170 1.989 . S
N187 C186 1.342 . S
N187 N188 1.388 . S
N188 Co171 1.993 . S
N188 N187 1.388 . S
N188 C189 1.346 . S
C189 N188 1.346 . S
C189 C190 1.396 . S
C189 C199 1.510 . S
C190 C186 1.401 . S
C190 C189 1.396 . S
C191 C186 1.499 . S
C191 H192 0.959 . S
C191 H193 0.960 . S
C191 H194 0.961 . S
H192 C191 0.959 . S
H193 C191 0.960 . S
H194 C191 0.961 . S
O195 Co170 1.967 . S
O195 C203 1.258 . S
O196 Co171 1.941 . S
O196 C203 1.266 . S
H197 C199 0.959 . S
H198 C199 0.961 . S
C199 C189 1.510 . S
C199 H197 0.959 . S
C199 H198 0.961 . S
C199 H200 0.960 . S
H200 C199 0.960 . S
H201 N181 0.862 . S
O202 Co170 1.920 . S
O202 C175 1.289 . S
C203 O195 1.258 . S
C203 O196 1.266 . S
Co204 O207 1.970 . S
Co204 N221 1.989 . S
Co204 O229 1.967 . S
Co204 O236 1.920 . S
Co205 O208 1.966 . S
Co205 N214 2.022 . S
Co205 N222 1.993 . S
Co205 O230 1.941 . S
C206 O207 1.258 . S
C206 O208 1.263 . S
O207 Co204 1.970 . S
O207 C206 1.258 . S
O208 Co205 1.966 . S
O208 C206 1.263 . S
C209 O210 1.235 . S
C209 O236 1.289 . S
O210 C209 1.235 . S
C211 C213 1.400 1_655 S
C211 N214 1.351 . S
C211 C216 1.501 1_655 S
C212 C213 1.387 1_655 S
C212 N215 1.341 . S
C213 C211 1.400 1_455 S
C213 C212 1.387 1_455 S
N214 Co205 2.022 . S
N214 C211 1.351 . S
N214 N215 1.365 . S
N215 C212 1.341 . S
N215 N214 1.365 . S
N215 H235 0.862 . S
C216 C211 1.501 1_455 S
C216 H217 0.961 1_455 S
C216 H218 0.961 . S
C216 H219 0.960 . S
H217 C216 0.961 1_655 S
H218 C216 0.961 . S
H219 C216 0.960 . S
C220 N221 1.342 . S
C220 C224 1.401 . S
C220 C225 1.499 . S
N221 Co204 1.989 . S
N221 C220 1.342 . S
N221 N222 1.388 . S
N222 Co205 1.993 . S
N222 N221 1.388 . S
N222 C223 1.346 . S
C223 N222 1.346 . S
C223 C224 1.396 . S
C223 C233 1.510 . S
C224 C220 1.401 . S
C224 C223 1.396 . S
C225 C220 1.499 . S
C225 H226 0.959 . S
C225 H227 0.960 . S
C225 H228 0.961 . S
H226 C225 0.959 . S
H227 C225 0.960 . S
H228 C225 0.961 . S
O229 Co204 1.967 . S
O229 C237 1.258 . S
O230 Co205 1.941 . S
O230 C237 1.266 . S
H231 C233 0.959 . S
H232 C233 0.961 . S
C233 C223 1.510 . S
C233 H231 0.959 . S
C233 H232 0.961 . S
C233 H234 0.960 . S
H234 C233 0.960 . S
H235 N215 0.862 . S
O236 Co204 1.920 . S
O236 C209 1.289 . S
C237 O229 1.258 . S
C237 O230 1.266 . S
Co238 O241 1.970 . S
Co238 N255 1.989 . S
Co238 O263 1.967 . S
Co238 O270 1.920 . S
Co239 O242 1.966 . S
Co239 N248 2.022 . S
Co239 N256 1.993 . S
Co239 O264 1.941 . S
C240 O241 1.258 . S
C240 O242 1.263 . S
O241 Co238 1.970 . S
O241 C240 1.258 . S
O242 Co239 1.966 . S
O242 C240 1.263 . S
C243 O244 1.235 . S
C243 O270 1.289 . S
O244 C243 1.235 . S
C245 C247 1.400 1_565 S
C245 N248 1.351 . S
C245 C250 1.501 1_565 S
C246 C247 1.387 1_565 S
C246 N249 1.341 . S
C247 C245 1.400 1_545 S
C247 C246 1.387 1_545 S
N248 Co239 2.022 . S
N248 C245 1.351 . S
N248 N249 1.365 . S
N249 C246 1.341 . S
N249 N248 1.365 . S
N249 H269 0.862 . S
C250 C245 1.501 1_545 S
C250 H251 0.961 1_545 S
C250 H252 0.961 . S
C250 H253 0.960 . S
H251 C250 0.961 1_565 S
H252 C250 0.961 . S
H253 C250 0.960 . S
C254 N255 1.342 . S
C254 C258 1.401 . S
C254 C259 1.499 . S
N255 Co238 1.989 . S
N255 C254 1.342 . S
N255 N256 1.388 . S
N256 Co239 1.993 . S
N256 N255 1.388 . S
N256 C257 1.346 . S
C257 N256 1.346 . S
C257 C258 1.396 . S
C257 C267 1.510 . S
C258 C254 1.401 . S
C258 C257 1.396 . S
C259 C254 1.499 . S
C259 H260 0.959 . S
C259 H261 0.960 . S
C259 H262 0.961 . S
H260 C259 0.959 . S
H261 C259 0.960 . S
H262 C259 0.961 . S
O263 Co238 1.967 . S
O263 C271 1.258 . S
O264 Co239 1.941 . S
O264 C271 1.266 . S
H265 C267 0.959 . S
H266 C267 0.961 . S
C267 C257 1.510 . S
C267 H265 0.959 . S
C267 H266 0.961 . S
C267 H268 0.960 . S
H268 C267 0.960 . S
H269 N249 0.862 . S
O270 Co238 1.920 . S
O270 C243 1.289 . S
C271 O263 1.258 . S
C271 O264 1.266 . S
Co272 O275 1.970 . S
Co272 N289 1.989 . S
Co272 O297 1.967 . S
Co272 O304 1.920 . S
Co273 O276 1.966 . S
Co273 N282 2.022 . S
Co273 N290 1.993 . S
Co273 O298 1.941 . S
C274 O275 1.258 . S
C274 O276 1.263 . S
O275 Co272 1.970 . S
O275 C274 1.258 . S
O276 Co273 1.966 . S
O276 C274 1.263 . S
C277 O278 1.235 . S
C277 O304 1.289 . S
O278 C277 1.235 . S
C279 C281 1.400 1_545 S
C279 N282 1.351 . S
C279 C284 1.501 1_545 S
C280 C281 1.387 1_545 S
C280 N283 1.341 . S
C281 C279 1.400 1_565 S
C281 C280 1.387 1_565 S
N282 Co273 2.022 . S
N282 C279 1.351 . S
N282 N283 1.365 . S
N283 C280 1.341 . S
N283 N282 1.365 . S
N283 H303 0.862 . S
C284 C279 1.501 1_565 S
C284 H285 0.961 1_565 S
C284 H286 0.961 . S
C284 H287 0.960 . S
H285 C284 0.961 1_545 S
H286 C284 0.961 . S
H287 C284 0.960 . S
C288 N289 1.342 . S
C288 C292 1.401 . S
C288 C293 1.499 . S
N289 Co272 1.989 . S
N289 C288 1.342 . S
N289 N290 1.388 . S
N290 Co273 1.993 . S
N290 N289 1.388 . S
N290 C291 1.346 . S
C291 N290 1.346 . S
C291 C292 1.396 . S
C291 C301 1.510 . S
C292 C288 1.401 . S
C292 C291 1.396 . S
C293 C288 1.499 . S
C293 H294 0.959 . S
C293 H295 0.960 . S
C293 H296 0.961 . S
H294 C293 0.959 . S
H295 C293 0.960 . S
H296 C293 0.961 . S
O297 Co272 1.967 . S
O297 C305 1.258 . S
O298 Co273 1.941 . S
O298 C305 1.266 . S
H299 C301 0.959 . S
H300 C301 0.961 . S
C301 C291 1.510 . S
C301 H299 0.959 . S
C301 H300 0.961 . S
C301 H302 0.960 . S
H302 C301 0.960 . S
H303 N283 0.862 . S
O304 Co272 1.920 . S
O304 C277 1.289 . S
C305 O297 1.258 . S
C305 O298 1.266 . S
Co306 O309 1.970 . S
Co306 N323 1.989 . S
Co306 O331 1.967 . S
Co306 O338 1.920 . S
Co307 O310 1.966 . S
Co307 N316 2.022 . S
Co307 N324 1.993 . S
Co307 O332 1.941 . S
C308 O309 1.258 . S
C308 O310 1.263 . S
O309 Co306 1.970 . S
O309 C308 1.258 . S
O310 Co307 1.966 . S
O310 C308 1.263 . S
C311 O312 1.235 . S
C311 O338 1.289 . S
O312 C311 1.235 . S
C313 C315 1.400 1_655 S
C313 N316 1.351 . S
C313 C318 1.501 1_655 S
C314 C315 1.387 1_655 S
C314 N317 1.341 . S
C315 C313 1.400 1_455 S
C315 C314 1.387 1_455 S
N316 Co307 2.022 . S
N316 C313 1.351 . S
N316 N317 1.365 . S
N317 C314 1.341 . S
N317 N316 1.365 . S
N317 H337 0.862 . S
C318 C313 1.501 1_455 S
C318 H319 0.961 1_455 S
C318 H320 0.961 . S
C318 H321 0.960 . S
H319 C318 0.961 1_655 S
H320 C318 0.961 . S
H321 C318 0.960 . S
C322 N323 1.342 . S
C322 C326 1.401 . S
C322 C327 1.499 . S
N323 Co306 1.989 . S
N323 C322 1.342 . S
N323 N324 1.388 . S
N324 Co307 1.993 . S
N324 N323 1.388 . S
N324 C325 1.346 . S
C325 N324 1.346 . S
C325 C326 1.396 . S
C325 C335 1.510 . S
C326 C322 1.401 . S
C326 C325 1.396 . S
C327 C322 1.499 . S
C327 H328 0.959 . S
C327 H329 0.960 . S
C327 H330 0.961 . S
H328 C327 0.959 . S
H329 C327 0.960 . S
H330 C327 0.961 . S
O331 Co306 1.967 . S
O331 C339 1.258 . S
O332 Co307 1.941 . S
O332 C339 1.266 . S
H333 C335 0.959 . S
H334 C335 0.961 . S
C335 C325 1.510 . S
C335 H333 0.959 . S
C335 H334 0.961 . S
C335 H336 0.960 . S
H336 C335 0.960 . S
H337 N317 0.862 . S
O338 Co306 1.920 . S
O338 C311 1.289 . S
C339 O331 1.258 . S
C339 O332 1.266 . S
Co340 O343 1.970 . S
Co340 N357 1.989 . S
Co340 O365 1.967 . S
Co340 O372 1.920 . S
Co341 O344 1.966 . S
Co341 N350 2.022 . S
Co341 N358 1.993 . S
Co341 O366 1.941 . S
C342 O343 1.258 . S
C342 O344 1.263 . S
O343 Co340 1.970 . S
O343 C342 1.258 . S
O344 Co341 1.966 . S
O344 C342 1.263 . S
C345 O346 1.235 . S
C345 O372 1.289 . S
O346 C345 1.235 . S
C347 C349 1.400 1_565 S
C347 N350 1.351 . S
C347 C352 1.501 1_565 S
C348 C349 1.387 1_565 S
C348 N351 1.341 . S
C349 C347 1.400 1_545 S
C349 C348 1.387 1_545 S
N350 Co341 2.022 . S
N350 C347 1.351 . S
N350 N351 1.365 . S
N351 C348 1.341 . S
N351 N350 1.365 . S
N351 H371 0.862 . S
C352 C347 1.501 1_545 S
C352 H353 0.961 1_545 S
C352 H354 0.961 . S
C352 H355 0.960 . S
H353 C352 0.961 1_565 S
H354 C352 0.961 . S
H355 C352 0.960 . S
C356 N357 1.342 . S
C356 C360 1.401 . S
C356 C361 1.499 . S
N357 Co340 1.989 . S
N357 C356 1.342 . S
N357 N358 1.388 . S
N358 Co341 1.993 . S
N358 N357 1.388 . S
N358 C359 1.346 . S
C359 N358 1.346 . S
C359 C360 1.396 . S
C359 C369 1.510 . S
C360 C356 1.401 . S
C360 C359 1.396 . S
C361 C356 1.499 . S
C361 H362 0.959 . S
C361 H363 0.960 . S
C361 H364 0.961 . S
H362 C361 0.959 . S
H363 C361 0.960 . S
H364 C361 0.961 . S
O365 Co340 1.967 . S
O365 C373 1.258 . S
O366 Co341 1.941 . S
O366 C373 1.266 . S
H367 C369 0.959 . S
H368 C369 0.961 . S
C369 C359 1.510 . S
C369 H367 0.959 . S
C369 H368 0.961 . S
C369 H370 0.960 . S
H370 C369 0.960 . S
H371 N351 0.862 . S
O372 Co340 1.920 . S
O372 C345 1.289 . S
C373 O365 1.258 . S
C373 O366 1.266 . S
Co374 O377 1.970 . S
Co374 N391 1.989 . S
Co374 O399 1.967 . S
Co374 O406 1.920 . S
Co375 O378 1.966 . S
Co375 N384 2.022 . S
Co375 N392 1.993 . S
Co375 O400 1.941 . S
C376 O377 1.258 . S
C376 O378 1.263 . S
O377 Co374 1.970 . S
O377 C376 1.258 . S
O378 Co375 1.966 . S
O378 C376 1.263 . S
C379 O380 1.235 . S
C379 O406 1.289 . S
O380 C379 1.235 . S
C381 C383 1.400 1_455 S
C381 N384 1.351 . S
C381 C386 1.501 1_455 S
C382 C383 1.387 1_455 S
C382 N385 1.341 . S
C383 C381 1.400 1_655 S
C383 C382 1.387 1_655 S
N384 Co375 2.022 . S
N384 C381 1.351 . S
N384 N385 1.365 . S
N385 C382 1.341 . S
N385 N384 1.365 . S
N385 H405 0.862 . S
C386 C381 1.501 1_655 S
C386 H387 0.961 1_655 S
C386 H388 0.961 . S
C386 H389 0.960 . S
H387 C386 0.961 1_455 S
H388 C386 0.961 . S
H389 C386 0.960 . S
C390 N391 1.342 . S
C390 C394 1.401 . S
C390 C395 1.499 . S
N391 Co374 1.989 . S
N391 C390 1.342 . S
N391 N392 1.388 . S
N392 Co375 1.993 . S
N392 N391 1.388 . S
N392 C393 1.346 . S
C393 N392 1.346 . S
C393 C394 1.396 . S
C393 C403 1.510 . S
C394 C390 1.401 . S
C394 C393 1.396 . S
C395 C390 1.499 . S
C395 H396 0.959 . S
C395 H397 0.960 . S
C395 H398 0.961 . S
H396 C395 0.959 . S
H397 C395 0.960 . S
H398 C395 0.961 . S
O399 Co374 1.967 . S
O399 C407 1.258 . S
O400 Co375 1.941 . S
O400 C407 1.266 . S
H401 C403 0.959 . S
H402 C403 0.961 . S
C403 C393 1.510 . S
C403 H401 0.959 . S
C403 H402 0.961 . S
C403 H404 0.960 . S
H404 C403 0.960 . S
H405 N385 0.862 . S
O406 Co374 1.920 . S
O406 C379 1.289 . S
C407 O399 1.258 . S
C407 O400 1.266 . S
Co408 O411 1.970 . S
Co408 N425 1.989 . S
Co408 O433 1.967 . S
Co408 O440 1.920 . S
Co409 O412 1.966 . S
Co409 N418 2.022 . S
Co409 N426 1.993 . S
Co409 O434 1.941 . S
C410 O411 1.258 . S
C410 O412 1.263 . S
O411 Co408 1.970 . S
O411 C410 1.258 . S
O412 Co409 1.966 . S
O412 C410 1.263 . S
C413 O414 1.235 . S
C413 O440 1.289 . S
O414 C413 1.235 . S
C415 C417 1.400 1_565 S
C415 N418 1.351 . S
C415 C420 1.501 1_565 S
C416 C417 1.387 1_565 S
C416 N419 1.341 . S
C417 C415 1.400 1_545 S
C417 C416 1.387 1_545 S
N418 Co409 2.022 . S
N418 C415 1.351 . S
N418 N419 1.365 . S
N419 C416 1.341 . S
N419 N418 1.365 . S
N419 H439 0.862 . S
C420 C415 1.501 1_545 S
C420 H421 0.961 1_545 S
C420 H422 0.961 . S
C420 H423 0.960 . S
H421 C420 0.961 1_565 S
H422 C420 0.961 . S
H423 C420 0.960 . S
C424 N425 1.342 . S
C424 C428 1.401 . S
C424 C429 1.499 . S
N425 Co408 1.989 . S
N425 C424 1.342 . S
N425 N426 1.388 . S
N426 Co409 1.993 . S
N426 N425 1.388 . S
N426 C427 1.346 . S
C427 N426 1.346 . S
C427 C428 1.396 . S
C427 C437 1.510 . S
C428 C424 1.401 . S
C428 C427 1.396 . S
C429 C424 1.499 . S
C429 H430 0.959 . S
C429 H431 0.960 . S
C429 H432 0.961 . S
H430 C429 0.959 . S
H431 C429 0.960 . S
H432 C429 0.961 . S
O433 Co408 1.967 . S
O433 C441 1.258 . S
O434 Co409 1.941 . S
O434 C441 1.266 . S
H435 C437 0.959 . S
H436 C437 0.961 . S
C437 C427 1.510 . S
C437 H435 0.959 . S
C437 H436 0.961 . S
C437 H438 0.960 . S
H438 C437 0.960 . S
H439 N419 0.862 . S
O440 Co408 1.920 . S
O440 C413 1.289 . S
C441 O433 1.258 . S
C441 O434 1.266 . S
Co442 O445 1.970 . S
Co442 N459 1.989 . S
Co442 O467 1.967 . S
Co442 O474 1.920 . S
Co443 O446 1.966 . S
Co443 N452 2.022 . S
Co443 N460 1.993 . S
Co443 O468 1.941 . S
C444 O445 1.258 . S
C444 O446 1.263 . S
O445 Co442 1.970 . S
O445 C444 1.258 . S
O446 Co443 1.966 . S
O446 C444 1.263 . S
C447 O448 1.235 . S
C447 O474 1.289 . S
O448 C447 1.235 . S
C449 C451 1.400 1_455 S
C449 N452 1.351 . S
C449 C454 1.501 1_455 S
C450 C451 1.387 1_455 S
C450 N453 1.341 . S
C451 C449 1.400 1_655 S
C451 C450 1.387 1_655 S
N452 Co443 2.022 . S
N452 C449 1.351 . S
N452 N453 1.365 . S
N453 C450 1.341 . S
N453 N452 1.365 . S
N453 H473 0.862 . S
C454 C449 1.501 1_655 S
C454 H455 0.961 1_655 S
C454 H456 0.961 . S
C454 H457 0.960 . S
H455 C454 0.961 1_455 S
H456 C454 0.961 . S
H457 C454 0.960 . S
C458 N459 1.342 . S
C458 C462 1.401 . S
C458 C463 1.499 . S
N459 Co442 1.989 . S
N459 C458 1.342 . S
N459 N460 1.388 . S
N460 Co443 1.993 . S
N460 N459 1.388 . S
N460 C461 1.346 . S
C461 N460 1.346 . S
C461 C462 1.396 . S
C461 C471 1.510 . S
C462 C458 1.401 . S
C462 C461 1.396 . S
C463 C458 1.499 . S
C463 H464 0.959 . S
C463 H465 0.960 . S
C463 H466 0.961 . S
H464 C463 0.959 . S
H465 C463 0.960 . S
H466 C463 0.961 . S
O467 Co442 1.967 . S
O467 C475 1.258 . S
O468 Co443 1.941 . S
O468 C475 1.266 . S
H469 C471 0.959 . S
H470 C471 0.961 . S
C471 C461 1.510 . S
C471 H469 0.959 . S
C471 H470 0.961 . S
C471 H472 0.960 . S
H472 C471 0.960 . S
H473 N453 0.862 . S
O474 Co442 1.920 . S
O474 C447 1.289 . S
C475 O467 1.258 . S
C475 O468 1.266 . S
Co476 O479 1.970 . S
Co476 N493 1.989 . S
Co476 O501 1.967 . S
Co476 O508 1.920 . S
Co477 O480 1.966 . S
Co477 N486 2.022 . S
Co477 N494 1.993 . S
Co477 O502 1.941 . S
C478 O479 1.258 . S
C478 O480 1.263 . S
O479 Co476 1.970 . S
O479 C478 1.258 . S
O480 Co477 1.966 . S
O480 C478 1.263 . S
C481 O482 1.235 . S
C481 O508 1.289 . S
O482 C481 1.235 . S
C483 C485 1.400 1_545 S
C483 N486 1.351 . S
C483 C488 1.501 1_545 S
C484 C485 1.387 1_545 S
C484 N487 1.341 . S
C485 C483 1.400 1_565 S
C485 C484 1.387 1_565 S
N486 Co477 2.022 . S
N486 C483 1.351 . S
N486 N487 1.365 . S
N487 C484 1.341 . S
N487 N486 1.365 . S
N487 H507 0.862 . S
C488 C483 1.501 1_565 S
C488 H489 0.961 1_565 S
C488 H490 0.961 . S
C488 H491 0.960 . S
H489 C488 0.961 1_545 S
H490 C488 0.961 . S
H491 C488 0.960 . S
C492 N493 1.342 . S
C492 C496 1.401 . S
C492 C497 1.499 . S
N493 Co476 1.989 . S
N493 C492 1.342 . S
N493 N494 1.388 . S
N494 Co477 1.993 . S
N494 N493 1.388 . S
N494 C495 1.346 . S
C495 N494 1.346 . S
C495 C496 1.396 . S
C495 C505 1.510 . S
C496 C492 1.401 . S
C496 C495 1.396 . S
C497 C492 1.499 . S
C497 H498 0.959 . S
C497 H499 0.960 . S
C497 H500 0.961 . S
H498 C497 0.959 . S
H499 C497 0.960 . S
H500 C497 0.961 . S
O501 Co476 1.967 . S
O501 C509 1.258 . S
O502 Co477 1.941 . S
O502 C509 1.266 . S
H503 C505 0.959 . S
H504 C505 0.961 . S
C505 C495 1.510 . S
C505 H503 0.959 . S
C505 H504 0.961 . S
C505 H506 0.960 . S
H506 C505 0.960 . S
H507 N487 0.862 . S
O508 Co476 1.920 . S
O508 C481 1.289 . S
C509 O501 1.258 . S
C509 O502 1.266 . S
Co510 O513 1.970 . S
Co510 N527 1.989 . S
Co510 O535 1.967 . S
Co510 O542 1.920 . S
Co511 O514 1.966 . S
Co511 N520 2.022 . S
Co511 N528 1.993 . S
Co511 O536 1.941 . S
C512 O513 1.258 . S
C512 O514 1.263 . S
O513 Co510 1.970 . S
O513 C512 1.258 . S
O514 Co511 1.966 . S
O514 C512 1.263 . S
C515 O516 1.235 . S
C515 O542 1.289 . S
O516 C515 1.235 . S
C517 C519 1.400 1_655 S
C517 N520 1.351 . S
C517 C522 1.501 1_655 S
C518 C519 1.387 1_655 S
C518 N521 1.341 . S
C519 C517 1.400 1_455 S
C519 C518 1.387 1_455 S
N520 Co511 2.022 . S
N520 C517 1.351 . S
N520 N521 1.365 . S
N521 C518 1.341 . S
N521 N520 1.365 . S
N521 H541 0.862 . S
C522 C517 1.501 1_455 S
C522 H523 0.961 1_455 S
C522 H524 0.961 . S
C522 H525 0.960 . S
H523 C522 0.961 1_655 S
H524 C522 0.961 . S
H525 C522 0.960 . S
C526 N527 1.342 . S
C526 C530 1.401 . S
C526 C531 1.499 . S
N527 Co510 1.989 . S
N527 C526 1.342 . S
N527 N528 1.388 . S
N528 Co511 1.993 . S
N528 N527 1.388 . S
N528 C529 1.346 . S
C529 N528 1.346 . S
C529 C530 1.396 . S
C529 C539 1.510 . S
C530 C526 1.401 . S
C530 C529 1.396 . S
C531 C526 1.499 . S
C531 H532 0.959 . S
C531 H533 0.960 . S
C531 H534 0.961 . S
H532 C531 0.959 . S
H533 C531 0.960 . S
H534 C531 0.961 . S
O535 Co510 1.967 . S
O535 C543 1.258 . S
O536 Co511 1.941 . S
O536 C543 1.266 . S
H537 C539 0.959 . S
H538 C539 0.961 . S
C539 C529 1.510 . S
C539 H537 0.959 . S
C539 H538 0.961 . S
C539 H540 0.960 . S
H540 C539 0.960 . S
H541 N521 0.862 . S
O542 Co510 1.920 . S
O542 C515 1.289 . S
C543 O535 1.258 . S
C543 O536 1.266 . S
Co544 O547 1.970 . S
Co544 N561 1.989 . S
Co544 O569 1.967 . S
Co544 O576 1.920 . S
Co545 O548 1.966 . S
Co545 N554 2.022 . S
Co545 N562 1.993 . S
Co545 O570 1.941 . S
C546 O547 1.258 . S
C546 O548 1.263 . S
O547 Co544 1.970 . S
O547 C546 1.258 . S
O548 Co545 1.966 . S
O548 C546 1.263 . S
C549 O550 1.235 . S
C549 O576 1.289 . S
O550 C549 1.235 . S
C551 C553 1.400 1_554 S
C551 N554 1.351 . S
C551 C556 1.501 1_554 S
C552 C553 1.387 1_554 S
C552 N555 1.341 . S
C553 C551 1.400 1_556 S
C553 C552 1.387 1_556 S
N554 Co545 2.022 . S
N554 C551 1.351 . S
N554 N555 1.365 . S
N555 C552 1.341 . S
N555 N554 1.365 . S
N555 H575 0.862 . S
C556 C551 1.501 1_556 S
C556 H557 0.961 1_556 S
C556 H558 0.961 . S
C556 H559 0.960 . S
H557 C556 0.961 1_554 S
H558 C556 0.961 . S
H559 C556 0.960 . S
C560 N561 1.342 . S
C560 C564 1.401 . S
C560 C565 1.499 . S
N561 Co544 1.989 . S
N561 C560 1.342 . S
N561 N562 1.388 . S
N562 Co545 1.993 . S
N562 N561 1.388 . S
N562 C563 1.346 . S
C563 N562 1.346 . S
C563 C564 1.396 . S
C563 C573 1.510 . S
C564 C560 1.401 . S
C564 C563 1.396 . S
C565 C560 1.499 . S
C565 H566 0.959 . S
C565 H567 0.960 . S
C565 H568 0.961 . S
H566 C565 0.959 . S
H567 C565 0.960 . S
H568 C565 0.961 . S
O569 Co544 1.967 . S
O569 C577 1.258 . S
O570 Co545 1.941 . S
O570 C577 1.266 . S
H571 C573 0.959 . S
H572 C573 0.961 . S
C573 C563 1.510 . S
C573 H571 0.959 . S
C573 H572 0.961 . S
C573 H574 0.960 . S
H574 C573 0.960 . S
H575 N555 0.862 . S
O576 Co544 1.920 . S
O576 C549 1.289 . S
C577 O569 1.258 . S
C577 O570 1.266 . S
Co578 O581 1.970 . S
Co578 N595 1.989 . S
Co578 O603 1.967 . S
Co578 O610 1.920 . S
Co579 O582 1.966 . S
Co579 N588 2.022 . S
Co579 N596 1.993 . S
Co579 O604 1.941 . S
C580 O581 1.258 . S
C580 O582 1.263 . S
O581 Co578 1.970 . S
O581 C580 1.258 . S
O582 Co579 1.966 . S
O582 C580 1.263 . S
C583 O584 1.235 . S
C583 O610 1.289 . S
O584 C583 1.235 . S
C585 C587 1.400 1_556 S
C585 N588 1.351 . S
C585 C590 1.501 1_556 S
C586 C587 1.387 1_556 S
C586 N589 1.341 . S
C587 C585 1.400 1_554 S
C587 C586 1.387 1_554 S
N588 Co579 2.022 . S
N588 C585 1.351 . S
N588 N589 1.365 . S
N589 C586 1.341 . S
N589 N588 1.365 . S
N589 H609 0.862 . S
C590 C585 1.501 1_554 S
C590 H591 0.961 1_554 S
C590 H592 0.961 . S
C590 H593 0.960 . S
H591 C590 0.961 1_556 S
H592 C590 0.961 . S
H593 C590 0.960 . S
C594 N595 1.342 . S
C594 C598 1.401 . S
C594 C599 1.499 . S
N595 Co578 1.989 . S
N595 C594 1.342 . S
N595 N596 1.388 . S
N596 Co579 1.993 . S
N596 N595 1.388 . S
N596 C597 1.346 . S
C597 N596 1.346 . S
C597 C598 1.396 . S
C597 C607 1.510 . S
C598 C594 1.401 . S
C598 C597 1.396 . S
C599 C594 1.499 . S
C599 H600 0.959 . S
C599 H601 0.960 . S
C599 H602 0.961 . S
H600 C599 0.959 . S
H601 C599 0.960 . S
H602 C599 0.961 . S
O603 Co578 1.967 . S
O603 C611 1.258 . S
O604 Co579 1.941 . S
O604 C611 1.266 . S
H605 C607 0.959 . S
H606 C607 0.961 . S
C607 C597 1.510 . S
C607 H605 0.959 . S
C607 H606 0.961 . S
C607 H608 0.960 . S
H608 C607 0.960 . S
H609 N589 0.862 . S
O610 Co578 1.920 . S
O610 C583 1.289 . S
C611 O603 1.258 . S
C611 O604 1.266 . S
Co612 O615 1.970 . S
Co612 N629 1.989 . S
Co612 O637 1.967 . S
Co612 O644 1.920 . S
Co613 O616 1.966 . S
Co613 N622 2.022 . S
Co613 N630 1.993 . S
Co613 O638 1.941 . S
C614 O615 1.258 . S
C614 O616 1.263 . S
O615 Co612 1.970 . S
O615 C614 1.258 . S
O616 Co613 1.966 . S
O616 C614 1.263 . S
C617 O618 1.235 . S
C617 O644 1.289 . S
O618 C617 1.235 . S
C619 C621 1.400 1_556 S
C619 N622 1.351 . S
C619 C624 1.501 1_556 S
C620 C621 1.387 1_556 S
C620 N623 1.341 . S
C621 C619 1.400 1_554 S
C621 C620 1.387 1_554 S
N622 Co613 2.022 . S
N622 C619 1.351 . S
N622 N623 1.365 . S
N623 C620 1.341 . S
N623 N622 1.365 . S
N623 H643 0.862 . S
C624 C619 1.501 1_554 S
C624 H625 0.961 1_554 S
C624 H626 0.961 . S
C624 H627 0.960 . S
H625 C624 0.961 1_556 S
H626 C624 0.961 . S
H627 C624 0.960 . S
C628 N629 1.342 . S
C628 C632 1.401 . S
C628 C633 1.499 . S
N629 Co612 1.989 . S
N629 C628 1.342 . S
N629 N630 1.388 . S
N630 Co613 1.993 . S
N630 N629 1.388 . S
N630 C631 1.346 . S
C631 N630 1.346 . S
C631 C632 1.396 . S
C631 C641 1.510 . S
C632 C628 1.401 . S
C632 C631 1.396 . S
C633 C628 1.499 . S
C633 H634 0.959 . S
C633 H635 0.960 . S
C633 H636 0.961 . S
H634 C633 0.959 . S
H635 C633 0.960 . S
H636 C633 0.961 . S
O637 Co612 1.967 . S
O637 C645 1.258 . S
O638 Co613 1.941 . S
O638 C645 1.266 . S
H639 C641 0.959 . S
H640 C641 0.961 . S
C641 C631 1.510 . S
C641 H639 0.959 . S
C641 H640 0.961 . S
C641 H642 0.960 . S
H642 C641 0.960 . S
H643 N623 0.862 . S
O644 Co612 1.920 . S
O644 C617 1.289 . S
C645 O637 1.258 . S
C645 O638 1.266 . S
Co646 O649 1.970 . S
Co646 N663 1.989 . S
Co646 O671 1.967 . S
Co646 O678 1.920 . S
Co647 O650 1.966 . S
Co647 N656 2.022 . S
Co647 N664 1.993 . S
Co647 O672 1.941 . S
C648 O649 1.258 . S
C648 O650 1.263 . S
O649 Co646 1.970 . S
O649 C648 1.258 . S
O650 Co647 1.966 . S
O650 C648 1.263 . S
C651 O652 1.235 . S
C651 O678 1.289 . S
O652 C651 1.235 . S
C653 C655 1.400 1_556 S
C653 N656 1.351 . S
C653 C658 1.501 1_556 S
C654 C655 1.387 1_556 S
C654 N657 1.341 . S
C655 C653 1.400 1_554 S
C655 C654 1.387 1_554 S
N656 Co647 2.022 . S
N656 C653 1.351 . S
N656 N657 1.365 . S
N657 C654 1.341 . S
N657 N656 1.365 . S
N657 H677 0.862 . S
C658 C653 1.501 1_554 S
C658 H659 0.961 1_554 S
C658 H660 0.961 . S
C658 H661 0.960 . S
H659 C658 0.961 1_556 S
H660 C658 0.961 . S
H661 C658 0.960 . S
C662 N663 1.342 . S
C662 C666 1.401 . S
C662 C667 1.499 . S
N663 Co646 1.989 . S
N663 C662 1.342 . S
N663 N664 1.388 . S
N664 Co647 1.993 . S
N664 N663 1.388 . S
N664 C665 1.346 . S
C665 N664 1.346 . S
C665 C666 1.396 . S
C665 C675 1.510 . S
C666 C662 1.401 . S
C666 C665 1.396 . S
C667 C662 1.499 . S
C667 H668 0.959 . S
C667 H669 0.960 . S
C667 H670 0.961 . S
H668 C667 0.959 . S
H669 C667 0.960 . S
H670 C667 0.961 . S
O671 Co646 1.967 . S
O671 C679 1.258 . S
O672 Co647 1.941 . S
O672 C679 1.266 . S
H673 C675 0.959 . S
H674 C675 0.961 . S
C675 C665 1.510 . S
C675 H673 0.959 . S
C675 H674 0.961 . S
C675 H676 0.960 . S
H676 C675 0.960 . S
H677 N657 0.862 . S
O678 Co646 1.920 . S
O678 C651 1.289 . S
C679 O671 1.258 . S
C679 O672 1.266 . S
Co680 O683 1.970 . S
Co680 N697 1.989 . S
Co680 O705 1.967 . S
Co680 O712 1.920 . S
Co681 O684 1.966 . S
Co681 N690 2.022 . S
Co681 N698 1.993 . S
Co681 O706 1.941 . S
C682 O683 1.258 . S
C682 O684 1.263 . S
O683 Co680 1.970 . S
O683 C682 1.258 . S
O684 Co681 1.966 . S
O684 C682 1.263 . S
C685 O686 1.235 . S
C685 O712 1.289 . S
O686 C685 1.235 . S
C687 C689 1.400 1_556 S
C687 N690 1.351 . S
C687 C692 1.501 1_556 S
C688 C689 1.387 1_556 S
C688 N691 1.341 . S
C689 C687 1.400 1_554 S
C689 C688 1.387 1_554 S
N690 Co681 2.022 . S
N690 C687 1.351 . S
N690 N691 1.365 . S
N691 C688 1.341 . S
N691 N690 1.365 . S
N691 H711 0.862 . S
C692 C687 1.501 1_554 S
C692 H693 0.961 1_554 S
C692 H694 0.961 . S
C692 H695 0.960 . S
H693 C692 0.961 1_556 S
H694 C692 0.961 . S
H695 C692 0.960 . S
C696 N697 1.342 . S
C696 C700 1.401 . S
C696 C701 1.499 . S
N697 Co680 1.989 . S
N697 C696 1.342 . S
N697 N698 1.388 . S
N698 Co681 1.993 . S
N698 N697 1.388 . S
N698 C699 1.346 . S
C699 N698 1.346 . S
C699 C700 1.396 . S
C699 C709 1.510 . S
C700 C696 1.401 . S
C700 C699 1.396 . S
C701 C696 1.499 . S
C701 H702 0.959 . S
C701 H703 0.960 . S
C701 H704 0.961 . S
H702 C701 0.959 . S
H703 C701 0.960 . S
H704 C701 0.961 . S
O705 Co680 1.967 . S
O705 C713 1.258 . S
O706 Co681 1.941 . S
O706 C713 1.266 . S
H707 C709 0.959 . S
H708 C709 0.961 . S
C709 C699 1.510 . S
C709 H707 0.959 . S
C709 H708 0.961 . S
C709 H710 0.960 . S
H710 C709 0.960 . S
H711 N691 0.862 . S
O712 Co680 1.920 . S
O712 C685 1.289 . S
C713 O705 1.258 . S
C713 O706 1.266 . S
Co714 O717 1.970 . S
Co714 N731 1.989 . S
Co714 O739 1.967 . S
Co714 O746 1.920 . S
Co715 O718 1.966 . S
Co715 N724 2.022 . S
Co715 N732 1.993 . S
Co715 O740 1.941 . S
C716 O717 1.258 . S
C716 O718 1.263 . S
O717 Co714 1.970 . S
O717 C716 1.258 . S
O718 Co715 1.966 . S
O718 C716 1.263 . S
C719 O720 1.235 . S
C719 O746 1.289 . S
O720 C719 1.235 . S
C721 C723 1.400 1_554 S
C721 N724 1.351 . S
C721 C726 1.501 1_554 S
C722 C723 1.387 1_554 S
C722 N725 1.341 . S
C723 C721 1.400 1_556 S
C723 C722 1.387 1_556 S
N724 Co715 2.022 . S
N724 C721 1.351 . S
N724 N725 1.365 . S
N725 C722 1.341 . S
N725 N724 1.365 . S
N725 H745 0.862 . S
C726 C721 1.501 1_556 S
C726 H727 0.961 1_556 S
C726 H728 0.961 . S
C726 H729 0.960 . S
H727 C726 0.961 1_554 S
H728 C726 0.961 . S
H729 C726 0.960 . S
C730 N731 1.342 . S
C730 C734 1.401 . S
C730 C735 1.499 . S
N731 Co714 1.989 . S
N731 C730 1.342 . S
N731 N732 1.388 . S
N732 Co715 1.993 . S
N732 N731 1.388 . S
N732 C733 1.346 . S
C733 N732 1.346 . S
C733 C734 1.396 . S
C733 C743 1.510 . S
C734 C730 1.401 . S
C734 C733 1.396 . S
C735 C730 1.499 . S
C735 H736 0.959 . S
C735 H737 0.960 . S
C735 H738 0.961 . S
H736 C735 0.959 . S
H737 C735 0.960 . S
H738 C735 0.961 . S
O739 Co714 1.967 . S
O739 C747 1.258 . S
O740 Co715 1.941 . S
O740 C747 1.266 . S
H741 C743 0.959 . S
H742 C743 0.961 . S
C743 C733 1.510 . S
C743 H741 0.959 . S
C743 H742 0.961 . S
C743 H744 0.960 . S
H744 C743 0.960 . S
H745 N725 0.862 . S
O746 Co714 1.920 . S
O746 C719 1.289 . S
C747 O739 1.258 . S
C747 O740 1.266 . S
Co748 O751 1.970 . S
Co748 N765 1.989 . S
Co748 O773 1.967 . S
Co748 O780 1.920 . S
Co749 O752 1.966 . S
Co749 N758 2.022 . S
Co749 N766 1.993 . S
Co749 O774 1.941 . S
C750 O751 1.258 . S
C750 O752 1.263 . S
O751 Co748 1.970 . S
O751 C750 1.258 . S
O752 Co749 1.966 . S
O752 C750 1.263 . S
C753 O754 1.235 . S
C753 O780 1.289 . S
O754 C753 1.235 . S
C755 C757 1.400 1_554 S
C755 N758 1.351 . S
C755 C760 1.501 1_554 S
C756 C757 1.387 1_554 S
C756 N759 1.341 . S
C757 C755 1.400 1_556 S
C757 C756 1.387 1_556 S
N758 Co749 2.022 . S
N758 C755 1.351 . S
N758 N759 1.365 . S
N759 C756 1.341 . S
N759 N758 1.365 . S
N759 H779 0.862 . S
C760 C755 1.501 1_556 S
C760 H761 0.961 1_556 S
C760 H762 0.961 . S
C760 H763 0.960 . S
H761 C760 0.961 1_554 S
H762 C760 0.961 . S
H763 C760 0.960 . S
C764 N765 1.342 . S
C764 C768 1.401 . S
C764 C769 1.499 . S
N765 Co748 1.989 . S
N765 C764 1.342 . S
N765 N766 1.388 . S
N766 Co749 1.993 . S
N766 N765 1.388 . S
N766 C767 1.346 . S
C767 N766 1.346 . S
C767 C768 1.396 . S
C767 C777 1.510 . S
C768 C764 1.401 . S
C768 C767 1.396 . S
C769 C764 1.499 . S
C769 H770 0.959 . S
C769 H771 0.960 . S
C769 H772 0.961 . S
H770 C769 0.959 . S
H771 C769 0.960 . S
H772 C769 0.961 . S
O773 Co748 1.967 . S
O773 C781 1.258 . S
O774 Co749 1.941 . S
O774 C781 1.266 . S
H775 C777 0.959 . S
H776 C777 0.961 . S
C777 C767 1.510 . S
C777 H775 0.959 . S
C777 H776 0.961 . S
C777 H778 0.960 . S
H778 C777 0.960 . S
H779 N759 0.862 . S
O780 Co748 1.920 . S
O780 C753 1.289 . S
C781 O773 1.258 . S
C781 O774 1.266 . S
Co782 O785 1.970 . S
Co782 N799 1.989 . S
Co782 O807 1.967 . S
Co782 O814 1.920 . S
Co783 O786 1.966 . S
Co783 N792 2.022 . S
Co783 N800 1.993 . S
Co783 O808 1.941 . S
C784 O785 1.258 . S
C784 O786 1.263 . S
O785 Co782 1.970 . S
O785 C784 1.258 . S
O786 Co783 1.966 . S
O786 C784 1.263 . S
C787 O788 1.235 . S
C787 O814 1.289 . S
O788 C787 1.235 . S
C789 C791 1.400 1_554 S
C789 N792 1.351 . S
C789 C794 1.501 1_554 S
C790 C791 1.387 1_554 S
C790 N793 1.341 . S
C791 C789 1.400 1_556 S
C791 C790 1.387 1_556 S
N792 Co783 2.022 . S
N792 C789 1.351 . S
N792 N793 1.365 . S
N793 C790 1.341 . S
N793 N792 1.365 . S
N793 H813 0.862 . S
C794 C789 1.501 1_556 S
C794 H795 0.961 1_556 S
C794 H796 0.961 . S
C794 H797 0.960 . S
H795 C794 0.961 1_554 S
H796 C794 0.961 . S
H797 C794 0.960 . S
C798 N799 1.342 . S
C798 C802 1.401 . S
C798 C803 1.499 . S
N799 Co782 1.989 . S
N799 C798 1.342 . S
N799 N800 1.388 . S
N800 Co783 1.993 . S
N800 N799 1.388 . S
N800 C801 1.346 . S
C801 N800 1.346 . S
C801 C802 1.396 . S
C801 C811 1.510 . S
C802 C798 1.401 . S
C802 C801 1.396 . S
C803 C798 1.499 . S
C803 H804 0.959 . S
C803 H805 0.960 . S
C803 H806 0.961 . S
H804 C803 0.959 . S
H805 C803 0.960 . S
H806 C803 0.961 . S
O807 Co782 1.967 . S
O807 C815 1.258 . S
O808 Co783 1.941 . S
O808 C815 1.266 . S
H809 C811 0.959 . S
H810 C811 0.961 . S
C811 C801 1.510 . S
C811 H809 0.959 . S
C811 H810 0.961 . S
C811 H812 0.960 . S
H812 C811 0.960 . S
H813 N793 0.862 . S
O814 Co782 1.920 . S
O814 C787 1.289 . S
C815 O807 1.258 . S
C815 O808 1.266 . S
Co816 O819 1.970 . S
Co816 N833 1.989 . S
Co816 O841 1.967 . S
Co816 O848 1.920 . S
Co817 O820 1.966 . S
Co817 N826 2.022 . S
Co817 N834 1.993 . S
Co817 O842 1.941 . S
C818 O819 1.258 . S
C818 O820 1.263 . S
O819 Co816 1.970 . S
O819 C818 1.258 . S
O820 Co817 1.966 . S
O820 C818 1.263 . S
C821 O822 1.235 . S
C821 O848 1.289 . S
O822 C821 1.235 . S
C823 C825 1.400 . S
C823 N826 1.351 . S
C823 C828 1.501 . S
C824 C825 1.387 . S
C824 N827 1.341 . S
C825 C823 1.400 . S
C825 C824 1.387 . S
N826 Co817 2.022 . S
N826 C823 1.351 . S
N826 N827 1.365 . S
N827 C824 1.341 . S
N827 N826 1.365 . S
N827 H847 0.862 . S
C828 C823 1.501 . S
C828 H829 0.961 . S
C828 H830 0.961 . S
C828 H831 0.960 . S
H829 C828 0.961 . S
H830 C828 0.961 . S
H831 C828 0.960 . S
C832 N833 1.342 . S
C832 C836 1.401 . S
C832 C837 1.499 . S
N833 Co816 1.989 . S
N833 C832 1.342 . S
N833 N834 1.388 . S
N834 Co817 1.993 . S
N834 N833 1.388 . S
N834 C835 1.346 . S
C835 N834 1.346 . S
C835 C836 1.396 . S
C835 C845 1.510 . S
C836 C832 1.401 . S
C836 C835 1.396 . S
C837 C832 1.499 . S
C837 H838 0.959 . S
C837 H839 0.960 . S
C837 H840 0.961 . S
H838 C837 0.959 . S
H839 C837 0.960 . S
H840 C837 0.961 . S
O841 Co816 1.967 . S
O841 C849 1.258 . S
O842 Co817 1.941 . S
O842 C849 1.266 . S
H843 C845 0.959 . S
H844 C845 0.961 . S
C845 C835 1.510 . S
C845 H843 0.959 . S
C845 H844 0.961 . S
C845 H846 0.960 . S
H846 C845 0.960 . S
H847 N827 0.862 . S
O848 Co816 1.920 . S
O848 C821 1.289 . S
C849 O841 1.258 . S
C849 O842 1.266 . S
Co850 O853 1.970 . S
Co850 N867 1.989 . S
Co850 O875 1.967 . S
Co850 O882 1.920 . S
Co851 O854 1.966 . S
Co851 N860 2.022 . S
Co851 N868 1.993 . S
Co851 O876 1.941 . S
C852 O853 1.258 . S
C852 O854 1.263 . S
O853 Co850 1.970 . S
O853 C852 1.258 . S
O854 Co851 1.966 . S
O854 C852 1.263 . S
C855 O856 1.235 . S
C855 O882 1.289 . S
O856 C855 1.235 . S
C857 C859 1.400 . S
C857 N860 1.351 . S
C857 C862 1.501 . S
C858 C859 1.387 . S
C858 N861 1.341 . S
C859 C857 1.400 . S
C859 C858 1.387 . S
N860 Co851 2.022 . S
N860 C857 1.351 . S
N860 N861 1.365 . S
N861 C858 1.341 . S
N861 N860 1.365 . S
N861 H881 0.862 . S
C862 C857 1.501 . S
C862 H863 0.961 . S
C862 H864 0.961 . S
C862 H865 0.960 . S
H863 C862 0.961 . S
H864 C862 0.961 . S
H865 C862 0.960 . S
C866 N867 1.342 . S
C866 C870 1.401 . S
C866 C871 1.499 . S
N867 Co850 1.989 . S
N867 C866 1.342 . S
N867 N868 1.388 . S
N868 Co851 1.993 . S
N868 N867 1.388 . S
N868 C869 1.346 . S
C869 N868 1.346 . S
C869 C870 1.396 . S
C869 C879 1.510 . S
C870 C866 1.401 . S
C870 C869 1.396 . S
C871 C866 1.499 . S
C871 H872 0.959 . S
C871 H873 0.960 . S
C871 H874 0.961 . S
H872 C871 0.959 . S
H873 C871 0.960 . S
H874 C871 0.961 . S
O875 Co850 1.967 . S
O875 C883 1.258 . S
O876 Co851 1.941 . S
O876 C883 1.266 . S
H877 C879 0.959 . S
H878 C879 0.961 . S
C879 C869 1.510 . S
C879 H877 0.959 . S
C879 H878 0.961 . S
C879 H880 0.960 . S
H880 C879 0.960 . S
H881 N861 0.862 . S
O882 Co850 1.920 . S
O882 C855 1.289 . S
C883 O875 1.258 . S
C883 O876 1.266 . S
Co884 O887 1.970 . S
Co884 N901 1.989 . S
Co884 O909 1.967 . S
Co884 O916 1.920 . S
Co885 O888 1.966 . S
Co885 N894 2.022 . S
Co885 N902 1.993 . S
Co885 O910 1.941 . S
C886 O887 1.258 . S
C886 O888 1.263 . S
O887 Co884 1.970 . S
O887 C886 1.258 . S
O888 Co885 1.966 . S
O888 C886 1.263 . S
C889 O890 1.235 . S
C889 O916 1.289 . S
O890 C889 1.235 . S
C891 C893 1.400 . S
C891 N894 1.351 . S
C891 C896 1.501 . S
C892 C893 1.387 . S
C892 N895 1.341 . S
C893 C891 1.400 . S
C893 C892 1.387 . S
N894 Co885 2.022 . S
N894 C891 1.351 . S
N894 N895 1.365 . S
N895 C892 1.341 . S
N895 N894 1.365 . S
N895 H915 0.862 . S
C896 C891 1.501 . S
C896 H897 0.961 . S
C896 H898 0.961 . S
C896 H899 0.960 . S
H897 C896 0.961 . S
H898 C896 0.961 . S
H899 C896 0.960 . S
C900 N901 1.342 . S
C900 C904 1.401 . S
C900 C905 1.499 . S
N901 Co884 1.989 . S
N901 C900 1.342 . S
N901 N902 1.388 . S
N902 Co885 1.993 . S
N902 N901 1.388 . S
N902 C903 1.346 . S
C903 N902 1.346 . S
C903 C904 1.396 . S
C903 C913 1.510 . S
C904 C900 1.401 . S
C904 C903 1.396 . S
C905 C900 1.499 . S
C905 H906 0.959 . S
C905 H907 0.960 . S
C905 H908 0.961 . S
H906 C905 0.959 . S
H907 C905 0.960 . S
H908 C905 0.961 . S
O909 Co884 1.967 . S
O909 C917 1.258 . S
O910 Co885 1.941 . S
O910 C917 1.266 . S
H911 C913 0.959 . S
H912 C913 0.961 . S
C913 C903 1.510 . S
C913 H911 0.959 . S
C913 H912 0.961 . S
C913 H914 0.960 . S
H914 C913 0.960 . S
H915 N895 0.862 . S
O916 Co884 1.920 . S
O916 C889 1.289 . S
C917 O909 1.258 . S
C917 O910 1.266 . S
Co918 O921 1.970 . S
Co918 N935 1.989 . S
Co918 O943 1.967 . S
Co918 O950 1.920 . S
Co919 O922 1.966 . S
Co919 N928 2.022 . S
Co919 N936 1.993 . S
Co919 O944 1.941 . S
C920 O921 1.258 . S
C920 O922 1.263 . S
O921 Co918 1.970 . S
O921 C920 1.258 . S
O922 Co919 1.966 . S
O922 C920 1.263 . S
C923 O924 1.235 . S
C923 O950 1.289 . S
O924 C923 1.235 . S
C925 C927 1.400 . S
C925 N928 1.351 . S
C925 C930 1.501 . S
C926 C927 1.387 . S
C926 N929 1.341 . S
C927 C925 1.400 . S
C927 C926 1.387 . S
N928 Co919 2.022 . S
N928 C925 1.351 . S
N928 N929 1.365 . S
N929 C926 1.341 . S
N929 N928 1.365 . S
N929 H949 0.862 . S
C930 C925 1.501 . S
C930 H931 0.961 . S
C930 H932 0.961 . S
C930 H933 0.960 . S
H931 C930 0.961 . S
H932 C930 0.961 . S
H933 C930 0.960 . S
C934 N935 1.342 . S
C934 C938 1.401 . S
C934 C939 1.499 . S
N935 Co918 1.989 . S
N935 C934 1.342 . S
N935 N936 1.388 . S
N936 Co919 1.993 . S
N936 N935 1.388 . S
N936 C937 1.346 . S
C937 N936 1.346 . S
C937 C938 1.396 . S
C937 C947 1.510 . S
C938 C934 1.401 . S
C938 C937 1.396 . S
C939 C934 1.499 . S
C939 H940 0.959 . S
C939 H941 0.960 . S
C939 H942 0.961 . S
H940 C939 0.959 . S
H941 C939 0.960 . S
H942 C939 0.961 . S
O943 Co918 1.967 . S
O943 C951 1.258 . S
O944 Co919 1.941 . S
O944 C951 1.266 . S
H945 C947 0.959 . S
H946 C947 0.961 . S
C947 C937 1.510 . S
C947 H945 0.959 . S
C947 H946 0.961 . S
C947 H948 0.960 . S
H948 C947 0.960 . S
H949 N929 0.862 . S
O950 Co918 1.920 . S
O950 C923 1.289 . S
C951 O943 1.258 . S
C951 O944 1.266 . S
Co952 O955 1.970 . S
Co952 N969 1.989 . S
Co952 O977 1.967 . S
Co952 O984 1.920 . S
Co953 O956 1.966 . S
Co953 N962 2.022 . S
Co953 N970 1.993 . S
Co953 O978 1.941 . S
C954 O955 1.258 . S
C954 O956 1.263 . S
O955 Co952 1.970 . S
O955 C954 1.258 . S
O956 Co953 1.966 . S
O956 C954 1.263 . S
C957 O958 1.235 . S
C957 O984 1.289 . S
O958 C957 1.235 . S
C959 C961 1.400 . S
C959 N962 1.351 . S
C959 C964 1.501 . S
C960 C961 1.387 . S
C960 N963 1.341 . S
C961 C959 1.400 . S
C961 C960 1.387 . S
N962 Co953 2.022 . S
N962 C959 1.351 . S
N962 N963 1.365 . S
N963 C960 1.341 . S
N963 N962 1.365 . S
N963 H983 0.862 . S
C964 C959 1.501 . S
C964 H965 0.961 . S
C964 H966 0.961 . S
C964 H967 0.960 . S
H965 C964 0.961 . S
H966 C964 0.961 . S
H967 C964 0.960 . S
C968 N969 1.342 . S
C968 C972 1.401 . S
C968 C973 1.499 . S
N969 Co952 1.989 . S
N969 C968 1.342 . S
N969 N970 1.388 . S
N970 Co953 1.993 . S
N970 N969 1.388 . S
N970 C971 1.346 . S
C971 N970 1.346 . S
C971 C972 1.396 . S
C971 C981 1.510 . S
C972 C968 1.401 . S
C972 C971 1.396 . S
C973 C968 1.499 . S
C973 H974 0.959 . S
C973 H975 0.960 . S
C973 H976 0.961 . S
H974 C973 0.959 . S
H975 C973 0.960 . S
H976 C973 0.961 . S
O977 Co952 1.967 . S
O977 C985 1.258 . S
O978 Co953 1.941 . S
O978 C985 1.266 . S
H979 C981 0.959 . S
H980 C981 0.961 . S
C981 C971 1.510 . S
C981 H979 0.959 . S
C981 H980 0.961 . S
C981 H982 0.960 . S
H982 C981 0.960 . S
H983 N963 0.862 . S
O984 Co952 1.920 . S
O984 C957 1.289 . S
C985 O977 1.258 . S
C985 O978 1.266 . S
Co986 O989 1.970 . S
Co986 N1003 1.989 . S
Co986 O1011 1.967 . S
Co986 O1018 1.920 . S
Co987 O990 1.966 . S
Co987 N996 2.022 . S
Co987 N1004 1.993 . S
Co987 O1012 1.941 . S
C988 O989 1.258 . S
C988 O990 1.263 . S
O989 Co986 1.970 . S
O989 C988 1.258 . S
O990 Co987 1.966 . S
O990 C988 1.263 . S
C991 O992 1.235 . S
C991 O1018 1.289 . S
O992 C991 1.235 . S
C993 C995 1.400 . S
C993 N996 1.351 . S
C993 C998 1.501 . S
C994 C995 1.387 . S
C994 N997 1.341 . S
C995 C993 1.400 . S
C995 C994 1.387 . S
N996 Co987 2.022 . S
N996 C993 1.351 . S
N996 N997 1.365 . S
N997 C994 1.341 . S
N997 N996 1.365 . S
N997 H1017 0.862 . S
C998 C993 1.501 . S
C998 H999 0.961 . S
C998 H1000 0.961 . S
C998 H1001 0.960 . S
H999 C998 0.961 . S
H1000 C998 0.961 . S
H1001 C998 0.960 . S
C1002 N1003 1.342 . S
C1002 C1006 1.401 . S
C1002 C1007 1.499 . S
N1003 Co986 1.989 . S
N1003 C1002 1.342 . S
N1003 N1004 1.388 . S
N1004 Co987 1.993 . S
N1004 N1003 1.388 . S
N1004 C1005 1.346 . S
C1005 N1004 1.346 . S
C1005 C1006 1.396 . S
C1005 C1015 1.510 . S
C1006 C1002 1.401 . S
C1006 C1005 1.396 . S
C1007 C1002 1.499 . S
C1007 H1008 0.959 . S
C1007 H1009 0.960 . S
C1007 H1010 0.961 . S
H1008 C1007 0.959 . S
H1009 C1007 0.960 . S
H1010 C1007 0.961 . S
O1011 Co986 1.967 . S
O1011 C1019 1.258 . S
O1012 Co987 1.941 . S
O1012 C1019 1.266 . S
H1013 C1015 0.959 . S
H1014 C1015 0.961 . S
C1015 C1005 1.510 . S
C1015 H1013 0.959 . S
C1015 H1014 0.961 . S
C1015 H1016 0.960 . S
H1016 C1015 0.960 . S
H1017 N997 0.862 . S
O1018 Co986 1.920 . S
O1018 C991 1.289 . S
C1019 O1011 1.258 . S
C1019 O1012 1.266 . S
Co1020 O1023 1.970 . S
Co1020 N1037 1.989 . S
Co1020 O1045 1.967 . S
Co1020 O1052 1.920 . S
Co1021 O1024 1.966 . S
Co1021 N1030 2.022 . S
Co1021 N1038 1.993 . S
Co1021 O1046 1.941 . S
C1022 O1023 1.258 . S
C1022 O1024 1.263 . S
O1023 Co1020 1.970 . S
O1023 C1022 1.258 . S
O1024 Co1021 1.966 . S
O1024 C1022 1.263 . S
C1025 O1026 1.235 . S
C1025 O1052 1.289 . S
O1026 C1025 1.235 . S
C1027 C1029 1.400 . S
C1027 N1030 1.351 . S
C1027 C1032 1.501 . S
C1028 C1029 1.387 . S
C1028 N1031 1.341 . S
C1029 C1027 1.400 . S
C1029 C1028 1.387 . S
N1030 Co1021 2.022 . S
N1030 C1027 1.351 . S
N1030 N1031 1.365 . S
N1031 C1028 1.341 . S
N1031 N1030 1.365 . S
N1031 H1051 0.862 . S
C1032 C1027 1.501 . S
C1032 H1033 0.961 . S
C1032 H1034 0.961 . S
C1032 H1035 0.960 . S
H1033 C1032 0.961 . S
H1034 C1032 0.961 . S
H1035 C1032 0.960 . S
C1036 N1037 1.342 . S
C1036 C1040 1.401 . S
C1036 C1041 1.499 . S
N1037 Co1020 1.989 . S
N1037 C1036 1.342 . S
N1037 N1038 1.388 . S
N1038 Co1021 1.993 . S
N1038 N1037 1.388 . S
N1038 C1039 1.346 . S
C1039 N1038 1.346 . S
C1039 C1040 1.396 . S
C1039 C1049 1.510 . S
C1040 C1036 1.401 . S
C1040 C1039 1.396 . S
C1041 C1036 1.499 . S
C1041 H1042 0.959 . S
C1041 H1043 0.960 . S
C1041 H1044 0.961 . S
H1042 C1041 0.959 . S
H1043 C1041 0.960 . S
H1044 C1041 0.961 . S
O1045 Co1020 1.967 . S
O1045 C1053 1.258 . S
O1046 Co1021 1.941 . S
O1046 C1053 1.266 . S
H1047 C1049 0.959 . S
H1048 C1049 0.961 . S
C1049 C1039 1.510 . S
C1049 H1047 0.959 . S
C1049 H1048 0.961 . S
C1049 H1050 0.960 . S
H1050 C1049 0.960 . S
H1051 N1031 0.862 . S
O1052 Co1020 1.920 . S
O1052 C1025 1.289 . S
C1053 O1045 1.258 . S
C1053 O1046 1.266 . S
Co1054 O1057 1.970 . S
Co1054 N1071 1.989 . S
Co1054 O1079 1.967 . S
Co1054 O1086 1.920 . S
Co1055 O1058 1.966 . S
Co1055 N1064 2.022 . S
Co1055 N1072 1.993 . S
Co1055 O1080 1.941 . S
C1056 O1057 1.258 . S
C1056 O1058 1.263 . S
O1057 Co1054 1.970 . S
O1057 C1056 1.258 . S
O1058 Co1055 1.966 . S
O1058 C1056 1.263 . S
C1059 O1060 1.235 . S
C1059 O1086 1.289 . S
O1060 C1059 1.235 . S
C1061 C1063 1.400 . S
C1061 N1064 1.351 . S
C1061 C1066 1.501 . S
C1062 C1063 1.387 . S
C1062 N1065 1.341 . S
C1063 C1061 1.400 . S
C1063 C1062 1.387 . S
N1064 Co1055 2.022 . S
N1064 C1061 1.351 . S
N1064 N1065 1.365 . S
N1065 C1062 1.341 . S
N1065 N1064 1.365 . S
N1065 H1085 0.862 . S
C1066 C1061 1.501 . S
C1066 H1067 0.961 . S
C1066 H1068 0.961 . S
C1066 H1069 0.960 . S
H1067 C1066 0.961 . S
H1068 C1066 0.961 . S
H1069 C1066 0.960 . S
C1070 N1071 1.342 . S
C1070 C1074 1.401 . S
C1070 C1075 1.499 . S
N1071 Co1054 1.989 . S
N1071 C1070 1.342 . S
N1071 N1072 1.388 . S
N1072 Co1055 1.993 . S
N1072 N1071 1.388 . S
N1072 C1073 1.346 . S
C1073 N1072 1.346 . S
C1073 C1074 1.396 . S
C1073 C1083 1.510 . S
C1074 C1070 1.401 . S
C1074 C1073 1.396 . S
C1075 C1070 1.499 . S
C1075 H1076 0.959 . S
C1075 H1077 0.960 . S
C1075 H1078 0.961 . S
H1076 C1075 0.959 . S
H1077 C1075 0.960 . S
H1078 C1075 0.961 . S
O1079 Co1054 1.967 . S
O1079 C1087 1.258 . S
O1080 Co1055 1.941 . S
O1080 C1087 1.266 . S
H1081 C1083 0.959 . S
H1082 C1083 0.961 . S
C1083 C1073 1.510 . S
C1083 H1081 0.959 . S
C1083 H1082 0.961 . S
C1083 H1084 0.960 . S
H1084 C1083 0.960 . S
H1085 N1065 0.862 . S
O1086 Co1054 1.920 . S
O1086 C1059 1.289 . S
C1087 O1079 1.258 . S
C1087 O1080 1.266 . S
Co1088 O1091 1.970 . S
Co1088 N1105 1.989 . S
Co1088 O1113 1.967 . S
Co1088 O1120 1.920 . S
Co1089 O1092 1.966 . S
Co1089 N1098 2.022 . S
Co1089 N1106 1.993 . S
Co1089 O1114 1.941 . S
C1090 O1091 1.258 . S
C1090 O1092 1.263 . S
O1091 Co1088 1.970 . S
O1091 C1090 1.258 . S
O1092 Co1089 1.966 . S
O1092 C1090 1.263 . S
C1093 O1094 1.235 . S
C1093 O1120 1.289 . S
O1094 C1093 1.235 . S
C1095 C1097 1.400 . S
C1095 N1098 1.351 . S
C1095 C1100 1.501 . S
C1096 C1097 1.387 . S
C1096 N1099 1.341 . S
C1097 C1095 1.400 . S
C1097 C1096 1.387 . S
N1098 Co1089 2.022 . S
N1098 C1095 1.351 . S
N1098 N1099 1.365 . S
N1099 C1096 1.341 . S
N1099 N1098 1.365 . S
N1099 H1119 0.862 . S
C1100 C1095 1.501 . S
C1100 H1101 0.961 . S
C1100 H1102 0.961 . S
C1100 H1103 0.960 . S
H1101 C1100 0.961 . S
H1102 C1100 0.961 . S
H1103 C1100 0.960 . S
C1104 N1105 1.342 . S
C1104 C1108 1.401 . S
C1104 C1109 1.499 . S
N1105 Co1088 1.989 . S
N1105 C1104 1.342 . S
N1105 N1106 1.388 . S
N1106 Co1089 1.993 . S
N1106 N1105 1.388 . S
N1106 C1107 1.346 . S
C1107 N1106 1.346 . S
C1107 C1108 1.396 . S
C1107 C1117 1.510 . S
C1108 C1104 1.401 . S
C1108 C1107 1.396 . S
C1109 C1104 1.499 . S
C1109 H1110 0.959 . S
C1109 H1111 0.960 . S
C1109 H1112 0.961 . S
H1110 C1109 0.959 . S
H1111 C1109 0.960 . S
H1112 C1109 0.961 . S
O1113 Co1088 1.967 . S
O1113 C1121 1.258 . S
O1114 Co1089 1.941 . S
O1114 C1121 1.266 . S
H1115 C1117 0.959 . S
H1116 C1117 0.961 . S
C1117 C1107 1.510 . S
C1117 H1115 0.959 . S
C1117 H1116 0.961 . S
C1117 H1118 0.960 . S
H1118 C1117 0.960 . S
H1119 N1099 0.862 . S
O1120 Co1088 1.920 . S
O1120 C1093 1.289 . S
C1121 O1113 1.258 . S
C1121 O1114 1.266 . S
Co1122 O1125 1.970 . S
Co1122 N1139 1.989 . S
Co1122 O1147 1.967 . S
Co1122 O1154 1.920 . S
Co1123 O1126 1.966 . S
Co1123 N1132 2.022 . S
Co1123 N1140 1.993 . S
Co1123 O1148 1.941 . S
C1124 O1125 1.258 . S
C1124 O1126 1.263 . S
O1125 Co1122 1.970 . S
O1125 C1124 1.258 . S
O1126 Co1123 1.966 . S
O1126 C1124 1.263 . S
C1127 O1128 1.235 . S
C1127 O1154 1.289 . S
O1128 C1127 1.235 . S
C1129 C1131 1.400 . S
C1129 N1132 1.351 . S
C1129 C1134 1.501 . S
C1130 C1131 1.387 . S
C1130 N1133 1.341 . S
C1131 C1129 1.400 . S
C1131 C1130 1.387 . S
N1132 Co1123 2.022 . S
N1132 C1129 1.351 . S
N1132 N1133 1.365 . S
N1133 C1130 1.341 . S
N1133 N1132 1.365 . S
N1133 H1153 0.862 . S
C1134 C1129 1.501 . S
C1134 H1135 0.961 . S
C1134 H1136 0.961 . S
C1134 H1137 0.960 . S
H1135 C1134 0.961 . S
H1136 C1134 0.961 . S
H1137 C1134 0.960 . S
C1138 N1139 1.342 . S
C1138 C1142 1.401 . S
C1138 C1143 1.499 . S
N1139 Co1122 1.989 . S
N1139 C1138 1.342 . S
N1139 N1140 1.388 . S
N1140 Co1123 1.993 . S
N1140 N1139 1.388 . S
N1140 C1141 1.346 . S
C1141 N1140 1.346 . S
C1141 C1142 1.396 . S
C1141 C1151 1.510 . S
C1142 C1138 1.401 . S
C1142 C1141 1.396 . S
C1143 C1138 1.499 . S
C1143 H1144 0.959 . S
C1143 H1145 0.960 . S
C1143 H1146 0.961 . S
H1144 C1143 0.959 . S
H1145 C1143 0.960 . S
H1146 C1143 0.961 . S
O1147 Co1122 1.967 . S
O1147 C1155 1.258 . S
O1148 Co1123 1.941 . S
O1148 C1155 1.266 . S
H1149 C1151 0.959 . S
H1150 C1151 0.961 . S
C1151 C1141 1.510 . S
C1151 H1149 0.959 . S
C1151 H1150 0.961 . S
C1151 H1152 0.960 . S
H1152 C1151 0.960 . S
H1153 N1133 0.862 . S
O1154 Co1122 1.920 . S
O1154 C1127 1.289 . S
C1155 O1147 1.258 . S
C1155 O1148 1.266 . S
Co1156 O1159 1.970 . S
Co1156 N1173 1.989 . S
Co1156 O1181 1.967 . S
Co1156 O1188 1.920 . S
Co1157 O1160 1.966 . S
Co1157 N1166 2.022 . S
Co1157 N1174 1.993 . S
Co1157 O1182 1.941 . S
C1158 O1159 1.258 . S
C1158 O1160 1.263 . S
O1159 Co1156 1.970 . S
O1159 C1158 1.258 . S
O1160 Co1157 1.966 . S
O1160 C1158 1.263 . S
C1161 O1162 1.235 . S
C1161 O1188 1.289 . S
O1162 C1161 1.235 . S
C1163 C1165 1.400 . S
C1163 N1166 1.351 . S
C1163 C1168 1.501 . S
C1164 C1165 1.387 . S
C1164 N1167 1.341 . S
C1165 C1163 1.400 . S
C1165 C1164 1.387 . S
N1166 Co1157 2.022 . S
N1166 C1163 1.351 . S
N1166 N1167 1.365 . S
N1167 C1164 1.341 . S
N1167 N1166 1.365 . S
N1167 H1187 0.862 . S
C1168 C1163 1.501 . S
C1168 H1169 0.961 . S
C1168 H1170 0.961 . S
C1168 H1171 0.960 . S
H1169 C1168 0.961 . S
H1170 C1168 0.961 . S
H1171 C1168 0.960 . S
C1172 N1173 1.342 . S
C1172 C1176 1.401 . S
C1172 C1177 1.499 . S
N1173 Co1156 1.989 . S
N1173 C1172 1.342 . S
N1173 N1174 1.388 . S
N1174 Co1157 1.993 . S
N1174 N1173 1.388 . S
N1174 C1175 1.346 . S
C1175 N1174 1.346 . S
C1175 C1176 1.396 . S
C1175 C1185 1.510 . S
C1176 C1172 1.401 . S
C1176 C1175 1.396 . S
C1177 C1172 1.499 . S
C1177 H1178 0.959 . S
C1177 H1179 0.960 . S
C1177 H1180 0.961 . S
H1178 C1177 0.959 . S
H1179 C1177 0.960 . S
H1180 C1177 0.961 . S
O1181 Co1156 1.967 . S
O1181 C1189 1.258 . S
O1182 Co1157 1.941 . S
O1182 C1189 1.266 . S
H1183 C1185 0.959 . S
H1184 C1185 0.961 . S
C1185 C1175 1.510 . S
C1185 H1183 0.959 . S
C1185 H1184 0.961 . S
C1185 H1186 0.960 . S
H1186 C1185 0.960 . S
H1187 N1167 0.862 . S
O1188 Co1156 1.920 . S
O1188 C1161 1.289 . S
C1189 O1181 1.258 . S
C1189 O1182 1.266 . S
Co1190 O1193 1.970 . S
Co1190 N1207 1.989 . S
Co1190 O1215 1.967 . S
Co1190 O1222 1.920 . S
Co1191 O1194 1.966 . S
Co1191 N1200 2.022 . S
Co1191 N1208 1.993 . S
Co1191 O1216 1.941 . S
C1192 O1193 1.258 . S
C1192 O1194 1.263 . S
O1193 Co1190 1.970 . S
O1193 C1192 1.258 . S
O1194 Co1191 1.966 . S
O1194 C1192 1.263 . S
C1195 O1196 1.235 . S
C1195 O1222 1.289 . S
O1196 C1195 1.235 . S
C1197 C1199 1.400 . S
C1197 N1200 1.351 . S
C1197 C1202 1.501 . S
C1198 C1199 1.387 . S
C1198 N1201 1.341 . S
C1199 C1197 1.400 . S
C1199 C1198 1.387 . S
N1200 Co1191 2.022 . S
N1200 C1197 1.351 . S
N1200 N1201 1.365 . S
N1201 C1198 1.341 . S
N1201 N1200 1.365 . S
N1201 H1221 0.862 . S
C1202 C1197 1.501 . S
C1202 H1203 0.961 . S
C1202 H1204 0.961 . S
C1202 H1205 0.960 . S
H1203 C1202 0.961 . S
H1204 C1202 0.961 . S
H1205 C1202 0.960 . S
C1206 N1207 1.342 . S
C1206 C1210 1.401 . S
C1206 C1211 1.499 . S
N1207 Co1190 1.989 . S
N1207 C1206 1.342 . S
N1207 N1208 1.388 . S
N1208 Co1191 1.993 . S
N1208 N1207 1.388 . S
N1208 C1209 1.346 . S
C1209 N1208 1.346 . S
C1209 C1210 1.396 . S
C1209 C1219 1.510 . S
C1210 C1206 1.401 . S
C1210 C1209 1.396 . S
C1211 C1206 1.499 . S
C1211 H1212 0.959 . S
C1211 H1213 0.960 . S
C1211 H1214 0.961 . S
H1212 C1211 0.959 . S
H1213 C1211 0.960 . S
H1214 C1211 0.961 . S
O1215 Co1190 1.967 . S
O1215 C1223 1.258 . S
O1216 Co1191 1.941 . S
O1216 C1223 1.266 . S
H1217 C1219 0.959 . S
H1218 C1219 0.961 . S
C1219 C1209 1.510 . S
C1219 H1217 0.959 . S
C1219 H1218 0.961 . S
C1219 H1220 0.960 . S
H1220 C1219 0.960 . S
H1221 N1201 0.862 . S
O1222 Co1190 1.920 . S
O1222 C1195 1.289 . S
C1223 O1215 1.258 . S
C1223 O1216 1.266 . S
Co1224 O1227 1.970 . S
Co1224 N1241 1.989 . S
Co1224 O1249 1.967 . S
Co1224 O1256 1.920 . S
Co1225 O1228 1.966 . S
Co1225 N1234 2.022 . S
Co1225 N1242 1.993 . S
Co1225 O1250 1.941 . S
C1226 O1227 1.258 . S
C1226 O1228 1.263 . S
O1227 Co1224 1.970 . S
O1227 C1226 1.258 . S
O1228 Co1225 1.966 . S
O1228 C1226 1.263 . S
C1229 O1230 1.235 . S
C1229 O1256 1.289 . S
O1230 C1229 1.235 . S
C1231 C1233 1.400 . S
C1231 N1234 1.351 . S
C1231 C1236 1.501 . S
C1232 C1233 1.387 . S
C1232 N1235 1.341 . S
C1233 C1231 1.400 . S
C1233 C1232 1.387 . S
N1234 Co1225 2.022 . S
N1234 C1231 1.351 . S
N1234 N1235 1.365 . S
N1235 C1232 1.341 . S
N1235 N1234 1.365 . S
N1235 H1255 0.862 . S
C1236 C1231 1.501 . S
C1236 H1237 0.961 . S
C1236 H1238 0.961 . S
C1236 H1239 0.960 . S
H1237 C1236 0.961 . S
H1238 C1236 0.961 . S
H1239 C1236 0.960 . S
C1240 N1241 1.342 . S
C1240 C1244 1.401 . S
C1240 C1245 1.499 . S
N1241 Co1224 1.989 . S
N1241 C1240 1.342 . S
N1241 N1242 1.388 . S
N1242 Co1225 1.993 . S
N1242 N1241 1.388 . S
N1242 C1243 1.346 . S
C1243 N1242 1.346 . S
C1243 C1244 1.396 . S
C1243 C1253 1.510 . S
C1244 C1240 1.401 . S
C1244 C1243 1.396 . S
C1245 C1240 1.499 . S
C1245 H1246 0.959 . S
C1245 H1247 0.960 . S
C1245 H1248 0.961 . S
H1246 C1245 0.959 . S
H1247 C1245 0.960 . S
H1248 C1245 0.961 . S
O1249 Co1224 1.967 . S
O1249 C1257 1.258 . S
O1250 Co1225 1.941 . S
O1250 C1257 1.266 . S
H1251 C1253 0.959 . S
H1252 C1253 0.961 . S
C1253 C1243 1.510 . S
C1253 H1251 0.959 . S
C1253 H1252 0.961 . S
C1253 H1254 0.960 . S
H1254 C1253 0.960 . S
H1255 N1235 0.862 . S
O1256 Co1224 1.920 . S
O1256 C1229 1.289 . S
C1257 O1249 1.258 . S
C1257 O1250 1.266 . S
Co1258 O1261 1.970 . S
Co1258 N1275 1.989 . S
Co1258 O1283 1.967 . S
Co1258 O1290 1.920 . S
Co1259 O1262 1.966 . S
Co1259 N1268 2.022 . S
Co1259 N1276 1.993 . S
Co1259 O1284 1.941 . S
C1260 O1261 1.258 . S
C1260 O1262 1.263 . S
O1261 Co1258 1.970 . S
O1261 C1260 1.258 . S
O1262 Co1259 1.966 . S
O1262 C1260 1.263 . S
C1263 O1264 1.235 . S
C1263 O1290 1.289 . S
O1264 C1263 1.235 . S
C1265 C1267 1.400 . S
C1265 N1268 1.351 . S
C1265 C1270 1.501 . S
C1266 C1267 1.387 . S
C1266 N1269 1.341 . S
C1267 C1265 1.400 . S
C1267 C1266 1.387 . S
N1268 Co1259 2.022 . S
N1268 C1265 1.351 . S
N1268 N1269 1.365 . S
N1269 C1266 1.341 . S
N1269 N1268 1.365 . S
N1269 H1289 0.862 . S
C1270 C1265 1.501 . S
C1270 H1271 0.961 . S
C1270 H1272 0.961 . S
C1270 H1273 0.960 . S
H1271 C1270 0.961 . S
H1272 C1270 0.961 . S
H1273 C1270 0.960 . S
C1274 N1275 1.342 . S
C1274 C1278 1.401 . S
C1274 C1279 1.499 . S
N1275 Co1258 1.989 . S
N1275 C1274 1.342 . S
N1275 N1276 1.388 . S
N1276 Co1259 1.993 . S
N1276 N1275 1.388 . S
N1276 C1277 1.346 . S
C1277 N1276 1.346 . S
C1277 C1278 1.396 . S
C1277 C1287 1.510 . S
C1278 C1274 1.401 . S
C1278 C1277 1.396 . S
C1279 C1274 1.499 . S
C1279 H1280 0.959 . S
C1279 H1281 0.960 . S
C1279 H1282 0.961 . S
H1280 C1279 0.959 . S
H1281 C1279 0.960 . S
H1282 C1279 0.961 . S
O1283 Co1258 1.967 . S
O1283 C1291 1.258 . S
O1284 Co1259 1.941 . S
O1284 C1291 1.266 . S
H1285 C1287 0.959 . S
H1286 C1287 0.961 . S
C1287 C1277 1.510 . S
C1287 H1285 0.959 . S
C1287 H1286 0.961 . S
C1287 H1288 0.960 . S
H1288 C1287 0.960 . S
H1289 N1269 0.862 . S
O1290 Co1258 1.920 . S
O1290 C1263 1.289 . S
C1291 O1283 1.258 . S
C1291 O1284 1.266 . S
Co1292 O1295 1.970 . S
Co1292 N1309 1.989 . S
Co1292 O1317 1.967 . S
Co1292 O1324 1.920 . S
Co1293 O1296 1.966 . S
Co1293 N1302 2.022 . S
Co1293 N1310 1.993 . S
Co1293 O1318 1.941 . S
C1294 O1295 1.258 . S
C1294 O1296 1.263 . S
O1295 Co1292 1.970 . S
O1295 C1294 1.258 . S
O1296 Co1293 1.966 . S
O1296 C1294 1.263 . S
C1297 O1298 1.235 . S
C1297 O1324 1.289 . S
O1298 C1297 1.235 . S
C1299 C1301 1.400 . S
C1299 N1302 1.351 . S
C1299 C1304 1.501 . S
C1300 C1301 1.387 . S
C1300 N1303 1.341 . S
C1301 C1299 1.400 . S
C1301 C1300 1.387 . S
N1302 Co1293 2.022 . S
N1302 C1299 1.351 . S
N1302 N1303 1.365 . S
N1303 C1300 1.341 . S
N1303 N1302 1.365 . S
N1303 H1323 0.862 . S
C1304 C1299 1.501 . S
C1304 H1305 0.961 . S
C1304 H1306 0.961 . S
C1304 H1307 0.960 . S
H1305 C1304 0.961 . S
H1306 C1304 0.961 . S
H1307 C1304 0.960 . S
C1308 N1309 1.342 . S
C1308 C1312 1.401 . S
C1308 C1313 1.499 . S
N1309 Co1292 1.989 . S
N1309 C1308 1.342 . S
N1309 N1310 1.388 . S
N1310 Co1293 1.993 . S
N1310 N1309 1.388 . S
N1310 C1311 1.346 . S
C1311 N1310 1.346 . S
C1311 C1312 1.396 . S
C1311 C1321 1.510 . S
C1312 C1308 1.401 . S
C1312 C1311 1.396 . S
C1313 C1308 1.499 . S
C1313 H1314 0.959 . S
C1313 H1315 0.960 . S
C1313 H1316 0.961 . S
H1314 C1313 0.959 . S
H1315 C1313 0.960 . S
H1316 C1313 0.961 . S
O1317 Co1292 1.967 . S
O1317 C1325 1.258 . S
O1318 Co1293 1.941 . S
O1318 C1325 1.266 . S
H1319 C1321 0.959 . S
H1320 C1321 0.961 . S
C1321 C1311 1.510 . S
C1321 H1319 0.959 . S
C1321 H1320 0.961 . S
C1321 H1322 0.960 . S
H1322 C1321 0.960 . S
H1323 N1303 0.862 . S
O1324 Co1292 1.920 . S
O1324 C1297 1.289 . S
C1325 O1317 1.258 . S
C1325 O1318 1.266 . S
Co1326 O1329 1.970 . S
Co1326 N1343 1.989 . S
Co1326 O1351 1.967 . S
Co1326 O1358 1.920 . S
Co1327 O1330 1.966 . S
Co1327 N1336 2.022 . S
Co1327 N1344 1.993 . S
Co1327 O1352 1.941 . S
C1328 O1329 1.258 . S
C1328 O1330 1.263 . S
O1329 Co1326 1.970 . S
O1329 C1328 1.258 . S
O1330 Co1327 1.966 . S
O1330 C1328 1.263 . S
C1331 O1332 1.235 . S
C1331 O1358 1.289 . S
O1332 C1331 1.235 . S
C1333 C1335 1.400 . S
C1333 N1336 1.351 . S
C1333 C1338 1.501 . S
C1334 C1335 1.387 . S
C1334 N1337 1.341 . S
C1335 C1333 1.400 . S
C1335 C1334 1.387 . S
N1336 Co1327 2.022 . S
N1336 C1333 1.351 . S
N1336 N1337 1.365 . S
N1337 C1334 1.341 . S
N1337 N1336 1.365 . S
N1337 H1357 0.862 . S
C1338 C1333 1.501 . S
C1338 H1339 0.961 . S
C1338 H1340 0.961 . S
C1338 H1341 0.960 . S
H1339 C1338 0.961 . S
H1340 C1338 0.961 . S
H1341 C1338 0.960 . S
C1342 N1343 1.342 . S
C1342 C1346 1.401 . S
C1342 C1347 1.499 . S
N1343 Co1326 1.989 . S
N1343 C1342 1.342 . S
N1343 N1344 1.388 . S
N1344 Co1327 1.993 . S
N1344 N1343 1.388 . S
N1344 C1345 1.346 . S
C1345 N1344 1.346 . S
C1345 C1346 1.396 . S
C1345 C1355 1.510 . S
C1346 C1342 1.401 . S
C1346 C1345 1.396 . S
C1347 C1342 1.499 . S
C1347 H1348 0.959 . S
C1347 H1349 0.960 . S
C1347 H1350 0.961 . S
H1348 C1347 0.959 . S
H1349 C1347 0.960 . S
H1350 C1347 0.961 . S
O1351 Co1326 1.967 . S
O1351 C1359 1.258 . S
O1352 Co1327 1.941 . S
O1352 C1359 1.266 . S
H1353 C1355 0.959 . S
H1354 C1355 0.961 . S
C1355 C1345 1.510 . S
C1355 H1353 0.959 . S
C1355 H1354 0.961 . S
C1355 H1356 0.960 . S
H1356 C1355 0.960 . S
H1357 N1337 0.862 . S
O1358 Co1326 1.920 . S
O1358 C1331 1.289 . S
C1359 O1351 1.258 . S
C1359 O1352 1.266 . S
Co1360 O1363 1.970 . S
Co1360 N1377 1.989 . S
Co1360 O1385 1.967 . S
Co1360 O1392 1.920 . S
Co1361 O1364 1.966 . S
Co1361 N1370 2.022 . S
Co1361 N1378 1.993 . S
Co1361 O1386 1.941 . S
C1362 O1363 1.258 . S
C1362 O1364 1.263 . S
O1363 Co1360 1.970 . S
O1363 C1362 1.258 . S
O1364 Co1361 1.966 . S
O1364 C1362 1.263 . S
C1365 O1366 1.235 . S
C1365 O1392 1.289 . S
O1366 C1365 1.235 . S
C1367 C1369 1.400 . S
C1367 N1370 1.351 . S
C1367 C1372 1.501 . S
C1368 C1369 1.387 . S
C1368 N1371 1.341 . S
C1369 C1367 1.400 . S
C1369 C1368 1.387 . S
N1370 Co1361 2.022 . S
N1370 C1367 1.351 . S
N1370 N1371 1.365 . S
N1371 C1368 1.341 . S
N1371 N1370 1.365 . S
N1371 H1391 0.862 . S
C1372 C1367 1.501 . S
C1372 H1373 0.961 . S
C1372 H1374 0.961 . S
C1372 H1375 0.960 . S
H1373 C1372 0.961 . S
H1374 C1372 0.961 . S
H1375 C1372 0.960 . S
C1376 N1377 1.342 . S
C1376 C1380 1.401 . S
C1376 C1381 1.499 . S
N1377 Co1360 1.989 . S
N1377 C1376 1.342 . S
N1377 N1378 1.388 . S
N1378 Co1361 1.993 . S
N1378 N1377 1.388 . S
N1378 C1379 1.346 . S
C1379 N1378 1.346 . S
C1379 C1380 1.396 . S
C1379 C1389 1.510 . S
C1380 C1376 1.401 . S
C1380 C1379 1.396 . S
C1381 C1376 1.499 . S
C1381 H1382 0.959 . S
C1381 H1383 0.960 . S
C1381 H1384 0.961 . S
H1382 C1381 0.959 . S
H1383 C1381 0.960 . S
H1384 C1381 0.961 . S
O1385 Co1360 1.967 . S
O1385 C1393 1.258 . S
O1386 Co1361 1.941 . S
O1386 C1393 1.266 . S
H1387 C1389 0.959 . S
H1388 C1389 0.961 . S
C1389 C1379 1.510 . S
C1389 H1387 0.959 . S
C1389 H1388 0.961 . S
C1389 H1390 0.960 . S
H1390 C1389 0.960 . S
H1391 N1371 0.862 . S
O1392 Co1360 1.920 . S
O1392 C1365 1.289 . S
C1393 O1385 1.258 . S
C1393 O1386 1.266 . S
Co1394 O1397 1.970 . S
Co1394 N1411 1.989 . S
Co1394 O1419 1.967 . S
Co1394 O1426 1.920 . S
Co1395 O1398 1.966 . S
Co1395 N1404 2.022 . S
Co1395 N1412 1.993 . S
Co1395 O1420 1.941 . S
C1396 O1397 1.258 . S
C1396 O1398 1.263 . S
O1397 Co1394 1.970 . S
O1397 C1396 1.258 . S
O1398 Co1395 1.966 . S
O1398 C1396 1.263 . S
C1399 O1400 1.235 . S
C1399 O1426 1.289 . S
O1400 C1399 1.235 . S
C1401 C1403 1.400 . S
C1401 N1404 1.351 . S
C1401 C1406 1.501 . S
C1402 C1403 1.387 . S
C1402 N1405 1.341 . S
C1403 C1401 1.400 . S
C1403 C1402 1.387 . S
N1404 Co1395 2.022 . S
N1404 C1401 1.351 . S
N1404 N1405 1.365 . S
N1405 C1402 1.341 . S
N1405 N1404 1.365 . S
N1405 H1425 0.862 . S
C1406 C1401 1.501 . S
C1406 H1407 0.961 . S
C1406 H1408 0.961 . S
C1406 H1409 0.960 . S
H1407 C1406 0.961 . S
H1408 C1406 0.961 . S
H1409 C1406 0.960 . S
C1410 N1411 1.342 . S
C1410 C1414 1.401 . S
C1410 C1415 1.499 . S
N1411 Co1394 1.989 . S
N1411 C1410 1.342 . S
N1411 N1412 1.388 . S
N1412 Co1395 1.993 . S
N1412 N1411 1.388 . S
N1412 C1413 1.346 . S
C1413 N1412 1.346 . S
C1413 C1414 1.396 . S
C1413 C1423 1.510 . S
C1414 C1410 1.401 . S
C1414 C1413 1.396 . S
C1415 C1410 1.499 . S
C1415 H1416 0.959 . S
C1415 H1417 0.960 . S
C1415 H1418 0.961 . S
H1416 C1415 0.959 . S
H1417 C1415 0.960 . S
H1418 C1415 0.961 . S
O1419 Co1394 1.967 . S
O1419 C1427 1.258 . S
O1420 Co1395 1.941 . S
O1420 C1427 1.266 . S
H1421 C1423 0.959 . S
H1422 C1423 0.961 . S
C1423 C1413 1.510 . S
C1423 H1421 0.959 . S
C1423 H1422 0.961 . S
C1423 H1424 0.960 . S
H1424 C1423 0.960 . S
H1425 N1405 0.862 . S
O1426 Co1394 1.920 . S
O1426 C1399 1.289 . S
C1427 O1419 1.258 . S
C1427 O1420 1.266 . S
Co1428 O1431 1.970 . S
Co1428 N1445 1.989 . S
Co1428 O1453 1.967 . S
Co1428 O1460 1.920 . S
Co1429 O1432 1.966 . S
Co1429 N1438 2.022 . S
Co1429 N1446 1.993 . S
Co1429 O1454 1.941 . S
C1430 O1431 1.258 . S
C1430 O1432 1.263 . S
O1431 Co1428 1.970 . S
O1431 C1430 1.258 . S
O1432 Co1429 1.966 . S
O1432 C1430 1.263 . S
C1433 O1434 1.235 . S
C1433 O1460 1.289 . S
O1434 C1433 1.235 . S
C1435 C1437 1.400 . S
C1435 N1438 1.351 . S
C1435 C1440 1.501 . S
C1436 C1437 1.387 . S
C1436 N1439 1.341 . S
C1437 C1435 1.400 . S
C1437 C1436 1.387 . S
N1438 Co1429 2.022 . S
N1438 C1435 1.351 . S
N1438 N1439 1.365 . S
N1439 C1436 1.341 . S
N1439 N1438 1.365 . S
N1439 H1459 0.862 . S
C1440 C1435 1.501 . S
C1440 H1441 0.961 . S
C1440 H1442 0.961 . S
C1440 H1443 0.960 . S
H1441 C1440 0.961 . S
H1442 C1440 0.961 . S
H1443 C1440 0.960 . S
C1444 N1445 1.342 . S
C1444 C1448 1.401 . S
C1444 C1449 1.499 . S
N1445 Co1428 1.989 . S
N1445 C1444 1.342 . S
N1445 N1446 1.388 . S
N1446 Co1429 1.993 . S
N1446 N1445 1.388 . S
N1446 C1447 1.346 . S
C1447 N1446 1.346 . S
C1447 C1448 1.396 . S
C1447 C1457 1.510 . S
C1448 C1444 1.401 . S
C1448 C1447 1.396 . S
C1449 C1444 1.499 . S
C1449 H1450 0.959 . S
C1449 H1451 0.960 . S
C1449 H1452 0.961 . S
H1450 C1449 0.959 . S
H1451 C1449 0.960 . S
H1452 C1449 0.961 . S
O1453 Co1428 1.967 . S
O1453 C1461 1.258 . S
O1454 Co1429 1.941 . S
O1454 C1461 1.266 . S
H1455 C1457 0.959 . S
H1456 C1457 0.961 . S
C1457 C1447 1.510 . S
C1457 H1455 0.959 . S
C1457 H1456 0.961 . S
C1457 H1458 0.960 . S
H1458 C1457 0.960 . S
H1459 N1439 0.862 . S
O1460 Co1428 1.920 . S
O1460 C1433 1.289 . S
C1461 O1453 1.258 . S
C1461 O1454 1.266 . S
Co1462 O1465 1.970 . S
Co1462 N1479 1.989 . S
Co1462 O1487 1.967 . S
Co1462 O1494 1.920 . S
Co1463 O1466 1.966 . S
Co1463 N1472 2.022 . S
Co1463 N1480 1.993 . S
Co1463 O1488 1.941 . S
C1464 O1465 1.258 . S
C1464 O1466 1.263 . S
O1465 Co1462 1.970 . S
O1465 C1464 1.258 . S
O1466 Co1463 1.966 . S
O1466 C1464 1.263 . S
C1467 O1468 1.235 . S
C1467 O1494 1.289 . S
O1468 C1467 1.235 . S
C1469 C1471 1.400 . S
C1469 N1472 1.351 . S
C1469 C1474 1.501 . S
C1470 C1471 1.387 . S
C1470 N1473 1.341 . S
C1471 C1469 1.400 . S
C1471 C1470 1.387 . S
N1472 Co1463 2.022 . S
N1472 C1469 1.351 . S
N1472 N1473 1.365 . S
N1473 C1470 1.341 . S
N1473 N1472 1.365 . S
N1473 H1493 0.862 . S
C1474 C1469 1.501 . S
C1474 H1475 0.961 . S
C1474 H1476 0.961 . S
C1474 H1477 0.960 . S
H1475 C1474 0.961 . S
H1476 C1474 0.961 . S
H1477 C1474 0.960 . S
C1478 N1479 1.342 . S
C1478 C1482 1.401 . S
C1478 C1483 1.499 . S
N1479 Co1462 1.989 . S
N1479 C1478 1.342 . S
N1479 N1480 1.388 . S
N1480 Co1463 1.993 . S
N1480 N1479 1.388 . S
N1480 C1481 1.346 . S
C1481 N1480 1.346 . S
C1481 C1482 1.396 . S
C1481 C1491 1.510 . S
C1482 C1478 1.401 . S
C1482 C1481 1.396 . S
C1483 C1478 1.499 . S
C1483 H1484 0.959 . S
C1483 H1485 0.960 . S
C1483 H1486 0.961 . S
H1484 C1483 0.959 . S
H1485 C1483 0.960 . S
H1486 C1483 0.961 . S
O1487 Co1462 1.967 . S
O1487 C1495 1.258 . S
O1488 Co1463 1.941 . S
O1488 C1495 1.266 . S
H1489 C1491 0.959 . S
H1490 C1491 0.961 . S
C1491 C1481 1.510 . S
C1491 H1489 0.959 . S
C1491 H1490 0.961 . S
C1491 H1492 0.960 . S
H1492 C1491 0.960 . S
H1493 N1473 0.862 . S
O1494 Co1462 1.920 . S
O1494 C1467 1.289 . S
C1495 O1487 1.258 . S
C1495 O1488 1.266 . S
Co1496 O1499 1.970 . S
Co1496 N1513 1.989 . S
Co1496 O1521 1.967 . S
Co1496 O1528 1.920 . S
Co1497 O1500 1.966 . S
Co1497 N1506 2.022 . S
Co1497 N1514 1.993 . S
Co1497 O1522 1.941 . S
C1498 O1499 1.258 . S
C1498 O1500 1.263 . S
O1499 Co1496 1.970 . S
O1499 C1498 1.258 . S
O1500 Co1497 1.966 . S
O1500 C1498 1.263 . S
C1501 O1502 1.235 . S
C1501 O1528 1.289 . S
O1502 C1501 1.235 . S
C1503 C1505 1.400 . S
C1503 N1506 1.351 . S
C1503 C1508 1.501 . S
C1504 C1505 1.387 . S
C1504 N1507 1.341 . S
C1505 C1503 1.400 . S
C1505 C1504 1.387 . S
N1506 Co1497 2.022 . S
N1506 C1503 1.351 . S
N1506 N1507 1.365 . S
N1507 C1504 1.341 . S
N1507 N1506 1.365 . S
N1507 H1527 0.862 . S
C1508 C1503 1.501 . S
C1508 H1509 0.961 . S
C1508 H1510 0.961 . S
C1508 H1511 0.960 . S
H1509 C1508 0.961 . S
H1510 C1508 0.961 . S
H1511 C1508 0.960 . S
C1512 N1513 1.342 . S
C1512 C1516 1.401 . S
C1512 C1517 1.499 . S
N1513 Co1496 1.989 . S
N1513 C1512 1.342 . S
N1513 N1514 1.388 . S
N1514 Co1497 1.993 . S
N1514 N1513 1.388 . S
N1514 C1515 1.346 . S
C1515 N1514 1.346 . S
C1515 C1516 1.396 . S
C1515 C1525 1.510 . S
C1516 C1512 1.401 . S
C1516 C1515 1.396 . S
C1517 C1512 1.499 . S
C1517 H1518 0.959 . S
C1517 H1519 0.960 . S
C1517 H1520 0.961 . S
H1518 C1517 0.959 . S
H1519 C1517 0.960 . S
H1520 C1517 0.961 . S
O1521 Co1496 1.967 . S
O1521 C1529 1.258 . S
O1522 Co1497 1.941 . S
O1522 C1529 1.266 . S
H1523 C1525 0.959 . S
H1524 C1525 0.961 . S
C1525 C1515 1.510 . S
C1525 H1523 0.959 . S
C1525 H1524 0.961 . S
C1525 H1526 0.960 . S
H1526 C1525 0.960 . S
H1527 N1507 0.862 . S
O1528 Co1496 1.920 . S
O1528 C1501 1.289 . S
C1529 O1521 1.258 . S
C1529 O1522 1.266 . S
Co1530 O1533 1.970 . S
Co1530 N1547 1.989 . S
Co1530 O1555 1.967 . S
Co1530 O1562 1.920 . S
Co1531 O1534 1.966 . S
Co1531 N1540 2.022 . S
Co1531 N1548 1.993 . S
Co1531 O1556 1.941 . S
C1532 O1533 1.258 . S
C1532 O1534 1.263 . S
O1533 Co1530 1.970 . S
O1533 C1532 1.258 . S
O1534 Co1531 1.966 . S
O1534 C1532 1.263 . S
C1535 O1536 1.235 . S
C1535 O1562 1.289 . S
O1536 C1535 1.235 . S
C1537 C1539 1.400 . S
C1537 N1540 1.351 . S
C1537 C1542 1.501 . S
C1538 C1539 1.387 . S
C1538 N1541 1.341 . S
C1539 C1537 1.400 . S
C1539 C1538 1.387 . S
N1540 Co1531 2.022 . S
N1540 C1537 1.351 . S
N1540 N1541 1.365 . S
N1541 C1538 1.341 . S
N1541 N1540 1.365 . S
N1541 H1561 0.862 . S
C1542 C1537 1.501 . S
C1542 H1543 0.961 . S
C1542 H1544 0.961 . S
C1542 H1545 0.960 . S
H1543 C1542 0.961 . S
H1544 C1542 0.961 . S
H1545 C1542 0.960 . S
C1546 N1547 1.342 . S
C1546 C1550 1.401 . S
C1546 C1551 1.499 . S
N1547 Co1530 1.989 . S
N1547 C1546 1.342 . S
N1547 N1548 1.388 . S
N1548 Co1531 1.993 . S
N1548 N1547 1.388 . S
N1548 C1549 1.346 . S
C1549 N1548 1.346 . S
C1549 C1550 1.396 . S
C1549 C1559 1.510 . S
C1550 C1546 1.401 . S
C1550 C1549 1.396 . S
C1551 C1546 1.499 . S
C1551 H1552 0.959 . S
C1551 H1553 0.960 . S
C1551 H1554 0.961 . S
H1552 C1551 0.959 . S
H1553 C1551 0.960 . S
H1554 C1551 0.961 . S
O1555 Co1530 1.967 . S
O1555 C1563 1.258 . S
O1556 Co1531 1.941 . S
O1556 C1563 1.266 . S
H1557 C1559 0.959 . S
H1558 C1559 0.961 . S
C1559 C1549 1.510 . S
C1559 H1557 0.959 . S
C1559 H1558 0.961 . S
C1559 H1560 0.960 . S
H1560 C1559 0.960 . S
H1561 N1541 0.862 . S
O1562 Co1530 1.920 . S
O1562 C1535 1.289 . S
C1563 O1555 1.258 . S
C1563 O1556 1.266 . S
Co1564 O1567 1.970 . S
Co1564 N1581 1.989 . S
Co1564 O1589 1.967 . S
Co1564 O1596 1.920 . S
Co1565 O1568 1.966 . S
Co1565 N1574 2.022 . S
Co1565 N1582 1.993 . S
Co1565 O1590 1.941 . S
C1566 O1567 1.258 . S
C1566 O1568 1.263 . S
O1567 Co1564 1.970 . S
O1567 C1566 1.258 . S
O1568 Co1565 1.966 . S
O1568 C1566 1.263 . S
C1569 O1570 1.235 . S
C1569 O1596 1.289 . S
O1570 C1569 1.235 . S
C1571 C1573 1.400 . S
C1571 N1574 1.351 . S
C1571 C1576 1.501 . S
C1572 C1573 1.387 . S
C1572 N1575 1.341 . S
C1573 C1571 1.400 . S
C1573 C1572 1.387 . S
N1574 Co1565 2.022 . S
N1574 C1571 1.351 . S
N1574 N1575 1.365 . S
N1575 C1572 1.341 . S
N1575 N1574 1.365 . S
N1575 H1595 0.862 . S
C1576 C1571 1.501 . S
C1576 H1577 0.961 . S
C1576 H1578 0.961 . S
C1576 H1579 0.960 . S
H1577 C1576 0.961 . S
H1578 C1576 0.961 . S
H1579 C1576 0.960 . S
C1580 N1581 1.342 . S
C1580 C1584 1.401 . S
C1580 C1585 1.499 . S
N1581 Co1564 1.989 . S
N1581 C1580 1.342 . S
N1581 N1582 1.388 . S
N1582 Co1565 1.993 . S
N1582 N1581 1.388 . S
N1582 C1583 1.346 . S
C1583 N1582 1.346 . S
C1583 C1584 1.396 . S
C1583 C1593 1.510 . S
C1584 C1580 1.401 . S
C1584 C1583 1.396 . S
C1585 C1580 1.499 . S
C1585 H1586 0.959 . S
C1585 H1587 0.960 . S
C1585 H1588 0.961 . S
H1586 C1585 0.959 . S
H1587 C1585 0.960 . S
H1588 C1585 0.961 . S
O1589 Co1564 1.967 . S
O1589 C1597 1.258 . S
O1590 Co1565 1.941 . S
O1590 C1597 1.266 . S
H1591 C1593 0.959 . S
H1592 C1593 0.961 . S
C1593 C1583 1.510 . S
C1593 H1591 0.959 . S
C1593 H1592 0.961 . S
C1593 H1594 0.960 . S
H1594 C1593 0.960 . S
H1595 N1575 0.862 . S
O1596 Co1564 1.920 . S
O1596 C1569 1.289 . S
C1597 O1589 1.258 . S
C1597 O1590 1.266 . S
Co1598 O1601 1.970 . S
Co1598 N1615 1.989 . S
Co1598 O1623 1.967 . S
Co1598 O1630 1.920 . S
Co1599 O1602 1.966 . S
Co1599 N1608 2.022 . S
Co1599 N1616 1.993 . S
Co1599 O1624 1.941 . S
C1600 O1601 1.258 . S
C1600 O1602 1.263 . S
O1601 Co1598 1.970 . S
O1601 C1600 1.258 . S
O1602 Co1599 1.966 . S
O1602 C1600 1.263 . S
C1603 O1604 1.235 . S
C1603 O1630 1.289 . S
O1604 C1603 1.235 . S
C1605 C1607 1.400 . S
C1605 N1608 1.351 . S
C1605 C1610 1.501 . S
C1606 C1607 1.387 . S
C1606 N1609 1.341 . S
C1607 C1605 1.400 . S
C1607 C1606 1.387 . S
N1608 Co1599 2.022 . S
N1608 C1605 1.351 . S
N1608 N1609 1.365 . S
N1609 C1606 1.341 . S
N1609 N1608 1.365 . S
N1609 H1629 0.862 . S
C1610 C1605 1.501 . S
C1610 H1611 0.961 . S
C1610 H1612 0.961 . S
C1610 H1613 0.960 . S
H1611 C1610 0.961 . S
H1612 C1610 0.961 . S
H1613 C1610 0.960 . S
C1614 N1615 1.342 . S
C1614 C1618 1.401 . S
C1614 C1619 1.499 . S
N1615 Co1598 1.989 . S
N1615 C1614 1.342 . S
N1615 N1616 1.388 . S
N1616 Co1599 1.993 . S
N1616 N1615 1.388 . S
N1616 C1617 1.346 . S
C1617 N1616 1.346 . S
C1617 C1618 1.396 . S
C1617 C1627 1.510 . S
C1618 C1614 1.401 . S
C1618 C1617 1.396 . S
C1619 C1614 1.499 . S
C1619 H1620 0.959 . S
C1619 H1621 0.960 . S
C1619 H1622 0.961 . S
H1620 C1619 0.959 . S
H1621 C1619 0.960 . S
H1622 C1619 0.961 . S
O1623 Co1598 1.967 . S
O1623 C1631 1.258 . S
O1624 Co1599 1.941 . S
O1624 C1631 1.266 . S
H1625 C1627 0.959 . S
H1626 C1627 0.961 . S
C1627 C1617 1.510 . S
C1627 H1625 0.959 . S
C1627 H1626 0.961 . S
C1627 H1628 0.960 . S
H1628 C1627 0.960 . S
H1629 N1609 0.862 . S
O1630 Co1598 1.920 . S
O1630 C1603 1.289 . S
C1631 O1623 1.258 . S
C1631 O1624 1.266 . S
H1632 C1638 0.930 . S
H1633 C1642 0.930 . S
H1634 C1647 0.929 . S
H1635 C1645 0.929 . S
H1636 C1640 0.929 . S
H1637 C1646 0.929 . S
C1638 H1632 0.930 . S
C1638 C1639 1.367 . S
C1638 C1646 1.378 . S
C1639 C1638 1.367 . S
C1639 C1647 1.433 . S
C1640 H1636 0.929 . S
C1640 C1642 1.378 . S
C1640 C1644 1.350 . S
C1641 C1644 1.463 . S
C1641 C1646 1.350 . S
C1641 N1649 1.427 . S
C1642 H1633 0.930 . S
C1642 C1640 1.378 . S
C1642 C1643 1.367 . S
C1643 C1642 1.367 . S
C1643 C1645 1.433 . S
C1644 C1640 1.350 . S
C1644 C1641 1.463 . S
C1644 N1648 1.427 . S
C1645 H1635 0.929 . S
C1645 C1643 1.433 . S
C1645 N1648 1.384 . S
C1646 H1637 0.929 . S
C1646 C1638 1.378 . S
C1646 C1641 1.350 . S
C1647 H1634 0.929 . S
C1647 C1639 1.433 . S
C1647 N1649 1.384 . S
N1648 C1644 1.427 . S
N1648 C1645 1.384 . S
N1649 C1641 1.427 . S
N1649 C1647 1.384 . S
H1650 C1656 0.930 . S
H1651 C1660 0.930 . S
H1652 C1665 0.929 . S
H1653 C1663 0.929 . S
H1654 C1658 0.929 . S
H1655 C1664 0.929 . S
C1656 H1650 0.930 . S
C1656 C1657 1.367 . S
C1656 C1664 1.378 . S
C1657 C1656 1.367 . S
C1657 C1665 1.433 . S
C1658 H1654 0.929 . S
C1658 C1660 1.378 . S
C1658 C1662 1.350 . S
C1659 C1662 1.463 . S
C1659 C1664 1.350 . S
C1659 N1667 1.427 . S
C1660 H1651 0.930 . S
C1660 C1658 1.378 . S
C1660 C1661 1.367 . S
C1661 C1660 1.367 . S
C1661 C1663 1.433 . S
C1662 C1658 1.350 . S
C1662 C1659 1.463 . S
C1662 N1666 1.427 . S
C1663 H1653 0.929 . S
C1663 C1661 1.433 . S
C1663 N1666 1.384 . S
C1664 H1655 0.929 . S
C1664 C1656 1.378 . S
C1664 C1659 1.350 . S
C1665 H1652 0.929 . S
C1665 C1657 1.433 . S
C1665 N1667 1.384 . S
N1666 C1662 1.427 . S
N1666 C1663 1.384 . S
N1667 C1659 1.427 . S
N1667 C1665 1.384 . S
H1668 C1674 0.930 . S
H1669 C1678 0.930 . S
H1670 C1683 0.929 . S
H1671 C1681 0.929 . S
H1672 C1676 0.929 . S
H1673 C1682 0.929 . S
C1674 H1668 0.930 . S
C1674 C1675 1.367 . S
C1674 C1682 1.378 . S
C1675 C1674 1.367 . S
C1675 C1683 1.433 . S
C1676 H1672 0.929 . S
C1676 C1678 1.378 . S
C1676 C1680 1.350 . S
C1677 C1680 1.463 . S
C1677 C1682 1.350 . S
C1677 N1685 1.427 . S
C1678 H1669 0.930 . S
C1678 C1676 1.378 . S
C1678 C1679 1.367 . S
C1679 C1678 1.367 . S
C1679 C1681 1.433 . S
C1680 C1676 1.350 . S
C1680 C1677 1.463 . S
C1680 N1684 1.427 . S
C1681 H1671 0.929 . S
C1681 C1679 1.433 . S
C1681 N1684 1.384 . S
C1682 H1673 0.929 . S
C1682 C1674 1.378 . S
C1682 C1677 1.350 . S
C1683 H1670 0.929 . S
C1683 C1675 1.433 . S
C1683 N1685 1.384 . S
N1684 C1680 1.427 . S
N1684 C1681 1.384 . S
N1685 C1677 1.427 . S
N1685 C1683 1.384 . S
H1686 C1692 0.930 . S
H1687 C1696 0.930 . S
H1688 C1701 0.929 . S
H1689 C1699 0.929 . S
H1690 C1694 0.929 . S
H1691 C1700 0.929 . S
C1692 H1686 0.930 . S
C1692 C1693 1.367 . S
C1692 C1700 1.378 . S
C1693 C1692 1.367 . S
C1693 C1701 1.433 . S
C1694 H1690 0.929 . S
C1694 C1696 1.378 . S
C1694 C1698 1.350 . S
C1695 C1698 1.463 . S
C1695 C1700 1.350 . S
C1695 N1703 1.427 . S
C1696 H1687 0.930 . S
C1696 C1694 1.378 . S
C1696 C1697 1.367 . S
C1697 C1696 1.367 . S
C1697 C1699 1.433 . S
C1698 C1694 1.350 . S
C1698 C1695 1.463 . S
C1698 N1702 1.427 . S
C1699 H1689 0.929 . S
C1699 C1697 1.433 . S
C1699 N1702 1.384 . S
C1700 H1691 0.929 . S
C1700 C1692 1.378 . S
C1700 C1695 1.350 . S
C1701 H1688 0.929 . S
C1701 C1693 1.433 . S
C1701 N1703 1.384 . S
N1702 C1698 1.427 . S
N1702 C1699 1.384 . S
N1703 C1695 1.427 . S
N1703 C1701 1.384 . S
H1704 C1710 0.930 . S
H1705 C1714 0.930 . S
H1706 C1719 0.929 . S
H1707 C1717 0.929 . S
H1708 C1712 0.929 . S
H1709 C1718 0.929 . S
C1710 H1704 0.930 . S
C1710 C1711 1.367 . S
C1710 C1718 1.378 . S
C1711 C1710 1.367 . S
C1711 C1719 1.433 . S
C1712 H1708 0.929 . S
C1712 C1714 1.378 . S
C1712 C1716 1.350 . S
C1713 C1716 1.463 . S
C1713 C1718 1.350 . S
C1713 N1721 1.427 . S
C1714 H1705 0.930 . S
C1714 C1712 1.378 . S
C1714 C1715 1.367 . S
C1715 C1714 1.367 . S
C1715 C1717 1.433 . S
C1716 C1712 1.350 . S
C1716 C1713 1.463 . S
C1716 N1720 1.427 . S
C1717 H1707 0.929 . S
C1717 C1715 1.433 . S
C1717 N1720 1.384 . S
C1718 H1709 0.929 . S
C1718 C1710 1.378 . S
C1718 C1713 1.350 . S
C1719 H1706 0.929 . S
C1719 C1711 1.433 . S
C1719 N1721 1.384 . S
N1720 C1716 1.427 . S
N1720 C1717 1.384 . S
N1721 C1713 1.427 . S
N1721 C1719 1.384 . S
H1722 C1728 0.930 . S
H1723 C1732 0.930 . S
H1724 C1737 0.929 . S
H1725 C1735 0.929 . S
H1726 C1730 0.929 . S
H1727 C1736 0.929 . S
C1728 H1722 0.930 . S
C1728 C1729 1.367 . S
C1728 C1736 1.378 . S
C1729 C1728 1.367 . S
C1729 C1737 1.433 . S
C1730 H1726 0.929 . S
C1730 C1732 1.378 . S
C1730 C1734 1.350 . S
C1731 C1734 1.463 . S
C1731 C1736 1.350 . S
C1731 N1739 1.427 . S
C1732 H1723 0.930 . S
C1732 C1730 1.378 . S
C1732 C1733 1.367 . S
C1733 C1732 1.367 . S
C1733 C1735 1.433 . S
C1734 C1730 1.350 . S
C1734 C1731 1.463 . S
C1734 N1738 1.427 . S
C1735 H1725 0.929 . S
C1735 C1733 1.433 . S
C1735 N1738 1.384 . S
C1736 H1727 0.929 . S
C1736 C1728 1.378 . S
C1736 C1731 1.350 . S
C1737 H1724 0.929 . S
C1737 C1729 1.433 . S
C1737 N1739 1.384 . S
N1738 C1734 1.427 . S
N1738 C1735 1.384 . S
N1739 C1731 1.427 . S
N1739 C1737 1.384 . S
H1740 C1746 0.930 . S
H1741 C1750 0.930 . S
H1742 C1755 0.929 . S
H1743 C1753 0.929 . S
H1744 C1748 0.929 . S
H1745 C1754 0.929 . S
C1746 H1740 0.930 . S
C1746 C1747 1.367 . S
C1746 C1754 1.378 . S
C1747 C1746 1.367 . S
C1747 C1755 1.433 . S
C1748 H1744 0.929 . S
C1748 C1750 1.378 . S
C1748 C1752 1.350 . S
C1749 C1752 1.463 . S
C1749 C1754 1.350 . S
C1749 N1757 1.427 . S
C1750 H1741 0.930 . S
C1750 C1748 1.378 . S
C1750 C1751 1.367 . S
C1751 C1750 1.367 . S
C1751 C1753 1.433 . S
C1752 C1748 1.350 . S
C1752 C1749 1.463 . S
C1752 N1756 1.427 . S
C1753 H1743 0.929 . S
C1753 C1751 1.433 . S
C1753 N1756 1.384 . S
C1754 H1745 0.929 . S
C1754 C1746 1.378 . S
C1754 C1749 1.350 . S
C1755 H1742 0.929 . S
C1755 C1747 1.433 . S
C1755 N1757 1.384 . S
N1756 C1752 1.427 . S
N1756 C1753 1.384 . S
N1757 C1749 1.427 . S
N1757 C1755 1.384 . S
H1758 C1764 0.930 . S
H1759 C1768 0.930 . S
H1760 C1773 0.929 . S
H1761 C1771 0.929 . S
H1762 C1766 0.929 . S
H1763 C1772 0.929 . S
C1764 H1758 0.930 . S
C1764 C1765 1.367 . S
C1764 C1772 1.378 . S
C1765 C1764 1.367 . S
C1765 C1773 1.433 . S
C1766 H1762 0.929 . S
C1766 C1768 1.378 . S
C1766 C1770 1.350 . S
C1767 C1770 1.463 . S
C1767 C1772 1.350 . S
C1767 N1775 1.427 . S
C1768 H1759 0.930 . S
C1768 C1766 1.378 . S
C1768 C1769 1.367 . S
C1769 C1768 1.367 . S
C1769 C1771 1.433 . S
C1770 C1766 1.350 . S
C1770 C1767 1.463 . S
C1770 N1774 1.427 . S
C1771 H1761 0.929 . S
C1771 C1769 1.433 . S
C1771 N1774 1.384 . S
C1772 H1763 0.929 . S
C1772 C1764 1.378 . S
C1772 C1767 1.350 . S
C1773 H1760 0.929 . S
C1773 C1765 1.433 . S
C1773 N1775 1.384 . S
N1774 C1770 1.427 . S
N1774 C1771 1.384 . S
N1775 C1767 1.427 . S
N1775 C1773 1.384 . S
H1776 C1782 0.930 . S
H1777 C1786 0.930 . S
H1778 C1791 0.929 . S
H1779 C1789 0.929 . S
H1780 C1784 0.929 . S
H1781 C1790 0.929 . S
C1782 H1776 0.930 . S
C1782 C1783 1.367 . S
C1782 C1790 1.378 . S
C1783 C1782 1.367 . S
C1783 C1791 1.433 . S
C1784 H1780 0.929 . S
C1784 C1786 1.378 . S
C1784 C1788 1.350 . S
C1785 C1788 1.463 . S
C1785 C1790 1.350 . S
C1785 N1793 1.427 . S
C1786 H1777 0.930 . S
C1786 C1784 1.378 . S
C1786 C1787 1.367 . S
C1787 C1786 1.367 . S
C1787 C1789 1.433 . S
C1788 C1784 1.350 . S
C1788 C1785 1.463 . S
C1788 N1792 1.427 . S
C1789 H1779 0.929 . S
C1789 C1787 1.433 . S
C1789 N1792 1.384 . S
C1790 H1781 0.929 . S
C1790 C1782 1.378 . S
C1790 C1785 1.350 . S
C1791 H1778 0.929 . S
C1791 C1783 1.433 . S
C1791 N1793 1.384 . S
N1792 C1788 1.427 . S
N1792 C1789 1.384 . S
N1793 C1785 1.427 . S
N1793 C1791 1.384 . S
H1794 C1800 0.930 . S
H1795 C1804 0.930 . S
H1796 C1809 0.929 . S
H1797 C1807 0.929 . S
H1798 C1802 0.929 . S
H1799 C1808 0.929 . S
C1800 H1794 0.930 . S
C1800 C1801 1.367 . S
C1800 C1808 1.378 . S
C1801 C1800 1.367 . S
C1801 C1809 1.433 . S
C1802 H1798 0.929 . S
C1802 C1804 1.378 . S
C1802 C1806 1.350 . S
C1803 C1806 1.463 . S
C1803 C1808 1.350 . S
C1803 N1811 1.427 . S
C1804 H1795 0.930 . S
C1804 C1802 1.378 . S
C1804 C1805 1.367 . S
C1805 C1804 1.367 . S
C1805 C1807 1.433 . S
C1806 C1802 1.350 . S
C1806 C1803 1.463 . S
C1806 N1810 1.427 . S
C1807 H1797 0.929 . S
C1807 C1805 1.433 . S
C1807 N1810 1.384 . S
C1808 H1799 0.929 . S
C1808 C1800 1.378 . S
C1808 C1803 1.350 . S
C1809 H1796 0.929 . S
C1809 C1801 1.433 . S
C1809 N1811 1.384 . S
N1810 C1806 1.427 . S
N1810 C1807 1.384 . S
N1811 C1803 1.427 . S
N1811 C1809 1.384 . S
H1812 C1818 0.930 . S
H1813 C1822 0.930 . S
H1814 C1827 0.929 . S
H1815 C1825 0.929 . S
H1816 C1820 0.929 . S
H1817 C1826 0.929 . S
C1818 H1812 0.930 . S
C1818 C1819 1.367 . S
C1818 C1826 1.378 . S
C1819 C1818 1.367 . S
C1819 C1827 1.433 . S
C1820 H1816 0.929 . S
C1820 C1822 1.378 . S
C1820 C1824 1.350 . S
C1821 C1824 1.463 . S
C1821 C1826 1.350 . S
C1821 N1829 1.427 . S
C1822 H1813 0.930 . S
C1822 C1820 1.378 . S
C1822 C1823 1.367 . S
C1823 C1822 1.367 . S
C1823 C1825 1.433 . S
C1824 C1820 1.350 . S
C1824 C1821 1.463 . S
C1824 N1828 1.427 . S
C1825 H1815 0.929 . S
C1825 C1823 1.433 . S
C1825 N1828 1.384 . S
C1826 H1817 0.929 . S
C1826 C1818 1.378 . S
C1826 C1821 1.350 . S
C1827 H1814 0.929 . S
C1827 C1819 1.433 . S
C1827 N1829 1.384 . S
N1828 C1824 1.427 . S
N1828 C1825 1.384 . S
N1829 C1821 1.427 . S
N1829 C1827 1.384 . S
H1830 C1836 0.930 . S
H1831 C1840 0.930 . S
H1832 C1845 0.929 . S
H1833 C1843 0.929 . S
H1834 C1838 0.929 . S
H1835 C1844 0.929 . S
C1836 H1830 0.930 . S
C1836 C1837 1.367 . S
C1836 C1844 1.378 . S
C1837 C1836 1.367 . S
C1837 C1845 1.433 . S
C1838 H1834 0.929 . S
C1838 C1840 1.378 . S
C1838 C1842 1.350 . S
C1839 C1842 1.463 . S
C1839 C1844 1.350 . S
C1839 N1847 1.427 . S
C1840 H1831 0.930 . S
C1840 C1838 1.378 . S
C1840 C1841 1.367 . S
C1841 C1840 1.367 . S
C1841 C1843 1.433 . S
C1842 C1838 1.350 . S
C1842 C1839 1.463 . S
C1842 N1846 1.427 . S
C1843 H1833 0.929 . S
C1843 C1841 1.433 . S
C1843 N1846 1.384 . S
C1844 H1835 0.929 . S
C1844 C1836 1.378 . S
C1844 C1839 1.350 . S
C1845 H1832 0.929 . S
C1845 C1837 1.433 . S
C1845 N1847 1.384 . S
N1846 C1842 1.427 . S
N1846 C1843 1.384 . S
N1847 C1839 1.427 . S
N1847 C1845 1.384 . S
H1848 C1854 0.930 . S
H1849 C1858 0.930 . S
H1850 C1863 0.929 . S
H1851 C1861 0.929 . S
H1852 C1856 0.929 . S
H1853 C1862 0.929 . S
C1854 H1848 0.930 . S
C1854 C1855 1.367 . S
C1854 C1862 1.378 . S
C1855 C1854 1.367 . S
C1855 C1863 1.433 . S
C1856 H1852 0.929 . S
C1856 C1858 1.378 . S
C1856 C1860 1.350 . S
C1857 C1860 1.463 . S
C1857 C1862 1.350 . S
C1857 N1865 1.427 . S
C1858 H1849 0.930 . S
C1858 C1856 1.378 . S
C1858 C1859 1.367 . S
C1859 C1858 1.367 . S
C1859 C1861 1.433 . S
C1860 C1856 1.350 . S
C1860 C1857 1.463 . S
C1860 N1864 1.427 . S
C1861 H1851 0.929 . S
C1861 C1859 1.433 . S
C1861 N1864 1.384 . S
C1862 H1853 0.929 . S
C1862 C1854 1.378 . S
C1862 C1857 1.350 . S
C1863 H1850 0.929 . S
C1863 C1855 1.433 . S
C1863 N1865 1.384 . S
N1864 C1860 1.427 . S
N1864 C1861 1.384 . S
N1865 C1857 1.427 . S
N1865 C1863 1.384 . S
H1866 C1872 0.930 . S
H1867 C1876 0.930 . S
H1868 C1881 0.929 . S
H1869 C1879 0.929 . S
H1870 C1874 0.929 . S
H1871 C1880 0.929 . S
C1872 H1866 0.930 . S
C1872 C1873 1.367 . S
C1872 C1880 1.378 . S
C1873 C1872 1.367 . S
C1873 C1881 1.433 . S
C1874 H1870 0.929 . S
C1874 C1876 1.378 . S
C1874 C1878 1.350 . S
C1875 C1878 1.463 . S
C1875 C1880 1.350 . S
C1875 N1883 1.427 . S
C1876 H1867 0.930 . S
C1876 C1874 1.378 . S
C1876 C1877 1.367 . S
C1877 C1876 1.367 . S
C1877 C1879 1.433 . S
C1878 C1874 1.350 . S
C1878 C1875 1.463 . S
C1878 N1882 1.427 . S
C1879 H1869 0.929 . S
C1879 C1877 1.433 . S
C1879 N1882 1.384 . S
C1880 H1871 0.929 . S
C1880 C1872 1.378 . S
C1880 C1875 1.350 . S
C1881 H1868 0.929 . S
C1881 C1873 1.433 . S
C1881 N1883 1.384 . S
N1882 C1878 1.427 . S
N1882 C1879 1.384 . S
N1883 C1875 1.427 . S
N1883 C1881 1.384 . S
H1884 C1890 0.930 . S
H1885 C1894 0.930 . S
H1886 C1899 0.929 . S
H1887 C1897 0.929 . S
H1888 C1892 0.929 . S
H1889 C1898 0.929 . S
C1890 H1884 0.930 . S
C1890 C1891 1.367 . S
C1890 C1898 1.378 . S
C1891 C1890 1.367 . S
C1891 C1899 1.433 . S
C1892 H1888 0.929 . S
C1892 C1894 1.378 . S
C1892 C1896 1.350 . S
C1893 C1896 1.463 . S
C1893 C1898 1.350 . S
C1893 N1901 1.427 . S
C1894 H1885 0.930 . S
C1894 C1892 1.378 . S
C1894 C1895 1.367 . S
C1895 C1894 1.367 . S
C1895 C1897 1.433 . S
C1896 C1892 1.350 . S
C1896 C1893 1.463 . S
C1896 N1900 1.427 . S
C1897 H1887 0.929 . S
C1897 C1895 1.433 . S
C1897 N1900 1.384 . S
C1898 H1889 0.929 . S
C1898 C1890 1.378 . S
C1898 C1893 1.350 . S
C1899 H1886 0.929 . S
C1899 C1891 1.433 . S
C1899 N1901 1.384 . S
N1900 C1896 1.427 . S
N1900 C1897 1.384 . S
N1901 C1893 1.427 . S
N1901 C1899 1.384 . S
H1902 C1908 0.930 . S
H1903 C1912 0.930 . S
H1904 C1917 0.929 . S
H1905 C1915 0.929 . S
H1906 C1910 0.929 . S
H1907 C1916 0.929 . S
C1908 H1902 0.930 . S
C1908 C1909 1.367 . S
C1908 C1916 1.378 . S
C1909 C1908 1.367 . S
C1909 C1917 1.433 . S
C1910 H1906 0.929 . S
C1910 C1912 1.378 . S
C1910 C1914 1.350 . S
C1911 C1914 1.463 . S
C1911 C1916 1.350 . S
C1911 N1919 1.427 . S
C1912 H1903 0.930 . S
C1912 C1910 1.378 . S
C1912 C1913 1.367 . S
C1913 C1912 1.367 . S
C1913 C1915 1.433 . S
C1914 C1910 1.350 . S
C1914 C1911 1.463 . S
C1914 N1918 1.427 . S
C1915 H1905 0.929 . S
C1915 C1913 1.433 . S
C1915 N1918 1.384 . S
C1916 H1907 0.929 . S
C1916 C1908 1.378 . S
C1916 C1911 1.350 . S
C1917 H1904 0.929 . S
C1917 C1909 1.433 . S
C1917 N1919 1.384 . S
N1918 C1914 1.427 . S
N1918 C1915 1.384 . S
N1919 C1911 1.427 . S
N1919 C1917 1.384 . S
H1920 C1926 0.930 . S
H1921 C1930 0.930 . S
H1922 C1935 0.929 . S
H1923 C1933 0.929 . S
H1924 C1928 0.929 . S
H1925 C1934 0.929 . S
C1926 H1920 0.930 . S
C1926 C1927 1.367 . S
C1926 C1934 1.378 . S
C1927 C1926 1.367 . S
C1927 C1935 1.433 . S
C1928 H1924 0.929 . S
C1928 C1930 1.378 . S
C1928 C1932 1.350 . S
C1929 C1932 1.463 . S
C1929 C1934 1.350 . S
C1929 N1937 1.427 . S
C1930 H1921 0.930 . S
C1930 C1928 1.378 . S
C1930 C1931 1.367 . S
C1931 C1930 1.367 . S
C1931 C1933 1.433 . S
C1932 C1928 1.350 . S
C1932 C1929 1.463 . S
C1932 N1936 1.427 . S
C1933 H1923 0.929 . S
C1933 C1931 1.433 . S
C1933 N1936 1.384 . S
C1934 H1925 0.929 . S
C1934 C1926 1.378 . S
C1934 C1929 1.350 . S
C1935 H1922 0.929 . S
C1935 C1927 1.433 . S
C1935 N1937 1.384 . S
N1936 C1932 1.427 . S
N1936 C1933 1.384 . S
N1937 C1929 1.427 . S
N1937 C1935 1.384 . S
H1938 C1944 0.930 . S
H1939 C1948 0.930 . S
H1940 C1953 0.929 . S
H1941 C1951 0.929 . S
H1942 C1946 0.929 . S
H1943 C1952 0.929 . S
C1944 H1938 0.930 . S
C1944 C1945 1.367 . S
C1944 C1952 1.378 . S
C1945 C1944 1.367 . S
C1945 C1953 1.433 . S
C1946 H1942 0.929 . S
C1946 C1948 1.378 . S
C1946 C1950 1.350 . S
C1947 C1950 1.463 . S
C1947 C1952 1.350 . S
C1947 N1955 1.427 . S
C1948 H1939 0.930 . S
C1948 C1946 1.378 . S
C1948 C1949 1.367 . S
C1949 C1948 1.367 . S
C1949 C1951 1.433 . S
C1950 C1946 1.350 . S
C1950 C1947 1.463 . S
C1950 N1954 1.427 . S
C1951 H1941 0.929 . S
C1951 C1949 1.433 . S
C1951 N1954 1.384 . S
C1952 H1943 0.929 . S
C1952 C1944 1.378 . S
C1952 C1947 1.350 . S
C1953 H1940 0.929 . S
C1953 C1945 1.433 . S
C1953 N1955 1.384 . S
N1954 C1950 1.427 . S
N1954 C1951 1.384 . S
N1955 C1947 1.427 . S
N1955 C1953 1.384 . S
H1956 C1962 0.930 . S
H1957 C1966 0.930 . S
H1958 C1971 0.929 . S
H1959 C1969 0.929 . S
H1960 C1964 0.929 . S
H1961 C1970 0.929 . S
C1962 H1956 0.930 . S
C1962 C1963 1.367 . S
C1962 C1970 1.378 . S
C1963 C1962 1.367 . S
C1963 C1971 1.433 . S
C1964 H1960 0.929 . S
C1964 C1966 1.378 . S
C1964 C1968 1.350 . S
C1965 C1968 1.463 . S
C1965 C1970 1.350 . S
C1965 N1973 1.427 . S
C1966 H1957 0.930 . S
C1966 C1964 1.378 . S
C1966 C1967 1.367 . S
C1967 C1966 1.367 . S
C1967 C1969 1.433 . S
C1968 C1964 1.350 . S
C1968 C1965 1.463 . S
C1968 N1972 1.427 . S
C1969 H1959 0.929 . S
C1969 C1967 1.433 . S
C1969 N1972 1.384 . S
C1970 H1961 0.929 . S
C1970 C1962 1.378 . S
C1970 C1965 1.350 . S
C1971 H1958 0.929 . S
C1971 C1963 1.433 . S
C1971 N1973 1.384 . S
N1972 C1968 1.427 . S
N1972 C1969 1.384 . S
N1973 C1965 1.427 . S
N1973 C1971 1.384 . S
H1974 C1980 0.930 . S
H1975 C1984 0.930 . S
H1976 C1989 0.929 . S
H1977 C1987 0.929 . S
H1978 C1982 0.929 . S
H1979 C1988 0.929 . S
C1980 H1974 0.930 . S
C1980 C1981 1.367 . S
C1980 C1988 1.378 . S
C1981 C1980 1.367 . S
C1981 C1989 1.433 . S
C1982 H1978 0.929 . S
C1982 C1984 1.378 . S
C1982 C1986 1.350 . S
C1983 C1986 1.463 . S
C1983 C1988 1.350 . S
C1983 N1991 1.427 . S
C1984 H1975 0.930 . S
C1984 C1982 1.378 . S
C1984 C1985 1.367 . S
C1985 C1984 1.367 . S
C1985 C1987 1.433 . S
C1986 C1982 1.350 . S
C1986 C1983 1.463 . S
C1986 N1990 1.427 . S
C1987 H1977 0.929 . S
C1987 C1985 1.433 . S
C1987 N1990 1.384 . S
C1988 H1979 0.929 . S
C1988 C1980 1.378 . S
C1988 C1983 1.350 . S
C1989 H1976 0.929 . S
C1989 C1981 1.433 . S
C1989 N1991 1.384 . S
N1990 C1986 1.427 . S
N1990 C1987 1.384 . S
N1991 C1983 1.427 . S
N1991 C1989 1.384 . S
H1992 C1998 0.930 . S
H1993 C2002 0.930 . S
H1994 C2007 0.929 . S
H1995 C2005 0.929 . S
H1996 C2000 0.929 . S
H1997 C2006 0.929 . S
C1998 H1992 0.930 . S
C1998 C1999 1.367 . S
C1998 C2006 1.378 . S
C1999 C1998 1.367 . S
C1999 C2007 1.433 . S
C2000 H1996 0.929 . S
C2000 C2002 1.378 . S
C2000 C2004 1.350 . S
C2001 C2004 1.463 . S
C2001 C2006 1.350 . S
C2001 N2009 1.427 . S
C2002 H1993 0.930 . S
C2002 C2000 1.378 . S
C2002 C2003 1.367 . S
C2003 C2002 1.367 . S
C2003 C2005 1.433 . S
C2004 C2000 1.350 . S
C2004 C2001 1.463 . S
C2004 N2008 1.427 . S
C2005 H1995 0.929 . S
C2005 C2003 1.433 . S
C2005 N2008 1.384 . S
C2006 H1997 0.929 . S
C2006 C1998 1.378 . S
C2006 C2001 1.350 . S
C2007 H1994 0.929 . S
C2007 C1999 1.433 . S
C2007 N2009 1.384 . S
N2008 C2004 1.427 . S
N2008 C2005 1.384 . S
N2009 C2001 1.427 . S
N2009 C2007 1.384 . S
H2010 C2016 0.930 . S
H2011 C2020 0.930 . S
H2012 C2025 0.929 . S
H2013 C2023 0.929 . S
H2014 C2018 0.929 . S
H2015 C2024 0.929 . S
C2016 H2010 0.930 . S
C2016 C2017 1.367 . S
C2016 C2024 1.378 . S
C2017 C2016 1.367 . S
C2017 C2025 1.433 . S
C2018 H2014 0.929 . S
C2018 C2020 1.378 . S
C2018 C2022 1.350 . S
C2019 C2022 1.463 . S
C2019 C2024 1.350 . S
C2019 N2027 1.427 . S
C2020 H2011 0.930 . S
C2020 C2018 1.378 . S
C2020 C2021 1.367 . S
C2021 C2020 1.367 . S
C2021 C2023 1.433 . S
C2022 C2018 1.350 . S
C2022 C2019 1.463 . S
C2022 N2026 1.427 . S
C2023 H2013 0.929 . S
C2023 C2021 1.433 . S
C2023 N2026 1.384 . S
C2024 H2015 0.929 . S
C2024 C2016 1.378 . S
C2024 C2019 1.350 . S
C2025 H2012 0.929 . S
C2025 C2017 1.433 . S
C2025 N2027 1.384 . S
N2026 C2022 1.427 . S
N2026 C2023 1.384 . S
N2027 C2019 1.427 . S
N2027 C2025 1.384 . S
H2028 C2034 0.930 . S
H2029 C2038 0.930 . S
H2030 C2043 0.929 . S
H2031 C2041 0.929 . S
H2032 C2036 0.929 . S
H2033 C2042 0.929 . S
C2034 H2028 0.930 . S
C2034 C2035 1.367 . S
C2034 C2042 1.378 . S
C2035 C2034 1.367 . S
C2035 C2043 1.433 . S
C2036 H2032 0.929 . S
C2036 C2038 1.378 . S
C2036 C2040 1.350 . S
C2037 C2040 1.463 . S
C2037 C2042 1.350 . S
C2037 N2045 1.427 . S
C2038 H2029 0.930 . S
C2038 C2036 1.378 . S
C2038 C2039 1.367 . S
C2039 C2038 1.367 . S
C2039 C2041 1.433 . S
C2040 C2036 1.350 . S
C2040 C2037 1.463 . S
C2040 N2044 1.427 . S
C2041 H2031 0.929 . S
C2041 C2039 1.433 . S
C2041 N2044 1.384 . S
C2042 H2033 0.929 . S
C2042 C2034 1.378 . S
C2042 C2037 1.350 . S
C2043 H2030 0.929 . S
C2043 C2035 1.433 . S
C2043 N2045 1.384 . S
N2044 C2040 1.427 . S
N2044 C2041 1.384 . S
N2045 C2037 1.427 . S
N2045 C2043 1.384 . S
H2046 C2052 0.930 . S
H2047 C2056 0.930 . S
H2048 C2061 0.929 . S
H2049 C2059 0.929 . S
H2050 C2054 0.929 . S
H2051 C2060 0.929 . S
C2052 H2046 0.930 . S
C2052 C2053 1.367 . S
C2052 C2060 1.378 . S
C2053 C2052 1.367 . S
C2053 C2061 1.433 . S
C2054 H2050 0.929 . S
C2054 C2056 1.378 . S
C2054 C2058 1.350 . S
C2055 C2058 1.463 . S
C2055 C2060 1.350 . S
C2055 N2063 1.427 . S
C2056 H2047 0.930 . S
C2056 C2054 1.378 . S
C2056 C2057 1.367 . S
C2057 C2056 1.367 . S
C2057 C2059 1.433 . S
C2058 C2054 1.350 . S
C2058 C2055 1.463 . S
C2058 N2062 1.427 . S
C2059 H2049 0.929 . S
C2059 C2057 1.433 . S
C2059 N2062 1.384 . S
C2060 H2051 0.929 . S
C2060 C2052 1.378 . S
C2060 C2055 1.350 . S
C2061 H2048 0.929 . S
C2061 C2053 1.433 . S
C2061 N2063 1.384 . S
N2062 C2058 1.427 . S
N2062 C2059 1.384 . S
N2063 C2055 1.427 . S
N2063 C2061 1.384 . S
H2064 C2070 0.930 . S
H2065 C2074 0.930 . S
H2066 C2079 0.929 . S
H2067 C2077 0.929 . S
H2068 C2072 0.929 . S
H2069 C2078 0.929 . S
C2070 H2064 0.930 . S
C2070 C2071 1.367 . S
C2070 C2078 1.378 . S
C2071 C2070 1.367 . S
C2071 C2079 1.433 . S
C2072 H2068 0.929 . S
C2072 C2074 1.378 . S
C2072 C2076 1.350 . S
C2073 C2076 1.463 1_655 S
C2073 C2078 1.350 . S
C2073 N2081 1.427 . S
C2074 H2065 0.930 . S
C2074 C2072 1.378 . S
C2074 C2075 1.367 . S
C2075 C2074 1.367 . S
C2075 C2077 1.433 . S
C2076 C2072 1.350 . S
C2076 C2073 1.463 1_455 S
C2076 N2080 1.427 . S
C2077 H2067 0.929 . S
C2077 C2075 1.433 . S
C2077 N2080 1.384 . S
C2078 H2069 0.929 . S
C2078 C2070 1.378 . S
C2078 C2073 1.350 . S
C2079 H2066 0.929 . S
C2079 C2071 1.433 . S
C2079 N2081 1.384 . S
N2080 C2076 1.427 . S
N2080 C2077 1.384 . S
N2081 C2073 1.427 . S
N2081 C2079 1.384 . S
H2082 C2088 0.951 . S
H2083 C2092 0.951 . S
H2084 C2097 0.929 . S
H2085 C2095 0.929 . S
H2086 C2090 0.929 . S
H2087 C2096 0.929 . S
C2088 H2082 0.951 . S
C2088 C2089 1.367 . S
C2088 C2096 1.378 1_545 S
C2089 C2088 1.367 . S
C2089 C2097 1.433 . S
C2090 H2086 0.929 . S
C2090 C2092 1.378 1_545 S
C2090 C2094 1.350 1_545 S
C2091 C2094 1.463 1_545 S
C2091 C2096 1.350 1_545 S
C2091 N2099 1.427 . S
C2092 H2083 0.951 . S
C2092 C2090 1.378 1_565 S
C2092 C2093 1.367 . S
C2093 C2092 1.367 . S
C2093 C2095 1.433 . S
C2094 C2090 1.350 1_565 S
C2094 C2091 1.463 1_565 S
C2094 N2098 1.427 . S
C2095 H2085 0.929 . S
C2095 C2093 1.433 . S
C2095 N2098 1.384 . S
C2096 H2087 0.929 . S
C2096 C2088 1.378 1_565 S
C2096 C2091 1.350 1_565 S
C2097 H2084 0.929 . S
C2097 C2089 1.433 . S
C2097 N2099 1.384 . S
N2098 C2094 1.427 . S
N2098 C2095 1.384 . S
N2099 C2091 1.427 . S
N2099 C2097 1.384 . S
H2100 C2106 0.930 . S
H2101 C2110 0.930 . S
H2102 C2115 0.929 . S
H2103 C2113 0.929 . S
H2104 C2108 0.929 . S
H2105 C2114 0.929 . S
C2106 H2100 0.930 . S
C2106 C2107 1.367 . S
C2106 C2114 1.378 . S
C2107 C2106 1.367 . S
C2107 C2115 1.433 . S
C2108 H2104 0.929 . S
C2108 C2110 1.378 . S
C2108 C2112 1.350 . S
C2109 C2112 1.463 1_655 S
C2109 C2114 1.350 . S
C2109 N2117 1.427 . S
C2110 H2101 0.930 . S
C2110 C2108 1.378 . S
C2110 C2111 1.367 . S
C2111 C2110 1.367 . S
C2111 C2113 1.433 . S
C2112 C2108 1.350 . S
C2112 C2109 1.463 1_455 S
C2112 N2116 1.427 . S
C2113 H2103 0.929 . S
C2113 C2111 1.433 . S
C2113 N2116 1.384 . S
C2114 H2105 0.929 . S
C2114 C2106 1.378 . S
C2114 C2109 1.350 . S
C2115 H2102 0.929 . S
C2115 C2107 1.433 . S
C2115 N2117 1.384 . S
N2116 C2112 1.427 . S
N2116 C2113 1.384 . S
N2117 C2109 1.427 . S
N2117 C2115 1.384 . S
H2118 C2124 0.930 . S
H2119 C2128 0.930 . S
H2120 C2133 0.929 . S
H2121 C2131 0.929 . S
H2122 C2126 0.914 1_565 S
H2123 C2132 0.914 1_545 S
C2124 H2118 0.930 . S
C2124 C2125 1.367 . S
C2124 C2132 1.378 . S
C2125 C2124 1.367 . S
C2125 C2133 1.433 . S
C2126 H2122 0.914 1_545 S
C2126 C2128 1.378 . S
C2126 C2130 1.350 . S
C2127 C2130 1.463 1_565 S
C2127 C2132 1.350 . S
C2127 N2135 1.427 . S
C2128 H2119 0.930 . S
C2128 C2126 1.378 . S
C2128 C2129 1.367 . S
C2129 C2128 1.367 . S
C2129 C2131 1.433 . S
C2130 C2126 1.350 . S
C2130 C2127 1.463 1_545 S
C2130 N2134 1.427 . S
C2131 H2121 0.929 . S
C2131 C2129 1.433 . S
C2131 N2134 1.384 . S
C2132 H2123 0.914 1_565 S
C2132 C2124 1.378 . S
C2132 C2127 1.350 . S
C2133 H2120 0.929 . S
C2133 C2125 1.433 . S
C2133 N2135 1.384 . S
N2134 C2130 1.427 . S
N2134 C2131 1.384 . S
N2135 C2127 1.427 . S
N2135 C2133 1.384 . S
H2136 C2142 0.930 . S
H2137 C2146 0.930 . S
H2138 C2151 0.943 . S
H2139 C2149 0.943 . S
H2140 C2144 0.929 . S
H2141 C2150 0.929 . S
C2142 H2136 0.930 . S
C2142 C2143 1.367 . S
C2142 C2150 1.378 . S
C2143 C2142 1.367 . S
C2143 C2151 1.433 . S
C2144 H2140 0.929 . S
C2144 C2146 1.378 . S
C2144 C2148 1.350 . S
C2145 C2148 1.463 1_545 S
C2145 C2150 1.350 . S
C2145 N2153 1.427 1_545 S
C2146 H2137 0.930 . S
C2146 C2144 1.378 . S
C2146 C2147 1.367 . S
C2147 C2146 1.367 . S
C2147 C2149 1.433 . S
C2148 C2144 1.350 . S
C2148 C2145 1.463 1_565 S
C2148 N2152 1.427 1_565 S
C2149 H2139 0.943 . S
C2149 C2147 1.433 . S
C2149 N2152 1.384 1_565 S
C2150 H2141 0.929 . S
C2150 C2142 1.378 . S
C2150 C2145 1.350 . S
C2151 H2138 0.943 . S
C2151 C2143 1.433 . S
C2151 N2153 1.384 1_545 S
N2152 C2148 1.427 1_545 S
N2152 C2149 1.384 1_545 S
N2153 C2145 1.427 1_565 S
N2153 C2151 1.384 1_565 S
H2154 C2160 0.930 . S
H2155 C2164 0.930 . S
H2156 C2169 0.929 . S
H2157 C2167 0.929 . S
H2158 C2162 0.929 . S
H2159 C2168 0.929 . S
C2160 H2154 0.930 . S
C2160 C2161 1.367 . S
C2160 C2168 1.378 1_455 S
C2161 C2160 1.367 . S
C2161 C2169 1.433 . S
C2162 H2158 0.929 . S
C2162 C2164 1.378 1_455 S
C2162 C2166 1.350 1_455 S
C2163 C2166 1.463 1_455 S
C2163 C2168 1.350 1_455 S
C2163 N2171 1.427 . S
C2164 H2155 0.930 . S
C2164 C2162 1.378 1_655 S
C2164 C2165 1.367 . S
C2165 C2164 1.367 . S
C2165 C2167 1.433 . S
C2166 C2162 1.350 1_655 S
C2166 C2163 1.463 1_655 S
C2166 N2170 1.427 . S
C2167 H2157 0.929 . S
C2167 C2165 1.433 . S
C2167 N2170 1.384 . S
C2168 H2159 0.929 . S
C2168 C2160 1.378 1_655 S
C2168 C2163 1.350 1_655 S
C2169 H2156 0.929 . S
C2169 C2161 1.433 . S
C2169 N2171 1.384 . S
N2170 C2166 1.427 . S
N2170 C2167 1.384 . S
N2171 C2163 1.427 . S
N2171 C2169 1.384 . S
H2172 C2178 0.930 . S
H2173 C2182 0.930 . S
H2174 C2187 0.910 1_565 S
H2175 C2185 0.910 1_545 S
H2176 C2180 0.929 . S
H2177 C2186 0.929 . S
C2178 H2172 0.930 . S
C2178 C2179 1.367 . S
C2178 C2186 1.378 . S
C2179 C2178 1.367 . S
C2179 C2187 1.433 . S
C2180 H2176 0.929 . S
C2180 C2182 1.378 . S
C2180 C2184 1.350 . S
C2181 C2184 1.463 1_545 S
C2181 C2186 1.350 . S
C2181 N2189 1.427 1_545 S
C2182 H2173 0.930 . S
C2182 C2180 1.378 . S
C2182 C2183 1.367 . S
C2183 C2182 1.367 . S
C2183 C2185 1.433 . S
C2184 C2180 1.350 . S
C2184 C2181 1.463 1_565 S
C2184 N2188 1.427 1_565 S
C2185 H2175 0.910 1_565 S
C2185 C2183 1.433 . S
C2185 N2188 1.384 1_565 S
C2186 H2177 0.929 . S
C2186 C2178 1.378 . S
C2186 C2181 1.350 . S
C2187 H2174 0.910 1_545 S
C2187 C2179 1.433 . S
C2187 N2189 1.384 1_545 S
N2188 C2184 1.427 1_545 S
N2188 C2185 1.384 1_545 S
N2189 C2181 1.427 1_565 S
N2189 C2187 1.384 1_565 S
H2190 C2196 0.901 1_455 S
H2191 C2200 0.901 1_655 S
H2192 C2205 0.929 . S
H2193 C2203 0.929 . S
H2194 C2198 0.929 . S
H2195 C2204 0.929 . S
C2196 H2190 0.901 1_655 S
C2196 C2197 1.367 . S
C2196 C2204 1.378 1_655 S
C2197 C2196 1.367 . S
C2197 C2205 1.433 . S
C2198 H2194 0.929 . S
C2198 C2200 1.378 1_655 S
C2198 C2202 1.350 1_655 S
C2199 C2202 1.463 1_655 S
C2199 C2204 1.350 1_655 S
C2199 N2207 1.427 . S
C2200 H2191 0.901 1_455 S
C2200 C2198 1.378 1_455 S
C2200 C2201 1.367 . S
C2201 C2200 1.367 . S
C2201 C2203 1.433 . S
C2202 C2198 1.350 1_455 S
C2202 C2199 1.463 1_455 S
C2202 N2206 1.427 . S
C2203 H2193 0.929 . S
C2203 C2201 1.433 . S
C2203 N2206 1.384 . S
C2204 H2195 0.929 . S
C2204 C2196 1.378 1_455 S
C2204 C2199 1.350 1_455 S
C2205 H2192 0.929 . S
C2205 C2197 1.433 . S
C2205 N2207 1.384 . S
N2206 C2202 1.427 . S
N2206 C2203 1.384 . S
N2207 C2199 1.427 . S
N2207 C2205 1.384 . S
H2208 C2214 0.930 . S
H2209 C2218 0.930 . S
H2210 C2223 0.929 . S
H2211 C2221 0.929 . S
H2212 C2216 0.929 . S
H2213 C2222 0.929 . S
C2214 H2208 0.930 . S
C2214 C2215 1.367 . S
C2214 C2222 1.378 . S
C2215 C2214 1.367 . S
C2215 C2223 1.433 . S
C2216 H2212 0.929 . S
C2216 C2218 1.378 . S
C2216 C2220 1.350 . S
C2217 C2220 1.463 1_556 S
C2217 C2222 1.350 . S
C2217 N2225 1.427 . S
C2218 H2209 0.930 . S
C2218 C2216 1.378 . S
C2218 C2219 1.367 . S
C2219 C2218 1.367 . S
C2219 C2221 1.433 . S
C2220 C2216 1.350 . S
C2220 C2217 1.463 1_554 S
C2220 N2224 1.427 . S
C2221 H2211 0.929 . S
C2221 C2219 1.433 . S
C2221 N2224 1.384 . S
C2222 H2213 0.929 . S
C2222 C2214 1.378 . S
C2222 C2217 1.350 . S
C2223 H2210 0.929 . S
C2223 C2215 1.433 . S
C2223 N2225 1.384 . S
N2224 C2220 1.427 . S
N2224 C2221 1.384 . S
N2225 C2217 1.427 . S
N2225 C2223 1.384 . S
H2226 C2232 0.930 . S
H2227 C2236 0.930 . S
H2228 C2241 0.921 1_554 S
H2229 C2239 0.921 1_556 S
H2230 C2234 0.929 . S
H2231 C2240 0.929 . S
C2232 H2226 0.930 . S
C2232 C2233 1.367 . S
C2232 C2240 1.378 . S
C2233 C2232 1.367 . S
C2233 C2241 1.433 . S
C2234 H2230 0.929 . S
C2234 C2236 1.378 . S
C2234 C2238 1.350 . S
C2235 C2238 1.463 1_556 S
C2235 C2240 1.350 . S
C2235 N2243 1.427 1_556 S
C2236 H2227 0.930 . S
C2236 C2234 1.378 . S
C2236 C2237 1.367 . S
C2237 C2236 1.367 . S
C2237 C2239 1.433 . S
C2238 C2234 1.350 . S
C2238 C2235 1.463 1_554 S
C2238 N2242 1.427 1_554 S
C2239 H2229 0.921 1_554 S
C2239 C2237 1.433 . S
C2239 N2242 1.384 1_554 S
C2240 H2231 0.929 . S
C2240 C2232 1.378 . S
C2240 C2235 1.350 . S
C2241 H2228 0.921 1_556 S
C2241 C2233 1.433 . S
C2241 N2243 1.384 1_556 S
N2242 C2238 1.427 1_556 S
N2242 C2239 1.384 1_556 S
N2243 C2235 1.427 1_554 S
N2243 C2241 1.384 1_554 S
H2244 C2250 0.930 . S
H2245 C2254 0.930 . S
H2246 C2259 0.929 1_554 S
H2247 C2257 0.929 1_556 S
H2248 C2252 0.929 . S
H2249 C2258 0.929 . S
C2250 H2244 0.930 . S
C2250 C2251 1.367 . S
C2250 C2258 1.378 . S
C2251 C2250 1.367 . S
C2251 C2259 1.433 . S
C2252 H2248 0.929 . S
C2252 C2254 1.378 . S
C2252 C2256 1.350 . S
C2253 C2256 1.463 1_556 S
C2253 C2258 1.350 . S
C2253 N2261 1.427 1_556 S
C2254 H2245 0.930 . S
C2254 C2252 1.378 . S
C2254 C2255 1.367 . S
C2255 C2254 1.367 . S
C2255 C2257 1.433 . S
C2256 C2252 1.350 . S
C2256 C2253 1.463 1_554 S
C2256 N2260 1.427 1_554 S
C2257 H2247 0.929 1_554 S
C2257 C2255 1.433 . S
C2257 N2260 1.384 1_554 S
C2258 H2249 0.929 . S
C2258 C2250 1.378 . S
C2258 C2253 1.350 . S
C2259 H2246 0.929 1_556 S
C2259 C2251 1.433 . S
C2259 N2261 1.384 1_556 S
N2260 C2256 1.427 1_556 S
N2260 C2257 1.384 1_556 S
N2261 C2253 1.427 1_554 S
N2261 C2259 1.384 1_554 S
H2262 C2268 0.930 . S
H2263 C2272 0.930 . S
H2264 C2277 0.929 . S
H2265 C2275 0.929 . S
H2266 C2270 0.929 . S
H2267 C2276 0.929 . S
C2268 H2262 0.930 . S
C2268 C2269 1.367 . S
C2268 C2276 1.378 . S
C2269 C2268 1.367 . S
C2269 C2277 1.433 . S
C2270 H2266 0.929 . S
C2270 C2272 1.378 . S
C2270 C2274 1.350 . S
C2271 C2274 1.463 1_556 S
C2271 C2276 1.350 . S
C2271 N2279 1.427 . S
C2272 H2263 0.930 . S
C2272 C2270 1.378 . S
C2272 C2273 1.367 . S
C2273 C2272 1.367 . S
C2273 C2275 1.433 . S
C2274 C2270 1.350 . S
C2274 C2271 1.463 1_554 S
C2274 N2278 1.427 . S
C2275 H2265 0.929 . S
C2275 C2273 1.433 . S
C2275 N2278 1.384 . S
C2276 H2267 0.929 . S
C2276 C2268 1.378 . S
C2276 C2271 1.350 . S
C2277 H2264 0.929 . S
C2277 C2269 1.433 . S
C2277 N2279 1.384 . S
N2278 C2274 1.427 . S
N2278 C2275 1.384 . S
N2279 C2271 1.427 . S
N2279 C2277 1.384 . S
H2280 C2286 0.930 . S
H2281 C2290 0.930 . S
H2282 C2295 0.929 . S
H2283 C2293 0.929 . S
H2284 C2288 0.911 1_545 S
H2285 C2294 0.911 1_565 S
C2286 H2280 0.930 . S
C2286 C2287 1.367 . S
C2286 C2294 1.378 . S
C2287 C2286 1.367 . S
C2287 C2295 1.433 . S
C2288 H2284 0.911 1_565 S
C2288 C2290 1.378 . S
C2288 C2292 1.350 . S
C2289 C2292 1.463 1_545 S
C2289 C2294 1.350 . S
C2289 N2297 1.427 . S
C2290 H2281 0.930 . S
C2290 C2288 1.378 . S
C2290 C2291 1.367 . S
C2291 C2290 1.367 . S
C2291 C2293 1.433 . S
C2292 C2288 1.350 . S
C2292 C2289 1.463 1_565 S
C2292 N2296 1.427 . S
C2293 H2283 0.929 . S
C2293 C2291 1.433 . S
C2293 N2296 1.384 . S
C2294 H2285 0.911 1_545 S
C2294 C2286 1.378 . S
C2294 C2289 1.350 . S
C2295 H2282 0.929 . S
C2295 C2287 1.433 . S
C2295 N2297 1.384 . S
N2296 C2292 1.427 . S
N2296 C2293 1.384 . S
N2297 C2289 1.427 . S
N2297 C2295 1.384 . S
H2298 C2304 0.930 . S
H2299 C2308 0.930 . S
H2300 C2313 0.929 . S
H2301 C2311 0.929 . S
H2302 C2306 0.929 . S
H2303 C2312 0.929 . S
C2304 H2298 0.930 . S
C2304 C2305 1.367 . S
C2304 C2312 1.378 . S
C2305 C2304 1.367 . S
C2305 C2313 1.433 . S
C2306 H2302 0.929 . S
C2306 C2308 1.378 . S
C2306 C2310 1.350 . S
C2307 C2310 1.463 1_655 S
C2307 C2312 1.350 . S
C2307 N2315 1.427 . S
C2308 H2299 0.930 . S
C2308 C2306 1.378 . S
C2308 C2309 1.367 . S
C2309 C2308 1.367 . S
C2309 C2311 1.433 . S
C2310 C2306 1.350 . S
C2310 C2307 1.463 1_455 S
C2310 N2314 1.427 . S
C2311 H2301 0.929 . S
C2311 C2309 1.433 . S
C2311 N2314 1.384 . S
C2312 H2303 0.929 . S
C2312 C2304 1.378 . S
C2312 C2307 1.350 . S
C2313 H2300 0.929 . S
C2313 C2305 1.433 . S
C2313 N2315 1.384 . S
N2314 C2310 1.427 . S
N2314 C2311 1.384 . S
N2315 C2307 1.427 . S
N2315 C2313 1.384 . S
H2316 C2322 0.930 . S
H2317 C2326 0.930 . S
H2318 C2331 0.929 . S
H2319 C2329 0.929 . S
H2320 C2324 0.929 . S
H2321 C2330 0.929 . S
C2322 H2316 0.930 . S
C2322 C2323 1.367 . S
C2322 C2330 1.378 . S
C2323 C2322 1.367 . S
C2323 C2331 1.433 . S
C2324 H2320 0.929 . S
C2324 C2326 1.378 . S
C2324 C2328 1.350 . S
C2325 C2328 1.463 1_565 S
C2325 C2330 1.350 . S
C2325 N2333 1.427 . S
C2326 H2317 0.930 . S
C2326 C2324 1.378 . S
C2326 C2327 1.367 . S
C2327 C2326 1.367 . S
C2327 C2329 1.433 . S
C2328 C2324 1.350 . S
C2328 C2325 1.463 1_545 S
C2328 N2332 1.427 . S
C2329 H2319 0.929 . S
C2329 C2327 1.433 . S
C2329 N2332 1.384 . S
C2330 H2321 0.929 . S
C2330 C2322 1.378 . S
C2330 C2325 1.350 . S
C2331 H2318 0.929 . S
C2331 C2323 1.433 . S
C2331 N2333 1.384 . S
N2332 C2328 1.427 . S
N2332 C2329 1.384 . S
N2333 C2325 1.427 . S
N2333 C2331 1.384 . S
H2334 C2340 0.930 . S
H2335 C2344 0.930 . S
H2336 C2349 0.929 . S
H2337 C2347 0.929 . S
H2338 C2342 0.929 1_455 S
H2339 C2348 0.929 1_655 S
C2340 H2334 0.930 . S
C2340 C2341 1.367 . S
C2340 C2348 1.378 . S
C2341 C2340 1.367 . S
C2341 C2349 1.433 . S
C2342 H2338 0.929 1_655 S
C2342 C2344 1.378 . S
C2342 C2346 1.350 . S
C2343 C2346 1.463 1_455 S
C2343 C2348 1.350 . S
C2343 N2351 1.427 . S
C2344 H2335 0.930 . S
C2344 C2342 1.378 . S
C2344 C2345 1.367 . S
C2345 C2344 1.367 . S
C2345 C2347 1.433 . S
C2346 C2342 1.350 . S
C2346 C2343 1.463 1_655 S
C2346 N2350 1.427 . S
C2347 H2337 0.929 . S
C2347 C2345 1.433 . S
C2347 N2350 1.384 . S
C2348 H2339 0.929 1_455 S
C2348 C2340 1.378 . S
C2348 C2343 1.350 . S
C2349 H2336 0.929 . S
C2349 C2341 1.433 . S
C2349 N2351 1.384 . S
N2350 C2346 1.427 . S
N2350 C2347 1.384 . S
N2351 C2343 1.427 . S
N2351 C2349 1.384 . S
H2352 C2358 0.930 . S
H2353 C2362 0.930 . S
H2354 C2367 0.929 . S
H2355 C2365 0.929 . S
H2356 C2360 0.929 1_556 S
H2357 C2366 0.929 1_554 S
C2358 H2352 0.930 . S
C2358 C2359 1.367 . S
C2358 C2366 1.378 . S
C2359 C2358 1.367 . S
C2359 C2367 1.433 . S
C2360 H2356 0.929 1_554 S
C2360 C2362 1.378 . S
C2360 C2364 1.350 . S
C2361 C2364 1.463 1_556 S
C2361 C2366 1.350 . S
C2361 N2369 1.427 . S
C2362 H2353 0.930 . S
C2362 C2360 1.378 . S
C2362 C2363 1.367 . S
C2363 C2362 1.367 . S
C2363 C2365 1.433 . S
C2364 C2360 1.350 . S
C2364 C2361 1.463 1_554 S
C2364 N2368 1.427 . S
C2365 H2355 0.929 . S
C2365 C2363 1.433 . S
C2365 N2368 1.384 . S
C2366 H2357 0.929 1_556 S
C2366 C2358 1.378 . S
C2366 C2361 1.350 . S
C2367 H2354 0.929 . S
C2367 C2359 1.433 . S
C2367 N2369 1.384 . S
N2368 C2364 1.427 . S
N2368 C2365 1.384 . S
N2369 C2361 1.427 . S
N2369 C2367 1.384 . S
H2370 C2376 0.930 . S
H2371 C2380 0.930 . S
H2372 C2385 0.929 . S
H2373 C2383 0.929 . S
H2374 C2378 0.929 . S
H2375 C2384 0.929 . S
C2376 H2370 0.930 . S
C2376 C2377 1.367 . S
C2376 C2384 1.378 . S
C2377 C2376 1.367 . S
C2377 C2385 1.433 . S
C2378 H2374 0.929 . S
C2378 C2380 1.378 . S
C2378 C2382 1.350 . S
C2379 C2382 1.463 1_556 S
C2379 C2384 1.350 . S
C2379 N2387 1.427 . S
C2380 H2371 0.930 . S
C2380 C2378 1.378 . S
C2380 C2381 1.367 . S
C2381 C2380 1.367 . S
C2381 C2383 1.433 . S
C2382 C2378 1.350 . S
C2382 C2379 1.463 1_554 S
C2382 N2386 1.427 . S
C2383 H2373 0.929 . S
C2383 C2381 1.433 . S
C2383 N2386 1.384 . S
C2384 H2375 0.929 . S
C2384 C2376 1.378 . S
C2384 C2379 1.350 . S
C2385 H2372 0.929 . S
C2385 C2377 1.433 . S
C2385 N2387 1.384 . S
N2386 C2382 1.427 . S
N2386 C2383 1.384 . S
N2387 C2379 1.427 . S
N2387 C2385 1.384 . S
H2388 C2394 0.930 . S
H2389 C2398 0.930 . S
H2390 C2403 0.929 . S
H2391 C2401 0.929 . S
H2392 C2396 0.929 1_554 S
H2393 C2402 0.929 1_556 S
C2394 H2388 0.930 . S
C2394 C2395 1.367 . S
C2394 C2402 1.378 . S
C2395 C2394 1.367 . S
C2395 C2403 1.433 . S
C2396 H2392 0.929 1_556 S
C2396 C2398 1.378 . S
C2396 C2400 1.350 . S
C2397 C2400 1.463 1_554 S
C2397 C2402 1.350 . S
C2397 N2405 1.427 . S
C2398 H2389 0.930 . S
C2398 C2396 1.378 . S
C2398 C2399 1.367 . S
C2399 C2398 1.367 . S
C2399 C2401 1.433 . S
C2400 C2396 1.350 . S
C2400 C2397 1.463 1_556 S
C2400 N2404 1.427 . S
C2401 H2391 0.929 . S
C2401 C2399 1.433 . S
C2401 N2404 1.384 . S
C2402 H2393 0.929 1_554 S
C2402 C2394 1.378 . S
C2402 C2397 1.350 . S
C2403 H2390 0.929 . S
C2403 C2395 1.433 . S
C2403 N2405 1.384 . S
N2404 C2400 1.427 . S
N2404 C2401 1.384 . S
N2405 C2397 1.427 . S
N2405 C2403 1.384 . S
H2406 C2412 0.930 . S
H2407 C2416 0.930 . S
H2408 C2421 0.929 . S
H2409 C2419 0.929 . S
H2410 C2414 0.929 . S
H2411 C2420 0.929 . S
C2412 H2406 0.930 . S
C2412 C2413 1.367 . S
C2412 C2420 1.378 . S
C2413 C2412 1.367 . S
C2413 C2421 1.433 . S
C2414 H2410 0.929 . S
C2414 C2416 1.378 . S
C2414 C2418 1.350 . S
C2415 C2418 1.463 1_554 S
C2415 C2420 1.350 . S
C2415 N2423 1.427 . S
C2416 H2407 0.930 . S
C2416 C2414 1.378 . S
C2416 C2417 1.367 . S
C2417 C2416 1.367 . S
C2417 C2419 1.433 . S
C2418 C2414 1.350 . S
C2418 C2415 1.463 1_556 S
C2418 N2422 1.427 . S
C2419 H2409 0.929 . S
C2419 C2417 1.433 . S
C2419 N2422 1.384 . S
C2420 H2411 0.929 . S
C2420 C2412 1.378 . S
C2420 C2415 1.350 . S
C2421 H2408 0.929 . S
C2421 C2413 1.433 . S
C2421 N2423 1.384 . S
N2422 C2418 1.427 . S
N2422 C2419 1.384 . S
N2423 C2415 1.427 . S
N2423 C2421 1.384 . S
H2424 C2430 0.930 . S
H2425 C2434 0.930 . S
H2426 C2439 0.929 . S
H2427 C2437 0.929 . S
H2428 C2432 0.929 . S
H2429 C2438 0.929 . S
C2430 H2424 0.930 . S
C2430 C2431 1.367 . S
C2430 C2438 1.378 . S
C2431 C2430 1.367 . S
C2431 C2439 1.433 . S
C2432 H2428 0.929 . S
C2432 C2434 1.378 . S
C2432 C2436 1.350 . S
C2433 C2436 1.463 1_655 S
C2433 C2438 1.350 . S
C2433 N2441 1.427 . S
C2434 H2425 0.930 . S
C2434 C2432 1.378 . S
C2434 C2435 1.367 . S
C2435 C2434 1.367 . S
C2435 C2437 1.433 . S
C2436 C2432 1.350 . S
C2436 C2433 1.463 1_455 S
C2436 N2440 1.427 . S
C2437 H2427 0.929 . S
C2437 C2435 1.433 . S
C2437 N2440 1.384 . S
C2438 H2429 0.929 . S
C2438 C2430 1.378 . S
C2438 C2433 1.350 . S
C2439 H2426 0.929 . S
C2439 C2431 1.433 . S
C2439 N2441 1.384 . S
N2440 C2436 1.427 . S
N2440 C2437 1.384 . S
N2441 C2433 1.427 . S
N2441 C2439 1.384 . S
H2442 C2448 0.930 . S
H2443 C2452 0.930 . S
H2444 C2457 0.929 . S
H2445 C2455 0.929 . S
H2446 C2450 0.929 1_455 S
H2447 C2456 0.929 1_655 S
C2448 H2442 0.930 . S
C2448 C2449 1.367 . S
C2448 C2456 1.378 . S
C2449 C2448 1.367 . S
C2449 C2457 1.433 . S
C2450 H2446 0.929 1_655 S
C2450 C2452 1.378 . S
C2450 C2454 1.350 . S
C2451 C2454 1.463 1_455 S
C2451 C2456 1.350 . S
C2451 N2459 1.427 . S
C2452 H2443 0.930 . S
C2452 C2450 1.378 . S
C2452 C2453 1.367 . S
C2453 C2452 1.367 . S
C2453 C2455 1.433 . S
C2454 C2450 1.350 . S
C2454 C2451 1.463 1_655 S
C2454 N2458 1.427 . S
C2455 H2445 0.929 . S
C2455 C2453 1.433 . S
C2455 N2458 1.384 . S
C2456 H2447 0.929 1_455 S
C2456 C2448 1.378 . S
C2456 C2451 1.350 . S
C2457 H2444 0.929 . S
C2457 C2449 1.433 . S
C2457 N2459 1.384 . S
N2458 C2454 1.427 . S
N2458 C2455 1.384 . S
N2459 C2451 1.427 . S
N2459 C2457 1.384 . S
H2460 C2466 0.930 . S
H2461 C2470 0.930 . S
H2462 C2475 0.929 . S
H2463 C2473 0.929 . S
H2464 C2468 0.929 . S
H2465 C2474 0.929 . S
C2466 H2460 0.930 . S
C2466 C2467 1.367 . S
C2466 C2474 1.378 . S
C2467 C2466 1.367 . S
C2467 C2475 1.433 . S
C2468 H2464 0.929 . S
C2468 C2470 1.378 . S
C2468 C2472 1.350 . S
C2469 C2472 1.463 1_545 S
C2469 C2474 1.350 . S
C2469 N2477 1.427 . S
C2470 H2461 0.930 . S
C2470 C2468 1.378 . S
C2470 C2471 1.367 . S
C2471 C2470 1.367 . S
C2471 C2473 1.433 . S
C2472 C2468 1.350 . S
C2472 C2469 1.463 1_565 S
C2472 N2476 1.427 . S
C2473 H2463 0.929 . S
C2473 C2471 1.433 . S
C2473 N2476 1.384 . S
C2474 H2465 0.929 . S
C2474 C2466 1.378 . S
C2474 C2469 1.350 . S
C2475 H2462 0.929 . S
C2475 C2467 1.433 . S
C2475 N2477 1.384 . S
N2476 C2472 1.427 . S
N2476 C2473 1.384 . S
N2477 C2469 1.427 . S
N2477 C2475 1.384 . S
H2478 C2484 0.930 . S
H2479 C2488 0.930 . S
H2480 C2493 0.929 . S
H2481 C2491 0.929 . S
H2482 C2486 0.929 1_565 S
H2483 C2492 0.929 1_545 S
C2484 H2478 0.930 . S
C2484 C2485 1.367 . S
C2484 C2492 1.378 . S
C2485 C2484 1.367 . S
C2485 C2493 1.433 . S
C2486 H2482 0.929 1_545 S
C2486 C2488 1.378 . S
C2486 C2490 1.350 . S
C2487 C2490 1.463 1_565 S
C2487 C2492 1.350 . S
C2487 N2495 1.427 . S
C2488 H2479 0.930 . S
C2488 C2486 1.378 . S
C2488 C2489 1.367 . S
C2489 C2488 1.367 . S
C2489 C2491 1.433 . S
C2490 C2486 1.350 . S
C2490 C2487 1.463 1_545 S
C2490 N2494 1.427 . S
C2491 H2481 0.929 . S
C2491 C2489 1.433 . S
C2491 N2494 1.384 . S
C2492 H2483 0.929 1_565 S
C2492 C2484 1.378 . S
C2492 C2487 1.350 . S
C2493 H2480 0.929 . S
C2493 C2485 1.433 . S
C2493 N2495 1.384 . S
N2494 C2490 1.427 . S
N2494 C2491 1.384 . S
N2495 C2487 1.427 . S
N2495 C2493 1.384 . S
H2496 C2502 0.930 . S
H2497 C2506 0.930 . S
H2498 C2511 0.929 . S
H2499 C2509 0.929 . S
H2500 C2504 0.929 . S
H2501 C2510 0.929 . S
C2502 H2496 0.930 . S
C2502 C2503 1.367 . S
C2502 C2510 1.378 . S
C2503 C2502 1.367 . S
C2503 C2511 1.433 . S
C2504 H2500 0.929 . S
C2504 C2506 1.378 . S
C2504 C2508 1.350 . S
C2505 C2508 1.463 . S
C2505 C2510 1.350 . S
C2505 N2513 1.427 . S
C2506 H2497 0.930 . S
C2506 C2504 1.378 . S
C2506 C2507 1.367 . S
C2507 C2506 1.367 . S
C2507 C2509 1.433 . S
C2508 C2504 1.350 . S
C2508 C2505 1.463 . S
C2508 N2512 1.427 . S
C2509 H2499 0.929 . S
C2509 C2507 1.433 . S
C2509 N2512 1.384 . S
C2510 H2501 0.929 . S
C2510 C2502 1.378 . S
C2510 C2505 1.350 . S
C2511 H2498 0.929 . S
C2511 C2503 1.433 . S
C2511 N2513 1.384 . S
N2512 C2508 1.427 . S
N2512 C2509 1.384 . S
N2513 C2505 1.427 . S
N2513 C2511 1.384 . S
H2514 C2520 0.930 . S
H2515 C2524 0.930 . S
H2516 C2529 0.929 . S
H2517 C2527 0.929 . S
H2518 C2522 0.929 . S
H2519 C2528 0.929 . S
C2520 H2514 0.930 . S
C2520 C2521 1.367 . S
C2520 C2528 1.378 . S
C2521 C2520 1.367 . S
C2521 C2529 1.433 . S
C2522 H2518 0.929 . S
C2522 C2524 1.378 . S
C2522 C2526 1.350 . S
C2523 C2526 1.463 . S
C2523 C2528 1.350 . S
C2523 N2531 1.427 . S
C2524 H2515 0.930 . S
C2524 C2522 1.378 . S
C2524 C2525 1.367 . S
C2525 C2524 1.367 . S
C2525 C2527 1.433 . S
C2526 C2522 1.350 . S
C2526 C2523 1.463 . S
C2526 N2530 1.427 . S
C2527 H2517 0.929 . S
C2527 C2525 1.433 . S
C2527 N2530 1.384 . S
C2528 H2519 0.929 . S
C2528 C2520 1.378 . S
C2528 C2523 1.350 . S
C2529 H2516 0.929 . S
C2529 C2521 1.433 . S
C2529 N2531 1.384 . S
N2530 C2526 1.427 . S
N2530 C2527 1.384 . S
N2531 C2523 1.427 . S
N2531 C2529 1.384 . S
H2532 C2538 0.930 . S
H2533 C2542 0.930 . S
H2534 C2547 0.929 . S
H2535 C2545 0.929 . S
H2536 C2540 0.929 . S
H2537 C2546 0.929 . S
C2538 H2532 0.930 . S
C2538 C2539 1.367 . S
C2538 C2546 1.378 . S
C2539 C2538 1.367 . S
C2539 C2547 1.433 . S
C2540 H2536 0.929 . S
C2540 C2542 1.378 . S
C2540 C2544 1.350 . S
C2541 C2544 1.463 . S
C2541 C2546 1.350 . S
C2541 N2549 1.427 . S
C2542 H2533 0.930 . S
C2542 C2540 1.378 . S
C2542 C2543 1.367 . S
C2543 C2542 1.367 . S
C2543 C2545 1.433 . S
C2544 C2540 1.350 . S
C2544 C2541 1.463 . S
C2544 N2548 1.427 . S
C2545 H2535 0.929 . S
C2545 C2543 1.433 . S
C2545 N2548 1.384 . S
C2546 H2537 0.929 . S
C2546 C2538 1.378 . S
C2546 C2541 1.350 . S
C2547 H2534 0.929 . S
C2547 C2539 1.433 . S
C2547 N2549 1.384 . S
N2548 C2544 1.427 . S
N2548 C2545 1.384 . S
N2549 C2541 1.427 . S
N2549 C2547 1.384 . S
H2550 C2556 0.930 . S
H2551 C2560 0.930 . S
H2552 C2565 0.929 . S
H2553 C2563 0.929 . S
H2554 C2558 0.929 . S
H2555 C2564 0.929 . S
C2556 H2550 0.930 . S
C2556 C2557 1.367 . S
C2556 C2564 1.378 . S
C2557 C2556 1.367 . S
C2557 C2565 1.433 . S
C2558 H2554 0.929 . S
C2558 C2560 1.378 . S
C2558 C2562 1.350 . S
C2559 C2562 1.463 . S
C2559 C2564 1.350 . S
C2559 N2567 1.427 . S
C2560 H2551 0.930 . S
C2560 C2558 1.378 . S
C2560 C2561 1.367 . S
C2561 C2560 1.367 . S
C2561 C2563 1.433 . S
C2562 C2558 1.350 . S
C2562 C2559 1.463 . S
C2562 N2566 1.427 . S
C2563 H2553 0.929 . S
C2563 C2561 1.433 . S
C2563 N2566 1.384 . S
C2564 H2555 0.929 . S
C2564 C2556 1.378 . S
C2564 C2559 1.350 . S
C2565 H2552 0.929 . S
C2565 C2557 1.433 . S
C2565 N2567 1.384 . S
N2566 C2562 1.427 . S
N2566 C2563 1.384 . S
N2567 C2559 1.427 . S
N2567 C2565 1.384 . S
H2568 C2574 0.930 . S
H2569 C2578 0.930 . S
H2570 C2583 0.929 . S
H2571 C2581 0.929 . S
H2572 C2576 0.929 . S
H2573 C2582 0.929 . S
C2574 H2568 0.930 . S
C2574 C2575 1.367 . S
C2574 C2582 1.378 . S
C2575 C2574 1.367 . S
C2575 C2583 1.433 . S
C2576 H2572 0.929 . S
C2576 C2578 1.378 . S
C2576 C2580 1.350 . S
C2577 C2580 1.463 . S
C2577 C2582 1.350 . S
C2577 N2585 1.427 . S
C2578 H2569 0.930 . S
C2578 C2576 1.378 . S
C2578 C2579 1.367 . S
C2579 C2578 1.367 . S
C2579 C2581 1.433 . S
C2580 C2576 1.350 . S
C2580 C2577 1.463 . S
C2580 N2584 1.427 . S
C2581 H2571 0.929 . S
C2581 C2579 1.433 . S
C2581 N2584 1.384 . S
C2582 H2573 0.929 . S
C2582 C2574 1.378 . S
C2582 C2577 1.350 . S
C2583 H2570 0.929 . S
C2583 C2575 1.433 . S
C2583 N2585 1.384 . S
N2584 C2580 1.427 . S
N2584 C2581 1.384 . S
N2585 C2577 1.427 . S
N2585 C2583 1.384 . S
H2586 C2592 0.930 . S
H2587 C2596 0.930 . S
H2588 C2601 0.929 . S
H2589 C2599 0.929 . S
H2590 C2594 0.929 . S
H2591 C2600 0.929 . S
C2592 H2586 0.930 . S
C2592 C2593 1.367 . S
C2592 C2600 1.378 . S
C2593 C2592 1.367 . S
C2593 C2601 1.433 . S
C2594 H2590 0.929 . S
C2594 C2596 1.378 . S
C2594 C2598 1.350 . S
C2595 C2598 1.463 . S
C2595 C2600 1.350 . S
C2595 N2603 1.427 . S
C2596 H2587 0.930 . S
C2596 C2594 1.378 . S
C2596 C2597 1.367 . S
C2597 C2596 1.367 . S
C2597 C2599 1.433 . S
C2598 C2594 1.350 . S
C2598 C2595 1.463 . S
C2598 N2602 1.427 . S
C2599 H2589 0.929 . S
C2599 C2597 1.433 . S
C2599 N2602 1.384 . S
C2600 H2591 0.929 . S
C2600 C2592 1.378 . S
C2600 C2595 1.350 . S
C2601 H2588 0.929 . S
C2601 C2593 1.433 . S
C2601 N2603 1.384 . S
N2602 C2598 1.427 . S
N2602 C2599 1.384 . S
N2603 C2595 1.427 . S
N2603 C2601 1.384 . S
H2604 C2610 0.930 . S
H2605 C2614 0.930 . S
H2606 C2619 0.929 . S
H2607 C2617 0.929 . S
H2608 C2612 0.929 . S
H2609 C2618 0.929 . S
C2610 H2604 0.930 . S
C2610 C2611 1.367 . S
C2610 C2618 1.378 . S
C2611 C2610 1.367 . S
C2611 C2619 1.433 . S
C2612 H2608 0.929 . S
C2612 C2614 1.378 . S
C2612 C2616 1.350 . S
C2613 C2616 1.463 . S
C2613 C2618 1.350 . S
C2613 N2621 1.427 . S
C2614 H2605 0.930 . S
C2614 C2612 1.378 . S
C2614 C2615 1.367 . S
C2615 C2614 1.367 . S
C2615 C2617 1.433 . S
C2616 C2612 1.350 . S
C2616 C2613 1.463 . S
C2616 N2620 1.427 . S
C2617 H2607 0.929 . S
C2617 C2615 1.433 . S
C2617 N2620 1.384 . S
C2618 H2609 0.929 . S
C2618 C2610 1.378 . S
C2618 C2613 1.350 . S
C2619 H2606 0.929 . S
C2619 C2611 1.433 . S
C2619 N2621 1.384 . S
N2620 C2616 1.427 . S
N2620 C2617 1.384 . S
N2621 C2613 1.427 . S
N2621 C2619 1.384 . S
H2622 C2628 0.930 . S
H2623 C2632 0.930 . S
H2624 C2637 0.929 . S
H2625 C2635 0.929 . S
H2626 C2630 0.929 . S
H2627 C2636 0.929 . S
C2628 H2622 0.930 . S
C2628 C2629 1.367 . S
C2628 C2636 1.378 . S
C2629 C2628 1.367 . S
C2629 C2637 1.433 . S
C2630 H2626 0.929 . S
C2630 C2632 1.378 . S
C2630 C2634 1.350 . S
C2631 C2634 1.463 . S
C2631 C2636 1.350 . S
C2631 N2639 1.427 . S
C2632 H2623 0.930 . S
C2632 C2630 1.378 . S
C2632 C2633 1.367 . S
C2633 C2632 1.367 . S
C2633 C2635 1.433 . S
C2634 C2630 1.350 . S
C2634 C2631 1.463 . S
C2634 N2638 1.427 . S
C2635 H2625 0.929 . S
C2635 C2633 1.433 . S
C2635 N2638 1.384 . S
C2636 H2627 0.929 . S
C2636 C2628 1.378 . S
C2636 C2631 1.350 . S
C2637 H2624 0.929 . S
C2637 C2629 1.433 . S
C2637 N2639 1.384 . S
N2638 C2634 1.427 . S
N2638 C2635 1.384 . S
N2639 C2631 1.427 . S
N2639 C2637 1.384 . S
H2640 C2646 0.930 . S
H2641 C2650 0.930 . S
H2642 C2655 0.929 . S
H2643 C2653 0.929 . S
H2644 C2648 0.929 . S
H2645 C2654 0.929 . S
C2646 H2640 0.930 . S
C2646 C2647 1.367 . S
C2646 C2654 1.378 . S
C2647 C2646 1.367 . S
C2647 C2655 1.433 . S
C2648 H2644 0.929 . S
C2648 C2650 1.378 . S
C2648 C2652 1.350 . S
C2649 C2652 1.463 . S
C2649 C2654 1.350 . S
C2649 N2657 1.427 . S
C2650 H2641 0.930 . S
C2650 C2648 1.378 . S
C2650 C2651 1.367 . S
C2651 C2650 1.367 . S
C2651 C2653 1.433 . S
C2652 C2648 1.350 . S
C2652 C2649 1.463 . S
C2652 N2656 1.427 . S
C2653 H2643 0.929 . S
C2653 C2651 1.433 . S
C2653 N2656 1.384 . S
C2654 H2645 0.929 . S
C2654 C2646 1.378 . S
C2654 C2649 1.350 . S
C2655 H2642 0.929 . S
C2655 C2647 1.433 . S
C2655 N2657 1.384 . S
N2656 C2652 1.427 . S
N2656 C2653 1.384 . S
N2657 C2649 1.427 . S
N2657 C2655 1.384 . S
H2658 C2664 0.930 . S
H2659 C2668 0.930 . S
H2660 C2673 0.929 . S
H2661 C2671 0.929 . S
H2662 C2666 0.929 . S
H2663 C2672 0.929 . S
C2664 H2658 0.930 . S
C2664 C2665 1.367 . S
C2664 C2672 1.378 . S
C2665 C2664 1.367 . S
C2665 C2673 1.433 . S
C2666 H2662 0.929 . S
C2666 C2668 1.378 . S
C2666 C2670 1.350 . S
C2667 C2670 1.463 . S
C2667 C2672 1.350 . S
C2667 N2675 1.427 . S
C2668 H2659 0.930 . S
C2668 C2666 1.378 . S
C2668 C2669 1.367 . S
C2669 C2668 1.367 . S
C2669 C2671 1.433 . S
C2670 C2666 1.350 . S
C2670 C2667 1.463 . S
C2670 N2674 1.427 . S
C2671 H2661 0.929 . S
C2671 C2669 1.433 . S
C2671 N2674 1.384 . S
C2672 H2663 0.929 . S
C2672 C2664 1.378 . S
C2672 C2667 1.350 . S
C2673 H2660 0.929 . S
C2673 C2665 1.433 . S
C2673 N2675 1.384 . S
N2674 C2670 1.427 . S
N2674 C2671 1.384 . S
N2675 C2667 1.427 . S
N2675 C2673 1.384 . S
H2676 C2682 0.930 . S
H2677 C2686 0.930 . S
H2678 C2691 0.929 . S
H2679 C2689 0.929 . S
H2680 C2684 0.929 . S
H2681 C2690 0.929 . S
C2682 H2676 0.930 . S
C2682 C2683 1.367 . S
C2682 C2690 1.378 . S
C2683 C2682 1.367 . S
C2683 C2691 1.433 . S
C2684 H2680 0.929 . S
C2684 C2686 1.378 . S
C2684 C2688 1.350 . S
C2685 C2688 1.463 . S
C2685 C2690 1.350 . S
C2685 N2693 1.427 . S
C2686 H2677 0.930 . S
C2686 C2684 1.378 . S
C2686 C2687 1.367 . S
C2687 C2686 1.367 . S
C2687 C2689 1.433 . S
C2688 C2684 1.350 . S
C2688 C2685 1.463 . S
C2688 N2692 1.427 . S
C2689 H2679 0.929 . S
C2689 C2687 1.433 . S
C2689 N2692 1.384 . S
C2690 H2681 0.929 . S
C2690 C2682 1.378 . S
C2690 C2685 1.350 . S
C2691 H2678 0.929 . S
C2691 C2683 1.433 . S
C2691 N2693 1.384 . S
N2692 C2688 1.427 . S
N2692 C2689 1.384 . S
N2693 C2685 1.427 . S
N2693 C2691 1.384 . S
H2694 C2700 0.930 . S
H2695 C2704 0.930 . S
H2696 C2709 0.929 . S
H2697 C2707 0.929 . S
H2698 C2702 0.929 . S
H2699 C2708 0.929 . S
C2700 H2694 0.930 . S
C2700 C2701 1.367 . S
C2700 C2708 1.378 . S
C2701 C2700 1.367 . S
C2701 C2709 1.433 . S
C2702 H2698 0.929 . S
C2702 C2704 1.378 . S
C2702 C2706 1.350 . S
C2703 C2706 1.463 . S
C2703 C2708 1.350 . S
C2703 N2711 1.427 . S
C2704 H2695 0.930 . S
C2704 C2702 1.378 . S
C2704 C2705 1.367 . S
C2705 C2704 1.367 . S
C2705 C2707 1.433 . S
C2706 C2702 1.350 . S
C2706 C2703 1.463 . S
C2706 N2710 1.427 . S
C2707 H2697 0.929 . S
C2707 C2705 1.433 . S
C2707 N2710 1.384 . S
C2708 H2699 0.929 . S
C2708 C2700 1.378 . S
C2708 C2703 1.350 . S
C2709 H2696 0.929 . S
C2709 C2701 1.433 . S
C2709 N2711 1.384 . S
N2710 C2706 1.427 . S
N2710 C2707 1.384 . S
N2711 C2703 1.427 . S
N2711 C2709 1.384 . S
H2712 C2718 0.930 . S
H2713 C2722 0.930 . S
H2714 C2727 0.929 . S
H2715 C2725 0.929 . S
H2716 C2720 0.929 1_565 S
H2717 C2726 0.929 1_545 S
C2718 H2712 0.930 . S
C2718 C2719 1.367 . S
C2718 C2726 1.378 . S
C2719 C2718 1.367 . S
C2719 C2727 1.433 . S
C2720 H2716 0.929 1_545 S
C2720 C2722 1.378 . S
C2720 C2724 1.350 . S
C2721 C2724 1.463 1_565 S
C2721 C2726 1.350 . S
C2721 N2729 1.427 . S
C2722 H2713 0.930 . S
C2722 C2720 1.378 . S
C2722 C2723 1.367 . S
C2723 C2722 1.367 . S
C2723 C2725 1.433 . S
C2724 C2720 1.350 . S
C2724 C2721 1.463 1_545 S
C2724 N2728 1.427 . S
C2725 H2715 0.929 . S
C2725 C2723 1.433 . S
C2725 N2728 1.384 . S
C2726 H2717 0.929 1_565 S
C2726 C2718 1.378 . S
C2726 C2721 1.350 . S
C2727 H2714 0.929 . S
C2727 C2719 1.433 . S
C2727 N2729 1.384 . S
N2728 C2724 1.427 . S
N2728 C2725 1.384 . S
N2729 C2721 1.427 . S
N2729 C2727 1.384 . S
H2730 C2736 0.930 . S
H2731 C2740 0.930 . S
H2732 C2745 0.929 . S
H2733 C2743 0.929 . S
H2734 C2738 0.929 . S
H2735 C2744 0.929 . S
C2736 H2730 0.930 . S
C2736 C2737 1.367 . S
C2736 C2744 1.378 . S
C2737 C2736 1.367 . S
C2737 C2745 1.433 . S
C2738 H2734 0.929 . S
C2738 C2740 1.378 . S
C2738 C2742 1.350 . S
C2739 C2742 1.463 1_655 S
C2739 C2744 1.350 . S
C2739 N2747 1.427 . S
C2740 H2731 0.930 . S
C2740 C2738 1.378 . S
C2740 C2741 1.367 . S
C2741 C2740 1.367 . S
C2741 C2743 1.433 . S
C2742 C2738 1.350 . S
C2742 C2739 1.463 1_455 S
C2742 N2746 1.427 . S
C2743 H2733 0.929 . S
C2743 C2741 1.433 . S
C2743 N2746 1.384 . S
C2744 H2735 0.929 . S
C2744 C2736 1.378 . S
C2744 C2739 1.350 . S
C2745 H2732 0.929 . S
C2745 C2737 1.433 . S
C2745 N2747 1.384 . S
N2746 C2742 1.427 . S
N2746 C2743 1.384 . S
N2747 C2739 1.427 . S
N2747 C2745 1.384 . S
H2748 C2754 0.930 . S
H2749 C2758 0.930 . S
H2750 C2763 0.929 . S
H2751 C2761 0.929 . S
H2752 C2756 0.929 . S
H2753 C2762 0.929 . S
C2754 H2748 0.930 . S
C2754 C2755 1.367 . S
C2754 C2762 1.378 . S
C2755 C2754 1.367 . S
C2755 C2763 1.433 . S
C2756 H2752 0.929 . S
C2756 C2758 1.378 . S
C2756 C2760 1.350 . S
C2757 C2760 1.463 1_565 S
C2757 C2762 1.350 . S
C2757 N2765 1.427 . S
C2758 H2749 0.930 . S
C2758 C2756 1.378 . S
C2758 C2759 1.367 . S
C2759 C2758 1.367 . S
C2759 C2761 1.433 . S
C2760 C2756 1.350 . S
C2760 C2757 1.463 1_545 S
C2760 N2764 1.427 . S
C2761 H2751 0.929 . S
C2761 C2759 1.433 . S
C2761 N2764 1.384 . S
C2762 H2753 0.929 . S
C2762 C2754 1.378 . S
C2762 C2757 1.350 . S
C2763 H2750 0.929 . S
C2763 C2755 1.433 . S
C2763 N2765 1.384 . S
N2764 C2760 1.427 . S
N2764 C2761 1.384 . S
N2765 C2757 1.427 . S
N2765 C2763 1.384 . S
H2766 C2772 0.930 . S
H2767 C2776 0.930 . S
H2768 C2781 0.929 . S
H2769 C2779 0.929 . S
H2770 C2774 0.929 . S
H2771 C2780 0.929 . S
C2772 H2766 0.930 . S
C2772 C2773 1.367 . S
C2772 C2780 1.378 . S
C2773 C2772 1.367 . S
C2773 C2781 1.433 . S
C2774 H2770 0.929 . S
C2774 C2776 1.378 . S
C2774 C2778 1.350 . S
C2775 C2778 1.463 1_655 S
C2775 C2780 1.350 . S
C2775 N2783 1.427 . S
C2776 H2767 0.930 . S
C2776 C2774 1.378 . S
C2776 C2777 1.367 . S
C2777 C2776 1.367 . S
C2777 C2779 1.433 . S
C2778 C2774 1.350 . S
C2778 C2775 1.463 1_455 S
C2778 N2782 1.427 . S
C2779 H2769 0.929 . S
C2779 C2777 1.433 . S
C2779 N2782 1.384 . S
C2780 H2771 0.929 . S
C2780 C2772 1.378 . S
C2780 C2775 1.350 . S
C2781 H2768 0.929 . S
C2781 C2773 1.433 . S
C2781 N2783 1.384 . S
N2782 C2778 1.427 . S
N2782 C2779 1.384 . S
N2783 C2775 1.427 . S
N2783 C2781 1.384 . S
H2784 C2790 0.930 . S
H2785 C2794 0.930 . S
H2786 C2799 0.929 . S
H2787 C2797 0.929 . S
H2788 C2792 0.929 1_565 S
H2789 C2798 0.929 1_545 S
C2790 H2784 0.930 . S
C2790 C2791 1.367 . S
C2790 C2798 1.378 . S
C2791 C2790 1.367 . S
C2791 C2799 1.433 . S
C2792 H2788 0.929 1_545 S
C2792 C2794 1.378 . S
C2792 C2796 1.350 . S
C2793 C2796 1.463 1_565 S
C2793 C2798 1.350 . S
C2793 N2801 1.427 . S
C2794 H2785 0.930 . S
C2794 C2792 1.378 . S
C2794 C2795 1.367 . S
C2795 C2794 1.367 . S
C2795 C2797 1.433 . S
C2796 C2792 1.350 . S
C2796 C2793 1.463 1_545 S
C2796 N2800 1.427 . S
C2797 H2787 0.929 . S
C2797 C2795 1.433 . S
C2797 N2800 1.384 . S
C2798 H2789 0.929 1_565 S
C2798 C2790 1.378 . S
C2798 C2793 1.350 . S
C2799 H2786 0.929 . S
C2799 C2791 1.433 . S
C2799 N2801 1.384 . S
N2800 C2796 1.427 . S
N2800 C2797 1.384 . S
N2801 C2793 1.427 . S
N2801 C2799 1.384 . S
H2802 C2808 0.930 . S
H2803 C2812 0.930 . S
H2804 C2817 0.929 . S
H2805 C2815 0.929 . S
H2806 C2810 0.929 1_455 S
H2807 C2816 0.929 1_655 S
C2808 H2802 0.930 . S
C2808 C2809 1.367 . S
C2808 C2816 1.378 . S
C2809 C2808 1.367 . S
C2809 C2817 1.433 . S
C2810 H2806 0.929 1_655 S
C2810 C2812 1.378 . S
C2810 C2814 1.350 . S
C2811 C2814 1.463 1_455 S
C2811 C2816 1.350 . S
C2811 N2819 1.427 . S
C2812 H2803 0.930 . S
C2812 C2810 1.378 . S
C2812 C2813 1.367 . S
C2813 C2812 1.367 . S
C2813 C2815 1.433 . S
C2814 C2810 1.350 . S
C2814 C2811 1.463 1_655 S
C2814 N2818 1.427 . S
C2815 H2805 0.929 . S
C2815 C2813 1.433 . S
C2815 N2818 1.384 . S
C2816 H2807 0.929 1_455 S
C2816 C2808 1.378 . S
C2816 C2811 1.350 . S
C2817 H2804 0.929 . S
C2817 C2809 1.433 . S
C2817 N2819 1.384 . S
N2818 C2814 1.427 . S
N2818 C2815 1.384 . S
N2819 C2811 1.427 . S
N2819 C2817 1.384 . S
H2820 C2826 0.930 . S
H2821 C2830 0.930 . S
H2822 C2835 0.929 . S
H2823 C2833 0.929 . S
H2824 C2828 0.929 1_545 S
H2825 C2834 0.929 1_565 S
C2826 H2820 0.930 . S
C2826 C2827 1.367 . S
C2826 C2834 1.378 . S
C2827 C2826 1.367 . S
C2827 C2835 1.433 . S
C2828 H2824 0.929 1_565 S
C2828 C2830 1.378 . S
C2828 C2832 1.350 . S
C2829 C2832 1.463 1_545 S
C2829 C2834 1.350 . S
C2829 N2837 1.427 . S
C2830 H2821 0.930 . S
C2830 C2828 1.378 . S
C2830 C2831 1.367 . S
C2831 C2830 1.367 . S
C2831 C2833 1.433 . S
C2832 C2828 1.350 . S
C2832 C2829 1.463 1_565 S
C2832 N2836 1.427 . S
C2833 H2823 0.929 . S
C2833 C2831 1.433 . S
C2833 N2836 1.384 . S
C2834 H2825 0.929 1_545 S
C2834 C2826 1.378 . S
C2834 C2829 1.350 . S
C2835 H2822 0.929 . S
C2835 C2827 1.433 . S
C2835 N2837 1.384 . S
N2836 C2832 1.427 . S
N2836 C2833 1.384 . S
N2837 C2829 1.427 . S
N2837 C2835 1.384 . S
H2838 C2844 0.930 . S
H2839 C2848 0.930 . S
H2840 C2853 0.929 . S
H2841 C2851 0.929 . S
H2842 C2846 0.929 . S
H2843 C2852 0.929 . S
C2844 H2838 0.930 . S
C2844 C2845 1.367 . S
C2844 C2852 1.378 . S
C2845 C2844 1.367 . S
C2845 C2853 1.433 . S
C2846 H2842 0.929 . S
C2846 C2848 1.378 . S
C2846 C2850 1.350 . S
C2847 C2850 1.463 1_455 S
C2847 C2852 1.350 . S
C2847 N2855 1.427 . S
C2848 H2839 0.930 . S
C2848 C2846 1.378 . S
C2848 C2849 1.367 . S
C2849 C2848 1.367 . S
C2849 C2851 1.433 . S
C2850 C2846 1.350 . S
C2850 C2847 1.463 1_655 S
C2850 N2854 1.427 . S
C2851 H2841 0.929 . S
C2851 C2849 1.433 . S
C2851 N2854 1.384 . S
C2852 H2843 0.929 . S
C2852 C2844 1.378 . S
C2852 C2847 1.350 . S
C2853 H2840 0.929 . S
C2853 C2845 1.433 . S
C2853 N2855 1.384 . S
N2854 C2850 1.427 . S
N2854 C2851 1.384 . S
N2855 C2847 1.427 . S
N2855 C2853 1.384 . S
H2856 C2862 0.930 . S
H2857 C2866 0.930 . S
H2858 C2871 0.929 . S
H2859 C2869 0.929 . S
H2860 C2864 0.929 . S
H2861 C2870 0.929 . S
C2862 H2856 0.930 . S
C2862 C2863 1.367 . S
C2862 C2870 1.378 . S
C2863 C2862 1.367 . S
C2863 C2871 1.433 . S
C2864 H2860 0.929 . S
C2864 C2866 1.378 . S
C2864 C2868 1.350 . S
C2865 C2868 1.463 1_556 S
C2865 C2870 1.350 . S
C2865 N2873 1.427 . S
C2866 H2857 0.930 . S
C2866 C2864 1.378 . S
C2866 C2867 1.367 . S
C2867 C2866 1.367 . S
C2867 C2869 1.433 . S
C2868 C2864 1.350 . S
C2868 C2865 1.463 1_554 S
C2868 N2872 1.427 . S
C2869 H2859 0.929 . S
C2869 C2867 1.433 . S
C2869 N2872 1.384 . S
C2870 H2861 0.929 . S
C2870 C2862 1.378 . S
C2870 C2865 1.350 . S
C2871 H2858 0.929 . S
C2871 C2863 1.433 . S
C2871 N2873 1.384 . S
N2872 C2868 1.427 . S
N2872 C2869 1.384 . S
N2873 C2865 1.427 . S
N2873 C2871 1.384 . S
H2874 C2880 0.930 . S
H2875 C2884 0.930 . S
H2876 C2889 0.929 . S
H2877 C2887 0.929 . S
H2878 C2882 0.929 . S
H2879 C2888 0.929 . S
C2880 H2874 0.930 . S
C2880 C2881 1.367 . S
C2880 C2888 1.378 . S
C2881 C2880 1.367 . S
C2881 C2889 1.433 . S
C2882 H2878 0.929 . S
C2882 C2884 1.378 . S
C2882 C2886 1.350 . S
C2883 C2886 1.463 1_556 S
C2883 C2888 1.350 . S
C2883 N2891 1.427 . S
C2884 H2875 0.930 . S
C2884 C2882 1.378 . S
C2884 C2885 1.367 . S
C2885 C2884 1.367 . S
C2885 C2887 1.433 . S
C2886 C2882 1.350 . S
C2886 C2883 1.463 1_554 S
C2886 N2890 1.427 . S
C2887 H2877 0.929 . S
C2887 C2885 1.433 . S
C2887 N2890 1.384 . S
C2888 H2879 0.929 . S
C2888 C2880 1.378 . S
C2888 C2883 1.350 . S
C2889 H2876 0.929 . S
C2889 C2881 1.433 . S
C2889 N2891 1.384 . S
N2890 C2886 1.427 . S
N2890 C2887 1.384 . S
N2891 C2883 1.427 . S
N2891 C2889 1.384 . S
H2892 C2898 0.930 . S
H2893 C2902 0.930 . S
H2894 C2907 0.929 . S
H2895 C2905 0.929 . S
H2896 C2900 0.929 1_554 S
H2897 C2906 0.929 1_556 S
C2898 H2892 0.930 . S
C2898 C2899 1.367 . S
C2898 C2906 1.378 . S
C2899 C2898 1.367 . S
C2899 C2907 1.433 . S
C2900 H2896 0.929 1_556 S
C2900 C2902 1.378 . S
C2900 C2904 1.350 . S
C2901 C2904 1.463 1_554 S
C2901 C2906 1.350 . S
C2901 N2909 1.427 . S
C2902 H2893 0.930 . S
C2902 C2900 1.378 . S
C2902 C2903 1.367 . S
C2903 C2902 1.367 . S
C2903 C2905 1.433 . S
C2904 C2900 1.350 . S
C2904 C2901 1.463 1_556 S
C2904 N2908 1.427 . S
C2905 H2895 0.929 . S
C2905 C2903 1.433 . S
C2905 N2908 1.384 . S
C2906 H2897 0.929 1_554 S
C2906 C2898 1.378 . S
C2906 C2901 1.350 . S
C2907 H2894 0.929 . S
C2907 C2899 1.433 . S
C2907 N2909 1.384 . S
N2908 C2904 1.427 . S
N2908 C2905 1.384 . S
N2909 C2901 1.427 . S
N2909 C2907 1.384 . S
H2910 C2916 0.930 . S
H2911 C2920 0.930 . S
H2912 C2925 0.929 . S
H2913 C2923 0.929 . S
H2914 C2918 0.929 1_554 S
H2915 C2924 0.929 1_556 S
C2916 H2910 0.930 . S
C2916 C2917 1.367 . S
C2916 C2924 1.378 . S
C2917 C2916 1.367 . S
C2917 C2925 1.433 . S
C2918 H2914 0.929 1_556 S
C2918 C2920 1.378 . S
C2918 C2922 1.350 . S
C2919 C2922 1.463 1_554 S
C2919 C2924 1.350 . S
C2919 N2927 1.427 . S
C2920 H2911 0.930 . S
C2920 C2918 1.378 . S
C2920 C2921 1.367 . S
C2921 C2920 1.367 . S
C2921 C2923 1.433 . S
C2922 C2918 1.350 . S
C2922 C2919 1.463 1_556 S
C2922 N2926 1.427 . S
C2923 H2913 0.929 . S
C2923 C2921 1.433 . S
C2923 N2926 1.384 . S
C2924 H2915 0.929 1_554 S
C2924 C2916 1.378 . S
C2924 C2919 1.350 . S
C2925 H2912 0.929 . S
C2925 C2917 1.433 . S
C2925 N2927 1.384 . S
N2926 C2922 1.427 . S
N2926 C2923 1.384 . S
N2927 C2919 1.427 . S
N2927 C2925 1.384 . S
H2928 C2934 0.930 . S
H2929 C2938 0.930 . S
H2930 C2943 0.929 . S
H2931 C2941 0.929 . S
H2932 C2936 0.929 . S
H2933 C2942 0.929 . S
C2934 H2928 0.930 . S
C2934 C2935 1.367 . S
C2934 C2942 1.378 . S
C2935 C2934 1.367 . S
C2935 C2943 1.433 . S
C2936 H2932 0.929 . S
C2936 C2938 1.378 . S
C2936 C2940 1.350 . S
C2937 C2940 1.463 . S
C2937 C2942 1.350 . S
C2937 N2945 1.427 . S
C2938 H2929 0.930 . S
C2938 C2936 1.378 . S
C2938 C2939 1.367 . S
C2939 C2938 1.367 . S
C2939 C2941 1.433 . S
C2940 C2936 1.350 . S
C2940 C2937 1.463 . S
C2940 N2944 1.427 . S
C2941 H2931 0.929 . S
C2941 C2939 1.433 . S
C2941 N2944 1.384 . S
C2942 H2933 0.929 . S
C2942 C2934 1.378 . S
C2942 C2937 1.350 . S
C2943 H2930 0.929 . S
C2943 C2935 1.433 . S
C2943 N2945 1.384 . S
N2944 C2940 1.427 . S
N2944 C2941 1.384 . S
N2945 C2937 1.427 . S
N2945 C2943 1.384 . S
H2946 C2952 0.930 . S
H2947 C2956 0.930 . S
H2948 C2961 0.929 . S
H2949 C2959 0.929 . S
H2950 C2954 0.929 . S
H2951 C2960 0.929 . S
C2952 H2946 0.930 . S
C2952 C2953 1.367 . S
C2952 C2960 1.378 . S
C2953 C2952 1.367 . S
C2953 C2961 1.433 . S
C2954 H2950 0.929 . S
C2954 C2956 1.378 . S
C2954 C2958 1.350 . S
C2955 C2958 1.463 . S
C2955 C2960 1.350 . S
C2955 N2963 1.427 . S
C2956 H2947 0.930 . S
C2956 C2954 1.378 . S
C2956 C2957 1.367 . S
C2957 C2956 1.367 . S
C2957 C2959 1.433 . S
C2958 C2954 1.350 . S
C2958 C2955 1.463 . S
C2958 N2962 1.427 . S
C2959 H2949 0.929 . S
C2959 C2957 1.433 . S
C2959 N2962 1.384 . S
C2960 H2951 0.929 . S
C2960 C2952 1.378 . S
C2960 C2955 1.350 . S
C2961 H2948 0.929 . S
C2961 C2953 1.433 . S
C2961 N2963 1.384 . S
N2962 C2958 1.427 . S
N2962 C2959 1.384 . S
N2963 C2955 1.427 . S
N2963 C2961 1.384 . S
H2964 C2970 0.930 . S
H2965 C2974 0.930 . S
H2966 C2979 0.929 . S
H2967 C2977 0.929 . S
H2968 C2972 0.929 . S
H2969 C2978 0.929 . S
C2970 H2964 0.930 . S
C2970 C2971 1.367 . S
C2970 C2978 1.378 . S
C2971 C2970 1.367 . S
C2971 C2979 1.433 . S
C2972 H2968 0.929 . S
C2972 C2974 1.378 . S
C2972 C2976 1.350 . S
C2973 C2976 1.463 . S
C2973 C2978 1.350 . S
C2973 N2981 1.427 . S
C2974 H2965 0.930 . S
C2974 C2972 1.378 . S
C2974 C2975 1.367 . S
C2975 C2974 1.367 . S
C2975 C2977 1.433 . S
C2976 C2972 1.350 . S
C2976 C2973 1.463 . S
C2976 N2980 1.427 . S
C2977 H2967 0.929 . S
C2977 C2975 1.433 . S
C2977 N2980 1.384 . S
C2978 H2969 0.929 . S
C2978 C2970 1.378 . S
C2978 C2973 1.350 . S
C2979 H2966 0.929 . S
C2979 C2971 1.433 . S
C2979 N2981 1.384 . S
N2980 C2976 1.427 . S
N2980 C2977 1.384 . S
N2981 C2973 1.427 . S
N2981 C2979 1.384 . S
H2982 C2988 0.930 . S
H2983 C2992 0.930 . S
H2984 C2997 0.929 . S
H2985 C2995 0.929 . S
H2986 C2990 0.929 . S
H2987 C2996 0.929 . S
C2988 H2982 0.930 . S
C2988 C2989 1.367 . S
C2988 C2996 1.378 . S
C2989 C2988 1.367 . S
C2989 C2997 1.433 . S
C2990 H2986 0.929 . S
C2990 C2992 1.378 . S
C2990 C2994 1.350 . S
C2991 C2994 1.463 . S
C2991 C2996 1.350 . S
C2991 N2999 1.427 . S
C2992 H2983 0.930 . S
C2992 C2990 1.378 . S
C2992 C2993 1.367 . S
C2993 C2992 1.367 . S
C2993 C2995 1.433 . S
C2994 C2990 1.350 . S
C2994 C2991 1.463 . S
C2994 N2998 1.427 . S
C2995 H2985 0.929 . S
C2995 C2993 1.433 . S
C2995 N2998 1.384 . S
C2996 H2987 0.929 . S
C2996 C2988 1.378 . S
C2996 C2991 1.350 . S
C2997 H2984 0.929 . S
C2997 C2989 1.433 . S
C2997 N2999 1.384 . S
N2998 C2994 1.427 . S
N2998 C2995 1.384 . S
N2999 C2991 1.427 . S
N2999 C2997 1.384 . S
H3000 C3006 0.930 . S
H3001 C3010 0.930 . S
H3002 C3015 0.929 . S
H3003 C3013 0.929 . S
H3004 C3008 0.929 . S
H3005 C3014 0.929 . S
C3006 H3000 0.930 . S
C3006 C3007 1.367 . S
C3006 C3014 1.378 . S
C3007 C3006 1.367 . S
C3007 C3015 1.433 . S
C3008 H3004 0.929 . S
C3008 C3010 1.378 . S
C3008 C3012 1.350 . S
C3009 C3012 1.463 . S
C3009 C3014 1.350 . S
C3009 N3017 1.427 . S
C3010 H3001 0.930 . S
C3010 C3008 1.378 . S
C3010 C3011 1.367 . S
C3011 C3010 1.367 . S
C3011 C3013 1.433 . S
C3012 C3008 1.350 . S
C3012 C3009 1.463 . S
C3012 N3016 1.427 . S
C3013 H3003 0.929 . S
C3013 C3011 1.433 . S
C3013 N3016 1.384 . S
C3014 H3005 0.929 . S
C3014 C3006 1.378 . S
C3014 C3009 1.350 . S
C3015 H3002 0.929 . S
C3015 C3007 1.433 . S
C3015 N3017 1.384 . S
N3016 C3012 1.427 . S
N3016 C3013 1.384 . S
N3017 C3009 1.427 . S
N3017 C3015 1.384 . S
H3018 C3024 0.930 . S
H3019 C3028 0.930 . S
H3020 C3033 0.929 . S
H3021 C3031 0.929 . S
H3022 C3026 0.929 . S
H3023 C3032 0.929 . S
C3024 H3018 0.930 . S
C3024 C3025 1.367 . S
C3024 C3032 1.378 . S
C3025 C3024 1.367 . S
C3025 C3033 1.433 . S
C3026 H3022 0.929 . S
C3026 C3028 1.378 . S
C3026 C3030 1.350 . S
C3027 C3030 1.463 . S
C3027 C3032 1.350 . S
C3027 N3035 1.427 . S
C3028 H3019 0.930 . S
C3028 C3026 1.378 . S
C3028 C3029 1.367 . S
C3029 C3028 1.367 . S
C3029 C3031 1.433 . S
C3030 C3026 1.350 . S
C3030 C3027 1.463 . S
C3030 N3034 1.427 . S
C3031 H3021 0.929 . S
C3031 C3029 1.433 . S
C3031 N3034 1.384 . S
C3032 H3023 0.929 . S
C3032 C3024 1.378 . S
C3032 C3027 1.350 . S
C3033 H3020 0.929 . S
C3033 C3025 1.433 . S
C3033 N3035 1.384 . S
N3034 C3030 1.427 . S
N3034 C3031 1.384 . S
N3035 C3027 1.427 . S
N3035 C3033 1.384 . S
H3036 C3042 0.930 . S
H3037 C3046 0.930 . S
H3038 C3051 0.929 . S
H3039 C3049 0.929 . S
H3040 C3044 0.929 . S
H3041 C3050 0.929 . S
C3042 H3036 0.930 . S
C3042 C3043 1.367 . S
C3042 C3050 1.378 . S
C3043 C3042 1.367 . S
C3043 C3051 1.433 . S
C3044 H3040 0.929 . S
C3044 C3046 1.378 . S
C3044 C3048 1.350 . S
C3045 C3048 1.463 . S
C3045 C3050 1.350 . S
C3045 N3053 1.427 . S
C3046 H3037 0.930 . S
C3046 C3044 1.378 . S
C3046 C3047 1.367 . S
C3047 C3046 1.367 . S
C3047 C3049 1.433 . S
C3048 C3044 1.350 . S
C3048 C3045 1.463 . S
C3048 N3052 1.427 . S
C3049 H3039 0.929 . S
C3049 C3047 1.433 . S
C3049 N3052 1.384 . S
C3050 H3041 0.929 . S
C3050 C3042 1.378 . S
C3050 C3045 1.350 . S
C3051 H3038 0.929 . S
C3051 C3043 1.433 . S
C3051 N3053 1.384 . S
N3052 C3048 1.427 . S
N3052 C3049 1.384 . S
N3053 C3045 1.427 . S
N3053 C3051 1.384 . S
H3054 C3060 0.930 . S
H3055 C3064 0.930 . S
H3056 C3069 0.929 . S
H3057 C3067 0.929 . S
H3058 C3062 0.929 . S
H3059 C3068 0.929 . S
C3060 H3054 0.930 . S
C3060 C3061 1.367 . S
C3060 C3068 1.378 . S
C3061 C3060 1.367 . S
C3061 C3069 1.433 . S
C3062 H3058 0.929 . S
C3062 C3064 1.378 . S
C3062 C3066 1.350 . S
C3063 C3066 1.463 . S
C3063 C3068 1.350 . S
C3063 N3071 1.427 . S
C3064 H3055 0.930 . S
C3064 C3062 1.378 . S
C3064 C3065 1.367 . S
C3065 C3064 1.367 . S
C3065 C3067 1.433 . S
C3066 C3062 1.350 . S
C3066 C3063 1.463 . S
C3066 N3070 1.427 . S
C3067 H3057 0.929 . S
C3067 C3065 1.433 . S
C3067 N3070 1.384 . S
C3068 H3059 0.929 . S
C3068 C3060 1.378 . S
C3068 C3063 1.350 . S
C3069 H3056 0.929 . S
C3069 C3061 1.433 . S
C3069 N3071 1.384 . S
N3070 C3066 1.427 . S
N3070 C3067 1.384 . S
N3071 C3063 1.427 . S
N3071 C3069 1.384 . S
H3072 C3078 0.930 . S
H3073 C3082 0.930 . S
H3074 C3087 0.929 . S
H3075 C3085 0.929 . S
H3076 C3080 0.929 . S
H3077 C3086 0.929 . S
C3078 H3072 0.930 . S
C3078 C3079 1.367 . S
C3078 C3086 1.378 . S
C3079 C3078 1.367 . S
C3079 C3087 1.433 . S
C3080 H3076 0.929 . S
C3080 C3082 1.378 . S
C3080 C3084 1.350 . S
C3081 C3084 1.463 . S
C3081 C3086 1.350 . S
C3081 N3089 1.427 . S
C3082 H3073 0.930 . S
C3082 C3080 1.378 . S
C3082 C3083 1.367 . S
C3083 C3082 1.367 . S
C3083 C3085 1.433 . S
C3084 C3080 1.350 . S
C3084 C3081 1.463 . S
C3084 N3088 1.427 . S
C3085 H3075 0.929 . S
C3085 C3083 1.433 . S
C3085 N3088 1.384 . S
C3086 H3077 0.929 . S
C3086 C3078 1.378 . S
C3086 C3081 1.350 . S
C3087 H3074 0.929 . S
C3087 C3079 1.433 . S
C3087 N3089 1.384 . S
N3088 C3084 1.427 . S
N3088 C3085 1.384 . S
N3089 C3081 1.427 . S
N3089 C3087 1.384 . S
H3090 C3096 0.930 . S
H3091 C3100 0.930 . S
H3092 C3105 0.929 . S
H3093 C3103 0.929 . S
H3094 C3098 0.929 . S
H3095 C3104 0.929 . S
C3096 H3090 0.930 . S
C3096 C3097 1.367 . S
C3096 C3104 1.378 . S
C3097 C3096 1.367 . S
C3097 C3105 1.433 . S
C3098 H3094 0.929 . S
C3098 C3100 1.378 . S
C3098 C3102 1.350 . S
C3099 C3102 1.463 . S
C3099 C3104 1.350 . S
C3099 N3107 1.427 . S
C3100 H3091 0.930 . S
C3100 C3098 1.378 . S
C3100 C3101 1.367 . S
C3101 C3100 1.367 . S
C3101 C3103 1.433 . S
C3102 C3098 1.350 . S
C3102 C3099 1.463 . S
C3102 N3106 1.427 . S
C3103 H3093 0.929 . S
C3103 C3101 1.433 . S
C3103 N3106 1.384 . S
C3104 H3095 0.929 . S
C3104 C3096 1.378 . S
C3104 C3099 1.350 . S
C3105 H3092 0.929 . S
C3105 C3097 1.433 . S
C3105 N3107 1.384 . S
N3106 C3102 1.427 . S
N3106 C3103 1.384 . S
N3107 C3099 1.427 . S
N3107 C3105 1.384 . S
H3108 C3114 0.930 . S
H3109 C3118 0.930 . S
H3110 C3123 0.929 . S
H3111 C3121 0.929 . S
H3112 C3116 0.929 . S
H3113 C3122 0.929 . S
C3114 H3108 0.930 . S
C3114 C3115 1.367 . S
C3114 C3122 1.378 . S
C3115 C3114 1.367 . S
C3115 C3123 1.433 . S
C3116 H3112 0.929 . S
C3116 C3118 1.378 . S
C3116 C3120 1.350 . S
C3117 C3120 1.463 . S
C3117 C3122 1.350 . S
C3117 N3125 1.427 . S
C3118 H3109 0.930 . S
C3118 C3116 1.378 . S
C3118 C3119 1.367 . S
C3119 C3118 1.367 . S
C3119 C3121 1.433 . S
C3120 C3116 1.350 . S
C3120 C3117 1.463 . S
C3120 N3124 1.427 . S
C3121 H3111 0.929 . S
C3121 C3119 1.433 . S
C3121 N3124 1.384 . S
C3122 H3113 0.929 . S
C3122 C3114 1.378 . S
C3122 C3117 1.350 . S
C3123 H3110 0.929 . S
C3123 C3115 1.433 . S
C3123 N3125 1.384 . S
N3124 C3120 1.427 . S
N3124 C3121 1.384 . S
N3125 C3117 1.427 . S
N3125 C3123 1.384 . S
H3126 C3132 0.930 . S
H3127 C3136 0.930 . S
H3128 C3141 0.929 . S
H3129 C3139 0.929 . S
H3130 C3134 0.929 . S
H3131 C3140 0.929 . S
C3132 H3126 0.930 . S
C3132 C3133 1.367 . S
C3132 C3140 1.378 . S
C3133 C3132 1.367 . S
C3133 C3141 1.433 . S
C3134 H3130 0.929 . S
C3134 C3136 1.378 . S
C3134 C3138 1.350 . S
C3135 C3138 1.463 . S
C3135 C3140 1.350 . S
C3135 N3143 1.427 . S
C3136 H3127 0.930 . S
C3136 C3134 1.378 . S
C3136 C3137 1.367 . S
C3137 C3136 1.367 . S
C3137 C3139 1.433 . S
C3138 C3134 1.350 . S
C3138 C3135 1.463 . S
C3138 N3142 1.427 . S
C3139 H3129 0.929 . S
C3139 C3137 1.433 . S
C3139 N3142 1.384 . S
C3140 H3131 0.929 . S
C3140 C3132 1.378 . S
C3140 C3135 1.350 . S
C3141 H3128 0.929 . S
C3141 C3133 1.433 . S
C3141 N3143 1.384 . S
N3142 C3138 1.427 . S
N3142 C3139 1.384 . S
N3143 C3135 1.427 . S
N3143 C3141 1.384 . S
H3144 C3150 0.930 . S
H3145 C3154 0.930 . S
H3146 C3159 0.929 . S
H3147 C3157 0.929 . S
H3148 C3152 0.929 . S
H3149 C3158 0.929 . S
C3150 H3144 0.930 . S
C3150 C3151 1.367 . S
C3150 C3158 1.378 . S
C3151 C3150 1.367 . S
C3151 C3159 1.433 . S
C3152 H3148 0.929 . S
C3152 C3154 1.378 . S
C3152 C3156 1.350 . S
C3153 C3156 1.463 . S
C3153 C3158 1.350 . S
C3153 N3161 1.427 . S
C3154 H3145 0.930 . S
C3154 C3152 1.378 . S
C3154 C3155 1.367 . S
C3155 C3154 1.367 . S
C3155 C3157 1.433 . S
C3156 C3152 1.350 . S
C3156 C3153 1.463 . S
C3156 N3160 1.427 . S
C3157 H3147 0.929 . S
C3157 C3155 1.433 . S
C3157 N3160 1.384 . S
C3158 H3149 0.929 . S
C3158 C3150 1.378 . S
C3158 C3153 1.350 . S
C3159 H3146 0.929 . S
C3159 C3151 1.433 . S
C3159 N3161 1.384 . S
N3160 C3156 1.427 . S
N3160 C3157 1.384 . S
N3161 C3153 1.427 . S
N3161 C3159 1.384 . S
H3162 C3168 0.930 . S
H3163 C3172 0.930 . S
H3164 C3177 0.929 . S
H3165 C3175 0.929 . S
H3166 C3170 0.929 . S
H3167 C3176 0.929 . S
C3168 H3162 0.930 . S
C3168 C3169 1.367 . S
C3168 C3176 1.378 . S
C3169 C3168 1.367 . S
C3169 C3177 1.433 . S
C3170 H3166 0.929 . S
C3170 C3172 1.378 . S
C3170 C3174 1.350 . S
C3171 C3174 1.463 . S
C3171 C3176 1.350 . S
C3171 N3179 1.427 . S
C3172 H3163 0.930 . S
C3172 C3170 1.378 . S
C3172 C3173 1.367 . S
C3173 C3172 1.367 . S
C3173 C3175 1.433 . S
C3174 C3170 1.350 . S
C3174 C3171 1.463 . S
C3174 N3178 1.427 . S
C3175 H3165 0.929 . S
C3175 C3173 1.433 . S
C3175 N3178 1.384 . S
C3176 H3167 0.929 . S
C3176 C3168 1.378 . S
C3176 C3171 1.350 . S
C3177 H3164 0.929 . S
C3177 C3169 1.433 . S
C3177 N3179 1.384 . S
N3178 C3174 1.427 . S
N3178 C3175 1.384 . S
N3179 C3171 1.427 . S
N3179 C3177 1.384 . S
H3180 C3186 0.930 . S
H3181 C3190 0.930 . S
H3182 C3195 0.929 . S
H3183 C3193 0.929 . S
H3184 C3188 0.929 . S
H3185 C3194 0.929 . S
C3186 H3180 0.930 . S
C3186 C3187 1.367 . S
C3186 C3194 1.378 . S
C3187 C3186 1.367 . S
C3187 C3195 1.433 . S
C3188 H3184 0.929 . S
C3188 C3190 1.378 . S
C3188 C3192 1.350 . S
C3189 C3192 1.463 . S
C3189 C3194 1.350 . S
C3189 N3197 1.427 . S
C3190 H3181 0.930 . S
C3190 C3188 1.378 . S
C3190 C3191 1.367 . S
C3191 C3190 1.367 . S
C3191 C3193 1.433 . S
C3192 C3188 1.350 . S
C3192 C3189 1.463 . S
C3192 N3196 1.427 . S
C3193 H3183 0.929 . S
C3193 C3191 1.433 . S
C3193 N3196 1.384 . S
C3194 H3185 0.929 . S
C3194 C3186 1.378 . S
C3194 C3189 1.350 . S
C3195 H3182 0.929 . S
C3195 C3187 1.433 . S
C3195 N3197 1.384 . S
N3196 C3192 1.427 . S
N3196 C3193 1.384 . S
N3197 C3189 1.427 . S
N3197 C3195 1.384 . S
H3198 C3204 0.930 . S
H3199 C3208 0.930 . S
H3200 C3213 0.929 . S
H3201 C3211 0.929 . S
H3202 C3206 0.929 . S
H3203 C3212 0.929 . S
C3204 H3198 0.930 . S
C3204 C3205 1.367 . S
C3204 C3212 1.378 . S
C3205 C3204 1.367 . S
C3205 C3213 1.433 . S
C3206 H3202 0.929 . S
C3206 C3208 1.378 . S
C3206 C3210 1.350 . S
C3207 C3210 1.463 . S
C3207 C3212 1.350 . S
C3207 N3215 1.427 . S
C3208 H3199 0.930 . S
C3208 C3206 1.378 . S
C3208 C3209 1.367 . S
C3209 C3208 1.367 . S
C3209 C3211 1.433 . S
C3210 C3206 1.350 . S
C3210 C3207 1.463 . S
C3210 N3214 1.427 . S
C3211 H3201 0.929 . S
C3211 C3209 1.433 . S
C3211 N3214 1.384 . S
C3212 H3203 0.929 . S
C3212 C3204 1.378 . S
C3212 C3207 1.350 . S
C3213 H3200 0.929 . S
C3213 C3205 1.433 . S
C3213 N3215 1.384 . S
N3214 C3210 1.427 . S
N3214 C3211 1.384 . S
N3215 C3207 1.427 . S
N3215 C3213 1.384 . S
H3216 C3222 0.930 . S
H3217 C3226 0.930 . S
H3218 C3231 0.929 . S
H3219 C3229 0.929 . S
H3220 C3224 0.929 . S
H3221 C3230 0.929 . S
C3222 H3216 0.930 . S
C3222 C3223 1.367 . S
C3222 C3230 1.378 . S
C3223 C3222 1.367 . S
C3223 C3231 1.433 . S
C3224 H3220 0.929 . S
C3224 C3226 1.378 . S
C3224 C3228 1.350 . S
C3225 C3228 1.463 . S
C3225 C3230 1.350 . S
C3225 N3233 1.427 . S
C3226 H3217 0.930 . S
C3226 C3224 1.378 . S
C3226 C3227 1.367 . S
C3227 C3226 1.367 . S
C3227 C3229 1.433 . S
C3228 C3224 1.350 . S
C3228 C3225 1.463 . S
C3228 N3232 1.427 . S
C3229 H3219 0.929 . S
C3229 C3227 1.433 . S
C3229 N3232 1.384 . S
C3230 H3221 0.929 . S
C3230 C3222 1.378 . S
C3230 C3225 1.350 . S
C3231 H3218 0.929 . S
C3231 C3223 1.433 . S
C3231 N3233 1.384 . S
N3232 C3228 1.427 . S
N3232 C3229 1.384 . S
N3233 C3225 1.427 . S
N3233 C3231 1.384 . S
H3234 C3240 0.930 . S
H3235 C3244 0.930 . S
H3236 C3249 0.929 . S
H3237 C3247 0.929 . S
H3238 C3242 0.929 . S
H3239 C3248 0.929 . S
C3240 H3234 0.930 . S
C3240 C3241 1.367 . S
C3240 C3248 1.378 . S
C3241 C3240 1.367 . S
C3241 C3249 1.433 . S
C3242 H3238 0.929 . S
C3242 C3244 1.378 . S
C3242 C3246 1.350 . S
C3243 C3246 1.463 . S
C3243 C3248 1.350 . S
C3243 N3251 1.427 . S
C3244 H3235 0.930 . S
C3244 C3242 1.378 . S
C3244 C3245 1.367 . S
C3245 C3244 1.367 . S
C3245 C3247 1.433 . S
C3246 C3242 1.350 . S
C3246 C3243 1.463 . S
C3246 N3250 1.427 . S
C3247 H3237 0.929 . S
C3247 C3245 1.433 . S
C3247 N3250 1.384 . S
C3248 H3239 0.929 . S
C3248 C3240 1.378 . S
C3248 C3243 1.350 . S
C3249 H3236 0.929 . S
C3249 C3241 1.433 . S
C3249 N3251 1.384 . S
N3250 C3246 1.427 . S
N3250 C3247 1.384 . S
N3251 C3243 1.427 . S
N3251 C3249 1.384 . S
H3252 C3258 0.930 . S
H3253 C3262 0.930 . S
H3254 C3267 0.929 . S
H3255 C3265 0.929 . S
H3256 C3260 0.929 . S
H3257 C3266 0.929 . S
C3258 H3252 0.930 . S
C3258 C3259 1.367 . S
C3258 C3266 1.378 . S
C3259 C3258 1.367 . S
C3259 C3267 1.433 . S
C3260 H3256 0.929 . S
C3260 C3262 1.378 . S
C3260 C3264 1.350 . S
C3261 C3264 1.463 . S
C3261 C3266 1.350 . S
C3261 N3269 1.427 . S
C3262 H3253 0.930 . S
C3262 C3260 1.378 . S
C3262 C3263 1.367 . S
C3263 C3262 1.367 . S
C3263 C3265 1.433 . S
C3264 C3260 1.350 . S
C3264 C3261 1.463 . S
C3264 N3268 1.427 . S
C3265 H3255 0.929 . S
C3265 C3263 1.433 . S
C3265 N3268 1.384 . S
C3266 H3257 0.929 . S
C3266 C3258 1.378 . S
C3266 C3261 1.350 . S
C3267 H3254 0.929 . S
C3267 C3259 1.433 . S
C3267 N3269 1.384 . S
N3268 C3264 1.427 . S
N3268 C3265 1.384 . S
N3269 C3261 1.427 . S
N3269 C3267 1.384 . S
H3270 C3276 0.930 . S
H3271 C3280 0.930 . S
H3272 C3285 0.929 . S
H3273 C3283 0.929 . S
H3274 C3278 0.929 . S
H3275 C3284 0.929 . S
C3276 H3270 0.930 . S
C3276 C3277 1.367 . S
C3276 C3284 1.378 . S
C3277 C3276 1.367 . S
C3277 C3285 1.433 . S
C3278 H3274 0.929 . S
C3278 C3280 1.378 . S
C3278 C3282 1.350 . S
C3279 C3282 1.463 . S
C3279 C3284 1.350 . S
C3279 N3287 1.427 . S
C3280 H3271 0.930 . S
C3280 C3278 1.378 . S
C3280 C3281 1.367 . S
C3281 C3280 1.367 . S
C3281 C3283 1.433 . S
C3282 C3278 1.350 . S
C3282 C3279 1.463 . S
C3282 N3286 1.427 . S
C3283 H3273 0.929 . S
C3283 C3281 1.433 . S
C3283 N3286 1.384 . S
C3284 H3275 0.929 . S
C3284 C3276 1.378 . S
C3284 C3279 1.350 . S
C3285 H3272 0.929 . S
C3285 C3277 1.433 . S
C3285 N3287 1.384 . S
N3286 C3282 1.427 . S
N3286 C3283 1.384 . S
N3287 C3279 1.427 . S
N3287 C3285 1.384 . S
H3288 C3294 0.930 . S
H3289 C3298 0.930 . S
H3290 C3303 0.929 . S
H3291 C3301 0.929 . S
H3292 C3296 0.929 . S
H3293 C3302 0.929 . S
C3294 H3288 0.930 . S
C3294 C3295 1.367 . S
C3294 C3302 1.378 . S
C3295 C3294 1.367 . S
C3295 C3303 1.433 . S
C3296 H3292 0.929 . S
C3296 C3298 1.378 . S
C3296 C3300 1.350 . S
C3297 C3300 1.463 . S
C3297 C3302 1.350 . S
C3297 N3305 1.427 . S
C3298 H3289 0.930 . S
C3298 C3296 1.378 . S
C3298 C3299 1.367 . S
C3299 C3298 1.367 . S
C3299 C3301 1.433 . S
C3300 C3296 1.350 . S
C3300 C3297 1.463 . S
C3300 N3304 1.427 . S
C3301 H3291 0.929 . S
C3301 C3299 1.433 . S
C3301 N3304 1.384 . S
C3302 H3293 0.929 . S
C3302 C3294 1.378 . S
C3302 C3297 1.350 . S
C3303 H3290 0.929 . S
C3303 C3295 1.433 . S
C3303 N3305 1.384 . S
N3304 C3300 1.427 . S
N3304 C3301 1.384 . S
N3305 C3297 1.427 . S
N3305 C3303 1.384 . S
H3306 C3312 0.930 . S
H3307 C3316 0.930 . S
H3308 C3321 0.929 . S
H3309 C3319 0.929 . S
H3310 C3314 0.929 . S
H3311 C3320 0.929 . S
C3312 H3306 0.930 . S
C3312 C3313 1.367 . S
C3312 C3320 1.378 . S
C3313 C3312 1.367 . S
C3313 C3321 1.433 . S
C3314 H3310 0.929 . S
C3314 C3316 1.378 . S
C3314 C3318 1.350 . S
C3315 C3318 1.463 . S
C3315 C3320 1.350 . S
C3315 N3323 1.427 . S
C3316 H3307 0.930 . S
C3316 C3314 1.378 . S
C3316 C3317 1.367 . S
C3317 C3316 1.367 . S
C3317 C3319 1.433 . S
C3318 C3314 1.350 . S
C3318 C3315 1.463 . S
C3318 N3322 1.427 . S
C3319 H3309 0.929 . S
C3319 C3317 1.433 . S
C3319 N3322 1.384 . S
C3320 H3311 0.929 . S
C3320 C3312 1.378 . S
C3320 C3315 1.350 . S
C3321 H3308 0.929 . S
C3321 C3313 1.433 . S
C3321 N3323 1.384 . S
N3322 C3318 1.427 . S
N3322 C3319 1.384 . S
N3323 C3315 1.427 . S
N3323 C3321 1.384 . S
H3324 C3330 0.930 . S
H3325 C3334 0.930 . S
H3326 C3339 0.929 . S
H3327 C3337 0.929 . S
H3328 C3332 0.929 . S
H3329 C3338 0.929 . S
C3330 H3324 0.930 . S
C3330 C3331 1.367 . S
C3330 C3338 1.378 . S
C3331 C3330 1.367 . S
C3331 C3339 1.433 . S
C3332 H3328 0.929 . S
C3332 C3334 1.378 . S
C3332 C3336 1.350 . S
C3333 C3336 1.463 . S
C3333 C3338 1.350 . S
C3333 N3341 1.427 . S
C3334 H3325 0.930 . S
C3334 C3332 1.378 . S
C3334 C3335 1.367 . S
C3335 C3334 1.367 . S
C3335 C3337 1.433 . S
C3336 C3332 1.350 . S
C3336 C3333 1.463 . S
C3336 N3340 1.427 . S
C3337 H3327 0.929 . S
C3337 C3335 1.433 . S
C3337 N3340 1.384 . S
C3338 H3329 0.929 . S
C3338 C3330 1.378 . S
C3338 C3333 1.350 . S
C3339 H3326 0.929 . S
C3339 C3331 1.433 . S
C3339 N3341 1.384 . S
N3340 C3336 1.427 . S
N3340 C3337 1.384 . S
N3341 C3333 1.427 . S
N3341 C3339 1.384 . S
H3342 C3348 0.930 . S
H3343 C3352 0.930 . S
H3344 C3357 0.929 . S
H3345 C3355 0.929 . S
H3346 C3350 0.929 . S
H3347 C3356 0.929 . S
C3348 H3342 0.930 . S
C3348 C3349 1.367 . S
C3348 C3356 1.378 . S
C3349 C3348 1.367 . S
C3349 C3357 1.433 . S
C3350 H3346 0.929 . S
C3350 C3352 1.378 . S
C3350 C3354 1.350 . S
C3351 C3354 1.463 . S
C3351 C3356 1.350 . S
C3351 N3359 1.427 . S
C3352 H3343 0.930 . S
C3352 C3350 1.378 . S
C3352 C3353 1.367 . S
C3353 C3352 1.367 . S
C3353 C3355 1.433 . S
C3354 C3350 1.350 . S
C3354 C3351 1.463 . S
C3354 N3358 1.427 . S
C3355 H3345 0.929 . S
C3355 C3353 1.433 . S
C3355 N3358 1.384 . S
C3356 H3347 0.929 . S
C3356 C3348 1.378 . S
C3356 C3351 1.350 . S
C3357 H3344 0.929 . S
C3357 C3349 1.433 . S
C3357 N3359 1.384 . S
N3358 C3354 1.427 . S
N3358 C3355 1.384 . S
N3359 C3351 1.427 . S
N3359 C3357 1.384 . S
H3360 C3366 0.930 . S
H3361 C3370 0.930 . S
H3362 C3375 0.929 . S
H3363 C3373 0.929 . S
H3364 C3368 0.929 . S
H3365 C3374 0.929 . S
C3366 H3360 0.930 . S
C3366 C3367 1.367 . S
C3366 C3374 1.378 . S
C3367 C3366 1.367 . S
C3367 C3375 1.433 . S
C3368 H3364 0.929 . S
C3368 C3370 1.378 . S
C3368 C3372 1.350 . S
C3369 C3372 1.463 . S
C3369 C3374 1.350 . S
C3369 N3377 1.427 . S
C3370 H3361 0.930 . S
C3370 C3368 1.378 . S
C3370 C3371 1.367 . S
C3371 C3370 1.367 . S
C3371 C3373 1.433 . S
C3372 C3368 1.350 . S
C3372 C3369 1.463 . S
C3372 N3376 1.427 . S
C3373 H3363 0.929 . S
C3373 C3371 1.433 . S
C3373 N3376 1.384 . S
C3374 H3365 0.929 . S
C3374 C3366 1.378 . S
C3374 C3369 1.350 . S
C3375 H3362 0.929 . S
C3375 C3367 1.433 . S
C3375 N3377 1.384 . S
N3376 C3372 1.427 . S
N3376 C3373 1.384 . S
N3377 C3369 1.427 . S
N3377 C3375 1.384 . S
H3378 C3384 0.930 . S
H3379 C3388 0.930 . S
H3380 C3393 0.929 . S
H3381 C3391 0.929 . S
H3382 C3386 0.929 . S
H3383 C3392 0.929 . S
C3384 H3378 0.930 . S
C3384 C3385 1.367 . S
C3384 C3392 1.378 . S
C3385 C3384 1.367 . S
C3385 C3393 1.433 . S
C3386 H3382 0.929 . S
C3386 C3388 1.378 . S
C3386 C3390 1.350 . S
C3387 C3390 1.463 . S
C3387 C3392 1.350 . S
C3387 N3395 1.427 . S
C3388 H3379 0.930 . S
C3388 C3386 1.378 . S
C3388 C3389 1.367 . S
C3389 C3388 1.367 . S
C3389 C3391 1.433 . S
C3390 C3386 1.350 . S
C3390 C3387 1.463 . S
C3390 N3394 1.427 . S
C3391 H3381 0.929 . S
C3391 C3389 1.433 . S
C3391 N3394 1.384 . S
C3392 H3383 0.929 . S
C3392 C3384 1.378 . S
C3392 C3387 1.350 . S
C3393 H3380 0.929 . S
C3393 C3385 1.433 . S
C3393 N3395 1.384 . S
N3394 C3390 1.427 . S
N3394 C3391 1.384 . S
N3395 C3387 1.427 . S
N3395 C3393 1.384 . S
H3396 C3402 0.930 . S
H3397 C3406 0.930 . S
H3398 C3411 0.929 . S
H3399 C3409 0.929 . S
H3400 C3404 0.929 . S
H3401 C3410 0.929 . S
C3402 H3396 0.930 . S
C3402 C3403 1.367 . S
C3402 C3410 1.378 . S
C3403 C3402 1.367 . S
C3403 C3411 1.433 . S
C3404 H3400 0.929 . S
C3404 C3406 1.378 . S
C3404 C3408 1.350 . S
C3405 C3408 1.463 . S
C3405 C3410 1.350 . S
C3405 N3413 1.427 . S
C3406 H3397 0.930 . S
C3406 C3404 1.378 . S
C3406 C3407 1.367 . S
C3407 C3406 1.367 . S
C3407 C3409 1.433 . S
C3408 C3404 1.350 . S
C3408 C3405 1.463 . S
C3408 N3412 1.427 . S
C3409 H3399 0.929 . S
C3409 C3407 1.433 . S
C3409 N3412 1.384 . S
C3410 H3401 0.929 . S
C3410 C3402 1.378 . S
C3410 C3405 1.350 . S
C3411 H3398 0.929 . S
C3411 C3403 1.433 . S
C3411 N3413 1.384 . S
N3412 C3408 1.427 . S
N3412 C3409 1.384 . S
N3413 C3405 1.427 . S
N3413 C3411 1.384 . S
H3414 C3420 0.930 . S
H3415 C3424 0.930 . S
H3416 C3429 0.929 . S
H3417 C3427 0.929 . S
H3418 C3422 0.929 . S
H3419 C3428 0.929 . S
C3420 H3414 0.930 . S
C3420 C3421 1.367 . S
C3420 C3428 1.378 . S
C3421 C3420 1.367 . S
C3421 C3429 1.433 . S
C3422 H3418 0.929 . S
C3422 C3424 1.378 . S
C3422 C3426 1.350 . S
C3423 C3426 1.463 . S
C3423 C3428 1.350 . S
C3423 N3431 1.427 . S
C3424 H3415 0.930 . S
C3424 C3422 1.378 . S
C3424 C3425 1.367 . S
C3425 C3424 1.367 . S
C3425 C3427 1.433 . S
C3426 C3422 1.350 . S
C3426 C3423 1.463 . S
C3426 N3430 1.427 . S
C3427 H3417 0.929 . S
C3427 C3425 1.433 . S
C3427 N3430 1.384 . S
C3428 H3419 0.929 . S
C3428 C3420 1.378 . S
C3428 C3423 1.350 . S
C3429 H3416 0.929 . S
C3429 C3421 1.433 . S
C3429 N3431 1.384 . S
N3430 C3426 1.427 . S
N3430 C3427 1.384 . S
N3431 C3423 1.427 . S
N3431 C3429 1.384 . S
H3432 C3438 0.930 . S
H3433 C3442 0.930 . S
H3434 C3447 0.929 . S
H3435 C3445 0.929 . S
H3436 C3440 0.929 . S
H3437 C3446 0.929 . S
C3438 H3432 0.930 . S
C3438 C3439 1.367 . S
C3438 C3446 1.378 . S
C3439 C3438 1.367 . S
C3439 C3447 1.433 . S
C3440 H3436 0.929 . S
C3440 C3442 1.378 . S
C3440 C3444 1.350 . S
C3441 C3444 1.463 . S
C3441 C3446 1.350 . S
C3441 N3449 1.427 . S
C3442 H3433 0.930 . S
C3442 C3440 1.378 . S
C3442 C3443 1.367 . S
C3443 C3442 1.367 . S
C3443 C3445 1.433 . S
C3444 C3440 1.350 . S
C3444 C3441 1.463 . S
C3444 N3448 1.427 . S
C3445 H3435 0.929 . S
C3445 C3443 1.433 . S
C3445 N3448 1.384 . S
C3446 H3437 0.929 . S
C3446 C3438 1.378 . S
C3446 C3441 1.350 . S
C3447 H3434 0.929 . S
C3447 C3439 1.433 . S
C3447 N3449 1.384 . S
N3448 C3444 1.427 . S
N3448 C3445 1.384 . S
N3449 C3441 1.427 . S
N3449 C3447 1.384 . S
H3450 C3456 0.930 . S
H3451 C3460 0.930 . S
H3452 C3465 0.929 . S
H3453 C3463 0.929 . S
H3454 C3458 0.929 . S
H3455 C3464 0.929 . S
C3456 H3450 0.930 . S
C3456 C3457 1.367 . S
C3456 C3464 1.378 . S
C3457 C3456 1.367 . S
C3457 C3465 1.433 . S
C3458 H3454 0.929 . S
C3458 C3460 1.378 . S
C3458 C3462 1.350 . S
C3459 C3462 1.463 . S
C3459 C3464 1.350 . S
C3459 N3467 1.427 . S
C3460 H3451 0.930 . S
C3460 C3458 1.378 . S
C3460 C3461 1.367 . S
C3461 C3460 1.367 . S
C3461 C3463 1.433 . S
C3462 C3458 1.350 . S
C3462 C3459 1.463 . S
C3462 N3466 1.427 . S
C3463 H3453 0.929 . S
C3463 C3461 1.433 . S
C3463 N3466 1.384 . S
C3464 H3455 0.929 . S
C3464 C3456 1.378 . S
C3464 C3459 1.350 . S
C3465 H3452 0.929 . S
C3465 C3457 1.433 . S
C3465 N3467 1.384 . S
N3466 C3462 1.427 . S
N3466 C3463 1.384 . S
N3467 C3459 1.427 . S
N3467 C3465 1.384 . S
H3468 C3474 0.930 . S
H3469 C3478 0.930 . S
H3470 C3483 0.929 . S
H3471 C3481 0.929 . S
H3472 C3476 0.929 . S
H3473 C3482 0.929 . S
C3474 H3468 0.930 . S
C3474 C3475 1.367 . S
C3474 C3482 1.378 . S
C3475 C3474 1.367 . S
C3475 C3483 1.433 . S
C3476 H3472 0.929 . S
C3476 C3478 1.378 . S
C3476 C3480 1.350 . S
C3477 C3480 1.463 . S
C3477 C3482 1.350 . S
C3477 N3485 1.427 . S
C3478 H3469 0.930 . S
C3478 C3476 1.378 . S
C3478 C3479 1.367 . S
C3479 C3478 1.367 . S
C3479 C3481 1.433 . S
C3480 C3476 1.350 . S
C3480 C3477 1.463 . S
C3480 N3484 1.427 . S
C3481 H3471 0.929 . S
C3481 C3479 1.433 . S
C3481 N3484 1.384 . S
C3482 H3473 0.929 . S
C3482 C3474 1.378 . S
C3482 C3477 1.350 . S
C3483 H3470 0.929 . S
C3483 C3475 1.433 . S
C3483 N3485 1.384 . S
N3484 C3480 1.427 . S
N3484 C3481 1.384 . S
N3485 C3477 1.427 . S
N3485 C3483 1.384 . S
H3486 C3492 0.930 . S
H3487 C3496 0.930 . S
H3488 C3501 0.929 . S
H3489 C3499 0.929 . S
H3490 C3494 0.929 . S
H3491 C3500 0.929 . S
C3492 H3486 0.930 . S
C3492 C3493 1.367 . S
C3492 C3500 1.378 . S
C3493 C3492 1.367 . S
C3493 C3501 1.433 . S
C3494 H3490 0.929 . S
C3494 C3496 1.378 . S
C3494 C3498 1.350 . S
C3495 C3498 1.463 . S
C3495 C3500 1.350 . S
C3495 N3503 1.427 . S
C3496 H3487 0.930 . S
C3496 C3494 1.378 . S
C3496 C3497 1.367 . S
C3497 C3496 1.367 . S
C3497 C3499 1.433 . S
C3498 C3494 1.350 . S
C3498 C3495 1.463 . S
C3498 N3502 1.427 . S
C3499 H3489 0.929 . S
C3499 C3497 1.433 . S
C3499 N3502 1.384 . S
C3500 H3491 0.929 . S
C3500 C3492 1.378 . S
C3500 C3495 1.350 . S
C3501 H3488 0.929 . S
C3501 C3493 1.433 . S
C3501 N3503 1.384 . S
N3502 C3498 1.427 . S
N3502 C3499 1.384 . S
N3503 C3495 1.427 . S
N3503 C3501 1.384 . S
H3504 C3510 0.930 . S
H3505 C3514 0.930 . S
H3506 C3519 0.929 . S
H3507 C3517 0.929 . S
H3508 C3512 0.929 . S
H3509 C3518 0.929 . S
C3510 H3504 0.930 . S
C3510 C3511 1.367 . S
C3510 C3518 1.378 . S
C3511 C3510 1.367 . S
C3511 C3519 1.433 . S
C3512 H3508 0.929 . S
C3512 C3514 1.378 . S
C3512 C3516 1.350 . S
C3513 C3516 1.463 . S
C3513 C3518 1.350 . S
C3513 N3521 1.427 . S
C3514 H3505 0.930 . S
C3514 C3512 1.378 . S
C3514 C3515 1.367 . S
C3515 C3514 1.367 . S
C3515 C3517 1.433 . S
C3516 C3512 1.350 . S
C3516 C3513 1.463 . S
C3516 N3520 1.427 . S
C3517 H3507 0.929 . S
C3517 C3515 1.433 . S
C3517 N3520 1.384 . S
C3518 H3509 0.929 . S
C3518 C3510 1.378 . S
C3518 C3513 1.350 . S
C3519 H3506 0.929 . S
C3519 C3511 1.433 . S
C3519 N3521 1.384 . S
N3520 C3516 1.427 . S
N3520 C3517 1.384 . S
N3521 C3513 1.427 . S
N3521 C3519 1.384 . S
H3522 C3528 0.930 . S
H3523 C3532 0.930 . S
H3524 C3537 0.929 . S
H3525 C3535 0.929 . S
H3526 C3530 0.929 . S
H3527 C3536 0.929 . S
C3528 H3522 0.930 . S
C3528 C3529 1.367 . S
C3528 C3536 1.378 . S
C3529 C3528 1.367 . S
C3529 C3537 1.433 . S
C3530 H3526 0.929 . S
C3530 C3532 1.378 . S
C3530 C3534 1.350 . S
C3531 C3534 1.463 . S
C3531 C3536 1.350 . S
C3531 N3539 1.427 . S
C3532 H3523 0.930 . S
C3532 C3530 1.378 . S
C3532 C3533 1.367 . S
C3533 C3532 1.367 . S
C3533 C3535 1.433 . S
C3534 C3530 1.350 . S
C3534 C3531 1.463 . S
C3534 N3538 1.427 . S
C3535 H3525 0.929 . S
C3535 C3533 1.433 . S
C3535 N3538 1.384 . S
C3536 H3527 0.929 . S
C3536 C3528 1.378 . S
C3536 C3531 1.350 . S
C3537 H3524 0.929 . S
C3537 C3529 1.433 . S
C3537 N3539 1.384 . S
N3538 C3534 1.427 . S
N3538 C3535 1.384 . S
N3539 C3531 1.427 . S
N3539 C3537 1.384 . S
H3540 C3546 0.930 . S
H3541 C3550 0.930 . S
H3542 C3555 0.929 . S
H3543 C3553 0.929 . S
H3544 C3548 0.929 . S
H3545 C3554 0.929 . S
C3546 H3540 0.930 . S
C3546 C3547 1.367 . S
C3546 C3554 1.378 . S
C3547 C3546 1.367 . S
C3547 C3555 1.433 . S
C3548 H3544 0.929 . S
C3548 C3550 1.378 . S
C3548 C3552 1.350 . S
C3549 C3552 1.463 . S
C3549 C3554 1.350 . S
C3549 N3557 1.427 . S
C3550 H3541 0.930 . S
C3550 C3548 1.378 . S
C3550 C3551 1.367 . S
C3551 C3550 1.367 . S
C3551 C3553 1.433 . S
C3552 C3548 1.350 . S
C3552 C3549 1.463 . S
C3552 N3556 1.427 . S
C3553 H3543 0.929 . S
C3553 C3551 1.433 . S
C3553 N3556 1.384 . S
C3554 H3545 0.929 . S
C3554 C3546 1.378 . S
C3554 C3549 1.350 . S
C3555 H3542 0.929 . S
C3555 C3547 1.433 . S
C3555 N3557 1.384 . S
N3556 C3552 1.427 . S
N3556 C3553 1.384 . S
N3557 C3549 1.427 . S
N3557 C3555 1.384 . S
H3558 C3564 0.930 . S
H3559 C3568 0.930 . S
H3560 C3573 0.929 . S
H3561 C3571 0.929 . S
H3562 C3566 0.929 . S
H3563 C3572 0.929 . S
C3564 H3558 0.930 . S
C3564 C3565 1.367 . S
C3564 C3572 1.378 . S
C3565 C3564 1.367 . S
C3565 C3573 1.433 . S
C3566 H3562 0.929 . S
C3566 C3568 1.378 . S
C3566 C3570 1.350 . S
C3567 C3570 1.463 . S
C3567 C3572 1.350 . S
C3567 N3575 1.427 . S
C3568 H3559 0.930 . S
C3568 C3566 1.378 . S
C3568 C3569 1.367 . S
C3569 C3568 1.367 . S
C3569 C3571 1.433 . S
C3570 C3566 1.350 . S
C3570 C3567 1.463 . S
C3570 N3574 1.427 . S
C3571 H3561 0.929 . S
C3571 C3569 1.433 . S
C3571 N3574 1.384 . S
C3572 H3563 0.929 . S
C3572 C3564 1.378 . S
C3572 C3567 1.350 . S
C3573 H3560 0.929 . S
C3573 C3565 1.433 . S
C3573 N3575 1.384 . S
N3574 C3570 1.427 . S
N3574 C3571 1.384 . S
N3575 C3567 1.427 . S
N3575 C3573 1.384 . S
H3576 C3582 0.930 . S
H3577 C3586 0.930 . S
H3578 C3591 0.929 . S
H3579 C3589 0.929 . S
H3580 C3584 0.929 . S
H3581 C3590 0.929 . S
C3582 H3576 0.930 . S
C3582 C3583 1.367 . S
C3582 C3590 1.378 . S
C3583 C3582 1.367 . S
C3583 C3591 1.433 . S
C3584 H3580 0.929 . S
C3584 C3586 1.378 . S
C3584 C3588 1.350 . S
C3585 C3588 1.463 . S
C3585 C3590 1.350 . S
C3585 N3593 1.427 . S
C3586 H3577 0.930 . S
C3586 C3584 1.378 . S
C3586 C3587 1.367 . S
C3587 C3586 1.367 . S
C3587 C3589 1.433 . S
C3588 C3584 1.350 . S
C3588 C3585 1.463 . S
C3588 N3592 1.427 . S
C3589 H3579 0.929 . S
C3589 C3587 1.433 . S
C3589 N3592 1.384 . S
C3590 H3581 0.929 . S
C3590 C3582 1.378 . S
C3590 C3585 1.350 . S
C3591 H3578 0.929 . S
C3591 C3583 1.433 . S
C3591 N3593 1.384 . S
N3592 C3588 1.427 . S
N3592 C3589 1.384 . S
N3593 C3585 1.427 . S
N3593 C3591 1.384 . S
H3594 C3600 0.930 . S
H3595 C3604 0.930 . S
H3596 C3609 0.929 . S
H3597 C3607 0.929 . S
H3598 C3602 0.929 . S
H3599 C3608 0.929 . S
C3600 H3594 0.930 . S
C3600 C3601 1.367 . S
C3600 C3608 1.378 . S
C3601 C3600 1.367 . S
C3601 C3609 1.433 . S
C3602 H3598 0.929 . S
C3602 C3604 1.378 . S
C3602 C3606 1.350 . S
C3603 C3606 1.463 . S
C3603 C3608 1.350 . S
C3603 N3611 1.427 . S
C3604 H3595 0.930 . S
C3604 C3602 1.378 . S
C3604 C3605 1.367 . S
C3605 C3604 1.367 . S
C3605 C3607 1.433 . S
C3606 C3602 1.350 . S
C3606 C3603 1.463 . S
C3606 N3610 1.427 . S
C3607 H3597 0.929 . S
C3607 C3605 1.433 . S
C3607 N3610 1.384 . S
C3608 H3599 0.929 . S
C3608 C3600 1.378 . S
C3608 C3603 1.350 . S
C3609 H3596 0.929 . S
C3609 C3601 1.433 . S
C3609 N3611 1.384 . S
N3610 C3606 1.427 . S
N3610 C3607 1.384 . S
N3611 C3603 1.427 . S
N3611 C3609 1.384 . S
H3612 C3618 0.930 . S
H3613 C3622 0.930 . S
H3614 C3627 0.929 . S
H3615 C3625 0.929 . S
H3616 C3620 0.929 . S
H3617 C3626 0.929 . S
C3618 H3612 0.930 . S
C3618 C3619 1.367 . S
C3618 C3626 1.378 . S
C3619 C3618 1.367 . S
C3619 C3627 1.433 . S
C3620 H3616 0.929 . S
C3620 C3622 1.378 . S
C3620 C3624 1.350 . S
C3621 C3624 1.463 . S
C3621 C3626 1.350 . S
C3621 N3629 1.427 . S
C3622 H3613 0.930 . S
C3622 C3620 1.378 . S
C3622 C3623 1.367 . S
C3623 C3622 1.367 . S
C3623 C3625 1.433 . S
C3624 C3620 1.350 . S
C3624 C3621 1.463 . S
C3624 N3628 1.427 . S
C3625 H3615 0.929 . S
C3625 C3623 1.433 . S
C3625 N3628 1.384 . S
C3626 H3617 0.929 . S
C3626 C3618 1.378 . S
C3626 C3621 1.350 . S
C3627 H3614 0.929 . S
C3627 C3619 1.433 . S
C3627 N3629 1.384 . S
N3628 C3624 1.427 . S
N3628 C3625 1.384 . S
N3629 C3621 1.427 . S
N3629 C3627 1.384 . S
H3630 C3636 0.930 . S
H3631 C3640 0.930 . S
H3632 C3645 0.929 . S
H3633 C3643 0.929 . S
H3634 C3638 0.929 . S
H3635 C3644 0.929 . S
C3636 H3630 0.930 . S
C3636 C3637 1.367 . S
C3636 C3644 1.378 . S
C3637 C3636 1.367 . S
C3637 C3645 1.433 . S
C3638 H3634 0.929 . S
C3638 C3640 1.378 . S
C3638 C3642 1.350 . S
C3639 C3642 1.463 . S
C3639 C3644 1.350 . S
C3639 N3647 1.427 . S
C3640 H3631 0.930 . S
C3640 C3638 1.378 . S
C3640 C3641 1.367 . S
C3641 C3640 1.367 . S
C3641 C3643 1.433 . S
C3642 C3638 1.350 . S
C3642 C3639 1.463 . S
C3642 N3646 1.427 . S
C3643 H3633 0.929 . S
C3643 C3641 1.433 . S
C3643 N3646 1.384 . S
C3644 H3635 0.929 . S
C3644 C3636 1.378 . S
C3644 C3639 1.350 . S
C3645 H3632 0.929 . S
C3645 C3637 1.433 . S
C3645 N3647 1.384 . S
N3646 C3642 1.427 . S
N3646 C3643 1.384 . S
N3647 C3639 1.427 . S
N3647 C3645 1.384 . S
H3648 C3654 0.930 . S
H3649 C3658 0.930 . S
H3650 C3663 0.929 . S
H3651 C3661 0.929 . S
H3652 C3656 0.929 . S
H3653 C3662 0.929 . S
C3654 H3648 0.930 . S
C3654 C3655 1.367 . S
C3654 C3662 1.378 . S
C3655 C3654 1.367 . S
C3655 C3663 1.433 . S
C3656 H3652 0.929 . S
C3656 C3658 1.378 . S
C3656 C3660 1.350 . S
C3657 C3660 1.463 . S
C3657 C3662 1.350 . S
C3657 N3665 1.427 . S
C3658 H3649 0.930 . S
C3658 C3656 1.378 . S
C3658 C3659 1.367 . S
C3659 C3658 1.367 . S
C3659 C3661 1.433 . S
C3660 C3656 1.350 . S
C3660 C3657 1.463 . S
C3660 N3664 1.427 . S
C3661 H3651 0.929 . S
C3661 C3659 1.433 . S
C3661 N3664 1.384 . S
C3662 H3653 0.929 . S
C3662 C3654 1.378 . S
C3662 C3657 1.350 . S
C3663 H3650 0.929 . S
C3663 C3655 1.433 . S
C3663 N3665 1.384 . S
N3664 C3660 1.427 . S
N3664 C3661 1.384 . S
N3665 C3657 1.427 . S
N3665 C3663 1.384 . S
H3666 C3672 0.930 . S
H3667 C3676 0.930 . S
H3668 C3681 0.929 . S
H3669 C3679 0.929 . S
H3670 C3674 0.929 . S
H3671 C3680 0.929 . S
C3672 H3666 0.930 . S
C3672 C3673 1.367 . S
C3672 C3680 1.378 . S
C3673 C3672 1.367 . S
C3673 C3681 1.433 . S
C3674 H3670 0.929 . S
C3674 C3676 1.378 . S
C3674 C3678 1.350 . S
C3675 C3678 1.463 . S
C3675 C3680 1.350 . S
C3675 N3683 1.427 . S
C3676 H3667 0.930 . S
C3676 C3674 1.378 . S
C3676 C3677 1.367 . S
C3677 C3676 1.367 . S
C3677 C3679 1.433 . S
C3678 C3674 1.350 . S
C3678 C3675 1.463 . S
C3678 N3682 1.427 . S
C3679 H3669 0.929 . S
C3679 C3677 1.433 . S
C3679 N3682 1.384 . S
C3680 H3671 0.929 . S
C3680 C3672 1.378 . S
C3680 C3675 1.350 . S
C3681 H3668 0.929 . S
C3681 C3673 1.433 . S
C3681 N3683 1.384 . S
N3682 C3678 1.427 . S
N3682 C3679 1.384 . S
N3683 C3675 1.427 . S
N3683 C3681 1.384 . S
H3684 C3690 0.930 . S
H3685 C3694 0.930 . S
H3686 C3699 0.929 . S
H3687 C3697 0.929 . S
H3688 C3692 0.929 . S
H3689 C3698 0.929 . S
C3690 H3684 0.930 . S
C3690 C3691 1.367 . S
C3690 C3698 1.378 . S
C3691 C3690 1.367 . S
C3691 C3699 1.433 . S
C3692 H3688 0.929 . S
C3692 C3694 1.378 . S
C3692 C3696 1.350 . S
C3693 C3696 1.463 . S
C3693 C3698 1.350 . S
C3693 N3701 1.427 . S
C3694 H3685 0.930 . S
C3694 C3692 1.378 . S
C3694 C3695 1.367 . S
C3695 C3694 1.367 . S
C3695 C3697 1.433 . S
C3696 C3692 1.350 . S
C3696 C3693 1.463 . S
C3696 N3700 1.427 . S
C3697 H3687 0.929 . S
C3697 C3695 1.433 . S
C3697 N3700 1.384 . S
C3698 H3689 0.929 . S
C3698 C3690 1.378 . S
C3698 C3693 1.350 . S
C3699 H3686 0.929 . S
C3699 C3691 1.433 . S
C3699 N3701 1.384 . S
N3700 C3696 1.427 . S
N3700 C3697 1.384 . S
N3701 C3693 1.427 . S
N3701 C3699 1.384 . S
H3702 C3708 0.930 . S
H3703 C3712 0.930 . S
H3704 C3717 0.929 . S
H3705 C3715 0.929 . S
H3706 C3710 0.929 . S
H3707 C3716 0.929 . S
C3708 H3702 0.930 . S
C3708 C3709 1.367 . S
C3708 C3716 1.378 . S
C3709 C3708 1.367 . S
C3709 C3717 1.433 . S
C3710 H3706 0.929 . S
C3710 C3712 1.378 . S
C3710 C3714 1.350 . S
C3711 C3714 1.463 . S
C3711 C3716 1.350 . S
C3711 N3719 1.427 . S
C3712 H3703 0.930 . S
C3712 C3710 1.378 . S
C3712 C3713 1.367 . S
C3713 C3712 1.367 . S
C3713 C3715 1.433 . S
C3714 C3710 1.350 . S
C3714 C3711 1.463 . S
C3714 N3718 1.427 . S
C3715 H3705 0.929 . S
C3715 C3713 1.433 . S
C3715 N3718 1.384 . S
C3716 H3707 0.929 . S
C3716 C3708 1.378 . S
C3716 C3711 1.350 . S
C3717 H3704 0.929 . S
C3717 C3709 1.433 . S
C3717 N3719 1.384 . S
N3718 C3714 1.427 . S
N3718 C3715 1.384 . S
N3719 C3711 1.427 . S
N3719 C3717 1.384 . S
H3720 C3726 0.930 . S
H3721 C3730 0.930 . S
H3722 C3735 0.929 . S
H3723 C3733 0.929 . S
H3724 C3728 0.929 . S
H3725 C3734 0.929 . S
C3726 H3720 0.930 . S
C3726 C3727 1.367 . S
C3726 C3734 1.378 . S
C3727 C3726 1.367 . S
C3727 C3735 1.433 . S
C3728 H3724 0.929 . S
C3728 C3730 1.378 . S
C3728 C3732 1.350 . S
C3729 C3732 1.463 . S
C3729 C3734 1.350 . S
C3729 N3737 1.427 . S
C3730 H3721 0.930 . S
C3730 C3728 1.378 . S
C3730 C3731 1.367 . S
C3731 C3730 1.367 . S
C3731 C3733 1.433 . S
C3732 C3728 1.350 . S
C3732 C3729 1.463 . S
C3732 N3736 1.427 . S
C3733 H3723 0.929 . S
C3733 C3731 1.433 . S
C3733 N3736 1.384 . S
C3734 H3725 0.929 . S
C3734 C3726 1.378 . S
C3734 C3729 1.350 . S
C3735 H3722 0.929 . S
C3735 C3727 1.433 . S
C3735 N3737 1.384 . S
N3736 C3732 1.427 . S
N3736 C3733 1.384 . S
N3737 C3729 1.427 . S
N3737 C3735 1.384 . S
H3738 C3744 0.930 . S
H3739 C3748 0.930 . S
H3740 C3753 0.929 . S
H3741 C3751 0.929 . S
H3742 C3746 0.929 . S
H3743 C3752 0.929 . S
C3744 H3738 0.930 . S
C3744 C3745 1.367 . S
C3744 C3752 1.378 . S
C3745 C3744 1.367 . S
C3745 C3753 1.433 . S
C3746 H3742 0.929 . S
C3746 C3748 1.378 . S
C3746 C3750 1.350 . S
C3747 C3750 1.463 . S
C3747 C3752 1.350 . S
C3747 N3755 1.427 . S
C3748 H3739 0.930 . S
C3748 C3746 1.378 . S
C3748 C3749 1.367 . S
C3749 C3748 1.367 . S
C3749 C3751 1.433 . S
C3750 C3746 1.350 . S
C3750 C3747 1.463 . S
C3750 N3754 1.427 . S
C3751 H3741 0.929 . S
C3751 C3749 1.433 . S
C3751 N3754 1.384 . S
C3752 H3743 0.929 . S
C3752 C3744 1.378 . S
C3752 C3747 1.350 . S
C3753 H3740 0.929 . S
C3753 C3745 1.433 . S
C3753 N3755 1.384 . S
N3754 C3750 1.427 . S
N3754 C3751 1.384 . S
N3755 C3747 1.427 . S
N3755 C3753 1.384 . S
H3756 C3762 0.930 . S
H3757 C3766 0.930 . S
H3758 C3771 0.929 . S
H3759 C3769 0.929 . S
H3760 C3764 0.929 . S
H3761 C3770 0.929 . S
C3762 H3756 0.930 . S
C3762 C3763 1.367 . S
C3762 C3770 1.378 . S
C3763 C3762 1.367 . S
C3763 C3771 1.433 . S
C3764 H3760 0.929 . S
C3764 C3766 1.378 . S
C3764 C3768 1.350 . S
C3765 C3768 1.463 . S
C3765 C3770 1.350 . S
C3765 N3773 1.427 . S
C3766 H3757 0.930 . S
C3766 C3764 1.378 . S
C3766 C3767 1.367 . S
C3767 C3766 1.367 . S
C3767 C3769 1.433 . S
C3768 C3764 1.350 . S
C3768 C3765 1.463 . S
C3768 N3772 1.427 . S
C3769 H3759 0.929 . S
C3769 C3767 1.433 . S
C3769 N3772 1.384 . S
C3770 H3761 0.929 . S
C3770 C3762 1.378 . S
C3770 C3765 1.350 . S
C3771 H3758 0.929 . S
C3771 C3763 1.433 . S
C3771 N3773 1.384 . S
N3772 C3768 1.427 . S
N3772 C3769 1.384 . S
N3773 C3765 1.427 . S
N3773 C3771 1.384 . S
H3774 C3780 0.930 . S
H3775 C3784 0.930 . S
H3776 C3789 0.929 . S
H3777 C3787 0.929 . S
H3778 C3782 0.929 . S
H3779 C3788 0.929 . S
C3780 H3774 0.930 . S
C3780 C3781 1.367 . S
C3780 C3788 1.378 . S
C3781 C3780 1.367 . S
C3781 C3789 1.433 . S
C3782 H3778 0.929 . S
C3782 C3784 1.378 . S
C3782 C3786 1.350 . S
C3783 C3786 1.463 . S
C3783 C3788 1.350 . S
C3783 N3791 1.427 . S
C3784 H3775 0.930 . S
C3784 C3782 1.378 . S
C3784 C3785 1.367 . S
C3785 C3784 1.367 . S
C3785 C3787 1.433 . S
C3786 C3782 1.350 . S
C3786 C3783 1.463 . S
C3786 N3790 1.427 . S
C3787 H3777 0.929 . S
C3787 C3785 1.433 . S
C3787 N3790 1.384 . S
C3788 H3779 0.929 . S
C3788 C3780 1.378 . S
C3788 C3783 1.350 . S
C3789 H3776 0.929 . S
C3789 C3781 1.433 . S
C3789 N3791 1.384 . S
N3790 C3786 1.427 . S
N3790 C3787 1.384 . S
N3791 C3783 1.427 . S
N3791 C3789 1.384 . S
C1639 C1087 0.790 . S
C1643 C33 0.788 . S
C1657 C67 0.773 . S
C1661 C985 0.794 . S
C1675 C101 0.765 . S
C1679 C1019 0.782 . S
C1693 C1053 0.767 . S
C1697 C135 0.790 . S
C1711 C883 0.793 . S
C1715 C169 0.784 . S
C1729 C917 0.787 . S
C1733 C203 0.791 . S
C1747 C237 0.794 . S
C1751 C951 0.775 . S
C1765 C271 0.771 . S
C1769 C849 0.770 . S
C1783 C305 0.778 . S
C1787 C1529 0.794 . S
C1801 C339 0.778 . S
C1805 C1427 0.794 . S
C1819 C373 0.787 . S
C1823 C1461 0.766 . S
C1837 C407 0.792 . S
C1841 C1495 0.786 . S
C1855 C1631 0.787 . S
C1859 C441 0.792 . S
C1873 C475 0.790 . S
C1877 C1563 0.789 . S
C1891 C509 0.767 . S
C1895 C1597 0.790 . S
C1909 C1393 0.785 . S
C1913 C543 0.792 . S
C1927 C577 0.792 . S
C1931 C1359 0.786 . S
C1945 C1155 0.765 . S
C1949 C611 0.785 . S
C1963 C1189 0.785 . S
C1967 C645 0.765 . S
C1981 C1223 0.768 . S
C1985 C679 0.773 . S
C1999 C713 0.766 . S
C2003 C1121 0.777 . S
C2017 C747 0.783 . S
C2021 C1291 0.794 . S
C2035 C1325 0.789 . S
C2039 C781 0.767 . S
C2053 C815 0.787 . S
C2057 C1257 0.791 . S
C2071 C70 1.866 . S
C2075 C2 1.872 . S
C2089 C36 1.872 . S
C2093 C104 1.870 . S
C2107 C206 1.871 . S
C2111 C138 1.865 . S
C2125 C240 1.867 . S
C2129 C172 1.872 . S
C2143 C274 1.868 . S
C2147 C410 1.866 . S
C2161 C444 1.869 . S
C2165 C308 1.872 . S
C2179 C478 1.866 . S
C2183 C342 1.867 . S
C2197 C512 1.871 . S
C2201 C376 1.871 . S
C2215 C648 1.871 . S
C2219 C546 1.866 . S
C2233 C580 1.868 . S
C2237 C716 1.866 . S
C2251 C614 1.867 . S
C2255 C750 1.867 . S
C2269 C682 1.865 . S
C2273 C784 1.870 . S
C2287 C886 1.869 . S
C2291 C818 1.865 . S
C2305 C920 1.866 . S
C2309 C852 1.872 . S
C2323 C1022 1.872 . S
C2327 C954 1.868 . S
C2341 C1056 1.868 . S
C2345 C988 1.866 . S
C2359 C1090 1.868 . S
C2363 C1226 1.866 . S
C2377 C1124 1.871 . S
C2381 C1260 1.865 . S
C2395 C1294 1.866 . S
C2399 C1158 1.868 . S
C2413 C1328 1.866 . S
C2417 C1192 1.871 . S
C2431 C1362 1.870 . S
C2435 C1464 1.865 . S
C2449 C1532 1.867 . S
C2453 C1396 1.866 . S
C2467 C1566 1.872 . S
C2471 C1430 1.869 . S
C2485 C1600 1.867 . S
C2489 C1498 1.866 . S
C2503 C753 1.132 . S
C2507 C5 1.157 . S
C2521 C39 1.156 . S
C2525 C549 1.135 . S
C2539 C73 1.143 . S
C2543 C787 1.149 . S
C2557 C107 1.133 . S
C2561 C719 1.158 . S
C2575 C141 1.132 . S
C2579 C617 1.157 . S
C2593 C651 1.150 . S
C2597 C175 1.138 . S
C2611 C209 1.154 . S
C2615 C685 1.134 . S
C2629 C243 1.138 . S
C2633 C583 1.154 . S
C2647 C277 1.142 . S
C2651 C447 1.145 . S
C2665 C481 1.147 . S
C2669 C311 1.140 . S
C2683 C515 1.157 . S
C2687 C345 1.132 . S
C2701 C413 1.146 . S
C2705 C379 1.147 . S
C2719 C821 1.150 . S
C2723 C1569 1.137 . S
C2737 C1365 1.153 . S
C2741 C855 1.138 . S
C2755 C1603 1.156 . S
C2759 C889 1.132 . S
C2773 C923 1.132 . S
C2777 C1535 1.158 . S
C2791 C1433 1.142 . S
C2795 C957 1.145 . S
C2809 C1467 1.139 . S
C2813 C991 1.148 . S
C2827 C1501 1.140 . S
C2831 C1025 1.148 . S
C2845 C1059 1.144 . S
C2849 C1399 1.148 . S
C2863 C1093 1.157 . S
C2867 C1263 1.133 . S
C2881 C1127 1.156 . S
C2885 C1297 1.133 . S
C2899 C1331 1.145 . S
C2903 C1161 1.142 . S
C2917 C1229 1.139 . S
C2921 C1195 1.149 . S
C2935 C20 1.875 . S
C2939 C621 1.904 . S
C2953 C655 1.908 . S
C2957 C54 1.866 . S
C2971 C88 1.867 . S
C2975 C689 1.909 . S
C2989 C587 1.905 . S
C2993 C122 1.874 . S
C3007 C156 1.871 . S
C3011 C757 1.905 . S
C3025 C553 1.906 . S
C3029 C190 1.873 . S
C3043 C791 1.908 . S
C3047 C224 1.867 . S
C3061 C258 1.874 . S
C3065 C723 1.904 . S
C3079 C315 1.905 . S
C3083 C292 1.875 . S
C3097 C326 1.876 . S
C3101 C349 1.904 . S
C3115 C360 1.866 . S
C3119 C383 1.908 . S
C3133 C281 1.905 . S
C3137 C394 1.875 . S
C3151 C428 1.874 . S
C3155 C519 1.905 . S
C3169 C462 1.870 . S
C3173 C417 1.906 . S
C3187 C496 1.871 . S
C3191 C451 1.907 . S
C3205 C485 1.904 . S
C3209 C530 1.873 . S
C3223 C111 1.908 . S
C3227 C564 1.866 . S
C3241 C598 1.870 . S
C3245 C179 1.905 . S
C3259 C213 1.909 . S
C3263 C632 1.866 . S
C3277 C247 1.908 . S
C3281 C666 1.866 . S
C3295 C700 1.871 . S
C3299 C145 1.905 . S
C3313 C43 1.905 . S
C3317 C734 1.874 . S
C3331 C768 1.874 . S
C3335 C77 1.905 . S
C3349 C9 1.909 . S
C3353 C802 1.866 . S
C3367 C836 1.876 . S
C3371 C1437 1.904 . S
C3385 C1471 1.907 . S
C3389 C870 1.867 . S
C3403 C904 1.873 . S
C3407 C1505 1.906 . S
C3421 C1403 1.906 . S
C3425 C938 1.872 . S
C3439 C972 1.866 . S
C3443 C1573 1.908 . S
C3457 C1006 1.875 . S
C3461 C1369 1.905 . S
C3475 C1040 1.875 . S
C3479 C1607 1.904 . S
C3493 C1539 1.904 . S
C3497 C1074 1.875 . S
C3511 C1108 1.875 . S
C3515 C1131 1.904 . S
C3529 C1165 1.904 . S
C3533 C1142 1.873 . S
C3547 C1199 1.904 . S
C3551 C1176 1.873 . S
C3565 C1210 1.870 . S
C3569 C1097 1.907 . S
C3583 C1244 1.867 . S
C3587 C1335 1.907 . S
C3601 C1278 1.868 . S
C3605 C1233 1.907 . S
C3619 C1312 1.870 . S
C3623 C1267 1.906 . S
C3637 C1346 1.870 . S
C3641 C1301 1.907 . S
C3655 C1380 1.868 . S
C3659 C927 1.907 . S
C3673 C995 1.905 . S
C3677 C1414 1.871 . S
C3691 C1029 1.905 . S
C3695 C1448 1.874 . S
C3709 C1063 1.907 . S
C3713 C1482 1.868 . S
C3727 C961 1.904 . S
C3731 C1516 1.876 . S
C3745 C859 1.904 . S
C3749 C1550 1.876 . S
C3763 C893 1.909 . S
C3767 C1584 1.867 . S
C3781 C825 1.904 . S
C3785 C1618 1.876 . S
