# Generated by pormake.
# Topology lcy-e, (6)-cn, num edge types: 1
# Building blocks:
#     Node 0, Type 0, BuildingBlock: JUFBIX_clean_sbu_0, # of connection points: 6
#     Node 1, Type 0, BuildingBlock: JUFBIX_clean_sbu_0, # of connection points: 6
#     Node 2, Type 0, BuildingBlock: JUFBIX_clean_sbu_0, # of connection points: 6
#     Node 3, Type 0, BuildingBlock: JUFBIX_clean_sbu_0, # of connection points: 6
#     Node 4, Type 0, BuildingBlock: JUFBIX_clean_sbu_0, # of connection points: 6
#     Node 5, Type 0, BuildingBlock: JUFBIX_clean_sbu_0, # of connection points: 6
#     Node 6, Type 0, BuildingBlock: JUFBIX_clean_sbu_0, # of connection points: 6
#     Node 7, Type 0, BuildingBlock: JUFBIX_clean_sbu_0, # of connection points: 6
#     Node 8, Type 0, BuildingBlock: JUFBIX_clean_sbu_0, # of connection points: 6
#     Node 9, Type 0, BuildingBlock: JUFBIX_clean_sbu_0, # of connection points: 6
#     Node 10, Type 0, BuildingBlock: JUFBIX_clean_sbu_0, # of connection points: 6
#     Node 11, Type 0, BuildingBlock: JUFBIX_clean_sbu_0, # of connection points: 6
#     Edge 12, Type (0, 0), BuildingBlock: CIFDUS_clean_linker_0, # of connection points: 2
#     Edge 13, Type (0, 0), BuildingBlock: CIFDUS_clean_linker_0, # of connection points: 2
#     Edge 14, Type (0, 0), BuildingBlock: CIFDUS_clean_linker_0, # of connection points: 2
#     Edge 15, Type (0, 0), BuildingBlock: CIFDUS_clean_linker_0, # of connection points: 2
#     Edge 16, Type (0, 0), BuildingBlock: CIFDUS_clean_linker_0, # of connection points: 2
#     Edge 17, Type (0, 0), BuildingBlock: CIFDUS_clean_linker_0, # of connection points: 2
#     Edge 18, Type (0, 0), BuildingBlock: CIFDUS_clean_linker_0, # of connection points: 2
#     Edge 19, Type (0, 0), BuildingBlock: CIFDUS_clean_linker_0, # of connection points: 2
#     Edge 20, Type (0, 0), BuildingBlock: CIFDUS_clean_linker_0, # of connection points: 2
#     Edge 21, Type (0, 0), BuildingBlock: CIFDUS_clean_linker_0, # of connection points: 2
#     Edge 22, Type (0, 0), BuildingBlock: CIFDUS_clean_linker_0, # of connection points: 2
#     Edge 23, Type (0, 0), BuildingBlock: CIFDUS_clean_linker_0, # of connection points: 2
#     Edge 24, Type (0, 0), BuildingBlock: CIFDUS_clean_linker_0, # of connection points: 2
#     Edge 25, Type (0, 0), BuildingBlock: CIFDUS_clean_linker_0, # of connection points: 2
#     Edge 26, Type (0, 0), BuildingBlock: CIFDUS_clean_linker_0, # of connection points: 2
#     Edge 27, Type (0, 0), BuildingBlock: CIFDUS_clean_linker_0, # of connection points: 2
#     Edge 28, Type (0, 0), BuildingBlock: CIFDUS_clean_linker_0, # of connection points: 2
#     Edge 29, Type (0, 0), BuildingBlock: CIFDUS_clean_linker_0, # of connection points: 2
#     Edge 30, Type (0, 0), BuildingBlock: CIFDUS_clean_linker_0, # of connection points: 2
#     Edge 31, Type (0, 0), BuildingBlock: CIFDUS_clean_linker_0, # of connection points: 2
#     Edge 32, Type (0, 0), BuildingBlock: CIFDUS_clean_linker_0, # of connection points: 2
#     Edge 33, Type (0, 0), BuildingBlock: CIFDUS_clean_linker_0, # of connection points: 2
#     Edge 34, Type (0, 0), BuildingBlock: CIFDUS_clean_linker_0, # of connection points: 2
#     Edge 35, Type (0, 0), BuildingBlock: CIFDUS_clean_linker_0, # of connection points: 2
#     Edge 36, Type (0, 0), BuildingBlock: CIFDUS_clean_linker_0, # of connection points: 2
#     Edge 37, Type (0, 0), BuildingBlock: CIFDUS_clean_linker_0, # of connection points: 2
#     Edge 38, Type (0, 0), BuildingBlock: CIFDUS_clean_linker_0, # of connection points: 2
#     Edge 39, Type (0, 0), BuildingBlock: CIFDUS_clean_linker_0, # of connection points: 2
#     Edge 40, Type (0, 0), BuildingBlock: CIFDUS_clean_linker_0, # of connection points: 2
#     Edge 41, Type (0, 0), BuildingBlock: CIFDUS_clean_linker_0, # of connection points: 2
#     Edge 42, Type (0, 0), BuildingBlock: CIFDUS_clean_linker_0, # of connection points: 2
#     Edge 43, Type (0, 0), BuildingBlock: CIFDUS_clean_linker_0, # of connection points: 2
#     Edge 44, Type (0, 0), BuildingBlock: CIFDUS_clean_linker_0, # of connection points: 2
#     Edge 45, Type (0, 0), BuildingBlock: CIFDUS_clean_linker_0, # of connection points: 2
#     Edge 46, Type (0, 0), BuildingBlock: CIFDUS_clean_linker_0, # of connection points: 2
#     Edge 47, Type (0, 0), BuildingBlock: CIFDUS_clean_linker_0, # of connection points: 2
# Relax obj value: 0.499
# Max RMSD: 0.352
# Mean RMSD: 0.290
data_MOF--net-lcy-e--node1-JUFBIX_clean_sbu_0--edge1-CIFDUS_clean_linker_0
_symmetry_space_group_name_H-M    P1
_symmetry_Int_Tables_number       1
_symmetry_cell_setting            triclinic
loop_
_symmetry_equiv_pos_as_xyz
'x, y, z'
_cell_length_a     32.271889
_cell_length_b     34.80854
_cell_length_c     31.947195
_cell_angle_alpha  87.894403
_cell_angle_beta   89.932356
_cell_angle_gamma 82.349624
loop_
_atom_site_label
_atom_site_type_symbol
_atom_site_fract_x
_atom_site_fract_y
_atom_site_fract_z
_atom_type_partial_charge
Co0 Co 0.17933 0.23579 0.45588 0.0
C1 C 0.09774 0.23962 0.48361 0.0
Co2 Co 0.14977 0.18721 0.43283 0.0
C3 C 0.18263 0.31473 0.46753 0.0
C4 C 0.24348 0.28316 0.47798 0.0
N5 N 0.20327 0.27851 0.47067 0.0
N6 N 0.20802 0.34177 0.47204 0.0
C7 C 0.24655 0.32238 0.47848 0.0
H8 H 0.14996 0.32145 0.45888 0.0
H9 H 0.26918 0.25981 0.48032 0.0
C10 C 0.23449 0.18525 0.4094 0.0
N11 N 0.12369 0.14536 0.416 0.0
C12 C 0.08211 0.14419 0.41159 0.0
C13 C 0.14182 0.11025 0.40422 0.0
N14 N 0.07368 0.10997 0.39739 0.0
C15 C 0.11123 0.08856 0.39261 0.0
C16 C 0.14306 0.24726 0.37559 0.0
O17 O 0.23033 0.21444 0.43233 0.0
O18 O 0.20263 0.16761 0.40383 0.0
O19 O 0.1308 0.21464 0.38304 0.0
O20 O 0.16408 0.26159 0.40327 0.0
O21 O 0.09834 0.20788 0.46449 0.0
H22 H 0.17514 0.1009 0.40405 0.0
H23 H 0.05834 0.16823 0.4179 0.0
O24 O 0.12912 0.25755 0.48027 0.0
O25 O 0.19347 0.20934 0.50844 0.0
O26 O 0.16857 0.15989 0.48116 0.0
C27 C 0.18356 0.17516 0.51224 0.0
H28 H 0.2748 0.3356 0.48209 0.0
H29 H 0.11618 0.05906 0.38219 0.0
Co30 Co 0.05275 0.87177 0.71468 0.0
C31 C 1.00137 0.93341 0.74799 0.0
Co32 Co 0.07612 0.92726 0.7023 0.0
C33 C 0.0589 0.79198 0.73536 0.0
C34 C 0.99494 0.81509 0.72419 0.0
N35 N 0.03402 0.82456 0.72313 0.0
N36 N 0.03714 0.76275 0.74621 0.0
C37 C 0.99674 0.77707 0.73856 0.0
H38 H 0.09235 0.79074 0.73919 0.0
H39 H 0.96692 0.83525 0.71799 0.0
C40 C 0.1234 0.86576 0.66596 0.0
N41 N 0.09928 0.97285 0.69557 0.0
C42 C 0.08448 0.00853 0.68002 0.0
C43 C 0.13938 0.97509 0.70589 0.0
N44 N 0.11409 0.03287 0.67998 0.0
C45 C 0.14844 0.01154 0.69665 0.0
C46 C 0.1113 0.88657 0.77426 0.0
O47 O 0.09513 0.84778 0.68129 0.0
O48 O 0.123 0.90142 0.67274 0.0
O49 O 0.10671 0.91853 0.75363 0.0
O50 O 0.08926 0.86084 0.76368 0.0
O51 O 0.0281 0.9531 0.73114 0.0
H52 H 0.16151 0.95112 0.71783 0.0
H53 H 0.05319 0.01571 0.66752 0.0
O54 O 1.00819 0.89654 0.74746 0.0
O55 O 0.01836 0.88206 0.66619 0.0
O56 O 0.04544 0.93547 0.64992 0.0
C57 C 0.02117 0.91076 0.64101 0.0
H58 H 0.97006 0.76258 0.74688 0.0
H59 H 0.1792 0.02033 0.69916 0.0
Co60 Co 0.35575 0.76055 0.97925 0.0
C61 C 0.43732 0.7486 1.00827 0.0
Co62 Co 0.39731 0.79675 0.94424 0.0
C63 C 0.32289 0.68919 1.00555 0.0
C64 C 0.28658 0.73971 0.02915 0.0
N65 N 0.32155 0.72829 1.00738 0.0
N66 N 0.28977 0.67592 0.02459 0.0
C67 C 0.2671 0.7078 0.03972 0.0
H68 H 0.34664 0.671 0.98877 0.0
H69 H 0.27503 0.76953 0.03549 0.0
C70 C 0.31236 0.8075 0.91759 0.0
N71 N 0.43211 0.82793 0.914 0.0
C72 C 0.463 0.84857 0.92574 0.0
C73 C 0.42907 0.8344 0.87218 0.0
N74 N 0.47861 0.8679 0.89276 0.0
C75 C 0.45712 0.85876 0.85922 0.0
C76 C 0.39135 0.72762 0.90735 0.0
O77 O 0.30901 0.78444 0.94871 0.0
O78 O 0.34829 0.81754 0.90897 0.0
O79 O 0.41101 0.75684 0.90647 0.0
O80 O 0.36532 0.72358 0.93653 0.0
O81 O 0.44354 0.77535 0.98132 0.0
H82 H 0.40752 0.82225 0.85218 0.0
H83 H 0.47311 0.85015 0.95785 0.0
O84 O 0.40202 0.73638 1.0098 0.0
O85 O 0.3476 0.79982 0.02169 0.0
O86 O 0.38407 0.83551 0.98136 0.0
C87 C 0.3646 0.83073 0.01524 0.0
H88 H 0.23801 0.70824 0.0567 0.0
H89 H 0.46144 0.86898 0.8273 0.0
Co90 Co 0.50917 0.13138 0.23168 0.0
C91 C 0.54996 0.05694 0.2487 0.0
Co92 Co 0.4752 0.08633 0.20662 0.0
C93 C 0.5458 0.17348 0.29459 0.0
C94 C 0.54274 0.20394 0.235 0.0
N95 N 0.53647 0.16984 0.25383 0.0
N96 N 0.55659 0.20874 0.30205 0.0
C97 C 0.55484 0.22803 0.26467 0.0
H98 H 0.54204 0.15167 0.31884 0.0
H99 H 0.53643 0.21165 0.2023 0.0
C100 C 0.43889 0.16262 0.18771 0.0
N101 N 0.44396 0.0496 0.18654 0.0
C102 C 0.45438 0.01719 0.16478 0.0
C103 C 0.40223 0.05171 0.19202 0.0
N104 N 0.42067 0.99909 0.1567 0.0
C105 C 0.38794 0.02093 0.17389 0.0
C106 C 0.44541 0.10947 0.28469 0.0
O107 O 0.47095 0.16981 0.2069 0.0
O108 O 0.43306 0.12738 0.18426 0.0
O109 O 0.44477 0.0845 0.25705 0.0
O110 O 0.47273 0.13275 0.28137 0.0
O111 O 0.51932 0.04627 0.22863 0.0
H112 H 0.38311 0.07466 0.2078 0.0
H113 H 0.48597 0.00728 0.15495 0.0
O114 O 0.54939 0.09261 0.25616 0.0
O115 O 0.54311 0.13007 0.18071 0.0
O116 O 0.50472 0.08832 0.15575 0.0
C117 C 0.53396 0.10921 0.15071 0.0
H118 H 0.56085 0.25769 0.25944 0.0
H119 H 0.35561 0.01593 0.17215 0.0
Co120 Co 0.6777 0.343 0.53609 0.0
C121 C 0.60544 0.326 0.4985 0.0
Co122 Co 0.62013 0.37303 0.56383 0.0
C123 C 0.74723 0.28369 0.52472 0.0
C124 C 0.73674 0.32136 0.47041 0.0
N125 N 0.72498 0.31728 0.51071 0.0
N126 N 0.77035 0.26544 0.49438 0.0
C127 C 0.76459 0.28959 0.46034 0.0
H128 H 0.74375 0.2708 0.55557 0.0
H129 H 0.72261 0.34357 0.44837 0.0
C130 C 0.69511 0.38892 0.59895 0.0
N131 N 0.57239 0.39666 0.5896 0.0
C132 C 0.53295 0.40465 0.57447 0.0
C133 C 0.56921 0.40492 0.63047 0.0
N134 N 0.50529 0.41721 0.60443 0.0
C135 C 0.52829 0.41773 0.63957 0.0
C136 C 0.64671 0.30082 0.60265 0.0
O137 O 0.71116 0.36683 0.57103 0.0
O138 O 0.65553 0.39495 0.60314 0.0
O139 O 0.6182 0.32959 0.60066 0.0
O140 O 0.67713 0.30035 0.57726 0.0
O141 O 0.58659 0.35047 0.52312 0.0
H142 H 0.59474 0.4007 0.65276 0.0
H143 H 0.52452 0.40006 0.54246 0.0
O144 O 0.64483 0.31856 0.50032 0.0
O145 O 0.67648 0.38681 0.49642 0.0
O146 O 0.62157 0.41701 0.52776 0.0
C147 C 0.64953 0.41694 0.49975 0.0
H148 H 0.77552 0.28266 0.42911 0.0
H149 H 0.51658 0.4267 0.66991 0.0
Co150 Co 0.98267 0.3927 0.73558 0.0
C151 C 0.99646 0.32151 0.69532 0.0
Co152 Co 0.96652 0.34337 0.77524 0.0
C153 C 0.0213 0.4598 0.70804 0.0
C154 C 0.98092 0.4415 0.66171 0.0
N155 N 0.99559 0.43307 0.70091 0.0
N156 N 0.02304 0.48466 0.6748 0.0
C157 C 0.99763 0.47313 0.64565 0.0
H158 H 0.03844 0.46091 0.73697 0.0
H159 H 0.95997 0.42521 0.64553 0.0
C160 C 0.95397 0.41695 0.81261 0.0
N161 N 0.95275 0.30241 0.81049 0.0
C162 C 0.92511 0.27711 0.80398 0.0
C163 C 0.96678 0.29367 0.8499 0.0
N164 N 0.92118 0.25307 0.83779 0.0
C165 C 0.94765 0.26349 0.86661 0.0
C166 C 0.04757 0.35892 0.78742 0.0
O167 O 0.96646 0.42781 0.77708 0.0
O168 O 0.95067 0.38095 0.81942 0.0
O169 O 0.02123 0.33585 0.79617 0.0
O170 O 0.03839 0.38567 0.75934 0.0
O171 O 0.98301 0.30747 0.72963 0.0
H172 H 0.98868 0.309 0.866 0.0
H173 H 0.90778 0.27675 0.77506 0.0
O174 O 0.99938 0.35754 0.6927 0.0
O175 O 0.92608 0.39974 0.71412 0.0
O176 O 0.91182 0.35147 0.75511 0.0
C177 C 0.89981 0.37834 0.72836 0.0
H178 H 0.99263 0.48577 0.6143 0.0
H179 H 0.95178 0.25131 0.89821 0.0
Co180 Co 0.94983 0.65754 1.01359 0.0
C181 C 0.88085 0.70252 0.98072 0.0
Co182 Co 0.89193 0.63459 0.03038 0.0
C183 C 0.02991 0.65841 0.97537 0.0
C184 C 0.01038 0.7111 1.00635 0.0
N185 N 0.99982 0.67556 1.00039 0.0
N186 N 0.05708 0.68265 0.96262 0.0
C187 C 0.04553 0.71548 0.98331 0.0
H188 H 0.0294 0.63005 0.96284 0.0
H189 H 0.99139 0.73379 0.02261 0.0
C190 C 0.96124 0.59234 0.06537 0.0
N191 N 0.8437 0.61493 0.04299 0.0
C192 C 0.81047 0.63197 0.06372 0.0
C193 C 0.83588 0.57834 0.03724 0.0
N194 N 0.78258 0.60723 0.07192 0.0
C195 C 0.79816 0.57355 0.05496 0.0
C196 C 0.92872 0.60163 0.95903 0.0
O197 O 0.97896 0.61882 0.04757 0.0
O198 O 0.92223 0.59238 0.06113 0.0
O199 O 0.89643 0.60396 0.98175 0.0
O200 O 0.95616 0.62346 0.96662 0.0
O201 O 0.86154 0.6778 1.00025 0.0
H202 H 0.85734 0.55589 0.02332 0.0
H203 H 0.80778 0.66135 0.0744 0.0
O204 O 0.92049 0.69737 0.97975 0.0
O205 O 0.94267 0.69091 0.06032 0.0
O206 O 0.88719 0.66518 0.0799 0.0
C207 C 0.91252 0.68956 0.08579 0.0
H208 H 0.05773 0.74269 0.97748 0.0
H209 H 0.78488 0.54662 0.05808 0.0
Co210 Co 0.55049 0.62386 0.28773 0.0
C211 C 0.52606 0.68742 0.23564 0.0
Co212 Co 0.56916 0.67666 0.31339 0.0
C213 C 0.51918 0.55156 0.2896 0.0
C214 C 0.54334 0.56423 0.22898 0.0
N215 N 0.53784 0.57813 0.26766 0.0
N216 N 0.51159 0.52194 0.26606 0.0
C217 C 0.52708 0.52969 0.22786 0.0
H218 H 0.50974 0.55483 0.32192 0.0
H219 H 0.55652 0.5791 0.20288 0.0
C220 C 0.59558 0.61026 0.3621 0.0
N221 N 0.581 0.72262 0.33441 0.0
C222 C 0.61612 0.73145 0.35245 0.0
C223 C 0.55364 0.75542 0.33537 0.0
N224 N 0.61164 0.76856 0.36471 0.0
C225 C 0.57231 0.78362 0.35389 0.0
C226 C 0.4928 0.65895 0.34207 0.0
O227 O 0.57762 0.5956 0.33269 0.0
O228 O 0.5956 0.64696 0.3618 0.0
O229 O 0.51862 0.6832 0.34286 0.0
O230 O 0.49999 0.63016 0.31865 0.0
O231 O 0.54296 0.70504 0.26408 0.0
H232 H 0.52209 0.75867 0.32309 0.0
H233 H 0.6443 0.71101 0.35646 0.0
O234 O 0.52392 0.65147 0.24121 0.0
O235 O 0.59998 0.61822 0.25793 0.0
O236 O 0.62018 0.67022 0.28397 0.0
C237 C 0.62647 0.64189 0.25981 0.0
H238 H 0.52388 0.51329 0.20018 0.0
H239 H 0.55839 0.81333 0.35772 0.0
Co240 Co 0.24493 0.42733 0.1514 0.0
C241 C 0.2653 0.45757 0.07486 0.0
Co242 Co 0.22028 0.39624 0.0998 0.0
C243 C 0.28855 0.44 0.22649 0.0
C244 C 0.25151 0.49198 0.20345 0.0
N245 N 0.26154 0.45407 0.19578 0.0
N246 N 0.29713 0.46777 0.25218 0.0
C247 C 0.27332 0.50046 0.23806 0.0
H248 H 0.30385 0.41039 0.22845 0.0
H249 H 0.23174 0.51266 0.18369 0.0
C250 C 0.19776 0.37116 0.17915 0.0
N251 N 0.20341 0.36728 0.05622 0.0
C252 C 0.18395 0.37646 0.01882 0.0
C253 C 0.21044 0.32821 0.05795 0.0
N254 N 0.17873 0.34436 0.99752 0.0
C255 C 0.19584 0.31421 0.02224 0.0
C256 C 0.29911 0.36367 0.13074 0.0
O257 O 0.21924 0.39721 0.18911 0.0
O258 O 0.19493 0.36321 0.1407 0.0
O259 O 0.27139 0.36175 0.10312 0.0
O260 O 0.29461 0.39163 0.15538 0.0
O261 O 0.24477 0.43182 0.06042 0.0
H262 H 0.22525 0.31074 0.08384 0.0
H263 H 0.17314 0.40589 1.00794 0.0
O264 O 0.27053 0.45893 0.11402 0.0
O265 O 0.19507 0.46193 0.14709 0.0
O266 O 0.16969 0.42969 0.0974 0.0
C267 C 0.16552 0.45752 0.12234 0.0
H268 H 0.27491 0.52926 0.24915 0.0
H269 H 0.19783 0.28386 0.01517 0.0
Co270 Co 0.74843 0.01832 0.92081 0.0
C271 C 0.77508 1.00248 0.83976 0.0
Co272 Co 0.71042 0.05393 0.87268 0.0
C273 C 0.78674 0.94614 0.95406 0.0
C274 C 0.79272 0.98986 0.99816 0.0
N275 N 0.77852 0.98467 0.95936 0.0
N276 N 0.80527 0.92686 0.98773 0.0
C277 C 0.80906 0.95417 0.01584 0.0
H278 H 0.7774 0.93213 0.92655 0.0
H279 H 0.79015 0.01748 1.01306 0.0
C280 C 0.68711 0.06977 0.95629 0.0
N281 N 0.67997 0.08639 0.83241 0.0
C282 C 0.69473 0.10848 0.80142 0.0
C283 C 0.63809 0.09353 0.82852 0.0
N284 N 0.66371 0.12936 0.77848 0.0
C285 C 0.62803 0.11973 0.79556 0.0
C286 C 0.67553 0.98736 0.89493 0.0
O287 O 0.71876 0.04479 0.96406 0.0
O288 O 0.67637 0.07816 0.91813 0.0
O289 O 0.67178 0.01617 0.86881 0.0
O290 O 0.70677 0.98304 0.91977 0.0
O291 O 0.74605 0.02948 0.8287 0.0
H292 H 0.61622 0.08066 0.84855 0.0
H293 H 0.72769 0.10976 0.79644 0.0
O294 O 0.77896 0.99212 0.87799 0.0
O295 O 0.78939 0.05436 0.92132 0.0
O296 O 0.74828 0.0909 0.87693 0.0
C297 C 0.78186 0.08534 0.89831 0.0
H298 H 0.82221 0.9487 0.04698 0.0
H299 H 0.59668 0.1306 0.78499 0.0
Co300 Co 0.82059 0.9616 0.39155 0.0
C301 C 0.78091 0.96738 0.31422 0.0
Co302 Co 0.85666 0.92596 0.34464 0.0
C303 C 0.80477 0.02125 0.45062 0.0
C304 C 0.74995 0.99453 0.43987 0.0
N305 N 0.79086 0.99221 0.43026 0.0
N306 N 0.77404 0.04252 0.47146 0.0
C307 C 0.7395 0.02549 0.46522 0.0
H308 H 0.83652 0.0279 0.4485 0.0
H309 H 0.72856 0.97655 0.42707 0.0
C310 C 0.89289 0.92177 0.42561 0.0
N311 N 0.88792 0.89502 0.3055 0.0
C312 C 0.877 0.87077 0.27619 0.0
C313 C 0.92967 0.89364 0.30147 0.0
N314 N 0.91044 0.85489 0.2539 0.0
C315 C 0.94345 0.86932 0.27007 0.0
C316 C 0.88161 0.99863 0.34957 0.0
O317 O 0.85914 0.94329 0.43299 0.0
O318 O 0.89964 0.91005 0.38838 0.0
O319 O 0.88564 0.968 0.3288 0.0
O320 O 0.85364 1.00269 0.37775 0.0
O321 O 0.81206 0.94319 0.30294 0.0
H322 H 0.94899 0.90962 0.3201 0.0
H323 H 0.84516 0.86555 0.27073 0.0
O324 O 0.78055 0.98035 0.35072 0.0
O325 O 0.78927 0.91993 0.40458 0.0
O326 O 0.82841 0.88415 0.36064 0.0
C327 C 0.7987 0.88775 0.38687 0.0
H328 H 0.70827 0.03645 0.47537 0.0
H329 H 0.97555 0.86265 0.25997 0.0
Co330 Co 0.24281 0.60819 0.5359 0.0
C331 C 0.20919 0.59519 0.6142 0.0
Co332 Co 0.28465 0.61682 0.58827 0.0
C333 C 0.21734 0.5744 0.46305 0.0
C334 C 0.16563 0.61002 0.48958 0.0
N335 N 0.20734 0.60036 0.49275 0.0
N336 N 0.18349 0.56477 0.44346 0.0
C337 C 0.15082 0.58797 0.45939 0.0
H338 H 0.24827 0.55826 0.46041 0.0
H339 H 0.1468 0.6282 0.5111 0.0
C340 C 0.31692 0.6276 0.50829 0.0
N341 N 0.32135 0.62351 0.6309 0.0
C342 C 0.31301 0.63748 0.66926 0.0
C343 C 0.36293 0.61193 0.63092 0.0
N344 N 0.34777 0.63496 0.69329 0.0
C345 C 0.37925 0.619 0.66913 0.0
C346 C 0.29604 0.54203 0.56178 0.0
O347 O 0.28151 0.62014 0.49701 0.0
O348 O 0.32534 0.62896 0.54708 0.0
O349 O 0.30716 0.5649 0.58809 0.0
O350 O 0.26763 0.55443 0.53531 0.0
O351 O 0.24357 0.6037 0.62834 0.0
H352 H 0.38012 0.5982 0.60518 0.0
H353 H 0.28197 0.64908 0.67935 0.0
O354 O 0.20323 0.59562 0.57498 0.0
O355 O 0.21962 0.66122 0.53699 0.0
O356 O 0.2621 0.66939 0.58867 0.0
C357 C 0.23334 0.68327 0.56313 0.0
H358 H 0.11824 0.58537 0.45384 0.0
H359 H 0.4116 0.61188 0.67871 0.0
H360 H 0.24523 0.39157 0.42358 0.0
H361 H 0.14147 0.38237 0.50649 0.0
H362 H 0.11789 0.45182 0.4965 0.0
H363 H 0.13176 0.51546 0.47082 0.0
H364 H 0.23626 0.52614 0.38925 0.0
H365 H 0.2537 0.45543 0.39011 0.0
C366 C 0.21765 0.40509 0.43945 0.0
C367 C 0.19557 0.38261 0.46654 0.0
C368 C 0.20401 0.44486 0.43297 0.0
C369 C 0.15909 0.39967 0.48607 0.0
C370 C 0.14551 0.43913 0.48009 0.0
C371 C 0.15721 0.50233 0.45173 0.0
C372 C 0.18288 0.52589 0.4302 0.0
C373 C 0.16813 0.46208 0.45419 0.0
C374 C 0.21608 0.50838 0.40596 0.0
C375 C 0.22649 0.46809 0.40714 0.0
H376 H 0.83774 0.03932 0.80849 0.0
H377 H 0.79127 0.92894 0.81361 0.0
H378 H 0.8577 0.89755 0.78616 0.0
H379 H 0.93089 0.90056 0.76615 0.0
H380 H 0.97876 0.0106 0.76301 0.0
H381 H 0.91045 0.04289 0.78474 0.0
C382 C 0.84171 0.00869 0.80193 0.0
C383 C 0.80904 0.98668 0.81149 0.0
C384 C 0.8808 0.99056 0.78782 0.0
C385 C 0.81534 0.94666 0.805 0.0
C386 C 0.85362 0.92863 0.79001 0.0
C387 C 0.92658 0.93159 0.77042 0.0
C388 C 0.96042 0.95293 0.76352 0.0
C389 C 0.88696 0.95009 0.78239 0.0
C390 C 0.95365 0.99327 0.76854 0.0
C391 C 0.91441 0.01184 0.78071 0.0
H392 H 0.34239 0.60798 0.02439 0.0
H393 H 0.21189 0.65506 0.02742 0.0
H394 H 0.19247 0.5899 0.03504 0.0
H395 H 0.21253 0.51984 0.04855 0.0
H396 H 0.34262 0.47249 0.05056 0.0
H397 H 0.36218 0.53665 0.03182 0.0
C398 C 0.30971 0.60395 0.02606 0.0
C399 C 0.27877 0.63674 0.02599 0.0
C400 C 0.29861 0.56602 0.03083 0.0
C401 C 0.23652 0.6307 0.02842 0.0
C402 C 0.22529 0.59328 0.03242 0.0
C403 C 0.24503 0.52333 0.04295 0.0
C404 C 0.27602 0.49118 0.04934 0.0
C405 C 0.25604 0.56074 0.03451 0.0
C406 C 0.31816 0.49649 0.04426 0.0
C407 C 0.32933 0.53337 0.03431 0.0
H408 H 0.62794 0.06697 0.22428 0.0
H409 H 0.56049 0.98756 0.29451 0.0
H410 H 0.62706 0.94951 0.31703 0.0
H411 H 0.70475 0.94331 0.32261 0.0
H412 H 0.7715 0.02184 0.25032 0.0
H413 H 0.70521 0.05535 0.22198 0.0
C414 C 0.62784 0.04096 0.24406 0.0
C415 C 0.58928 0.03028 0.25809 0.0
C416 C 0.66622 0.01905 0.25627 0.0
C417 C 0.58961 0.99637 0.28331 0.0
C418 C 0.62774 0.97473 0.29625 0.0
C419 C 0.70476 0.96686 0.2994 0.0
C420 C 0.74318 0.97953 0.28779 0.0
C421 C 0.66628 0.98625 0.28363 0.0
C422 C 0.74264 0.01084 0.25879 0.0
C423 C 0.70461 0.03034 0.24309 0.0
H424 H 0.73707 0.20916 0.53778 0.0
H425 H 0.83278 0.22892 0.44811 0.0
H426 H 0.84631 0.15916 0.43664 0.0
H427 H 0.82403 0.0948 0.44532 0.0
H428 H 0.72637 0.07601 0.53311 0.0
H429 H 0.72071 0.14378 0.55263 0.0
C430 C 0.76186 0.19832 0.5167 0.0
C431 C 0.7839 0.22432 0.49369 0.0
C432 C 0.76858 0.15855 0.50955 0.0
C433 C 0.81524 0.2095 0.46588 0.0
C434 C 0.82286 0.16971 0.45929 0.0
C435 C 0.80229 0.10512 0.46956 0.0
C436 C 0.77537 0.08042 0.48757 0.0
C437 C 0.79869 0.1442 0.47992 0.0
C438 C 0.74695 0.09462 0.51844 0.0
C439 C 0.74378 0.13328 0.52959 0.0
H440 H 0.09894 0.48744 0.70986 0.0
H441 H 1.00608 0.55015 0.62693 0.0
H442 H 0.05474 0.59512 0.60624 0.0
H443 H 0.1264 0.61009 0.6034 0.0
H444 H 0.22067 0.54752 0.68452 0.0
H445 H 0.16844 0.50982 0.71549 0.0
C446 C 0.08905 0.51153 0.68811 0.0
C447 C 0.04927 0.51485 0.66911 0.0
C448 C 0.11748 0.5372 0.67601 0.0
C449 C 0.0369 0.54631 0.64104 0.0
C450 C 0.06463 0.57215 0.62935 0.0
C451 C 0.13519 0.58892 0.62873 0.0
C452 C 0.17716 0.58118 0.64148 0.0
C453 C 0.10544 0.56688 0.64533 0.0
C454 C 0.18838 0.55401 0.67443 0.0
C455 C 0.15863 0.53217 0.6917 0.0
H456 H 0.83318 0.87789 0.92781 0.0
H457 H 0.80034 0.88268 0.05851 0.0
H458 H 0.81505 0.81189 0.06589 0.0
H459 H 0.83981 0.74907 0.03568 0.0
H460 H 0.8796 0.7448 0.90703 0.0
H461 H 0.85805 0.81495 0.89754 0.0
C462 C 0.82894 0.86334 0.95779 0.0
C463 C 0.81563 0.8854 0.99259 0.0
C464 C 0.83788 0.82279 0.96179 0.0
C465 C 0.81099 0.86633 0.03146 0.0
C466 C 0.81899 0.82589 0.03555 0.0
C467 C 0.84246 0.76344 1.00524 0.0
C468 C 0.85978 0.74194 0.97158 0.0
C469 C 0.83248 0.80387 1.00093 0.0
C470 C 0.86514 0.76084 0.93285 0.0
C471 C 0.85337 0.8009 0.92768 0.0
H472 H 0.4473 0.53194 0.32032 0.0
H473 H 0.50867 0.4522 0.23234 0.0
H474 H 0.44676 0.41887 0.23013 0.0
H475 H 0.37118 0.4251 0.23791 0.0
H476 H 0.3082 0.50963 0.31982 0.0
H477 H 0.37552 0.52755 0.34121 0.0
C478 C 0.44799 0.50639 0.30187 0.0
C479 C 0.48199 0.49539 0.27526 0.0
C480 C 0.41173 0.48864 0.29935 0.0
C481 C 0.48227 0.46192 0.25198 0.0
C482 C 0.4469 0.44292 0.25073 0.0
C483 C 0.37212 0.44626 0.26181 0.0
C484 C 0.33478 0.46706 0.27626 0.0
C485 C 0.41057 0.4579 0.27192 0.0
C486 C 0.33666 0.49406 0.30754 0.0
C487 C 0.37507 0.50444 0.31949 0.0
H488 H 0.52573 0.27807 0.33197 0.0
H489 H 0.60661 0.17202 0.36204 0.0
H490 H 0.62554 0.19785 0.42866 0.0
H491 H 0.62329 0.25244 0.47528 0.0
H492 H 0.54062 0.35804 0.44763 0.0
H493 H 0.51714 0.33042 0.38346 0.0
C494 C 0.54736 0.26076 0.35334 0.0
C495 C 0.56542 0.22348 0.34209 0.0
C496 C 0.55736 0.2756 0.39193 0.0
C497 C 0.59264 0.20079 0.37017 0.0
C498 C 0.6034 0.21556 0.40813 0.0
C499 C 0.59943 0.26908 0.45561 0.0
C500 C 0.5837 0.30719 0.46592 0.0
C501 C 0.58646 0.25311 0.41897 0.0
C502 C 0.55278 0.3285 0.44045 0.0
C503 C 0.5398 0.31286 0.40357 0.0
H504 H 0.07001 0.20473 0.55577 0.0
H505 H 0.05472 0.31146 0.48152 0.0
H506 H 0.01978 0.34554 0.53988 0.0
H507 H 1.00177 0.34722 0.61437 0.0
H508 H 0.01873 0.24182 0.69113 0.0
H509 H 0.04508 0.20519 0.62996 0.0
C510 C 0.05781 0.23506 0.55186 0.0
C511 C 0.06452 0.2552 0.51361 0.0
C512 C 0.03907 0.25504 0.58661 0.0
C513 C 0.04923 0.29494 0.50994 0.0
C514 C 0.02978 0.31463 0.54366 0.0
C515 C 0.01086 0.31613 0.61789 0.0
C516 C 1.00865 0.29755 0.65783 0.0
C517 C 0.0259 0.29534 0.58258 0.0
C518 C 0.02013 0.25709 0.66112 0.0
C519 C 0.03527 0.23612 0.626 0.0
H520 H 0.10273 0.7572 0.79972 0.0
H521 H 1.00388 0.69567 0.75736 0.0
H522 H 0.01226 0.65354 0.82051 0.0
H523 H 0.03257 0.6488 0.89384 0.0
H524 H 0.12422 0.71699 0.9391 0.0
H525 H 0.13516 0.74101 0.86766 0.0
C526 C 0.08396 0.73375 0.80318 0.0
C527 C 0.05147 0.73057 0.77452 0.0
C528 C 0.08745 0.71121 0.84043 0.0
C529 C 0.02811 0.69947 0.77966 0.0
C530 C 0.03289 0.67547 0.81576 0.0
C531 C 0.05635 0.66754 0.88813 0.0
C532 C 0.07644 0.68236 0.922 0.0
C533 C 0.0602 0.68317 0.84762 0.0
C534 C 0.10765 0.70604 0.9136 0.0
C535 C 0.11357 0.72001 0.87283 0.0
H536 H 0.52053 0.65291 0.16175 0.0
H537 H 0.50361 0.76537 0.21632 0.0
H538 H 0.48092 0.79564 0.14796 0.0
H539 H 0.46008 0.78896 0.0737 0.0
H540 H 0.4765 0.67579 0.02113 0.0
H541 H 0.50637 0.64706 0.08721 0.0
C542 C 0.51184 0.68409 0.15883 0.0
C543 C 0.51291 0.70674 0.19444 0.0
C544 C 0.49947 0.70121 0.11945 0.0
C545 C 0.50257 0.74719 0.18964 0.0
C546 C 0.48975 0.76449 0.15048 0.0
C547 C 0.47189 0.75829 0.07634 0.0
C548 C 0.46729 0.7346 0.04218 0.0
C549 C 0.4876 0.74173 0.1152 0.0
C550 C 0.4809 0.69466 0.04653 0.0
C551 C 0.49732 0.67818 0.08455 0.0
H552 H 0.13405 0.32348 0.35477 0.0
H553 H 0.14674 0.21073 0.30137 0.0
H554 H 0.15987 0.23951 0.23227 0.0
H555 H 0.17891 0.29618 0.18982 0.0
H556 H 0.16436 0.40835 0.2454 0.0
H557 H 0.14018 0.38063 0.31017 0.0
C558 C 0.13856 0.30541 0.32772 0.0
C559 C 0.13986 0.26521 0.33304 0.0
C560 C 0.14631 0.32205 0.2884 0.0
C561 C 0.14546 0.24194 0.29786 0.0
C562 C 0.15337 0.25832 0.25842 0.0
C563 C 0.16934 0.31451 0.21577 0.0
C564 C 0.17444 0.35398 0.21322 0.0
C565 C 0.15553 0.29825 0.25361 0.0
C566 C 0.16168 0.37761 0.24698 0.0
C567 C 0.14778 0.36187 0.28412 0.0
H568 H 0.04235 0.90312 0.5581 0.0
H569 H 0.93777 0.9277 0.64136 0.0
H570 H 0.88922 0.93065 0.58235 0.0
H571 H 0.87621 0.92628 0.50792 0.0
H572 H 0.97884 0.90062 0.42247 0.0
H573 H 0.02849 0.89702 0.48144 0.0
C574 C 1.00894 0.90969 0.56295 0.0
C575 C 0.99349 0.91614 0.60382 0.0
C576 C 0.98097 0.91039 0.52869 0.0
C577 C 0.95021 0.92341 0.6101 0.0
C578 C 0.9225 0.92479 0.57643 0.0
C579 C 0.90945 0.91964 0.50197 0.0
C580 C 0.9237 0.91372 0.46065 0.0
C581 C 0.93748 0.91819 0.53572 0.0
C582 C 0.96692 0.90488 0.4539 0.0
C583 C 0.9953 0.90326 0.48762 0.0
H584 H 0.41483 0.65783 0.73001 0.0
H585 H 0.28751 0.63785 0.75273 0.0
H586 H 0.29181 0.66014 0.82401 0.0
H587 H 0.33016 0.68974 0.87793 0.0
H588 H 0.45632 0.71249 0.85358 0.0
H589 H 0.45466 0.68324 0.78533 0.0
C590 C 0.38824 0.65771 0.75073 0.0
C591 C 0.35082 0.64645 0.73591 0.0
C592 C 0.3909 0.67072 0.79152 0.0
C593 C 0.31644 0.64705 0.76306 0.0
C594 C 0.31899 0.65949 0.80394 0.0
C595 C 0.35765 0.68734 0.85812 0.0
C596 C 0.39341 0.70299 0.87073 0.0
C597 C 0.35587 0.67192 0.81829 0.0
C598 C 0.42852 0.70046 0.84448 0.0
C599 C 0.42747 0.68403 0.80539 0.0
H600 H 0.61634 0.11665 0.13451 0.0
H601 H 0.50105 0.09917 0.0746 0.0
H602 H 0.53679 0.09068 1.00758 0.0
H603 H 0.60225 0.08198 0.96676 0.0
H604 H 0.71856 0.0935 0.02797 0.0
H605 H 0.68145 0.11095 0.09275 0.0
C606 C 0.59901 0.11167 0.10661 0.0
C607 C 0.55605 0.10859 0.1097 0.0
C608 C 0.62013 0.10555 0.06808 0.0
C609 C 0.53418 0.10151 0.07325 0.0
C610 C 0.5546 0.09664 0.03478 0.0
C611 C 0.61923 0.08929 0.994 0.0
C612 C 0.66304 0.08687 0.99238 0.0
C613 C 0.59777 0.09777 0.03187 0.0
C614 C 0.68477 0.09541 0.02833 0.0
C615 C 0.66357 0.1052 0.06551 0.0
H616 H 0.70628 0.23914 0.62633 0.0
H617 H 0.58061 0.29196 0.65286 0.0
H618 H 0.57495 0.24387 0.70878 0.0
H619 H 0.60551 0.18828 0.75189 0.0
H620 H 0.73068 0.13383 0.72703 0.0
H621 H 0.73674 0.18121 0.66958 0.0
C622 C 0.67761 0.23994 0.6442 0.0
C623 C 0.64399 0.26939 0.63517 0.0
C624 C 0.67447 0.21205 0.67705 0.0
C625 C 0.60713 0.26991 0.65891 0.0
C626 C 0.60377 0.24234 0.69109 0.0
C627 C 0.63402 0.18624 0.73373 0.0
C628 C 0.66747 0.15715 0.74408 0.0
C629 C 0.63725 0.21346 0.70065 0.0
C630 C 0.70444 0.15595 0.72034 0.0
C631 C 0.70787 0.183 0.6872 0.0
H632 H 0.16707 0.39727 0.93179 0.0
H633 H 0.1405 0.28396 0.97475 0.0
H634 H 0.10537 0.27601 0.9096 0.0
H635 H 0.07718 0.30206 0.843 0.0
H636 H 0.09591 0.41732 0.79999 0.0
H637 H 0.13997 0.42308 0.86148 0.0
C638 C 0.15353 0.37094 0.92683 0.0
C639 C 0.15709 0.34114 0.95837 0.0
C640 C 0.13224 0.36661 0.88893 0.0
C641 C 0.13938 0.30711 0.9511 0.0
C642 C 0.11895 0.30249 0.91372 0.0
C643 C 0.0915 0.32827 0.84649 0.0
C644 C 0.0831 0.35919 0.81688 0.0
C645 C 0.11485 0.33208 0.88267 0.0
C646 C 0.10214 0.39283 0.82203 0.0
C647 C 0.12682 0.39637 0.85759 0.0
H648 H 0.86391 0.7963 0.2413 0.0
H649 H 0.96129 0.85571 0.18719 0.0
H650 H 0.97073 0.80979 0.13127 0.0
H651 H 0.95345 0.75165 0.09843 0.0
H652 H 0.85564 0.69144 0.1503 0.0
H653 H 0.84435 0.73837 0.20591 0.0
C654 C 0.88679 0.79936 0.21697 0.0
C655 C 0.91218 0.82931 0.2189 0.0
C656 C 0.89235 0.77238 0.18456 0.0
C657 C 0.94184 0.83266 0.18708 0.0
C658 C 0.94724 0.8064 0.15491 0.0
C659 C 0.92974 0.74856 0.12195 0.0
C660 C 0.90586 0.7176 0.12028 0.0
C661 C 0.92317 0.77582 0.15362 0.0
C662 C 0.87484 0.71468 0.15087 0.0
C663 C 0.86826 0.74165 0.18269 0.0
H664 H 0.37066 0.68094 0.49593 0.0
H665 H 0.33308 0.57661 0.44803 0.0
H666 H 0.38256 0.57814 0.39056 0.0
H667 H 0.43647 0.60866 0.35406 0.0
H668 H 0.4731 0.71452 0.39957 0.0
H669 H 0.42331 0.71348 0.45697 0.0
C670 C 0.37377 0.65856 0.47296 0.0
C671 C 0.34889 0.62861 0.47605 0.0
C672 C 0.40144 0.6602 0.43918 0.0
C673 C 0.35228 0.5999 0.44601 0.0
C674 C 0.38032 0.60081 0.4131 0.0
C675 C 0.4332 0.63179 0.37618 0.0
C676 C 0.45846 0.66148 0.37261 0.0
C677 C 0.40487 0.63091 0.40923 0.0
C678 C 0.4539 0.69126 0.4016 0.0
C679 C 0.42567 0.69059 0.43465 0.0
H680 H 0.26947 0.1154 0.37581 0.0
H681 H 0.29416 0.23211 0.39639 0.0
H682 H 0.36252 0.21842 0.36442 0.0
H683 H 0.41526 0.17456 0.32734 0.0
H684 H 0.39195 0.05765 0.3066 0.0
H685 H 0.32473 0.0699 0.3421 0.0
C686 C 0.28979 0.13779 0.37324 0.0
C687 C 0.27606 0.17482 0.38859 0.0
C688 C 0.33008 0.12963 0.35498 0.0
C689 C 0.30341 0.20325 0.38514 0.0
C690 C 0.34286 0.1955 0.36679 0.0
C691 C 0.39603 0.15144 0.33151 0.0
C692 C 0.40923 0.11512 0.31439 0.0
C693 C 0.35666 0.15886 0.35144 0.0
C694 C 0.38306 0.08588 0.31957 0.0
C695 C 0.34421 0.09294 0.33964 0.0
H696 H 0.11297 0.14969 0.53244 0.0
H697 H 0.23335 0.16357 0.58368 0.0
H698 H 0.21722 0.12633 0.64755 0.0
H699 H 0.17256 0.08258 0.68224 0.0
H700 H 0.05408 0.06772 0.62583 0.0
H701 H 0.06442 0.11592 0.57185 0.0
C702 C 0.13555 0.1452 0.55791 0.0
C703 C 0.17467 0.15822 0.55333 0.0
C704 C 0.12604 0.12424 0.59358 0.0
C705 C 0.20331 0.15309 0.58658 0.0
C706 C 0.19399 0.13195 0.62286 0.0
C707 C 0.14892 0.08963 0.6582 0.0
C708 C 0.11381 0.06928 0.65683 0.0
C709 C 0.15603 0.11608 0.62576 0.0
C710 C 0.08216 0.08139 0.62719 0.0
C711 C 0.08814 0.1089 0.59595 0.0
H712 H 0.14599 0.81638 0.80994 0.0
H713 H 0.158 0.9384 0.80654 0.0
H714 H 0.22214 0.92541 0.84789 0.0
H715 H 0.27692 0.87895 0.88424 0.0
H716 H 0.26333 0.75739 0.88916 0.0
H717 H 0.19916 0.77046 0.8478 0.0
C718 C 0.16219 0.84022 0.81883 0.0
C719 C 0.14664 0.87838 0.80511 0.0
C720 C 0.19966 0.83254 0.84249 0.0
C721 C 0.16877 0.90871 0.81666 0.0
C722 C 0.20583 0.90131 0.84018 0.0
C723 C 0.26002 0.85541 0.8759 0.0
C724 C 0.27521 0.8172 0.88953 0.0
C725 C 0.22204 0.86327 0.85289 0.0
C726 C 0.25243 0.78708 0.87903 0.0
C727 C 0.21549 0.79453 0.85552 0.0
H728 H 0.36245 0.94961 0.16071 0.0
H729 H 0.47361 0.97394 0.09488 0.0
H730 H 0.46604 0.92262 0.04693 0.0
H731 H 0.42619 0.87444 0.02107 0.0
H732 H 0.31424 0.84886 0.08422 0.0
H733 H 0.32356 0.89778 0.13606 0.0
C734 C 0.38497 0.94376 0.13583 0.0
C735 C 0.41841 0.96603 0.13124 0.0
C736 C 0.38001 0.91447 0.10779 0.0
C737 C 0.44786 0.95727 0.09946 0.0
C738 C 0.44332 0.92812 0.07176 0.0
C739 C 0.40341 0.8796 0.04592 0.0
C740 C 0.36886 0.85875 0.0482 0.0
C741 C 0.40915 0.9072 0.0752 0.0
C742 C 0.3407 0.86492 0.08151 0.0
C743 C 0.34612 0.89282 0.11104 0.0
H744 H 0.86292 0.42773 0.66647 0.0
H745 H 0.83722 0.3408 0.75942 0.0
H746 H 0.76634 0.34353 0.73296 0.0
H747 H 0.71529 0.36302 0.67696 0.0
H748 H 0.742 0.44586 0.58081 0.0
H749 H 0.80787 0.45349 0.61556 0.0
C750 C 0.84159 0.40982 0.68125 0.0
C751 C 0.8557 0.3836 0.71429 0.0
C752 C 0.80073 0.4111 0.6655 0.0
C753 C 0.82752 0.36081 0.73341 0.0
C754 C 0.78679 0.36242 0.71845 0.0
C755 C 0.73472 0.38405 0.6649 0.0
C756 C 0.7238 0.40448 0.62714 0.0
C757 C 0.77346 0.38654 0.68375 0.0
C758 C 0.74966 0.43061 0.61056 0.0
C759 C 0.78758 0.43443 0.63001 0.0
H760 H 0.98239 0.48664 0.81378 0.0
H761 H 0.90616 0.41477 0.8844 0.0
H762 H 0.89007 0.46642 0.9347 0.0
H763 H 0.89759 0.53238 0.95819 0.0
H764 H 0.9774 0.60182 0.88901 0.0
H765 H 0.99186 0.55082 0.83825 0.0
C766 C 0.96212 0.48213 0.84012 0.0
C767 C 0.94517 0.44682 0.845 0.0
C768 C 0.95349 0.51171 0.86899 0.0
C769 C 0.91961 0.4415 0.87979 0.0
C770 C 0.9103 0.47115 0.90844 0.0
C771 C 0.91782 0.53652 0.93176 0.0
C772 C 0.93593 0.57128 0.92712 0.0
C773 C 0.9269 0.50648 0.90323 0.0
C774 C 0.96286 0.57564 0.89323 0.0
C775 C 0.97119 0.5464 0.86424 0.0
H776 H 0.77913 0.65019 0.14007 0.0
H777 H 0.71166 0.57477 0.06991 0.0
H778 H 0.65782 0.57768 0.12396 0.0
H779 H 0.63145 0.60052 0.19073 0.0
H780 H 0.697 0.67781 0.26059 0.0
H781 H 0.75102 0.67529 0.20636 0.0
C782 C 0.7522 0.63509 0.13618 0.0
C783 C 0.749 0.6124 0.10115 0.0
C784 C 0.72178 0.63678 0.1673 0.0
C785 C 0.71457 0.5922 0.09686 0.0
C786 C 0.68401 0.59381 0.12766 0.0
C787 C 0.65774 0.61656 0.19446 0.0
C788 C 0.66074 0.63893 0.2297 0.0
C789 C 0.6877 0.61561 0.16313 0.0
C790 C 0.69444 0.66015 0.23373 0.0
C791 C 0.72505 0.65886 0.20276 0.0
H792 H 0.61946 0.49196 0.51527 0.0
H793 H 0.68053 0.41982 0.42032 0.0
H794 H 0.67446 0.47563 0.3708 0.0
H795 H 0.64486 0.5429 0.3524 0.0
H796 H 0.5849 0.61585 0.44689 0.0
H797 H 0.5984 0.56207 0.4992 0.0
C798 C 0.63179 0.48856 0.48382 0.0
C799 C 0.64982 0.45158 0.47123 0.0
C800 C 0.62861 0.52097 0.45566 0.0
C801 C 0.66634 0.44781 0.4307 0.0
C802 C 0.66282 0.47973 0.40238 0.0
C803 C 0.63591 0.54732 0.3848 0.0
C804 C 0.61412 0.58328 0.39595 0.0
C805 C 0.64321 0.51617 0.41425 0.0
C806 C 0.60234 0.58868 0.43781 0.0
C807 C 0.60953 0.55772 0.46749 0.0
H808 H 0.29884 0.28898 0.10895 0.0
H809 H 0.37304 0.36417 0.17152 0.0
H810 H 0.42341 0.30821 0.19293 0.0
H811 H 0.44372 0.23846 0.19771 0.0
H812 H 0.36826 0.16177 0.13924 0.0
H813 H 0.32049 0.21815 0.11251 0.0
C814 C 0.32644 0.29319 0.12661 0.0
C815 C 0.33242 0.33073 0.13837 0.0
C816 C 0.35451 0.2607 0.14003 0.0
C817 C 0.36789 0.33563 0.16191 0.0
C818 C 0.39653 0.30364 0.17434 0.0
C819 C 0.41695 0.23381 0.17896 0.0
C820 C 0.40952 0.19582 0.17056 0.0
C821 C 0.38968 0.26609 0.16425 0.0
C822 C 0.3746 0.19063 0.14629 0.0
C823 C 0.3474 0.22286 0.13095 0.0
H824 H 0.92838 0.19075 0.8926 0.0
H825 H 0.84819 0.25086 0.79628 0.0
H826 H 0.79846 0.20463 0.80711 0.0
H827 H 0.77685 0.14793 0.84422 0.0
H828 H 0.85609 0.08692 0.94062 0.0
H829 H 0.90658 0.13316 0.92994 0.0
C830 C 0.89995 0.19397 0.8741 0.0
C831 C 0.89239 0.22458 0.84352 0.0
C832 C 0.87105 0.16724 0.88073 0.0
C833 C 0.85546 0.22758 0.81955 0.0
C834 C 0.8267 0.20123 0.82598 0.0
C835 C 0.80503 0.14468 0.86319 0.0
C836 C 0.81235 0.11393 0.8935 0.0
C837 C 0.83406 0.17108 0.85656 0.0
C838 C 0.84939 0.11028 0.91728 0.0
C839 C 0.87835 0.13672 0.91107 0.0
H840 H 0.08873 0.44548 0.09614 0.0
H841 H 0.15648 0.53066 0.15009 0.0
H842 H 0.09441 0.57874 0.14511 0.0
H843 H 0.02489 0.59878 0.11608 0.0
H844 H 0.95692 0.51517 0.06023 0.0
H845 H 0.01461 0.46353 0.07671 0.0
C846 C 0.08965 0.47451 0.10705 0.0
C847 C 0.12709 0.48497 0.12252 0.0
C848 C 0.05387 0.50197 0.10415 0.0
C849 C 0.12796 0.52222 0.13762 0.0
C850 C 0.09256 0.54967 0.13487 0.0
C851 C 0.02236 0.56895 0.10877 0.0
C852 C 0.98749 0.5604 0.08678 0.0
C853 C 0.05588 0.54014 0.11701 0.0
C854 C 0.98374 0.52198 0.07747 0.0
C855 C 0.01688 0.49272 0.08629 0.0
H856 H 0.72101 0.89226 0.42078 0.0
H857 H 0.8164 0.81347 0.362 0.0
H858 H 0.76729 0.76672 0.3545 0.0
H859 H 0.69503 0.75283 0.35484 0.0
H860 H 0.59908 0.83183 0.41232 0.0
H861 H 0.65066 0.87388 0.43004 0.0
C862 C 0.73134 0.86445 0.40733 0.0
C863 C 0.77206 0.85658 0.39146 0.0
C864 C 0.70264 0.83804 0.40209 0.0
C865 C 0.78502 0.82041 0.37408 0.0
C866 C 0.75692 0.79369 0.36959 0.0
C867 C 0.68551 0.77867 0.37218 0.0
C868 C 0.64308 0.78955 0.38137 0.0
C869 C 0.71525 0.80288 0.38198 0.0
C870 C 0.63137 0.82332 0.40379 0.0
C871 C 0.66087 0.84731 0.41415 0.0
H872 H 0.46116 0.43928 0.53324 0.0
H873 H 0.44782 0.41897 0.66649 0.0
H874 H 0.37542 0.44858 0.66271 0.0
H875 H 0.32088 0.49102 0.62426 0.0
H876 H 0.33318 0.51221 0.49154 0.0
H877 H 0.4001 0.46971 0.49189 0.0
C878 C 0.44225 0.44039 0.56129 0.0
C879 C 0.46069 0.42828 0.60039 0.0
C880 C 0.40022 0.45739 0.55892 0.0
C881 C 0.43524 0.42959 0.63626 0.0
C882 C 0.39354 0.44616 0.63411 0.0
C883 C 0.33736 0.48476 0.59513 0.0
C884 C 0.32262 0.50473 0.55806 0.0
C885 C 0.37636 0.46171 0.596 0.0
C886 C 0.34395 0.49679 0.5204 0.0
C887 C 0.3826 0.4731 0.52079 0.0
H888 H 0.26138 0.73955 0.60764 0.0
H889 H 0.16002 0.71717 0.52779 0.0
H890 H 0.11959 0.77822 0.54687 0.0
H891 H 0.10812 0.83061 0.59637 0.0
H892 H 0.20748 0.85183 0.67868 0.0
H893 H 0.2543 0.79891 0.64793 0.0
C894 C 0.23078 0.74842 0.59377 0.0
C895 C 0.21322 0.72349 0.56719 0.0
C896 C 0.20742 0.78319 0.60548 0.0
C897 C 0.17397 0.73564 0.54873 0.0
C898 C 0.15078 0.77047 0.55974 0.0
C899 C 0.14056 0.8244 0.60635 0.0
C900 C 0.15473 0.84453 0.63951 0.0
C901 C 0.16646 0.79344 0.58951 0.0
C902 C 0.19642 0.83665 0.65277 0.0
C903 C 0.22285 0.80617 0.63558 0.0
H904 H 0.55196 0.86199 0.93661 0.0
H905 H 0.476 0.93393 0.84571 0.0
H906 H 0.52995 0.97643 0.83742 0.0
H907 H 0.59962 0.9931 0.85458 0.0
H908 H 0.67676 0.9214 0.94497 0.0
H909 H 0.62227 0.87937 0.95452 0.0
C910 C 0.54712 0.88722 0.91542 0.0
C911 C 0.50977 0.89454 0.89175 0.0
C912 C 0.57891 0.9116 0.91025 0.0
C913 C 0.5044 0.92727 0.86405 0.0
C914 C 0.53535 0.95169 0.85925 0.0
C915 C 0.60473 0.96816 0.87619 0.0
C916 C 0.6427 0.96058 0.89874 0.0
C917 C 0.57299 0.944 0.88178 0.0
C918 C 0.64816 0.92813 0.92691 0.0
C919 C 0.61681 0.904 0.93256 0.0
H920 H 0.89491 0.0571 0.4013 0.0
H921 H 0.94424 0.99734 0.29218 0.0
H922 H 1.00757 0.02803 0.29636 0.0
H923 H 0.0524 0.06632 0.33523 0.0
H924 H 1.00376 0.12687 0.44361 0.0
H925 H 0.9369 0.10169 0.43545 0.0
C926 C 0.91904 0.0515 0.37782 0.0
C927 C 0.91474 0.02458 0.34667 0.0
C928 C 0.95596 0.06893 0.3807 0.0
C929 C 0.94655 0.01774 0.31661 0.0
C930 C 0.98305 0.03509 0.31912 0.0
C931 C 0.02703 0.07412 0.35688 0.0
C932 C 0.03318 0.09799 0.39028 0.0
C933 C 0.98869 0.0597 0.3518 0.0
C934 C 0.99978 0.10854 0.41765 0.0
C935 C 0.96161 0.09403 0.41306 0.0
loop_
_geom_bond_atom_site_label_1
_geom_bond_atom_site_label_2
_geom_bond_distance
_geom_bond_site_symmetry_2
_ccdc_geom_bond_type
Co0 N5 2.057 . S
Co0 O17 2.021 . S
Co0 O20 2.062 . S
Co0 O24 2.117 . S
Co0 O25 2.020 . S
C1 O21 1.259 . S
C1 O24 1.258 . S
Co2 N11 2.057 . S
Co2 O18 2.117 . S
Co2 O19 2.020 . S
Co2 O21 2.021 . S
Co2 O26 2.062 . S
C3 N5 1.316 . S
C3 N6 1.347 . S
C3 H8 0.931 . S
C4 N5 1.375 . S
C4 C7 1.350 . S
C4 H9 0.930 . S
N5 Co0 2.057 . S
N5 C3 1.316 . S
N5 C4 1.375 . S
N6 C3 1.347 . S
N6 C7 1.373 . S
C7 C4 1.350 . S
C7 N6 1.373 . S
C7 H28 0.931 . S
H8 C3 0.931 . S
H9 C4 0.930 . S
C10 O17 1.259 . S
C10 O18 1.258 . S
N11 Co2 2.057 . S
N11 C12 1.316 . S
N11 C13 1.375 . S
C12 N11 1.316 . S
C12 N14 1.347 . S
C12 H23 0.931 . S
C13 N11 1.375 . S
C13 C15 1.350 . S
C13 H22 0.930 . S
N14 C12 1.347 . S
N14 C15 1.373 . S
C15 C13 1.350 . S
C15 N14 1.373 . S
C15 H29 0.931 . S
C16 O19 1.256 . S
C16 O20 1.255 . S
O17 Co0 2.021 . S
O17 C10 1.259 . S
O18 Co2 2.117 . S
O18 C10 1.258 . S
O19 Co2 2.020 . S
O19 C16 1.256 . S
O20 Co0 2.062 . S
O20 C16 1.255 . S
O21 C1 1.259 . S
O21 Co2 2.021 . S
H22 C13 0.930 . S
H23 C12 0.931 . S
O24 Co0 2.117 . S
O24 C1 1.258 . S
O25 Co0 2.020 . S
O25 C27 1.256 . S
O26 Co2 2.062 . S
O26 C27 1.255 . S
C27 O25 1.256 . S
C27 O26 1.255 . S
H28 C7 0.931 . S
H29 C15 0.931 . S
Co30 N35 2.057 . S
Co30 O47 2.021 . S
Co30 O50 2.062 . S
Co30 O54 2.117 . S
Co30 O55 2.020 . S
C31 O51 1.259 . S
C31 O54 1.258 . S
Co32 N41 2.057 . S
Co32 O48 2.117 . S
Co32 O49 2.020 . S
Co32 O51 2.021 . S
Co32 O56 2.062 . S
C33 N35 1.316 . S
C33 N36 1.347 . S
C33 H38 0.931 . S
C34 N35 1.375 1_655 S
C34 C37 1.350 . S
C34 H39 0.930 . S
N35 Co30 2.057 . S
N35 C33 1.316 . S
N35 C34 1.375 1_455 S
N36 C33 1.347 . S
N36 C37 1.373 1_455 S
C37 C34 1.350 . S
C37 N36 1.373 1_655 S
C37 H58 0.931 . S
H38 C33 0.931 . S
H39 C34 0.930 . S
C40 O47 1.259 . S
C40 O48 1.258 . S
N41 Co32 2.057 . S
N41 C42 1.316 . S
N41 C43 1.375 . S
C42 N41 1.316 . S
C42 N44 1.347 . S
C42 H53 0.931 . S
C43 N41 1.375 . S
C43 C45 1.350 . S
C43 H52 0.930 . S
N44 C42 1.347 . S
N44 C45 1.373 . S
C45 C43 1.350 . S
C45 N44 1.373 . S
C45 H59 0.931 . S
C46 O49 1.256 . S
C46 O50 1.255 . S
O47 Co30 2.021 . S
O47 C40 1.259 . S
O48 Co32 2.117 . S
O48 C40 1.258 . S
O49 Co32 2.020 . S
O49 C46 1.256 . S
O50 Co30 2.062 . S
O50 C46 1.255 . S
O51 C31 1.259 . S
O51 Co32 2.021 . S
H52 C43 0.930 . S
H53 C42 0.931 . S
O54 Co30 2.117 . S
O54 C31 1.258 . S
O55 Co30 2.020 . S
O55 C57 1.256 . S
O56 Co32 2.062 . S
O56 C57 1.255 . S
C57 O55 1.256 . S
C57 O56 1.255 . S
H58 C37 0.931 . S
H59 C45 0.931 . S
Co60 N65 2.057 1_556 S
Co60 O77 2.021 . S
Co60 O80 2.062 . S
Co60 O84 2.117 . S
Co60 O85 2.020 1_556 S
C61 O81 1.259 . S
C61 O84 1.258 . S
Co62 N71 2.057 . S
Co62 O78 2.117 . S
Co62 O79 2.020 . S
Co62 O81 2.021 . S
Co62 O86 2.062 . S
C63 N65 1.316 1_556 S
C63 N66 1.347 1_556 S
C63 H68 0.931 . S
C64 N65 1.375 . S
C64 C67 1.350 . S
C64 H69 0.930 . S
N65 Co60 2.057 1_554 S
N65 C63 1.316 1_554 S
N65 C64 1.375 . S
N66 C63 1.347 1_554 S
N66 C67 1.373 . S
C67 C64 1.350 . S
C67 N66 1.373 . S
C67 H88 0.931 . S
H68 C63 0.931 . S
H69 C64 0.930 . S
C70 O77 1.259 . S
C70 O78 1.258 . S
N71 Co62 2.057 . S
N71 C72 1.316 . S
N71 C73 1.375 . S
C72 N71 1.316 . S
C72 N74 1.347 . S
C72 H83 0.931 . S
C73 N71 1.375 . S
C73 C75 1.350 . S
C73 H82 0.930 . S
N74 C72 1.347 . S
N74 C75 1.373 . S
C75 C73 1.350 . S
C75 N74 1.373 . S
C75 H89 0.931 . S
C76 O79 1.256 . S
C76 O80 1.255 . S
O77 Co60 2.021 . S
O77 C70 1.259 . S
O78 Co62 2.117 . S
O78 C70 1.258 . S
O79 Co62 2.020 . S
O79 C76 1.256 . S
O80 Co60 2.062 . S
O80 C76 1.255 . S
O81 C61 1.259 . S
O81 Co62 2.021 . S
H82 C73 0.930 . S
H83 C72 0.931 . S
O84 Co60 2.117 . S
O84 C61 1.258 . S
O85 Co60 2.020 1_554 S
O85 C87 1.256 . S
O86 Co62 2.062 . S
O86 C87 1.255 1_556 S
C87 O85 1.256 . S
C87 O86 1.255 1_554 S
H88 C67 0.931 . S
H89 C75 0.931 . S
Co90 N95 2.057 . S
Co90 O107 2.021 . S
Co90 O110 2.062 . S
Co90 O114 2.117 . S
Co90 O115 2.020 . S
C91 O111 1.259 . S
C91 O114 1.258 . S
Co92 N101 2.057 . S
Co92 O108 2.117 . S
Co92 O109 2.020 . S
Co92 O111 2.021 . S
Co92 O116 2.062 . S
C93 N95 1.316 . S
C93 N96 1.347 . S
C93 H98 0.931 . S
C94 N95 1.375 . S
C94 C97 1.350 . S
C94 H99 0.930 . S
N95 Co90 2.057 . S
N95 C93 1.316 . S
N95 C94 1.375 . S
N96 C93 1.347 . S
N96 C97 1.373 . S
C97 C94 1.350 . S
C97 N96 1.373 . S
C97 H118 0.931 . S
H98 C93 0.931 . S
H99 C94 0.930 . S
C100 O107 1.259 . S
C100 O108 1.258 . S
N101 Co92 2.057 . S
N101 C102 1.316 . S
N101 C103 1.375 . S
C102 N101 1.316 . S
C102 N104 1.347 . S
C102 H113 0.931 . S
C103 N101 1.375 . S
C103 C105 1.350 . S
C103 H112 0.930 . S
N104 C102 1.347 . S
N104 C105 1.373 . S
C105 C103 1.350 . S
C105 N104 1.373 . S
C105 H119 0.931 . S
C106 O109 1.256 . S
C106 O110 1.255 . S
O107 Co90 2.021 . S
O107 C100 1.259 . S
O108 Co92 2.117 . S
O108 C100 1.258 . S
O109 Co92 2.020 . S
O109 C106 1.256 . S
O110 Co90 2.062 . S
O110 C106 1.255 . S
O111 C91 1.259 . S
O111 Co92 2.021 . S
H112 C103 0.930 . S
H113 C102 0.931 . S
O114 Co90 2.117 . S
O114 C91 1.258 . S
O115 Co90 2.020 . S
O115 C117 1.256 . S
O116 Co92 2.062 . S
O116 C117 1.255 . S
C117 O115 1.256 . S
C117 O116 1.255 . S
H118 C97 0.931 . S
H119 C105 0.931 . S
Co120 N125 2.057 . S
Co120 O137 2.021 . S
Co120 O140 2.062 . S
Co120 O144 2.117 . S
Co120 O145 2.020 . S
C121 O141 1.259 . S
C121 O144 1.258 . S
Co122 N131 2.057 . S
Co122 O138 2.117 . S
Co122 O139 2.020 . S
Co122 O141 2.021 . S
Co122 O146 2.062 . S
C123 N125 1.316 . S
C123 N126 1.347 . S
C123 H128 0.931 . S
C124 N125 1.375 . S
C124 C127 1.350 . S
C124 H129 0.930 . S
N125 Co120 2.057 . S
N125 C123 1.316 . S
N125 C124 1.375 . S
N126 C123 1.347 . S
N126 C127 1.373 . S
C127 C124 1.350 . S
C127 N126 1.373 . S
C127 H148 0.931 . S
H128 C123 0.931 . S
H129 C124 0.930 . S
C130 O137 1.259 . S
C130 O138 1.258 . S
N131 Co122 2.057 . S
N131 C132 1.316 . S
N131 C133 1.375 . S
C132 N131 1.316 . S
C132 N134 1.347 . S
C132 H143 0.931 . S
C133 N131 1.375 . S
C133 C135 1.350 . S
C133 H142 0.930 . S
N134 C132 1.347 . S
N134 C135 1.373 . S
C135 C133 1.350 . S
C135 N134 1.373 . S
C135 H149 0.931 . S
C136 O139 1.256 . S
C136 O140 1.255 . S
O137 Co120 2.021 . S
O137 C130 1.259 . S
O138 Co122 2.117 . S
O138 C130 1.258 . S
O139 Co122 2.020 . S
O139 C136 1.256 . S
O140 Co120 2.062 . S
O140 C136 1.255 . S
O141 C121 1.259 . S
O141 Co122 2.021 . S
H142 C133 0.930 . S
H143 C132 0.931 . S
O144 Co120 2.117 . S
O144 C121 1.258 . S
O145 Co120 2.020 . S
O145 C147 1.256 . S
O146 Co122 2.062 . S
O146 C147 1.255 . S
C147 O145 1.256 . S
C147 O146 1.255 . S
H148 C127 0.931 . S
H149 C135 0.931 . S
Co150 N155 2.057 . S
Co150 O167 2.021 . S
Co150 O170 2.062 1_655 S
Co150 O174 2.117 . S
Co150 O175 2.020 . S
C151 O171 1.259 . S
C151 O174 1.258 . S
Co152 N161 2.057 . S
Co152 O168 2.117 . S
Co152 O169 2.020 . S
Co152 O171 2.021 . S
Co152 O176 2.062 . S
C153 N155 1.316 1_455 S
C153 N156 1.347 . S
C153 H158 0.931 1_455 S
C154 N155 1.375 1_455 S
C154 C157 1.350 . S
C154 H159 0.930 . S
N155 Co150 2.057 . S
N155 C153 1.316 1_655 S
N155 C154 1.375 1_655 S
N156 C153 1.347 . S
N156 C157 1.373 . S
C157 C154 1.350 . S
C157 N156 1.373 . S
C157 H178 0.931 . S
H158 C153 0.931 1_655 S
H159 C154 0.930 . S
C160 O167 1.259 . S
C160 O168 1.258 . S
N161 Co152 2.057 . S
N161 C162 1.316 . S
N161 C163 1.375 . S
C162 N161 1.316 . S
C162 N164 1.347 . S
C162 H173 0.931 . S
C163 N161 1.375 . S
C163 C165 1.350 . S
C163 H172 0.930 . S
N164 C162 1.347 . S
N164 C165 1.373 . S
C165 C163 1.350 . S
C165 N164 1.373 . S
C165 H179 0.931 . S
C166 O169 1.256 1_455 S
C166 O170 1.255 . S
O167 Co150 2.021 . S
O167 C160 1.259 . S
O168 Co152 2.117 . S
O168 C160 1.258 . S
O169 Co152 2.020 . S
O169 C166 1.256 1_655 S
O170 Co150 2.062 1_455 S
O170 C166 1.255 . S
O171 C151 1.259 . S
O171 Co152 2.021 . S
H172 C163 0.930 . S
H173 C162 0.931 . S
O174 Co150 2.117 . S
O174 C151 1.258 . S
O175 Co150 2.020 . S
O175 C177 1.256 . S
O176 Co152 2.062 . S
O176 C177 1.255 . S
C177 O175 1.256 . S
C177 O176 1.255 . S
H178 C157 0.931 . S
H179 C165 0.931 . S
Co180 N185 2.057 1_554 S
Co180 O197 2.021 . S
Co180 O200 2.062 1_554 S
Co180 O204 2.117 1_554 S
Co180 O205 2.020 . S
C181 O201 1.259 . S
C181 O204 1.258 1_554 S
Co182 N191 2.057 . S
Co182 O198 2.117 . S
Co182 O199 2.020 . S
Co182 O201 2.021 . S
Co182 O206 2.062 . S
C183 N185 1.316 . S
C183 N186 1.347 1_655 S
C183 H188 0.931 1_655 S
C184 N185 1.375 . S
C184 C187 1.350 . S
C184 H189 0.930 . S
N185 Co180 2.057 1_556 S
N185 C183 1.316 . S
N185 C184 1.375 . S
N186 C183 1.347 1_455 S
N186 C187 1.373 1_455 S
C187 C184 1.350 . S
C187 N186 1.373 1_655 S
C187 H208 0.931 . S
H188 C183 0.931 1_455 S
H189 C184 0.930 . S
C190 O197 1.259 . S
C190 O198 1.258 . S
N191 Co182 2.057 . S
N191 C192 1.316 . S
N191 C193 1.375 . S
C192 N191 1.316 . S
C192 N194 1.347 . S
C192 H203 0.931 . S
C193 N191 1.375 . S
C193 C195 1.350 . S
C193 H202 0.930 . S
N194 C192 1.347 . S
N194 C195 1.373 . S
C195 C193 1.350 . S
C195 N194 1.373 . S
C195 H209 0.931 . S
C196 O199 1.256 1_556 S
C196 O200 1.255 . S
O197 Co180 2.021 . S
O197 C190 1.259 . S
O198 Co182 2.117 . S
O198 C190 1.258 . S
O199 Co182 2.020 . S
O199 C196 1.256 1_554 S
O200 Co180 2.062 1_556 S
O200 C196 1.255 . S
O201 C181 1.259 . S
O201 Co182 2.021 . S
H202 C193 0.930 . S
H203 C192 0.931 . S
O204 Co180 2.117 1_556 S
O204 C181 1.258 1_556 S
O205 Co180 2.020 . S
O205 C207 1.256 . S
O206 Co182 2.062 . S
O206 C207 1.255 . S
C207 O205 1.256 . S
C207 O206 1.255 . S
H208 C187 0.931 . S
H209 C195 0.931 . S
Co210 N215 2.057 . S
Co210 O227 2.021 . S
Co210 O230 2.062 . S
Co210 O234 2.117 . S
Co210 O235 2.020 . S
C211 O231 1.259 . S
C211 O234 1.258 . S
Co212 N221 2.057 . S
Co212 O228 2.117 . S
Co212 O229 2.020 . S
Co212 O231 2.021 . S
Co212 O236 2.062 . S
C213 N215 1.316 . S
C213 N216 1.347 . S
C213 H218 0.931 . S
C214 N215 1.375 . S
C214 C217 1.350 . S
C214 H219 0.930 . S
N215 Co210 2.057 . S
N215 C213 1.316 . S
N215 C214 1.375 . S
N216 C213 1.347 . S
N216 C217 1.373 . S
C217 C214 1.350 . S
C217 N216 1.373 . S
C217 H238 0.931 . S
H218 C213 0.931 . S
H219 C214 0.930 . S
C220 O227 1.259 . S
C220 O228 1.258 . S
N221 Co212 2.057 . S
N221 C222 1.316 . S
N221 C223 1.375 . S
C222 N221 1.316 . S
C222 N224 1.347 . S
C222 H233 0.931 . S
C223 N221 1.375 . S
C223 C225 1.350 . S
C223 H232 0.930 . S
N224 C222 1.347 . S
N224 C225 1.373 . S
C225 C223 1.350 . S
C225 N224 1.373 . S
C225 H239 0.931 . S
C226 O229 1.256 . S
C226 O230 1.255 . S
O227 Co210 2.021 . S
O227 C220 1.259 . S
O228 Co212 2.117 . S
O228 C220 1.258 . S
O229 Co212 2.020 . S
O229 C226 1.256 . S
O230 Co210 2.062 . S
O230 C226 1.255 . S
O231 C211 1.259 . S
O231 Co212 2.021 . S
H232 C223 0.930 . S
H233 C222 0.931 . S
O234 Co210 2.117 . S
O234 C211 1.258 . S
O235 Co210 2.020 . S
O235 C237 1.256 . S
O236 Co212 2.062 . S
O236 C237 1.255 . S
C237 O235 1.256 . S
C237 O236 1.255 . S
H238 C217 0.931 . S
H239 C225 0.931 . S
Co240 N245 2.057 . S
Co240 O257 2.021 . S
Co240 O260 2.062 . S
Co240 O264 2.117 . S
Co240 O265 2.020 . S
C241 O261 1.259 . S
C241 O264 1.258 . S
Co242 N251 2.057 . S
Co242 O258 2.117 . S
Co242 O259 2.020 . S
Co242 O261 2.021 . S
Co242 O266 2.062 . S
C243 N245 1.316 . S
C243 N246 1.347 . S
C243 H248 0.931 . S
C244 N245 1.375 . S
C244 C247 1.350 . S
C244 H249 0.930 . S
N245 Co240 2.057 . S
N245 C243 1.316 . S
N245 C244 1.375 . S
N246 C243 1.347 . S
N246 C247 1.373 . S
C247 C244 1.350 . S
C247 N246 1.373 . S
C247 H268 0.931 . S
H248 C243 0.931 . S
H249 C244 0.930 . S
C250 O257 1.259 . S
C250 O258 1.258 . S
N251 Co242 2.057 . S
N251 C252 1.316 1_554 S
N251 C253 1.375 . S
C252 N251 1.316 1_556 S
C252 N254 1.347 . S
C252 H263 0.931 . S
C253 N251 1.375 . S
C253 C255 1.350 . S
C253 H262 0.930 . S
N254 C252 1.347 . S
N254 C255 1.373 1_556 S
C255 C253 1.350 . S
C255 N254 1.373 1_554 S
C255 H269 0.931 . S
C256 O259 1.256 . S
C256 O260 1.255 . S
O257 Co240 2.021 . S
O257 C250 1.259 . S
O258 Co242 2.117 . S
O258 C250 1.258 . S
O259 Co242 2.020 . S
O259 C256 1.256 . S
O260 Co240 2.062 . S
O260 C256 1.255 . S
O261 C241 1.259 . S
O261 Co242 2.021 . S
H262 C253 0.930 . S
H263 C252 0.931 . S
O264 Co240 2.117 . S
O264 C241 1.258 . S
O265 Co240 2.020 . S
O265 C267 1.256 . S
O266 Co242 2.062 . S
O266 C267 1.255 . S
C267 O265 1.256 . S
C267 O266 1.255 . S
H268 C247 0.931 . S
H269 C255 0.931 . S
Co270 N275 2.057 1_545 S
Co270 O287 2.021 . S
Co270 O290 2.062 1_545 S
Co270 O294 2.117 1_545 S
Co270 O295 2.020 . S
C271 O291 1.259 . S
C271 O294 1.258 1_545 S
Co272 N281 2.057 . S
Co272 O288 2.117 . S
Co272 O289 2.020 . S
Co272 O291 2.021 . S
Co272 O296 2.062 . S
C273 N275 1.316 . S
C273 N276 1.347 . S
C273 H278 0.931 . S
C274 N275 1.375 . S
C274 C277 1.350 . S
C274 H279 0.930 . S
N275 Co270 2.057 1_565 S
N275 C273 1.316 . S
N275 C274 1.375 . S
N276 C273 1.347 . S
N276 C277 1.373 . S
C277 C274 1.350 . S
C277 N276 1.373 . S
C277 H298 0.931 . S
H278 C273 0.931 . S
H279 C274 0.930 . S
C280 O287 1.259 . S
C280 O288 1.258 . S
N281 Co272 2.057 . S
N281 C282 1.316 . S
N281 C283 1.375 . S
C282 N281 1.316 . S
C282 N284 1.347 . S
C282 H293 0.931 . S
C283 N281 1.375 . S
C283 C285 1.350 . S
C283 H292 0.930 . S
N284 C282 1.347 . S
N284 C285 1.373 . S
C285 C283 1.350 . S
C285 N284 1.373 . S
C285 H299 0.931 . S
C286 O289 1.256 1_565 S
C286 O290 1.255 . S
O287 Co270 2.021 . S
O287 C280 1.259 . S
O288 Co272 2.117 . S
O288 C280 1.258 . S
O289 Co272 2.020 . S
O289 C286 1.256 1_545 S
O290 Co270 2.062 1_565 S
O290 C286 1.255 . S
O291 C271 1.259 . S
O291 Co272 2.021 . S
H292 C283 0.930 . S
H293 C282 0.931 . S
O294 Co270 2.117 1_565 S
O294 C271 1.258 1_565 S
O295 Co270 2.020 . S
O295 C297 1.256 . S
O296 Co272 2.062 . S
O296 C297 1.255 . S
C297 O295 1.256 . S
C297 O296 1.255 . S
H298 C277 0.931 . S
H299 C285 0.931 . S
Co300 N305 2.057 . S
Co300 O317 2.021 . S
Co300 O320 2.062 . S
Co300 O324 2.117 . S
Co300 O325 2.020 . S
C301 O321 1.259 . S
C301 O324 1.258 . S
Co302 N311 2.057 . S
Co302 O318 2.117 . S
Co302 O319 2.020 . S
Co302 O321 2.021 . S
Co302 O326 2.062 . S
C303 N305 1.316 . S
C303 N306 1.347 1_565 S
C303 H308 0.931 . S
C304 N305 1.375 1_545 S
C304 C307 1.350 . S
C304 H309 0.930 . S
N305 Co300 2.057 . S
N305 C303 1.316 . S
N305 C304 1.375 1_565 S
N306 C303 1.347 1_545 S
N306 C307 1.373 . S
C307 C304 1.350 . S
C307 N306 1.373 . S
C307 H328 0.931 . S
H308 C303 0.931 . S
H309 C304 0.930 . S
C310 O317 1.259 . S
C310 O318 1.258 . S
N311 Co302 2.057 . S
N311 C312 1.316 . S
N311 C313 1.375 . S
C312 N311 1.316 . S
C312 N314 1.347 . S
C312 H323 0.931 . S
C313 N311 1.375 . S
C313 C315 1.350 . S
C313 H322 0.930 . S
N314 C312 1.347 . S
N314 C315 1.373 . S
C315 C313 1.350 . S
C315 N314 1.373 . S
C315 H329 0.931 . S
C316 O319 1.256 . S
C316 O320 1.255 . S
O317 Co300 2.021 . S
O317 C310 1.259 . S
O318 Co302 2.117 . S
O318 C310 1.258 . S
O319 Co302 2.020 . S
O319 C316 1.256 . S
O320 Co300 2.062 . S
O320 C316 1.255 . S
O321 C301 1.259 . S
O321 Co302 2.021 . S
H322 C313 0.930 . S
H323 C312 0.931 . S
O324 Co300 2.117 . S
O324 C301 1.258 . S
O325 Co300 2.020 . S
O325 C327 1.256 . S
O326 Co302 2.062 . S
O326 C327 1.255 . S
C327 O325 1.256 . S
C327 O326 1.255 . S
H328 C307 0.931 . S
H329 C315 0.931 . S
Co330 N335 2.057 . S
Co330 O347 2.021 . S
Co330 O350 2.062 . S
Co330 O354 2.117 . S
Co330 O355 2.020 . S
C331 O351 1.259 . S
C331 O354 1.258 . S
Co332 N341 2.057 . S
Co332 O348 2.117 . S
Co332 O349 2.020 . S
Co332 O351 2.021 . S
Co332 O356 2.062 . S
C333 N335 1.316 . S
C333 N336 1.347 . S
C333 H338 0.931 . S
C334 N335 1.375 . S
C334 C337 1.350 . S
C334 H339 0.930 . S
N335 Co330 2.057 . S
N335 C333 1.316 . S
N335 C334 1.375 . S
N336 C333 1.347 . S
N336 C337 1.373 . S
C337 C334 1.350 . S
C337 N336 1.373 . S
C337 H358 0.931 . S
H338 C333 0.931 . S
H339 C334 0.930 . S
C340 O347 1.259 . S
C340 O348 1.258 . S
N341 Co332 2.057 . S
N341 C342 1.316 . S
N341 C343 1.375 . S
C342 N341 1.316 . S
C342 N344 1.347 . S
C342 H353 0.931 . S
C343 N341 1.375 . S
C343 C345 1.350 . S
C343 H352 0.930 . S
N344 C342 1.347 . S
N344 C345 1.373 . S
C345 C343 1.350 . S
C345 N344 1.373 . S
C345 H359 0.931 . S
C346 O349 1.256 . S
C346 O350 1.255 . S
O347 Co330 2.021 . S
O347 C340 1.259 . S
O348 Co332 2.117 . S
O348 C340 1.258 . S
O349 Co332 2.020 . S
O349 C346 1.256 . S
O350 Co330 2.062 . S
O350 C346 1.255 . S
O351 C331 1.259 . S
O351 Co332 2.021 . S
H352 C343 0.930 . S
H353 C342 0.931 . S
O354 Co330 2.117 . S
O354 C331 1.258 . S
O355 Co330 2.020 . S
O355 C357 1.256 . S
O356 Co332 2.062 . S
O356 C357 1.255 . S
C357 O355 1.256 . S
C357 O356 1.255 . S
H358 C337 0.931 . S
H359 C345 0.931 . S
H360 C366 0.930 . S
H361 C369 0.930 . S
H362 C370 0.930 . S
H363 C371 0.930 . S
H364 C374 0.930 . S
H365 C375 0.930 . S
C366 H360 0.930 . S
C366 C367 1.355 . S
C366 C368 1.415 . S
C367 C366 1.355 . S
C367 C369 1.419 . S
C368 C366 1.415 . S
C368 C373 1.425 . S
C368 C375 1.409 . S
C369 H361 0.930 . S
C369 C367 1.419 . S
C369 C370 1.362 . S
C370 H362 0.930 . S
C370 C369 1.362 . S
C370 C373 1.409 . S
C371 H363 0.930 . S
C371 C372 1.355 . S
C371 C373 1.415 . S
C372 C371 1.355 . S
C372 C374 1.419 . S
C373 C368 1.425 . S
C373 C370 1.409 . S
C373 C371 1.415 . S
C374 H364 0.930 . S
C374 C372 1.419 . S
C374 C375 1.362 . S
C375 H365 0.930 . S
C375 C368 1.409 . S
C375 C374 1.362 . S
H376 C382 0.930 . S
H377 C385 0.930 . S
H378 C386 0.930 . S
H379 C387 0.930 . S
H380 C390 0.930 . S
H381 C391 0.930 . S
C382 H376 0.930 . S
C382 C383 1.355 . S
C382 C384 1.415 . S
C383 C382 1.355 . S
C383 C385 1.419 . S
C384 C382 1.415 . S
C384 C389 1.425 . S
C384 C391 1.409 . S
C385 H377 0.930 . S
C385 C383 1.419 . S
C385 C386 1.362 . S
C386 H378 0.930 . S
C386 C385 1.362 . S
C386 C389 1.409 . S
C387 H379 0.930 . S
C387 C388 1.355 . S
C387 C389 1.415 . S
C388 C387 1.355 . S
C388 C390 1.419 . S
C389 C384 1.425 . S
C389 C386 1.409 . S
C389 C387 1.415 . S
C390 H380 0.930 . S
C390 C388 1.419 . S
C390 C391 1.362 . S
C391 H381 0.930 . S
C391 C384 1.409 . S
C391 C390 1.362 . S
H392 C398 0.930 . S
H393 C401 0.930 . S
H394 C402 0.930 . S
H395 C403 0.930 . S
H396 C406 0.930 . S
H397 C407 0.930 . S
C398 H392 0.930 . S
C398 C399 1.355 1_556 S
C398 C400 1.415 1_556 S
C399 C398 1.355 1_554 S
C399 C401 1.419 . S
C400 C398 1.415 1_554 S
C400 C405 1.425 . S
C400 C407 1.409 1_554 S
C401 H393 0.930 . S
C401 C399 1.419 . S
C401 C402 1.362 . S
C402 H394 0.930 . S
C402 C401 1.362 . S
C402 C405 1.409 . S
C403 H395 0.930 . S
C403 C404 1.355 . S
C403 C405 1.415 . S
C404 C403 1.355 . S
C404 C406 1.419 1_554 S
C405 C400 1.425 . S
C405 C402 1.409 . S
C405 C403 1.415 . S
C406 H396 0.930 . S
C406 C404 1.419 1_556 S
C406 C407 1.362 . S
C407 H397 0.930 . S
C407 C400 1.409 1_556 S
C407 C406 1.362 . S
H408 C414 0.930 . S
H409 C417 0.930 . S
H410 C418 0.930 . S
H411 C419 0.930 . S
H412 C422 0.930 . S
H413 C423 0.930 . S
C414 H408 0.930 . S
C414 C415 1.355 . S
C414 C416 1.415 . S
C415 C414 1.355 . S
C415 C417 1.419 1_545 S
C416 C414 1.415 . S
C416 C421 1.425 1_545 S
C416 C423 1.409 . S
C417 H409 0.930 . S
C417 C415 1.419 1_565 S
C417 C418 1.362 . S
C418 H410 0.930 . S
C418 C417 1.362 . S
C418 C421 1.409 . S
C419 H411 0.930 . S
C419 C420 1.355 . S
C419 C421 1.415 . S
C420 C419 1.355 . S
C420 C422 1.419 1_565 S
C421 C416 1.425 1_565 S
C421 C418 1.409 . S
C421 C419 1.415 . S
C422 H412 0.930 . S
C422 C420 1.419 1_545 S
C422 C423 1.362 . S
C423 H413 0.930 . S
C423 C416 1.409 . S
C423 C422 1.362 . S
H424 C430 0.930 . S
H425 C433 0.930 . S
H426 C434 0.930 . S
H427 C435 0.930 . S
H428 C438 0.930 . S
H429 C439 0.930 . S
C430 H424 0.930 . S
C430 C431 1.355 . S
C430 C432 1.415 . S
C431 C430 1.355 . S
C431 C433 1.419 . S
C432 C430 1.415 . S
C432 C437 1.425 . S
C432 C439 1.409 . S
C433 H425 0.930 . S
C433 C431 1.419 . S
C433 C434 1.362 . S
C434 H426 0.930 . S
C434 C433 1.362 . S
C434 C437 1.409 . S
C435 H427 0.930 . S
C435 C436 1.355 . S
C435 C437 1.415 . S
C436 C435 1.355 . S
C436 C438 1.419 . S
C437 C432 1.425 . S
C437 C434 1.409 . S
C437 C435 1.415 . S
C438 H428 0.930 . S
C438 C436 1.419 . S
C438 C439 1.362 . S
C439 H429 0.930 . S
C439 C432 1.409 . S
C439 C438 1.362 . S
H440 C446 0.930 . S
H441 C449 0.930 . S
H442 C450 0.930 . S
H443 C451 0.930 . S
H444 C454 0.930 . S
H445 C455 0.930 . S
C446 H440 0.930 . S
C446 C447 1.355 . S
C446 C448 1.415 . S
C447 C446 1.355 . S
C447 C449 1.419 . S
C448 C446 1.415 . S
C448 C453 1.425 . S
C448 C455 1.409 . S
C449 H441 0.930 . S
C449 C447 1.419 . S
C449 C450 1.362 . S
C450 H442 0.930 . S
C450 C449 1.362 . S
C450 C453 1.409 . S
C451 H443 0.930 . S
C451 C452 1.355 . S
C451 C453 1.415 . S
C452 C451 1.355 . S
C452 C454 1.419 . S
C453 C448 1.425 . S
C453 C450 1.409 . S
C453 C451 1.415 . S
C454 H444 0.930 . S
C454 C452 1.419 . S
C454 C455 1.362 . S
C455 H445 0.930 . S
C455 C448 1.409 . S
C455 C454 1.362 . S
H456 C462 0.930 . S
H457 C465 0.930 . S
H458 C466 0.930 . S
H459 C467 0.930 . S
H460 C470 0.930 . S
H461 C471 0.930 . S
C462 H456 0.930 . S
C462 C463 1.355 . S
C462 C464 1.415 . S
C463 C462 1.355 . S
C463 C465 1.419 1_556 S
C464 C462 1.415 . S
C464 C469 1.425 1_556 S
C464 C471 1.409 . S
C465 H457 0.930 . S
C465 C463 1.419 1_554 S
C465 C466 1.362 . S
C466 H458 0.930 . S
C466 C465 1.362 . S
C466 C469 1.409 . S
C467 H459 0.930 . S
C467 C468 1.355 1_554 S
C467 C469 1.415 . S
C468 C467 1.355 1_556 S
C468 C470 1.419 . S
C469 C464 1.425 1_554 S
C469 C466 1.409 . S
C469 C467 1.415 . S
C470 H460 0.930 . S
C470 C468 1.419 . S
C470 C471 1.362 . S
C471 H461 0.930 . S
C471 C464 1.409 . S
C471 C470 1.362 . S
H472 C478 0.930 . S
H473 C481 0.930 . S
H474 C482 0.930 . S
H475 C483 0.930 . S
H476 C486 0.930 . S
H477 C487 0.930 . S
C478 H472 0.930 . S
C478 C479 1.355 . S
C478 C480 1.415 . S
C479 C478 1.355 . S
C479 C481 1.419 . S
C480 C478 1.415 . S
C480 C485 1.425 . S
C480 C487 1.409 . S
C481 H473 0.930 . S
C481 C479 1.419 . S
C481 C482 1.362 . S
C482 H474 0.930 . S
C482 C481 1.362 . S
C482 C485 1.409 . S
C483 H475 0.930 . S
C483 C484 1.355 . S
C483 C485 1.415 . S
C484 C483 1.355 . S
C484 C486 1.419 . S
C485 C480 1.425 . S
C485 C482 1.409 . S
C485 C483 1.415 . S
C486 H476 0.930 . S
C486 C484 1.419 . S
C486 C487 1.362 . S
C487 H477 0.930 . S
C487 C480 1.409 . S
C487 C486 1.362 . S
H488 C494 0.930 . S
H489 C497 0.930 . S
H490 C498 0.930 . S
H491 C499 0.930 . S
H492 C502 0.930 . S
H493 C503 0.930 . S
C494 H488 0.930 . S
C494 C495 1.355 . S
C494 C496 1.415 . S
C495 C494 1.355 . S
C495 C497 1.419 . S
C496 C494 1.415 . S
C496 C501 1.425 . S
C496 C503 1.409 . S
C497 H489 0.930 . S
C497 C495 1.419 . S
C497 C498 1.362 . S
C498 H490 0.930 . S
C498 C497 1.362 . S
C498 C501 1.409 . S
C499 H491 0.930 . S
C499 C500 1.355 . S
C499 C501 1.415 . S
C500 C499 1.355 . S
C500 C502 1.419 . S
C501 C496 1.425 . S
C501 C498 1.409 . S
C501 C499 1.415 . S
C502 H492 0.930 . S
C502 C500 1.419 . S
C502 C503 1.362 . S
C503 H493 0.930 . S
C503 C496 1.409 . S
C503 C502 1.362 . S
H504 C510 0.930 . S
H505 C513 0.930 . S
H506 C514 0.930 . S
H507 C515 0.930 . S
H508 C518 0.930 . S
H509 C519 0.930 . S
C510 H504 0.930 . S
C510 C511 1.355 . S
C510 C512 1.415 . S
C511 C510 1.355 . S
C511 C513 1.419 . S
C512 C510 1.415 . S
C512 C517 1.425 . S
C512 C519 1.409 . S
C513 H505 0.930 . S
C513 C511 1.419 . S
C513 C514 1.362 . S
C514 H506 0.930 . S
C514 C513 1.362 . S
C514 C517 1.409 . S
C515 H507 0.930 . S
C515 C516 1.355 . S
C515 C517 1.415 . S
C516 C515 1.355 . S
C516 C518 1.419 . S
C517 C512 1.425 . S
C517 C514 1.409 . S
C517 C515 1.415 . S
C518 H508 0.930 . S
C518 C516 1.419 . S
C518 C519 1.362 . S
C519 H509 0.930 . S
C519 C512 1.409 . S
C519 C518 1.362 . S
H520 C526 0.930 1_655 S
H521 C529 0.930 . S
H522 C530 0.930 . S
H523 C531 0.930 . S
H524 C534 0.930 . S
H525 C535 0.930 . S
C526 H520 0.930 1_455 S
C526 C527 1.355 . S
C526 C528 1.415 . S
C527 C526 1.355 . S
C527 C529 1.419 . S
C528 C526 1.415 . S
C528 C533 1.425 . S
C528 C535 1.409 1_455 S
C529 H521 0.930 . S
C529 C527 1.419 . S
C529 C530 1.362 . S
C530 H522 0.930 . S
C530 C529 1.362 . S
C530 C533 1.409 . S
C531 H523 0.930 . S
C531 C532 1.355 . S
C531 C533 1.415 . S
C532 C531 1.355 . S
C532 C534 1.419 1_455 S
C533 C528 1.425 . S
C533 C530 1.409 . S
C533 C531 1.415 . S
C534 H524 0.930 . S
C534 C532 1.419 1_655 S
C534 C535 1.362 . S
C535 H525 0.930 . S
C535 C528 1.409 1_655 S
C535 C534 1.362 . S
H536 C542 0.930 . S
H537 C545 0.930 . S
H538 C546 0.930 . S
H539 C547 0.930 . S
H540 C550 0.930 . S
H541 C551 0.930 . S
C542 H536 0.930 . S
C542 C543 1.355 . S
C542 C544 1.415 . S
C543 C542 1.355 . S
C543 C545 1.419 . S
C544 C542 1.415 . S
C544 C549 1.425 . S
C544 C551 1.409 . S
C545 H537 0.930 . S
C545 C543 1.419 . S
C545 C546 1.362 . S
C546 H538 0.930 . S
C546 C545 1.362 . S
C546 C549 1.409 . S
C547 H539 0.930 . S
C547 C548 1.355 . S
C547 C549 1.415 . S
C548 C547 1.355 . S
C548 C550 1.419 . S
C549 C544 1.425 . S
C549 C546 1.409 . S
C549 C547 1.415 . S
C550 H540 0.930 . S
C550 C548 1.419 . S
C550 C551 1.362 . S
C551 H541 0.930 . S
C551 C544 1.409 . S
C551 C550 1.362 . S
H552 C558 0.930 . S
H553 C561 0.930 . S
H554 C562 0.930 . S
H555 C563 0.930 . S
H556 C566 0.930 . S
H557 C567 0.930 . S
C558 H552 0.930 . S
C558 C559 1.355 . S
C558 C560 1.415 . S
C559 C558 1.355 . S
C559 C561 1.419 . S
C560 C558 1.415 . S
C560 C565 1.425 . S
C560 C567 1.409 . S
C561 H553 0.930 . S
C561 C559 1.419 . S
C561 C562 1.362 . S
C562 H554 0.930 . S
C562 C561 1.362 . S
C562 C565 1.409 . S
C563 H555 0.930 . S
C563 C564 1.355 . S
C563 C565 1.415 . S
C564 C563 1.355 . S
C564 C566 1.419 . S
C565 C560 1.425 . S
C565 C562 1.409 . S
C565 C563 1.415 . S
C566 H556 0.930 . S
C566 C564 1.419 . S
C566 C567 1.362 . S
C567 H557 0.930 . S
C567 C560 1.409 . S
C567 C566 1.362 . S
H568 C574 0.946 . S
H569 C577 0.930 . S
H570 C578 0.930 . S
H571 C579 0.930 . S
H572 C582 0.930 . S
H573 C583 0.944 . S
C574 H568 0.946 . S
C574 C575 1.352 1_455 S
C574 C576 1.402 1_455 S
C575 C574 1.352 1_655 S
C575 C577 1.419 . S
C576 C574 1.402 1_655 S
C576 C581 1.425 . S
C576 C583 1.409 . S
C577 H569 0.930 . S
C577 C575 1.419 . S
C577 C578 1.362 . S
C578 H570 0.930 . S
C578 C577 1.362 . S
C578 C581 1.409 . S
C579 H571 0.930 . S
C579 C580 1.355 . S
C579 C581 1.415 . S
C580 C579 1.355 . S
C580 C582 1.419 . S
C581 C576 1.425 . S
C581 C578 1.409 . S
C581 C579 1.415 . S
C582 H572 0.930 . S
C582 C580 1.419 . S
C582 C583 1.362 . S
C583 H573 0.944 . S
C583 C576 1.409 . S
C583 C582 1.362 . S
H584 C590 0.930 . S
H585 C593 0.930 . S
H586 C594 0.930 . S
H587 C595 0.930 . S
H588 C598 0.930 . S
H589 C599 0.930 . S
C590 H584 0.930 . S
C590 C591 1.355 . S
C590 C592 1.415 . S
C591 C590 1.355 . S
C591 C593 1.419 . S
C592 C590 1.415 . S
C592 C597 1.425 . S
C592 C599 1.409 . S
C593 H585 0.930 . S
C593 C591 1.419 . S
C593 C594 1.362 . S
C594 H586 0.930 . S
C594 C593 1.362 . S
C594 C597 1.409 . S
C595 H587 0.930 . S
C595 C596 1.355 . S
C595 C597 1.415 . S
C596 C595 1.355 . S
C596 C598 1.419 . S
C597 C592 1.425 . S
C597 C594 1.409 . S
C597 C595 1.415 . S
C598 H588 0.930 . S
C598 C596 1.419 . S
C598 C599 1.362 . S
C599 H589 0.930 . S
C599 C592 1.409 . S
C599 C598 1.362 . S
H600 C606 0.930 . S
H601 C609 0.930 . S
H602 C610 0.930 1_556 S
H603 C611 0.930 . S
H604 C614 0.930 . S
H605 C615 0.930 . S
C606 H600 0.930 . S
C606 C607 1.355 . S
C606 C608 1.415 . S
C607 C606 1.355 . S
C607 C609 1.419 . S
C608 C606 1.415 . S
C608 C613 1.425 . S
C608 C615 1.409 . S
C609 H601 0.930 . S
C609 C607 1.419 . S
C609 C610 1.362 . S
C610 H602 0.930 1_554 S
C610 C609 1.362 . S
C610 C613 1.409 . S
C611 H603 0.930 . S
C611 C612 1.355 . S
C611 C613 1.415 1_556 S
C612 C611 1.355 . S
C612 C614 1.419 . S
C613 C608 1.425 . S
C613 C610 1.409 . S
C613 C611 1.415 1_554 S
C614 H604 0.930 . S
C614 C612 1.419 . S
C614 C615 1.362 1_556 S
C615 H605 0.930 . S
C615 C608 1.409 . S
C615 C614 1.362 1_554 S
H616 C622 0.930 . S
H617 C625 0.930 . S
H618 C626 0.930 . S
H619 C627 0.930 . S
H620 C630 0.930 . S
H621 C631 0.930 . S
C622 H616 0.930 . S
C622 C623 1.355 . S
C622 C624 1.415 . S
C623 C622 1.355 . S
C623 C625 1.419 . S
C624 C622 1.415 . S
C624 C629 1.425 . S
C624 C631 1.409 . S
C625 H617 0.930 . S
C625 C623 1.419 . S
C625 C626 1.362 . S
C626 H618 0.930 . S
C626 C625 1.362 . S
C626 C629 1.409 . S
C627 H619 0.930 . S
C627 C628 1.355 . S
C627 C629 1.415 . S
C628 C627 1.355 . S
C628 C630 1.419 . S
C629 C624 1.425 . S
C629 C626 1.409 . S
C629 C627 1.415 . S
C630 H620 0.930 . S
C630 C628 1.419 . S
C630 C631 1.362 . S
C631 H621 0.930 . S
C631 C624 1.409 . S
C631 C630 1.362 . S
H632 C638 0.930 . S
H633 C641 0.930 . S
H634 C642 0.930 . S
H635 C643 0.930 . S
H636 C646 0.930 1_655 S
H637 C647 0.930 . S
C638 H632 0.930 . S
C638 C639 1.355 . S
C638 C640 1.415 . S
C639 C638 1.355 . S
C639 C641 1.419 . S
C640 C638 1.415 . S
C640 C645 1.425 . S
C640 C647 1.409 . S
C641 H633 0.930 . S
C641 C639 1.419 . S
C641 C642 1.362 . S
C642 H634 0.930 . S
C642 C641 1.362 . S
C642 C645 1.409 . S
C643 H635 0.930 . S
C643 C644 1.355 . S
C643 C645 1.415 . S
C644 C643 1.355 . S
C644 C646 1.419 . S
C645 C640 1.425 . S
C645 C642 1.409 . S
C645 C643 1.415 . S
C646 H636 0.930 1_455 S
C646 C644 1.419 . S
C646 C647 1.362 . S
C647 H637 0.930 . S
C647 C640 1.409 . S
C647 C646 1.362 . S
H648 C654 0.930 . S
H649 C657 0.930 . S
H650 C658 0.930 . S
H651 C659 0.930 . S
H652 C662 0.930 . S
H653 C663 0.930 . S
C654 H648 0.930 . S
C654 C655 1.355 . S
C654 C656 1.415 . S
C655 C654 1.355 . S
C655 C657 1.419 . S
C656 C654 1.415 . S
C656 C661 1.425 . S
C656 C663 1.409 . S
C657 H649 0.930 . S
C657 C655 1.419 . S
C657 C658 1.362 . S
C658 H650 0.930 . S
C658 C657 1.362 . S
C658 C661 1.409 . S
C659 H651 0.930 . S
C659 C660 1.355 . S
C659 C661 1.415 . S
C660 C659 1.355 . S
C660 C662 1.419 . S
C661 C656 1.425 . S
C661 C658 1.409 . S
C661 C659 1.415 . S
C662 H652 0.930 . S
C662 C660 1.419 . S
C662 C663 1.362 . S
C663 H653 0.930 . S
C663 C656 1.409 . S
C663 C662 1.362 . S
H664 C670 0.930 . S
H665 C673 0.930 . S
H666 C674 0.930 . S
H667 C675 0.930 . S
H668 C678 0.930 . S
H669 C679 0.930 . S
C670 H664 0.930 . S
C670 C671 1.355 . S
C670 C672 1.415 . S
C671 C670 1.355 . S
C671 C673 1.419 . S
C672 C670 1.415 . S
C672 C677 1.425 . S
C672 C679 1.409 . S
C673 H665 0.930 . S
C673 C671 1.419 . S
C673 C674 1.362 . S
C674 H666 0.930 . S
C674 C673 1.362 . S
C674 C677 1.409 . S
C675 H667 0.930 . S
C675 C676 1.355 . S
C675 C677 1.415 . S
C676 C675 1.355 . S
C676 C678 1.419 . S
C677 C672 1.425 . S
C677 C674 1.409 . S
C677 C675 1.415 . S
C678 H668 0.930 . S
C678 C676 1.419 . S
C678 C679 1.362 . S
C679 H669 0.930 . S
C679 C672 1.409 . S
C679 C678 1.362 . S
H680 C686 0.930 . S
H681 C689 0.930 . S
H682 C690 0.930 . S
H683 C691 0.930 . S
H684 C694 0.930 . S
H685 C695 0.930 . S
C686 H680 0.930 . S
C686 C687 1.355 . S
C686 C688 1.415 . S
C687 C686 1.355 . S
C687 C689 1.419 . S
C688 C686 1.415 . S
C688 C693 1.425 . S
C688 C695 1.409 . S
C689 H681 0.930 . S
C689 C687 1.419 . S
C689 C690 1.362 . S
C690 H682 0.930 . S
C690 C689 1.362 . S
C690 C693 1.409 . S
C691 H683 0.930 . S
C691 C692 1.355 . S
C691 C693 1.415 . S
C692 C691 1.355 . S
C692 C694 1.419 . S
C693 C688 1.425 . S
C693 C690 1.409 . S
C693 C691 1.415 . S
C694 H684 0.930 . S
C694 C692 1.419 . S
C694 C695 1.362 . S
C695 H685 0.930 . S
C695 C688 1.409 . S
C695 C694 1.362 . S
H696 C702 0.930 . S
H697 C705 0.930 . S
H698 C706 0.930 . S
H699 C707 0.930 . S
H700 C710 0.930 . S
H701 C711 0.930 . S
C702 H696 0.930 . S
C702 C703 1.355 . S
C702 C704 1.415 . S
C703 C702 1.355 . S
C703 C705 1.419 . S
C704 C702 1.415 . S
C704 C709 1.425 . S
C704 C711 1.409 . S
C705 H697 0.930 . S
C705 C703 1.419 . S
C705 C706 1.362 . S
C706 H698 0.930 . S
C706 C705 1.362 . S
C706 C709 1.409 . S
C707 H699 0.930 . S
C707 C708 1.355 . S
C707 C709 1.415 . S
C708 C707 1.355 . S
C708 C710 1.419 . S
C709 C704 1.425 . S
C709 C706 1.409 . S
C709 C707 1.415 . S
C710 H700 0.930 . S
C710 C708 1.419 . S
C710 C711 1.362 . S
C711 H701 0.930 . S
C711 C704 1.409 . S
C711 C710 1.362 . S
H712 C718 0.930 . S
H713 C721 0.930 . S
H714 C722 0.930 . S
H715 C723 0.930 . S
H716 C726 0.930 . S
H717 C727 0.930 . S
C718 H712 0.930 . S
C718 C719 1.355 . S
C718 C720 1.415 . S
C719 C718 1.355 . S
C719 C721 1.419 . S
C720 C718 1.415 . S
C720 C725 1.425 . S
C720 C727 1.409 . S
C721 H713 0.930 . S
C721 C719 1.419 . S
C721 C722 1.362 . S
C722 H714 0.930 . S
C722 C721 1.362 . S
C722 C725 1.409 . S
C723 H715 0.930 . S
C723 C724 1.355 . S
C723 C725 1.415 . S
C724 C723 1.355 . S
C724 C726 1.419 . S
C725 C720 1.425 . S
C725 C722 1.409 . S
C725 C723 1.415 . S
C726 H716 0.930 . S
C726 C724 1.419 . S
C726 C727 1.362 . S
C727 H717 0.930 . S
C727 C720 1.409 . S
C727 C726 1.362 . S
H728 C734 0.930 . S
H729 C737 0.930 . S
H730 C738 0.930 1_556 S
H731 C739 0.930 1_556 S
H732 C742 0.930 . S
H733 C743 0.930 . S
C734 H728 0.930 . S
C734 C735 1.355 . S
C734 C736 1.415 . S
C735 C734 1.355 . S
C735 C737 1.419 . S
C736 C734 1.415 . S
C736 C741 1.425 . S
C736 C743 1.409 . S
C737 H729 0.930 . S
C737 C735 1.419 . S
C737 C738 1.362 . S
C738 H730 0.930 1_554 S
C738 C737 1.362 . S
C738 C741 1.409 . S
C739 H731 0.930 1_554 S
C739 C740 1.355 . S
C739 C741 1.415 . S
C740 C739 1.355 . S
C740 C742 1.419 . S
C741 C736 1.425 . S
C741 C738 1.409 . S
C741 C739 1.415 . S
C742 H732 0.930 . S
C742 C740 1.419 . S
C742 C743 1.362 . S
C743 H733 0.930 . S
C743 C736 1.409 . S
C743 C742 1.362 . S
H744 C750 0.930 . S
H745 C753 0.930 . S
H746 C754 0.930 . S
H747 C755 0.930 . S
H748 C758 0.930 . S
H749 C759 0.930 . S
C750 H744 0.930 . S
C750 C751 1.355 . S
C750 C752 1.415 . S
C751 C750 1.355 . S
C751 C753 1.419 . S
C752 C750 1.415 . S
C752 C757 1.425 . S
C752 C759 1.409 . S
C753 H745 0.930 . S
C753 C751 1.419 . S
C753 C754 1.362 . S
C754 H746 0.930 . S
C754 C753 1.362 . S
C754 C757 1.409 . S
C755 H747 0.930 . S
C755 C756 1.355 . S
C755 C757 1.415 . S
C756 C755 1.355 . S
C756 C758 1.419 . S
C757 C752 1.425 . S
C757 C754 1.409 . S
C757 C755 1.415 . S
C758 H748 0.930 . S
C758 C756 1.419 . S
C758 C759 1.362 . S
C759 H749 0.930 . S
C759 C752 1.409 . S
C759 C758 1.362 . S
H760 C766 0.930 . S
H761 C769 0.930 . S
H762 C770 0.930 . S
H763 C771 0.930 . S
H764 C774 0.930 . S
H765 C775 0.930 . S
C766 H760 0.930 . S
C766 C767 1.355 . S
C766 C768 1.415 . S
C767 C766 1.355 . S
C767 C769 1.419 . S
C768 C766 1.415 . S
C768 C773 1.425 . S
C768 C775 1.409 . S
C769 H761 0.930 . S
C769 C767 1.419 . S
C769 C770 1.362 . S
C770 H762 0.930 . S
C770 C769 1.362 . S
C770 C773 1.409 . S
C771 H763 0.930 . S
C771 C772 1.355 . S
C771 C773 1.415 . S
C772 C771 1.355 . S
C772 C774 1.419 . S
C773 C768 1.425 . S
C773 C770 1.409 . S
C773 C771 1.415 . S
C774 H764 0.930 . S
C774 C772 1.419 . S
C774 C775 1.362 . S
C775 H765 0.930 . S
C775 C768 1.409 . S
C775 C774 1.362 . S
H776 C782 0.930 . S
H777 C785 0.930 . S
H778 C786 0.930 . S
H779 C787 0.930 . S
H780 C790 0.930 . S
H781 C791 0.930 . S
C782 H776 0.930 . S
C782 C783 1.355 . S
C782 C784 1.415 . S
C783 C782 1.355 . S
C783 C785 1.419 . S
C784 C782 1.415 . S
C784 C789 1.425 . S
C784 C791 1.409 . S
C785 H777 0.930 . S
C785 C783 1.419 . S
C785 C786 1.362 . S
C786 H778 0.930 . S
C786 C785 1.362 . S
C786 C789 1.409 . S
C787 H779 0.930 . S
C787 C788 1.355 . S
C787 C789 1.415 . S
C788 C787 1.355 . S
C788 C790 1.419 . S
C789 C784 1.425 . S
C789 C786 1.409 . S
C789 C787 1.415 . S
C790 H780 0.930 . S
C790 C788 1.419 . S
C790 C791 1.362 . S
C791 H781 0.930 . S
C791 C784 1.409 . S
C791 C790 1.362 . S
H792 C798 0.930 . S
H793 C801 0.930 . S
H794 C802 0.930 . S
H795 C803 0.930 . S
H796 C806 0.930 . S
H797 C807 0.930 . S
C798 H792 0.930 . S
C798 C799 1.355 . S
C798 C800 1.415 . S
C799 C798 1.355 . S
C799 C801 1.419 . S
C800 C798 1.415 . S
C800 C805 1.425 . S
C800 C807 1.409 . S
C801 H793 0.930 . S
C801 C799 1.419 . S
C801 C802 1.362 . S
C802 H794 0.930 . S
C802 C801 1.362 . S
C802 C805 1.409 . S
C803 H795 0.930 . S
C803 C804 1.355 . S
C803 C805 1.415 . S
C804 C803 1.355 . S
C804 C806 1.419 . S
C805 C800 1.425 . S
C805 C802 1.409 . S
C805 C803 1.415 . S
C806 H796 0.930 . S
C806 C804 1.419 . S
C806 C807 1.362 . S
C807 H797 0.930 . S
C807 C800 1.409 . S
C807 C806 1.362 . S
H808 C814 0.930 . S
H809 C817 0.930 . S
H810 C818 0.930 . S
H811 C819 0.930 . S
H812 C822 0.930 . S
H813 C823 0.930 . S
C814 H808 0.930 . S
C814 C815 1.355 . S
C814 C816 1.415 . S
C815 C814 1.355 . S
C815 C817 1.419 . S
C816 C814 1.415 . S
C816 C821 1.425 . S
C816 C823 1.409 . S
C817 H809 0.930 . S
C817 C815 1.419 . S
C817 C818 1.362 . S
C818 H810 0.930 . S
C818 C817 1.362 . S
C818 C821 1.409 . S
C819 H811 0.930 . S
C819 C820 1.355 . S
C819 C821 1.415 . S
C820 C819 1.355 . S
C820 C822 1.419 . S
C821 C816 1.425 . S
C821 C818 1.409 . S
C821 C819 1.415 . S
C822 H812 0.930 . S
C822 C820 1.419 . S
C822 C823 1.362 . S
C823 H813 0.930 . S
C823 C816 1.409 . S
C823 C822 1.362 . S
H824 C830 0.930 . S
H825 C833 0.930 . S
H826 C834 0.930 . S
H827 C835 0.930 . S
H828 C838 0.930 . S
H829 C839 0.930 . S
C830 H824 0.930 . S
C830 C831 1.355 . S
C830 C832 1.415 . S
C831 C830 1.355 . S
C831 C833 1.419 . S
C832 C830 1.415 . S
C832 C837 1.425 . S
C832 C839 1.409 . S
C833 H825 0.930 . S
C833 C831 1.419 . S
C833 C834 1.362 . S
C834 H826 0.930 . S
C834 C833 1.362 . S
C834 C837 1.409 . S
C835 H827 0.930 . S
C835 C836 1.355 . S
C835 C837 1.415 . S
C836 C835 1.355 . S
C836 C838 1.419 . S
C837 C832 1.425 . S
C837 C834 1.409 . S
C837 C835 1.415 . S
C838 H828 0.930 . S
C838 C836 1.419 . S
C838 C839 1.362 . S
C839 H829 0.930 . S
C839 C832 1.409 . S
C839 C838 1.362 . S
H840 C846 0.930 . S
H841 C849 0.930 . S
H842 C850 0.930 . S
H843 C851 0.930 . S
H844 C854 0.930 . S
H845 C855 0.930 . S
C846 H840 0.930 . S
C846 C847 1.355 . S
C846 C848 1.415 . S
C847 C846 1.355 . S
C847 C849 1.419 . S
C848 C846 1.415 . S
C848 C853 1.425 . S
C848 C855 1.409 . S
C849 H841 0.930 . S
C849 C847 1.419 . S
C849 C850 1.362 . S
C850 H842 0.930 . S
C850 C849 1.362 . S
C850 C853 1.409 . S
C851 H843 0.930 . S
C851 C852 1.355 . S
C851 C853 1.415 1_655 S
C852 C851 1.355 . S
C852 C854 1.419 . S
C853 C848 1.425 . S
C853 C850 1.409 . S
C853 C851 1.415 1_455 S
C854 H844 0.930 . S
C854 C852 1.419 . S
C854 C855 1.362 1_655 S
C855 H845 0.930 . S
C855 C848 1.409 . S
C855 C854 1.362 1_455 S
H856 C862 0.930 . S
H857 C865 0.930 . S
H858 C866 0.930 . S
H859 C867 0.930 . S
H860 C870 0.930 . S
H861 C871 0.930 . S
C862 H856 0.930 . S
C862 C863 1.355 . S
C862 C864 1.415 . S
C863 C862 1.355 . S
C863 C865 1.419 . S
C864 C862 1.415 . S
C864 C869 1.425 . S
C864 C871 1.409 . S
C865 H857 0.930 . S
C865 C863 1.419 . S
C865 C866 1.362 . S
C866 H858 0.930 . S
C866 C865 1.362 . S
C866 C869 1.409 . S
C867 H859 0.930 . S
C867 C868 1.355 . S
C867 C869 1.415 . S
C868 C867 1.355 . S
C868 C870 1.419 . S
C869 C864 1.425 . S
C869 C866 1.409 . S
C869 C867 1.415 . S
C870 H860 0.930 . S
C870 C868 1.419 . S
C870 C871 1.362 . S
C871 H861 0.930 . S
C871 C864 1.409 . S
C871 C870 1.362 . S
H872 C878 0.930 . S
H873 C881 0.930 . S
H874 C882 0.930 . S
H875 C883 0.930 . S
H876 C886 0.930 . S
H877 C887 0.930 . S
C878 H872 0.930 . S
C878 C879 1.355 . S
C878 C880 1.415 . S
C879 C878 1.355 . S
C879 C881 1.419 . S
C880 C878 1.415 . S
C880 C885 1.425 . S
C880 C887 1.409 . S
C881 H873 0.930 . S
C881 C879 1.419 . S
C881 C882 1.362 . S
C882 H874 0.930 . S
C882 C881 1.362 . S
C882 C885 1.409 . S
C883 H875 0.930 . S
C883 C884 1.355 . S
C883 C885 1.415 . S
C884 C883 1.355 . S
C884 C886 1.419 . S
C885 C880 1.425 . S
C885 C882 1.409 . S
C885 C883 1.415 . S
C886 H876 0.930 . S
C886 C884 1.419 . S
C886 C887 1.362 . S
C887 H877 0.930 . S
C887 C880 1.409 . S
C887 C886 1.362 . S
H888 C894 0.930 . S
H889 C897 0.930 . S
H890 C898 0.930 . S
H891 C899 0.930 . S
H892 C902 0.930 . S
H893 C903 0.930 . S
C894 H888 0.930 . S
C894 C895 1.355 . S
C894 C896 1.415 . S
C895 C894 1.355 . S
C895 C897 1.419 . S
C896 C894 1.415 . S
C896 C901 1.425 . S
C896 C903 1.409 . S
C897 H889 0.930 . S
C897 C895 1.419 . S
C897 C898 1.362 . S
C898 H890 0.930 . S
C898 C897 1.362 . S
C898 C901 1.409 . S
C899 H891 0.930 . S
C899 C900 1.355 . S
C899 C901 1.415 . S
C900 C899 1.355 . S
C900 C902 1.419 . S
C901 C896 1.425 . S
C901 C898 1.409 . S
C901 C899 1.415 . S
C902 H892 0.930 . S
C902 C900 1.419 . S
C902 C903 1.362 . S
C903 H893 0.930 . S
C903 C896 1.409 . S
C903 C902 1.362 . S
H904 C910 0.930 . S
H905 C913 0.930 . S
H906 C914 0.930 . S
H907 C915 0.930 . S
H908 C918 0.930 . S
H909 C919 0.930 . S
C910 H904 0.930 . S
C910 C911 1.355 . S
C910 C912 1.415 . S
C911 C910 1.355 . S
C911 C913 1.419 . S
C912 C910 1.415 . S
C912 C917 1.425 . S
C912 C919 1.409 . S
C913 H905 0.930 . S
C913 C911 1.419 . S
C913 C914 1.362 . S
C914 H906 0.930 . S
C914 C913 1.362 . S
C914 C917 1.409 . S
C915 H907 0.930 . S
C915 C916 1.355 . S
C915 C917 1.415 . S
C916 C915 1.355 . S
C916 C918 1.419 . S
C917 C912 1.425 . S
C917 C914 1.409 . S
C917 C915 1.415 . S
C918 H908 0.930 . S
C918 C916 1.419 . S
C918 C919 1.362 . S
C919 H909 0.930 . S
C919 C912 1.409 . S
C919 C918 1.362 . S
H920 C926 0.930 . S
H921 C929 0.930 . S
H922 C930 0.930 1_455 S
H923 C931 0.930 . S
H924 C934 0.930 . S
H925 C935 0.930 . S
C926 H920 0.930 . S
C926 C927 1.355 1_545 S
C926 C928 1.415 . S
C927 C926 1.355 1_565 S
C927 C929 1.419 . S
C928 C926 1.415 . S
C928 C933 1.425 . S
C928 C935 1.409 . S
C929 H921 0.930 . S
C929 C927 1.419 . S
C929 C930 1.362 . S
C930 H922 0.930 1_655 S
C930 C929 1.362 . S
C930 C933 1.409 1_565 S
C931 H923 0.930 . S
C931 C932 1.355 . S
C931 C933 1.415 1_455 S
C932 C931 1.355 . S
C932 C934 1.419 1_455 S
C933 C928 1.425 . S
C933 C930 1.409 1_545 S
C933 C931 1.415 1_655 S
C934 H924 0.930 . S
C934 C932 1.419 1_655 S
C934 C935 1.362 . S
C935 H925 0.930 . S
C935 C928 1.409 . S
C935 C934 1.362 . S
C367 N6 1.369 . S
C372 N336 1.398 . S
C383 C271 2.205 1_565 S
C388 C31 2.224 1_655 S
C399 N66 1.968 . S
C404 C241 2.100 . S
C415 C91 2.220 . S
C420 C301 2.203 . S
C431 N126 1.205 . S
C436 N306 1.154 . S
C447 N156 1.627 . S
C452 C331 1.653 . S
C463 N276 1.726 . S
C468 C181 1.776 1_556 S
C479 N216 0.881 . S
C484 N246 0.716 . S
C495 N96 1.492 . S
C500 C121 1.610 . S
C511 C1 2.379 . S
C516 C151 2.412 1_455 S
C527 N36 0.770 . S
C532 N186 0.606 . S
C543 C211 2.280 . S
C548 C61 2.267 1_554 S
C559 C16 1.130 . S
C564 C250 1.101 . S
C575 C57 1.477 1_655 S
C580 C310 1.435 . S
C591 N344 0.950 . S
C596 C76 0.936 . S
C607 C117 1.752 . S
C612 C280 1.747 . S
C623 C136 0.926 . S
C628 N284 0.918 . S
C639 N254 0.965 . S
C644 C166 0.935 . S
C655 N314 1.113 . S
C660 C207 1.110 . S
C671 C340 1.202 . S
C676 C226 1.201 . S
C687 C10 1.606 . S
C692 C106 1.579 . S
C703 C27 0.996 . S
C708 N44 0.984 1_545 S
C719 C46 1.695 . S
C724 C70 1.670 . S
C735 N104 1.223 1_565 S
C740 C87 1.217 . S
C751 C177 1.250 . S
C756 C130 1.226 . S
C767 C160 1.646 . S
C772 C196 1.677 . S
C783 N194 0.962 . S
C788 C237 0.970 . S
C799 C147 1.154 . S
C804 C220 1.159 . S
C815 C256 1.443 . S
C820 C100 1.427 . S
C831 N164 1.353 . S
C836 C297 1.317 . S
C847 C267 1.085 . S
C852 C190 1.039 . S
C863 C327 1.146 . S
C868 N224 1.158 . S
C879 N134 0.565 . S
C884 C346 0.631 . S
C895 C357 0.886 . S
C900 C40 0.935 . S
C911 N74 1.218 . S
C916 C286 1.227 . S
C927 C316 1.192 . S
C932 N14 1.201 . S
