# Generated by pormake.
# Topology dia, (4)-cn, num edge types: 1
# Building blocks:
#     Node 0, Type 0, BuildingBlock: CEKHIL_clean_sbu_0, # of connection points: 4
#     Node 1, Type 0, BuildingBlock: CEKHIL_clean_sbu_0, # of connection points: 4
#     Node 2, Type 0, BuildingBlock: CEKHIL_clean_sbu_0, # of connection points: 4
#     Node 3, Type 0, BuildingBlock: CEKHIL_clean_sbu_0, # of connection points: 4
#     Node 4, Type 0, BuildingBlock: CEKHIL_clean_sbu_0, # of connection points: 4
#     Node 5, Type 0, BuildingBlock: CEKHIL_clean_sbu_0, # of connection points: 4
#     Node 6, Type 0, BuildingBlock: CEKHIL_clean_sbu_0, # of connection points: 4
#     Node 7, Type 0, BuildingBlock: CEKHIL_clean_sbu_0, # of connection points: 4
#     Edge 8, Type (0, 0), BuildingBlock: UVAHIK_clean_linker_0, # of connection points: 2
#     Edge 9, Type (0, 0), BuildingBlock: UVAHIK_clean_linker_0, # of connection points: 2
#     Edge 10, Type (0, 0), BuildingBlock: UVAHIK_clean_linker_0, # of connection points: 2
#     Edge 11, Type (0, 0), BuildingBlock: UVAHIK_clean_linker_0, # of connection points: 2
#     Edge 12, Type (0, 0), BuildingBlock: UVAHIK_clean_linker_0, # of connection points: 2
#     Edge 13, Type (0, 0), BuildingBlock: UVAHIK_clean_linker_0, # of connection points: 2
#     Edge 14, Type (0, 0), BuildingBlock: UVAHIK_clean_linker_0, # of connection points: 2
#     Edge 15, Type (0, 0), BuildingBlock: UVAHIK_clean_linker_0, # of connection points: 2
#     Edge 16, Type (0, 0), BuildingBlock: UVAHIK_clean_linker_0, # of connection points: 2
#     Edge 17, Type (0, 0), BuildingBlock: UVAHIK_clean_linker_0, # of connection points: 2
#     Edge 18, Type (0, 0), BuildingBlock: UVAHIK_clean_linker_0, # of connection points: 2
#     Edge 19, Type (0, 0), BuildingBlock: UVAHIK_clean_linker_0, # of connection points: 2
#     Edge 20, Type (0, 0), BuildingBlock: UVAHIK_clean_linker_0, # of connection points: 2
#     Edge 21, Type (0, 0), BuildingBlock: UVAHIK_clean_linker_0, # of connection points: 2
#     Edge 22, Type (0, 0), BuildingBlock: UVAHIK_clean_linker_0, # of connection points: 2
#     Edge 23, Type (0, 0), BuildingBlock: UVAHIK_clean_linker_0, # of connection points: 2
# Relax obj value: 0.001
# Max RMSD: 0.019
# Mean RMSD: 0.019
data_MOF--net-dia--node1-CEKHIL_clean_sbu_0--edge1-UVAHIK_clean_linker_0
_symmetry_space_group_name_H-M    P1
_symmetry_Int_Tables_number       1
_symmetry_cell_setting            triclinic
loop_
_symmetry_equiv_pos_as_xyz
'x, y, z'
_cell_length_a     49.860538
_cell_length_b     49.957139
_cell_length_c     32.24232
_cell_angle_alpha  90.232174
_cell_angle_beta   90.334895
_cell_angle_gamma 91.650311
loop_
_atom_site_label
_atom_site_type_symbol
_atom_site_fract_x
_atom_site_fract_y
_atom_site_fract_z
_atom_type_partial_charge
Co0 Co 0.13012 0.13712 0.63112 0.0
O1 O 0.10327 0.16365 0.6236 0.0
O2 O 0.10707 0.13884 0.67969 0.0
C3 C 0.16452 0.16334 0.60864 0.0
O4 O 0.15657 0.10849 0.65017 0.0
Co5 Co 0.16186 0.11674 0.5545 0.0
O6 O 0.18507 0.10136 0.5976 0.0
C7 C 0.10568 0.09847 0.56724 0.0
C8 C 0.09474 0.15784 0.66043 0.0
C9 C 0.17788 0.09795 0.63512 0.0
O10 O 0.10555 0.10924 0.60368 0.0
O11 O 0.12536 0.10108 0.54213 0.0
O12 O 0.15646 0.16537 0.64675 0.0
O13 O 0.15037 0.14743 0.58521 0.0
Co14 Co 0.86892 0.37622 0.86951 0.0
O15 O 0.84197 0.40282 0.87511 0.0
O16 O 0.86574 0.39672 0.81847 0.0
C17 C 0.84381 0.34278 0.89746 0.0
O18 O 0.89761 0.34952 0.85222 0.0
Co19 Co 0.89176 0.34883 0.94838 0.0
O20 O 0.90667 0.32375 0.90743 0.0
C21 C 0.90641 0.40516 0.92982 0.0
C22 C 0.84697 0.40969 0.83718 0.0
C23 C 0.90879 0.32909 0.86892 0.0
O24 O 0.89679 0.4025 0.89277 0.0
O25 O 0.90408 0.3869 0.95742 0.0
O26 O 0.84096 0.34863 0.85845 0.0
O27 O 0.85999 0.35834 0.9182 0.0
Co28 Co 0.62806 0.1372 0.13084 0.0
O29 O 0.60053 0.16323 0.12547 0.0
O30 O 0.60715 0.13902 0.18162 0.0
C31 C 0.66108 0.16368 0.1046 0.0
O32 O 0.65548 0.10903 0.14768 0.0
Co33 Co 0.65708 0.11671 0.05186 0.0
O34 O 0.68199 0.10146 0.09282 0.0
C35 C 0.60109 0.09924 0.06898 0.0
C36 C 0.59358 0.15745 0.16309 0.0
C37 C 0.67625 0.09845 0.13102 0.0
O38 O 0.60273 0.10902 0.10604 0.0
O39 O 0.6197 0.10238 0.04209 0.0
O40 O 0.6548 0.16567 0.14354 0.0
O41 O 0.64612 0.14749 0.08288 0.0
Co42 Co 0.86795 0.8777 0.37364 0.0
O43 O 0.84215 0.90537 0.37996 0.0
O44 O 0.86466 0.89803 0.32247 0.0
C45 C 0.84207 0.8453 0.40296 0.0
O46 O 0.89531 0.84987 0.35544 0.0
Co47 Co 0.89086 0.84902 0.45148 0.0
O48 O 0.90334 0.82309 0.40985 0.0
C49 C 0.90947 0.90418 0.43077 0.0
C50 C 0.84667 0.91176 0.34169 0.0
C51 C 0.90551 0.82871 0.37147 0.0
O52 O 0.89733 0.90294 0.39534 0.0
O53 O 0.9074 0.88571 0.45809 0.0
O54 O 0.83881 0.85111 0.36402 0.0
O55 O 0.85916 0.8603 0.4229 0.0
Co56 Co 0.12631 0.63777 0.13006 0.0
O57 O 0.10075 0.66567 0.12516 0.0
O58 O 0.10494 0.64012 0.1804 0.0
C59 C 0.16117 0.66237 0.10525 0.0
O60 O 0.15183 0.60777 0.1461 0.0
Co61 Co 0.15368 0.61671 0.04992 0.0
O62 O 0.17738 0.59918 0.09046 0.0
C63 C 0.0967 0.60376 0.06601 0.0
C64 C 0.09292 0.65979 0.16232 0.0
C65 C 0.17179 0.59619 0.12875 0.0
O66 O 0.09951 0.61146 0.10404 0.0
O67 O 0.1151 0.60686 0.03879 0.0
O68 O 0.15471 0.66435 0.14413 0.0
O69 O 0.14527 0.64756 0.08283 0.0
Co70 Co 0.36631 0.37698 0.36801 0.0
O71 O 0.34005 0.40412 0.3755 0.0
O72 O 0.36341 0.39866 0.31825 0.0
C73 C 0.34067 0.34335 0.3941 0.0
O74 O 0.39428 0.35016 0.3487 0.0
Co75 Co 0.38922 0.34685 0.44431 0.0
O76 O 0.40118 0.3215 0.40123 0.0
C77 C 0.40578 0.40314 0.42853 0.0
C78 C 0.34497 0.41159 0.3378 0.0
C79 C 0.40382 0.32833 0.3634 0.0
O80 O 0.39502 0.40193 0.39209 0.0
O81 O 0.40361 0.38415 0.45497 0.0
O82 O 0.33758 0.35052 0.35571 0.0
O83 O 0.35734 0.35789 0.41574 0.0
Co84 Co 0.36889 0.87503 0.87408 0.0
O85 O 0.34183 0.90139 0.88175 0.0
O86 O 0.36487 0.89635 0.82411 0.0
C87 C 0.3445 0.84082 0.90144 0.0
O88 O 0.39753 0.84897 0.85437 0.0
Co89 Co 0.39306 0.84591 0.95077 0.0
O90 O 0.4109 0.82403 0.90852 0.0
C91 C 0.40882 0.90219 0.93315 0.0
C92 C 0.34629 0.9089 0.84394 0.0
C93 C 0.41126 0.82987 0.87009 0.0
O94 O 0.39705 0.90107 0.89742 0.0
O95 O 0.40737 0.88323 0.95969 0.0
O96 O 0.34095 0.84741 0.86287 0.0
O97 O 0.36088 0.85609 0.92227 0.0
Co98 Co 0.62828 0.63535 0.62793 0.0
O99 O 0.60228 0.66285 0.62302 0.0
O100 O 0.60637 0.63692 0.67785 0.0
C101 C 0.66292 0.66083 0.60432 0.0
O102 O 0.65425 0.60573 0.64393 0.0
Co103 Co 0.65664 0.61543 0.548 0.0
O104 O 0.68055 0.59832 0.5887 0.0
C105 C 0.59998 0.60051 0.5632 0.0
C106 C 0.59427 0.65661 0.65993 0.0
C107 C 0.67468 0.59482 0.62679 0.0
O108 O 0.6022 0.60868 0.60107 0.0
O109 O 0.61853 0.60393 0.53629 0.0
O110 O 0.65604 0.66234 0.64307 0.0
O111 O 0.6475 0.64591 0.58125 0.0
C112 C 0.30027 0.31268 0.39686 0.0
C113 C 0.32542 0.32092 0.4129 0.0
C114 C 0.28444 0.29372 0.41805 0.0
C115 C 0.28554 0.23909 0.49214 0.0
H116 H 0.21498 0.26197 0.5249 0.0
C117 C 0.20034 0.17012 0.55616 0.0
C118 C 0.18726 0.17913 0.59183 0.0
C119 C 0.21964 0.18636 0.53672 0.0
C120 C 0.2347 0.25545 0.51613 0.0
H121 H 0.35441 0.31493 0.46217 0.0
H122 H 0.32708 0.2812 0.49836 0.0
H123 H 0.24354 0.29145 0.48231 0.0
H124 H 0.18448 0.21173 0.63596 0.0
H125 H 0.21792 0.24063 0.60104 0.0
H126 H 0.27642 0.20282 0.52525 0.0
C127 C 0.3195 0.28965 0.46985 0.0
C128 C 0.25085 0.27212 0.49147 0.0
C129 C 0.33505 0.30898 0.44922 0.0
C130 C 0.19442 0.20431 0.60861 0.0
C131 C 0.21335 0.22084 0.58858 0.0
C132 C 0.26917 0.22218 0.51614 0.0
C133 C 0.29384 0.28235 0.45497 0.0
C134 C 0.2764 0.26409 0.47938 0.0
C135 C 0.22578 0.21209 0.55215 0.0
C136 C 0.24369 0.23032 0.52847 0.0
H137 H 0.29239 0.32168 0.369 0.0
H138 H 0.26471 0.28822 0.40599 0.0
H139 H 0.30523 0.23257 0.48319 0.0
H140 H 0.19523 0.15074 0.54267 0.0
H141 H 0.22888 0.17927 0.50856 0.0
C142 C 0.71455 0.56553 0.63174 0.0
C143 C 0.6923 0.57692 0.65113 0.0
C144 C 0.73114 0.54825 0.65316 0.0
C145 C 0.75253 0.52742 0.75764 0.0
H146 H 0.77669 0.4648 0.69867 0.0
C147 C 0.81064 0.44325 0.83864 0.0
C148 C 0.83097 0.43054 0.81653 0.0
C149 C 0.7943 0.46183 0.81931 0.0
C150 C 0.7705 0.48236 0.71546 0.0
H151 H 0.67055 0.57915 0.70901 0.0
H152 H 0.69972 0.54867 0.74665 0.0
H153 H 0.74638 0.49518 0.66459 0.0
H154 H 0.85042 0.42793 0.75683 0.0
H155 H 0.8221 0.46071 0.72303 0.0
H156 H 0.77678 0.51461 0.80851 0.0
C157 C 0.70421 0.55337 0.71463 0.0
C158 C 0.75299 0.49978 0.69594 0.0
C159 C 0.68742 0.57075 0.69302 0.0
C160 C 0.83491 0.43728 0.77471 0.0
C161 C 0.81852 0.45595 0.7553 0.0
C162 C 0.77013 0.50999 0.7772 0.0
C163 C 0.72614 0.5417 0.69474 0.0
C164 C 0.74387 0.52263 0.71663 0.0
C165 C 0.79781 0.4683 0.77727 0.0
C166 C 0.77944 0.48724 0.75632 0.0
H167 H 0.71928 0.56985 0.59968 0.0
H168 H 0.74811 0.54015 0.63704 0.0
H169 H 0.74619 0.54498 0.77434 0.0
H170 H 0.80697 0.43853 0.8709 0.0
H171 H 0.77842 0.47057 0.83716 0.0
C172 C 0.55419 0.08091 0.0817 0.0
C173 C 0.57683 0.08343 0.05605 0.0
C174 C 0.53156 0.0658 0.0686 0.0
C175 C 0.49589 0.01756 0.04463 0.0
H176 H 0.47734 0.01279 0.92771 0.0
C177 C 0.44443 0.92412 0.97682 0.0
C178 C 0.42516 0.92619 0.94509 0.0
C179 C 0.45911 0.94656 0.99053 0.0
C180 C 0.48187 0.01417 0.96055 0.0
H181 H 0.59324 0.07204 0.99638 0.0
H182 H 0.55448 0.04552 0.97437 0.0
H183 H 0.50895 0.04762 0.95187 0.0
H184 H 0.40647 0.95348 0.90237 0.0
H185 H 0.43218 0.99316 0.92684 0.0
H186 H 0.46877 0.9842 0.05339 0.0
C187 C 0.55376 0.05566 0.00409 0.0
C188 C 0.50025 0.03393 0.97437 0.0
C189 C 0.5762 0.07071 0.01702 0.0
C190 C 0.42125 0.95127 0.92678 0.0
C191 C 0.43593 0.97395 0.94083 0.0
C192 C 0.47735 0.99797 0.03089 0.0
C193 C 0.53116 0.05293 0.02964 0.0
C194 C 0.50822 0.03521 0.01632 0.0
C195 C 0.45482 0.97182 0.97323 0.0
C196 C 0.47092 0.99539 0.98847 0.0
H197 H 0.55394 0.09057 0.11182 0.0
H198 H 0.51439 0.0642 0.08895 0.0
H199 H 0.50155 0.0179 0.07711 0.0
H200 H 0.4483 0.90504 0.99118 0.0
H201 H 0.47409 0.94397 0.01454 0.0
C202 C 0.92965 0.81695 0.30512 0.0
C203 C 0.9216 0.81034 0.34564 0.0
C204 C 0.94643 0.80001 0.28278 0.0
C205 C 0.97226 0.73038 0.28159 0.0
H206 H 0.03097 0.76252 0.21927 0.0
C207 C 0.06254 0.66968 0.22266 0.0
C208 C 0.07184 0.67563 0.18258 0.0
C209 C 0.04311 0.68552 0.24134 0.0
C210 C 0.01453 0.75318 0.2362 0.0
H211 H 0.92438 0.78012 0.3937 0.0
H212 H 0.95351 0.75126 0.35541 0.0
H213 H 0.99836 0.79112 0.25203 0.0
H214 H 0.06773 0.70275 0.13061 0.0
H215 H 0.0341 0.73004 0.16294 0.0
H216 H 0.98874 0.69244 0.26624 0.0
C217 C 0.94678 0.76926 0.34048 0.0
C218 C 0.99573 0.76962 0.25487 0.0
C219 C 0.93016 0.78608 0.36267 0.0
C220 C 0.06113 0.69758 0.16158 0.0
C221 C 0.04192 0.7134 0.18023 0.0
C222 C 0.99113 0.71395 0.26307 0.0
C223 C 0.9554 0.77603 0.30038 0.0
C224 C 0.97442 0.75847 0.27808 0.0
C225 C 0.03273 0.70772 0.22042 0.0
C226 C 0.01258 0.72514 0.24027 0.0
H227 H 0.92345 0.83541 0.29096 0.0
H228 H 0.9524 0.80573 0.25175 0.0
H229 H 0.95589 0.72099 0.29861 0.0
H230 H 0.07039 0.65295 0.23968 0.0
H231 H 0.0366 0.68069 0.27247 0.0
C232 C 0.3329 0.93665 0.78244 0.0
C233 C 0.32998 0.92998 0.82449 0.0
C234 C 0.31624 0.95545 0.76402 0.0
C235 C 0.26943 0.01039 0.78808 0.0
H236 H 0.2435 0.99567 0.67656 0.0
C237 C 0.18886 0.0741 0.70251 0.0
C238 C 0.19466 0.07998 0.66078 0.0
C239 C 0.20467 0.05616 0.72491 0.0
C240 C 0.25068 1.0002 0.70765 0.0
H241 H 0.30756 0.93832 0.88032 0.0
H242 H 0.27853 0.97078 0.84826 0.0
H243 H 0.27306 0.96435 0.71012 0.0
H244 H 0.2223 0.0718 0.61056 0.0
H245 H 0.24924 0.0411 0.64914 0.0
H246 H 0.24682 0.04633 0.78533 0.0
C247 C 0.2938 0.96175 0.82948 0.0
C248 C 0.26777 0.98226 0.72685 0.0
C249 C 0.3104 0.94296 0.84783 0.0
C250 C 0.21686 0.0678 0.64246 0.0
C251 C 0.23237 0.04993 0.66456 0.0
C252 C 0.25221 0.02836 0.76883 0.0
C253 C 0.29627 0.96808 0.7872 0.0
C254 C 0.27768 0.98721 0.76716 0.0
C255 C 0.22639 0.04357 0.70587 0.0
C256 C 0.24292 0.02365 0.72812 0.0
H257 H 0.34781 0.92709 0.7636 0.0
H258 H 0.31906 0.96011 0.73154 0.0
H259 H 0.27678 0.015 0.81904 0.0
H260 H 0.17201 0.0831 0.71771 0.0
H261 H 0.19954 0.05167 0.75677 0.0
C262 C 0.92949 0.44911 0.91197 0.0
C263 C 0.9212 0.43019 0.94176 0.0
C264 C 0.94466 0.47193 0.92385 0.0
C265 C 0.96461 0.51369 0.01495 0.0
H266 H 0.02973 0.52776 0.95278 0.0
C267 C 0.05587 0.57476 0.08056 0.0
C268 C 0.07164 0.58972 0.05257 0.0
C269 C 0.03417 0.55883 0.06614 0.0
C270 C 0.01139 0.52453 0.97011 0.0
H271 H 0.92149 0.42105 0.00764 0.0
H272 H 0.94787 0.46047 0.02798 0.0
H273 H 0.99744 0.49395 0.92801 0.0
H274 H 0.07581 0.60149 0.98817 0.0
H275 H 0.0377 0.57449 0.96335 0.0
H276 H 0.97885 0.54399 0.0575 0.0
C277 C 0.9426 0.45783 0.99555 0.0
C278 C 0.99287 0.50511 0.95583 0.0
C279 C 0.92767 0.43505 0.98372 0.0
C280 C 0.06433 0.58976 0.01041 0.0
C281 C 0.04255 0.57418 0.99613 0.0
C282 C 0.98311 0.53324 0.02917 0.0
C283 C 0.95155 0.47636 0.96576 0.0
C284 C 0.96951 0.49915 0.97844 0.0
C285 C 0.0277 0.55787 0.02355 0.0
C286 C 0.00691 0.53862 0.00722 0.0
H287 H 0.92475 0.44604 0.87944 0.0
H288 H 0.95117 0.486 0.90025 0.0
H289 H 0.9466 0.5097 0.03279 0.0
H290 H 0.06106 0.57435 0.11322 0.0
H291 H 0.02326 0.54639 0.0881 0.0
C292 C 0.43823 0.32098 0.30793 0.0
C293 C 0.41974 0.31057 0.33676 0.0
C294 C 0.45597 0.30399 0.28767 0.0
C295 C 0.48421 0.2354 0.29748 0.0
H296 H 0.51233 0.2512 0.18838 0.0
C297 C 0.57095 0.17514 0.22679 0.0
C298 C 0.57186 0.1722 0.18352 0.0
C299 C 0.55189 0.19153 0.24517 0.0
C300 C 0.50445 0.24613 0.21864 0.0
H301 H 0.40409 0.27415 0.365 0.0
H302 H 0.43361 0.2445 0.32821 0.0
H303 H 0.47919 0.28002 0.21835 0.0
H304 H 0.55277 0.18306 0.12569 0.0
H305 H 0.51887 0.21027 0.15747 0.0
H306 H 0.50845 0.2008 0.29697 0.0
C307 C 0.43559 0.2658 0.32245 0.0
C308 C 0.48566 0.26307 0.23624 0.0
C309 C 0.41836 0.28278 0.34325 0.0
C310 C 0.55275 0.18514 0.15915 0.0
C311 C 0.53344 0.20104 0.17746 0.0
C312 C 0.50265 0.21822 0.27961 0.0
C313 C 0.45524 0.27615 0.29521 0.0
C314 C 0.47521 0.258 0.27598 0.0
C315 C 0.53298 0.20498 0.22072 0.0
C316 C 0.51313 0.2233 0.23989 0.0
H317 H 0.43991 0.34236 0.30264 0.0
H318 H 0.47087 0.31291 0.26731 0.0
H319 H 0.47725 0.23096 0.32849 0.0
H320 H 0.58557 0.1656 0.24634 0.0
H321 H 0.55256 0.1942 0.27849 0.0
C322 C 0.80995 0.8057 0.40185 0.0
C323 C 0.82744 0.82318 0.42385 0.0
C324 C 0.79532 0.78567 0.42279 0.0
C325 C 0.76731 0.77103 0.52473 0.0
H326 H 0.75954 0.69808 0.48407 0.0
C327 C 0.7028 0.69225 0.6118 0.0
C328 C 0.68597 0.67594 0.58674 0.0
C329 C 0.72327 0.70802 0.59395 0.0
C330 C 0.76135 0.71843 0.49569 0.0
H331 H 0.84386 0.83306 0.48473 0.0
H332 H 0.81824 0.79836 0.52105 0.0
H333 H 0.78866 0.73014 0.44748 0.0
H334 H 0.67777 0.66268 0.52363 0.0
H335 H 0.71275 0.69051 0.49258 0.0
H336 H 0.73936 0.75984 0.57197 0.0
C337 C 0.81572 0.80017 0.48778 0.0
C338 C 0.77803 0.73672 0.47472 0.0
C339 C 0.83045 0.81996 0.4669 0.0
C340 C 0.69044 0.67505 0.54381 0.0
C341 C 0.7107 0.69088 0.52599 0.0
C342 C 0.75043 0.75285 0.54544 0.0
C343 C 0.79781 0.78302 0.46605 0.0
C344 C 0.78097 0.76324 0.48888 0.0
C345 C 0.72714 0.70785 0.55072 0.0
C346 C 0.74701 0.7264 0.53091 0.0
H347 H 0.8073 0.80773 0.36865 0.0
H348 H 0.78149 0.77277 0.40537 0.0
H349 H 0.76902 0.79146 0.53605 0.0
H350 H 0.69988 0.69319 0.64503 0.0
H351 H 0.73586 0.72057 0.61397 0.0
C352 C 0.18501 0.57308 0.19557 0.0
C353 C 0.18922 0.57816 0.15316 0.0
C354 C 0.20173 0.55571 0.21736 0.0
C355 C 0.24883 0.50051 0.19933 0.0
H356 H 0.27548 0.51744 0.30975 0.0
C357 C 0.33217 0.43911 0.27579 0.0
C358 C 0.32903 0.43275 0.31792 0.0
C359 C 0.31551 0.45767 0.25679 0.0
C360 C 0.26803 0.51226 0.27905 0.0
H361 H 0.21485 0.56906 0.10087 0.0
H362 H 0.24358 0.53942 0.13851 0.0
H363 H 0.24459 0.54758 0.27561 0.0
H364 H 0.30631 0.44145 0.37333 0.0
H365 H 0.27731 0.47349 0.34026 0.0
H366 H 0.27209 0.46525 0.20259 0.0
C367 C 0.22719 0.54837 0.15495 0.0
C368 C 0.25025 0.52954 0.25953 0.0
C369 C 0.21067 0.56563 0.13337 0.0
C370 C 0.30933 0.44587 0.3408 0.0
C371 C 0.29273 0.46441 0.32187 0.0
C372 C 0.26654 0.48328 0.21879 0.0
C373 C 0.2229 0.54297 0.19712 0.0
C374 C 0.24061 0.524 0.21924 0.0
C375 C 0.29534 0.47034 0.27947 0.0
C376 C 0.27655 0.48897 0.25881 0.0
H377 H 0.16877 0.58238 0.21189 0.0
H378 H 0.1978 0.55191 0.24983 0.0
H379 H 0.24142 0.49529 0.16862 0.0
H380 H 0.34717 0.42941 0.2573 0.0
H381 H 0.3184 0.46204 0.22422 0.0
C382 C 0.83163 0.31727 0.96097 0.0
C383 C 0.82876 0.32079 0.91797 0.0
C384 C 0.81594 0.29818 0.98172 0.0
C385 C 0.77487 0.23687 0.96891 0.0
H386 H 0.73778 0.26244 0.06616 0.0
C387 C 0.68677 0.17798 0.04229 0.0
C388 C 0.68335 0.17911 0.08546 0.0
C389 C 0.70666 0.19358 0.02314 0.0
C390 C 0.74836 0.25478 0.0396 0.0
H391 H 0.80799 0.3064 0.86264 0.0
H392 H 0.78048 0.27263 0.89914 0.0
H393 H 0.76862 0.29247 0.0294 0.0
H394 H 0.69855 0.19679 0.1427 0.0
H395 H 0.73393 0.22375 0.10929 0.0
H396 H 0.75479 0.19911 0.97917 0.0
C397 C 0.79494 0.28479 0.91663 0.0
C398 C 0.76592 0.27204 0.01842 0.0
C399 C 0.81057 0.30412 0.89581 0.0
C400 C 0.70068 0.19565 0.10933 0.0
C401 C 0.72081 0.21117 0.09014 0.0
C402 C 0.7575 0.21949 0.99035 0.0
C403 C 0.79716 0.28204 0.95989 0.0
C404 C 0.77916 0.26332 0.98271 0.0
C405 C 0.7238 0.21054 0.04673 0.0
C406 C 0.74381 0.22833 0.0257 0.0
H407 H 0.8456 0.32972 0.97892 0.0
H408 H 0.81829 0.29621 0.01499 0.0
H409 H 0.7851 0.2296 0.94172 0.0
H410 H 0.67364 0.16548 0.02301 0.0
H411 H 0.70802 0.19291 0.98965 0.0
C412 C 0.83455 0.93927 0.27916 0.0
C413 C 0.83087 0.93281 0.32115 0.0
C414 C 0.81834 0.95813 0.25985 0.0
C415 C 0.77093 0.01306 0.2822 0.0
H416 H 0.74702 0.99889 0.16949 0.0
C417 C 0.68889 0.07474 0.19763 0.0
C418 C 0.69409 0.08106 0.15588 0.0
C419 C 0.70553 0.05729 0.21942 0.0
C420 C 0.75367 0.0033 0.20088 0.0
H421 H 0.80744 0.94145 0.37587 0.0
H422 H 0.77914 0.97378 0.34229 0.0
H423 H 0.77671 0.96787 0.20348 0.0
H424 H 0.72159 0.07433 0.10497 0.0
H425 H 0.75011 0.04444 0.14262 0.0
H426 H 0.74755 0.04846 0.27947 0.0
C427 C 0.79474 0.96471 0.32424 0.0
C428 C 0.77084 0.98552 0.22036 0.0
C429 C 0.81093 0.94596 0.34348 0.0
C430 C 0.7166 0.06988 0.1369 0.0
C431 C 0.73301 0.0525 0.15847 0.0
C432 C 0.75362 0.03082 0.26272 0.0
C433 C 0.79802 0.97095 0.28205 0.0
C434 C 0.77987 0.99018 0.26123 0.0
C435 C 0.7276 0.04568 0.19982 0.0
C436 C 0.74494 0.02627 0.22167 0.0
H437 H 0.84975 0.92956 0.26109 0.0
H438 H 0.82177 0.96268 0.22748 0.0
H439 H 0.77765 0.01754 0.31352 0.0
H440 H 0.67181 0.08296 0.21331 0.0
H441 H 0.70076 0.05241 0.25127 0.0
C442 C 0.92772 0.95096 0.41667 0.0
C443 C 0.9268 0.92785 0.44148 0.0
C444 C 0.94367 0.97332 0.42856 0.0
C445 C 0.99293 0.00947 0.45035 0.0
H446 H 0.9985 0.02633 0.56776 0.0
C447 C 0.08511 0.06413 0.51957 0.0
C448 C 0.08223 0.08205 0.55289 0.0
C449 C 0.06321 0.04904 0.50457 0.0
C450 C 0.99691 0.02229 0.5348 0.0
H451 H 0.9426 0.91 0.49766 0.0
H452 H 0.97024 0.9484 0.51767 0.0
H453 H 0.9647 0.99375 0.54351 0.0
H454 H 0.05396 0.09823 0.59651 0.0
H455 H 0.01535 0.07193 0.56985 0.0
H456 H 0.02525 0.03796 0.44166 0.0
C457 C 0.95821 0.94966 0.4897 0.0
C458 C 0.97773 0.00338 0.52094 0.0
C459 C 0.94243 0.92749 0.47793 0.0
C460 C 0.05685 0.08445 0.571 0.0
C461 C 0.03477 0.06942 0.55569 0.0
C462 C 0.01208 0.0285 0.4642 0.0
C463 C 0.95885 0.97293 0.46549 0.0
C464 C 0.97613 0.9961 0.47878 0.0
C465 C 0.03772 0.05157 0.5222 0.0
C466 C 0.01486 0.03449 0.50676 0.0
H467 H 0.91593 0.9519 0.38841 0.0
H468 H 0.94385 0.991 0.40922 0.0
H469 H 0.99221 0.0043 0.4177 0.0
H470 H 0.10444 0.06152 0.50517 0.0
H471 H 0.06644 0.03497 0.47957 0.0
C472 C 0.93203 0.31653 0.80201 0.0
C473 C 0.92546 0.31093 0.84352 0.0
C474 C 0.94856 0.29941 0.77952 0.0
C475 C 0.97525 0.23017 0.78071 0.0
H476 H 0.03118 0.26065 0.71098 0.0
C477 C 0.0643 0.16847 0.72032 0.0
C478 C 0.073 0.1734 0.6796 0.0
C479 C 0.04488 0.18452 0.73855 0.0
C480 C 0.01548 0.25174 0.72994 0.0
H481 H 0.93102 0.28244 0.89345 0.0
H482 H 0.95967 0.25327 0.85487 0.0
H483 H 0.99955 0.29004 0.74447 0.0
H484 H 0.06762 0.19879 0.62589 0.0
H485 H 0.03391 0.22646 0.65743 0.0
H486 H 0.99144 0.19191 0.76666 0.0
C487 C 0.9519 0.2706 0.83927 0.0
C488 C 0.99726 0.26864 0.74909 0.0
C489 C 0.93554 0.28761 0.86161 0.0
C490 C 0.0615 0.19443 0.65738 0.0
C491 C 0.04225 0.21048 0.67558 0.0
C492 C 0.99352 0.21329 0.76168 0.0
C493 C 0.95876 0.27621 0.79796 0.0
C494 C 0.97704 0.25813 0.77509 0.0
C495 C 0.03384 0.20595 0.71654 0.0
C496 C 0.014 0.22385 0.73626 0.0
H497 H 0.92464 0.33425 0.78701 0.0
H498 H 0.95324 0.30427 0.74763 0.0
H499 H 0.95966 0.22124 0.79987 0.0
H500 H 0.07278 0.15249 0.73833 0.0
H501 H 0.03903 0.18057 0.77028 0.0
C502 C 0.56558 0.69671 0.66282 0.0
C503 C 0.57313 0.67229 0.68031 0.0
C504 C 0.54634 0.71237 0.68173 0.0
C505 C 0.51201 0.72264 0.7827 0.0
H506 H 0.46845 0.7693 0.7161 0.0
C507 C 0.45433 0.807 0.85965 0.0
C508 C 0.42925 0.81406 0.84372 0.0
C509 C 0.4706 0.78956 0.838 0.0
C510 C 0.48014 0.75622 0.73531 0.0
H511 H 0.56585 0.64488 0.73109 0.0
H512 H 0.53141 0.67175 0.76359 0.0
H513 H 0.49726 0.73757 0.68226 0.0
H514 H 0.40168 0.80878 0.79211 0.0
H515 H 0.42971 0.77736 0.75451 0.0
H516 H 0.49401 0.74031 0.83569 0.0
C517 C 0.54093 0.67923 0.7357 0.0
C518 C 0.4971 0.73819 0.71582 0.0
C519 C 0.56059 0.66367 0.71698 0.0
C520 C 0.42105 0.80384 0.8049 0.0
C521 C 0.43718 0.78582 0.78344 0.0
C522 C 0.49477 0.74034 0.80214 0.0
C523 C 0.53364 0.70396 0.71848 0.0
C524 C 0.51374 0.72149 0.73921 0.0
C525 C 0.46203 0.77804 0.8001 0.0
C526 C 0.47899 0.75786 0.77883 0.0
H527 H 0.57497 0.70412 0.63474 0.0
H528 H 0.54196 0.73146 0.66784 0.0
H529 H 0.52451 0.7104 0.80203 0.0
H530 H 0.46132 0.81482 0.88932 0.0
H531 H 0.4899 0.78501 0.85133 0.0
C532 C 0.2024 0.6921 0.11131 0.0
C533 C 0.18446 0.67661 0.08685 0.0
C534 C 0.22328 0.70691 0.09271 0.0
C535 C 0.2601 0.71569 0.99289 0.0
H536 H 0.27244 0.78804 0.03402 0.0
C537 C 0.31158 0.80186 0.89948 0.0
C538 C 0.33013 0.81821 0.9215 0.0
C539 C 0.29654 0.78199 0.92015 0.0
C540 C 0.26942 0.76778 0.02247 0.0
H541 H 0.17461 0.66388 0.02401 0.0
H542 H 0.21026 0.69013 0.99168 0.0
H543 H 0.24165 0.75789 0.07056 0.0
H544 H 0.3483 0.82595 0.98193 0.0
H545 H 0.322 0.79156 0.01772 0.0
H546 H 0.28722 0.72621 0.94379 0.0
C547 C 0.2088 0.69052 0.02517 0.0
C548 C 0.2519 0.75042 0.04354 0.0
C549 C 0.18816 0.67561 0.04373 0.0
C550 C 0.33403 0.81379 0.9641 0.0
C551 C 0.31893 0.79417 0.9847 0.0
C552 C 0.27742 0.73319 0.97154 0.0
C553 C 0.22642 0.70663 0.04932 0.0
C554 C 0.24683 0.72424 0.02882 0.0
C555 C 0.29973 0.77841 0.96312 0.0
C556 C 0.28209 0.75942 0.98605 0.0
H557 H 0.2001 0.69307 0.14466 0.0
H558 H 0.23678 0.71879 0.11229 0.0
H559 H 0.25699 0.69551 0.98107 0.0
H560 H 0.30823 0.80483 0.86662 0.0
H561 H 0.28174 0.77013 0.90287 0.0
C562 C 0.42866 0.43157 0.48286 0.0
C563 C 0.42174 0.42737 0.44091 0.0
C564 C 0.44459 0.45367 0.4949 0.0
C565 C 0.49655 0.49919 0.4556 0.0
H566 H 0.48291 0.53988 0.55566 0.0
C567 C 0.56877 0.58418 0.50732 0.0
C568 C 0.57543 0.58554 0.5497 0.0
C569 C 0.54725 0.56807 0.49343 0.0
C570 C 0.48711 0.52857 0.52784 0.0
H571 H 0.42567 0.44354 0.37883 0.0
H572 H 0.45391 0.48217 0.39998 0.0
H573 H 0.45008 0.50588 0.53179 0.0
H574 H 0.56407 0.57188 0.61101 0.0
H575 H 0.52679 0.543 0.58665 0.0
H576 H 0.53391 0.52095 0.45222 0.0
C577 C 0.44692 0.46819 0.42341 0.0
C578 C 0.46826 0.5092 0.51409 0.0
C579 C 0.4307 0.44615 0.41135 0.0
C580 C 0.55939 0.57125 0.57816 0.0
C581 C 0.53796 0.55479 0.56416 0.0
C582 C 0.51546 0.51837 0.46947 0.0
C583 C 0.45417 0.47203 0.46529 0.0
C584 C 0.47293 0.49415 0.47804 0.0
C585 C 0.53201 0.5526 0.5215 0.0
C586 C 0.51109 0.53318 0.50593 0.0
H587 H 0.42197 0.41763 0.50654 0.0
H588 H 0.45009 0.45593 0.5273 0.0
H589 H 0.5009 0.48759 0.42812 0.0
H590 H 0.58047 0.59532 0.48465 0.0
H591 H 0.54281 0.56745 0.46051 0.0
loop_
_geom_bond_atom_site_label_1
_geom_bond_atom_site_label_2
_geom_bond_distance
_geom_bond_site_symmetry_2
_ccdc_geom_bond_type
Co0 O1 2.216 . S
Co0 O2 2.091 . S
Co0 O4 2.004 . S
Co0 O10 2.021 . S
Co0 O12 2.137 . S
Co0 O13 2.244 . S
O1 Co0 2.216 . S
O1 C8 1.247 . S
O2 Co0 2.091 . S
O2 C8 1.261 . S
C3 O12 1.247 . S
C3 O13 1.272 . S
O4 Co0 2.004 . S
O4 C9 1.259 . S
Co5 O6 2.061 . S
Co5 O11 2.052 . S
Co5 O13 2.135 . S
O6 Co5 2.061 . S
O6 C9 1.235 . S
C7 O10 1.238 . S
C7 O11 1.241 . S
C8 O1 1.247 . S
C8 O2 1.261 . S
C9 O4 1.259 . S
C9 O6 1.235 . S
O10 Co0 2.021 . S
O10 C7 1.238 . S
O11 Co5 2.052 . S
O11 C7 1.241 . S
O12 Co0 2.137 . S
O12 C3 1.247 . S
O13 Co0 2.244 . S
O13 C3 1.272 . S
O13 Co5 2.135 . S
Co14 O15 2.216 . S
Co14 O16 2.091 . S
Co14 O18 2.004 . S
Co14 O24 2.021 . S
Co14 O26 2.137 . S
Co14 O27 2.244 . S
O15 Co14 2.216 . S
O15 C22 1.247 . S
O16 Co14 2.091 . S
O16 C22 1.261 . S
C17 O26 1.247 . S
C17 O27 1.272 . S
O18 Co14 2.004 . S
O18 C23 1.259 . S
Co19 O20 2.061 . S
Co19 O25 2.052 . S
Co19 O27 2.135 . S
O20 Co19 2.061 . S
O20 C23 1.235 . S
C21 O24 1.238 . S
C21 O25 1.241 . S
C22 O15 1.247 . S
C22 O16 1.261 . S
C23 O18 1.259 . S
C23 O20 1.235 . S
O24 Co14 2.021 . S
O24 C21 1.238 . S
O25 Co19 2.052 . S
O25 C21 1.241 . S
O26 Co14 2.137 . S
O26 C17 1.247 . S
O27 Co14 2.244 . S
O27 C17 1.272 . S
O27 Co19 2.135 . S
Co28 O29 2.216 . S
Co28 O30 2.091 . S
Co28 O32 2.004 . S
Co28 O38 2.021 . S
Co28 O40 2.137 . S
Co28 O41 2.244 . S
O29 Co28 2.216 . S
O29 C36 1.247 . S
O30 Co28 2.091 . S
O30 C36 1.261 . S
C31 O40 1.247 . S
C31 O41 1.272 . S
O32 Co28 2.004 . S
O32 C37 1.259 . S
Co33 O34 2.061 . S
Co33 O39 2.052 . S
Co33 O41 2.135 . S
O34 Co33 2.061 . S
O34 C37 1.235 . S
C35 O38 1.238 . S
C35 O39 1.241 . S
C36 O29 1.247 . S
C36 O30 1.261 . S
C37 O32 1.259 . S
C37 O34 1.235 . S
O38 Co28 2.021 . S
O38 C35 1.238 . S
O39 Co33 2.052 . S
O39 C35 1.241 . S
O40 Co28 2.137 . S
O40 C31 1.247 . S
O41 Co28 2.244 . S
O41 C31 1.272 . S
O41 Co33 2.135 . S
Co42 O43 2.216 . S
Co42 O44 2.091 . S
Co42 O46 2.004 . S
Co42 O52 2.021 . S
Co42 O54 2.137 . S
Co42 O55 2.244 . S
O43 Co42 2.216 . S
O43 C50 1.247 . S
O44 Co42 2.091 . S
O44 C50 1.261 . S
C45 O54 1.247 . S
C45 O55 1.272 . S
O46 Co42 2.004 . S
O46 C51 1.259 . S
Co47 O48 2.061 . S
Co47 O53 2.052 . S
Co47 O55 2.135 . S
O48 Co47 2.061 . S
O48 C51 1.235 . S
C49 O52 1.238 . S
C49 O53 1.241 . S
C50 O43 1.247 . S
C50 O44 1.261 . S
C51 O46 1.259 . S
C51 O48 1.235 . S
O52 Co42 2.021 . S
O52 C49 1.238 . S
O53 Co47 2.052 . S
O53 C49 1.241 . S
O54 Co42 2.137 . S
O54 C45 1.247 . S
O55 Co42 2.244 . S
O55 C45 1.272 . S
O55 Co47 2.135 . S
Co56 O57 2.216 . S
Co56 O58 2.091 . S
Co56 O60 2.004 . S
Co56 O66 2.021 . S
Co56 O68 2.137 . S
Co56 O69 2.244 . S
O57 Co56 2.216 . S
O57 C64 1.247 . S
O58 Co56 2.091 . S
O58 C64 1.261 . S
C59 O68 1.247 . S
C59 O69 1.272 . S
O60 Co56 2.004 . S
O60 C65 1.259 . S
Co61 O62 2.061 . S
Co61 O67 2.052 . S
Co61 O69 2.135 . S
O62 Co61 2.061 . S
O62 C65 1.235 . S
C63 O66 1.238 . S
C63 O67 1.241 . S
C64 O57 1.247 . S
C64 O58 1.261 . S
C65 O60 1.259 . S
C65 O62 1.235 . S
O66 Co56 2.021 . S
O66 C63 1.238 . S
O67 Co61 2.052 . S
O67 C63 1.241 . S
O68 Co56 2.137 . S
O68 C59 1.247 . S
O69 Co56 2.244 . S
O69 C59 1.272 . S
O69 Co61 2.135 . S
Co70 O71 2.216 . S
Co70 O72 2.091 . S
Co70 O74 2.004 . S
Co70 O80 2.021 . S
Co70 O82 2.137 . S
Co70 O83 2.244 . S
O71 Co70 2.216 . S
O71 C78 1.247 . S
O72 Co70 2.091 . S
O72 C78 1.261 . S
C73 O82 1.247 . S
C73 O83 1.272 . S
O74 Co70 2.004 . S
O74 C79 1.259 . S
Co75 O76 2.061 . S
Co75 O81 2.052 . S
Co75 O83 2.135 . S
O76 Co75 2.061 . S
O76 C79 1.235 . S
C77 O80 1.238 . S
C77 O81 1.241 . S
C78 O71 1.247 . S
C78 O72 1.261 . S
C79 O74 1.259 . S
C79 O76 1.235 . S
O80 Co70 2.021 . S
O80 C77 1.238 . S
O81 Co75 2.052 . S
O81 C77 1.241 . S
O82 Co70 2.137 . S
O82 C73 1.247 . S
O83 Co70 2.244 . S
O83 C73 1.272 . S
O83 Co75 2.135 . S
Co84 O85 2.216 . S
Co84 O86 2.091 . S
Co84 O88 2.004 . S
Co84 O94 2.021 . S
Co84 O96 2.137 . S
Co84 O97 2.244 . S
O85 Co84 2.216 . S
O85 C92 1.247 . S
O86 Co84 2.091 . S
O86 C92 1.261 . S
C87 O96 1.247 . S
C87 O97 1.272 . S
O88 Co84 2.004 . S
O88 C93 1.259 . S
Co89 O90 2.061 . S
Co89 O95 2.052 . S
Co89 O97 2.135 . S
O90 Co89 2.061 . S
O90 C93 1.235 . S
C91 O94 1.238 . S
C91 O95 1.241 . S
C92 O85 1.247 . S
C92 O86 1.261 . S
C93 O88 1.259 . S
C93 O90 1.235 . S
O94 Co84 2.021 . S
O94 C91 1.238 . S
O95 Co89 2.052 . S
O95 C91 1.241 . S
O96 Co84 2.137 . S
O96 C87 1.247 . S
O97 Co84 2.244 . S
O97 C87 1.272 . S
O97 Co89 2.135 . S
Co98 O99 2.216 . S
Co98 O100 2.091 . S
Co98 O102 2.004 . S
Co98 O108 2.021 . S
Co98 O110 2.137 . S
Co98 O111 2.244 . S
O99 Co98 2.216 . S
O99 C106 1.247 . S
O100 Co98 2.091 . S
O100 C106 1.261 . S
C101 O110 1.247 . S
C101 O111 1.272 . S
O102 Co98 2.004 . S
O102 C107 1.259 . S
Co103 O104 2.061 . S
Co103 O109 2.052 . S
Co103 O111 2.135 . S
O104 Co103 2.061 . S
O104 C107 1.235 . S
C105 O108 1.238 . S
C105 O109 1.241 . S
C106 O99 1.247 . S
C106 O100 1.261 . S
C107 O102 1.259 . S
C107 O104 1.235 . S
O108 Co98 2.021 . S
O108 C105 1.238 . S
O109 Co103 2.052 . S
O109 C105 1.241 . S
O110 Co98 2.137 . S
O110 C101 1.247 . S
O111 Co98 2.244 . S
O111 C101 1.272 . S
O111 Co103 2.135 . S
C112 C113 1.349 . S
C112 C114 1.327 . S
C112 H137 0.950 . S
C113 C112 1.349 . S
C113 C129 1.349 . S
C114 C112 1.327 . S
C114 C133 1.429 . S
C114 H138 0.950 . S
C115 C132 1.574 . S
C115 C134 1.368 . S
C115 H139 0.949 . S
H116 C120 0.949 . S
C117 C118 1.349 . S
C117 C119 1.327 . S
C117 H140 0.950 . S
C118 C117 1.349 . S
C118 C130 1.349 . S
C119 C117 1.327 . S
C119 C135 1.429 . S
C119 H141 0.950 . S
C120 H116 0.949 . S
C120 C128 1.574 . S
C120 C136 1.368 . S
H121 C129 0.950 . S
H122 C127 0.950 . S
H123 C128 0.949 . S
H124 C130 0.950 . S
H125 C131 0.950 . S
H126 C132 0.949 . S
C127 H122 0.950 . S
C127 C129 1.327 . S
C127 C133 1.429 . S
C128 C120 1.574 . S
C128 H123 0.949 . S
C128 C134 1.368 . S
C129 C113 1.349 . S
C129 H121 0.950 . S
C129 C127 1.327 . S
C130 C118 1.349 . S
C130 H124 0.950 . S
C130 C131 1.327 . S
C131 H125 0.950 . S
C131 C130 1.327 . S
C131 C135 1.429 . S
C132 C115 1.574 . S
C132 H126 0.949 . S
C132 C136 1.368 . S
C133 C114 1.429 . S
C133 C127 1.429 . S
C133 C134 1.523 . S
C134 C115 1.368 . S
C134 C128 1.368 . S
C134 C133 1.523 . S
C135 C119 1.429 . S
C135 C131 1.429 . S
C135 C136 1.523 . S
C136 C120 1.368 . S
C136 C132 1.368 . S
C136 C135 1.523 . S
H137 C112 0.950 . S
H138 C114 0.950 . S
H139 C115 0.949 . S
H140 C117 0.950 . S
H141 C119 0.950 . S
C142 C143 1.349 . S
C142 C144 1.327 . S
C142 H167 0.950 . S
C143 C142 1.349 . S
C143 C159 1.349 . S
C144 C142 1.327 . S
C144 C163 1.429 . S
C144 H168 0.950 . S
C145 C162 1.574 . S
C145 C164 1.368 . S
C145 H169 0.949 . S
H146 C150 0.949 . S
C147 C148 1.349 . S
C147 C149 1.327 . S
C147 H170 0.950 . S
C148 C147 1.349 . S
C148 C160 1.349 . S
C149 C147 1.327 . S
C149 C165 1.429 . S
C149 H171 0.950 . S
C150 H146 0.949 . S
C150 C158 1.574 . S
C150 C166 1.368 . S
H151 C159 0.950 . S
H152 C157 0.950 . S
H153 C158 0.949 . S
H154 C160 0.950 . S
H155 C161 0.950 . S
H156 C162 0.949 . S
C157 H152 0.950 . S
C157 C159 1.327 . S
C157 C163 1.429 . S
C158 C150 1.574 . S
C158 H153 0.949 . S
C158 C164 1.368 . S
C159 C143 1.349 . S
C159 H151 0.950 . S
C159 C157 1.327 . S
C160 C148 1.349 . S
C160 H154 0.950 . S
C160 C161 1.327 . S
C161 H155 0.950 . S
C161 C160 1.327 . S
C161 C165 1.429 . S
C162 C145 1.574 . S
C162 H156 0.949 . S
C162 C166 1.368 . S
C163 C144 1.429 . S
C163 C157 1.429 . S
C163 C164 1.523 . S
C164 C145 1.368 . S
C164 C158 1.368 . S
C164 C163 1.523 . S
C165 C149 1.429 . S
C165 C161 1.429 . S
C165 C166 1.523 . S
C166 C150 1.368 . S
C166 C162 1.368 . S
C166 C165 1.523 . S
H167 C142 0.950 . S
H168 C144 0.950 . S
H169 C145 0.949 . S
H170 C147 0.950 . S
H171 C149 0.950 . S
C172 C173 1.349 . S
C172 C174 1.327 . S
C172 H197 0.950 . S
C173 C172 1.349 . S
C173 C189 1.349 . S
C174 C172 1.327 . S
C174 C193 1.429 . S
C174 H198 0.950 . S
C175 C192 1.574 1_554 S
C175 C194 1.368 1_565 S
C175 H199 0.949 . S
H176 C180 0.949 . S
C177 C178 1.349 . S
C177 C179 1.327 . S
C177 H200 0.950 . S
C178 C177 1.349 . S
C178 C190 1.349 . S
C179 C177 1.327 . S
C179 C195 1.429 . S
C179 H201 0.950 . S
C180 H176 0.949 . S
C180 C188 1.574 1_556 S
C180 C196 1.368 1_545 S
H181 C189 0.950 . S
H182 C187 0.950 . S
H183 C188 0.949 . S
H184 C190 0.950 . S
H185 C191 0.950 . S
H186 C192 0.949 . S
C187 H182 0.950 . S
C187 C189 1.327 . S
C187 C193 1.429 . S
C188 C180 1.574 1_554 S
C188 H183 0.949 . S
C188 C194 1.368 . S
C189 C173 1.349 . S
C189 H181 0.950 . S
C189 C187 1.327 . S
C190 C178 1.349 . S
C190 H184 0.950 . S
C190 C191 1.327 . S
C191 H185 0.950 . S
C191 C190 1.327 . S
C191 C195 1.429 . S
C192 C175 1.574 1_556 S
C192 H186 0.949 . S
C192 C196 1.368 . S
C193 C174 1.429 . S
C193 C187 1.429 . S
C193 C194 1.523 . S
C194 C175 1.368 1_545 S
C194 C188 1.368 . S
C194 C193 1.523 . S
C195 C179 1.429 . S
C195 C191 1.429 . S
C195 C196 1.523 . S
C196 C180 1.368 1_565 S
C196 C192 1.368 . S
C196 C195 1.523 . S
H197 C172 0.950 . S
H198 C174 0.950 . S
H199 C175 0.949 . S
H200 C177 0.950 . S
H201 C179 0.950 . S
C202 C203 1.349 . S
C202 C204 1.327 . S
C202 H227 0.950 . S
C203 C202 1.349 . S
C203 C219 1.349 . S
C204 C202 1.327 . S
C204 C223 1.429 . S
C204 H228 0.950 . S
C205 C222 1.574 . S
C205 C224 1.368 . S
C205 H229 0.949 . S
H206 C210 0.949 . S
C207 C208 1.349 . S
C207 C209 1.327 . S
C207 H230 0.950 . S
C208 C207 1.349 . S
C208 C220 1.349 . S
C209 C207 1.327 . S
C209 C225 1.429 . S
C209 H231 0.950 . S
C210 H206 0.949 . S
C210 C218 1.574 . S
C210 C226 1.368 . S
H211 C219 0.950 . S
H212 C217 0.950 . S
H213 C218 0.949 . S
H214 C220 0.950 . S
H215 C221 0.950 . S
H216 C222 0.949 . S
C217 H212 0.950 . S
C217 C219 1.327 . S
C217 C223 1.429 . S
C218 C210 1.574 . S
C218 H213 0.949 . S
C218 C224 1.368 1_455 S
C219 C203 1.349 . S
C219 H211 0.950 . S
C219 C217 1.327 . S
C220 C208 1.349 . S
C220 H214 0.950 . S
C220 C221 1.327 . S
C221 H215 0.950 . S
C221 C220 1.327 . S
C221 C225 1.429 . S
C222 C205 1.574 . S
C222 H216 0.949 . S
C222 C226 1.368 1_655 S
C223 C204 1.429 . S
C223 C217 1.429 . S
C223 C224 1.523 . S
C224 C205 1.368 . S
C224 C218 1.368 1_655 S
C224 C223 1.523 . S
C225 C209 1.429 . S
C225 C221 1.429 . S
C225 C226 1.523 . S
C226 C210 1.368 . S
C226 C222 1.368 1_455 S
C226 C225 1.523 . S
H227 C202 0.950 . S
H228 C204 0.950 . S
H229 C205 0.949 . S
H230 C207 0.950 . S
H231 C209 0.950 . S
C232 C233 1.349 . S
C232 C234 1.327 . S
C232 H257 0.950 . S
C233 C232 1.349 . S
C233 C249 1.349 . S
C234 C232 1.327 . S
C234 C253 1.429 . S
C234 H258 0.950 . S
C235 C252 1.574 . S
C235 C254 1.368 1_545 S
C235 H259 0.949 . S
H236 C240 0.949 . S
C237 C238 1.349 . S
C237 C239 1.327 . S
C237 H260 0.950 . S
C238 C237 1.349 . S
C238 C250 1.349 . S
C239 C237 1.327 . S
C239 C255 1.429 . S
C239 H261 0.950 . S
C240 H236 0.949 . S
C240 C248 1.574 . S
C240 C256 1.368 1_565 S
H241 C249 0.950 . S
H242 C247 0.950 . S
H243 C248 0.949 . S
H244 C250 0.950 . S
H245 C251 0.950 . S
H246 C252 0.949 . S
C247 H242 0.950 . S
C247 C249 1.327 . S
C247 C253 1.429 . S
C248 C240 1.574 . S
C248 H243 0.949 . S
C248 C254 1.368 . S
C249 C233 1.349 . S
C249 H241 0.950 . S
C249 C247 1.327 . S
C250 C238 1.349 . S
C250 H244 0.950 . S
C250 C251 1.327 . S
C251 H245 0.950 . S
C251 C250 1.327 . S
C251 C255 1.429 . S
C252 C235 1.574 . S
C252 H246 0.949 . S
C252 C256 1.368 . S
C253 C234 1.429 . S
C253 C247 1.429 . S
C253 C254 1.523 . S
C254 C235 1.368 1_565 S
C254 C248 1.368 . S
C254 C253 1.523 . S
C255 C239 1.429 . S
C255 C251 1.429 . S
C255 C256 1.523 . S
C256 C240 1.368 1_545 S
C256 C252 1.368 . S
C256 C255 1.523 . S
H257 C232 0.950 . S
H258 C234 0.950 . S
H259 C235 0.949 . S
H260 C237 0.950 . S
H261 C239 0.950 . S
C262 C263 1.349 . S
C262 C264 1.327 . S
C262 H287 0.950 . S
C263 C262 1.349 . S
C263 C279 1.349 . S
C264 C262 1.327 . S
C264 C283 1.429 . S
C264 H288 0.950 . S
C265 C282 1.570 1_655 S
C265 C284 1.372 1_554 S
C265 H289 0.950 . S
H266 C270 0.950 . S
C267 C268 1.349 . S
C267 C269 1.327 . S
C267 H290 0.950 . S
C268 C267 1.349 . S
C268 C280 1.349 . S
C269 C267 1.327 . S
C269 C285 1.429 . S
C269 H291 0.950 . S
C270 H266 0.950 . S
C270 C278 1.569 1_455 S
C270 C286 1.373 1_556 S
H271 C279 0.950 . S
H272 C277 0.950 . S
H273 C278 0.949 . S
H274 C280 0.950 . S
H275 C281 0.950 . S
H276 C282 0.949 . S
C277 H272 0.950 . S
C277 C279 1.327 . S
C277 C283 1.429 . S
C278 C270 1.569 1_655 S
C278 H273 0.949 . S
C278 C284 1.368 . S
C279 C263 1.349 . S
C279 H271 0.950 . S
C279 C277 1.327 . S
C280 C268 1.349 . S
C280 H274 0.950 . S
C280 C281 1.327 . S
C281 H275 0.950 . S
C281 C280 1.327 . S
C281 C285 1.429 . S
C282 C265 1.570 1_455 S
C282 H276 0.949 . S
C282 C286 1.368 . S
C283 C264 1.429 . S
C283 C277 1.429 . S
C283 C284 1.523 . S
C284 C265 1.372 1_556 S
C284 C278 1.368 . S
C284 C283 1.523 . S
C285 C269 1.429 . S
C285 C281 1.429 . S
C285 C286 1.523 . S
C286 C270 1.373 1_554 S
C286 C282 1.368 . S
C286 C285 1.523 . S
H287 C262 0.950 . S
H288 C264 0.950 . S
H289 C265 0.950 . S
H290 C267 0.950 . S
H291 C269 0.950 . S
C292 C293 1.349 . S
C292 C294 1.327 . S
C292 H317 0.950 . S
C293 C292 1.349 . S
C293 C309 1.349 . S
C294 C292 1.327 . S
C294 C313 1.429 . S
C294 H318 0.950 . S
C295 C312 1.574 . S
C295 C314 1.368 . S
C295 H319 0.949 . S
H296 C300 0.949 . S
C297 C298 1.349 . S
C297 C299 1.327 . S
C297 H320 0.950 . S
C298 C297 1.349 . S
C298 C310 1.349 . S
C299 C297 1.327 . S
C299 C315 1.429 . S
C299 H321 0.950 . S
C300 H296 0.949 . S
C300 C308 1.574 . S
C300 C316 1.368 . S
H301 C309 0.950 . S
H302 C307 0.950 . S
H303 C308 0.949 . S
H304 C310 0.950 . S
H305 C311 0.950 . S
H306 C312 0.949 . S
C307 H302 0.950 . S
C307 C309 1.327 . S
C307 C313 1.429 . S
C308 C300 1.574 . S
C308 H303 0.949 . S
C308 C314 1.368 . S
C309 C293 1.349 . S
C309 H301 0.950 . S
C309 C307 1.327 . S
C310 C298 1.349 . S
C310 H304 0.950 . S
C310 C311 1.327 . S
C311 H305 0.950 . S
C311 C310 1.327 . S
C311 C315 1.429 . S
C312 C295 1.574 . S
C312 H306 0.949 . S
C312 C316 1.368 . S
C313 C294 1.429 . S
C313 C307 1.429 . S
C313 C314 1.523 . S
C314 C295 1.368 . S
C314 C308 1.368 . S
C314 C313 1.523 . S
C315 C299 1.429 . S
C315 C311 1.429 . S
C315 C316 1.523 . S
C316 C300 1.368 . S
C316 C312 1.368 . S
C316 C315 1.523 . S
H317 C292 0.950 . S
H318 C294 0.950 . S
H319 C295 0.949 . S
H320 C297 0.950 . S
H321 C299 0.950 . S
C322 C323 1.349 . S
C322 C324 1.327 . S
C322 H347 0.950 . S
C323 C322 1.349 . S
C323 C339 1.349 . S
C324 C322 1.327 . S
C324 C343 1.429 . S
C324 H348 0.950 . S
C325 C342 1.574 . S
C325 C344 1.368 . S
C325 H349 0.949 . S
H326 C330 0.949 . S
C327 C328 1.349 . S
C327 C329 1.327 . S
C327 H350 0.950 . S
C328 C327 1.349 . S
C328 C340 1.349 . S
C329 C327 1.327 . S
C329 C345 1.429 . S
C329 H351 0.950 . S
C330 H326 0.949 . S
C330 C338 1.574 . S
C330 C346 1.368 . S
H331 C339 0.950 . S
H332 C337 0.950 . S
H333 C338 0.949 . S
H334 C340 0.950 . S
H335 C341 0.950 . S
H336 C342 0.949 . S
C337 H332 0.950 . S
C337 C339 1.327 . S
C337 C343 1.429 . S
C338 C330 1.574 . S
C338 H333 0.949 . S
C338 C344 1.368 . S
C339 C323 1.349 . S
C339 H331 0.950 . S
C339 C337 1.327 . S
C340 C328 1.349 . S
C340 H334 0.950 . S
C340 C341 1.327 . S
C341 H335 0.950 . S
C341 C340 1.327 . S
C341 C345 1.429 . S
C342 C325 1.574 . S
C342 H336 0.949 . S
C342 C346 1.368 . S
C343 C324 1.429 . S
C343 C337 1.429 . S
C343 C344 1.523 . S
C344 C325 1.368 . S
C344 C338 1.368 . S
C344 C343 1.523 . S
C345 C329 1.429 . S
C345 C341 1.429 . S
C345 C346 1.523 . S
C346 C330 1.368 . S
C346 C342 1.368 . S
C346 C345 1.523 . S
H347 C322 0.950 . S
H348 C324 0.950 . S
H349 C325 0.949 . S
H350 C327 0.950 . S
H351 C329 0.950 . S
C352 C353 1.349 . S
C352 C354 1.327 . S
C352 H377 0.950 . S
C353 C352 1.349 . S
C353 C369 1.349 . S
C354 C352 1.327 . S
C354 C373 1.429 . S
C354 H378 0.950 . S
C355 C372 1.574 . S
C355 C374 1.368 . S
C355 H379 0.949 . S
H356 C360 0.949 . S
C357 C358 1.349 . S
C357 C359 1.327 . S
C357 H380 0.950 . S
C358 C357 1.349 . S
C358 C370 1.349 . S
C359 C357 1.327 . S
C359 C375 1.429 . S
C359 H381 0.950 . S
C360 H356 0.949 . S
C360 C368 1.574 . S
C360 C376 1.368 . S
H361 C369 0.950 . S
H362 C367 0.950 . S
H363 C368 0.949 . S
H364 C370 0.950 . S
H365 C371 0.950 . S
H366 C372 0.949 . S
C367 H362 0.950 . S
C367 C369 1.327 . S
C367 C373 1.429 . S
C368 C360 1.574 . S
C368 H363 0.949 . S
C368 C374 1.368 . S
C369 C353 1.349 . S
C369 H361 0.950 . S
C369 C367 1.327 . S
C370 C358 1.349 . S
C370 H364 0.950 . S
C370 C371 1.327 . S
C371 H365 0.950 . S
C371 C370 1.327 . S
C371 C375 1.429 . S
C372 C355 1.574 . S
C372 H366 0.949 . S
C372 C376 1.368 . S
C373 C354 1.429 . S
C373 C367 1.429 . S
C373 C374 1.523 . S
C374 C355 1.368 . S
C374 C368 1.368 . S
C374 C373 1.523 . S
C375 C359 1.429 . S
C375 C371 1.429 . S
C375 C376 1.523 . S
C376 C360 1.368 . S
C376 C372 1.368 . S
C376 C375 1.523 . S
H377 C352 0.950 . S
H378 C354 0.950 . S
H379 C355 0.949 . S
H380 C357 0.950 . S
H381 C359 0.950 . S
C382 C383 1.349 . S
C382 C384 1.327 . S
C382 H407 0.950 . S
C383 C382 1.349 . S
C383 C399 1.349 . S
C384 C382 1.327 . S
C384 C403 1.429 . S
C384 H408 0.950 . S
C385 C402 1.574 1_556 S
C385 C404 1.368 . S
C385 H409 0.949 . S
H386 C390 0.949 . S
C387 C388 1.349 . S
C387 C389 1.327 . S
C387 H410 0.950 . S
C388 C387 1.349 . S
C388 C400 1.349 . S
C389 C387 1.327 . S
C389 C405 1.429 . S
C389 H411 0.950 . S
C390 H386 0.949 . S
C390 C398 1.574 1_554 S
C390 C406 1.368 . S
H391 C399 0.950 . S
H392 C397 0.950 . S
H393 C398 0.949 . S
H394 C400 0.950 . S
H395 C401 0.950 . S
H396 C402 0.949 . S
C397 H392 0.950 . S
C397 C399 1.327 . S
C397 C403 1.429 . S
C398 C390 1.574 1_556 S
C398 H393 0.949 . S
C398 C404 1.368 . S
C399 C383 1.349 . S
C399 H391 0.950 . S
C399 C397 1.327 . S
C400 C388 1.349 . S
C400 H394 0.950 . S
C400 C401 1.327 . S
C401 H395 0.950 . S
C401 C400 1.327 . S
C401 C405 1.429 . S
C402 C385 1.574 1_554 S
C402 H396 0.949 . S
C402 C406 1.368 . S
C403 C384 1.429 . S
C403 C397 1.429 . S
C403 C404 1.523 . S
C404 C385 1.368 . S
C404 C398 1.368 . S
C404 C403 1.523 . S
C405 C389 1.429 . S
C405 C401 1.429 . S
C405 C406 1.523 . S
C406 C390 1.368 . S
C406 C402 1.368 . S
C406 C405 1.523 . S
H407 C382 0.950 . S
H408 C384 0.950 . S
H409 C385 0.949 . S
H410 C387 0.950 . S
H411 C389 0.950 . S
C412 C413 1.349 . S
C412 C414 1.327 . S
C412 H437 0.950 . S
C413 C412 1.349 . S
C413 C429 1.349 . S
C414 C412 1.327 . S
C414 C433 1.429 . S
C414 H438 0.950 . S
C415 C432 1.574 . S
C415 C434 1.368 1_545 S
C415 H439 0.949 . S
H416 C420 0.949 . S
C417 C418 1.349 . S
C417 C419 1.327 . S
C417 H440 0.950 . S
C418 C417 1.349 . S
C418 C430 1.349 . S
C419 C417 1.327 . S
C419 C435 1.429 . S
C419 H441 0.950 . S
C420 H416 0.949 . S
C420 C428 1.574 . S
C420 C436 1.368 1_565 S
H421 C429 0.950 . S
H422 C427 0.950 . S
H423 C428 0.949 . S
H424 C430 0.950 . S
H425 C431 0.950 . S
H426 C432 0.949 . S
C427 H422 0.950 . S
C427 C429 1.327 . S
C427 C433 1.429 . S
C428 C420 1.574 . S
C428 H423 0.949 . S
C428 C434 1.368 . S
C429 C413 1.349 . S
C429 H421 0.950 . S
C429 C427 1.327 . S
C430 C418 1.349 . S
C430 H424 0.950 . S
C430 C431 1.327 . S
C431 H425 0.950 . S
C431 C430 1.327 . S
C431 C435 1.429 . S
C432 C415 1.574 . S
C432 H426 0.949 . S
C432 C436 1.368 . S
C433 C414 1.429 . S
C433 C427 1.429 . S
C433 C434 1.523 . S
C434 C415 1.368 1_565 S
C434 C428 1.368 . S
C434 C433 1.523 . S
C435 C419 1.429 . S
C435 C431 1.429 . S
C435 C436 1.523 . S
C436 C420 1.368 1_545 S
C436 C432 1.368 . S
C436 C435 1.523 . S
H437 C412 0.950 . S
H438 C414 0.950 . S
H439 C415 0.949 . S
H440 C417 0.950 . S
H441 C419 0.950 . S
C442 C443 1.349 . S
C442 C444 1.327 . S
C442 H467 0.950 . S
C443 C442 1.349 . S
C443 C459 1.349 . S
C444 C442 1.327 . S
C444 C463 1.429 . S
C444 H468 0.950 . S
C445 C462 1.574 . S
C445 C464 1.368 1_455 S
C445 H469 0.949 . S
H446 C450 0.949 . S
C447 C448 1.349 . S
C447 C449 1.327 . S
C447 H470 0.950 . S
C448 C447 1.349 . S
C448 C460 1.349 . S
C449 C447 1.327 . S
C449 C465 1.429 . S
C449 H471 0.950 . S
C450 H446 0.949 . S
C450 C458 1.574 . S
C450 C466 1.368 1_655 S
H451 C459 0.950 . S
H452 C457 0.950 . S
H453 C458 0.949 . S
H454 C460 0.950 . S
H455 C461 0.950 . S
H456 C462 0.949 . S
C457 H452 0.950 . S
C457 C459 1.327 . S
C457 C463 1.429 . S
C458 C450 1.574 . S
C458 H453 0.949 . S
C458 C464 1.368 1_545 S
C459 C443 1.349 . S
C459 H451 0.950 . S
C459 C457 1.327 . S
C460 C448 1.349 . S
C460 H454 0.950 . S
C460 C461 1.327 . S
C461 H455 0.950 . S
C461 C460 1.327 . S
C461 C465 1.429 . S
C462 C445 1.574 . S
C462 H456 0.949 . S
C462 C466 1.368 1_565 S
C463 C444 1.429 . S
C463 C457 1.429 . S
C463 C464 1.523 . S
C464 C445 1.368 1_655 S
C464 C458 1.368 1_565 S
C464 C463 1.523 . S
C465 C449 1.429 . S
C465 C461 1.429 . S
C465 C466 1.523 . S
C466 C450 1.368 1_455 S
C466 C462 1.368 1_545 S
C466 C465 1.523 . S
H467 C442 0.950 . S
H468 C444 0.950 . S
H469 C445 0.949 . S
H470 C447 0.950 . S
H471 C449 0.950 . S
C472 C473 1.349 . S
C472 C474 1.327 . S
C472 H497 0.950 . S
C473 C472 1.349 . S
C473 C489 1.349 . S
C474 C472 1.327 . S
C474 C493 1.429 . S
C474 H498 0.950 . S
C475 C492 1.574 . S
C475 C494 1.368 . S
C475 H499 0.949 . S
H476 C480 0.949 . S
C477 C478 1.349 . S
C477 C479 1.327 . S
C477 H500 0.950 . S
C478 C477 1.349 . S
C478 C490 1.349 . S
C479 C477 1.327 . S
C479 C495 1.429 . S
C479 H501 0.950 . S
C480 H476 0.949 . S
C480 C488 1.574 . S
C480 C496 1.368 . S
H481 C489 0.950 . S
H482 C487 0.950 . S
H483 C488 0.949 . S
H484 C490 0.950 . S
H485 C491 0.950 . S
H486 C492 0.949 . S
C487 H482 0.950 . S
C487 C489 1.327 . S
C487 C493 1.429 . S
C488 C480 1.574 . S
C488 H483 0.949 . S
C488 C494 1.368 1_455 S
C489 C473 1.349 . S
C489 H481 0.950 . S
C489 C487 1.327 . S
C490 C478 1.349 . S
C490 H484 0.950 . S
C490 C491 1.327 . S
C491 H485 0.950 . S
C491 C490 1.327 . S
C491 C495 1.429 . S
C492 C475 1.574 . S
C492 H486 0.949 . S
C492 C496 1.368 1_655 S
C493 C474 1.429 . S
C493 C487 1.429 . S
C493 C494 1.523 . S
C494 C475 1.368 . S
C494 C488 1.368 1_655 S
C494 C493 1.523 . S
C495 C479 1.429 . S
C495 C491 1.429 . S
C495 C496 1.523 . S
C496 C480 1.368 . S
C496 C492 1.368 1_455 S
C496 C495 1.523 . S
H497 C472 0.950 . S
H498 C474 0.950 . S
H499 C475 0.949 . S
H500 C477 0.950 . S
H501 C479 0.950 . S
C502 C503 1.349 . S
C502 C504 1.327 . S
C502 H527 0.950 . S
C503 C502 1.349 . S
C503 C519 1.349 . S
C504 C502 1.327 . S
C504 C523 1.429 . S
C504 H528 0.950 . S
C505 C522 1.574 . S
C505 C524 1.368 . S
C505 H529 0.949 . S
H506 C510 0.949 . S
C507 C508 1.349 . S
C507 C509 1.327 . S
C507 H530 0.950 . S
C508 C507 1.349 . S
C508 C520 1.349 . S
C509 C507 1.327 . S
C509 C525 1.429 . S
C509 H531 0.950 . S
C510 H506 0.949 . S
C510 C518 1.574 . S
C510 C526 1.368 . S
H511 C519 0.950 . S
H512 C517 0.950 . S
H513 C518 0.949 . S
H514 C520 0.950 . S
H515 C521 0.950 . S
H516 C522 0.949 . S
C517 H512 0.950 . S
C517 C519 1.327 . S
C517 C523 1.429 . S
C518 C510 1.574 . S
C518 H513 0.949 . S
C518 C524 1.368 . S
C519 C503 1.349 . S
C519 H511 0.950 . S
C519 C517 1.327 . S
C520 C508 1.349 . S
C520 H514 0.950 . S
C520 C521 1.327 . S
C521 H515 0.950 . S
C521 C520 1.327 . S
C521 C525 1.429 . S
C522 C505 1.574 . S
C522 H516 0.949 . S
C522 C526 1.368 . S
C523 C504 1.429 . S
C523 C517 1.429 . S
C523 C524 1.523 . S
C524 C505 1.368 . S
C524 C518 1.368 . S
C524 C523 1.523 . S
C525 C509 1.429 . S
C525 C521 1.429 . S
C525 C526 1.523 . S
C526 C510 1.368 . S
C526 C522 1.368 . S
C526 C525 1.523 . S
H527 C502 0.950 . S
H528 C504 0.950 . S
H529 C505 0.949 . S
H530 C507 0.950 . S
H531 C509 0.950 . S
C532 C533 1.349 . S
C532 C534 1.327 . S
C532 H557 0.950 . S
C533 C532 1.349 . S
C533 C549 1.349 . S
C534 C532 1.327 . S
C534 C553 1.429 . S
C534 H558 0.950 . S
C535 C552 1.574 . S
C535 C554 1.368 1_556 S
C535 H559 0.949 . S
H536 C540 0.949 . S
C537 C538 1.349 . S
C537 C539 1.327 . S
C537 H560 0.950 . S
C538 C537 1.349 . S
C538 C550 1.349 . S
C539 C537 1.327 . S
C539 C555 1.429 . S
C539 H561 0.950 . S
C540 H536 0.949 . S
C540 C548 1.574 . S
C540 C556 1.368 1_554 S
H541 C549 0.950 . S
H542 C547 0.950 1_556 S
H543 C548 0.949 . S
H544 C550 0.950 . S
H545 C551 0.950 1_554 S
H546 C552 0.949 . S
C547 H542 0.950 1_554 S
C547 C549 1.327 . S
C547 C553 1.429 . S
C548 C540 1.574 . S
C548 H543 0.949 . S
C548 C554 1.368 . S
C549 C533 1.349 . S
C549 H541 0.950 . S
C549 C547 1.327 . S
C550 C538 1.349 . S
C550 H544 0.950 . S
C550 C551 1.327 . S
C551 H545 0.950 1_556 S
C551 C550 1.327 . S
C551 C555 1.429 . S
C552 C535 1.574 . S
C552 H546 0.949 . S
C552 C556 1.368 . S
C553 C534 1.429 . S
C553 C547 1.429 . S
C553 C554 1.523 . S
C554 C535 1.368 1_554 S
C554 C548 1.368 . S
C554 C553 1.523 . S
C555 C539 1.429 . S
C555 C551 1.429 . S
C555 C556 1.523 . S
C556 C540 1.368 1_556 S
C556 C552 1.368 . S
C556 C555 1.523 . S
H557 C532 0.950 . S
H558 C534 0.950 . S
H559 C535 0.949 . S
H560 C537 0.950 . S
H561 C539 0.950 . S
C562 C563 1.349 . S
C562 C564 1.327 . S
C562 H587 0.950 . S
C563 C562 1.349 . S
C563 C579 1.349 . S
C564 C562 1.327 . S
C564 C583 1.429 . S
C564 H588 0.950 . S
C565 C582 1.574 . S
C565 C584 1.368 . S
C565 H589 0.949 . S
H566 C570 0.949 . S
C567 C568 1.349 . S
C567 C569 1.327 . S
C567 H590 0.950 . S
C568 C567 1.349 . S
C568 C580 1.349 . S
C569 C567 1.327 . S
C569 C585 1.429 . S
C569 H591 0.950 . S
C570 H566 0.949 . S
C570 C578 1.574 . S
C570 C586 1.368 . S
H571 C579 0.950 . S
H572 C577 0.950 . S
H573 C578 0.949 . S
H574 C580 0.950 . S
H575 C581 0.950 . S
H576 C582 0.949 . S
C577 H572 0.950 . S
C577 C579 1.327 . S
C577 C583 1.429 . S
C578 C570 1.574 . S
C578 H573 0.949 . S
C578 C584 1.368 . S
C579 C563 1.349 . S
C579 H571 0.950 . S
C579 C577 1.327 . S
C580 C568 1.349 . S
C580 H574 0.950 . S
C580 C581 1.327 . S
C581 H575 0.950 . S
C581 C580 1.327 . S
C581 C585 1.429 . S
C582 C565 1.574 . S
C582 H576 0.949 . S
C582 C586 1.368 . S
C583 C564 1.429 . S
C583 C577 1.429 . S
C583 C584 1.523 . S
C584 C565 1.368 . S
C584 C578 1.368 . S
C584 C583 1.523 . S
C585 C569 1.429 . S
C585 C581 1.429 . S
C585 C586 1.523 . S
C586 C570 1.368 . S
C586 C582 1.368 . S
C586 C585 1.523 . S
H587 C562 0.950 . S
H588 C564 0.950 . S
H589 C565 0.949 . S
H590 C567 0.950 . S
H591 C569 0.950 . S
C113 C73 1.498 . S
C118 C3 1.498 . S
C143 C107 1.486 . S
C148 C22 1.499 . S
C173 C35 1.473 . S
C178 C91 1.473 . S
C203 C51 1.486 . S
C208 C64 1.499 . S
C233 C92 1.499 . S
C238 C9 1.486 . S
C263 C21 1.473 . S
C268 C63 1.473 . S
C293 C79 1.486 . S
C298 C36 1.499 . S
C323 C45 1.498 . S
C328 C101 1.498 . S
C353 C65 1.486 . S
C358 C78 1.499 . S
C383 C17 1.498 . S
C388 C31 1.498 . S
C413 C50 1.499 . S
C418 C37 1.486 . S
C443 C49 1.473 . S
C448 C7 1.473 . S
C473 C23 1.486 . S
C478 C8 1.499 . S
C503 C106 1.499 . S
C508 C93 1.486 . S
C533 C59 1.498 . S
C538 C87 1.498 . S
C563 C77 1.473 . S
C568 C105 1.473 . S
