# Generated by pormake.
# Topology lcy-e, (6)-cn, num edge types: 1
# Building blocks:
#     Node 0, Type 0, BuildingBlock: BETGAK_clean_sbu_0, # of connection points: 6
#     Node 1, Type 0, BuildingBlock: BETGAK_clean_sbu_0, # of connection points: 6
#     Node 2, Type 0, BuildingBlock: BETGAK_clean_sbu_0, # of connection points: 6
#     Node 3, Type 0, BuildingBlock: BETGAK_clean_sbu_0, # of connection points: 6
#     Node 4, Type 0, BuildingBlock: BETGAK_clean_sbu_0, # of connection points: 6
#     Node 5, Type 0, BuildingBlock: BETGAK_clean_sbu_0, # of connection points: 6
#     Node 6, Type 0, BuildingBlock: BETGAK_clean_sbu_0, # of connection points: 6
#     Node 7, Type 0, BuildingBlock: BETGAK_clean_sbu_0, # of connection points: 6
#     Node 8, Type 0, BuildingBlock: BETGAK_clean_sbu_0, # of connection points: 6
#     Node 9, Type 0, BuildingBlock: BETGAK_clean_sbu_0, # of connection points: 6
#     Node 10, Type 0, BuildingBlock: BETGAK_clean_sbu_0, # of connection points: 6
#     Node 11, Type 0, BuildingBlock: BETGAK_clean_sbu_0, # of connection points: 6
#     Edge 12, Type (0, 0), BuildingBlock: AJUNOK_clean_linker_0, # of connection points: 2
#     Edge 13, Type (0, 0), BuildingBlock: AJUNOK_clean_linker_0, # of connection points: 2
#     Edge 14, Type (0, 0), BuildingBlock: AJUNOK_clean_linker_0, # of connection points: 2
#     Edge 15, Type (0, 0), BuildingBlock: AJUNOK_clean_linker_0, # of connection points: 2
#     Edge 16, Type (0, 0), BuildingBlock: AJUNOK_clean_linker_0, # of connection points: 2
#     Edge 17, Type (0, 0), BuildingBlock: AJUNOK_clean_linker_0, # of connection points: 2
#     Edge 18, Type (0, 0), BuildingBlock: AJUNOK_clean_linker_0, # of connection points: 2
#     Edge 19, Type (0, 0), BuildingBlock: AJUNOK_clean_linker_0, # of connection points: 2
#     Edge 20, Type (0, 0), BuildingBlock: AJUNOK_clean_linker_0, # of connection points: 2
#     Edge 21, Type (0, 0), BuildingBlock: AJUNOK_clean_linker_0, # of connection points: 2
#     Edge 22, Type (0, 0), BuildingBlock: AJUNOK_clean_linker_0, # of connection points: 2
#     Edge 23, Type (0, 0), BuildingBlock: AJUNOK_clean_linker_0, # of connection points: 2
#     Edge 24, Type (0, 0), BuildingBlock: AJUNOK_clean_linker_0, # of connection points: 2
#     Edge 25, Type (0, 0), BuildingBlock: AJUNOK_clean_linker_0, # of connection points: 2
#     Edge 26, Type (0, 0), BuildingBlock: AJUNOK_clean_linker_0, # of connection points: 2
#     Edge 27, Type (0, 0), BuildingBlock: AJUNOK_clean_linker_0, # of connection points: 2
#     Edge 28, Type (0, 0), BuildingBlock: AJUNOK_clean_linker_0, # of connection points: 2
#     Edge 29, Type (0, 0), BuildingBlock: AJUNOK_clean_linker_0, # of connection points: 2
#     Edge 30, Type (0, 0), BuildingBlock: AJUNOK_clean_linker_0, # of connection points: 2
#     Edge 31, Type (0, 0), BuildingBlock: AJUNOK_clean_linker_0, # of connection points: 2
#     Edge 32, Type (0, 0), BuildingBlock: AJUNOK_clean_linker_0, # of connection points: 2
#     Edge 33, Type (0, 0), BuildingBlock: AJUNOK_clean_linker_0, # of connection points: 2
#     Edge 34, Type (0, 0), BuildingBlock: AJUNOK_clean_linker_0, # of connection points: 2
#     Edge 35, Type (0, 0), BuildingBlock: AJUNOK_clean_linker_0, # of connection points: 2
#     Edge 36, Type (0, 0), BuildingBlock: AJUNOK_clean_linker_0, # of connection points: 2
#     Edge 37, Type (0, 0), BuildingBlock: AJUNOK_clean_linker_0, # of connection points: 2
#     Edge 38, Type (0, 0), BuildingBlock: AJUNOK_clean_linker_0, # of connection points: 2
#     Edge 39, Type (0, 0), BuildingBlock: AJUNOK_clean_linker_0, # of connection points: 2
#     Edge 40, Type (0, 0), BuildingBlock: AJUNOK_clean_linker_0, # of connection points: 2
#     Edge 41, Type (0, 0), BuildingBlock: AJUNOK_clean_linker_0, # of connection points: 2
#     Edge 42, Type (0, 0), BuildingBlock: AJUNOK_clean_linker_0, # of connection points: 2
#     Edge 43, Type (0, 0), BuildingBlock: AJUNOK_clean_linker_0, # of connection points: 2
#     Edge 44, Type (0, 0), BuildingBlock: AJUNOK_clean_linker_0, # of connection points: 2
#     Edge 45, Type (0, 0), BuildingBlock: AJUNOK_clean_linker_0, # of connection points: 2
#     Edge 46, Type (0, 0), BuildingBlock: AJUNOK_clean_linker_0, # of connection points: 2
#     Edge 47, Type (0, 0), BuildingBlock: AJUNOK_clean_linker_0, # of connection points: 2
# Relax obj value: 0.201
# Max RMSD: 0.320
# Mean RMSD: 0.297
data_MOF--net-lcy-e--node1-BETGAK_clean_sbu_0--edge1-AJUNOK_clean_linker_0
_symmetry_space_group_name_H-M    P1
_symmetry_Int_Tables_number       1
_symmetry_cell_setting            triclinic
loop_
_symmetry_equiv_pos_as_xyz
'x, y, z'
_cell_length_a     35.028562
_cell_length_b     32.501381
_cell_length_c     34.786456
_cell_angle_alpha  89.395866
_cell_angle_beta   91.000086
_cell_angle_gamma 87.882755
loop_
_atom_site_label
_atom_site_type_symbol
_atom_site_fract_x
_atom_site_fract_y
_atom_site_fract_z
_atom_type_partial_charge
La0 La 0.1637 0.30676 0.50698 0.0
La1 La 0.18507 0.23941 0.56877 0.0
C2 C 0.16621 0.37314 0.46914 0.0
C3 C 0.17357 0.38572 0.42917 0.0
C4 C 0.1608 0.36313 0.39752 0.0
C5 C 0.16994 0.37511 0.36002 0.0
C6 C 0.19231 0.40955 0.3537 0.0
C7 C 0.2052 0.43177 0.3855 0.0
C8 C 0.19581 0.42005 0.42281 0.0
C9 C 0.12605 0.23943 0.49174 0.0
C10 C 0.2352 0.24459 0.494 0.0
C11 C 0.19602 0.17275 0.60525 0.0
C12 C 0.17217 0.14153 0.62296 0.0
C13 C 0.1791 0.13043 0.66153 0.0
C14 C 0.15793 0.10016 0.67899 0.0
C15 C 0.12953 0.07998 0.65816 0.0
C16 C 0.12204 0.0916 0.61964 0.0
C17 C 0.14309 0.12229 0.6022 0.0
C18 C 0.20599 0.31579 0.58368 0.0
C19 C 0.11502 0.29077 0.58245 0.0
O20 O 0.13435 0.35463 0.47616 0.0
O21 O 0.19557 0.35597 0.48767 0.0
O22 O 0.12454 0.27246 0.47046 0.0
O23 O 0.14932 0.24536 0.51905 0.0
O24 O 0.21105 0.27296 0.47832 0.0
O25 O 0.23195 0.231 0.52971 0.0
O26 O 0.19534 0.20889 0.62161 0.0
O27 O 0.19542 0.17551 0.56761 0.0
O28 O 0.19958 0.28844 0.60998 0.0
O29 O 0.20482 0.29816 0.55176 0.0
O30 O 0.12567 0.25227 0.57724 0.0
O31 O 0.12844 0.31966 0.55918 0.0
H32 H 0.1441 0.33611 0.40177 0.0
H33 H 0.15998 0.35719 0.33602 0.0
H34 H 0.22226 0.45856 0.38146 0.0
H35 H 0.20621 0.43767 0.44685 0.0
H36 H 0.20116 0.14504 0.67815 0.0
H37 H 0.16404 0.09224 0.70885 0.0
H38 H 0.10071 0.07625 0.60271 0.0
H39 H 0.13697 0.13046 0.5724 0.0
La40 La 0.99616 0.89088 0.77297 0.0
La41 La 0.06444 0.90136 0.82501 0.0
C42 C 0.93322 0.8879 0.73683 0.0
C43 C 0.92044 0.90173 0.6978 0.0
C44 C 0.94069 0.89009 0.66481 0.0
C45 C 0.92836 0.9043 0.62832 0.0
C46 C 0.8958 0.93071 0.62411 0.0
C47 C 0.87625 0.94321 0.65718 0.0
C48 C 0.88837 0.92874 0.69361 0.0
C49 C 0.05748 0.84641 0.75493 0.0
C50 C 0.05705 0.95202 0.74555 0.0
C51 C 0.13152 0.90454 0.85311 0.0
C52 C 0.16474 0.88216 0.87172 0.0
C53 C 0.20129 0.89597 0.86387 0.0
C54 C 0.23355 0.87932 0.88345 0.0
C55 C 0.23019 0.84834 0.91154 0.0
C56 C 0.19379 0.83289 0.91819 0.0
C57 C 0.1612 0.84982 0.89853 0.0
C58 C 1.00258 0.94973 0.8391 0.0
C59 C 1.00482 0.84547 0.85514 0.0
O60 O 0.95797 0.85676 0.73963 0.0
O61 O 0.94183 0.91729 0.76025 0.0
O62 O 1.03347 0.86374 0.73067 0.0
O63 O 0.04605 0.85263 0.78874 0.0
O64 O 1.02113 0.94134 0.74125 0.0
O65 O 0.07879 0.93803 0.77465 0.0
O66 O 0.1005 0.91127 0.87291 0.0
O67 O 0.12391 0.89663 0.81706 0.0
O68 O 1.02673 0.93562 0.86514 0.0
O69 O 1.01565 0.939 0.80734 0.0
O70 O 0.04199 0.84755 0.8512 0.0
O71 O 0.98092 0.86379 0.8295 0.0
H72 H 0.96598 0.86995 0.66713 0.0
H73 H 0.94413 0.89446 0.60332 0.0
H74 H 0.85092 0.96328 0.65476 0.0
H75 H 0.87257 0.93858 0.71861 0.0
H76 H 0.20481 0.92077 0.84331 0.0
H77 H 0.26118 0.89164 0.87748 0.0
H78 H 0.19034 0.8091 0.93975 0.0
H79 H 0.13331 0.83851 0.90502 0.0
La80 La 0.40896 0.78691 0.06802 0.0
La81 La 0.42591 0.73 1.00534 0.0
C82 C 0.40433 0.82667 0.13001 0.0
C83 C 0.4258 0.86156 0.14621 0.0
C84 C 0.41033 0.90214 0.14388 0.0
C85 C 0.43015 0.93502 0.15943 0.0
C86 C 0.46581 0.92816 0.17807 0.0
C87 C 0.4816 0.8877 0.17983 0.0
C88 C 0.46182 0.85484 0.16427 0.0
C89 C 0.36672 0.80296 1.00518 0.0
C90 C 0.46895 0.81402 1.00751 0.0
C91 C 0.4368 0.69604 0.94112 0.0
C92 C 0.4169 0.67456 0.90968 0.0
C93 C 0.43524 0.64022 0.89308 0.0
C94 C 0.42018 0.62266 0.85984 0.0
C95 C 0.38652 0.63927 0.84218 0.0
C96 C 0.36705 0.67242 0.85987 0.0
C97 C 0.38217 0.69005 0.89326 0.0
C98 C 0.46819 0.719 0.07093 0.0
C99 C 0.36833 0.69846 0.06065 0.0
O100 O 0.38264 0.8347 0.09972 0.0
O101 O 0.42292 0.79129 0.12691 0.0
O102 O 0.38203 0.82984 1.02715 0.0
O103 O 0.37545 0.76734 1.01864 0.0
O104 O 0.45847 0.8178 0.0438 0.0
O105 O 0.45581 0.78409 0.98641 0.0
O106 O 0.4419 0.6768 0.97415 0.0
O107 O 0.42803 0.73515 0.9454 0.0
O108 O 0.45675 0.69004 0.04887 0.0
O109 O 0.45771 0.75174 0.0541 0.0
O110 O 0.37603 0.69965 1.02391 0.0
O111 O 0.38053 0.72795 0.08404 0.0
H112 H 0.38265 0.90847 0.13029 0.0
H113 H 0.41708 0.96573 0.15779 0.0
H114 H 0.50927 0.88138 0.19344 0.0
H115 H 0.47476 0.82413 0.16663 0.0
H116 H 0.46199 0.6277 0.90517 0.0
H117 H 0.43531 0.59645 0.84749 0.0
H118 H 0.34093 0.68567 0.84708 0.0
H119 H 0.36735 0.71654 0.90546 0.0
La120 La 0.57621 0.1514 0.26635 0.0
La121 La 0.52373 0.12551 0.327 0.0
C122 C 0.62349 0.15366 0.21192 0.0
C123 C 0.63257 0.1317 0.17564 0.0
C124 C 0.62542 0.15183 0.14014 0.0
C125 C 0.63715 0.13376 0.10574 0.0
C126 C 0.65654 0.09508 0.10582 0.0
C127 C 0.66274 0.07429 0.14122 0.0
C128 C 0.65092 0.09239 0.17575 0.0
C129 C 0.51504 0.19961 0.2709 0.0
C130 C 0.5305 0.06853 0.25711 0.0
C131 C 0.46217 0.11034 0.36059 0.0
C132 C 0.42856 0.13307 0.37596 0.0
C133 C 0.39488 0.11197 0.38134 0.0
C134 C 0.36288 0.13184 0.39719 0.0
C135 C 0.36388 0.17328 0.40829 0.0
C136 C 0.39713 0.19503 0.40138 0.0
C137 C 0.42931 0.17504 0.38534 0.0
C138 C 0.59716 0.10486 0.34188 0.0
C139 C 0.57103 0.19899 0.34539 0.0
O140 O 0.59135 0.17527 0.21246 0.0
O141 O 0.63011 0.13414 0.24449 0.0
O142 O 0.549 0.21216 0.26433 0.0
O143 O 0.51591 0.1606 0.27412 0.0
O144 O 0.54578 0.10005 0.23913 0.0
O145 O 0.52443 0.06967 0.29426 0.0
O146 O 0.49495 0.11432 0.37847 0.0
O147 O 0.4657 0.11144 0.3233 0.0
O148 O 0.57126 0.11037 0.36778 0.0
O149 O 0.58029 0.10505 0.30943 0.0
O150 O 0.53576 0.18661 0.34617 0.0
O151 O 0.5948 0.18568 0.31822 0.0
H152 H 0.61163 0.18223 0.13903 0.0
H153 H 0.63188 0.1506 0.07902 0.0
H154 H 0.67829 0.04487 0.14246 0.0
H155 H 0.65721 0.07609 0.20255 0.0
H156 H 0.3935 0.07978 0.37381 0.0
H157 H 0.33748 0.11447 0.40161 0.0
H158 H 0.39869 0.22697 0.40965 0.0
H159 H 0.45492 0.19207 0.38093 0.0
La160 La 0.66009 0.24435 0.57954 0.0
La161 La 0.66835 0.31744 0.52799 0.0
C162 C 0.65829 0.17703 0.61616 0.0
C163 C 0.67331 0.16374 0.65466 0.0
C164 C 0.66853 0.18862 0.68727 0.0
C165 C 0.68394 0.17585 0.72317 0.0
C166 C 0.70473 0.13814 0.72713 0.0
C167 C 0.70981 0.11366 0.69432 0.0
C168 C 0.69425 0.12628 0.65857 0.0
C169 C 0.61908 0.31044 0.59859 0.0
C170 C 0.71889 0.30904 0.60496 0.0
C171 C 0.67165 0.38919 0.49998 0.0
C172 C 0.65305 0.41875 0.47269 0.0
C173 C 0.67342 0.45305 0.46172 0.0
C174 C 0.65739 0.48204 0.43581 0.0
C175 C 0.62064 0.47724 0.42006 0.0
C176 C 0.59966 0.44334 0.43178 0.0
C177 C 0.61586 0.41408 0.45792 0.0
C178 C 0.71101 0.25045 0.51166 0.0
C179 C 0.61514 0.25407 0.49761 0.0
O180 O 0.62996 0.20445 0.61502 0.0
O181 O 0.68401 0.18502 0.5907 0.0
O182 O 0.63689 0.28556 0.62259 0.0
O183 O 0.62411 0.29753 0.56488 0.0
O184 O 0.70942 0.27017 0.60852 0.0
O185 O 0.70309 0.3333 0.57798 0.0
O186 O 0.68931 0.35685 0.4856 0.0
O187 O 0.65302 0.38033 0.53109 0.0
O188 O 0.69539 0.2753 0.48598 0.0
O189 O 0.7036 0.26489 0.54401 0.0
O190 O 0.61894 0.29403 0.50008 0.0
O191 O 0.63193 0.22833 0.52359 0.0
H192 H 0.65308 0.21806 0.68503 0.0
H193 H 0.67998 0.19567 0.74772 0.0
H194 H 0.72545 0.08431 0.6964 0.0
H195 H 0.6987 0.10677 0.63386 0.0
H196 H 0.70197 0.45737 0.47312 0.0
H197 H 0.67393 0.50821 0.42778 0.0
H198 H 0.57126 0.439 0.42004 0.0
H199 H 0.59963 0.38781 0.46631 0.0
La200 La 1.01274 0.39789 0.74926 0.0
La201 La 0.07036 0.37221 0.80821 0.0
C202 C 0.97143 0.41404 0.69077 0.0
C203 C 0.93187 0.40306 0.68258 0.0
C204 C 0.9161 0.40854 0.64557 0.0
C205 C 0.87979 0.39423 0.63701 0.0
C206 C 0.85905 0.3738 0.66525 0.0
C207 C 0.87464 0.36909 0.70251 0.0
C208 C 0.91074 0.38376 0.71114 0.0
C209 C 1.00104 0.43067 0.81749 0.0
C210 C 0.99169 0.32677 0.8052 0.0
C211 C 0.1066 0.35689 0.87014 0.0
C212 C 0.12096 0.38091 0.90263 0.0
C213 C 0.1571 0.37061 0.91845 0.0
C214 C 0.17032 0.39078 0.951 0.0
C215 C 0.14754 0.42155 0.96853 0.0
C216 C 0.11172 0.43276 0.952 0.0
C217 C 0.09858 0.41271 0.91917 0.0
C218 C 0.07887 0.33702 0.73975 0.0
C219 C 0.09282 0.44099 0.75694 0.0
O220 O 0.97627 0.44 0.71878 0.0
O221 O 0.99568 0.38258 0.69332 0.0
O222 O 0.97465 0.4181 0.79447 0.0
O223 O 1.03303 0.42585 0.80158 0.0
O224 O 0.9843 0.34346 0.77088 0.0
O225 O 1.02215 0.33639 0.82548 0.0
O226 O 0.12324 0.3619 0.83712 0.0
O227 O 0.06946 0.35547 0.86638 0.0
O228 O 0.10673 0.3438 0.76339 0.0
O229 O 0.04842 0.34516 0.75666 0.0
O230 O 0.09122 0.4316 0.79357 0.0
O231 O 0.06691 0.42673 0.73265 0.0
H232 H 0.93213 0.42306 0.62315 0.0
H233 H 0.8683 0.39813 0.60803 0.0
H234 H 0.85898 0.35396 0.72485 0.0
H235 H 0.92243 0.37937 0.73994 0.0
H236 H 0.17485 0.34638 0.90601 0.0
H237 H 0.19827 0.38189 0.96283 0.0
H238 H 0.09339 0.45602 0.96508 0.0
H239 H 0.0706 0.42141 0.9073 0.0
La240 La 0.90324 0.79865 0.0834 0.0
La241 La 0.90112 0.72212 1.02641 0.0
C242 C 0.88553 0.86333 0.11936 0.0
C243 C 0.8815 0.87733 0.15934 0.0
C244 C 0.90985 0.86951 0.18788 0.0
C245 C 0.9037 0.88205 0.22586 0.0
C246 C 0.86903 0.90215 0.23578 0.0
C247 C 0.84094 0.90988 0.20707 0.0
C248 C 0.84719 0.89777 0.1693 0.0
C249 C 0.95514 0.74002 0.10279 0.0
C250 C 0.84806 0.72488 0.1002 0.0
C251 C 0.908 0.65016 1.00013 0.0
C252 C 0.92715 0.6235 0.97124 0.0
C253 C 0.90727 0.61295 0.93753 0.0
C254 C 0.92192 0.58223 0.91346 0.0
C255 C 0.95665 0.56101 0.92262 0.0
C256 C 0.97755 0.57284 0.95524 0.0
C257 C 0.96281 0.60354 0.97949 0.0
C258 C 0.86096 0.79001 1.00525 0.0
C259 C 0.95068 0.79423 1.00466 0.0
O260 O 0.91993 0.8552 0.10624 0.0
O261 O 0.86089 0.83622 0.10849 0.0
O262 O 0.9495 0.77359 0.12192 0.0
O263 O 0.93126 0.74137 0.07556 0.0
O264 O 0.8617 0.76038 0.11172 0.0
O265 O 0.85919 0.70598 0.0686 0.0
O266 O 0.88176 0.67743 0.98812 0.0
O267 O 0.92883 0.66381 1.02863 0.0
O268 O 0.87428 0.7626 0.98131 0.0
O269 O 0.8677 0.77644 1.03885 0.0
O270 O 0.9493 0.75367 1.00504 0.0
O271 O 0.9314 0.81825 1.02938 0.0
H272 H 0.93644 0.85344 0.18099 0.0
H273 H 0.9257 0.87548 0.24755 0.0
H274 H 0.81413 0.92564 0.21383 0.0
H275 H 0.82492 0.90404 0.14778 0.0
H276 H 0.87958 0.62727 0.9305 0.0
H277 H 0.90551 0.57423 0.88811 0.0
H278 H 1.0044 0.55702 0.96297 0.0
H279 H 0.97862 0.61034 1.00554 0.0
La280 La 0.5536 0.64459 0.24503 0.0
La281 La 0.4979 0.66134 0.30546 0.0
C282 C 0.59153 0.63422 0.18478 0.0
C283 C 0.63088 0.64424 0.17568 0.0
C284 C 0.6546 0.66132 0.2038 0.0
C285 C 0.69156 0.67251 0.19478 0.0
C286 C 0.70544 0.66641 0.15758 0.0
C287 C 0.68158 0.64922 0.12951 0.0
C288 C 0.64454 0.63823 0.13852 0.0
C289 C 0.57047 0.60521 0.31035 0.0
C290 C 0.57502 0.71001 0.30554 0.0
C291 C 0.46222 0.67065 0.36749 0.0
C292 C 0.44586 0.64558 0.39865 0.0
C293 C 0.40606 0.64293 0.40122 0.0
C294 C 0.38993 0.62353 0.43279 0.0
C295 C 0.41319 0.60649 0.46271 0.0
C296 C 0.45307 0.60813 0.4597 0.0
C297 C 0.46925 0.62747 0.42804 0.0
C298 C 0.48467 0.70241 0.23869 0.0
C299 C 0.47791 0.59452 0.25135 0.0
O300 O 0.58787 0.60559 0.21099 0.0
O301 O 0.5685 0.666 0.19045 0.0
O302 O 0.59485 0.62148 0.28781 0.0
O303 O 0.53739 0.61052 0.29567 0.0
O304 O 0.58223 0.69657 0.27056 0.0
O305 O 0.54493 0.69833 0.32446 0.0
O306 O 0.44548 0.67016 0.33356 0.0
O307 O 0.49945 0.67018 0.36505 0.0
O308 O 0.45855 0.68822 0.26049 0.0
O309 O 0.51593 0.69503 0.25588 0.0
O310 O 0.48082 0.60147 0.28834 0.0
O311 O 0.50063 0.61362 0.22737 0.0
H312 H 0.64442 0.66628 0.23266 0.0
H313 H 0.70935 0.68575 0.21686 0.0
H314 H 0.69134 0.64498 0.1004 0.0
H315 H 0.62646 0.62546 0.11641 0.0
H316 H 0.38727 0.65689 0.3793 0.0
H317 H 0.35911 0.62261 0.4342 0.0
H318 H 0.47175 0.596 0.48257 0.0
H319 H 0.50003 0.62932 0.42727 0.0
La320 La 0.24778 0.54904 0.16556 0.0
La321 La 0.29666 0.47328 0.15427 0.0
C322 C 0.21286 0.61754 0.17362 0.0
C323 C 0.17308 0.63143 0.16433 0.0
C324 C 0.14171 0.61181 0.18014 0.0
C325 C 0.10437 0.62372 0.16872 0.0
C326 C 0.09777 0.65491 0.14088 0.0
C327 C 0.1291 0.67456 0.12525 0.0
C328 C 0.16634 0.663 0.13693 0.0
C329 C 0.23031 0.48421 0.20769 0.0
C330 C 0.21933 0.48706 0.10484 0.0
C331 C 0.32165 0.39928 0.15299 0.0
C332 C 0.34543 0.36947 0.17599 0.0
C333 C 0.35989 0.33384 0.15821 0.0
C334 C 0.38322 0.30521 0.17878 0.0
C335 C 0.39266 0.31165 0.21764 0.0
C336 C 0.37729 0.347 0.23574 0.0
C337 C 0.35394 0.37577 0.21504 0.0
C338 C 0.31618 0.53755 0.11176 0.0
C339 C 0.32993 0.53774 0.20561 0.0
O340 O 0.2184 0.59068 0.20162 0.0
O341 O 0.23347 0.60812 0.14396 0.0
O342 O 0.20576 0.5092 0.19066 0.0
O343 O 0.26334 0.49603 0.20072 0.0
O344 O 0.21606 0.52553 0.11661 0.0
O345 O 0.24669 0.46143 0.11824 0.0
O346 O 0.33913 0.43001 0.13744 0.0
O347 O 0.28872 0.41098 0.16727 0.0
O348 O 0.33959 0.50846 0.12445 0.0
O349 O 0.28273 0.52775 0.1201 0.0
O350 O 0.3264 0.4977 0.20308 0.0
O351 O 0.30462 0.56397 0.18897 0.0
H352 H 0.14595 0.58704 0.20102 0.0
H353 H 0.08063 0.60838 0.1814 0.0
H354 H 0.12474 0.69936 0.10441 0.0
H355 H 0.19001 0.67847 0.12423 0.0
H356 H 0.35354 0.32838 0.12813 0.0
H357 H 0.39485 0.27859 0.16388 0.0
H358 H 0.38356 0.35256 0.2658 0.0
H359 H 0.3428 0.403 0.22937 0.0
La360 La 0.75855 0.97605 0.89882 0.0
La361 La 0.81372 0.03626 0.92781 0.0
C362 C 0.7135 0.91671 0.89785 0.0
C363 C 0.6744 0.90807 0.91055 0.0
C364 C 0.65911 0.86989 0.90207 0.0
C365 C 0.6241 0.8589 0.91728 0.0
C366 C 0.60362 0.88574 0.94161 0.0
C367 C 0.61885 0.92415 0.94997 0.0
C368 C 0.65375 0.93536 0.93428 0.0
C369 C 0.75678 0.04317 0.85735 0.0
C370 C 0.73807 0.03541 0.97105 0.0
C371 C 0.86059 0.09294 0.93511 0.0
C372 C 0.87907 0.12346 0.91048 0.0
C373 C 0.91703 0.13303 0.91851 0.0
C374 C 0.93388 0.16525 0.89893 0.0
C375 C 0.91297 0.1889 0.87113 0.0
C376 C 0.87562 0.17783 0.86151 0.0
C377 C 0.85875 0.14537 0.88105 0.0
C378 C 0.8171 0.96033 0.96062 0.0
C379 C 0.83936 0.98519 0.85994 0.0
O380 O 0.71723 0.94222 0.86886 0.0
O381 O 0.73803 0.92346 0.92555 0.0
O382 O 0.75034 1.00682 0.84431 0.0
O383 O 0.76077 0.0422 0.89391 0.0
O384 O 0.72907 1.00383 0.94912 0.0
O385 O 0.76953 0.05527 0.96603 0.0
O386 O 0.87098 0.05419 0.93096 0.0
O387 O 0.82369 0.09805 0.93932 0.0
O388 O 0.82542 0.99378 0.97851 0.0
O389 O 0.81124 0.97081 0.92663 0.0
O390 O 0.83418 1.02356 0.87045 0.0
O391 O 0.81433 0.9579 0.87184 0.0
H392 H 0.67472 0.84809 0.88432 0.0
H393 H 0.61341 0.82887 0.91071 0.0
H394 H 0.60371 0.9455 0.96851 0.0
H395 H 0.66489 0.96501 0.94121 0.0
H396 H 0.93333 0.11635 0.94081 0.0
H397 H 0.96306 0.17239 0.90626 0.0
H398 H 0.85895 0.19533 0.84004 0.0
H399 H 0.82948 0.1383 0.87401 0.0
La400 La 0.75362 0.99449 0.43644 0.0
La401 La 0.82281 0.0561 0.43115 0.0
C402 C 0.69421 0.95776 0.41761 0.0
C403 C 0.68236 0.91619 0.40771 0.0
C404 C 0.64456 0.90571 0.41408 0.0
C405 C 0.63074 0.86921 0.39939 0.0
C406 C 0.65446 0.84271 0.37784 0.0
C407 C 0.69262 0.85267 0.37227 0.0
C408 C 0.70659 0.889 0.38739 0.0
C409 C 0.80956 0.97424 0.48614 0.0
C410 C 0.82355 0.97451 0.38054 0.0
C411 C 0.8871 0.08627 0.44042 0.0
C412 C 0.92552 0.10315 0.44687 0.0
C413 C 0.93727 0.13693 0.42522 0.0
C414 C 0.97281 0.15396 0.43257 0.0
C415 C 0.99781 0.13729 0.4614 0.0
C416 C 0.98598 0.10344 0.48305 0.0
C417 C 0.95027 0.08658 0.47589 0.0
C418 C 0.75796 0.07557 0.39154 0.0
C419 C 0.75581 0.08022 0.48299 0.0
O420 O 0.7037 0.96513 0.45353 0.0
O421 O 0.71708 0.9746 0.39308 0.0
O422 O 0.77885 0.95349 0.48184 0.0
O423 O 0.80688 1.00369 0.46249 0.0
O424 O 0.79059 0.96314 0.39501 0.0
O425 O 0.84086 1.00836 0.39111 0.0
O426 O 0.86503 0.09535 0.41028 0.0
O427 O 0.8728 0.06006 0.46469 0.0
O428 O 0.78216 0.10267 0.40316 0.0
O429 O 0.77277 0.0408 0.39973 0.0
O430 O 0.79329 0.07971 0.48033 0.0
O431 O 0.73437 0.05227 0.46591 0.0
H432 H 0.62532 0.92652 0.4292 0.0
H433 H 0.60106 0.86239 0.40368 0.0
H434 H 0.71143 0.8326 0.35588 0.0
H435 H 0.73588 0.89654 0.38207 0.0
H436 H 0.91869 0.15075 0.40306 0.0
H437 H 0.98031 0.18087 0.41614 0.0
H438 H 1.0044 0.08989 0.50549 0.0
H439 H 0.94201 0.0606 0.49321 0.0
La440 La 0.32197 0.48639 0.66856 0.0
La441 La 0.2649 0.55442 0.65335 0.0
C442 C 0.36375 0.42213 0.67862 0.0
C443 C 0.40449 0.41271 0.67265 0.0
C444 C 0.42029 0.37406 0.68345 0.0
C445 C 0.45734 0.36248 0.6726 0.0
C446 C 0.4789 0.38923 0.65036 0.0
C447 C 0.46348 0.42853 0.64069 0.0
C448 C 0.42658 0.44027 0.65194 0.0
C449 C 0.33688 0.55636 0.70349 0.0
C450 C 0.33798 0.54621 0.6 0.0
C451 C 0.23076 0.62395 0.64813 0.0
C452 C 0.20594 0.65164 0.67128 0.0
C453 C 0.16645 0.65422 0.66346 0.0
C454 C 0.14325 0.68406 0.68104 0.0
C455 C 0.15906 0.71224 0.70658 0.0
C456 C 0.19813 0.70846 0.71609 0.0
C457 C 0.22147 0.67851 0.69845 0.0
C458 C 0.24784 0.48402 0.62012 0.0
C459 C 0.24302 0.49254 0.71317 0.0
O460 O 0.35493 0.44753 0.7063 0.0
O461 O 0.34457 0.43112 0.64701 0.0
O462 O 0.36183 0.53238 0.6872 0.0
O463 O 0.30466 0.54069 0.6997 0.0
O464 O 0.34726 0.51036 0.61648 0.0
O465 O 0.30845 0.56899 0.61162 0.0
O466 O 0.21611 0.58976 0.63623 0.0
O467 O 0.26659 0.61858 0.65908 0.0
O468 O 0.22279 0.51161 0.63102 0.0
O469 O 0.28065 0.49833 0.62436 0.0
O470 O 0.24369 0.53245 0.70703 0.0
O471 O 0.26926 0.46746 0.69759 0.0
H472 H 0.40353 0.35232 0.6991 0.0
H473 H 0.46863 0.33196 0.68032 0.0
H474 H 0.47973 0.44984 0.624 0.0
H475 H 0.41475 0.47028 0.64332 0.0
H476 H 0.15363 0.63418 0.64258 0.0
H477 H 0.1131 0.68626 0.67349 0.0
H478 H 0.21092 0.73001 0.73559 0.0
H479 H 0.25183 0.67748 0.70501 0.0
C480 C 0.24937 0.36645 0.61351 0.0
C481 C 0.21705 0.35905 0.59056 0.0
C482 C 0.25979 0.4068 0.62204 0.0
C483 C 0.23855 0.44155 0.60806 0.0
H484 H 0.26626 0.34081 0.62579 0.0
H485 H 0.28266 0.41042 0.64235 0.0
S486 S 0.1493 0.43949 0.54966 0.0
N487 N 0.16234 0.39054 0.55597 0.0
N488 N 0.18234 0.46578 0.57185 0.0
C489 C 0.20583 0.43461 0.58562 0.0
C490 C 0.19513 0.39358 0.57677 0.0
C491 C 0.89832 0.98418 0.81948 0.0
C492 C 0.88 0.9723 0.85329 0.0
C493 C 0.93829 0.97868 0.81577 0.0
C494 C 0.96146 0.96091 0.84557 0.0
H495 H 0.88177 0.99839 0.79599 0.0
H496 H 0.95115 0.98817 0.78917 0.0
S497 S 0.92924 0.93687 0.94388 0.0
N498 N 0.88968 0.94988 0.91964 0.0
N499 N 0.96397 0.93973 0.91264 0.0
C500 C 0.94394 0.9522 0.88051 0.0
C501 C 0.90343 0.95755 0.88422 0.0
C502 C 0.31549 0.65141 0.07976 0.0
C503 C 0.35462 0.65842 0.07561 0.0
C504 C 0.30272 0.61177 0.08922 0.0
C505 C 0.32859 0.5782 0.09665 0.0
H506 H 0.29459 0.6763 0.07444 0.0
H507 H 0.27247 0.60722 0.08968 0.0
S508 S 0.43302 0.57801 0.08067 0.0
N509 N 0.41797 0.62582 0.07159 0.0
N510 N 0.39466 0.55354 0.09306 0.0
C511 C 0.36741 0.5844 0.09014 0.0
C512 C 0.38019 0.62396 0.07899 0.0
C513 C 0.64914 0.06759 0.37951 0.0
C514 C 0.639 0.09672 0.35081 0.0
C515 C 0.68716 0.06124 0.39234 0.0
C516 C 0.71743 0.08372 0.3776 0.0
H517 H 0.62727 0.04974 0.39276 0.0
H518 H 0.69202 0.03954 0.4153 0.0
S519 S 0.70665 0.16812 0.30567 0.0
N520 N 0.66298 0.15163 0.31055 0.0
N521 N 0.73409 0.13889 0.33465 0.0
C522 C 0.70777 0.11401 0.34983 0.0
C523 C 0.66885 0.12053 0.33635 0.0
C524 C 0.70892 0.18606 0.47278 0.0
C525 C 0.72236 0.2066 0.50533 0.0
C526 C 0.71596 0.14356 0.46823 0.0
C527 C 0.73863 0.12032 0.49498 0.0
H528 H 0.69288 0.203 0.45055 0.0
H529 H 0.70548 0.12948 0.44233 0.0
S530 S 0.78405 0.16044 0.58338 0.0
N531 N 0.76074 0.20093 0.56414 0.0
N532 N 0.77602 0.12165 0.55436 0.0
C533 C 0.75311 0.14079 0.52721 0.0
C534 C 0.74485 0.18379 0.53249 0.0
C535 C 0.14493 0.49161 0.75817 0.0
C536 C 0.12976 0.45556 0.74329 0.0
C537 C 0.18245 0.50247 0.74991 0.0
C538 C 0.20678 0.47669 0.72796 0.0
H539 H 0.12763 0.51161 0.77616 0.0
H540 H 0.19236 0.53149 0.76053 0.0
S541 S 0.1819 0.37608 0.68684 0.0
N542 N 0.14252 0.39318 0.7075 0.0
N543 N 0.21343 0.41169 0.69447 0.0
C544 C 0.1924 0.43954 0.71476 0.0
C545 C 0.1538 0.42951 0.72173 0.0
C546 C 0.84226 0.90703 1.00894 0.0
C547 C 0.82614 0.91652 0.97262 0.0
C548 C 0.85322 0.86621 1.01922 0.0
C549 C 0.84776 0.8329 0.99443 0.0
H550 H 0.84768 0.93139 1.02911 0.0
H551 H 0.86808 0.8612 0.04589 0.0
S552 S 0.80896 0.84052 0.89497 0.0
N553 N 0.80756 0.88828 0.91051 0.0
N554 N 0.82642 0.81233 0.93128 0.0
C555 C 0.83188 0.84183 0.95804 0.0
C556 C 0.82141 0.88332 0.94695 0.0
C557 C 0.42518 0.588 0.20312 0.0
C558 C 0.44312 0.57448 0.23762 0.0
C559 C 0.38744 0.57814 0.19443 0.0
C560 C 0.36724 0.55214 0.21862 0.0
H561 H 0.43981 0.60755 0.18333 0.0
H562 H 0.37423 0.59036 0.16824 0.0
S563 S 0.4032 0.50329 0.30946 0.0
N564 N 0.43866 0.53145 0.29499 0.0
N565 N 0.3689 0.50983 0.27653 0.0
C566 C 0.38568 0.53599 0.25182 0.0
C567 C 0.42344 0.54764 0.26169 0.0
C568 C 0.6078 0.19077 0.40704 0.0
C569 C 0.58538 0.21626 0.38187 0.0
C570 C 0.61401 0.20126 0.44565 0.0
C571 C 0.60011 0.23895 0.4602 0.0
H572 H 0.61961 0.16164 0.39743 0.0
H573 H 0.63075 0.18006 0.4639 0.0
S574 S 0.53739 0.31558 0.40685 0.0
N575 N 0.54617 0.279 0.37525 0.0
N576 N 0.56082 0.30102 0.44662 0.0
C577 C 0.5772 0.26464 0.43539 0.0
C578 C 0.56938 0.25289 0.39656 0.0
C579 C 0.08696 0.34142 0.63021 0.0
C580 C 0.09954 0.30109 0.62131 0.0
C581 C 0.07794 0.35242 0.66822 0.0
C582 C 0.08261 0.32399 0.69908 0.0
H583 H 0.08505 0.36495 0.6079 0.0
H584 H 0.06922 0.38402 0.67353 0.0
S585 S 0.11155 0.21388 0.69189 0.0
N586 N 0.11252 0.2315 0.64728 0.0
N587 N 0.09822 0.25367 0.71817 0.0
C588 C 0.09381 0.28351 0.6906 0.0
C589 C 0.10162 0.27171 0.65194 0.0
C590 C 0.95398 0.84181 0.90514 0.0
C591 C 0.99079 0.83006 0.89269 0.0
C592 C 0.94233 0.83308 0.94277 0.0
C593 C 0.96669 0.81167 0.96926 0.0
H594 H 0.93419 0.85871 0.88601 0.0
H595 H 0.91357 0.84208 0.95072 0.0
S596 S 0.06451 0.77044 0.95059 0.0
N597 N 0.05095 0.79381 0.90996 0.0
N598 N 1.02822 0.77654 0.9799 0.0
C599 C 1.00303 0.79863 0.95696 0.0
C600 C 1.01524 0.80796 0.91894 0.0
C601 C 0.44968 0.69242 0.17626 0.0
C602 C 0.48013 0.70972 0.19634 0.0
C603 C 0.44709 0.69395 0.13591 0.0
C604 C 0.47348 0.71506 0.11367 0.0
H605 H 0.42788 0.67685 0.19184 0.0
H606 H 0.42339 0.67941 0.12249 0.0
S607 S 0.55527 0.77177 0.15267 0.0
N608 N 0.53579 0.75176 0.19121 0.0
N609 N 0.5292 0.75727 0.11547 0.0
C610 C 0.50278 0.73487 0.13358 0.0
C611 C 0.50638 0.73182 0.17478 0.0
C612 C 0.24004 0.43083 0.30507 0.0
C613 C 0.20191 0.42322 0.3142 0.0
C614 C 0.24935 0.4483 0.26952 0.0
C615 C 0.22078 0.45943 0.242 0.0
H616 H 0.26276 0.42408 0.32597 0.0
H617 H 0.27895 0.45477 0.2643 0.0
S618 S 0.11694 0.44337 0.25079 0.0
N619 N 0.13573 0.42599 0.29198 0.0
N620 N 0.15311 0.45901 0.22529 0.0
C621 C 0.18278 0.45027 0.25009 0.0
C622 C 0.17336 0.43214 0.28615 0.0
C623 C 0.87096 0.98417 0.57585 0.0
C624 C 0.88015 0.94261 0.58532 0.0
C625 C 0.8511 0.99511 0.54145 0.0
C626 C 0.83923 0.96471 0.51589 0.0
H627 H 0.87798 1.00821 0.59583 0.0
H628 H 0.84265 0.02711 0.53624 0.0
S629 S 0.85797 0.8521 0.52603 0.0
N630 N 0.87769 0.87146 0.56498 0.0
N631 N 0.83988 0.89192 0.50108 0.0
C632 C 0.84977 0.92342 0.52418 0.0
C633 C 0.87039 0.91237 0.5587 0.0
C634 C 0.32239 0.59132 0.76616 0.0
C635 C 0.34782 0.58306 0.736 0.0
C636 C 0.33462 0.61075 0.79999 0.0
C637 C 0.3727 0.62252 0.80486 0.0
H638 H 0.29331 0.58116 0.76435 0.0
H639 H 0.31455 0.6151 0.82306 0.0
S640 S 0.44867 0.6137 0.73205 0.0
N641 N 0.41154 0.59229 0.71162 0.0
N642 N 0.43431 0.62889 0.77474 0.0
C643 C 0.39762 0.61665 0.77395 0.0
C644 C 0.38522 0.59698 0.73965 0.0
C645 C 0.69524 0.10539 0.04691 0.0
C646 C 0.67381 0.079 0.06966 0.0
C647 C 0.71444 0.09111 1.01439 0.0
C648 C 0.71301 0.04979 1.00278 0.0
H649 H 0.69833 0.1372 0.05502 0.0
H650 H 0.73126 0.11269 0.9986 0.0
S651 S 0.65891 0.96843 0.05083 0.0
N652 N 0.65059 1.0098 0.07708 0.0
N653 N 0.68711 0.98285 1.01597 0.0
C654 C 0.69065 1.02324 1.0244 0.0
C655 C 0.67113 0.0378 0.05787 0.0
C656 C 0.7584 0.10685 0.7678 0.0
C657 C 0.72067 0.1233 0.76516 0.0
C658 C 0.77186 0.08521 0.80075 0.0
C659 C 0.74833 0.07952 0.83254 0.0
H660 H 0.77699 0.10864 0.74331 0.0
H661 H 0.7999 0.06999 0.80011 0.0
S662 S 0.64855 0.11919 0.84191 0.0
N663 N 0.66091 0.13486 0.79868 0.0
N664 N 0.68655 0.09426 0.86058 0.0
C665 C 0.71167 0.09845 0.83161 0.0
C666 C 0.69777 0.1204 0.79794 0.0
C667 C 0.19276 0.4296 0.06757 0.0
C668 C 0.19509 0.47229 0.0729 0.0
C669 C 0.176 0.41377 1.03443 0.0
C670 C 0.1609 0.43991 1.00507 0.0
H671 H 0.20506 0.40799 0.08869 0.0
H672 H 0.17568 0.38064 1.03137 0.0
S673 S 0.1568 0.55414 1.00608 0.0
N674 N 0.17834 0.54064 0.04717 0.0
N675 N 0.14704 0.51069 0.98439 0.0
C676 C 0.16103 0.48271 1.01081 0.0
C677 C 0.17807 0.49895 0.04485 0.0
C678 C 0.8165 0.92238 0.32851 0.0
C679 C 0.83932 0.951 0.34742 0.0
C680 C 0.82726 0.90526 0.29333 0.0
C681 C 0.86147 0.91566 0.2757 0.0
H682 H 0.7891 0.91454 0.33984 0.0
H683 H 0.80801 0.88469 0.27914 0.0
S684 S 0.9336 0.98546 0.31464 0.0
N685 N 0.89965 0.98614 0.34699 0.0
N686 N 0.91948 0.95395 0.28075 0.0
C687 C 0.88574 0.94216 0.2952 0.0
C688 C 0.87476 0.95983 0.33104 0.0
C689 C 0.34856 0.59916 0.54889 0.0
C690 C 0.35922 0.56083 0.56598 0.0
C691 C 0.36623 0.61339 0.51577 0.0
C692 C 0.39551 0.5901 0.49813 0.0
H693 H 0.32607 0.61852 0.56095 0.0
H694 H 0.35696 0.64317 0.50399 0.0
S695 S 0.43479 0.48783 0.53105 0.0
N696 N 0.40166 0.4999 0.56263 0.0
N697 N 0.4347 0.52678 0.50015 0.0
C698 C 0.407 0.55197 0.51501 0.0
C699 C 0.3889 0.53731 0.54889 0.0
C700 C 0.28104 0.24588 0.43819 0.0
C701 C 0.26774 0.22646 0.4716 0.0
C702 C 0.31252 0.22914 0.41796 0.0
C703 C 0.33143 0.19208 0.43007 0.0
H704 H 0.26735 0.27439 0.42781 0.0
H705 H 0.3218 0.24497 0.39241 0.0
S706 S 0.30862 0.12905 0.51554 0.0
N707 N 0.27666 0.16758 0.51546 0.0
N708 N 0.33535 0.13717 0.47786 0.0
C709 C 0.31854 0.17254 0.46332 0.0
C710 C 0.28685 0.1894 0.4839 0.0
C711 C 0.13135 1.01553 0.69764 0.0
C712 C 0.10964 0.04553 0.67662 0.0
C713 C 0.11389 0.98469 0.71846 0.0
C714 C 0.07386 0.98229 0.71916 0.0
H715 H 0.16226 1.01623 0.6985 0.0
H716 H 0.13211 0.96293 0.73474 0.0
S717 S 1.0039 0.05178 0.66681 0.0
N718 N 0.04593 0.06993 0.65618 0.0
N719 N 1.01291 1.01131 0.6951 0.0
C720 C 0.0517 1.01087 0.6968 0.0
C721 C 0.06962 0.04263 0.67559 0.0
C722 C 0.27853 0.79481 0.93869 0.0
C723 C 0.26424 0.83591 0.93615 0.0
C724 C 0.31195 0.78406 0.96058 0.0
C725 C 0.33216 0.81405 0.98075 0.0
H726 H 0.26413 0.77096 0.92321 0.0
H727 H 0.32201 0.75215 0.96168 0.0
S728 S 0.30449 0.92558 0.98549 0.0
N729 N 0.27156 0.90604 0.95735 0.0
N730 N 0.33391 0.8866 0.99758 0.0
C731 C 0.31758 0.85514 0.97866 0.0
C732 C 0.28377 0.86584 0.95669 0.0
C733 C 0.50657 0.03417 0.19684 0.0
C734 C 0.51807 0.03148 0.23582 0.0
C735 C 0.49022 1.00058 0.1781 0.0
C736 C 0.48533 0.96277 0.19742 0.0
H737 H 0.50891 0.06285 0.18106 0.0
H738 H 0.48101 1.00433 0.14835 0.0
S739 S 0.51268 0.9389 0.29899 0.0
N740 N 0.52497 0.98697 0.29246 0.0
N741 N 0.49428 0.92458 0.25747 0.0
C742 C 0.49787 0.95935 0.23597 0.0
C743 C 0.5142 0.99345 0.25507 0.0
C744 C 0.79318 0.38306 0.63778 0.0
C745 C 0.82141 0.35716 0.65533 0.0
C746 C 0.75895 0.36743 0.62406 0.0
C747 C 0.75174 0.32511 0.62688 0.0
H748 H 0.79801 0.41555 0.63376 0.0
H749 H 0.73866 0.38865 0.60973 0.0
S750 S 0.81577 0.24484 0.67316 0.0
N751 N 0.83933 0.28773 0.67721 0.0
N752 N 0.77494 0.25803 0.6511 0.0
C753 C 0.77896 0.29918 0.6463 0.0
C754 C 0.81386 0.31528 0.66053 0.0
C755 C 1.01766 0.49105 0.85864 0.0
C756 C 0.99222 0.46022 0.84856 0.0
C757 C 1.00656 0.52303 0.88362 0.0
C758 C 0.96967 0.5252 0.89919 0.0
H759 H 0.04565 0.4915 0.84592 0.0
H760 H 1.0264 0.54703 0.88959 0.0
S761 S 0.89506 0.44807 0.88688 0.0
N762 N 0.93039 0.43122 0.85972 0.0
N763 N 0.90973 0.49087 0.90651 0.0
C764 C 0.94503 0.49308 0.89116 0.0
C765 C 0.95628 0.4607 0.86592 0.0
C766 C 0.79051 0.73339 0.14167 0.0
C767 C 0.81532 0.70752 0.12056 0.0
C768 C 0.7556 0.7194 0.15494 0.0
C769 C 0.74429 0.6791 0.14753 0.0
H770 H 0.79707 0.7653 0.14627 0.0
H771 H 0.73655 0.74085 0.16953 0.0
S772 S 0.80158 0.59711 0.09951 0.0
N773 N 0.82805 0.63802 0.09721 0.0
N774 N 0.76249 0.61209 0.12208 0.0
C775 C 0.76986 0.65219 0.12874 0.0
C776 C 0.80537 0.66629 0.11534 0.0
C777 C 0.5707 0.52906 0.39453 0.0
C778 C 0.60574 0.50701 0.39021 0.0
C779 C 0.55882 0.56045 0.36817 0.0
C780 C 0.58181 0.57087 0.337 0.0
H781 H 0.553 0.5229 0.419 0.0
H782 H 0.53209 0.57738 0.37279 0.0
S783 S 0.67315 0.51795 0.31005 0.0
N784 N 0.6609 0.49462 0.35009 0.0
N785 N 0.63928 0.55362 0.30129 0.0
C786 C 0.61602 0.54771 0.3316 0.0
C787 C 0.62778 0.51575 0.35801 0.0
C788 C 0.4177 0.2398 0.23457 0.0
C789 C 0.42074 0.28284 0.2378 0.0
C790 C 0.44707 0.21229 0.24804 0.0
C791 C 0.48069 0.22698 0.26468 0.0
H792 H 0.393 0.22737 0.22029 0.0
H793 H 0.44438 0.17963 0.2433 0.0
S794 S 0.50141 0.33617 0.28345 0.0
N795 N 0.4591 0.33825 0.26172 0.0
N796 N 0.51393 0.28679 0.28692 0.0
C797 C 0.48306 0.26964 0.27018 0.0
C798 C 0.45319 0.29753 0.25679 0.0
C799 C 0.94867 0.26665 0.79798 0.0
C800 C 0.96717 0.29495 0.82161 0.0
C801 C 0.93019 0.23285 0.81402 0.0
C802 C 0.92964 0.22635 0.85415 0.0
H803 H 0.94988 0.2696 0.76699 0.0
H804 H 0.91747 0.21089 0.7949 0.0
S805 S 0.96803 0.29561 0.92838 0.0
N806 N 0.97963 0.3169 0.88713 0.0
N807 N 0.94497 0.25396 0.91695 0.0
C808 C 0.94601 0.25589 0.87792 0.0
C809 C 0.96472 0.29003 0.86173 0.0
C810 C 1.03341 0.68296 0.1589 0.0
C811 C 0.05833 0.66929 0.13012 0.0
C812 C 0.99853 0.70332 0.1494 0.0
C813 C 0.98694 0.71001 0.11087 0.0
H814 H 0.04195 0.68017 0.18893 0.0
H815 H 0.98126 0.71562 0.17246 0.0
S816 S 0.04024 0.67635 1.02488 0.0
N817 N 0.06784 0.66077 0.06158 0.0
N818 N 1.0021 0.69901 0.04379 0.0
C819 C 1.01041 0.69411 0.08184 0.0
C820 C 0.04623 0.67379 0.09148 0.0
C821 C 0.63992 0.79999 0.3201 0.0
C822 C 0.63861 0.80563 0.36015 0.0
C823 C 0.62072 0.76776 0.30244 0.0
C824 C 0.59963 0.74027 0.32435 0.0
H825 H 0.65448 0.82165 0.30216 0.0
H826 H 0.62104 0.7655 0.2714 0.0
S827 S 0.59282 0.73822 0.4309 0.0
N828 N 0.6184 0.77864 0.42147 0.0
N829 N 0.58267 0.71801 0.38879 0.0
C830 C 0.60024 0.74424 0.36469 0.0
C831 C 0.61961 0.77697 0.38247 0.0
C832 C 0.57825 0.33966 0.65003 0.0
C833 C 0.58612 0.3367 0.61058 0.0
C834 C 0.54414 0.35821 0.66268 0.0
C835 C 0.51682 0.37506 0.63642 0.0
H836 H 0.59785 0.32598 0.67139 0.0
H837 H 0.53861 0.35839 0.69323 0.0
S838 S 0.52515 0.37908 0.53026 0.0
N839 N 0.56504 0.35498 0.54543 0.0
N840 N 0.50082 0.39021 0.56931 0.0
C841 C 0.52523 0.37458 0.59701 0.0
C842 C 0.55995 0.35533 0.58405 0.0
C843 C 0.12982 0.75585 0.75872 0.0
C844 C 0.13547 0.74811 0.71944 0.0
C845 C 0.10537 0.78857 0.77047 0.0
C846 C 0.08624 0.81464 0.74324 0.0
H847 H 0.14349 0.73582 0.78035 0.0
H848 H 0.10075 0.79285 0.8009 0.0
S849 S 0.09555 0.80995 0.63708 0.0
N850 N 0.1227 0.77094 0.65369 0.0
N851 N 0.07743 0.83237 0.67535 0.0
C852 C 0.09331 0.8082 0.70398 0.0
C853 C 0.11774 0.77492 0.69218 0.0
C854 C 0.52832 0.85575 1.01432 0.0
C855 C 0.49982 0.83886 0.99081 0.0
C856 C 0.56114 0.87263 0.99828 0.0
C857 C 0.5667 0.87304 0.9582 0.0
H858 H 0.52623 0.8541 0.04532 0.0
H859 H 0.58312 0.88367 1.01744 0.0
S860 S 0.49805 0.8388 0.88389 0.0
N861 N 0.47757 0.82834 0.92506 0.0
N862 N 0.53897 0.85947 0.89544 0.0
C863 C 0.53739 0.85858 0.93446 0.0
C864 C 0.50406 0.84171 0.95061 0.0
C865 C 0.04685 0.16506 0.50773 0.0
C866 C 1.03531 0.15642 0.46963 0.0
C867 C 0.07901 0.18869 0.51551 0.0
C868 C 0.10052 0.20469 0.48543 0.0
H869 H 1.02967 0.1556 0.53162 0.0
H870 H 0.08521 0.19684 0.54497 0.0
S871 S 0.08727 0.18411 0.38152 0.0
N872 N 0.05215 0.16018 0.4022 0.0
N873 N 0.1113 0.20566 0.41674 0.0
C874 C 0.09113 0.1935 0.44763 0.0
C875 C 0.05887 0.16915 0.43973 0.0
loop_
_geom_bond_atom_site_label_1
_geom_bond_atom_site_label_2
_geom_bond_distance
_geom_bond_site_symmetry_2
_ccdc_geom_bond_type
La0 C2 2.928 . S
La0 O20 2.521 . S
La0 O21 2.628 . S
La0 O22 2.554 . S
La0 O23 2.757 . S
La0 O24 2.470 . S
La0 O29 2.482 . S
La0 O31 2.503 . S
La1 C11 2.928 . S
La1 O23 2.482 . S
La1 O25 2.503 . S
La1 O26 2.521 . S
La1 O27 2.628 . S
La1 O28 2.554 . S
La1 O29 2.757 . S
La1 O30 2.470 . S
C2 La0 2.928 . S
C2 C3 1.503 . S
C2 O20 1.261 . S
C2 O21 1.243 . S
C3 C2 1.503 . S
C3 C4 1.394 . S
C3 C8 1.373 . S
C4 C3 1.394 . S
C4 C5 1.380 . S
C4 H32 0.930 . S
C5 C4 1.380 . S
C5 C6 1.376 . S
C5 H33 0.930 . S
C6 C5 1.376 . S
C6 C7 1.370 . S
C7 C6 1.370 . S
C7 C8 1.396 . S
C7 H34 0.929 . S
C8 C3 1.373 . S
C8 C7 1.396 . S
C8 H35 0.929 . S
C9 O22 1.240 . S
C9 O23 1.289 . S
C10 O24 1.258 . S
C10 O25 1.256 . S
C11 La1 2.928 . S
C11 C12 1.503 . S
C11 O26 1.261 . S
C11 O27 1.243 . S
C12 C11 1.503 . S
C12 C13 1.394 . S
C12 C17 1.373 . S
C13 C12 1.394 . S
C13 C14 1.380 . S
C13 H36 0.930 . S
C14 C13 1.380 . S
C14 C15 1.376 . S
C14 H37 0.930 . S
C15 C14 1.376 . S
C15 C16 1.370 . S
C16 C15 1.370 . S
C16 C17 1.396 . S
C16 H38 0.929 . S
C17 C12 1.373 . S
C17 C16 1.396 . S
C17 H39 0.929 . S
C18 O28 1.240 . S
C18 O29 1.289 . S
C19 O30 1.258 . S
C19 O31 1.256 . S
O20 La0 2.521 . S
O20 C2 1.261 . S
O21 La0 2.628 . S
O21 C2 1.243 . S
O22 La0 2.554 . S
O22 C9 1.240 . S
O23 La0 2.757 . S
O23 La1 2.482 . S
O23 C9 1.289 . S
O24 La0 2.470 . S
O24 C10 1.258 . S
O25 La1 2.503 . S
O25 C10 1.256 . S
O26 La1 2.521 . S
O26 C11 1.261 . S
O27 La1 2.628 . S
O27 C11 1.243 . S
O28 La1 2.554 . S
O28 C18 1.240 . S
O29 La0 2.482 . S
O29 La1 2.757 . S
O29 C18 1.289 . S
O30 La1 2.470 . S
O30 C19 1.258 . S
O31 La0 2.503 . S
O31 C19 1.256 . S
H32 C4 0.930 . S
H33 C5 0.930 . S
H34 C7 0.929 . S
H35 C8 0.929 . S
H36 C13 0.930 . S
H37 C14 0.930 . S
H38 C16 0.929 . S
H39 C17 0.929 . S
La40 C42 2.928 . S
La40 O60 2.521 . S
La40 O61 2.628 . S
La40 O62 2.554 1_655 S
La40 O63 2.757 1_655 S
La40 O64 2.470 1_655 S
La40 O69 2.482 . S
La40 O71 2.503 . S
La41 C51 2.928 . S
La41 O63 2.482 . S
La41 O65 2.503 . S
La41 O66 2.521 . S
La41 O67 2.628 . S
La41 O68 2.554 1_455 S
La41 O69 2.757 1_455 S
La41 O70 2.470 1_455 S
C42 La40 2.928 . S
C42 C43 1.503 . S
C42 O60 1.261 . S
C42 O61 1.243 . S
C43 C42 1.503 . S
C43 C44 1.394 . S
C43 C48 1.373 . S
C44 C43 1.394 . S
C44 C45 1.380 . S
C44 H72 0.930 . S
C45 C44 1.380 . S
C45 C46 1.376 . S
C45 H73 0.930 . S
C46 C45 1.376 . S
C46 C47 1.370 . S
C47 C46 1.370 . S
C47 C48 1.396 . S
C47 H74 0.929 . S
C48 C43 1.373 . S
C48 C47 1.396 . S
C48 H75 0.929 . S
C49 O62 1.240 . S
C49 O63 1.289 . S
C50 O64 1.258 . S
C50 O65 1.256 . S
C51 La41 2.928 . S
C51 C52 1.503 . S
C51 O66 1.261 . S
C51 O67 1.243 . S
C52 C51 1.503 . S
C52 C53 1.394 . S
C52 C57 1.373 . S
C53 C52 1.394 . S
C53 C54 1.380 . S
C53 H76 0.930 . S
C54 C53 1.380 . S
C54 C55 1.376 . S
C54 H77 0.930 . S
C55 C54 1.376 . S
C55 C56 1.370 . S
C56 C55 1.370 . S
C56 C57 1.396 . S
C56 H78 0.929 . S
C57 C52 1.373 . S
C57 C56 1.396 . S
C57 H79 0.929 . S
C58 O68 1.240 . S
C58 O69 1.289 . S
C59 O70 1.258 . S
C59 O71 1.256 . S
O60 La40 2.521 . S
O60 C42 1.261 . S
O61 La40 2.628 . S
O61 C42 1.243 . S
O62 La40 2.554 1_455 S
O62 C49 1.240 . S
O63 La40 2.757 1_455 S
O63 La41 2.482 . S
O63 C49 1.289 . S
O64 La40 2.470 1_455 S
O64 C50 1.258 . S
O65 La41 2.503 . S
O65 C50 1.256 . S
O66 La41 2.521 . S
O66 C51 1.261 . S
O67 La41 2.628 . S
O67 C51 1.243 . S
O68 La41 2.554 1_655 S
O68 C58 1.240 . S
O69 La40 2.482 . S
O69 La41 2.757 1_655 S
O69 C58 1.289 . S
O70 La41 2.470 1_655 S
O70 C59 1.258 . S
O71 La40 2.503 . S
O71 C59 1.256 . S
H72 C44 0.930 . S
H73 C45 0.930 . S
H74 C47 0.929 . S
H75 C48 0.929 . S
H76 C53 0.930 . S
H77 C54 0.930 . S
H78 C56 0.929 . S
H79 C57 0.929 . S
La80 C82 2.928 . S
La80 O100 2.521 . S
La80 O101 2.628 . S
La80 O102 2.554 1_554 S
La80 O103 2.757 1_554 S
La80 O104 2.470 1_554 S
La80 O109 2.482 . S
La80 O111 2.503 . S
La81 C91 2.928 . S
La81 O103 2.482 . S
La81 O105 2.503 . S
La81 O106 2.521 . S
La81 O107 2.628 . S
La81 O108 2.554 1_556 S
La81 O109 2.757 1_556 S
La81 O110 2.470 1_556 S
C82 La80 2.928 . S
C82 C83 1.503 . S
C82 O100 1.261 . S
C82 O101 1.243 . S
C83 C82 1.503 . S
C83 C84 1.394 . S
C83 C88 1.373 . S
C84 C83 1.394 . S
C84 C85 1.380 . S
C84 H112 0.930 . S
C85 C84 1.380 . S
C85 C86 1.376 . S
C85 H113 0.930 . S
C86 C85 1.376 . S
C86 C87 1.370 . S
C87 C86 1.370 . S
C87 C88 1.396 . S
C87 H114 0.929 . S
C88 C83 1.373 . S
C88 C87 1.396 . S
C88 H115 0.929 . S
C89 O102 1.240 . S
C89 O103 1.289 . S
C90 O104 1.258 . S
C90 O105 1.256 . S
C91 La81 2.928 . S
C91 C92 1.503 . S
C91 O106 1.261 . S
C91 O107 1.243 . S
C92 C91 1.503 . S
C92 C93 1.394 . S
C92 C97 1.373 . S
C93 C92 1.394 . S
C93 C94 1.380 . S
C93 H116 0.930 . S
C94 C93 1.380 . S
C94 C95 1.376 . S
C94 H117 0.930 . S
C95 C94 1.376 . S
C95 C96 1.370 . S
C96 C95 1.370 . S
C96 C97 1.396 . S
C96 H118 0.929 . S
C97 C92 1.373 . S
C97 C96 1.396 . S
C97 H119 0.929 . S
C98 O108 1.240 . S
C98 O109 1.289 . S
C99 O110 1.258 . S
C99 O111 1.256 . S
O100 La80 2.521 . S
O100 C82 1.261 . S
O101 La80 2.628 . S
O101 C82 1.243 . S
O102 La80 2.554 1_556 S
O102 C89 1.240 . S
O103 La80 2.757 1_556 S
O103 La81 2.482 . S
O103 C89 1.289 . S
O104 La80 2.470 1_556 S
O104 C90 1.258 . S
O105 La81 2.503 . S
O105 C90 1.256 . S
O106 La81 2.521 . S
O106 C91 1.261 . S
O107 La81 2.628 . S
O107 C91 1.243 . S
O108 La81 2.554 1_554 S
O108 C98 1.240 . S
O109 La80 2.482 . S
O109 La81 2.757 1_554 S
O109 C98 1.289 . S
O110 La81 2.470 1_554 S
O110 C99 1.258 . S
O111 La80 2.503 . S
O111 C99 1.256 . S
H112 C84 0.930 . S
H113 C85 0.930 . S
H114 C87 0.929 . S
H115 C88 0.929 . S
H116 C93 0.930 . S
H117 C94 0.930 . S
H118 C96 0.929 . S
H119 C97 0.929 . S
La120 C122 2.928 . S
La120 O140 2.521 . S
La120 O141 2.628 . S
La120 O142 2.554 . S
La120 O143 2.757 . S
La120 O144 2.470 . S
La120 O149 2.482 . S
La120 O151 2.503 . S
La121 C131 2.928 . S
La121 O143 2.482 . S
La121 O145 2.503 . S
La121 O146 2.521 . S
La121 O147 2.628 . S
La121 O148 2.554 . S
La121 O149 2.757 . S
La121 O150 2.470 . S
C122 La120 2.928 . S
C122 C123 1.503 . S
C122 O140 1.261 . S
C122 O141 1.243 . S
C123 C122 1.503 . S
C123 C124 1.394 . S
C123 C128 1.373 . S
C124 C123 1.394 . S
C124 C125 1.380 . S
C124 H152 0.930 . S
C125 C124 1.380 . S
C125 C126 1.376 . S
C125 H153 0.930 . S
C126 C125 1.376 . S
C126 C127 1.370 . S
C127 C126 1.370 . S
C127 C128 1.396 . S
C127 H154 0.929 . S
C128 C123 1.373 . S
C128 C127 1.396 . S
C128 H155 0.929 . S
C129 O142 1.240 . S
C129 O143 1.289 . S
C130 O144 1.258 . S
C130 O145 1.256 . S
C131 La121 2.928 . S
C131 C132 1.503 . S
C131 O146 1.261 . S
C131 O147 1.243 . S
C132 C131 1.503 . S
C132 C133 1.394 . S
C132 C137 1.373 . S
C133 C132 1.394 . S
C133 C134 1.380 . S
C133 H156 0.930 . S
C134 C133 1.380 . S
C134 C135 1.376 . S
C134 H157 0.930 . S
C135 C134 1.376 . S
C135 C136 1.370 . S
C136 C135 1.370 . S
C136 C137 1.396 . S
C136 H158 0.929 . S
C137 C132 1.373 . S
C137 C136 1.396 . S
C137 H159 0.929 . S
C138 O148 1.240 . S
C138 O149 1.289 . S
C139 O150 1.258 . S
C139 O151 1.256 . S
O140 La120 2.521 . S
O140 C122 1.261 . S
O141 La120 2.628 . S
O141 C122 1.243 . S
O142 La120 2.554 . S
O142 C129 1.240 . S
O143 La120 2.757 . S
O143 La121 2.482 . S
O143 C129 1.289 . S
O144 La120 2.470 . S
O144 C130 1.258 . S
O145 La121 2.503 . S
O145 C130 1.256 . S
O146 La121 2.521 . S
O146 C131 1.261 . S
O147 La121 2.628 . S
O147 C131 1.243 . S
O148 La121 2.554 . S
O148 C138 1.240 . S
O149 La120 2.482 . S
O149 La121 2.757 . S
O149 C138 1.289 . S
O150 La121 2.470 . S
O150 C139 1.258 . S
O151 La120 2.503 . S
O151 C139 1.256 . S
H152 C124 0.930 . S
H153 C125 0.930 . S
H154 C127 0.929 . S
H155 C128 0.929 . S
H156 C133 0.930 . S
H157 C134 0.930 . S
H158 C136 0.929 . S
H159 C137 0.929 . S
La160 C162 2.928 . S
La160 O180 2.521 . S
La160 O181 2.628 . S
La160 O182 2.554 . S
La160 O183 2.757 . S
La160 O184 2.470 . S
La160 O189 2.482 . S
La160 O191 2.503 . S
La161 C171 2.928 . S
La161 O183 2.482 . S
La161 O185 2.503 . S
La161 O186 2.521 . S
La161 O187 2.628 . S
La161 O188 2.554 . S
La161 O189 2.757 . S
La161 O190 2.470 . S
C162 La160 2.928 . S
C162 C163 1.503 . S
C162 O180 1.261 . S
C162 O181 1.243 . S
C163 C162 1.503 . S
C163 C164 1.394 . S
C163 C168 1.373 . S
C164 C163 1.394 . S
C164 C165 1.380 . S
C164 H192 0.930 . S
C165 C164 1.380 . S
C165 C166 1.376 . S
C165 H193 0.930 . S
C166 C165 1.376 . S
C166 C167 1.370 . S
C167 C166 1.370 . S
C167 C168 1.396 . S
C167 H194 0.929 . S
C168 C163 1.373 . S
C168 C167 1.396 . S
C168 H195 0.929 . S
C169 O182 1.240 . S
C169 O183 1.289 . S
C170 O184 1.258 . S
C170 O185 1.256 . S
C171 La161 2.928 . S
C171 C172 1.503 . S
C171 O186 1.261 . S
C171 O187 1.243 . S
C172 C171 1.503 . S
C172 C173 1.394 . S
C172 C177 1.373 . S
C173 C172 1.394 . S
C173 C174 1.380 . S
C173 H196 0.930 . S
C174 C173 1.380 . S
C174 C175 1.376 . S
C174 H197 0.930 . S
C175 C174 1.376 . S
C175 C176 1.370 . S
C176 C175 1.370 . S
C176 C177 1.396 . S
C176 H198 0.929 . S
C177 C172 1.373 . S
C177 C176 1.396 . S
C177 H199 0.929 . S
C178 O188 1.240 . S
C178 O189 1.289 . S
C179 O190 1.258 . S
C179 O191 1.256 . S
O180 La160 2.521 . S
O180 C162 1.261 . S
O181 La160 2.628 . S
O181 C162 1.243 . S
O182 La160 2.554 . S
O182 C169 1.240 . S
O183 La160 2.757 . S
O183 La161 2.482 . S
O183 C169 1.289 . S
O184 La160 2.470 . S
O184 C170 1.258 . S
O185 La161 2.503 . S
O185 C170 1.256 . S
O186 La161 2.521 . S
O186 C171 1.261 . S
O187 La161 2.628 . S
O187 C171 1.243 . S
O188 La161 2.554 . S
O188 C178 1.240 . S
O189 La160 2.482 . S
O189 La161 2.757 . S
O189 C178 1.289 . S
O190 La161 2.470 . S
O190 C179 1.258 . S
O191 La160 2.503 . S
O191 C179 1.256 . S
H192 C164 0.930 . S
H193 C165 0.930 . S
H194 C167 0.929 . S
H195 C168 0.929 . S
H196 C173 0.930 . S
H197 C174 0.930 . S
H198 C176 0.929 . S
H199 C177 0.929 . S
La200 C202 2.928 . S
La200 O220 2.521 . S
La200 O221 2.628 . S
La200 O222 2.554 . S
La200 O223 2.757 . S
La200 O224 2.470 . S
La200 O229 2.482 1_655 S
La200 O231 2.503 1_655 S
La201 C211 2.928 . S
La201 O223 2.482 1_455 S
La201 O225 2.503 1_455 S
La201 O226 2.521 . S
La201 O227 2.628 . S
La201 O228 2.554 . S
La201 O229 2.757 . S
La201 O230 2.470 . S
C202 La200 2.928 . S
C202 C203 1.503 . S
C202 O220 1.261 . S
C202 O221 1.243 . S
C203 C202 1.503 . S
C203 C204 1.394 . S
C203 C208 1.373 . S
C204 C203 1.394 . S
C204 C205 1.380 . S
C204 H232 0.930 . S
C205 C204 1.380 . S
C205 C206 1.376 . S
C205 H233 0.930 . S
C206 C205 1.376 . S
C206 C207 1.370 . S
C207 C206 1.370 . S
C207 C208 1.396 . S
C207 H234 0.929 . S
C208 C203 1.373 . S
C208 C207 1.396 . S
C208 H235 0.929 . S
C209 O222 1.240 . S
C209 O223 1.289 . S
C210 O224 1.258 . S
C210 O225 1.256 . S
C211 La201 2.928 . S
C211 C212 1.503 . S
C211 O226 1.261 . S
C211 O227 1.243 . S
C212 C211 1.503 . S
C212 C213 1.394 . S
C212 C217 1.373 . S
C213 C212 1.394 . S
C213 C214 1.380 . S
C213 H236 0.930 . S
C214 C213 1.380 . S
C214 C215 1.376 . S
C214 H237 0.930 . S
C215 C214 1.376 . S
C215 C216 1.370 . S
C216 C215 1.370 . S
C216 C217 1.396 . S
C216 H238 0.929 . S
C217 C212 1.373 . S
C217 C216 1.396 . S
C217 H239 0.929 . S
C218 O228 1.240 . S
C218 O229 1.289 . S
C219 O230 1.258 . S
C219 O231 1.256 . S
O220 La200 2.521 . S
O220 C202 1.261 . S
O221 La200 2.628 . S
O221 C202 1.243 . S
O222 La200 2.554 . S
O222 C209 1.240 . S
O223 La200 2.757 . S
O223 La201 2.482 1_655 S
O223 C209 1.289 . S
O224 La200 2.470 . S
O224 C210 1.258 . S
O225 La201 2.503 1_655 S
O225 C210 1.256 . S
O226 La201 2.521 . S
O226 C211 1.261 . S
O227 La201 2.628 . S
O227 C211 1.243 . S
O228 La201 2.554 . S
O228 C218 1.240 . S
O229 La200 2.482 1_455 S
O229 La201 2.757 . S
O229 C218 1.289 . S
O230 La201 2.470 . S
O230 C219 1.258 . S
O231 La200 2.503 1_455 S
O231 C219 1.256 . S
H232 C204 0.930 . S
H233 C205 0.930 . S
H234 C207 0.929 . S
H235 C208 0.929 . S
H236 C213 0.930 . S
H237 C214 0.930 . S
H238 C216 0.929 . S
H239 C217 0.929 . S
La240 C242 2.928 . S
La240 O260 2.521 . S
La240 O261 2.628 . S
La240 O262 2.554 . S
La240 O263 2.757 . S
La240 O264 2.470 . S
La240 O269 2.482 1_554 S
La240 O271 2.503 1_554 S
La241 C251 2.928 . S
La241 O263 2.482 1_556 S
La241 O265 2.503 1_556 S
La241 O266 2.521 . S
La241 O267 2.628 . S
La241 O268 2.554 . S
La241 O269 2.757 . S
La241 O270 2.470 . S
C242 La240 2.928 . S
C242 C243 1.503 . S
C242 O260 1.261 . S
C242 O261 1.243 . S
C243 C242 1.503 . S
C243 C244 1.394 . S
C243 C248 1.373 . S
C244 C243 1.394 . S
C244 C245 1.380 . S
C244 H272 0.930 . S
C245 C244 1.380 . S
C245 C246 1.376 . S
C245 H273 0.930 . S
C246 C245 1.376 . S
C246 C247 1.370 . S
C247 C246 1.370 . S
C247 C248 1.396 . S
C247 H274 0.929 . S
C248 C243 1.373 . S
C248 C247 1.396 . S
C248 H275 0.929 . S
C249 O262 1.240 . S
C249 O263 1.289 . S
C250 O264 1.258 . S
C250 O265 1.256 . S
C251 La241 2.928 . S
C251 C252 1.503 . S
C251 O266 1.261 . S
C251 O267 1.243 . S
C252 C251 1.503 . S
C252 C253 1.394 . S
C252 C257 1.373 . S
C253 C252 1.394 . S
C253 C254 1.380 . S
C253 H276 0.930 . S
C254 C253 1.380 . S
C254 C255 1.376 . S
C254 H277 0.930 . S
C255 C254 1.376 . S
C255 C256 1.370 . S
C256 C255 1.370 . S
C256 C257 1.396 . S
C256 H278 0.929 . S
C257 C252 1.373 . S
C257 C256 1.396 . S
C257 H279 0.929 . S
C258 O268 1.240 . S
C258 O269 1.289 . S
C259 O270 1.258 . S
C259 O271 1.256 . S
O260 La240 2.521 . S
O260 C242 1.261 . S
O261 La240 2.628 . S
O261 C242 1.243 . S
O262 La240 2.554 . S
O262 C249 1.240 . S
O263 La240 2.757 . S
O263 La241 2.482 1_554 S
O263 C249 1.289 . S
O264 La240 2.470 . S
O264 C250 1.258 . S
O265 La241 2.503 1_554 S
O265 C250 1.256 . S
O266 La241 2.521 . S
O266 C251 1.261 . S
O267 La241 2.628 . S
O267 C251 1.243 . S
O268 La241 2.554 . S
O268 C258 1.240 . S
O269 La240 2.482 1_556 S
O269 La241 2.757 . S
O269 C258 1.289 . S
O270 La241 2.470 . S
O270 C259 1.258 . S
O271 La240 2.503 1_556 S
O271 C259 1.256 . S
H272 C244 0.930 . S
H273 C245 0.930 . S
H274 C247 0.929 . S
H275 C248 0.929 . S
H276 C253 0.930 . S
H277 C254 0.930 . S
H278 C256 0.929 . S
H279 C257 0.929 . S
La280 C282 2.928 . S
La280 O300 2.521 . S
La280 O301 2.628 . S
La280 O302 2.554 . S
La280 O303 2.757 . S
La280 O304 2.470 . S
La280 O309 2.482 . S
La280 O311 2.503 . S
La281 C291 2.928 . S
La281 O303 2.482 . S
La281 O305 2.503 . S
La281 O306 2.521 . S
La281 O307 2.628 . S
La281 O308 2.554 . S
La281 O309 2.757 . S
La281 O310 2.470 . S
C282 La280 2.928 . S
C282 C283 1.503 . S
C282 O300 1.261 . S
C282 O301 1.243 . S
C283 C282 1.503 . S
C283 C284 1.394 . S
C283 C288 1.373 . S
C284 C283 1.394 . S
C284 C285 1.380 . S
C284 H312 0.930 . S
C285 C284 1.380 . S
C285 C286 1.376 . S
C285 H313 0.930 . S
C286 C285 1.376 . S
C286 C287 1.370 . S
C287 C286 1.370 . S
C287 C288 1.396 . S
C287 H314 0.929 . S
C288 C283 1.373 . S
C288 C287 1.396 . S
C288 H315 0.929 . S
C289 O302 1.240 . S
C289 O303 1.289 . S
C290 O304 1.258 . S
C290 O305 1.256 . S
C291 La281 2.928 . S
C291 C292 1.503 . S
C291 O306 1.261 . S
C291 O307 1.243 . S
C292 C291 1.503 . S
C292 C293 1.394 . S
C292 C297 1.373 . S
C293 C292 1.394 . S
C293 C294 1.380 . S
C293 H316 0.930 . S
C294 C293 1.380 . S
C294 C295 1.376 . S
C294 H317 0.930 . S
C295 C294 1.376 . S
C295 C296 1.370 . S
C296 C295 1.370 . S
C296 C297 1.396 . S
C296 H318 0.929 . S
C297 C292 1.373 . S
C297 C296 1.396 . S
C297 H319 0.929 . S
C298 O308 1.240 . S
C298 O309 1.289 . S
C299 O310 1.258 . S
C299 O311 1.256 . S
O300 La280 2.521 . S
O300 C282 1.261 . S
O301 La280 2.628 . S
O301 C282 1.243 . S
O302 La280 2.554 . S
O302 C289 1.240 . S
O303 La280 2.757 . S
O303 La281 2.482 . S
O303 C289 1.289 . S
O304 La280 2.470 . S
O304 C290 1.258 . S
O305 La281 2.503 . S
O305 C290 1.256 . S
O306 La281 2.521 . S
O306 C291 1.261 . S
O307 La281 2.628 . S
O307 C291 1.243 . S
O308 La281 2.554 . S
O308 C298 1.240 . S
O309 La280 2.482 . S
O309 La281 2.757 . S
O309 C298 1.289 . S
O310 La281 2.470 . S
O310 C299 1.258 . S
O311 La280 2.503 . S
O311 C299 1.256 . S
H312 C284 0.930 . S
H313 C285 0.930 . S
H314 C287 0.929 . S
H315 C288 0.929 . S
H316 C293 0.930 . S
H317 C294 0.930 . S
H318 C296 0.929 . S
H319 C297 0.929 . S
La320 C322 2.928 . S
La320 O340 2.521 . S
La320 O341 2.628 . S
La320 O342 2.554 . S
La320 O343 2.757 . S
La320 O344 2.470 . S
La320 O349 2.482 . S
La320 O351 2.503 . S
La321 C331 2.928 . S
La321 O343 2.482 . S
La321 O345 2.503 . S
La321 O346 2.521 . S
La321 O347 2.628 . S
La321 O348 2.554 . S
La321 O349 2.757 . S
La321 O350 2.470 . S
C322 La320 2.928 . S
C322 C323 1.503 . S
C322 O340 1.261 . S
C322 O341 1.243 . S
C323 C322 1.503 . S
C323 C324 1.394 . S
C323 C328 1.373 . S
C324 C323 1.394 . S
C324 C325 1.380 . S
C324 H352 0.930 . S
C325 C324 1.380 . S
C325 C326 1.376 . S
C325 H353 0.930 . S
C326 C325 1.376 . S
C326 C327 1.370 . S
C327 C326 1.370 . S
C327 C328 1.396 . S
C327 H354 0.929 . S
C328 C323 1.373 . S
C328 C327 1.396 . S
C328 H355 0.929 . S
C329 O342 1.240 . S
C329 O343 1.289 . S
C330 O344 1.258 . S
C330 O345 1.256 . S
C331 La321 2.928 . S
C331 C332 1.503 . S
C331 O346 1.261 . S
C331 O347 1.243 . S
C332 C331 1.503 . S
C332 C333 1.394 . S
C332 C337 1.373 . S
C333 C332 1.394 . S
C333 C334 1.380 . S
C333 H356 0.930 . S
C334 C333 1.380 . S
C334 C335 1.376 . S
C334 H357 0.930 . S
C335 C334 1.376 . S
C335 C336 1.370 . S
C336 C335 1.370 . S
C336 C337 1.396 . S
C336 H358 0.929 . S
C337 C332 1.373 . S
C337 C336 1.396 . S
C337 H359 0.929 . S
C338 O348 1.240 . S
C338 O349 1.289 . S
C339 O350 1.258 . S
C339 O351 1.256 . S
O340 La320 2.521 . S
O340 C322 1.261 . S
O341 La320 2.628 . S
O341 C322 1.243 . S
O342 La320 2.554 . S
O342 C329 1.240 . S
O343 La320 2.757 . S
O343 La321 2.482 . S
O343 C329 1.289 . S
O344 La320 2.470 . S
O344 C330 1.258 . S
O345 La321 2.503 . S
O345 C330 1.256 . S
O346 La321 2.521 . S
O346 C331 1.261 . S
O347 La321 2.628 . S
O347 C331 1.243 . S
O348 La321 2.554 . S
O348 C338 1.240 . S
O349 La320 2.482 . S
O349 La321 2.757 . S
O349 C338 1.289 . S
O350 La321 2.470 . S
O350 C339 1.258 . S
O351 La320 2.503 . S
O351 C339 1.256 . S
H352 C324 0.930 . S
H353 C325 0.930 . S
H354 C327 0.929 . S
H355 C328 0.929 . S
H356 C333 0.930 . S
H357 C334 0.930 . S
H358 C336 0.929 . S
H359 C337 0.929 . S
La360 C362 2.928 . S
La360 O380 2.521 . S
La360 O381 2.628 . S
La360 O382 2.554 1_565 S
La360 O383 2.757 1_565 S
La360 O384 2.470 1_565 S
La360 O389 2.482 . S
La360 O391 2.503 . S
La361 C371 2.928 . S
La361 O383 2.482 . S
La361 O385 2.503 . S
La361 O386 2.521 . S
La361 O387 2.628 . S
La361 O388 2.554 1_545 S
La361 O389 2.757 1_545 S
La361 O390 2.470 1_545 S
C362 La360 2.928 . S
C362 C363 1.503 . S
C362 O380 1.261 . S
C362 O381 1.243 . S
C363 C362 1.503 . S
C363 C364 1.394 . S
C363 C368 1.373 . S
C364 C363 1.394 . S
C364 C365 1.380 . S
C364 H392 0.930 . S
C365 C364 1.380 . S
C365 C366 1.376 . S
C365 H393 0.930 . S
C366 C365 1.376 . S
C366 C367 1.370 . S
C367 C366 1.370 . S
C367 C368 1.396 . S
C367 H394 0.929 . S
C368 C363 1.373 . S
C368 C367 1.396 . S
C368 H395 0.929 . S
C369 O382 1.240 . S
C369 O383 1.289 . S
C370 O384 1.258 . S
C370 O385 1.256 . S
C371 La361 2.928 . S
C371 C372 1.503 . S
C371 O386 1.261 . S
C371 O387 1.243 . S
C372 C371 1.503 . S
C372 C373 1.394 . S
C372 C377 1.373 . S
C373 C372 1.394 . S
C373 C374 1.380 . S
C373 H396 0.930 . S
C374 C373 1.380 . S
C374 C375 1.376 . S
C374 H397 0.930 . S
C375 C374 1.376 . S
C375 C376 1.370 . S
C376 C375 1.370 . S
C376 C377 1.396 . S
C376 H398 0.929 . S
C377 C372 1.373 . S
C377 C376 1.396 . S
C377 H399 0.929 . S
C378 O388 1.240 . S
C378 O389 1.289 . S
C379 O390 1.258 . S
C379 O391 1.256 . S
O380 La360 2.521 . S
O380 C362 1.261 . S
O381 La360 2.628 . S
O381 C362 1.243 . S
O382 La360 2.554 1_545 S
O382 C369 1.240 . S
O383 La360 2.757 1_545 S
O383 La361 2.482 . S
O383 C369 1.289 . S
O384 La360 2.470 1_545 S
O384 C370 1.258 . S
O385 La361 2.503 . S
O385 C370 1.256 . S
O386 La361 2.521 . S
O386 C371 1.261 . S
O387 La361 2.628 . S
O387 C371 1.243 . S
O388 La361 2.554 1_565 S
O388 C378 1.240 . S
O389 La360 2.482 . S
O389 La361 2.757 1_565 S
O389 C378 1.289 . S
O390 La361 2.470 1_565 S
O390 C379 1.258 . S
O391 La360 2.503 . S
O391 C379 1.256 . S
H392 C364 0.930 . S
H393 C365 0.930 . S
H394 C367 0.929 . S
H395 C368 0.929 . S
H396 C373 0.930 . S
H397 C374 0.930 . S
H398 C376 0.929 . S
H399 C377 0.929 . S
La400 C402 2.928 . S
La400 O420 2.521 . S
La400 O421 2.628 . S
La400 O422 2.554 . S
La400 O423 2.757 . S
La400 O424 2.470 . S
La400 O429 2.482 1_565 S
La400 O431 2.503 1_565 S
La401 C411 2.928 . S
La401 O423 2.482 1_545 S
La401 O425 2.503 1_545 S
La401 O426 2.521 . S
La401 O427 2.628 . S
La401 O428 2.554 . S
La401 O429 2.757 . S
La401 O430 2.470 . S
C402 La400 2.928 . S
C402 C403 1.503 . S
C402 O420 1.261 . S
C402 O421 1.243 . S
C403 C402 1.503 . S
C403 C404 1.394 . S
C403 C408 1.373 . S
C404 C403 1.394 . S
C404 C405 1.380 . S
C404 H432 0.930 . S
C405 C404 1.380 . S
C405 C406 1.376 . S
C405 H433 0.930 . S
C406 C405 1.376 . S
C406 C407 1.370 . S
C407 C406 1.370 . S
C407 C408 1.396 . S
C407 H434 0.929 . S
C408 C403 1.373 . S
C408 C407 1.396 . S
C408 H435 0.929 . S
C409 O422 1.240 . S
C409 O423 1.289 . S
C410 O424 1.258 . S
C410 O425 1.256 . S
C411 La401 2.928 . S
C411 C412 1.503 . S
C411 O426 1.261 . S
C411 O427 1.243 . S
C412 C411 1.503 . S
C412 C413 1.394 . S
C412 C417 1.373 . S
C413 C412 1.394 . S
C413 C414 1.380 . S
C413 H436 0.930 . S
C414 C413 1.380 . S
C414 C415 1.376 . S
C414 H437 0.930 . S
C415 C414 1.376 . S
C415 C416 1.370 . S
C416 C415 1.370 . S
C416 C417 1.396 . S
C416 H438 0.929 . S
C417 C412 1.373 . S
C417 C416 1.396 . S
C417 H439 0.929 . S
C418 O428 1.240 . S
C418 O429 1.289 . S
C419 O430 1.258 . S
C419 O431 1.256 . S
O420 La400 2.521 . S
O420 C402 1.261 . S
O421 La400 2.628 . S
O421 C402 1.243 . S
O422 La400 2.554 . S
O422 C409 1.240 . S
O423 La400 2.757 . S
O423 La401 2.482 1_565 S
O423 C409 1.289 . S
O424 La400 2.470 . S
O424 C410 1.258 . S
O425 La401 2.503 1_565 S
O425 C410 1.256 . S
O426 La401 2.521 . S
O426 C411 1.261 . S
O427 La401 2.628 . S
O427 C411 1.243 . S
O428 La401 2.554 . S
O428 C418 1.240 . S
O429 La400 2.482 1_545 S
O429 La401 2.757 . S
O429 C418 1.289 . S
O430 La401 2.470 . S
O430 C419 1.258 . S
O431 La400 2.503 1_545 S
O431 C419 1.256 . S
H432 C404 0.930 . S
H433 C405 0.930 . S
H434 C407 0.929 . S
H435 C408 0.929 . S
H436 C413 0.930 . S
H437 C414 0.930 . S
H438 C416 0.929 . S
H439 C417 0.929 . S
La440 C442 2.928 . S
La440 O460 2.521 . S
La440 O461 2.628 . S
La440 O462 2.554 . S
La440 O463 2.757 . S
La440 O464 2.470 . S
La440 O469 2.482 . S
La440 O471 2.503 . S
La441 C451 2.928 . S
La441 O463 2.482 . S
La441 O465 2.503 . S
La441 O466 2.521 . S
La441 O467 2.628 . S
La441 O468 2.554 . S
La441 O469 2.757 . S
La441 O470 2.470 . S
C442 La440 2.928 . S
C442 C443 1.503 . S
C442 O460 1.261 . S
C442 O461 1.243 . S
C443 C442 1.503 . S
C443 C444 1.394 . S
C443 C448 1.373 . S
C444 C443 1.394 . S
C444 C445 1.380 . S
C444 H472 0.930 . S
C445 C444 1.380 . S
C445 C446 1.376 . S
C445 H473 0.930 . S
C446 C445 1.376 . S
C446 C447 1.370 . S
C447 C446 1.370 . S
C447 C448 1.396 . S
C447 H474 0.929 . S
C448 C443 1.373 . S
C448 C447 1.396 . S
C448 H475 0.929 . S
C449 O462 1.240 . S
C449 O463 1.289 . S
C450 O464 1.258 . S
C450 O465 1.256 . S
C451 La441 2.928 . S
C451 C452 1.503 . S
C451 O466 1.261 . S
C451 O467 1.243 . S
C452 C451 1.503 . S
C452 C453 1.394 . S
C452 C457 1.373 . S
C453 C452 1.394 . S
C453 C454 1.380 . S
C453 H476 0.930 . S
C454 C453 1.380 . S
C454 C455 1.376 . S
C454 H477 0.930 . S
C455 C454 1.376 . S
C455 C456 1.370 . S
C456 C455 1.370 . S
C456 C457 1.396 . S
C456 H478 0.929 . S
C457 C452 1.373 . S
C457 C456 1.396 . S
C457 H479 0.929 . S
C458 O468 1.240 . S
C458 O469 1.289 . S
C459 O470 1.258 . S
C459 O471 1.256 . S
O460 La440 2.521 . S
O460 C442 1.261 . S
O461 La440 2.628 . S
O461 C442 1.243 . S
O462 La440 2.554 . S
O462 C449 1.240 . S
O463 La440 2.757 . S
O463 La441 2.482 . S
O463 C449 1.289 . S
O464 La440 2.470 . S
O464 C450 1.258 . S
O465 La441 2.503 . S
O465 C450 1.256 . S
O466 La441 2.521 . S
O466 C451 1.261 . S
O467 La441 2.628 . S
O467 C451 1.243 . S
O468 La441 2.554 . S
O468 C458 1.240 . S
O469 La440 2.482 . S
O469 La441 2.757 . S
O469 C458 1.289 . S
O470 La441 2.470 . S
O470 C459 1.258 . S
O471 La440 2.503 . S
O471 C459 1.256 . S
H472 C444 0.930 . S
H473 C445 0.930 . S
H474 C447 0.929 . S
H475 C448 0.929 . S
H476 C453 0.930 . S
H477 C454 0.930 . S
H478 C456 0.929 . S
H479 C457 0.929 . S
C480 C481 1.369 . S
C480 C482 1.419 . S
C480 H484 0.930 . S
C481 C480 1.369 . S
C481 C490 1.429 . S
C482 C480 1.419 . S
C482 C483 1.363 . S
C482 H485 0.929 . S
C483 C482 1.363 . S
C483 C489 1.428 . S
H484 C480 0.930 . S
H485 C482 0.929 . S
S486 N487 1.613 . S
S486 N488 1.610 . S
N487 S486 1.613 . S
N487 C490 1.350 . S
N488 S486 1.610 . S
N488 C489 1.351 . S
C489 C483 1.428 . S
C489 N488 1.351 . S
C489 C490 1.434 . S
C490 C481 1.429 . S
C490 N487 1.350 . S
C490 C489 1.434 . S
C491 C492 1.369 . S
C491 C493 1.419 . S
C491 H495 0.930 . S
C492 C491 1.369 . S
C492 C501 1.429 . S
C493 C491 1.419 . S
C493 C494 1.363 . S
C493 H496 0.929 . S
C494 C493 1.363 . S
C494 C500 1.428 . S
H495 C491 0.930 . S
H496 C493 0.929 . S
S497 N498 1.613 . S
S497 N499 1.610 . S
N498 S497 1.613 . S
N498 C501 1.350 . S
N499 S497 1.610 . S
N499 C500 1.351 . S
C500 C494 1.428 . S
C500 N499 1.351 . S
C500 C501 1.434 . S
C501 C492 1.429 . S
C501 N498 1.350 . S
C501 C500 1.434 . S
C502 C503 1.369 . S
C502 C504 1.419 . S
C502 H506 0.930 1_554 S
C503 C502 1.369 . S
C503 C512 1.429 . S
C504 C502 1.419 . S
C504 C505 1.363 . S
C504 H507 0.929 . S
C505 C504 1.363 . S
C505 C511 1.428 . S
H506 C502 0.930 1_556 S
H507 C504 0.929 . S
S508 N509 1.613 . S
S508 N510 1.610 . S
N509 S508 1.613 . S
N509 C512 1.350 . S
N510 S508 1.610 . S
N510 C511 1.351 . S
C511 C505 1.428 . S
C511 N510 1.351 . S
C511 C512 1.434 . S
C512 C503 1.429 . S
C512 N509 1.350 . S
C512 C511 1.434 . S
C513 C514 1.369 . S
C513 C515 1.419 . S
C513 H517 0.930 . S
C514 C513 1.369 . S
C514 C523 1.429 . S
C515 C513 1.419 . S
C515 C516 1.363 . S
C515 H518 0.929 . S
C516 C515 1.363 . S
C516 C522 1.428 . S
H517 C513 0.930 . S
H518 C515 0.929 . S
S519 N520 1.613 . S
S519 N521 1.610 . S
N520 S519 1.613 . S
N520 C523 1.350 . S
N521 S519 1.610 . S
N521 C522 1.351 . S
C522 C516 1.428 . S
C522 N521 1.351 . S
C522 C523 1.434 . S
C523 C514 1.429 . S
C523 N520 1.350 . S
C523 C522 1.434 . S
C524 C525 1.369 . S
C524 C526 1.419 . S
C524 H528 0.930 . S
C525 C524 1.369 . S
C525 C534 1.429 . S
C526 C524 1.419 . S
C526 C527 1.363 . S
C526 H529 0.929 . S
C527 C526 1.363 . S
C527 C533 1.428 . S
H528 C524 0.930 . S
H529 C526 0.929 . S
S530 N531 1.613 . S
S530 N532 1.610 . S
N531 S530 1.613 . S
N531 C534 1.350 . S
N532 S530 1.610 . S
N532 C533 1.351 . S
C533 C527 1.428 . S
C533 N532 1.351 . S
C533 C534 1.434 . S
C534 C525 1.429 . S
C534 N531 1.350 . S
C534 C533 1.434 . S
C535 C536 1.369 . S
C535 C537 1.419 . S
C535 H539 0.930 . S
C536 C535 1.369 . S
C536 C545 1.429 . S
C537 C535 1.419 . S
C537 C538 1.363 . S
C537 H540 0.929 . S
C538 C537 1.363 . S
C538 C544 1.428 . S
H539 C535 0.930 . S
H540 C537 0.929 . S
S541 N542 1.613 . S
S541 N543 1.610 . S
N542 S541 1.613 . S
N542 C545 1.350 . S
N543 S541 1.610 . S
N543 C544 1.351 . S
C544 C538 1.428 . S
C544 N543 1.351 . S
C544 C545 1.434 . S
C545 C536 1.429 . S
C545 N542 1.350 . S
C545 C544 1.434 . S
C546 C547 1.369 . S
C546 C548 1.419 . S
C546 H550 0.930 . S
C547 C546 1.369 . S
C547 C556 1.429 . S
C548 C546 1.419 . S
C548 C549 1.363 . S
C548 H551 0.929 . S
C549 C548 1.363 . S
C549 C555 1.428 . S
H550 C546 0.930 . S
H551 C548 0.929 . S
S552 N553 1.613 . S
S552 N554 1.610 . S
N553 S552 1.613 . S
N553 C556 1.350 . S
N554 S552 1.610 . S
N554 C555 1.351 . S
C555 C549 1.428 . S
C555 N554 1.351 . S
C555 C556 1.434 . S
C556 C547 1.429 . S
C556 N553 1.350 . S
C556 C555 1.434 . S
C557 C558 1.369 . S
C557 C559 1.419 . S
C557 H561 0.930 . S
C558 C557 1.369 . S
C558 C567 1.429 . S
C559 C557 1.419 . S
C559 C560 1.363 . S
C559 H562 0.929 . S
C560 C559 1.363 . S
C560 C566 1.428 . S
H561 C557 0.930 . S
H562 C559 0.929 . S
S563 N564 1.613 . S
S563 N565 1.610 . S
N564 S563 1.613 . S
N564 C567 1.350 . S
N565 S563 1.610 . S
N565 C566 1.351 . S
C566 C560 1.428 . S
C566 N565 1.351 . S
C566 C567 1.434 . S
C567 C558 1.429 . S
C567 N564 1.350 . S
C567 C566 1.434 . S
C568 C569 1.369 . S
C568 C570 1.419 . S
C568 H572 0.930 . S
C569 C568 1.369 . S
C569 C578 1.429 . S
C570 C568 1.419 . S
C570 C571 1.363 . S
C570 H573 0.929 . S
C571 C570 1.363 . S
C571 C577 1.428 . S
H572 C568 0.930 . S
H573 C570 0.929 . S
S574 N575 1.613 . S
S574 N576 1.610 . S
N575 S574 1.613 . S
N575 C578 1.350 . S
N576 S574 1.610 . S
N576 C577 1.351 . S
C577 C571 1.428 . S
C577 N576 1.351 . S
C577 C578 1.434 . S
C578 C569 1.429 . S
C578 N575 1.350 . S
C578 C577 1.434 . S
C579 C580 1.369 . S
C579 C581 1.419 . S
C579 H583 0.930 . S
C580 C579 1.369 . S
C580 C589 1.429 . S
C581 C579 1.419 . S
C581 C582 1.363 . S
C581 H584 0.929 . S
C582 C581 1.363 . S
C582 C588 1.428 . S
H583 C579 0.930 . S
H584 C581 0.929 . S
S585 N586 1.613 . S
S585 N587 1.610 . S
N586 S585 1.613 . S
N586 C589 1.350 . S
N587 S585 1.610 . S
N587 C588 1.351 . S
C588 C582 1.428 . S
C588 N587 1.351 . S
C588 C589 1.434 . S
C589 C580 1.429 . S
C589 N586 1.350 . S
C589 C588 1.434 . S
C590 C591 1.369 . S
C590 C592 1.419 . S
C590 H594 0.930 . S
C591 C590 1.369 . S
C591 C600 1.429 . S
C592 C590 1.419 . S
C592 C593 1.363 . S
C592 H595 0.929 . S
C593 C592 1.363 . S
C593 C599 1.428 . S
H594 C590 0.930 . S
H595 C592 0.929 . S
S596 N597 1.613 . S
S596 N598 1.610 1_455 S
N597 S596 1.613 . S
N597 C600 1.350 1_455 S
N598 S596 1.610 1_655 S
N598 C599 1.351 . S
C599 C593 1.428 . S
C599 N598 1.351 . S
C599 C600 1.434 . S
C600 C591 1.429 . S
C600 N597 1.350 1_655 S
C600 C599 1.434 . S
C601 C602 1.369 . S
C601 C603 1.419 . S
C601 H605 0.930 . S
C602 C601 1.369 . S
C602 C611 1.429 . S
C603 C601 1.419 . S
C603 C604 1.363 . S
C603 H606 0.929 . S
C604 C603 1.363 . S
C604 C610 1.428 . S
H605 C601 0.930 . S
H606 C603 0.929 . S
S607 N608 1.613 . S
S607 N609 1.610 . S
N608 S607 1.613 . S
N608 C611 1.350 . S
N609 S607 1.610 . S
N609 C610 1.351 . S
C610 C604 1.428 . S
C610 N609 1.351 . S
C610 C611 1.434 . S
C611 C602 1.429 . S
C611 N608 1.350 . S
C611 C610 1.434 . S
C612 C613 1.369 . S
C612 C614 1.419 . S
C612 H616 0.930 . S
C613 C612 1.369 . S
C613 C622 1.429 . S
C614 C612 1.419 . S
C614 C615 1.363 . S
C614 H617 0.929 . S
C615 C614 1.363 . S
C615 C621 1.428 . S
H616 C612 0.930 . S
H617 C614 0.929 . S
S618 N619 1.613 . S
S618 N620 1.610 . S
N619 S618 1.613 . S
N619 C622 1.350 . S
N620 S618 1.610 . S
N620 C621 1.351 . S
C621 C615 1.428 . S
C621 N620 1.351 . S
C621 C622 1.434 . S
C622 C613 1.429 . S
C622 N619 1.350 . S
C622 C621 1.434 . S
C623 C624 1.369 . S
C623 C625 1.419 . S
C623 H627 0.930 . S
C624 C623 1.369 . S
C624 C633 1.429 . S
C625 C623 1.419 . S
C625 C626 1.363 . S
C625 H628 0.929 1_565 S
C626 C625 1.363 . S
C626 C632 1.428 . S
H627 C623 0.930 . S
H628 C625 0.929 1_545 S
S629 N630 1.613 . S
S629 N631 1.610 . S
N630 S629 1.613 . S
N630 C633 1.350 . S
N631 S629 1.610 . S
N631 C632 1.351 . S
C632 C626 1.428 . S
C632 N631 1.351 . S
C632 C633 1.434 . S
C633 C624 1.429 . S
C633 N630 1.350 . S
C633 C632 1.434 . S
C634 C635 1.369 . S
C634 C636 1.419 . S
C634 H638 0.930 . S
C635 C634 1.369 . S
C635 C644 1.429 . S
C636 C634 1.419 . S
C636 C637 1.363 . S
C636 H639 0.929 . S
C637 C636 1.363 . S
C637 C643 1.428 . S
H638 C634 0.930 . S
H639 C636 0.929 . S
S640 N641 1.613 . S
S640 N642 1.610 . S
N641 S640 1.613 . S
N641 C644 1.350 . S
N642 S640 1.610 . S
N642 C643 1.351 . S
C643 C637 1.428 . S
C643 N642 1.351 . S
C643 C644 1.434 . S
C644 C635 1.429 . S
C644 N641 1.350 . S
C644 C643 1.434 . S
C645 C646 1.369 1_556 S
C645 C647 1.419 . S
C645 H649 0.930 . S
C646 C645 1.369 1_554 S
C646 C655 1.429 . S
C647 C645 1.419 . S
C647 C648 1.363 . S
C647 H650 0.929 . S
C648 C647 1.363 . S
C648 C654 1.428 . S
H649 C645 0.930 . S
H650 C647 0.929 . S
S651 N652 1.613 1_565 S
S651 N653 1.610 . S
N652 S651 1.613 1_545 S
N652 C655 1.350 . S
N653 S651 1.610 . S
N653 C654 1.351 1_564 S
C654 C648 1.428 . S
C654 N653 1.351 1_546 S
C654 C655 1.434 1_556 S
C655 C646 1.429 . S
C655 N652 1.350 . S
C655 C654 1.434 1_554 S
C656 C657 1.369 . S
C656 C658 1.419 . S
C656 H660 0.930 . S
C657 C656 1.369 . S
C657 C666 1.429 . S
C658 C656 1.419 . S
C658 C659 1.363 . S
C658 H661 0.929 . S
C659 C658 1.363 . S
C659 C665 1.428 . S
H660 C656 0.930 . S
H661 C658 0.929 . S
S662 N663 1.613 . S
S662 N664 1.610 . S
N663 S662 1.613 . S
N663 C666 1.350 . S
N664 S662 1.610 . S
N664 C665 1.351 . S
C665 C659 1.428 . S
C665 N664 1.351 . S
C665 C666 1.434 . S
C666 C657 1.429 . S
C666 N663 1.350 . S
C666 C665 1.434 . S
C667 C668 1.369 1_556 S
C667 C669 1.419 . S
C667 H671 0.930 1_556 S
C668 C667 1.369 1_554 S
C668 C677 1.429 1_554 S
C669 C667 1.419 . S
C669 C670 1.363 . S
C669 H672 0.929 . S
C670 C669 1.363 . S
C670 C676 1.428 . S
H671 C667 0.930 1_554 S
H672 C669 0.929 . S
S673 N674 1.613 . S
S673 N675 1.610 . S
N674 S673 1.613 . S
N674 C677 1.350 . S
N675 S673 1.610 . S
N675 C676 1.351 . S
C676 C670 1.428 . S
C676 N675 1.351 . S
C676 C677 1.434 . S
C677 C668 1.429 1_556 S
C677 N674 1.350 . S
C677 C676 1.434 . S
C678 C679 1.369 . S
C678 C680 1.419 . S
C678 H682 0.930 . S
C679 C678 1.369 . S
C679 C688 1.429 . S
C680 C678 1.419 . S
C680 C681 1.363 . S
C680 H683 0.929 . S
C681 C680 1.363 . S
C681 C687 1.428 . S
H682 C678 0.930 . S
H683 C680 0.929 . S
S684 N685 1.613 . S
S684 N686 1.610 . S
N685 S684 1.613 . S
N685 C688 1.350 . S
N686 S684 1.610 . S
N686 C687 1.351 . S
C687 C681 1.428 . S
C687 N686 1.351 . S
C687 C688 1.434 . S
C688 C679 1.429 . S
C688 N685 1.350 . S
C688 C687 1.434 . S
C689 C690 1.369 . S
C689 C691 1.419 . S
C689 H693 0.930 . S
C690 C689 1.369 . S
C690 C699 1.429 . S
C691 C689 1.419 . S
C691 C692 1.363 . S
C691 H694 0.929 . S
C692 C691 1.363 . S
C692 C698 1.428 . S
H693 C689 0.930 . S
H694 C691 0.929 . S
S695 N696 1.613 . S
S695 N697 1.610 . S
N696 S695 1.613 . S
N696 C699 1.350 . S
N697 S695 1.610 . S
N697 C698 1.351 . S
C698 C692 1.428 . S
C698 N697 1.351 . S
C698 C699 1.434 . S
C699 C690 1.429 . S
C699 N696 1.350 . S
C699 C698 1.434 . S
C700 C701 1.369 . S
C700 C702 1.419 . S
C700 H704 0.930 . S
C701 C700 1.369 . S
C701 C710 1.429 . S
C702 C700 1.419 . S
C702 C703 1.363 . S
C702 H705 0.929 . S
C703 C702 1.363 . S
C703 C709 1.428 . S
H704 C700 0.930 . S
H705 C702 0.929 . S
S706 N707 1.613 . S
S706 N708 1.610 . S
N707 S706 1.613 . S
N707 C710 1.350 . S
N708 S706 1.610 . S
N708 C709 1.351 . S
C709 C703 1.428 . S
C709 N708 1.351 . S
C709 C710 1.434 . S
C710 C701 1.429 . S
C710 N707 1.350 . S
C710 C709 1.434 . S
C711 C712 1.369 . S
C711 C713 1.422 . S
C711 H715 0.930 . S
C712 C711 1.369 . S
C712 C721 1.429 . S
C713 C711 1.422 . S
C713 C714 1.362 1_545 S
C713 H716 0.926 1_545 S
C714 C713 1.362 1_565 S
C714 C720 1.428 1_565 S
H715 C711 0.930 . S
H716 C713 0.926 1_565 S
S717 N718 1.613 . S
S717 N719 1.610 . S
N718 S717 1.613 . S
N718 C721 1.350 1_655 S
N719 S717 1.610 . S
N719 C720 1.351 1_655 S
C720 C714 1.428 1_545 S
C720 N719 1.351 1_455 S
C720 C721 1.434 . S
C721 C712 1.429 . S
C721 N718 1.350 1_455 S
C721 C720 1.434 . S
C722 C723 1.369 . S
C722 C724 1.419 . S
C722 H726 0.930 . S
C723 C722 1.369 . S
C723 C732 1.429 . S
C724 C722 1.419 . S
C724 C725 1.363 . S
C724 H727 0.929 . S
C725 C724 1.363 . S
C725 C731 1.428 . S
H726 C722 0.930 . S
H727 C724 0.929 . S
S728 N729 1.613 . S
S728 N730 1.610 . S
N729 S728 1.613 . S
N729 C732 1.350 1_554 S
N730 S728 1.610 . S
N730 C731 1.351 1_554 S
C731 C725 1.428 . S
C731 N730 1.351 1_556 S
C731 C732 1.434 . S
C732 C723 1.429 . S
C732 N729 1.350 1_556 S
C732 C731 1.434 . S
C733 C734 1.369 . S
C733 C735 1.419 1_545 S
C733 H737 0.930 . S
C734 C733 1.369 . S
C734 C743 1.429 . S
C735 C733 1.419 1_565 S
C735 C736 1.363 . S
C735 H738 0.929 . S
C736 C735 1.363 . S
C736 C742 1.428 . S
H737 C733 0.930 . S
H738 C735 0.929 . S
S739 N740 1.613 1_565 S
S739 N741 1.610 . S
N740 S739 1.613 1_545 S
N740 C743 1.350 . S
N741 S739 1.610 . S
N741 C742 1.351 . S
C742 C736 1.428 . S
C742 N741 1.351 . S
C742 C743 1.434 1_565 S
C743 C734 1.429 . S
C743 N740 1.350 . S
C743 C742 1.434 1_545 S
C744 C745 1.369 . S
C744 C746 1.419 . S
C744 H748 0.930 . S
C745 C744 1.369 . S
C745 C754 1.429 . S
C746 C744 1.419 . S
C746 C747 1.363 . S
C746 H749 0.929 . S
C747 C746 1.363 . S
C747 C753 1.428 . S
H748 C744 0.930 . S
H749 C746 0.929 . S
S750 N751 1.613 . S
S750 N752 1.610 . S
N751 S750 1.613 . S
N751 C754 1.350 . S
N752 S750 1.610 . S
N752 C753 1.351 . S
C753 C747 1.428 . S
C753 N752 1.351 . S
C753 C754 1.434 . S
C754 C745 1.429 . S
C754 N751 1.350 . S
C754 C753 1.434 . S
C755 C756 1.369 . S
C755 C757 1.419 . S
C755 H759 0.930 . S
C756 C755 1.369 . S
C756 C765 1.429 . S
C757 C755 1.419 . S
C757 C758 1.363 . S
C757 H760 0.929 . S
C758 C757 1.363 . S
C758 C764 1.428 . S
H759 C755 0.930 . S
H760 C757 0.929 . S
S761 N762 1.613 . S
S761 N763 1.610 . S
N762 S761 1.613 . S
N762 C765 1.350 . S
N763 S761 1.610 . S
N763 C764 1.351 . S
C764 C758 1.428 . S
C764 N763 1.351 . S
C764 C765 1.434 . S
C765 C756 1.429 . S
C765 N762 1.350 . S
C765 C764 1.434 . S
C766 C767 1.369 . S
C766 C768 1.419 . S
C766 H770 0.930 . S
C767 C766 1.369 . S
C767 C776 1.429 . S
C768 C766 1.419 . S
C768 C769 1.363 . S
C768 H771 0.929 . S
C769 C768 1.363 . S
C769 C775 1.428 . S
H770 C766 0.930 . S
H771 C768 0.929 . S
S772 N773 1.613 . S
S772 N774 1.610 . S
N773 S772 1.613 . S
N773 C776 1.350 . S
N774 S772 1.610 . S
N774 C775 1.351 . S
C775 C769 1.428 . S
C775 N774 1.351 . S
C775 C776 1.434 . S
C776 C767 1.429 . S
C776 N773 1.350 . S
C776 C775 1.434 . S
C777 C778 1.369 . S
C777 C779 1.419 . S
C777 H781 0.930 . S
C778 C777 1.369 . S
C778 C787 1.429 . S
C779 C777 1.419 . S
C779 C780 1.363 . S
C779 H782 0.929 . S
C780 C779 1.363 . S
C780 C786 1.428 . S
H781 C777 0.930 . S
H782 C779 0.929 . S
S783 N784 1.613 . S
S783 N785 1.610 . S
N784 S783 1.613 . S
N784 C787 1.350 . S
N785 S783 1.610 . S
N785 C786 1.351 . S
C786 C780 1.428 . S
C786 N785 1.351 . S
C786 C787 1.434 . S
C787 C778 1.429 . S
C787 N784 1.350 . S
C787 C786 1.434 . S
C788 C789 1.369 . S
C788 C790 1.419 . S
C788 H792 0.930 . S
C789 C788 1.369 . S
C789 C798 1.429 . S
C790 C788 1.419 . S
C790 C791 1.363 . S
C790 H793 0.929 . S
C791 C790 1.363 . S
C791 C797 1.428 . S
H792 C788 0.930 . S
H793 C790 0.929 . S
S794 N795 1.613 . S
S794 N796 1.610 . S
N795 S794 1.613 . S
N795 C798 1.350 . S
N796 S794 1.610 . S
N796 C797 1.351 . S
C797 C791 1.428 . S
C797 N796 1.351 . S
C797 C798 1.434 . S
C798 C789 1.429 . S
C798 N795 1.350 . S
C798 C797 1.434 . S
C799 C800 1.369 . S
C799 C801 1.419 . S
C799 H803 0.930 . S
C800 C799 1.369 . S
C800 C809 1.429 . S
C801 C799 1.419 . S
C801 C802 1.363 . S
C801 H804 0.929 . S
C802 C801 1.363 . S
C802 C808 1.428 . S
H803 C799 0.930 . S
H804 C801 0.929 . S
S805 N806 1.613 . S
S805 N807 1.610 . S
N806 S805 1.613 . S
N806 C809 1.350 . S
N807 S805 1.610 . S
N807 C808 1.351 . S
C808 C802 1.428 . S
C808 N807 1.351 . S
C808 C809 1.434 . S
C809 C800 1.429 . S
C809 N806 1.350 . S
C809 C808 1.434 . S
C810 C811 1.369 . S
C810 C812 1.419 1_455 S
C810 H814 0.930 . S
C811 C810 1.369 . S
C811 C820 1.429 . S
C812 C810 1.419 1_655 S
C812 C813 1.363 . S
C812 H815 0.929 . S
C813 C812 1.363 . S
C813 C819 1.428 . S
H814 C810 0.930 . S
H815 C812 0.929 . S
S816 N817 1.613 1_656 S
S816 N818 1.610 . S
N817 S816 1.613 1_454 S
N817 C820 1.350 . S
N818 S816 1.610 . S
N818 C819 1.351 1_556 S
C819 C813 1.428 . S
C819 N818 1.351 1_554 S
C819 C820 1.434 1_655 S
C820 C811 1.429 . S
C820 N817 1.350 . S
C820 C819 1.434 1_455 S
C821 C822 1.369 . S
C821 C823 1.419 . S
C821 H825 0.930 . S
C822 C821 1.369 . S
C822 C831 1.429 . S
C823 C821 1.419 . S
C823 C824 1.363 . S
C823 H826 0.929 . S
C824 C823 1.363 . S
C824 C830 1.428 . S
H825 C821 0.930 . S
H826 C823 0.929 . S
S827 N828 1.613 . S
S827 N829 1.610 . S
N828 S827 1.613 . S
N828 C831 1.350 . S
N829 S827 1.610 . S
N829 C830 1.351 . S
C830 C824 1.428 . S
C830 N829 1.351 . S
C830 C831 1.434 . S
C831 C822 1.429 . S
C831 N828 1.350 . S
C831 C830 1.434 . S
C832 C833 1.369 . S
C832 C834 1.419 . S
C832 H836 0.930 . S
C833 C832 1.369 . S
C833 C842 1.429 . S
C834 C832 1.419 . S
C834 C835 1.363 . S
C834 H837 0.929 . S
C835 C834 1.363 . S
C835 C841 1.428 . S
H836 C832 0.930 . S
H837 C834 0.929 . S
S838 N839 1.613 . S
S838 N840 1.610 . S
N839 S838 1.613 . S
N839 C842 1.350 . S
N840 S838 1.610 . S
N840 C841 1.351 . S
C841 C835 1.428 . S
C841 N840 1.351 . S
C841 C842 1.434 . S
C842 C833 1.429 . S
C842 N839 1.350 . S
C842 C841 1.434 . S
C843 C844 1.369 . S
C843 C845 1.419 . S
C843 H847 0.930 . S
C844 C843 1.369 . S
C844 C853 1.429 . S
C845 C843 1.419 . S
C845 C846 1.363 . S
C845 H848 0.929 . S
C846 C845 1.363 . S
C846 C852 1.428 . S
H847 C843 0.930 . S
H848 C845 0.929 . S
S849 N850 1.613 . S
S849 N851 1.610 . S
N850 S849 1.613 . S
N850 C853 1.350 . S
N851 S849 1.610 . S
N851 C852 1.351 . S
C852 C846 1.428 . S
C852 N851 1.351 . S
C852 C853 1.434 . S
C853 C844 1.429 . S
C853 N850 1.350 . S
C853 C852 1.434 . S
C854 C855 1.369 . S
C854 C856 1.419 . S
C854 H858 0.930 1_556 S
C855 C854 1.369 . S
C855 C864 1.429 . S
C856 C854 1.419 . S
C856 C857 1.363 . S
C856 H859 0.929 . S
C857 C856 1.363 . S
C857 C863 1.428 . S
H858 C854 0.930 1_554 S
H859 C856 0.929 . S
S860 N861 1.613 . S
S860 N862 1.610 . S
N861 S860 1.613 . S
N861 C864 1.350 . S
N862 S860 1.610 . S
N862 C863 1.351 . S
C863 C857 1.428 . S
C863 N862 1.351 . S
C863 C864 1.434 . S
C864 C855 1.429 . S
C864 N861 1.350 . S
C864 C863 1.434 . S
C865 C866 1.369 . S
C865 C867 1.419 . S
C865 H869 0.930 . S
C866 C865 1.369 . S
C866 C875 1.429 . S
C867 C865 1.419 . S
C867 C868 1.363 1_655 S
C867 H870 0.929 . S
C868 C867 1.363 1_455 S
C868 C874 1.428 . S
H869 C865 0.930 . S
H870 C867 0.929 . S
S871 N872 1.642 . S
S871 N873 1.593 1_655 S
N872 S871 1.642 . S
N872 C875 1.350 . S
N873 S871 1.593 1_455 S
N873 C874 1.351 . S
C874 C868 1.428 . S
C874 N873 1.351 . S
C874 C875 1.434 1_455 S
C875 C866 1.429 . S
C875 N872 1.350 . S
C875 C874 1.434 1_655 S
C481 C18 1.326 . S
C483 C458 1.323 . S
C492 C379 1.812 . S
C494 C58 1.975 . S
C503 C99 1.432 . S
C505 C338 1.550 . S
C514 C138 2.250 . S
C516 C418 2.235 . S
C525 C178 1.842 . S
C527 C419 1.740 . S
C536 C219 1.507 . S
C538 C459 1.556 . S
C547 C378 2.121 . S
C549 C258 2.124 . S
C558 C299 1.671 . S
C560 C339 1.760 . S
C569 C139 1.742 . S
C571 C179 1.796 . S
C580 C19 1.718 . S
C582 C218 1.868 . S
C591 C59 1.634 . S
C593 C259 1.645 . S
C602 C298 2.056 . S
C604 C98 2.055 . S
C613 C6 1.718 . S
C615 C329 1.550 . S
C624 C46 1.774 . S
C626 C409 1.660 . S
C635 C449 2.145 . S
C637 C95 2.183 . S
C646 C126 1.539 . S
C648 C370 1.496 . S
C657 C166 1.303 . S
C659 C369 1.216 . S
C668 C330 2.245 . S
C670 C215 2.093 . S
C679 C410 1.353 . S
C681 C246 1.372 . S
C690 C450 2.730 . S
C692 C295 2.583 . S
C701 C10 2.825 . S
C703 C135 2.684 . S
C712 C15 2.134 . S
C714 C50 2.254 . S
C723 C55 2.422 . S
C725 C89 2.371 . S
C734 C130 1.666 . S
C736 C86 1.720 . S
C745 C206 1.522 . S
C747 C170 1.481 . S
C756 C209 1.545 . S
C758 C255 1.607 . S
C767 C250 1.525 . S
C769 C286 1.567 . S
C778 C175 1.210 . S
C780 C289 1.153 . S
C789 C335 1.229 . S
C791 C129 1.146 . S
C800 C210 1.856 . S
C802 C375 1.773 . S
C811 C326 1.478 . S
C813 C249 1.378 . S
C822 C406 1.705 . S
C824 C290 1.668 . S
C833 C169 1.348 . S
C835 C446 1.473 . S
C844 C455 1.905 . S
C846 C49 1.830 . S
C855 C90 1.559 . S
C857 C366 1.603 . S
C866 C415 1.963 . S
C868 C9 1.918 . S
