# Generated by pormake.
# Topology wgc, (5)-cn, num edge types: 1
# Building blocks:
#     Node 0, Type 0, BuildingBlock: XOMCOT_clean_sbu_0, # of connection points: 5
#     Node 1, Type 0, BuildingBlock: XOMCOT_clean_sbu_0, # of connection points: 5
#     Node 2, Type 0, BuildingBlock: XOMCOT_clean_sbu_0, # of connection points: 5
#     Node 3, Type 0, BuildingBlock: XOMCOT_clean_sbu_0, # of connection points: 5
#     Node 4, Type 0, BuildingBlock: XOMCOT_clean_sbu_0, # of connection points: 5
#     Node 5, Type 0, BuildingBlock: XOMCOT_clean_sbu_0, # of connection points: 5
#     Node 6, Type 0, BuildingBlock: XOMCOT_clean_sbu_0, # of connection points: 5
#     Node 7, Type 0, BuildingBlock: XOMCOT_clean_sbu_0, # of connection points: 5
#     Node 8, Type 0, BuildingBlock: XOMCOT_clean_sbu_0, # of connection points: 5
#     Node 9, Type 0, BuildingBlock: XOMCOT_clean_sbu_0, # of connection points: 5
#     Node 10, Type 0, BuildingBlock: XOMCOT_clean_sbu_0, # of connection points: 5
#     Node 11, Type 0, BuildingBlock: XOMCOT_clean_sbu_0, # of connection points: 5
#     Node 12, Type 0, BuildingBlock: XOMCOT_clean_sbu_0, # of connection points: 5
#     Node 13, Type 0, BuildingBlock: XOMCOT_clean_sbu_0, # of connection points: 5
#     Node 14, Type 0, BuildingBlock: XOMCOT_clean_sbu_0, # of connection points: 5
#     Node 15, Type 0, BuildingBlock: XOMCOT_clean_sbu_0, # of connection points: 5
#     Edge 16, Type (0, 0), BuildingBlock: XIVTED_clean_linker_0, # of connection points: 2
#     Edge 17, Type (0, 0), BuildingBlock: XIVTED_clean_linker_0, # of connection points: 2
#     Edge 18, Type (0, 0), BuildingBlock: XIVTED_clean_linker_0, # of connection points: 2
#     Edge 19, Type (0, 0), BuildingBlock: XIVTED_clean_linker_0, # of connection points: 2
#     Edge 20, Type (0, 0), BuildingBlock: XIVTED_clean_linker_0, # of connection points: 2
#     Edge 21, Type (0, 0), BuildingBlock: XIVTED_clean_linker_0, # of connection points: 2
#     Edge 22, Type (0, 0), BuildingBlock: XIVTED_clean_linker_0, # of connection points: 2
#     Edge 23, Type (0, 0), BuildingBlock: XIVTED_clean_linker_0, # of connection points: 2
#     Edge 24, Type (0, 0), BuildingBlock: XIVTED_clean_linker_0, # of connection points: 2
#     Edge 25, Type (0, 0), BuildingBlock: XIVTED_clean_linker_0, # of connection points: 2
#     Edge 26, Type (0, 0), BuildingBlock: XIVTED_clean_linker_0, # of connection points: 2
#     Edge 27, Type (0, 0), BuildingBlock: XIVTED_clean_linker_0, # of connection points: 2
#     Edge 28, Type (0, 0), BuildingBlock: XIVTED_clean_linker_0, # of connection points: 2
#     Edge 29, Type (0, 0), BuildingBlock: XIVTED_clean_linker_0, # of connection points: 2
#     Edge 30, Type (0, 0), BuildingBlock: XIVTED_clean_linker_0, # of connection points: 2
#     Edge 31, Type (0, 0), BuildingBlock: XIVTED_clean_linker_0, # of connection points: 2
#     Edge 32, Type (0, 0), BuildingBlock: XIVTED_clean_linker_0, # of connection points: 2
#     Edge 33, Type (0, 0), BuildingBlock: XIVTED_clean_linker_0, # of connection points: 2
#     Edge 34, Type (0, 0), BuildingBlock: XIVTED_clean_linker_0, # of connection points: 2
#     Edge 35, Type (0, 0), BuildingBlock: XIVTED_clean_linker_0, # of connection points: 2
#     Edge 36, Type (0, 0), BuildingBlock: XIVTED_clean_linker_0, # of connection points: 2
#     Edge 37, Type (0, 0), BuildingBlock: XIVTED_clean_linker_0, # of connection points: 2
#     Edge 38, Type (0, 0), BuildingBlock: XIVTED_clean_linker_0, # of connection points: 2
#     Edge 39, Type (0, 0), BuildingBlock: XIVTED_clean_linker_0, # of connection points: 2
#     Edge 40, Type (0, 0), BuildingBlock: XIVTED_clean_linker_0, # of connection points: 2
#     Edge 41, Type (0, 0), BuildingBlock: XIVTED_clean_linker_0, # of connection points: 2
#     Edge 42, Type (0, 0), BuildingBlock: XIVTED_clean_linker_0, # of connection points: 2
#     Edge 43, Type (0, 0), BuildingBlock: XIVTED_clean_linker_0, # of connection points: 2
#     Edge 44, Type (0, 0), BuildingBlock: XIVTED_clean_linker_0, # of connection points: 2
#     Edge 45, Type (0, 0), BuildingBlock: XIVTED_clean_linker_0, # of connection points: 2
#     Edge 46, Type (0, 0), BuildingBlock: XIVTED_clean_linker_0, # of connection points: 2
#     Edge 47, Type (0, 0), BuildingBlock: XIVTED_clean_linker_0, # of connection points: 2
#     Edge 48, Type (0, 0), BuildingBlock: XIVTED_clean_linker_0, # of connection points: 2
#     Edge 49, Type (0, 0), BuildingBlock: XIVTED_clean_linker_0, # of connection points: 2
#     Edge 50, Type (0, 0), BuildingBlock: XIVTED_clean_linker_0, # of connection points: 2
#     Edge 51, Type (0, 0), BuildingBlock: XIVTED_clean_linker_0, # of connection points: 2
#     Edge 52, Type (0, 0), BuildingBlock: XIVTED_clean_linker_0, # of connection points: 2
#     Edge 53, Type (0, 0), BuildingBlock: XIVTED_clean_linker_0, # of connection points: 2
#     Edge 54, Type (0, 0), BuildingBlock: XIVTED_clean_linker_0, # of connection points: 2
#     Edge 55, Type (0, 0), BuildingBlock: XIVTED_clean_linker_0, # of connection points: 2
# Relax obj value: 0.140
# Max RMSD: 0.153
# Mean RMSD: 0.152
data_MOF--net-wgc--node1-XOMCOT_clean_sbu_0--edge1-XIVTED_clean_linker_0
_symmetry_space_group_name_H-M    P1
_symmetry_Int_Tables_number       1
_symmetry_cell_setting            triclinic
loop_
_symmetry_equiv_pos_as_xyz
'x, y, z'
_cell_length_a     36.900007
_cell_length_b     36.898035
_cell_length_c     60.41026
_cell_angle_alpha  89.929793
_cell_angle_beta   89.972708
_cell_angle_gamma 89.988964
loop_
_atom_site_label
_atom_site_type_symbol
_atom_site_fract_x
_atom_site_fract_y
_atom_site_fract_z
_atom_type_partial_charge
Co0 Co 0.29499 0.11563 0.98782 0.0
C1 C 0.22025 0.14519 0.98196 0.0
C2 C 0.22294 0.08799 0.97606 0.0
C3 C 0.18798 0.09937 0.97245 0.0
N4 N 0.24316 0.11658 0.98234 0.0
N5 N 0.18623 0.13535 0.97622 0.0
H6 H 0.22814 0.17266 0.98561 0.0
H7 H 0.23294 0.06079 0.97364 0.0
C8 C 0.29395 0.03634 0.99412 0.0
O9 O 0.30806 0.03436 0.97424 0.0
N10 N 0.34702 0.11426 0.99308 0.0
C11 C 0.36703 0.13758 0.00515 0.0
C12 C 0.40249 0.1258 0.00543 0.0
C13 C 0.37089 0.08919 0.9858 0.0
N14 N 0.40488 0.09517 0.99334 0.0
C15 C 0.28275 0.17833 0.01474 0.0
C16 C 0.28563 0.14406 0.05536 0.0
C17 C 0.27923 0.18154 0.05472 0.0
C18 C 0.27781 0.19857 0.03398 0.0
C19 C 0.29003 0.12468 0.03567 0.0
N20 N 0.28797 0.14172 0.01559 0.0
H21 H 0.28255 0.19239 -0.00092 0.0
H22 H 0.29603 0.09618 0.03689 0.0
H23 H 0.35678 0.16138 0.01345 0.0
H24 H 0.36381 0.06737 0.97483 0.0
O25 O 0.30089 0.15631 0.96751 0.0
O26 O 0.30213 0.09847 0.95817 0.0
O27 O 0.28826 0.06726 0.00298 0.0
C28 C 0.30293 0.13206 0.95196 0.0
H29 H 0.16578 0.08245 0.96699 0.0
H30 H 0.42452 0.13844 0.01437 0.0
H31 H 0.28808 0.12981 0.07097 0.0
H32 H 0.2728 0.22739 0.03251 0.0
Co33 Co 0.11146 0.71497 0.00856 0.0
C34 C 0.14391 0.78753 0.01078 0.0
C35 C 0.08661 0.78961 0.01681 0.0
C36 C 0.10064 0.82403 0.0191 0.0
N37 N 0.11381 0.76693 0.01151 0.0
N38 N 0.13672 0.82264 0.01535 0.0
H39 H 0.17064 0.77666 0.00759 0.0
H40 H 0.05869 0.78161 0.01924 0.0
C41 C 0.04553 0.70941 0.97806 0.0
O42 O 0.06215 0.68928 0.96329 0.0
N43 N 0.10903 0.66233 0.0062 0.0
C44 C 0.13685 0.63892 0.00866 0.0
C45 C 0.12372 0.60413 0.00887 0.0
C46 C 0.07909 0.64114 0.00585 0.0
N47 N 0.08735 0.60542 0.0071 0.0
C48 C 0.16936 0.70378 0.97768 0.0
C49 C 0.13931 0.74155 0.9427 0.0
C50 C 0.17211 0.72305 0.93938 0.0
C51 C 0.18762 0.705 0.95749 0.0
C52 C 0.12213 0.73989 0.96335 0.0
N53 N 0.13597 0.71907 0.98007 0.0
H54 H 0.18265 0.69119 0.99151 0.0
H55 H 0.0976 0.75533 0.96582 0.0
H56 H 0.16468 0.6462 0.01175 0.0
H57 H 0.05177 0.65162 0.00554 0.0
O58 O 0.1532 0.71138 0.02806 0.0
O59 O 0.09554 0.71131 0.03858 0.0
O60 O 0.06176 0.72042 0.99541 0.0
C61 C 0.12956 0.71081 0.04409 0.0
H62 H 0.08536 0.84814 0.02317 0.0
H63 H 0.13969 0.57991 0.01147 0.0
H64 H 0.12667 0.75676 0.92946 0.0
H65 H 0.21396 0.69224 0.95623 0.0
Co66 Co 0.72349 0.89681 0.98121 0.0
C67 C 0.79473 0.86153 0.97875 0.0
C68 C 0.79884 0.91869 0.97246 0.0
C69 C 0.83243 0.90313 0.9692 0.0
N70 N 0.77538 0.89252 0.97845 0.0
N71 N 0.82969 0.86722 0.97317 0.0
H72 H 0.78308 0.83515 0.98201 0.0
H73 H 0.79174 0.94683 0.96991 0.0
C74 C 0.71532 0.95776 0.01457 0.0
O75 O 0.69169 0.93983 0.02661 0.0
N76 N 0.67104 0.90135 0.98344 0.0
C77 C 0.64631 0.87445 0.98329 0.0
C78 C 0.61217 0.88927 0.98313 0.0
C79 C 0.6513 0.93227 0.98257 0.0
N80 N 0.61521 0.92568 0.98267 0.0
C81 C 0.71296 0.83253 0.0076 0.0
C82 C 0.74508 0.85863 0.04566 0.0
C83 C 0.72882 0.82435 0.04616 0.0
C84 C 0.71357 0.81086 0.0266 0.0
C85 C 0.74423 0.87914 0.02623 0.0
N86 N 0.72597 0.86716 0.00796 0.0
H87 H 0.70264 0.82108 0.99247 0.0
H88 H 0.7588 0.90446 0.0259 0.0
H89 H 0.65207 0.84591 0.98236 0.0
H90 H 0.66311 0.95899 0.98111 0.0
O91 O 0.71863 0.85939 0.95868 0.0
O92 O 0.72149 0.9186 0.95258 0.0
O93 O 0.73018 0.94356 0.99762 0.0
C94 C 0.72005 0.88608 0.9445 0.0
H95 H 0.85687 0.91709 0.96415 0.0
H96 H 0.58704 0.87418 0.98317 0.0
H97 H 0.75884 0.86932 0.06009 0.0
H98 H 0.70178 0.784 0.02602 0.0
Co99 Co 0.89242 0.28386 0.01429 0.0
C100 C 0.85463 0.21407 0.02026 0.0
C101 C 0.91136 0.20989 0.02774 0.0
C102 C 0.89521 0.17703 0.03217 0.0
N103 N 0.88589 0.23295 0.02022 0.0
N104 N 0.85957 0.17977 0.02746 0.0
H105 H 0.82864 0.22549 0.0158 0.0
H106 H 0.93956 0.21675 0.03026 0.0
C107 C 0.96167 0.28501 0.9856 0.0
O108 O 0.95637 0.3173 0.97707 0.0
N109 N 0.89891 0.33539 0.00887 0.0
C110 C 0.87343 0.35919 0.00211 0.0
C111 C 0.88776 0.39351 0.00234 0.0
C112 C 0.92819 0.35597 0.01375 0.0
N113 N 0.92221 0.39153 0.00959 0.0
C114 C 0.82739 0.28762 0.98823 0.0
C115 C 0.85666 0.26288 0.94898 0.0
C116 C 0.8205 0.27449 0.94919 0.0
C117 C 0.8057 0.28626 0.9693 0.0
C118 C 0.87741 0.26477 0.96828 0.0
N119 N 0.8633 0.2787 0.9874 0.0
H120 H 0.81535 0.29677 0.00352 0.0
H121 H 0.90464 0.25458 0.96749 0.0
H122 H 0.84588 0.35281 0.99783 0.0
H123 H 0.95317 0.34515 0.02043 0.0
O124 O 0.85477 0.29432 0.03595 0.0
O125 O 0.91346 0.28941 0.04302 0.0
O126 O 0.93883 0.27073 -0.00115 0.0
C127 C 0.88078 0.29362 0.05054 0.0
H128 H 0.90869 0.15294 0.03825 0.0
H129 H 0.87386 0.41805 0.9974 0.0
H130 H 0.86917 0.25303 0.93393 0.0
H131 H 0.77756 0.29438 0.97045 0.0
Co132 Co 0.28503 0.38883 0.26245 0.0
C133 C 0.21583 0.35159 0.2711 0.0
C134 C 0.21342 0.40775 0.28027 0.0
C135 C 0.18096 0.39158 0.2858 0.0
N136 N 0.23509 0.38263 0.27103 0.0
N137 N 0.18258 0.35629 0.28 0.0
H138 H 0.2263 0.3259 0.26531 0.0
H139 H 0.22093 0.43569 0.28313 0.0
C140 C 0.28236 0.45421 0.23189 0.0
O141 O 0.30442 0.43948 0.21739 0.0
N142 N 0.33558 0.39556 0.25429 0.0
C143 C 0.35946 0.37052 0.24711 0.0
C144 C 0.39294 0.38638 0.24496 0.0
C145 C 0.35531 0.42618 0.25688 0.0
N146 N 0.39047 0.4214 0.25115 0.0
C147 C 0.28696 0.32634 0.23436 0.0
C148 C 0.24877 0.35544 0.1993 0.0
C149 C 0.26376 0.32073 0.19712 0.0
C150 C 0.28209 0.30577 0.21524 0.0
C151 C 0.25392 0.3749 0.2189 0.0
N152 N 0.27514 0.36136 0.23551 0.0
H153 H 0.3007 0.31404 0.24821 0.0
H154 H 0.24037 0.40059 0.22063 0.0
H155 H 0.3539 0.34232 0.24422 0.0
H156 H 0.34426 0.45113 0.26342 0.0
O157 O 0.29782 0.34947 0.28241 0.0
O158 O 0.29558 0.40779 0.29118 0.0
O159 O 0.27192 0.43676 0.24896 0.0
C160 C 0.30047 0.37451 0.2975 0.0
H161 H 0.15787 0.40485 0.2933 0.0
H162 H 0.41727 0.37286 0.23933 0.0
H163 H 0.23294 0.36731 0.18604 0.0
H164 H 0.29344 0.27873 0.21449 0.0
Co165 Co 0.39701 0.71868 0.73694 0.0
C166 C 0.36027 0.78896 0.72967 0.0
C167 C 0.41784 0.79534 0.73224 0.0
C168 C 0.40261 0.82884 0.7284 0.0
N169 N 0.39118 0.77046 0.73339 0.0
N170 N 0.36637 0.82474 0.72684 0.0
H171 H 0.33393 0.7765 0.72842 0.0
H172 H 0.44646 0.78959 0.73381 0.0
C173 C 0.46747 0.71225 0.76393 0.0
O174 O 0.46768 0.67675 0.76462 0.0
N175 N 0.40256 0.66659 0.73991 0.0
C176 C 0.37947 0.64347 0.74994 0.0
C177 C 0.39274 0.60884 0.748 0.0
C178 C 0.42884 0.64538 0.73124 0.0
N179 N 0.42396 0.61005 0.73642 0.0
C180 C 0.32843 0.72208 0.75971 0.0
C181 C 0.3558 0.71629 0.80212 0.0
C182 C 0.31833 0.71958 0.79927 0.0
C183 C 0.30462 0.72269 0.77774 0.0
C184 C 0.37864 0.71637 0.78374 0.0
N185 N 0.36507 0.71964 0.76277 0.0
H186 H 0.31722 0.72282 0.74323 0.0
H187 H 0.40708 0.71283 0.78672 0.0
H188 H 0.35467 0.65091 0.75826 0.0
H189 H 0.45164 0.65576 0.72191 0.0
O190 O 0.36204 0.71102 0.71335 0.0
O191 O 0.42135 0.71751 0.70896 0.0
O192 O 0.44116 0.72978 0.75533 0.0
C193 C 0.38961 0.71395 0.69995 0.0
H194 H 0.41712 0.85425 0.72725 0.0
H195 H 0.38087 0.58477 0.75526 0.0
H196 H 0.36747 0.71368 0.8185 0.0
H197 H 0.27571 0.72453 0.77484 0.0
Co198 Co 0.70731 0.6202 0.25723 0.0
C199 C 0.78002 0.65425 0.26142 0.0
C200 C 0.78066 0.5982 0.27078 0.0
C201 C 0.81454 0.61256 0.27459 0.0
N202 N 0.75904 0.62428 0.26237 0.0
N203 N 0.81402 0.64777 0.26865 0.0
H204 H 0.7705 0.6807 0.25656 0.0
H205 H 0.77221 0.57089 0.27463 0.0
C206 C 0.71399 0.54103 0.25261 0.0
O207 O 0.70119 0.5393 0.27285 0.0
N208 N 0.65549 0.61631 0.2523 0.0
C209 C 0.63301 0.64371 0.24693 0.0
C210 C 0.59818 0.63044 0.24532 0.0
C211 C 0.63397 0.58685 0.25404 0.0
N212 N 0.59882 0.59459 0.2498 0.0
C213 C 0.7141 0.68257 0.22915 0.0
C214 C 0.71223 0.64643 0.18915 0.0
C215 C 0.71561 0.68431 0.18904 0.0
C216 C 0.71655 0.7023 0.20947 0.0
C217 C 0.71024 0.62765 0.20925 0.0
N218 N 0.71188 0.64564 0.229 0.0
H219 H 0.7138 0.69726 0.24457 0.0
H220 H 0.70643 0.59873 0.20859 0.0
H221 H 0.64127 0.67153 0.24446 0.0
H222 H 0.64345 0.56042 0.25877 0.0
O223 O 0.69963 0.66117 0.27726 0.0
O224 O 0.70134 0.60358 0.28707 0.0
O225 O 0.71667 0.57167 0.24281 0.0
C226 C 0.6988 0.63713 0.29302 0.0
H227 H 0.83771 0.59825 0.28126 0.0
H228 H 0.57438 0.64604 0.24101 0.0
H229 H 0.71023 0.63133 0.17385 0.0
H230 H 0.71928 0.73147 0.21038 0.0
Co231 Co 0.61246 0.28884 0.73988 0.0
C232 C 0.64306 0.21568 0.73264 0.0
C233 C 0.58743 0.21234 0.74253 0.0
C234 C 0.60006 0.1778 0.73868 0.0
N235 N 0.61452 0.23618 0.73891 0.0
N236 N 0.63507 0.18001 0.73247 0.0
H237 H 0.66893 0.22659 0.72759 0.0
H238 H 0.56013 0.2191 0.7473 0.0
C239 C 0.53377 0.28798 0.74812 0.0
O240 O 0.53033 0.29456 0.72688 0.0
N241 N 0.61082 0.34127 0.74068 0.0
C242 C 0.63809 0.3637 0.74633 0.0
C243 C 0.62588 0.39897 0.74511 0.0
C244 C 0.58272 0.36317 0.73572 0.0
N245 N 0.59095 0.39855 0.7385 0.0
C246 C 0.67497 0.2773 0.76734 0.0
C247 C 0.64361 0.30036 0.80645 0.0
C248 C 0.67932 0.28735 0.80689 0.0
C249 C 0.69508 0.27605 0.78692 0.0
C250 C 0.62444 0.30109 0.78653 0.0
N251 N 0.63982 0.28876 0.76739 0.0
H252 H 0.68786 0.26938 0.75208 0.0
H253 H 0.59735 0.31208 0.78661 0.0
H254 H 0.66491 0.35502 0.75123 0.0
H255 H 0.55695 0.35368 0.72984 0.0
O256 O 0.65178 0.29105 0.7182 0.0
O257 O 0.59333 0.28893 0.71046 0.0
O258 O 0.56528 0.28547 0.75676 0.0
C259 C 0.62638 0.28909 0.70329 0.0
H260 H 0.58468 0.153 0.74052 0.0
H261 H 0.64136 0.42293 0.74924 0.0
H262 H 0.63033 0.30955 0.82142 0.0
H263 H 0.72292 0.2668 0.78634 0.0
Co264 Co 0.785 0.60336 0.48155 0.0
C265 C 0.7104 0.63012 0.47321 0.0
C266 C 0.70941 0.57584 0.48576 0.0
C267 C 0.67428 0.58714 0.48246 0.0
N268 N 0.73223 0.60289 0.48007 0.0
N269 N 0.67497 0.62134 0.47464 0.0
H270 H 0.72014 0.65599 0.4673 0.0
H271 H 0.71718 0.54976 0.49224 0.0
C272 C 0.78675 0.52407 0.48677 0.0
O273 O 0.79437 0.52315 0.46555 0.0
N274 N 0.8374 0.60431 0.48304 0.0
C275 C 0.85792 0.63366 0.48736 0.0
C276 C 0.89385 0.62344 0.48761 0.0
C277 C 0.86107 0.57676 0.48053 0.0
N278 N 0.89574 0.58762 0.48329 0.0
C279 C 0.76784 0.66165 0.51091 0.0
C280 C 0.79568 0.63012 0.54883 0.0
C281 C 0.77951 0.66445 0.55029 0.0
C282 C 0.76562 0.68025 0.53096 0.0
C283 C 0.79714 0.61232 0.52844 0.0
N284 N 0.78276 0.62788 0.50989 0.0
H285 H 0.75791 0.67465 0.49612 0.0
H286 H 0.81038 0.58627 0.52757 0.0
H287 H 0.84741 0.6606 0.4903 0.0
H288 H 0.85335 0.54919 0.47719 0.0
O289 O 0.78606 0.64504 0.46164 0.0
O290 O 0.78697 0.58764 0.45134 0.0
O291 O 0.78357 0.55452 0.49664 0.0
C292 C 0.78588 0.62148 0.44563 0.0
H293 H 0.65011 0.57174 0.48628 0.0
H294 H 0.91675 0.64108 0.49059 0.0
H295 H 0.80691 0.61698 0.56332 0.0
H296 H 0.7538 0.70711 0.5312 0.0
Co297 Co 0.60921 0.20403 0.51434 0.0
C298 C 0.64937 0.2735 0.5191 0.0
C299 C 0.59237 0.2796 0.52492 0.0
C300 C 0.60877 0.31272 0.52788 0.0
N301 N 0.61777 0.25513 0.51916 0.0
N302 N 0.6446 0.30883 0.52416 0.0
H303 H 0.67544 0.26135 0.51594 0.0
H304 H 0.56385 0.27372 0.52696 0.0
C305 C 0.53648 0.2046 0.48885 0.0
O306 O 0.53545 0.1698 0.48453 0.0
N307 N 0.6005 0.1527 0.51011 0.0
C308 C 0.6236 0.12837 0.50128 0.0
C309 C 0.60847 0.09437 0.50283 0.0
C310 C 0.57211 0.13297 0.51753 0.0
N311 N 0.576 0.09737 0.51289 0.0
C312 C 0.67527 0.20439 0.48901 0.0
C313 C 0.644 0.21152 0.44774 0.0
C314 C 0.68189 0.21189 0.44933 0.0
C315 C 0.69747 0.20778 0.47036 0.0
C316 C 0.62282 0.20846 0.46679 0.0
N317 N 0.63836 0.20579 0.48726 0.0
H318 H 0.68795 0.20121 0.50499 0.0
H319 H 0.59401 0.20818 0.46463 0.0
H320 H 0.64982 0.13461 0.49431 0.0
H321 H 0.54891 0.14448 0.52596 0.0
O322 O 0.64643 0.19288 0.53609 0.0
O323 O 0.58811 0.20125 0.54324 0.0
O324 O 0.56362 0.21902 0.49852 0.0
C325 C 0.62062 0.19569 0.55072 0.0
H326 H 0.59521 0.33784 0.53197 0.0
H327 H 0.62007 0.06945 0.49658 0.0
H328 H 0.63057 0.21334 0.43184 0.0
H329 H 0.72659 0.20788 0.47254 0.0
Co330 Co 0.2174 0.39636 0.48878 0.0
C331 C 0.29071 0.36513 0.49006 0.0
C332 C 0.29217 0.42317 0.4875 0.0
C333 C 0.32706 0.41019 0.48624 0.0
N334 N 0.26954 0.39489 0.48996 0.0
N335 N 0.32614 0.37364 0.48776 0.0
H336 H 0.28012 0.33787 0.49129 0.0
H337 H 0.28378 0.45112 0.48577 0.0
C338 C 0.20391 0.45746 0.52179 0.0
O339 O 0.1817 0.43839 0.53417 0.0
N340 N 0.16477 0.39843 0.48687 0.0
C341 C 0.14214 0.37149 0.48078 0.0
C342 C 0.10764 0.38511 0.47868 0.0
C343 C 0.14368 0.42841 0.48745 0.0
N344 N 0.10861 0.42096 0.48288 0.0
C345 C 0.19941 0.33525 0.51639 0.0
C346 C 0.23416 0.35985 0.55398 0.0
C347 C 0.21557 0.32671 0.55493 0.0
C348 C 0.19852 0.31425 0.53563 0.0
C349 C 0.2345 0.37985 0.53434 0.0
N350 N 0.21573 0.36841 0.51615 0.0
H351 H 0.18796 0.32415 0.50152 0.0
H352 H 0.25021 0.40453 0.53375 0.0
H353 H 0.15008 0.34414 0.47675 0.0
H354 H 0.15397 0.45552 0.4898 0.0
O355 O 0.21886 0.35732 0.46716 0.0
O356 O 0.22049 0.41619 0.45966 0.0
O357 O 0.21884 0.4441 0.50463 0.0
C358 C 0.22233 0.38307 0.45248 0.0
H359 H 0.35102 0.42645 0.48344 0.0
H360 H 0.08388 0.36982 0.47392 0.0
H361 H 0.24823 0.37046 0.5683 0.0
H362 H 0.18533 0.28805 0.53519 0.0
Co363 Co 0.38633 0.77813 0.50483 0.0
C364 C 0.34734 0.71027 0.5142 0.0
C365 C 0.40497 0.70318 0.51676 0.0
C366 C 0.38829 0.6711 0.52252 0.0
N367 N 0.37921 0.72754 0.51153 0.0
N368 N 0.35208 0.67567 0.52089 0.0
H369 H 0.32124 0.72309 0.51183 0.0
H370 H 0.43378 0.70858 0.51678 0.0
C371 C 0.45985 0.77692 0.48767 0.0
O372 O 0.4657 0.80291 0.50205 0.0
N373 N 0.39375 0.82925 0.4979 0.0
C374 C 0.39112 0.84437 0.4776 0.0
C375 C 0.40267 0.87973 0.4786 0.0
C376 C 0.40761 0.85573 0.5109 0.0
N377 N 0.41332 0.88675 0.49948 0.0
C378 C 0.32142 0.79471 0.48098 0.0
C379 C 0.33369 0.74725 0.44631 0.0
C380 C 0.30296 0.76961 0.44569 0.0
C381 C 0.29672 0.79327 0.46347 0.0
C382 C 0.35782 0.74974 0.46403 0.0
N383 N 0.35195 0.77388 0.48075 0.0
H384 H 0.31667 0.81327 0.4945 0.0
H385 H 0.38127 0.73223 0.46426 0.0
H386 H 0.38332 0.83021 0.46269 0.0
H387 H 0.41516 0.85204 0.52805 0.0
O388 O 0.35353 0.78995 0.52889 0.0
O389 O 0.41301 0.7827 0.5319 0.0
O390 O 0.42784 0.76465 0.48507 0.0
C391 C 0.38198 0.7878 0.54161 0.0
H392 H 0.40177 0.64627 0.52736 0.0
H393 H 0.4055 0.89808 0.46471 0.0
H394 H 0.3396 0.72862 0.43295 0.0
H395 H 0.27304 0.8106 0.46383 0.0
Co396 Co 0.78959 0.89261 0.75019 0.0
C397 C 0.7168 0.86192 0.75839 0.0
C398 C 0.71785 0.91988 0.76161 0.0
C399 C 0.68367 0.90783 0.76679 0.0
N400 N 0.73844 0.89113 0.75629 0.0
N401 N 0.6829 0.87135 0.76475 0.0
H402 H 0.72591 0.8345 0.75541 0.0
H403 H 0.72734 0.94758 0.76228 0.0
C404 C 0.79407 0.96685 0.73418 0.0
O405 O 0.81946 0.97079 0.74919 0.0
N406 N 0.84128 0.89515 0.7438 0.0
C407 C 0.85667 0.89039 0.72373 0.0
C408 C 0.892 0.90199 0.72446 0.0
C409 C 0.86771 0.90999 0.7564 0.0
N410 N 0.89877 0.91479 0.74491 0.0
C411 C 0.79951 0.82619 0.7269 0.0
C412 C 0.75873 0.84446 0.69012 0.0
C413 C 0.77732 0.81124 0.69031 0.0
C414 C 0.79731 0.80194 0.70924 0.0
C415 C 0.76157 0.8679 0.70817 0.0
N416 N 0.78271 0.85907 0.72591 0.0
H417 H 0.81576 0.81914 0.74115 0.0
H418 H 0.74705 0.8933 0.70774 0.0
H419 H 0.8426 0.88198 0.70892 0.0
H420 H 0.86366 0.91969 0.7731 0.0
O421 O 0.79742 0.85822 0.77401 0.0
O422 O 0.79604 0.91795 0.77769 0.0
O423 O 0.7808 0.93553 0.73058 0.0
C424 C 0.79788 0.88626 0.78707 0.0
H425 H 0.66149 0.92481 0.77218 0.0
H426 H 0.9102 0.904 0.71045 0.0
H427 H 0.74294 0.85283 0.6759 0.0
H428 H 0.81142 0.77628 0.71037 0.0
Co429 Co 0.89596 0.21884 0.24282 0.0
C430 C 0.86343 0.29099 0.23929 0.0
C431 C 0.92117 0.29377 0.23536 0.0
C432 C 0.90697 0.32811 0.23275 0.0
N433 N 0.89375 0.27073 0.23955 0.0
N434 N 0.87061 0.32627 0.2352 0.0
H435 H 0.83659 0.27977 0.2415 0.0
H436 H 0.94938 0.28612 0.234 0.0
C437 C 0.96028 0.20975 0.27408 0.0
O438 O 0.94333 0.18711 0.2873 0.0
N439 N 0.89821 0.1664 0.2457 0.0
C440 C 0.87024 0.14298 0.24719 0.0
C441 C 0.88345 0.10817 0.24727 0.0
C442 C 0.92801 0.14523 0.24407 0.0
N443 N 0.91981 0.10954 0.24536 0.0
C444 C 0.83342 0.21261 0.27093 0.0
C445 C 0.86423 0.24245 0.30838 0.0
C446 C 0.82904 0.22842 0.30969 0.0
C447 C 0.81324 0.21433 0.29046 0.0
C448 C 0.88321 0.24067 0.28838 0.0
N449 N 0.86878 0.22344 0.2704 0.0
H450 H 0.82031 0.20299 0.25614 0.0
H451 H 0.9093 0.25371 0.28741 0.0
H452 H 0.84195 0.15006 0.24713 0.0
H453 H 0.95509 0.15575 0.2417 0.0
O454 O 0.85638 0.21486 0.22161 0.0
O455 O 0.915 0.21496 0.21354 0.0
O456 O 0.94444 0.22412 0.25752 0.0
C457 C 0.88175 0.21454 0.20657 0.0
H458 H 0.92234 0.35249 0.22944 0.0
H459 H 0.8673 0.08371 0.24777 0.0
H460 H 0.87675 0.25524 0.32258 0.0
H461 H 0.78567 0.20425 0.29055 0.0
Co462 Co 0.212 0.11502 0.7632 0.0
C463 C 0.28333 0.15 0.77018 0.0
C464 C 0.28968 0.09395 0.76189 0.0
C465 C 0.32343 0.10851 0.7657 0.0
N466 N 0.26443 0.12009 0.76448 0.0
N467 N 0.31933 0.14376 0.77089 0.0
H468 H 0.2711 0.17566 0.77442 0.0
H469 H 0.28443 0.06603 0.7578 0.0
C470 C 0.21789 0.0367 0.75512 0.0
O471 O 0.21001 0.03299 0.77619 0.0
N472 N 0.15976 0.11031 0.76212 0.0
C473 C 0.13568 0.13775 0.76126 0.0
C474 C 0.10113 0.12345 0.76073 0.0
C475 C 0.13959 0.07984 0.76208 0.0
N476 N 0.10379 0.087 0.76116 0.0
C477 C 0.21945 0.17847 0.73613 0.0
C478 C 0.19942 0.14639 0.69665 0.0
C479 C 0.2103 0.1828 0.69654 0.0
C480 C 0.21999 0.19892 0.71668 0.0
C481 C 0.19957 0.1268 0.71648 0.0
N482 N 0.21055 0.1426 0.73579 0.0
H483 H 0.22596 0.19168 0.75152 0.0
H484 H 0.19049 0.09901 0.71619 0.0
H485 H 0.14279 0.16618 0.76092 0.0
H486 H 0.15042 0.05287 0.76296 0.0
O487 O 0.20729 0.15411 0.7848 0.0
O488 O 0.21273 0.09592 0.79268 0.0
O489 O 0.21866 0.06822 0.74634 0.0
C490 C 0.21065 0.12895 0.79977 0.0
H491 H 0.34901 0.09433 0.76438 0.0
H492 H 0.07611 0.13867 0.75968 0.0
H493 H 0.19136 0.13294 0.68151 0.0
H494 H 0.22746 0.22728 0.71747 0.0
Co495 Co 0.10826 0.78518 0.23258 0.0
C496 C 0.14064 0.71239 0.23111 0.0
C497 C 0.08523 0.71169 0.22025 0.0
C498 C 0.09976 0.67759 0.2173 0.0
N499 N 0.11093 0.73333 0.22892 0.0
N500 N 0.13455 0.67819 0.22415 0.0
H501 H 0.16658 0.72241 0.23681 0.0
H502 H 0.05827 0.72042 0.21567 0.0
C503 C 0.04216 0.78831 0.26285 0.0
O504 O 0.05916 0.80691 0.27819 0.0
N505 N 0.10551 0.83782 0.23542 0.0
C506 C 0.13275 0.86148 0.23163 0.0
C507 C 0.11948 0.89618 0.23232 0.0
C508 C 0.07562 0.85887 0.23746 0.0
N509 N 0.0835 0.89463 0.23594 0.0
C510 C 0.16239 0.79903 0.26568 0.0
C511 C 0.13442 0.75344 0.29774 0.0
C512 C 0.16465 0.77486 0.30287 0.0
C513 C 0.17906 0.79726 0.28634 0.0
C514 C 0.11838 0.7563 0.27682 0.0
N515 N 0.13127 0.78035 0.26148 0.0
H516 H 0.17504 0.81497 0.25297 0.0
H517 H 0.09535 0.73933 0.27302 0.0
H518 H 0.16026 0.85437 0.22736 0.0
H519 H 0.04835 0.84844 0.23864 0.0
O520 O 0.15097 0.78925 0.21391 0.0
O521 O 0.09381 0.78978 0.20235 0.0
O522 O 0.05806 0.77907 0.24498 0.0
C523 C 0.12809 0.7903 0.19747 0.0
H524 H 0.08591 0.65425 0.21052 0.0
H525 H 0.13516 0.92063 0.22985 0.0
H526 H 0.12288 0.73515 0.30987 0.0
H527 H 0.20342 0.81293 0.28923 0.0
H528 H 0.32213 0.09011 0.91731 0.0
H529 H 0.22843 0.19441 0.81917 0.0
H530 H 0.27258 0.19282 0.93309 0.0
H531 H 0.21366 0.08063 0.83332 0.0
H532 H 0.25586 0.202 0.85621 0.0
H533 H 0.2988 0.09508 0.87971 0.0
C534 C 0.30718 0.11423 0.91266 0.0
C535 C 0.29883 0.14086 0.92834 0.0
C536 C 0.24605 0.17563 0.85113 0.0
C537 C 0.27161 0.14635 0.88552 0.0
C538 C 0.23016 0.17131 0.8302 0.0
C539 C 0.21903 0.13676 0.82314 0.0
C540 C 0.25132 0.14503 0.86456 0.0
C541 C 0.22219 0.10766 0.83794 0.0
C542 C 0.29363 0.11687 0.8913 0.0
C543 C 0.27953 0.17171 0.9214 0.0
N544 N 0.23857 0.11234 0.85775 0.0
N545 N 0.26593 0.17344 0.90044 0.0
H546 H 0.09019 0.69112 0.07985 0.0
H547 H 0.09143 0.81272 0.16129 0.0
H548 H 0.1909 0.74227 0.06127 0.0
H549 H 0.18885 0.75671 0.18107 0.0
H550 H 0.10012 0.79068 0.12353 0.0
H551 H 0.09835 0.71328 0.11761 0.0
C552 C 0.11452 0.70618 0.08388 0.0
C553 C 0.13973 0.71527 0.06746 0.0
C554 C 0.12004 0.78405 0.13608 0.0
C555 C 0.14879 0.74089 0.11034 0.0
C556 C 0.11524 0.79666 0.15752 0.0
C557 C 0.1393 0.78618 0.17426 0.0
C558 C 0.14891 0.76065 0.1314 0.0
C559 C 0.16979 0.76537 0.16851 0.0
C560 C 0.11903 0.71885 0.10532 0.0
C561 C 0.1709 0.73474 0.07356 0.0
N562 N 0.17345 0.75252 0.14748 0.0
N563 N 0.17433 0.74765 0.09459 0.0
H564 H 0.74086 0.82395 0.92243 0.0
H565 H 0.79986 0.94029 0.81747 0.0
H566 H 0.71495 0.93685 0.91237 0.0
H567 H 0.78415 0.82478 0.81153 0.0
H568 H 0.77938 0.93714 0.85569 0.0
H569 H 0.76336 0.82107 0.88401 0.0
C570 C 0.73915 0.84782 0.91203 0.0
C571 C 0.72621 0.88075 0.9206 0.0
C572 C 0.78063 0.91238 0.8461 0.0
C573 C 0.75282 0.87793 0.87732 0.0
C574 C 0.7927 0.9141 0.82433 0.0
C575 C 0.79341 0.8828 0.81125 0.0
C576 C 0.76925 0.87911 0.85499 0.0
C577 C 0.78395 0.84957 0.82109 0.0
C578 C 0.75229 0.84624 0.89026 0.0
C579 C 0.72497 0.91098 0.90654 0.0
N580 N 0.77194 0.84857 0.84242 0.0
N581 N 0.7385 0.90894 0.88575 0.0
H582 H 0.81677 0.27734 0.07206 0.0
H583 H 0.92791 0.2015 0.17284 0.0
H584 H 0.93007 0.29958 0.08343 0.0
H585 H 0.82004 0.24101 0.18633 0.0
H586 H 0.92298 0.22405 0.13513 0.0
H587 H 0.81164 0.25566 0.11062 0.0
C588 C 0.84024 0.27862 0.08279 0.0
C589 C 0.87402 0.28993 0.07451 0.0
C590 C 0.90021 0.22747 0.14626 0.0
C591 C 0.86855 0.2642 0.11785 0.0
C592 C 0.90284 0.21431 0.16772 0.0
C593 C 0.87451 0.2198 0.18278 0.0
C594 C 0.86895 0.24614 0.13966 0.0
C595 C 0.8425 0.23629 0.17515 0.0
C596 C 0.83732 0.26598 0.10464 0.0
C597 C 0.90363 0.29071 0.08901 0.0
N598 N 0.84062 0.2493 0.15402 0.0
N599 N 0.90034 0.27739 0.1098 0.0
H600 H 0.32872 0.41636 0.32979 0.0
H601 H 0.231 0.31748 0.43087 0.0
H602 H 0.27256 0.3154 0.31915 0.0
H603 H 0.2418 0.43315 0.42205 0.0
H604 H 0.25788 0.30863 0.39377 0.0
H605 H 0.31311 0.41327 0.36894 0.0
C606 C 0.31399 0.39297 0.33588 0.0
C607 C 0.30155 0.36631 0.32129 0.0
C608 C 0.25416 0.33581 0.40012 0.0
C609 C 0.2826 0.36317 0.36585 0.0
C610 C 0.23865 0.3409 0.42111 0.0
C611 C 0.23401 0.37611 0.42951 0.0
C612 C 0.26575 0.36613 0.38795 0.0
C613 C 0.24467 0.40552 0.41632 0.0
C614 C 0.30477 0.39139 0.35814 0.0
C615 C 0.28265 0.33646 0.32999 0.0
N616 N 0.26026 0.39983 0.39636 0.0
N617 N 0.27303 0.33597 0.35177 0.0
H618 H 0.4426 0.71246 0.66894 0.0
H619 H 0.32115 0.77547 0.5669 0.0
H620 H 0.32756 0.72965 0.67646 0.0
H621 H 0.43704 0.78939 0.57128 0.0
H622 H 0.3205 0.7553 0.60574 0.0
H623 H 0.43861 0.73346 0.63089 0.0
C624 C 0.41633 0.72017 0.66246 0.0
C625 C 0.3854 0.71949 0.67591 0.0
C626 C 0.34591 0.76329 0.59821 0.0
C627 C 0.38072 0.74433 0.63232 0.0
C628 C 0.34627 0.77514 0.57616 0.0
C629 C 0.37925 0.78396 0.56585 0.0
C630 C 0.37879 0.75998 0.60975 0.0
C631 C 0.41104 0.78264 0.5785 0.0
C632 C 0.41412 0.73253 0.64077 0.0
C633 C 0.35204 0.72966 0.66658 0.0
N634 N 0.41006 0.77047 0.59966 0.0
N635 N 0.35057 0.74194 0.6453 0.0
H636 H 0.78889 0.57722 0.41005 0.0
H637 H 0.7296 0.69752 0.31208 0.0
H638 H 0.76397 0.68748 0.42851 0.0
H639 H 0.67778 0.59578 0.32749 0.0
H640 H 0.75234 0.70032 0.35051 0.0
H641 H 0.76316 0.58847 0.37363 0.0
C642 C 0.77863 0.60406 0.40632 0.0
C643 C 0.77815 0.63134 0.42243 0.0
C644 C 0.73507 0.67807 0.34549 0.0
C645 C 0.74853 0.64418 0.38074 0.0
C646 C 0.72183 0.67658 0.32374 0.0
C647 C 0.70212 0.64616 0.31665 0.0
C648 C 0.72879 0.64867 0.35974 0.0
C649 C 0.69325 0.61947 0.33224 0.0
C650 C 0.76372 0.61032 0.38559 0.0
C651 C 0.76475 0.66573 0.41652 0.0
N652 N 0.70735 0.62092 0.35289 0.0
N653 N 0.7501 0.67123 0.39604 0.0
H654 H 0.57226 0.18886 0.58408 0.0
H655 H 0.68863 0.26182 0.68402 0.0
H656 H 0.68456 0.21412 0.5714 0.0
H657 H 0.57899 0.29496 0.66951 0.0
H658 H 0.69228 0.23401 0.64686 0.0
H659 H 0.57881 0.21249 0.62146 0.0
C660 C 0.59857 0.1986 0.58935 0.0
C661 C 0.62777 0.19999 0.57457 0.0
C662 C 0.66777 0.24793 0.65186 0.0
C663 C 0.63524 0.22765 0.61722 0.0
C664 C 0.66577 0.26408 0.67286 0.0
C665 C 0.63335 0.28047 0.67985 0.0
C666 C 0.63691 0.24781 0.63827 0.0
C667 C 0.60437 0.28228 0.66492 0.0
C668 C 0.60219 0.21239 0.6106 0.0
C669 C 0.66138 0.21265 0.58236 0.0
N670 N 0.60664 0.26564 0.64503 0.0
N671 N 0.66418 0.22654 0.6032 0.0
H672 H 0.31193 0.96648 0.98504 0.0
H673 H 0.12963 0.88688 0.03721 0.0
H674 H 0.23765 0.03078 0.02376 0.0
H675 H 0.20255 0.82648 0.99523 0.0
H676 H 0.17213 0.93768 0.03664 0.0
H677 H 0.27662 0.91254 0.99379 0.0
C678 C 0.2885 0.96913 0.99574 0.0
C679 C 0.2775 0.00321 0.0035 0.0
C680 C 0.17891 0.91317 0.02771 0.0
C681 C 0.23638 0.94156 0.01323 0.0
C682 C 0.1545 0.8842 0.02787 0.0
C683 C 0.16224 0.85229 0.01608 0.0
C684 C 0.21132 0.9103 0.01565 0.0
C685 C 0.19537 0.85027 0.00469 0.0
C686 C 0.26822 0.93831 0.00065 0.0
C687 C 0.24708 0.00501 0.01742 0.0
N688 N 0.21849 0.8789 0.00466 0.0
N689 N 0.22721 0.97465 0.02158 0.0
H690 H 0.99063 0.71174 0.0076 0.0
H691 H 0.88619 0.86682 0.94437 0.0
H692 H 0.01794 0.74068 0.94052 0.0
H693 H 0.83743 0.80626 0.99769 0.0
H694 H 0.9353 0.82207 0.94272 0.0
H695 H 0.93425 0.7461 0.0043 0.0
C696 C 0.98422 0.72473 0.99199 0.0
C697 C 0.00866 0.72327 0.97425 0.0
C698 C 0.91363 0.81839 0.95461 0.0
C699 C 0.94493 0.7637 0.97057 0.0
C700 C 0.88584 0.84408 0.95571 0.0
C701 C 0.85789 0.84037 0.97132 0.0
C702 C 0.91381 0.78915 0.96951 0.0
C703 C 0.85839 0.81007 0.98538 0.0
C704 C 0.95214 0.74441 0.99012 0.0
C705 C 0.99946 0.74084 0.95445 0.0
N706 N 0.88613 0.78589 0.98433 0.0
N707 N 0.96854 0.76097 0.95325 0.0
H708 H 0.71353 0.01565 0.9875 0.0
H709 H 0.85795 0.12404 0.05682 0.0
H710 H 0.74305 0.98329 0.05361 0.0
H711 H 0.79996 0.17106 0.00188 0.0
H712 H 0.81508 0.07335 0.05706 0.0
H713 H 0.7427 0.07419 0.9935 0.0
C714 C 0.72553 0.02137 0.00349 0.0
C715 C 0.72589 0.99496 0.02014 0.0
C716 C 0.81145 0.09502 0.04516 0.0
C717 C 0.76041 0.06126 0.02692 0.0
C718 C 0.83608 0.12377 0.04489 0.0
C719 C 0.83275 0.15156 0.02912 0.0
C720 C 0.78365 0.0938 0.02932 0.0
C721 C 0.80351 0.15025 0.01432 0.0
C722 C 0.74224 0.0547 0.00691 0.0
C723 C 0.742 0.00329 0.04049 0.0
N724 N 0.78041 0.12159 0.01458 0.0
N725 N 0.75931 0.03559 0.04321 0.0
H726 H 0.1829 0.20862 0.96958 0.0
H727 H 0.9681 0.21189 0.98663 0.0
H728 H 0.11619 0.11406 0.98013 0.0
H729 H 0.02928 0.30874 0.97223 0.0
H730 H 0.02264 0.17598 0.98203 0.0
H731 H 0.12799 0.24609 0.9689 0.0
C732 C 0.15684 0.19567 0.97176 0.0
C733 C 0.15433 0.15799 0.97497 0.0
C734 C 0.02433 0.20504 0.97969 0.0
C735 C 0.09141 0.20072 0.97398 0.0
C736 C 0.99309 0.22563 0.98234 0.0
C737 C 0.99419 0.26344 0.97999 0.0
C738 C 0.05734 0.22222 0.97487 0.0
C739 C 0.02729 0.27963 0.97416 0.0
C740 C 0.12549 0.21709 0.97121 0.0
C741 C 0.11967 0.14279 0.97734 0.0
N742 N 0.05775 0.25894 0.97203 0.0
N743 N 0.08977 0.16416 0.9769 0.0
H744 H 0.18814 0.66509 0.25358 0.0
H745 H 0.26053 0.48631 0.19297 0.0
H746 H 0.13933 0.62424 0.19378 0.0
H747 H 0.26888 0.50447 0.26328 0.0
H748 H 0.22756 0.5442 0.1894 0.0
H749 H 0.22969 0.61331 0.25366 0.0
C750 C 0.18646 0.64539 0.24036 0.0
C751 C 0.1601 0.64871 0.22377 0.0
C752 C 0.23705 0.53557 0.20553 0.0
C753 C 0.20757 0.58964 0.22366 0.0
C754 C 0.25604 0.50282 0.20753 0.0
C755 C 0.26718 0.49072 0.22845 0.0
C756 C 0.23004 0.55641 0.22453 0.0
C757 C 0.26045 0.51281 0.24688 0.0
C758 C 0.21002 0.61582 0.24045 0.0
C759 C 0.1589 0.62229 0.20706 0.0
N760 N 0.24234 0.54457 0.2445 0.0
N761 N 0.18233 0.59381 0.20741 0.0
H762 H 0.61188 0.89079 0.76777 0.0
H763 H 0.53767 0.68849 0.76854 0.0
H764 H 0.6829 0.7977 0.77037 0.0
H765 H 0.47056 0.78378 0.77463 0.0
H766 H 0.5916 0.72679 0.77263 0.0
H767 H 0.56043 0.85119 0.77306 0.0
C768 C 0.61693 0.86211 0.76967 0.0
C769 C 0.65218 0.84783 0.76851 0.0
C770 C 0.56502 0.73918 0.77339 0.0
C771 C 0.59253 0.80177 0.77424 0.0
C772 C 0.53425 0.71731 0.77121 0.0
C773 C 0.49964 0.73309 0.77089 0.0
C774 C 0.56097 0.77694 0.77522 0.0
C775 C 0.49675 0.77056 0.77436 0.0
C776 C 0.58728 0.83935 0.77264 0.0
C777 C 0.65638 0.81009 0.77077 0.0
N778 N 0.52698 0.79121 0.77611 0.0
N779 N 0.62689 0.78835 0.77336 0.0
H780 H 0.80285 0.32814 0.25286 0.0
H781 H 0.76986 0.53635 0.22262 0.0
H782 H 0.87888 0.39184 0.21485 0.0
H783 H 0.6978 0.47111 0.26235 0.0
H784 H 0.80582 0.48193 0.21454 0.0
H785 H 0.76039 0.37835 0.25185 0.0
C786 C 0.81059 0.35249 0.24407 0.0
C787 C 0.84478 0.35562 0.23403 0.0
C788 C 0.78178 0.47947 0.22472 0.0
C789 C 0.79607 0.41391 0.23312 0.0
C790 C 0.76109 0.51044 0.22916 0.0
C791 C 0.73106 0.50821 0.24336 0.0
C792 C 0.77219 0.44622 0.23452 0.0
C793 C 0.72103 0.47408 0.25154 0.0
C794 C 0.78627 0.38135 0.24359 0.0
C795 C 0.85319 0.38831 0.22317 0.0
N796 N 0.74173 0.44456 0.2472 0.0
N797 N 0.82911 0.41626 0.22313 0.0
H798 H 0.31691 0.21605 0.76285 0.0
H799 H 0.52927 0.24006 0.78284 0.0
H800 H 0.38651 0.13127 0.78767 0.0
H801 H 0.46427 0.30867 0.74077 0.0
H802 H 0.47392 0.20914 0.79514 0.0
H803 H 0.36747 0.25848 0.76511 0.0
C804 C 0.34263 0.20647 0.76916 0.0
C805 C 0.34765 0.16988 0.77472 0.0
C806 C 0.47179 0.23151 0.7836 0.0
C807 C 0.40573 0.2183 0.77717 0.0
C808 C 0.50329 0.24932 0.7767 0.0
C809 C 0.50127 0.27634 0.76039 0.0
C810 C 0.43826 0.24129 0.77431 0.0
C811 C 0.46698 0.28743 0.75305 0.0
C812 C 0.37154 0.2307 0.77036 0.0
C813 C 0.38171 0.15903 0.7827 0.0
N814 N 0.43685 0.26956 0.75984 0.0
N815 N 0.4096 0.18306 0.78347 0.0
H816 H 0.80145 0.45512 0.47355 0.0
H817 H 0.64386 0.37209 0.54717 0.0
H818 H 0.74706 0.51537 0.52495 0.0
H819 H 0.70685 0.31051 0.50022 0.0
H820 H 0.68605 0.4227 0.54283 0.0
H821 H 0.77311 0.39976 0.48705 0.0
C822 C 0.78395 0.45661 0.48792 0.0
C823 C 0.77602 0.49002 0.49786 0.0
C824 C 0.69091 0.39793 0.53371 0.0
C825 C 0.74287 0.4267 0.51321 0.0
C826 C 0.66668 0.36911 0.53606 0.0
C827 C 0.67149 0.33716 0.5238 0.0
C828 C 0.72001 0.3949 0.51883 0.0
C829 C 0.70203 0.33452 0.51003 0.0
C830 C 0.7677 0.42494 0.49562 0.0
C831 C 0.75359 0.49023 0.51663 0.0
N832 N 0.72482 0.36317 0.50772 0.0
N833 N 0.7372 0.45913 0.52344 0.0
H834 H 0.4657 0.18528 0.48025 0.0
H835 H 0.39725 0.38915 0.49441 0.0
H836 H 0.53612 0.27817 0.48622 0.0
H837 H 0.32491 0.30164 0.4771 0.0
H838 H 0.44821 0.34797 0.49101 0.0
H839 H 0.41351 0.22649 0.47781 0.0
C840 C 0.47025 0.21427 0.48068 0.0
C841 C 0.50525 0.22828 0.48374 0.0
C842 C 0.42121 0.33773 0.48785 0.0
C843 C 0.44591 0.27536 0.48129 0.0
C844 C 0.39196 0.36137 0.48974 0.0
C845 C 0.35649 0.34908 0.48603 0.0
C846 C 0.41518 0.30124 0.48238 0.0
C847 C 0.3516 0.31238 0.48043 0.0
C848 C 0.44047 0.23775 0.47943 0.0
C849 C 0.50959 0.26608 0.48426 0.0
N850 N 0.3806 0.28973 0.47884 0.0
N851 N 0.48031 0.28819 0.48327 0.0
H852 H 0.28647 0.67072 0.50097 0.0
H853 H 0.23888 0.48122 0.55879 0.0
H854 H 0.35443 0.6195 0.54993 0.0
H855 H 0.19405 0.51711 0.49671 0.0
H856 H 0.27031 0.53978 0.56237 0.0
H857 H 0.24194 0.62224 0.50576 0.0
C858 C 0.29179 0.64956 0.51296 0.0
C859 C 0.32441 0.64889 0.52486 0.0
C860 C 0.25282 0.53514 0.54826 0.0
C861 C 0.27361 0.59333 0.53042 0.0
C862 C 0.2346 0.50202 0.54639 0.0
C863 C 0.21379 0.49477 0.52753 0.0
C864 C 0.24989 0.56094 0.53118 0.0
C865 C 0.20974 0.522 0.51156 0.0
C866 C 0.26644 0.62183 0.51562 0.0
C867 C 0.32997 0.62064 0.54009 0.0
N868 N 0.22785 0.55382 0.51365 0.0
N869 N 0.30492 0.59385 0.54235 0.0
H870 H 0.52979 0.8003 0.48493 0.0
H871 H 0.60624 0.60147 0.4639 0.0
H872 H 0.46154 0.70875 0.46958 0.0
H873 H 0.67335 0.69491 0.47668 0.0
H874 H 0.55346 0.64131 0.4612 0.0
H875 H 0.58303 0.76368 0.47651 0.0
C876 C 0.52598 0.77264 0.47942 0.0
C877 C 0.49121 0.75742 0.47823 0.0
C878 C 0.57982 0.65312 0.46433 0.0
C879 C 0.55214 0.71504 0.46893 0.0
C880 C 0.60994 0.63035 0.46602 0.0
C881 C 0.64429 0.64474 0.47078 0.0
C882 C 0.58401 0.69058 0.46757 0.0
C883 C 0.64755 0.6825 0.4729 0.0
C884 C 0.55642 0.75167 0.47466 0.0
C885 C 0.48787 0.72154 0.47081 0.0
N886 N 0.61777 0.70401 0.47152 0.0
N887 N 0.51801 0.70135 0.46678 0.0
H888 H 0.81684 0.03719 0.73595 0.0
H889 H 0.61728 0.11315 0.71703 0.0
H890 H 0.72728 0.97077 0.71441 0.0
H891 H 0.70838 0.17928 0.73631 0.0
H892 H 0.6585 0.06216 0.7113 0.0
H893 H 0.77957 0.09105 0.7305 0.0
C894 C 0.78954 0.03398 0.72966 0.0
C895 C 0.77499 0.99939 0.72596 0.0
C896 C 0.66951 0.08795 0.71656 0.0
C897 C 0.73187 0.06094 0.72008 0.0
C898 C 0.64593 0.11701 0.72 0.0
C899 C 0.65928 0.15049 0.72741 0.0
C900 C 0.70671 0.0923 0.7207 0.0
C901 C 0.69682 0.1541 0.73051 0.0
C902 C 0.76819 0.06476 0.72662 0.0
C903 C 0.73956 0.99689 0.71761 0.0
N904 N 0.71912 0.12528 0.72736 0.0
N905 N 0.71898 0.02723 0.71533 0.0
H906 H 0.12992 0.35329 0.3114 0.0
H907 H 0.01519 0.20963 0.24474 0.0
H908 H 0.17054 0.29827 0.25354 0.0
H909 H 0.98964 0.23722 0.31223 0.0
H910 H 0.07366 0.2399 0.24856 0.0
H911 H 0.07936 0.3103 0.31295 0.0
C912 C 0.12828 0.33209 0.29908 0.0
C913 C 0.15429 0.32959 0.28217 0.0
C914 C 0.05571 0.2388 0.26273 0.0
C915 C 0.09665 0.28031 0.28387 0.0
C916 C 0.02242 0.22143 0.26056 0.0
C917 C 0.99789 0.22087 0.27825 0.0
C918 C 0.06414 0.2567 0.28256 0.0
C919 C 0.00815 0.23681 0.29833 0.0
C920 C 0.09961 0.30737 0.30009 0.0
C921 C 0.15121 0.30117 0.26688 0.0
N922 N 0.04035 0.25473 0.29985 0.0
N923 N 0.12268 0.27796 0.26793 0.0
H924 H 0.29585 0.82224 0.73967 0.0
H925 H 0.26603 0.03401 0.72048 0.0
H926 H 0.37524 0.89187 0.7088 0.0
H927 H 0.20013 0.96649 0.7627 0.0
H928 H 0.29792 0.97964 0.70746 0.0
H929 H 0.25283 0.87211 0.73947 0.0
C930 C 0.30415 0.8478 0.73249 0.0
C931 C 0.33954 0.85292 0.72454 0.0
C932 C 0.27598 0.97674 0.71924 0.0
C933 C 0.2903 0.91054 0.72463 0.0
C934 C 0.25763 0.00767 0.72654 0.0
C935 C 0.23095 0.00465 0.74299 0.0
C936 C 0.26717 0.94277 0.72833 0.0
C937 C 0.22103 0.96999 0.7503 0.0
C938 C 0.27953 0.8764 0.7325 0.0
C939 C 0.34859 0.88692 0.7156 0.0
N940 N 0.23942 0.94045 0.74312 0.0
N941 N 0.32425 0.91459 0.71612 0.0
H942 H 0.01 0.76541 0.30141 0.0
H943 H 0.82747 0.70335 0.24058 0.0
H944 H 0.98984 0.78088 0.23173 0.0
H945 H 0.8681 0.65007 0.29908 0.0
H946 H 0.88002 0.74389 0.24119 0.0
H947 H 0.95083 0.73495 0.30475 0.0
C948 C 0.99277 0.76311 0.28697 0.0
C949 C 0.00472 0.77546 0.26625 0.0
C950 C 0.87727 0.72348 0.25399 0.0
C951 C 0.93752 0.74099 0.26993 0.0
C952 C 0.84724 0.7005 0.2537 0.0
C953 C 0.84365 0.67313 0.26968 0.0
C954 C 0.90366 0.71942 0.27054 0.0
C955 C 0.87021 0.67045 0.28625 0.0
C956 C 0.95926 0.74551 0.28883 0.0
C957 C 0.98164 0.77149 0.24797 0.0
N958 N 0.89916 0.69329 0.28626 0.0
N959 N 0.9492 0.75457 0.25022 0.0
H960 H 0.47615 0.11341 -0.00125 0.0
H961 H 0.54647 0.91442 0.96805 0.0
H962 H 0.40632 0.02411 0.98104 0.0
H963 H 0.61619 0.99637 0.99599 0.0
H964 H 0.49601 0.95668 0.96956 0.0
H965 H 0.52858 0.07331 0.99496 0.0
C966 C 0.47168 0.08549 0.99408 0.0
C967 C 0.43643 0.07235 0.99024 0.0
C968 C 0.52232 0.96553 0.97535 0.0
C969 C 0.49667 0.02631 0.98564 0.0
C970 C 0.55125 0.94126 0.9746 0.0
C971 C 0.58575 0.95155 0.98216 0.0
C972 C 0.52764 1.00062 0.98368 0.0
C973 C 0.59021 0.98721 0.9899 0.0
C974 C 0.50174 0.06262 0.99184 0.0
C975 C 0.43271 0.03588 0.9839 0.0
N976 N 0.56146 0.0104 0.99056 0.0
N977 N 0.46235 0.01427 0.98185 0.0
H978 H 0.01599 0.60513 0.01913 0.0
H979 H 0.99538 0.38997 0.00463 0.0
H980 H 0.1026 0.53525 0.99705 0.0
H981 H 0.90595 0.46158 0.01874 0.0
H982 H 0.03632 0.44229 0.00482 0.0
H983 H 0.97602 0.55247 0.02118 0.0
C984 C 0.02664 0.57886 0.01459 0.0
C985 C 0.06291 0.57481 0.00796 0.0
C986 C 0.00774 0.44652 0.00795 0.0
C987 C 0.01725 0.51412 0.01058 0.0
C988 C 0.98445 0.41662 0.00802 0.0
C989 C 0.94717 0.42143 0.01151 0.0
C990 C 0.99368 0.48148 0.01154 0.0
C991 C 0.93439 0.45668 0.0156 0.0
C992 C 0.00381 0.54869 0.01591 0.0
C993 C 0.07512 0.53978 0.00259 0.0
N994 N 0.95755 0.4853 0.01545 0.0
N995 N 0.0524 0.51088 0.00403 0.0
H996 H 0.60092 0.52104 0.24607 0.0
H997 H 0.38559 0.49527 0.2504 0.0
H998 H 0.52685 0.61073 0.25405 0.0
H999 H 0.46275 0.40745 0.25366 0.0
H1000 H 0.43611 0.53841 0.25047 0.0
H1001 H 0.54987 0.47948 0.24721 0.0
C1002 C 0.57403 0.53214 0.24823 0.0
C1003 C 0.56849 0.56969 0.25011 0.0
C1004 C 0.44187 0.50966 0.25119 0.0
C1005 C 0.50935 0.5218 0.25108 0.0
C1006 C 0.41301 0.48498 0.25126 0.0
C1007 C 0.41972 0.44748 0.25187 0.0
C1008 C 0.47772 0.49678 0.25166 0.0
C1009 C 0.456 0.4359 0.25272 0.0
C1010 C 0.54473 0.50826 0.24877 0.0
C1011 C 0.53261 0.58215 0.25235 0.0
N1012 N 0.48348 0.46038 0.25253 0.0
N1013 N 0.50445 0.5583 0.25277 0.0
H1014 H 0.51721 0.39783 0.73949 0.0
H1015 H 0.49733 0.61304 0.7318 0.0
H1016 H 0.60891 0.46949 0.73182 0.0
H1017 H 0.40707 0.53876 0.73332 0.0
H1018 H 0.53882 0.56136 0.72997 0.0
H1019 H 0.47683 0.4494 0.73584 0.0
C1020 C 0.529 0.42429 0.73679 0.0
C1021 C 0.56675 0.42907 0.73591 0.0
C1022 C 0.50992 0.55641 0.73053 0.0
C1023 C 0.52019 0.48883 0.7321 0.0
C1024 C 0.48617 0.58593 0.73141 0.0
C1025 C 0.4486 0.58026 0.7329 0.0
C1026 C 0.49599 0.52098 0.73117 0.0
C1027 C 0.4358 0.54445 0.73261 0.0
C1028 C 0.50578 0.4539 0.73483 0.0
C1029 C 0.5801 0.46442 0.73286 0.0
N1030 N 0.45941 0.51625 0.73192 0.0
N1031 N 0.55686 0.49295 0.73114 0.0
H1032 H 0.96027 0.59909 0.50395 0.0
H1033 H 0.0465 0.41403 0.45903 0.0
H1034 H 0.90476 0.52479 0.46051 0.0
H1035 H 0.10209 0.48569 0.50408 0.0
H1036 H 0.99531 0.45565 0.45844 0.0
H1037 H 0.01355 0.55968 0.50298 0.0
C1038 C 0.95932 0.57467 0.49408 0.0
C1039 C 0.92781 0.56523 0.48238 0.0
C1040 C 0.01871 0.46236 0.46845 0.0
C1041 C 0.98869 0.51976 0.48135 0.0
C1042 C 0.04796 0.43843 0.4689 0.0
C1043 C 0.07869 0.44614 0.48176 0.0
C1044 C 0.01998 0.49437 0.48097 0.0
C1045 C 0.07914 0.47871 0.4938 0.0
C1046 C 0.98971 0.55205 0.49364 0.0
C1047 C 0.92812 0.53294 0.47009 0.0
N1048 N 0.05019 0.50154 0.49318 0.0
N1049 N 0.958 0.51142 0.46993 0.0
H1050 H 0.50303 0.10221 0.50873 0.0
H1051 H 0.47156 0.88935 0.5268 0.0
H1052 H 0.58941 0.02729 0.52331 0.0
H1053 H 0.4005 0.9562 0.48757 0.0
H1054 H 0.50951 0.94261 0.53421 0.0
H1055 H 0.4598 0.05161 0.50943 0.0
C1056 C 0.51275 0.07521 0.51248 0.0
C1057 C 0.54983 0.0688 0.51583 0.0
C1058 C 0.48534 0.94567 0.52422 0.0
C1059 C 0.50072 0.01098 0.51669 0.0
C1060 C 0.46355 0.9154 0.52015 0.0
C1061 C 0.43296 0.91845 0.50649 0.0
C1062 C 0.47617 0.97929 0.5148 0.0
C1063 C 0.42406 0.95275 0.49802 0.0
C1064 C 0.48817 0.04636 0.51272 0.0
C1065 C 0.5611 0.03323 0.52038 0.0
N1066 N 0.44559 0.98183 0.50226 0.0
N1067 N 0.53667 0.00564 0.52065 0.0
H1068 H 0.89931 0.97407 0.77159 0.0
H1069 H 0.10691 0.01881 0.74453 0.0
H1070 H 0.96808 0.90631 0.73141 0.0
H1071 H 0.03447 0.09503 0.77576 0.0
H1072 H 0.05805 0.9745 0.74337 0.0
H1073 H 0.95033 0.01534 0.77748 0.0
C1074 C 0.92533 0.96749 0.76437 0.0
C1075 C 0.9295 0.9367 0.75096 0.0
C1076 C 0.0528 1.00087 0.75054 0.0
C1077 C 0.98778 0.98411 0.75731 0.0
C1078 C 0.0808 0.02618 0.75132 0.0
C1079 C 0.07485 0.06076 0.76031 0.0
C1080 C 0.01846 0.01002 0.75883 0.0
C1081 C 0.04016 0.06887 0.76848 0.0
C1082 C 0.95434 0.99127 0.76754 0.0
C1083 C 0.96368 0.9299 0.74169 0.0
N1084 N 0.01326 0.04368 0.76757 0.0
N1085 N 0.99144 0.95345 0.74496 0.0
H1086 H 0.98618 0.1067 0.22567 0.0
H1087 H 0.01792 0.89753 0.25651 0.0
H1088 H 0.90923 0.04218 0.26235 0.0
H1089 H 0.09244 0.96142 0.21759 0.0
H1090 H 0.97762 0.95008 0.25891 0.0
H1091 H 0.02605 0.05397 0.22322 0.0
C1092 C 0.97772 0.08157 0.23333 0.0
C1093 C 0.94416 0.07895 0.24416 0.0
C1094 C 0.00282 0.95255 0.24984 0.0
C1095 C 0.98961 0.01821 0.24125 0.0
C1096 C 0.02574 0.92246 0.24836 0.0
C1097 C 0.0588 0.92497 0.23693 0.0
C1098 C 0.01296 0.98544 0.23981 0.0
C1099 C 0.06764 0.95823 0.22691 0.0
C1100 C 1.00042 0.05134 0.2318 0.0
C1101 C 0.93454 0.0454 0.25354 0.0
N1102 N 0.04493 0.98707 0.22861 0.0
N1103 N 0.95711 0.01641 0.25187 0.0
H1104 H 0.24718 0.24899 0.19079 0.0
H1105 H 0.30297 0.25074 0.06338 0.0
H1106 H 0.27565 0.34648 0.15534 0.0
H1107 H 0.2459 0.16123 0.09362 0.0
H1108 H 0.29557 0.2853 0.09741 0.0
H1109 H 0.24885 0.21534 0.15588 0.0
C1110 C 0.25362 0.26332 0.17563 0.0
C1111 C 0.2614 0.30055 0.17595 0.0
C1112 C 0.28451 0.25816 0.09656 0.0
C1113 C 0.26359 0.26224 0.13603 0.0
C1114 C 0.28855 0.23838 0.07705 0.0
C1115 C 0.27493 0.2029 0.07548 0.0
C1116 C 0.26707 0.24234 0.11481 0.0
C1117 C 0.25733 0.18822 0.09409 0.0
C1118 C 0.25444 0.24414 0.15572 0.0
C1119 C 0.26921 0.31786 0.15581 0.0
N1120 N 0.25404 0.20793 0.11299 0.0
N1121 N 0.27044 0.2985 0.1367 0.0
H1122 H 0.31911 0.67123 0.83335 0.0
H1123 H 0.17659 0.77761 0.90805 0.0
H1124 H 0.26239 0.76573 0.80952 0.0
H1125 H 0.20942 0.66702 0.92034 0.0
H1126 H 0.20922 0.77588 0.87274 0.0
H1127 H 0.28123 0.67149 0.86649 0.0
C1128 C 0.29859 0.69204 0.83513 0.0
C1129 C 0.29395 0.7186 0.81876 0.0
C1130 C 0.20907 0.752 0.88317 0.0
C1131 C 0.2505 0.71918 0.8567 0.0
C1132 C 0.19033 0.75288 0.90331 0.0
C1133 C 0.19048 0.72253 0.91741 0.0
C1134 C 0.22833 0.72067 0.87717 0.0
C1135 C 0.2092 0.69142 0.91038 0.0
C1136 C 0.27686 0.69209 0.85398 0.0
C1137 C 0.26669 0.74469 0.82175 0.0
N1138 N 0.22751 0.69141 0.8909 0.0
N1139 N 0.24615 0.74456 0.84049 0.0
H1140 H 0.74348 0.75194 0.05206 0.0
H1141 H 0.68644 0.75121 0.17961 0.0
H1142 H 0.7115 0.84809 0.08764 0.0
H1143 H 0.74847 0.66474 0.14982 0.0
H1144 H 0.69052 0.7851 0.14506 0.0
H1145 H 0.74031 0.71738 0.08672 0.0
C1146 C 0.73571 0.76573 0.06716 0.0
C1147 C 0.72777 0.80295 0.06699 0.0
C1148 C 0.70331 0.75874 0.14611 0.0
C1149 C 0.724 0.76363 0.1066 0.0
C1150 C 0.7012 0.73938 0.16592 0.0
C1151 C 0.71736 0.70501 0.16783 0.0
C1152 C 0.72137 0.74362 0.12788 0.0
C1153 C 0.7352 0.69087 0.14915 0.0
C1154 C 0.7341 0.74606 0.08692 0.0
C1155 C 0.71819 0.81953 0.08706 0.0
N1156 N 0.73667 0.71019 0.12997 0.0
N1157 N 0.71639 0.79974 0.10601 0.0
H1158 H 0.68022 0.33707 0.84069 0.0
H1159 H 0.81883 0.2238 0.91587 0.0
H1160 H 0.7255 0.23397 0.82134 0.0
H1161 H 0.77262 0.32648 0.93521 0.0
H1162 H 0.78463 0.22676 0.88127 0.0
H1163 H 0.71342 0.33328 0.87556 0.0
C1164 C 0.69699 0.31352 0.8438 0.0
C1165 C 0.69996 0.28575 0.82803 0.0
C1166 C 0.7819 0.24861 0.8931 0.0
C1167 C 0.73843 0.2814 0.86794 0.0
C1168 C 0.80155 0.24701 0.91284 0.0
C1169 C 0.79868 0.27497 0.9285 0.0
C1170 C 0.75922 0.27842 0.88892 0.0
C1171 C 0.77538 0.30409 0.92378 0.0
C1172 C 0.71611 0.31146 0.8637 0.0
C1173 C 0.72268 0.25622 0.83287 0.0
N1174 N 0.75667 0.30509 0.90441 0.0
N1175 N 0.74098 0.25481 0.85239 0.0
H1176 H 0.72289 0.70374 0.56723 0.0
H1177 H 0.8335 0.77139 0.67325 0.0
H1178 H 0.83224 0.6701 0.5821 0.0
H1179 H 0.72059 0.79626 0.66217 0.0
H1180 H 0.83325 0.73366 0.64016 0.0
H1181 H 0.72143 0.73783 0.60189 0.0
C1182 C 0.74662 0.70357 0.57778 0.0
C1183 C 0.77779 0.68412 0.5717 0.0
C1184 C 0.80847 0.74723 0.645 0.0
C1185 C 0.77624 0.72295 0.61149 0.0
C1186 C 0.8085 0.76863 0.66402 0.0
C1187 C 0.77699 0.7871 0.67059 0.0
C1188 C 0.77675 0.74431 0.6323 0.0
C1189 C 0.74566 0.78299 0.65762 0.0
C1190 C 0.7457 0.72287 0.59763 0.0
C1191 C 0.80752 0.68441 0.58619 0.0
N1192 N 0.74638 0.76214 0.63908 0.0
N1193 N 0.80607 0.70366 0.60534 0.0
H1194 H 0.85338 0.20763 0.35052 0.0
H1195 H 0.66822 0.25433 0.41286 0.0
H1196 H 0.75879 0.24922 0.31712 0.0
H1197 H 0.74794 0.1806 0.43965 0.0
H1198 H 0.7046 0.25996 0.37934 0.0
H1199 H 0.81874 0.20531 0.38515 0.0
C1200 C 0.82541 0.21656 0.35054 0.0
C1201 C 0.80885 0.22852 0.33093 0.0
C1202 C 0.7141 0.24256 0.39257 0.0
C1203 C 0.76918 0.22594 0.37039 0.0
C1204 C 0.69323 0.23911 0.41171 0.0
C1205 C 0.7047 0.2166 0.42915 0.0
C1206 C 0.747 0.22372 0.39083 0.0
C1207 C 0.73804 0.19851 0.42681 0.0
C1208 C 0.80563 0.215 0.37024 0.0
C1209 C 0.77246 0.23946 0.33182 0.0
N1210 N 0.75797 0.20245 0.40801 0.0
N1211 N 0.75386 0.23799 0.35123 0.0
H1212 H 0.2629 0.22991 0.6826 0.0
H1213 H 0.15914 0.28637 0.5715 0.0
H1214 H 0.16047 0.18383 0.6628 0.0
H1215 H 0.26952 0.31727 0.58588 0.0
H1216 H 0.15793 0.25082 0.6056 0.0
H1217 H 0.26432 0.26482 0.64819 0.0
C1218 C 0.24061 0.22727 0.67105 0.0
C1219 C 0.21149 0.20395 0.6756 0.0
C1220 C 0.18243 0.26535 0.60128 0.0
C1221 C 0.21303 0.24372 0.6361 0.0
C1222 C 0.18323 0.28554 0.58172 0.0
C1223 C 0.2145 0.30495 0.57571 0.0
C1224 C 0.21303 0.26461 0.61507 0.0
C1225 C 0.2446 0.3033 0.58993 0.0
C1226 C 0.24155 0.24704 0.65134 0.0
C1227 C 0.18362 0.2012 0.65987 0.0
N1228 N 0.24309 0.28356 0.60892 0.0
N1229 N 0.18501 0.22095 0.64087 0.0
H1230 H 0.27798 0.71087 0.42231 0.0
H1231 H 0.18755 0.83228 0.32759 0.0
H1232 H 0.27267 0.82765 0.42437 0.0
H1233 H 0.18 0.71562 0.32892 0.0
H1234 H 0.21809 0.83078 0.36339 0.0
H1235 H 0.24142 0.71159 0.3885 0.0
C1236 C 0.26904 0.73665 0.41568 0.0
C1237 C 0.27853 0.76927 0.42615 0.0
C1238 C 0.20963 0.80547 0.35595 0.0
C1239 C 0.23666 0.77028 0.38749 0.0
C1240 C 0.19236 0.80631 0.33544 0.0
C1241 C 0.18147 0.77401 0.32518 0.0
C1242 C 0.21638 0.77204 0.36629 0.0
C1243 C 0.18782 0.74117 0.33629 0.0
C1244 C 0.24803 0.73703 0.39645 0.0
C1245 C 0.26576 0.80184 0.417 0.0
N1246 N 0.20513 0.741 0.35618 0.0
N1247 N 0.24574 0.80152 0.39814 0.0
loop_
_geom_bond_atom_site_label_1
_geom_bond_atom_site_label_2
_geom_bond_distance
_geom_bond_site_symmetry_2
_ccdc_geom_bond_type
Co0 N4 2.148 . S
Co0 N10 2.128 . S
Co0 N20 2.194 1_556 S
Co0 O25 2.351 . S
Co0 O26 2.155 . S
Co0 O27 2.096 . S
C1 N4 1.301 . S
C1 N5 1.328 . S
C1 H6 0.930 . S
C2 C3 1.333 . S
C2 N4 1.317 . S
C2 H7 0.939 . S
C3 C2 1.333 . S
C3 N5 1.350 . S
C3 H29 0.931 . S
N4 Co0 2.148 . S
N4 C1 1.301 . S
N4 C2 1.317 . S
N5 C1 1.328 . S
N5 C3 1.350 . S
H6 C1 0.930 . S
H7 C2 0.939 . S
C8 O9 1.224 . S
C8 O27 1.247 1_554 S
O9 C8 1.224 . S
N10 Co0 2.128 . S
N10 C11 1.355 . S
N10 C13 1.311 . S
C11 N10 1.355 . S
C11 C12 1.363 . S
C11 H23 0.929 . S
C12 C11 1.363 . S
C12 N14 1.375 . S
C12 H30 0.930 1_556 S
C13 N10 1.311 . S
C13 N14 1.347 . S
C13 H24 0.929 . S
N14 C12 1.375 . S
N14 C13 1.347 . S
C15 C18 1.365 . S
C15 N20 1.328 . S
C15 H21 0.929 . S
C16 C17 1.362 . S
C16 C19 1.378 . S
C16 H31 0.929 . S
C17 C16 1.362 . S
C17 C18 1.366 . S
C18 C15 1.365 . S
C18 C17 1.366 . S
C18 H32 0.930 . S
C19 C16 1.378 . S
C19 N20 1.315 . S
C19 H22 0.930 . S
N20 Co0 2.194 1_554 S
N20 C15 1.328 . S
N20 C19 1.315 . S
H21 C15 0.929 . S
H22 C19 0.930 . S
H23 C11 0.929 . S
H24 C13 0.929 . S
O25 Co0 2.351 . S
O25 C28 1.244 . S
O26 Co0 2.155 . S
O26 C28 1.240 . S
O27 Co0 2.096 . S
O27 C8 1.247 1_556 S
C28 O25 1.244 . S
C28 O26 1.240 . S
H29 C3 0.931 . S
H30 C12 0.930 1_554 S
H31 C16 0.929 . S
H32 C18 0.930 . S
Co33 N37 2.148 . S
Co33 N43 2.128 . S
Co33 N53 2.194 1_554 S
Co33 O58 2.351 . S
Co33 O59 2.155 . S
Co33 O60 2.096 . S
C34 N37 1.301 . S
C34 N38 1.328 . S
C34 H39 0.930 . S
C35 C36 1.333 . S
C35 N37 1.317 . S
C35 H40 0.939 . S
C36 C35 1.333 . S
C36 N38 1.350 . S
C36 H62 0.931 . S
N37 Co33 2.148 . S
N37 C34 1.301 . S
N37 C35 1.317 . S
N38 C34 1.328 . S
N38 C36 1.350 . S
H39 C34 0.930 . S
H40 C35 0.939 . S
C41 O42 1.224 . S
C41 O60 1.247 1_556 S
O42 C41 1.224 . S
N43 Co33 2.128 . S
N43 C44 1.355 . S
N43 C46 1.311 . S
C44 N43 1.355 . S
C44 C45 1.363 . S
C44 H56 0.929 . S
C45 C44 1.363 . S
C45 N47 1.375 . S
C45 H63 0.930 1_554 S
C46 N43 1.311 . S
C46 N47 1.347 . S
C46 H57 0.929 . S
N47 C45 1.375 . S
N47 C46 1.347 . S
C48 C51 1.365 . S
C48 N53 1.328 . S
C48 H54 0.929 . S
C49 C50 1.362 . S
C49 C52 1.378 . S
C49 H64 0.929 . S
C50 C49 1.362 . S
C50 C51 1.366 . S
C51 C48 1.365 . S
C51 C50 1.366 . S
C51 H65 0.930 . S
C52 C49 1.378 . S
C52 N53 1.315 . S
C52 H55 0.930 . S
N53 Co33 2.194 1_556 S
N53 C48 1.328 . S
N53 C52 1.315 . S
H54 C48 0.929 . S
H55 C52 0.930 . S
H56 C44 0.929 . S
H57 C46 0.929 . S
O58 Co33 2.351 . S
O58 C61 1.244 . S
O59 Co33 2.155 . S
O59 C61 1.240 . S
O60 Co33 2.096 . S
O60 C41 1.247 1_554 S
C61 O58 1.244 . S
C61 O59 1.240 . S
H62 C36 0.931 . S
H63 C45 0.930 1_556 S
H64 C49 0.929 . S
H65 C51 0.930 . S
Co66 N70 2.148 . S
Co66 N76 2.128 . S
Co66 N86 2.194 1_556 S
Co66 O91 2.351 . S
Co66 O92 2.155 . S
Co66 O93 2.096 . S
C67 N70 1.301 . S
C67 N71 1.328 . S
C67 H72 0.930 . S
C68 C69 1.333 . S
C68 N70 1.317 . S
C68 H73 0.939 . S
C69 C68 1.333 . S
C69 N71 1.350 . S
C69 H95 0.931 . S
N70 Co66 2.148 . S
N70 C67 1.301 . S
N70 C68 1.317 . S
N71 C67 1.328 . S
N71 C69 1.350 . S
H72 C67 0.930 . S
H73 C68 0.939 . S
C74 O75 1.224 . S
C74 O93 1.247 1_554 S
O75 C74 1.224 . S
N76 Co66 2.128 . S
N76 C77 1.355 . S
N76 C79 1.311 . S
C77 N76 1.355 . S
C77 C78 1.363 . S
C77 H89 0.929 . S
C78 C77 1.363 . S
C78 N80 1.375 . S
C78 H96 0.930 1_556 S
C79 N76 1.311 . S
C79 N80 1.347 . S
C79 H90 0.929 . S
N80 C78 1.375 . S
N80 C79 1.347 . S
C81 C84 1.365 . S
C81 N86 1.328 . S
C81 H87 0.929 . S
C82 C83 1.362 . S
C82 C85 1.378 . S
C82 H97 0.929 . S
C83 C82 1.362 . S
C83 C84 1.366 . S
C84 C81 1.365 . S
C84 C83 1.366 . S
C84 H98 0.930 . S
C85 C82 1.378 . S
C85 N86 1.315 . S
C85 H88 0.930 . S
N86 Co66 2.194 1_554 S
N86 C81 1.328 . S
N86 C85 1.315 . S
H87 C81 0.929 . S
H88 C85 0.930 . S
H89 C77 0.929 . S
H90 C79 0.929 . S
O91 Co66 2.351 . S
O91 C94 1.244 . S
O92 Co66 2.155 . S
O92 C94 1.240 . S
O93 Co66 2.096 . S
O93 C74 1.247 1_556 S
C94 O91 1.244 . S
C94 O92 1.240 . S
H95 C69 0.931 . S
H96 C78 0.930 1_554 S
H97 C82 0.929 . S
H98 C84 0.930 . S
Co99 N103 2.148 . S
Co99 N109 2.128 . S
Co99 N119 2.194 1_554 S
Co99 O124 2.351 . S
Co99 O125 2.155 . S
Co99 O126 2.096 . S
C100 N103 1.301 . S
C100 N104 1.328 . S
C100 H105 0.930 . S
C101 C102 1.333 . S
C101 N103 1.317 . S
C101 H106 0.939 . S
C102 C101 1.333 . S
C102 N104 1.350 . S
C102 H128 0.931 . S
N103 Co99 2.148 . S
N103 C100 1.301 . S
N103 C101 1.317 . S
N104 C100 1.328 . S
N104 C102 1.350 . S
H105 C100 0.930 . S
H106 C101 0.939 . S
C107 O108 1.224 . S
C107 O126 1.247 1_556 S
O108 C107 1.224 . S
N109 Co99 2.128 . S
N109 C110 1.355 . S
N109 C112 1.311 . S
C110 N109 1.355 . S
C110 C111 1.363 . S
C110 H122 0.929 . S
C111 C110 1.363 . S
C111 N113 1.375 . S
C111 H129 0.930 1_554 S
C112 N109 1.311 . S
C112 N113 1.347 . S
C112 H123 0.929 . S
N113 C111 1.375 . S
N113 C112 1.347 . S
C114 C117 1.365 . S
C114 N119 1.328 . S
C114 H120 0.929 . S
C115 C116 1.362 . S
C115 C118 1.378 . S
C115 H130 0.929 . S
C116 C115 1.362 . S
C116 C117 1.366 . S
C117 C114 1.365 . S
C117 C116 1.366 . S
C117 H131 0.930 . S
C118 C115 1.378 . S
C118 N119 1.315 . S
C118 H121 0.930 . S
N119 Co99 2.194 1_556 S
N119 C114 1.328 . S
N119 C118 1.315 . S
H120 C114 0.929 . S
H121 C118 0.930 . S
H122 C110 0.929 . S
H123 C112 0.929 . S
O124 Co99 2.351 . S
O124 C127 1.244 . S
O125 Co99 2.155 . S
O125 C127 1.240 . S
O126 Co99 2.096 . S
O126 C107 1.247 1_554 S
C127 O124 1.244 . S
C127 O125 1.240 . S
H128 C102 0.931 . S
H129 C111 0.930 1_556 S
H130 C115 0.929 . S
H131 C117 0.930 . S
Co132 N136 2.148 . S
Co132 N142 2.128 . S
Co132 N152 2.194 . S
Co132 O157 2.351 . S
Co132 O158 2.155 . S
Co132 O159 2.096 . S
C133 N136 1.301 . S
C133 N137 1.328 . S
C133 H138 0.930 . S
C134 C135 1.333 . S
C134 N136 1.317 . S
C134 H139 0.930 . S
C135 C134 1.333 . S
C135 N137 1.350 . S
C135 H161 0.931 . S
N136 Co132 2.148 . S
N136 C133 1.301 . S
N136 C134 1.317 . S
N137 C133 1.328 . S
N137 C135 1.350 . S
H138 C133 0.930 . S
H139 C134 0.930 . S
C140 O141 1.224 . S
C140 O159 1.247 . S
O141 C140 1.224 . S
N142 Co132 2.128 . S
N142 C143 1.355 . S
N142 C145 1.311 . S
C143 N142 1.355 . S
C143 C144 1.363 . S
C143 H155 0.929 . S
C144 C143 1.363 . S
C144 N146 1.375 . S
C144 H162 0.931 . S
C145 N142 1.311 . S
C145 N146 1.347 . S
C145 H156 0.929 . S
N146 C144 1.375 . S
N146 C145 1.347 . S
C147 C150 1.365 . S
C147 N152 1.328 . S
C147 H153 0.929 . S
C148 C149 1.362 . S
C148 C151 1.378 . S
C148 H163 0.929 . S
C149 C148 1.362 . S
C149 C150 1.366 . S
C150 C147 1.365 . S
C150 C149 1.366 . S
C150 H164 0.930 . S
C151 C148 1.378 . S
C151 N152 1.315 . S
C151 H154 0.930 . S
N152 Co132 2.194 . S
N152 C147 1.328 . S
N152 C151 1.315 . S
H153 C147 0.929 . S
H154 C151 0.930 . S
H155 C143 0.929 . S
H156 C145 0.929 . S
O157 Co132 2.351 . S
O157 C160 1.244 . S
O158 Co132 2.155 . S
O158 C160 1.240 . S
O159 Co132 2.096 . S
O159 C140 1.247 . S
C160 O157 1.244 . S
C160 O158 1.240 . S
H161 C135 0.931 . S
H162 C144 0.931 . S
H163 C148 0.929 . S
H164 C150 0.930 . S
Co165 N169 2.148 . S
Co165 N175 2.128 . S
Co165 N185 2.194 . S
Co165 O190 2.351 . S
Co165 O191 2.155 . S
Co165 O192 2.096 . S
C166 N169 1.301 . S
C166 N170 1.328 . S
C166 H171 0.930 . S
C167 C168 1.333 . S
C167 N169 1.317 . S
C167 H172 0.930 . S
C168 C167 1.333 . S
C168 N170 1.350 . S
C168 H194 0.931 . S
N169 Co165 2.148 . S
N169 C166 1.301 . S
N169 C167 1.317 . S
N170 C166 1.328 . S
N170 C168 1.350 . S
H171 C166 0.930 . S
H172 C167 0.930 . S
C173 O174 1.224 . S
C173 O192 1.247 . S
O174 C173 1.224 . S
N175 Co165 2.128 . S
N175 C176 1.355 . S
N175 C178 1.311 . S
C176 N175 1.355 . S
C176 C177 1.363 . S
C176 H188 0.929 . S
C177 C176 1.363 . S
C177 N179 1.375 . S
C177 H195 0.931 . S
C178 N175 1.311 . S
C178 N179 1.347 . S
C178 H189 0.929 . S
N179 C177 1.375 . S
N179 C178 1.347 . S
C180 C183 1.365 . S
C180 N185 1.328 . S
C180 H186 0.929 . S
C181 C182 1.362 . S
C181 C184 1.378 . S
C181 H196 0.929 . S
C182 C181 1.362 . S
C182 C183 1.366 . S
C183 C180 1.365 . S
C183 C182 1.366 . S
C183 H197 0.930 . S
C184 C181 1.378 . S
C184 N185 1.315 . S
C184 H187 0.930 . S
N185 Co165 2.194 . S
N185 C180 1.328 . S
N185 C184 1.315 . S
H186 C180 0.929 . S
H187 C184 0.930 . S
H188 C176 0.929 . S
H189 C178 0.929 . S
O190 Co165 2.351 . S
O190 C193 1.244 . S
O191 Co165 2.155 . S
O191 C193 1.240 . S
O192 Co165 2.096 . S
O192 C173 1.247 . S
C193 O190 1.244 . S
C193 O191 1.240 . S
H194 C168 0.931 . S
H195 C177 0.931 . S
H196 C181 0.929 . S
H197 C183 0.930 . S
Co198 N202 2.148 . S
Co198 N208 2.128 . S
Co198 N218 2.194 . S
Co198 O223 2.351 . S
Co198 O224 2.155 . S
Co198 O225 2.096 . S
C199 N202 1.301 . S
C199 N203 1.328 . S
C199 H204 0.930 . S
C200 C201 1.333 . S
C200 N202 1.317 . S
C200 H205 0.930 . S
C201 C200 1.333 . S
C201 N203 1.350 . S
C201 H227 0.931 . S
N202 Co198 2.148 . S
N202 C199 1.301 . S
N202 C200 1.317 . S
N203 C199 1.328 . S
N203 C201 1.350 . S
H204 C199 0.930 . S
H205 C200 0.930 . S
C206 O207 1.224 . S
C206 O225 1.247 . S
O207 C206 1.224 . S
N208 Co198 2.128 . S
N208 C209 1.355 . S
N208 C211 1.311 . S
C209 N208 1.355 . S
C209 C210 1.363 . S
C209 H221 0.929 . S
C210 C209 1.363 . S
C210 N212 1.375 . S
C210 H228 0.931 . S
C211 N208 1.311 . S
C211 N212 1.347 . S
C211 H222 0.929 . S
N212 C210 1.375 . S
N212 C211 1.347 . S
C213 C216 1.365 . S
C213 N218 1.328 . S
C213 H219 0.929 . S
C214 C215 1.362 . S
C214 C217 1.378 . S
C214 H229 0.929 . S
C215 C214 1.362 . S
C215 C216 1.366 . S
C216 C213 1.365 . S
C216 C215 1.366 . S
C216 H230 0.930 . S
C217 C214 1.378 . S
C217 N218 1.315 . S
C217 H220 0.930 . S
N218 Co198 2.194 . S
N218 C213 1.328 . S
N218 C217 1.315 . S
H219 C213 0.929 . S
H220 C217 0.930 . S
H221 C209 0.929 . S
H222 C211 0.929 . S
O223 Co198 2.351 . S
O223 C226 1.244 . S
O224 Co198 2.155 . S
O224 C226 1.240 . S
O225 Co198 2.096 . S
O225 C206 1.247 . S
C226 O223 1.244 . S
C226 O224 1.240 . S
H227 C201 0.931 . S
H228 C210 0.931 . S
H229 C214 0.929 . S
H230 C216 0.930 . S
Co231 N235 2.148 . S
Co231 N241 2.128 . S
Co231 N251 2.194 . S
Co231 O256 2.351 . S
Co231 O257 2.155 . S
Co231 O258 2.096 . S
C232 N235 1.301 . S
C232 N236 1.328 . S
C232 H237 0.930 . S
C233 C234 1.333 . S
C233 N235 1.317 . S
C233 H238 0.930 . S
C234 C233 1.333 . S
C234 N236 1.350 . S
C234 H260 0.931 . S
N235 Co231 2.148 . S
N235 C232 1.301 . S
N235 C233 1.317 . S
N236 C232 1.328 . S
N236 C234 1.350 . S
H237 C232 0.930 . S
H238 C233 0.930 . S
C239 O240 1.224 . S
C239 O258 1.247 . S
O240 C239 1.224 . S
N241 Co231 2.128 . S
N241 C242 1.355 . S
N241 C244 1.311 . S
C242 N241 1.355 . S
C242 C243 1.363 . S
C242 H254 0.929 . S
C243 C242 1.363 . S
C243 N245 1.375 . S
C243 H261 0.931 . S
C244 N241 1.311 . S
C244 N245 1.347 . S
C244 H255 0.929 . S
N245 C243 1.375 . S
N245 C244 1.347 . S
C246 C249 1.365 . S
C246 N251 1.328 . S
C246 H252 0.929 . S
C247 C248 1.362 . S
C247 C250 1.378 . S
C247 H262 0.929 . S
C248 C247 1.362 . S
C248 C249 1.366 . S
C249 C246 1.365 . S
C249 C248 1.366 . S
C249 H263 0.930 . S
C250 C247 1.378 . S
C250 N251 1.315 . S
C250 H253 0.930 . S
N251 Co231 2.194 . S
N251 C246 1.328 . S
N251 C250 1.315 . S
H252 C246 0.929 . S
H253 C250 0.930 . S
H254 C242 0.929 . S
H255 C244 0.929 . S
O256 Co231 2.351 . S
O256 C259 1.244 . S
O257 Co231 2.155 . S
O257 C259 1.240 . S
O258 Co231 2.096 . S
O258 C239 1.247 . S
C259 O256 1.244 . S
C259 O257 1.240 . S
H260 C234 0.931 . S
H261 C243 0.931 . S
H262 C247 0.929 . S
H263 C249 0.930 . S
Co264 N268 2.148 . S
Co264 N274 2.128 . S
Co264 N284 2.194 . S
Co264 O289 2.351 . S
Co264 O290 2.155 . S
Co264 O291 2.096 . S
C265 N268 1.301 . S
C265 N269 1.328 . S
C265 H270 0.930 . S
C266 C267 1.333 . S
C266 N268 1.317 . S
C266 H271 0.930 . S
C267 C266 1.333 . S
C267 N269 1.350 . S
C267 H293 0.931 . S
N268 Co264 2.148 . S
N268 C265 1.301 . S
N268 C266 1.317 . S
N269 C265 1.328 . S
N269 C267 1.350 . S
H270 C265 0.930 . S
H271 C266 0.930 . S
C272 O273 1.224 . S
C272 O291 1.247 . S
O273 C272 1.224 . S
N274 Co264 2.128 . S
N274 C275 1.355 . S
N274 C277 1.311 . S
C275 N274 1.355 . S
C275 C276 1.363 . S
C275 H287 0.929 . S
C276 C275 1.363 . S
C276 N278 1.375 . S
C276 H294 0.931 . S
C277 N274 1.311 . S
C277 N278 1.347 . S
C277 H288 0.929 . S
N278 C276 1.375 . S
N278 C277 1.347 . S
C279 C282 1.365 . S
C279 N284 1.328 . S
C279 H285 0.929 . S
C280 C281 1.362 . S
C280 C283 1.378 . S
C280 H295 0.929 . S
C281 C280 1.362 . S
C281 C282 1.366 . S
C282 C279 1.365 . S
C282 C281 1.366 . S
C282 H296 0.930 . S
C283 C280 1.378 . S
C283 N284 1.315 . S
C283 H286 0.930 . S
N284 Co264 2.194 . S
N284 C279 1.328 . S
N284 C283 1.315 . S
H285 C279 0.929 . S
H286 C283 0.930 . S
H287 C275 0.929 . S
H288 C277 0.929 . S
O289 Co264 2.351 . S
O289 C292 1.244 . S
O290 Co264 2.155 . S
O290 C292 1.240 . S
O291 Co264 2.096 . S
O291 C272 1.247 . S
C292 O289 1.244 . S
C292 O290 1.240 . S
H293 C267 0.931 . S
H294 C276 0.931 . S
H295 C280 0.929 . S
H296 C282 0.930 . S
Co297 N301 2.148 . S
Co297 N307 2.128 . S
Co297 N317 2.194 . S
Co297 O322 2.351 . S
Co297 O323 2.155 . S
Co297 O324 2.096 . S
C298 N301 1.301 . S
C298 N302 1.328 . S
C298 H303 0.930 . S
C299 C300 1.333 . S
C299 N301 1.317 . S
C299 H304 0.930 . S
C300 C299 1.333 . S
C300 N302 1.350 . S
C300 H326 0.931 . S
N301 Co297 2.148 . S
N301 C298 1.301 . S
N301 C299 1.317 . S
N302 C298 1.328 . S
N302 C300 1.350 . S
H303 C298 0.930 . S
H304 C299 0.930 . S
C305 O306 1.224 . S
C305 O324 1.247 . S
O306 C305 1.224 . S
N307 Co297 2.128 . S
N307 C308 1.355 . S
N307 C310 1.311 . S
C308 N307 1.355 . S
C308 C309 1.363 . S
C308 H320 0.929 . S
C309 C308 1.363 . S
C309 N311 1.375 . S
C309 H327 0.931 . S
C310 N307 1.311 . S
C310 N311 1.347 . S
C310 H321 0.929 . S
N311 C309 1.375 . S
N311 C310 1.347 . S
C312 C315 1.365 . S
C312 N317 1.328 . S
C312 H318 0.929 . S
C313 C314 1.362 . S
C313 C316 1.378 . S
C313 H328 0.929 . S
C314 C313 1.362 . S
C314 C315 1.366 . S
C315 C312 1.365 . S
C315 C314 1.366 . S
C315 H329 0.930 . S
C316 C313 1.378 . S
C316 N317 1.315 . S
C316 H319 0.930 . S
N317 Co297 2.194 . S
N317 C312 1.328 . S
N317 C316 1.315 . S
H318 C312 0.929 . S
H319 C316 0.930 . S
H320 C308 0.929 . S
H321 C310 0.929 . S
O322 Co297 2.351 . S
O322 C325 1.244 . S
O323 Co297 2.155 . S
O323 C325 1.240 . S
O324 Co297 2.096 . S
O324 C305 1.247 . S
C325 O322 1.244 . S
C325 O323 1.240 . S
H326 C300 0.931 . S
H327 C309 0.931 . S
H328 C313 0.929 . S
H329 C315 0.930 . S
Co330 N334 2.148 . S
Co330 N340 2.128 . S
Co330 N350 2.194 . S
Co330 O355 2.351 . S
Co330 O356 2.155 . S
Co330 O357 2.096 . S
C331 N334 1.301 . S
C331 N335 1.328 . S
C331 H336 0.930 . S
C332 C333 1.333 . S
C332 N334 1.317 . S
C332 H337 0.930 . S
C333 C332 1.333 . S
C333 N335 1.350 . S
C333 H359 0.931 . S
N334 Co330 2.148 . S
N334 C331 1.301 . S
N334 C332 1.317 . S
N335 C331 1.328 . S
N335 C333 1.350 . S
H336 C331 0.930 . S
H337 C332 0.930 . S
C338 O339 1.224 . S
C338 O357 1.247 . S
O339 C338 1.224 . S
N340 Co330 2.128 . S
N340 C341 1.355 . S
N340 C343 1.311 . S
C341 N340 1.355 . S
C341 C342 1.363 . S
C341 H353 0.929 . S
C342 C341 1.363 . S
C342 N344 1.375 . S
C342 H360 0.931 . S
C343 N340 1.311 . S
C343 N344 1.347 . S
C343 H354 0.929 . S
N344 C342 1.375 . S
N344 C343 1.347 . S
C345 C348 1.365 . S
C345 N350 1.328 . S
C345 H351 0.929 . S
C346 C347 1.362 . S
C346 C349 1.378 . S
C346 H361 0.929 . S
C347 C346 1.362 . S
C347 C348 1.366 . S
C348 C345 1.365 . S
C348 C347 1.366 . S
C348 H362 0.930 . S
C349 C346 1.378 . S
C349 N350 1.315 . S
C349 H352 0.930 . S
N350 Co330 2.194 . S
N350 C345 1.328 . S
N350 C349 1.315 . S
H351 C345 0.929 . S
H352 C349 0.930 . S
H353 C341 0.929 . S
H354 C343 0.929 . S
O355 Co330 2.351 . S
O355 C358 1.244 . S
O356 Co330 2.155 . S
O356 C358 1.240 . S
O357 Co330 2.096 . S
O357 C338 1.247 . S
C358 O355 1.244 . S
C358 O356 1.240 . S
H359 C333 0.931 . S
H360 C342 0.931 . S
H361 C346 0.929 . S
H362 C348 0.930 . S
Co363 N367 2.148 . S
Co363 N373 2.128 . S
Co363 N383 2.194 . S
Co363 O388 2.351 . S
Co363 O389 2.155 . S
Co363 O390 2.096 . S
C364 N367 1.301 . S
C364 N368 1.328 . S
C364 H369 0.930 . S
C365 C366 1.333 . S
C365 N367 1.317 . S
C365 H370 0.930 . S
C366 C365 1.333 . S
C366 N368 1.350 . S
C366 H392 0.931 . S
N367 Co363 2.148 . S
N367 C364 1.301 . S
N367 C365 1.317 . S
N368 C364 1.328 . S
N368 C366 1.350 . S
H369 C364 0.930 . S
H370 C365 0.930 . S
C371 O372 1.224 . S
C371 O390 1.247 . S
O372 C371 1.224 . S
N373 Co363 2.128 . S
N373 C374 1.355 . S
N373 C376 1.311 . S
C374 N373 1.355 . S
C374 C375 1.363 . S
C374 H386 0.929 . S
C375 C374 1.363 . S
C375 N377 1.375 . S
C375 H393 0.931 . S
C376 N373 1.311 . S
C376 N377 1.347 . S
C376 H387 0.929 . S
N377 C375 1.375 . S
N377 C376 1.347 . S
C378 C381 1.365 . S
C378 N383 1.328 . S
C378 H384 0.929 . S
C379 C380 1.362 . S
C379 C382 1.378 . S
C379 H394 0.929 . S
C380 C379 1.362 . S
C380 C381 1.366 . S
C381 C378 1.365 . S
C381 C380 1.366 . S
C381 H395 0.930 . S
C382 C379 1.378 . S
C382 N383 1.315 . S
C382 H385 0.930 . S
N383 Co363 2.194 . S
N383 C378 1.328 . S
N383 C382 1.315 . S
H384 C378 0.929 . S
H385 C382 0.930 . S
H386 C374 0.929 . S
H387 C376 0.929 . S
O388 Co363 2.351 . S
O388 C391 1.244 . S
O389 Co363 2.155 . S
O389 C391 1.240 . S
O390 Co363 2.096 . S
O390 C371 1.247 . S
C391 O388 1.244 . S
C391 O389 1.240 . S
H392 C366 0.931 . S
H393 C375 0.931 . S
H394 C379 0.929 . S
H395 C381 0.930 . S
Co396 N400 2.148 . S
Co396 N406 2.128 . S
Co396 N416 2.194 . S
Co396 O421 2.351 . S
Co396 O422 2.155 . S
Co396 O423 2.096 . S
C397 N400 1.301 . S
C397 N401 1.328 . S
C397 H402 0.930 . S
C398 C399 1.333 . S
C398 N400 1.317 . S
C398 H403 0.930 . S
C399 C398 1.333 . S
C399 N401 1.350 . S
C399 H425 0.931 . S
N400 Co396 2.148 . S
N400 C397 1.301 . S
N400 C398 1.317 . S
N401 C397 1.328 . S
N401 C399 1.350 . S
H402 C397 0.930 . S
H403 C398 0.930 . S
C404 O405 1.224 . S
C404 O423 1.247 . S
O405 C404 1.224 . S
N406 Co396 2.128 . S
N406 C407 1.355 . S
N406 C409 1.311 . S
C407 N406 1.355 . S
C407 C408 1.363 . S
C407 H419 0.929 . S
C408 C407 1.363 . S
C408 N410 1.375 . S
C408 H426 0.931 . S
C409 N406 1.311 . S
C409 N410 1.347 . S
C409 H420 0.929 . S
N410 C408 1.375 . S
N410 C409 1.347 . S
C411 C414 1.365 . S
C411 N416 1.328 . S
C411 H417 0.929 . S
C412 C413 1.362 . S
C412 C415 1.378 . S
C412 H427 0.929 . S
C413 C412 1.362 . S
C413 C414 1.366 . S
C414 C411 1.365 . S
C414 C413 1.366 . S
C414 H428 0.930 . S
C415 C412 1.378 . S
C415 N416 1.315 . S
C415 H418 0.930 . S
N416 Co396 2.194 . S
N416 C411 1.328 . S
N416 C415 1.315 . S
H417 C411 0.929 . S
H418 C415 0.930 . S
H419 C407 0.929 . S
H420 C409 0.929 . S
O421 Co396 2.351 . S
O421 C424 1.244 . S
O422 Co396 2.155 . S
O422 C424 1.240 . S
O423 Co396 2.096 . S
O423 C404 1.247 . S
C424 O421 1.244 . S
C424 O422 1.240 . S
H425 C399 0.931 . S
H426 C408 0.931 . S
H427 C412 0.929 . S
H428 C414 0.930 . S
Co429 N433 2.148 . S
Co429 N439 2.128 . S
Co429 N449 2.194 . S
Co429 O454 2.351 . S
Co429 O455 2.155 . S
Co429 O456 2.096 . S
C430 N433 1.301 . S
C430 N434 1.328 . S
C430 H435 0.930 . S
C431 C432 1.333 . S
C431 N433 1.317 . S
C431 H436 0.930 . S
C432 C431 1.333 . S
C432 N434 1.350 . S
C432 H458 0.931 . S
N433 Co429 2.148 . S
N433 C430 1.301 . S
N433 C431 1.317 . S
N434 C430 1.328 . S
N434 C432 1.350 . S
H435 C430 0.930 . S
H436 C431 0.930 . S
C437 O438 1.224 . S
C437 O456 1.247 . S
O438 C437 1.224 . S
N439 Co429 2.128 . S
N439 C440 1.355 . S
N439 C442 1.311 . S
C440 N439 1.355 . S
C440 C441 1.363 . S
C440 H452 0.929 . S
C441 C440 1.363 . S
C441 N443 1.375 . S
C441 H459 0.931 . S
C442 N439 1.311 . S
C442 N443 1.347 . S
C442 H453 0.929 . S
N443 C441 1.375 . S
N443 C442 1.347 . S
C444 C447 1.365 . S
C444 N449 1.328 . S
C444 H450 0.929 . S
C445 C446 1.362 . S
C445 C448 1.378 . S
C445 H460 0.929 . S
C446 C445 1.362 . S
C446 C447 1.366 . S
C447 C444 1.365 . S
C447 C446 1.366 . S
C447 H461 0.930 . S
C448 C445 1.378 . S
C448 N449 1.315 . S
C448 H451 0.930 . S
N449 Co429 2.194 . S
N449 C444 1.328 . S
N449 C448 1.315 . S
H450 C444 0.929 . S
H451 C448 0.930 . S
H452 C440 0.929 . S
H453 C442 0.929 . S
O454 Co429 2.351 . S
O454 C457 1.244 . S
O455 Co429 2.155 . S
O455 C457 1.240 . S
O456 Co429 2.096 . S
O456 C437 1.247 . S
C457 O454 1.244 . S
C457 O455 1.240 . S
H458 C432 0.931 . S
H459 C441 0.931 . S
H460 C445 0.929 . S
H461 C447 0.930 . S
Co462 N466 2.148 . S
Co462 N472 2.128 . S
Co462 N482 2.194 . S
Co462 O487 2.351 . S
Co462 O488 2.155 . S
Co462 O489 2.096 . S
C463 N466 1.301 . S
C463 N467 1.328 . S
C463 H468 0.930 . S
C464 C465 1.333 . S
C464 N466 1.317 . S
C464 H469 0.930 . S
C465 C464 1.333 . S
C465 N467 1.350 . S
C465 H491 0.931 . S
N466 Co462 2.148 . S
N466 C463 1.301 . S
N466 C464 1.317 . S
N467 C463 1.328 . S
N467 C465 1.350 . S
H468 C463 0.930 . S
H469 C464 0.930 . S
C470 O471 1.224 . S
C470 O489 1.247 . S
O471 C470 1.224 . S
N472 Co462 2.128 . S
N472 C473 1.355 . S
N472 C475 1.311 . S
C473 N472 1.355 . S
C473 C474 1.363 . S
C473 H485 0.929 . S
C474 C473 1.363 . S
C474 N476 1.375 . S
C474 H492 0.931 . S
C475 N472 1.311 . S
C475 N476 1.347 . S
C475 H486 0.929 . S
N476 C474 1.375 . S
N476 C475 1.347 . S
C477 C480 1.365 . S
C477 N482 1.328 . S
C477 H483 0.929 . S
C478 C479 1.362 . S
C478 C481 1.378 . S
C478 H493 0.929 . S
C479 C478 1.362 . S
C479 C480 1.366 . S
C480 C477 1.365 . S
C480 C479 1.366 . S
C480 H494 0.930 . S
C481 C478 1.378 . S
C481 N482 1.315 . S
C481 H484 0.930 . S
N482 Co462 2.194 . S
N482 C477 1.328 . S
N482 C481 1.315 . S
H483 C477 0.929 . S
H484 C481 0.930 . S
H485 C473 0.929 . S
H486 C475 0.929 . S
O487 Co462 2.351 . S
O487 C490 1.244 . S
O488 Co462 2.155 . S
O488 C490 1.240 . S
O489 Co462 2.096 . S
O489 C470 1.247 . S
C490 O487 1.244 . S
C490 O488 1.240 . S
H491 C465 0.931 . S
H492 C474 0.931 . S
H493 C478 0.929 . S
H494 C480 0.930 . S
Co495 N499 2.148 . S
Co495 N505 2.128 . S
Co495 N515 2.194 . S
Co495 O520 2.351 . S
Co495 O521 2.155 . S
Co495 O522 2.096 . S
C496 N499 1.301 . S
C496 N500 1.328 . S
C496 H501 0.930 . S
C497 C498 1.333 . S
C497 N499 1.317 . S
C497 H502 0.930 . S
C498 C497 1.333 . S
C498 N500 1.350 . S
C498 H524 0.931 . S
N499 Co495 2.148 . S
N499 C496 1.301 . S
N499 C497 1.317 . S
N500 C496 1.328 . S
N500 C498 1.350 . S
H501 C496 0.930 . S
H502 C497 0.930 . S
C503 O504 1.224 . S
C503 O522 1.247 . S
O504 C503 1.224 . S
N505 Co495 2.128 . S
N505 C506 1.355 . S
N505 C508 1.311 . S
C506 N505 1.355 . S
C506 C507 1.363 . S
C506 H518 0.929 . S
C507 C506 1.363 . S
C507 N509 1.375 . S
C507 H525 0.931 . S
C508 N505 1.311 . S
C508 N509 1.347 . S
C508 H519 0.929 . S
N509 C507 1.375 . S
N509 C508 1.347 . S
C510 C513 1.365 . S
C510 N515 1.328 . S
C510 H516 0.929 . S
C511 C512 1.362 . S
C511 C514 1.378 . S
C511 H526 0.929 . S
C512 C511 1.362 . S
C512 C513 1.366 . S
C513 C510 1.365 . S
C513 C512 1.366 . S
C513 H527 0.930 . S
C514 C511 1.378 . S
C514 N515 1.315 . S
C514 H517 0.930 . S
N515 Co495 2.194 . S
N515 C510 1.328 . S
N515 C514 1.315 . S
H516 C510 0.929 . S
H517 C514 0.930 . S
H518 C506 0.929 . S
H519 C508 0.929 . S
O520 Co495 2.351 . S
O520 C523 1.244 . S
O521 Co495 2.155 . S
O521 C523 1.240 . S
O522 Co495 2.096 . S
O522 C503 1.247 . S
C523 O520 1.244 . S
C523 O521 1.240 . S
H524 C498 0.931 . S
H525 C507 0.931 . S
H526 C511 0.929 . S
H527 C513 0.930 . S
H528 C534 0.930 . S
H529 C538 0.930 . S
H530 C543 0.929 . S
H531 C541 0.929 . S
H532 C536 0.929 . S
H533 C542 0.929 . S
C534 H528 0.930 . S
C534 C535 1.367 . S
C534 C542 1.378 . S
C535 C534 1.367 . S
C535 C543 1.433 . S
C536 H532 0.929 . S
C536 C538 1.378 . S
C536 C540 1.350 . S
C537 C540 1.463 . S
C537 C542 1.350 . S
C537 N545 1.427 . S
C538 H529 0.930 . S
C538 C536 1.378 . S
C538 C539 1.367 . S
C539 C538 1.367 . S
C539 C541 1.433 . S
C540 C536 1.350 . S
C540 C537 1.463 . S
C540 N544 1.427 . S
C541 H531 0.929 . S
C541 C539 1.433 . S
C541 N544 1.384 . S
C542 H533 0.929 . S
C542 C534 1.378 . S
C542 C537 1.350 . S
C543 H530 0.929 . S
C543 C535 1.433 . S
C543 N545 1.384 . S
N544 C540 1.427 . S
N544 C541 1.384 . S
N545 C537 1.427 . S
N545 C543 1.384 . S
H546 C552 0.930 . S
H547 C556 0.930 . S
H548 C561 0.929 . S
H549 C559 0.929 . S
H550 C554 0.929 . S
H551 C560 0.929 . S
C552 H546 0.930 . S
C552 C553 1.367 . S
C552 C560 1.378 . S
C553 C552 1.367 . S
C553 C561 1.433 . S
C554 H550 0.929 . S
C554 C556 1.378 . S
C554 C558 1.350 . S
C555 C558 1.463 . S
C555 C560 1.350 . S
C555 N563 1.427 . S
C556 H547 0.930 . S
C556 C554 1.378 . S
C556 C557 1.367 . S
C557 C556 1.367 . S
C557 C559 1.433 . S
C558 C554 1.350 . S
C558 C555 1.463 . S
C558 N562 1.427 . S
C559 H549 0.929 . S
C559 C557 1.433 . S
C559 N562 1.384 . S
C560 H551 0.929 . S
C560 C552 1.378 . S
C560 C555 1.350 . S
C561 H548 0.929 . S
C561 C553 1.433 . S
C561 N563 1.384 . S
N562 C558 1.427 . S
N562 C559 1.384 . S
N563 C555 1.427 . S
N563 C561 1.384 . S
H564 C570 0.930 . S
H565 C574 0.930 . S
H566 C579 0.929 . S
H567 C577 0.929 . S
H568 C572 0.929 . S
H569 C578 0.929 . S
C570 H564 0.930 . S
C570 C571 1.367 . S
C570 C578 1.378 . S
C571 C570 1.367 . S
C571 C579 1.433 . S
C572 H568 0.929 . S
C572 C574 1.378 . S
C572 C576 1.350 . S
C573 C576 1.463 . S
C573 C578 1.350 . S
C573 N581 1.427 . S
C574 H565 0.930 . S
C574 C572 1.378 . S
C574 C575 1.367 . S
C575 C574 1.367 . S
C575 C577 1.433 . S
C576 C572 1.350 . S
C576 C573 1.463 . S
C576 N580 1.427 . S
C577 H567 0.929 . S
C577 C575 1.433 . S
C577 N580 1.384 . S
C578 H569 0.929 . S
C578 C570 1.378 . S
C578 C573 1.350 . S
C579 H566 0.929 . S
C579 C571 1.433 . S
C579 N581 1.384 . S
N580 C576 1.427 . S
N580 C577 1.384 . S
N581 C573 1.427 . S
N581 C579 1.384 . S
H582 C588 0.930 . S
H583 C592 0.930 . S
H584 C597 0.929 . S
H585 C595 0.929 . S
H586 C590 0.929 . S
H587 C596 0.929 . S
C588 H582 0.930 . S
C588 C589 1.367 . S
C588 C596 1.378 . S
C589 C588 1.367 . S
C589 C597 1.433 . S
C590 H586 0.929 . S
C590 C592 1.378 . S
C590 C594 1.350 . S
C591 C594 1.463 . S
C591 C596 1.350 . S
C591 N599 1.427 . S
C592 H583 0.930 . S
C592 C590 1.378 . S
C592 C593 1.367 . S
C593 C592 1.367 . S
C593 C595 1.433 . S
C594 C590 1.350 . S
C594 C591 1.463 . S
C594 N598 1.427 . S
C595 H585 0.929 . S
C595 C593 1.433 . S
C595 N598 1.384 . S
C596 H587 0.929 . S
C596 C588 1.378 . S
C596 C591 1.350 . S
C597 H584 0.929 . S
C597 C589 1.433 . S
C597 N599 1.384 . S
N598 C594 1.427 . S
N598 C595 1.384 . S
N599 C591 1.427 . S
N599 C597 1.384 . S
H600 C606 0.930 . S
H601 C610 0.930 . S
H602 C615 0.929 . S
H603 C613 0.929 . S
H604 C608 0.929 . S
H605 C614 0.929 . S
C606 H600 0.930 . S
C606 C607 1.367 . S
C606 C614 1.378 . S
C607 C606 1.367 . S
C607 C615 1.433 . S
C608 H604 0.929 . S
C608 C610 1.378 . S
C608 C612 1.350 . S
C609 C612 1.463 . S
C609 C614 1.350 . S
C609 N617 1.427 . S
C610 H601 0.930 . S
C610 C608 1.378 . S
C610 C611 1.367 . S
C611 C610 1.367 . S
C611 C613 1.433 . S
C612 C608 1.350 . S
C612 C609 1.463 . S
C612 N616 1.427 . S
C613 H603 0.929 . S
C613 C611 1.433 . S
C613 N616 1.384 . S
C614 H605 0.929 . S
C614 C606 1.378 . S
C614 C609 1.350 . S
C615 H602 0.929 . S
C615 C607 1.433 . S
C615 N617 1.384 . S
N616 C612 1.427 . S
N616 C613 1.384 . S
N617 C609 1.427 . S
N617 C615 1.384 . S
H618 C624 0.930 . S
H619 C628 0.930 . S
H620 C633 0.929 . S
H621 C631 0.929 . S
H622 C626 0.929 . S
H623 C632 0.929 . S
C624 H618 0.930 . S
C624 C625 1.367 . S
C624 C632 1.378 . S
C625 C624 1.367 . S
C625 C633 1.433 . S
C626 H622 0.929 . S
C626 C628 1.378 . S
C626 C630 1.350 . S
C627 C630 1.463 . S
C627 C632 1.350 . S
C627 N635 1.427 . S
C628 H619 0.930 . S
C628 C626 1.378 . S
C628 C629 1.367 . S
C629 C628 1.367 . S
C629 C631 1.433 . S
C630 C626 1.350 . S
C630 C627 1.463 . S
C630 N634 1.427 . S
C631 H621 0.929 . S
C631 C629 1.433 . S
C631 N634 1.384 . S
C632 H623 0.929 . S
C632 C624 1.378 . S
C632 C627 1.350 . S
C633 H620 0.929 . S
C633 C625 1.433 . S
C633 N635 1.384 . S
N634 C630 1.427 . S
N634 C631 1.384 . S
N635 C627 1.427 . S
N635 C633 1.384 . S
H636 C642 0.930 . S
H637 C646 0.930 . S
H638 C651 0.929 . S
H639 C649 0.929 . S
H640 C644 0.929 . S
H641 C650 0.929 . S
C642 H636 0.930 . S
C642 C643 1.367 . S
C642 C650 1.378 . S
C643 C642 1.367 . S
C643 C651 1.433 . S
C644 H640 0.929 . S
C644 C646 1.378 . S
C644 C648 1.350 . S
C645 C648 1.463 . S
C645 C650 1.350 . S
C645 N653 1.427 . S
C646 H637 0.930 . S
C646 C644 1.378 . S
C646 C647 1.367 . S
C647 C646 1.367 . S
C647 C649 1.433 . S
C648 C644 1.350 . S
C648 C645 1.463 . S
C648 N652 1.427 . S
C649 H639 0.929 . S
C649 C647 1.433 . S
C649 N652 1.384 . S
C650 H641 0.929 . S
C650 C642 1.378 . S
C650 C645 1.350 . S
C651 H638 0.929 . S
C651 C643 1.433 . S
C651 N653 1.384 . S
N652 C648 1.427 . S
N652 C649 1.384 . S
N653 C645 1.427 . S
N653 C651 1.384 . S
H654 C660 0.930 . S
H655 C664 0.930 . S
H656 C669 0.929 . S
H657 C667 0.929 . S
H658 C662 0.929 . S
H659 C668 0.929 . S
C660 H654 0.930 . S
C660 C661 1.367 . S
C660 C668 1.378 . S
C661 C660 1.367 . S
C661 C669 1.433 . S
C662 H658 0.929 . S
C662 C664 1.378 . S
C662 C666 1.350 . S
C663 C666 1.463 . S
C663 C668 1.350 . S
C663 N671 1.427 . S
C664 H655 0.930 . S
C664 C662 1.378 . S
C664 C665 1.367 . S
C665 C664 1.367 . S
C665 C667 1.433 . S
C666 C662 1.350 . S
C666 C663 1.463 . S
C666 N670 1.427 . S
C667 H657 0.929 . S
C667 C665 1.433 . S
C667 N670 1.384 . S
C668 H659 0.929 . S
C668 C660 1.378 . S
C668 C663 1.350 . S
C669 H656 0.929 . S
C669 C661 1.433 . S
C669 N671 1.384 . S
N670 C666 1.427 . S
N670 C667 1.384 . S
N671 C663 1.427 . S
N671 C669 1.384 . S
H672 C678 0.935 . S
H673 C682 0.930 . S
H674 C687 0.929 . S
H675 C685 0.929 . S
H676 C680 0.929 . S
H677 C686 0.929 . S
C678 H672 0.935 . S
C678 C679 1.381 1_556 S
C678 C686 1.359 1_545 S
C679 C678 1.381 1_554 S
C679 C687 1.433 . S
C680 H676 0.929 . S
C680 C682 1.378 . S
C680 C684 1.350 . S
C681 C684 1.463 . S
C681 C686 1.350 1_554 S
C681 N689 1.427 . S
C682 H673 0.930 . S
C682 C680 1.378 . S
C682 C683 1.367 . S
C683 C682 1.367 . S
C683 C685 1.433 1_554 S
C684 C680 1.350 . S
C684 C681 1.463 . S
C684 N688 1.427 1_554 S
C685 H675 0.929 . S
C685 C683 1.433 1_556 S
C685 N688 1.384 . S
C686 H677 0.929 . S
C686 C678 1.359 1_565 S
C686 C681 1.350 1_556 S
C687 H674 0.929 . S
C687 C679 1.433 . S
C687 N689 1.384 1_545 S
N688 C684 1.427 1_556 S
N688 C685 1.384 . S
N689 C681 1.427 . S
N689 C687 1.384 1_565 S
H690 C696 0.930 . S
H691 C700 0.930 . S
H692 C705 0.929 . S
H693 C703 0.929 . S
H694 C698 0.929 . S
H695 C704 0.929 . S
C696 H690 0.930 . S
C696 C697 1.367 1_554 S
C696 C704 1.378 1_455 S
C697 C696 1.367 1_556 S
C697 C705 1.433 . S
C698 H694 0.929 . S
C698 C700 1.378 . S
C698 C702 1.350 . S
C699 C702 1.463 . S
C699 C704 1.350 1_556 S
C699 N707 1.427 . S
C700 H691 0.930 . S
C700 C698 1.378 . S
C700 C701 1.367 . S
C701 C700 1.367 . S
C701 C703 1.433 1_556 S
C702 C698 1.350 . S
C702 C699 1.463 . S
C702 N706 1.427 1_556 S
C703 H693 0.929 . S
C703 C701 1.433 1_554 S
C703 N706 1.384 . S
C704 H695 0.929 . S
C704 C696 1.378 1_655 S
C704 C699 1.350 1_554 S
C705 H692 0.929 . S
C705 C697 1.433 . S
C705 N707 1.384 1_455 S
N706 C702 1.427 1_554 S
N706 C703 1.384 . S
N707 C699 1.427 . S
N707 C705 1.384 1_655 S
H708 C714 0.930 . S
H709 C718 0.930 . S
H710 C723 0.929 . S
H711 C721 0.929 . S
H712 C716 0.929 . S
H713 C722 0.929 . S
C714 H708 0.930 . S
C714 C715 1.367 1_556 S
C714 C722 1.378 1_565 S
C715 C714 1.367 1_554 S
C715 C723 1.433 . S
C716 H712 0.929 . S
C716 C718 1.378 . S
C716 C720 1.350 . S
C717 C720 1.463 . S
C717 C722 1.350 1_554 S
C717 N725 1.427 . S
C718 H709 0.930 . S
C718 C716 1.378 . S
C718 C719 1.367 . S
C719 C718 1.367 . S
C719 C721 1.433 1_554 S
C720 C716 1.350 . S
C720 C717 1.463 . S
C720 N724 1.427 1_554 S
C721 H711 0.929 . S
C721 C719 1.433 1_556 S
C721 N724 1.384 . S
C722 H713 0.929 . S
C722 C714 1.378 1_545 S
C722 C717 1.350 1_556 S
C723 H710 0.929 . S
C723 C715 1.433 . S
C723 N725 1.384 1_565 S
N724 C720 1.427 1_556 S
N724 C721 1.384 . S
N725 C717 1.427 . S
N725 C723 1.384 1_545 S
H726 C732 0.930 . S
H727 C736 0.930 . S
H728 C741 0.929 . S
H729 C739 0.937 . S
H730 C734 0.929 . S
H731 C740 0.929 . S
C732 H726 0.930 . S
C732 C733 1.367 . S
C732 C740 1.378 . S
C733 C732 1.367 . S
C733 C741 1.433 1_556 S
C734 H730 0.929 . S
C734 C736 1.378 1_455 S
C734 C738 1.350 1_554 S
C735 C738 1.463 . S
C735 C740 1.350 . S
C735 N743 1.427 1_556 S
C736 H727 0.930 . S
C736 C734 1.378 1_655 S
C736 C737 1.367 1_554 S
C737 C736 1.367 1_556 S
C737 C739 1.453 . S
C738 C734 1.350 1_556 S
C738 C735 1.463 . S
C738 N742 1.427 . S
C739 H729 0.937 . S
C739 C737 1.453 . S
C739 N742 1.356 1_655 S
C740 H731 0.929 . S
C740 C732 1.378 . S
C740 C735 1.350 . S
C741 H728 0.929 . S
C741 C733 1.433 1_554 S
C741 N743 1.384 . S
N742 C738 1.427 . S
N742 C739 1.356 1_455 S
N743 C735 1.427 1_554 S
N743 C741 1.384 . S
H744 C750 0.930 . S
H745 C754 0.930 . S
H746 C759 0.929 . S
H747 C757 0.929 . S
H748 C752 0.929 . S
H749 C758 0.929 . S
C750 H744 0.930 . S
C750 C751 1.367 . S
C750 C758 1.378 . S
C751 C750 1.367 . S
C751 C759 1.433 . S
C752 H748 0.929 . S
C752 C754 1.378 . S
C752 C756 1.350 . S
C753 C756 1.463 . S
C753 C758 1.350 . S
C753 N761 1.427 . S
C754 H745 0.930 . S
C754 C752 1.378 . S
C754 C755 1.367 . S
C755 C754 1.367 . S
C755 C757 1.433 . S
C756 C752 1.350 . S
C756 C753 1.463 . S
C756 N760 1.427 . S
C757 H747 0.929 . S
C757 C755 1.433 . S
C757 N760 1.384 . S
C758 H749 0.929 . S
C758 C750 1.378 . S
C758 C753 1.350 . S
C759 H746 0.929 . S
C759 C751 1.433 . S
C759 N761 1.384 . S
N760 C756 1.427 . S
N760 C757 1.384 . S
N761 C753 1.427 . S
N761 C759 1.384 . S
H762 C768 0.930 . S
H763 C772 0.930 . S
H764 C777 0.929 . S
H765 C775 0.929 . S
H766 C770 0.929 . S
H767 C776 0.929 . S
C768 H762 0.930 . S
C768 C769 1.367 . S
C768 C776 1.378 . S
C769 C768 1.367 . S
C769 C777 1.433 . S
C770 H766 0.929 . S
C770 C772 1.378 . S
C770 C774 1.350 . S
C771 C774 1.463 . S
C771 C776 1.350 . S
C771 N779 1.427 . S
C772 H763 0.930 . S
C772 C770 1.378 . S
C772 C773 1.367 . S
C773 C772 1.367 . S
C773 C775 1.433 . S
C774 C770 1.350 . S
C774 C771 1.463 . S
C774 N778 1.427 . S
C775 H765 0.929 . S
C775 C773 1.433 . S
C775 N778 1.384 . S
C776 H767 0.929 . S
C776 C768 1.378 . S
C776 C771 1.350 . S
C777 H764 0.929 . S
C777 C769 1.433 . S
C777 N779 1.384 . S
N778 C774 1.427 . S
N778 C775 1.384 . S
N779 C771 1.427 . S
N779 C777 1.384 . S
H780 C786 0.930 . S
H781 C790 0.930 . S
H782 C795 0.929 . S
H783 C793 0.929 . S
H784 C788 0.929 . S
H785 C794 0.929 . S
C786 H780 0.930 . S
C786 C787 1.367 . S
C786 C794 1.378 . S
C787 C786 1.367 . S
C787 C795 1.433 . S
C788 H784 0.929 . S
C788 C790 1.378 . S
C788 C792 1.350 . S
C789 C792 1.463 . S
C789 C794 1.350 . S
C789 N797 1.427 . S
C790 H781 0.930 . S
C790 C788 1.378 . S
C790 C791 1.367 . S
C791 C790 1.367 . S
C791 C793 1.433 . S
C792 C788 1.350 . S
C792 C789 1.463 . S
C792 N796 1.427 . S
C793 H783 0.929 . S
C793 C791 1.433 . S
C793 N796 1.384 . S
C794 H785 0.929 . S
C794 C786 1.378 . S
C794 C789 1.350 . S
C795 H782 0.929 . S
C795 C787 1.433 . S
C795 N797 1.384 . S
N796 C792 1.427 . S
N796 C793 1.384 . S
N797 C789 1.427 . S
N797 C795 1.384 . S
H798 C804 0.930 . S
H799 C808 0.930 . S
H800 C813 0.929 . S
H801 C811 0.929 . S
H802 C806 0.929 . S
H803 C812 0.929 . S
C804 H798 0.930 . S
C804 C805 1.367 . S
C804 C812 1.378 . S
C805 C804 1.367 . S
C805 C813 1.433 . S
C806 H802 0.929 . S
C806 C808 1.378 . S
C806 C810 1.350 . S
C807 C810 1.463 . S
C807 C812 1.350 . S
C807 N815 1.427 . S
C808 H799 0.930 . S
C808 C806 1.378 . S
C808 C809 1.367 . S
C809 C808 1.367 . S
C809 C811 1.433 . S
C810 C806 1.350 . S
C810 C807 1.463 . S
C810 N814 1.427 . S
C811 H801 0.929 . S
C811 C809 1.433 . S
C811 N814 1.384 . S
C812 H803 0.929 . S
C812 C804 1.378 . S
C812 C807 1.350 . S
C813 H800 0.929 . S
C813 C805 1.433 . S
C813 N815 1.384 . S
N814 C810 1.427 . S
N814 C811 1.384 . S
N815 C807 1.427 . S
N815 C813 1.384 . S
H816 C822 0.930 . S
H817 C826 0.930 . S
H818 C831 0.929 . S
H819 C829 0.929 . S
H820 C824 0.929 . S
H821 C830 0.929 . S
C822 H816 0.930 . S
C822 C823 1.367 . S
C822 C830 1.378 . S
C823 C822 1.367 . S
C823 C831 1.433 . S
C824 H820 0.929 . S
C824 C826 1.378 . S
C824 C828 1.350 . S
C825 C828 1.463 . S
C825 C830 1.350 . S
C825 N833 1.427 . S
C826 H817 0.930 . S
C826 C824 1.378 . S
C826 C827 1.367 . S
C827 C826 1.367 . S
C827 C829 1.433 . S
C828 C824 1.350 . S
C828 C825 1.463 . S
C828 N832 1.427 . S
C829 H819 0.929 . S
C829 C827 1.433 . S
C829 N832 1.384 . S
C830 H821 0.929 . S
C830 C822 1.378 . S
C830 C825 1.350 . S
C831 H818 0.929 . S
C831 C823 1.433 . S
C831 N833 1.384 . S
N832 C828 1.427 . S
N832 C829 1.384 . S
N833 C825 1.427 . S
N833 C831 1.384 . S
H834 C840 0.930 . S
H835 C844 0.930 . S
H836 C849 0.929 . S
H837 C847 0.929 . S
H838 C842 0.929 . S
H839 C848 0.929 . S
C840 H834 0.930 . S
C840 C841 1.367 . S
C840 C848 1.378 . S
C841 C840 1.367 . S
C841 C849 1.433 . S
C842 H838 0.929 . S
C842 C844 1.378 . S
C842 C846 1.350 . S
C843 C846 1.463 . S
C843 C848 1.350 . S
C843 N851 1.427 . S
C844 H835 0.930 . S
C844 C842 1.378 . S
C844 C845 1.367 . S
C845 C844 1.367 . S
C845 C847 1.433 . S
C846 C842 1.350 . S
C846 C843 1.463 . S
C846 N850 1.427 . S
C847 H837 0.929 . S
C847 C845 1.433 . S
C847 N850 1.384 . S
C848 H839 0.929 . S
C848 C840 1.378 . S
C848 C843 1.350 . S
C849 H836 0.929 . S
C849 C841 1.433 . S
C849 N851 1.384 . S
N850 C846 1.427 . S
N850 C847 1.384 . S
N851 C843 1.427 . S
N851 C849 1.384 . S
H852 C858 0.930 . S
H853 C862 0.930 . S
H854 C867 0.929 . S
H855 C865 0.929 . S
H856 C860 0.929 . S
H857 C866 0.929 . S
C858 H852 0.930 . S
C858 C859 1.367 . S
C858 C866 1.378 . S
C859 C858 1.367 . S
C859 C867 1.433 . S
C860 H856 0.929 . S
C860 C862 1.378 . S
C860 C864 1.350 . S
C861 C864 1.463 . S
C861 C866 1.350 . S
C861 N869 1.427 . S
C862 H853 0.930 . S
C862 C860 1.378 . S
C862 C863 1.367 . S
C863 C862 1.367 . S
C863 C865 1.433 . S
C864 C860 1.350 . S
C864 C861 1.463 . S
C864 N868 1.427 . S
C865 H855 0.929 . S
C865 C863 1.433 . S
C865 N868 1.384 . S
C866 H857 0.929 . S
C866 C858 1.378 . S
C866 C861 1.350 . S
C867 H854 0.929 . S
C867 C859 1.433 . S
C867 N869 1.384 . S
N868 C864 1.427 . S
N868 C865 1.384 . S
N869 C861 1.427 . S
N869 C867 1.384 . S
H870 C876 0.930 . S
H871 C880 0.930 . S
H872 C885 0.929 . S
H873 C883 0.929 . S
H874 C878 0.929 . S
H875 C884 0.929 . S
C876 H870 0.930 . S
C876 C877 1.367 . S
C876 C884 1.378 . S
C877 C876 1.367 . S
C877 C885 1.433 . S
C878 H874 0.929 . S
C878 C880 1.378 . S
C878 C882 1.350 . S
C879 C882 1.463 . S
C879 C884 1.350 . S
C879 N887 1.427 . S
C880 H871 0.930 . S
C880 C878 1.378 . S
C880 C881 1.367 . S
C881 C880 1.367 . S
C881 C883 1.433 . S
C882 C878 1.350 . S
C882 C879 1.463 . S
C882 N886 1.427 . S
C883 H873 0.929 . S
C883 C881 1.433 . S
C883 N886 1.384 . S
C884 H875 0.929 . S
C884 C876 1.378 . S
C884 C879 1.350 . S
C885 H872 0.929 . S
C885 C877 1.433 . S
C885 N887 1.384 . S
N886 C882 1.427 . S
N886 C883 1.384 . S
N887 C879 1.427 . S
N887 C885 1.384 . S
H888 C894 0.926 1_565 S
H889 C898 0.930 . S
H890 C903 0.929 . S
H891 C901 0.929 . S
H892 C896 0.929 . S
H893 C902 0.929 . S
C894 H888 0.926 1_545 S
C894 C895 1.347 1_545 S
C894 C902 1.403 . S
C895 C894 1.347 1_565 S
C895 C903 1.433 . S
C896 H892 0.929 . S
C896 C898 1.378 . S
C896 C900 1.350 . S
C897 C900 1.463 . S
C897 C902 1.350 . S
C897 N905 1.427 . S
C898 H889 0.930 . S
C898 C896 1.378 . S
C898 C899 1.367 . S
C899 C898 1.367 . S
C899 C901 1.433 . S
C900 C896 1.350 . S
C900 C897 1.463 . S
C900 N904 1.427 . S
C901 H891 0.929 . S
C901 C899 1.433 . S
C901 N904 1.384 . S
C902 H893 0.929 . S
C902 C894 1.403 . S
C902 C897 1.350 . S
C903 H890 0.929 . S
C903 C895 1.433 . S
C903 N905 1.384 1_565 S
N904 C900 1.427 . S
N904 C901 1.384 . S
N905 C897 1.427 . S
N905 C903 1.384 1_545 S
H906 C912 0.930 . S
H907 C916 0.930 . S
H908 C921 0.929 . S
H909 C919 0.929 . S
H910 C914 0.929 . S
H911 C920 0.929 . S
C912 H906 0.930 . S
C912 C913 1.367 . S
C912 C920 1.378 . S
C913 C912 1.367 . S
C913 C921 1.433 . S
C914 H910 0.929 . S
C914 C916 1.378 1_455 S
C914 C918 1.350 . S
C915 C918 1.463 . S
C915 C920 1.350 . S
C915 N923 1.427 . S
C916 H907 0.930 . S
C916 C914 1.378 1_655 S
C916 C917 1.367 . S
C917 C916 1.367 . S
C917 C919 1.433 . S
C918 C914 1.350 . S
C918 C915 1.463 . S
C918 N922 1.427 . S
C919 H909 0.929 . S
C919 C917 1.433 . S
C919 N922 1.384 1_655 S
C920 H911 0.929 . S
C920 C912 1.378 . S
C920 C915 1.350 . S
C921 H908 0.929 . S
C921 C913 1.433 . S
C921 N923 1.384 . S
N922 C918 1.427 . S
N922 C919 1.384 1_455 S
N923 C915 1.427 . S
N923 C921 1.384 . S
H924 C930 0.930 . S
H925 C934 0.930 . S
H926 C939 0.929 . S
H927 C937 0.924 1_545 S
H928 C932 0.929 . S
H929 C938 0.929 . S
C930 H924 0.930 . S
C930 C931 1.367 . S
C930 C938 1.378 . S
C931 C930 1.367 . S
C931 C939 1.433 . S
C932 H928 0.929 . S
C932 C934 1.378 1_565 S
C932 C936 1.350 . S
C933 C936 1.463 . S
C933 C938 1.350 . S
C933 N941 1.427 . S
C934 H925 0.930 . S
C934 C932 1.378 1_545 S
C934 C935 1.367 . S
C935 C934 1.367 . S
C935 C937 1.410 1_545 S
C936 C932 1.350 . S
C936 C933 1.463 . S
C936 N940 1.427 . S
C937 H927 0.924 1_565 S
C937 C935 1.410 1_565 S
C937 N940 1.413 . S
C938 H929 0.929 . S
C938 C930 1.378 . S
C938 C933 1.350 . S
C939 H926 0.929 . S
C939 C931 1.433 . S
C939 N941 1.384 . S
N940 C936 1.427 . S
N940 C937 1.413 . S
N941 C933 1.427 . S
N941 C939 1.384 . S
H942 C948 0.930 . S
H943 C952 0.930 . S
H944 C957 0.929 . S
H945 C955 0.929 . S
H946 C950 0.929 . S
H947 C956 0.929 . S
C948 H942 0.930 . S
C948 C949 1.367 . S
C948 C956 1.378 1_455 S
C949 C948 1.367 . S
C949 C957 1.433 . S
C950 H946 0.929 . S
C950 C952 1.378 . S
C950 C954 1.350 . S
C951 C954 1.463 . S
C951 C956 1.350 . S
C951 N959 1.427 . S
C952 H943 0.930 . S
C952 C950 1.378 . S
C952 C953 1.367 . S
C953 C952 1.367 . S
C953 C955 1.433 . S
C954 C950 1.350 . S
C954 C951 1.463 . S
C954 N958 1.427 . S
C955 H945 0.929 . S
C955 C953 1.433 . S
C955 N958 1.384 . S
C956 H947 0.929 . S
C956 C948 1.378 1_655 S
C956 C951 1.350 . S
C957 H944 0.929 . S
C957 C949 1.433 . S
C957 N959 1.384 1_455 S
N958 C954 1.427 . S
N958 C955 1.384 . S
N959 C951 1.427 . S
N959 C957 1.384 1_655 S
H960 C966 0.930 . S
H961 C970 0.930 . S
H962 C975 0.929 . S
H963 C973 0.929 . S
H964 C968 0.929 . S
H965 C974 0.929 . S
C966 H960 0.930 . S
C966 C967 1.367 1_554 S
C966 C974 1.378 . S
C967 C966 1.367 1_556 S
C967 C975 1.433 . S
C968 H964 0.929 . S
C968 C970 1.378 . S
C968 C972 1.350 . S
C969 C972 1.463 1_545 S
C969 C974 1.350 1_556 S
C969 N977 1.427 . S
C970 H961 0.930 . S
C970 C968 1.378 . S
C970 C971 1.367 . S
C971 C970 1.367 . S
C971 C973 1.433 1_556 S
C972 C968 1.350 . S
C972 C969 1.463 1_565 S
C972 N976 1.427 1_556 S
C973 H963 0.929 . S
C973 C971 1.433 1_554 S
C973 N976 1.384 . S
C974 H965 0.929 . S
C974 C966 1.378 . S
C974 C969 1.350 1_554 S
C975 H962 0.929 . S
C975 C967 1.433 . S
C975 N977 1.384 . S
N976 C972 1.427 1_554 S
N976 C973 1.384 . S
N977 C969 1.427 . S
N977 C975 1.384 . S
H978 C984 0.930 . S
H979 C988 0.930 . S
H980 C993 0.929 . S
H981 C991 0.929 . S
H982 C986 0.929 1_455 S
H983 C992 0.929 1_655 S
C984 H978 0.930 . S
C984 C985 1.367 . S
C984 C992 1.378 . S
C985 C984 1.367 . S
C985 C993 1.433 1_554 S
C986 H982 0.929 1_655 S
C986 C988 1.378 . S
C986 C990 1.350 1_556 S
C987 C990 1.463 1_455 S
C987 C992 1.350 . S
C987 N995 1.427 1_554 S
C988 H979 0.930 . S
C988 C986 1.378 . S
C988 C989 1.367 1_556 S
C989 C988 1.367 1_554 S
C989 C991 1.433 . S
C990 C986 1.350 1_554 S
C990 C987 1.463 1_655 S
C990 N994 1.427 . S
C991 H981 0.929 . S
C991 C989 1.433 . S
C991 N994 1.384 . S
C992 H983 0.929 1_455 S
C992 C984 1.378 . S
C992 C987 1.350 . S
C993 H980 0.929 . S
C993 C985 1.433 1_556 S
C993 N995 1.384 . S
N994 C990 1.427 . S
N994 C991 1.384 . S
N995 C987 1.427 1_556 S
N995 C993 1.384 . S
H996 C1002 0.930 . S
H997 C1006 0.930 . S
H998 C1011 0.929 . S
H999 C1009 0.929 . S
H1000 C1004 0.929 . S
H1001 C1010 0.929 . S
C1002 H996 0.930 . S
C1002 C1003 1.367 . S
C1002 C1010 1.378 . S
C1003 C1002 1.367 . S
C1003 C1011 1.433 . S
C1004 H1000 0.929 . S
C1004 C1006 1.378 . S
C1004 C1008 1.350 . S
C1005 C1008 1.463 . S
C1005 C1010 1.350 . S
C1005 N1013 1.427 . S
C1006 H997 0.930 . S
C1006 C1004 1.378 . S
C1006 C1007 1.367 . S
C1007 C1006 1.367 . S
C1007 C1009 1.433 . S
C1008 C1004 1.350 . S
C1008 C1005 1.463 . S
C1008 N1012 1.427 . S
C1009 H999 0.929 . S
C1009 C1007 1.433 . S
C1009 N1012 1.384 . S
C1010 H1001 0.929 . S
C1010 C1002 1.378 . S
C1010 C1005 1.350 . S
C1011 H998 0.929 . S
C1011 C1003 1.433 . S
C1011 N1013 1.384 . S
N1012 C1008 1.427 . S
N1012 C1009 1.384 . S
N1013 C1005 1.427 . S
N1013 C1011 1.384 . S
H1014 C1020 0.930 . S
H1015 C1024 0.930 . S
H1016 C1029 0.929 . S
H1017 C1027 0.929 . S
H1018 C1022 0.929 . S
H1019 C1028 0.929 . S
C1020 H1014 0.930 . S
C1020 C1021 1.367 . S
C1020 C1028 1.378 . S
C1021 C1020 1.367 . S
C1021 C1029 1.433 . S
C1022 H1018 0.929 . S
C1022 C1024 1.378 . S
C1022 C1026 1.350 . S
C1023 C1026 1.463 . S
C1023 C1028 1.350 . S
C1023 N1031 1.427 . S
C1024 H1015 0.930 . S
C1024 C1022 1.378 . S
C1024 C1025 1.367 . S
C1025 C1024 1.367 . S
C1025 C1027 1.433 . S
C1026 C1022 1.350 . S
C1026 C1023 1.463 . S
C1026 N1030 1.427 . S
C1027 H1017 0.929 . S
C1027 C1025 1.433 . S
C1027 N1030 1.384 . S
C1028 H1019 0.929 . S
C1028 C1020 1.378 . S
C1028 C1023 1.350 . S
C1029 H1016 0.929 . S
C1029 C1021 1.433 . S
C1029 N1031 1.384 . S
N1030 C1026 1.427 . S
N1030 C1027 1.384 . S
N1031 C1023 1.427 . S
N1031 C1029 1.384 . S
H1032 C1038 0.930 . S
H1033 C1042 0.930 . S
H1034 C1047 0.929 . S
H1035 C1045 0.929 . S
H1036 C1040 0.929 1_655 S
H1037 C1046 0.929 1_455 S
C1038 H1032 0.930 . S
C1038 C1039 1.367 . S
C1038 C1046 1.378 . S
C1039 C1038 1.367 . S
C1039 C1047 1.433 . S
C1040 H1036 0.929 1_455 S
C1040 C1042 1.378 . S
C1040 C1044 1.350 . S
C1041 C1044 1.463 1_655 S
C1041 C1046 1.350 . S
C1041 N1049 1.427 . S
C1042 H1033 0.930 . S
C1042 C1040 1.378 . S
C1042 C1043 1.367 . S
C1043 C1042 1.367 . S
C1043 C1045 1.433 . S
C1044 C1040 1.350 . S
C1044 C1041 1.463 1_455 S
C1044 N1048 1.427 . S
C1045 H1035 0.929 . S
C1045 C1043 1.433 . S
C1045 N1048 1.384 . S
C1046 H1037 0.929 1_655 S
C1046 C1038 1.378 . S
C1046 C1041 1.350 . S
C1047 H1034 0.929 . S
C1047 C1039 1.433 . S
C1047 N1049 1.384 . S
N1048 C1044 1.427 . S
N1048 C1045 1.384 . S
N1049 C1041 1.427 . S
N1049 C1047 1.384 . S
H1050 C1056 0.930 . S
H1051 C1060 0.930 . S
H1052 C1065 0.929 . S
H1053 C1063 0.929 . S
H1054 C1058 0.929 . S
H1055 C1064 0.929 . S
C1056 H1050 0.930 . S
C1056 C1057 1.367 . S
C1056 C1064 1.378 . S
C1057 C1056 1.367 . S
C1057 C1065 1.433 . S
C1058 H1054 0.929 . S
C1058 C1060 1.378 . S
C1058 C1062 1.350 . S
C1059 C1062 1.463 1_545 S
C1059 C1064 1.350 . S
C1059 N1067 1.427 . S
C1060 H1051 0.930 . S
C1060 C1058 1.378 . S
C1060 C1061 1.367 . S
C1061 C1060 1.367 . S
C1061 C1063 1.433 . S
C1062 C1058 1.350 . S
C1062 C1059 1.463 1_565 S
C1062 N1066 1.427 . S
C1063 H1053 0.929 . S
C1063 C1061 1.433 . S
C1063 N1066 1.384 . S
C1064 H1055 0.929 . S
C1064 C1056 1.378 . S
C1064 C1059 1.350 . S
C1065 H1052 0.929 . S
C1065 C1057 1.433 . S
C1065 N1067 1.384 . S
N1066 C1062 1.427 . S
N1066 C1063 1.384 . S
N1067 C1059 1.427 . S
N1067 C1065 1.384 . S
H1068 C1074 0.930 . S
H1069 C1078 0.930 . S
H1070 C1083 0.929 . S
H1071 C1081 0.929 . S
H1072 C1076 0.929 1_565 S
H1073 C1082 0.929 1_545 S
C1074 H1068 0.930 . S
C1074 C1075 1.367 . S
C1074 C1082 1.378 . S
C1075 C1074 1.367 . S
C1075 C1083 1.433 . S
C1076 H1072 0.929 1_545 S
C1076 C1078 1.378 . S
C1076 C1080 1.350 . S
C1077 C1080 1.463 1_665 S
C1077 C1082 1.350 . S
C1077 N1085 1.427 . S
C1078 H1069 0.930 . S
C1078 C1076 1.378 . S
C1078 C1079 1.367 . S
C1079 C1078 1.367 . S
C1079 C1081 1.433 . S
C1080 C1076 1.350 . S
C1080 C1077 1.463 1_445 S
C1080 N1084 1.427 . S
C1081 H1071 0.929 . S
C1081 C1079 1.433 . S
C1081 N1084 1.384 . S
C1082 H1073 0.929 1_565 S
C1082 C1074 1.378 . S
C1082 C1077 1.350 . S
C1083 H1070 0.929 . S
C1083 C1075 1.433 . S
C1083 N1085 1.384 . S
N1084 C1080 1.427 . S
N1084 C1081 1.384 . S
N1085 C1077 1.427 . S
N1085 C1083 1.384 . S
H1086 C1092 0.930 . S
H1087 C1096 0.930 . S
H1088 C1101 0.929 . S
H1089 C1099 0.929 . S
H1090 C1094 0.929 1_655 S
H1091 C1100 0.929 1_455 S
C1092 H1086 0.930 . S
C1092 C1093 1.367 . S
C1092 C1100 1.378 . S
C1093 C1092 1.367 . S
C1093 C1101 1.433 . S
C1094 H1090 0.929 1_455 S
C1094 C1096 1.378 . S
C1094 C1098 1.350 . S
C1095 C1098 1.463 1_645 S
C1095 C1100 1.350 . S
C1095 N1103 1.427 . S
C1096 H1087 0.930 . S
C1096 C1094 1.378 . S
C1096 C1097 1.367 . S
C1097 C1096 1.367 . S
C1097 C1099 1.433 . S
C1098 C1094 1.350 . S
C1098 C1095 1.463 1_465 S
C1098 N1102 1.427 . S
C1099 H1089 0.929 . S
C1099 C1097 1.433 . S
C1099 N1102 1.384 . S
C1100 H1091 0.929 1_655 S
C1100 C1092 1.378 . S
C1100 C1095 1.350 . S
C1101 H1088 0.929 . S
C1101 C1093 1.433 . S
C1101 N1103 1.384 . S
N1102 C1098 1.427 . S
N1102 C1099 1.384 . S
N1103 C1095 1.427 . S
N1103 C1101 1.384 . S
H1104 C1110 0.930 . S
H1105 C1114 0.930 . S
H1106 C1119 0.929 . S
H1107 C1117 0.929 . S
H1108 C1112 0.929 . S
H1109 C1118 0.929 . S
C1110 H1104 0.930 . S
C1110 C1111 1.367 . S
C1110 C1118 1.378 . S
C1111 C1110 1.367 . S
C1111 C1119 1.433 . S
C1112 H1108 0.929 . S
C1112 C1114 1.378 . S
C1112 C1116 1.350 . S
C1113 C1116 1.463 . S
C1113 C1118 1.350 . S
C1113 N1121 1.427 . S
C1114 H1105 0.930 . S
C1114 C1112 1.378 . S
C1114 C1115 1.367 . S
C1115 C1114 1.367 . S
C1115 C1117 1.433 . S
C1116 C1112 1.350 . S
C1116 C1113 1.463 . S
C1116 N1120 1.427 . S
C1117 H1107 0.929 . S
C1117 C1115 1.433 . S
C1117 N1120 1.384 . S
C1118 H1109 0.929 . S
C1118 C1110 1.378 . S
C1118 C1113 1.350 . S
C1119 H1106 0.929 . S
C1119 C1111 1.433 . S
C1119 N1121 1.384 . S
N1120 C1116 1.427 . S
N1120 C1117 1.384 . S
N1121 C1113 1.427 . S
N1121 C1119 1.384 . S
H1122 C1128 0.930 . S
H1123 C1132 0.930 . S
H1124 C1137 0.929 . S
H1125 C1135 0.929 . S
H1126 C1130 0.929 . S
H1127 C1136 0.929 . S
C1128 H1122 0.930 . S
C1128 C1129 1.367 . S
C1128 C1136 1.378 . S
C1129 C1128 1.367 . S
C1129 C1137 1.433 . S
C1130 H1126 0.929 . S
C1130 C1132 1.378 . S
C1130 C1134 1.350 . S
C1131 C1134 1.463 . S
C1131 C1136 1.350 . S
C1131 N1139 1.427 . S
C1132 H1123 0.930 . S
C1132 C1130 1.378 . S
C1132 C1133 1.367 . S
C1133 C1132 1.367 . S
C1133 C1135 1.433 . S
C1134 C1130 1.350 . S
C1134 C1131 1.463 . S
C1134 N1138 1.427 . S
C1135 H1125 0.929 . S
C1135 C1133 1.433 . S
C1135 N1138 1.384 . S
C1136 H1127 0.929 . S
C1136 C1128 1.378 . S
C1136 C1131 1.350 . S
C1137 H1124 0.929 . S
C1137 C1129 1.433 . S
C1137 N1139 1.384 . S
N1138 C1134 1.427 . S
N1138 C1135 1.384 . S
N1139 C1131 1.427 . S
N1139 C1137 1.384 . S
H1140 C1146 0.930 . S
H1141 C1150 0.930 . S
H1142 C1155 0.929 . S
H1143 C1153 0.929 . S
H1144 C1148 0.929 . S
H1145 C1154 0.929 . S
C1146 H1140 0.930 . S
C1146 C1147 1.367 . S
C1146 C1154 1.378 . S
C1147 C1146 1.367 . S
C1147 C1155 1.433 . S
C1148 H1144 0.929 . S
C1148 C1150 1.378 . S
C1148 C1152 1.350 . S
C1149 C1152 1.463 . S
C1149 C1154 1.350 . S
C1149 N1157 1.427 . S
C1150 H1141 0.930 . S
C1150 C1148 1.378 . S
C1150 C1151 1.367 . S
C1151 C1150 1.367 . S
C1151 C1153 1.433 . S
C1152 C1148 1.350 . S
C1152 C1149 1.463 . S
C1152 N1156 1.427 . S
C1153 H1143 0.929 . S
C1153 C1151 1.433 . S
C1153 N1156 1.384 . S
C1154 H1145 0.929 . S
C1154 C1146 1.378 . S
C1154 C1149 1.350 . S
C1155 H1142 0.929 . S
C1155 C1147 1.433 . S
C1155 N1157 1.384 . S
N1156 C1152 1.427 . S
N1156 C1153 1.384 . S
N1157 C1149 1.427 . S
N1157 C1155 1.384 . S
H1158 C1164 0.930 . S
H1159 C1168 0.930 . S
H1160 C1173 0.929 . S
H1161 C1171 0.929 . S
H1162 C1166 0.929 . S
H1163 C1172 0.929 . S
C1164 H1158 0.930 . S
C1164 C1165 1.367 . S
C1164 C1172 1.378 . S
C1165 C1164 1.367 . S
C1165 C1173 1.433 . S
C1166 H1162 0.929 . S
C1166 C1168 1.378 . S
C1166 C1170 1.350 . S
C1167 C1170 1.463 . S
C1167 C1172 1.350 . S
C1167 N1175 1.427 . S
C1168 H1159 0.930 . S
C1168 C1166 1.378 . S
C1168 C1169 1.367 . S
C1169 C1168 1.367 . S
C1169 C1171 1.433 . S
C1170 C1166 1.350 . S
C1170 C1167 1.463 . S
C1170 N1174 1.427 . S
C1171 H1161 0.929 . S
C1171 C1169 1.433 . S
C1171 N1174 1.384 . S
C1172 H1163 0.929 . S
C1172 C1164 1.378 . S
C1172 C1167 1.350 . S
C1173 H1160 0.929 . S
C1173 C1165 1.433 . S
C1173 N1175 1.384 . S
N1174 C1170 1.427 . S
N1174 C1171 1.384 . S
N1175 C1167 1.427 . S
N1175 C1173 1.384 . S
H1176 C1182 0.930 . S
H1177 C1186 0.930 . S
H1178 C1191 0.929 . S
H1179 C1189 0.929 . S
H1180 C1184 0.929 . S
H1181 C1190 0.929 . S
C1182 H1176 0.930 . S
C1182 C1183 1.367 . S
C1182 C1190 1.378 . S
C1183 C1182 1.367 . S
C1183 C1191 1.433 . S
C1184 H1180 0.929 . S
C1184 C1186 1.378 . S
C1184 C1188 1.350 . S
C1185 C1188 1.463 . S
C1185 C1190 1.350 . S
C1185 N1193 1.427 . S
C1186 H1177 0.930 . S
C1186 C1184 1.378 . S
C1186 C1187 1.367 . S
C1187 C1186 1.367 . S
C1187 C1189 1.433 . S
C1188 C1184 1.350 . S
C1188 C1185 1.463 . S
C1188 N1192 1.427 . S
C1189 H1179 0.929 . S
C1189 C1187 1.433 . S
C1189 N1192 1.384 . S
C1190 H1181 0.929 . S
C1190 C1182 1.378 . S
C1190 C1185 1.350 . S
C1191 H1178 0.929 . S
C1191 C1183 1.433 . S
C1191 N1193 1.384 . S
N1192 C1188 1.427 . S
N1192 C1189 1.384 . S
N1193 C1185 1.427 . S
N1193 C1191 1.384 . S
H1194 C1200 0.930 . S
H1195 C1204 0.930 . S
H1196 C1209 0.929 . S
H1197 C1207 0.929 . S
H1198 C1202 0.929 . S
H1199 C1208 0.929 . S
C1200 H1194 0.930 . S
C1200 C1201 1.367 . S
C1200 C1208 1.378 . S
C1201 C1200 1.367 . S
C1201 C1209 1.433 . S
C1202 H1198 0.929 . S
C1202 C1204 1.378 . S
C1202 C1206 1.350 . S
C1203 C1206 1.463 . S
C1203 C1208 1.350 . S
C1203 N1211 1.427 . S
C1204 H1195 0.930 . S
C1204 C1202 1.378 . S
C1204 C1205 1.367 . S
C1205 C1204 1.367 . S
C1205 C1207 1.433 . S
C1206 C1202 1.350 . S
C1206 C1203 1.463 . S
C1206 N1210 1.427 . S
C1207 H1197 0.929 . S
C1207 C1205 1.433 . S
C1207 N1210 1.384 . S
C1208 H1199 0.929 . S
C1208 C1200 1.378 . S
C1208 C1203 1.350 . S
C1209 H1196 0.929 . S
C1209 C1201 1.433 . S
C1209 N1211 1.384 . S
N1210 C1206 1.427 . S
N1210 C1207 1.384 . S
N1211 C1203 1.427 . S
N1211 C1209 1.384 . S
H1212 C1218 0.930 . S
H1213 C1222 0.930 . S
H1214 C1227 0.929 . S
H1215 C1225 0.929 . S
H1216 C1220 0.929 . S
H1217 C1226 0.929 . S
C1218 H1212 0.930 . S
C1218 C1219 1.367 . S
C1218 C1226 1.378 . S
C1219 C1218 1.367 . S
C1219 C1227 1.433 . S
C1220 H1216 0.929 . S
C1220 C1222 1.378 . S
C1220 C1224 1.350 . S
C1221 C1224 1.463 . S
C1221 C1226 1.350 . S
C1221 N1229 1.427 . S
C1222 H1213 0.930 . S
C1222 C1220 1.378 . S
C1222 C1223 1.367 . S
C1223 C1222 1.367 . S
C1223 C1225 1.433 . S
C1224 C1220 1.350 . S
C1224 C1221 1.463 . S
C1224 N1228 1.427 . S
C1225 H1215 0.929 . S
C1225 C1223 1.433 . S
C1225 N1228 1.384 . S
C1226 H1217 0.929 . S
C1226 C1218 1.378 . S
C1226 C1221 1.350 . S
C1227 H1214 0.929 . S
C1227 C1219 1.433 . S
C1227 N1229 1.384 . S
N1228 C1224 1.427 . S
N1228 C1225 1.384 . S
N1229 C1221 1.427 . S
N1229 C1227 1.384 . S
H1230 C1236 0.930 . S
H1231 C1240 0.930 . S
H1232 C1245 0.929 . S
H1233 C1243 0.929 . S
H1234 C1238 0.929 . S
H1235 C1244 0.929 . S
C1236 H1230 0.930 . S
C1236 C1237 1.367 . S
C1236 C1244 1.378 . S
C1237 C1236 1.367 . S
C1237 C1245 1.433 . S
C1238 H1234 0.929 . S
C1238 C1240 1.378 . S
C1238 C1242 1.350 . S
C1239 C1242 1.463 . S
C1239 C1244 1.350 . S
C1239 N1247 1.427 . S
C1240 H1231 0.930 . S
C1240 C1238 1.378 . S
C1240 C1241 1.367 . S
C1241 C1240 1.367 . S
C1241 C1243 1.433 . S
C1242 C1238 1.350 . S
C1242 C1239 1.463 . S
C1242 N1246 1.427 . S
C1243 H1233 0.929 . S
C1243 C1241 1.433 . S
C1243 N1246 1.384 . S
C1244 H1235 0.929 . S
C1244 C1236 1.378 . S
C1244 C1239 1.350 . S
C1245 H1232 0.929 . S
C1245 C1237 1.433 . S
C1245 N1247 1.384 . S
N1246 C1242 1.427 . S
N1246 C1243 1.384 . S
N1247 C1239 1.427 . S
N1247 C1245 1.384 . S
C535 C28 1.370 . S
C539 C490 1.385 . S
C553 C61 1.383 . S
C557 C523 1.390 . S
C571 C94 1.386 . S
C575 C424 1.382 . S
C589 C127 1.386 . S
C593 C457 1.385 . S
C607 C160 1.302 . S
C611 C358 1.312 . S
C625 C193 1.297 . S
C629 C391 1.302 . S
C643 C292 1.297 . S
C647 C226 1.301 . S
C661 C325 1.294 . S
C665 C259 1.307 . S
C679 C8 1.421 . S
C683 N38 1.381 . S
C697 C41 1.421 . S
C701 N71 1.383 . S
C715 C74 1.421 . S
C719 N104 1.383 . S
C733 N5 1.390 . S
C737 C107 1.419 . S
C751 N500 1.385 . S
C755 C140 1.428 . S
C769 N401 1.380 . S
C773 C173 1.429 . S
C787 N434 1.392 . S
C791 C206 1.427 . S
C805 N467 1.388 . S
C809 C239 1.428 . S
C823 C272 1.438 . S
C827 N302 1.394 . S
C841 C305 1.440 . S
C845 N335 1.390 . S
C859 N368 1.394 . S
C863 C338 1.439 . S
C877 C371 1.439 . S
C881 N269 1.393 . S
C895 C404 1.435 . S
C899 N236 1.387 . S
C913 N137 1.391 . S
C917 C437 1.434 . S
C931 N170 1.398 . S
C935 C470 1.433 . S
C949 C503 1.434 . S
C953 N203 1.392 . S
C967 N14 1.685 . S
C971 N80 1.684 . S
C985 N47 1.687 . S
C989 N113 1.688 . S
C1003 N212 1.728 . S
C1007 N146 1.727 . S
C1021 N245 1.726 . S
C1025 N179 1.728 . S
C1039 N278 1.695 . S
C1043 N344 1.694 . S
C1057 N311 1.696 . S
C1061 N377 1.697 . S
C1075 N410 1.733 . S
C1079 N476 1.731 . S
C1093 N443 1.731 . S
C1097 N509 1.732 . S
C1111 C149 1.150 . S
C1115 C17 1.155 . S
C1129 C182 1.154 . S
C1133 C50 1.140 . S
C1147 C83 1.150 . S
C1151 C215 1.153 . S
C1165 C248 1.154 . S
C1169 C116 1.140 . S
C1183 C281 1.221 . S
C1187 C413 1.230 . S
C1201 C446 1.226 . S
C1205 C314 1.217 . S
C1219 C479 1.222 . S
C1223 C347 1.231 . S
C1237 C380 1.225 . S
C1241 C512 1.230 . S
