# Generated by pormake.
# Topology afi, (4)-cn, num edge types: 1
# Building blocks:
#     Node 0, Type 0, BuildingBlock: AZAVOO_clean_sbu_0, # of connection points: 4
#     Node 1, Type 0, BuildingBlock: AZAVOO_clean_sbu_0, # of connection points: 4
#     Node 2, Type 0, BuildingBlock: AZAVOO_clean_sbu_0, # of connection points: 4
#     Node 3, Type 0, BuildingBlock: AZAVOO_clean_sbu_0, # of connection points: 4
#     Node 4, Type 0, BuildingBlock: AZAVOO_clean_sbu_0, # of connection points: 4
#     Node 5, Type 0, BuildingBlock: AZAVOO_clean_sbu_0, # of connection points: 4
#     Node 6, Type 0, BuildingBlock: AZAVOO_clean_sbu_0, # of connection points: 4
#     Node 7, Type 0, BuildingBlock: AZAVOO_clean_sbu_0, # of connection points: 4
#     Node 8, Type 0, BuildingBlock: AZAVOO_clean_sbu_0, # of connection points: 4
#     Node 9, Type 0, BuildingBlock: AZAVOO_clean_sbu_0, # of connection points: 4
#     Node 10, Type 0, BuildingBlock: AZAVOO_clean_sbu_0, # of connection points: 4
#     Node 11, Type 0, BuildingBlock: AZAVOO_clean_sbu_0, # of connection points: 4
#     Node 12, Type 0, BuildingBlock: AZAVOO_clean_sbu_0, # of connection points: 4
#     Node 13, Type 0, BuildingBlock: AZAVOO_clean_sbu_0, # of connection points: 4
#     Node 14, Type 0, BuildingBlock: AZAVOO_clean_sbu_0, # of connection points: 4
#     Node 15, Type 0, BuildingBlock: AZAVOO_clean_sbu_0, # of connection points: 4
#     Node 16, Type 0, BuildingBlock: AZAVOO_clean_sbu_0, # of connection points: 4
#     Node 17, Type 0, BuildingBlock: AZAVOO_clean_sbu_0, # of connection points: 4
#     Node 18, Type 0, BuildingBlock: AZAVOO_clean_sbu_0, # of connection points: 4
#     Node 19, Type 0, BuildingBlock: AZAVOO_clean_sbu_0, # of connection points: 4
#     Node 20, Type 0, BuildingBlock: AZAVOO_clean_sbu_0, # of connection points: 4
#     Node 21, Type 0, BuildingBlock: AZAVOO_clean_sbu_0, # of connection points: 4
#     Node 22, Type 0, BuildingBlock: AZAVOO_clean_sbu_0, # of connection points: 4
#     Node 23, Type 0, BuildingBlock: AZAVOO_clean_sbu_0, # of connection points: 4
#     Edge 24, Type (0, 0), BuildingBlock: KIFKEQ_clean_linker_1, # of connection points: 2
#     Edge 25, Type (0, 0), BuildingBlock: KIFKEQ_clean_linker_1, # of connection points: 2
#     Edge 26, Type (0, 0), BuildingBlock: KIFKEQ_clean_linker_1, # of connection points: 2
#     Edge 27, Type (0, 0), BuildingBlock: KIFKEQ_clean_linker_1, # of connection points: 2
#     Edge 28, Type (0, 0), BuildingBlock: KIFKEQ_clean_linker_1, # of connection points: 2
#     Edge 29, Type (0, 0), BuildingBlock: KIFKEQ_clean_linker_1, # of connection points: 2
#     Edge 30, Type (0, 0), BuildingBlock: KIFKEQ_clean_linker_1, # of connection points: 2
#     Edge 31, Type (0, 0), BuildingBlock: KIFKEQ_clean_linker_1, # of connection points: 2
#     Edge 32, Type (0, 0), BuildingBlock: KIFKEQ_clean_linker_1, # of connection points: 2
#     Edge 33, Type (0, 0), BuildingBlock: KIFKEQ_clean_linker_1, # of connection points: 2
#     Edge 34, Type (0, 0), BuildingBlock: KIFKEQ_clean_linker_1, # of connection points: 2
#     Edge 35, Type (0, 0), BuildingBlock: KIFKEQ_clean_linker_1, # of connection points: 2
#     Edge 36, Type (0, 0), BuildingBlock: KIFKEQ_clean_linker_1, # of connection points: 2
#     Edge 37, Type (0, 0), BuildingBlock: KIFKEQ_clean_linker_1, # of connection points: 2
#     Edge 38, Type (0, 0), BuildingBlock: KIFKEQ_clean_linker_1, # of connection points: 2
#     Edge 39, Type (0, 0), BuildingBlock: KIFKEQ_clean_linker_1, # of connection points: 2
#     Edge 40, Type (0, 0), BuildingBlock: KIFKEQ_clean_linker_1, # of connection points: 2
#     Edge 41, Type (0, 0), BuildingBlock: KIFKEQ_clean_linker_1, # of connection points: 2
#     Edge 42, Type (0, 0), BuildingBlock: KIFKEQ_clean_linker_1, # of connection points: 2
#     Edge 43, Type (0, 0), BuildingBlock: KIFKEQ_clean_linker_1, # of connection points: 2
#     Edge 44, Type (0, 0), BuildingBlock: KIFKEQ_clean_linker_1, # of connection points: 2
#     Edge 45, Type (0, 0), BuildingBlock: KIFKEQ_clean_linker_1, # of connection points: 2
#     Edge 46, Type (0, 0), BuildingBlock: KIFKEQ_clean_linker_1, # of connection points: 2
#     Edge 47, Type (0, 0), BuildingBlock: KIFKEQ_clean_linker_1, # of connection points: 2
#     Edge 48, Type (0, 0), BuildingBlock: KIFKEQ_clean_linker_1, # of connection points: 2
#     Edge 49, Type (0, 0), BuildingBlock: KIFKEQ_clean_linker_1, # of connection points: 2
#     Edge 50, Type (0, 0), BuildingBlock: KIFKEQ_clean_linker_1, # of connection points: 2
#     Edge 51, Type (0, 0), BuildingBlock: KIFKEQ_clean_linker_1, # of connection points: 2
#     Edge 52, Type (0, 0), BuildingBlock: KIFKEQ_clean_linker_1, # of connection points: 2
#     Edge 53, Type (0, 0), BuildingBlock: KIFKEQ_clean_linker_1, # of connection points: 2
#     Edge 54, Type (0, 0), BuildingBlock: KIFKEQ_clean_linker_1, # of connection points: 2
#     Edge 55, Type (0, 0), BuildingBlock: KIFKEQ_clean_linker_1, # of connection points: 2
#     Edge 56, Type (0, 0), BuildingBlock: KIFKEQ_clean_linker_1, # of connection points: 2
#     Edge 57, Type (0, 0), BuildingBlock: KIFKEQ_clean_linker_1, # of connection points: 2
#     Edge 58, Type (0, 0), BuildingBlock: KIFKEQ_clean_linker_1, # of connection points: 2
#     Edge 59, Type (0, 0), BuildingBlock: KIFKEQ_clean_linker_1, # of connection points: 2
#     Edge 60, Type (0, 0), BuildingBlock: KIFKEQ_clean_linker_1, # of connection points: 2
#     Edge 61, Type (0, 0), BuildingBlock: KIFKEQ_clean_linker_1, # of connection points: 2
#     Edge 62, Type (0, 0), BuildingBlock: KIFKEQ_clean_linker_1, # of connection points: 2
#     Edge 63, Type (0, 0), BuildingBlock: KIFKEQ_clean_linker_1, # of connection points: 2
#     Edge 64, Type (0, 0), BuildingBlock: KIFKEQ_clean_linker_1, # of connection points: 2
#     Edge 65, Type (0, 0), BuildingBlock: KIFKEQ_clean_linker_1, # of connection points: 2
#     Edge 66, Type (0, 0), BuildingBlock: KIFKEQ_clean_linker_1, # of connection points: 2
#     Edge 67, Type (0, 0), BuildingBlock: KIFKEQ_clean_linker_1, # of connection points: 2
#     Edge 68, Type (0, 0), BuildingBlock: KIFKEQ_clean_linker_1, # of connection points: 2
#     Edge 69, Type (0, 0), BuildingBlock: KIFKEQ_clean_linker_1, # of connection points: 2
#     Edge 70, Type (0, 0), BuildingBlock: KIFKEQ_clean_linker_1, # of connection points: 2
#     Edge 71, Type (0, 0), BuildingBlock: KIFKEQ_clean_linker_1, # of connection points: 2
# Relax obj value: 0.097
# Max RMSD: 0.124
# Mean RMSD: 0.123
data_MOF--net-afi--node1-AZAVOO_clean_sbu_0--edge1-KIFKEQ_clean_linker_1
_symmetry_space_group_name_H-M    P1
_symmetry_Int_Tables_number       1
_symmetry_cell_setting            triclinic
loop_
_symmetry_equiv_pos_as_xyz
'x, y, z'
_cell_length_a     66.601974
_cell_length_b     66.607838
_cell_length_c     43.142843
_cell_angle_alpha  90.001614
_cell_angle_beta   89.97328
_cell_angle_gamma 120.01027
loop_
_atom_site_label
_atom_site_type_symbol
_atom_site_fract_x
_atom_site_fract_y
_atom_site_fract_z
_atom_type_partial_charge
Mg0 Mg 0.44209 0.11614 0.17305 0.0
O1 O 0.46967 0.10788 0.19255 0.0
O2 O 0.45951 0.07239 0.17524 0.0
Mg3 Mg 0.42727 0.05803 0.14542 0.0
C4 C 0.47309 0.09064 0.19049 0.0
C5 C 0.46868 0.15925 0.21653 0.0
O6 O 0.46532 0.14254 0.23575 0.0
O7 O 0.45989 0.1231 0.12555 0.0
O8 O 0.44887 0.08674 0.11114 0.0
O9 O 0.4183 0.09811 0.21331 0.0
O10 O 0.41799 0.08099 0.16948 0.0
C11 C 0.45969 0.10853 0.10603 0.0
C12 C 0.41016 0.07927 0.19712 0.0
O13 O 0.46276 0.15421 0.1883 0.0
Mg14 Mg 0.32322 0.44174 0.17573 0.0
O15 O 0.35681 0.47189 0.19673 0.0
O16 O 0.38618 0.46835 0.17763 0.0
Mg17 Mg 0.37244 0.43604 0.14793 0.0
C18 C 0.37849 0.47909 0.19381 0.0
C19 C 0.30129 0.46228 0.22049 0.0
O20 O 0.31528 0.45968 0.2394 0.0
O21 O 0.33262 0.46076 0.12893 0.0
O22 O 0.36138 0.4547 0.11402 0.0
O23 O 0.31973 0.41777 0.21463 0.0
O24 O 0.33897 0.42164 0.17141 0.0
C25 C 0.34801 0.46297 0.10929 0.0
C26 C 0.33262 0.41231 0.19832 0.0
O27 O 0.30154 0.45786 0.19183 0.0
Mg28 Mg 0.87473 0.32156 0.15869 0.0
O29 O 0.88038 0.35581 0.17998 0.0
O30 O 0.91496 0.38376 0.16302 0.0
Mg31 Mg 0.93272 0.36807 0.13511 0.0
C32 C 0.89618 0.37712 0.17808 0.0
C33 C 0.83111 0.29907 0.20073 0.0
O34 O 0.84801 0.30818 0.22111 0.0
O35 O 0.86859 0.33292 0.11079 0.0
O36 O 0.90525 0.35874 0.09821 0.0
O37 O 0.89245 0.31565 0.1993 0.0
O38 O 0.91037 0.33456 0.15696 0.0
C39 C 0.88373 0.34706 0.09155 0.0
C40 C 0.91165 0.3276 0.18422 0.0
O41 O 0.83616 0.30266 0.17204 0.0
Mg42 Mg 0.55662 0.88309 0.16727 0.0
O43 O 0.5281 0.88824 0.19009 0.0
O44 O 0.53337 0.92225 0.17276 0.0
Mg45 Mg 0.56555 0.93992 0.14256 0.0
C46 C 0.52202 0.90364 0.18842 0.0
C47 C 0.53791 0.83999 0.21026 0.0
O48 O 0.54644 0.85705 0.23044 0.0
O49 O 0.53716 0.87558 0.12102 0.0
O50 O 0.54524 0.91134 0.10757 0.0
O51 O 0.58151 0.90183 0.20615 0.0
O52 O 0.57843 0.91879 0.16403 0.0
C53 C 0.53574 0.88964 0.10214 0.0
C54 C 0.58779 0.92071 0.19069 0.0
O55 O 0.53815 0.84478 0.18165 0.0
Mg56 Mg 0.67252 0.55688 0.17693 0.0
O57 O 0.63691 0.52868 0.19618 0.0
O58 O 0.61106 0.53826 0.17925 0.0
Mg59 Mg 0.62853 0.57087 0.15 0.0
C60 C 0.61609 0.52482 0.1942 0.0
C61 C 0.69021 0.53129 0.21991 0.0
O62 O 0.67734 0.53506 0.23949 0.0
O63 O 0.66204 0.53957 0.1292 0.0
O64 O 0.63625 0.55007 0.11504 0.0
O65 O 0.67786 0.58011 0.21763 0.0
O66 O 0.6609 0.58052 0.17399 0.0
C67 C 0.64762 0.53968 0.1097 0.0
C68 C 0.66693 0.58813 0.20173 0.0
O69 O 0.69037 0.53659 0.19154 0.0
Mg70 Mg 0.12038 0.67053 0.16547 0.0
O71 O 0.11417 0.63627 0.18794 0.0
O72 O 0.08078 0.60806 0.1682 0.0
Mg73 Mg 0.06469 0.62321 0.13638 0.0
C74 C 0.09867 0.61488 0.18527 0.0
C75 C 0.16181 0.69029 0.21195 0.0
O76 O 0.14453 0.67651 0.23017 0.0
O77 O 0.13008 0.65978 0.11977 0.0
O78 O 0.0949 0.63228 0.10396 0.0
O79 O 0.10004 0.67572 0.20291 0.0
O80 O 0.08485 0.65667 0.15951 0.0
C81 C 0.11677 0.64458 0.10002 0.0
C82 C 0.08182 0.66343 0.1861 0.0
O83 O 0.1579 0.69058 0.18312 0.0
Mg84 Mg 0.88436 0.55061 0.30206 0.0
O85 O 0.88736 0.52011 0.28212 0.0
O86 O 0.92105 0.52447 0.29917 0.0
Mg87 Mg 0.94112 0.55869 0.32514 0.0
C88 C 0.90196 0.51307 0.28451 0.0
C89 C 0.8332 0.53874 0.30491 0.0
O90 O 0.8426 0.55349 0.32791 0.0
O91 O 0.87799 0.53446 0.35076 0.0
O92 O 0.9142 0.54357 0.36339 0.0
O93 O 0.90252 0.57291 0.26047 0.0
O94 O 0.92013 0.57138 0.30283 0.0
C95 C 0.89284 0.53521 0.37026 0.0
C96 C 0.92166 0.57955 0.27547 0.0
O97 O 0.84573 0.53264 0.28995 0.0
Mg98 Mg 0.33223 0.88251 0.31213 0.0
O99 O 0.36618 0.88743 0.29054 0.0
O100 O 0.39483 0.92115 0.30874 0.0
Mg101 Mg 0.38001 0.93904 0.33789 0.0
C102 C 0.38768 0.90261 0.29297 0.0
C103 C 0.29267 0.83154 0.30981 0.0
O104 O 0.28601 0.84028 0.33221 0.0
O105 O 0.34299 0.87469 0.35914 0.0
O106 O 0.37047 0.91038 0.37316 0.0
O107 O 0.32681 0.90143 0.27285 0.0
O108 O 0.34631 0.91824 0.31538 0.0
C109 C 0.35801 0.88871 0.37855 0.0
C110 C 0.33911 0.92025 0.28858 0.0
O111 O 0.3123 0.84436 0.29719 0.0
Mg112 Mg 0.44775 0.32994 0.31033 0.0
O113 O 0.47529 0.3655 0.29006 0.0
O114 O 0.46554 0.39116 0.30727 0.0
Mg115 Mg 0.43357 0.37372 0.33772 0.0
C116 C 0.47886 0.38623 0.29186 0.0
C117 C 0.4631 0.29365 0.30924 0.0
O118 O 0.44875 0.28749 0.33286 0.0
O119 O 0.46588 0.34101 0.35755 0.0
O120 O 0.45519 0.36661 0.37197 0.0
O121 O 0.42351 0.32385 0.27053 0.0
O122 O 0.42381 0.34117 0.31415 0.0
C123 C 0.46589 0.3555 0.37703 0.0
C124 C 0.41553 0.33466 0.28679 0.0
O125 O 0.46819 0.31234 0.29502 0.0
Mg126 Mg 0.10585 0.43926 0.30953 0.0
O127 O 0.10286 0.46962 0.28922 0.0
O128 O 0.06934 0.46556 0.30654 0.0
Mg129 Mg 0.04916 0.43134 0.33267 0.0
C130 C 0.0884 0.47684 0.29173 0.0
C131 C 0.15672 0.44993 0.31034 0.0
O132 O 0.14715 0.43412 0.33214 0.0
O133 O 0.11225 0.45608 0.35766 0.0
O134 O 0.07604 0.44675 0.371 0.0
O135 O 0.08789 0.41668 0.26832 0.0
O136 O 0.07 0.41845 0.31029 0.0
C137 C 0.09752 0.45541 0.37732 0.0
C138 C 0.06864 0.41014 0.28303 0.0
O139 O 0.14446 0.45714 0.29708 0.0
Mg140 Mg 0.66526 0.11406 0.31076 0.0
O141 O 0.63029 0.10588 0.28858 0.0
O142 O 0.60438 0.07005 0.30411 0.0
Mg143 Mg 0.6213 0.05513 0.33487 0.0
C144 C 0.60959 0.08859 0.28922 0.0
C145 C 0.68624 0.15698 0.26773 0.0
O146 O 0.67754 0.13974 0.24784 0.0
O147 O 0.6522 0.11961 0.35742 0.0
O148 O 0.62691 0.08282 0.37019 0.0
O149 O 0.67339 0.09718 0.2713 0.0
O150 O 0.65457 0.07892 0.31356 0.0
C151 C 0.63742 0.1045 0.37611 0.0
C152 C 0.66231 0.07799 0.28666 0.0
O153 O 0.68255 0.15237 0.29651 0.0
Mg154 Mg 0.54915 0.66699 0.31803 0.0
O155 O 0.51974 0.63378 0.29538 0.0
O156 O 0.52378 0.60439 0.31311 0.0
Mg157 Mg 0.55614 0.61791 0.3427 0.0
C158 C 0.51286 0.61213 0.29743 0.0
C159 C 0.53205 0.69281 0.27524 0.0
O160 O 0.53973 0.68345 0.25507 0.0
O161 O 0.52988 0.65571 0.36448 0.0
O162 O 0.53707 0.62746 0.37812 0.0
O163 O 0.5739 0.67256 0.2792 0.0
O164 O 0.57 0.65199 0.32104 0.0
C165 C 0.52821 0.64023 0.38357 0.0
C166 C 0.57972 0.65958 0.29458 0.0
O167 O 0.53206 0.68818 0.30386 0.0
Mg168 Mg 0.54002 0.87308 0.81428 0.0
O169 O 0.50459 0.86057 0.79162 0.0
O170 O 0.48178 0.82325 0.80388 0.0
Mg171 Mg 0.50269 0.81126 0.8324 0.0
C172 C 0.48505 0.8418 0.79068 0.0
C173 C 0.57222 0.92141 0.79343 0.0
O174 O 0.58394 0.91036 0.79423 0.0
O175 O 0.52451 0.87322 0.86145 0.0
O176 O 0.50423 0.83512 0.87148 0.0
O177 O 0.5527 0.8619 0.77353 0.0
O178 O 0.53505 0.83978 0.81401 0.0
C179 C 0.51175 0.85619 0.87935 0.0
C180 C 0.54457 0.8421 0.78737 0.0
O181 O 0.55124 0.91073 0.80253 0.0
Mg182 Mg 0.67405 0.54609 0.82118 0.0
O183 O 0.65117 0.51069 0.79855 0.0
O184 O 0.66469 0.4872 0.81177 0.0
Mg185 Mg 0.69694 0.50767 0.84162 0.0
C186 C 0.65001 0.49097 0.79777 0.0
C187 C 0.65379 0.57337 0.78989 0.0
O188 O 0.67541 0.58386 0.78032 0.0
O189 O 0.65766 0.53099 0.86823 0.0
O190 O 0.67428 0.50985 0.87955 0.0
O191 O 0.69822 0.5582 0.78069 0.0
O192 O 0.70194 0.54009 0.82124 0.0
C193 C 0.66107 0.51792 0.88662 0.0
C194 C 0.70912 0.54917 0.79432 0.0
O195 O 0.64708 0.55659 0.80887 0.0
Mg196 Mg 0.12579 0.67291 0.81562 0.0
O197 O 0.14074 0.65314 0.79034 0.0
O198 O 0.17871 0.66994 0.79973 0.0
Mg199 Mg 0.18848 0.70122 0.83086 0.0
C200 C 0.16023 0.65409 0.78707 0.0
C201 C 0.08468 0.6381 0.77559 0.0
O202 O 0.1018 0.64718 0.75551 0.0
O203 O 0.12807 0.65666 0.86129 0.0
O204 O 0.16646 0.67638 0.86928 0.0
O205 O 0.13475 0.6977 0.77608 0.0
O206 O 0.15793 0.70278 0.81553 0.0
C207 C 0.14592 0.66148 0.87778 0.0
C208 C 0.15464 0.71 0.78949 0.0
O209 O 0.08896 0.64415 0.80392 0.0
Mg210 Mg 0.46108 0.13116 0.81621 0.0
O211 O 0.49696 0.14241 0.79569 0.0
O212 O 0.52082 0.1791 0.8101 0.0
Mg213 Mg 0.50046 0.19194 0.83816 0.0
C214 C 0.517 0.16061 0.79617 0.0
C215 C 0.42877 0.08436 0.78966 0.0
O216 O 0.41852 0.09678 0.78728 0.0
O217 O 0.47422 0.12866 0.86421 0.0
O218 O 0.49591 0.16627 0.87621 0.0
O219 O 0.45095 0.14427 0.77488 0.0
O220 O 0.46848 0.16545 0.81613 0.0
C221 C 0.48699 0.14486 0.88316 0.0
C222 C 0.46016 0.16409 0.78883 0.0
O223 O 0.44832 0.0933 0.80323 0.0
Mg224 Mg 0.33238 0.45778 0.81845 0.0
O225 O 0.35663 0.4942 0.79942 0.0
O226 O 0.34042 0.51619 0.80752 0.0
Mg227 Mg 0.30605 0.4942 0.83275 0.0
C228 C 0.35688 0.51345 0.79728 0.0
C229 C 0.35318 0.42941 0.79502 0.0
O230 O 0.33103 0.41737 0.78811 0.0
O231 O 0.34411 0.47159 0.86752 0.0
O232 O 0.32575 0.49169 0.8745 0.0
O233 O 0.31216 0.44681 0.7741 0.0
O234 O 0.30453 0.46317 0.81354 0.0
C235 C 0.33859 0.48389 0.88444 0.0
C236 C 0.30012 0.45534 0.78572 0.0
O237 O 0.36042 0.44805 0.81046 0.0
Mg238 Mg 0.87441 0.33104 0.80264 0.0
O239 O 0.86278 0.35466 0.78016 0.0
O240 O 0.82434 0.33813 0.78629 0.0
Mg241 Mg 0.8111 0.3037 0.81184 0.0
C242 C 0.84372 0.35462 0.77653 0.0
C243 C 0.92471 0.34966 0.79017 0.0
O244 O 0.91461 0.32692 0.78998 0.0
O245 O 0.86987 0.34329 0.85025 0.0
O246 O 0.83115 0.32315 0.85527 0.0
O247 O 0.86769 0.31013 0.75924 0.0
O248 O 0.84172 0.30283 0.79595 0.0
C249 C 0.85136 0.33681 0.8661 0.0
C250 C 0.84664 0.29795 0.76925 0.0
O251 O 0.91252 0.35883 0.79713 0.0
Mg252 Mg 0.13201 0.46233 0.66821 0.0
O253 O 0.14404 0.49881 0.68687 0.0
O254 O 0.18027 0.52211 0.67027 0.0
Mg255 Mg 0.19238 0.50067 0.6432 0.0
C256 C 0.16221 0.5188 0.68493 0.0
C257 C 0.08633 0.43272 0.70051 0.0
O258 O 0.09921 0.42336 0.70638 0.0
O259 O 0.12841 0.47407 0.61959 0.0
O260 O 0.16582 0.4943 0.6058 0.0
O261 O 0.14631 0.45334 0.70952 0.0
O262 O 0.16627 0.46938 0.66694 0.0
C263 C 0.1443 0.48549 0.59956 0.0
C264 C 0.16565 0.46178 0.69449 0.0
O265 O 0.09445 0.45031 0.6827 0.0
Mg266 Mg 0.67143 0.12555 0.66064 0.0
O267 O 0.65048 0.13926 0.68605 0.0
O268 O 0.66347 0.17583 0.67118 0.0
Mg269 Mg 0.69303 0.18609 0.63694 0.0
C270 C 0.64967 0.158 0.68697 0.0
C271 C 0.65522 0.08021 0.69497 0.0
O272 O 0.67772 0.0923 0.69943 0.0
O273 O 0.6513 0.12224 0.6161 0.0
O274 O 0.66711 0.15967 0.60296 0.0
O275 O 0.69902 0.13984 0.69717 0.0
O276 O 0.69943 0.15916 0.65548 0.0
C277 C 0.65329 0.13818 0.59761 0.0
C278 C 0.70903 0.15876 0.68111 0.0
O279 O 0.64583 0.08874 0.67777 0.0
Mg280 Mg 0.54772 0.67189 0.66889 0.0
O281 O 0.51292 0.65015 0.69335 0.0
O282 O 0.4903 0.66553 0.68496 0.0
Mg283 Mg 0.51026 0.69674 0.65309 0.0
C284 C 0.49392 0.65015 0.69708 0.0
C285 C 0.55652 0.63848 0.70869 0.0
O286 O 0.54804 0.64687 0.72917 0.0
O287 O 0.53016 0.65512 0.62309 0.0
O288 O 0.50912 0.67238 0.61495 0.0
O289 O 0.56174 0.69682 0.70875 0.0
O290 O 0.54321 0.70042 0.66864 0.0
C291 C 0.51621 0.65858 0.60655 0.0
C292 C 0.55316 0.70809 0.69489 0.0
O293 O 0.55782 0.64458 0.68047 0.0
Mg294 Mg 0.87625 0.54937 0.66205 0.0
O295 O 0.86343 0.51309 0.6816 0.0
O296 O 0.82541 0.49125 0.67218 0.0
Mg297 Mg 0.81361 0.51362 0.64648 0.0
C298 C 0.84437 0.49387 0.6832 0.0
C299 C 0.92503 0.57662 0.68747 0.0
O300 O 0.91495 0.58857 0.69508 0.0
O301 O 0.87451 0.53491 0.61344 0.0
O302 O 0.83612 0.51606 0.60509 0.0
O303 O 0.86684 0.56092 0.70578 0.0
O304 O 0.84306 0.54449 0.66625 0.0
C305 C 0.85687 0.52326 0.59597 0.0
C306 C 0.84638 0.55259 0.69394 0.0
O307 O 0.9138 0.55855 0.6709 0.0
Mg308 Mg 0.32785 0.87777 0.6665 0.0
O309 O 0.34926 0.86387 0.69021 0.0
O310 O 0.3333 0.82623 0.67883 0.0
Mg311 Mg 0.30125 0.81555 0.64902 0.0
C312 C 0.34898 0.84459 0.69194 0.0
C313 C 0.3457 0.92575 0.69021 0.0
O314 O 0.32293 0.91515 0.69062 0.0
O315 O 0.34396 0.87709 0.61989 0.0
O316 O 0.32514 0.83885 0.6107 0.0
O317 O 0.30349 0.86727 0.70677 0.0
O318 O 0.29862 0.84498 0.66637 0.0
C319 C 0.33945 0.85968 0.60261 0.0
C320 C 0.29145 0.84755 0.6929 0.0
O321 O 0.35532 0.915 0.67893 0.0
Mg322 Mg 0.45949 0.33397 0.66703 0.0
O323 O 0.49553 0.35702 0.6881 0.0
O324 O 0.51806 0.34212 0.67601 0.0
Mg325 Mg 0.49648 0.30905 0.64807 0.0
C326 C 0.51499 0.35761 0.68898 0.0
C327 C 0.45201 0.36857 0.70585 0.0
O328 O 0.46242 0.36178 0.7256 0.0
O329 O 0.47411 0.34872 0.61907 0.0
O330 O 0.49441 0.33098 0.60896 0.0
O331 O 0.44751 0.31119 0.70893 0.0
O332 O 0.4651 0.3061 0.6687 0.0
C333 C 0.4867 0.34434 0.60102 0.0
C334 C 0.45654 0.30001 0.69606 0.0
O335 O 0.44905 0.36112 0.67809 0.0
H336 H 0.39556 0.06845 0.25743 0.0
H337 H 0.38892 0.03775 0.16715 0.0
H338 H 0.37354 0.02984 0.28006 0.0
H339 H 0.36912 0.99954 0.18977 0.0
H340 H 0.3259 0.93058 0.23346 0.0
H341 H 0.33773 0.96889 0.21248 0.0
H342 H 0.37992 0.00029 0.29389 0.0
H343 H 0.36644 0.96239 0.31568 0.0
C344 C 0.38948 0.05347 0.24244 0.0
C345 C 0.3947 0.05618 0.21068 0.0
C346 C 0.37705 0.03129 0.25542 0.0
C347 C 0.36995 0.01137 0.23697 0.0
C348 C 0.3741 0.01425 0.20489 0.0
C349 C 0.38599 0.03633 0.1919 0.0
C350 C 0.33756 0.94573 0.2469 0.0
C351 C 0.34573 0.94338 0.27587 0.0
C352 C 0.34448 0.96775 0.23482 0.0
C353 C 0.36011 0.98791 0.25121 0.0
C354 C 0.36768 0.98538 0.28059 0.0
C355 C 0.36032 0.96345 0.2929 0.0
H356 H 0.39489 0.35541 0.31714 0.0
H357 H 0.39852 0.32856 0.22749 0.0
H358 H 0.37253 0.37133 0.29533 0.0
H359 H 0.37409 0.34273 0.20587 0.0
H360 H 0.36037 0.39887 0.1692 0.0
H361 H 0.37733 0.37727 0.19045 0.0
H362 H 0.33864 0.36688 0.27532 0.0
H363 H 0.32327 0.39053 0.25472 0.0
C364 C 0.39081 0.35279 0.2927 0.0
C365 C 0.39927 0.34148 0.2738 0.0
C366 C 0.37745 0.36154 0.28024 0.0
C367 C 0.37159 0.35865 0.24863 0.0
C368 C 0.37879 0.34594 0.23012 0.0
C369 C 0.39264 0.3376 0.24253 0.0
C370 C 0.35575 0.39237 0.19259 0.0
C371 C 0.34111 0.39719 0.21065 0.0
C372 C 0.36513 0.37944 0.20462 0.0
C373 C 0.35961 0.37036 0.23482 0.0
C374 C 0.34387 0.37409 0.25229 0.0
C375 C 0.33489 0.38754 0.24044 0.0
H376 H 0.95394 0.3507 0.15632 0.0
H377 H 0.92118 0.32083 0.24392 0.0
H378 H 0.99162 0.36787 0.18041 0.0
H379 H 0.95928 0.33637 0.26781 0.0
H380 H 0.02601 0.39456 0.30887 0.0
H381 H 0.98855 0.37175 0.285 0.0
H382 H 0.02151 0.36489 0.20239 0.0
H383 H 0.05943 0.38967 0.2257 0.0
C384 C 0.95478 0.34768 0.18078 0.0
C385 C 0.9345 0.33515 0.19847 0.0
C386 C 0.97655 0.35716 0.19455 0.0
C387 C 0.97868 0.35386 0.22628 0.0
C388 C 0.95836 0.33991 0.24352 0.0
C389 C 0.93649 0.3308 0.22981 0.0
C390 C 0.0254 0.38858 0.28543 0.0
C391 C 0.0458 0.39465 0.26882 0.0
C392 C 0.00373 0.37495 0.27189 0.0
C393 C 0.0018 0.36645 0.24158 0.0
C394 C 0.02225 0.37157 0.22548 0.0
C395 C 0.04403 0.38568 0.23887 0.0
H396 H 0.60385 0.96278 0.1629 0.0
H397 H 0.60823 0.93109 0.24804 0.0
H398 H 0.62539 0.00066 0.18617 0.0
H399 H 0.63185 0.96943 0.27077 0.0
H400 H 0.64073 0.03572 0.31482 0.0
H401 H 0.62643 0.99819 0.29123 0.0
H402 H 0.6592 0.03131 0.20472 0.0
H403 H 0.67176 0.06912 0.22798 0.0
C404 C 0.60952 0.96389 0.18662 0.0
C405 C 0.6035 0.94383 0.20401 0.0
C406 C 0.62242 0.9858 0.19984 0.0
C407 C 0.63024 0.98831 0.23061 0.0
C408 C 0.62557 0.96823 0.24733 0.0
C409 C 0.61216 0.94621 0.23425 0.0
C410 C 0.64464 0.03507 0.29065 0.0
C411 C 0.65659 0.05541 0.27296 0.0
C412 C 0.63683 0.01341 0.27719 0.0
C413 C 0.64132 0.0115 0.24581 0.0
C414 C 0.65477 0.03199 0.22869 0.0
C415 C 0.66216 0.05372 0.24206 0.0
H416 H 0.60384 0.67328 0.23997 0.0
H417 H 0.5934 0.63113 0.32107 0.0
H418 H 0.62994 0.66104 0.21877 0.0
H419 H 0.61761 0.61741 0.29905 0.0
H420 H 0.67053 0.60213 0.26228 0.0
H421 H 0.65392 0.62399 0.28542 0.0
H422 H 0.62813 0.62913 0.19543 0.0
H423 H 0.64637 0.6093 0.17233 0.0
C424 C 0.60689 0.6612 0.25312 0.0
C425 C 0.596 0.65269 0.28183 0.0
C426 C 0.62178 0.65407 0.24092 0.0
C427 C 0.62576 0.63793 0.25693 0.0
C428 C 0.61532 0.63003 0.28608 0.0
C429 C 0.60091 0.63755 0.29851 0.0
C430 C 0.66162 0.60831 0.24747 0.0
C431 C 0.65913 0.60334 0.21564 0.0
C432 C 0.65189 0.62066 0.26073 0.0
C433 C 0.63916 0.62797 0.24248 0.0
C434 C 0.63783 0.62399 0.21036 0.0
C435 C 0.64794 0.61211 0.19711 0.0
H436 H 0.04082 0.63794 0.15545 0.0
H437 H 0.06923 0.67164 0.24303 0.0
H438 H 0.00206 0.62039 0.17658 0.0
H439 H 0.03011 0.65566 0.26361 0.0
H440 H 0.96357 0.59712 0.30371 0.0
H441 H 0.00153 0.62004 0.28133 0.0
H442 H 0.97041 0.62275 0.19455 0.0
H443 H 0.93194 0.59792 0.21668 0.0
C444 C 0.0388 0.64172 0.17923 0.0
C445 C 0.05819 0.65543 0.19795 0.0
C446 C 0.01642 0.63199 0.19122 0.0
C447 C 0.01281 0.63622 0.22205 0.0
C448 C 0.0322 0.65138 0.24007 0.0
C449 C 0.05466 0.66071 0.22823 0.0
C450 C 0.9647 0.60223 0.27971 0.0
C451 C 0.94467 0.59504 0.2617 0.0
C452 C 0.98663 0.61592 0.26698 0.0
C453 C 0.98923 0.62335 0.23602 0.0
C454 C 0.96914 0.61699 0.2183 0.0
C455 C 0.94706 0.60286 0.23098 0.0
H456 H 0.55316 0.94949 0.78486 0.0
H457 H 0.61617 0.94693 0.77171 0.0
H458 H 0.57199 0.9884 0.76178 0.0
H459 H 0.63452 0.98504 0.74832 0.0
H460 H 0.67026 0.06182 0.73907 0.0
H461 H 0.64903 0.02442 0.76425 0.0
H462 H 0.58781 0.00911 0.71166 0.0
H463 H 0.60915 0.04728 0.68672 0.0
C464 C 0.57097 0.95721 0.77713 0.0
C465 C 0.5832 0.94516 0.78036 0.0
C466 C 0.58168 0.97939 0.76371 0.0
C467 C 0.60482 0.98992 0.75342 0.0
C468 C 0.61685 0.9777 0.75654 0.0
C469 C 0.60624 0.95572 0.76988 0.0
C470 C 0.65227 0.05058 0.73278 0.0
C471 C 0.6415 0.05746 0.71055 0.0
C472 C 0.64009 0.02904 0.74721 0.0
C473 C 0.61681 0.01359 0.73967 0.0
C474 C 0.60572 0.02065 0.71807 0.0
C475 C 0.61796 0.04242 0.70364 0.0
H476 H 0.66282 0.6061 0.74589 0.0
H477 H 0.60821 0.55712 0.80582 0.0
H478 H 0.63688 0.61852 0.72528 0.0
H479 H 0.58199 0.56952 0.78475 0.0
H480 H 0.55629 0.62256 0.76713 0.0
H481 H 0.5779 0.60441 0.78598 0.0
H482 H 0.60217 0.60473 0.69303 0.0
H483 H 0.58082 0.62323 0.67417 0.0
C484 C 0.64523 0.59789 0.75463 0.0
C485 C 0.63763 0.58066 0.77762 0.0
C486 C 0.63027 0.60489 0.74255 0.0
C487 C 0.60731 0.5949 0.75318 0.0
C488 C 0.59963 0.57762 0.77618 0.0
C489 C 0.61462 0.5705 0.78821 0.0
C490 C 0.566 0.61851 0.75061 0.0
C491 C 0.56705 0.62461 0.71918 0.0
C492 C 0.57829 0.60798 0.76143 0.0
C493 C 0.59196 0.60336 0.74108 0.0
C494 C 0.5921 0.60843 0.70939 0.0
C495 C 0.57975 0.6189 0.69855 0.0
H496 H 0.95271 0.55775 0.67495 0.0
H497 H 0.94973 0.6107 0.72931 0.0
H498 H 0.99059 0.56887 0.69781 0.0
H499 H 0.98721 0.62168 0.75182 0.0
H500 H 0.04447 0.62378 0.80824 0.0
H501 H 0.00515 0.60596 0.78749 0.0
H502 H 0.03091 0.60325 0.69663 0.0
H503 H 0.07018 0.62085 0.71735 0.0
C504 C 0.96011 0.57173 0.69169 0.0
C505 C 0.94821 0.58336 0.70023 0.0
C506 C 0.98177 0.57809 0.70476 0.0
C507 C 0.99176 0.59599 0.72687 0.0
C508 C 0.9798 0.60753 0.73532 0.0
C509 C 0.95837 0.60136 0.72213 0.0
C510 C 0.04171 0.61901 0.78397 0.0
C511 C 0.0605 0.62401 0.76438 0.0
C512 C 0.01921 0.60893 0.77204 0.0
C513 C 0.015 0.6035 0.74033 0.0
C514 C 0.03358 0.60717 0.72116 0.0
C515 C 0.0561 0.61737 0.73304 0.0
H516 H 0.39005 0.06421 0.75406 0.0
H517 H 0.44312 0.052 0.79169 0.0
H518 H 0.37183 0.02658 0.72937 0.0
H519 H 0.42423 0.01352 0.76735 0.0
H520 H 0.39323 0.95446 0.69253 0.0
H521 H 0.41463 0.99292 0.71671 0.0
H522 H 0.34981 0.98712 0.74553 0.0
H523 H 0.32869 0.94954 0.72097 0.0
C524 C 0.39777 0.0534 0.75731 0.0
C525 C 0.41795 0.06107 0.77516 0.0
C526 C 0.38722 0.0317 0.74318 0.0
C527 C 0.39636 0.01685 0.74667 0.0
C528 C 0.4168 0.02459 0.76409 0.0
C529 C 0.42752 0.04653 0.77821 0.0
C530 C 0.38364 0.96153 0.70393 0.0
C531 C 0.35925 0.94903 0.70448 0.0
C532 C 0.39588 0.98345 0.71797 0.0
C533 C 0.38393 0.99322 0.73279 0.0
C534 C 0.35959 0.98042 0.73374 0.0
C535 C 0.34745 0.95874 0.71969 0.0
H536 H 0.40028 0.44963 0.80426 0.0
H537 H 0.3426 0.39286 0.75704 0.0
H538 H 0.4266 0.43805 0.78115 0.0
H539 H 0.36869 0.38139 0.73431 0.0
H540 H 0.42242 0.37875 0.67453 0.0
H541 H 0.40034 0.39581 0.69571 0.0
H542 H 0.43428 0.405 0.78408 0.0
H543 H 0.45655 0.38818 0.76291 0.0
C544 C 0.39321 0.43467 0.78909 0.0
C545 C 0.36933 0.42218 0.78252 0.0
C546 C 0.40826 0.42806 0.77588 0.0
C547 C 0.39975 0.40897 0.75562 0.0
C548 C 0.37588 0.39645 0.7493 0.0
C549 C 0.36087 0.40292 0.76262 0.0
C550 C 0.42546 0.38474 0.69832 0.0
C551 C 0.44106 0.38186 0.71711 0.0
C552 C 0.4127 0.39437 0.71052 0.0
C553 C 0.41535 0.40146 0.7417 0.0
C554 C 0.43189 0.39978 0.75997 0.0
C555 C 0.44457 0.39003 0.74784 0.0
H556 H 0.05122 0.44217 0.68797 0.0
H557 H 0.06932 0.40133 0.74721 0.0
H558 H 0.01248 0.42375 0.71154 0.0
H559 H 0.03134 0.38365 0.77105 0.0
H560 H 0.95416 0.33408 0.77553 0.0
H561 H 0.99303 0.35574 0.75469 0.0
H562 H 0.98995 0.41893 0.75976 0.0
H563 H 0.95031 0.39687 0.78021 0.0
C564 C 0.04702 0.42945 0.70614 0.0
C565 C 0.06322 0.42294 0.71534 0.0
C566 C 0.02491 0.41902 0.71978 0.0
C567 C 0.0187 0.40199 0.74292 0.0
C568 C 0.0353 0.39627 0.7528 0.0
C569 C 0.05717 0.40649 0.73912 0.0
C570 C 0.96171 0.35261 0.77245 0.0
C571 C 0.9491 0.36373 0.77966 0.0
C572 C 0.98414 0.3651 0.76059 0.0
C573 C 0.99473 0.38913 0.75571 0.0
C574 C 0.98223 0.4004 0.76306 0.0
C575 C 0.95962 0.38781 0.77501 0.0
H576 H 0.46732 0.19484 0.18648 0.0
H577 H 0.48424 0.1763 0.27464 0.0
H578 H 0.47094 0.22989 0.20948 0.0
H579 H 0.48856 0.21172 0.29744 0.0
H580 H 0.45505 0.25298 0.33511 0.0
H581 H 0.46152 0.22342 0.31235 0.0
H582 H 0.49408 0.26747 0.23295 0.0
H583 H 0.487 0.29704 0.25559 0.0
C584 C 0.47238 0.19852 0.21059 0.0
C585 C 0.47515 0.18256 0.22882 0.0
C586 C 0.47457 0.21873 0.22379 0.0
C587 C 0.47971 0.22354 0.2555 0.0
C588 C 0.48404 0.20833 0.27314 0.0
C589 C 0.48171 0.18807 0.26 0.0
C590 C 0.46388 0.25657 0.31299 0.0
C591 C 0.47031 0.27734 0.29708 0.0
C592 C 0.46777 0.23961 0.29997 0.0
C593 C 0.47827 0.24294 0.27068 0.0
C594 C 0.48566 0.26417 0.25535 0.0
C595 C 0.48175 0.28121 0.26843 0.0
H596 H 0.1797 0.47712 0.26002 0.0
H597 H 0.18725 0.43824 0.33477 0.0
H598 H 0.21692 0.48486 0.23863 0.0
H599 H 0.224 0.44556 0.31321 0.0
H600 H 0.2964 0.47274 0.28026 0.0
H601 H 0.26372 0.47437 0.30285 0.0
H602 H 0.23182 0.46255 0.2125 0.0
H603 H 0.26478 0.46142 0.18977 0.0
C604 C 0.18939 0.47044 0.27209 0.0
C605 C 0.18041 0.45695 0.29904 0.0
C606 C 0.21066 0.47475 0.2597 0.0
C607 C 0.22346 0.46577 0.27409 0.0
C608 C 0.21482 0.45303 0.30168 0.0
C609 C 0.1936 0.44868 0.31397 0.0
C610 C 0.2826 0.47085 0.26509 0.0
C611 C 0.28312 0.46669 0.23323 0.0
C612 C 0.26378 0.47165 0.2781 0.0
C613 C 0.24494 0.46826 0.25961 0.0
C614 C 0.24607 0.46538 0.22745 0.0
C615 C 0.26495 0.46463 0.2144 0.0
H616 H 0.7078 0.19722 0.30179 0.0
H617 H 0.70383 0.17039 0.20947 0.0
H618 H 0.73993 0.23467 0.28547 0.0
H619 H 0.7364 0.20721 0.19356 0.0
H620 H 0.79127 0.27794 0.16585 0.0
H621 H 0.75319 0.24671 0.18185 0.0
H622 H 0.77938 0.24993 0.2745 0.0
H623 H 0.81686 0.28165 0.25887 0.0
C624 C 0.71362 0.19937 0.27795 0.0
C625 C 0.70337 0.1807 0.25706 0.0
C626 C 0.73219 0.22081 0.26861 0.0
C627 C 0.74112 0.22402 0.23825 0.0
C628 C 0.72998 0.20565 0.21701 0.0
C629 C 0.7113 0.18435 0.22624 0.0
C630 C 0.78873 0.27222 0.18976 0.0
C631 C 0.8072 0.28217 0.21097 0.0
C632 C 0.76692 0.25417 0.19893 0.0
C633 C 0.76313 0.24546 0.22945 0.0
C634 C 0.78138 0.25624 0.25093 0.0
C635 C 0.80305 0.27441 0.24186 0.0
H636 H 0.54241 0.82594 0.26795 0.0
H637 H 0.51846 0.80008 0.17555 0.0
H638 H 0.53656 0.78834 0.28325 0.0
H639 H 0.51167 0.76196 0.19123 0.0
H640 H 0.53745 0.71143 0.21742 0.0
H641 H 0.5345 0.7449 0.20214 0.0
H642 H 0.51133 0.74882 0.2944 0.0
H643 H 0.51523 0.71572 0.31006 0.0
C644 C 0.53542 0.81207 0.25103 0.0
C645 C 0.53117 0.81614 0.2204 0.0
C646 C 0.53189 0.79035 0.2599 0.0
C647 C 0.52378 0.77201 0.23847 0.0
C648 C 0.51838 0.77577 0.20823 0.0
C649 C 0.52212 0.7976 0.19926 0.0
C650 C 0.53143 0.71921 0.23441 0.0
C651 C 0.52684 0.71102 0.26509 0.0
C652 C 0.52957 0.7384 0.22554 0.0
C653 C 0.52284 0.74982 0.24704 0.0
C654 C 0.51703 0.74081 0.27734 0.0
C655 C 0.5191 0.72171 0.2863 0.0
H656 H 0.69416 0.51847 0.27878 0.0
H657 H 0.72561 0.53085 0.18802 0.0
H658 H 0.72611 0.51498 0.30026 0.0
H659 H 0.75785 0.52799 0.20963 0.0
H660 H 0.80991 0.51259 0.25405 0.0
H661 H 0.77254 0.50521 0.23385 0.0
H662 H 0.7658 0.54263 0.31122 0.0
H663 H 0.80265 0.54948 0.33164 0.0
C664 C 0.70773 0.52015 0.26331 0.0
C665 C 0.70744 0.52523 0.23174 0.0
C666 C 0.72615 0.5183 0.27568 0.0
C667 C 0.7448 0.52158 0.25682 0.0
C668 C 0.74376 0.52521 0.22486 0.0
C669 C 0.72527 0.52695 0.21245 0.0
C670 C 0.80025 0.51891 0.26698 0.0
C671 C 0.80938 0.53178 0.29436 0.0
C672 C 0.77889 0.5148 0.2553 0.0
C673 C 0.76615 0.52342 0.27077 0.0
C674 C 0.7749 0.53544 0.29883 0.0
C675 C 0.79619 0.53954 0.31047 0.0
H676 H 0.1761 0.69314 0.27194 0.0
H677 H 0.1983 0.72736 0.18321 0.0
H678 H 0.21018 0.72489 0.29633 0.0
H679 H 0.23211 0.75943 0.20776 0.0
H680 H 0.2978 0.81024 0.25821 0.0
H681 H 0.26874 0.7737 0.23476 0.0
H682 H 0.22112 0.76411 0.30892 0.0
H683 H 0.25014 0.80013 0.33253 0.0
C684 C 0.18838 0.70732 0.25755 0.0
C685 C 0.18429 0.7078 0.22566 0.0
C686 C 0.20787 0.72562 0.27159 0.0
C687 C 0.22375 0.74494 0.25415 0.0
C688 C 0.22037 0.7448 0.22192 0.0
C689 C 0.20089 0.72642 0.20783 0.0
C690 C 0.28125 0.80013 0.26974 0.0
C691 C 0.27627 0.80821 0.29719 0.0
C692 C 0.26453 0.77926 0.25617 0.0
C693 C 0.24251 0.76595 0.26983 0.0
C694 C 0.23795 0.77367 0.2979 0.0
C695 C 0.25459 0.79448 0.31138 0.0
H696 H 0.54225 0.73774 0.66671 0.0
H697 H 0.56507 0.72461 0.75429 0.0
H698 H 0.54088 0.77034 0.68924 0.0
H699 H 0.56442 0.75804 0.77678 0.0
H700 H 0.53173 0.8001 0.81338 0.0
H701 H 0.53524 0.76844 0.79133 0.0
H702 H 0.56608 0.80914 0.70878 0.0
H703 H 0.5619 0.84068 0.7305 0.0
C704 C 0.54699 0.74182 0.69084 0.0
C705 C 0.55343 0.7284 0.70889 0.0
C706 C 0.54649 0.76073 0.70363 0.0
C707 C 0.55255 0.76676 0.73475 0.0
C708 C 0.5594 0.7536 0.75278 0.0
C709 C 0.55989 0.73458 0.73991 0.0
C710 C 0.53902 0.80224 0.79038 0.0
C711 C 0.54623 0.82277 0.77346 0.0
C712 C 0.54133 0.78419 0.77795 0.0
C713 C 0.55098 0.78632 0.74839 0.0
C714 C 0.55833 0.80691 0.73151 0.0
C715 C 0.55597 0.82497 0.74394 0.0
H716 H 0.72331 0.51743 0.80138 0.0
H717 H 0.7399 0.58093 0.75379 0.0
H718 H 0.75747 0.51866 0.7793 0.0
H719 H 0.77433 0.58211 0.73144 0.0
H720 H 0.84677 0.58681 0.72854 0.0
H721 H 0.81329 0.58628 0.75338 0.0
H722 H 0.76954 0.51541 0.72373 0.0
H723 H 0.80281 0.51598 0.69918 0.0
C724 C 0.7343 0.53173 0.78641 0.0
C725 C 0.72903 0.54918 0.77953 0.0
C726 C 0.75379 0.53234 0.7736 0.0
C727 C 0.76853 0.55057 0.75394 0.0
C728 C 0.7633 0.56802 0.74688 0.0
C729 C 0.74355 0.56721 0.75937 0.0
C730 C 0.83 0.57112 0.72773 0.0
C731 C 0.82714 0.55154 0.7117 0.0
C732 C 0.81091 0.57087 0.74159 0.0
C733 C 0.78891 0.55087 0.74011 0.0
C734 C 0.78634 0.53104 0.72509 0.0
C735 C 0.80529 0.53143 0.71084 0.0
H736 H 0.27395 0.84572 0.75085 0.0
H737 H 0.26136 0.80607 0.66656 0.0
H738 H 0.23925 0.81355 0.77386 0.0
H739 H 0.22736 0.77379 0.68984 0.0
H740 H 0.15626 0.72686 0.73105 0.0
H741 H 0.18831 0.76158 0.70768 0.0
H742 H 0.22764 0.77498 0.79238 0.0
H743 H 0.19557 0.74105 0.81591 0.0
C744 C 0.26387 0.83012 0.73733 0.0
C745 C 0.27058 0.82828 0.70711 0.0
C746 C 0.24405 0.81169 0.7505 0.0
C747 C 0.23063 0.79112 0.73367 0.0
C748 C 0.23717 0.78949 0.70327 0.0
C749 C 0.25689 0.8079 0.69011 0.0
C750 C 0.17172 0.73733 0.74464 0.0
C751 C 0.17354 0.73106 0.77512 0.0
C752 C 0.19009 0.75712 0.73126 0.0
C753 C 0.21052 0.77096 0.74819 0.0
C754 C 0.21206 0.76486 0.77885 0.0
C755 C 0.19376 0.74518 0.79218 0.0
H756 H 0.49342 0.29331 0.69929 0.0
H757 H 0.42251 0.26491 0.72938 0.0
H758 H 0.49438 0.26012 0.7215 0.0
H759 H 0.42344 0.23149 0.75181 0.0
H760 H 0.4291 0.16397 0.74795 0.0
H761 H 0.42808 0.19767 0.7271 0.0
H762 H 0.49115 0.24323 0.77641 0.0
H763 H 0.49219 0.20978 0.79713 0.0
C764 C 0.47804 0.2799 0.71058 0.0
C765 C 0.45779 0.28136 0.71232 0.0
C766 C 0.47865 0.26105 0.72349 0.0
C767 C 0.45891 0.24325 0.73801 0.0
C768 C 0.43878 0.24495 0.74037 0.0
C769 C 0.43831 0.26406 0.72787 0.0
C770 C 0.44281 0.18121 0.7541 0.0
C771 C 0.46064 0.1843 0.77434 0.0
C772 C 0.44209 0.2004 0.74247 0.0
C773 C 0.45943 0.22292 0.75047 0.0
C774 C 0.47756 0.226 0.77002 0.0
C775 C 0.47807 0.20684 0.78201 0.0
H776 H 0.16602 0.43259 0.73823 0.0
H777 H 0.21129 0.49109 0.68077 0.0
H778 H 0.19968 0.43074 0.75734 0.0
H779 H 0.24467 0.48926 0.69987 0.0
H780 H 0.29638 0.49352 0.77717 0.0
H781 H 0.26375 0.49522 0.7542 0.0
H782 H 0.2311 0.42241 0.73155 0.0
H783 H 0.26404 0.4208 0.75453 0.0
C784 C 0.18313 0.44515 0.72989 0.0
C785 C 0.18603 0.46194 0.70791 0.0
C786 C 0.20228 0.44391 0.74052 0.0
C787 C 0.22461 0.45972 0.72974 0.0
C788 C 0.22757 0.47684 0.70839 0.0
C789 C 0.20842 0.47783 0.6974 0.0
C790 C 0.2823 0.47796 0.76706 0.0
C791 C 0.28244 0.457 0.76771 0.0
C792 C 0.26376 0.47896 0.75382 0.0
C793 C 0.24493 0.45888 0.7415 0.0
C794 C 0.2454 0.43803 0.74125 0.0
C795 C 0.26422 0.43716 0.75402 0.0
H796 H 0.80474 0.29242 0.75453 0.0
H797 H 0.8477 0.26131 0.74379 0.0
H798 H 0.77218 0.25832 0.73063 0.0
H799 H 0.8148 0.22677 0.72056 0.0
H800 H 0.7348 0.1627 0.73247 0.0
H801 H 0.77025 0.19721 0.75011 0.0
H802 H 0.76666 0.23586 0.67222 0.0
H803 H 0.73205 0.20144 0.65373 0.0
C804 C 0.80719 0.27833 0.74675 0.0
C805 C 0.82851 0.27926 0.75085 0.0
C806 C 0.78868 0.25895 0.73312 0.0
C807 C 0.79115 0.24008 0.72414 0.0
C808 C 0.81265 0.24121 0.72752 0.0
C809 C 0.83138 0.2609 0.74047 0.0
C810 C 0.74161 0.17852 0.71906 0.0
C811 C 0.73031 0.17944 0.69204 0.0
C812 C 0.7619 0.19813 0.72903 0.0
C813 C 0.77093 0.21896 0.71239 0.0
C814 C 0.75983 0.2199 0.68536 0.0
C815 C 0.73988 0.20023 0.67503 0.0
H816 H 0.47271 0.14968 0.0763 0.0
H817 H 0.47227 0.08485 0.06676 0.0
H818 H 0.48489 0.15887 0.02227 0.0
H819 H 0.48466 0.09417 0.01314 0.0
H820 H 0.46406 0.10261 0.91211 0.0
H821 H 0.46315 0.09531 0.96754 0.0
H822 H 0.515 0.16698 0.98284 0.0
H823 H 0.51585 0.17441 0.92751 0.0
C824 C 0.47575 0.13768 0.06294 0.0
C825 C 0.47109 0.11637 0.07557 0.0
C826 C 0.48279 0.14295 0.03203 0.0
C827 C 0.48538 0.12703 0.0134 0.0
C828 C 0.48235 0.10652 0.02677 0.0
C829 C 0.47528 0.10124 0.05751 0.0
C830 C 0.47566 0.11668 0.92716 0.0
C831 C 0.4897 0.13915 0.91543 0.0
C832 C 0.47519 0.1125 0.95894 0.0
C833 C 0.4888 0.13069 0.97953 0.0
C834 C 0.50403 0.15276 0.96756 0.0
C835 C 0.50454 0.15694 0.93583 0.0
H836 H 0.36278 0.46751 0.91698 0.0
H837 H 0.32901 0.50826 0.92712 0.0
H838 H 0.36802 0.4685 0.97291 0.0
H839 H 0.33443 0.50929 0.98298 0.0
H840 H 0.31487 0.46787 0.078 0.0
H841 H 0.31636 0.47863 0.02349 0.0
H842 H 0.38737 0.49382 0.0179 0.0
H843 H 0.38584 0.48289 0.07199 0.0
C844 C 0.35688 0.47705 0.93101 0.0
C845 C 0.34521 0.48752 0.91756 0.0
C846 C 0.35997 0.47771 0.96306 0.0
C847 C 0.35144 0.48883 0.98229 0.0
C848 C 0.34088 0.50034 0.96874 0.0
C849 C 0.33789 0.49979 0.9367 0.0
C850 C 0.33094 0.47408 0.06531 0.0
C851 C 0.35005 0.47409 0.079 0.0
C852 C 0.33184 0.48027 0.03414 0.0
C853 C 0.35188 0.48663 0.01637 0.0
C854 C 0.37156 0.48848 0.03087 0.0
C855 C 0.37065 0.48227 0.06185 0.0
H856 H 0.82124 0.31202 0.91201 0.0
H857 H 0.88568 0.37534 0.89489 0.0
H858 H 0.82719 0.31804 0.96734 0.0
H859 H 0.89095 0.38244 0.95054 0.0
H860 H 0.91242 0.3656 0.04234 0.0
H861 H 0.90261 0.36693 0.98919 0.0
H862 H 0.83024 0.3363 0.0144 0.0
H863 H 0.84019 0.33375 0.06833 0.0
C864 C 0.83638 0.32765 0.92014 0.0
C865 C 0.85326 0.343 0.89919 0.0
C866 C 0.83971 0.33122 0.952 0.0
C867 C 0.8598 0.35052 0.96366 0.0
C868 C 0.87566 0.36695 0.94249 0.0
C869 C 0.87262 0.36302 0.91059 0.0
C870 C 0.89438 0.35932 0.03681 0.0
C871 C 0.87704 0.34937 0.05964 0.0
C872 C 0.88874 0.36036 0.0061 0.0
C873 C 0.8656 0.35186 -0.00279 0.0
C874 C 0.84824 0.34271 0.02026 0.0
C875 C 0.85389 0.3413 0.05118 0.0
H876 H 0.51971 0.91125 0.06453 0.0
H877 H 0.52553 0.84961 0.07139 0.0
H878 H 0.50724 0.9019 0.01092 0.0
H879 H 0.51329 0.84041 0.01743 0.0
H880 H 0.4836 0.82448 0.92239 0.0
H881 H 0.48285 0.83053 0.97789 0.0
H882 H 0.53011 0.90381 0.96518 0.0
H883 H 0.53078 0.89789 0.90963 0.0
C884 C 0.51802 0.89551 0.05471 0.0
C885 C 0.52405 0.88137 0.07196 0.0
C886 C 0.51089 0.89021 0.02399 0.0
C887 C 0.50966 0.87067 0.00987 0.0
C888 C 0.51397 0.85555 0.02778 0.0
C889 C 0.52106 0.86084 0.05865 0.0
C890 C 0.4935 0.84198 0.9313 0.0
C891 C 0.50761 0.86068 0.91162 0.0
C892 C 0.4931 0.84538 0.96313 0.0
C893 C 0.50665 0.86754 0.9759 0.0
C894 C 0.51935 0.88651 0.95598 0.0
C895 C 0.51981 0.88311 0.92412 0.0
H896 H 0.61164 0.52704 0.06989 0.0
H897 H 0.6766 0.52782 0.07994 0.0
H898 H 0.60942 0.51557 0.01595 0.0
H899 H 0.6745 0.51661 0.02564 0.0
H900 H 0.6617 0.48828 0.92981 0.0
H901 H 0.6538 0.48739 0.98501 0.0
H902 H 0.63226 0.5381 0.97125 0.0
H903 H 0.63991 0.53887 0.91598 0.0
C904 C 0.62533 0.52448 0.06068 0.0
C905 C 0.64455 0.52876 0.07898 0.0
C906 C 0.62403 0.51794 0.02976 0.0
C907 C 0.64193 0.51555 0.01646 0.0
C908 C 0.66035 0.5182 0.03533 0.0
C909 C 0.66162 0.52469 0.06639 0.0
C910 C 0.65486 0.49894 0.93842 0.0
C911 C 0.65181 0.51398 0.91855 0.0
C912 C 0.65043 0.49846 0.97008 0.0
C913 C 0.64276 0.5129 0.9825 0.0
C914 C 0.63805 0.52665 0.96233 0.0
C915 C 0.6425 0.52715 0.93063 0.0
H916 H 0.17991 0.66614 0.91751 0.0
H917 H 0.10547 0.63512 0.90982 0.0
H918 H 0.17601 0.65732 0.97265 0.0
H919 H 0.10169 0.62645 0.96502 0.0
H920 H 0.15604 0.67654 0.06971 0.0
H921 H 0.16509 0.67519 0.01517 0.0
H922 H 0.10712 0.60537 0.0083 0.0
H923 H 0.09794 0.60678 0.06257 0.0
C924 C 0.16266 0.65705 0.92742 0.0
C925 C 0.14299 0.65173 0.90935 0.0
C926 C 0.16049 0.65207 0.95904 0.0
C927 C 0.13862 0.6415 0.97319 0.0
C928 C 0.1188 0.63449 0.9547 0.0
C929 C 0.12096 0.63955 0.92306 0.0
C930 C 0.1457 0.66068 0.0568 0.0
C931 C 0.126 0.64199 0.07014 0.0
C932 C 0.15087 0.65986 0.02557 0.0
C933 C 0.13649 0.6403 0.00738 0.0
C934 C 0.11817 0.62082 0.02161 0.0
C935 C 0.11298 0.62166 0.05269 0.0
H936 H 0.82898 0.51864 0.54759 0.0
H937 H 0.89236 0.51924 0.57056 0.0
H938 H 0.83623 0.51687 0.49297 0.0
H939 H 0.89896 0.51574 0.5157 0.0
H940 H 0.92151 0.54752 0.41981 0.0
H941 H 0.91143 0.54007 0.47374 0.0
H942 H 0.83894 0.49841 0.44914 0.0
H943 H 0.84917 0.50729 0.39443 0.0
C944 C 0.84422 0.5178 0.54091 0.0
C945 C 0.86032 0.51943 0.56324 0.0
C946 C 0.84829 0.51654 0.50949 0.0
C947 C 0.86832 0.51638 0.49964 0.0
C948 C 0.88367 0.51651 0.52227 0.0
C949 C 0.87989 0.51839 0.55373 0.0
C950 C 0.90339 0.53654 0.42573 0.0
C951 C 0.88609 0.52814 0.40279 0.0
C952 C 0.89759 0.53203 0.4569 0.0
C953 C 0.87433 0.51859 0.4661 0.0
C954 C 0.85702 0.50923 0.44301 0.0
C955 C 0.86284 0.51418 0.41165 0.0
H956 H 0.36347 0.90065 0.57083 0.0
H957 H 0.33671 0.82686 0.56226 0.0
H958 H 0.37224 0.90524 0.51559 0.0
H959 H 0.34563 0.83156 0.50716 0.0
H960 H 0.39444 0.91007 0.41816 0.0
H961 H 0.39504 0.90171 0.47291 0.0
H962 H 0.32706 0.84108 0.46416 0.0
H963 H 0.32649 0.84932 0.40912 0.0
C964 C 0.35998 0.88552 0.55738 0.0
C965 C 0.34902 0.86337 0.57086 0.0
C966 C 0.36508 0.88813 0.52572 0.0
C967 C 0.35933 0.86867 0.50703 0.0
C968 C 0.34987 0.84678 0.52093 0.0
C969 C 0.34484 0.84416 0.55253 0.0
C970 C 0.37978 0.89468 0.42776 0.0
C971 C 0.36018 0.88057 0.4095 0.0
C972 C 0.38015 0.88997 0.45913 0.0
C973 C 0.36096 0.87103 0.47289 0.0
C974 C 0.34216 0.85579 0.45412 0.0
C975 C 0.34179 0.8605 0.42261 0.0
H976 H 0.51555 0.34163 0.55837 0.0
H977 H 0.46666 0.36582 0.57018 0.0
H978 H 0.51681 0.34876 0.50291 0.0
H979 H 0.46779 0.3727 0.51463 0.0
H980 H 0.47983 0.39226 0.41578 0.0
H981 H 0.49102 0.39469 0.46989 0.0
H982 H 0.48778 0.32847 0.46199 0.0
H983 H 0.47688 0.32616 0.40751 0.0
C984 C 0.50532 0.34881 0.54924 0.0
C985 C 0.49069 0.35281 0.56867 0.0
C986 C 0.50602 0.3528 0.51743 0.0
C987 C 0.49219 0.36098 0.50438 0.0
C988 C 0.47879 0.36652 0.52404 0.0
C989 C 0.47807 0.36251 0.5559 0.0
C990 C 0.4819 0.37838 0.42542 0.0
C991 C 0.47706 0.35878 0.40759 0.0
C992 C 0.48825 0.37979 0.45644 0.0
C993 C 0.48987 0.36162 0.47031 0.0
C994 C 0.48677 0.34282 0.45188 0.0
C995 C 0.48048 0.34144 0.4207 0.0
H996 H 0.10301 0.47904 0.57647 0.0
H997 H 0.17163 0.49426 0.549 0.0
H998 H 0.09225 0.47691 0.52198 0.0
H999 H 0.16063 0.49061 0.49524 0.0
H1000 H 0.13978 0.49017 0.39746 0.0
H1001 H 0.1511 0.50302 0.4509 0.0
H1002 H 0.0829 0.45071 0.48215 0.0
H1003 H 0.07141 0.43923 0.42906 0.0
C1004 C 0.11578 0.482 0.55882 0.0
C1005 C 0.13805 0.4866 0.56704 0.0
C1006 C 0.10962 0.48063 0.52757 0.0
C1007 C 0.12544 0.48324 0.504 0.0
C1008 C 0.14802 0.48885 0.51246 0.0
C1009 C 0.15429 0.49074 0.54351 0.0
C1010 C 0.12727 0.48166 0.41588 0.0
C1011 C 0.10481 0.46369 0.40922 0.0
C1012 C 0.1337 0.48892 0.44652 0.0
C1013 C 0.11796 0.47788 0.47109 0.0
C1014 C 0.09539 0.46009 0.46406 0.0
C1015 C 0.08885 0.45328 0.43352 0.0
H1016 H 0.66373 0.14585 0.40627 0.0
H1017 H 0.60171 0.07886 0.41561 0.0
H1018 H 0.66072 0.15384 0.46072 0.0
H1019 H 0.59866 0.08697 0.46982 0.0
H1020 H 0.63288 0.09595 0.56856 0.0
H1021 H 0.62324 0.08884 0.51374 0.0
H1022 H 0.63844 0.15952 0.50234 0.0
H1023 H 0.64823 0.16674 0.55707 0.0
C1024 C 0.64914 0.13311 0.41967 0.0
C1025 C 0.63327 0.11156 0.40681 0.0
C1026 C 0.64734 0.1377 0.45085 0.0
C1027 C 0.6296 0.12084 0.4696 0.0
C1028 C 0.61272 0.10008 0.45606 0.0
C1029 C 0.61451 0.09549 0.42499 0.0
C1030 C 0.6335 0.10977 0.55461 0.0
C1031 C 0.64181 0.13202 0.56701 0.0
C1032 C 0.62794 0.1057 0.52316 0.0
C1033 C 0.63051 0.12379 0.50367 0.0
C1034 C 0.63676 0.14542 0.51671 0.0
C1035 C 0.64229 0.14948 0.54809 0.0
H1036 H 0.51231 0.6034 0.42272 0.0
H1037 H 0.51996 0.67155 0.41394 0.0
H1038 H 0.50234 0.60231 0.47716 0.0
H1039 H 0.51016 0.6705 0.46865 0.0
H1040 H 0.4859 0.66104 0.56623 0.0
H1041 H 0.4816 0.65181 0.51121 0.0
H1042 H 0.52833 0.62484 0.52018 0.0
H1043 H 0.5326 0.6339 0.57526 0.0
C1044 C 0.51148 0.61801 0.43229 0.0
C1045 C 0.51741 0.63781 0.41424 0.0
C1046 C 0.50578 0.61734 0.46347 0.0
C1047 C 0.50588 0.63645 0.47724 0.0
C1048 C 0.50987 0.65545 0.4586 0.0
C1049 C 0.51555 0.6561 0.42729 0.0
C1050 C 0.49494 0.65272 0.55665 0.0
C1051 C 0.50999 0.64861 0.57505 0.0
C1052 C 0.49247 0.64751 0.5251 0.0
C1053 C 0.50485 0.63792 0.51136 0.0
C1054 C 0.51845 0.63212 0.53018 0.0
C1055 C 0.52099 0.6374 0.56175 0.0
H1056 H 0.4859 0.05777 0.18818 0.0
H1057 H 0.50754 0.12599 0.22513 0.0
H1058 H 0.5197 0.05892 0.21058 0.0
H1059 H 0.54158 0.12683 0.24837 0.0
H1060 H 0.61134 0.12579 0.25844 0.0
H1061 H 0.5789 0.12769 0.23458 0.0
H1062 H 0.53232 0.05694 0.26246 0.0
H1063 H 0.56429 0.0548 0.28544 0.0
C1064 C 0.49779 0.07302 0.20127 0.0
C1065 C 0.49381 0.09173 0.20503 0.0
C1066 C 0.51721 0.07362 0.21422 0.0
C1067 C 0.53322 0.09286 0.2315 0.0
C1068 C 0.52958 0.11181 0.235 0.0
C1069 C 0.51 0.11123 0.22192 0.0
C1070 C 0.59418 0.11063 0.25926 0.0
C1071 C 0.59051 0.0901 0.27368 0.0
C1072 C 0.5756 0.11179 0.24585 0.0
C1073 C 0.55308 0.09243 0.2465 0.0
C1074 C 0.5495 0.07205 0.26108 0.0
C1075 C 0.56791 0.07087 0.27438 0.0
H1076 H 0.48244 0.56917 0.31858 0.0
H1077 H 0.4936 0.6165 0.24342 0.0
H1078 H 0.44717 0.53951 0.29357 0.0
H1079 H 0.45834 0.58632 0.21787 0.0
H1080 H 0.42067 0.51027 0.17114 0.0
H1081 H 0.45079 0.54524 0.19624 0.0
H1082 H 0.4057 0.53251 0.27464 0.0
H1083 H 0.37507 0.49757 0.24905 0.0
C1084 C 0.47727 0.57325 0.29674 0.0
C1085 C 0.49086 0.59503 0.28272 0.0
C1086 C 0.45697 0.55635 0.28264 0.0
C1087 C 0.45007 0.56072 0.25393 0.0
C1088 C 0.46334 0.58265 0.24011 0.0
C1089 C 0.48344 0.59983 0.25464 0.0
C1090 C 0.41706 0.51508 0.19358 0.0
C1091 C 0.39566 0.50111 0.20836 0.0
C1092 C 0.43421 0.53519 0.20775 0.0
C1093 C 0.43049 0.54152 0.23726 0.0
C1094 C 0.40889 0.52795 0.25179 0.0
C1095 C 0.39144 0.50803 0.23723 0.0
H1096 H 0.91484 0.48263 0.30509 0.0
H1097 H 0.87767 0.49368 0.23122 0.0
H1098 H 0.90896 0.44733 0.27952 0.0
H1099 H 0.87243 0.45858 0.20515 0.0
H1100 H 0.91101 0.42077 0.15753 0.0
H1101 H 0.90798 0.45167 0.18374 0.0
H1102 H 0.87146 0.4053 0.25948 0.0
H1103 H 0.87382 0.37393 0.23272 0.0
C1104 C 0.90529 0.47741 0.28348 0.0
C1105 C 0.89682 0.49093 0.27 0.0
C1106 C 0.90179 0.45716 0.26904 0.0
C1107 C 0.89021 0.45033 0.24052 0.0
C1108 C 0.88133 0.46355 0.22724 0.0
C1109 C 0.88432 0.48354 0.24211 0.0
C1110 C 0.90208 0.41708 0.17961 0.0
C1111 C 0.89275 0.39503 0.19323 0.0
C1112 C 0.90022 0.43468 0.19443 0.0
C1113 C 0.88944 0.43074 0.22347 0.0
C1114 C 0.87977 0.40863 0.23699 0.0
C1115 C 0.8811 0.39076 0.22173 0.0
H1116 H 0.49239 0.91738 0.16785 0.0
H1117 H 0.5028 0.88048 0.24272 0.0
H1118 H 0.45746 0.91249 0.1932 0.0
H1119 H 0.46795 0.8762 0.26864 0.0
H1120 H 0.43056 0.91552 0.31487 0.0
H1121 H 0.46105 0.91122 0.28972 0.0
H1122 H 0.41551 0.8767 0.2125 0.0
H1123 H 0.38454 0.88039 0.23816 0.0
C1124 C 0.48715 0.90817 0.18972 0.0
C1125 C 0.50039 0.89948 0.20352 0.0
C1126 C 0.46707 0.90519 0.20401 0.0
C1127 C 0.46007 0.8939 0.2327 0.0
C1128 C 0.47305 0.88489 0.2464 0.0
C1129 C 0.49291 0.88735 0.23166 0.0
C1130 C 0.42696 0.90677 0.29267 0.0
C1131 C 0.40529 0.89846 0.27827 0.0
C1132 C 0.44432 0.90414 0.27848 0.0
C1133 C 0.44052 0.89358 0.24932 0.0
C1134 C 0.41873 0.88483 0.23509 0.0
C1135 C 0.40109 0.88695 0.2497 0.0
H1136 H 0.57018 0.51118 0.19232 0.0
H1137 H 0.6178 0.49044 0.22795 0.0
H1138 H 0.53795 0.47688 0.21456 0.0
H1139 H 0.58503 0.45587 0.25099 0.0
H1140 H 0.51454 0.38528 0.26042 0.0
H1141 H 0.54864 0.41822 0.23678 0.0
H1142 H 0.52398 0.46392 0.26685 0.0
H1143 H 0.49015 0.4315 0.28965 0.0
C1144 C 0.57387 0.49938 0.20507 0.0
C1145 C 0.59671 0.50377 0.20853 0.0
C1146 C 0.55529 0.47967 0.21792 0.0
C1147 C 0.55894 0.46376 0.23478 0.0
C1148 C 0.58169 0.46779 0.23795 0.0
C1149 C 0.60044 0.48767 0.22498 0.0
C1150 C 0.51639 0.40235 0.26179 0.0
C1151 C 0.49946 0.40564 0.27675 0.0
C1152 C 0.536 0.42122 0.2485 0.0
C1153 C 0.53891 0.44363 0.24979 0.0
C1154 C 0.52208 0.44684 0.26498 0.0
C1155 C 0.50266 0.42816 0.27818 0.0
H1156 H 0.11689 0.61677 0.24295 0.0
H1157 H 0.08695 0.57245 0.16318 0.0
H1158 H 0.11806 0.5849 0.27025 0.0
H1159 H 0.08878 0.54114 0.18996 0.0
H1160 H 0.11507 0.49763 0.24051 0.0
H1161 H 0.12164 0.53344 0.21527 0.0
H1162 H 0.08119 0.5425 0.28621 0.0
H1163 H 0.07409 0.50654 0.31101 0.0
C1164 C 0.11096 0.6004 0.23114 0.0
C1165 C 0.10163 0.59693 0.20114 0.0
C1166 C 0.1116 0.58225 0.2467 0.0
C1167 C 0.10359 0.5607 0.23205 0.0
C1168 C 0.09524 0.55766 0.2016 0.0
C1169 C 0.09404 0.5755 0.18643 0.0
C1170 C 0.10779 0.5074 0.25083 0.0
C1171 C 0.09387 0.49919 0.27751 0.0
C1172 C 0.11156 0.52783 0.23645 0.0
C1173 C 0.10201 0.54068 0.24899 0.0
C1174 C 0.08892 0.533 0.27633 0.0
C1175 C 0.0847 0.51233 0.29029 0.0
H1176 H 0.4851 0.87684 0.75726 0.0
H1177 H 0.43983 0.80686 0.78961 0.0
H1178 H 0.45199 0.87726 0.73399 0.0
H1179 H 0.40675 0.80757 0.76712 0.0
H1180 H 0.38477 0.87917 0.7249 0.0
H1181 H 0.41747 0.87826 0.74874 0.0
H1182 H 0.38993 0.80753 0.71802 0.0
H1183 H 0.35698 0.80817 0.69497 0.0
C1184 C 0.46812 0.86155 0.75943 0.0
C1185 C 0.46517 0.8418 0.77528 0.0
C1186 C 0.44909 0.86187 0.74631 0.0
C1187 C 0.42669 0.84249 0.74881 0.0
C1188 C 0.42379 0.82269 0.76442 0.0
C1189 C 0.4428 0.82233 0.77741 0.0
C1190 C 0.38559 0.86336 0.72342 0.0
C1191 C 0.36821 0.84375 0.70801 0.0
C1192 C 0.40445 0.86291 0.73687 0.0
C1193 C 0.4064 0.84287 0.73515 0.0
C1194 C 0.38885 0.82317 0.72011 0.0
C1195 C 0.36996 0.82358 0.70678 0.0
H1196 H 0.61631 0.49229 0.7629 0.0
H1197 H 0.63963 0.44576 0.79462 0.0
H1198 H 0.58389 0.46018 0.73632 0.0
H1199 H 0.60694 0.41366 0.76869 0.0
H1200 H 0.51509 0.39276 0.72212 0.0
H1201 H 0.54783 0.42496 0.74809 0.0
H1202 H 0.59254 0.39922 0.71738 0.0
H1203 H 0.5598 0.36674 0.69207 0.0
C1204 C 0.61453 0.47523 0.76426 0.0
C1205 C 0.63062 0.47164 0.7809 0.0
C1206 C 0.59584 0.4568 0.74919 0.0
C1207 C 0.59279 0.43435 0.75045 0.0
C1208 C 0.60895 0.43079 0.76692 0.0
C1209 C 0.62766 0.44921 0.78191 0.0
C1210 C 0.53189 0.39392 0.72095 0.0
C1211 C 0.53478 0.37711 0.70504 0.0
C1212 C 0.55069 0.41248 0.73567 0.0
C1213 C 0.5728 0.41468 0.73477 0.0
C1214 C 0.57568 0.39786 0.71888 0.0
C1215 C 0.55689 0.37928 0.70424 0.0
H1216 H 0.19727 0.64732 0.77987 0.0
H1217 H 0.12507 0.61827 0.75507 0.0
H1218 H 0.19778 0.61483 0.75487 0.0
H1219 H 0.1258 0.58609 0.72944 0.0
H1220 H 0.12819 0.51887 0.72058 0.0
H1221 H 0.1281 0.55212 0.7439 0.0
H1222 H 0.19575 0.59764 0.70479 0.0
H1223 H 0.19615 0.56442 0.68208 0.0
C1224 C 0.18158 0.63418 0.76876 0.0
C1225 C 0.1611 0.63539 0.76962 0.0
C1226 C 0.1819 0.61558 0.75432 0.0
C1227 C 0.16179 0.59779 0.74033 0.0
C1228 C 0.14148 0.59929 0.7405 0.0
C1229 C 0.14113 0.61786 0.755 0.0
C1230 C 0.14308 0.53595 0.71698 0.0
C1231 C 0.16219 0.53893 0.69948 0.0
C1232 C 0.14295 0.55504 0.73018 0.0
C1233 C 0.16189 0.57754 0.72611 0.0
C1234 C 0.18101 0.58052 0.70867 0.0
C1235 C 0.18118 0.56144 0.69554 0.0
H1236 H 0.64147 0.19413 0.69286 0.0
H1237 H 0.61593 0.12339 0.72248 0.0
H1238 H 0.60957 0.19446 0.71966 0.0
H1239 H 0.58421 0.12398 0.74994 0.0
H1240 H 0.51621 0.12529 0.76248 0.0
H1241 H 0.54881 0.12475 0.73761 0.0
H1242 H 0.595 0.19408 0.77108 0.0
H1243 H 0.56248 0.1949 0.79531 0.0
C1244 C 0.62922 0.17872 0.70537 0.0
C1245 C 0.63126 0.1587 0.70541 0.0
C1246 C 0.61096 0.17896 0.72087 0.0
C1247 C 0.59431 0.15923 0.73686 0.0
C1248 C 0.59657 0.13935 0.73744 0.0
C1249 C 0.61486 0.13908 0.7219 0.0
C1250 C 0.53331 0.14044 0.7645 0.0
C1251 C 0.53667 0.16017 0.7808 0.0
C1252 C 0.55202 0.14005 0.75044 0.0
C1253 C 0.5745 0.15936 0.7524 0.0
C1254 C 0.57786 0.17903 0.76879 0.0
C1255 C 0.55918 0.17945 0.78278 0.0
H1256 H 0.40143 0.52217 0.79602 0.0
H1257 H 0.35815 0.54994 0.76696 0.0
H1258 H 0.43527 0.55592 0.77458 0.0
H1259 H 0.39161 0.58301 0.74368 0.0
H1260 H 0.45786 0.64997 0.72747 0.0
H1261 H 0.42549 0.61742 0.75345 0.0
H1262 H 0.454 0.57366 0.72914 0.0
H1263 H 0.48698 0.6066 0.70505 0.0
C1264 C 0.39914 0.53539 0.78461 0.0
C1265 C 0.3772 0.53347 0.78315 0.0
C1266 C 0.41852 0.55472 0.77215 0.0
C1267 C 0.41632 0.57235 0.75728 0.0
C1268 C 0.3942 0.57016 0.75554 0.0
C1269 C 0.37492 0.55108 0.76863 0.0
C1270 C 0.45725 0.63342 0.72801 0.0
C1271 C 0.47492 0.63082 0.71427 0.0
C1272 C 0.43858 0.61465 0.74265 0.0
C1273 C 0.43688 0.59271 0.74325 0.0
C1274 C 0.4548 0.59029 0.72973 0.0
C1275 C 0.47371 0.60918 0.71572 0.0
H1276 H 0.87968 0.39908 0.77467 0.0
H1277 H 0.80875 0.35569 0.74513 0.0
H1278 H 0.87978 0.43286 0.75312 0.0
H1279 H 0.80916 0.38916 0.72182 0.0
H1280 H 0.80825 0.45619 0.71066 0.0
H1281 H 0.80837 0.42279 0.73335 0.0
H1282 H 0.88058 0.45209 0.70808 0.0
H1283 H 0.88066 0.48602 0.68718 0.0
C1284 C 0.86423 0.39674 0.76307 0.0
C1285 C 0.8442 0.37479 0.76163 0.0
C1286 C 0.86429 0.41609 0.75053 0.0
C1287 C 0.84446 0.41388 0.73567 0.0
C1288 C 0.82459 0.39173 0.73368 0.0
C1289 C 0.82439 0.37246 0.7468 0.0
C1290 C 0.82414 0.45547 0.71013 0.0
C1291 C 0.84446 0.47372 0.69728 0.0
C1292 C 0.8242 0.43623 0.7229 0.0
C1293 C 0.84447 0.43456 0.7225 0.0
C1294 C 0.86475 0.45287 0.70944 0.0
C1295 C 0.8648 0.47232 0.69728 0.0
loop_
_geom_bond_atom_site_label_1
_geom_bond_atom_site_label_2
_geom_bond_distance
_geom_bond_site_symmetry_2
_ccdc_geom_bond_type
Mg0 O1 2.028 . S
Mg0 O7 1.986 . S
Mg0 O9 2.114 . S
Mg0 O10 2.251 . S
Mg0 O13 2.010 . S
O1 Mg0 2.028 . S
O1 C4 1.250 . S
O2 Mg3 2.028 . S
O2 C4 1.248 . S
Mg3 O2 2.028 . S
Mg3 O8 2.032 . S
Mg3 O10 2.079 . S
C4 O1 1.250 . S
C4 O2 1.248 . S
C5 O6 1.264 . S
C5 O13 1.249 . S
O6 C5 1.264 . S
O7 Mg0 1.986 . S
O7 C11 1.246 . S
O8 Mg3 2.032 . S
O8 C11 1.259 . S
O9 Mg0 2.114 . S
O9 C12 1.252 . S
O10 Mg0 2.251 . S
O10 Mg3 2.079 . S
O10 C12 1.273 . S
C11 O7 1.246 . S
C11 O8 1.259 . S
C12 O9 1.252 . S
C12 O10 1.273 . S
O13 Mg0 2.010 . S
O13 C5 1.249 . S
Mg14 O15 2.028 . S
Mg14 O21 1.986 . S
Mg14 O23 2.114 . S
Mg14 O24 2.251 . S
Mg14 O27 2.010 . S
O15 Mg14 2.028 . S
O15 C18 1.250 . S
O16 Mg17 2.028 . S
O16 C18 1.248 . S
Mg17 O16 2.028 . S
Mg17 O22 2.032 . S
Mg17 O24 2.079 . S
C18 O15 1.250 . S
C18 O16 1.248 . S
C19 O20 1.264 . S
C19 O27 1.249 . S
O20 C19 1.264 . S
O21 Mg14 1.986 . S
O21 C25 1.246 . S
O22 Mg17 2.032 . S
O22 C25 1.259 . S
O23 Mg14 2.114 . S
O23 C26 1.252 . S
O24 Mg14 2.251 . S
O24 Mg17 2.079 . S
O24 C26 1.273 . S
C25 O21 1.246 . S
C25 O22 1.259 . S
C26 O23 1.252 . S
C26 O24 1.273 . S
O27 Mg14 2.010 . S
O27 C19 1.249 . S
Mg28 O29 2.028 . S
Mg28 O35 1.986 . S
Mg28 O37 2.114 . S
Mg28 O38 2.251 . S
Mg28 O41 2.010 . S
O29 Mg28 2.028 . S
O29 C32 1.250 . S
O30 Mg31 2.028 . S
O30 C32 1.248 . S
Mg31 O30 2.028 . S
Mg31 O36 2.032 . S
Mg31 O38 2.079 . S
C32 O29 1.250 . S
C32 O30 1.248 . S
C33 O34 1.264 . S
C33 O41 1.249 . S
O34 C33 1.264 . S
O35 Mg28 1.986 . S
O35 C39 1.246 . S
O36 Mg31 2.032 . S
O36 C39 1.259 . S
O37 Mg28 2.114 . S
O37 C40 1.252 . S
O38 Mg28 2.251 . S
O38 Mg31 2.079 . S
O38 C40 1.273 . S
C39 O35 1.246 . S
C39 O36 1.259 . S
C40 O37 1.252 . S
C40 O38 1.273 . S
O41 Mg28 2.010 . S
O41 C33 1.249 . S
Mg42 O43 2.028 . S
Mg42 O49 1.986 . S
Mg42 O51 2.114 . S
Mg42 O52 2.251 . S
Mg42 O55 2.010 . S
O43 Mg42 2.028 . S
O43 C46 1.250 . S
O44 Mg45 2.028 . S
O44 C46 1.248 . S
Mg45 O44 2.028 . S
Mg45 O50 2.032 . S
Mg45 O52 2.079 . S
C46 O43 1.250 . S
C46 O44 1.248 . S
C47 O48 1.264 . S
C47 O55 1.249 . S
O48 C47 1.264 . S
O49 Mg42 1.986 . S
O49 C53 1.246 . S
O50 Mg45 2.032 . S
O50 C53 1.259 . S
O51 Mg42 2.114 . S
O51 C54 1.252 . S
O52 Mg42 2.251 . S
O52 Mg45 2.079 . S
O52 C54 1.273 . S
C53 O49 1.246 . S
C53 O50 1.259 . S
C54 O51 1.252 . S
C54 O52 1.273 . S
O55 Mg42 2.010 . S
O55 C47 1.249 . S
Mg56 O57 2.028 . S
Mg56 O63 1.986 . S
Mg56 O65 2.114 . S
Mg56 O66 2.251 . S
Mg56 O69 2.010 . S
O57 Mg56 2.028 . S
O57 C60 1.250 . S
O58 Mg59 2.028 . S
O58 C60 1.248 . S
Mg59 O58 2.028 . S
Mg59 O64 2.032 . S
Mg59 O66 2.079 . S
C60 O57 1.250 . S
C60 O58 1.248 . S
C61 O62 1.264 . S
C61 O69 1.249 . S
O62 C61 1.264 . S
O63 Mg56 1.986 . S
O63 C67 1.246 . S
O64 Mg59 2.032 . S
O64 C67 1.259 . S
O65 Mg56 2.114 . S
O65 C68 1.252 . S
O66 Mg56 2.251 . S
O66 Mg59 2.079 . S
O66 C68 1.273 . S
C67 O63 1.246 . S
C67 O64 1.259 . S
C68 O65 1.252 . S
C68 O66 1.273 . S
O69 Mg56 2.010 . S
O69 C61 1.249 . S
Mg70 O71 2.028 . S
Mg70 O77 1.986 . S
Mg70 O79 2.114 . S
Mg70 O80 2.251 . S
Mg70 O83 2.010 . S
O71 Mg70 2.028 . S
O71 C74 1.250 . S
O72 Mg73 2.028 . S
O72 C74 1.248 . S
Mg73 O72 2.028 . S
Mg73 O78 2.032 . S
Mg73 O80 2.079 . S
C74 O71 1.250 . S
C74 O72 1.248 . S
C75 O76 1.264 . S
C75 O83 1.249 . S
O76 C75 1.264 . S
O77 Mg70 1.986 . S
O77 C81 1.246 . S
O78 Mg73 2.032 . S
O78 C81 1.259 . S
O79 Mg70 2.114 . S
O79 C82 1.252 . S
O80 Mg70 2.251 . S
O80 Mg73 2.079 . S
O80 C82 1.273 . S
C81 O77 1.246 . S
C81 O78 1.259 . S
C82 O79 1.252 . S
C82 O80 1.273 . S
O83 Mg70 2.010 . S
O83 C75 1.249 . S
Mg84 O85 2.028 . S
Mg84 O91 1.986 . S
Mg84 O93 2.114 . S
Mg84 O94 2.251 . S
Mg84 O97 2.010 . S
O85 Mg84 2.028 . S
O85 C88 1.250 . S
O86 Mg87 2.028 . S
O86 C88 1.248 . S
Mg87 O86 2.028 . S
Mg87 O92 2.032 . S
Mg87 O94 2.079 . S
C88 O85 1.250 . S
C88 O86 1.248 . S
C89 O90 1.264 . S
C89 O97 1.249 . S
O90 C89 1.264 . S
O91 Mg84 1.986 . S
O91 C95 1.246 . S
O92 Mg87 2.032 . S
O92 C95 1.259 . S
O93 Mg84 2.114 . S
O93 C96 1.252 . S
O94 Mg84 2.251 . S
O94 Mg87 2.079 . S
O94 C96 1.273 . S
C95 O91 1.246 . S
C95 O92 1.259 . S
C96 O93 1.252 . S
C96 O94 1.273 . S
O97 Mg84 2.010 . S
O97 C89 1.249 . S
Mg98 O99 2.028 . S
Mg98 O105 1.986 . S
Mg98 O107 2.114 . S
Mg98 O108 2.251 . S
Mg98 O111 2.010 . S
O99 Mg98 2.028 . S
O99 C102 1.250 . S
O100 Mg101 2.028 . S
O100 C102 1.248 . S
Mg101 O100 2.028 . S
Mg101 O106 2.032 . S
Mg101 O108 2.079 . S
C102 O99 1.250 . S
C102 O100 1.248 . S
C103 O104 1.264 . S
C103 O111 1.249 . S
O104 C103 1.264 . S
O105 Mg98 1.986 . S
O105 C109 1.246 . S
O106 Mg101 2.032 . S
O106 C109 1.259 . S
O107 Mg98 2.114 . S
O107 C110 1.252 . S
O108 Mg98 2.251 . S
O108 Mg101 2.079 . S
O108 C110 1.273 . S
C109 O105 1.246 . S
C109 O106 1.259 . S
C110 O107 1.252 . S
C110 O108 1.273 . S
O111 Mg98 2.010 . S
O111 C103 1.249 . S
Mg112 O113 2.028 . S
Mg112 O119 1.986 . S
Mg112 O121 2.114 . S
Mg112 O122 2.251 . S
Mg112 O125 2.010 . S
O113 Mg112 2.028 . S
O113 C116 1.250 . S
O114 Mg115 2.028 . S
O114 C116 1.248 . S
Mg115 O114 2.028 . S
Mg115 O120 2.032 . S
Mg115 O122 2.079 . S
C116 O113 1.250 . S
C116 O114 1.248 . S
C117 O118 1.264 . S
C117 O125 1.249 . S
O118 C117 1.264 . S
O119 Mg112 1.986 . S
O119 C123 1.246 . S
O120 Mg115 2.032 . S
O120 C123 1.259 . S
O121 Mg112 2.114 . S
O121 C124 1.252 . S
O122 Mg112 2.251 . S
O122 Mg115 2.079 . S
O122 C124 1.273 . S
C123 O119 1.246 . S
C123 O120 1.259 . S
C124 O121 1.252 . S
C124 O122 1.273 . S
O125 Mg112 2.010 . S
O125 C117 1.249 . S
Mg126 O127 2.028 . S
Mg126 O133 1.986 . S
Mg126 O135 2.114 . S
Mg126 O136 2.251 . S
Mg126 O139 2.010 . S
O127 Mg126 2.028 . S
O127 C130 1.250 . S
O128 Mg129 2.028 . S
O128 C130 1.248 . S
Mg129 O128 2.028 . S
Mg129 O134 2.032 . S
Mg129 O136 2.079 . S
C130 O127 1.250 . S
C130 O128 1.248 . S
C131 O132 1.264 . S
C131 O139 1.249 . S
O132 C131 1.264 . S
O133 Mg126 1.986 . S
O133 C137 1.246 . S
O134 Mg129 2.032 . S
O134 C137 1.259 . S
O135 Mg126 2.114 . S
O135 C138 1.252 . S
O136 Mg126 2.251 . S
O136 Mg129 2.079 . S
O136 C138 1.273 . S
C137 O133 1.246 . S
C137 O134 1.259 . S
C138 O135 1.252 . S
C138 O136 1.273 . S
O139 Mg126 2.010 . S
O139 C131 1.249 . S
Mg140 O141 2.028 . S
Mg140 O147 1.986 . S
Mg140 O149 2.114 . S
Mg140 O150 2.251 . S
Mg140 O153 2.010 . S
O141 Mg140 2.028 . S
O141 C144 1.250 . S
O142 Mg143 2.028 . S
O142 C144 1.248 . S
Mg143 O142 2.028 . S
Mg143 O148 2.032 . S
Mg143 O150 2.079 . S
C144 O141 1.250 . S
C144 O142 1.248 . S
C145 O146 1.264 . S
C145 O153 1.249 . S
O146 C145 1.264 . S
O147 Mg140 1.986 . S
O147 C151 1.246 . S
O148 Mg143 2.032 . S
O148 C151 1.259 . S
O149 Mg140 2.114 . S
O149 C152 1.252 . S
O150 Mg140 2.251 . S
O150 Mg143 2.079 . S
O150 C152 1.273 . S
C151 O147 1.246 . S
C151 O148 1.259 . S
C152 O149 1.252 . S
C152 O150 1.273 . S
O153 Mg140 2.010 . S
O153 C145 1.249 . S
Mg154 O155 2.028 . S
Mg154 O161 1.986 . S
Mg154 O163 2.114 . S
Mg154 O164 2.251 . S
Mg154 O167 2.010 . S
O155 Mg154 2.028 . S
O155 C158 1.250 . S
O156 Mg157 2.028 . S
O156 C158 1.248 . S
Mg157 O156 2.028 . S
Mg157 O162 2.032 . S
Mg157 O164 2.079 . S
C158 O155 1.250 . S
C158 O156 1.248 . S
C159 O160 1.264 . S
C159 O167 1.249 . S
O160 C159 1.264 . S
O161 Mg154 1.986 . S
O161 C165 1.246 . S
O162 Mg157 2.032 . S
O162 C165 1.259 . S
O163 Mg154 2.114 . S
O163 C166 1.252 . S
O164 Mg154 2.251 . S
O164 Mg157 2.079 . S
O164 C166 1.273 . S
C165 O161 1.246 . S
C165 O162 1.259 . S
C166 O163 1.252 . S
C166 O164 1.273 . S
O167 Mg154 2.010 . S
O167 C159 1.249 . S
Mg168 O169 2.028 . S
Mg168 O175 1.986 . S
Mg168 O177 2.114 . S
Mg168 O178 2.251 . S
Mg168 O181 2.010 . S
O169 Mg168 2.028 . S
O169 C172 1.250 . S
O170 Mg171 2.028 . S
O170 C172 1.248 . S
Mg171 O170 2.028 . S
Mg171 O176 2.032 . S
Mg171 O178 2.079 . S
C172 O169 1.250 . S
C172 O170 1.248 . S
C173 O174 1.264 . S
C173 O181 1.249 . S
O174 C173 1.264 . S
O175 Mg168 1.986 . S
O175 C179 1.246 . S
O176 Mg171 2.032 . S
O176 C179 1.259 . S
O177 Mg168 2.114 . S
O177 C180 1.252 . S
O178 Mg168 2.251 . S
O178 Mg171 2.079 . S
O178 C180 1.273 . S
C179 O175 1.246 . S
C179 O176 1.259 . S
C180 O177 1.252 . S
C180 O178 1.273 . S
O181 Mg168 2.010 . S
O181 C173 1.249 . S
Mg182 O183 2.028 . S
Mg182 O189 1.986 . S
Mg182 O191 2.114 . S
Mg182 O192 2.251 . S
Mg182 O195 2.010 . S
O183 Mg182 2.028 . S
O183 C186 1.250 . S
O184 Mg185 2.028 . S
O184 C186 1.248 . S
Mg185 O184 2.028 . S
Mg185 O190 2.032 . S
Mg185 O192 2.079 . S
C186 O183 1.250 . S
C186 O184 1.248 . S
C187 O188 1.264 . S
C187 O195 1.249 . S
O188 C187 1.264 . S
O189 Mg182 1.986 . S
O189 C193 1.246 . S
O190 Mg185 2.032 . S
O190 C193 1.259 . S
O191 Mg182 2.114 . S
O191 C194 1.252 . S
O192 Mg182 2.251 . S
O192 Mg185 2.079 . S
O192 C194 1.273 . S
C193 O189 1.246 . S
C193 O190 1.259 . S
C194 O191 1.252 . S
C194 O192 1.273 . S
O195 Mg182 2.010 . S
O195 C187 1.249 . S
Mg196 O197 2.028 . S
Mg196 O203 1.986 . S
Mg196 O205 2.114 . S
Mg196 O206 2.251 . S
Mg196 O209 2.010 . S
O197 Mg196 2.028 . S
O197 C200 1.250 . S
O198 Mg199 2.028 . S
O198 C200 1.248 . S
Mg199 O198 2.028 . S
Mg199 O204 2.032 . S
Mg199 O206 2.079 . S
C200 O197 1.250 . S
C200 O198 1.248 . S
C201 O202 1.264 . S
C201 O209 1.249 . S
O202 C201 1.264 . S
O203 Mg196 1.986 . S
O203 C207 1.246 . S
O204 Mg199 2.032 . S
O204 C207 1.259 . S
O205 Mg196 2.114 . S
O205 C208 1.252 . S
O206 Mg196 2.251 . S
O206 Mg199 2.079 . S
O206 C208 1.273 . S
C207 O203 1.246 . S
C207 O204 1.259 . S
C208 O205 1.252 . S
C208 O206 1.273 . S
O209 Mg196 2.010 . S
O209 C201 1.249 . S
Mg210 O211 2.028 . S
Mg210 O217 1.986 . S
Mg210 O219 2.114 . S
Mg210 O220 2.251 . S
Mg210 O223 2.010 . S
O211 Mg210 2.028 . S
O211 C214 1.250 . S
O212 Mg213 2.028 . S
O212 C214 1.248 . S
Mg213 O212 2.028 . S
Mg213 O218 2.032 . S
Mg213 O220 2.079 . S
C214 O211 1.250 . S
C214 O212 1.248 . S
C215 O216 1.264 . S
C215 O223 1.249 . S
O216 C215 1.264 . S
O217 Mg210 1.986 . S
O217 C221 1.246 . S
O218 Mg213 2.032 . S
O218 C221 1.259 . S
O219 Mg210 2.114 . S
O219 C222 1.252 . S
O220 Mg210 2.251 . S
O220 Mg213 2.079 . S
O220 C222 1.273 . S
C221 O217 1.246 . S
C221 O218 1.259 . S
C222 O219 1.252 . S
C222 O220 1.273 . S
O223 Mg210 2.010 . S
O223 C215 1.249 . S
Mg224 O225 2.028 . S
Mg224 O231 1.986 . S
Mg224 O233 2.114 . S
Mg224 O234 2.251 . S
Mg224 O237 2.010 . S
O225 Mg224 2.028 . S
O225 C228 1.250 . S
O226 Mg227 2.028 . S
O226 C228 1.248 . S
Mg227 O226 2.028 . S
Mg227 O232 2.032 . S
Mg227 O234 2.079 . S
C228 O225 1.250 . S
C228 O226 1.248 . S
C229 O230 1.264 . S
C229 O237 1.249 . S
O230 C229 1.264 . S
O231 Mg224 1.986 . S
O231 C235 1.246 . S
O232 Mg227 2.032 . S
O232 C235 1.259 . S
O233 Mg224 2.114 . S
O233 C236 1.252 . S
O234 Mg224 2.251 . S
O234 Mg227 2.079 . S
O234 C236 1.273 . S
C235 O231 1.246 . S
C235 O232 1.259 . S
C236 O233 1.252 . S
C236 O234 1.273 . S
O237 Mg224 2.010 . S
O237 C229 1.249 . S
Mg238 O239 2.028 . S
Mg238 O245 1.986 . S
Mg238 O247 2.114 . S
Mg238 O248 2.251 . S
Mg238 O251 2.010 . S
O239 Mg238 2.028 . S
O239 C242 1.250 . S
O240 Mg241 2.028 . S
O240 C242 1.248 . S
Mg241 O240 2.028 . S
Mg241 O246 2.032 . S
Mg241 O248 2.079 . S
C242 O239 1.250 . S
C242 O240 1.248 . S
C243 O244 1.264 . S
C243 O251 1.249 . S
O244 C243 1.264 . S
O245 Mg238 1.986 . S
O245 C249 1.246 . S
O246 Mg241 2.032 . S
O246 C249 1.259 . S
O247 Mg238 2.114 . S
O247 C250 1.252 . S
O248 Mg238 2.251 . S
O248 Mg241 2.079 . S
O248 C250 1.273 . S
C249 O245 1.246 . S
C249 O246 1.259 . S
C250 O247 1.252 . S
C250 O248 1.273 . S
O251 Mg238 2.010 . S
O251 C243 1.249 . S
Mg252 O253 2.028 . S
Mg252 O259 1.986 . S
Mg252 O261 2.114 . S
Mg252 O262 2.251 . S
Mg252 O265 2.010 . S
O253 Mg252 2.028 . S
O253 C256 1.250 . S
O254 Mg255 2.028 . S
O254 C256 1.248 . S
Mg255 O254 2.028 . S
Mg255 O260 2.032 . S
Mg255 O262 2.079 . S
C256 O253 1.250 . S
C256 O254 1.248 . S
C257 O258 1.264 . S
C257 O265 1.249 . S
O258 C257 1.264 . S
O259 Mg252 1.986 . S
O259 C263 1.246 . S
O260 Mg255 2.032 . S
O260 C263 1.259 . S
O261 Mg252 2.114 . S
O261 C264 1.252 . S
O262 Mg252 2.251 . S
O262 Mg255 2.079 . S
O262 C264 1.273 . S
C263 O259 1.246 . S
C263 O260 1.259 . S
C264 O261 1.252 . S
C264 O262 1.273 . S
O265 Mg252 2.010 . S
O265 C257 1.249 . S
Mg266 O267 2.028 . S
Mg266 O273 1.986 . S
Mg266 O275 2.114 . S
Mg266 O276 2.251 . S
Mg266 O279 2.010 . S
O267 Mg266 2.028 . S
O267 C270 1.250 . S
O268 Mg269 2.028 . S
O268 C270 1.248 . S
Mg269 O268 2.028 . S
Mg269 O274 2.032 . S
Mg269 O276 2.079 . S
C270 O267 1.250 . S
C270 O268 1.248 . S
C271 O272 1.264 . S
C271 O279 1.249 . S
O272 C271 1.264 . S
O273 Mg266 1.986 . S
O273 C277 1.246 . S
O274 Mg269 2.032 . S
O274 C277 1.259 . S
O275 Mg266 2.114 . S
O275 C278 1.252 . S
O276 Mg266 2.251 . S
O276 Mg269 2.079 . S
O276 C278 1.273 . S
C277 O273 1.246 . S
C277 O274 1.259 . S
C278 O275 1.252 . S
C278 O276 1.273 . S
O279 Mg266 2.010 . S
O279 C271 1.249 . S
Mg280 O281 2.028 . S
Mg280 O287 1.986 . S
Mg280 O289 2.114 . S
Mg280 O290 2.251 . S
Mg280 O293 2.010 . S
O281 Mg280 2.028 . S
O281 C284 1.250 . S
O282 Mg283 2.028 . S
O282 C284 1.248 . S
Mg283 O282 2.028 . S
Mg283 O288 2.032 . S
Mg283 O290 2.079 . S
C284 O281 1.250 . S
C284 O282 1.248 . S
C285 O286 1.264 . S
C285 O293 1.249 . S
O286 C285 1.264 . S
O287 Mg280 1.986 . S
O287 C291 1.246 . S
O288 Mg283 2.032 . S
O288 C291 1.259 . S
O289 Mg280 2.114 . S
O289 C292 1.252 . S
O290 Mg280 2.251 . S
O290 Mg283 2.079 . S
O290 C292 1.273 . S
C291 O287 1.246 . S
C291 O288 1.259 . S
C292 O289 1.252 . S
C292 O290 1.273 . S
O293 Mg280 2.010 . S
O293 C285 1.249 . S
Mg294 O295 2.028 . S
Mg294 O301 1.986 . S
Mg294 O303 2.114 . S
Mg294 O304 2.251 . S
Mg294 O307 2.010 . S
O295 Mg294 2.028 . S
O295 C298 1.250 . S
O296 Mg297 2.028 . S
O296 C298 1.248 . S
Mg297 O296 2.028 . S
Mg297 O302 2.032 . S
Mg297 O304 2.079 . S
C298 O295 1.250 . S
C298 O296 1.248 . S
C299 O300 1.264 . S
C299 O307 1.249 . S
O300 C299 1.264 . S
O301 Mg294 1.986 . S
O301 C305 1.246 . S
O302 Mg297 2.032 . S
O302 C305 1.259 . S
O303 Mg294 2.114 . S
O303 C306 1.252 . S
O304 Mg294 2.251 . S
O304 Mg297 2.079 . S
O304 C306 1.273 . S
C305 O301 1.246 . S
C305 O302 1.259 . S
C306 O303 1.252 . S
C306 O304 1.273 . S
O307 Mg294 2.010 . S
O307 C299 1.249 . S
Mg308 O309 2.028 . S
Mg308 O315 1.986 . S
Mg308 O317 2.114 . S
Mg308 O318 2.251 . S
Mg308 O321 2.010 . S
O309 Mg308 2.028 . S
O309 C312 1.250 . S
O310 Mg311 2.028 . S
O310 C312 1.248 . S
Mg311 O310 2.028 . S
Mg311 O316 2.032 . S
Mg311 O318 2.079 . S
C312 O309 1.250 . S
C312 O310 1.248 . S
C313 O314 1.264 . S
C313 O321 1.249 . S
O314 C313 1.264 . S
O315 Mg308 1.986 . S
O315 C319 1.246 . S
O316 Mg311 2.032 . S
O316 C319 1.259 . S
O317 Mg308 2.114 . S
O317 C320 1.252 . S
O318 Mg308 2.251 . S
O318 Mg311 2.079 . S
O318 C320 1.273 . S
C319 O315 1.246 . S
C319 O316 1.259 . S
C320 O317 1.252 . S
C320 O318 1.273 . S
O321 Mg308 2.010 . S
O321 C313 1.249 . S
Mg322 O323 2.028 . S
Mg322 O329 1.986 . S
Mg322 O331 2.114 . S
Mg322 O332 2.251 . S
Mg322 O335 2.010 . S
O323 Mg322 2.028 . S
O323 C326 1.250 . S
O324 Mg325 2.028 . S
O324 C326 1.248 . S
Mg325 O324 2.028 . S
Mg325 O330 2.032 . S
Mg325 O332 2.079 . S
C326 O323 1.250 . S
C326 O324 1.248 . S
C327 O328 1.264 . S
C327 O335 1.249 . S
O328 C327 1.264 . S
O329 Mg322 1.986 . S
O329 C333 1.246 . S
O330 Mg325 2.032 . S
O330 C333 1.259 . S
O331 Mg322 2.114 . S
O331 C334 1.252 . S
O332 Mg322 2.251 . S
O332 Mg325 2.079 . S
O332 C334 1.273 . S
C333 O329 1.246 . S
C333 O330 1.259 . S
C334 O331 1.252 . S
C334 O332 1.273 . S
O335 Mg322 2.010 . S
O335 C327 1.249 . S
H336 C344 0.950 . S
H337 C349 0.950 . S
H338 C346 0.950 . S
H339 C348 0.950 . S
H340 C350 0.950 . S
H341 C352 0.950 . S
H342 C354 0.950 . S
H343 C355 0.950 . S
C344 H336 0.950 . S
C344 C345 1.386 . S
C344 C346 1.391 . S
C345 C344 1.386 . S
C345 C349 1.393 . S
C346 H338 0.950 . S
C346 C344 1.391 . S
C346 C347 1.400 . S
C347 C346 1.400 . S
C347 C348 1.398 . S
C347 C353 1.491 1_545 S
C348 H339 0.950 . S
C348 C347 1.398 . S
C348 C349 1.391 . S
C349 H337 0.950 . S
C349 C345 1.393 . S
C349 C348 1.391 . S
C350 H340 0.950 . S
C350 C351 1.386 . S
C350 C352 1.391 . S
C351 C350 1.386 . S
C351 C355 1.393 . S
C352 H341 0.950 . S
C352 C350 1.391 . S
C352 C353 1.400 . S
C353 C347 1.491 1_565 S
C353 C352 1.400 . S
C353 C354 1.398 . S
C354 H342 0.950 . S
C354 C353 1.398 . S
C354 C355 1.391 . S
C355 H343 0.950 . S
C355 C351 1.393 . S
C355 C354 1.391 . S
H356 C364 0.950 . S
H357 C369 0.950 . S
H358 C366 0.950 . S
H359 C368 0.950 . S
H360 C370 0.950 . S
H361 C372 0.950 . S
H362 C374 0.950 . S
H363 C375 0.950 . S
C364 H356 0.950 . S
C364 C365 1.386 . S
C364 C366 1.391 . S
C365 C364 1.386 . S
C365 C369 1.393 . S
C366 H358 0.950 . S
C366 C364 1.391 . S
C366 C367 1.400 . S
C367 C366 1.400 . S
C367 C368 1.398 . S
C367 C373 1.491 . S
C368 H359 0.950 . S
C368 C367 1.398 . S
C368 C369 1.391 . S
C369 H357 0.950 . S
C369 C365 1.393 . S
C369 C368 1.391 . S
C370 H360 0.950 . S
C370 C371 1.386 . S
C370 C372 1.391 . S
C371 C370 1.386 . S
C371 C375 1.393 . S
C372 H361 0.950 . S
C372 C370 1.391 . S
C372 C373 1.400 . S
C373 C367 1.491 . S
C373 C372 1.400 . S
C373 C374 1.398 . S
C374 H362 0.950 . S
C374 C373 1.398 . S
C374 C375 1.391 . S
C375 H363 0.950 . S
C375 C371 1.393 . S
C375 C374 1.391 . S
H376 C384 0.950 . S
H377 C389 0.950 . S
H378 C386 0.950 . S
H379 C388 0.950 . S
H380 C390 0.950 . S
H381 C392 0.950 . S
H382 C394 0.950 . S
H383 C395 0.950 . S
C384 H376 0.950 . S
C384 C385 1.386 . S
C384 C386 1.391 . S
C385 C384 1.386 . S
C385 C389 1.393 . S
C386 H378 0.950 . S
C386 C384 1.391 . S
C386 C387 1.400 . S
C387 C386 1.400 . S
C387 C388 1.398 . S
C387 C393 1.491 1_655 S
C388 H379 0.950 . S
C388 C387 1.398 . S
C388 C389 1.391 . S
C389 H377 0.950 . S
C389 C385 1.393 . S
C389 C388 1.391 . S
C390 H380 0.950 . S
C390 C391 1.386 . S
C390 C392 1.391 . S
C391 C390 1.386 . S
C391 C395 1.393 . S
C392 H381 0.950 . S
C392 C390 1.391 . S
C392 C393 1.400 . S
C393 C387 1.491 1_455 S
C393 C392 1.400 . S
C393 C394 1.398 . S
C394 H382 0.950 . S
C394 C393 1.398 . S
C394 C395 1.391 . S
C395 H383 0.950 . S
C395 C391 1.393 . S
C395 C394 1.391 . S
H396 C404 0.950 . S
H397 C409 0.950 . S
H398 C406 0.950 . S
H399 C408 0.950 . S
H400 C410 0.950 . S
H401 C412 0.950 . S
H402 C414 0.950 . S
H403 C415 0.950 . S
C404 H396 0.950 . S
C404 C405 1.386 . S
C404 C406 1.391 . S
C405 C404 1.386 . S
C405 C409 1.393 . S
C406 H398 0.950 . S
C406 C404 1.391 . S
C406 C407 1.400 . S
C407 C406 1.400 . S
C407 C408 1.398 . S
C407 C413 1.491 1_565 S
C408 H399 0.950 . S
C408 C407 1.398 . S
C408 C409 1.391 . S
C409 H397 0.950 . S
C409 C405 1.393 . S
C409 C408 1.391 . S
C410 H400 0.950 . S
C410 C411 1.386 . S
C410 C412 1.391 . S
C411 C410 1.386 . S
C411 C415 1.393 . S
C412 H401 0.950 . S
C412 C410 1.391 . S
C412 C413 1.400 . S
C413 C407 1.491 1_545 S
C413 C412 1.400 . S
C413 C414 1.398 . S
C414 H402 0.950 . S
C414 C413 1.398 . S
C414 C415 1.391 . S
C415 H403 0.950 . S
C415 C411 1.393 . S
C415 C414 1.391 . S
H416 C424 0.950 . S
H417 C429 0.950 . S
H418 C426 0.950 . S
H419 C428 0.950 . S
H420 C430 0.950 . S
H421 C432 0.950 . S
H422 C434 0.950 . S
H423 C435 0.950 . S
C424 H416 0.950 . S
C424 C425 1.386 . S
C424 C426 1.391 . S
C425 C424 1.386 . S
C425 C429 1.393 . S
C426 H418 0.950 . S
C426 C424 1.391 . S
C426 C427 1.400 . S
C427 C426 1.400 . S
C427 C428 1.398 . S
C427 C433 1.491 . S
C428 H419 0.950 . S
C428 C427 1.398 . S
C428 C429 1.391 . S
C429 H417 0.950 . S
C429 C425 1.393 . S
C429 C428 1.391 . S
C430 H420 0.950 . S
C430 C431 1.386 . S
C430 C432 1.391 . S
C431 C430 1.386 . S
C431 C435 1.393 . S
C432 H421 0.950 . S
C432 C430 1.391 . S
C432 C433 1.400 . S
C433 C427 1.491 . S
C433 C432 1.400 . S
C433 C434 1.398 . S
C434 H422 0.950 . S
C434 C433 1.398 . S
C434 C435 1.391 . S
C435 H423 0.950 . S
C435 C431 1.393 . S
C435 C434 1.391 . S
H436 C444 0.950 . S
H437 C449 0.950 . S
H438 C446 0.950 . S
H439 C448 0.950 . S
H440 C450 0.950 . S
H441 C452 0.950 . S
H442 C454 0.950 . S
H443 C455 0.950 . S
C444 H436 0.950 . S
C444 C445 1.386 . S
C444 C446 1.391 . S
C445 C444 1.386 . S
C445 C449 1.393 . S
C446 H438 0.950 . S
C446 C444 1.391 . S
C446 C447 1.400 . S
C447 C446 1.400 . S
C447 C448 1.398 . S
C447 C453 1.491 1_455 S
C448 H439 0.950 . S
C448 C447 1.398 . S
C448 C449 1.391 . S
C449 H437 0.950 . S
C449 C445 1.393 . S
C449 C448 1.391 . S
C450 H440 0.950 . S
C450 C451 1.386 . S
C450 C452 1.391 . S
C451 C450 1.386 . S
C451 C455 1.393 . S
C452 H441 0.950 . S
C452 C450 1.391 . S
C452 C453 1.400 . S
C453 C447 1.491 1_655 S
C453 C452 1.400 . S
C453 C454 1.398 . S
C454 H442 0.950 . S
C454 C453 1.398 . S
C454 C455 1.391 . S
C455 H443 0.950 . S
C455 C451 1.393 . S
C455 C454 1.391 . S
H456 C464 0.950 . S
H457 C469 0.950 . S
H458 C466 0.950 . S
H459 C468 0.950 . S
H460 C470 0.950 . S
H461 C472 0.950 . S
H462 C474 0.950 . S
H463 C475 0.950 . S
C464 H456 0.950 . S
C464 C465 1.386 . S
C464 C466 1.391 . S
C465 C464 1.386 . S
C465 C469 1.393 . S
C466 H458 0.950 . S
C466 C464 1.391 . S
C466 C467 1.400 . S
C467 C466 1.400 . S
C467 C468 1.398 . S
C467 C473 1.491 1_565 S
C468 H459 0.950 . S
C468 C467 1.398 . S
C468 C469 1.391 . S
C469 H457 0.950 . S
C469 C465 1.393 . S
C469 C468 1.391 . S
C470 H460 0.950 . S
C470 C471 1.386 . S
C470 C472 1.391 . S
C471 C470 1.386 . S
C471 C475 1.393 . S
C472 H461 0.950 . S
C472 C470 1.391 . S
C472 C473 1.400 . S
C473 C467 1.491 1_545 S
C473 C472 1.400 . S
C473 C474 1.398 . S
C474 H462 0.950 . S
C474 C473 1.398 . S
C474 C475 1.391 . S
C475 H463 0.950 . S
C475 C471 1.393 . S
C475 C474 1.391 . S
H476 C484 0.950 . S
H477 C489 0.950 . S
H478 C486 0.950 . S
H479 C488 0.950 . S
H480 C490 0.950 . S
H481 C492 0.950 . S
H482 C494 0.950 . S
H483 C495 0.950 . S
C484 H476 0.950 . S
C484 C485 1.386 . S
C484 C486 1.391 . S
C485 C484 1.386 . S
C485 C489 1.393 . S
C486 H478 0.950 . S
C486 C484 1.391 . S
C486 C487 1.400 . S
C487 C486 1.400 . S
C487 C488 1.398 . S
C487 C493 1.491 . S
C488 H479 0.950 . S
C488 C487 1.398 . S
C488 C489 1.391 . S
C489 H477 0.950 . S
C489 C485 1.393 . S
C489 C488 1.391 . S
C490 H480 0.950 . S
C490 C491 1.386 . S
C490 C492 1.391 . S
C491 C490 1.386 . S
C491 C495 1.393 . S
C492 H481 0.950 . S
C492 C490 1.391 . S
C492 C493 1.400 . S
C493 C487 1.491 . S
C493 C492 1.400 . S
C493 C494 1.398 . S
C494 H482 0.950 . S
C494 C493 1.398 . S
C494 C495 1.391 . S
C495 H483 0.950 . S
C495 C491 1.393 . S
C495 C494 1.391 . S
H496 C504 0.950 . S
H497 C509 0.950 . S
H498 C506 0.950 . S
H499 C508 0.950 . S
H500 C510 0.950 . S
H501 C512 0.950 . S
H502 C514 0.950 . S
H503 C515 0.950 . S
C504 H496 0.950 . S
C504 C505 1.386 . S
C504 C506 1.391 . S
C505 C504 1.386 . S
C505 C509 1.393 . S
C506 H498 0.950 . S
C506 C504 1.391 . S
C506 C507 1.400 . S
C507 C506 1.400 . S
C507 C508 1.398 . S
C507 C513 1.491 1_655 S
C508 H499 0.950 . S
C508 C507 1.398 . S
C508 C509 1.391 . S
C509 H497 0.950 . S
C509 C505 1.393 . S
C509 C508 1.391 . S
C510 H500 0.950 . S
C510 C511 1.386 . S
C510 C512 1.391 . S
C511 C510 1.386 . S
C511 C515 1.393 . S
C512 H501 0.950 . S
C512 C510 1.391 . S
C512 C513 1.400 . S
C513 C507 1.491 1_455 S
C513 C512 1.400 . S
C513 C514 1.398 . S
C514 H502 0.950 . S
C514 C513 1.398 . S
C514 C515 1.391 . S
C515 H503 0.950 . S
C515 C511 1.393 . S
C515 C514 1.391 . S
H516 C524 0.950 . S
H517 C529 0.950 . S
H518 C526 0.950 . S
H519 C528 0.950 . S
H520 C530 0.950 . S
H521 C532 0.950 . S
H522 C534 0.950 . S
H523 C535 0.950 . S
C524 H516 0.950 . S
C524 C525 1.386 . S
C524 C526 1.391 . S
C525 C524 1.386 . S
C525 C529 1.393 . S
C526 H518 0.950 . S
C526 C524 1.391 . S
C526 C527 1.400 . S
C527 C526 1.400 . S
C527 C528 1.398 . S
C527 C533 1.491 1_545 S
C528 H519 0.950 . S
C528 C527 1.398 . S
C528 C529 1.391 . S
C529 H517 0.950 . S
C529 C525 1.393 . S
C529 C528 1.391 . S
C530 H520 0.950 . S
C530 C531 1.386 . S
C530 C532 1.391 . S
C531 C530 1.386 . S
C531 C535 1.393 . S
C532 H521 0.950 . S
C532 C530 1.391 . S
C532 C533 1.400 . S
C533 C527 1.491 1_565 S
C533 C532 1.400 . S
C533 C534 1.398 . S
C534 H522 0.950 . S
C534 C533 1.398 . S
C534 C535 1.391 . S
C535 H523 0.950 . S
C535 C531 1.393 . S
C535 C534 1.391 . S
H536 C544 0.950 . S
H537 C549 0.950 . S
H538 C546 0.950 . S
H539 C548 0.950 . S
H540 C550 0.950 . S
H541 C552 0.950 . S
H542 C554 0.950 . S
H543 C555 0.950 . S
C544 H536 0.950 . S
C544 C545 1.386 . S
C544 C546 1.391 . S
C545 C544 1.386 . S
C545 C549 1.393 . S
C546 H538 0.950 . S
C546 C544 1.391 . S
C546 C547 1.400 . S
C547 C546 1.400 . S
C547 C548 1.398 . S
C547 C553 1.491 . S
C548 H539 0.950 . S
C548 C547 1.398 . S
C548 C549 1.391 . S
C549 H537 0.950 . S
C549 C545 1.393 . S
C549 C548 1.391 . S
C550 H540 0.950 . S
C550 C551 1.386 . S
C550 C552 1.391 . S
C551 C550 1.386 . S
C551 C555 1.393 . S
C552 H541 0.950 . S
C552 C550 1.391 . S
C552 C553 1.400 . S
C553 C547 1.491 . S
C553 C552 1.400 . S
C553 C554 1.398 . S
C554 H542 0.950 . S
C554 C553 1.398 . S
C554 C555 1.391 . S
C555 H543 0.950 . S
C555 C551 1.393 . S
C555 C554 1.391 . S
H556 C564 0.950 . S
H557 C569 0.950 . S
H558 C566 0.950 . S
H559 C568 0.950 . S
H560 C570 0.950 . S
H561 C572 0.950 . S
H562 C574 0.950 . S
H563 C575 0.950 . S
C564 H556 0.950 . S
C564 C565 1.386 . S
C564 C566 1.391 . S
C565 C564 1.386 . S
C565 C569 1.393 . S
C566 H558 0.950 . S
C566 C564 1.391 . S
C566 C567 1.400 . S
C567 C566 1.400 . S
C567 C568 1.398 . S
C567 C573 1.491 1_455 S
C568 H559 0.950 . S
C568 C567 1.398 . S
C568 C569 1.391 . S
C569 H557 0.950 . S
C569 C565 1.393 . S
C569 C568 1.391 . S
C570 H560 0.950 . S
C570 C571 1.386 . S
C570 C572 1.391 . S
C571 C570 1.386 . S
C571 C575 1.393 . S
C572 H561 0.950 . S
C572 C570 1.391 . S
C572 C573 1.400 . S
C573 C567 1.491 1_655 S
C573 C572 1.400 . S
C573 C574 1.398 . S
C574 H562 0.950 . S
C574 C573 1.398 . S
C574 C575 1.391 . S
C575 H563 0.950 . S
C575 C571 1.393 . S
C575 C574 1.391 . S
H576 C584 0.950 . S
H577 C589 0.950 . S
H578 C586 0.950 . S
H579 C588 0.950 . S
H580 C590 0.950 . S
H581 C592 0.950 . S
H582 C594 0.950 . S
H583 C595 0.950 . S
C584 H576 0.950 . S
C584 C585 1.386 . S
C584 C586 1.391 . S
C585 C584 1.386 . S
C585 C589 1.393 . S
C586 H578 0.950 . S
C586 C584 1.391 . S
C586 C587 1.400 . S
C587 C586 1.400 . S
C587 C588 1.398 . S
C587 C593 1.491 . S
C588 H579 0.950 . S
C588 C587 1.398 . S
C588 C589 1.391 . S
C589 H577 0.950 . S
C589 C585 1.393 . S
C589 C588 1.391 . S
C590 H580 0.950 . S
C590 C591 1.386 . S
C590 C592 1.391 . S
C591 C590 1.386 . S
C591 C595 1.393 . S
C592 H581 0.950 . S
C592 C590 1.391 . S
C592 C593 1.400 . S
C593 C587 1.491 . S
C593 C592 1.400 . S
C593 C594 1.398 . S
C594 H582 0.950 . S
C594 C593 1.398 . S
C594 C595 1.391 . S
C595 H583 0.950 . S
C595 C591 1.393 . S
C595 C594 1.391 . S
H596 C604 0.950 . S
H597 C609 0.950 . S
H598 C606 0.950 . S
H599 C608 0.950 . S
H600 C610 0.950 . S
H601 C612 0.950 . S
H602 C614 0.950 . S
H603 C615 0.950 . S
C604 H596 0.950 . S
C604 C605 1.386 . S
C604 C606 1.391 . S
C605 C604 1.386 . S
C605 C609 1.393 . S
C606 H598 0.950 . S
C606 C604 1.391 . S
C606 C607 1.400 . S
C607 C606 1.400 . S
C607 C608 1.398 . S
C607 C613 1.491 . S
C608 H599 0.950 . S
C608 C607 1.398 . S
C608 C609 1.391 . S
C609 H597 0.950 . S
C609 C605 1.393 . S
C609 C608 1.391 . S
C610 H600 0.950 . S
C610 C611 1.386 . S
C610 C612 1.391 . S
C611 C610 1.386 . S
C611 C615 1.393 . S
C612 H601 0.950 . S
C612 C610 1.391 . S
C612 C613 1.400 . S
C613 C607 1.491 . S
C613 C612 1.400 . S
C613 C614 1.398 . S
C614 H602 0.950 . S
C614 C613 1.398 . S
C614 C615 1.391 . S
C615 H603 0.950 . S
C615 C611 1.393 . S
C615 C614 1.391 . S
H616 C624 0.950 . S
H617 C629 0.950 . S
H618 C626 0.950 . S
H619 C628 0.950 . S
H620 C630 0.950 . S
H621 C632 0.950 . S
H622 C634 0.950 . S
H623 C635 0.950 . S
C624 H616 0.950 . S
C624 C625 1.386 . S
C624 C626 1.391 . S
C625 C624 1.386 . S
C625 C629 1.393 . S
C626 H618 0.950 . S
C626 C624 1.391 . S
C626 C627 1.400 . S
C627 C626 1.400 . S
C627 C628 1.398 . S
C627 C633 1.491 . S
C628 H619 0.950 . S
C628 C627 1.398 . S
C628 C629 1.391 . S
C629 H617 0.950 . S
C629 C625 1.393 . S
C629 C628 1.391 . S
C630 H620 0.950 . S
C630 C631 1.386 . S
C630 C632 1.391 . S
C631 C630 1.386 . S
C631 C635 1.393 . S
C632 H621 0.950 . S
C632 C630 1.391 . S
C632 C633 1.400 . S
C633 C627 1.491 . S
C633 C632 1.400 . S
C633 C634 1.398 . S
C634 H622 0.950 . S
C634 C633 1.398 . S
C634 C635 1.391 . S
C635 H623 0.950 . S
C635 C631 1.393 . S
C635 C634 1.391 . S
H636 C644 0.950 . S
H637 C649 0.950 . S
H638 C646 0.950 . S
H639 C648 0.950 . S
H640 C650 0.950 . S
H641 C652 0.950 . S
H642 C654 0.950 . S
H643 C655 0.950 . S
C644 H636 0.950 . S
C644 C645 1.386 . S
C644 C646 1.391 . S
C645 C644 1.386 . S
C645 C649 1.393 . S
C646 H638 0.950 . S
C646 C644 1.391 . S
C646 C647 1.400 . S
C647 C646 1.400 . S
C647 C648 1.398 . S
C647 C653 1.491 . S
C648 H639 0.950 . S
C648 C647 1.398 . S
C648 C649 1.391 . S
C649 H637 0.950 . S
C649 C645 1.393 . S
C649 C648 1.391 . S
C650 H640 0.950 . S
C650 C651 1.386 . S
C650 C652 1.391 . S
C651 C650 1.386 . S
C651 C655 1.393 . S
C652 H641 0.950 . S
C652 C650 1.391 . S
C652 C653 1.400 . S
C653 C647 1.491 . S
C653 C652 1.400 . S
C653 C654 1.398 . S
C654 H642 0.950 . S
C654 C653 1.398 . S
C654 C655 1.391 . S
C655 H643 0.950 . S
C655 C651 1.393 . S
C655 C654 1.391 . S
H656 C664 0.950 . S
H657 C669 0.950 . S
H658 C666 0.950 . S
H659 C668 0.950 . S
H660 C670 0.950 . S
H661 C672 0.950 . S
H662 C674 0.950 . S
H663 C675 0.950 . S
C664 H656 0.950 . S
C664 C665 1.386 . S
C664 C666 1.391 . S
C665 C664 1.386 . S
C665 C669 1.393 . S
C666 H658 0.950 . S
C666 C664 1.391 . S
C666 C667 1.400 . S
C667 C666 1.400 . S
C667 C668 1.398 . S
C667 C673 1.491 . S
C668 H659 0.950 . S
C668 C667 1.398 . S
C668 C669 1.391 . S
C669 H657 0.950 . S
C669 C665 1.393 . S
C669 C668 1.391 . S
C670 H660 0.950 . S
C670 C671 1.386 . S
C670 C672 1.391 . S
C671 C670 1.386 . S
C671 C675 1.393 . S
C672 H661 0.950 . S
C672 C670 1.391 . S
C672 C673 1.400 . S
C673 C667 1.491 . S
C673 C672 1.400 . S
C673 C674 1.398 . S
C674 H662 0.950 . S
C674 C673 1.398 . S
C674 C675 1.391 . S
C675 H663 0.950 . S
C675 C671 1.393 . S
C675 C674 1.391 . S
H676 C684 0.950 . S
H677 C689 0.950 . S
H678 C686 0.950 . S
H679 C688 0.950 . S
H680 C690 0.950 . S
H681 C692 0.950 . S
H682 C694 0.950 . S
H683 C695 0.950 . S
C684 H676 0.950 . S
C684 C685 1.386 . S
C684 C686 1.391 . S
C685 C684 1.386 . S
C685 C689 1.393 . S
C686 H678 0.950 . S
C686 C684 1.391 . S
C686 C687 1.400 . S
C687 C686 1.400 . S
C687 C688 1.398 . S
C687 C693 1.491 . S
C688 H679 0.950 . S
C688 C687 1.398 . S
C688 C689 1.391 . S
C689 H677 0.950 . S
C689 C685 1.393 . S
C689 C688 1.391 . S
C690 H680 0.950 . S
C690 C691 1.386 . S
C690 C692 1.391 . S
C691 C690 1.386 . S
C691 C695 1.393 . S
C692 H681 0.950 . S
C692 C690 1.391 . S
C692 C693 1.400 . S
C693 C687 1.491 . S
C693 C692 1.400 . S
C693 C694 1.398 . S
C694 H682 0.950 . S
C694 C693 1.398 . S
C694 C695 1.391 . S
C695 H683 0.950 . S
C695 C691 1.393 . S
C695 C694 1.391 . S
H696 C704 0.950 . S
H697 C709 0.950 . S
H698 C706 0.950 . S
H699 C708 0.950 . S
H700 C710 0.950 . S
H701 C712 0.950 . S
H702 C714 0.950 . S
H703 C715 0.950 . S
C704 H696 0.950 . S
C704 C705 1.386 . S
C704 C706 1.391 . S
C705 C704 1.386 . S
C705 C709 1.393 . S
C706 H698 0.950 . S
C706 C704 1.391 . S
C706 C707 1.400 . S
C707 C706 1.400 . S
C707 C708 1.398 . S
C707 C713 1.491 . S
C708 H699 0.950 . S
C708 C707 1.398 . S
C708 C709 1.391 . S
C709 H697 0.950 . S
C709 C705 1.393 . S
C709 C708 1.391 . S
C710 H700 0.950 . S
C710 C711 1.386 . S
C710 C712 1.391 . S
C711 C710 1.386 . S
C711 C715 1.393 . S
C712 H701 0.950 . S
C712 C710 1.391 . S
C712 C713 1.400 . S
C713 C707 1.491 . S
C713 C712 1.400 . S
C713 C714 1.398 . S
C714 H702 0.950 . S
C714 C713 1.398 . S
C714 C715 1.391 . S
C715 H703 0.950 . S
C715 C711 1.393 . S
C715 C714 1.391 . S
H716 C724 0.950 . S
H717 C729 0.950 . S
H718 C726 0.950 . S
H719 C728 0.950 . S
H720 C730 0.950 . S
H721 C732 0.950 . S
H722 C734 0.950 . S
H723 C735 0.950 . S
C724 H716 0.950 . S
C724 C725 1.386 . S
C724 C726 1.391 . S
C725 C724 1.386 . S
C725 C729 1.393 . S
C726 H718 0.950 . S
C726 C724 1.391 . S
C726 C727 1.400 . S
C727 C726 1.400 . S
C727 C728 1.398 . S
C727 C733 1.491 . S
C728 H719 0.950 . S
C728 C727 1.398 . S
C728 C729 1.391 . S
C729 H717 0.950 . S
C729 C725 1.393 . S
C729 C728 1.391 . S
C730 H720 0.950 . S
C730 C731 1.386 . S
C730 C732 1.391 . S
C731 C730 1.386 . S
C731 C735 1.393 . S
C732 H721 0.950 . S
C732 C730 1.391 . S
C732 C733 1.400 . S
C733 C727 1.491 . S
C733 C732 1.400 . S
C733 C734 1.398 . S
C734 H722 0.950 . S
C734 C733 1.398 . S
C734 C735 1.391 . S
C735 H723 0.950 . S
C735 C731 1.393 . S
C735 C734 1.391 . S
H736 C744 0.950 . S
H737 C749 0.950 . S
H738 C746 0.950 . S
H739 C748 0.950 . S
H740 C750 0.950 . S
H741 C752 0.950 . S
H742 C754 0.950 . S
H743 C755 0.950 . S
C744 H736 0.950 . S
C744 C745 1.386 . S
C744 C746 1.391 . S
C745 C744 1.386 . S
C745 C749 1.393 . S
C746 H738 0.950 . S
C746 C744 1.391 . S
C746 C747 1.400 . S
C747 C746 1.400 . S
C747 C748 1.398 . S
C747 C753 1.491 . S
C748 H739 0.950 . S
C748 C747 1.398 . S
C748 C749 1.391 . S
C749 H737 0.950 . S
C749 C745 1.393 . S
C749 C748 1.391 . S
C750 H740 0.950 . S
C750 C751 1.386 . S
C750 C752 1.391 . S
C751 C750 1.386 . S
C751 C755 1.393 . S
C752 H741 0.950 . S
C752 C750 1.391 . S
C752 C753 1.400 . S
C753 C747 1.491 . S
C753 C752 1.400 . S
C753 C754 1.398 . S
C754 H742 0.950 . S
C754 C753 1.398 . S
C754 C755 1.391 . S
C755 H743 0.950 . S
C755 C751 1.393 . S
C755 C754 1.391 . S
H756 C764 0.950 . S
H757 C769 0.950 . S
H758 C766 0.950 . S
H759 C768 0.950 . S
H760 C770 0.950 . S
H761 C772 0.950 . S
H762 C774 0.950 . S
H763 C775 0.950 . S
C764 H756 0.950 . S
C764 C765 1.386 . S
C764 C766 1.391 . S
C765 C764 1.386 . S
C765 C769 1.393 . S
C766 H758 0.950 . S
C766 C764 1.391 . S
C766 C767 1.400 . S
C767 C766 1.400 . S
C767 C768 1.398 . S
C767 C773 1.491 . S
C768 H759 0.950 . S
C768 C767 1.398 . S
C768 C769 1.391 . S
C769 H757 0.950 . S
C769 C765 1.393 . S
C769 C768 1.391 . S
C770 H760 0.950 . S
C770 C771 1.386 . S
C770 C772 1.391 . S
C771 C770 1.386 . S
C771 C775 1.393 . S
C772 H761 0.950 . S
C772 C770 1.391 . S
C772 C773 1.400 . S
C773 C767 1.491 . S
C773 C772 1.400 . S
C773 C774 1.398 . S
C774 H762 0.950 . S
C774 C773 1.398 . S
C774 C775 1.391 . S
C775 H763 0.950 . S
C775 C771 1.393 . S
C775 C774 1.391 . S
H776 C784 0.950 . S
H777 C789 0.950 . S
H778 C786 0.950 . S
H779 C788 0.950 . S
H780 C790 0.950 . S
H781 C792 0.950 . S
H782 C794 0.950 . S
H783 C795 0.950 . S
C784 H776 0.950 . S
C784 C785 1.386 . S
C784 C786 1.391 . S
C785 C784 1.386 . S
C785 C789 1.393 . S
C786 H778 0.950 . S
C786 C784 1.391 . S
C786 C787 1.400 . S
C787 C786 1.400 . S
C787 C788 1.398 . S
C787 C793 1.491 . S
C788 H779 0.950 . S
C788 C787 1.398 . S
C788 C789 1.391 . S
C789 H777 0.950 . S
C789 C785 1.393 . S
C789 C788 1.391 . S
C790 H780 0.950 . S
C790 C791 1.386 . S
C790 C792 1.391 . S
C791 C790 1.386 . S
C791 C795 1.393 . S
C792 H781 0.950 . S
C792 C790 1.391 . S
C792 C793 1.400 . S
C793 C787 1.491 . S
C793 C792 1.400 . S
C793 C794 1.398 . S
C794 H782 0.950 . S
C794 C793 1.398 . S
C794 C795 1.391 . S
C795 H783 0.950 . S
C795 C791 1.393 . S
C795 C794 1.391 . S
H796 C804 0.950 . S
H797 C809 0.950 . S
H798 C806 0.950 . S
H799 C808 0.950 . S
H800 C810 0.950 . S
H801 C812 0.950 . S
H802 C814 0.950 . S
H803 C815 0.950 . S
C804 H796 0.950 . S
C804 C805 1.386 . S
C804 C806 1.391 . S
C805 C804 1.386 . S
C805 C809 1.393 . S
C806 H798 0.950 . S
C806 C804 1.391 . S
C806 C807 1.400 . S
C807 C806 1.400 . S
C807 C808 1.398 . S
C807 C813 1.491 . S
C808 H799 0.950 . S
C808 C807 1.398 . S
C808 C809 1.391 . S
C809 H797 0.950 . S
C809 C805 1.393 . S
C809 C808 1.391 . S
C810 H800 0.950 . S
C810 C811 1.386 . S
C810 C812 1.391 . S
C811 C810 1.386 . S
C811 C815 1.393 . S
C812 H801 0.950 . S
C812 C810 1.391 . S
C812 C813 1.400 . S
C813 C807 1.491 . S
C813 C812 1.400 . S
C813 C814 1.398 . S
C814 H802 0.950 . S
C814 C813 1.398 . S
C814 C815 1.391 . S
C815 H803 0.950 . S
C815 C811 1.393 . S
C815 C814 1.391 . S
H816 C824 0.950 . S
H817 C829 0.950 . S
H818 C826 0.950 . S
H819 C828 0.950 . S
H820 C830 0.950 . S
H821 C832 0.950 . S
H822 C834 0.950 . S
H823 C835 0.950 . S
C824 H816 0.950 . S
C824 C825 1.386 . S
C824 C826 1.391 . S
C825 C824 1.386 . S
C825 C829 1.393 . S
C826 H818 0.950 . S
C826 C824 1.391 . S
C826 C827 1.400 . S
C827 C826 1.400 . S
C827 C828 1.398 . S
C827 C833 1.491 1_554 S
C828 H819 0.950 . S
C828 C827 1.398 . S
C828 C829 1.391 . S
C829 H817 0.950 . S
C829 C825 1.393 . S
C829 C828 1.391 . S
C830 H820 0.950 . S
C830 C831 1.386 . S
C830 C832 1.391 . S
C831 C830 1.386 . S
C831 C835 1.393 . S
C832 H821 0.950 . S
C832 C830 1.391 . S
C832 C833 1.400 . S
C833 C827 1.491 1_556 S
C833 C832 1.400 . S
C833 C834 1.398 . S
C834 H822 0.950 . S
C834 C833 1.398 . S
C834 C835 1.391 . S
C835 H823 0.950 . S
C835 C831 1.393 . S
C835 C834 1.391 . S
H836 C844 0.950 . S
H837 C849 0.950 . S
H838 C846 0.950 . S
H839 C848 0.950 . S
H840 C850 0.950 . S
H841 C852 0.950 . S
H842 C854 0.950 . S
H843 C855 0.950 . S
C844 H836 0.950 . S
C844 C845 1.386 . S
C844 C846 1.391 . S
C845 C844 1.386 . S
C845 C849 1.393 . S
C846 H838 0.950 . S
C846 C844 1.391 . S
C846 C847 1.400 . S
C847 C846 1.400 . S
C847 C848 1.398 . S
C847 C853 1.491 1_556 S
C848 H839 0.950 . S
C848 C847 1.398 . S
C848 C849 1.391 . S
C849 H837 0.950 . S
C849 C845 1.393 . S
C849 C848 1.391 . S
C850 H840 0.950 . S
C850 C851 1.386 . S
C850 C852 1.391 . S
C851 C850 1.386 . S
C851 C855 1.393 . S
C852 H841 0.950 . S
C852 C850 1.391 . S
C852 C853 1.400 . S
C853 C847 1.491 1_554 S
C853 C852 1.400 . S
C853 C854 1.398 . S
C854 H842 0.950 . S
C854 C853 1.398 . S
C854 C855 1.391 . S
C855 H843 0.950 . S
C855 C851 1.393 . S
C855 C854 1.391 . S
H856 C864 0.950 . S
H857 C869 0.950 . S
H858 C866 0.950 . S
H859 C868 0.950 . S
H860 C870 0.950 . S
H861 C872 0.950 . S
H862 C874 0.950 . S
H863 C875 0.950 . S
C864 H856 0.950 . S
C864 C865 1.386 . S
C864 C866 1.391 . S
C865 C864 1.386 . S
C865 C869 1.393 . S
C866 H858 0.950 . S
C866 C864 1.391 . S
C866 C867 1.400 . S
C867 C866 1.400 . S
C867 C868 1.398 . S
C867 C873 1.491 1_556 S
C868 H859 0.950 . S
C868 C867 1.398 . S
C868 C869 1.391 . S
C869 H857 0.950 . S
C869 C865 1.393 . S
C869 C868 1.391 . S
C870 H860 0.950 . S
C870 C871 1.386 . S
C870 C872 1.391 . S
C871 C870 1.386 . S
C871 C875 1.393 . S
C872 H861 0.950 . S
C872 C870 1.391 . S
C872 C873 1.400 . S
C873 C867 1.491 1_554 S
C873 C872 1.400 . S
C873 C874 1.398 . S
C874 H862 0.950 . S
C874 C873 1.398 . S
C874 C875 1.391 . S
C875 H863 0.950 . S
C875 C871 1.393 . S
C875 C874 1.391 . S
H876 C884 0.950 . S
H877 C889 0.950 . S
H878 C886 0.950 . S
H879 C888 0.950 . S
H880 C890 0.950 . S
H881 C892 0.950 . S
H882 C894 0.950 . S
H883 C895 0.950 . S
C884 H876 0.950 . S
C884 C885 1.386 . S
C884 C886 1.391 . S
C885 C884 1.386 . S
C885 C889 1.393 . S
C886 H878 0.950 . S
C886 C884 1.391 . S
C886 C887 1.400 . S
C887 C886 1.400 . S
C887 C888 1.398 . S
C887 C893 1.491 1_554 S
C888 H879 0.950 . S
C888 C887 1.398 . S
C888 C889 1.391 . S
C889 H877 0.950 . S
C889 C885 1.393 . S
C889 C888 1.391 . S
C890 H880 0.950 . S
C890 C891 1.386 . S
C890 C892 1.391 . S
C891 C890 1.386 . S
C891 C895 1.393 . S
C892 H881 0.950 . S
C892 C890 1.391 . S
C892 C893 1.400 . S
C893 C887 1.491 1_556 S
C893 C892 1.400 . S
C893 C894 1.398 . S
C894 H882 0.950 . S
C894 C893 1.398 . S
C894 C895 1.391 . S
C895 H883 0.950 . S
C895 C891 1.393 . S
C895 C894 1.391 . S
H896 C904 0.950 . S
H897 C909 0.950 . S
H898 C906 0.950 . S
H899 C908 0.950 . S
H900 C910 0.950 . S
H901 C912 0.950 . S
H902 C914 0.950 . S
H903 C915 0.950 . S
C904 H896 0.950 . S
C904 C905 1.386 . S
C904 C906 1.391 . S
C905 C904 1.386 . S
C905 C909 1.393 . S
C906 H898 0.950 . S
C906 C904 1.391 . S
C906 C907 1.400 . S
C907 C906 1.400 . S
C907 C908 1.398 . S
C907 C913 1.491 1_554 S
C908 H899 0.950 . S
C908 C907 1.398 . S
C908 C909 1.391 . S
C909 H897 0.950 . S
C909 C905 1.393 . S
C909 C908 1.391 . S
C910 H900 0.950 . S
C910 C911 1.386 . S
C910 C912 1.391 . S
C911 C910 1.386 . S
C911 C915 1.393 . S
C912 H901 0.950 . S
C912 C910 1.391 . S
C912 C913 1.400 . S
C913 C907 1.491 1_556 S
C913 C912 1.400 . S
C913 C914 1.398 . S
C914 H902 0.950 . S
C914 C913 1.398 . S
C914 C915 1.391 . S
C915 H903 0.950 . S
C915 C911 1.393 . S
C915 C914 1.391 . S
H916 C924 0.950 . S
H917 C929 0.950 . S
H918 C926 0.950 . S
H919 C928 0.950 . S
H920 C930 0.950 . S
H921 C932 0.950 . S
H922 C934 0.950 . S
H923 C935 0.950 . S
C924 H916 0.950 . S
C924 C925 1.386 . S
C924 C926 1.391 . S
C925 C924 1.386 . S
C925 C929 1.393 . S
C926 H918 0.950 . S
C926 C924 1.391 . S
C926 C927 1.400 . S
C927 C926 1.400 . S
C927 C928 1.398 . S
C927 C933 1.491 1_556 S
C928 H919 0.950 . S
C928 C927 1.398 . S
C928 C929 1.391 . S
C929 H917 0.950 . S
C929 C925 1.393 . S
C929 C928 1.391 . S
C930 H920 0.950 . S
C930 C931 1.386 . S
C930 C932 1.391 . S
C931 C930 1.386 . S
C931 C935 1.393 . S
C932 H921 0.950 . S
C932 C930 1.391 . S
C932 C933 1.400 . S
C933 C927 1.491 1_554 S
C933 C932 1.400 . S
C933 C934 1.398 . S
C934 H922 0.950 . S
C934 C933 1.398 . S
C934 C935 1.391 . S
C935 H923 0.950 . S
C935 C931 1.393 . S
C935 C934 1.391 . S
H936 C944 0.950 . S
H937 C949 0.950 . S
H938 C946 0.950 . S
H939 C948 0.950 . S
H940 C950 0.950 . S
H941 C952 0.950 . S
H942 C954 0.950 . S
H943 C955 0.950 . S
C944 H936 0.950 . S
C944 C945 1.386 . S
C944 C946 1.391 . S
C945 C944 1.386 . S
C945 C949 1.393 . S
C946 H938 0.950 . S
C946 C944 1.391 . S
C946 C947 1.400 . S
C947 C946 1.400 . S
C947 C948 1.398 . S
C947 C953 1.491 . S
C948 H939 0.950 . S
C948 C947 1.398 . S
C948 C949 1.391 . S
C949 H937 0.950 . S
C949 C945 1.393 . S
C949 C948 1.391 . S
C950 H940 0.950 . S
C950 C951 1.386 . S
C950 C952 1.391 . S
C951 C950 1.386 . S
C951 C955 1.393 . S
C952 H941 0.950 . S
C952 C950 1.391 . S
C952 C953 1.400 . S
C953 C947 1.491 . S
C953 C952 1.400 . S
C953 C954 1.398 . S
C954 H942 0.950 . S
C954 C953 1.398 . S
C954 C955 1.391 . S
C955 H943 0.950 . S
C955 C951 1.393 . S
C955 C954 1.391 . S
H956 C964 0.950 . S
H957 C969 0.950 . S
H958 C966 0.950 . S
H959 C968 0.950 . S
H960 C970 0.950 . S
H961 C972 0.950 . S
H962 C974 0.950 . S
H963 C975 0.950 . S
C964 H956 0.950 . S
C964 C965 1.386 . S
C964 C966 1.391 . S
C965 C964 1.386 . S
C965 C969 1.393 . S
C966 H958 0.950 . S
C966 C964 1.391 . S
C966 C967 1.400 . S
C967 C966 1.400 . S
C967 C968 1.398 . S
C967 C973 1.491 . S
C968 H959 0.950 . S
C968 C967 1.398 . S
C968 C969 1.391 . S
C969 H957 0.950 . S
C969 C965 1.393 . S
C969 C968 1.391 . S
C970 H960 0.950 . S
C970 C971 1.386 . S
C970 C972 1.391 . S
C971 C970 1.386 . S
C971 C975 1.393 . S
C972 H961 0.950 . S
C972 C970 1.391 . S
C972 C973 1.400 . S
C973 C967 1.491 . S
C973 C972 1.400 . S
C973 C974 1.398 . S
C974 H962 0.950 . S
C974 C973 1.398 . S
C974 C975 1.391 . S
C975 H963 0.950 . S
C975 C971 1.393 . S
C975 C974 1.391 . S
H976 C984 0.950 . S
H977 C989 0.950 . S
H978 C986 0.950 . S
H979 C988 0.950 . S
H980 C990 0.950 . S
H981 C992 0.950 . S
H982 C994 0.950 . S
H983 C995 0.950 . S
C984 H976 0.950 . S
C984 C985 1.386 . S
C984 C986 1.391 . S
C985 C984 1.386 . S
C985 C989 1.393 . S
C986 H978 0.950 . S
C986 C984 1.391 . S
C986 C987 1.400 . S
C987 C986 1.400 . S
C987 C988 1.398 . S
C987 C993 1.491 . S
C988 H979 0.950 . S
C988 C987 1.398 . S
C988 C989 1.391 . S
C989 H977 0.950 . S
C989 C985 1.393 . S
C989 C988 1.391 . S
C990 H980 0.950 . S
C990 C991 1.386 . S
C990 C992 1.391 . S
C991 C990 1.386 . S
C991 C995 1.393 . S
C992 H981 0.950 . S
C992 C990 1.391 . S
C992 C993 1.400 . S
C993 C987 1.491 . S
C993 C992 1.400 . S
C993 C994 1.398 . S
C994 H982 0.950 . S
C994 C993 1.398 . S
C994 C995 1.391 . S
C995 H983 0.950 . S
C995 C991 1.393 . S
C995 C994 1.391 . S
H996 C1004 0.950 . S
H997 C1009 0.950 . S
H998 C1006 0.950 . S
H999 C1008 0.950 . S
H1000 C1010 0.950 . S
H1001 C1012 0.950 . S
H1002 C1014 0.950 . S
H1003 C1015 0.950 . S
C1004 H996 0.950 . S
C1004 C1005 1.386 . S
C1004 C1006 1.391 . S
C1005 C1004 1.386 . S
C1005 C1009 1.393 . S
C1006 H998 0.950 . S
C1006 C1004 1.391 . S
C1006 C1007 1.400 . S
C1007 C1006 1.400 . S
C1007 C1008 1.398 . S
C1007 C1013 1.491 . S
C1008 H999 0.950 . S
C1008 C1007 1.398 . S
C1008 C1009 1.391 . S
C1009 H997 0.950 . S
C1009 C1005 1.393 . S
C1009 C1008 1.391 . S
C1010 H1000 0.950 . S
C1010 C1011 1.386 . S
C1010 C1012 1.391 . S
C1011 C1010 1.386 . S
C1011 C1015 1.393 . S
C1012 H1001 0.950 . S
C1012 C1010 1.391 . S
C1012 C1013 1.400 . S
C1013 C1007 1.491 . S
C1013 C1012 1.400 . S
C1013 C1014 1.398 . S
C1014 H1002 0.950 . S
C1014 C1013 1.398 . S
C1014 C1015 1.391 . S
C1015 H1003 0.950 . S
C1015 C1011 1.393 . S
C1015 C1014 1.391 . S
H1016 C1024 0.950 . S
H1017 C1029 0.950 . S
H1018 C1026 0.950 . S
H1019 C1028 0.950 . S
H1020 C1030 0.950 . S
H1021 C1032 0.950 . S
H1022 C1034 0.950 . S
H1023 C1035 0.950 . S
C1024 H1016 0.950 . S
C1024 C1025 1.386 . S
C1024 C1026 1.391 . S
C1025 C1024 1.386 . S
C1025 C1029 1.393 . S
C1026 H1018 0.950 . S
C1026 C1024 1.391 . S
C1026 C1027 1.400 . S
C1027 C1026 1.400 . S
C1027 C1028 1.398 . S
C1027 C1033 1.491 . S
C1028 H1019 0.950 . S
C1028 C1027 1.398 . S
C1028 C1029 1.391 . S
C1029 H1017 0.950 . S
C1029 C1025 1.393 . S
C1029 C1028 1.391 . S
C1030 H1020 0.950 . S
C1030 C1031 1.386 . S
C1030 C1032 1.391 . S
C1031 C1030 1.386 . S
C1031 C1035 1.393 . S
C1032 H1021 0.950 . S
C1032 C1030 1.391 . S
C1032 C1033 1.400 . S
C1033 C1027 1.491 . S
C1033 C1032 1.400 . S
C1033 C1034 1.398 . S
C1034 H1022 0.950 . S
C1034 C1033 1.398 . S
C1034 C1035 1.391 . S
C1035 H1023 0.950 . S
C1035 C1031 1.393 . S
C1035 C1034 1.391 . S
H1036 C1044 0.950 . S
H1037 C1049 0.950 . S
H1038 C1046 0.950 . S
H1039 C1048 0.950 . S
H1040 C1050 0.950 . S
H1041 C1052 0.950 . S
H1042 C1054 0.950 . S
H1043 C1055 0.950 . S
C1044 H1036 0.950 . S
C1044 C1045 1.386 . S
C1044 C1046 1.391 . S
C1045 C1044 1.386 . S
C1045 C1049 1.393 . S
C1046 H1038 0.950 . S
C1046 C1044 1.391 . S
C1046 C1047 1.400 . S
C1047 C1046 1.400 . S
C1047 C1048 1.398 . S
C1047 C1053 1.491 . S
C1048 H1039 0.950 . S
C1048 C1047 1.398 . S
C1048 C1049 1.391 . S
C1049 H1037 0.950 . S
C1049 C1045 1.393 . S
C1049 C1048 1.391 . S
C1050 H1040 0.950 . S
C1050 C1051 1.386 . S
C1050 C1052 1.391 . S
C1051 C1050 1.386 . S
C1051 C1055 1.393 . S
C1052 H1041 0.950 . S
C1052 C1050 1.391 . S
C1052 C1053 1.400 . S
C1053 C1047 1.491 . S
C1053 C1052 1.400 . S
C1053 C1054 1.398 . S
C1054 H1042 0.950 . S
C1054 C1053 1.398 . S
C1054 C1055 1.391 . S
C1055 H1043 0.950 . S
C1055 C1051 1.393 . S
C1055 C1054 1.391 . S
H1056 C1064 0.950 . S
H1057 C1069 0.950 . S
H1058 C1066 0.950 . S
H1059 C1068 0.950 . S
H1060 C1070 0.950 . S
H1061 C1072 0.950 . S
H1062 C1074 0.950 . S
H1063 C1075 0.950 . S
C1064 H1056 0.950 . S
C1064 C1065 1.386 . S
C1064 C1066 1.391 . S
C1065 C1064 1.386 . S
C1065 C1069 1.393 . S
C1066 H1058 0.950 . S
C1066 C1064 1.391 . S
C1066 C1067 1.400 . S
C1067 C1066 1.400 . S
C1067 C1068 1.398 . S
C1067 C1073 1.491 . S
C1068 H1059 0.950 . S
C1068 C1067 1.398 . S
C1068 C1069 1.391 . S
C1069 H1057 0.950 . S
C1069 C1065 1.393 . S
C1069 C1068 1.391 . S
C1070 H1060 0.950 . S
C1070 C1071 1.386 . S
C1070 C1072 1.391 . S
C1071 C1070 1.386 . S
C1071 C1075 1.393 . S
C1072 H1061 0.950 . S
C1072 C1070 1.391 . S
C1072 C1073 1.400 . S
C1073 C1067 1.491 . S
C1073 C1072 1.400 . S
C1073 C1074 1.398 . S
C1074 H1062 0.950 . S
C1074 C1073 1.398 . S
C1074 C1075 1.391 . S
C1075 H1063 0.950 . S
C1075 C1071 1.393 . S
C1075 C1074 1.391 . S
H1076 C1084 0.950 . S
H1077 C1089 0.950 . S
H1078 C1086 0.950 . S
H1079 C1088 0.950 . S
H1080 C1090 0.950 . S
H1081 C1092 0.950 . S
H1082 C1094 0.950 . S
H1083 C1095 0.950 . S
C1084 H1076 0.950 . S
C1084 C1085 1.386 . S
C1084 C1086 1.391 . S
C1085 C1084 1.386 . S
C1085 C1089 1.393 . S
C1086 H1078 0.950 . S
C1086 C1084 1.391 . S
C1086 C1087 1.400 . S
C1087 C1086 1.400 . S
C1087 C1088 1.398 . S
C1087 C1093 1.491 . S
C1088 H1079 0.950 . S
C1088 C1087 1.398 . S
C1088 C1089 1.391 . S
C1089 H1077 0.950 . S
C1089 C1085 1.393 . S
C1089 C1088 1.391 . S
C1090 H1080 0.950 . S
C1090 C1091 1.386 . S
C1090 C1092 1.391 . S
C1091 C1090 1.386 . S
C1091 C1095 1.393 . S
C1092 H1081 0.950 . S
C1092 C1090 1.391 . S
C1092 C1093 1.400 . S
C1093 C1087 1.491 . S
C1093 C1092 1.400 . S
C1093 C1094 1.398 . S
C1094 H1082 0.950 . S
C1094 C1093 1.398 . S
C1094 C1095 1.391 . S
C1095 H1083 0.950 . S
C1095 C1091 1.393 . S
C1095 C1094 1.391 . S
H1096 C1104 0.950 . S
H1097 C1109 0.950 . S
H1098 C1106 0.950 . S
H1099 C1108 0.950 . S
H1100 C1110 0.950 . S
H1101 C1112 0.950 . S
H1102 C1114 0.950 . S
H1103 C1115 0.950 . S
C1104 H1096 0.950 . S
C1104 C1105 1.386 . S
C1104 C1106 1.391 . S
C1105 C1104 1.386 . S
C1105 C1109 1.393 . S
C1106 H1098 0.950 . S
C1106 C1104 1.391 . S
C1106 C1107 1.400 . S
C1107 C1106 1.400 . S
C1107 C1108 1.398 . S
C1107 C1113 1.491 . S
C1108 H1099 0.950 . S
C1108 C1107 1.398 . S
C1108 C1109 1.391 . S
C1109 H1097 0.950 . S
C1109 C1105 1.393 . S
C1109 C1108 1.391 . S
C1110 H1100 0.950 . S
C1110 C1111 1.386 . S
C1110 C1112 1.391 . S
C1111 C1110 1.386 . S
C1111 C1115 1.393 . S
C1112 H1101 0.950 . S
C1112 C1110 1.391 . S
C1112 C1113 1.400 . S
C1113 C1107 1.491 . S
C1113 C1112 1.400 . S
C1113 C1114 1.398 . S
C1114 H1102 0.950 . S
C1114 C1113 1.398 . S
C1114 C1115 1.391 . S
C1115 H1103 0.950 . S
C1115 C1111 1.393 . S
C1115 C1114 1.391 . S
H1116 C1124 0.950 . S
H1117 C1129 0.950 . S
H1118 C1126 0.950 . S
H1119 C1128 0.950 . S
H1120 C1130 0.950 . S
H1121 C1132 0.950 . S
H1122 C1134 0.950 . S
H1123 C1135 0.950 . S
C1124 H1116 0.950 . S
C1124 C1125 1.386 . S
C1124 C1126 1.391 . S
C1125 C1124 1.386 . S
C1125 C1129 1.393 . S
C1126 H1118 0.950 . S
C1126 C1124 1.391 . S
C1126 C1127 1.400 . S
C1127 C1126 1.400 . S
C1127 C1128 1.398 . S
C1127 C1133 1.491 . S
C1128 H1119 0.950 . S
C1128 C1127 1.398 . S
C1128 C1129 1.391 . S
C1129 H1117 0.950 . S
C1129 C1125 1.393 . S
C1129 C1128 1.391 . S
C1130 H1120 0.950 . S
C1130 C1131 1.386 . S
C1130 C1132 1.391 . S
C1131 C1130 1.386 . S
C1131 C1135 1.393 . S
C1132 H1121 0.950 . S
C1132 C1130 1.391 . S
C1132 C1133 1.400 . S
C1133 C1127 1.491 . S
C1133 C1132 1.400 . S
C1133 C1134 1.398 . S
C1134 H1122 0.950 . S
C1134 C1133 1.398 . S
C1134 C1135 1.391 . S
C1135 H1123 0.950 . S
C1135 C1131 1.393 . S
C1135 C1134 1.391 . S
H1136 C1144 0.950 . S
H1137 C1149 0.950 . S
H1138 C1146 0.950 . S
H1139 C1148 0.950 . S
H1140 C1150 0.950 . S
H1141 C1152 0.950 . S
H1142 C1154 0.950 . S
H1143 C1155 0.950 . S
C1144 H1136 0.950 . S
C1144 C1145 1.386 . S
C1144 C1146 1.391 . S
C1145 C1144 1.386 . S
C1145 C1149 1.393 . S
C1146 H1138 0.950 . S
C1146 C1144 1.391 . S
C1146 C1147 1.400 . S
C1147 C1146 1.400 . S
C1147 C1148 1.398 . S
C1147 C1153 1.491 . S
C1148 H1139 0.950 . S
C1148 C1147 1.398 . S
C1148 C1149 1.391 . S
C1149 H1137 0.950 . S
C1149 C1145 1.393 . S
C1149 C1148 1.391 . S
C1150 H1140 0.950 . S
C1150 C1151 1.386 . S
C1150 C1152 1.391 . S
C1151 C1150 1.386 . S
C1151 C1155 1.393 . S
C1152 H1141 0.950 . S
C1152 C1150 1.391 . S
C1152 C1153 1.400 . S
C1153 C1147 1.491 . S
C1153 C1152 1.400 . S
C1153 C1154 1.398 . S
C1154 H1142 0.950 . S
C1154 C1153 1.398 . S
C1154 C1155 1.391 . S
C1155 H1143 0.950 . S
C1155 C1151 1.393 . S
C1155 C1154 1.391 . S
H1156 C1164 0.950 . S
H1157 C1169 0.950 . S
H1158 C1166 0.950 . S
H1159 C1168 0.950 . S
H1160 C1170 0.950 . S
H1161 C1172 0.950 . S
H1162 C1174 0.950 . S
H1163 C1175 0.950 . S
C1164 H1156 0.950 . S
C1164 C1165 1.386 . S
C1164 C1166 1.391 . S
C1165 C1164 1.386 . S
C1165 C1169 1.393 . S
C1166 H1158 0.950 . S
C1166 C1164 1.391 . S
C1166 C1167 1.400 . S
C1167 C1166 1.400 . S
C1167 C1168 1.398 . S
C1167 C1173 1.491 . S
C1168 H1159 0.950 . S
C1168 C1167 1.398 . S
C1168 C1169 1.391 . S
C1169 H1157 0.950 . S
C1169 C1165 1.393 . S
C1169 C1168 1.391 . S
C1170 H1160 0.950 . S
C1170 C1171 1.386 . S
C1170 C1172 1.391 . S
C1171 C1170 1.386 . S
C1171 C1175 1.393 . S
C1172 H1161 0.950 . S
C1172 C1170 1.391 . S
C1172 C1173 1.400 . S
C1173 C1167 1.491 . S
C1173 C1172 1.400 . S
C1173 C1174 1.398 . S
C1174 H1162 0.950 . S
C1174 C1173 1.398 . S
C1174 C1175 1.391 . S
C1175 H1163 0.950 . S
C1175 C1171 1.393 . S
C1175 C1174 1.391 . S
H1176 C1184 0.950 . S
H1177 C1189 0.950 . S
H1178 C1186 0.950 . S
H1179 C1188 0.950 . S
H1180 C1190 0.950 . S
H1181 C1192 0.950 . S
H1182 C1194 0.950 . S
H1183 C1195 0.950 . S
C1184 H1176 0.950 . S
C1184 C1185 1.386 . S
C1184 C1186 1.391 . S
C1185 C1184 1.386 . S
C1185 C1189 1.393 . S
C1186 H1178 0.950 . S
C1186 C1184 1.391 . S
C1186 C1187 1.400 . S
C1187 C1186 1.400 . S
C1187 C1188 1.398 . S
C1187 C1193 1.491 . S
C1188 H1179 0.950 . S
C1188 C1187 1.398 . S
C1188 C1189 1.391 . S
C1189 H1177 0.950 . S
C1189 C1185 1.393 . S
C1189 C1188 1.391 . S
C1190 H1180 0.950 . S
C1190 C1191 1.386 . S
C1190 C1192 1.391 . S
C1191 C1190 1.386 . S
C1191 C1195 1.393 . S
C1192 H1181 0.950 . S
C1192 C1190 1.391 . S
C1192 C1193 1.400 . S
C1193 C1187 1.491 . S
C1193 C1192 1.400 . S
C1193 C1194 1.398 . S
C1194 H1182 0.950 . S
C1194 C1193 1.398 . S
C1194 C1195 1.391 . S
C1195 H1183 0.950 . S
C1195 C1191 1.393 . S
C1195 C1194 1.391 . S
H1196 C1204 0.950 . S
H1197 C1209 0.950 . S
H1198 C1206 0.950 . S
H1199 C1208 0.950 . S
H1200 C1210 0.950 . S
H1201 C1212 0.950 . S
H1202 C1214 0.950 . S
H1203 C1215 0.950 . S
C1204 H1196 0.950 . S
C1204 C1205 1.386 . S
C1204 C1206 1.391 . S
C1205 C1204 1.386 . S
C1205 C1209 1.393 . S
C1206 H1198 0.950 . S
C1206 C1204 1.391 . S
C1206 C1207 1.400 . S
C1207 C1206 1.400 . S
C1207 C1208 1.398 . S
C1207 C1213 1.491 . S
C1208 H1199 0.950 . S
C1208 C1207 1.398 . S
C1208 C1209 1.391 . S
C1209 H1197 0.950 . S
C1209 C1205 1.393 . S
C1209 C1208 1.391 . S
C1210 H1200 0.950 . S
C1210 C1211 1.386 . S
C1210 C1212 1.391 . S
C1211 C1210 1.386 . S
C1211 C1215 1.393 . S
C1212 H1201 0.950 . S
C1212 C1210 1.391 . S
C1212 C1213 1.400 . S
C1213 C1207 1.491 . S
C1213 C1212 1.400 . S
C1213 C1214 1.398 . S
C1214 H1202 0.950 . S
C1214 C1213 1.398 . S
C1214 C1215 1.391 . S
C1215 H1203 0.950 . S
C1215 C1211 1.393 . S
C1215 C1214 1.391 . S
H1216 C1224 0.950 . S
H1217 C1229 0.950 . S
H1218 C1226 0.950 . S
H1219 C1228 0.950 . S
H1220 C1230 0.950 . S
H1221 C1232 0.950 . S
H1222 C1234 0.950 . S
H1223 C1235 0.950 . S
C1224 H1216 0.950 . S
C1224 C1225 1.386 . S
C1224 C1226 1.391 . S
C1225 C1224 1.386 . S
C1225 C1229 1.393 . S
C1226 H1218 0.950 . S
C1226 C1224 1.391 . S
C1226 C1227 1.400 . S
C1227 C1226 1.400 . S
C1227 C1228 1.398 . S
C1227 C1233 1.491 . S
C1228 H1219 0.950 . S
C1228 C1227 1.398 . S
C1228 C1229 1.391 . S
C1229 H1217 0.950 . S
C1229 C1225 1.393 . S
C1229 C1228 1.391 . S
C1230 H1220 0.950 . S
C1230 C1231 1.386 . S
C1230 C1232 1.391 . S
C1231 C1230 1.386 . S
C1231 C1235 1.393 . S
C1232 H1221 0.950 . S
C1232 C1230 1.391 . S
C1232 C1233 1.400 . S
C1233 C1227 1.491 . S
C1233 C1232 1.400 . S
C1233 C1234 1.398 . S
C1234 H1222 0.950 . S
C1234 C1233 1.398 . S
C1234 C1235 1.391 . S
C1235 H1223 0.950 . S
C1235 C1231 1.393 . S
C1235 C1234 1.391 . S
H1236 C1244 0.950 . S
H1237 C1249 0.950 . S
H1238 C1246 0.950 . S
H1239 C1248 0.950 . S
H1240 C1250 0.950 . S
H1241 C1252 0.950 . S
H1242 C1254 0.950 . S
H1243 C1255 0.950 . S
C1244 H1236 0.950 . S
C1244 C1245 1.386 . S
C1244 C1246 1.391 . S
C1245 C1244 1.386 . S
C1245 C1249 1.393 . S
C1246 H1238 0.950 . S
C1246 C1244 1.391 . S
C1246 C1247 1.400 . S
C1247 C1246 1.400 . S
C1247 C1248 1.398 . S
C1247 C1253 1.491 . S
C1248 H1239 0.950 . S
C1248 C1247 1.398 . S
C1248 C1249 1.391 . S
C1249 H1237 0.950 . S
C1249 C1245 1.393 . S
C1249 C1248 1.391 . S
C1250 H1240 0.950 . S
C1250 C1251 1.386 . S
C1250 C1252 1.391 . S
C1251 C1250 1.386 . S
C1251 C1255 1.393 . S
C1252 H1241 0.950 . S
C1252 C1250 1.391 . S
C1252 C1253 1.400 . S
C1253 C1247 1.491 . S
C1253 C1252 1.400 . S
C1253 C1254 1.398 . S
C1254 H1242 0.950 . S
C1254 C1253 1.398 . S
C1254 C1255 1.391 . S
C1255 H1243 0.950 . S
C1255 C1251 1.393 . S
C1255 C1254 1.391 . S
H1256 C1264 0.950 . S
H1257 C1269 0.950 . S
H1258 C1266 0.950 . S
H1259 C1268 0.950 . S
H1260 C1270 0.950 . S
H1261 C1272 0.950 . S
H1262 C1274 0.950 . S
H1263 C1275 0.950 . S
C1264 H1256 0.950 . S
C1264 C1265 1.386 . S
C1264 C1266 1.391 . S
C1265 C1264 1.386 . S
C1265 C1269 1.393 . S
C1266 H1258 0.950 . S
C1266 C1264 1.391 . S
C1266 C1267 1.400 . S
C1267 C1266 1.400 . S
C1267 C1268 1.398 . S
C1267 C1273 1.491 . S
C1268 H1259 0.950 . S
C1268 C1267 1.398 . S
C1268 C1269 1.391 . S
C1269 H1257 0.950 . S
C1269 C1265 1.393 . S
C1269 C1268 1.391 . S
C1270 H1260 0.950 . S
C1270 C1271 1.386 . S
C1270 C1272 1.391 . S
C1271 C1270 1.386 . S
C1271 C1275 1.393 . S
C1272 H1261 0.950 . S
C1272 C1270 1.391 . S
C1272 C1273 1.400 . S
C1273 C1267 1.491 . S
C1273 C1272 1.400 . S
C1273 C1274 1.398 . S
C1274 H1262 0.950 . S
C1274 C1273 1.398 . S
C1274 C1275 1.391 . S
C1275 H1263 0.950 . S
C1275 C1271 1.393 . S
C1275 C1274 1.391 . S
H1276 C1284 0.950 . S
H1277 C1289 0.950 . S
H1278 C1286 0.950 . S
H1279 C1288 0.950 . S
H1280 C1290 0.950 . S
H1281 C1292 0.950 . S
H1282 C1294 0.950 . S
H1283 C1295 0.950 . S
C1284 H1276 0.950 . S
C1284 C1285 1.386 . S
C1284 C1286 1.391 . S
C1285 C1284 1.386 . S
C1285 C1289 1.393 . S
C1286 H1278 0.950 . S
C1286 C1284 1.391 . S
C1286 C1287 1.400 . S
C1287 C1286 1.400 . S
C1287 C1288 1.398 . S
C1287 C1293 1.491 . S
C1288 H1279 0.950 . S
C1288 C1287 1.398 . S
C1288 C1289 1.391 . S
C1289 H1277 0.950 . S
C1289 C1285 1.393 . S
C1289 C1288 1.391 . S
C1290 H1280 0.950 . S
C1290 C1291 1.386 . S
C1290 C1292 1.391 . S
C1291 C1290 1.386 . S
C1291 C1295 1.393 . S
C1292 H1281 0.950 . S
C1292 C1290 1.391 . S
C1292 C1293 1.400 . S
C1293 C1287 1.491 . S
C1293 C1292 1.400 . S
C1293 C1294 1.398 . S
C1294 H1282 0.950 . S
C1294 C1293 1.398 . S
C1294 C1295 1.391 . S
C1295 H1283 0.950 . S
C1295 C1291 1.393 . S
C1295 C1294 1.391 . S
C345 C12 1.420 . S
C351 C110 1.413 . S
C365 C124 1.411 . S
C371 C26 1.421 . S
C385 C40 1.410 . S
C391 C138 1.421 . S
C405 C54 1.410 . S
C411 C152 1.421 . S
C425 C166 1.421 . S
C431 C68 1.410 . S
C445 C82 1.410 . S
C451 C96 1.421 . S
C465 C173 1.065 . S
C471 C271 1.094 . S
C485 C187 1.109 . S
C491 C285 1.061 . S
C505 C299 1.065 . S
C511 C201 1.115 . S
C525 C215 1.115 . S
C531 C313 1.073 . S
C545 C229 1.061 . S
C551 C327 1.107 . S
C565 C257 1.068 . S
C571 C243 1.090 . S
C585 C5 0.923 . S
C591 C117 0.954 . S
C605 C131 0.935 . S
C611 C19 0.938 . S
C625 C145 0.945 . S
C631 C33 0.984 . S
C645 C47 0.975 . S
C651 C159 0.917 . S
C665 C61 0.976 . S
C671 C89 0.959 . S
C685 C75 0.980 . S
C691 C103 0.953 . S
C705 C292 1.315 . S
C711 C180 1.318 . S
C725 C194 1.319 . S
C731 C306 1.318 . S
C745 C320 1.318 . S
C751 C208 1.315 . S
C765 C334 1.318 . S
C771 C222 1.318 . S
C785 C264 1.316 . S
C791 C236 1.316 . S
C805 C250 1.318 . S
C811 C278 1.317 . S
C825 C11 1.493 . S
C831 C221 1.500 . S
C845 C235 1.488 . S
C851 C25 1.485 . S
C865 C249 1.499 . S
C871 C39 1.486 . S
C885 C53 1.487 . S
C891 C179 1.487 . S
C905 C67 1.487 . S
C911 C193 1.487 . S
C925 C207 1.490 . S
C931 C81 1.482 . S
C945 C305 1.498 . S
C951 C95 1.485 . S
C965 C319 1.499 . S
C971 C109 1.496 . S
C985 C333 1.499 . S
C991 C123 1.496 . S
C1005 C263 1.488 . S
C1011 C137 1.493 . S
C1025 C151 1.494 . S
C1031 C277 1.500 . S
C1045 C165 1.497 . S
C1051 C291 1.496 . S
C1065 C4 1.447 . S
C1071 C144 1.463 . S
C1085 C158 1.470 . S
C1091 C18 1.445 . S
C1105 C88 1.461 . S
C1111 C32 1.448 . S
C1125 C46 1.469 . S
C1131 C102 1.450 . S
C1145 C60 1.466 . S
C1151 C116 1.445 . S
C1165 C74 1.453 . S
C1171 C130 1.468 . S
C1185 C172 1.500 . S
C1191 C312 1.512 . S
C1205 C186 1.500 . S
C1211 C326 1.511 . S
C1225 C200 1.508 . S
C1231 C256 1.501 . S
C1245 C270 1.501 . S
C1251 C214 1.508 . S
C1265 C228 1.504 . S
C1271 C284 1.511 . S
C1285 C242 1.509 . S
C1291 C298 1.506 . S
