# Generated by pormake.
# Topology fnq, (5)-cn, num edge types: 1
# Building blocks:
#     Node 0, Type 0, BuildingBlock: BEQFEK_clean_sbu_0, # of connection points: 5
#     Node 1, Type 0, BuildingBlock: BEQFEK_clean_sbu_0, # of connection points: 5
#     Node 2, Type 0, BuildingBlock: BEQFEK_clean_sbu_0, # of connection points: 5
#     Node 3, Type 0, BuildingBlock: BEQFEK_clean_sbu_0, # of connection points: 5
#     Node 4, Type 0, BuildingBlock: BEQFEK_clean_sbu_0, # of connection points: 5
#     Node 5, Type 0, BuildingBlock: BEQFEK_clean_sbu_0, # of connection points: 5
#     Node 6, Type 0, BuildingBlock: BEQFEK_clean_sbu_0, # of connection points: 5
#     Node 7, Type 0, BuildingBlock: BEQFEK_clean_sbu_0, # of connection points: 5
#     Node 8, Type 0, BuildingBlock: BEQFEK_clean_sbu_0, # of connection points: 5
#     Node 9, Type 0, BuildingBlock: BEQFEK_clean_sbu_0, # of connection points: 5
#     Node 10, Type 0, BuildingBlock: BEQFEK_clean_sbu_0, # of connection points: 5
#     Node 11, Type 0, BuildingBlock: BEQFEK_clean_sbu_0, # of connection points: 5
#     Node 12, Type 0, BuildingBlock: BEQFEK_clean_sbu_0, # of connection points: 5
#     Node 13, Type 0, BuildingBlock: BEQFEK_clean_sbu_0, # of connection points: 5
#     Node 14, Type 0, BuildingBlock: BEQFEK_clean_sbu_0, # of connection points: 5
#     Node 15, Type 0, BuildingBlock: BEQFEK_clean_sbu_0, # of connection points: 5
#     Node 16, Type 0, BuildingBlock: BEQFEK_clean_sbu_0, # of connection points: 5
#     Node 17, Type 0, BuildingBlock: BEQFEK_clean_sbu_0, # of connection points: 5
#     Edge 18, Type (0, 0), BuildingBlock: OJICUG_clean_linker_0, # of connection points: 2
#     Edge 19, Type (0, 0), BuildingBlock: OJICUG_clean_linker_0, # of connection points: 2
#     Edge 20, Type (0, 0), BuildingBlock: OJICUG_clean_linker_0, # of connection points: 2
#     Edge 21, Type (0, 0), BuildingBlock: OJICUG_clean_linker_0, # of connection points: 2
#     Edge 22, Type (0, 0), BuildingBlock: OJICUG_clean_linker_0, # of connection points: 2
#     Edge 23, Type (0, 0), BuildingBlock: OJICUG_clean_linker_0, # of connection points: 2
#     Edge 24, Type (0, 0), BuildingBlock: OJICUG_clean_linker_0, # of connection points: 2
#     Edge 25, Type (0, 0), BuildingBlock: OJICUG_clean_linker_0, # of connection points: 2
#     Edge 26, Type (0, 0), BuildingBlock: OJICUG_clean_linker_0, # of connection points: 2
#     Edge 27, Type (0, 0), BuildingBlock: OJICUG_clean_linker_0, # of connection points: 2
#     Edge 28, Type (0, 0), BuildingBlock: OJICUG_clean_linker_0, # of connection points: 2
#     Edge 29, Type (0, 0), BuildingBlock: OJICUG_clean_linker_0, # of connection points: 2
#     Edge 30, Type (0, 0), BuildingBlock: OJICUG_clean_linker_0, # of connection points: 2
#     Edge 31, Type (0, 0), BuildingBlock: OJICUG_clean_linker_0, # of connection points: 2
#     Edge 32, Type (0, 0), BuildingBlock: OJICUG_clean_linker_0, # of connection points: 2
#     Edge 33, Type (0, 0), BuildingBlock: OJICUG_clean_linker_0, # of connection points: 2
#     Edge 34, Type (0, 0), BuildingBlock: OJICUG_clean_linker_0, # of connection points: 2
#     Edge 35, Type (0, 0), BuildingBlock: OJICUG_clean_linker_0, # of connection points: 2
#     Edge 36, Type (0, 0), BuildingBlock: OJICUG_clean_linker_0, # of connection points: 2
#     Edge 37, Type (0, 0), BuildingBlock: OJICUG_clean_linker_0, # of connection points: 2
#     Edge 38, Type (0, 0), BuildingBlock: OJICUG_clean_linker_0, # of connection points: 2
#     Edge 39, Type (0, 0), BuildingBlock: OJICUG_clean_linker_0, # of connection points: 2
#     Edge 40, Type (0, 0), BuildingBlock: OJICUG_clean_linker_0, # of connection points: 2
#     Edge 41, Type (0, 0), BuildingBlock: OJICUG_clean_linker_0, # of connection points: 2
#     Edge 42, Type (0, 0), BuildingBlock: OJICUG_clean_linker_0, # of connection points: 2
#     Edge 43, Type (0, 0), BuildingBlock: OJICUG_clean_linker_0, # of connection points: 2
#     Edge 44, Type (0, 0), BuildingBlock: OJICUG_clean_linker_0, # of connection points: 2
#     Edge 45, Type (0, 0), BuildingBlock: OJICUG_clean_linker_0, # of connection points: 2
#     Edge 46, Type (0, 0), BuildingBlock: OJICUG_clean_linker_0, # of connection points: 2
#     Edge 47, Type (0, 0), BuildingBlock: OJICUG_clean_linker_0, # of connection points: 2
#     Edge 48, Type (0, 0), BuildingBlock: OJICUG_clean_linker_0, # of connection points: 2
#     Edge 49, Type (0, 0), BuildingBlock: OJICUG_clean_linker_0, # of connection points: 2
#     Edge 50, Type (0, 0), BuildingBlock: OJICUG_clean_linker_0, # of connection points: 2
#     Edge 51, Type (0, 0), BuildingBlock: OJICUG_clean_linker_0, # of connection points: 2
#     Edge 52, Type (0, 0), BuildingBlock: OJICUG_clean_linker_0, # of connection points: 2
#     Edge 53, Type (0, 0), BuildingBlock: OJICUG_clean_linker_0, # of connection points: 2
#     Edge 54, Type (0, 0), BuildingBlock: OJICUG_clean_linker_0, # of connection points: 2
#     Edge 55, Type (0, 0), BuildingBlock: OJICUG_clean_linker_0, # of connection points: 2
#     Edge 56, Type (0, 0), BuildingBlock: OJICUG_clean_linker_0, # of connection points: 2
#     Edge 57, Type (0, 0), BuildingBlock: OJICUG_clean_linker_0, # of connection points: 2
#     Edge 58, Type (0, 0), BuildingBlock: OJICUG_clean_linker_0, # of connection points: 2
#     Edge 59, Type (0, 0), BuildingBlock: OJICUG_clean_linker_0, # of connection points: 2
#     Edge 60, Type (0, 0), BuildingBlock: OJICUG_clean_linker_0, # of connection points: 2
#     Edge 61, Type (0, 0), BuildingBlock: OJICUG_clean_linker_0, # of connection points: 2
#     Edge 62, Type (0, 0), BuildingBlock: OJICUG_clean_linker_0, # of connection points: 2
# Relax obj value: 0.459
# Max RMSD: 0.234
# Mean RMSD: 0.214
data_MOF--net-fnq--node1-BEQFEK_clean_sbu_0--edge1-OJICUG_clean_linker_0
_symmetry_space_group_name_H-M    P1
_symmetry_Int_Tables_number       1
_symmetry_cell_setting            triclinic
loop_
_symmetry_equiv_pos_as_xyz
'x, y, z'
_cell_length_a     38.346632
_cell_length_b     38.321573
_cell_length_c     27.493824
_cell_angle_alpha  90.233569
_cell_angle_beta   89.904674
_cell_angle_gamma 119.86682
loop_
_atom_site_label
_atom_site_type_symbol
_atom_site_fract_x
_atom_site_fract_y
_atom_site_fract_z
_atom_type_partial_charge
Co0 Co 0.23681 0.41679 0.15275 0.0
Co1 Co 0.22276 0.33212 0.16526 0.0
C2 C 0.30823 0.40617 0.15745 0.0
O3 O 0.29314 0.42786 0.14552 0.0
O4 O 0.2849 0.36871 0.16548 0.0
C5 C 0.26559 0.49687 0.17095 0.0
O6 O 0.2873 0.48951 0.20172 0.0
C7 C 0.22124 0.26861 0.11136 0.0
C8 C 0.18531 0.21358 0.15457 0.0
C9 C 0.20349 0.2273 0.10971 0.0
N10 N 0.21286 0.2792 0.15431 0.0
N11 N 0.19184 0.24634 0.18056 0.0
C12 C 0.24342 0.29765 0.07118 0.0
H13 H 0.26149 0.32868 0.08551 0.0
H14 H 0.22155 0.29729 0.04454 0.0
H15 H 0.26319 0.28869 0.0518 0.0
C16 C 0.16505 0.37547 0.08522 0.0
N17 N 0.19547 0.3767 0.11191 0.0
N18 N 0.18857 0.33993 0.11846 0.0
C19 C 0.15304 0.31397 0.09659 0.0
C20 C 0.13652 0.33535 0.0742 0.0
C21 C 0.16064 0.41163 0.07687 0.0
H22 H 0.1611 0.42569 0.11241 0.0
H23 H 0.18675 0.43412 0.05554 0.0
H24 H 0.13234 0.4039 0.0575 0.0
O25 O 0.2226 0.40289 0.22286 0.0
O26 O 0.20689 0.33901 0.23171 0.0
H27 H 0.13345 0.2599 0.13765 0.0
H28 H 0.10336 0.25302 0.08402 0.0
C29 C 0.13406 0.26912 0.09934 0.0
H30 H 0.15218 0.2596 0.07784 0.0
H31 H 0.18038 0.24606 0.2151 0.0
O32 O 0.24072 0.46878 0.14347 0.0
C33 C 0.21115 0.3718 0.24939 0.0
Co34 Co 0.6905 0.8442 0.15404 0.0
Co35 Co 0.7754 0.9168 0.16451 0.0
C36 C 0.70217 0.92803 0.16097 0.0
O37 O 0.68054 0.89054 0.15243 0.0
O38 O 0.74024 0.94361 0.16496 0.0
C39 C 0.61029 0.79238 0.17104 0.0
O40 O 0.61773 0.81993 0.20434 0.0
C41 C 0.84312 0.98835 0.12805 0.0
C42 C 0.89542 0.98531 0.15641 0.0
C43 C 0.88448 1.00602 0.12445 0.0
N44 N 0.83001 0.95835 0.16027 0.0
N45 N 0.86144 0.95735 0.17839 0.0
C46 C 0.81563 0.99481 0.09532 0.0
H47 H 0.79079 0.96533 0.0826 0.0
H48 H 0.8317 1.01385 0.06355 0.0
H49 H 0.80203 1.00978 0.11641 0.0
C50 C 0.73245 0.81553 0.08549 0.0
N51 N 0.73056 0.84461 0.11188 0.0
N52 N 0.76644 0.87667 0.11398 0.0
C53 C 0.79198 0.86933 0.08722 0.0
C54 C 0.77181 0.82996 0.06869 0.0
C55 C 0.69852 0.77304 0.08251 0.0
H56 H 0.67852 0.7704 0.0519 0.0
H57 H 0.70967 0.75165 0.07639 0.0
H58 H 0.68063 0.76484 0.11652 0.0
O59 O 0.70413 0.84033 0.22221 0.0
O60 O 0.76664 0.8912 0.23001 0.0
H61 H 0.8531 0.90192 0.11098 0.0
H62 H 0.84727 0.89174 0.04639 0.0
C63 C 0.83507 0.89973 0.07847 0.0
H64 H 0.83756 0.92922 0.07147 0.0
H65 H 0.8594 0.93541 0.20243 0.0
O66 O 0.63817 0.79713 0.14214 0.0
C67 C 0.73544 0.86111 0.2479 0.0
Co68 Co 0.26449 0.86743 0.15354 0.0
Co69 Co 0.19362 0.8817 0.16427 0.0
C70 C 0.18265 0.7961 0.16007 0.0
O71 O 0.21949 0.81089 0.14872 0.0
O72 O 0.16829 0.81958 0.16627 0.0
C73 C 0.31693 0.84065 0.17511 0.0
O74 O 0.28822 0.82001 0.20669 0.0
C75 C 0.13473 0.88493 0.10674 0.0
C76 C 0.11049 0.91645 0.1505 0.0
C77 C 0.10977 0.90115 0.10446 0.0
N78 N 0.15089 0.89152 0.1512 0.0
N79 N 0.13619 0.91013 0.17766 0.0
C80 C 0.14375 0.86369 0.06702 0.0
H81 H 0.15661 0.84578 0.08221 0.0
H82 H 0.16602 0.88616 0.0416 0.0
H83 H 0.11603 0.8438 0.0461 0.0
C84 C 0.29348 0.93615 0.08199 0.0
N85 N 0.26499 0.907 0.11059 0.0
N86 N 0.23527 0.91427 0.11674 0.0
C87 C 0.24437 0.9488 0.09274 0.0
C88 C 0.28128 0.96371 0.06901 0.0
C89 C 0.33346 0.93987 0.07163 0.0
H90 H 0.32931 0.91007 0.06098 0.0
H91 H 0.34957 0.96214 0.04244 0.0
H92 H 0.35191 0.94963 0.10527 0.0
O93 O 0.26474 0.88401 0.22262 0.0
O94 O 0.2162 0.89941 0.23047 0.0
H95 H 0.24118 1.00355 0.09115 0.0
H96 H 0.19683 0.95913 0.071 0.0
C97 C 0.22154 0.97089 0.098 0.0
H98 H 0.20867 0.96667 0.13504 0.0
H99 H 0.14465 0.91967 0.21347 0.0
O100 O 0.31298 0.86389 0.14566 0.0
C101 C 0.24502 0.89596 0.24853 0.0
Co102 Co 0.43484 0.21738 0.88324 0.0
Co103 Co 0.34997 0.20352 0.87401 0.0
C104 C 0.4247 0.289 0.87949 0.0
O105 O 0.44661 0.2739 0.89036 0.0
O106 O 0.38701 0.2657 0.87279 0.0
C107 C 0.51277 0.24319 0.85632 0.0
O108 O 0.50379 0.26414 0.82629 0.0
C109 C 0.28854 0.20132 0.9325 0.0
C110 C 0.23225 0.16707 0.89069 0.0
C111 C 0.24732 0.18379 0.93599 0.0
N112 N 0.29769 0.194 0.88809 0.0
N113 N 0.26408 0.17394 0.86273 0.0
C114 C 0.31909 0.22327 0.97153 0.0
H115 H 0.34924 0.24257 0.9555 0.0
H116 H 0.32091 0.2012 0.99583 0.0
H117 H 0.31026 0.24186 0.99378 0.0
C118 C 0.39559 0.14719 0.95299 0.0
N119 N 0.39615 0.17708 0.92591 0.0
N120 N 0.3592 0.16982 0.91998 0.0
C121 C 0.33378 0.13443 0.94231 0.0
C122 C 0.35574 0.11862 0.96468 0.0
C123 C 0.43196 0.14311 0.96092 0.0
H124 H 0.44195 0.13722 0.92545 0.0
H125 H 0.45682 0.17189 0.9753 0.0
H126 H 0.42576 0.11823 0.98626 0.0
O127 O 0.41768 0.20165 0.81449 0.0
O128 O 0.35392 0.18636 0.80713 0.0
H129 H 0.27948 0.11668 0.9022 0.0
H130 H 0.27353 0.08282 0.95103 0.0
C131 C 0.28886 0.11467 0.9397 0.0
H132 H 0.27863 0.13039 0.9647 0.0
H133 H 0.26267 0.1634 0.82732 0.0
O134 O 0.48685 0.2205 0.88742 0.0
C135 C 0.38613 0.18993 0.78875 0.0
Co136 Co 0.8836 0.23969 0.88514 0.0
Co137 Co 0.89709 0.16798 0.87948 0.0
C138 C 0.81183 0.15808 0.88303 0.0
O139 O 0.8271 0.19536 0.89244 0.0
O140 O 0.83496 0.14322 0.8776 0.0
C141 C 0.85734 0.29115 0.85628 0.0
O142 O 0.83668 0.26087 0.82643 0.0
C143 C 0.89936 0.11097 0.94179 0.0
C144 C 0.93634 0.08974 0.90427 0.0
C145 C 0.9187 0.08905 0.94865 0.0
N146 N 0.90663 0.12554 0.89649 0.0
N147 N 0.92822 0.11231 0.87367 0.0
C148 C 0.87552 0.11971 0.97817 0.0
H149 H 0.85333 0.1255 0.95955 0.0
H150 H 0.89601 0.14712 0.99921 0.0
H151 H 0.85964 0.09422 1.00377 0.0
C152 C 0.95331 0.27155 0.95616 0.0
N153 N 0.92367 0.24202 0.92888 0.0
N154 N 0.93032 0.21167 0.9252 0.0
C155 C 0.96476 0.22128 0.94989 0.0
C156 C 0.98043 0.25932 0.97118 0.0
C157 C 0.95771 0.31219 0.96367 0.0
H158 H 0.92792 0.30906 0.97177 0.0
H159 H 0.97914 0.3287 0.99359 0.0
H160 H 0.96904 0.32974 0.92959 0.0
O161 O 0.89955 0.23666 0.8171 0.0
O162 O 0.91455 0.18773 0.81186 0.0
H163 H 1.01882 0.21704 0.95506 0.0
H164 H 0.97358 0.1736 0.97498 0.0
C165 C 0.98624 0.19772 0.94734 0.0
H166 H 0.98259 0.18414 0.91076 0.0
H167 H 0.93937 0.12056 0.83844 0.0
O168 O 0.88028 0.28856 0.88767 0.0
C169 C 0.91118 0.21613 0.79234 0.0
Co170 Co 0.86285 0.66759 0.88255 0.0
Co171 Co 0.93532 0.75176 0.87267 0.0
C172 C 0.94438 0.67639 0.87936 0.0
O173 O 0.90711 0.65508 0.88882 0.0
O174 O 0.95968 0.71423 0.87303 0.0
C175 C 0.80963 0.58683 0.86606 0.0
O176 O 0.83803 0.59193 0.83528 0.0
C177 C 0.99416 0.81389 0.93045 0.0
C178 C 1.01968 0.86904 0.88602 0.0
C179 C 1.01957 0.85496 0.93246 0.0
N180 N 0.97852 0.80399 0.88574 0.0
N181 N 0.99399 0.83693 0.85888 0.0
C182 C 0.98428 0.78406 0.97061 0.0
H183 H 0.97133 0.75313 0.95578 0.0
H184 H 0.96178 0.78487 0.99527 0.0
H185 H 1.01162 0.79173 0.99224 0.0
C186 C 0.83455 0.7093 0.9525 0.0
N187 N 0.863 0.70755 0.92476 0.0
N188 N 0.89353 0.74403 0.91916 0.0
C189 C 0.88511 0.77026 0.94268 0.0
C190 C 0.84768 0.74931 0.9655 0.0
C191 C 0.7943 0.67367 0.96312 0.0
H192 H 0.79769 0.64723 0.97158 0.0
H193 H 0.77944 0.67987 0.99397 0.0
H194 H 0.77503 0.66632 0.93032 0.0
O195 O 0.86316 0.68333 0.81316 0.0
O196 O 0.91331 0.74647 0.80609 0.0
H197 H 0.88915 0.82861 0.94148 0.0
H198 H 0.93269 0.82819 0.96432 0.0
C199 C 0.90859 0.81501 0.93654 0.0
H200 H 0.9222 0.82277 0.89983 0.0
H201 H 0.98606 0.83771 0.82283 0.0
O202 O 0.814 0.61632 0.89181 0.0
C203 C 0.88395 0.71482 0.78763 0.0
Co204 Co 0.90474 0.74991 0.48401 0.0
Co205 Co 0.89235 0.66503 0.49374 0.0
C206 C 0.97689 0.73793 0.48833 0.0
O207 O 0.961 0.75965 0.48037 0.0
O208 O 0.95435 0.69988 0.49273 0.0
C209 C 0.93431 0.8306 0.50042 0.0
O210 O 0.95535 0.82341 0.5324 0.0
C211 C 0.89484 0.59626 0.45713 0.0
C212 C 0.83993 0.54476 0.48728 0.0
C213 C 0.87085 0.55488 0.45439 0.0
N214 N 0.87879 0.6102 0.48971 0.0
N215 N 0.84661 0.57927 0.50886 0.0
C216 C 0.92847 0.62295 0.42363 0.0
H217 H 0.92368 0.64751 0.41014 0.0
H218 H 0.93129 0.6061 0.39239 0.0
H219 H 0.95711 0.63707 0.44436 0.0
C220 C 0.83264 0.70758 0.41726 0.0
N221 N 0.86402 0.70962 0.44267 0.0
N222 N 0.8603 0.67371 0.44434 0.0
C223 C 0.8271 0.64802 0.4183 0.0
C224 C 0.80748 0.66808 0.4007 0.0
C225 C 0.82407 0.7416 0.41468 0.0
H226 H 0.83542 0.76064 0.44777 0.0
H227 H 0.83979 0.76048 0.38266 0.0
H228 H 0.79136 0.73036 0.41095 0.0
O229 O 0.88867 0.73703 0.55294 0.0
O230 O 0.87664 0.67427 0.55988 0.0
H231 H 0.7991 0.58685 0.44163 0.0
H232 H 0.79427 0.59272 0.37724 0.0
C233 C 0.81462 0.60495 0.40908 0.0
H234 H 0.8416 0.60254 0.40144 0.0
H235 H 0.82736 0.58198 0.53346 0.0
O236 O 0.91015 0.80238 0.47256 0.0
C237 C 0.87834 0.70569 0.57839 0.0
Co238 Co 0.35489 0.17846 0.48348 0.0
Co239 Co 0.43967 0.24895 0.49744 0.0
C240 C 0.36537 0.26019 0.48965 0.0
O241 O 0.34356 0.22348 0.47751 0.0
O242 O 0.40284 0.2742 0.49766 0.0
C243 C 0.27552 0.12489 0.50286 0.0
O244 O 0.28233 0.15296 0.53515 0.0
C245 C 0.50268 0.30823 0.44171 0.0
C246 C 0.55769 0.33124 0.48624 0.0
C247 C 0.54386 0.33261 0.44011 0.0
N248 N 0.49237 0.2917 0.48585 0.0
N249 N 0.52522 0.30573 0.51281 0.0
C250 C 0.47325 0.2994 0.40125 0.0
H251 H 0.47353 0.27671 0.37632 0.0
H252 H 0.48174 0.32708 0.38001 0.0
H253 H 0.44234 0.28705 0.41572 0.0
C254 C 0.3963 0.14922 0.41474 0.0
N255 N 0.395 0.17805 0.44233 0.0
N256 N 0.43179 0.20716 0.45063 0.0
C257 C 0.45781 0.19718 0.42967 0.0
C258 C 0.43642 0.1602 0.4055 0.0
C259 C 0.36014 0.1093 0.40402 0.0
H260 H 0.33553 0.11384 0.39013 0.0
H261 H 0.367 0.09186 0.37719 0.0
H262 H 0.34951 0.09186 0.43827 0.0
O263 O 0.36945 0.17791 0.55323 0.0
O264 O 0.43312 0.22611 0.56328 0.0
H265 H 0.51001 0.23227 0.47391 0.0
H266 H 0.51734 0.20329 0.42722 0.0
C267 C 0.50253 0.22101 0.43602 0.0
H268 H 0.515 0.24701 0.41104 0.0
H269 H 0.5257 0.29678 0.54848 0.0
O270 O 0.30343 0.12987 0.47389 0.0
C271 C 0.40042 0.19726 0.58016 0.0
Co272 Co 0.92878 0.19889 0.48657 0.0
Co273 Co 0.85761 0.2125 0.49815 0.0
C274 C 0.84703 0.12719 0.4903 0.0
O275 O 0.88397 0.14239 0.47925 0.0
O276 O 0.83255 0.15042 0.4977 0.0
C277 C 0.98222 0.17229 0.505 0.0
O278 O 0.95429 0.15076 0.53704 0.0
C279 C 0.79595 0.21433 0.44408 0.0
C280 C 0.77694 0.25053 0.48759 0.0
C281 C 0.77265 0.23247 0.44253 0.0
N282 N 0.81463 0.22247 0.48712 0.0
N283 N 0.80282 0.24364 0.51355 0.0
C284 C 0.80268 0.19179 0.4039 0.0
H285 H 0.82574 0.21347 0.37852 0.0
H286 H 0.77446 0.17346 0.3831 0.0
H287 H 0.81369 0.17216 0.41855 0.0
C288 C 0.95944 0.27099 0.42007 0.0
N289 N 0.92999 0.24026 0.44598 0.0
N290 N 0.89988 0.24692 0.45199 0.0
C291 C 0.90951 0.28257 0.43047 0.0
C292 C 0.94775 0.29945 0.40898 0.0
C293 C 1.00026 0.27577 0.41269 0.0
H294 H 1.01342 0.27573 0.4486 0.0
H295 H 0.99732 0.24961 0.39177 0.0
H296 H 1.0208 0.30403 0.39336 0.0
O297 O 0.9284 0.21288 0.55666 0.0
O298 O 0.87971 0.22804 0.56492 0.0
H299 H 0.87424 0.3019 0.47085 0.0
H300 H 0.89794 0.33208 0.41755 0.0
C301 C 0.88337 0.30135 0.4327 0.0
H302 H 0.85612 0.28314 0.41074 0.0
H303 H 0.81383 0.25499 0.54816 0.0
O304 O 0.97726 0.19574 0.47705 0.0
C305 C 0.90817 0.22397 0.58294 0.0
Co306 Co 0.10807 0.55461 0.22682 0.0
Co307 Co 1.02302 0.54034 0.21686 0.0
C308 C 0.09747 0.62591 0.22158 0.0
O309 O 0.11939 0.61103 0.23335 0.0
O310 O 1.05983 0.60247 0.21475 0.0
C311 C 0.18709 0.58155 0.20441 0.0
O312 O 0.17897 0.60251 0.17336 0.0
C313 C 0.96179 0.53746 0.27593 0.0
C314 C 0.90494 0.50045 0.23619 0.0
C315 C 0.92047 0.51798 0.28107 0.0
N316 N 0.97052 0.53042 0.23113 0.0
N317 N 0.93653 0.50879 0.20696 0.0
C318 C 0.99309 0.56116 0.31358 0.0
H319 H 0.99911 0.54051 0.33553 0.0
H320 H 0.98273 0.57717 0.33823 0.0
H321 H 1.02167 0.5832 0.29607 0.0
C322 C 0.06857 0.48441 0.29642 0.0
N323 N 0.06919 0.51418 0.26903 0.0
N324 N 1.03228 0.50722 0.26359 0.0
C325 C 1.00699 0.47241 0.28714 0.0
C326 C 1.02893 0.45683 0.30959 0.0
C327 C 0.10474 0.48029 0.30561 0.0
H328 H 0.1304 0.50984 0.31666 0.0
H329 H 0.09868 0.45751 0.33411 0.0
H330 H 0.11325 0.47099 0.27137 0.0
O331 O 0.09195 0.53918 0.15757 0.0
O332 O 1.02785 0.52307 0.15025 0.0
H333 H 0.94906 0.41789 0.28964 0.0
H334 H 0.94941 0.46277 0.30894 0.0
C335 C 0.96217 0.4505 0.28223 0.0
H336 H 0.95354 0.4543 0.24505 0.0
H337 H 0.93479 0.49778 0.17177 0.0
O338 O 0.16003 0.55812 0.23383 0.0
C339 C 1.06033 0.52722 0.13183 0.0
Co340 Co 0.552 0.57408 0.21828 0.0
Co341 Co 0.56506 0.50233 0.20758 0.0
C342 C 0.47995 0.49216 0.21329 0.0
O343 O 0.49529 0.52933 0.22356 0.0
O344 O 0.503 0.4773 0.20718 0.0
C345 C 0.52674 0.62795 0.19662 0.0
O346 O 0.50621 0.59991 0.16409 0.0
C347 C 0.56967 0.44429 0.26518 0.0
C348 C 0.60072 0.41989 0.22081 0.0
C349 C 0.58656 0.41988 0.26728 0.0
N350 N 0.57491 0.45955 0.22039 0.0
N351 N 0.59318 0.44471 0.19357 0.0
C352 C 0.54929 0.45384 0.30541 0.0
H353 H 0.57229 0.47709 0.32963 0.0
H354 H 0.53049 0.42658 0.32748 0.0
H355 H 0.53043 0.46574 0.29056 0.0
C356 C 0.62232 0.6034 0.28794 0.0
N357 N 0.59218 0.57463 0.26044 0.0
N358 N 0.59873 0.54442 0.25429 0.0
C359 C 0.63369 0.55339 0.27716 0.0
C360 C 0.64982 0.59084 0.30022 0.0
C361 C 0.62643 0.64352 0.29881 0.0
H362 H 0.59643 0.64002 0.30643 0.0
H363 H 0.64676 0.65815 0.33025 0.0
H364 H 0.63904 0.66311 0.26644 0.0
O365 O 0.56787 0.57391 0.14913 0.0
O366 O 0.58196 0.52442 0.14118 0.0
H367 H 0.68852 0.55039 0.2744 0.0
H368 H 0.64536 0.50641 0.29754 0.0
C369 C 0.65558 0.53052 0.26997 0.0
H370 H 0.64964 0.51697 0.23314 0.0
H371 H 0.60188 0.45267 0.15748 0.0
O372 O 0.54914 0.62294 0.2264 0.0
C373 C 0.57911 0.5536 0.12321 0.0
Co374 Co 0.53258 0.99923 0.22739 0.0
Co375 Co 0.60152 0.08471 0.21295 0.0
C376 C 0.61488 1.01167 0.22055 0.0
O377 O 0.57848 0.98934 0.23333 0.0
O378 O 0.62802 0.04895 0.21223 0.0
C379 C 0.48046 0.91956 0.20769 0.0
O380 O 0.509 0.92696 0.17601 0.0
C381 C 0.65926 0.14848 0.26937 0.0
C382 C 0.68249 0.20325 0.22455 0.0
C383 C 0.68333 0.18972 0.27102 0.0
N384 N 0.64339 0.13784 0.22486 0.0
N385 N 0.65745 0.17055 0.19777 0.0
C386 C 0.65075 0.11919 0.30981 0.0
H387 H 0.6383 0.0882 0.29534 0.0
H388 H 0.62834 0.11964 0.33497 0.0
H389 H 0.6786 0.12777 0.3308 0.0
C390 C 0.50288 1.03977 0.29713 0.0
N391 N 0.53145 1.03899 0.26862 0.0
N392 N 0.56001 0.07602 0.26027 0.0
C393 C 0.54991 0.10158 0.28234 0.0
C394 C 0.51371 0.07969 0.30734 0.0
C395 C 0.46368 1.0033 0.30919 0.0
H396 H 0.46898 0.97863 0.32086 0.0
H397 H 0.44758 1.0099 0.33818 0.0
H398 H 0.44464 0.993 0.27604 0.0
O399 O 0.53134 1.01325 0.15761 0.0
O400 O 0.57805 0.07743 0.14727 0.0
H401 H 0.58361 0.15339 0.23711 0.0
H402 H 0.55089 0.1585 0.28034 0.0
C403 C 0.5713 0.14613 0.27451 0.0
H404 H 0.59633 0.1609 0.30092 0.0
H405 H 0.649 0.17076 0.16175 0.0
O406 O 0.48471 0.94721 0.23681 0.0
C407 C 0.54977 0.04418 0.13054 0.0
Co408 Co 0.56627 0.07788 0.82788 0.0
Co409 Co 0.55524 0.99402 0.83563 0.0
C410 C 0.63955 0.07068 0.83017 0.0
O411 O 0.6235 0.09202 0.82071 0.0
O412 O 0.61711 1.03273 0.83605 0.0
C413 C 0.59145 0.16144 0.80847 0.0
O414 O 0.62198 0.1649 0.783 0.0
C415 C 0.55492 0.93342 0.77676 0.0
C416 C 0.52199 0.877 0.81843 0.0
C417 C 0.53847 0.89228 0.77322 0.0
N418 N 0.54722 0.94228 0.82114 0.0
N419 N 0.52794 0.9086 0.84641 0.0
C420 C 0.57621 0.9641 0.73781 0.0
H421 H 0.59483 0.99444 0.75388 0.0
H422 H 0.55377 0.96513 0.71335 0.0
H423 H 0.59537 0.95595 0.71568 0.0
C424 C 0.49679 1.03768 0.75742 0.0
N425 N 0.52682 1.03879 0.78473 0.0
N426 N 0.52053 1.00212 0.79005 0.0
C427 C 0.48559 0.97626 0.76701 0.0
C428 C 0.46908 0.99771 0.74488 0.0
C429 C 0.4918 0.07359 0.74988 0.0
H430 H 0.48628 0.08361 0.78556 0.0
H431 H 0.52009 0.09868 0.73501 0.0
H432 H 0.46641 0.06687 0.72511 0.0
O433 O 0.55161 0.06022 0.89633 0.0
O434 O 0.53828 0.99705 0.90303 0.0
H435 H 0.46904 0.92169 0.80576 0.0
H436 H 0.43538 0.91537 0.75637 0.0
C437 C 0.46707 0.9314 0.76844 0.0
H438 H 0.48372 0.92229 0.74346 0.0
H439 H 0.51734 0.90696 0.88177 0.0
O440 O 0.56544 0.12786 0.82602 0.0
C441 C 0.54105 1.02883 0.92185 0.0
Co442 Co 1.02147 0.50758 0.82909 0.0
Co443 Co 0.10573 0.58011 0.83524 0.0
C444 C 1.02981 0.58872 0.82968 0.0
O445 O 1.00812 0.55116 0.82169 0.0
O446 O 0.0678 0.60411 0.83483 0.0
C447 C 0.9377 0.45067 0.80959 0.0
O448 O 0.9347 0.47838 0.78507 0.0
C449 C 0.16672 0.63799 0.77524 0.0
C450 C 0.22271 0.66347 0.81828 0.0
C451 C 0.20779 0.66298 0.77221 0.0
N452 N 0.15761 0.62295 0.82022 0.0
N453 N 0.19107 0.63841 0.84623 0.0
C454 C 0.13614 0.62799 0.73586 0.0
H455 H 0.10562 0.61574 0.75152 0.0
H456 H 0.13594 0.60485 0.71132 0.0
H457 H 0.14379 0.65512 0.7139 0.0
C458 C 1.06059 0.47749 0.7576 0.0
N459 N 1.05995 0.50645 0.78562 0.0
N460 N 0.09663 0.53703 0.7896 0.0
C461 C 0.12187 0.52813 0.76454 0.0
C462 C 0.10002 0.49036 0.74257 0.0
C463 C 1.02465 0.43703 0.74872 0.0
H464 H 0.99832 0.44045 0.73967 0.0
H465 H 1.03028 0.42083 0.71892 0.0
H466 H 1.01745 0.41901 0.78254 0.0
O467 O 1.03946 0.51092 0.89745 0.0
O468 O 0.10271 0.56061 0.90298 0.0
H469 H 0.18022 0.53244 0.76141 0.0
H470 H 0.17843 0.57536 0.73909 0.0
C471 C 0.1668 0.55191 0.7676 0.0
H472 H 0.17635 0.56642 0.80377 0.0
H473 H 0.19249 0.63084 0.88225 0.0
O474 O 0.97112 0.45734 0.82691 0.0
C475 C 0.07117 0.53203 0.92242 0.0
Co476 Co 0.5942 0.53287 0.82047 0.0
Co477 Co 0.5217 0.54548 0.82909 0.0
C478 C 0.51019 0.46078 0.82448 0.0
O479 O 0.54782 0.47657 0.81708 0.0
O480 O 0.49463 0.48341 0.82822 0.0
C481 C 0.64566 0.50453 0.8404 0.0
O482 O 0.61775 0.48516 0.87331 0.0
C483 C 0.45107 0.54292 0.79104 0.0
C484 C 0.45441 0.59843 0.81986 0.0
C485 C 0.43397 0.56718 0.78715 0.0
N486 N 0.48053 0.55913 0.82413 0.0
N487 N 0.48168 0.59164 0.8425 0.0
C488 C 0.44485 0.50919 0.75777 0.0
H489 H 0.42725 0.50742 0.72494 0.0
H490 H 0.42846 0.48037 0.77782 0.0
H491 H 0.4744 0.51301 0.74669 0.0
C492 C 0.62438 0.60462 0.75333 0.0
N493 N 0.59492 0.57339 0.77867 0.0
N494 N 0.56274 0.57716 0.77982 0.0
C495 C 0.57036 0.61016 0.75336 0.0
C496 C 0.6101 0.62966 0.73616 0.0
C497 C 0.66694 0.61321 0.75142 0.0
H498 H 0.67424 0.60181 0.78462 0.0
H499 H 0.67058 0.59756 0.71944 0.0
H500 H 0.6883 0.64596 0.748 0.0
O501 O 0.59682 0.54958 0.88892 0.0
O502 O 0.54594 0.56144 0.89558 0.0
H503 H 0.53672 0.63825 0.77534 0.0
H504 H 0.54822 0.64261 0.71117 0.0
C505 C 0.53979 0.62248 0.74316 0.0
H506 H 0.51062 0.59543 0.73521 0.0
H507 H 0.50336 0.61112 0.86721 0.0
O508 O 0.64135 0.52726 0.81045 0.0
C509 C 0.57562 0.55991 0.91423 0.0
Co510 Co 0.77153 0.88375 0.55186 0.0
Co511 Co 0.68692 0.87039 0.5404 0.0
C512 C 0.76131 0.95564 0.54629 0.0
O513 O 0.78308 0.9404 0.55724 0.0
O514 O 0.7236 0.93249 0.53964 0.0
C515 C 0.85067 0.91072 0.53059 0.0
O516 O 0.84251 0.93129 0.49899 0.0
C517 C 0.62405 0.86617 0.59733 0.0
C518 C 0.56905 0.8352 0.55258 0.0
C519 C 0.58289 0.84955 0.59907 0.0
N520 N 0.63434 0.86063 0.55271 0.0
N521 N 0.6015 0.8424 0.52564 0.0
C522 C 0.65356 0.88651 0.63782 0.0
H523 H 0.68449 0.90479 0.62332 0.0
H524 H 0.65307 0.86348 0.66255 0.0
H525 H 0.64527 0.90589 0.65931 0.0
C526 C 0.73056 0.81383 0.62198 0.0
N527 N 0.73195 0.84371 0.59404 0.0
N528 N 0.69525 0.83705 0.58753 0.0
C529 C 0.66929 0.80225 0.61054 0.0
C530 C 0.69055 0.78639 0.63414 0.0
C531 C 0.76652 0.80989 0.63344 0.0
H532 H 0.79304 0.84006 0.63996 0.0
H533 H 0.76095 0.7905 0.66572 0.0
H534 H 0.77323 0.79616 0.60177 0.0
O535 O 0.75592 0.86753 0.48263 0.0
O536 O 0.69238 0.853 0.47432 0.0
H537 H 0.61181 0.74727 0.60746 0.0
H538 H 0.6105 0.79046 0.63031 0.0
C539 C 0.62469 0.7802 0.60297 0.0
H540 H 0.61732 0.78597 0.56602 0.0
H541 H 0.60102 0.83355 0.48959 0.0
O542 O 0.82348 0.88728 0.55991 0.0
C543 C 0.72452 0.85594 0.45656 0.0
Co544 Co 0.21967 0.90686 0.55225 0.0
Co545 Co 0.23392 0.83592 0.54096 0.0
C546 C 0.14834 0.82477 0.54502 0.0
O547 O 0.16314 0.86175 0.556 0.0
O548 O 0.17181 0.81037 0.53903 0.0
C549 C 0.19409 0.96036 0.53076 0.0
O550 O 0.17388 0.9323 0.49812 0.0
C551 C 0.23727 0.77677 0.59768 0.0
C552 C 0.26899 0.75292 0.55366 0.0
C553 C 0.25357 0.75188 0.59963 0.0
N554 N 0.24389 0.7932 0.55345 0.0
N555 N 0.26262 0.77874 0.52682 0.0
C556 C 0.21608 0.78556 0.63762 0.0
H557 H 0.19849 0.79891 0.62278 0.0
H558 H 0.23852 0.80733 0.66362 0.0
H559 H 0.19591 0.75761 0.65784 0.0
C560 C 0.28775 0.93526 0.62474 0.0
N561 N 0.25884 0.90695 0.59557 0.0
N562 N 0.26618 0.87727 0.58916 0.0
C563 C 0.30053 0.88623 0.61358 0.0
C564 C 0.31519 0.92296 0.63788 0.0
C565 C 0.29136 0.97518 0.63557 0.0
H566 H 0.26152 0.97091 0.64603 0.0
H567 H 0.31349 0.99115 0.66505 0.0
H568 H 0.30121 0.99384 0.60219 0.0
O569 O 0.23694 0.90787 0.48343 0.0
O570 O 0.25185 0.85901 0.47508 0.0
H571 H 0.35547 0.88348 0.61506 0.0
H572 H 0.31126 0.83884 0.63469 0.0
C573 C 0.32286 0.86367 0.608 0.0
H574 H 0.31875 0.85099 0.5708 0.0
H575 H 0.27222 0.78744 0.49112 0.0
O576 O 0.21635 0.95545 0.56083 0.0
C577 C 0.24892 0.88822 0.45741 0.0
Co578 Co 0.19879 0.33686 0.55269 0.0
Co579 Co 0.27064 0.42171 0.54403 0.0
C580 C 0.28013 0.34627 0.54762 0.0
O581 O 0.24323 0.32465 0.55863 0.0
O582 O 0.29479 0.38401 0.54131 0.0
C583 C 0.14621 0.25753 0.53084 0.0
O584 O 0.17448 0.2652 0.49865 0.0
C585 C 0.33513 0.48155 0.59926 0.0
C586 C 0.34615 0.53931 0.56849 0.0
C587 C 0.35474 0.52256 0.6081 0.0
N588 N 0.31436 0.47403 0.55772 0.0
N589 N 0.32192 0.5087 0.53851 0.0
C590 C 0.33213 0.44923 0.63247 0.0
H591 H 0.33553 0.4265 0.61127 0.0
H592 H 0.30199 0.43388 0.64976 0.0
H593 H 0.35572 0.46156 0.661 0.0
C594 C 0.1684 0.37649 0.6223 0.0
N595 N 0.19791 0.37582 0.59559 0.0
N596 N 0.22833 0.41254 0.59144 0.0
C597 C 0.21896 0.43786 0.61564 0.0
C598 C 0.18049 0.41616 0.63627 0.0
C599 C 0.12726 0.34066 0.62763 0.0
H600 H 0.11534 0.32776 0.59115 0.0
H601 H 0.12933 0.31724 0.64897 0.0
H602 H 0.1061 0.34839 0.64567 0.0
O603 O 0.19947 0.35357 0.48403 0.0
O604 O 0.24844 0.41724 0.47727 0.0
H605 H 0.25057 0.4948 0.57985 0.0
H606 H 0.23354 0.49769 0.6405 0.0
C607 C 0.24564 0.48256 0.61727 0.0
H608 H 0.27478 0.48959 0.63297 0.0
H609 H 0.30793 0.51128 0.50731 0.0
O610 O 0.15034 0.28505 0.56012 0.0
C611 C 0.21958 0.38524 0.45862 0.0
C612 C 0.19979 0.19942 0.97881 0.0
C613 C 0.22486 0.18264 0.97984 0.0
H614 H 0.17221 0.22614 0.02078 0.0
C615 C 0.23412 0.1716 0.02465 0.0
H616 H 0.19208 0.20785 0.94461 0.0
C617 C 0.22298 0.18217 0.06817 0.0
C618 C 0.20242 0.20373 0.06701 0.0
H619 H 0.25267 0.15766 0.02612 0.0
H620 H 0.2337 0.17696 0.1023 0.0
C621 C 0.18865 0.21 0.02232 0.0
C622 C 0.91935 0.07152 0.08292 0.0
C623 C 0.90798 1.03077 0.08331 0.0
H624 H 0.93434 0.123 0.03937 0.0
C625 C 0.90864 1.01173 0.0398 0.0
H626 H 0.91897 0.08664 0.11614 0.0
C627 C 0.91551 1.0319 0.9955 0.0
C628 C 0.92203 0.07126 0.99466 0.0
H629 H 0.90006 0.98022 0.03952 0.0
H630 H 0.91228 1.01566 0.96193 0.0
C631 C 0.92713 0.0919 0.03886 0.0
C632 C 0.10646 0.91287 1.01616 0.0
C633 C 0.08704 0.90107 0.06147 0.0
H634 H 0.09962 0.9075 0.93865 0.0
C635 C 1.0451 0.88235 0.06367 0.0
H636 H 0.13894 0.9283 1.01382 0.0
C637 C 1.02272 0.87086 0.02073 0.0
C638 C 1.04217 0.87796 0.97544 0.0
H639 H 1.0296 0.87337 0.09827 0.0
H640 H 0.99025 0.8538 0.02308 0.0
C641 C 0.08409 0.90134 0.97323 0.0
C642 C 0.78782 0.76022 0.98032 0.0
C643 C 0.82633 0.76724 0.99352 0.0
H644 H 0.74094 0.77486 0.99232 0.0
C645 C 0.84583 0.79383 0.03249 0.0
H646 H 0.772 0.7403 0.95019 0.0
C647 C 0.82773 0.81297 0.05728 0.0
C648 C 0.78984 0.80727 0.04324 0.0
H649 H 0.87534 0.79985 0.04393 0.0
H650 H 0.84368 0.83238 0.0877 0.0
C651 C 0.76998 0.78011 1.00459 0.0
C652 C 0.35125 0.07562 0.03806 0.0
C653 C 0.33965 0.07831 0.99014 0.0
H654 H 0.34245 1.03777 0.10029 0.0
C655 C 0.31095 0.04213 0.96757 0.0
H656 H 0.37321 0.10259 0.05679 0.0
C657 C 0.29289 1.00515 0.99275 0.0
C658 C 0.30366 1.0027 0.041 0.0
H659 H 0.30186 0.0425 0.93039 0.0
H660 H 0.27001 0.97838 0.97457 0.0
C661 C 0.33357 1.03841 0.06308 0.0
C662 C 1.0544 0.31402 0.97814 0.0
C663 C 1.01954 0.28214 0.99916 0.0
H664 H 0.11825 0.3553 0.98457 0.0
C665 C 1.02314 0.2697 0.04609 0.0
H666 H 1.05294 0.32424 0.94193 0.0
C667 C 1.06032 0.2881 0.07098 0.0
C668 C 0.09578 0.31865 0.04923 0.0
H669 H 0.99707 0.24533 0.0635 0.0
H670 H 1.06138 0.27784 0.10729 0.0
C671 C 0.09193 0.33186 1.00268 0.0
C672 C 0.86649 0.52286 0.32587 0.0
C673 C 0.89818 0.51458 0.32615 0.0
H674 H 0.83121 0.54066 0.36859 0.0
C675 C 0.91216 0.50853 0.37084 0.0
H676 H 0.85477 0.52696 0.29187 0.0
C677 C 0.89939 0.51712 0.41442 0.0
C678 C 0.87142 0.53037 0.41375 0.0
H679 H 0.93527 0.5002 0.37208 0.0
H680 H 0.91389 0.51682 0.44809 0.0
C681 C 0.85303 0.53061 0.36968 0.0
C682 C 0.57056 0.3564 0.30902 0.0
C683 C 0.58814 0.39829 0.3105 0.0
H684 H 0.54348 0.30214 0.35055 0.0
C685 C 0.60023 0.4185 0.35546 0.0
H686 H 0.56141 0.34031 0.2747 0.0
C687 C 0.58969 0.39678 0.39878 0.0
C688 C 0.56714 0.35476 0.39726 0.0
H689 H 0.61491 0.45099 0.35726 0.0
H690 H 0.5957 0.41277 0.43309 0.0
C691 C 0.5601 0.33468 0.35233 0.0
C692 C 0.77011 0.24602 0.35472 0.0
C693 C 0.75048 0.23408 0.39991 0.0
H694 H 0.76344 0.2415 0.27719 0.0
C695 C 0.70864 0.21652 0.40202 0.0
H696 H 0.80253 0.26042 0.35243 0.0
C697 C 0.68639 0.20611 0.35898 0.0
C698 C 0.7059 0.21315 0.31374 0.0
H699 H 0.69302 0.20739 0.43654 0.0
H700 H 0.65389 0.1895 0.36115 0.0
C701 C 0.74787 0.2356 0.31172 0.0
C702 C 0.46466 0.10626 0.30783 0.0
C703 C 0.49025 0.09615 0.33334 0.0
H704 H 0.42751 0.13392 0.31041 0.0
C705 C 0.49602 0.1052 0.38334 0.0
H706 H 0.45979 0.10002 0.26922 0.0
C707 C 0.47753 0.12457 0.40694 0.0
C708 C 0.45299 0.13596 0.3812 0.0
H709 H 0.51565 0.09806 0.40405 0.0
H710 H 0.48307 0.13138 0.44537 0.0
C711 C 0.44618 0.12572 0.33145 0.0
C712 C 0.99525 0.41316 0.38324 0.0
C713 C 1.01222 0.41736 0.3367 0.0
H714 H 0.9641 0.37412 0.44332 0.0
C715 C 1.00987 0.38279 0.31516 0.0
H716 H 0.99643 0.43901 0.40102 0.0
C717 C 0.98994 0.34495 0.33882 0.0
C718 C 0.97197 0.3405 0.38498 0.0
H719 H 1.02229 0.38473 0.27921 0.0
H720 H 0.9876 0.31886 0.32033 0.0
C721 C 0.97618 0.37566 0.40727 0.0
C722 C 0.75821 0.66963 0.33832 0.0
C723 C 0.7664 0.64981 0.37611 0.0
H724 H 0.71555 0.66732 0.28524 0.0
C725 C 0.73472 0.61165 0.39005 0.0
H726 H 0.7815 0.69887 0.32609 0.0
C727 C 0.69727 0.59326 0.36593 0.0
C728 C 0.68932 0.61266 0.32773 0.0
H729 H 0.73875 0.59567 0.41988 0.0
H730 H 0.67429 0.56354 0.37729 0.0
C731 C 0.72024 0.65148 0.31475 0.0
C732 C 0.56665 0.83512 0.68676 0.0
C733 C 0.55966 0.84836 0.64211 0.0
H734 H 0.56474 0.8387 0.76448 0.0
C735 C 0.53699 0.86777 0.64106 0.0
H736 H 0.58339 0.81926 0.68818 0.0
C737 C 0.52614 0.87858 0.68462 0.0
C738 C 0.53792 0.87003 0.72937 0.0
H739 H 0.53106 0.87794 0.60697 0.0
H740 H 0.51134 0.89633 0.6832 0.0
C741 C 0.5558 0.84593 0.73032 0.0
C742 C 0.25474 0.72673 0.73065 0.0
C743 C 0.23021 0.68489 0.72873 0.0
H744 H 0.28257 0.7813 0.68975 0.0
C745 C 0.22191 0.665 0.68353 0.0
H746 H 0.26183 0.74257 0.76515 0.0
C747 C 0.23353 0.68706 0.64046 0.0
C748 C 0.25354 0.72909 0.64243 0.0
H749 H 0.20398 0.63255 0.68138 0.0
H750 H 0.22368 0.67137 0.60597 0.0
C751 C 0.26634 0.74877 0.68759 0.0
C752 C 0.36959 0.53639 0.74318 0.0
C753 C 0.4099 0.56657 0.74553 0.0
H754 H 0.31983 0.49971 0.69722 0.0
C755 C 0.42951 0.58784 0.70323 0.0
H756 H 0.35415 0.51952 0.77539 0.0
C757 C 0.41038 0.57564 0.65804 0.0
C758 C 0.37156 0.54228 0.65518 0.0
H759 H 0.46077 0.61125 0.70449 0.0
H760 H 0.42702 0.59 0.62528 0.0
C761 C 0.35032 0.52472 0.69832 0.0
C762 C 0.13612 0.48408 0.66885 0.0
C763 C 0.11672 0.46843 0.7135 0.0
H764 H 0.16896 0.47891 0.60851 0.0
C765 C 0.11632 0.43378 0.73133 0.0
H766 H 0.13698 0.51062 0.65392 0.0
C767 C 0.13612 0.41632 0.70604 0.0
C768 C 0.15646 0.43263 0.66182 0.0
H769 H 0.10192 0.42104 0.76576 0.0
H770 H 0.13647 0.39066 0.72185 0.0
C771 C 0.15493 0.46607 0.64305 0.0
C772 C 0.68113 0.71619 0.64998 0.0
C773 C 0.67287 0.74717 0.66213 0.0
H774 H 0.66755 0.65508 0.66229 0.0
C775 C 0.64519 0.73954 0.69994 0.0
H776 H 0.70194 0.72064 0.62081 0.0
C777 C 0.62614 0.70232 0.72444 0.0
C778 C 0.63296 0.67055 0.71127 0.0
H779 H 0.63819 0.76259 0.71068 0.0
H780 H 0.60586 0.69854 0.75393 0.0
C781 C 0.66132 0.67844 0.67392 0.0
C782 C 0.38934 0.97631 0.64588 0.0
C783 C 0.35386 0.94511 0.66661 0.0
H784 H 0.45317 1.01699 0.65375 0.0
C785 C 0.35626 0.93299 0.71414 0.0
H786 H 0.38872 0.98625 0.60925 0.0
C787 C 0.39298 0.95108 0.73998 0.0
C788 C 0.42898 0.98111 0.7187 0.0
H789 H 0.32964 0.90912 0.73129 0.0
H790 H 0.39326 0.94108 0.77668 0.0
C791 C 0.42633 0.99396 0.67148 0.0
C792 C 0.19017 0.34466 0.3827 0.0
C793 C 0.21214 0.38262 0.40536 0.0
H794 H 0.17271 0.31141 0.31579 0.0
C795 C 0.22989 0.41715 0.37607 0.0
H796 H 0.17603 0.31734 0.40405 0.0
C797 C 0.22735 0.41367 0.32529 0.0
C798 C 0.20766 0.37555 0.30269 0.0
H799 H 0.24685 0.44679 0.39229 0.0
H800 H 0.24267 0.44084 0.30377 0.0
C801 C 0.18828 0.34116 0.332 0.0
C802 C 0.7652 0.86938 0.38048 0.0
C803 C 0.72737 0.8509 0.4035 0.0
H804 H 0.79754 0.8873 0.31311 0.0
C805 C 0.69258 0.83147 0.37472 0.0
H806 H 0.79266 0.88463 0.4016 0.0
C807 C 0.69546 0.83241 0.32399 0.0
C808 C 0.73319 0.85352 0.30094 0.0
H809 H 0.66304 0.81678 0.39134 0.0
H810 H 0.66792 0.81855 0.30292 0.0
C811 C 0.76807 0.87103 0.32973 0.0
C812 C 0.2721 0.88229 0.32457 0.0
C813 C 0.2523 0.90046 0.30177 0.0
H814 H 0.28646 0.86395 0.39163 0.0
C815 C 0.23583 0.91881 0.33091 0.0
H816 H 0.28517 0.86784 0.30325 0.0
C817 C 0.23718 0.9171 0.38166 0.0
C818 C 0.25436 0.89633 0.4044 0.0
H819 H 0.22059 0.93322 0.31455 0.0
H820 H 0.22274 0.93019 0.40294 0.0
C821 C 0.27278 0.87992 0.3753 0.0
C822 C 0.42714 0.20188 0.71331 0.0
C823 C 0.38908 0.18549 0.73554 0.0
H824 H 0.46064 0.2186 0.64679 0.0
C825 C 0.35466 0.16875 0.70594 0.0
H826 H 0.45436 0.21499 0.73496 0.0
C827 C 0.35834 0.17028 0.65524 0.0
C828 C 0.39655 0.18924 0.63312 0.0
H829 H 0.32494 0.15573 0.72188 0.0
H830 H 0.33125 0.15851 0.63348 0.0
C831 C 0.43084 0.20407 0.66269 0.0
C832 C 0.9324 0.20709 0.65925 0.0
C833 C 0.91467 0.22727 0.63632 0.0
H834 H 0.945 0.18736 0.72655 0.0
C835 C 0.89967 0.24703 0.66531 0.0
H836 H 0.94418 0.19142 0.63794 0.0
C837 C 0.90074 0.24521 0.716 0.0
C838 C 0.91613 0.22289 0.73901 0.0
H839 H 0.88601 0.26296 0.64882 0.0
H840 H 0.88769 0.25981 0.73706 0.0
C841 C 0.93278 0.2046 0.71006 0.0
C842 C 0.89151 0.74547 0.65542 0.0
C843 C 0.87359 0.70786 0.63167 0.0
H844 H 0.90911 0.77725 0.72336 0.0
C845 C 0.85514 0.67273 0.65987 0.0
H846 H 0.90609 0.77317 0.6348 0.0
C847 C 0.85633 0.67514 0.7107 0.0
C848 C 0.87672 0.71273 0.73443 0.0
H849 H 0.84095 0.64334 0.6427 0.0
H850 H 0.84311 0.64742 0.7313 0.0
C851 C 0.89341 0.74787 0.70623 0.0
C852 C 1.0285 0.50355 0.04974 0.0
C853 C 0.06324 0.52308 0.07854 0.0
H854 H 1.00385 0.49028 0.978 0.0
C855 C 0.10108 0.54223 0.05544 0.0
H856 H 0.99897 0.48842 0.06635 0.0
C857 C 0.10396 0.54396 1.00464 0.0
C858 C 0.06911 0.52589 0.97585 0.0
H859 H 0.12853 0.55768 0.07655 0.0
H860 H 0.13341 0.56041 0.988 0.0
C861 C 1.03141 0.5046 0.99901 0.0
C862 C 0.60317 0.54778 0.99081 0.0
C863 C 0.58233 0.56464 0.96752 0.0
H864 H 0.61831 0.53079 0.05829 0.0
C865 C 0.56445 0.58187 0.99616 0.0
H866 H 0.61728 0.53418 0.96986 0.0
C867 C 0.56568 0.5805 0.04694 0.0
C868 C 0.5841 0.56112 0.07014 0.0
H869 H 0.54833 0.5952 0.97937 0.0
H870 H 0.55028 0.59274 0.06791 0.0
C871 C 0.60368 0.54567 0.04154 0.0
C872 C 0.55233 0.06977 0.9974 0.0
C873 C 0.53704 1.03171 0.97518 0.0
H874 H 0.56849 0.10362 0.06384 0.0
C875 C 0.52176 0.99747 1.00484 0.0
H876 H 0.56431 0.09687 0.97573 0.0
C877 C 0.52359 1.00141 0.05556 0.0
C878 C 0.54143 1.03973 0.07761 0.0
H879 H 0.50963 0.96776 0.98893 0.0
H880 H 0.51296 0.97452 0.07738 0.0
C881 C 0.55484 0.07376 0.04799 0.0
C882 C 0.37336 0.40565 0.17939 0.0
C883 C 0.35268 0.4268 0.1696 0.0
H884 H 0.42933 0.40902 0.20039 0.0
C885 C 0.37431 0.46894 0.17582 0.0
H886 H 0.35791 0.37322 0.17561 0.0
C887 C 0.41453 0.48915 0.19147 0.0
C888 C 0.43556 0.46841 0.20087 0.0
H889 H 0.35991 0.48668 0.16944 0.0
H890 H 0.4294 0.52156 0.19536 0.0
C891 C 0.41434 0.42621 0.19412 0.0
C892 C 0.68073 1.01355 0.1963 0.0
C893 C 0.63925 0.99179 0.20747 0.0
H894 H 0.73346 1.01111 0.17323 0.0
C895 C 0.61941 0.94967 0.2016 0.0
H896 H 0.69714 0.04602 0.19975 0.0
C897 C 0.63974 0.93 0.18497 0.0
C898 C 0.68118 0.95131 0.17421 0.0
H899 H 0.58753 0.93149 0.20897 0.0
H900 H 0.62268 0.89756 0.18139 0.0
C901 C 0.70153 0.99353 0.18056 0.0
C902 C 0.09674 0.69074 0.1986 0.0
C903 C 0.11791 0.67002 0.20795 0.0
H904 H 0.09993 0.74642 0.17664 0.0
C905 C 0.15978 0.69113 0.1998 0.0
H906 H 0.06449 0.67565 0.20384 0.0
C907 C 0.1797 0.7309 0.18275 0.0
C908 C 0.15898 0.75202 0.17383 0.0
H909 H 0.17749 0.67664 0.20572 0.0
H910 H 0.21192 0.74538 0.17742 0.0
C911 C 0.11707 0.73133 0.18247 0.0
C912 C 0.48722 0.35509 0.86104 0.0
C913 C 0.44515 0.33341 0.8673 0.0
H914 H 0.53968 0.4102 0.84175 0.0
C915 C 0.4239 0.354 0.85759 0.0
H916 H 0.50503 0.34074 0.8673 0.0
C917 C 0.44432 0.39498 0.84294 0.0
C918 C 0.48649 0.4163 0.83636 0.0
H919 H 0.3915 0.3385 0.86137 0.0
H920 H 0.42707 0.40992 0.83677 0.0
C921 C 0.5073 0.39531 0.8456 0.0
C922 C 0.70543 0.07104 0.84982 0.0
C923 C 0.68414 0.0918 0.84152 0.0
H924 H 0.76197 0.075 0.86909 0.0
C925 C 0.70532 0.13387 0.84841 0.0
H926 H 0.69034 1.03867 0.84546 0.0
C927 C 0.74574 0.15438 0.86327 0.0
C928 C 0.76735 0.13402 0.87127 0.0
H929 H 0.69043 0.15129 0.84315 0.0
H930 H 0.76027 0.18672 0.86773 0.0
C931 C 0.74654 0.0919 0.86389 0.0
C932 C 1.00987 0.67594 0.86039 0.0
C933 C 0.96792 0.65522 0.86855 0.0
H934 H 0.06254 0.67181 0.84196 0.0
C935 C 0.9472 0.61311 0.86212 0.0
H936 H 1.02699 0.70834 0.86439 0.0
C937 C 0.96723 0.59247 0.84795 0.0
C938 C 1.00914 0.61279 0.84024 0.0
H939 H 0.91495 0.59574 0.86729 0.0
H940 H 0.94959 0.56009 0.84387 0.0
C941 C 1.03026 0.65497 0.847 0.0
C942 C 0.71169 0.51955 0.80734 0.0
C943 C 0.68609 0.51069 0.8475 0.0
H944 H 0.77252 0.54993 0.78237 0.0
C945 C 0.70203 0.51766 0.89473 0.0
H946 H 0.69978 0.51422 0.77066 0.0
C947 C 0.74353 0.53906 0.90139 0.0
C948 C 0.76913 0.5524 0.8609 0.0
H949 H 0.68275 0.51109 0.92623 0.0
H950 H 0.75546 0.54842 0.93779 0.0
C951 C 0.7532 0.53985 0.81409 0.0
C952 C 0.56056 0.22158 0.88245 0.0
C953 C 0.54667 0.23688 0.8458 0.0
H954 H 0.58757 0.18591 0.8984 0.0
C955 C 0.55864 0.23707 0.79734 0.0
H956 H 0.55211 0.22162 0.92008 0.0
C957 C 0.57893 0.21648 0.7849 0.0
C958 C 0.58748 0.19623 0.82105 0.0
H959 H 0.54829 0.24883 0.76845 0.0
H960 H 0.5836 0.2125 0.74687 0.0
C961 C 0.58092 0.20135 0.87008 0.0
C962 C 0.89668 0.40064 0.8703 0.0
C963 C 0.90259 0.41219 0.82133 0.0
H964 H 0.87641 0.35178 0.92014 0.0
C965 C 0.88341 0.3833 0.7848 0.0
H966 H 0.91137 0.42281 0.89889 0.0
C967 C 0.86324 0.34251 0.79697 0.0
C968 C 0.86284 0.33095 0.84555 0.0
H969 H 0.88808 0.39186 0.74681 0.0
H970 H 0.85242 0.32039 0.76793 0.0
C971 C 0.87691 0.36013 0.88242 0.0
C972 C 0.56158 0.7261 0.13611 0.0
C973 C 0.57591 0.75183 0.17659 0.0
H974 H 0.53261 0.66517 0.11113 0.0
C975 C 0.56415 0.73599 0.22352 0.0
H976 H 0.57024 0.7379 0.09961 0.0
C977 C 0.54362 0.69448 0.23019 0.0
C978 C 0.53373 0.66873 0.18989 0.0
H979 H 0.5749 0.75534 0.2553 0.0
H980 H 0.53879 0.68264 0.26683 0.0
C981 C 0.54001 0.68458 0.14274 0.0
C982 C 0.37173 0.85043 0.23046 0.0
C983 C 0.35719 0.84648 0.18279 0.0
H984 H 0.42392 0.87768 0.27599 0.0
C985 C 0.38388 0.85732 0.14347 0.0
H986 H 0.35158 0.84224 0.26133 0.0
C987 C 0.42515 0.87653 0.15188 0.0
C988 C 0.43982 0.88601 0.19965 0.0
H989 H 0.37307 0.85426 0.10643 0.0
H990 H 0.44536 0.88815 0.12106 0.0
C991 C 0.41302 0.8707 0.23889 0.0
C992 C 0.22927 0.56877 0.14762 0.0
C993 C 0.22089 0.57493 0.19555 0.0
H994 H 0.2506 0.53801 0.10197 0.0
C995 C 0.23749 0.56461 0.23451 0.0
H996 H 0.21664 0.57649 0.11705 0.0
C997 C 0.25784 0.5436 0.22579 0.0
C998 C 0.2605 0.53183 0.17819 0.0
H999 H 0.23136 0.56932 0.27172 0.0
H1000 H 0.2669 0.5324 0.25658 0.0
C1001 C 0.24854 0.5467 0.13896 0.0
C1002 C 0.08355 0.75876 0.52346 0.0
C1003 C 0.10411 0.80075 0.53199 0.0
H1004 H 1.02769 0.70573 0.50332 0.0
C1005 C 0.08255 0.82115 0.52395 0.0
H1006 H 0.09898 0.74186 0.52861 0.0
C1007 C 1.04242 0.80081 0.50811 0.0
C1008 C 1.02139 0.75884 0.50025 0.0
H1009 H 0.09692 0.85341 0.52918 0.0
H1010 H 1.02761 0.81831 0.50292 0.0
C1011 C 1.04265 0.73803 0.50842 0.0
C1012 C 0.30288 0.26367 0.50912 0.0
C1013 C 0.34489 0.28409 0.50225 0.0
H1014 H 0.25054 0.26637 0.52973 0.0
C1015 C 0.36613 0.32589 0.51192 0.0
H1016 H 0.28514 0.23153 0.5029 0.0
C1017 C 0.34575 0.34643 0.5272 0.0
C1018 C 0.30369 0.32554 0.53459 0.0
H1019 H 0.39849 0.34276 0.50765 0.0
H1020 H 0.36294 0.37859 0.53341 0.0
C1021 C 0.28286 0.28379 0.52531 0.0
C1022 C 0.76089 1.02105 0.52578 0.0
C1023 C 0.78192 1.0 0.53377 0.0
H1024 H 0.76431 0.07731 0.50624 0.0
C1025 C 0.82378 1.02113 0.52553 0.0
H1026 H 0.72866 1.00597 0.53113 0.0
C1027 C 0.84385 0.0613 0.50982 0.0
C1028 C 0.82327 0.08276 0.50236 0.0
H1029 H 0.84138 1.00639 0.53043 0.0
H1030 H 0.87606 0.07582 0.50442 0.0
C1031 C 0.78135 0.06198 0.51098 0.0
C1032 C 0.21127 1.02717 0.56385 0.0
C1033 C 0.2009 1.00107 0.52382 0.0
H1034 H 0.24232 0.08831 0.58809 0.0
C1035 C 0.20622 1.01648 0.47651 0.0
H1036 H 0.20718 1.01569 0.60062 0.0
C1037 C 0.22721 0.05794 0.46931 0.0
C1038 C 0.24188 0.08407 0.5094 0.0
H1039 H 0.19846 0.99682 0.4451 0.0
H1040 H 0.23509 0.06944 0.43259 0.0
C1041 C 0.23122 0.06862 0.55663 0.0
C1042 C 0.09023 0.21177 0.47738 0.0
C1043 C 0.10604 0.22279 0.52448 0.0
H1044 H 1.03676 0.18633 0.43409 0.0
C1045 C 0.08052 0.20714 0.56484 0.0
H1046 H 0.10948 0.2236 0.44575 0.0
C1047 C 1.03906 0.18488 0.55813 0.0
C1048 C 1.02305 0.17932 0.51106 0.0
H1049 H 0.09236 0.21524 0.60146 0.0
H1050 H 1.01971 0.17649 0.58979 0.0
C1051 C 1.04872 0.19055 0.47067 0.0
C1052 C 0.89534 0.90007 0.47544 0.0
C1053 C 0.88525 0.9051 0.52301 0.0
H1054 H 0.91961 0.87148 0.4307 0.0
C1055 C 0.9016 0.8952 0.5626 0.0
H1056 H 0.88298 0.90754 0.44437 0.0
C1057 C 0.92353 0.87567 0.55472 0.0
C1058 C 0.92801 0.86489 0.50727 0.0
H1059 H 0.89424 0.89912 0.59956 0.0
H1060 H 0.93241 0.86469 0.58589 0.0
C1061 C 0.91621 0.87945 0.46757 0.0
loop_
_geom_bond_atom_site_label_1
_geom_bond_atom_site_label_2
_geom_bond_distance
_geom_bond_site_symmetry_2
_ccdc_geom_bond_type
Co0 O3 1.970 . S
Co0 N17 1.989 . S
Co0 O25 1.967 . S
Co0 O32 1.920 . S
Co1 O4 1.966 . S
Co1 N10 2.022 . S
Co1 N18 1.993 . S
Co1 O26 1.941 . S
C2 O3 1.258 . S
C2 O4 1.263 . S
O3 Co0 1.970 . S
O3 C2 1.258 . S
O4 Co1 1.966 . S
O4 C2 1.263 . S
C5 O6 1.235 . S
C5 O32 1.289 . S
O6 C5 1.235 . S
C7 C9 1.400 . S
C7 N10 1.351 . S
C7 C12 1.501 . S
C8 C9 1.387 . S
C8 N11 1.341 . S
C9 C7 1.400 . S
C9 C8 1.387 . S
N10 Co1 2.022 . S
N10 C7 1.351 . S
N10 N11 1.365 . S
N11 C8 1.341 . S
N11 N10 1.365 . S
N11 H31 0.862 . S
C12 C7 1.501 . S
C12 H13 0.961 . S
C12 H14 0.961 . S
C12 H15 0.960 . S
H13 C12 0.961 . S
H14 C12 0.961 . S
H15 C12 0.960 . S
C16 N17 1.342 . S
C16 C20 1.401 . S
C16 C21 1.499 . S
N17 Co0 1.989 . S
N17 C16 1.342 . S
N17 N18 1.388 . S
N18 Co1 1.993 . S
N18 N17 1.388 . S
N18 C19 1.346 . S
C19 N18 1.346 . S
C19 C20 1.396 . S
C19 C29 1.510 . S
C20 C16 1.401 . S
C20 C19 1.396 . S
C21 C16 1.499 . S
C21 H22 0.959 . S
C21 H23 0.960 . S
C21 H24 0.961 . S
H22 C21 0.959 . S
H23 C21 0.960 . S
H24 C21 0.961 . S
O25 Co0 1.967 . S
O25 C33 1.258 . S
O26 Co1 1.941 . S
O26 C33 1.266 . S
H27 C29 0.959 . S
H28 C29 0.961 . S
C29 C19 1.510 . S
C29 H27 0.959 . S
C29 H28 0.961 . S
C29 H30 0.960 . S
H30 C29 0.960 . S
H31 N11 0.862 . S
O32 Co0 1.920 . S
O32 C5 1.289 . S
C33 O25 1.258 . S
C33 O26 1.266 . S
Co34 O37 1.970 . S
Co34 N51 1.989 . S
Co34 O59 1.967 . S
Co34 O66 1.920 . S
Co35 O38 1.966 . S
Co35 N44 2.022 . S
Co35 N52 1.993 . S
Co35 O60 1.941 . S
C36 O37 1.258 . S
C36 O38 1.263 . S
O37 Co34 1.970 . S
O37 C36 1.258 . S
O38 Co35 1.966 . S
O38 C36 1.263 . S
C39 O40 1.235 . S
C39 O66 1.289 . S
O40 C39 1.235 . S
C41 C43 1.400 . S
C41 N44 1.351 . S
C41 C46 1.501 . S
C42 C43 1.387 . S
C42 N45 1.341 . S
C43 C41 1.400 . S
C43 C42 1.387 . S
N44 Co35 2.022 . S
N44 C41 1.351 . S
N44 N45 1.365 . S
N45 C42 1.341 . S
N45 N44 1.365 . S
N45 H65 0.862 . S
C46 C41 1.501 . S
C46 H47 0.961 . S
C46 H48 0.961 . S
C46 H49 0.960 . S
H47 C46 0.961 . S
H48 C46 0.961 . S
H49 C46 0.960 . S
C50 N51 1.342 . S
C50 C54 1.401 . S
C50 C55 1.499 . S
N51 Co34 1.989 . S
N51 C50 1.342 . S
N51 N52 1.388 . S
N52 Co35 1.993 . S
N52 N51 1.388 . S
N52 C53 1.346 . S
C53 N52 1.346 . S
C53 C54 1.396 . S
C53 C63 1.510 . S
C54 C50 1.401 . S
C54 C53 1.396 . S
C55 C50 1.499 . S
C55 H56 0.959 . S
C55 H57 0.960 . S
C55 H58 0.961 . S
H56 C55 0.959 . S
H57 C55 0.960 . S
H58 C55 0.961 . S
O59 Co34 1.967 . S
O59 C67 1.258 . S
O60 Co35 1.941 . S
O60 C67 1.266 . S
H61 C63 0.959 . S
H62 C63 0.961 . S
C63 C53 1.510 . S
C63 H61 0.959 . S
C63 H62 0.961 . S
C63 H64 0.960 . S
H64 C63 0.960 . S
H65 N45 0.862 . S
O66 Co34 1.920 . S
O66 C39 1.289 . S
C67 O59 1.258 . S
C67 O60 1.266 . S
Co68 O71 1.970 . S
Co68 N85 1.989 . S
Co68 O93 1.967 . S
Co68 O100 1.920 . S
Co69 O72 1.966 . S
Co69 N78 2.022 . S
Co69 N86 1.993 . S
Co69 O94 1.941 . S
C70 O71 1.258 . S
C70 O72 1.263 . S
O71 Co68 1.970 . S
O71 C70 1.258 . S
O72 Co69 1.966 . S
O72 C70 1.263 . S
C73 O74 1.235 . S
C73 O100 1.289 . S
O74 C73 1.235 . S
C75 C77 1.400 . S
C75 N78 1.351 . S
C75 C80 1.501 . S
C76 C77 1.387 . S
C76 N79 1.341 . S
C77 C75 1.400 . S
C77 C76 1.387 . S
N78 Co69 2.022 . S
N78 C75 1.351 . S
N78 N79 1.365 . S
N79 C76 1.341 . S
N79 N78 1.365 . S
N79 H99 0.862 . S
C80 C75 1.501 . S
C80 H81 0.961 . S
C80 H82 0.961 . S
C80 H83 0.960 . S
H81 C80 0.961 . S
H82 C80 0.961 . S
H83 C80 0.960 . S
C84 N85 1.342 . S
C84 C88 1.401 . S
C84 C89 1.499 . S
N85 Co68 1.989 . S
N85 C84 1.342 . S
N85 N86 1.388 . S
N86 Co69 1.993 . S
N86 N85 1.388 . S
N86 C87 1.346 . S
C87 N86 1.346 . S
C87 C88 1.396 . S
C87 C97 1.510 . S
C88 C84 1.401 . S
C88 C87 1.396 . S
C89 C84 1.499 . S
C89 H90 0.959 . S
C89 H91 0.960 . S
C89 H92 0.961 . S
H90 C89 0.959 . S
H91 C89 0.960 . S
H92 C89 0.961 . S
O93 Co68 1.967 . S
O93 C101 1.258 . S
O94 Co69 1.941 . S
O94 C101 1.266 . S
H95 C97 0.959 . S
H96 C97 0.961 . S
C97 C87 1.510 . S
C97 H95 0.959 . S
C97 H96 0.961 . S
C97 H98 0.960 . S
H98 C97 0.960 . S
H99 N79 0.862 . S
O100 Co68 1.920 . S
O100 C73 1.289 . S
C101 O93 1.258 . S
C101 O94 1.266 . S
Co102 O105 1.970 . S
Co102 N119 1.989 . S
Co102 O127 1.967 . S
Co102 O134 1.920 . S
Co103 O106 1.966 . S
Co103 N112 2.022 . S
Co103 N120 1.993 . S
Co103 O128 1.941 . S
C104 O105 1.258 . S
C104 O106 1.263 . S
O105 Co102 1.970 . S
O105 C104 1.258 . S
O106 Co103 1.966 . S
O106 C104 1.263 . S
C107 O108 1.235 . S
C107 O134 1.289 . S
O108 C107 1.235 . S
C109 C111 1.400 . S
C109 N112 1.351 . S
C109 C114 1.501 . S
C110 C111 1.387 . S
C110 N113 1.341 . S
C111 C109 1.400 . S
C111 C110 1.387 . S
N112 Co103 2.022 . S
N112 C109 1.351 . S
N112 N113 1.365 . S
N113 C110 1.341 . S
N113 N112 1.365 . S
N113 H133 0.862 . S
C114 C109 1.501 . S
C114 H115 0.961 . S
C114 H116 0.961 . S
C114 H117 0.960 . S
H115 C114 0.961 . S
H116 C114 0.961 . S
H117 C114 0.960 . S
C118 N119 1.342 . S
C118 C122 1.401 . S
C118 C123 1.499 . S
N119 Co102 1.989 . S
N119 C118 1.342 . S
N119 N120 1.388 . S
N120 Co103 1.993 . S
N120 N119 1.388 . S
N120 C121 1.346 . S
C121 N120 1.346 . S
C121 C122 1.396 . S
C121 C131 1.510 . S
C122 C118 1.401 . S
C122 C121 1.396 . S
C123 C118 1.499 . S
C123 H124 0.959 . S
C123 H125 0.960 . S
C123 H126 0.961 . S
H124 C123 0.959 . S
H125 C123 0.960 . S
H126 C123 0.961 . S
O127 Co102 1.967 . S
O127 C135 1.258 . S
O128 Co103 1.941 . S
O128 C135 1.266 . S
H129 C131 0.959 . S
H130 C131 0.961 . S
C131 C121 1.510 . S
C131 H129 0.959 . S
C131 H130 0.961 . S
C131 H132 0.960 . S
H132 C131 0.960 . S
H133 N113 0.862 . S
O134 Co102 1.920 . S
O134 C107 1.289 . S
C135 O127 1.258 . S
C135 O128 1.266 . S
Co136 O139 1.970 . S
Co136 N153 1.989 . S
Co136 O161 1.967 . S
Co136 O168 1.920 . S
Co137 O140 1.966 . S
Co137 N146 2.022 . S
Co137 N154 1.993 . S
Co137 O162 1.941 . S
C138 O139 1.258 . S
C138 O140 1.263 . S
O139 Co136 1.970 . S
O139 C138 1.258 . S
O140 Co137 1.966 . S
O140 C138 1.263 . S
C141 O142 1.235 . S
C141 O168 1.289 . S
O142 C141 1.235 . S
C143 C145 1.400 . S
C143 N146 1.351 . S
C143 C148 1.501 . S
C144 C145 1.387 . S
C144 N147 1.341 . S
C145 C143 1.400 . S
C145 C144 1.387 . S
N146 Co137 2.022 . S
N146 C143 1.351 . S
N146 N147 1.365 . S
N147 C144 1.341 . S
N147 N146 1.365 . S
N147 H167 0.862 . S
C148 C143 1.501 . S
C148 H149 0.961 . S
C148 H150 0.961 . S
C148 H151 0.960 . S
H149 C148 0.961 . S
H150 C148 0.961 . S
H151 C148 0.960 . S
C152 N153 1.342 . S
C152 C156 1.401 . S
C152 C157 1.499 . S
N153 Co136 1.989 . S
N153 C152 1.342 . S
N153 N154 1.388 . S
N154 Co137 1.993 . S
N154 N153 1.388 . S
N154 C155 1.346 . S
C155 N154 1.346 . S
C155 C156 1.396 . S
C155 C165 1.510 . S
C156 C152 1.401 . S
C156 C155 1.396 . S
C157 C152 1.499 . S
C157 H158 0.959 . S
C157 H159 0.960 . S
C157 H160 0.961 . S
H158 C157 0.959 . S
H159 C157 0.960 . S
H160 C157 0.961 . S
O161 Co136 1.967 . S
O161 C169 1.258 . S
O162 Co137 1.941 . S
O162 C169 1.266 . S
H163 C165 0.959 . S
H164 C165 0.961 . S
C165 C155 1.510 . S
C165 H163 0.959 . S
C165 H164 0.961 . S
C165 H166 0.960 . S
H166 C165 0.960 . S
H167 N147 0.862 . S
O168 Co136 1.920 . S
O168 C141 1.289 . S
C169 O161 1.258 . S
C169 O162 1.266 . S
Co170 O173 1.970 . S
Co170 N187 1.989 . S
Co170 O195 1.967 . S
Co170 O202 1.920 . S
Co171 O174 1.966 . S
Co171 N180 2.022 . S
Co171 N188 1.993 . S
Co171 O196 1.941 . S
C172 O173 1.258 . S
C172 O174 1.263 . S
O173 Co170 1.970 . S
O173 C172 1.258 . S
O174 Co171 1.966 . S
O174 C172 1.263 . S
C175 O176 1.235 . S
C175 O202 1.289 . S
O176 C175 1.235 . S
C177 C179 1.400 . S
C177 N180 1.351 . S
C177 C182 1.501 . S
C178 C179 1.387 . S
C178 N181 1.341 . S
C179 C177 1.400 . S
C179 C178 1.387 . S
N180 Co171 2.022 . S
N180 C177 1.351 . S
N180 N181 1.365 . S
N181 C178 1.341 . S
N181 N180 1.365 . S
N181 H201 0.862 . S
C182 C177 1.501 . S
C182 H183 0.961 . S
C182 H184 0.961 . S
C182 H185 0.960 . S
H183 C182 0.961 . S
H184 C182 0.961 . S
H185 C182 0.960 . S
C186 N187 1.342 . S
C186 C190 1.401 . S
C186 C191 1.499 . S
N187 Co170 1.989 . S
N187 C186 1.342 . S
N187 N188 1.388 . S
N188 Co171 1.993 . S
N188 N187 1.388 . S
N188 C189 1.346 . S
C189 N188 1.346 . S
C189 C190 1.396 . S
C189 C199 1.510 . S
C190 C186 1.401 . S
C190 C189 1.396 . S
C191 C186 1.499 . S
C191 H192 0.959 . S
C191 H193 0.960 . S
C191 H194 0.961 . S
H192 C191 0.959 . S
H193 C191 0.960 . S
H194 C191 0.961 . S
O195 Co170 1.967 . S
O195 C203 1.258 . S
O196 Co171 1.941 . S
O196 C203 1.266 . S
H197 C199 0.959 . S
H198 C199 0.961 . S
C199 C189 1.510 . S
C199 H197 0.959 . S
C199 H198 0.961 . S
C199 H200 0.960 . S
H200 C199 0.960 . S
H201 N181 0.862 . S
O202 Co170 1.920 . S
O202 C175 1.289 . S
C203 O195 1.258 . S
C203 O196 1.266 . S
Co204 O207 1.970 . S
Co204 N221 1.989 . S
Co204 O229 1.967 . S
Co204 O236 1.920 . S
Co205 O208 1.966 . S
Co205 N214 2.022 . S
Co205 N222 1.993 . S
Co205 O230 1.941 . S
C206 O207 1.258 . S
C206 O208 1.263 . S
O207 Co204 1.970 . S
O207 C206 1.258 . S
O208 Co205 1.966 . S
O208 C206 1.263 . S
C209 O210 1.235 . S
C209 O236 1.289 . S
O210 C209 1.235 . S
C211 C213 1.400 . S
C211 N214 1.351 . S
C211 C216 1.501 . S
C212 C213 1.387 . S
C212 N215 1.341 . S
C213 C211 1.400 . S
C213 C212 1.387 . S
N214 Co205 2.022 . S
N214 C211 1.351 . S
N214 N215 1.365 . S
N215 C212 1.341 . S
N215 N214 1.365 . S
N215 H235 0.862 . S
C216 C211 1.501 . S
C216 H217 0.961 . S
C216 H218 0.961 . S
C216 H219 0.960 . S
H217 C216 0.961 . S
H218 C216 0.961 . S
H219 C216 0.960 . S
C220 N221 1.342 . S
C220 C224 1.401 . S
C220 C225 1.499 . S
N221 Co204 1.989 . S
N221 C220 1.342 . S
N221 N222 1.388 . S
N222 Co205 1.993 . S
N222 N221 1.388 . S
N222 C223 1.346 . S
C223 N222 1.346 . S
C223 C224 1.396 . S
C223 C233 1.510 . S
C224 C220 1.401 . S
C224 C223 1.396 . S
C225 C220 1.499 . S
C225 H226 0.959 . S
C225 H227 0.960 . S
C225 H228 0.961 . S
H226 C225 0.959 . S
H227 C225 0.960 . S
H228 C225 0.961 . S
O229 Co204 1.967 . S
O229 C237 1.258 . S
O230 Co205 1.941 . S
O230 C237 1.266 . S
H231 C233 0.959 . S
H232 C233 0.961 . S
C233 C223 1.510 . S
C233 H231 0.959 . S
C233 H232 0.961 . S
C233 H234 0.960 . S
H234 C233 0.960 . S
H235 N215 0.862 . S
O236 Co204 1.920 . S
O236 C209 1.289 . S
C237 O229 1.258 . S
C237 O230 1.266 . S
Co238 O241 1.970 . S
Co238 N255 1.989 . S
Co238 O263 1.967 . S
Co238 O270 1.920 . S
Co239 O242 1.966 . S
Co239 N248 2.022 . S
Co239 N256 1.993 . S
Co239 O264 1.941 . S
C240 O241 1.258 . S
C240 O242 1.263 . S
O241 Co238 1.970 . S
O241 C240 1.258 . S
O242 Co239 1.966 . S
O242 C240 1.263 . S
C243 O244 1.235 . S
C243 O270 1.289 . S
O244 C243 1.235 . S
C245 C247 1.400 . S
C245 N248 1.351 . S
C245 C250 1.501 . S
C246 C247 1.387 . S
C246 N249 1.341 . S
C247 C245 1.400 . S
C247 C246 1.387 . S
N248 Co239 2.022 . S
N248 C245 1.351 . S
N248 N249 1.365 . S
N249 C246 1.341 . S
N249 N248 1.365 . S
N249 H269 0.862 . S
C250 C245 1.501 . S
C250 H251 0.961 . S
C250 H252 0.961 . S
C250 H253 0.960 . S
H251 C250 0.961 . S
H252 C250 0.961 . S
H253 C250 0.960 . S
C254 N255 1.342 . S
C254 C258 1.401 . S
C254 C259 1.499 . S
N255 Co238 1.989 . S
N255 C254 1.342 . S
N255 N256 1.388 . S
N256 Co239 1.993 . S
N256 N255 1.388 . S
N256 C257 1.346 . S
C257 N256 1.346 . S
C257 C258 1.396 . S
C257 C267 1.510 . S
C258 C254 1.401 . S
C258 C257 1.396 . S
C259 C254 1.499 . S
C259 H260 0.959 . S
C259 H261 0.960 . S
C259 H262 0.961 . S
H260 C259 0.959 . S
H261 C259 0.960 . S
H262 C259 0.961 . S
O263 Co238 1.967 . S
O263 C271 1.258 . S
O264 Co239 1.941 . S
O264 C271 1.266 . S
H265 C267 0.959 . S
H266 C267 0.961 . S
C267 C257 1.510 . S
C267 H265 0.959 . S
C267 H266 0.961 . S
C267 H268 0.960 . S
H268 C267 0.960 . S
H269 N249 0.862 . S
O270 Co238 1.920 . S
O270 C243 1.289 . S
C271 O263 1.258 . S
C271 O264 1.266 . S
Co272 O275 1.970 . S
Co272 N289 1.989 . S
Co272 O297 1.967 . S
Co272 O304 1.920 . S
Co273 O276 1.966 . S
Co273 N282 2.022 . S
Co273 N290 1.993 . S
Co273 O298 1.941 . S
C274 O275 1.258 . S
C274 O276 1.263 . S
O275 Co272 1.970 . S
O275 C274 1.258 . S
O276 Co273 1.966 . S
O276 C274 1.263 . S
C277 O278 1.235 . S
C277 O304 1.289 . S
O278 C277 1.235 . S
C279 C281 1.400 . S
C279 N282 1.351 . S
C279 C284 1.501 . S
C280 C281 1.387 . S
C280 N283 1.341 . S
C281 C279 1.400 . S
C281 C280 1.387 . S
N282 Co273 2.022 . S
N282 C279 1.351 . S
N282 N283 1.365 . S
N283 C280 1.341 . S
N283 N282 1.365 . S
N283 H303 0.862 . S
C284 C279 1.501 . S
C284 H285 0.961 . S
C284 H286 0.961 . S
C284 H287 0.960 . S
H285 C284 0.961 . S
H286 C284 0.961 . S
H287 C284 0.960 . S
C288 N289 1.342 . S
C288 C292 1.401 . S
C288 C293 1.499 . S
N289 Co272 1.989 . S
N289 C288 1.342 . S
N289 N290 1.388 . S
N290 Co273 1.993 . S
N290 N289 1.388 . S
N290 C291 1.346 . S
C291 N290 1.346 . S
C291 C292 1.396 . S
C291 C301 1.510 . S
C292 C288 1.401 . S
C292 C291 1.396 . S
C293 C288 1.499 . S
C293 H294 0.959 . S
C293 H295 0.960 . S
C293 H296 0.961 . S
H294 C293 0.959 . S
H295 C293 0.960 . S
H296 C293 0.961 . S
O297 Co272 1.967 . S
O297 C305 1.258 . S
O298 Co273 1.941 . S
O298 C305 1.266 . S
H299 C301 0.959 . S
H300 C301 0.961 . S
C301 C291 1.510 . S
C301 H299 0.959 . S
C301 H300 0.961 . S
C301 H302 0.960 . S
H302 C301 0.960 . S
H303 N283 0.862 . S
O304 Co272 1.920 . S
O304 C277 1.289 . S
C305 O297 1.258 . S
C305 O298 1.266 . S
Co306 O309 1.970 . S
Co306 N323 1.989 1_455 S
Co306 O331 1.967 . S
Co306 O338 1.920 . S
Co307 O310 1.966 1_655 S
Co307 N316 2.022 . S
Co307 N324 1.993 . S
Co307 O332 1.941 . S
C308 O309 1.258 . S
C308 O310 1.263 . S
O309 Co306 1.970 . S
O309 C308 1.258 . S
O310 Co307 1.966 1_455 S
O310 C308 1.263 . S
C311 O312 1.235 . S
C311 O338 1.289 . S
O312 C311 1.235 . S
C313 C315 1.400 . S
C313 N316 1.351 . S
C313 C318 1.501 . S
C314 C315 1.387 . S
C314 N317 1.341 . S
C315 C313 1.400 . S
C315 C314 1.387 . S
N316 Co307 2.022 . S
N316 C313 1.351 . S
N316 N317 1.365 . S
N317 C314 1.341 . S
N317 N316 1.365 . S
N317 H337 0.862 . S
C318 C313 1.501 . S
C318 H319 0.961 . S
C318 H320 0.961 . S
C318 H321 0.960 . S
H319 C318 0.961 . S
H320 C318 0.961 . S
H321 C318 0.960 . S
C322 N323 1.342 . S
C322 C326 1.401 . S
C322 C327 1.499 1_655 S
N323 Co306 1.989 1_655 S
N323 C322 1.342 . S
N323 N324 1.388 . S
N324 Co307 1.993 . S
N324 N323 1.388 . S
N324 C325 1.346 . S
C325 N324 1.346 . S
C325 C326 1.396 . S
C325 C335 1.510 . S
C326 C322 1.401 . S
C326 C325 1.396 . S
C327 C322 1.499 1_455 S
C327 H328 0.959 . S
C327 H329 0.960 . S
C327 H330 0.961 1_455 S
H328 C327 0.959 . S
H329 C327 0.960 . S
H330 C327 0.961 1_655 S
O331 Co306 1.967 . S
O331 C339 1.258 1_455 S
O332 Co307 1.941 . S
O332 C339 1.266 . S
H333 C335 0.959 . S
H334 C335 0.961 . S
C335 C325 1.510 . S
C335 H333 0.959 . S
C335 H334 0.961 . S
C335 H336 0.960 . S
H336 C335 0.960 . S
H337 N317 0.862 . S
O338 Co306 1.920 . S
O338 C311 1.289 . S
C339 O331 1.258 1_655 S
C339 O332 1.266 . S
Co340 O343 1.970 . S
Co340 N357 1.989 . S
Co340 O365 1.967 . S
Co340 O372 1.920 . S
Co341 O344 1.966 . S
Co341 N350 2.022 . S
Co341 N358 1.993 . S
Co341 O366 1.941 . S
C342 O343 1.258 . S
C342 O344 1.263 . S
O343 Co340 1.970 . S
O343 C342 1.258 . S
O344 Co341 1.966 . S
O344 C342 1.263 . S
C345 O346 1.235 . S
C345 O372 1.289 . S
O346 C345 1.235 . S
C347 C349 1.400 . S
C347 N350 1.351 . S
C347 C352 1.501 . S
C348 C349 1.387 . S
C348 N351 1.341 . S
C349 C347 1.400 . S
C349 C348 1.387 . S
N350 Co341 2.022 . S
N350 C347 1.351 . S
N350 N351 1.365 . S
N351 C348 1.341 . S
N351 N350 1.365 . S
N351 H371 0.862 . S
C352 C347 1.501 . S
C352 H353 0.961 . S
C352 H354 0.961 . S
C352 H355 0.960 . S
H353 C352 0.961 . S
H354 C352 0.961 . S
H355 C352 0.960 . S
C356 N357 1.342 . S
C356 C360 1.401 . S
C356 C361 1.499 . S
N357 Co340 1.989 . S
N357 C356 1.342 . S
N357 N358 1.388 . S
N358 Co341 1.993 . S
N358 N357 1.388 . S
N358 C359 1.346 . S
C359 N358 1.346 . S
C359 C360 1.396 . S
C359 C369 1.510 . S
C360 C356 1.401 . S
C360 C359 1.396 . S
C361 C356 1.499 . S
C361 H362 0.959 . S
C361 H363 0.960 . S
C361 H364 0.961 . S
H362 C361 0.959 . S
H363 C361 0.960 . S
H364 C361 0.961 . S
O365 Co340 1.967 . S
O365 C373 1.258 . S
O366 Co341 1.941 . S
O366 C373 1.266 . S
H367 C369 0.959 . S
H368 C369 0.961 . S
C369 C359 1.510 . S
C369 H367 0.959 . S
C369 H368 0.961 . S
C369 H370 0.960 . S
H370 C369 0.960 . S
H371 N351 0.862 . S
O372 Co340 1.920 . S
O372 C345 1.289 . S
C373 O365 1.258 . S
C373 O366 1.266 . S
Co374 O377 1.970 . S
Co374 N391 1.989 1_565 S
Co374 O399 1.967 . S
Co374 O406 1.920 . S
Co375 O378 1.966 1_545 S
Co375 N384 2.022 . S
Co375 N392 1.993 . S
Co375 O400 1.941 . S
C376 O377 1.258 . S
C376 O378 1.263 . S
O377 Co374 1.970 . S
O377 C376 1.258 . S
O378 Co375 1.966 1_565 S
O378 C376 1.263 . S
C379 O380 1.235 . S
C379 O406 1.289 . S
O380 C379 1.235 . S
C381 C383 1.400 . S
C381 N384 1.351 . S
C381 C386 1.501 . S
C382 C383 1.387 . S
C382 N385 1.341 . S
C383 C381 1.400 . S
C383 C382 1.387 . S
N384 Co375 2.022 . S
N384 C381 1.351 . S
N384 N385 1.365 . S
N385 C382 1.341 . S
N385 N384 1.365 . S
N385 H405 0.862 . S
C386 C381 1.501 . S
C386 H387 0.961 . S
C386 H388 0.961 . S
C386 H389 0.960 . S
H387 C386 0.961 . S
H388 C386 0.961 . S
H389 C386 0.960 . S
C390 N391 1.342 . S
C390 C394 1.401 . S
C390 C395 1.499 1_545 S
N391 Co374 1.989 1_545 S
N391 C390 1.342 . S
N391 N392 1.388 . S
N392 Co375 1.993 . S
N392 N391 1.388 . S
N392 C393 1.346 . S
C393 N392 1.346 . S
C393 C394 1.396 . S
C393 C403 1.510 . S
C394 C390 1.401 . S
C394 C393 1.396 . S
C395 C390 1.499 1_565 S
C395 H396 0.959 . S
C395 H397 0.960 . S
C395 H398 0.961 1_565 S
H396 C395 0.959 . S
H397 C395 0.960 . S
H398 C395 0.961 1_545 S
O399 Co374 1.967 . S
O399 C407 1.258 1_565 S
O400 Co375 1.941 . S
O400 C407 1.266 . S
H401 C403 0.959 . S
H402 C403 0.961 . S
C403 C393 1.510 . S
C403 H401 0.959 . S
C403 H402 0.961 . S
C403 H404 0.960 . S
H404 C403 0.960 . S
H405 N385 0.862 . S
O406 Co374 1.920 . S
O406 C379 1.289 . S
C407 O399 1.258 1_545 S
C407 O400 1.266 . S
Co408 O411 1.970 . S
Co408 N425 1.989 1_545 S
Co408 O433 1.967 . S
Co408 O440 1.920 . S
Co409 O412 1.966 1_565 S
Co409 N418 2.022 . S
Co409 N426 1.993 . S
Co409 O434 1.941 . S
C410 O411 1.258 . S
C410 O412 1.263 . S
O411 Co408 1.970 . S
O411 C410 1.258 . S
O412 Co409 1.966 1_545 S
O412 C410 1.263 . S
C413 O414 1.235 . S
C413 O440 1.289 . S
O414 C413 1.235 . S
C415 C417 1.400 . S
C415 N418 1.351 . S
C415 C420 1.501 . S
C416 C417 1.387 . S
C416 N419 1.341 . S
C417 C415 1.400 . S
C417 C416 1.387 . S
N418 Co409 2.022 . S
N418 C415 1.351 . S
N418 N419 1.365 . S
N419 C416 1.341 . S
N419 N418 1.365 . S
N419 H439 0.862 . S
C420 C415 1.501 . S
C420 H421 0.961 . S
C420 H422 0.961 . S
C420 H423 0.960 . S
H421 C420 0.961 . S
H422 C420 0.961 . S
H423 C420 0.960 . S
C424 N425 1.342 . S
C424 C428 1.401 . S
C424 C429 1.499 1_565 S
N425 Co408 1.989 1_565 S
N425 C424 1.342 . S
N425 N426 1.388 . S
N426 Co409 1.993 . S
N426 N425 1.388 . S
N426 C427 1.346 . S
C427 N426 1.346 . S
C427 C428 1.396 . S
C427 C437 1.510 . S
C428 C424 1.401 . S
C428 C427 1.396 . S
C429 C424 1.499 1_545 S
C429 H430 0.959 . S
C429 H431 0.960 . S
C429 H432 0.961 1_545 S
H430 C429 0.959 . S
H431 C429 0.960 . S
H432 C429 0.961 1_565 S
O433 Co408 1.967 . S
O433 C441 1.258 1_545 S
O434 Co409 1.941 . S
O434 C441 1.266 . S
H435 C437 0.959 . S
H436 C437 0.961 . S
C437 C427 1.510 . S
C437 H435 0.959 . S
C437 H436 0.961 . S
C437 H438 0.960 . S
H438 C437 0.960 . S
H439 N419 0.862 . S
O440 Co408 1.920 . S
O440 C413 1.289 . S
C441 O433 1.258 1_565 S
C441 O434 1.266 . S
Co442 O445 1.970 . S
Co442 N459 1.989 1_655 S
Co442 O467 1.967 . S
Co442 O474 1.920 . S
Co443 O446 1.966 1_455 S
Co443 N452 2.022 . S
Co443 N460 1.993 . S
Co443 O468 1.941 . S
C444 O445 1.258 . S
C444 O446 1.263 . S
O445 Co442 1.970 . S
O445 C444 1.258 . S
O446 Co443 1.966 1_655 S
O446 C444 1.263 . S
C447 O448 1.235 . S
C447 O474 1.289 . S
O448 C447 1.235 . S
C449 C451 1.400 . S
C449 N452 1.351 . S
C449 C454 1.501 . S
C450 C451 1.387 . S
C450 N453 1.341 . S
C451 C449 1.400 . S
C451 C450 1.387 . S
N452 Co443 2.022 . S
N452 C449 1.351 . S
N452 N453 1.365 . S
N453 C450 1.341 . S
N453 N452 1.365 . S
N453 H473 0.862 . S
C454 C449 1.501 . S
C454 H455 0.961 . S
C454 H456 0.961 . S
C454 H457 0.960 . S
H455 C454 0.961 . S
H456 C454 0.961 . S
H457 C454 0.960 . S
C458 N459 1.342 . S
C458 C462 1.401 . S
C458 C463 1.499 1_455 S
N459 Co442 1.989 1_455 S
N459 C458 1.342 . S
N459 N460 1.388 . S
N460 Co443 1.993 . S
N460 N459 1.388 . S
N460 C461 1.346 . S
C461 N460 1.346 . S
C461 C462 1.396 . S
C461 C471 1.510 . S
C462 C458 1.401 . S
C462 C461 1.396 . S
C463 C458 1.499 1_655 S
C463 H464 0.959 . S
C463 H465 0.960 . S
C463 H466 0.961 1_655 S
H464 C463 0.959 . S
H465 C463 0.960 . S
H466 C463 0.961 1_455 S
O467 Co442 1.967 . S
O467 C475 1.258 1_655 S
O468 Co443 1.941 . S
O468 C475 1.266 . S
H469 C471 0.959 . S
H470 C471 0.961 . S
C471 C461 1.510 . S
C471 H469 0.959 . S
C471 H470 0.961 . S
C471 H472 0.960 . S
H472 C471 0.960 . S
H473 N453 0.862 . S
O474 Co442 1.920 . S
O474 C447 1.289 . S
C475 O467 1.258 1_455 S
C475 O468 1.266 . S
Co476 O479 1.970 . S
Co476 N493 1.989 . S
Co476 O501 1.967 . S
Co476 O508 1.920 . S
Co477 O480 1.966 . S
Co477 N486 2.022 . S
Co477 N494 1.993 . S
Co477 O502 1.941 . S
C478 O479 1.258 . S
C478 O480 1.263 . S
O479 Co476 1.970 . S
O479 C478 1.258 . S
O480 Co477 1.966 . S
O480 C478 1.263 . S
C481 O482 1.235 . S
C481 O508 1.289 . S
O482 C481 1.235 . S
C483 C485 1.400 . S
C483 N486 1.351 . S
C483 C488 1.501 . S
C484 C485 1.387 . S
C484 N487 1.341 . S
C485 C483 1.400 . S
C485 C484 1.387 . S
N486 Co477 2.022 . S
N486 C483 1.351 . S
N486 N487 1.365 . S
N487 C484 1.341 . S
N487 N486 1.365 . S
N487 H507 0.862 . S
C488 C483 1.501 . S
C488 H489 0.961 . S
C488 H490 0.961 . S
C488 H491 0.960 . S
H489 C488 0.961 . S
H490 C488 0.961 . S
H491 C488 0.960 . S
C492 N493 1.342 . S
C492 C496 1.401 . S
C492 C497 1.499 . S
N493 Co476 1.989 . S
N493 C492 1.342 . S
N493 N494 1.388 . S
N494 Co477 1.993 . S
N494 N493 1.388 . S
N494 C495 1.346 . S
C495 N494 1.346 . S
C495 C496 1.396 . S
C495 C505 1.510 . S
C496 C492 1.401 . S
C496 C495 1.396 . S
C497 C492 1.499 . S
C497 H498 0.959 . S
C497 H499 0.960 . S
C497 H500 0.961 . S
H498 C497 0.959 . S
H499 C497 0.960 . S
H500 C497 0.961 . S
O501 Co476 1.967 . S
O501 C509 1.258 . S
O502 Co477 1.941 . S
O502 C509 1.266 . S
H503 C505 0.959 . S
H504 C505 0.961 . S
C505 C495 1.510 . S
C505 H503 0.959 . S
C505 H504 0.961 . S
C505 H506 0.960 . S
H506 C505 0.960 . S
H507 N487 0.862 . S
O508 Co476 1.920 . S
O508 C481 1.289 . S
C509 O501 1.258 . S
C509 O502 1.266 . S
Co510 O513 1.970 . S
Co510 N527 1.989 . S
Co510 O535 1.967 . S
Co510 O542 1.920 . S
Co511 O514 1.966 . S
Co511 N520 2.022 . S
Co511 N528 1.993 . S
Co511 O536 1.941 . S
C512 O513 1.258 . S
C512 O514 1.263 . S
O513 Co510 1.970 . S
O513 C512 1.258 . S
O514 Co511 1.966 . S
O514 C512 1.263 . S
C515 O516 1.235 . S
C515 O542 1.289 . S
O516 C515 1.235 . S
C517 C519 1.400 . S
C517 N520 1.351 . S
C517 C522 1.501 . S
C518 C519 1.387 . S
C518 N521 1.341 . S
C519 C517 1.400 . S
C519 C518 1.387 . S
N520 Co511 2.022 . S
N520 C517 1.351 . S
N520 N521 1.365 . S
N521 C518 1.341 . S
N521 N520 1.365 . S
N521 H541 0.862 . S
C522 C517 1.501 . S
C522 H523 0.961 . S
C522 H524 0.961 . S
C522 H525 0.960 . S
H523 C522 0.961 . S
H524 C522 0.961 . S
H525 C522 0.960 . S
C526 N527 1.342 . S
C526 C530 1.401 . S
C526 C531 1.499 . S
N527 Co510 1.989 . S
N527 C526 1.342 . S
N527 N528 1.388 . S
N528 Co511 1.993 . S
N528 N527 1.388 . S
N528 C529 1.346 . S
C529 N528 1.346 . S
C529 C530 1.396 . S
C529 C539 1.510 . S
C530 C526 1.401 . S
C530 C529 1.396 . S
C531 C526 1.499 . S
C531 H532 0.959 . S
C531 H533 0.960 . S
C531 H534 0.961 . S
H532 C531 0.959 . S
H533 C531 0.960 . S
H534 C531 0.961 . S
O535 Co510 1.967 . S
O535 C543 1.258 . S
O536 Co511 1.941 . S
O536 C543 1.266 . S
H537 C539 0.959 . S
H538 C539 0.961 . S
C539 C529 1.510 . S
C539 H537 0.959 . S
C539 H538 0.961 . S
C539 H540 0.960 . S
H540 C539 0.960 . S
H541 N521 0.862 . S
O542 Co510 1.920 . S
O542 C515 1.289 . S
C543 O535 1.258 . S
C543 O536 1.266 . S
Co544 O547 1.970 . S
Co544 N561 1.989 . S
Co544 O569 1.967 . S
Co544 O576 1.920 . S
Co545 O548 1.966 . S
Co545 N554 2.022 . S
Co545 N562 1.993 . S
Co545 O570 1.941 . S
C546 O547 1.258 . S
C546 O548 1.263 . S
O547 Co544 1.970 . S
O547 C546 1.258 . S
O548 Co545 1.966 . S
O548 C546 1.263 . S
C549 O550 1.235 . S
C549 O576 1.289 . S
O550 C549 1.235 . S
C551 C553 1.400 . S
C551 N554 1.351 . S
C551 C556 1.501 . S
C552 C553 1.387 . S
C552 N555 1.341 . S
C553 C551 1.400 . S
C553 C552 1.387 . S
N554 Co545 2.022 . S
N554 C551 1.351 . S
N554 N555 1.365 . S
N555 C552 1.341 . S
N555 N554 1.365 . S
N555 H575 0.862 . S
C556 C551 1.501 . S
C556 H557 0.961 . S
C556 H558 0.961 . S
C556 H559 0.960 . S
H557 C556 0.961 . S
H558 C556 0.961 . S
H559 C556 0.960 . S
C560 N561 1.342 . S
C560 C564 1.401 . S
C560 C565 1.499 . S
N561 Co544 1.989 . S
N561 C560 1.342 . S
N561 N562 1.388 . S
N562 Co545 1.993 . S
N562 N561 1.388 . S
N562 C563 1.346 . S
C563 N562 1.346 . S
C563 C564 1.396 . S
C563 C573 1.510 . S
C564 C560 1.401 . S
C564 C563 1.396 . S
C565 C560 1.499 . S
C565 H566 0.959 . S
C565 H567 0.960 . S
C565 H568 0.961 . S
H566 C565 0.959 . S
H567 C565 0.960 . S
H568 C565 0.961 . S
O569 Co544 1.967 . S
O569 C577 1.258 . S
O570 Co545 1.941 . S
O570 C577 1.266 . S
H571 C573 0.959 . S
H572 C573 0.961 . S
C573 C563 1.510 . S
C573 H571 0.959 . S
C573 H572 0.961 . S
C573 H574 0.960 . S
H574 C573 0.960 . S
H575 N555 0.862 . S
O576 Co544 1.920 . S
O576 C549 1.289 . S
C577 O569 1.258 . S
C577 O570 1.266 . S
Co578 O581 1.970 . S
Co578 N595 1.989 . S
Co578 O603 1.967 . S
Co578 O610 1.920 . S
Co579 O582 1.966 . S
Co579 N588 2.022 . S
Co579 N596 1.993 . S
Co579 O604 1.941 . S
C580 O581 1.258 . S
C580 O582 1.263 . S
O581 Co578 1.970 . S
O581 C580 1.258 . S
O582 Co579 1.966 . S
O582 C580 1.263 . S
C583 O584 1.235 . S
C583 O610 1.289 . S
O584 C583 1.235 . S
C585 C587 1.400 . S
C585 N588 1.351 . S
C585 C590 1.501 . S
C586 C587 1.387 . S
C586 N589 1.341 . S
C587 C585 1.400 . S
C587 C586 1.387 . S
N588 Co579 2.022 . S
N588 C585 1.351 . S
N588 N589 1.365 . S
N589 C586 1.341 . S
N589 N588 1.365 . S
N589 H609 0.862 . S
C590 C585 1.501 . S
C590 H591 0.961 . S
C590 H592 0.961 . S
C590 H593 0.960 . S
H591 C590 0.961 . S
H592 C590 0.961 . S
H593 C590 0.960 . S
C594 N595 1.342 . S
C594 C598 1.401 . S
C594 C599 1.499 . S
N595 Co578 1.989 . S
N595 C594 1.342 . S
N595 N596 1.388 . S
N596 Co579 1.993 . S
N596 N595 1.388 . S
N596 C597 1.346 . S
C597 N596 1.346 . S
C597 C598 1.396 . S
C597 C607 1.510 . S
C598 C594 1.401 . S
C598 C597 1.396 . S
C599 C594 1.499 . S
C599 H600 0.959 . S
C599 H601 0.960 . S
C599 H602 0.961 . S
H600 C599 0.959 . S
H601 C599 0.960 . S
H602 C599 0.961 . S
O603 Co578 1.967 . S
O603 C611 1.258 . S
O604 Co579 1.941 . S
O604 C611 1.266 . S
H605 C607 0.959 . S
H606 C607 0.961 . S
C607 C597 1.510 . S
C607 H605 0.959 . S
C607 H606 0.961 . S
C607 H608 0.960 . S
H608 C607 0.960 . S
H609 N589 0.862 . S
O610 Co578 1.920 . S
O610 C583 1.289 . S
C611 O603 1.258 . S
C611 O604 1.266 . S
C612 C613 1.387 . S
C612 H616 0.950 . S
C612 C621 1.390 . S
C613 C612 1.387 . S
C613 C615 1.387 1_556 S
H614 C621 0.950 . S
C615 C613 1.387 1_554 S
C615 C617 1.390 . S
C615 H619 0.950 . S
H616 C612 0.950 . S
C617 C615 1.390 . S
C617 C618 1.387 . S
C617 H620 0.950 . S
C618 C617 1.387 . S
C618 C621 1.387 1_554 S
H619 C615 0.950 . S
H620 C617 0.950 . S
C621 C612 1.390 . S
C621 H614 0.950 . S
C621 C618 1.387 1_556 S
C622 C623 1.387 . S
C622 H626 0.950 . S
C622 C631 1.390 1_564 S
C623 C622 1.387 . S
C623 C625 1.387 . S
H624 C631 0.950 . S
C625 C623 1.387 . S
C625 C627 1.390 1_564 S
C625 H629 0.950 . S
H626 C622 0.950 . S
C627 C625 1.390 1_546 S
C627 C628 1.387 . S
C627 H630 0.950 . S
C628 C627 1.387 . S
C628 C631 1.387 . S
H629 C625 0.950 . S
H630 C627 0.950 . S
C631 C622 1.390 1_546 S
C631 H624 0.950 . S
C631 C628 1.387 . S
C632 C633 1.387 . S
C632 H636 0.950 . S
C632 C641 1.390 1_454 S
C633 C632 1.387 . S
C633 C635 1.387 . S
H634 C641 0.950 . S
C635 C633 1.387 . S
C635 C637 1.390 1_454 S
C635 H639 0.950 . S
H636 C632 0.950 . S
C637 C635 1.390 1_656 S
C637 C638 1.387 . S
C637 H640 0.950 . S
C638 C637 1.387 . S
C638 C641 1.387 . S
H639 C635 0.950 . S
H640 C637 0.950 . S
C641 C632 1.390 1_656 S
C641 H634 0.950 . S
C641 C638 1.387 . S
C642 C643 1.387 . S
C642 H646 0.950 . S
C642 C651 1.390 . S
C643 C642 1.387 . S
C643 C645 1.387 1_556 S
H644 C651 0.950 . S
C645 C643 1.387 1_554 S
C645 C647 1.390 . S
C645 H649 0.950 . S
H646 C642 0.950 . S
C647 C645 1.390 . S
C647 C648 1.387 . S
C647 H650 0.950 . S
C648 C647 1.387 . S
C648 C651 1.387 1_554 S
H649 C645 0.950 . S
H650 C647 0.950 . S
C651 C642 1.390 . S
C651 H644 0.950 . S
C651 C648 1.387 1_556 S
C652 C653 1.387 . S
C652 H656 0.950 . S
C652 C661 1.390 1_546 S
C653 C652 1.387 . S
C653 C655 1.387 . S
H654 C661 0.950 . S
C655 C653 1.387 . S
C655 C657 1.390 1_546 S
C655 H659 0.950 . S
H656 C652 0.950 . S
C657 C655 1.390 1_564 S
C657 C658 1.387 . S
C657 H660 0.950 . S
C658 C657 1.387 . S
C658 C661 1.387 . S
H659 C655 0.950 . S
H660 C657 0.950 . S
C661 C652 1.390 1_564 S
C661 H654 0.950 . S
C661 C658 1.387 . S
C662 C663 1.387 . S
C662 H666 0.950 . S
C662 C671 1.390 1_655 S
C663 C662 1.387 . S
C663 C665 1.387 1_556 S
H664 C671 0.950 . S
C665 C663 1.387 1_554 S
C665 C667 1.390 1_655 S
C665 H669 0.950 . S
H666 C662 0.950 . S
C667 C665 1.390 1_455 S
C667 C668 1.387 . S
C667 H670 0.950 . S
C668 C667 1.387 . S
C668 C671 1.387 1_554 S
H669 C665 0.950 . S
H670 C667 0.950 . S
C671 C662 1.390 1_455 S
C671 H664 0.950 . S
C671 C668 1.387 1_556 S
C672 C673 1.387 . S
C672 H676 0.950 . S
C672 C681 1.390 . S
C673 C672 1.387 . S
C673 C675 1.387 . S
H674 C681 0.950 . S
C675 C673 1.387 . S
C675 C677 1.390 . S
C675 H679 0.950 . S
H676 C672 0.950 . S
C677 C675 1.390 . S
C677 C678 1.387 . S
C677 H680 0.950 . S
C678 C677 1.387 . S
C678 C681 1.387 . S
H679 C675 0.950 . S
H680 C677 0.950 . S
C681 C672 1.390 . S
C681 H674 0.950 . S
C681 C678 1.387 . S
C682 C683 1.387 . S
C682 H686 0.950 . S
C682 C691 1.390 . S
C683 C682 1.387 . S
C683 C685 1.387 . S
H684 C691 0.950 . S
C685 C683 1.387 . S
C685 C687 1.390 . S
C685 H689 0.950 . S
H686 C682 0.950 . S
C687 C685 1.390 . S
C687 C688 1.387 . S
C687 H690 0.950 . S
C688 C687 1.387 . S
C688 C691 1.387 . S
H689 C685 0.950 . S
H690 C687 0.950 . S
C691 C682 1.390 . S
C691 H684 0.950 . S
C691 C688 1.387 . S
C692 C693 1.387 . S
C692 H696 0.950 . S
C692 C701 1.390 . S
C693 C692 1.387 . S
C693 C695 1.387 . S
H694 C701 0.950 . S
C695 C693 1.387 . S
C695 C697 1.390 . S
C695 H699 0.950 . S
H696 C692 0.950 . S
C697 C695 1.390 . S
C697 C698 1.387 . S
C697 H700 0.950 . S
C698 C697 1.387 . S
C698 C701 1.387 . S
H699 C695 0.950 . S
H700 C697 0.950 . S
C701 C692 1.390 . S
C701 H694 0.950 . S
C701 C698 1.387 . S
C702 C703 1.387 . S
C702 H706 0.950 . S
C702 C711 1.390 . S
C703 C702 1.387 . S
C703 C705 1.387 . S
H704 C711 0.950 . S
C705 C703 1.387 . S
C705 C707 1.390 . S
C705 H709 0.950 . S
H706 C702 0.950 . S
C707 C705 1.390 . S
C707 C708 1.387 . S
C707 H710 0.950 . S
C708 C707 1.387 . S
C708 C711 1.387 . S
H709 C705 0.950 . S
H710 C707 0.950 . S
C711 C702 1.390 . S
C711 H704 0.950 . S
C711 C708 1.387 . S
C712 C713 1.387 . S
C712 H716 0.950 . S
C712 C721 1.390 . S
C713 C712 1.387 . S
C713 C715 1.387 . S
H714 C721 0.950 . S
C715 C713 1.387 . S
C715 C717 1.390 . S
C715 H719 0.950 . S
H716 C712 0.950 . S
C717 C715 1.390 . S
C717 C718 1.387 . S
C717 H720 0.950 . S
C718 C717 1.387 . S
C718 C721 1.387 . S
H719 C715 0.950 . S
H720 C717 0.950 . S
C721 C712 1.390 . S
C721 H714 0.950 . S
C721 C718 1.387 . S
C722 C723 1.387 . S
C722 H726 0.950 . S
C722 C731 1.390 . S
C723 C722 1.387 . S
C723 C725 1.387 . S
H724 C731 0.950 . S
C725 C723 1.387 . S
C725 C727 1.390 . S
C725 H729 0.950 . S
H726 C722 0.950 . S
C727 C725 1.390 . S
C727 C728 1.387 . S
C727 H730 0.950 . S
C728 C727 1.387 . S
C728 C731 1.387 . S
H729 C725 0.950 . S
H730 C727 0.950 . S
C731 C722 1.390 . S
C731 H724 0.950 . S
C731 C728 1.387 . S
C732 C733 1.387 . S
C732 H736 0.950 . S
C732 C741 1.390 . S
C733 C732 1.387 . S
C733 C735 1.387 . S
H734 C741 0.950 . S
C735 C733 1.387 . S
C735 C737 1.390 . S
C735 H739 0.950 . S
H736 C732 0.950 . S
C737 C735 1.390 . S
C737 C738 1.387 . S
C737 H740 0.950 . S
C738 C737 1.387 . S
C738 C741 1.387 . S
H739 C735 0.950 . S
H740 C737 0.950 . S
C741 C732 1.390 . S
C741 H734 0.950 . S
C741 C738 1.387 . S
C742 C743 1.387 . S
C742 H746 0.950 . S
C742 C751 1.390 . S
C743 C742 1.387 . S
C743 C745 1.387 . S
H744 C751 0.950 . S
C745 C743 1.387 . S
C745 C747 1.390 . S
C745 H749 0.950 . S
H746 C742 0.950 . S
C747 C745 1.390 . S
C747 C748 1.387 . S
C747 H750 0.950 . S
C748 C747 1.387 . S
C748 C751 1.387 . S
H749 C745 0.950 . S
H750 C747 0.950 . S
C751 C742 1.390 . S
C751 H744 0.950 . S
C751 C748 1.387 . S
C752 C753 1.387 . S
C752 H756 0.950 . S
C752 C761 1.390 . S
C753 C752 1.387 . S
C753 C755 1.387 . S
H754 C761 0.950 . S
C755 C753 1.387 . S
C755 C757 1.390 . S
C755 H759 0.950 . S
H756 C752 0.950 . S
C757 C755 1.390 . S
C757 C758 1.387 . S
C757 H760 0.950 . S
C758 C757 1.387 . S
C758 C761 1.387 . S
H759 C755 0.950 . S
H760 C757 0.950 . S
C761 C752 1.390 . S
C761 H754 0.950 . S
C761 C758 1.387 . S
C762 C763 1.387 . S
C762 H766 0.950 . S
C762 C771 1.390 . S
C763 C762 1.387 . S
C763 C765 1.387 . S
H764 C771 0.950 . S
C765 C763 1.387 . S
C765 C767 1.390 . S
C765 H769 0.950 . S
H766 C762 0.950 . S
C767 C765 1.390 . S
C767 C768 1.387 . S
C767 H770 0.950 . S
C768 C767 1.387 . S
C768 C771 1.387 . S
H769 C765 0.950 . S
H770 C767 0.950 . S
C771 C762 1.390 . S
C771 H764 0.950 . S
C771 C768 1.387 . S
C772 C773 1.387 . S
C772 H776 0.950 . S
C772 C781 1.390 . S
C773 C772 1.387 . S
C773 C775 1.387 . S
H774 C781 0.950 . S
C775 C773 1.387 . S
C775 C777 1.390 . S
C775 H779 0.950 . S
H776 C772 0.950 . S
C777 C775 1.390 . S
C777 C778 1.387 . S
C777 H780 0.950 . S
C778 C777 1.387 . S
C778 C781 1.387 . S
H779 C775 0.950 . S
H780 C777 0.950 . S
C781 C772 1.390 . S
C781 H774 0.950 . S
C781 C778 1.387 . S
C782 C783 1.387 . S
C782 H786 0.950 . S
C782 C791 1.390 . S
C783 C782 1.387 . S
C783 C785 1.387 . S
H784 C791 0.950 . S
C785 C783 1.387 . S
C785 C787 1.390 . S
C785 H789 0.950 . S
H786 C782 0.950 . S
C787 C785 1.390 . S
C787 C788 1.387 . S
C787 H790 0.950 . S
C788 C787 1.387 . S
C788 C791 1.387 . S
H789 C785 0.950 . S
H790 C787 0.950 . S
C791 C782 1.390 . S
C791 H784 0.950 . S
C791 C788 1.387 . S
C792 C793 1.387 . S
C792 H796 0.950 . S
C792 C801 1.390 . S
C793 C792 1.387 . S
C793 C795 1.387 . S
H794 C801 0.950 . S
C795 C793 1.387 . S
C795 C797 1.390 . S
C795 H799 0.950 . S
H796 C792 0.950 . S
C797 C795 1.390 . S
C797 C798 1.387 . S
C797 H800 0.950 . S
C798 C797 1.387 . S
C798 C801 1.387 . S
H799 C795 0.950 . S
H800 C797 0.950 . S
C801 C792 1.390 . S
C801 H794 0.950 . S
C801 C798 1.387 . S
C802 C803 1.387 . S
C802 H806 0.950 . S
C802 C811 1.390 . S
C803 C802 1.387 . S
C803 C805 1.387 . S
H804 C811 0.950 . S
C805 C803 1.387 . S
C805 C807 1.390 . S
C805 H809 0.950 . S
H806 C802 0.950 . S
C807 C805 1.390 . S
C807 C808 1.387 . S
C807 H810 0.950 . S
C808 C807 1.387 . S
C808 C811 1.387 . S
H809 C805 0.950 . S
H810 C807 0.950 . S
C811 C802 1.390 . S
C811 H804 0.950 . S
C811 C808 1.387 . S
C812 C813 1.387 . S
C812 H816 0.950 . S
C812 C821 1.390 . S
C813 C812 1.387 . S
C813 C815 1.387 . S
H814 C821 0.950 . S
C815 C813 1.387 . S
C815 C817 1.390 . S
C815 H819 0.950 . S
H816 C812 0.950 . S
C817 C815 1.390 . S
C817 C818 1.387 . S
C817 H820 0.950 . S
C818 C817 1.387 . S
C818 C821 1.387 . S
H819 C815 0.950 . S
H820 C817 0.950 . S
C821 C812 1.390 . S
C821 H814 0.950 . S
C821 C818 1.387 . S
C822 C823 1.387 . S
C822 H826 0.950 . S
C822 C831 1.390 . S
C823 C822 1.387 . S
C823 C825 1.387 . S
H824 C831 0.950 . S
C825 C823 1.387 . S
C825 C827 1.390 . S
C825 H829 0.950 . S
H826 C822 0.950 . S
C827 C825 1.390 . S
C827 C828 1.387 . S
C827 H830 0.950 . S
C828 C827 1.387 . S
C828 C831 1.387 . S
H829 C825 0.950 . S
H830 C827 0.950 . S
C831 C822 1.390 . S
C831 H824 0.950 . S
C831 C828 1.387 . S
C832 C833 1.387 . S
C832 H836 0.950 . S
C832 C841 1.390 . S
C833 C832 1.387 . S
C833 C835 1.387 . S
H834 C841 0.950 . S
C835 C833 1.387 . S
C835 C837 1.390 . S
C835 H839 0.950 . S
H836 C832 0.950 . S
C837 C835 1.390 . S
C837 C838 1.387 . S
C837 H840 0.950 . S
C838 C837 1.387 . S
C838 C841 1.387 . S
H839 C835 0.950 . S
H840 C837 0.950 . S
C841 C832 1.390 . S
C841 H834 0.950 . S
C841 C838 1.387 . S
C842 C843 1.387 . S
C842 H846 0.950 . S
C842 C851 1.390 . S
C843 C842 1.387 . S
C843 C845 1.387 . S
H844 C851 0.950 . S
C845 C843 1.387 . S
C845 C847 1.390 . S
C845 H849 0.950 . S
H846 C842 0.950 . S
C847 C845 1.390 . S
C847 C848 1.387 . S
C847 H850 0.950 . S
C848 C847 1.387 . S
C848 C851 1.387 . S
H849 C845 0.950 . S
H850 C847 0.950 . S
C851 C842 1.390 . S
C851 H844 0.950 . S
C851 C848 1.387 . S
C852 C853 1.387 . S
C852 H856 0.950 . S
C852 C861 1.390 1_554 S
C853 C852 1.387 . S
C853 C855 1.387 1_655 S
H854 C861 0.950 . S
C855 C853 1.387 1_455 S
C855 C857 1.390 1_554 S
C855 H859 0.950 . S
H856 C852 0.950 . S
C857 C855 1.390 1_556 S
C857 C858 1.387 . S
C857 H860 0.950 . S
C858 C857 1.387 . S
C858 C861 1.387 1_455 S
H859 C855 0.950 . S
H860 C857 0.950 . S
C861 C852 1.390 1_556 S
C861 H854 0.950 . S
C861 C858 1.387 1_655 S
C862 C863 1.387 . S
C862 H866 0.950 . S
C862 C871 1.390 1_556 S
C863 C862 1.387 . S
C863 C865 1.387 . S
H864 C871 0.950 . S
C865 C863 1.387 . S
C865 C867 1.390 1_556 S
C865 H869 0.950 . S
H866 C862 0.950 . S
C867 C865 1.390 1_554 S
C867 C868 1.387 . S
C867 H870 0.950 . S
C868 C867 1.387 . S
C868 C871 1.387 . S
H869 C865 0.950 . S
H870 C867 0.950 . S
C871 C862 1.390 1_554 S
C871 H864 0.950 . S
C871 C868 1.387 . S
C872 C873 1.387 . S
C872 H876 0.950 . S
C872 C881 1.390 1_566 S
C873 C872 1.387 . S
C873 C875 1.387 . S
H874 C881 0.950 . S
C875 C873 1.387 . S
C875 C877 1.390 1_566 S
C875 H879 0.950 . S
H876 C872 0.950 . S
C877 C875 1.390 1_544 S
C877 C878 1.387 . S
C877 H880 0.950 . S
C878 C877 1.387 . S
C878 C881 1.387 . S
H879 C875 0.950 . S
H880 C877 0.950 . S
C881 C872 1.390 1_544 S
C881 H874 0.950 . S
C881 C878 1.387 . S
C882 C883 1.387 . S
C882 H886 0.950 . S
C882 C891 1.390 . S
C883 C882 1.387 . S
C883 C885 1.387 . S
H884 C891 0.950 . S
C885 C883 1.387 . S
C885 C887 1.390 . S
C885 H889 0.950 . S
H886 C882 0.950 . S
C887 C885 1.390 . S
C887 C888 1.387 . S
C887 H890 0.950 . S
C888 C887 1.387 . S
C888 C891 1.387 . S
H889 C885 0.950 . S
H890 C887 0.950 . S
C891 C882 1.390 . S
C891 H884 0.950 . S
C891 C888 1.387 . S
C892 C893 1.387 . S
C892 H896 0.950 . S
C892 C901 1.390 . S
C893 C892 1.387 . S
C893 C895 1.387 . S
H894 C901 0.950 . S
C895 C893 1.387 . S
C895 C897 1.390 . S
C895 H899 0.950 . S
H896 C892 0.950 . S
C897 C895 1.390 . S
C897 C898 1.387 . S
C897 H900 0.950 . S
C898 C897 1.387 . S
C898 C901 1.387 . S
H899 C895 0.950 . S
H900 C897 0.950 . S
C901 C892 1.390 . S
C901 H894 0.950 . S
C901 C898 1.387 . S
C902 C903 1.387 . S
C902 H906 0.950 . S
C902 C911 1.390 . S
C903 C902 1.387 . S
C903 C905 1.387 . S
H904 C911 0.950 . S
C905 C903 1.387 . S
C905 C907 1.390 . S
C905 H909 0.950 . S
H906 C902 0.950 . S
C907 C905 1.390 . S
C907 C908 1.387 . S
C907 H910 0.950 . S
C908 C907 1.387 . S
C908 C911 1.387 . S
H909 C905 0.950 . S
H910 C907 0.950 . S
C911 C902 1.390 . S
C911 H904 0.950 . S
C911 C908 1.387 . S
C912 C913 1.387 . S
C912 H916 0.950 . S
C912 C921 1.390 . S
C913 C912 1.387 . S
C913 C915 1.387 . S
H914 C921 0.950 . S
C915 C913 1.387 . S
C915 C917 1.390 . S
C915 H919 0.950 . S
H916 C912 0.950 . S
C917 C915 1.390 . S
C917 C918 1.387 . S
C917 H920 0.950 . S
C918 C917 1.387 . S
C918 C921 1.387 . S
H919 C915 0.950 . S
H920 C917 0.950 . S
C921 C912 1.390 . S
C921 H914 0.950 . S
C921 C918 1.387 . S
C922 C923 1.387 . S
C922 H926 0.950 . S
C922 C931 1.390 . S
C923 C922 1.387 . S
C923 C925 1.387 . S
H924 C931 0.950 . S
C925 C923 1.387 . S
C925 C927 1.390 . S
C925 H929 0.950 . S
H926 C922 0.950 . S
C927 C925 1.390 . S
C927 C928 1.387 . S
C927 H930 0.950 . S
C928 C927 1.387 . S
C928 C931 1.387 . S
H929 C925 0.950 . S
H930 C927 0.950 . S
C931 C922 1.390 . S
C931 H924 0.950 . S
C931 C928 1.387 . S
C932 C933 1.387 . S
C932 H936 0.950 . S
C932 C941 1.390 . S
C933 C932 1.387 . S
C933 C935 1.387 . S
H934 C941 0.950 . S
C935 C933 1.387 . S
C935 C937 1.390 . S
C935 H939 0.950 . S
H936 C932 0.950 . S
C937 C935 1.390 . S
C937 C938 1.387 . S
C937 H940 0.950 . S
C938 C937 1.387 . S
C938 C941 1.387 . S
H939 C935 0.950 . S
H940 C937 0.950 . S
C941 C932 1.390 . S
C941 H934 0.950 . S
C941 C938 1.387 . S
C942 C943 1.387 . S
C942 H946 0.950 . S
C942 C951 1.390 . S
C943 C942 1.387 . S
C943 C945 1.387 . S
H944 C951 0.950 . S
C945 C943 1.387 . S
C945 C947 1.390 . S
C945 H949 0.950 . S
H946 C942 0.950 . S
C947 C945 1.390 . S
C947 C948 1.387 . S
C947 H950 0.950 . S
C948 C947 1.387 . S
C948 C951 1.387 . S
H949 C945 0.950 . S
H950 C947 0.950 . S
C951 C942 1.390 . S
C951 H944 0.950 . S
C951 C948 1.387 . S
C952 C953 1.387 . S
C952 H956 0.950 . S
C952 C961 1.390 . S
C953 C952 1.387 . S
C953 C955 1.387 . S
H954 C961 0.950 . S
C955 C953 1.387 . S
C955 C957 1.390 . S
C955 H959 0.950 . S
H956 C952 0.950 . S
C957 C955 1.390 . S
C957 C958 1.387 . S
C957 H960 0.950 . S
C958 C957 1.387 . S
C958 C961 1.387 . S
H959 C955 0.950 . S
H960 C957 0.950 . S
C961 C952 1.390 . S
C961 H954 0.950 . S
C961 C958 1.387 . S
C962 C963 1.387 . S
C962 H966 0.950 . S
C962 C971 1.390 . S
C963 C962 1.387 . S
C963 C965 1.387 . S
H964 C971 0.950 . S
C965 C963 1.387 . S
C965 C967 1.390 . S
C965 H969 0.950 . S
H966 C962 0.950 . S
C967 C965 1.390 . S
C967 C968 1.387 . S
C967 H970 0.950 . S
C968 C967 1.387 . S
C968 C971 1.387 . S
H969 C965 0.950 . S
H970 C967 0.950 . S
C971 C962 1.390 . S
C971 H964 0.950 . S
C971 C968 1.387 . S
C972 C973 1.387 . S
C972 H976 0.950 . S
C972 C981 1.390 . S
C973 C972 1.387 . S
C973 C975 1.387 . S
H974 C981 0.950 . S
C975 C973 1.387 . S
C975 C977 1.390 . S
C975 H979 0.950 . S
H976 C972 0.950 . S
C977 C975 1.390 . S
C977 C978 1.387 . S
C977 H980 0.950 . S
C978 C977 1.387 . S
C978 C981 1.387 . S
H979 C975 0.950 . S
H980 C977 0.950 . S
C981 C972 1.390 . S
C981 H974 0.950 . S
C981 C978 1.387 . S
C982 C983 1.387 . S
C982 H986 0.950 . S
C982 C991 1.390 . S
C983 C982 1.387 . S
C983 C985 1.387 . S
H984 C991 0.950 . S
C985 C983 1.387 . S
C985 C987 1.390 . S
C985 H989 0.950 . S
H986 C982 0.950 . S
C987 C985 1.390 . S
C987 C988 1.387 . S
C987 H990 0.950 . S
C988 C987 1.387 . S
C988 C991 1.387 . S
H989 C985 0.950 . S
H990 C987 0.950 . S
C991 C982 1.390 . S
C991 H984 0.950 . S
C991 C988 1.387 . S
C992 C993 1.387 . S
C992 H996 0.950 . S
C992 C1001 1.390 . S
C993 C992 1.387 . S
C993 C995 1.387 . S
H994 C1001 0.950 . S
C995 C993 1.387 . S
C995 C997 1.390 . S
C995 H999 0.950 . S
H996 C992 0.950 . S
C997 C995 1.390 . S
C997 C998 1.387 . S
C997 H1000 0.950 . S
C998 C997 1.387 . S
C998 C1001 1.387 . S
H999 C995 0.950 . S
H1000 C997 0.950 . S
C1001 C992 1.390 . S
C1001 H994 0.950 . S
C1001 C998 1.387 . S
C1002 C1003 1.387 . S
C1002 H1006 0.950 . S
C1002 C1011 1.390 1_455 S
C1003 C1002 1.387 . S
C1003 C1005 1.387 . S
H1004 C1011 0.950 . S
C1005 C1003 1.387 . S
C1005 C1007 1.390 1_455 S
C1005 H1009 0.950 . S
H1006 C1002 0.950 . S
C1007 C1005 1.390 1_655 S
C1007 C1008 1.387 . S
C1007 H1010 0.950 . S
C1008 C1007 1.387 . S
C1008 C1011 1.387 . S
H1009 C1005 0.950 . S
H1010 C1007 0.950 . S
C1011 C1002 1.390 1_655 S
C1011 H1004 0.950 . S
C1011 C1008 1.387 . S
C1012 C1013 1.387 . S
C1012 H1016 0.950 . S
C1012 C1021 1.390 . S
C1013 C1012 1.387 . S
C1013 C1015 1.387 . S
H1014 C1021 0.950 . S
C1015 C1013 1.387 . S
C1015 C1017 1.390 . S
C1015 H1019 0.950 . S
H1016 C1012 0.950 . S
C1017 C1015 1.390 . S
C1017 C1018 1.387 . S
C1017 H1020 0.950 . S
C1018 C1017 1.387 . S
C1018 C1021 1.387 . S
H1019 C1015 0.950 . S
H1020 C1017 0.950 . S
C1021 C1012 1.390 . S
C1021 H1014 0.950 . S
C1021 C1018 1.387 . S
C1022 C1023 1.387 . S
C1022 H1026 0.950 . S
C1022 C1031 1.390 1_565 S
C1023 C1022 1.387 . S
C1023 C1025 1.387 . S
H1024 C1031 0.950 . S
C1025 C1023 1.387 . S
C1025 C1027 1.390 1_565 S
C1025 H1029 0.950 . S
H1026 C1022 0.950 . S
C1027 C1025 1.390 1_545 S
C1027 C1028 1.387 . S
C1027 H1030 0.950 . S
C1028 C1027 1.387 . S
C1028 C1031 1.387 . S
H1029 C1025 0.950 . S
H1030 C1027 0.950 . S
C1031 C1022 1.390 1_545 S
C1031 H1024 0.950 . S
C1031 C1028 1.387 . S
C1032 C1033 1.387 . S
C1032 H1036 0.950 . S
C1032 C1041 1.390 1_565 S
C1033 C1032 1.387 . S
C1033 C1035 1.387 . S
H1034 C1041 0.950 . S
C1035 C1033 1.387 . S
C1035 C1037 1.390 1_565 S
C1035 H1039 0.950 . S
H1036 C1032 0.950 . S
C1037 C1035 1.390 1_545 S
C1037 C1038 1.387 . S
C1037 H1040 0.950 . S
C1038 C1037 1.387 . S
C1038 C1041 1.387 . S
H1039 C1035 0.950 . S
H1040 C1037 0.950 . S
C1041 C1032 1.390 1_545 S
C1041 H1034 0.950 . S
C1041 C1038 1.387 . S
C1042 C1043 1.387 . S
C1042 H1046 0.950 . S
C1042 C1051 1.390 1_455 S
C1043 C1042 1.387 . S
C1043 C1045 1.387 . S
H1044 C1051 0.950 . S
C1045 C1043 1.387 . S
C1045 C1047 1.390 1_455 S
C1045 H1049 0.950 . S
H1046 C1042 0.950 . S
C1047 C1045 1.390 1_655 S
C1047 C1048 1.387 . S
C1047 H1050 0.950 . S
C1048 C1047 1.387 . S
C1048 C1051 1.387 . S
H1049 C1045 0.950 . S
H1050 C1047 0.950 . S
C1051 C1042 1.390 1_655 S
C1051 H1044 0.950 . S
C1051 C1048 1.387 . S
C1052 C1053 1.387 . S
C1052 H1056 0.950 . S
C1052 C1061 1.390 . S
C1053 C1052 1.387 . S
C1053 C1055 1.387 . S
H1054 C1061 0.950 . S
C1055 C1053 1.387 . S
C1055 C1057 1.390 . S
C1055 H1059 0.950 . S
H1056 C1052 0.950 . S
C1057 C1055 1.390 . S
C1057 C1058 1.387 . S
C1057 H1060 0.950 . S
C1058 C1057 1.387 . S
C1058 C1061 1.387 . S
H1059 C1055 0.950 . S
H1060 C1057 0.950 . S
C1061 C1052 1.390 . S
C1061 H1054 0.950 . S
C1061 C1058 1.387 . S
C613 C111 0.753 . S
C618 C9 0.751 . S
C623 C43 0.675 . S
C628 C145 0.676 . S
C633 C77 0.675 . S
C638 C179 0.675 . S
C643 C190 2.450 . S
C648 C54 2.450 . S
C653 C122 2.363 . S
C658 C88 2.364 . S
C663 C156 2.364 . S
C668 C20 2.363 . S
C673 C315 0.684 . S
C678 C213 0.683 . S
C683 C349 0.692 . S
C688 C247 0.687 . S
C693 C281 0.703 . S
C698 C383 0.700 . S
C703 C394 2.301 . S
C708 C258 2.305 . S
C713 C326 2.286 . S
C718 C292 2.298 . S
C723 C224 2.393 . S
C728 C360 2.393 . S
C733 C519 0.687 . S
C738 C417 0.682 . S
C743 C451 0.699 . S
C748 C553 0.704 . S
C753 C485 0.693 . S
C758 C587 0.688 . S
C763 C462 2.300 . S
C768 C598 2.305 . S
C773 C530 2.393 . S
C778 C496 2.393 . S
C783 C564 2.298 . S
C788 C428 2.285 . S
C793 C611 1.746 . S
C798 C33 1.746 . S
C803 C543 1.746 . S
C808 C67 1.746 . S
C813 C101 1.693 . S
C818 C577 1.694 . S
C823 C135 1.746 . S
C828 C271 1.746 . S
C833 C305 1.694 . S
C838 C169 1.693 . S
C843 C237 1.745 . S
C848 C203 1.746 . S
C853 C339 1.686 . S
C858 C475 1.687 . S
C863 C509 1.801 . S
C868 C373 1.801 . S
C873 C441 1.686 . S
C878 C407 1.687 . S
C883 C2 2.042 . S
C888 C342 2.038 . S
C893 C376 2.170 . S
C898 C36 2.161 . S
C903 C308 2.181 . S
C908 C70 2.159 . S
C913 C104 2.042 . S
C918 C478 2.039 . S
C923 C410 2.181 . S
C928 C138 2.159 . S
C933 C172 2.158 . S
C938 C444 2.173 . S
C943 C481 0.287 . S
C948 C175 0.252 . S
C953 C107 0.365 . S
C958 C413 0.320 . S
C963 C447 0.379 . S
C968 C141 0.431 . S
C973 C39 0.258 . S
C978 C345 0.290 . S
C983 C73 0.426 . S
C988 C379 0.374 . S
C993 C311 0.318 . S
C998 C5 0.365 . S
C1003 C546 2.082 . S
C1008 C206 2.080 . S
C1013 C240 1.990 . S
C1018 C580 1.989 . S
C1023 C512 2.079 . S
C1028 C274 2.082 . S
C1033 C549 0.266 . S
C1038 C243 0.261 . S
C1043 C583 0.265 . S
C1048 C277 0.273 . S
C1053 C515 0.282 . S
C1058 C209 0.285 . S
