# Generated by pormake.
# Topology smt, (6)-cn, num edge types: 1
# Building blocks:
#     Node 0, Type 0, BuildingBlock: UKALOJ_clean_sbu_0, # of connection points: 6
#     Node 1, Type 0, BuildingBlock: UKALOJ_clean_sbu_0, # of connection points: 6
#     Node 2, Type 0, BuildingBlock: UKALOJ_clean_sbu_0, # of connection points: 6
#     Node 3, Type 0, BuildingBlock: UKALOJ_clean_sbu_0, # of connection points: 6
#     Node 4, Type 0, BuildingBlock: UKALOJ_clean_sbu_0, # of connection points: 6
#     Node 5, Type 0, BuildingBlock: UKALOJ_clean_sbu_0, # of connection points: 6
#     Edge 6, Type (0, 0), BuildingBlock: XUDNAN_clean_linker_2, # of connection points: 2
#     Edge 7, Type (0, 0), BuildingBlock: XUDNAN_clean_linker_2, # of connection points: 2
#     Edge 8, Type (0, 0), BuildingBlock: XUDNAN_clean_linker_2, # of connection points: 2
#     Edge 9, Type (0, 0), BuildingBlock: XUDNAN_clean_linker_2, # of connection points: 2
#     Edge 10, Type (0, 0), BuildingBlock: XUDNAN_clean_linker_2, # of connection points: 2
#     Edge 11, Type (0, 0), BuildingBlock: XUDNAN_clean_linker_2, # of connection points: 2
#     Edge 12, Type (0, 0), BuildingBlock: XUDNAN_clean_linker_2, # of connection points: 2
#     Edge 13, Type (0, 0), BuildingBlock: XUDNAN_clean_linker_2, # of connection points: 2
#     Edge 14, Type (0, 0), BuildingBlock: XUDNAN_clean_linker_2, # of connection points: 2
#     Edge 15, Type (0, 0), BuildingBlock: XUDNAN_clean_linker_2, # of connection points: 2
#     Edge 16, Type (0, 0), BuildingBlock: XUDNAN_clean_linker_2, # of connection points: 2
#     Edge 17, Type (0, 0), BuildingBlock: XUDNAN_clean_linker_2, # of connection points: 2
#     Edge 18, Type (0, 0), BuildingBlock: XUDNAN_clean_linker_2, # of connection points: 2
#     Edge 19, Type (0, 0), BuildingBlock: XUDNAN_clean_linker_2, # of connection points: 2
#     Edge 20, Type (0, 0), BuildingBlock: XUDNAN_clean_linker_2, # of connection points: 2
#     Edge 21, Type (0, 0), BuildingBlock: XUDNAN_clean_linker_2, # of connection points: 2
#     Edge 22, Type (0, 0), BuildingBlock: XUDNAN_clean_linker_2, # of connection points: 2
#     Edge 23, Type (0, 0), BuildingBlock: XUDNAN_clean_linker_2, # of connection points: 2
# Relax obj value: 0.353
# Max RMSD: 0.284
# Mean RMSD: 0.284
data_MOF--net-smt--node1-UKALOJ_clean_sbu_0--edge1-XUDNAN_clean_linker_2
_symmetry_space_group_name_H-M    P1
_symmetry_Int_Tables_number       1
_symmetry_cell_setting            triclinic
loop_
_symmetry_equiv_pos_as_xyz
'x, y, z'
_cell_length_a     37.959055
_cell_length_b     38.035716
_cell_length_c     25.281309
_cell_angle_alpha  90.098659
_cell_angle_beta   89.927831
_cell_angle_gamma 120.01023
loop_
_atom_site_label
_atom_site_type_symbol
_atom_site_fract_x
_atom_site_fract_y
_atom_site_fract_z
_atom_type_partial_charge
Zn0 Zn 0.49422 0.11598 0.00975 0.0
O1 O 0.47319 0.07766 0.07596 0.0
C2 C 0.40904 0.07716 0.974 0.0
Zn3 Zn 0.46466 0.15029 0.03806 0.0
C4 C 0.45481 0.08532 0.11234 0.0
O5 O 0.44746 0.1142 0.10658 0.0
C6 C 0.50737 0.18377 0.93787 0.0
O7 O 0.51935 0.19352 0.07664 0.0
O8 O 0.54556 0.15571 0.05301 0.0
N9 N 0.43334 0.17776 0.06417 0.0
C10 C 0.43827 0.21497 0.05591 0.0
C11 C 0.38161 0.17989 0.09561 0.0
N12 N 0.39821 0.15611 0.08904 0.0
N13 N 0.4059 0.21692 0.0747 0.0
C14 C 0.52621 0.07582 0.93278 0.0
C15 C 0.57116 0.07125 0.97801 0.0
N16 N 0.52474 0.0882 0.98224 0.0
N17 N 0.55259 0.08524 0.0104 0.0
N18 N 0.5551 0.06525 0.92918 0.0
H19 H 0.46811 0.04315 0.89578 0.0
H20 H 0.50881 0.06867 0.84963 0.0
H21 H 0.49167 0.09703 0.8884 0.0
C22 C 0.49752 0.07136 0.88897 0.0
C23 C 0.4757 0.2497 0.03214 0.0
H24 H 0.50262 0.24624 0.03909 0.0
H25 H 0.48139 0.27901 0.04909 0.0
H26 H 0.47146 0.25026 0.98886 0.0
O27 O 0.48274 0.18618 0.96958 0.0
O28 O 0.51719 0.1568 0.94524 0.0
C29 C 0.54869 0.18631 0.07735 0.0
O30 O 0.44102 0.07479 0.96823 0.0
O31 O 0.41076 0.10626 0.00074 0.0
Zn32 Zn 0.38411 0.50773 0.1848 0.0
O33 O 0.40252 0.47747 0.23895 0.0
C34 C 0.3397 0.42785 0.13337 0.0
Zn35 Zn 0.32135 0.47275 0.21468 0.0
C36 C 0.37843 0.45695 0.27621 0.0
O37 O 0.34278 0.45206 0.27781 0.0
C38 C 0.32783 0.5255 0.1252 0.0
O39 O 0.33114 0.52368 0.26117 0.0
O40 O 0.39627 0.5526 0.24153 0.0
N41 N 0.26267 0.4378 0.24143 0.0
C42 C 0.2293 0.44145 0.236 0.0
C43 C 0.21011 0.38357 0.27055 0.0
N44 N 0.25067 0.4019 0.2632 0.0
N45 N 0.19583 0.40759 0.25338 0.0
C46 C 0.46416 0.52993 0.12582 0.0
C47 C 0.49282 0.59433 0.12069 0.0
N48 N 0.4417 0.54133 0.15476 0.0
N49 N 0.45982 0.58143 0.15196 0.0
N50 N 0.49603 0.56251 0.10351 0.0
H51 H 0.43989 0.46915 0.1563 0.0
H52 H 0.48493 0.48701 0.11563 0.0
H53 H 0.43686 0.47264 0.08551 0.0
C54 C 0.45597 0.48717 0.12083 0.0
C55 C 0.22994 0.47897 0.21651 0.0
H56 H 0.25955 0.50635 0.2255 0.0
H57 H 0.2051 0.48207 0.23499 0.0
H58 H 0.22548 0.47694 0.17307 0.0
O59 O 0.30149 0.49499 0.1511 0.0
O60 O 0.3653 0.53799 0.13249 0.0
C61 C 0.36742 0.55304 0.26651 0.0
O62 O 0.3708 0.46268 0.12823 0.0
O63 O 0.31349 0.4223 0.16854 0.0
Zn64 Zn 0.87068 0.37576 0.34336 0.0
O65 O 0.91264 0.40184 0.40391 0.0
C66 C 0.9153 0.33545 0.30556 0.0
Zn67 Zn 0.84527 0.31412 0.37767 0.0
C68 C 0.91081 0.38046 0.44344 0.0
O69 O 0.88589 0.34239 0.44325 0.0
C70 C 0.80241 0.31307 0.2796 0.0
O71 O 0.79984 0.32206 0.41802 0.0
O72 O 0.83028 0.38475 0.38842 0.0
N73 N 0.82371 0.25829 0.41233 0.0
C74 C 0.80728 0.22047 0.39203 0.0
C75 C 0.80958 0.21528 0.4757 0.0
N76 N 0.82518 0.25493 0.46432 0.0
N77 N 0.79808 0.19301 0.43101 0.0
C78 C 0.92404 0.45538 0.28171 0.0
C79 C 0.88221 0.47653 0.26953 0.0
N80 N 0.88996 0.43056 0.30875 0.0
N81 N 0.86416 0.444 0.3016 0.0
N82 N 0.91972 0.4841 0.25622 0.0
H83 H 0.96538 0.44059 0.3207 0.0
H84 H 0.98922 0.48313 0.27553 0.0
H85 H 0.96091 0.43224 0.25024 0.0
C86 C 0.96217 0.45276 0.28229 0.0
C87 C 0.80263 0.21076 0.33413 0.0
H88 H 0.77311 0.20681 0.32041 0.0
H89 H 0.80289 0.18218 0.3263 0.0
H90 H 0.82746 0.23581 0.31139 0.0
O91 O 0.80361 0.2883 0.31234 0.0
O92 O 0.82778 0.35056 0.28413 0.0
C93 C 0.80264 0.35681 0.41605 0.0
O94 O 0.91106 0.36609 0.29865 0.0
O95 O 0.89201 0.30785 0.33778 0.0
Zn96 Zn 0.50807 0.88813 0.51185 0.0
O97 O 0.53625 0.93529 0.56827 0.0
C98 C 0.58909 0.91855 0.47258 0.0
Zn99 Zn 0.53287 0.85418 0.55281 0.0
C100 C 0.55219 0.92979 0.60936 0.0
O101 O 0.55342 0.8972 0.61443 0.0
C102 C 0.48696 0.81154 0.45654 0.0
O103 O 0.47838 0.81589 0.59828 0.0
O104 O 0.46003 0.85686 0.5631 0.0
N105 N 0.56403 0.82839 0.58439 0.0
C106 C 0.55844 0.79066 0.57954 0.0
C107 C 0.61729 0.82783 0.61292 0.0
N108 N 0.60048 0.85136 0.60553 0.0
N109 N 0.59169 0.78967 0.59639 0.0
C110 C 0.48715 0.94746 0.45328 0.0
C111 C 0.42237 0.91411 0.45632 0.0
N112 N 0.47643 0.91345 0.48109 0.0
N113 N 0.43615 0.89302 0.48341 0.0
N114 N 0.45381 0.9484 0.437 0.0
H115 H 0.54986 0.98276 0.47708 0.0
H116 H 0.53168 0.00983 0.43695 0.0
H117 H 0.54133 0.97254 0.40714 0.0
C118 C 0.53008 0.9802 0.44331 0.0
C119 C 0.51969 0.75449 0.56107 0.0
H120 H 0.51528 0.72647 0.58063 0.0
H121 H 0.52111 0.75076 0.5178 0.0
H122 H 0.49328 0.75851 0.56967 0.0
O123 O 0.5114 0.81143 0.49062 0.0
O124 O 0.47923 0.84036 0.45651 0.0
C125 C 0.45271 0.82801 0.59431 0.0
O126 O 0.55738 0.92011 0.46101 0.0
O127 O 0.58692 0.89403 0.50842 0.0
Zn128 Zn 0.60952 0.48962 0.67736 0.0
O129 O 0.59035 0.51141 0.7427 0.0
C130 C 0.65167 0.5735 0.63626 0.0
Zn131 Zn 0.67412 0.52377 0.7033 0.0
C132 C 0.61687 0.53165 0.77793 0.0
O133 O 0.6534 0.53981 0.7714 0.0
C134 C 0.66676 0.47925 0.60578 0.0
O135 O 0.66585 0.46991 0.74248 0.0
O136 O 0.60073 0.44084 0.72254 0.0
N137 N 0.73286 0.5582 0.72989 0.0
C138 C 0.7674 0.55628 0.72581 0.0
C139 C 0.78341 0.61397 0.75875 0.0
N140 N 0.74301 0.5939 0.7509 0.0
N141 N 0.79983 0.59138 0.74311 0.0
C142 C 0.53826 0.45503 0.59816 0.0
C143 C 0.48724 0.41232 0.64334 0.0
N144 N 0.55132 0.45679 0.64822 0.0
N145 N 0.51958 0.4302 0.67628 0.0
N146 N 0.49843 0.42736 0.59417 0.0
H147 H 0.56223 0.51125 0.55685 0.0
H148 H 0.55153 0.46941 0.51459 0.0
H149 H 0.59552 0.49049 0.5565 0.0
C150 C 0.5634 0.48275 0.55401 0.0
C151 C 0.7692 0.5206 0.70369 0.0
H152 H 0.77682 0.50578 0.73584 0.0
H153 H 0.7931 0.53075 0.67276 0.0
H154 H 0.73961 0.49724 0.68767 0.0
O155 O 0.69358 0.50707 0.63464 0.0
O156 O 0.62947 0.46657 0.61511 0.0
C157 C 0.62986 0.4395 0.74515 0.0
O158 O 0.61901 0.53972 0.63285 0.0
O159 O 0.68059 0.57657 0.66478 0.0
Zn160 Zn 0.1252 0.61751 0.84511 0.0
O161 O 0.08137 0.59145 0.90775 0.0
C162 C 0.07745 0.65316 0.79999 0.0
Zn163 Zn 0.14507 0.67918 0.87722 0.0
C164 C 0.0789 0.61535 0.94095 0.0
O165 O 0.10234 0.65328 0.93652 0.0
C166 C 0.19331 0.6847 0.78381 0.0
O167 O 0.1886 0.67331 0.9258 0.0
O168 O 0.16647 0.61223 0.89238 0.0
N169 N 0.16059 0.73516 0.90616 0.0
C170 C 0.19584 0.77079 0.90932 0.0
C171 C 0.14808 0.78185 0.93142 0.0
N172 N 0.13105 0.74216 0.92004 0.0
N173 N 0.18878 0.80097 0.92468 0.0
C174 C 0.06894 0.53236 0.8006 0.0
C175 C 0.1082 0.52473 0.74789 0.0
N176 N 0.1071 0.56214 0.8112 0.0
N177 N 0.13162 0.55682 0.77913 0.0
N178 N 0.06853 0.509 0.76001 0.0
H179 H 0.03515 0.5183 0.87263 0.0
H180 H 0.00372 0.49949 0.81478 0.0
H181 H 0.02935 0.55301 0.83118 0.0
C182 C 0.03197 0.52537 0.83096 0.0
C183 C 0.23665 0.77494 0.89898 0.0
H184 H 0.23538 0.74539 0.90298 0.0
H185 H 0.25966 0.79689 0.92697 0.0
H186 H 0.24617 0.78567 0.85785 0.0
O187 O 0.18737 0.70536 0.81824 0.0
O188 O 0.17159 0.64613 0.78429 0.0
C189 C 0.1898 0.6404 0.92372 0.0
O190 O 0.08194 0.62233 0.79786 0.0
O191 O 0.10095 0.68287 0.82928 0.0
H192 H 0.3934 0.01379 0.90732 0.0
H193 H 0.33457 0.0615 0.00856 0.0
H194 H 0.2701 0.99687 0.00103 0.0
H195 H 0.30081 0.95085 0.82118 0.0
H196 H 0.31349 0.91126 0.81478 0.0
H197 H 0.35333 0.96342 0.82151 0.0
H198 H 0.3816 0.94323 0.90188 0.0
H199 H 0.3413 0.89132 0.89646 0.0
H200 H 0.34889 0.9185 0.95773 0.0
H201 H 0.2169 0.92405 -0.00244 0.0
H202 H 0.17403 0.85024 0.98598 0.0
H203 H 0.26382 0.85139 0.87804 0.0
C204 C 0.36663 0.01111 0.92639 0.0
C205 C 0.36909 0.04266 0.95863 0.0
C206 C 0.33343 0.03789 0.98335 0.0
C207 C 0.29664 0.00119 0.97953 0.0
C208 C 0.29576 0.96996 0.94973 0.0
C209 C 0.32938 0.97488 0.92214 0.0
C210 C 0.32059 0.93575 0.89496 0.0
C211 C 0.32213 0.94061 0.83451 0.0
C212 C 0.34984 0.92138 0.91392 0.0
C213 C 0.27757 0.90764 0.91402 0.0
C214 C 0.26395 0.92803 0.94561 0.0
C215 C 0.22678 0.90792 0.97176 0.0
C216 C 0.20272 0.86589 0.96505 0.0
C217 C 0.21553 0.84413 0.93206 0.0
C218 C 0.25328 0.86585 0.90538 0.0
H219 H 0.31856 0.35502 0.17698 0.0
H220 H 0.36548 0.42548 0.03345 0.0
H221 H 0.38267 0.375 -0.00108 0.0
H222 H 0.39686 0.33635 0.19144 0.0
H223 H 0.36757 0.28582 0.21811 0.0
H224 H 0.35031 0.3217 0.22689 0.0
H225 H 0.28127 0.27204 0.18301 0.0
H226 H 0.29783 0.23541 0.17522 0.0
H227 H 0.28059 0.25134 0.11856 0.0
H228 H 0.40141 0.32098 0.9846 0.0
H229 H 0.41978 0.26744 0.991 0.0
H230 H 0.36658 0.23634 0.14776 0.0
C231 C 0.33048 0.35861 0.13716 0.0
C232 C 0.33963 0.39333 0.10706 0.0
C233 C 0.35738 0.39844 0.05638 0.0
C234 C 0.36738 0.37005 0.03664 0.0
C235 C 0.35974 0.33704 0.0684 0.0
C236 C 0.34147 0.33107 0.11749 0.0
C237 C 0.34141 0.29632 0.14672 0.0
C238 C 0.36547 0.31094 0.19884 0.0
C239 C 0.29767 0.26172 0.15643 0.0
C240 C 0.36311 0.28413 0.10685 0.0
C241 C 0.37297 0.3076 0.06169 0.0
C242 C 0.39396 0.30251 0.01987 0.0
C243 C 0.405 0.27253 0.02429 0.0
C244 C 0.39592 0.2487 0.07071 0.0
C245 C 0.37428 0.25443 0.11209 0.0
H246 H 0.96827 0.31684 0.3533 0.0
H247 H 0.94458 0.35988 0.20647 0.0
H248 H 0.01294 0.3779 0.17391 0.0
H249 H 0.06543 0.39575 0.368 0.0
H250 H 0.08712 0.36721 0.39582 0.0
H251 H 0.03374 0.3495 0.40388 0.0
H252 H 0.01553 0.28045 0.36136 0.0
H253 H 0.06897 0.29756 0.35417 0.0
H254 H 0.03595 0.27945 0.29731 0.0
H255 H 0.08599 0.39889 0.1617 0.0
H256 H 0.15857 0.41953 0.1694 0.0
H257 H 0.13695 0.36699 0.32629 0.0
C258 C 0.97686 0.32817 0.31333 0.0
C259 C 0.95097 0.33603 0.28169 0.0
C260 C 0.96382 0.35289 0.23067 0.0
C261 C 0.0026 0.36333 0.21198 0.0
C262 C 0.02821 0.35693 0.24499 0.0
C263 C 0.01584 0.33941 0.29443 0.0
C264 C 0.05084 0.34018 0.32432 0.0
C265 C 0.05979 0.36462 0.37604 0.0
C266 C 0.04231 0.29683 0.3349 0.0
C267 C 0.08496 0.36181 0.28458 0.0
C268 C 0.07111 0.37077 0.2389 0.0
C269 C 0.09719 0.39198 0.19726 0.0
C270 C 0.13852 0.40425 0.20235 0.0
C271 C 0.15355 0.39595 0.2491 0.0
C272 C 0.12621 0.37396 0.29035 0.0
H273 H 0.72763 0.14319 0.38047 0.0
H274 H 0.8216 0.14507 0.47899 0.0
H275 H 0.78264 0.07 0.4845 0.0
H276 H 0.64769 0.07184 0.45188 0.0
H277 H 0.61433 0.04702 0.39664 0.0
H278 H 0.65341 0.09929 0.3914 0.0
H279 H 0.68155 0.08191 0.30788 0.0
H280 H 0.6425 0.02934 0.31359 0.0
H281 H 0.69529 0.04294 0.31137 0.0
H282 H 0.72941 0.99696 0.49072 0.0
H283 H 0.6645 0.93327 0.50349 0.0
H284 H 0.60466 0.97805 0.39997 0.0
C285 C 0.74062 0.12748 0.40121 0.0
C286 C 0.77797 0.14948 0.42822 0.0
C287 C 0.79329 0.12839 0.45743 0.0
C288 C 0.7715 0.08588 0.46044 0.0
C289 C 0.73432 0.06493 0.43411 0.0
C290 C 0.71896 0.08505 0.405 0.0
C291 C 0.67584 0.05616 0.38691 0.0
C292 C 0.6461 0.06937 0.40801 0.0
C293 C 0.67369 0.05236 0.32633 0.0
C294 C 0.66865 0.01714 0.4126 0.0
C295 C 0.70307 0.02258 0.43852 0.0
C296 C 0.7025 0.99209 0.46971 0.0
C297 C 0.66542 0.95587 0.47663 0.0
C298 C 0.62928 0.95065 0.45298 0.0
C299 C 0.63161 0.98098 0.41852 0.0
H300 H 0.63205 0.7689 0.66606 0.0
H301 H 0.57733 0.74182 0.51017 0.0
H302 H 0.59503 0.68818 0.49885 0.0
H303 H 0.71697 0.75163 0.63157 0.0
H304 H 0.71585 0.7294 0.6949 0.0
H305 H 0.70099 0.76747 0.68969 0.0
H306 H 0.6313 0.71834 0.73267 0.0
H307 H 0.64621 0.68049 0.73864 0.0
H308 H 0.59997 0.66864 0.7043 0.0
H309 H 0.61206 0.63336 0.50811 0.0
H310 H 0.62642 0.58002 0.53838 0.0
H311 H 0.67519 0.64538 0.68518 0.0
C312 C 0.62407 0.7517 0.62954 0.0
C313 C 0.60202 0.75838 0.58981 0.0
C314 C 0.59244 0.73583 0.54215 0.0
C315 C 0.60314 0.70588 0.53492 0.0
C316 C 0.6243 0.69955 0.57522 0.0
C317 C 0.63489 0.72191 0.62152 0.0
C318 C 0.6558 0.70759 0.65967 0.0
C319 C 0.70004 0.74102 0.66952 0.0
C320 C 0.63188 0.69288 0.71188 0.0
C321 C 0.65398 0.67275 0.62831 0.0
C322 C 0.63606 0.66895 0.57943 0.0
C323 C 0.62704 0.63653 0.54566 0.0
C324 C 0.63531 0.60647 0.56304 0.0
C325 C 0.65274 0.60938 0.61336 0.0
C326 C 0.66335 0.64349 0.64566 0.0
H327 H 0.00443 0.58578 0.77966 0.0
H328 H 0.06816 0.71711 0.76902 0.0
H329 H 0.00405 0.71413 0.74196 0.0
H330 H 0.92818 0.56176 0.67383 0.0
H331 H 0.88816 0.52153 0.71184 0.0
H332 H 0.94003 0.53305 0.71994 0.0
H333 H 0.93597 0.54293 0.82034 0.0
H334 H 0.8841 0.53123 0.81326 0.0
H335 H 0.92098 0.57838 0.84356 0.0
H336 H 0.93219 0.69719 0.72511 0.0
H337 H 0.85794 0.66868 0.72421 0.0
H338 H 0.84084 0.54922 0.75727 0.0
C339 C 0.00528 0.61385 0.76997 0.0
C340 C 0.04142 0.65167 0.77551 0.0
C341 C 0.04089 0.68782 0.76427 0.0
C342 C 0.00466 0.68636 0.74883 0.0
C343 C 0.96922 0.64856 0.74559 0.0
C344 C 0.96924 0.61295 0.75612 0.0
C345 C 0.92639 0.57684 0.75724 0.0
C346 C 0.92034 0.54651 0.71305 0.0
C347 C 0.91628 0.55616 0.81184 0.0
C348 C 0.90209 0.59777 0.74667 0.0
C349 C 0.92744 0.63897 0.7389 0.0
C350 C 0.91211 0.66492 0.73063 0.0
C351 C 0.86984 0.64843 0.73057 0.0
C352 C 0.84307 0.6064 0.73956 0.0
C353 C 0.85974 0.5809 0.74778 0.0
H354 H 0.48806 0.04149 0.15041 0.0
H355 H 0.40286 0.08221 0.18973 0.0
H356 H 0.39387 0.05225 0.27892 0.0
H357 H 0.43816 0.94653 0.22233 0.0
H358 H 0.48558 0.95079 0.24299 0.0
H359 H 0.48294 0.97335 0.18167 0.0
H360 H 0.54206 0.04287 0.21338 0.0
H361 H 0.54433 0.02071 0.27526 0.0
H362 H 0.53714 0.06409 0.27488 0.0
H363 H 0.39507 0.01833 0.36427 0.0
H364 H 0.406 0.98211 0.43854 0.0
H365 H 0.49168 0.96642 0.34262 0.0
C366 C 0.46692 0.04346 0.17739 0.0
C367 C 0.44586 0.06379 0.16318 0.0
C368 C 0.41913 0.06653 0.19993 0.0
C369 C 0.41391 0.04974 0.25062 0.0
C370 C 0.43593 0.03072 0.2638 0.0
C371 C 0.46181 0.02743 0.22817 0.0
C372 C 0.48298 0.00672 0.25246 0.0
C373 C 0.47172 0.96699 0.22313 0.0
C374 C 0.52936 0.03531 0.25408 0.0
C375 C 0.46484 -0.00132 0.30728 0.0
C376 C 0.43773 0.01265 0.31321 0.0
C377 C 0.41648 0.00756 0.36024 0.0
C378 C 0.42288 0.98721 0.40209 0.0
C379 C 0.45058 0.97287 0.39652 0.0
C380 C 0.47169 0.9787 0.34855 0.0
H381 H 0.36656 0.4595 0.38174 0.0
H382 H 0.42311 0.41931 0.26591 0.0
H383 H 0.45026 0.39565 0.3381 0.0
H384 H 0.44945 0.50244 0.46597 0.0
H385 H 0.42046 0.4899 0.52645 0.0
H386 H 0.39909 0.49611 0.4662 0.0
H387 H 0.33662 0.424 0.47763 0.0
H388 H 0.35804 0.4175 0.53792 0.0
H389 H 0.34422 0.38112 0.485 0.0
H390 H 0.47618 0.38234 0.42195 0.0
H391 H 0.50661 0.38864 0.51055 0.0
H392 H 0.43754 0.44197 0.57174 0.0
C393 C 0.38372 0.44465 0.37179 0.0
C394 C 0.39234 0.44046 0.31863 0.0
C395 C 0.4161 0.42239 0.30663 0.0
C396 C 0.43128 0.40863 0.34728 0.0
C397 C 0.42278 0.4137 0.39954 0.0
C398 C 0.39995 0.43174 0.41191 0.0
C399 C 0.40016 0.43903 0.47089 0.0
C400 C 0.41839 0.48456 0.48306 0.0
C401 C 0.3572 0.4139 0.49423 0.0
C402 C 0.42769 0.42343 0.48967 0.0
C403 C 0.43942 0.40786 0.44804 0.0
C404 C 0.46681 0.39396 0.4549 0.0
C405 C 0.48381 0.39749 0.50512 0.0
C406 C 0.47399 0.4155 0.5473 0.0
C407 C 0.44468 0.4274 0.54002 0.0
H408 H 0.04901 0.44037 0.70438 0.0
H409 H 0.01951 0.53599 0.72441 0.0
H410 H 0.9725 0.50944 0.64933 0.0
H411 H 0.05149 0.44264 0.56653 0.0
H412 H 0.02848 0.3887 0.55607 0.0
H413 H 0.0561 0.41119 0.61615 0.0
H414 H 0.99302 0.36259 0.67185 0.0
H415 H 0.9653 0.33951 0.61189 0.0
H416 H 0.94503 0.36006 0.65952 0.0
H417 H 0.93673 0.47996 0.56717 0.0
H418 H 0.90775 0.4439 0.48356 0.0
H419 H 0.95626 0.36406 0.51463 0.0
C420 C 0.03147 0.45464 0.69381 0.0
C421 C 0.03667 0.48924 0.72151 0.0
C422 C 0.01459 0.50837 0.70544 0.0
C423 C 0.98811 0.49377 0.66244 0.0
C424 C 0.98395 0.45998 0.63568 0.0
C425 C 0.00446 0.44016 0.65083 0.0
C426 C 0.99592 0.40588 0.61262 0.0
C427 C 0.03535 0.41252 0.58629 0.0
C428 C 0.97347 0.36455 0.64065 0.0
C429 C 0.96849 0.41055 0.57303 0.0
C430 C 0.96226 0.44212 0.58741 0.0
C431 C 0.94074 0.45473 0.55581 0.0
C432 C 0.92477 0.43435 0.50824 0.0
C433 C 0.92995 0.40143 0.49298 0.0
C434 C 0.95171 0.38899 0.52592 0.0
H435 H 0.55042 0.91441 0.71446 0.0
H436 H 0.58345 0.01165 0.60152 0.0
H437 H 0.60009 0.06033 0.6752 0.0
H438 H 0.49739 0.94275 0.79614 0.0
H439 H 0.51125 0.92861 0.85736 0.0
H440 H 0.51083 0.9035 0.79693 0.0
H441 H 0.58604 0.92321 0.81217 0.0
H442 H 0.58668 0.94845 0.87291 0.0
H443 H 0.62391 0.97575 0.82223 0.0
H444 H 0.60464 0.09612 0.75926 0.0
H445 H 0.59068 0.11525 0.84722 0.0
H446 H 0.55098 0.99428 0.90535 0.0
C447 C 0.56252 0.94624 0.70539 0.0
C448 C 0.56637 0.95962 0.6526 0.0
C449 C 0.58069 0.00107 0.64189 0.0
C450 C 0.59047 0.02888 0.68342 0.0
C451 C 0.58543 0.01457 0.73522 0.0
C452 C 0.57156 0.97415 0.74636 0.0
C453 C 0.56283 0.96533 0.80479 0.0
C454 C 0.51792 0.93317 0.81432 0.0
C455 C 0.59159 0.95243 0.82947 0.0
C456 C 0.57232 0.00673 0.82451 0.0
C457 C 0.58643 0.03495 0.78396 0.0
C458 C 0.59428 0.07451 0.79146 0.0
C459 C 0.5863 0.08512 0.84122 0.0
C460 C 0.56997 0.05608 0.88223 0.0
C461 C 0.56411 0.0169 0.87444 0.0
H462 H 0.47094 0.51751 0.01411 0.0
H463 H 0.57718 0.61159 0.0943 0.0
H464 H 0.62015 0.61559 0.01773 0.0
H465 H 0.51947 0.46599 0.95481 0.0
H466 H 0.49047 0.45458 0.8945 0.0
H467 H 0.46899 0.45933 0.95581 0.0
H468 H 0.45646 0.51409 0.91337 0.0
H469 H 0.47835 0.50989 0.8521 0.0
H470 H 0.49848 0.55855 0.8842 0.0
H471 H 0.65093 0.608 0.93323 0.0
H472 H 0.66807 0.59003 0.84694 0.0
H473 H 0.54075 0.50122 0.82155 0.0
C474 C 0.5034 0.53816 0.01608 0.0
C475 C 0.52122 0.56344 0.06053 0.0
C476 C 0.5634 0.59164 0.06071 0.0
C477 C 0.58782 0.59409 0.01752 0.0
C478 C 0.56929 0.56843 0.97438 0.0
C479 C 0.52802 0.54103 0.97334 0.0
C480 C 0.51542 0.51725 0.92204 0.0
C481 C 0.49754 0.47159 0.93242 0.0
C482 C 0.48541 0.52546 0.89111 0.0
C483 C 0.55614 0.53536 0.89433 0.0
C484 C 0.5868 0.56481 0.92521 0.0
C485 C 0.62718 0.58513 0.90865 0.0
C486 C 0.63657 0.57468 0.85958 0.0
C487 C 0.6057 0.54436 0.82746 0.0
C488 C 0.56491 0.52486 0.84492 0.0
H489 H 0.04271 0.53945 0.98616 0.0
H490 H 0.05251 0.65792 -0.00147 0.0
H491 H 0.01232 0.63681 0.08063 0.0
H492 H 0.93872 0.4808 0.03926 0.0
H493 H 0.94963 0.44614 0.07439 0.0
H494 H 0.97652 0.4696 0.01417 0.0
H495 H 0.04501 0.49696 0.06397 0.0
H496 H 0.01829 0.47425 0.12453 0.0
H497 H 0.05447 0.52788 0.12218 0.0
H498 H 0.97433 0.60469 0.16344 0.0
H499 H 0.93788 0.56133 0.24053 0.0
H500 H 0.95268 0.46433 0.17447 0.0
C501 C 0.03565 0.56057 0.00564 0.0
C502 C 0.05066 0.60024 0.98609 0.0
C503 C 0.04138 0.62736 0.01301 0.0
C504 C 0.01859 0.61571 0.05965 0.0
C505 C 0.0053 0.57687 0.07887 0.0
C506 C 0.0131 0.54952 0.05261 0.0
C507 C 0.99638 0.51012 0.08295 0.0
C508 C 0.96334 0.47457 0.05078 0.0
C509 C 0.03058 0.50184 0.09937 0.0
C510 C 0.97849 0.51992 0.13045 0.0
C511 C 0.98388 0.55852 0.12727 0.0
C512 C 0.96992 0.57437 0.16651 0.0
C513 C 0.9495 0.54979 0.21005 0.0
C514 C 0.94373 0.51021 0.21401 0.0
C515 C 0.95822 0.49511 0.17352 0.0
H516 H 0.48463 0.23601 0.89811 0.0
H517 H 0.58062 0.20576 0.89127 0.0
H518 H 0.62362 0.2686 0.84072 0.0
H519 H 0.50232 0.28218 0.76593 0.0
H520 H 0.49057 0.32019 0.78823 0.0
H521 H 0.46668 0.27101 0.81926 0.0
H522 H 0.4928 0.30576 0.91029 0.0
H523 H 0.51778 0.35502 0.87962 0.0
H524 H 0.54657 0.33935 0.92002 0.0
H525 H 0.65897 0.33928 0.79964 0.0
H526 H 0.67928 0.40655 0.75996 0.0
H527 H 0.5591 0.3881 0.79351 0.0
C528 C 0.51438 0.24219 0.88511 0.0
C529 C 0.52936 0.21619 0.8987 0.0
C530 C 0.56841 0.22518 0.88085 0.0
C531 C 0.59319 0.26095 0.85253 0.0
C532 C 0.57816 0.28695 0.8419 0.0
C533 C 0.53928 0.27747 0.85667 0.0
C534 C 0.53044 0.31066 0.84162 0.0
C535 C 0.49544 0.29507 0.80135 0.0
C536 C 0.52138 0.32875 0.89082 0.0
C537 C 0.5706 0.3406 0.81678 0.0
C538 C 0.59798 0.32673 0.81751 0.0
C539 C 0.63759 0.35023 0.79823 0.0
C540 C 0.64901 0.38843 0.77628 0.0
C541 C 0.62064 0.40216 0.77352 0.0
C542 C 0.58127 0.37808 0.79466 0.0
H543 H 0.1723 0.56922 0.9687 0.0
H544 H 0.26784 0.69496 0.95505 0.0
H545 H 0.31476 0.67891 0.00417 0.0
H546 H 0.19854 0.55387 0.1024 0.0
H547 H 0.18496 0.50203 0.08906 0.0
H548 H 0.15941 0.52438 0.05474 0.0
H549 H 0.1793 0.50596 0.96503 0.0
H550 H 0.20543 0.48413 -0.00099 0.0
H551 H 0.23213 0.52369 0.95088 0.0
H552 H 0.35203 0.64696 0.04833 0.0
H553 H 0.37459 0.60458 0.0948 0.0
H554 H 0.25279 0.50056 0.08204 0.0
C555 C 0.20304 0.59348 0.97651 0.0
C556 C 0.21681 0.63324 0.95801 0.0
C557 C 0.25691 0.66437 0.96926 0.0
C558 C 0.28367 0.65543 -0.00326 0.0
C559 C 0.26934 0.61549 0.01326 0.0
C560 C 0.22966 0.58526 0.0045 0.0
C561 C 0.22137 0.54492 0.0267 0.0
C562 C 0.18917 0.53046 0.07085 0.0
C563 C 0.20883 0.5128 0.98277 0.0
C564 C 0.26287 0.55684 0.04853 0.0
C565 C 0.29024 0.59756 0.0401 0.0
C566 C 0.33076 0.61517 0.05559 0.0
C567 C 0.34333 0.59075 0.08152 0.0
C568 C 0.31535 0.54931 0.09213 0.0
C569 C 0.27476 0.53219 0.07483 0.0
H570 H 0.59326 0.16218 0.13438 0.0
H571 H 0.58866 0.26897 0.08508 0.0
H572 H 0.65564 0.31282 0.12743 0.0
H573 H 0.63772 0.202 0.26305 0.0
H574 H 0.66787 0.17747 0.26289 0.0
H575 H 0.62029 0.15497 0.22766 0.0
H576 H 0.65748 0.1544 0.14194 0.0
H577 H 0.70528 0.17744 0.17675 0.0
H578 H 0.69981 0.20115 0.11809 0.0
H579 H 0.72395 0.34421 0.16966 0.0
H580 H 0.78484 0.36286 0.22269 0.0
H581 H 0.74288 0.23526 0.25152 0.0
C582 C 0.60642 0.19484 0.13274 0.0
C583 C 0.58635 0.21253 0.10631 0.0
C584 C 0.6038 0.25515 0.10538 0.0
C585 C 0.64181 0.28012 0.12889 0.0
C586 C 0.66121 0.26173 0.15384 0.0
C587 C 0.64374 0.22008 0.15705 0.0
C588 C 0.67002 0.20805 0.18857 0.0
C589 C 0.64764 0.18423 0.23851 0.0
C590 C 0.68397 0.18383 0.15427 0.0
C591 C 0.7053 0.24956 0.20229 0.0
C592 C 0.69979 0.27995 0.18098 0.0
C593 C 0.72844 0.32075 0.18701 0.0
C594 C 0.76311 0.33093 0.21704 0.0
C595 C 0.76863 0.30047 0.24159 0.0
C596 C 0.73954 0.25918 0.23336 0.0
H597 H 0.50986 0.7576 0.42272 0.0
H598 H 0.41158 0.78447 0.41444 0.0
H599 H 0.3688 0.71943 0.36798 0.0
H600 H 0.49231 0.71035 0.2929 0.0
H601 H 0.5056 0.67332 0.31445 0.0
H602 H 0.52826 0.72232 0.34597 0.0
H603 H 0.50291 0.68721 0.43694 0.0
H604 H 0.47955 0.63808 0.40564 0.0
H605 H 0.44946 0.65198 0.44647 0.0
H606 H 0.33514 0.64906 0.32833 0.0
H607 H 0.31681 0.58337 0.28578 0.0
H608 H 0.43833 0.60459 0.31657 0.0
C609 C 0.47946 0.74992 0.4107 0.0
C610 C 0.4639 0.77586 0.42224 0.0
C611 C 0.42415 0.76508 0.40551 0.0
C612 C 0.39952 0.72808 0.37958 0.0
C613 C 0.41537 0.7026 0.37015 0.0
C614 C 0.45473 0.71345 0.38419 0.0
C615 C 0.46483 0.68112 0.36845 0.0
C616 C 0.49981 0.69778 0.32803 0.0
C617 C 0.47476 0.66357 0.41729 0.0
C618 C 0.42492 0.65028 0.34358 0.0
C619 C 0.39656 0.6629 0.34563 0.0
C620 C 0.35719 0.63898 0.32608 0.0
C621 C 0.34694 0.60165 0.30242 0.0
C622 C 0.37621 0.58915 0.29789 0.0
C623 C 0.41545 0.61358 0.31937 0.0
H624 H 0.82236 0.42692 0.46625 0.0
H625 H 0.72043 0.30774 0.43042 0.0
H626 H 0.67327 0.32796 0.47018 0.0
H627 H 0.78402 0.43743 0.59353 0.0
H628 H 0.80475 0.49131 0.5856 0.0
H629 H 0.82935 0.46661 0.55461 0.0
H630 H 0.82399 0.49538 0.46391 0.0
H631 H 0.79855 0.5194 0.4945 0.0
H632 H 0.77486 0.48472 0.44011 0.0
H633 H 0.63764 0.36341 0.50925 0.0
H634 H 0.61678 0.40641 0.55775 0.0
H635 H 0.74335 0.50108 0.57109 0.0
C636 C 0.79009 0.40499 0.46719 0.0
C637 C 0.7747 0.36591 0.44524 0.0
C638 C 0.73255 0.33774 0.44747 0.0
C639 C 0.70567 0.34911 0.46946 0.0
C640 C 0.7218 0.38842 0.48957 0.0
C641 C 0.76315 0.41555 0.48972 0.0
C642 C 0.77312 0.45538 0.51548 0.0
C643 C 0.79934 0.46312 0.56526 0.0
C644 C 0.79385 0.4908 0.47613 0.0
C645 C 0.73082 0.44671 0.52942 0.0
C646 C 0.70158 0.40817 0.51358 0.0
C647 C 0.66029 0.39352 0.52211 0.0
C648 C 0.64875 0.41834 0.54931 0.0
C649 C 0.67848 0.45712 0.56822 0.0
C650 C 0.71992 0.47168 0.55699 0.0
H651 H 0.40572 0.75041 0.63824 0.0
H652 H 0.41319 0.86761 0.61962 0.0
H653 H 0.34572 0.84055 0.65864 0.0
H654 H 0.2987 0.68892 0.60962 0.0
H655 H 0.28824 0.65112 0.6595 0.0
H656 H 0.33816 0.67869 0.63022 0.0
H657 H 0.3706 0.70216 0.72294 0.0
H658 H 0.32087 0.674 0.75251 0.0
H659 H 0.3525 0.72741 0.76631 0.0
H660 H 0.27833 0.80301 0.695 0.0
H661 H 0.21523 0.75758 0.74229 0.0
H662 H 0.24766 0.66307 0.74266 0.0
C663 C 0.39322 0.77031 0.64318 0.0
C664 C 0.41458 0.81099 0.62514 0.0
C665 C 0.39725 0.83618 0.63225 0.0
C666 C 0.35881 0.82113 0.65429 0.0
C667 C 0.33784 0.78077 0.66966 0.0
C668 C 0.35436 0.75569 0.6657 0.0
C669 C 0.32477 0.71374 0.68745 0.0
C670 C 0.3117 0.68119 0.6441 0.0
C671 C 0.34329 0.70375 0.73515 0.0
C672 C 0.28949 0.71966 0.70406 0.0
C673 C 0.29792 0.75858 0.69249 0.0
C674 C 0.2712 0.77241 0.70444 0.0
C675 C 0.23537 0.74631 0.73108 0.0
C676 C 0.22655 0.70686 0.74574 0.0
C677 C 0.25339 0.69284 0.73088 0.0
loop_
_geom_bond_atom_site_label_1
_geom_bond_atom_site_label_2
_geom_bond_distance
_geom_bond_site_symmetry_2
_ccdc_geom_bond_type
Zn0 O1 2.055 1_556 S
Zn0 O8 2.046 1_556 S
Zn0 N16 2.036 . S
Zn0 O28 2.053 . S
Zn0 O30 2.066 . S
O1 Zn0 2.055 1_554 S
O1 C4 1.259 . S
C2 O30 1.256 . S
C2 O31 1.244 1_556 S
Zn3 O5 2.046 . S
Zn3 O7 2.055 . S
Zn3 N9 2.036 . S
Zn3 O27 2.066 1_554 S
Zn3 O31 2.053 . S
C4 O1 1.259 . S
C4 O5 1.254 . S
O5 Zn3 2.046 . S
O5 C4 1.254 . S
C6 O27 1.256 . S
C6 O28 1.244 . S
O7 Zn3 2.055 . S
O7 C29 1.259 . S
O8 Zn0 2.046 1_554 S
O8 C29 1.254 . S
N9 Zn3 2.036 . S
N9 C10 1.298 . S
N9 N12 1.398 . S
C10 N9 1.298 . S
C10 N13 1.367 . S
C10 C23 1.481 . S
C11 N12 1.299 . S
C11 N13 1.379 . S
N12 N9 1.398 . S
N12 C11 1.299 . S
N13 C10 1.367 . S
N13 C11 1.379 . S
C14 N16 1.298 . S
C14 N18 1.367 . S
C14 C22 1.481 . S
C15 N17 1.299 . S
C15 N18 1.379 . S
N16 Zn0 2.036 . S
N16 C14 1.298 . S
N16 N17 1.398 . S
N17 C15 1.299 . S
N17 N16 1.398 . S
N18 C14 1.367 . S
N18 C15 1.379 . S
H19 C22 0.980 1_554 S
H20 C22 0.981 . S
H21 C22 0.981 . S
C22 C14 1.481 . S
C22 H19 0.980 1_556 S
C22 H20 0.981 . S
C22 H21 0.981 . S
C23 C10 1.481 . S
C23 H24 0.980 . S
C23 H25 0.981 . S
C23 H26 0.981 . S
H24 C23 0.980 . S
H25 C23 0.981 . S
H26 C23 0.981 . S
O27 Zn3 2.066 1_556 S
O27 C6 1.256 . S
O28 Zn0 2.053 . S
O28 C6 1.244 . S
C29 O7 1.259 . S
C29 O8 1.254 . S
O30 Zn0 2.066 . S
O30 C2 1.256 . S
O31 C2 1.244 1_554 S
O31 Zn3 2.053 . S
Zn32 O33 2.055 . S
Zn32 O40 2.046 . S
Zn32 N48 2.036 . S
Zn32 O60 2.053 . S
Zn32 O62 2.066 . S
O33 Zn32 2.055 . S
O33 C36 1.259 . S
C34 O62 1.256 . S
C34 O63 1.244 . S
Zn35 O37 2.046 . S
Zn35 O39 2.055 . S
Zn35 N41 2.036 . S
Zn35 O59 2.066 . S
Zn35 O63 2.053 . S
C36 O33 1.259 . S
C36 O37 1.254 . S
O37 Zn35 2.046 . S
O37 C36 1.254 . S
C38 O59 1.256 . S
C38 O60 1.244 . S
O39 Zn35 2.055 . S
O39 C61 1.259 . S
O40 Zn32 2.046 . S
O40 C61 1.254 . S
N41 Zn35 2.036 . S
N41 C42 1.298 . S
N41 N44 1.398 . S
C42 N41 1.298 . S
C42 N45 1.367 . S
C42 C55 1.481 . S
C43 N44 1.299 . S
C43 N45 1.379 . S
N44 N41 1.398 . S
N44 C43 1.299 . S
N45 C42 1.367 . S
N45 C43 1.379 . S
C46 N48 1.298 . S
C46 N50 1.367 . S
C46 C54 1.481 . S
C47 N49 1.299 . S
C47 N50 1.379 . S
N48 Zn32 2.036 . S
N48 C46 1.298 . S
N48 N49 1.398 . S
N49 C47 1.299 . S
N49 N48 1.398 . S
N50 C46 1.367 . S
N50 C47 1.379 . S
H51 C54 0.980 . S
H52 C54 0.981 . S
H53 C54 0.981 . S
C54 C46 1.481 . S
C54 H51 0.980 . S
C54 H52 0.981 . S
C54 H53 0.981 . S
C55 C42 1.481 . S
C55 H56 0.980 . S
C55 H57 0.981 . S
C55 H58 0.981 . S
H56 C55 0.980 . S
H57 C55 0.981 . S
H58 C55 0.981 . S
O59 Zn35 2.066 . S
O59 C38 1.256 . S
O60 Zn32 2.053 . S
O60 C38 1.244 . S
C61 O39 1.259 . S
C61 O40 1.254 . S
O62 Zn32 2.066 . S
O62 C34 1.256 . S
O63 C34 1.244 . S
O63 Zn35 2.053 . S
Zn64 O65 2.055 . S
Zn64 O72 2.046 . S
Zn64 N80 2.036 . S
Zn64 O92 2.053 . S
Zn64 O94 2.066 . S
O65 Zn64 2.055 . S
O65 C68 1.259 . S
C66 O94 1.256 . S
C66 O95 1.244 . S
Zn67 O69 2.046 . S
Zn67 O71 2.055 . S
Zn67 N73 2.036 . S
Zn67 O91 2.066 . S
Zn67 O95 2.053 . S
C68 O65 1.259 . S
C68 O69 1.254 . S
O69 Zn67 2.046 . S
O69 C68 1.254 . S
C70 O91 1.256 . S
C70 O92 1.244 . S
O71 Zn67 2.055 . S
O71 C93 1.259 . S
O72 Zn64 2.046 . S
O72 C93 1.254 . S
N73 Zn67 2.036 . S
N73 C74 1.298 . S
N73 N76 1.398 . S
C74 N73 1.298 . S
C74 N77 1.367 . S
C74 C87 1.481 . S
C75 N76 1.299 . S
C75 N77 1.379 . S
N76 N73 1.398 . S
N76 C75 1.299 . S
N77 C74 1.367 . S
N77 C75 1.379 . S
C78 N80 1.298 . S
C78 N82 1.367 . S
C78 C86 1.481 . S
C79 N81 1.299 . S
C79 N82 1.379 . S
N80 Zn64 2.036 . S
N80 C78 1.298 . S
N80 N81 1.398 . S
N81 C79 1.299 . S
N81 N80 1.398 . S
N82 C78 1.367 . S
N82 C79 1.379 . S
H83 C86 0.980 . S
H84 C86 0.981 . S
H85 C86 0.981 . S
C86 C78 1.481 . S
C86 H83 0.980 . S
C86 H84 0.981 . S
C86 H85 0.981 . S
C87 C74 1.481 . S
C87 H88 0.980 . S
C87 H89 0.981 . S
C87 H90 0.981 . S
H88 C87 0.980 . S
H89 C87 0.981 . S
H90 C87 0.981 . S
O91 Zn67 2.066 . S
O91 C70 1.256 . S
O92 Zn64 2.053 . S
O92 C70 1.244 . S
C93 O71 1.259 . S
C93 O72 1.254 . S
O94 Zn64 2.066 . S
O94 C66 1.256 . S
O95 C66 1.244 . S
O95 Zn67 2.053 . S
Zn96 O97 2.055 . S
Zn96 O104 2.046 . S
Zn96 N112 2.036 . S
Zn96 O124 2.053 . S
Zn96 O126 2.066 . S
O97 Zn96 2.055 . S
O97 C100 1.259 . S
C98 O126 1.256 . S
C98 O127 1.244 . S
Zn99 O101 2.046 . S
Zn99 O103 2.055 . S
Zn99 N105 2.036 . S
Zn99 O123 2.066 . S
Zn99 O127 2.053 . S
C100 O97 1.259 . S
C100 O101 1.254 . S
O101 Zn99 2.046 . S
O101 C100 1.254 . S
C102 O123 1.256 . S
C102 O124 1.244 . S
O103 Zn99 2.055 . S
O103 C125 1.259 . S
O104 Zn96 2.046 . S
O104 C125 1.254 . S
N105 Zn99 2.036 . S
N105 C106 1.298 . S
N105 N108 1.398 . S
C106 N105 1.298 . S
C106 N109 1.367 . S
C106 C119 1.481 . S
C107 N108 1.299 . S
C107 N109 1.379 . S
N108 N105 1.398 . S
N108 C107 1.299 . S
N109 C106 1.367 . S
N109 C107 1.379 . S
C110 N112 1.298 . S
C110 N114 1.367 . S
C110 C118 1.481 . S
C111 N113 1.299 . S
C111 N114 1.379 . S
N112 Zn96 2.036 . S
N112 C110 1.298 . S
N112 N113 1.398 . S
N113 C111 1.299 . S
N113 N112 1.398 . S
N114 C110 1.367 . S
N114 C111 1.379 . S
H115 C118 0.980 . S
H116 C118 0.981 . S
H117 C118 0.981 . S
C118 C110 1.481 . S
C118 H115 0.980 . S
C118 H116 0.981 . S
C118 H117 0.981 . S
C119 C106 1.481 . S
C119 H120 0.980 . S
C119 H121 0.981 . S
C119 H122 0.981 . S
H120 C119 0.980 . S
H121 C119 0.981 . S
H122 C119 0.981 . S
O123 Zn99 2.066 . S
O123 C102 1.256 . S
O124 Zn96 2.053 . S
O124 C102 1.244 . S
C125 O103 1.259 . S
C125 O104 1.254 . S
O126 Zn96 2.066 . S
O126 C98 1.256 . S
O127 C98 1.244 . S
O127 Zn99 2.053 . S
Zn128 O129 2.055 . S
Zn128 O136 2.046 . S
Zn128 N144 2.036 . S
Zn128 O156 2.053 . S
Zn128 O158 2.066 . S
O129 Zn128 2.055 . S
O129 C132 1.259 . S
C130 O158 1.256 . S
C130 O159 1.244 . S
Zn131 O133 2.046 . S
Zn131 O135 2.055 . S
Zn131 N137 2.036 . S
Zn131 O155 2.066 . S
Zn131 O159 2.053 . S
C132 O129 1.259 . S
C132 O133 1.254 . S
O133 Zn131 2.046 . S
O133 C132 1.254 . S
C134 O155 1.256 . S
C134 O156 1.244 . S
O135 Zn131 2.055 . S
O135 C157 1.259 . S
O136 Zn128 2.046 . S
O136 C157 1.254 . S
N137 Zn131 2.036 . S
N137 C138 1.298 . S
N137 N140 1.398 . S
C138 N137 1.298 . S
C138 N141 1.367 . S
C138 C151 1.481 . S
C139 N140 1.299 . S
C139 N141 1.379 . S
N140 N137 1.398 . S
N140 C139 1.299 . S
N141 C138 1.367 . S
N141 C139 1.379 . S
C142 N144 1.298 . S
C142 N146 1.367 . S
C142 C150 1.481 . S
C143 N145 1.299 . S
C143 N146 1.379 . S
N144 Zn128 2.036 . S
N144 C142 1.298 . S
N144 N145 1.398 . S
N145 C143 1.299 . S
N145 N144 1.398 . S
N146 C142 1.367 . S
N146 C143 1.379 . S
H147 C150 0.980 . S
H148 C150 0.981 . S
H149 C150 0.981 . S
C150 C142 1.481 . S
C150 H147 0.980 . S
C150 H148 0.981 . S
C150 H149 0.981 . S
C151 C138 1.481 . S
C151 H152 0.980 . S
C151 H153 0.981 . S
C151 H154 0.981 . S
H152 C151 0.980 . S
H153 C151 0.981 . S
H154 C151 0.981 . S
O155 Zn131 2.066 . S
O155 C134 1.256 . S
O156 Zn128 2.053 . S
O156 C134 1.244 . S
C157 O135 1.259 . S
C157 O136 1.254 . S
O158 Zn128 2.066 . S
O158 C130 1.256 . S
O159 C130 1.244 . S
O159 Zn131 2.053 . S
Zn160 O161 2.055 . S
Zn160 O168 2.046 . S
Zn160 N176 2.036 . S
Zn160 O188 2.053 . S
Zn160 O190 2.066 . S
O161 Zn160 2.055 . S
O161 C164 1.259 . S
C162 O190 1.256 . S
C162 O191 1.244 . S
Zn163 O165 2.046 . S
Zn163 O167 2.055 . S
Zn163 N169 2.036 . S
Zn163 O187 2.066 . S
Zn163 O191 2.053 . S
C164 O161 1.259 . S
C164 O165 1.254 . S
O165 Zn163 2.046 . S
O165 C164 1.254 . S
C166 O187 1.256 . S
C166 O188 1.244 . S
O167 Zn163 2.055 . S
O167 C189 1.259 . S
O168 Zn160 2.046 . S
O168 C189 1.254 . S
N169 Zn163 2.036 . S
N169 C170 1.298 . S
N169 N172 1.398 . S
C170 N169 1.298 . S
C170 N173 1.367 . S
C170 C183 1.481 . S
C171 N172 1.299 . S
C171 N173 1.379 . S
N172 N169 1.398 . S
N172 C171 1.299 . S
N173 C170 1.367 . S
N173 C171 1.379 . S
C174 N176 1.298 . S
C174 N178 1.367 . S
C174 C182 1.481 . S
C175 N177 1.299 . S
C175 N178 1.379 . S
N176 Zn160 2.036 . S
N176 C174 1.298 . S
N176 N177 1.398 . S
N177 C175 1.299 . S
N177 N176 1.398 . S
N178 C174 1.367 . S
N178 C175 1.379 . S
H179 C182 0.980 . S
H180 C182 0.981 . S
H181 C182 0.981 . S
C182 C174 1.481 . S
C182 H179 0.980 . S
C182 H180 0.981 . S
C182 H181 0.981 . S
C183 C170 1.481 . S
C183 H184 0.980 . S
C183 H185 0.981 . S
C183 H186 0.981 . S
H184 C183 0.980 . S
H185 C183 0.981 . S
H186 C183 0.981 . S
O187 Zn163 2.066 . S
O187 C166 1.256 . S
O188 Zn160 2.053 . S
O188 C166 1.244 . S
C189 O167 1.259 . S
C189 O168 1.254 . S
O190 Zn160 2.066 . S
O190 C162 1.256 . S
O191 C162 1.244 . S
O191 Zn163 2.053 . S
H192 C204 0.930 . S
H193 C206 0.930 . S
H194 C207 0.930 . S
H195 C211 0.959 . S
H196 C211 0.959 . S
H197 C211 0.961 . S
H198 C212 0.960 . S
H199 C212 0.961 . S
H200 C212 0.959 . S
H201 C215 0.929 . S
H202 C216 0.931 . S
H203 C218 0.930 . S
C204 H192 0.930 . S
C204 C205 1.399 . S
C204 C209 1.399 1_545 S
C205 C204 1.399 . S
C205 C206 1.376 1_556 S
C206 H193 0.930 . S
C206 C205 1.376 1_554 S
C206 C207 1.388 1_545 S
C207 H194 0.930 . S
C207 C206 1.388 1_565 S
C207 C208 1.382 1_554 S
C208 C207 1.382 1_556 S
C208 C209 1.403 . S
C208 C214 1.465 . S
C209 C204 1.399 1_565 S
C209 C208 1.403 . S
C209 C210 1.516 . S
C210 C209 1.516 . S
C210 C211 1.502 . S
C210 C212 1.561 . S
C210 C213 1.526 . S
C211 H195 0.959 . S
C211 H196 0.959 . S
C211 H197 0.961 . S
C211 C210 1.502 . S
C212 H198 0.960 . S
C212 H199 0.961 . S
C212 H200 0.959 . S
C212 C210 1.561 . S
C213 C210 1.526 . S
C213 C214 1.396 . S
C213 C218 1.390 . S
C214 C208 1.465 . S
C214 C213 1.396 . S
C214 C215 1.399 1_556 S
C215 H201 0.929 . S
C215 C214 1.399 1_554 S
C215 C216 1.385 . S
C216 H202 0.931 . S
C216 C215 1.385 . S
C216 C217 1.389 1_554 S
C217 C216 1.389 1_556 S
C217 C218 1.387 . S
C218 H203 0.930 . S
C218 C213 1.390 . S
C218 C217 1.387 . S
H219 C231 0.930 . S
H220 C233 0.930 . S
H221 C234 0.930 . S
H222 C238 0.959 . S
H223 C238 0.959 . S
H224 C238 0.961 . S
H225 C239 0.960 . S
H226 C239 0.961 . S
H227 C239 0.959 . S
H228 C242 0.929 . S
H229 C243 0.931 . S
H230 C245 0.930 . S
C231 H219 0.930 . S
C231 C232 1.399 . S
C231 C236 1.399 . S
C232 C231 1.399 . S
C232 C233 1.376 . S
C233 H220 0.930 . S
C233 C232 1.376 . S
C233 C234 1.388 . S
C234 H221 0.930 . S
C234 C233 1.388 . S
C234 C235 1.390 . S
C235 C234 1.390 . S
C235 C236 1.394 . S
C235 C241 1.465 . S
C236 C231 1.399 . S
C236 C235 1.394 . S
C236 C237 1.516 . S
C237 C236 1.516 . S
C237 C238 1.502 . S
C237 C239 1.561 . S
C237 C240 1.526 . S
C238 H222 0.959 . S
C238 H223 0.959 . S
C238 H224 0.961 . S
C238 C237 1.502 . S
C239 H225 0.960 . S
C239 H226 0.961 . S
C239 H227 0.959 . S
C239 C237 1.561 . S
C240 C237 1.526 . S
C240 C241 1.396 . S
C240 C245 1.390 . S
C241 C235 1.465 . S
C241 C240 1.396 . S
C241 C242 1.399 . S
C242 H228 0.929 . S
C242 C241 1.399 . S
C242 C243 1.385 . S
C243 H229 0.931 . S
C243 C242 1.385 . S
C243 C244 1.389 . S
C244 C243 1.389 . S
C244 C245 1.387 . S
C245 H230 0.930 . S
C245 C240 1.390 . S
C245 C244 1.387 . S
H246 C258 0.930 . S
H247 C260 0.930 . S
H248 C261 0.930 . S
H249 C265 0.959 . S
H250 C265 0.959 . S
H251 C265 0.961 . S
H252 C266 0.960 . S
H253 C266 0.961 . S
H254 C266 0.959 . S
H255 C269 0.929 . S
H256 C270 0.931 . S
H257 C272 0.930 . S
C258 H246 0.930 . S
C258 C259 1.399 . S
C258 C263 1.399 1_655 S
C259 C258 1.399 . S
C259 C260 1.376 . S
C260 H247 0.930 . S
C260 C259 1.376 . S
C260 C261 1.388 1_655 S
C261 H248 0.930 . S
C261 C260 1.388 1_455 S
C261 C262 1.390 . S
C262 C261 1.390 . S
C262 C263 1.394 . S
C262 C268 1.465 . S
C263 C258 1.399 1_455 S
C263 C262 1.394 . S
C263 C264 1.516 . S
C264 C263 1.516 . S
C264 C265 1.502 . S
C264 C266 1.561 . S
C264 C267 1.526 . S
C265 H249 0.959 . S
C265 H250 0.959 . S
C265 H251 0.961 . S
C265 C264 1.502 . S
C266 H252 0.960 . S
C266 H253 0.961 . S
C266 H254 0.959 . S
C266 C264 1.561 . S
C267 C264 1.526 . S
C267 C268 1.396 . S
C267 C272 1.390 . S
C268 C262 1.465 . S
C268 C267 1.396 . S
C268 C269 1.399 . S
C269 H255 0.929 . S
C269 C268 1.399 . S
C269 C270 1.385 . S
C270 H256 0.931 . S
C270 C269 1.385 . S
C270 C271 1.389 . S
C271 C270 1.389 . S
C271 C272 1.387 . S
C272 H257 0.930 . S
C272 C267 1.390 . S
C272 C271 1.387 . S
H273 C285 0.930 . S
H274 C287 0.930 . S
H275 C288 0.930 . S
H276 C292 0.959 . S
H277 C292 0.959 . S
H278 C292 0.961 . S
H279 C293 0.960 . S
H280 C293 0.961 . S
H281 C293 0.959 . S
H282 C296 0.937 1_545 S
H283 C297 0.931 . S
H284 C299 0.930 . S
C285 H273 0.930 . S
C285 C286 1.399 . S
C285 C290 1.399 . S
C286 C285 1.399 . S
C286 C287 1.376 . S
C287 H274 0.930 . S
C287 C286 1.376 . S
C287 C288 1.388 . S
C288 H275 0.930 . S
C288 C287 1.388 . S
C288 C289 1.390 . S
C289 C288 1.390 . S
C289 C290 1.394 . S
C289 C295 1.465 . S
C290 C285 1.399 . S
C290 C289 1.394 . S
C290 C291 1.516 . S
C291 C290 1.516 . S
C291 C292 1.502 . S
C291 C293 1.561 . S
C291 C294 1.526 . S
C292 H276 0.959 . S
C292 H277 0.959 . S
C292 H278 0.961 . S
C292 C291 1.502 . S
C293 H279 0.960 . S
C293 H280 0.961 . S
C293 H281 0.959 . S
C293 C291 1.561 . S
C294 C291 1.526 . S
C294 C295 1.396 . S
C294 C299 1.390 1_545 S
C295 C289 1.465 . S
C295 C294 1.396 . S
C295 C296 1.399 1_545 S
C296 H282 0.937 1_565 S
C296 C295 1.399 1_565 S
C296 C297 1.385 . S
C297 H283 0.931 . S
C297 C296 1.385 . S
C297 C298 1.389 . S
C298 C297 1.389 . S
C298 C299 1.387 . S
C299 H284 0.930 . S
C299 C294 1.390 1_565 S
C299 C298 1.387 . S
H300 C312 0.930 . S
H301 C314 0.930 . S
H302 C315 0.930 . S
H303 C319 0.959 . S
H304 C319 0.959 . S
H305 C319 0.961 . S
H306 C320 0.960 . S
H307 C320 0.961 . S
H308 C320 0.959 . S
H309 C323 0.929 . S
H310 C324 0.931 . S
H311 C326 0.930 . S
C312 H300 0.930 . S
C312 C313 1.399 . S
C312 C317 1.399 . S
C313 C312 1.399 . S
C313 C314 1.376 . S
C314 H301 0.930 . S
C314 C313 1.376 . S
C314 C315 1.388 . S
C315 H302 0.930 . S
C315 C314 1.388 . S
C315 C316 1.390 . S
C316 C315 1.390 . S
C316 C317 1.394 . S
C316 C322 1.465 . S
C317 C312 1.399 . S
C317 C316 1.394 . S
C317 C318 1.516 . S
C318 C317 1.516 . S
C318 C319 1.502 . S
C318 C320 1.561 . S
C318 C321 1.526 . S
C319 H303 0.959 . S
C319 H304 0.959 . S
C319 H305 0.961 . S
C319 C318 1.502 . S
C320 H306 0.960 . S
C320 H307 0.961 . S
C320 H308 0.959 . S
C320 C318 1.561 . S
C321 C318 1.526 . S
C321 C322 1.396 . S
C321 C326 1.390 . S
C322 C316 1.465 . S
C322 C321 1.396 . S
C322 C323 1.399 . S
C323 H309 0.929 . S
C323 C322 1.399 . S
C323 C324 1.385 . S
C324 H310 0.931 . S
C324 C323 1.385 . S
C324 C325 1.389 . S
C325 C324 1.389 . S
C325 C326 1.387 . S
C326 H311 0.930 . S
C326 C321 1.390 . S
C326 C325 1.387 . S
H327 C339 0.930 . S
H328 C341 0.930 . S
H329 C342 0.930 . S
H330 C346 0.959 . S
H331 C346 0.959 . S
H332 C346 0.961 . S
H333 C347 0.960 . S
H334 C347 0.961 . S
H335 C347 0.959 . S
H336 C350 0.929 . S
H337 C351 0.931 . S
H338 C353 0.930 . S
C339 H327 0.930 . S
C339 C340 1.399 . S
C339 C344 1.399 1_455 S
C340 C339 1.399 . S
C340 C341 1.376 . S
C341 H328 0.930 . S
C341 C340 1.376 . S
C341 C342 1.388 1_455 S
C342 H329 0.930 . S
C342 C341 1.388 1_655 S
C342 C343 1.390 . S
C343 C342 1.390 . S
C343 C344 1.394 . S
C343 C349 1.465 . S
C344 C339 1.399 1_655 S
C344 C343 1.394 . S
C344 C345 1.516 . S
C345 C344 1.516 . S
C345 C346 1.502 . S
C345 C347 1.561 . S
C345 C348 1.526 . S
C346 H330 0.959 . S
C346 H331 0.959 . S
C346 H332 0.961 . S
C346 C345 1.502 . S
C347 H333 0.960 . S
C347 H334 0.961 . S
C347 H335 0.959 . S
C347 C345 1.561 . S
C348 C345 1.526 . S
C348 C349 1.396 . S
C348 C353 1.390 . S
C349 C343 1.465 . S
C349 C348 1.396 . S
C349 C350 1.399 . S
C350 H336 0.929 . S
C350 C349 1.399 . S
C350 C351 1.385 . S
C351 H337 0.931 . S
C351 C350 1.385 . S
C351 C352 1.389 . S
C352 C351 1.389 . S
C352 C353 1.387 . S
C353 H338 0.930 . S
C353 C348 1.390 . S
C353 C352 1.387 . S
H354 C366 0.930 . S
H355 C368 0.930 . S
H356 C369 0.930 . S
H357 C373 0.959 . S
H358 C373 0.959 . S
H359 C373 0.961 . S
H360 C374 0.960 . S
H361 C374 0.961 . S
H362 C374 0.959 . S
H363 C377 0.929 . S
H364 C378 0.931 . S
H365 C380 0.935 . S
C366 H354 0.930 . S
C366 C367 1.399 . S
C366 C371 1.399 . S
C367 C366 1.399 . S
C367 C368 1.376 . S
C368 H355 0.930 . S
C368 C367 1.376 . S
C368 C369 1.388 1_545 S
C369 H356 0.930 . S
C369 C368 1.388 1_565 S
C369 C370 1.390 1_565 S
C370 C369 1.390 1_545 S
C370 C371 1.394 . S
C370 C376 1.465 1_545 S
C371 C366 1.399 . S
C371 C370 1.394 . S
C371 C372 1.516 . S
C372 C371 1.516 . S
C372 C373 1.502 . S
C372 C374 1.561 . S
C372 C375 1.526 . S
C373 H357 0.959 . S
C373 H358 0.959 . S
C373 H359 0.961 . S
C373 C372 1.502 . S
C374 H360 0.960 . S
C374 H361 0.961 . S
C374 H362 0.959 . S
C374 C372 1.561 . S
C375 C372 1.526 . S
C375 C376 1.396 1_545 S
C375 C380 1.397 . S
C376 C370 1.465 1_565 S
C376 C375 1.396 1_565 S
C376 C377 1.399 . S
C377 H363 0.929 . S
C377 C376 1.399 . S
C377 C378 1.385 . S
C378 H364 0.931 . S
C378 C377 1.385 . S
C378 C379 1.389 . S
C379 C378 1.389 . S
C379 C380 1.374 1_565 S
C380 H365 0.935 . S
C380 C375 1.397 . S
C380 C379 1.374 1_545 S
H381 C393 0.930 . S
H382 C395 0.930 . S
H383 C396 0.930 . S
H384 C400 0.959 . S
H385 C400 0.959 . S
H386 C400 0.961 . S
H387 C401 0.960 . S
H388 C401 0.961 . S
H389 C401 0.959 . S
H390 C404 0.929 . S
H391 C405 0.931 . S
H392 C407 0.930 . S
C393 H381 0.930 . S
C393 C394 1.399 . S
C393 C398 1.399 . S
C394 C393 1.399 . S
C394 C395 1.376 . S
C395 H382 0.930 . S
C395 C394 1.376 . S
C395 C396 1.388 . S
C396 H383 0.930 . S
C396 C395 1.388 . S
C396 C397 1.390 . S
C397 C396 1.390 . S
C397 C398 1.394 . S
C397 C403 1.465 . S
C398 C393 1.399 . S
C398 C397 1.394 . S
C398 C399 1.516 . S
C399 C398 1.516 . S
C399 C400 1.502 . S
C399 C401 1.561 . S
C399 C402 1.526 . S
C400 H384 0.959 . S
C400 H385 0.959 . S
C400 H386 0.961 . S
C400 C399 1.502 . S
C401 H387 0.960 . S
C401 H388 0.961 . S
C401 H389 0.959 . S
C401 C399 1.561 . S
C402 C399 1.526 . S
C402 C403 1.396 . S
C402 C407 1.390 . S
C403 C397 1.465 . S
C403 C402 1.396 . S
C403 C404 1.399 . S
C404 H390 0.929 . S
C404 C403 1.399 . S
C404 C405 1.385 . S
C405 H391 0.931 . S
C405 C404 1.385 . S
C405 C406 1.389 . S
C406 C405 1.389 . S
C406 C407 1.387 . S
C407 H392 0.930 . S
C407 C402 1.390 . S
C407 C406 1.387 . S
H408 C420 0.930 . S
H409 C422 0.930 . S
H410 C423 0.930 . S
H411 C427 0.959 . S
H412 C427 0.959 . S
H413 C427 0.961 . S
H414 C428 0.960 . S
H415 C428 0.961 . S
H416 C428 0.959 1_655 S
H417 C431 0.929 . S
H418 C432 0.931 . S
H419 C434 0.930 . S
C420 H408 0.930 . S
C420 C421 1.399 . S
C420 C425 1.399 . S
C421 C420 1.399 . S
C421 C422 1.376 1_455 S
C422 H409 0.930 . S
C422 C421 1.376 1_655 S
C422 C423 1.388 . S
C423 H410 0.930 . S
C423 C422 1.388 . S
C423 C424 1.390 . S
C424 C423 1.390 . S
C424 C425 1.394 1_655 S
C424 C430 1.465 . S
C425 C420 1.399 . S
C425 C424 1.394 1_455 S
C425 C426 1.516 . S
C426 C425 1.516 . S
C426 C427 1.502 . S
C426 C428 1.561 . S
C426 C429 1.526 1_455 S
C427 H411 0.959 . S
C427 H412 0.959 . S
C427 H413 0.961 . S
C427 C426 1.502 . S
C428 H414 0.960 . S
C428 H415 0.961 . S
C428 H416 0.959 1_455 S
C428 C426 1.561 . S
C429 C426 1.526 1_655 S
C429 C430 1.396 . S
C429 C434 1.390 . S
C430 C424 1.465 . S
C430 C429 1.396 . S
C430 C431 1.399 . S
C431 H417 0.929 . S
C431 C430 1.399 . S
C431 C432 1.385 . S
C432 H418 0.931 . S
C432 C431 1.385 . S
C432 C433 1.389 . S
C433 C432 1.389 . S
C433 C434 1.387 . S
C434 H419 0.930 . S
C434 C429 1.390 . S
C434 C433 1.387 . S
H435 C447 0.930 . S
H436 C449 0.930 . S
H437 C450 0.930 . S
H438 C454 0.959 . S
H439 C454 0.959 . S
H440 C454 0.961 . S
H441 C455 0.960 . S
H442 C455 0.961 . S
H443 C455 0.959 . S
H444 C458 0.929 . S
H445 C459 0.931 . S
H446 C461 0.930 . S
C447 H435 0.930 . S
C447 C448 1.399 . S
C447 C452 1.399 . S
C448 C447 1.399 . S
C448 C449 1.376 . S
C449 H436 0.930 . S
C449 C448 1.376 . S
C449 C450 1.388 1_565 S
C450 H437 0.930 . S
C450 C449 1.388 1_545 S
C450 C451 1.390 1_545 S
C451 C450 1.390 1_565 S
C451 C452 1.394 . S
C451 C457 1.465 1_565 S
C452 C447 1.399 . S
C452 C451 1.394 . S
C452 C453 1.516 . S
C453 C452 1.516 . S
C453 C454 1.502 . S
C453 C455 1.561 . S
C453 C456 1.526 . S
C454 H438 0.959 . S
C454 H439 0.959 . S
C454 H440 0.961 . S
C454 C453 1.502 . S
C455 H441 0.960 . S
C455 H442 0.961 . S
C455 H443 0.959 . S
C455 C453 1.561 . S
C456 C453 1.526 . S
C456 C457 1.396 1_565 S
C456 C461 1.390 . S
C457 C451 1.465 1_545 S
C457 C456 1.396 1_545 S
C457 C458 1.399 . S
C458 H444 0.929 . S
C458 C457 1.399 . S
C458 C459 1.385 . S
C459 H445 0.931 . S
C459 C458 1.385 . S
C459 C460 1.389 . S
C460 C459 1.389 . S
C460 C461 1.387 1_545 S
C461 H446 0.930 . S
C461 C456 1.390 . S
C461 C460 1.387 1_565 S
H462 C474 0.930 . S
H463 C476 0.930 . S
H464 C477 0.930 . S
H465 C481 0.959 . S
H466 C481 0.959 . S
H467 C481 0.961 . S
H468 C482 0.960 . S
H469 C482 0.961 . S
H470 C482 0.959 . S
H471 C485 0.929 . S
H472 C486 0.931 . S
H473 C488 0.930 . S
C474 H462 0.930 . S
C474 C475 1.399 . S
C474 C479 1.399 1_554 S
C475 C474 1.399 . S
C475 C476 1.376 . S
C476 H463 0.930 . S
C476 C475 1.376 . S
C476 C477 1.389 1_554 S
C477 H464 0.930 . S
C477 C476 1.389 1_556 S
C477 C478 1.390 . S
C478 C477 1.390 . S
C478 C479 1.394 . S
C478 C484 1.465 . S
C479 C474 1.399 1_556 S
C479 C478 1.394 . S
C479 C480 1.516 . S
C480 C479 1.516 . S
C480 C481 1.502 . S
C480 C482 1.561 . S
C480 C483 1.526 . S
C481 H465 0.959 . S
C481 H466 0.959 . S
C481 H467 0.961 . S
C481 C480 1.502 . S
C482 H468 0.960 . S
C482 H469 0.961 . S
C482 H470 0.959 . S
C482 C480 1.561 . S
C483 C480 1.526 . S
C483 C484 1.396 . S
C483 C488 1.390 . S
C484 C478 1.465 . S
C484 C483 1.396 . S
C484 C485 1.399 . S
C485 H471 0.929 . S
C485 C484 1.399 . S
C485 C486 1.385 . S
C486 H472 0.931 . S
C486 C485 1.385 . S
C486 C487 1.389 . S
C487 C486 1.389 . S
C487 C488 1.387 . S
C488 H473 0.930 . S
C488 C483 1.390 . S
C488 C487 1.387 . S
H489 C501 0.930 . S
H490 C503 0.930 1_556 S
H491 C504 0.930 . S
H492 C508 0.959 . S
H493 C508 0.959 . S
H494 C508 0.961 1_556 S
H495 C509 0.960 . S
H496 C509 0.961 . S
H497 C509 0.959 . S
H498 C512 0.929 . S
H499 C513 0.931 . S
H500 C515 0.930 . S
C501 H489 0.930 . S
C501 C502 1.399 . S
C501 C506 1.399 1_556 S
C502 C501 1.399 . S
C502 C503 1.376 1_556 S
C503 H490 0.930 1_554 S
C503 C502 1.376 1_554 S
C503 C504 1.388 . S
C504 H491 0.930 . S
C504 C503 1.388 . S
C504 C505 1.390 . S
C505 C504 1.390 . S
C505 C506 1.394 . S
C505 C511 1.465 . S
C506 C501 1.399 1_554 S
C506 C505 1.394 . S
C506 C507 1.516 1_455 S
C507 C506 1.516 1_655 S
C507 C508 1.502 . S
C507 C509 1.561 1_655 S
C507 C510 1.526 . S
C508 H492 0.959 . S
C508 H493 0.959 . S
C508 H494 0.961 1_554 S
C508 C507 1.502 . S
C509 H495 0.960 . S
C509 H496 0.961 . S
C509 H497 0.959 . S
C509 C507 1.561 1_455 S
C510 C507 1.526 . S
C510 C511 1.396 1_655 S
C510 C515 1.390 . S
C511 C505 1.465 . S
C511 C510 1.396 1_455 S
C511 C512 1.399 . S
C512 H498 0.929 . S
C512 C511 1.399 . S
C512 C513 1.385 1_455 S
C513 H499 0.931 . S
C513 C512 1.385 1_655 S
C513 C514 1.389 . S
C514 C513 1.389 . S
C514 C515 1.387 . S
C515 H500 0.930 . S
C515 C510 1.390 . S
C515 C514 1.387 . S
H516 C528 0.930 . S
H517 C530 0.930 . S
H518 C531 0.930 . S
H519 C535 0.959 . S
H520 C535 0.959 . S
H521 C535 0.961 . S
H522 C536 0.960 . S
H523 C536 0.961 . S
H524 C536 0.959 . S
H525 C539 0.929 . S
H526 C540 0.931 . S
H527 C542 0.930 . S
C528 H516 0.930 . S
C528 C529 1.399 . S
C528 C533 1.399 . S
C529 C528 1.399 . S
C529 C530 1.376 . S
C530 H517 0.930 . S
C530 C529 1.376 . S
C530 C531 1.388 . S
C531 H518 0.930 . S
C531 C530 1.388 . S
C531 C532 1.390 . S
C532 C531 1.390 . S
C532 C533 1.394 . S
C532 C538 1.465 . S
C533 C528 1.399 . S
C533 C532 1.394 . S
C533 C534 1.516 . S
C534 C533 1.516 . S
C534 C535 1.502 . S
C534 C536 1.561 . S
C534 C537 1.526 . S
C535 H519 0.959 . S
C535 H520 0.959 . S
C535 H521 0.961 . S
C535 C534 1.502 . S
C536 H522 0.960 . S
C536 H523 0.961 . S
C536 H524 0.959 . S
C536 C534 1.561 . S
C537 C534 1.526 . S
C537 C538 1.396 . S
C537 C542 1.390 . S
C538 C532 1.465 . S
C538 C537 1.396 . S
C538 C539 1.399 . S
C539 H525 0.929 . S
C539 C538 1.399 . S
C539 C540 1.385 . S
C540 H526 0.931 . S
C540 C539 1.385 . S
C540 C541 1.389 . S
C541 C540 1.389 . S
C541 C542 1.387 . S
C542 H527 0.930 . S
C542 C537 1.390 . S
C542 C541 1.387 . S
H543 C555 0.930 . S
H544 C557 0.930 . S
H545 C558 0.917 1_554 S
H546 C562 0.959 . S
H547 C562 0.959 . S
H548 C562 0.961 . S
H549 C563 0.960 . S
H550 C563 0.961 . S
H551 C563 0.959 . S
H552 C566 0.929 . S
H553 C567 0.931 . S
H554 C569 0.930 . S
C555 H543 0.930 . S
C555 C556 1.399 . S
C555 C560 1.399 . S
C556 C555 1.399 . S
C556 C557 1.376 . S
C557 H544 0.930 . S
C557 C556 1.376 . S
C557 C558 1.401 . S
C558 H545 0.917 1_556 S
C558 C557 1.401 . S
C558 C559 1.391 . S
C559 C558 1.391 . S
C559 C560 1.394 . S
C559 C565 1.465 1_556 S
C560 C555 1.399 . S
C560 C559 1.394 . S
C560 C561 1.516 . S
C561 C560 1.516 . S
C561 C562 1.502 . S
C561 C563 1.561 . S
C561 C564 1.526 1_556 S
C562 H546 0.959 . S
C562 H547 0.959 . S
C562 H548 0.961 . S
C562 C561 1.502 . S
C563 H549 0.960 . S
C563 H550 0.961 . S
C563 H551 0.959 . S
C563 C561 1.561 . S
C564 C561 1.526 1_554 S
C564 C565 1.396 . S
C564 C569 1.390 . S
C565 C559 1.465 1_554 S
C565 C564 1.396 . S
C565 C566 1.399 . S
C566 H552 0.929 . S
C566 C565 1.399 . S
C566 C567 1.385 . S
C567 H553 0.931 . S
C567 C566 1.385 . S
C567 C568 1.389 . S
C568 C567 1.389 . S
C568 C569 1.387 . S
C569 H554 0.930 . S
C569 C564 1.390 . S
C569 C568 1.387 . S
H570 C582 0.930 . S
H571 C584 0.930 . S
H572 C585 0.930 . S
H573 C589 0.959 . S
H574 C589 0.959 . S
H575 C589 0.961 . S
H576 C590 0.960 . S
H577 C590 0.961 . S
H578 C590 0.959 . S
H579 C593 0.929 . S
H580 C594 0.931 . S
H581 C596 0.930 . S
C582 H570 0.930 . S
C582 C583 1.399 . S
C582 C587 1.399 . S
C583 C582 1.399 . S
C583 C584 1.376 . S
C584 H571 0.930 . S
C584 C583 1.376 . S
C584 C585 1.388 . S
C585 H572 0.930 . S
C585 C584 1.388 . S
C585 C586 1.390 . S
C586 C585 1.390 . S
C586 C587 1.394 . S
C586 C592 1.465 . S
C587 C582 1.399 . S
C587 C586 1.394 . S
C587 C588 1.516 . S
C588 C587 1.516 . S
C588 C589 1.502 . S
C588 C590 1.561 . S
C588 C591 1.526 . S
C589 H573 0.959 . S
C589 H574 0.959 . S
C589 H575 0.961 . S
C589 C588 1.502 . S
C590 H576 0.960 . S
C590 H577 0.961 . S
C590 H578 0.959 . S
C590 C588 1.561 . S
C591 C588 1.526 . S
C591 C592 1.396 . S
C591 C596 1.390 . S
C592 C586 1.465 . S
C592 C591 1.396 . S
C592 C593 1.399 . S
C593 H579 0.929 . S
C593 C592 1.399 . S
C593 C594 1.385 . S
C594 H580 0.931 . S
C594 C593 1.385 . S
C594 C595 1.389 . S
C595 C594 1.389 . S
C595 C596 1.387 . S
C596 H581 0.930 . S
C596 C591 1.390 . S
C596 C595 1.387 . S
H597 C609 0.930 . S
H598 C611 0.930 . S
H599 C612 0.930 . S
H600 C616 0.959 . S
H601 C616 0.959 . S
H602 C616 0.961 . S
H603 C617 0.960 . S
H604 C617 0.961 . S
H605 C617 0.959 . S
H606 C620 0.929 . S
H607 C621 0.931 . S
H608 C623 0.930 . S
C609 H597 0.930 . S
C609 C610 1.399 . S
C609 C614 1.399 . S
C610 C609 1.399 . S
C610 C611 1.376 . S
C611 H598 0.930 . S
C611 C610 1.376 . S
C611 C612 1.388 . S
C612 H599 0.930 . S
C612 C611 1.388 . S
C612 C613 1.390 . S
C613 C612 1.390 . S
C613 C614 1.394 . S
C613 C619 1.465 . S
C614 C609 1.399 . S
C614 C613 1.394 . S
C614 C615 1.516 . S
C615 C614 1.516 . S
C615 C616 1.502 . S
C615 C617 1.561 . S
C615 C618 1.526 . S
C616 H600 0.959 . S
C616 H601 0.959 . S
C616 H602 0.961 . S
C616 C615 1.502 . S
C617 H603 0.960 . S
C617 H604 0.961 . S
C617 H605 0.959 . S
C617 C615 1.561 . S
C618 C615 1.526 . S
C618 C619 1.396 . S
C618 C623 1.390 . S
C619 C613 1.465 . S
C619 C618 1.396 . S
C619 C620 1.399 . S
C620 H606 0.929 . S
C620 C619 1.399 . S
C620 C621 1.385 . S
C621 H607 0.931 . S
C621 C620 1.385 . S
C621 C622 1.389 . S
C622 C621 1.389 . S
C622 C623 1.387 . S
C623 H608 0.930 . S
C623 C618 1.390 . S
C623 C622 1.387 . S
H624 C636 0.930 . S
H625 C638 0.930 . S
H626 C639 0.930 . S
H627 C643 0.959 . S
H628 C643 0.959 . S
H629 C643 0.961 . S
H630 C644 0.960 . S
H631 C644 0.961 . S
H632 C644 0.959 . S
H633 C647 0.929 . S
H634 C648 0.931 . S
H635 C650 0.930 . S
C636 H624 0.930 . S
C636 C637 1.399 . S
C636 C641 1.399 . S
C637 C636 1.399 . S
C637 C638 1.376 . S
C638 H625 0.930 . S
C638 C637 1.376 . S
C638 C639 1.388 . S
C639 H626 0.930 . S
C639 C638 1.388 . S
C639 C640 1.390 . S
C640 C639 1.390 . S
C640 C641 1.394 . S
C640 C646 1.465 . S
C641 C636 1.399 . S
C641 C640 1.394 . S
C641 C642 1.516 . S
C642 C641 1.516 . S
C642 C643 1.502 . S
C642 C644 1.561 . S
C642 C645 1.526 . S
C643 H627 0.959 . S
C643 H628 0.959 . S
C643 H629 0.961 . S
C643 C642 1.502 . S
C644 H630 0.960 . S
C644 H631 0.961 . S
C644 H632 0.959 . S
C644 C642 1.561 . S
C645 C642 1.526 . S
C645 C646 1.396 . S
C645 C650 1.390 . S
C646 C640 1.465 . S
C646 C645 1.396 . S
C646 C647 1.399 . S
C647 H633 0.929 . S
C647 C646 1.399 . S
C647 C648 1.385 . S
C648 H634 0.931 . S
C648 C647 1.385 . S
C648 C649 1.389 . S
C649 C648 1.389 . S
C649 C650 1.387 . S
C650 H635 0.930 . S
C650 C645 1.390 . S
C650 C649 1.387 . S
H651 C663 0.930 . S
H652 C665 0.930 . S
H653 C666 0.930 . S
H654 C670 0.959 . S
H655 C670 0.959 . S
H656 C670 0.961 . S
H657 C671 0.960 . S
H658 C671 0.961 . S
H659 C671 0.959 . S
H660 C674 0.929 . S
H661 C675 0.931 . S
H662 C677 0.930 . S
C663 H651 0.930 . S
C663 C664 1.399 . S
C663 C668 1.399 . S
C664 C663 1.399 . S
C664 C665 1.376 . S
C665 H652 0.930 . S
C665 C664 1.376 . S
C665 C666 1.388 . S
C666 H653 0.930 . S
C666 C665 1.388 . S
C666 C667 1.390 . S
C667 C666 1.390 . S
C667 C668 1.394 . S
C667 C673 1.465 . S
C668 C663 1.399 . S
C668 C667 1.394 . S
C668 C669 1.516 . S
C669 C668 1.516 . S
C669 C670 1.502 . S
C669 C671 1.561 . S
C669 C672 1.526 . S
C670 H654 0.959 . S
C670 H655 0.959 . S
C670 H656 0.961 . S
C670 C669 1.502 . S
C671 H657 0.960 . S
C671 H658 0.961 . S
C671 H659 0.959 . S
C671 C669 1.561 . S
C672 C669 1.526 . S
C672 C673 1.396 . S
C672 C677 1.390 . S
C673 C667 1.465 . S
C673 C672 1.396 . S
C673 C674 1.399 . S
C674 H660 0.929 . S
C674 C673 1.399 . S
C674 C675 1.385 . S
C675 H661 0.931 . S
C675 C674 1.385 . S
C675 C676 1.389 . S
C676 C675 1.389 . S
C676 C677 1.387 . S
C677 H662 0.930 . S
C677 C672 1.390 . S
C677 C676 1.387 . S
C205 C2 1.269 . S
C217 N173 1.373 . S
C232 C34 1.357 . S
C244 N13 1.316 . S
C259 C66 1.337 . S
C271 N45 1.333 . S
C286 N77 1.315 . S
C298 C98 1.357 . S
C313 N109 1.339 . S
C325 C130 1.329 . S
C340 C162 1.268 . S
C352 N141 1.373 . S
C367 C4 1.127 . S
C379 N114 1.038 . S
C394 C36 1.123 . S
C406 N146 1.019 . S
C421 N178 1.119 . S
C433 C68 1.049 . S
C448 C100 1.129 . S
C460 N18 1.032 . S
C475 N50 1.026 . S
C487 C132 1.130 . S
C502 C164 1.065 . S
C514 N82 1.119 . S
C529 C6 1.631 . S
C541 C157 1.569 . S
C556 C189 1.580 . S
C568 C38 1.607 . S
C583 C29 1.585 . S
C595 C70 1.607 . S
C610 C102 1.627 . S
C622 C61 1.519 . S
C637 C93 1.596 . S
C649 C134 1.611 . S
C664 C125 1.517 . S
C676 C166 1.628 . S
