# Generated by pormake.
# Topology lcy-e, (6)-cn, num edge types: 1
# Building blocks:
#     Node 0, Type 0, BuildingBlock: MIFKUJ_clean_sbu_0, # of connection points: 6
#     Node 1, Type 0, BuildingBlock: MIFKUJ_clean_sbu_0, # of connection points: 6
#     Node 2, Type 0, BuildingBlock: MIFKUJ_clean_sbu_0, # of connection points: 6
#     Node 3, Type 0, BuildingBlock: MIFKUJ_clean_sbu_0, # of connection points: 6
#     Node 4, Type 0, BuildingBlock: MIFKUJ_clean_sbu_0, # of connection points: 6
#     Node 5, Type 0, BuildingBlock: MIFKUJ_clean_sbu_0, # of connection points: 6
#     Node 6, Type 0, BuildingBlock: MIFKUJ_clean_sbu_0, # of connection points: 6
#     Node 7, Type 0, BuildingBlock: MIFKUJ_clean_sbu_0, # of connection points: 6
#     Node 8, Type 0, BuildingBlock: MIFKUJ_clean_sbu_0, # of connection points: 6
#     Node 9, Type 0, BuildingBlock: MIFKUJ_clean_sbu_0, # of connection points: 6
#     Node 10, Type 0, BuildingBlock: MIFKUJ_clean_sbu_0, # of connection points: 6
#     Node 11, Type 0, BuildingBlock: MIFKUJ_clean_sbu_0, # of connection points: 6
#     Edge 12, Type (0, 0), BuildingBlock: XUDNAN_clean_linker_2, # of connection points: 2
#     Edge 13, Type (0, 0), BuildingBlock: XUDNAN_clean_linker_2, # of connection points: 2
#     Edge 14, Type (0, 0), BuildingBlock: XUDNAN_clean_linker_2, # of connection points: 2
#     Edge 15, Type (0, 0), BuildingBlock: XUDNAN_clean_linker_2, # of connection points: 2
#     Edge 16, Type (0, 0), BuildingBlock: XUDNAN_clean_linker_2, # of connection points: 2
#     Edge 17, Type (0, 0), BuildingBlock: XUDNAN_clean_linker_2, # of connection points: 2
#     Edge 18, Type (0, 0), BuildingBlock: XUDNAN_clean_linker_2, # of connection points: 2
#     Edge 19, Type (0, 0), BuildingBlock: XUDNAN_clean_linker_2, # of connection points: 2
#     Edge 20, Type (0, 0), BuildingBlock: XUDNAN_clean_linker_2, # of connection points: 2
#     Edge 21, Type (0, 0), BuildingBlock: XUDNAN_clean_linker_2, # of connection points: 2
#     Edge 22, Type (0, 0), BuildingBlock: XUDNAN_clean_linker_2, # of connection points: 2
#     Edge 23, Type (0, 0), BuildingBlock: XUDNAN_clean_linker_2, # of connection points: 2
#     Edge 24, Type (0, 0), BuildingBlock: XUDNAN_clean_linker_2, # of connection points: 2
#     Edge 25, Type (0, 0), BuildingBlock: XUDNAN_clean_linker_2, # of connection points: 2
#     Edge 26, Type (0, 0), BuildingBlock: XUDNAN_clean_linker_2, # of connection points: 2
#     Edge 27, Type (0, 0), BuildingBlock: XUDNAN_clean_linker_2, # of connection points: 2
#     Edge 28, Type (0, 0), BuildingBlock: XUDNAN_clean_linker_2, # of connection points: 2
#     Edge 29, Type (0, 0), BuildingBlock: XUDNAN_clean_linker_2, # of connection points: 2
#     Edge 30, Type (0, 0), BuildingBlock: XUDNAN_clean_linker_2, # of connection points: 2
#     Edge 31, Type (0, 0), BuildingBlock: XUDNAN_clean_linker_2, # of connection points: 2
#     Edge 32, Type (0, 0), BuildingBlock: XUDNAN_clean_linker_2, # of connection points: 2
#     Edge 33, Type (0, 0), BuildingBlock: XUDNAN_clean_linker_2, # of connection points: 2
#     Edge 34, Type (0, 0), BuildingBlock: XUDNAN_clean_linker_2, # of connection points: 2
#     Edge 35, Type (0, 0), BuildingBlock: XUDNAN_clean_linker_2, # of connection points: 2
#     Edge 36, Type (0, 0), BuildingBlock: XUDNAN_clean_linker_2, # of connection points: 2
#     Edge 37, Type (0, 0), BuildingBlock: XUDNAN_clean_linker_2, # of connection points: 2
#     Edge 38, Type (0, 0), BuildingBlock: XUDNAN_clean_linker_2, # of connection points: 2
#     Edge 39, Type (0, 0), BuildingBlock: XUDNAN_clean_linker_2, # of connection points: 2
#     Edge 40, Type (0, 0), BuildingBlock: XUDNAN_clean_linker_2, # of connection points: 2
#     Edge 41, Type (0, 0), BuildingBlock: XUDNAN_clean_linker_2, # of connection points: 2
#     Edge 42, Type (0, 0), BuildingBlock: XUDNAN_clean_linker_2, # of connection points: 2
#     Edge 43, Type (0, 0), BuildingBlock: XUDNAN_clean_linker_2, # of connection points: 2
#     Edge 44, Type (0, 0), BuildingBlock: XUDNAN_clean_linker_2, # of connection points: 2
#     Edge 45, Type (0, 0), BuildingBlock: XUDNAN_clean_linker_2, # of connection points: 2
#     Edge 46, Type (0, 0), BuildingBlock: XUDNAN_clean_linker_2, # of connection points: 2
#     Edge 47, Type (0, 0), BuildingBlock: XUDNAN_clean_linker_2, # of connection points: 2
# Relax obj value: 0.176
# Max RMSD: 0.282
# Mean RMSD: 0.239
data_MOF--net-lcy-e--node1-MIFKUJ_clean_sbu_0--edge1-XUDNAN_clean_linker_2
_symmetry_space_group_name_H-M    P1
_symmetry_Int_Tables_number       1
_symmetry_cell_setting            triclinic
loop_
_symmetry_equiv_pos_as_xyz
'x, y, z'
_cell_length_a     36.87302
_cell_length_b     39.939607
_cell_length_c     40.013547
_cell_angle_alpha  87.164063
_cell_angle_beta   88.692966
_cell_angle_gamma 88.097505
loop_
_atom_site_label
_atom_site_type_symbol
_atom_site_fract_x
_atom_site_fract_y
_atom_site_fract_z
_atom_type_partial_charge
Zn0 Zn 0.11371 0.23615 0.42821 0.0
Zn1 Zn 0.09738 0.16839 0.4753 0.0
C2 C 0.156 0.2846 0.45369 0.0
O3 O 0.13118 0.30226 0.43697 0.0
C4 C 0.04508 0.14411 0.4287 0.0
O5 O 0.07096 0.1224 0.42061 0.0
O6 O 0.11203 0.26803 0.38703 0.0
O7 O 0.12685 0.19189 0.40675 0.0
O8 O 0.14409 0.16056 0.45026 0.0
C9 C 0.14363 0.26703 0.37352 0.0
O10 O 0.16836 0.24636 0.38688 0.0
O11 O 0.15544 0.25271 0.45469 0.0
C12 C 0.08435 0.1333 0.53856 0.0
O13 O 0.07541 0.16346 0.54821 0.0
O14 O 0.09435 0.12931 0.50844 0.0
O15 O 0.09479 0.2101 0.50078 0.0
O16 O 0.071 0.24309 0.4605 0.0
O17 O 0.05189 0.16681 0.44859 0.0
C18 C 0.14822 0.16963 0.41973 0.0
C19 C 0.0764 0.2362 0.49153 0.0
Zn20 Zn -0.00032 0.87755 0.67172 0.0
Zn21 Zn 0.06439 0.8743 0.72401 0.0
C22 C 0.94367 0.90303 0.71422 0.0
O23 O 0.93291 0.87217 0.71269 0.0
C24 C 0.11419 0.84559 0.68056 0.0
O25 O 0.12995 0.87335 0.68761 0.0
O26 O 0.96996 0.87083 0.62946 0.0
O27 O 0.04551 0.90161 0.6553 0.0
O28 O 0.06036 0.91994 0.70404 0.0
C29 C 0.94082 0.88777 0.62266 0.0
O30 O 0.92846 0.91001 0.64347 0.0
O31 O 0.97206 0.91187 0.69809 0.0
C32 C 0.11194 0.8408 0.7681 0.0
O33 O 0.0946 0.81686 0.75463 0.0
O34 O 0.10396 0.87107 0.75899 0.0
O35 O 0.01974 0.85847 0.74685 0.0
O36 O 0.00083 0.83389 0.70245 0.0
O37 O 0.08135 0.84193 0.68975 0.0
C38 C 0.05865 0.92417 0.67253 0.0
C39 C 0.00315 0.8351 0.73418 0.0
Zn40 Zn 0.36961 0.74759 0.9473 0.0
Zn41 Zn 0.36561 0.83739 0.97008 0.0
C42 C 0.34941 0.68405 0.97935 0.0
O43 O 0.37105 0.67158 0.9563 0.0
C44 C 0.42161 0.86697 0.92544 0.0
O45 O 0.39496 0.87965 0.90713 0.0
O46 O 0.38976 0.72002 0.90949 0.0
O47 O 0.33052 0.77842 0.92859 0.0
O48 O 0.32522 0.83272 0.93704 0.0
C49 C 0.36605 0.71277 0.88866 0.0
O50 O 0.33252 0.7242 0.89243 0.0
O51 O 0.34533 0.71569 0.98087 0.0
C52 C 0.37289 0.8855 0.01985 0.0
O53 O 0.39752 0.86312 0.03036 0.0
O54 O 0.3542 0.87947 0.99462 0.0
O55 O 0.37318 0.80001 0.00549 0.0
O56 O 0.40749 0.77136 0.97088 0.0
O57 O 0.41467 0.84602 0.94943 0.0
C58 C 0.31434 0.80671 0.92376 0.0
C59 C 0.39723 0.77713 0.00059 0.0
Zn60 Zn 0.42935 0.13749 0.24656 0.0
Zn61 Zn 0.47741 0.12239 0.16201 0.0
C62 C 0.46744 0.18926 0.27823 0.0
O63 O 0.49416 0.18215 0.25721 0.0
C64 C 0.42126 0.09576 0.12232 0.0
O65 O 0.42278 0.12487 0.10564 0.0
O66 O 0.38555 0.11754 0.26994 0.0
O67 O 0.41496 0.15488 0.19971 0.0
O68 O 0.45969 0.17015 0.16592 0.0
C69 C 0.35709 0.13647 0.26887 0.0
O70 O 0.35746 0.16419 0.24977 0.0
O71 O 0.43729 0.17539 0.27579 0.0
C72 C 0.5341 0.09366 0.12477 0.0
O73 O 0.52535 0.06849 0.14538 0.0
O74 O 0.51613 0.12128 0.12599 0.0
O75 O 0.50153 0.10203 0.20286 0.0
O76 O 0.47477 0.10656 0.25282 0.0
O77 O 0.43997 0.09057 0.14842 0.0
C78 C 0.43182 0.17778 0.18332 0.0
C79 C 0.5008 0.09583 0.2343 0.0
Zn80 Zn 0.62996 0.30347 0.5118 0.0
Zn81 Zn 0.62644 0.26354 0.58285 0.0
C82 C 0.59464 0.27444 0.46275 0.0
O83 O 0.6271 0.28068 0.4502 0.0
C84 C 0.66626 0.3122 0.61392 0.0
O85 O 0.6362 0.3127 0.6322 0.0
O86 O 0.63875 0.34202 0.47736 0.0
O87 O 0.61482 0.3288 0.55267 0.0
O88 O 0.58072 0.29149 0.5786 0.0
C89 C 0.60917 0.35916 0.4738 0.0
O90 O 0.58004 0.34905 0.49034 0.0
O91 O 0.58759 0.28066 0.4931 0.0
C92 C 0.61657 0.20489 0.62914 0.0
O93 O 0.60914 0.18843 0.60264 0.0
O94 O 0.62322 0.2359 0.62587 0.0
O95 O 0.6382 0.2325 0.54655 0.0
O96 O 0.66996 0.26701 0.51306 0.0
O97 O 0.66882 0.29302 0.58948 0.0
C98 C 0.58629 0.32174 0.56953 0.0
C99 C 0.66223 0.23744 0.5238 0.0
Zn100 Zn 0.95614 0.38079 0.73627 0.0
Zn101 Zn 0.97844 0.38499 0.8277 0.0
C102 C 0.99877 0.37157 0.67746 0.0
O103 O 0.98409 0.40138 0.67035 0.0
C104 C 0.93311 0.43279 0.8606 0.0
O105 O 0.93524 0.40868 0.88409 0.0
O106 O 0.91143 0.39578 0.71056 0.0
O107 O 0.93763 0.34705 0.76948 0.0
O108 O 0.94709 0.34445 0.8238 0.0
C109 C 0.90023 0.37451 0.69079 0.0
O110 O 0.9196 0.34675 0.68675 0.0
O111 O 0.99103 0.35666 0.70531 0.0
C112 C 0.03379 0.38799 0.87901 0.0
O113 O 0.05313 0.40437 0.85599 0.0
O114 O 0.00303 0.37729 0.8717 0.0
O115 O 0.01816 0.39256 0.79243 0.0
O116 O 0.98144 0.41843 0.75647 0.0
O117 O 0.94803 0.42797 0.83216 0.0
C118 C 0.93293 0.33301 0.79824 0.0
C119 C 0.01348 0.41101 0.76597 0.0
Zn120 Zn 0.87468 0.70368 0.99802 0.0
Zn121 Zn 0.8605 0.72806 0.08914 0.0
C122 C 0.89483 0.7363 0.93734 0.0
O123 O 0.85927 0.73749 0.93567 0.0
C124 C 0.81354 0.66944 0.09007 0.0
O125 O 0.84336 0.65058 0.08883 0.0
O126 O 0.85836 0.66162 0.97647 0.0
O127 O 0.90046 0.69254 0.03992 0.0
O128 O 0.90545 0.69805 0.09343 0.0
C129 C 0.88471 0.64479 0.96367 0.0
O130 O 0.91796 0.65463 0.96693 0.0
O131 O 0.90947 0.72378 0.96375 0.0
C132 C 0.83099 0.77946 0.12959 0.0
O133 O 0.81174 0.7846 0.1025 0.0
O134 O 0.8547 0.75553 0.13072 0.0
O135 O 0.86078 0.76234 0.04948 0.0
O136 O 0.83605 0.73961 0.00588 0.0
O137 O 0.81567 0.70118 0.08877 0.0
C138 C 0.91708 0.68532 0.06674 0.0
C139 C 0.84194 0.76492 0.02301 0.0
Zn140 Zn 0.53084 0.62707 0.25634 0.0
Zn141 Zn 0.49628 0.62925 0.33776 0.0
C142 C 0.48488 0.67145 0.21167 0.0
O143 O 0.48081 0.69206 0.23616 0.0
C144 C 0.53877 0.57977 0.37425 0.0
O145 O 0.52863 0.59921 0.39852 0.0
O146 O 0.57757 0.61088 0.23455 0.0
O147 O 0.54326 0.6675 0.28233 0.0
O148 O 0.52379 0.67128 0.33464 0.0
C149 C 0.5906 0.63511 0.21678 0.0
O150 O 0.5741 0.66474 0.21762 0.0
O151 O 0.50291 0.64405 0.21627 0.0
C152 C 0.44619 0.60604 0.38736 0.0
O153 O 0.45044 0.57889 0.37026 0.0
O154 O 0.46362 0.63193 0.37824 0.0
O155 O 0.46172 0.62277 0.30075 0.0
O156 O 0.50097 0.58906 0.27601 0.0
O157 O 0.52978 0.58818 0.34445 0.0
C158 C 0.54132 0.68295 0.30936 0.0
C159 C 0.46844 0.59736 0.28367 0.0
Zn160 Zn 0.2408 0.43827 0.13528 0.0
Zn161 Zn 0.16091 0.4746 0.13482 0.0
C162 C 0.28467 0.48383 0.16544 0.0
O163 O 0.29825 0.4842 0.1348 0.0
C164 C 0.12532 0.42867 0.09895 0.0
O165 O 0.10512 0.43108 0.12627 0.0
O166 O 0.2811 0.40189 0.12998 0.0
O167 O 0.19625 0.4125 0.14944 0.0
O168 O 0.16194 0.44742 0.178 0.0
C169 C 0.29592 0.39185 0.15736 0.0
O170 O 0.285 0.40536 0.18523 0.0
O171 O 0.25747 0.46591 0.17289 0.0
C172 C 0.11728 0.52031 0.10163 0.0
O173 O 0.14358 0.51247 0.08043 0.0
O174 O 0.11757 0.50651 0.131 0.0
O175 O 0.20296 0.50419 0.12744 0.0
O176 O 0.23695 0.4721 0.09533 0.0
O177 O 0.15482 0.44427 0.09668 0.0
C178 C 0.17738 0.41877 0.17552 0.0
C179 C 0.22603 0.5012 0.1037 0.0
Zn180 Zn 0.703 0.02794 0.88785 0.0
Zn181 Zn 0.75589 0.08363 0.8859 0.0
C182 C 0.73935 0.96839 0.90863 0.0
O183 O 0.72571 0.96039 0.88014 0.0
C184 C 0.70195 0.12422 0.84794 0.0
O185 O 0.71453 0.14921 0.8639 0.0
O186 O 0.65694 0.00219 0.88493 0.0
O187 O 0.68668 0.06964 0.91249 0.0
O188 O 0.73966 0.07816 0.93356 0.0
C189 C 0.64327 0.99721 0.91418 0.0
O190 O 0.66017 0.00848 0.9397 0.0
O191 O 0.734 0.99806 0.91825 0.0
C192 C 0.79683 0.12814 0.84803 0.0
O193 O 0.78478 0.10765 0.82647 0.0
O194 O 0.78927 0.12256 0.8789 0.0
O195 O 0.78138 0.04329 0.86864 0.0
O196 O 0.7315 0.02973 0.84357 0.0
O197 O 0.71404 0.09462 0.85483 0.0
C198 C 0.70546 0.07794 0.93676 0.0
C199 C 0.76598 0.0295 0.8451 0.0
Zn200 Zn 0.7727 0.98186 0.38293 0.0
Zn201 Zn 0.72442 0.92124 0.38726 0.0
C202 C 0.73104 0.03399 0.40986 0.0
O203 O 0.73407 0.04384 0.37813 0.0
C204 C 0.77093 0.88424 0.34123 0.0
O205 O 0.76669 0.85978 0.36402 0.0
O206 O 0.81308 0.01472 0.37408 0.0
O207 O 0.79879 0.93947 0.40186 0.0
O208 O 0.75281 0.9176 0.43022 0.0
C209 C 0.82673 0.02271 0.40144 0.0
O210 O 0.81566 0.00778 0.42966 0.0
O211 O 0.74381 0.00512 0.41925 0.0
C212 C 0.67472 0.88441 0.35599 0.0
O213 O 0.68263 0.90939 0.33481 0.0
O214 O 0.68897 0.88336 0.38474 0.0
O215 O 0.69527 0.9645 0.37774 0.0
O216 O 0.73887 0.9816 0.34324 0.0
O217 O 0.75789 0.91336 0.34699 0.0
C218 C 0.78668 0.92217 0.42693 0.0
C219 C 0.70529 0.98109 0.35141 0.0
Zn220 Zn 0.3041 0.48324 0.63475 0.0
Zn221 Zn 0.27183 0.5639 0.66018 0.0
C222 C 0.26872 0.42595 0.60908 0.0
O223 O 0.27239 0.41184 0.63922 0.0
C224 C 0.3277 0.58545 0.69487 0.0
O225 O 0.32476 0.60606 0.66837 0.0
O226 O 0.35228 0.45896 0.64242 0.0
O227 O 0.31601 0.52468 0.60532 0.0
O228 O 0.29465 0.57513 0.61626 0.0
C229 C 0.36801 0.45589 0.61405 0.0
O230 O 0.35093 0.46634 0.58687 0.0
O231 O 0.27893 0.45568 0.60299 0.0
C232 C 0.21594 0.61826 0.65877 0.0
O233 O 0.19887 0.60165 0.63672 0.0
O234 O 0.24496 0.60591 0.67137 0.0
O235 O 0.2356 0.52827 0.65964 0.0
O236 O 0.26993 0.48434 0.67549 0.0
O237 O 0.30892 0.55924 0.69647 0.0
C238 C 0.3131 0.55591 0.59786 0.0
C239 C 0.23877 0.49815 0.67095 0.0
H240 H 0.17428 0.27794 0.51962 0.0
H241 H 0.19587 0.33404 0.42621 0.0
H242 H 0.23102 0.3742 0.45605 0.0
H243 H 0.15744 0.3465 0.5667 0.0
H244 H 0.17846 0.33018 0.60461 0.0
H245 H 0.16071 0.30189 0.5759 0.0
H246 H 0.22339 0.27086 0.57143 0.0
H247 H 0.24123 0.29862 0.60075 0.0
H248 H 0.26315 0.29442 0.56039 0.0
H249 H 0.25532 0.41204 0.49546 0.0
H250 H 0.27333 0.44411 0.54279 0.0
H251 H 0.23645 0.36453 0.61217 0.0
C252 C 0.18794 0.29782 0.50548 0.0
C253 C 0.18337 0.30273 0.47067 0.0
C254 C 0.19986 0.3298 0.45286 0.0
C255 C 0.21971 0.3527 0.46957 0.0
C256 C 0.2226 0.34813 0.5041 0.0
C257 C 0.20767 0.32121 0.52194 0.0
C258 C 0.21209 0.32418 0.55928 0.0
C259 C 0.17498 0.32579 0.57769 0.0
C260 C 0.23642 0.2953 0.57382 0.0
C261 C 0.23085 0.35738 0.55948 0.0
C262 C 0.23671 0.37054 0.52731 0.0
C263 C 0.25159 0.40177 0.5208 0.0
C264 C 0.26147 0.41989 0.54792 0.0
C265 C 0.2565 0.4067 0.58118 0.0
C266 C 0.24092 0.37504 0.587 0.0
H267 H 0.7979 0.96752 0.84775 0.0
H268 H 0.78617 0.05879 0.78529 0.0
H269 H 0.83335 0.03742 0.746 0.0
H270 H 0.89276 0.95511 0.83751 0.0
H271 H 0.89196 0.9102 0.83541 0.0
H272 H 0.85697 0.93209 0.8586 0.0
H273 H 0.8073 0.90689 0.82402 0.0
H274 H 0.84158 0.88407 0.8009 0.0
H275 H 0.80943 0.91153 0.77896 0.0
H276 H 0.88508 0.00788 0.71646 0.0
H277 H 0.93031 0.96795 0.69267 0.0
H278 H 0.90395 0.894 0.77156 0.0
C279 C 0.80485 0.98257 0.82538 0.0
C280 C 0.78875 0.01461 0.81916 0.0
C281 C 0.79848 0.03411 0.79015 0.0
C282 C 0.82526 0.02225 0.7679 0.0
C283 C 0.8414 0.99075 0.77506 0.0
C284 C 0.83096 0.97082 0.80264 0.0
C285 C 0.85179 0.93755 0.8041 0.0
C286 C 0.87472 0.93352 0.83578 0.0
C287 C 0.82599 0.90828 0.80184 0.0
C288 C 0.87548 0.94184 0.77292 0.0
C289 C 0.86969 0.973 0.75697 0.0
C290 C 0.88953 0.98324 0.72843 0.0
C291 C 0.91525 0.96058 0.71526 0.0
C292 C 0.92009 0.928 0.73031 0.0
C293 C 0.90028 0.9187 0.7596 0.0
H294 H 0.33454 0.61846 0.97091 0.0
H295 H 0.31817 0.69852 0.03978 0.0
H296 H 0.28451 0.66015 0.07866 0.0
H297 H 0.24533 0.58318 0.98582 0.0
H298 H 0.26195 0.54059 0.98179 0.0
H299 H 0.28424 0.5745 0.95918 0.0
H300 H 0.34529 0.55528 0.98594 0.0
H301 H 0.32319 0.52142 0.00873 0.0
H302 H 0.34817 0.55107 0.03089 0.0
H303 H 0.25424 0.6133 0.11022 0.0
H304 H 0.2275 0.56113 0.13267 0.0
H305 H 0.26297 0.51085 0.04324 0.0
C306 C 0.32396 0.62787 0.99423 0.0
C307 C 0.32911 0.66136 0.00253 0.0
C308 C 0.31445 0.67295 0.03299 0.0
C309 C 0.29537 0.65136 0.0552 0.0
C310 C 0.2909 0.61847 0.0463 0.0
C311 C 0.30448 0.6068 0.01647 0.0
C312 C 0.29546 0.57041 0.01281 0.0
C313 C 0.27025 0.56698 0.98314 0.0
C314 C 0.3301 0.54825 0.00941 0.0
C315 C 0.27575 0.56306 0.04584 0.0
C316 C 0.27313 0.59131 0.06452 0.0
C317 C 0.25597 0.59107 0.09579 0.0
C318 C 0.24084 0.56125 0.10826 0.0
C319 C 0.24314 0.53188 0.08965 0.0
C320 C 0.26102 0.53282 0.05807 0.0
H321 H 0.53395 0.09887 0.29584 0.0
H322 H 0.5355 0.04397 0.20491 0.0
H323 H 0.58887 0.01068 0.22425 0.0
H324 H 0.6322 0.10108 0.30237 0.0
H325 H 0.63201 0.09573 0.34736 0.0
H326 H 0.59371 0.11599 0.32663 0.0
H327 H 0.55085 0.07313 0.35599 0.0
H328 H 0.58903 0.05301 0.37695 0.0
H329 H 0.56025 0.02886 0.35215 0.0
H330 H 0.64357 0.98508 0.25128 0.0
H331 H 0.69315 0.96404 0.28815 0.0
H332 H 0.65529 0.03163 0.36392 0.0
C333 C 0.54534 0.07955 0.28029 0.0
C334 C 0.53075 0.07428 0.24859 0.0
C335 C 0.54662 0.04898 0.22885 0.0
C336 C 0.57692 0.02981 0.23968 0.0
C337 C 0.59126 0.03609 0.2705 0.0
C338 C 0.57595 0.06006 0.29079 0.0
C339 C 0.59713 0.06139 0.32286 0.0
C340 C 0.6148 0.09558 0.32492 0.0
C341 C 0.57285 0.05361 0.35382 0.0
C342 C 0.62573 0.03368 0.31773 0.0
C343 C 0.62229 0.0201 0.28692 0.0
C344 C 0.64639 0.99526 0.27561 0.0
C345 C 0.67448 0.98355 0.29658 0.0
C346 C 0.67764 0.99606 0.32874 0.0
C347 C 0.65308 0.02152 0.33944 0.0
H348 H 0.65098 0.21135 0.46346 0.0
H349 H 0.71091 0.19557 0.55504 0.0
H350 H 0.73252 0.13968 0.53724 0.0
H351 H 0.62152 0.12711 0.46163 0.0
H352 H 0.62465 0.12525 0.41674 0.0
H353 H 0.61551 0.16486 0.43547 0.0
H354 H 0.67115 0.19027 0.4041 0.0
H355 H 0.67982 0.15103 0.38465 0.0
H356 H 0.71501 0.16921 0.40779 0.0
H357 H 0.74507 0.0847 0.51075 0.0
H358 H 0.75382 0.03687 0.47413 0.0
H359 H 0.68518 0.08828 0.39996 0.0
C360 C 0.66958 0.19646 0.47913 0.0
C361 C 0.68037 0.20783 0.51007 0.0
C362 C 0.70331 0.18733 0.53084 0.0
C363 C 0.71532 0.15553 0.52111 0.0
C364 C 0.70355 0.14455 0.49079 0.0
C365 C 0.68147 0.16448 0.46993 0.0
C366 C 0.67201 0.14632 0.4391 0.0
C367 C 0.63099 0.14055 0.4382 0.0
C368 C 0.68532 0.16534 0.40702 0.0
C369 C 0.69318 0.11354 0.44539 0.0
C370 C 0.71055 0.11274 0.47567 0.0
C371 C 0.73164 0.08501 0.48696 0.0
C372 C 0.73618 0.05784 0.46618 0.0
C373 C 0.72011 0.05896 0.43434 0.0
C374 C 0.69773 0.08684 0.42424 0.0
H375 H 0.08624 0.40555 0.78099 0.0
H376 H 0.01195 0.4441 0.70474 0.0
H377 H 0.06352 0.46077 0.66847 0.0
H378 H 0.14244 0.47557 0.77086 0.0
H379 H 0.18416 0.45238 0.77972 0.0
H380 H 0.14191 0.43777 0.79741 0.0
H381 H 0.15426 0.38034 0.77117 0.0
H382 H 0.19645 0.39498 0.75311 0.0
H383 H 0.1628 0.37884 0.72671 0.0
H384 H 0.12135 0.47703 0.64208 0.0
H385 H 0.18181 0.49968 0.63008 0.0
H386 H 0.22018 0.45552 0.72451 0.0
C387 C 0.08091 0.41686 0.75636 0.0
C388 C 0.04497 0.4219 0.74497 0.0
C389 C 0.03914 0.43832 0.7133 0.0
C390 C 0.06832 0.44807 0.69255 0.0
C391 C 0.10332 0.44231 0.70425 0.0
C392 C 0.10984 0.42783 0.7357 0.0
C393 C 0.14976 0.42916 0.74397 0.0
C394 C 0.15485 0.44996 0.77481 0.0
C395 C 0.16682 0.39371 0.74903 0.0
C396 C 0.16448 0.4469 0.71233 0.0
C397 C 0.13716 0.45361 0.6896 0.0
C398 C 0.14305 0.47174 0.65951 0.0
C399 C 0.17741 0.48454 0.65295 0.0
C400 C 0.20545 0.47919 0.67635 0.0
C401 C 0.1993 0.4593 0.70597 0.0
H402 H 0.75224 0.90232 0.89576 0.0
H403 H 0.76926 0.97592 0.96975 0.0
H404 H 0.79833 0.93184 0.00649 0.0
H405 H 0.72925 0.83553 0.95313 0.0
H406 H 0.75205 0.80334 0.92971 0.0
H407 H 0.73447 0.84092 0.90829 0.0
H408 H 0.79822 0.85213 0.88208 0.0
H409 H 0.81582 0.81436 0.90321 0.0
H410 H 0.83657 0.85382 0.909 0.0
H411 H 0.82435 0.87996 0.03545 0.0
H412 H 0.84557 0.82355 0.05518 0.0
H413 H 0.80938 0.78316 0.96317 0.0
C414 C 0.76234 0.90928 0.91956 0.0
C415 C 0.75854 0.94258 0.9299 0.0
C416 C 0.77197 0.95059 0.9613 0.0
C417 C 0.7885 0.92575 0.98232 0.0
C418 C 0.79138 0.89311 0.97154 0.0
C419 C 0.77877 0.88481 0.94088 0.0
C420 C 0.78433 0.84765 0.93566 0.0
C421 C 0.74785 0.83089 0.93146 0.0
C422 C 0.81028 0.84165 0.90572 0.0
C423 C 0.80164 0.83629 0.96842 0.0
C424 C 0.80572 0.86296 0.98858 0.0
C425 C 0.82126 0.85885 0.01992 0.0
C426 C 0.83311 0.82661 0.03094 0.0
C427 C 0.82895 0.79874 0.01087 0.0
C428 C 0.81289 0.80381 0.9792 0.0
H429 H 0.42955 0.60826 0.2272 0.0
H430 H 0.44082 0.54212 0.31567 0.0
H431 H 0.38935 0.50921 0.29795 0.0
H432 H 0.33014 0.60661 0.22242 0.0
H433 H 0.33089 0.6065 0.17737 0.0
H434 H 0.36614 0.62669 0.19861 0.0
H435 H 0.41505 0.59032 0.16859 0.0
H436 H 0.38005 0.57031 0.14704 0.0
H437 H 0.41228 0.54526 0.17153 0.0
H438 H 0.33766 0.48304 0.26983 0.0
H439 H 0.29498 0.46103 0.23003 0.0
H440 H 0.32017 0.54236 0.15835 0.0
C441 C 0.42082 0.58698 0.24284 0.0
C442 C 0.43849 0.57765 0.27286 0.0
C443 C 0.42706 0.54959 0.29274 0.0
C444 C 0.39788 0.53095 0.28294 0.0
C445 C 0.38069 0.54081 0.25318 0.0
C446 C 0.39199 0.56796 0.23324 0.0
C447 C 0.37076 0.5718 0.20126 0.0
C448 C 0.34814 0.60487 0.19985 0.0
C449 C 0.39605 0.56924 0.17029 0.0
C450 C 0.34665 0.54189 0.20581 0.0
C451 C 0.35203 0.5249 0.23633 0.0
C452 C 0.33309 0.4962 0.24593 0.0
C453 C 0.30878 0.48401 0.22332 0.0
C454 C 0.30443 0.50012 0.19133 0.0
C455 C 0.32307 0.52971 0.18277 0.0
H456 H 0.51828 0.23621 0.28658 0.0
H457 H 0.43367 0.18043 0.33909 0.0
H458 H 0.45291 0.20126 0.39265 0.0
H459 H 0.58533 0.22144 0.34106 0.0
H460 H 0.60397 0.26268 0.3388 0.0
H461 H 0.57965 0.24859 0.30403 0.0
H462 H 0.5356 0.30046 0.3062 0.0
H463 H 0.56018 0.31503 0.34084 0.0
H464 H 0.51198 0.30932 0.34485 0.0
H465 H 0.48749 0.22077 0.44114 0.0
H466 H 0.53268 0.24068 0.48002 0.0
H467 H 0.59331 0.28429 0.39544 0.0
C468 C 0.50319 0.22926 0.30926 0.0
C469 C 0.47458 0.20682 0.30877 0.0
C470 C 0.45546 0.19797 0.33889 0.0
C471 C 0.46619 0.20962 0.36947 0.0
C472 C 0.4954 0.23081 0.36933 0.0
C473 C 0.51306 0.24124 0.3399 0.0
C474 C 0.54494 0.26249 0.34675 0.0
C475 C 0.58055 0.24789 0.33179 0.0
C476 C 0.53774 0.29899 0.3339 0.0
C477 C 0.54443 0.25975 0.38455 0.0
C478 C 0.51511 0.24222 0.39724 0.0
C479 C 0.51017 0.23513 0.43154 0.0
C480 C 0.53594 0.24636 0.45339 0.0
C481 C 0.56642 0.26376 0.4406 0.0
C482 C 0.57035 0.27079 0.40586 0.0
H483 H 0.04376 0.22569 0.55315 0.0
H484 H 0.08924 0.30291 0.48657 0.0
H485 H 0.08382 0.34302 0.53135 0.0
H486 H 0.97571 0.28116 0.58749 0.0
H487 H 0.97621 0.26088 0.62873 0.0
H488 H 0.98801 0.23718 0.59274 0.0
H489 H 0.04936 0.21923 0.61957 0.0
H490 H 0.03791 0.24344 0.65537 0.0
H491 H 0.07943 0.25087 0.63192 0.0
H492 H 0.07165 0.37519 0.5816 0.0
H493 H 0.04361 0.40086 0.63114 0.0
H494 H 0.00172 0.30453 0.66508 0.0
C495 C 0.05259 0.25106 0.54816 0.0
C496 C 0.06766 0.26117 0.51661 0.0
C497 C 0.07813 0.29464 0.51059 0.0
C498 C 0.07536 0.3175 0.536 0.0
C499 C 0.06098 0.30669 0.567 0.0
C500 C 0.04877 0.27457 0.57297 0.0
C501 C 0.03024 0.27076 0.60715 0.0
C502 C 0.99018 0.26199 0.60382 0.0
C503 C 0.05046 0.24452 0.62984 0.0
C504 C 0.03379 0.30591 0.61925 0.0
C505 C 0.05231 0.32592 0.59588 0.0
C506 C 0.05714 0.35985 0.60015 0.0
C507 C 0.04112 0.37421 0.62827 0.0
C508 C 0.02061 0.35464 0.6517 0.0
C509 C 0.01787 0.31984 0.64775 0.0
H510 H 0.93564 0.83312 0.76328 0.0
H511 H 0.03999 0.78033 0.76011 0.0
H512 H 0.02383 0.74824 0.81247 0.0
H513 H 0.92894 0.84298 0.84696 0.0
H514 H 0.88119 0.83522 0.8523 0.0
H515 H 0.89869 0.85096 0.81256 0.0
H516 H 0.87275 0.80138 0.78277 0.0
H517 H 0.85404 0.78579 0.82231 0.0
H518 H 0.88356 0.75905 0.79798 0.0
H519 H -0.00035 0.729 0.86982 0.0
H520 H 0.96488 0.71606 0.92231 0.0
H521 H 0.87462 0.77847 0.88505 0.0
C522 C 0.95434 0.81366 0.77256 0.0
C523 C 0.9889 0.80884 0.75744 0.0
C524 C 0.01329 0.78413 0.77127 0.0
C525 C 0.00436 0.76588 0.80103 0.0
C526 C 0.97059 0.77227 0.81617 0.0
C527 C 0.94548 0.79477 0.8018 0.0
C528 C 0.9115 0.79779 0.82354 0.0
C529 C 0.90473 0.83388 0.83452 0.0
C530 C 0.87851 0.78524 0.80558 0.0
C531 C 0.92189 0.77443 0.85286 0.0
C532 C 0.95616 0.76009 0.84834 0.0
C533 C 0.97244 0.73946 0.87325 0.0
C534 C 0.95268 0.73254 0.90309 0.0
C535 C 0.91699 0.74604 0.90751 0.0
C536 C 0.90167 0.76742 0.88213 0.0
H537 H 0.44112 0.72581 0.19159 0.0
H538 H 0.50121 0.63935 0.15448 0.0
H539 H 0.48422 0.6566 0.09701 0.0
H540 H 0.36697 0.72374 0.13298 0.0
H541 H 0.36207 0.76876 0.1281 0.0
H542 H 0.3783 0.74941 0.16681 0.0
H543 H 0.43584 0.78499 0.16153 0.0
H544 H 0.41987 0.8044 0.12279 0.0
H545 H 0.46394 0.78352 0.12413 0.0
H546 H 0.46327 0.68381 0.04359 0.0
H547 H 0.43753 0.71879 0.99699 0.0
H548 H 0.38953 0.78723 0.06792 0.0
C549 C 0.45044 0.7104 0.17139 0.0
C550 C 0.47242 0.68119 0.17761 0.0
C551 C 0.48414 0.66172 0.15046 0.0
C552 C 0.47473 0.67133 0.11765 0.0
C553 C 0.45328 0.7003 0.11233 0.0
C554 C 0.44102 0.71948 0.13836 0.0
C555 C 0.41832 0.74954 0.1255 0.0
C556 C 0.37908 0.74774 0.13916 0.0
C557 C 0.43554 0.78256 0.13399 0.0
C558 C 0.42028 0.74443 0.0882 0.0
C559 C 0.44059 0.71585 0.08125 0.0
C560 C 0.44707 0.70615 0.04867 0.0
C561 C 0.43238 0.72624 0.02237 0.0
C562 C 0.41139 0.75567 0.02881 0.0
C563 C 0.40516 0.76471 0.06223 0.0
H564 H 0.10383 0.31937 0.34177 0.0
H565 H 0.20804 0.26539 0.34031 0.0
H566 H 0.22574 0.29687 0.28892 0.0
H567 H 0.09029 0.32941 0.25385 0.0
H568 H 0.07348 0.37231 0.25406 0.0
H569 H 0.06726 0.3447 0.29058 0.0
H570 H 0.09927 0.3863 0.32681 0.0
H571 H 0.10526 0.41422 0.29047 0.0
H572 H 0.14398 0.39994 0.31458 0.0
H573 H 0.23009 0.32849 0.23557 0.0
H574 H 0.22704 0.36866 0.18735 0.0
H575 H 0.1254 0.41084 0.22616 0.0
C576 C 0.13025 0.3142 0.33047 0.0
C577 C 0.15384 0.28863 0.34408 0.0
C578 C 0.18877 0.28353 0.32942 0.0
C579 C 0.19929 0.30154 0.30036 0.0
C580 C 0.17517 0.32567 0.28693 0.0
C581 C 0.14192 0.33303 0.30188 0.0
C582 C 0.12268 0.36214 0.28296 0.0
C583 C 0.08627 0.35149 0.26957 0.0
C584 C 0.11751 0.39245 0.30502 0.0
C585 C 0.15005 0.36904 0.25468 0.0
C586 C 0.17973 0.34715 0.25743 0.0
C587 C 0.20755 0.34648 0.23348 0.0
C588 C 0.20555 0.36942 0.20617 0.0
C589 C 0.17658 0.39346 0.20353 0.0
C590 C 0.14826 0.39316 0.22801 0.0
H591 H 0.87048 0.90637 0.6089 0.0
H592 H 0.96819 0.86282 0.56408 0.0
H593 H 0.93776 0.86334 0.50948 0.0
H594 H 0.80581 0.86083 0.56085 0.0
H595 H 0.77411 0.89613 0.55774 0.0
H596 H 0.80295 0.89043 0.59347 0.0
H597 H 0.82701 0.95017 0.58185 0.0
H598 H 0.79837 0.95604 0.54608 0.0
H599 H 0.84658 0.96139 0.5413 0.0
H600 H 0.89894 0.87511 0.45856 0.0
H601 H 0.85309 0.89244 0.41632 0.0
H602 H 0.77907 0.92422 0.49509 0.0
C603 C 0.88536 0.89649 0.58771 0.0
C604 C 0.92178 0.88455 0.59073 0.0
C605 C 0.94024 0.87185 0.56241 0.0
C606 C 0.92318 0.87216 0.53129 0.0
C607 C 0.88745 0.88467 0.52907 0.0
C608 C 0.86857 0.89611 0.55668 0.0
C609 C 0.83069 0.90894 0.54757 0.0
C610 C 0.80168 0.88781 0.566 0.0
C611 C 0.82538 0.94634 0.55461 0.0
C612 C 0.83137 0.90356 0.51032 0.0
C613 C 0.86446 0.88974 0.5001 0.0
C614 C 0.87268 0.88519 0.46641 0.0
C615 C 0.84654 0.89512 0.4426 0.0
C616 C 0.81234 0.90887 0.45258 0.0
C617 C 0.80457 0.91275 0.48693 0.0
H618 H 0.33271 0.65005 0.70989 0.0
H619 H 0.35651 0.54871 0.74891 0.0
H620 H 0.37806 0.57148 0.80143 0.0
H621 H 0.40518 0.69351 0.7491 0.0
H622 H 0.37561 0.72906 0.75764 0.0
H623 H 0.36817 0.70492 0.72168 0.0
H624 H 0.30195 0.69502 0.74217 0.0
H625 H 0.30909 0.71919 0.77801 0.0
H626 H 0.29377 0.67686 0.78369 0.0
H627 H 0.39374 0.60645 0.85099 0.0
H628 H 0.39385 0.64847 0.8947 0.0
H629 H 0.3537 0.72495 0.82321 0.0
C630 C 0.34355 0.63257 0.72899 0.0
C631 C 0.34396 0.59768 0.72509 0.0
C632 C 0.35667 0.57559 0.75131 0.0
C633 C 0.36902 0.58833 0.78107 0.0
C634 C 0.36785 0.62307 0.78417 0.0
C635 C 0.35491 0.64474 0.75886 0.0
C636 C 0.35148 0.68045 0.7695 0.0
C637 C 0.37662 0.70332 0.74821 0.0
C638 C 0.31173 0.69362 0.76828 0.0
C639 C 0.36431 0.67572 0.80497 0.0
C640 C 0.37449 0.64266 0.81291 0.0
C641 C 0.38615 0.6324 0.84487 0.0
C642 C 0.3864 0.65639 0.86944 0.0
C643 C 0.37427 0.68981 0.86188 0.0
C644 C 0.3637 0.6996 0.82924 0.0
H645 H 0.54303 0.12348 0.06226 0.0
H646 H 0.59497 0.05481 0.13515 0.0
H647 H 0.64746 0.04752 0.09639 0.0
H648 H 0.56812 0.07653 0.9921 0.0
H649 H 0.57468 0.11264 0.96403 0.0
H650 H 0.54316 0.11529 0.99888 0.0
H651 H 0.5771 0.16604 0.01945 0.0
H652 H 0.60888 0.16334 0.98471 0.0
H653 H 0.62511 0.16185 0.02693 0.0
H654 H 0.69396 0.04754 0.04989 0.0
H655 H 0.72777 0.04879 0.99571 0.0
H656 H 0.64292 0.11294 0.95124 0.0
C657 C 0.56575 0.10733 0.07014 0.0
C658 C 0.56537 0.09 0.10169 0.0
C659 C 0.59498 0.06836 0.11101 0.0
C660 C 0.62494 0.06424 0.08931 0.0
C661 C 0.62452 0.0816 0.05826 0.0
C662 C 0.59549 0.1023 0.04845 0.0
C663 C 0.60037 0.1156 0.0126 0.0
C664 C 0.56977 0.10432 0.99062 0.0
C665 C 0.60303 0.15399 0.01083 0.0
C666 C 0.63639 0.09871 0.00368 0.0
C667 C 0.65031 0.07993 0.03065 0.0
C668 C 0.68341 0.06219 0.02859 0.0
C669 C 0.70248 0.06319 0.99789 0.0
C670 C 0.68784 0.0811 0.96969 0.0
C671 C 0.65457 0.09921 0.97265 0.0
H672 H 0.64056 0.23079 0.68611 0.0
H673 H 0.60333 0.13886 0.64676 0.0
H674 H 0.61528 0.10899 0.70127 0.0
H675 H 0.71359 0.19355 0.72965 0.0
H676 H 0.70957 0.22088 0.76413 0.0
H677 H 0.69432 0.2354 0.72341 0.0
H678 H 0.63049 0.24947 0.74855 0.0
H679 H 0.64553 0.23492 0.78944 0.0
H680 H 0.60619 0.2173 0.77197 0.0
H681 H 0.63645 0.0884 0.75862 0.0
H682 H 0.6661 0.07855 0.81317 0.0
H683 H 0.689 0.18439 0.81414 0.0
C684 C 0.6342 0.20451 0.68904 0.0
C685 C 0.62073 0.18721 0.66224 0.0
C686 C 0.61345 0.15268 0.66702 0.0
C687 C 0.62008 0.13553 0.6979 0.0
C688 C 0.63387 0.15335 0.72365 0.0
C689 C 0.64081 0.18709 0.71946 0.0
C690 C 0.65812 0.20004 0.74998 0.0
C691 C 0.69614 0.21323 0.74126 0.0
C692 C 0.63361 0.22703 0.76593 0.0
C693 C 0.66025 0.16824 0.772 0.0
C694 C 0.64598 0.14157 0.75651 0.0
C695 C 0.64722 0.10919 0.77117 0.0
C696 C 0.6641 0.10385 0.80214 0.0
C697 C 0.67953 0.13078 0.81805 0.0
C698 C 0.67683 0.16342 0.80299 0.0
H699 H 0.15255 0.4303 0.03427 0.0
H700 H 0.06435 0.3922 0.09749 0.0
H701 H 0.03486 0.37237 0.04795 0.0
H702 H 0.10041 0.46247 0.96941 0.0
H703 H 0.13107 0.45091 0.93586 0.0
H704 H 0.14846 0.45764 0.97652 0.0
H705 H 0.17877 0.39814 0.97861 0.0
H706 H 0.16161 0.39129 0.93775 0.0
H707 H 0.15164 0.36232 0.97246 0.0
H708 H 0.0115 0.36237 0.9922 0.0
H709 H 0.99538 0.36259 0.93294 0.0
H710 H 0.09808 0.40748 0.90474 0.0
C711 C 0.12758 0.41691 0.03778 0.0
C712 C 0.11088 0.41259 0.0698 0.0
C713 C 0.07779 0.39562 0.07327 0.0
C714 C 0.06083 0.38417 0.04527 0.0
C715 C 0.07746 0.3896 0.014 0.0
C716 C 0.11023 0.40529 0.01001 0.0
C717 C 0.12075 0.41019 0.97327 0.0
C718 C 0.12541 0.44752 0.96319 0.0
C719 C 0.15524 0.38923 0.96504 0.0
C720 C 0.08782 0.39643 0.95731 0.0
C721 C 0.06363 0.38404 0.98136 0.0
C722 C 0.03045 0.37147 0.97307 0.0
C723 C 0.02154 0.37177 0.93928 0.0
C724 C 0.04551 0.38495 0.91414 0.0
C725 C 0.07931 0.39701 0.92335 0.0
H726 H 0.80472 0.82599 0.32088 0.0
H727 H 0.76666 0.92481 0.28419 0.0
H728 H 0.78155 0.90963 0.22636 0.0
H729 H 0.8802 0.81722 0.25865 0.0
H730 H 0.87358 0.77301 0.25531 0.0
H731 H 0.86284 0.79261 0.29409 0.0
H732 H 0.79757 0.77069 0.293 0.0
H733 H 0.80794 0.75128 0.25413 0.0
H734 H 0.77005 0.78077 0.25698 0.0
H735 H 0.79356 0.88172 0.17239 0.0
H736 H 0.80688 0.84452 0.1259 0.0
H737 H 0.84031 0.7645 0.19697 0.0
C738 C 0.80022 0.84469 0.30075 0.0
C739 C 0.78463 0.87667 0.30716 0.0
C740 C 0.77887 0.90028 0.28004 0.0
C741 C 0.78714 0.89185 0.24704 0.0
C742 C 0.80165 0.85987 0.24153 0.0
C743 C 0.80871 0.83681 0.26764 0.0
C744 C 0.82332 0.80378 0.25472 0.0
C745 C 0.8623 0.79622 0.26639 0.0
C746 C 0.79822 0.77494 0.26534 0.0
C747 C 0.82246 0.81157 0.21725 0.0
C748 C 0.80979 0.84409 0.21025 0.0
C749 C 0.80414 0.85644 0.17755 0.0
C750 C 0.81162 0.83506 0.15133 0.0
C751 C 0.825 0.80178 0.15782 0.0
C752 C 0.83081 0.79004 0.19125 0.0
H753 H 0.35205 0.52208 0.54989 0.0
H754 H 0.31547 0.62202 0.57641 0.0
H755 H 0.34517 0.6458 0.52517 0.0
H756 H 0.43904 0.54531 0.51581 0.0
H757 H 0.43926 0.5174 0.48177 0.0
H758 H 0.41542 0.50644 0.52018 0.0
H759 H 0.35565 0.50015 0.48996 0.0
H760 H 0.37872 0.50942 0.45061 0.0
H761 H 0.33877 0.53378 0.46223 0.0
H762 H 0.37952 0.65886 0.47136 0.0
H763 H 0.41535 0.65981 0.41829 0.0
H764 H 0.42716 0.55126 0.42628 0.0
C765 C 0.35032 0.54895 0.54508 0.0
C766 C 0.33129 0.57011 0.56723 0.0
C767 C 0.32974 0.60522 0.55981 0.0
C768 C 0.34658 0.61901 0.53079 0.0
C769 C 0.36484 0.59739 0.50943 0.0
C770 C 0.36687 0.56312 0.51622 0.0
C771 C 0.38778 0.54538 0.48891 0.0
C772 C 0.42244 0.52763 0.50252 0.0
C773 C 0.36378 0.52074 0.47192 0.0
C774 C 0.39684 0.575 0.46561 0.0
C775 C 0.3837 0.60482 0.47801 0.0
C776 C 0.38982 0.63565 0.46134 0.0
C777 C 0.41019 0.63595 0.43131 0.0
C778 C 0.42374 0.6056 0.41822 0.0
C779 C 0.41668 0.57481 0.4355 0.0
H780 H 0.1668 0.18486 0.35371 0.0
H781 H 0.20062 0.12381 0.44105 0.0
H782 H 0.25521 0.10447 0.40992 0.0
H783 H 0.20171 0.12546 0.29083 0.0
H784 H 0.21542 0.15903 0.26199 0.0
H785 H 0.17701 0.16519 0.28995 0.0
H786 H 0.20658 0.21663 0.31058 0.0
H787 H 0.24669 0.2108 0.28503 0.0
H788 H 0.25061 0.21317 0.32969 0.0
H789 H 0.30827 0.0945 0.37057 0.0
H790 H 0.35665 0.09676 0.32678 0.0
H791 H 0.2888 0.16495 0.26565 0.0
C792 C 0.18533 0.16698 0.36616 0.0
C793 C 0.17922 0.15575 0.39986 0.0
C794 C 0.20447 0.13263 0.41522 0.0
C795 C 0.2356 0.12144 0.39772 0.0
C796 C 0.24104 0.13333 0.36474 0.0
C797 C 0.21653 0.15547 0.34903 0.0
C798 C 0.22976 0.16571 0.31396 0.0
C799 C 0.20447 0.15308 0.28763 0.0
C800 C 0.23374 0.20387 0.30963 0.0
C801 C 0.26623 0.14719 0.31308 0.0
C802 C 0.27189 0.128 0.34227 0.0
C803 C 0.30398 0.10918 0.34747 0.0
C804 C 0.33125 0.1105 0.32239 0.0
C805 C 0.32642 0.13091 0.29276 0.0
C806 C 0.29321 0.14901 0.28797 0.0
H807 H 0.07557 0.06707 0.52671 0.0
H808 H 0.0936 0.13526 0.60544 0.0
H809 H 0.09517 0.08758 0.64696 0.0
H810 H 0.01448 0.01608 0.57419 0.0
H811 H 0.03001 0.97725 0.55677 0.0
H812 H 0.03408 0.01613 0.53249 0.0
H813 H 0.10308 0.00384 0.52459 0.0
H814 H 0.09926 0.96499 0.54912 0.0
H815 H 0.13077 0.99569 0.56083 0.0
H816 H 0.09359 0.03415 0.67975 0.0
H817 H 0.08146 0.97806 0.70421 0.0
H818 H 0.06052 0.94366 0.60526 0.0
C819 C 0.08029 0.07178 0.55266 0.0
C820 C 0.08485 0.10467 0.563 0.0
C821 C 0.09012 0.11018 0.59714 0.0
C822 C 0.09134 0.08328 0.62081 0.0
C823 C 0.08683 0.05116 0.60989 0.0
C824 C 0.08089 0.04521 0.57678 0.0
C825 C 0.0737 0.00853 0.57241 0.0
C826 C 0.03581 0.00427 0.55813 0.0
C827 C 0.10348 0.99231 0.55044 0.0
C828 C 0.07574 0.99506 0.60842 0.0
C829 C 0.0842 0.02005 0.62935 0.0
C830 C 0.08697 0.01429 0.66371 0.0
C831 C 0.07998 0.98227 0.67733 0.0
C832 C 0.06976 0.95647 0.65668 0.0
C833 C 0.06827 0.96285 0.62167 0.0
H834 H 0.16717 0.87919 0.79069 0.0
H835 H 0.119 0.78139 0.803 0.0
H836 H 0.16446 0.76375 0.84462 0.0
H837 H 0.26026 0.84751 0.7977 0.0
H838 H 0.27522 0.88229 0.82027 0.0
H839 H 0.23832 0.88829 0.7916 0.0
H840 H 0.1973 0.9117 0.83896 0.0
H841 H 0.23405 0.90567 0.86779 0.0
H842 H 0.19103 0.88688 0.87742 0.0
H843 H 0.21421 0.75549 0.88351 0.0
H844 H 0.26785 0.7566 0.91857 0.0
H845 H 0.28622 0.85932 0.88307 0.0
C846 C 0.1661 0.85422 0.80244 0.0
C847 C 0.13935 0.83172 0.7937 0.0
C848 C 0.13917 0.79907 0.80919 0.0
C849 C 0.16486 0.78878 0.83296 0.0
C850 C 0.19083 0.81132 0.84097 0.0
C851 C 0.19197 0.8433 0.82624 0.0
C852 C 0.22385 0.86183 0.83908 0.0
C853 C 0.25102 0.87049 0.81046 0.0
C854 C 0.21076 0.89339 0.85688 0.0
C855 C 0.23984 0.83535 0.86363 0.0
C856 C 0.22026 0.80643 0.86396 0.0
C857 C 0.22979 0.77797 0.88359 0.0
C858 C 0.26041 0.77884 0.90334 0.0
C859 C 0.28122 0.808 0.90354 0.0
C860 C 0.27057 0.83682 0.88366 0.0
H861 H 0.43598 0.02883 0.13466 0.0
H862 H 0.36793 0.09875 0.07564 0.0
H863 H 0.34354 0.05138 0.04654 0.0
H864 H 0.46115 0.97848 0.06881 0.0
H865 H 0.46206 0.9395 0.09351 0.0
H866 H 0.47024 0.97814 0.11291 0.0
H867 H 0.41807 0.96635 0.15596 0.0
H868 H 0.40983 0.92754 0.13672 0.0
H869 H 0.37344 0.95833 0.14135 0.0
H870 H 0.33028 0.99696 0.0209 0.0
H871 H 0.33068 0.94012 -0.00075 0.0
H872 H 0.40928 0.90624 0.07375 0.0
C873 C 0.41517 0.03413 0.11629 0.0
C874 C 0.40337 0.06743 0.10774 0.0
C875 C 0.37704 0.07339 0.08277 0.0
C876 C 0.36302 0.04665 0.06618 0.0
C877 C 0.3758 0.01416 0.07472 0.0
C878 C 0.40134 0.00782 0.09917 0.0
C879 C 0.41315 0.97109 0.10148 0.0
C880 C 0.45406 0.96656 0.0937 0.0
C881 C 0.403 0.95488 0.13593 0.0
C882 C 0.39064 0.95783 0.07417 0.0
C883 C 0.36895 0.98296 0.05931 0.0
C884 C 0.34688 0.97701 0.03257 0.0
C885 C 0.34729 0.94462 0.02044 0.0
C886 C 0.3699 0.91866 0.03484 0.0
C887 C 0.39147 0.92543 0.06233 0.0
H888 H 0.87484 0.34157 0.63854 0.0
H889 H 0.84256 0.41348 0.71226 0.0
H890 H 0.77876 0.41042 0.69531 0.0
H891 H 0.80538 0.37073 0.57456 0.0
H892 H 0.79937 0.3284 0.56255 0.0
H893 H 0.8429 0.34066 0.57657 0.0
H894 H 0.84235 0.292 0.62185 0.0
H895 H 0.79877 0.27986 0.60831 0.0
H896 H 0.80477 0.28928 0.6514 0.0
H897 H 0.71818 0.39219 0.67733 0.0
H898 H 0.66554 0.36323 0.65689 0.0
H899 H 0.73737 0.30453 0.59342 0.0
C900 C 0.85448 0.35744 0.65042 0.0
C901 C 0.86358 0.37784 0.67664 0.0
C902 C 0.83621 0.39799 0.69185 0.0
C903 C 0.79991 0.39635 0.68242 0.0
C904 C 0.79165 0.375 0.6573 0.0
C905 C 0.81827 0.3564 0.64103 0.0
C906 C 0.80205 0.33353 0.61664 0.0
C907 C 0.81308 0.34396 0.58043 0.0
C908 C 0.81261 0.29649 0.62509 0.0
C909 C 0.76203 0.34072 0.62314 0.0
C910 C 0.7566 0.36504 0.64635 0.0
C911 C 0.72206 0.37373 0.65855 0.0
C912 C 0.69234 0.35702 0.64692 0.0
C913 C 0.69735 0.33186 0.62336 0.0
C914 C 0.73263 0.32411 0.61094 0.0
H915 H 0.91681 0.45502 0.92267 0.0
H916 H 0.91634 0.48669 0.81739 0.0
H917 H 0.89564 0.54375 0.83247 0.0
H918 H 0.8388 0.50681 0.9506 0.0
H919 H 0.86006 0.51564 0.98919 0.0
H920 H 0.87029 0.47657 0.96976 0.0
H921 H 0.93891 0.48893 0.96915 0.0
H922 H 0.92895 0.52787 0.98866 0.0
H923 H 0.95425 0.52771 0.94959 0.0
H924 H 0.88005 0.5987 0.85981 0.0
H925 H 0.87461 0.64678 0.89675 0.0
H926 H 0.88703 0.5789 0.98367 0.0
C927 C 0.91154 0.47367 0.90266 0.0
C928 C 0.91772 0.46624 0.8688 0.0
C929 C 0.91146 0.49172 0.84349 0.0
C930 C 0.89961 0.52417 0.85184 0.0
C931 C 0.89423 0.53072 0.88559 0.0
C932 C 0.90017 0.50613 0.91056 0.0
C933 C 0.89592 0.52009 0.94497 0.0
C934 C 0.86438 0.5038 0.9648 0.0
C935 C 0.93162 0.51591 0.96421 0.0
C936 C 0.88709 0.55656 0.93563 0.0
C937 C 0.88574 0.56219 0.90125 0.0
C938 C 0.8803 0.59441 0.88672 0.0
C939 C 0.87695 0.62151 0.90782 0.0
C940 C 0.87909 0.61616 0.94293 0.0
C941 C 0.88386 0.58332 0.95695 0.0
H942 H 0.74896 0.70286 0.09952 0.0
H943 H 0.79918 0.60298 0.10478 0.0
H944 H 0.7437 0.5811 0.13282 0.0
H945 H 0.71394 0.69949 0.17829 0.0
H946 H 0.67267 0.72334 0.16929 0.0
H947 H 0.71247 0.72975 0.14335 0.0
H948 H 0.67694 0.71663 0.09063 0.0
H949 H 0.63666 0.7108 0.11634 0.0
H950 H 0.65303 0.67803 0.08994 0.0
H951 H 0.68637 0.57236 0.16872 0.0
H952 H 0.63182 0.57738 0.20587 0.0
H953 H 0.62197 0.68348 0.17722 0.0
C954 C 0.748 0.67616 0.10553 0.0
C955 C 0.77844 0.65464 0.10002 0.0
C956 C 0.77612 0.61994 0.10868 0.0
C957 C 0.74472 0.60729 0.12464 0.0
C958 C 0.71593 0.62966 0.13144 0.0
C959 C 0.71721 0.66332 0.12165 0.0
C960 C 0.68487 0.68305 0.13498 0.0
C961 C 0.69672 0.7105 0.15782 0.0
C962 C 0.66149 0.69799 0.10625 0.0
C963 C 0.66568 0.65551 0.1547 0.0
C964 C 0.68356 0.62477 0.15219 0.0
C965 C 0.67183 0.59623 0.17038 0.0
C966 C 0.64103 0.59933 0.19156 0.0
C967 C 0.62268 0.6308 0.19446 0.0
C968 C 0.63518 0.65898 0.1755 0.0
H969 H 0.56378 0.41171 0.48552 0.0
H970 H 0.6485 0.37853 0.41671 0.0
H971 H 0.63954 0.43157 0.38206 0.0
H972 H 0.50508 0.45171 0.42591 0.0
H973 H 0.49192 0.48566 0.4521 0.0
H974 H 0.50503 0.4453 0.47083 0.0
H975 H 0.55435 0.47231 0.50477 0.0
H976 H 0.54098 0.51289 0.48674 0.0
H977 H 0.58757 0.49806 0.48324 0.0
H978 H 0.61734 0.48806 0.35352 0.0
H979 H 0.58975 0.54418 0.33781 0.0
H980 H 0.52381 0.53976 0.42886 0.0
C981 C 0.58061 0.41554 0.46321 0.0
C982 C 0.60674 0.39107 0.45363 0.0
C983 C 0.62844 0.39715 0.42447 0.0
C984 C 0.62335 0.42705 0.40463 0.0
C985 C 0.59691 0.45059 0.41475 0.0
C986 C 0.57637 0.44519 0.44372 0.0
C987 C 0.55047 0.47436 0.45013 0.0
C988 C 0.51079 0.46359 0.4497 0.0
C989 C 0.55887 0.49035 0.48317 0.0
C990 C 0.55953 0.49732 0.42026 0.0
C991 C 0.58588 0.48315 0.39969 0.0
C992 C 0.59713 0.4995 0.36975 0.0
C993 C 0.58134 0.53124 0.36099 0.0
C994 C 0.55533 0.54639 0.38252 0.0
C995 C 0.54433 0.52906 0.41236 0.0
H996 H 0.3012 0.33294 0.12356 0.0
H997 H 0.35351 0.38946 0.19761 0.0
H998 H 0.39614 0.34182 0.20949 0.0
H999 H 0.30306 0.25648 0.1693 0.0
H1000 H 0.31265 0.23022 0.1346 0.0
H1001 H 0.2894 0.27022 0.12772 0.0
H1002 H 0.33828 0.28818 0.08355 0.0
H1003 H 0.36151 0.24802 0.08998 0.0
H1004 H 0.38544 0.28609 0.09462 0.0
H1005 H 0.43008 0.28757 0.21679 0.0
H1006 H 0.45366 0.22888 0.21889 0.0
H1007 H 0.37815 0.20499 0.14289 0.0
C1008 C 0.32244 0.33553 0.14141 0.0
C1009 C 0.32449 0.36503 0.15935 0.0
C1010 C 0.35176 0.36718 0.18341 0.0
C1011 C 0.3761 0.34026 0.19033 0.0
C1012 C 0.3728 0.31115 0.1731 0.0
C1013 C 0.34686 0.30851 0.149 0.0
C1014 C 0.34771 0.27329 0.13613 0.0
C1015 C 0.31102 0.25658 0.14232 0.0
C1016 C 0.3589 0.27394 0.09885 0.0
C1017 C 0.37714 0.25643 0.15768 0.0
C1018 C 0.39164 0.27902 0.17834 0.0
C1019 C 0.41901 0.26963 0.20072 0.0
C1020 C 0.43204 0.23624 0.20199 0.0
C1021 C 0.41722 0.21256 0.18158 0.0
C1022 C 0.38955 0.22274 0.15901 0.0
H1023 H 0.91425 0.29356 0.85497 0.0
H1024 H 0.89921 0.30496 0.74741 0.0
H1025 H 0.86224 0.25521 0.74969 0.0
H1026 H 0.92191 0.20414 0.85978 0.0
H1027 H 0.89654 0.19872 0.89861 0.0
H1028 H 0.92106 0.2365 0.88968 0.0
H1029 H 0.86206 0.27226 0.8986 0.0
H1030 H 0.8374 0.23457 0.90774 0.0
H1031 H 0.82245 0.26415 0.87505 0.0
H1032 H 0.83 0.20362 0.76165 0.0
H1033 H 0.8009 0.15258 0.78373 0.0
H1034 H 0.83404 0.17297 0.88409 0.0
C1035 C 0.90304 0.28562 0.83198 0.0
C1036 C 0.91 0.30319 0.80099 0.0
C1037 C 0.89465 0.292 0.77148 0.0
C1038 C 0.87344 0.26371 0.77243 0.0
C1039 C 0.86749 0.24679 0.80309 0.0
C1040 C 0.88146 0.25724 0.83244 0.0
C1041 C 0.87084 0.23378 0.86184 0.0
C1042 C 0.90461 0.21731 0.87845 0.0
C1043 C 0.84675 0.2523 0.88731 0.0
C1044 C 0.84946 0.20833 0.8441 0.0
C1045 C 0.84795 0.21659 0.81023 0.0
C1046 C 0.83074 0.19688 0.78816 0.0
C1047 C 0.81444 0.1678 0.80098 0.0
C1048 C 0.81526 0.15871 0.83563 0.0
C1049 C 0.83292 0.17936 0.85751 0.0
H1050 H 0.06138 0.54805 0.13951 0.0
H1051 H 0.10813 0.54766 0.03881 0.0
H1052 H 0.06182 0.58933 0.01957 0.0
H1053 H 0.96702 0.55751 0.11418 0.0
H1054 H 0.95416 0.58491 0.14721 0.0
H1055 H 0.9904 0.55399 0.15334 0.0
H1056 H 0.03359 0.60068 0.16818 0.0
H1057 H 0.99752 0.63173 0.16195 0.0
H1058 H 0.03991 0.63602 0.13904 0.0
H1059 H 0.01243 0.63157 0.01096 0.0
H1060 H 0.961 0.67236 0.01344 0.0
H1061 H 0.94501 0.64628 0.11922 0.0
C1062 C 0.0617 0.55663 0.11341 0.0
C1063 C 0.08844 0.54464 0.09071 0.0
C1064 C 0.08804 0.55653 0.05675 0.0
C1065 C 0.0618 0.58019 0.04549 0.0
C1066 C 0.0361 0.59175 0.06846 0.0
C1067 C 0.03562 0.58043 0.10167 0.0
C1068 C 0.00507 0.59757 0.12104 0.0
C1069 C 0.97753 0.57196 0.13474 0.0
C1070 C 0.01993 0.6177 0.14922 0.0
C1071 C 0.98893 0.62052 0.09356 0.0
C1072 C 0.00722 0.6165 0.06343 0.0
C1073 C 0.99766 0.63483 0.03432 0.0
C1074 C 0.96834 0.65778 0.03593 0.0
C1075 C 0.94892 0.66216 0.06639 0.0
C1076 C 0.95955 0.64349 0.09565 0.0
H1077 H 0.65049 0.82764 0.39189 0.0
H1078 H 0.64855 0.87938 0.29374 0.0
H1079 H 0.61437 0.83388 0.27209 0.0
H1080 H 0.66107 0.74415 0.36239 0.0
H1081 H 0.63165 0.72519 0.39401 0.0
H1082 H 0.65595 0.76204 0.40278 0.0
H1083 H 0.59547 0.79273 0.41858 0.0
H1084 H 0.57102 0.75591 0.41 0.0
H1085 H 0.55911 0.79564 0.3891 0.0
H1086 H 0.58384 0.78223 0.25943 0.0
H1087 H 0.55348 0.72826 0.25783 0.0
H1088 H 0.57092 0.71 0.3642 0.0
C1089 C 0.64262 0.82944 0.36595 0.0
C1090 C 0.65234 0.85718 0.34458 0.0
C1091 C 0.64153 0.85853 0.31073 0.0
C1092 C 0.6221 0.83273 0.29806 0.0
C1093 C 0.61326 0.80569 0.31952 0.0
C1094 C 0.62272 0.80386 0.35281 0.0
C1095 C 0.60939 0.77175 0.37022 0.0
C1096 C 0.64143 0.74947 0.38311 0.0
C1097 C 0.58212 0.77949 0.39865 0.0
C1098 C 0.59101 0.7561 0.34144 0.0
C1099 C 0.59407 0.77604 0.31239 0.0
C1100 C 0.58085 0.76651 0.28206 0.0
C1101 C 0.56377 0.73579 0.28137 0.0
C1102 C 0.55955 0.71519 0.31091 0.0
C1103 C 0.57329 0.72556 0.34136 0.0
H1104 H 0.52864 0.31882 0.61444 0.0
H1105 H 0.58441 0.38605 0.54338 0.0
H1106 H 0.53673 0.4295 0.55148 0.0
H1107 H 0.44051 0.33914 0.59339 0.0
H1108 H 0.42161 0.33894 0.63535 0.0
H1109 H 0.46173 0.31383 0.62651 0.0
H1110 H 0.49623 0.34279 0.67221 0.0
H1111 H 0.45602 0.36792 0.68139 0.0
H1112 H 0.49813 0.38788 0.67068 0.0
H1113 H 0.48031 0.46248 0.5612 0.0
H1114 H 0.41923 0.48523 0.57548 0.0
H1115 H 0.40093 0.39936 0.64344 0.0
C1116 C 0.53104 0.34287 0.60099 0.0
C1117 C 0.55979 0.34878 0.5777 0.0
C1118 C 0.5623 0.38069 0.56087 0.0
C1119 C 0.5355 0.40568 0.56549 0.0
C1120 C 0.50708 0.39881 0.58796 0.0
C1121 C 0.50499 0.36854 0.60604 0.0
C1122 C 0.47103 0.36766 0.62816 0.0
C1123 C 0.44732 0.33816 0.62035 0.0
C1124 C 0.48095 0.36649 0.66532 0.0
C1125 C 0.45316 0.40118 0.61778 0.0
C1126 C 0.47486 0.41887 0.59493 0.0
C1127 C 0.46343 0.4493 0.57964 0.0
C1128 C 0.42872 0.46188 0.58767 0.0
C1129 C 0.4059 0.44411 0.61063 0.0
C1130 C 0.41842 0.41372 0.62646 0.0
H1131 H 0.15448 0.65435 0.63828 0.0
H1132 H 0.25248 0.66088 0.69578 0.0
H1133 H 0.23819 0.72034 0.70389 0.0
H1134 H 0.15759 0.73585 0.59706 0.0
H1135 H 0.10936 0.74453 0.59981 0.0
H1136 H 0.12654 0.70187 0.59809 0.0
H1137 H 0.092 0.68574 0.65334 0.0
H1138 H 0.07414 0.72816 0.65488 0.0
H1139 H 0.09863 0.70933 0.68987 0.0
H1140 H 0.21666 0.77912 0.70283 0.0
H1141 H 0.18264 0.8331 0.70169 0.0
H1142 H 0.09584 0.78928 0.64864 0.0
C1143 C 0.17275 0.66827 0.65274 0.0
C1144 C 0.20479 0.65301 0.66604 0.0
C1145 C 0.22788 0.67198 0.68511 0.0
C1146 C 0.22015 0.70588 0.68976 0.0
C1147 C 0.18904 0.7204 0.67552 0.0
C1148 C 0.1652 0.70222 0.65807 0.0
C1149 C 0.13301 0.72409 0.64651 0.0
C1150 C 0.13156 0.72673 0.60808 0.0
C1151 C 0.09734 0.71105 0.6621 0.0
C1152 C 0.14263 0.75726 0.66036 0.0
C1153 C 0.17549 0.75454 0.67633 0.0
C1154 C 0.1908 0.78166 0.69055 0.0
C1155 C 0.17144 0.81231 0.68942 0.0
C1156 C 0.1368 0.81535 0.67482 0.0
C1157 C 0.12241 0.78758 0.65971 0.0
H1158 H 0.47678 0.87935 0.87857 0.0
H1159 H 0.43917 0.89921 0.97941 0.0
H1160 H 0.49147 0.93454 0.98669 0.0
H1161 H 0.57379 0.87465 0.9001 0.0
H1162 H 0.58868 0.89377 0.86064 0.0
H1163 H 0.54826 0.86952 0.86291 0.0
H1164 H 0.5115 0.92023 0.83676 0.0
H1165 H 0.55174 0.94467 0.83459 0.0
H1166 H 0.5116 0.95998 0.85626 0.0
H1167 H 0.54526 0.96848 0.98328 0.0
H1168 H 0.60136 0.99831 0.97048 0.0
H1169 H 0.60767 0.95655 0.87216 0.0
C1170 C 0.47987 0.89115 0.90209 0.0
C1171 C 0.45419 0.88665 0.92854 0.0
C1172 C 0.45885 0.9022 0.95907 0.0
C1173 C 0.48836 0.92237 0.9634 0.0
C1174 C 0.51328 0.9264 0.93706 0.0
C1175 C 0.50985 0.91103 0.90712 0.0
C1176 C 0.54149 0.91925 0.88344 0.0
C1177 C 0.56441 0.8874 0.87636 0.0
C1178 C 0.52827 0.93711 0.85083 0.0
C1179 C 0.56219 0.94263 0.90437 0.0
C1180 C 0.54537 0.946 0.93527 0.0
C1181 C 0.55892 0.96595 0.95927 0.0
C1182 C 0.59085 0.98278 0.95171 0.0
C1183 C 0.60894 0.97972 0.92034 0.0
C1184 C 0.59428 0.9595 0.89625 0.0
H1185 H 0.88871 0.03348 0.36354 0.0
H1186 H 0.82231 0.07258 0.44436 0.0
H1187 H 0.86782 0.11496 0.4533 0.0
H1188 H 0.9694 0.03598 0.40361 0.0
H1189 H 0.99712 0.04806 0.3676 0.0
H1190 H 0.95622 0.02585 0.36226 0.0
H1191 H 0.93273 0.07339 0.32108 0.0
H1192 H 0.97373 0.09581 0.32629 0.0
H1193 H 0.93012 0.11598 0.33411 0.0
H1194 H 0.92229 0.14872 0.4577 0.0
H1195 H 0.9847 0.16778 0.46161 0.0
H1196 H 0.01899 0.10431 0.38095 0.0
C1197 C 0.88336 0.05184 0.38222 0.0
C1198 C 0.85188 0.05038 0.40287 0.0
C1199 C 0.84619 0.07372 0.42807 0.0
C1200 C 0.87175 0.09797 0.43319 0.0
C1201 C 0.90303 0.09838 0.41303 0.0
C1202 C 0.90911 0.07587 0.38813 0.0
C1203 C 0.94718 0.07877 0.37327 0.0
C1204 C 0.96874 0.04517 0.37694 0.0
C1205 C 0.94585 0.09176 0.3365 0.0
C1206 C 0.96213 0.1049 0.39505 0.0
C1207 C 0.9357 0.11676 0.41689 0.0
C1208 C 0.94313 0.13997 0.44045 0.0
C1209 C 0.97875 0.15069 0.44241 0.0
C1210 C 0.00679 0.13755 0.42155 0.0
C1211 C 0.99809 0.11494 0.39706 0.0
loop_
_geom_bond_atom_site_label_1
_geom_bond_atom_site_label_2
_geom_bond_distance
_geom_bond_site_symmetry_2
_ccdc_geom_bond_type
Zn0 O6 1.969 . S
Zn0 O7 1.965 . S
Zn0 O11 2.024 . S
Zn0 O16 1.969 . S
Zn1 O8 1.969 . S
Zn1 O14 1.969 . S
Zn1 O15 1.965 . S
Zn1 O17 2.024 . S
C2 O3 1.229 . S
C2 O11 1.058 . S
O3 C2 1.229 . S
C4 O5 1.229 . S
C4 O17 1.058 . S
O5 C4 1.229 . S
O6 Zn0 1.969 . S
O6 C9 1.267 . S
O7 Zn0 1.965 . S
O7 C18 1.260 . S
O8 Zn1 1.969 . S
O8 C18 1.258 . S
C9 O6 1.267 . S
C9 O10 1.228 . S
O10 C9 1.228 . S
O11 Zn0 2.024 . S
O11 C2 1.058 . S
C12 O13 1.228 . S
C12 O14 1.267 . S
O13 C12 1.228 . S
O14 Zn1 1.969 . S
O14 C12 1.267 . S
O15 Zn1 1.965 . S
O15 C19 1.260 . S
O16 Zn0 1.969 . S
O16 C19 1.258 . S
O17 Zn1 2.024 . S
O17 C4 1.058 . S
C18 O7 1.260 . S
C18 O8 1.258 . S
C19 O15 1.260 . S
C19 O16 1.258 . S
Zn20 O26 1.969 . S
Zn20 O27 1.965 1_655 S
Zn20 O31 2.024 . S
Zn20 O36 1.969 . S
Zn21 O28 1.969 . S
Zn21 O34 1.969 . S
Zn21 O35 1.965 . S
Zn21 O37 2.024 . S
C22 O23 1.229 . S
C22 O31 1.058 . S
O23 C22 1.229 . S
C24 O25 1.229 . S
C24 O37 1.058 . S
O25 C24 1.229 . S
O26 Zn20 1.969 . S
O26 C29 1.267 . S
O27 Zn20 1.965 1_455 S
O27 C38 1.260 . S
O28 Zn21 1.969 . S
O28 C38 1.258 . S
C29 O26 1.267 . S
C29 O30 1.228 . S
O30 C29 1.228 . S
O31 Zn20 2.024 . S
O31 C22 1.058 . S
C32 O33 1.228 . S
C32 O34 1.267 . S
O33 C32 1.228 . S
O34 Zn21 1.969 . S
O34 C32 1.267 . S
O35 Zn21 1.965 . S
O35 C39 1.260 . S
O36 Zn20 1.969 . S
O36 C39 1.258 1_655 S
O37 Zn21 2.024 . S
O37 C24 1.058 . S
C38 O27 1.260 . S
C38 O28 1.258 . S
C39 O35 1.260 . S
C39 O36 1.258 1_455 S
Zn40 O46 1.969 . S
Zn40 O47 1.965 . S
Zn40 O51 2.024 . S
Zn40 O56 1.969 . S
Zn41 O48 1.969 . S
Zn41 O54 1.983 . S
Zn41 O55 1.965 . S
Zn41 O57 2.024 . S
C42 O43 1.229 . S
C42 O51 1.058 . S
O43 C42 1.229 . S
C44 O45 1.229 . S
C44 O57 1.058 . S
O45 C44 1.229 . S
O46 Zn40 1.969 . S
O46 C49 1.267 . S
O47 Zn40 1.965 . S
O47 C58 1.260 . S
O48 Zn41 1.969 . S
O48 C58 1.258 . S
C49 O46 1.267 . S
C49 O50 1.228 . S
O50 C49 1.228 . S
O51 Zn40 2.024 . S
O51 C42 1.058 . S
C52 O53 1.228 . S
C52 O54 1.253 1_554 S
O53 C52 1.228 . S
O54 Zn41 1.983 . S
O54 C52 1.253 1_556 S
O55 Zn41 1.965 . S
O55 C59 1.260 . S
O56 Zn40 1.969 . S
O56 C59 1.258 . S
O57 Zn41 2.024 . S
O57 C44 1.058 . S
C58 O47 1.260 . S
C58 O48 1.258 . S
C59 O55 1.260 . S
C59 O56 1.258 . S
Zn60 O66 1.969 . S
Zn60 O67 1.965 . S
Zn60 O71 2.024 . S
Zn60 O76 1.969 . S
Zn61 O68 1.969 . S
Zn61 O74 1.969 . S
Zn61 O75 1.965 . S
Zn61 O77 2.024 . S
C62 O63 1.229 . S
C62 O71 1.058 . S
O63 C62 1.229 . S
C64 O65 1.229 . S
C64 O77 1.058 . S
O65 C64 1.229 . S
O66 Zn60 1.969 . S
O66 C69 1.267 . S
O67 Zn60 1.965 . S
O67 C78 1.260 . S
O68 Zn61 1.969 . S
O68 C78 1.258 . S
C69 O66 1.267 . S
C69 O70 1.228 . S
O70 C69 1.228 . S
O71 Zn60 2.024 . S
O71 C62 1.058 . S
C72 O73 1.228 . S
C72 O74 1.267 . S
O73 C72 1.228 . S
O74 Zn61 1.969 . S
O74 C72 1.267 . S
O75 Zn61 1.965 . S
O75 C79 1.260 . S
O76 Zn60 1.969 . S
O76 C79 1.258 . S
O77 Zn61 2.024 . S
O77 C64 1.058 . S
C78 O67 1.260 . S
C78 O68 1.258 . S
C79 O75 1.260 . S
C79 O76 1.258 . S
Zn80 O86 1.969 . S
Zn80 O87 1.965 . S
Zn80 O91 2.024 . S
Zn80 O96 1.969 . S
Zn81 O88 1.969 . S
Zn81 O94 1.969 . S
Zn81 O95 1.965 . S
Zn81 O97 2.024 . S
C82 O83 1.229 . S
C82 O91 1.058 . S
O83 C82 1.229 . S
C84 O85 1.229 . S
C84 O97 1.058 . S
O85 C84 1.229 . S
O86 Zn80 1.969 . S
O86 C89 1.267 . S
O87 Zn80 1.965 . S
O87 C98 1.260 . S
O88 Zn81 1.969 . S
O88 C98 1.258 . S
C89 O86 1.267 . S
C89 O90 1.228 . S
O90 C89 1.228 . S
O91 Zn80 2.024 . S
O91 C82 1.058 . S
C92 O93 1.228 . S
C92 O94 1.267 . S
O93 C92 1.228 . S
O94 Zn81 1.969 . S
O94 C92 1.267 . S
O95 Zn81 1.965 . S
O95 C99 1.260 . S
O96 Zn80 1.969 . S
O96 C99 1.258 . S
O97 Zn81 2.024 . S
O97 C84 1.058 . S
C98 O87 1.260 . S
C98 O88 1.258 . S
C99 O95 1.260 . S
C99 O96 1.258 . S
Zn100 O106 1.969 . S
Zn100 O107 1.965 . S
Zn100 O111 2.024 . S
Zn100 O116 1.969 . S
Zn101 O108 1.969 . S
Zn101 O114 1.969 1_655 S
Zn101 O115 1.965 1_655 S
Zn101 O117 2.024 . S
C102 O103 1.229 . S
C102 O111 1.058 . S
O103 C102 1.229 . S
C104 O105 1.229 . S
C104 O117 1.058 . S
O105 C104 1.229 . S
O106 Zn100 1.969 . S
O106 C109 1.267 . S
O107 Zn100 1.965 . S
O107 C118 1.260 . S
O108 Zn101 1.969 . S
O108 C118 1.258 . S
C109 O106 1.267 . S
C109 O110 1.228 . S
O110 C109 1.228 . S
O111 Zn100 2.024 . S
O111 C102 1.058 . S
C112 O113 1.228 . S
C112 O114 1.267 . S
O113 C112 1.228 . S
O114 Zn101 1.969 1_455 S
O114 C112 1.267 . S
O115 Zn101 1.965 1_455 S
O115 C119 1.260 . S
O116 Zn100 1.969 . S
O116 C119 1.258 1_655 S
O117 Zn101 2.024 . S
O117 C104 1.058 . S
C118 O107 1.260 . S
C118 O108 1.258 . S
C119 O115 1.260 . S
C119 O116 1.258 1_455 S
Zn120 O126 1.969 . S
Zn120 O127 1.965 1_556 S
Zn120 O131 2.024 . S
Zn120 O136 1.969 . S
Zn121 O128 1.969 . S
Zn121 O134 1.969 . S
Zn121 O135 1.965 . S
Zn121 O137 2.024 . S
C122 O123 1.229 . S
C122 O131 1.058 . S
O123 C122 1.229 . S
C124 O125 1.229 . S
C124 O137 1.058 . S
O125 C124 1.229 . S
O126 Zn120 1.969 . S
O126 C129 1.267 . S
O127 Zn120 1.965 1_554 S
O127 C138 1.260 . S
O128 Zn121 1.969 . S
O128 C138 1.258 . S
C129 O126 1.267 . S
C129 O130 1.228 . S
O130 C129 1.228 . S
O131 Zn120 2.024 . S
O131 C122 1.058 . S
C132 O133 1.228 . S
C132 O134 1.267 . S
O133 C132 1.228 . S
O134 Zn121 1.969 . S
O134 C132 1.267 . S
O135 Zn121 1.965 . S
O135 C139 1.260 . S
O136 Zn120 1.969 . S
O136 C139 1.258 1_556 S
O137 Zn121 2.024 . S
O137 C124 1.058 . S
C138 O127 1.260 . S
C138 O128 1.258 . S
C139 O135 1.260 . S
C139 O136 1.258 1_554 S
Zn140 O146 1.969 . S
Zn140 O147 1.965 . S
Zn140 O151 2.024 . S
Zn140 O156 1.969 . S
Zn141 O148 1.969 . S
Zn141 O154 1.969 . S
Zn141 O155 1.965 . S
Zn141 O157 2.024 . S
C142 O143 1.229 . S
C142 O151 1.058 . S
O143 C142 1.229 . S
C144 O145 1.229 . S
C144 O157 1.058 . S
O145 C144 1.229 . S
O146 Zn140 1.969 . S
O146 C149 1.267 . S
O147 Zn140 1.965 . S
O147 C158 1.260 . S
O148 Zn141 1.969 . S
O148 C158 1.258 . S
C149 O146 1.267 . S
C149 O150 1.228 . S
O150 C149 1.228 . S
O151 Zn140 2.024 . S
O151 C142 1.058 . S
C152 O153 1.228 . S
C152 O154 1.267 . S
O153 C152 1.228 . S
O154 Zn141 1.969 . S
O154 C152 1.267 . S
O155 Zn141 1.965 . S
O155 C159 1.260 . S
O156 Zn140 1.969 . S
O156 C159 1.258 . S
O157 Zn141 2.024 . S
O157 C144 1.058 . S
C158 O147 1.260 . S
C158 O148 1.258 . S
C159 O155 1.260 . S
C159 O156 1.258 . S
Zn160 O166 1.969 . S
Zn160 O167 1.965 . S
Zn160 O171 2.024 . S
Zn160 O176 1.969 . S
Zn161 O168 1.969 . S
Zn161 O174 1.969 . S
Zn161 O175 1.965 . S
Zn161 O177 2.024 . S
C162 O163 1.229 . S
C162 O171 1.058 . S
O163 C162 1.229 . S
C164 O165 1.229 . S
C164 O177 1.058 . S
O165 C164 1.229 . S
O166 Zn160 1.969 . S
O166 C169 1.267 . S
O167 Zn160 1.965 . S
O167 C178 1.260 . S
O168 Zn161 1.969 . S
O168 C178 1.258 . S
C169 O166 1.267 . S
C169 O170 1.228 . S
O170 C169 1.228 . S
O171 Zn160 2.024 . S
O171 C162 1.058 . S
C172 O173 1.228 . S
C172 O174 1.267 . S
O173 C172 1.228 . S
O174 Zn161 1.969 . S
O174 C172 1.267 . S
O175 Zn161 1.965 . S
O175 C179 1.260 . S
O176 Zn160 1.969 . S
O176 C179 1.258 . S
O177 Zn161 2.024 . S
O177 C164 1.058 . S
C178 O167 1.260 . S
C178 O168 1.258 . S
C179 O175 1.260 . S
C179 O176 1.258 . S
Zn180 O186 1.969 1_545 S
Zn180 O187 1.965 . S
Zn180 O191 2.023 1_545 S
Zn180 O196 1.969 . S
Zn181 O188 1.969 . S
Zn181 O194 1.969 . S
Zn181 O195 1.965 . S
Zn181 O197 2.024 . S
C182 O183 1.229 . S
C182 O191 1.084 . S
O183 C182 1.229 . S
C184 O185 1.229 . S
C184 O197 1.058 . S
O185 C184 1.229 . S
O186 Zn180 1.969 1_565 S
O186 C189 1.267 . S
O187 Zn180 1.965 . S
O187 C198 1.260 . S
O188 Zn181 1.969 . S
O188 C198 1.258 . S
C189 O186 1.267 . S
C189 O190 1.228 . S
O190 C189 1.228 . S
O191 Zn180 2.023 1_565 S
O191 C182 1.084 . S
C192 O193 1.228 . S
C192 O194 1.267 . S
O193 C192 1.228 . S
O194 Zn181 1.969 . S
O194 C192 1.267 . S
O195 Zn181 1.965 . S
O195 C199 1.260 . S
O196 Zn180 1.969 . S
O196 C199 1.258 . S
O197 Zn181 2.024 . S
O197 C184 1.058 . S
C198 O187 1.260 . S
C198 O188 1.258 . S
C199 O195 1.260 . S
C199 O196 1.258 . S
Zn200 O206 1.990 . S
Zn200 O207 1.933 1_545 S
Zn200 O211 2.027 . S
Zn200 O216 1.969 . S
Zn201 O208 1.969 . S
Zn201 O214 1.969 . S
Zn201 O215 1.965 . S
Zn201 O217 2.024 . S
C202 O203 1.229 . S
C202 O211 1.058 . S
O203 C202 1.229 . S
C204 O205 1.229 . S
C204 O217 1.058 . S
O205 C204 1.229 . S
O206 Zn200 1.990 . S
O206 C209 1.267 . S
O207 Zn200 1.933 1_565 S
O207 C218 1.260 . S
O208 Zn201 1.969 . S
O208 C218 1.258 . S
C209 O206 1.267 . S
C209 O210 1.228 . S
O210 C209 1.228 . S
O211 Zn200 2.027 . S
O211 C202 1.058 . S
C212 O213 1.228 . S
C212 O214 1.267 . S
O213 C212 1.228 . S
O214 Zn201 1.969 . S
O214 C212 1.267 . S
O215 Zn201 1.965 . S
O215 C219 1.260 . S
O216 Zn200 1.969 . S
O216 C219 1.258 1_545 S
O217 Zn201 2.024 . S
O217 C204 1.058 . S
C218 O207 1.260 . S
C218 O208 1.258 . S
C219 O215 1.260 . S
C219 O216 1.258 1_565 S
Zn220 O226 1.969 . S
Zn220 O227 1.965 . S
Zn220 O231 2.024 . S
Zn220 O236 1.969 . S
Zn221 O228 1.969 . S
Zn221 O234 1.969 . S
Zn221 O235 1.965 . S
Zn221 O237 2.024 . S
C222 O223 1.229 . S
C222 O231 1.058 . S
O223 C222 1.229 . S
C224 O225 1.229 . S
C224 O237 1.058 . S
O225 C224 1.229 . S
O226 Zn220 1.969 . S
O226 C229 1.267 . S
O227 Zn220 1.965 . S
O227 C238 1.260 . S
O228 Zn221 1.969 . S
O228 C238 1.258 . S
C229 O226 1.267 . S
C229 O230 1.228 . S
O230 C229 1.228 . S
O231 Zn220 2.024 . S
O231 C222 1.058 . S
C232 O233 1.228 . S
C232 O234 1.267 . S
O233 C232 1.228 . S
O234 Zn221 1.969 . S
O234 C232 1.267 . S
O235 Zn221 1.965 . S
O235 C239 1.260 . S
O236 Zn220 1.969 . S
O236 C239 1.258 . S
O237 Zn221 2.024 . S
O237 C224 1.058 . S
C238 O227 1.260 . S
C238 O228 1.258 . S
C239 O235 1.260 . S
C239 O236 1.258 . S
H240 C252 0.930 . S
H241 C254 0.930 . S
H242 C255 0.930 . S
H243 C259 0.959 . S
H244 C259 0.959 . S
H245 C259 0.961 . S
H246 C260 0.960 . S
H247 C260 0.961 . S
H248 C260 0.959 . S
H249 C263 0.929 . S
H250 C264 0.931 . S
H251 C266 0.930 . S
C252 H240 0.930 . S
C252 C253 1.399 . S
C252 C257 1.399 . S
C253 C252 1.399 . S
C253 C254 1.376 . S
C254 H241 0.930 . S
C254 C253 1.376 . S
C254 C255 1.388 . S
C255 H242 0.930 . S
C255 C254 1.388 . S
C255 C256 1.390 . S
C256 C255 1.390 . S
C256 C257 1.394 . S
C256 C262 1.465 . S
C257 C252 1.399 . S
C257 C256 1.394 . S
C257 C258 1.516 . S
C258 C257 1.516 . S
C258 C259 1.502 . S
C258 C260 1.561 . S
C258 C261 1.526 . S
C259 H243 0.959 . S
C259 H244 0.959 . S
C259 H245 0.961 . S
C259 C258 1.502 . S
C260 H246 0.960 . S
C260 H247 0.961 . S
C260 H248 0.959 . S
C260 C258 1.561 . S
C261 C258 1.526 . S
C261 C262 1.396 . S
C261 C266 1.390 . S
C262 C256 1.465 . S
C262 C261 1.396 . S
C262 C263 1.399 . S
C263 H249 0.929 . S
C263 C262 1.399 . S
C263 C264 1.385 . S
C264 H250 0.931 . S
C264 C263 1.385 . S
C264 C265 1.389 . S
C265 C264 1.389 . S
C265 C266 1.387 . S
C266 H251 0.930 . S
C266 C261 1.390 . S
C266 C265 1.387 . S
H267 C279 0.930 . S
H268 C281 0.930 . S
H269 C282 0.930 . S
H270 C286 0.959 . S
H271 C286 0.959 . S
H272 C286 0.961 . S
H273 C287 0.960 . S
H274 C287 0.961 . S
H275 C287 0.959 . S
H276 C290 0.929 . S
H277 C291 0.922 1_545 S
H278 C293 0.930 . S
C279 H267 0.930 . S
C279 C280 1.399 1_565 S
C279 C284 1.399 . S
C280 C279 1.399 1_545 S
C280 C281 1.376 . S
C281 H268 0.930 . S
C281 C280 1.376 . S
C281 C282 1.388 . S
C282 H269 0.930 . S
C282 C281 1.388 . S
C282 C283 1.390 . S
C283 C282 1.390 . S
C283 C284 1.394 1_545 S
C283 C289 1.465 1_545 S
C284 C279 1.399 . S
C284 C283 1.394 1_565 S
C284 C285 1.516 . S
C285 C284 1.516 . S
C285 C286 1.502 . S
C285 C287 1.561 . S
C285 C288 1.526 . S
C286 H270 0.959 . S
C286 H271 0.959 . S
C286 H272 0.961 . S
C286 C285 1.502 . S
C287 H273 0.960 . S
C287 H274 0.961 . S
C287 H275 0.959 . S
C287 C285 1.561 . S
C288 C285 1.526 . S
C288 C289 1.396 . S
C288 C293 1.390 . S
C289 C283 1.465 1_565 S
C289 C288 1.396 . S
C289 C290 1.399 1_565 S
C290 H276 0.929 . S
C290 C289 1.399 1_545 S
C290 C291 1.385 1_545 S
C291 H277 0.922 1_565 S
C291 C290 1.385 1_565 S
C291 C292 1.389 . S
C292 C291 1.389 . S
C292 C293 1.387 . S
C293 H278 0.930 . S
C293 C288 1.390 . S
C293 C292 1.387 . S
H294 C306 0.930 . S
H295 C308 0.930 . S
H296 C309 0.930 . S
H297 C313 0.959 . S
H298 C313 0.959 . S
H299 C313 0.961 . S
H300 C314 0.960 . S
H301 C314 0.961 . S
H302 C314 0.959 1_554 S
H303 C317 0.929 . S
H304 C318 0.931 . S
H305 C320 0.930 . S
C306 H294 0.930 . S
C306 C307 1.399 1_556 S
C306 C311 1.399 1_556 S
C307 C306 1.399 1_554 S
C307 C308 1.376 . S
C308 H295 0.930 . S
C308 C307 1.376 . S
C308 C309 1.388 . S
C309 H296 0.930 . S
C309 C308 1.388 . S
C309 C310 1.390 . S
C310 C309 1.390 . S
C310 C311 1.394 . S
C310 C316 1.465 . S
C311 C306 1.399 1_554 S
C311 C310 1.394 . S
C311 C312 1.516 . S
C312 C311 1.516 . S
C312 C313 1.502 1_554 S
C312 C314 1.561 1_554 S
C312 C315 1.526 . S
C313 H297 0.959 . S
C313 H298 0.959 . S
C313 H299 0.961 . S
C313 C312 1.502 1_556 S
C314 H300 0.960 . S
C314 H301 0.961 . S
C314 H302 0.959 1_556 S
C314 C312 1.561 1_556 S
C315 C312 1.526 . S
C315 C316 1.396 . S
C315 C320 1.390 . S
C316 C310 1.465 . S
C316 C315 1.396 . S
C316 C317 1.399 . S
C317 H303 0.929 . S
C317 C316 1.399 . S
C317 C318 1.385 . S
C318 H304 0.931 . S
C318 C317 1.385 . S
C318 C319 1.389 . S
C319 C318 1.389 . S
C319 C320 1.387 . S
C320 H305 0.930 . S
C320 C315 1.390 . S
C320 C319 1.387 . S
H321 C333 0.930 . S
H322 C335 0.930 . S
H323 C336 0.930 1_565 S
H324 C340 0.959 . S
H325 C340 0.959 . S
H326 C340 0.961 . S
H327 C341 0.960 . S
H328 C341 0.961 . S
H329 C341 0.959 . S
H330 C344 0.929 . S
H331 C345 0.931 . S
H332 C347 0.930 . S
C333 H321 0.930 . S
C333 C334 1.399 . S
C333 C338 1.399 . S
C334 C333 1.399 . S
C334 C335 1.376 . S
C335 H322 0.930 . S
C335 C334 1.376 . S
C335 C336 1.388 . S
C336 H323 0.930 1_545 S
C336 C335 1.388 . S
C336 C337 1.390 . S
C337 C336 1.390 . S
C337 C338 1.394 . S
C337 C343 1.465 . S
C338 C333 1.399 . S
C338 C337 1.394 . S
C338 C339 1.516 . S
C339 C338 1.516 . S
C339 C340 1.502 . S
C339 C341 1.561 . S
C339 C342 1.526 . S
C340 H324 0.959 . S
C340 H325 0.959 . S
C340 H326 0.961 . S
C340 C339 1.502 . S
C341 H327 0.960 . S
C341 H328 0.961 . S
C341 H329 0.959 . S
C341 C339 1.561 . S
C342 C339 1.526 . S
C342 C343 1.396 . S
C342 C347 1.390 . S
C343 C337 1.465 . S
C343 C342 1.396 . S
C343 C344 1.399 1_545 S
C344 H330 0.929 . S
C344 C343 1.399 1_565 S
C344 C345 1.385 . S
C345 H331 0.931 . S
C345 C344 1.385 . S
C345 C346 1.389 . S
C346 C345 1.389 . S
C346 C347 1.387 1_565 S
C347 H332 0.930 . S
C347 C342 1.390 . S
C347 C346 1.387 1_545 S
H348 C360 0.930 . S
H349 C362 0.930 . S
H350 C363 0.930 . S
H351 C367 0.959 . S
H352 C367 0.959 . S
H353 C367 0.961 . S
H354 C368 0.960 . S
H355 C368 0.961 . S
H356 C368 0.959 . S
H357 C371 0.929 . S
H358 C372 0.931 . S
H359 C374 0.930 . S
C360 H348 0.930 . S
C360 C361 1.399 . S
C360 C365 1.399 . S
C361 C360 1.399 . S
C361 C362 1.376 . S
C362 H349 0.930 . S
C362 C361 1.376 . S
C362 C363 1.388 . S
C363 H350 0.930 . S
C363 C362 1.388 . S
C363 C364 1.390 . S
C364 C363 1.390 . S
C364 C365 1.394 . S
C364 C370 1.465 . S
C365 C360 1.399 . S
C365 C364 1.394 . S
C365 C366 1.516 . S
C366 C365 1.516 . S
C366 C367 1.502 . S
C366 C368 1.561 . S
C366 C369 1.526 . S
C367 H351 0.959 . S
C367 H352 0.959 . S
C367 H353 0.961 . S
C367 C366 1.502 . S
C368 H354 0.960 . S
C368 H355 0.961 . S
C368 H356 0.959 . S
C368 C366 1.561 . S
C369 C366 1.526 . S
C369 C370 1.396 . S
C369 C374 1.390 . S
C370 C364 1.465 . S
C370 C369 1.396 . S
C370 C371 1.399 . S
C371 H357 0.929 . S
C371 C370 1.399 . S
C371 C372 1.385 . S
C372 H358 0.931 . S
C372 C371 1.385 . S
C372 C373 1.389 . S
C373 C372 1.389 . S
C373 C374 1.387 . S
C374 H359 0.930 . S
C374 C369 1.390 . S
C374 C373 1.387 . S
H375 C387 0.930 . S
H376 C389 0.930 . S
H377 C390 0.930 . S
H378 C394 0.959 . S
H379 C394 0.959 . S
H380 C394 0.961 . S
H381 C395 0.960 . S
H382 C395 0.961 . S
H383 C395 0.959 . S
H384 C398 0.929 . S
H385 C399 0.931 . S
H386 C401 0.930 . S
C387 H375 0.930 . S
C387 C388 1.399 . S
C387 C392 1.399 . S
C388 C387 1.399 . S
C388 C389 1.376 . S
C389 H376 0.930 . S
C389 C388 1.376 . S
C389 C390 1.388 . S
C390 H377 0.930 . S
C390 C389 1.388 . S
C390 C391 1.390 . S
C391 C390 1.390 . S
C391 C392 1.394 . S
C391 C397 1.465 . S
C392 C387 1.399 . S
C392 C391 1.394 . S
C392 C393 1.516 . S
C393 C392 1.516 . S
C393 C394 1.502 . S
C393 C395 1.561 . S
C393 C396 1.526 . S
C394 H378 0.959 . S
C394 H379 0.959 . S
C394 H380 0.961 . S
C394 C393 1.502 . S
C395 H381 0.960 . S
C395 H382 0.961 . S
C395 H383 0.959 . S
C395 C393 1.561 . S
C396 C393 1.526 . S
C396 C397 1.396 . S
C396 C401 1.390 . S
C397 C391 1.465 . S
C397 C396 1.396 . S
C397 C398 1.399 . S
C398 H384 0.929 . S
C398 C397 1.399 . S
C398 C399 1.385 . S
C399 H385 0.931 . S
C399 C398 1.385 . S
C399 C400 1.389 . S
C400 C399 1.389 . S
C400 C401 1.387 . S
C401 H386 0.930 . S
C401 C396 1.390 . S
C401 C400 1.387 . S
H402 C414 0.930 . S
H403 C416 0.930 . S
H404 C417 0.930 . S
H405 C421 0.959 . S
H406 C421 0.959 . S
H407 C421 0.961 . S
H408 C422 0.960 . S
H409 C422 0.961 . S
H410 C422 0.959 . S
H411 C425 0.929 . S
H412 C426 0.931 . S
H413 C428 0.930 . S
C414 H402 0.930 . S
C414 C415 1.399 . S
C414 C419 1.399 . S
C415 C414 1.399 . S
C415 C416 1.376 1_556 S
C416 H403 0.930 . S
C416 C415 1.376 1_554 S
C416 C417 1.388 . S
C417 H404 0.930 . S
C417 C416 1.388 . S
C417 C418 1.390 1_554 S
C418 C417 1.390 1_556 S
C418 C419 1.394 . S
C418 C424 1.465 1_556 S
C419 C414 1.399 . S
C419 C418 1.394 . S
C419 C420 1.516 . S
C420 C419 1.516 . S
C420 C421 1.502 . S
C420 C422 1.561 . S
C420 C423 1.526 . S
C421 H405 0.959 . S
C421 H406 0.959 . S
C421 H407 0.961 . S
C421 C420 1.502 . S
C422 H408 0.960 . S
C422 H409 0.961 . S
C422 H410 0.959 . S
C422 C420 1.561 . S
C423 C420 1.526 . S
C423 C424 1.396 1_556 S
C423 C428 1.390 . S
C424 C418 1.465 1_554 S
C424 C423 1.396 1_554 S
C424 C425 1.399 . S
C425 H411 0.929 . S
C425 C424 1.399 . S
C425 C426 1.385 . S
C426 H412 0.931 . S
C426 C425 1.385 . S
C426 C427 1.389 . S
C427 C426 1.389 . S
C427 C428 1.387 1_554 S
C428 H413 0.930 . S
C428 C423 1.390 . S
C428 C427 1.387 1_556 S
H429 C441 0.930 . S
H430 C443 0.930 . S
H431 C444 0.930 . S
H432 C448 0.959 . S
H433 C448 0.959 . S
H434 C448 0.961 . S
H435 C449 0.960 . S
H436 C449 0.961 . S
H437 C449 0.959 . S
H438 C452 0.929 . S
H439 C453 0.931 . S
H440 C455 0.930 . S
C441 H429 0.930 . S
C441 C442 1.399 . S
C441 C446 1.399 . S
C442 C441 1.399 . S
C442 C443 1.376 . S
C443 H430 0.930 . S
C443 C442 1.376 . S
C443 C444 1.388 . S
C444 H431 0.930 . S
C444 C443 1.388 . S
C444 C445 1.390 . S
C445 C444 1.390 . S
C445 C446 1.394 . S
C445 C451 1.465 . S
C446 C441 1.399 . S
C446 C445 1.394 . S
C446 C447 1.516 . S
C447 C446 1.516 . S
C447 C448 1.502 . S
C447 C449 1.561 . S
C447 C450 1.526 . S
C448 H432 0.959 . S
C448 H433 0.959 . S
C448 H434 0.961 . S
C448 C447 1.502 . S
C449 H435 0.960 . S
C449 H436 0.961 . S
C449 H437 0.959 . S
C449 C447 1.561 . S
C450 C447 1.526 . S
C450 C451 1.396 . S
C450 C455 1.390 . S
C451 C445 1.465 . S
C451 C450 1.396 . S
C451 C452 1.399 . S
C452 H438 0.929 . S
C452 C451 1.399 . S
C452 C453 1.385 . S
C453 H439 0.931 . S
C453 C452 1.385 . S
C453 C454 1.389 . S
C454 C453 1.389 . S
C454 C455 1.387 . S
C455 H440 0.930 . S
C455 C450 1.390 . S
C455 C454 1.387 . S
H456 C468 0.930 . S
H457 C470 0.930 . S
H458 C471 0.930 . S
H459 C475 0.959 . S
H460 C475 0.959 . S
H461 C475 0.961 . S
H462 C476 0.960 . S
H463 C476 0.961 . S
H464 C476 0.959 . S
H465 C479 0.929 . S
H466 C480 0.931 . S
H467 C482 0.930 . S
C468 H456 0.930 . S
C468 C469 1.399 . S
C468 C473 1.399 . S
C469 C468 1.399 . S
C469 C470 1.376 . S
C470 H457 0.930 . S
C470 C469 1.376 . S
C470 C471 1.388 . S
C471 H458 0.930 . S
C471 C470 1.388 . S
C471 C472 1.390 . S
C472 C471 1.390 . S
C472 C473 1.394 . S
C472 C478 1.465 . S
C473 C468 1.399 . S
C473 C472 1.394 . S
C473 C474 1.516 . S
C474 C473 1.516 . S
C474 C475 1.502 . S
C474 C476 1.561 . S
C474 C477 1.526 . S
C475 H459 0.959 . S
C475 H460 0.959 . S
C475 H461 0.961 . S
C475 C474 1.502 . S
C476 H462 0.960 . S
C476 H463 0.961 . S
C476 H464 0.959 . S
C476 C474 1.561 . S
C477 C474 1.526 . S
C477 C478 1.396 . S
C477 C482 1.390 . S
C478 C472 1.465 . S
C478 C477 1.396 . S
C478 C479 1.399 . S
C479 H465 0.929 . S
C479 C478 1.399 . S
C479 C480 1.385 . S
C480 H466 0.931 . S
C480 C479 1.385 . S
C480 C481 1.389 . S
C481 C480 1.389 . S
C481 C482 1.387 . S
C482 H467 0.930 . S
C482 C477 1.390 . S
C482 C481 1.387 . S
H483 C495 0.930 . S
H484 C497 0.930 . S
H485 C498 0.930 . S
H486 C502 0.959 . S
H487 C502 0.959 . S
H488 C502 0.961 . S
H489 C503 0.960 . S
H490 C503 0.961 . S
H491 C503 0.959 . S
H492 C506 0.929 . S
H493 C507 0.931 . S
H494 C509 0.930 . S
C495 H483 0.930 . S
C495 C496 1.399 . S
C495 C500 1.399 . S
C496 C495 1.399 . S
C496 C497 1.376 . S
C497 H484 0.930 . S
C497 C496 1.376 . S
C497 C498 1.388 . S
C498 H485 0.930 . S
C498 C497 1.388 . S
C498 C499 1.390 . S
C499 C498 1.390 . S
C499 C500 1.394 . S
C499 C505 1.465 . S
C500 C495 1.399 . S
C500 C499 1.394 . S
C500 C501 1.516 . S
C501 C500 1.516 . S
C501 C502 1.502 1_455 S
C501 C503 1.561 . S
C501 C504 1.526 . S
C502 H486 0.959 . S
C502 H487 0.959 . S
C502 H488 0.961 . S
C502 C501 1.502 1_655 S
C503 H489 0.960 . S
C503 H490 0.961 . S
C503 H491 0.959 . S
C503 C501 1.561 . S
C504 C501 1.526 . S
C504 C505 1.396 . S
C504 C509 1.390 . S
C505 C499 1.465 . S
C505 C504 1.396 . S
C505 C506 1.399 . S
C506 H492 0.929 . S
C506 C505 1.399 . S
C506 C507 1.385 . S
C507 H493 0.931 . S
C507 C506 1.385 . S
C507 C508 1.389 . S
C508 C507 1.389 . S
C508 C509 1.387 . S
C509 H494 0.930 . S
C509 C504 1.390 . S
C509 C508 1.387 . S
H510 C522 0.930 . S
H511 C524 0.930 . S
H512 C525 0.930 . S
H513 C529 0.959 . S
H514 C529 0.959 . S
H515 C529 0.961 . S
H516 C530 0.960 . S
H517 C530 0.961 . S
H518 C530 0.959 . S
H519 C533 0.929 . S
H520 C534 0.931 1_455 S
H521 C536 0.930 . S
C522 H510 0.930 . S
C522 C523 1.399 . S
C522 C527 1.399 . S
C523 C522 1.399 . S
C523 C524 1.376 1_655 S
C524 H511 0.930 . S
C524 C523 1.376 1_455 S
C524 C525 1.388 . S
C525 H512 0.930 . S
C525 C524 1.388 . S
C525 C526 1.390 1_455 S
C526 C525 1.390 1_655 S
C526 C527 1.394 . S
C526 C532 1.465 . S
C527 C522 1.399 . S
C527 C526 1.394 . S
C527 C528 1.516 . S
C528 C527 1.516 . S
C528 C529 1.502 . S
C528 C530 1.561 . S
C528 C531 1.526 . S
C529 H513 0.959 . S
C529 H514 0.959 . S
C529 H515 0.961 . S
C529 C528 1.502 . S
C530 H516 0.960 . S
C530 H517 0.961 . S
C530 H518 0.959 . S
C530 C528 1.561 . S
C531 C528 1.526 . S
C531 C532 1.396 . S
C531 C536 1.390 . S
C532 C526 1.465 . S
C532 C531 1.396 . S
C532 C533 1.399 1_655 S
C533 H519 0.929 . S
C533 C532 1.399 1_455 S
C533 C534 1.385 1_455 S
C534 H520 0.931 1_655 S
C534 C533 1.385 1_655 S
C534 C535 1.389 . S
C535 C534 1.389 . S
C535 C536 1.387 . S
C536 H521 0.930 . S
C536 C531 1.390 . S
C536 C535 1.387 . S
H537 C549 0.930 . S
H538 C551 0.930 . S
H539 C552 0.930 . S
H540 C556 0.959 . S
H541 C556 0.959 . S
H542 C556 0.961 . S
H543 C557 0.960 . S
H544 C557 0.961 . S
H545 C557 0.959 . S
H546 C560 0.929 . S
H547 C561 0.931 . S
H548 C563 0.930 . S
C549 H537 0.930 . S
C549 C550 1.399 . S
C549 C554 1.399 . S
C550 C549 1.399 . S
C550 C551 1.376 . S
C551 H538 0.930 . S
C551 C550 1.376 . S
C551 C552 1.388 . S
C552 H539 0.930 . S
C552 C551 1.388 . S
C552 C553 1.390 . S
C553 C552 1.390 . S
C553 C554 1.394 . S
C553 C559 1.465 . S
C554 C549 1.399 . S
C554 C553 1.394 . S
C554 C555 1.516 . S
C555 C554 1.516 . S
C555 C556 1.502 . S
C555 C557 1.561 . S
C555 C558 1.526 . S
C556 H540 0.959 . S
C556 H541 0.959 . S
C556 H542 0.961 . S
C556 C555 1.502 . S
C557 H543 0.960 . S
C557 H544 0.961 . S
C557 H545 0.959 . S
C557 C555 1.561 . S
C558 C555 1.526 . S
C558 C559 1.396 . S
C558 C563 1.390 . S
C559 C553 1.465 . S
C559 C558 1.396 . S
C559 C560 1.399 . S
C560 H546 0.929 . S
C560 C559 1.399 . S
C560 C561 1.385 . S
C561 H547 0.931 . S
C561 C560 1.385 . S
C561 C562 1.389 . S
C562 C561 1.389 . S
C562 C563 1.387 . S
C563 H548 0.930 . S
C563 C558 1.390 . S
C563 C562 1.387 . S
H564 C576 0.930 . S
H565 C578 0.930 . S
H566 C579 0.930 . S
H567 C583 0.959 . S
H568 C583 0.959 . S
H569 C583 0.961 . S
H570 C584 0.960 . S
H571 C584 0.961 . S
H572 C584 0.959 . S
H573 C587 0.929 . S
H574 C588 0.931 . S
H575 C590 0.930 . S
C576 H564 0.930 . S
C576 C577 1.399 . S
C576 C581 1.399 . S
C577 C576 1.399 . S
C577 C578 1.376 . S
C578 H565 0.930 . S
C578 C577 1.376 . S
C578 C579 1.388 . S
C579 H566 0.930 . S
C579 C578 1.388 . S
C579 C580 1.390 . S
C580 C579 1.390 . S
C580 C581 1.394 . S
C580 C586 1.465 . S
C581 C576 1.399 . S
C581 C580 1.394 . S
C581 C582 1.516 . S
C582 C581 1.516 . S
C582 C583 1.502 . S
C582 C584 1.561 . S
C582 C585 1.526 . S
C583 H567 0.959 . S
C583 H568 0.959 . S
C583 H569 0.961 . S
C583 C582 1.502 . S
C584 H570 0.960 . S
C584 H571 0.961 . S
C584 H572 0.959 . S
C584 C582 1.561 . S
C585 C582 1.526 . S
C585 C586 1.396 . S
C585 C590 1.390 . S
C586 C580 1.465 . S
C586 C585 1.396 . S
C586 C587 1.399 . S
C587 H573 0.929 . S
C587 C586 1.399 . S
C587 C588 1.385 . S
C588 H574 0.931 . S
C588 C587 1.385 . S
C588 C589 1.389 . S
C589 C588 1.389 . S
C589 C590 1.387 . S
C590 H575 0.930 . S
C590 C585 1.390 . S
C590 C589 1.387 . S
H591 C603 0.930 . S
H592 C605 0.930 . S
H593 C606 0.930 . S
H594 C610 0.959 . S
H595 C610 0.959 . S
H596 C610 0.961 . S
H597 C611 0.960 . S
H598 C611 0.961 . S
H599 C611 0.959 . S
H600 C614 0.929 . S
H601 C615 0.931 . S
H602 C617 0.930 . S
C603 H591 0.930 . S
C603 C604 1.399 . S
C603 C608 1.399 . S
C604 C603 1.399 . S
C604 C605 1.376 . S
C605 H592 0.930 . S
C605 C604 1.376 . S
C605 C606 1.388 . S
C606 H593 0.930 . S
C606 C605 1.388 . S
C606 C607 1.390 . S
C607 C606 1.390 . S
C607 C608 1.394 . S
C607 C613 1.465 . S
C608 C603 1.399 . S
C608 C607 1.394 . S
C608 C609 1.516 . S
C609 C608 1.516 . S
C609 C610 1.502 . S
C609 C611 1.561 . S
C609 C612 1.526 . S
C610 H594 0.959 . S
C610 H595 0.959 . S
C610 H596 0.961 . S
C610 C609 1.502 . S
C611 H597 0.960 . S
C611 H598 0.961 . S
C611 H599 0.959 . S
C611 C609 1.561 . S
C612 C609 1.526 . S
C612 C613 1.396 . S
C612 C617 1.390 . S
C613 C607 1.465 . S
C613 C612 1.396 . S
C613 C614 1.399 . S
C614 H600 0.929 . S
C614 C613 1.399 . S
C614 C615 1.385 . S
C615 H601 0.931 . S
C615 C614 1.385 . S
C615 C616 1.389 . S
C616 C615 1.389 . S
C616 C617 1.387 . S
C617 H602 0.930 . S
C617 C612 1.390 . S
C617 C616 1.387 . S
H618 C630 0.930 . S
H619 C632 0.930 . S
H620 C633 0.930 . S
H621 C637 0.959 . S
H622 C637 0.959 . S
H623 C637 0.961 . S
H624 C638 0.960 . S
H625 C638 0.961 . S
H626 C638 0.959 . S
H627 C641 0.929 . S
H628 C642 0.931 . S
H629 C644 0.930 . S
C630 H618 0.930 . S
C630 C631 1.399 . S
C630 C635 1.399 . S
C631 C630 1.399 . S
C631 C632 1.376 . S
C632 H619 0.930 . S
C632 C631 1.376 . S
C632 C633 1.388 . S
C633 H620 0.930 . S
C633 C632 1.388 . S
C633 C634 1.390 . S
C634 C633 1.390 . S
C634 C635 1.394 . S
C634 C640 1.465 . S
C635 C630 1.399 . S
C635 C634 1.394 . S
C635 C636 1.516 . S
C636 C635 1.516 . S
C636 C637 1.502 . S
C636 C638 1.561 . S
C636 C639 1.526 . S
C637 H621 0.959 . S
C637 H622 0.959 . S
C637 H623 0.961 . S
C637 C636 1.502 . S
C638 H624 0.960 . S
C638 H625 0.961 . S
C638 H626 0.959 . S
C638 C636 1.561 . S
C639 C636 1.526 . S
C639 C640 1.396 . S
C639 C644 1.390 . S
C640 C634 1.465 . S
C640 C639 1.396 . S
C640 C641 1.399 . S
C641 H627 0.929 . S
C641 C640 1.399 . S
C641 C642 1.385 . S
C642 H628 0.931 . S
C642 C641 1.385 . S
C642 C643 1.389 . S
C643 C642 1.389 . S
C643 C644 1.387 . S
C644 H629 0.930 . S
C644 C639 1.390 . S
C644 C643 1.387 . S
H645 C657 0.930 . S
H646 C659 0.930 . S
H647 C660 0.930 . S
H648 C664 0.959 . S
H649 C664 0.959 . S
H650 C664 0.961 . S
H651 C665 0.970 . S
H652 C665 0.942 1_556 S
H653 C665 0.969 . S
H654 C668 0.929 . S
H655 C669 0.931 . S
H656 C671 0.930 . S
C657 H645 0.930 . S
C657 C658 1.399 . S
C657 C662 1.399 . S
C658 C657 1.399 . S
C658 C659 1.376 . S
C659 H646 0.930 . S
C659 C658 1.376 . S
C659 C660 1.388 . S
C660 H647 0.930 . S
C660 C659 1.388 . S
C660 C661 1.390 . S
C661 C660 1.390 . S
C661 C662 1.394 . S
C661 C667 1.465 . S
C662 C657 1.399 . S
C662 C661 1.394 . S
C662 C663 1.516 . S
C663 C662 1.516 . S
C663 C664 1.502 1_554 S
C663 C665 1.561 . S
C663 C666 1.526 1_554 S
C664 H648 0.959 . S
C664 H649 0.959 . S
C664 H650 0.961 . S
C664 C663 1.502 1_556 S
C665 H651 0.970 . S
C665 H652 0.942 1_554 S
C665 H653 0.969 . S
C665 C663 1.561 . S
C666 C663 1.526 1_556 S
C666 C667 1.396 1_556 S
C666 C671 1.390 . S
C667 C661 1.465 . S
C667 C666 1.396 1_554 S
C667 C668 1.399 . S
C668 H654 0.929 . S
C668 C667 1.399 . S
C668 C669 1.385 1_554 S
C669 H655 0.931 . S
C669 C668 1.385 1_556 S
C669 C670 1.389 . S
C670 C669 1.389 . S
C670 C671 1.387 . S
C671 H656 0.930 . S
C671 C666 1.390 . S
C671 C670 1.387 . S
H672 C684 0.930 . S
H673 C686 0.930 . S
H674 C687 0.930 . S
H675 C691 0.959 . S
H676 C691 0.959 . S
H677 C691 0.961 . S
H678 C692 0.960 . S
H679 C692 0.961 . S
H680 C692 0.959 . S
H681 C695 0.929 . S
H682 C696 0.931 . S
H683 C698 0.930 . S
C684 H672 0.930 . S
C684 C685 1.399 . S
C684 C689 1.399 . S
C685 C684 1.399 . S
C685 C686 1.376 . S
C686 H673 0.930 . S
C686 C685 1.376 . S
C686 C687 1.388 . S
C687 H674 0.930 . S
C687 C686 1.388 . S
C687 C688 1.390 . S
C688 C687 1.390 . S
C688 C689 1.394 . S
C688 C694 1.465 . S
C689 C684 1.399 . S
C689 C688 1.394 . S
C689 C690 1.516 . S
C690 C689 1.516 . S
C690 C691 1.502 . S
C690 C692 1.561 . S
C690 C693 1.526 . S
C691 H675 0.959 . S
C691 H676 0.959 . S
C691 H677 0.961 . S
C691 C690 1.502 . S
C692 H678 0.960 . S
C692 H679 0.961 . S
C692 H680 0.959 . S
C692 C690 1.561 . S
C693 C690 1.526 . S
C693 C694 1.396 . S
C693 C698 1.390 . S
C694 C688 1.465 . S
C694 C693 1.396 . S
C694 C695 1.399 . S
C695 H681 0.929 . S
C695 C694 1.399 . S
C695 C696 1.385 . S
C696 H682 0.931 . S
C696 C695 1.385 . S
C696 C697 1.389 . S
C697 C696 1.389 . S
C697 C698 1.387 . S
C698 H683 0.930 . S
C698 C693 1.390 . S
C698 C697 1.387 . S
H699 C711 0.930 . S
H700 C713 0.930 . S
H701 C714 0.930 . S
H702 C718 0.959 . S
H703 C718 0.959 . S
H704 C718 0.961 . S
H705 C719 0.960 . S
H706 C719 0.961 . S
H707 C719 0.959 . S
H708 C722 0.929 . S
H709 C723 0.931 . S
H710 C725 0.930 . S
C711 H699 0.930 . S
C711 C712 1.399 . S
C711 C716 1.399 1_554 S
C712 C711 1.399 . S
C712 C713 1.376 . S
C713 H700 0.930 . S
C713 C712 1.376 . S
C713 C714 1.388 . S
C714 H701 0.930 . S
C714 C713 1.388 . S
C714 C715 1.390 1_554 S
C715 C714 1.390 1_556 S
C715 C716 1.394 . S
C715 C721 1.465 . S
C716 C711 1.399 1_556 S
C716 C715 1.394 . S
C716 C717 1.516 . S
C717 C716 1.516 . S
C717 C718 1.502 . S
C717 C719 1.561 . S
C717 C720 1.526 . S
C718 H702 0.959 . S
C718 H703 0.959 . S
C718 H704 0.961 . S
C718 C717 1.502 . S
C719 H705 0.960 . S
C719 H706 0.961 . S
C719 H707 0.959 . S
C719 C717 1.561 . S
C720 C717 1.526 . S
C720 C721 1.396 . S
C720 C725 1.390 . S
C721 C715 1.465 . S
C721 C720 1.396 . S
C721 C722 1.399 . S
C722 H708 0.929 . S
C722 C721 1.399 . S
C722 C723 1.385 . S
C723 H709 0.931 . S
C723 C722 1.385 . S
C723 C724 1.389 . S
C724 C723 1.389 . S
C724 C725 1.387 . S
C725 H710 0.930 . S
C725 C720 1.390 . S
C725 C724 1.387 . S
H726 C738 0.930 . S
H727 C740 0.930 . S
H728 C741 0.930 . S
H729 C745 0.959 . S
H730 C745 0.959 . S
H731 C745 0.961 . S
H732 C746 0.960 . S
H733 C746 0.961 . S
H734 C746 0.959 . S
H735 C749 0.929 . S
H736 C750 0.931 . S
H737 C752 0.930 . S
C738 H726 0.930 . S
C738 C739 1.399 . S
C738 C743 1.399 . S
C739 C738 1.399 . S
C739 C740 1.376 . S
C740 H727 0.930 . S
C740 C739 1.376 . S
C740 C741 1.388 . S
C741 H728 0.930 . S
C741 C740 1.388 . S
C741 C742 1.390 . S
C742 C741 1.390 . S
C742 C743 1.394 . S
C742 C748 1.465 . S
C743 C738 1.399 . S
C743 C742 1.394 . S
C743 C744 1.516 . S
C744 C743 1.516 . S
C744 C745 1.502 . S
C744 C746 1.561 . S
C744 C747 1.526 . S
C745 H729 0.959 . S
C745 H730 0.959 . S
C745 H731 0.961 . S
C745 C744 1.502 . S
C746 H732 0.960 . S
C746 H733 0.961 . S
C746 H734 0.959 . S
C746 C744 1.561 . S
C747 C744 1.526 . S
C747 C748 1.396 . S
C747 C752 1.390 . S
C748 C742 1.465 . S
C748 C747 1.396 . S
C748 C749 1.399 . S
C749 H735 0.929 . S
C749 C748 1.399 . S
C749 C750 1.385 . S
C750 H736 0.931 . S
C750 C749 1.385 . S
C750 C751 1.389 . S
C751 C750 1.389 . S
C751 C752 1.387 . S
C752 H737 0.930 . S
C752 C747 1.390 . S
C752 C751 1.387 . S
H753 C765 0.930 . S
H754 C767 0.930 . S
H755 C768 0.930 . S
H756 C772 0.959 . S
H757 C772 0.959 . S
H758 C772 0.961 . S
H759 C773 0.960 . S
H760 C773 0.961 . S
H761 C773 0.959 . S
H762 C776 0.929 . S
H763 C777 0.931 . S
H764 C779 0.930 . S
C765 H753 0.930 . S
C765 C766 1.399 . S
C765 C770 1.399 . S
C766 C765 1.399 . S
C766 C767 1.376 . S
C767 H754 0.930 . S
C767 C766 1.376 . S
C767 C768 1.388 . S
C768 H755 0.930 . S
C768 C767 1.388 . S
C768 C769 1.390 . S
C769 C768 1.390 . S
C769 C770 1.394 . S
C769 C775 1.465 . S
C770 C765 1.399 . S
C770 C769 1.394 . S
C770 C771 1.516 . S
C771 C770 1.516 . S
C771 C772 1.502 . S
C771 C773 1.561 . S
C771 C774 1.526 . S
C772 H756 0.959 . S
C772 H757 0.959 . S
C772 H758 0.961 . S
C772 C771 1.502 . S
C773 H759 0.960 . S
C773 H760 0.961 . S
C773 H761 0.959 . S
C773 C771 1.561 . S
C774 C771 1.526 . S
C774 C775 1.396 . S
C774 C779 1.390 . S
C775 C769 1.465 . S
C775 C774 1.396 . S
C775 C776 1.399 . S
C776 H762 0.929 . S
C776 C775 1.399 . S
C776 C777 1.385 . S
C777 H763 0.931 . S
C777 C776 1.385 . S
C777 C778 1.389 . S
C778 C777 1.389 . S
C778 C779 1.387 . S
C779 H764 0.930 . S
C779 C774 1.390 . S
C779 C778 1.387 . S
H780 C792 0.930 . S
H781 C794 0.930 . S
H782 C795 0.930 . S
H783 C799 0.959 . S
H784 C799 0.959 . S
H785 C799 0.961 . S
H786 C800 0.960 . S
H787 C800 0.961 . S
H788 C800 0.959 . S
H789 C803 0.929 . S
H790 C804 0.931 . S
H791 C806 0.930 . S
C792 H780 0.930 . S
C792 C793 1.399 . S
C792 C797 1.399 . S
C793 C792 1.399 . S
C793 C794 1.376 . S
C794 H781 0.930 . S
C794 C793 1.376 . S
C794 C795 1.388 . S
C795 H782 0.930 . S
C795 C794 1.388 . S
C795 C796 1.390 . S
C796 C795 1.390 . S
C796 C797 1.394 . S
C796 C802 1.465 . S
C797 C792 1.399 . S
C797 C796 1.394 . S
C797 C798 1.516 . S
C798 C797 1.516 . S
C798 C799 1.502 . S
C798 C800 1.561 . S
C798 C801 1.526 . S
C799 H783 0.959 . S
C799 H784 0.959 . S
C799 H785 0.961 . S
C799 C798 1.502 . S
C800 H786 0.960 . S
C800 H787 0.961 . S
C800 H788 0.959 . S
C800 C798 1.561 . S
C801 C798 1.526 . S
C801 C802 1.396 . S
C801 C806 1.390 . S
C802 C796 1.465 . S
C802 C801 1.396 . S
C802 C803 1.399 . S
C803 H789 0.929 . S
C803 C802 1.399 . S
C803 C804 1.385 . S
C804 H790 0.931 . S
C804 C803 1.385 . S
C804 C805 1.389 . S
C805 C804 1.389 . S
C805 C806 1.387 . S
C806 H791 0.930 . S
C806 C801 1.390 . S
C806 C805 1.387 . S
H807 C819 0.930 . S
H808 C821 0.930 . S
H809 C822 0.930 . S
H810 C826 0.959 . S
H811 C826 0.959 . S
H812 C826 0.961 . S
H813 C827 0.960 . S
H814 C827 0.961 . S
H815 C827 0.959 . S
H816 C830 0.929 1_545 S
H817 C831 0.931 . S
H818 C833 0.930 . S
C819 H807 0.930 . S
C819 C820 1.399 . S
C819 C824 1.399 . S
C820 C819 1.399 . S
C820 C821 1.376 . S
C821 H808 0.930 . S
C821 C820 1.376 . S
C821 C822 1.388 . S
C822 H809 0.930 . S
C822 C821 1.388 . S
C822 C823 1.390 . S
C823 C822 1.390 . S
C823 C824 1.394 . S
C823 C829 1.465 . S
C824 C819 1.399 . S
C824 C823 1.394 . S
C824 C825 1.516 1_545 S
C825 C824 1.516 1_565 S
C825 C826 1.502 . S
C825 C827 1.561 . S
C825 C828 1.526 . S
C826 H810 0.959 . S
C826 H811 0.959 . S
C826 H812 0.961 . S
C826 C825 1.502 . S
C827 H813 0.960 . S
C827 H814 0.961 . S
C827 H815 0.959 . S
C827 C825 1.561 . S
C828 C825 1.526 . S
C828 C829 1.396 1_565 S
C828 C833 1.390 . S
C829 C823 1.465 . S
C829 C828 1.396 1_545 S
C829 C830 1.399 1_545 S
C830 H816 0.929 1_565 S
C830 C829 1.399 1_565 S
C830 C831 1.385 . S
C831 H817 0.931 . S
C831 C830 1.385 . S
C831 C832 1.389 . S
C832 C831 1.389 . S
C832 C833 1.387 . S
C833 H818 0.930 . S
C833 C828 1.390 . S
C833 C832 1.387 . S
H834 C846 0.930 . S
H835 C848 0.930 . S
H836 C849 0.930 . S
H837 C853 0.959 . S
H838 C853 0.959 . S
H839 C853 0.961 . S
H840 C854 0.960 . S
H841 C854 0.961 . S
H842 C854 0.959 . S
H843 C857 0.929 . S
H844 C858 0.931 . S
H845 C860 0.930 . S
C846 H834 0.930 . S
C846 C847 1.399 . S
C846 C851 1.399 . S
C847 C846 1.399 . S
C847 C848 1.376 . S
C848 H835 0.930 . S
C848 C847 1.376 . S
C848 C849 1.388 . S
C849 H836 0.930 . S
C849 C848 1.388 . S
C849 C850 1.390 . S
C850 C849 1.390 . S
C850 C851 1.394 . S
C850 C856 1.465 . S
C851 C846 1.399 . S
C851 C850 1.394 . S
C851 C852 1.516 . S
C852 C851 1.516 . S
C852 C853 1.502 . S
C852 C854 1.561 . S
C852 C855 1.526 . S
C853 H837 0.959 . S
C853 H838 0.959 . S
C853 H839 0.961 . S
C853 C852 1.502 . S
C854 H840 0.960 . S
C854 H841 0.961 . S
C854 H842 0.959 . S
C854 C852 1.561 . S
C855 C852 1.526 . S
C855 C856 1.396 . S
C855 C860 1.390 . S
C856 C850 1.465 . S
C856 C855 1.396 . S
C856 C857 1.399 . S
C857 H843 0.929 . S
C857 C856 1.399 . S
C857 C858 1.385 . S
C858 H844 0.931 . S
C858 C857 1.385 . S
C858 C859 1.389 . S
C859 C858 1.389 . S
C859 C860 1.387 . S
C860 H845 0.930 . S
C860 C855 1.390 . S
C860 C859 1.387 . S
H861 C873 0.930 . S
H862 C875 0.930 . S
H863 C876 0.930 . S
H864 C880 0.959 . S
H865 C880 0.959 . S
H866 C880 0.961 . S
H867 C881 0.960 . S
H868 C881 0.961 . S
H869 C881 0.959 . S
H870 C884 0.929 . S
H871 C885 0.931 . S
H872 C887 0.930 . S
C873 H861 0.930 . S
C873 C874 1.399 . S
C873 C878 1.399 1_545 S
C874 C873 1.399 . S
C874 C875 1.376 . S
C875 H862 0.930 . S
C875 C874 1.376 . S
C875 C876 1.388 . S
C876 H863 0.930 . S
C876 C875 1.388 . S
C876 C877 1.390 1_545 S
C877 C876 1.390 1_565 S
C877 C878 1.394 . S
C877 C883 1.465 . S
C878 C873 1.399 1_565 S
C878 C877 1.394 . S
C878 C879 1.516 . S
C879 C878 1.516 . S
C879 C880 1.502 . S
C879 C881 1.561 . S
C879 C882 1.526 . S
C880 H864 0.959 . S
C880 H865 0.959 . S
C880 H866 0.961 . S
C880 C879 1.502 . S
C881 H867 0.960 . S
C881 H868 0.961 . S
C881 H869 0.959 . S
C881 C879 1.561 . S
C882 C879 1.526 . S
C882 C883 1.396 . S
C882 C887 1.390 . S
C883 C877 1.465 . S
C883 C882 1.396 . S
C883 C884 1.399 . S
C884 H870 0.929 . S
C884 C883 1.399 . S
C884 C885 1.385 . S
C885 H871 0.931 . S
C885 C884 1.385 . S
C885 C886 1.389 . S
C886 C885 1.389 . S
C886 C887 1.387 . S
C887 H872 0.930 . S
C887 C882 1.390 . S
C887 C886 1.387 . S
H888 C900 0.930 . S
H889 C902 0.930 . S
H890 C903 0.930 . S
H891 C907 0.959 . S
H892 C907 0.959 . S
H893 C907 0.961 . S
H894 C908 0.960 . S
H895 C908 0.961 . S
H896 C908 0.959 . S
H897 C911 0.929 . S
H898 C912 0.931 . S
H899 C914 0.930 . S
C900 H888 0.930 . S
C900 C901 1.399 . S
C900 C905 1.399 . S
C901 C900 1.399 . S
C901 C902 1.376 . S
C902 H889 0.930 . S
C902 C901 1.376 . S
C902 C903 1.388 . S
C903 H890 0.930 . S
C903 C902 1.388 . S
C903 C904 1.390 . S
C904 C903 1.390 . S
C904 C905 1.394 . S
C904 C910 1.465 . S
C905 C900 1.399 . S
C905 C904 1.394 . S
C905 C906 1.516 . S
C906 C905 1.516 . S
C906 C907 1.502 . S
C906 C908 1.561 . S
C906 C909 1.526 . S
C907 H891 0.959 . S
C907 H892 0.959 . S
C907 H893 0.961 . S
C907 C906 1.502 . S
C908 H894 0.960 . S
C908 H895 0.961 . S
C908 H896 0.959 . S
C908 C906 1.561 . S
C909 C906 1.526 . S
C909 C910 1.396 . S
C909 C914 1.390 . S
C910 C904 1.465 . S
C910 C909 1.396 . S
C910 C911 1.399 . S
C911 H897 0.929 . S
C911 C910 1.399 . S
C911 C912 1.385 . S
C912 H898 0.931 . S
C912 C911 1.385 . S
C912 C913 1.389 . S
C913 C912 1.389 . S
C913 C914 1.387 . S
C914 H899 0.930 . S
C914 C909 1.390 . S
C914 C913 1.387 . S
H915 C927 0.930 . S
H916 C929 0.930 . S
H917 C930 0.930 . S
H918 C934 0.959 . S
H919 C934 0.959 . S
H920 C934 0.961 . S
H921 C935 0.960 . S
H922 C935 0.961 . S
H923 C935 0.959 . S
H924 C938 0.929 . S
H925 C939 0.931 . S
H926 C941 0.930 . S
C927 H915 0.930 . S
C927 C928 1.399 . S
C927 C932 1.399 . S
C928 C927 1.399 . S
C928 C929 1.376 . S
C929 H916 0.930 . S
C929 C928 1.376 . S
C929 C930 1.388 . S
C930 H917 0.930 . S
C930 C929 1.388 . S
C930 C931 1.390 . S
C931 C930 1.390 . S
C931 C932 1.394 . S
C931 C937 1.465 . S
C932 C927 1.399 . S
C932 C931 1.394 . S
C932 C933 1.516 . S
C933 C932 1.516 . S
C933 C934 1.502 . S
C933 C935 1.561 . S
C933 C936 1.526 . S
C934 H918 0.959 . S
C934 H919 0.959 . S
C934 H920 0.961 . S
C934 C933 1.502 . S
C935 H921 0.960 . S
C935 H922 0.961 . S
C935 H923 0.959 . S
C935 C933 1.561 . S
C936 C933 1.526 . S
C936 C937 1.396 . S
C936 C941 1.390 . S
C937 C931 1.465 . S
C937 C936 1.396 . S
C937 C938 1.399 . S
C938 H924 0.929 . S
C938 C937 1.399 . S
C938 C939 1.385 . S
C939 H925 0.931 . S
C939 C938 1.385 . S
C939 C940 1.389 . S
C940 C939 1.389 . S
C940 C941 1.387 . S
C941 H926 0.930 . S
C941 C936 1.390 . S
C941 C940 1.387 . S
H942 C954 0.930 . S
H943 C956 0.930 . S
H944 C957 0.930 . S
H945 C961 0.959 . S
H946 C961 0.959 . S
H947 C961 0.961 . S
H948 C962 0.960 . S
H949 C962 0.961 . S
H950 C962 0.959 . S
H951 C965 0.929 . S
H952 C966 0.931 . S
H953 C968 0.930 . S
C954 H942 0.930 . S
C954 C955 1.399 . S
C954 C959 1.399 . S
C955 C954 1.399 . S
C955 C956 1.376 . S
C956 H943 0.930 . S
C956 C955 1.376 . S
C956 C957 1.388 . S
C957 H944 0.930 . S
C957 C956 1.388 . S
C957 C958 1.390 . S
C958 C957 1.390 . S
C958 C959 1.394 . S
C958 C964 1.465 . S
C959 C954 1.399 . S
C959 C958 1.394 . S
C959 C960 1.516 . S
C960 C959 1.516 . S
C960 C961 1.502 . S
C960 C962 1.561 . S
C960 C963 1.526 . S
C961 H945 0.959 . S
C961 H946 0.959 . S
C961 H947 0.961 . S
C961 C960 1.502 . S
C962 H948 0.960 . S
C962 H949 0.961 . S
C962 H950 0.959 . S
C962 C960 1.561 . S
C963 C960 1.526 . S
C963 C964 1.396 . S
C963 C968 1.390 . S
C964 C958 1.465 . S
C964 C963 1.396 . S
C964 C965 1.399 . S
C965 H951 0.929 . S
C965 C964 1.399 . S
C965 C966 1.385 . S
C966 H952 0.931 . S
C966 C965 1.385 . S
C966 C967 1.389 . S
C967 C966 1.389 . S
C967 C968 1.387 . S
C968 H953 0.930 . S
C968 C963 1.390 . S
C968 C967 1.387 . S
H969 C981 0.930 . S
H970 C983 0.930 . S
H971 C984 0.930 . S
H972 C988 0.959 . S
H973 C988 0.959 . S
H974 C988 0.961 . S
H975 C989 0.960 . S
H976 C989 0.961 . S
H977 C989 0.959 . S
H978 C992 0.929 . S
H979 C993 0.931 . S
H980 C995 0.930 . S
C981 H969 0.930 . S
C981 C982 1.399 . S
C981 C986 1.399 . S
C982 C981 1.399 . S
C982 C983 1.376 . S
C983 H970 0.930 . S
C983 C982 1.376 . S
C983 C984 1.388 . S
C984 H971 0.930 . S
C984 C983 1.388 . S
C984 C985 1.390 . S
C985 C984 1.390 . S
C985 C986 1.394 . S
C985 C991 1.465 . S
C986 C981 1.399 . S
C986 C985 1.394 . S
C986 C987 1.516 . S
C987 C986 1.516 . S
C987 C988 1.502 . S
C987 C989 1.561 . S
C987 C990 1.526 . S
C988 H972 0.959 . S
C988 H973 0.959 . S
C988 H974 0.961 . S
C988 C987 1.502 . S
C989 H975 0.960 . S
C989 H976 0.961 . S
C989 H977 0.959 . S
C989 C987 1.561 . S
C990 C987 1.526 . S
C990 C991 1.396 . S
C990 C995 1.390 . S
C991 C985 1.465 . S
C991 C990 1.396 . S
C991 C992 1.399 . S
C992 H978 0.929 . S
C992 C991 1.399 . S
C992 C993 1.385 . S
C993 H979 0.931 . S
C993 C992 1.385 . S
C993 C994 1.389 . S
C994 C993 1.389 . S
C994 C995 1.387 . S
C995 H980 0.930 . S
C995 C990 1.390 . S
C995 C994 1.387 . S
H996 C1008 0.930 . S
H997 C1010 0.930 . S
H998 C1011 0.930 . S
H999 C1015 0.959 . S
H1000 C1015 0.959 . S
H1001 C1015 0.961 . S
H1002 C1016 0.960 . S
H1003 C1016 0.961 . S
H1004 C1016 0.959 . S
H1005 C1019 0.929 . S
H1006 C1020 0.931 . S
H1007 C1022 0.930 . S
C1008 H996 0.930 . S
C1008 C1009 1.399 . S
C1008 C1013 1.399 . S
C1009 C1008 1.399 . S
C1009 C1010 1.376 . S
C1010 H997 0.930 . S
C1010 C1009 1.376 . S
C1010 C1011 1.388 . S
C1011 H998 0.930 . S
C1011 C1010 1.388 . S
C1011 C1012 1.390 . S
C1012 C1011 1.390 . S
C1012 C1013 1.394 . S
C1012 C1018 1.465 . S
C1013 C1008 1.399 . S
C1013 C1012 1.394 . S
C1013 C1014 1.516 . S
C1014 C1013 1.516 . S
C1014 C1015 1.502 . S
C1014 C1016 1.561 . S
C1014 C1017 1.526 . S
C1015 H999 0.959 . S
C1015 H1000 0.959 . S
C1015 H1001 0.961 . S
C1015 C1014 1.502 . S
C1016 H1002 0.960 . S
C1016 H1003 0.961 . S
C1016 H1004 0.959 . S
C1016 C1014 1.561 . S
C1017 C1014 1.526 . S
C1017 C1018 1.396 . S
C1017 C1022 1.390 . S
C1018 C1012 1.465 . S
C1018 C1017 1.396 . S
C1018 C1019 1.399 . S
C1019 H1005 0.929 . S
C1019 C1018 1.399 . S
C1019 C1020 1.385 . S
C1020 H1006 0.931 . S
C1020 C1019 1.385 . S
C1020 C1021 1.389 . S
C1021 C1020 1.389 . S
C1021 C1022 1.387 . S
C1022 H1007 0.930 . S
C1022 C1017 1.390 . S
C1022 C1021 1.387 . S
H1023 C1035 0.930 . S
H1024 C1037 0.930 . S
H1025 C1038 0.930 . S
H1026 C1042 0.959 . S
H1027 C1042 0.959 . S
H1028 C1042 0.961 . S
H1029 C1043 0.960 . S
H1030 C1043 0.961 . S
H1031 C1043 0.959 . S
H1032 C1046 0.929 . S
H1033 C1047 0.931 . S
H1034 C1049 0.930 . S
C1035 H1023 0.930 . S
C1035 C1036 1.399 . S
C1035 C1040 1.399 . S
C1036 C1035 1.399 . S
C1036 C1037 1.376 . S
C1037 H1024 0.930 . S
C1037 C1036 1.376 . S
C1037 C1038 1.388 . S
C1038 H1025 0.930 . S
C1038 C1037 1.388 . S
C1038 C1039 1.390 . S
C1039 C1038 1.390 . S
C1039 C1040 1.394 . S
C1039 C1045 1.465 . S
C1040 C1035 1.399 . S
C1040 C1039 1.394 . S
C1040 C1041 1.516 . S
C1041 C1040 1.516 . S
C1041 C1042 1.502 . S
C1041 C1043 1.561 . S
C1041 C1044 1.526 . S
C1042 H1026 0.959 . S
C1042 H1027 0.959 . S
C1042 H1028 0.961 . S
C1042 C1041 1.502 . S
C1043 H1029 0.960 . S
C1043 H1030 0.961 . S
C1043 H1031 0.959 . S
C1043 C1041 1.561 . S
C1044 C1041 1.526 . S
C1044 C1045 1.396 . S
C1044 C1049 1.390 . S
C1045 C1039 1.465 . S
C1045 C1044 1.396 . S
C1045 C1046 1.399 . S
C1046 H1032 0.929 . S
C1046 C1045 1.399 . S
C1046 C1047 1.385 . S
C1047 H1033 0.931 . S
C1047 C1046 1.385 . S
C1047 C1048 1.389 . S
C1048 C1047 1.389 . S
C1048 C1049 1.387 . S
C1049 H1034 0.930 . S
C1049 C1044 1.390 . S
C1049 C1048 1.387 . S
H1050 C1062 0.930 . S
H1051 C1064 0.930 . S
H1052 C1065 0.930 . S
H1053 C1069 0.959 . S
H1054 C1069 0.959 . S
H1055 C1069 0.961 . S
H1056 C1070 0.960 1_455 S
H1057 C1070 0.961 . S
H1058 C1070 0.959 1_455 S
H1059 C1073 0.929 1_455 S
H1060 C1074 0.931 . S
H1061 C1076 0.930 . S
C1062 H1050 0.930 . S
C1062 C1063 1.399 . S
C1062 C1067 1.399 . S
C1063 C1062 1.399 . S
C1063 C1064 1.376 . S
C1064 H1051 0.930 . S
C1064 C1063 1.376 . S
C1064 C1065 1.388 . S
C1065 H1052 0.930 . S
C1065 C1064 1.388 . S
C1065 C1066 1.390 . S
C1066 C1065 1.390 . S
C1066 C1067 1.394 . S
C1066 C1072 1.465 1_455 S
C1067 C1062 1.399 . S
C1067 C1066 1.394 . S
C1067 C1068 1.516 1_455 S
C1068 C1067 1.516 1_655 S
C1068 C1069 1.502 . S
C1068 C1070 1.561 . S
C1068 C1071 1.526 . S
C1069 H1053 0.959 . S
C1069 H1054 0.959 . S
C1069 H1055 0.961 . S
C1069 C1068 1.502 . S
C1070 H1056 0.960 1_655 S
C1070 H1057 0.961 . S
C1070 H1058 0.959 1_655 S
C1070 C1068 1.561 . S
C1071 C1068 1.526 . S
C1071 C1072 1.396 . S
C1071 C1076 1.390 . S
C1072 C1066 1.465 1_655 S
C1072 C1071 1.396 . S
C1072 C1073 1.399 . S
C1073 H1059 0.929 1_655 S
C1073 C1072 1.399 . S
C1073 C1074 1.385 . S
C1074 H1060 0.931 . S
C1074 C1073 1.385 . S
C1074 C1075 1.389 . S
C1075 C1074 1.389 . S
C1075 C1076 1.387 . S
C1076 H1061 0.930 . S
C1076 C1071 1.390 . S
C1076 C1075 1.387 . S
H1077 C1089 0.930 . S
H1078 C1091 0.930 . S
H1079 C1092 0.930 . S
H1080 C1096 0.959 . S
H1081 C1096 0.959 . S
H1082 C1096 0.961 . S
H1083 C1097 0.960 . S
H1084 C1097 0.961 . S
H1085 C1097 0.959 . S
H1086 C1100 0.929 . S
H1087 C1101 0.931 . S
H1088 C1103 0.930 . S
C1089 H1077 0.930 . S
C1089 C1090 1.399 . S
C1089 C1094 1.399 . S
C1090 C1089 1.399 . S
C1090 C1091 1.376 . S
C1091 H1078 0.930 . S
C1091 C1090 1.376 . S
C1091 C1092 1.388 . S
C1092 H1079 0.930 . S
C1092 C1091 1.388 . S
C1092 C1093 1.390 . S
C1093 C1092 1.390 . S
C1093 C1094 1.394 . S
C1093 C1099 1.465 . S
C1094 C1089 1.399 . S
C1094 C1093 1.394 . S
C1094 C1095 1.516 . S
C1095 C1094 1.516 . S
C1095 C1096 1.502 . S
C1095 C1097 1.561 . S
C1095 C1098 1.526 . S
C1096 H1080 0.959 . S
C1096 H1081 0.959 . S
C1096 H1082 0.961 . S
C1096 C1095 1.502 . S
C1097 H1083 0.960 . S
C1097 H1084 0.961 . S
C1097 H1085 0.959 . S
C1097 C1095 1.561 . S
C1098 C1095 1.526 . S
C1098 C1099 1.396 . S
C1098 C1103 1.390 . S
C1099 C1093 1.465 . S
C1099 C1098 1.396 . S
C1099 C1100 1.399 . S
C1100 H1086 0.929 . S
C1100 C1099 1.399 . S
C1100 C1101 1.385 . S
C1101 H1087 0.931 . S
C1101 C1100 1.385 . S
C1101 C1102 1.389 . S
C1102 C1101 1.389 . S
C1102 C1103 1.387 . S
C1103 H1088 0.930 . S
C1103 C1098 1.390 . S
C1103 C1102 1.387 . S
H1104 C1116 0.930 . S
H1105 C1118 0.930 . S
H1106 C1119 0.930 . S
H1107 C1123 0.959 . S
H1108 C1123 0.959 . S
H1109 C1123 0.961 . S
H1110 C1124 0.960 . S
H1111 C1124 0.961 . S
H1112 C1124 0.959 . S
H1113 C1127 0.929 . S
H1114 C1128 0.931 . S
H1115 C1130 0.930 . S
C1116 H1104 0.930 . S
C1116 C1117 1.399 . S
C1116 C1121 1.399 . S
C1117 C1116 1.399 . S
C1117 C1118 1.376 . S
C1118 H1105 0.930 . S
C1118 C1117 1.376 . S
C1118 C1119 1.388 . S
C1119 H1106 0.930 . S
C1119 C1118 1.388 . S
C1119 C1120 1.390 . S
C1120 C1119 1.390 . S
C1120 C1121 1.394 . S
C1120 C1126 1.465 . S
C1121 C1116 1.399 . S
C1121 C1120 1.394 . S
C1121 C1122 1.516 . S
C1122 C1121 1.516 . S
C1122 C1123 1.502 . S
C1122 C1124 1.561 . S
C1122 C1125 1.526 . S
C1123 H1107 0.959 . S
C1123 H1108 0.959 . S
C1123 H1109 0.961 . S
C1123 C1122 1.502 . S
C1124 H1110 0.960 . S
C1124 H1111 0.961 . S
C1124 H1112 0.959 . S
C1124 C1122 1.561 . S
C1125 C1122 1.526 . S
C1125 C1126 1.396 . S
C1125 C1130 1.390 . S
C1126 C1120 1.465 . S
C1126 C1125 1.396 . S
C1126 C1127 1.399 . S
C1127 H1113 0.929 . S
C1127 C1126 1.399 . S
C1127 C1128 1.385 . S
C1128 H1114 0.931 . S
C1128 C1127 1.385 . S
C1128 C1129 1.389 . S
C1129 C1128 1.389 . S
C1129 C1130 1.387 . S
C1130 H1115 0.930 . S
C1130 C1125 1.390 . S
C1130 C1129 1.387 . S
H1131 C1143 0.930 . S
H1132 C1145 0.930 . S
H1133 C1146 0.930 . S
H1134 C1150 0.959 . S
H1135 C1150 0.959 . S
H1136 C1150 0.961 . S
H1137 C1151 0.960 . S
H1138 C1151 0.961 . S
H1139 C1151 0.959 . S
H1140 C1154 0.929 . S
H1141 C1155 0.931 . S
H1142 C1157 0.930 . S
C1143 H1131 0.930 . S
C1143 C1144 1.399 . S
C1143 C1148 1.399 . S
C1144 C1143 1.399 . S
C1144 C1145 1.376 . S
C1145 H1132 0.930 . S
C1145 C1144 1.376 . S
C1145 C1146 1.388 . S
C1146 H1133 0.930 . S
C1146 C1145 1.388 . S
C1146 C1147 1.390 . S
C1147 C1146 1.390 . S
C1147 C1148 1.394 . S
C1147 C1153 1.465 . S
C1148 C1143 1.399 . S
C1148 C1147 1.394 . S
C1148 C1149 1.516 . S
C1149 C1148 1.516 . S
C1149 C1150 1.502 . S
C1149 C1151 1.561 . S
C1149 C1152 1.526 . S
C1150 H1134 0.959 . S
C1150 H1135 0.959 . S
C1150 H1136 0.961 . S
C1150 C1149 1.502 . S
C1151 H1137 0.960 . S
C1151 H1138 0.961 . S
C1151 H1139 0.959 . S
C1151 C1149 1.561 . S
C1152 C1149 1.526 . S
C1152 C1153 1.396 . S
C1152 C1157 1.390 . S
C1153 C1147 1.465 . S
C1153 C1152 1.396 . S
C1153 C1154 1.399 . S
C1154 H1140 0.929 . S
C1154 C1153 1.399 . S
C1154 C1155 1.385 . S
C1155 H1141 0.931 . S
C1155 C1154 1.385 . S
C1155 C1156 1.389 . S
C1156 C1155 1.389 . S
C1156 C1157 1.387 . S
C1157 H1142 0.930 . S
C1157 C1152 1.390 . S
C1157 C1156 1.387 . S
H1158 C1170 0.930 . S
H1159 C1172 0.930 . S
H1160 C1173 0.930 . S
H1161 C1177 0.959 . S
H1162 C1177 0.959 . S
H1163 C1177 0.961 . S
H1164 C1178 0.960 . S
H1165 C1178 0.961 . S
H1166 C1178 0.959 . S
H1167 C1181 0.929 . S
H1168 C1182 0.931 . S
H1169 C1184 0.930 . S
C1170 H1158 0.930 . S
C1170 C1171 1.399 . S
C1170 C1175 1.399 . S
C1171 C1170 1.399 . S
C1171 C1172 1.376 . S
C1172 H1159 0.930 . S
C1172 C1171 1.376 . S
C1172 C1173 1.388 . S
C1173 H1160 0.930 . S
C1173 C1172 1.388 . S
C1173 C1174 1.390 . S
C1174 C1173 1.390 . S
C1174 C1175 1.394 . S
C1174 C1180 1.465 . S
C1175 C1170 1.399 . S
C1175 C1174 1.394 . S
C1175 C1176 1.516 . S
C1176 C1175 1.516 . S
C1176 C1177 1.502 . S
C1176 C1178 1.561 . S
C1176 C1179 1.526 . S
C1177 H1161 0.959 . S
C1177 H1162 0.959 . S
C1177 H1163 0.961 . S
C1177 C1176 1.502 . S
C1178 H1164 0.960 . S
C1178 H1165 0.961 . S
C1178 H1166 0.959 . S
C1178 C1176 1.561 . S
C1179 C1176 1.526 . S
C1179 C1180 1.396 . S
C1179 C1184 1.390 . S
C1180 C1174 1.465 . S
C1180 C1179 1.396 . S
C1180 C1181 1.399 . S
C1181 H1167 0.929 . S
C1181 C1180 1.399 . S
C1181 C1182 1.385 . S
C1182 H1168 0.931 . S
C1182 C1181 1.385 . S
C1182 C1183 1.389 . S
C1183 C1182 1.389 . S
C1183 C1184 1.387 . S
C1184 H1169 0.930 . S
C1184 C1179 1.390 . S
C1184 C1183 1.387 . S
H1185 C1197 0.930 . S
H1186 C1199 0.930 . S
H1187 C1200 0.930 . S
H1188 C1204 0.959 . S
H1189 C1204 0.959 . S
H1190 C1204 0.961 . S
H1191 C1205 0.960 . S
H1192 C1205 0.961 . S
H1193 C1205 0.959 . S
H1194 C1208 0.929 . S
H1195 C1209 0.931 1_455 S
H1196 C1211 0.930 . S
C1197 H1185 0.930 . S
C1197 C1198 1.399 . S
C1197 C1202 1.399 . S
C1198 C1197 1.399 . S
C1198 C1199 1.376 . S
C1199 H1186 0.930 . S
C1199 C1198 1.376 . S
C1199 C1200 1.388 . S
C1200 H1187 0.930 . S
C1200 C1199 1.388 . S
C1200 C1201 1.390 . S
C1201 C1200 1.390 . S
C1201 C1202 1.394 . S
C1201 C1207 1.465 . S
C1202 C1197 1.399 . S
C1202 C1201 1.394 . S
C1202 C1203 1.516 . S
C1203 C1202 1.516 . S
C1203 C1204 1.502 . S
C1203 C1205 1.561 . S
C1203 C1206 1.526 . S
C1204 H1188 0.959 . S
C1204 H1189 0.959 . S
C1204 H1190 0.961 . S
C1204 C1203 1.502 . S
C1205 H1191 0.960 . S
C1205 H1192 0.961 . S
C1205 H1193 0.959 . S
C1205 C1203 1.561 . S
C1206 C1203 1.526 . S
C1206 C1207 1.396 . S
C1206 C1211 1.390 1_655 S
C1207 C1201 1.465 . S
C1207 C1206 1.396 . S
C1207 C1208 1.399 . S
C1208 H1194 0.929 . S
C1208 C1207 1.399 . S
C1208 C1209 1.385 . S
C1209 H1195 0.931 1_655 S
C1209 C1208 1.385 . S
C1209 C1210 1.389 1_655 S
C1210 C1209 1.389 1_455 S
C1210 C1211 1.387 . S
C1211 H1196 0.930 . S
C1211 C1206 1.390 1_455 S
C1211 C1210 1.387 . S
C253 C2 0.972 . S
C265 C222 1.051 . S
C280 C199 1.368 . S
C292 C22 1.265 . S
C307 C42 1.461 1_554 S
C319 C179 1.531 . S
C334 C79 1.929 . S
C346 C219 1.937 . S
C361 C99 1.593 . S
C373 C202 1.432 . S
C388 C119 1.816 . S
C400 C239 1.759 . S
C415 C182 1.466 . S
C427 C139 1.516 . S
C442 C159 1.347 . S
C454 C162 1.211 . S
C469 C62 0.921 . S
C481 C82 1.092 . S
C496 C19 1.470 . S
C508 C102 1.376 1_455 S
C523 C39 1.573 1_655 S
C535 C122 1.451 . S
C550 C142 1.335 . S
C562 C59 1.580 1_554 S
C577 C9 1.648 . S
C589 C178 1.744 . S
C604 C29 1.700 . S
C616 C218 1.754 . S
C631 C224 1.307 . S
C643 C49 1.314 . S
C658 C72 1.408 . S
C670 C198 1.482 . S
C685 C92 1.069 . S
C697 C184 1.070 . S
C712 C164 1.333 . S
C724 C112 1.238 . S
C739 C204 1.647 . S
C751 C132 1.606 . S
C766 C238 1.512 . S
C778 C152 1.465 . S
C793 C18 1.561 . S
C805 C69 1.544 . S
C820 C12 1.618 . S
C832 C38 1.659 . S
C847 C32 1.660 . S
C859 C58 1.736 . S
C874 C64 1.630 . S
C886 C52 1.580 . S
C901 C109 1.014 . S
C913 C84 1.077 . S
C928 C104 1.371 . S
C940 C129 1.357 . S
C955 C124 0.952 . S
C967 C149 0.945 . S
C982 C89 1.146 . S
C994 C144 1.153 . S
C1009 C169 1.537 . S
C1021 C78 1.577 . S
C1036 C118 1.642 . S
C1048 C192 1.498 . S
C1063 C172 1.455 . S
C1075 C138 1.553 . S
C1090 C212 1.558 . S
C1102 C158 1.697 . S
C1117 C98 1.166 . S
C1129 C229 1.046 . S
C1144 C232 1.110 . S
C1156 C24 1.106 . S
C1171 C44 0.985 . S
C1183 C189 1.037 . S
C1198 C209 1.393 . S
C1210 C4 1.362 . S
