# Generated by pormake.
# Topology uoj, (4)-cn, num edge types: 1
# Building blocks:
#     Node 0, Type 0, BuildingBlock: KUFVIS_clean_sbu_0, # of connection points: 4
#     Node 1, Type 0, BuildingBlock: KUFVIS_clean_sbu_0, # of connection points: 4
#     Node 2, Type 0, BuildingBlock: KUFVIS_clean_sbu_0, # of connection points: 4
#     Node 3, Type 0, BuildingBlock: KUFVIS_clean_sbu_0, # of connection points: 4
#     Node 4, Type 0, BuildingBlock: KUFVIS_clean_sbu_0, # of connection points: 4
#     Node 5, Type 0, BuildingBlock: KUFVIS_clean_sbu_0, # of connection points: 4
#     Node 6, Type 0, BuildingBlock: KUFVIS_clean_sbu_0, # of connection points: 4
#     Node 7, Type 0, BuildingBlock: KUFVIS_clean_sbu_0, # of connection points: 4
#     Edge 8, Type (0, 0), BuildingBlock: CIFDUS_clean_linker_0, # of connection points: 2
#     Edge 9, Type (0, 0), BuildingBlock: CIFDUS_clean_linker_0, # of connection points: 2
#     Edge 10, Type (0, 0), BuildingBlock: CIFDUS_clean_linker_0, # of connection points: 2
#     Edge 11, Type (0, 0), BuildingBlock: CIFDUS_clean_linker_0, # of connection points: 2
#     Edge 12, Type (0, 0), BuildingBlock: CIFDUS_clean_linker_0, # of connection points: 2
#     Edge 13, Type (0, 0), BuildingBlock: CIFDUS_clean_linker_0, # of connection points: 2
#     Edge 14, Type (0, 0), BuildingBlock: CIFDUS_clean_linker_0, # of connection points: 2
#     Edge 15, Type (0, 0), BuildingBlock: CIFDUS_clean_linker_0, # of connection points: 2
#     Edge 16, Type (0, 0), BuildingBlock: CIFDUS_clean_linker_0, # of connection points: 2
#     Edge 17, Type (0, 0), BuildingBlock: CIFDUS_clean_linker_0, # of connection points: 2
#     Edge 18, Type (0, 0), BuildingBlock: CIFDUS_clean_linker_0, # of connection points: 2
#     Edge 19, Type (0, 0), BuildingBlock: CIFDUS_clean_linker_0, # of connection points: 2
#     Edge 20, Type (0, 0), BuildingBlock: CIFDUS_clean_linker_0, # of connection points: 2
#     Edge 21, Type (0, 0), BuildingBlock: CIFDUS_clean_linker_0, # of connection points: 2
#     Edge 22, Type (0, 0), BuildingBlock: CIFDUS_clean_linker_0, # of connection points: 2
#     Edge 23, Type (0, 0), BuildingBlock: CIFDUS_clean_linker_0, # of connection points: 2
# Relax obj value: 0.137
# Max RMSD: 0.159
# Mean RMSD: 0.159
data_MOF--net-uoj--node1-KUFVIS_clean_sbu_0--edge1-CIFDUS_clean_linker_0
_symmetry_space_group_name_H-M    P1
_symmetry_Int_Tables_number       1
_symmetry_cell_setting            triclinic
loop_
_symmetry_equiv_pos_as_xyz
'x, y, z'
_cell_length_a     28.688892
_cell_length_b     28.696279
_cell_length_c     31.613369
_cell_angle_alpha  90.055741
_cell_angle_beta   90.002415
_cell_angle_gamma 89.888454
loop_
_atom_site_label
_atom_site_type_symbol
_atom_site_fract_x
_atom_site_fract_y
_atom_site_fract_z
_atom_type_partial_charge
Mn0 Mn 0.06422 0.30377 0.41569 0.0
Mn1 Mn 0.06844 0.30427 0.5223 0.0
C2 C 0.04188 0.36932 0.45279 0.0
C3 C 0.09755 0.31311 0.34915 0.0
C4 C 0.98953 0.26075 0.47329 0.0
O5 O 0.1046 0.2473 0.4283 0.0
O6 O 0.10328 0.24997 0.49931 0.0
C7 C 0.16959 0.32343 0.52876 0.0
N8 N 0.12471 0.33559 0.53763 0.0
C9 C 0.14968 0.40471 0.57418 0.0
C10 C 0.19616 0.39284 0.56562 0.0
C11 C 0.20614 0.35204 0.54274 0.0
C12 C 0.11471 0.37496 0.55926 0.0
H13 H 0.17748 0.29221 0.51106 0.0
C14 C 0.11558 0.23093 0.46441 0.0
O15 O 0.06158 0.2866 0.35507 0.0
O16 O 0.11503 0.33354 0.38223 0.0
N17 N 0.03692 0.35467 0.54959 0.0
C18 C 0.99042 0.35968 0.55715 0.0
C19 C 0.97458 0.39816 0.58052 0.0
C20 C 0.00676 0.43052 0.59642 0.0
C21 C 0.05455 0.42394 0.58929 0.0
C22 C 0.06827 0.38475 0.56606 0.0
H23 H 0.9656 0.33467 0.5452 0.0
O24 O 0.02807 0.36295 0.41416 0.0
O25 O 0.06988 0.33788 0.46825 0.0
O26 O 0.00703 0.26914 0.43705 0.0
O27 O 0.00898 0.27277 0.50806 0.0
C28 C 0.08919 0.45429 0.60475 0.0
C29 C 0.13667 0.44484 0.59699 0.0
H30 H 0.22445 0.41478 0.57643 0.0
H31 H 0.24192 0.34268 0.5359 0.0
H32 H 0.93768 0.40288 0.58629 0.0
H33 H 0.99434 0.45981 0.61457 0.0
H34 H 0.07991 0.48487 0.62286 0.0
H35 H 0.16293 0.46849 0.609 0.0
Mn36 Mn 0.30675 0.9266 0.57399 0.0
Mn37 Mn 0.30266 0.9196 0.46759 0.0
C38 C 0.36914 0.95115 0.53421 0.0
C39 C 0.32221 0.89173 0.63914 0.0
C40 C 0.25635 0.9972 0.51704 0.0
O41 O 0.25179 0.88409 0.56397 0.0
O42 O 0.25214 0.88092 0.49288 0.0
C43 C 0.3299 0.82033 0.46066 0.0
N44 N 0.33785 0.86592 0.4512 0.0
C45 C 0.40696 0.84624 0.41189 0.0
C46 C 0.39937 0.79904 0.42098 0.0
C47 C 0.3607 0.78606 0.44553 0.0
C48 C 0.3751 0.87882 0.42784 0.0
H49 H 0.30036 0.81021 0.47969 0.0
C50 C 0.23508 0.86985 0.52899 0.0
O51 O 0.29408 0.92715 0.63611 0.0
O52 O 0.34063 0.87643 0.60434 0.0
N53 N 0.34935 0.95483 0.43872 0.0
C54 C 0.35138 0.00177 0.43246 0.0
C55 C 0.38781 0.02051 0.40825 0.0
C56 C 0.42139 0.99077 0.39038 0.0
C57 C 0.41823 0.94254 0.39675 0.0
C58 C 0.38091 0.92585 0.42085 0.0
H59 H 0.32555 0.02476 0.44602 0.0
O60 O 0.36417 0.96506 0.57299 0.0
O61 O 0.33826 0.92172 0.5203 0.0
O62 O 0.26821 0.98252 0.55368 0.0
O63 O 0.26723 0.97634 0.48263 0.0
C64 C 0.45051 0.91034 0.38005 0.0
C65 C 0.445 0.86225 0.38778 0.0
H66 H 0.42307 0.77251 0.40941 0.0
H67 H 0.3547 0.74972 0.45283 0.0
H68 H 0.38999 0.05775 0.40332 0.0
H69 H 0.44911 0.00537 0.37149 0.0
H70 H 0.47971 0.9221 0.36124 0.0
H71 H 0.47019 0.83787 0.37497 0.0
Mn72 Mn 0.91912 0.68528 0.44482 0.0
Mn73 Mn 0.92562 0.6799 0.55102 0.0
C74 C 0.9492 0.61988 0.47736 0.0
C75 C 0.87936 0.67436 0.38133 0.0
C76 C 0.99663 0.73043 0.49764 0.0
O77 O 0.87705 0.73868 0.46277 0.0
O78 O 0.88535 0.73287 0.53326 0.0
C79 C 0.82696 0.65399 0.56507 0.0
N80 N 0.87321 0.6446 0.56996 0.0
C81 C 0.85649 0.5752 0.60969 0.0
C82 C 0.80868 0.58417 0.6052 0.0
C83 C 0.79387 0.62363 0.5826 0.0
C84 C 0.88781 0.60622 0.59083 0.0
H85 H 0.81539 0.68443 0.54795 0.0
C86 C 0.86873 0.75272 0.50028 0.0
O87 O 0.91381 0.70347 0.3843 0.0
O88 O 0.86688 0.65304 0.41568 0.0
N89 N 0.96281 0.63052 0.57358 0.0
C90 C 0.01014 0.62791 0.57637 0.0
C91 C 0.03067 0.5917 0.59969 0.0
C92 C 0.00231 0.55911 0.62042 0.0
C93 C 0.95373 0.56221 0.61682 0.0
C94 C 0.93525 0.59919 0.59335 0.0
H95 H 0.03205 0.65364 0.56143 0.0
O96 O 0.95861 0.62891 0.43811 0.0
O97 O 0.92083 0.64861 0.49621 0.0
O98 O 0.97624 0.72283 0.46245 0.0
O99 O 0.98128 0.71552 0.53314 0.0
C100 C 0.92288 0.5309 0.63664 0.0
C101 C 0.8743 0.53704 0.63261 0.0
H102 H 0.78306 0.56109 0.61908 0.0
H103 H 0.75703 0.63079 0.57895 0.0
H104 H 0.06821 0.58947 0.60243 0.0
H105 H 0.01813 0.53251 0.63987 0.0
H106 H 0.93609 0.50211 0.65526 0.0
H107 H 0.85094 0.51263 0.64782 0.0
Mn108 Mn 0.68383 0.06354 0.5606 0.0
Mn109 Mn 0.68083 0.07448 0.45462 0.0
C110 C 0.61884 0.04029 0.52374 0.0
C111 C 0.67219 0.0981 0.62658 0.0
C112 C 0.73022 0.99495 0.49908 0.0
O113 O 0.73847 0.10581 0.54884 0.0
O114 O 0.73265 0.11283 0.47823 0.0
C115 C 0.6524 0.17365 0.45216 0.0
N116 N 0.64418 0.12832 0.44181 0.0
C117 C 0.57253 0.14867 0.40679 0.0
C118 C 0.58035 0.19561 0.41685 0.0
C119 C 0.62042 0.20813 0.43971 0.0
C120 C 0.60556 0.11586 0.42012 0.0
H121 H 0.68305 0.1834 0.46989 0.0
C122 C 0.75241 0.12204 0.51364 0.0
O123 O 0.69972 0.06231 0.62234 0.0
O124 O 0.65223 0.11358 0.59267 0.0
N125 N 0.63253 0.03976 0.4274 0.0
C126 C 0.63037 0.99302 0.42 0.0
C127 C 0.59264 0.97478 0.39712 0.0
C128 C 0.55788 0.00481 0.38173 0.0
C129 C 0.56104 0.05283 0.38942 0.0
C130 C 0.59965 0.06903 0.4121 0.0
H131 H 0.65717 0.96983 0.43154 0.0
O132 O 0.62621 0.0255 0.5619 0.0
O133 O 0.64889 0.07001 0.50893 0.0
O134 O 0.72051 0.0077 0.53691 0.0
O135 O 0.71757 0.01767 0.46618 0.0
C136 C 0.52757 0.08528 0.37529 0.0
C137 C 0.53318 0.13313 0.38418 0.0
H138 H 0.55577 0.22231 0.4073 0.0
H139 H 0.62662 0.24426 0.44775 0.0
H140 H 0.59043 0.9377 0.3912 0.0
H141 H 0.52927 0.99065 0.36362 0.0
H142 H 0.49737 0.07388 0.35757 0.0
H143 H 0.50707 0.15771 0.37336 0.0
Mn144 Mn 0.42784 0.81257 0.93969 0.0
Mn145 Mn 0.43265 0.81406 0.04621 0.0
C146 C 0.45727 0.87653 0.97493 0.0
C147 C 0.38783 0.82606 0.87667 0.0
C148 C 0.50278 0.76274 0.99166 0.0
O149 O 0.38556 0.75879 0.95588 0.0
O150 O 0.38882 0.76516 0.02682 0.0
C151 C 0.33627 0.84666 0.06224 0.0
N152 N 0.38311 0.8524 0.06685 0.0
C153 C 0.37192 0.92073 0.1098 0.0
C154 C 0.32354 0.9155 0.10567 0.0
C155 C 0.30566 0.87845 0.08156 0.0
C156 C 0.40069 0.88848 0.08917 0.0
H157 H 0.32241 0.81801 0.04402 0.0
C158 C 0.37377 0.74586 0.99295 0.0
O159 O 0.42249 0.79693 0.87852 0.0
O160 O 0.37551 0.84612 0.91174 0.0
N161 N 0.4735 0.85979 0.06966 0.0
C162 C 0.52099 0.85953 0.07091 0.0
C163 C 0.54443 0.89404 0.09402 0.0
C164 C 0.51881 0.92776 0.11631 0.0
C165 C 0.46997 0.92703 0.11495 0.0
C166 C 0.44854 0.89207 0.09107 0.0
H167 H 0.54086 0.83314 0.0545 0.0
O168 O 0.46715 0.86945 0.93541 0.0
O169 O 0.42912 0.84683 0.9923 0.0
O170 O 0.48498 0.77405 0.95614 0.0
O171 O 0.48557 0.77514 0.02724 0.0
C172 C 0.44171 0.95892 0.13715 0.0
C173 C 0.39273 0.95625 0.13407 0.0
H174 H 0.29982 0.93965 0.12092 0.0
H175 H 0.26837 0.87421 0.07817 0.0
H176 H 0.58214 0.8943 0.0951 0.0
H177 H 0.53702 0.9536 0.1348 0.0
H178 H 0.45725 0.9852 0.15717 0.0
H179 H 0.3714 0.98126 0.15099 0.0
Mn180 Mn 0.8129 0.56991 0.07759 0.0
Mn181 Mn 0.81047 0.57318 0.97093 0.0
C182 C 0.87694 0.54607 0.03944 0.0
C183 C 0.82489 0.60698 0.14229 0.0
C184 C 0.76568 0.49629 0.02202 0.0
O185 O 0.75653 0.61004 0.06534 0.0
O186 O 0.75897 0.61224 0.99425 0.0
C187 C 0.83647 0.67236 0.96116 0.0
N188 N 0.84509 0.62651 0.95318 0.0
C189 C 0.91428 0.64522 0.91373 0.0
C190 C 0.90599 0.69268 0.92129 0.0
C191 C 0.86696 0.70629 0.94517 0.0
C192 C 0.88271 0.61302 0.9305 0.0
H193 H 0.80663 0.68294 0.97968 0.0
C194 C 0.74054 0.62341 0.02979 0.0
O195 O 0.79833 0.57053 0.13917 0.0
O196 O 0.84393 0.62214 0.10773 0.0
N197 N 0.85801 0.53727 0.9438 0.0
C198 C 0.86066 0.49012 0.93907 0.0
C199 C 0.89742 0.47073 0.91563 0.0
C200 C 0.93069 0.50001 0.89697 0.0
C201 C 0.92693 0.54846 0.90178 0.0
C202 C 0.88924 0.56579 0.92511 0.0
H203 H 0.83507 0.46745 0.95323 0.0
O204 O 0.87186 0.53351 0.07858 0.0
O205 O 0.84525 0.57393 0.02425 0.0
O206 O 0.77717 0.51213 0.05829 0.0
O207 O 0.7757 0.51665 0.98723 0.0
C208 C 0.95894 0.58025 0.88428 0.0
C209 C 0.95275 0.62858 0.89043 0.0
H210 H 0.92945 0.71895 0.90905 0.0
H211 H 0.86043 0.74284 0.95129 0.0
H212 H 0.90009 0.43333 0.9119 0.0
H213 H 0.95858 0.48481 0.87868 0.0
H214 H 0.98849 0.568 0.8661 0.0
H215 H 0.97775 0.65265 0.87704 0.0
Mn216 Mn 0.57585 0.1874 0.92727 0.0
Mn217 Mn 0.57386 0.19384 0.03368 0.0
C218 C 0.54867 0.12572 0.96672 0.0
C219 C 0.61414 0.17032 0.86415 0.0
C220 C 0.5008 0.23895 0.97807 0.0
O221 O 0.61747 0.24294 0.93913 0.0
O222 O 0.61502 0.24301 0.01027 0.0
C223 C 0.67191 0.16609 0.04876 0.0
N224 N 0.6255 0.15887 0.05493 0.0
C225 C 0.64073 0.09315 0.10007 0.0
C226 C 0.6887 0.09994 0.09434 0.0
C227 C 0.70434 0.13645 0.0684 0.0
C228 C 0.61007 0.12335 0.07917 0.0
H229 H 0.68406 0.19426 0.02903 0.0
C230 C 0.62899 0.25979 0.97496 0.0
O231 O 0.57901 0.19891 0.86539 0.0
O232 O 0.62794 0.15279 0.89984 0.0
N233 N 0.5356 0.14847 0.06088 0.0
C234 C 0.48822 0.14741 0.06389 0.0
C235 C 0.4669 0.11335 0.08908 0.0
C236 C 0.49453 0.08146 0.11156 0.0
C237 C 0.54321 0.08367 0.1085 0.0
C238 C 0.56249 0.11819 0.08272 0.0
H239 H 0.46683 0.17232 0.0472 0.0
O240 O 0.53755 0.12976 0.92713 0.0
O241 O 0.57677 0.15707 0.98175 0.0
O242 O 0.51838 0.22601 0.94289 0.0
O243 O 0.51894 0.22927 0.01394 0.0
C244 C 0.5734 0.05365 0.13072 0.0
C245 C 0.62211 0.05796 0.12609 0.0
H246 H 0.71382 0.07741 0.10975 0.0
H247 H 0.74131 0.14188 0.06377 0.0
H248 H 0.4293 0.11197 0.09151 0.0
H249 H 0.47796 0.05594 0.13153 0.0
H250 H 0.55955 0.02757 0.1519 0.0
H251 H 0.64493 0.03445 0.14314 0.0
Mn252 Mn 0.19504 0.43926 0.06 0.0
Mn253 Mn 0.18825 0.42158 0.95477 0.0
C254 C 0.12828 0.45915 0.0242 0.0
C255 C 0.18816 0.41156 0.1289 0.0
C256 C 0.23754 0.50415 0.99351 0.0
O257 O 0.24969 0.39673 0.04852 0.0
O258 O 0.24171 0.38545 0.97848 0.0
C259 C 0.1614 0.32209 0.9582 0.0
N260 N 0.15214 0.36657 0.94574 0.0
C261 C 0.08029 0.34307 0.91285 0.0
C262 C 0.08916 0.29695 0.92513 0.0
C263 C 0.12983 0.28646 0.94801 0.0
C264 C 0.11284 0.37714 0.92418 0.0
H265 H 0.19259 0.3139 0.97583 0.0
C266 C 0.2628 0.37867 0.01371 0.0
O267 O 0.21476 0.44682 0.12007 0.0
O268 O 0.16625 0.39216 0.09762 0.0
N269 N 0.13842 0.45395 0.92738 0.0
C270 C 0.13534 0.5001 0.91762 0.0
C271 C 0.09729 0.51626 0.89388 0.0
C272 C 0.06315 0.48476 0.88007 0.0
C273 C 0.06694 0.43745 0.89061 0.0
C274 C 0.10589 0.42331 0.91397 0.0
H275 H 0.16184 0.52438 0.92767 0.0
O276 O 0.13704 0.47673 0.06117 0.0
O277 O 0.15805 0.42861 0.00998 0.0
O278 O 0.2293 0.49323 0.03192 0.0
O279 O 0.2245 0.47957 0.96191 0.0
C280 C 0.03395 0.40368 0.87842 0.0
C281 C 0.04043 0.35658 0.88982 0.0
H282 H 0.06497 0.26935 0.91723 0.0
H283 H 0.13686 0.25098 0.95772 0.0
H284 H 0.09454 0.55281 0.88582 0.0
H285 H 0.03469 0.49722 0.86076 0.0
H286 H 0.00347 0.41349 0.86027 0.0
H287 H 0.0147 0.33098 0.88049 0.0
H288 H 0.1362 0.3383 0.15477 0.0
H289 H 0.22398 0.44879 0.20172 0.0
H290 H 0.20653 0.42579 0.27451 0.0
H291 H 0.16189 0.37753 0.32468 0.0
H292 H 0.07287 0.26846 0.2767 0.0
H293 H 0.09558 0.28749 0.20449 0.0
C294 C 0.15184 0.35718 0.18088 0.0
C295 C 0.18105 0.39541 0.17284 0.0
C296 C 0.14131 0.34409 0.22252 0.0
C297 C 0.20123 0.4193 0.20706 0.0
C298 C 0.1912 0.40622 0.24869 0.0
C299 C 0.14793 0.35759 0.29844 0.0
C300 C 0.11551 0.32183 0.30606 0.0
C301 C 0.16065 0.36914 0.2568 0.0
C302 C 0.09767 0.29634 0.27172 0.0
C303 C 0.11058 0.30722 0.23037 0.0
H304 H 0.29102 0.91676 0.71748 0.0
H305 H 0.38181 0.81952 0.65339 0.0
H306 H 0.40763 0.78836 0.72115 0.0
H307 H 0.40832 0.79192 0.79863 0.0
H308 H 0.31839 0.88954 0.86314 0.0
H309 H 0.2881 0.91689 0.79535 0.0
C310 C 0.31617 0.88851 0.71836 0.0
C311 C 0.33469 0.8708 0.6804 0.0
C312 C 0.33115 0.87082 0.75756 0.0
C313 C 0.36711 0.83402 0.6821 0.0
C314 C 0.38197 0.81614 0.72087 0.0
C315 C 0.38174 0.81883 0.7979 0.0
C316 C 0.36589 0.83882 0.83589 0.0
C317 C 0.3648 0.83475 0.7588 0.0
C318 C 0.33132 0.87359 0.83436 0.0
C319 C 0.31405 0.88939 0.79558 0.0
H320 H 0.90243 0.70904 0.30415 0.0
H321 H 0.8098 0.61197 0.36555 0.0
H322 H 0.78249 0.58449 0.29679 0.0
H323 H 0.78951 0.58362 0.21929 0.0
H324 H 0.88313 0.67991 0.15807 0.0
H325 H 0.90522 0.71215 0.22663 0.0
C326 C 0.87583 0.6823 0.30252 0.0
C327 C 0.85845 0.66238 0.33994 0.0
C328 C 0.86072 0.66619 0.26286 0.0
C329 C 0.8239 0.62783 0.33724 0.0
C330 C 0.80836 0.61194 0.2979 0.0
C331 C 0.81445 0.61193 0.22092 0.0
C332 C 0.83495 0.62901 0.18363 0.0
C333 C 0.82728 0.63014 0.26052 0.0
C334 C 0.86698 0.66591 0.18629 0.0
C335 C 0.8797 0.68437 0.22551 0.0
H336 H 0.59473 0.20415 0.78616 0.0
H337 H 0.67999 0.10278 0.85085 0.0
H338 H 0.70782 0.07271 0.78297 0.0
H339 H 0.70364 0.07184 0.70484 0.0
H340 H 0.61737 0.1735 0.64132 0.0
H341 H 0.59452 0.20674 0.70898 0.0
C342 C 0.61974 0.17577 0.78547 0.0
C343 C 0.63497 0.15556 0.82347 0.0
C344 C 0.63524 0.15841 0.74642 0.0
C345 C 0.66762 0.11896 0.822 0.0
C346 C 0.68344 0.1016 0.78318 0.0
C347 C 0.68017 0.10149 0.70586 0.0
C348 C 0.66196 0.11981 0.66805 0.0
C349 C 0.66683 0.12051 0.74512 0.0
C350 C 0.63172 0.15841 0.6699 0.0
C351 C 0.61855 0.17754 0.70863 0.0
H352 H 0.22994 0.04363 0.44558 0.0
H353 H 0.22228 0.05036 0.58201 0.0
H354 H 0.17905 0.12331 0.57743 0.0
H355 H 0.14329 0.18482 0.53518 0.0
H356 H 0.15026 0.17855 0.39876 0.0
H357 H 0.19418 0.1057 0.40312 0.0
C358 C 0.21876 0.06089 0.47439 0.0
C359 C 0.22939 0.04124 0.5141 0.0
C360 C 0.19391 0.10298 0.47161 0.0
C361 C 0.21468 0.06445 0.55099 0.0
C362 C 0.18993 0.10627 0.54844 0.0
C363 C 0.15438 0.16771 0.50627 0.0
C364 C 0.14331 0.1873 0.46668 0.0
C365 C 0.17938 0.1258 0.50895 0.0
C366 C 0.15818 0.16439 0.42969 0.0
C367 C 0.18327 0.12266 0.43214 0.0
H368 H 0.17966 0.84561 0.4628 0.0
H369 H 0.19456 0.82857 0.59788 0.0
H370 H 0.12232 0.78391 0.60013 0.0
H371 H 0.05408 0.75102 0.56402 0.0
H372 H 0.03917 0.76955 0.42901 0.0
H373 H 0.11219 0.81236 0.42677 0.0
C374 C 0.16738 0.83192 0.49276 0.0
C375 C 0.19262 0.84055 0.53007 0.0
C376 C 0.12557 0.80671 0.49397 0.0
C377 C 0.17586 0.82264 0.5686 0.0
C378 C 0.13448 0.7971 0.56997 0.0
C379 C 0.06668 0.76447 0.53409 0.0
C380 C 0.04087 0.75705 0.49682 0.0
C381 C 0.10885 0.78924 0.53289 0.0
C382 C 0.05806 0.77467 0.45831 0.0
C383 C 0.09995 0.79918 0.4569 0.0
H384 H 0.75554 0.93053 0.55836 0.0
H385 H 0.76348 0.95973 0.42449 0.0
H386 H 0.80513 0.88686 0.41288 0.0
H387 H 0.84041 0.81524 0.44056 0.0
H388 H 0.83261 0.78606 0.5744 0.0
H389 H 0.78964 0.85827 0.58586 0.0
C390 C 0.76647 0.92112 0.52664 0.0
C391 C 0.75645 0.9509 0.49248 0.0
C392 C 0.79035 0.87896 0.52001 0.0
C393 C 0.7707 0.93772 0.45154 0.0
C394 C 0.79453 0.89592 0.44476 0.0
C395 C 0.82904 0.82443 0.47221 0.0
C396 C 0.83995 0.79517 0.5065 0.0
C397 C 0.80458 0.86628 0.47875 0.0
C398 C 0.825 0.80792 0.54734 0.0
C399 C 0.8004 0.8493 0.55401 0.0
H400 H 0.80066 0.15315 0.44532 0.0
H401 H 0.80014 0.15665 0.58192 0.0
H402 H 0.87291 0.20052 0.58166 0.0
H403 H 0.93817 0.23576 0.54266 0.0
H404 H 0.9383 0.23047 0.40598 0.0
H405 H 0.86438 0.18949 0.4066 0.0
C406 C 0.81617 0.16372 0.4751 0.0
C407 C 0.79489 0.15138 0.51352 0.0
C408 C 0.85826 0.18846 0.47483 0.0
C409 C 0.81576 0.16544 0.55177 0.0
C410 C 0.85746 0.19052 0.55171 0.0
C411 C 0.92206 0.22568 0.513 0.0
C412 C 0.94416 0.23611 0.47442 0.0
C413 C 0.87932 0.2018 0.51341 0.0
C414 C 0.92245 0.22287 0.43629 0.0
C415 C 0.88 0.1994 0.4365 0.0
H416 H 0.25357 0.57402 0.0492 0.0
H417 H 0.27665 0.53406 0.91914 0.0
H418 H 0.31844 0.60691 0.90657 0.0
H419 H 0.35111 0.68054 0.93352 0.0
H420 H 0.32719 0.71924 0.06389 0.0
H421 H 0.28268 0.64831 0.07504 0.0
C422 C 0.26781 0.58103 0.01807 0.0
C423 C 0.26244 0.54832 0.98533 0.0
C424 C 0.29154 0.62287 0.01103 0.0
C425 C 0.28049 0.55851 0.94502 0.0
C426 C 0.30437 0.60018 0.93778 0.0
C427 C 0.33573 0.6737 0.96423 0.0
C428 C 0.34289 0.70504 0.99787 0.0
C429 C 0.3104 0.63247 0.97067 0.0
C430 C 0.32271 0.69556 0.0375 0.0
C431 C 0.29723 0.65496 0.04398 0.0
H432 H 0.6879 0.64813 0.96165 0.0
H433 H 0.69566 0.66238 0.09756 0.0
H434 H 0.62267 0.70597 0.09764 0.0
H435 H 0.55636 0.73927 0.05952 0.0
H436 H 0.54828 0.72477 0.92364 0.0
H437 H 0.62166 0.6818 0.92345 0.0
C438 C 0.67386 0.66095 0.99132 0.0
C439 C 0.6974 0.65188 0.02952 0.0
C440 C 0.63163 0.68571 0.99127 0.0
C441 C 0.67837 0.66868 0.06764 0.0
C442 C 0.63655 0.6936 0.06777 0.0
C443 C 0.57044 0.72662 0.0298 0.0
C444 C 0.54659 0.73527 0.99168 0.0
C445 C 0.61276 0.70207 0.02981 0.0
C446 C 0.56572 0.71868 0.95352 0.0
C447 C 0.60778 0.69413 0.95333 0.0
H448 H 0.7426 0.44613 0.95175 0.0
H449 H 0.73211 0.44506 0.08816 0.0
H450 H 0.69107 0.37095 0.08536 0.0
H451 H 0.65694 0.30753 0.04464 0.0
H452 H 0.66624 0.30828 0.90821 0.0
H453 H 0.70953 0.38141 0.91085 0.0
C454 C 0.73129 0.42982 0.98092 0.0
C455 C 0.74033 0.45144 0.0201 0.0
C456 C 0.7077 0.38707 0.97918 0.0
C457 C 0.72563 0.42944 0.05752 0.0
C458 C 0.70217 0.38696 0.05601 0.0
C459 C 0.66854 0.32341 0.01536 0.0
C460 C 0.65809 0.30236 0.97626 0.0
C461 C 0.69292 0.3656 0.01704 0.0
C462 C 0.67365 0.32364 0.93878 0.0
C463 C 0.69832 0.36556 0.94023 0.0
H464 H 0.44853 0.26637 0.04555 0.0
H465 H 0.4524 0.27039 0.90896 0.0
H466 H 0.3783 0.31215 0.90795 0.0
H467 H 0.31291 0.3484 0.94573 0.0
H468 H 0.30978 0.34479 0.08234 0.0
H469 H 0.38298 0.30165 0.08318 0.0
C470 C 0.43336 0.27642 0.01548 0.0
C471 C 0.45628 0.26528 0.97742 0.0
C472 C 0.3907 0.30035 0.01504 0.0
C473 C 0.43573 0.2785 0.93882 0.0
C474 C 0.39325 0.30235 0.93816 0.0
C475 C 0.328 0.33791 0.97571 0.0
C476 C 0.30576 0.34996 0.01388 0.0
C477 C 0.37044 0.31347 0.97608 0.0
C478 C 0.3261 0.33621 0.05242 0.0
C479 C 0.36805 0.31155 0.05299 0.0
H480 H 0.03448 0.58206 0.48853 0.0
H481 H 0.88778 0.55263 0.49824 0.0
H482 H 0.90395 0.46884 0.49587 0.0
H483 H 0.95888 0.4061 0.47548 0.0
H484 H 0.10614 0.43455 0.47244 0.0
H485 H 0.09108 0.51691 0.48807 0.0
C486 C 0.00637 0.55712 0.49204 0.0
C487 C 0.96008 0.57305 0.49326 0.0
C488 C 0.01602 0.50915 0.49082 0.0
C489 C 0.92369 0.54085 0.49757 0.0
C490 C 0.9329 0.49304 0.49562 0.0
C491 C 0.98761 0.43019 0.47968 0.0
C492 C 0.03345 0.41476 0.47286 0.0
C493 C 0.97871 0.47703 0.48979 0.0
C494 C 0.07062 0.44593 0.47796 0.0
C495 C 0.06199 0.49293 0.4867 0.0
H496 H 0.58105 0.95751 0.50371 0.0
H497 H 0.55337 0.105 0.50564 0.0
H498 H 0.46952 0.09017 0.50109 0.0
H499 H 0.40542 0.03466 0.51396 0.0
H500 H 0.43302 0.88717 0.5102 0.0
H501 H 0.51574 0.9022 0.49712 0.0
C502 C 0.55658 0.98627 0.50125 0.0
C503 C 0.57283 0.03215 0.50506 0.0
C504 C 0.50861 0.97736 0.49907 0.0
C505 C 0.5413 0.06942 0.5023 0.0
C506 C 0.49344 0.06091 0.50021 0.0
C507 C 0.42942 0.00599 0.50859 0.0
C508 C 0.41369 0.96 0.51301 0.0
C509 C 0.47676 0.01498 0.50119 0.0
C510 C 0.44466 0.92284 0.50647 0.0
C511 C 0.49191 0.93144 0.49937 0.0
H512 H 0.4651 0.0897 0.9876 0.0
H513 H 0.61258 0.06183 0.99009 0.0
H514 H 0.59746 0.97864 1.00036 0.0
H515 H 0.54161 0.91379 0.99152 0.0
H516 H 0.39425 0.94204 0.9964 0.0
H517 H 0.40967 0.02573 0.00163 0.0
C518 C 0.49378 0.06556 0.99235 0.0
C519 C 0.53974 0.08124 0.98785 0.0
C520 C 0.48477 0.01813 0.99898 0.0
C521 C 0.57691 0.05011 0.99368 0.0
C522 C 0.56826 0.00262 0.99917 0.0
C523 C 0.5131 0.93827 0.99565 0.0
C524 C 0.46699 0.9224 0.9932 0.0
C525 C 0.52229 0.98607 0.99937 0.0
C526 C 0.43003 0.95392 0.99835 0.0
C527 C 0.43883 0.00167 0.00097 0.0
H528 H 0.08851 0.54061 0.00281 0.0
H529 H 0.06315 0.39302 0.00995 0.0
H530 H 0.97894 0.40688 0.0083 0.0
H531 H 0.91453 0.4622 0.02182 0.0
H532 H 0.9398 0.60975 0.01326 0.0
H533 H 0.02218 0.59508 0.99788 0.0
C534 C 0.06438 0.51154 0.00213 0.0
C535 C 0.08149 0.46599 0.00659 0.0
C536 C 0.01622 0.51993 0.00185 0.0
C537 C 0.05042 0.42834 0.00607 0.0
C538 C 0.00237 0.43633 0.00571 0.0
C539 C 0.93794 0.4909 0.01507 0.0
C540 C 0.92164 0.53687 0.01853 0.0
C541 C 0.98506 0.48211 0.00622 0.0
C542 C 0.95186 0.57409 0.01024 0.0
C543 C -0.0011 0.5657 0.00175 0.0
loop_
_geom_bond_atom_site_label_1
_geom_bond_atom_site_label_2
_geom_bond_distance
_geom_bond_site_symmetry_2
_ccdc_geom_bond_type
Mn0 O5 2.095 . S
Mn0 O15 2.162 . S
Mn0 O16 2.297 . S
Mn0 O24 2.385 . S
Mn0 O25 2.209 . S
Mn0 O26 2.094 1_455 S
Mn1 O6 2.121 . S
Mn1 N8 2.257 . S
Mn1 N17 2.282 . S
Mn1 O25 2.215 . S
Mn1 O27 2.118 . S
C2 O24 1.234 . S
C2 O25 1.283 . S
C3 O15 1.281 . S
C3 O16 1.236 . S
C4 O26 1.240 . S
C4 O27 1.263 1_655 S
O5 Mn0 2.095 . S
O5 C14 1.250 . S
O6 Mn1 2.121 . S
O6 C14 1.258 . S
C7 N8 1.326 . S
C7 C11 1.460 . S
C7 H13 0.929 . S
N8 Mn1 2.257 . S
N8 C7 1.326 . S
N8 C12 1.362 . S
C9 C10 1.258 . S
C9 C12 1.431 . S
C9 C29 1.449 . S
C10 C9 1.258 . S
C10 C11 1.477 . S
C10 H30 0.931 . S
C11 C7 1.460 . S
C11 C10 1.477 . S
C11 H31 0.930 . S
C12 N8 1.362 . S
C12 C9 1.431 . S
C12 C22 1.476 . S
H13 C7 0.929 . S
C14 O5 1.250 . S
C14 O6 1.258 . S
O15 Mn0 2.162 . S
O15 C3 1.281 . S
O16 Mn0 2.297 . S
O16 C3 1.236 . S
N17 Mn1 2.282 . S
N17 C18 1.328 1_455 S
N17 C22 1.318 . S
C18 N17 1.328 1_655 S
C18 C19 1.457 . S
C18 H23 0.929 . S
C19 C18 1.457 . S
C19 C20 1.291 . S
C19 H32 0.931 . S
C20 C19 1.291 . S
C20 C21 1.373 . S
C20 H33 0.929 . S
C21 C20 1.373 . S
C21 C22 1.396 1_655 S
C21 C28 1.403 1_655 S
C22 C12 1.476 . S
C22 N17 1.318 . S
C22 C21 1.396 1_455 S
H23 C18 0.929 . S
O24 Mn0 2.385 . S
O24 C2 1.234 . S
O25 Mn0 2.209 . S
O25 Mn1 2.215 . S
O25 C2 1.283 . S
O26 Mn0 2.094 1_655 S
O26 C4 1.240 . S
O27 Mn1 2.118 . S
O27 C4 1.263 1_455 S
C28 C21 1.403 1_455 S
C28 C29 1.399 . S
C28 H34 0.929 1_455 S
C29 C9 1.449 . S
C29 C28 1.399 . S
C29 H35 0.930 . S
H30 C10 0.931 . S
H31 C11 0.930 . S
H32 C19 0.931 . S
H33 C20 0.929 . S
H34 C28 0.929 1_655 S
H35 C29 0.930 . S
Mn36 O41 2.095 . S
Mn36 O51 2.162 . S
Mn36 O52 2.297 . S
Mn36 O60 2.385 . S
Mn36 O61 2.209 . S
Mn36 O62 2.094 1_565 S
Mn37 O42 2.121 . S
Mn37 N44 2.257 . S
Mn37 N53 2.282 . S
Mn37 O61 2.215 . S
Mn37 O63 2.118 . S
C38 O60 1.234 . S
C38 O61 1.283 . S
C39 O51 1.281 . S
C39 O52 1.236 . S
C40 O62 1.240 . S
C40 O63 1.263 1_545 S
O41 Mn36 2.095 . S
O41 C50 1.250 . S
O42 Mn37 2.121 . S
O42 C50 1.258 . S
C43 N44 1.326 . S
C43 C47 1.460 . S
C43 H49 0.929 . S
N44 Mn37 2.257 . S
N44 C43 1.326 . S
N44 C48 1.362 . S
C45 C46 1.258 . S
C45 C48 1.431 . S
C45 C65 1.449 . S
C46 C45 1.258 . S
C46 C47 1.477 . S
C46 H66 0.931 . S
C47 C43 1.460 . S
C47 C46 1.477 . S
C47 H67 0.930 . S
C48 N44 1.362 . S
C48 C45 1.431 . S
C48 C58 1.476 . S
H49 C43 0.929 . S
C50 O41 1.250 . S
C50 O42 1.258 . S
O51 Mn36 2.162 . S
O51 C39 1.281 . S
O52 Mn36 2.297 . S
O52 C39 1.236 . S
N53 Mn37 2.282 . S
N53 C54 1.328 1_565 S
N53 C58 1.318 . S
C54 N53 1.328 1_545 S
C54 C55 1.457 . S
C54 H59 0.929 . S
C55 C54 1.457 . S
C55 C56 1.291 . S
C55 H68 0.931 . S
C56 C55 1.291 . S
C56 C57 1.373 . S
C56 H69 0.929 . S
C57 C56 1.373 . S
C57 C58 1.396 1_545 S
C57 C64 1.403 1_545 S
C58 C48 1.476 . S
C58 N53 1.318 . S
C58 C57 1.396 1_565 S
H59 C54 0.929 . S
O60 Mn36 2.385 . S
O60 C38 1.234 . S
O61 Mn36 2.209 . S
O61 Mn37 2.215 . S
O61 C38 1.283 . S
O62 Mn36 2.094 1_545 S
O62 C40 1.240 . S
O63 Mn37 2.118 . S
O63 C40 1.263 1_565 S
C64 C57 1.403 1_565 S
C64 C65 1.399 . S
C64 H70 0.929 1_565 S
C65 C45 1.449 . S
C65 C64 1.399 . S
C65 H71 0.930 . S
H66 C46 0.931 . S
H67 C47 0.930 . S
H68 C55 0.931 . S
H69 C56 0.929 . S
H70 C64 0.929 1_545 S
H71 C65 0.930 . S
Mn72 O77 2.095 . S
Mn72 O87 2.162 . S
Mn72 O88 2.297 . S
Mn72 O96 2.385 . S
Mn72 O97 2.209 . S
Mn72 O98 2.094 1_655 S
Mn73 O78 2.121 . S
Mn73 N80 2.257 . S
Mn73 N89 2.282 . S
Mn73 O97 2.215 . S
Mn73 O99 2.118 . S
C74 O96 1.234 . S
C74 O97 1.283 . S
C75 O87 1.281 . S
C75 O88 1.236 . S
C76 O98 1.240 . S
C76 O99 1.263 1_455 S
O77 Mn72 2.095 . S
O77 C86 1.250 . S
O78 Mn73 2.121 . S
O78 C86 1.258 . S
C79 N80 1.326 . S
C79 C83 1.460 . S
C79 H85 0.929 . S
N80 Mn73 2.257 . S
N80 C79 1.326 . S
N80 C84 1.362 . S
C81 C82 1.258 . S
C81 C84 1.431 . S
C81 C101 1.449 . S
C82 C81 1.258 . S
C82 C83 1.477 . S
C82 H102 0.931 . S
C83 C79 1.460 . S
C83 C82 1.477 . S
C83 H103 0.930 . S
C84 N80 1.362 . S
C84 C81 1.431 . S
C84 C94 1.476 . S
H85 C79 0.929 . S
C86 O77 1.250 . S
C86 O78 1.258 . S
O87 Mn72 2.162 . S
O87 C75 1.281 . S
O88 Mn72 2.297 . S
O88 C75 1.236 . S
N89 Mn73 2.282 . S
N89 C90 1.328 1_655 S
N89 C94 1.318 . S
C90 N89 1.328 1_455 S
C90 C91 1.457 . S
C90 H95 0.929 . S
C91 C90 1.457 . S
C91 C92 1.291 . S
C91 H104 0.931 . S
C92 C91 1.291 . S
C92 C93 1.373 . S
C92 H105 0.929 . S
C93 C92 1.373 . S
C93 C94 1.396 1_455 S
C93 C100 1.403 1_455 S
C94 C84 1.476 . S
C94 N89 1.318 . S
C94 C93 1.396 1_655 S
H95 C90 0.929 . S
O96 Mn72 2.385 . S
O96 C74 1.234 . S
O97 Mn72 2.209 . S
O97 Mn73 2.215 . S
O97 C74 1.283 . S
O98 Mn72 2.094 1_455 S
O98 C76 1.240 . S
O99 Mn73 2.118 . S
O99 C76 1.263 1_655 S
C100 C93 1.403 1_655 S
C100 C101 1.399 . S
C100 H106 0.929 1_655 S
C101 C81 1.449 . S
C101 C100 1.399 . S
C101 H107 0.930 . S
H102 C82 0.931 . S
H103 C83 0.930 . S
H104 C91 0.931 . S
H105 C92 0.929 . S
H106 C100 0.929 1_455 S
H107 C101 0.930 . S
Mn108 O113 2.095 . S
Mn108 O123 2.162 . S
Mn108 O124 2.297 . S
Mn108 O132 2.385 . S
Mn108 O133 2.209 . S
Mn108 O134 2.094 1_545 S
Mn109 O114 2.121 . S
Mn109 N116 2.257 . S
Mn109 N125 2.282 . S
Mn109 O133 2.215 . S
Mn109 O135 2.118 . S
C110 O132 1.234 . S
C110 O133 1.283 . S
C111 O123 1.281 . S
C111 O124 1.236 . S
C112 O134 1.240 . S
C112 O135 1.263 1_565 S
O113 Mn108 2.095 . S
O113 C122 1.250 . S
O114 Mn109 2.121 . S
O114 C122 1.258 . S
C115 N116 1.326 . S
C115 C119 1.460 . S
C115 H121 0.929 . S
N116 Mn109 2.257 . S
N116 C115 1.326 . S
N116 C120 1.362 . S
C117 C118 1.258 . S
C117 C120 1.431 . S
C117 C137 1.449 . S
C118 C117 1.258 . S
C118 C119 1.477 . S
C118 H138 0.931 . S
C119 C115 1.460 . S
C119 C118 1.477 . S
C119 H139 0.930 . S
C120 N116 1.362 . S
C120 C117 1.431 . S
C120 C130 1.476 . S
H121 C115 0.929 . S
C122 O113 1.250 . S
C122 O114 1.258 . S
O123 Mn108 2.162 . S
O123 C111 1.281 . S
O124 Mn108 2.297 . S
O124 C111 1.236 . S
N125 Mn109 2.282 . S
N125 C126 1.328 1_545 S
N125 C130 1.318 . S
C126 N125 1.328 1_565 S
C126 C127 1.457 . S
C126 H131 0.929 . S
C127 C126 1.457 . S
C127 C128 1.291 . S
C127 H140 0.931 . S
C128 C127 1.291 . S
C128 C129 1.373 . S
C128 H141 0.929 . S
C129 C128 1.373 . S
C129 C130 1.396 1_565 S
C129 C136 1.403 1_565 S
C130 C120 1.476 . S
C130 N125 1.318 . S
C130 C129 1.396 1_545 S
H131 C126 0.929 . S
O132 Mn108 2.385 . S
O132 C110 1.234 . S
O133 Mn108 2.209 . S
O133 Mn109 2.215 . S
O133 C110 1.283 . S
O134 Mn108 2.094 1_565 S
O134 C112 1.240 . S
O135 Mn109 2.118 . S
O135 C112 1.263 1_545 S
C136 C129 1.403 1_545 S
C136 C137 1.399 . S
C136 H142 0.929 1_545 S
C137 C117 1.449 . S
C137 C136 1.399 . S
C137 H143 0.930 . S
H138 C118 0.931 . S
H139 C119 0.930 . S
H140 C127 0.931 . S
H141 C128 0.929 . S
H142 C136 0.929 1_565 S
H143 C137 0.930 . S
Mn144 O149 2.095 . S
Mn144 O159 2.162 . S
Mn144 O160 2.297 . S
Mn144 O168 2.385 . S
Mn144 O169 2.209 . S
Mn144 O170 2.094 . S
Mn145 O150 2.121 . S
Mn145 N152 2.257 . S
Mn145 N161 2.282 . S
Mn145 O169 2.215 1_554 S
Mn145 O171 2.117 . S
C146 O168 1.234 . S
C146 O169 1.283 . S
C147 O159 1.281 . S
C147 O160 1.236 . S
C148 O170 1.240 . S
C148 O171 1.264 1_556 S
O149 Mn144 2.095 . S
O149 C158 1.250 . S
O150 Mn145 2.121 . S
O150 C158 1.258 1_554 S
C151 N152 1.326 . S
C151 C155 1.460 . S
C151 H157 0.929 . S
N152 Mn145 2.257 . S
N152 C151 1.326 . S
N152 C156 1.362 . S
C153 C154 1.258 . S
C153 C156 1.431 . S
C153 C173 1.449 . S
C154 C153 1.258 . S
C154 C155 1.477 . S
C154 H174 0.931 . S
C155 C151 1.460 . S
C155 C154 1.477 . S
C155 H175 0.930 . S
C156 N152 1.362 . S
C156 C153 1.431 . S
C156 C166 1.476 . S
H157 C151 0.929 . S
C158 O149 1.250 . S
C158 O150 1.258 1_556 S
O159 Mn144 2.162 . S
O159 C147 1.281 . S
O160 Mn144 2.297 . S
O160 C147 1.236 . S
N161 Mn145 2.282 . S
N161 C162 1.328 . S
N161 C166 1.318 . S
C162 N161 1.328 . S
C162 C163 1.457 . S
C162 H167 0.929 . S
C163 C162 1.457 . S
C163 C164 1.291 . S
C163 H176 0.931 . S
C164 C163 1.291 . S
C164 C165 1.373 . S
C164 H177 0.929 . S
C165 C164 1.373 . S
C165 C166 1.396 . S
C165 C172 1.403 . S
C166 C156 1.476 . S
C166 N161 1.318 . S
C166 C165 1.396 . S
H167 C162 0.929 . S
O168 Mn144 2.385 . S
O168 C146 1.234 . S
O169 Mn144 2.209 . S
O169 Mn145 2.215 1_556 S
O169 C146 1.283 . S
O170 Mn144 2.094 . S
O170 C148 1.240 . S
O171 Mn145 2.117 . S
O171 C148 1.264 1_554 S
C172 C165 1.403 . S
C172 C173 1.399 . S
C172 H178 0.929 . S
C173 C153 1.449 . S
C173 C172 1.399 . S
C173 H179 0.930 . S
H174 C154 0.931 . S
H175 C155 0.930 . S
H176 C163 0.931 . S
H177 C164 0.929 . S
H178 C172 0.929 . S
H179 C173 0.930 . S
Mn180 O185 2.095 . S
Mn180 O195 2.162 . S
Mn180 O196 2.297 . S
Mn180 O204 2.385 . S
Mn180 O205 2.209 . S
Mn180 O206 2.094 . S
Mn181 O186 2.121 . S
Mn181 N188 2.257 . S
Mn181 N197 2.282 . S
Mn181 O205 2.215 1_556 S
Mn181 O207 2.117 . S
C182 O204 1.234 . S
C182 O205 1.283 . S
C183 O195 1.281 . S
C183 O196 1.236 . S
C184 O206 1.240 . S
C184 O207 1.264 1_554 S
O185 Mn180 2.095 . S
O185 C194 1.250 . S
O186 Mn181 2.121 . S
O186 C194 1.258 1_556 S
C187 N188 1.326 . S
C187 C191 1.460 . S
C187 H193 0.929 . S
N188 Mn181 2.257 . S
N188 C187 1.326 . S
N188 C192 1.362 . S
C189 C190 1.258 . S
C189 C192 1.431 . S
C189 C209 1.449 . S
C190 C189 1.258 . S
C190 C191 1.477 . S
C190 H210 0.931 . S
C191 C187 1.460 . S
C191 C190 1.477 . S
C191 H211 0.930 . S
C192 N188 1.362 . S
C192 C189 1.431 . S
C192 C202 1.476 . S
H193 C187 0.929 . S
C194 O185 1.250 . S
C194 O186 1.258 1_554 S
O195 Mn180 2.162 . S
O195 C183 1.281 . S
O196 Mn180 2.297 . S
O196 C183 1.236 . S
N197 Mn181 2.282 . S
N197 C198 1.328 . S
N197 C202 1.318 . S
C198 N197 1.328 . S
C198 C199 1.457 . S
C198 H203 0.929 . S
C199 C198 1.457 . S
C199 C200 1.291 . S
C199 H212 0.931 . S
C200 C199 1.291 . S
C200 C201 1.373 . S
C200 H213 0.929 . S
C201 C200 1.373 . S
C201 C202 1.396 . S
C201 C208 1.403 . S
C202 C192 1.476 . S
C202 N197 1.318 . S
C202 C201 1.396 . S
H203 C198 0.929 . S
O204 Mn180 2.385 . S
O204 C182 1.234 . S
O205 Mn180 2.209 . S
O205 Mn181 2.215 1_554 S
O205 C182 1.283 . S
O206 Mn180 2.094 . S
O206 C184 1.240 . S
O207 Mn181 2.117 . S
O207 C184 1.264 1_556 S
C208 C201 1.403 . S
C208 C209 1.399 . S
C208 H214 0.929 . S
C209 C189 1.449 . S
C209 C208 1.399 . S
C209 H215 0.930 . S
H210 C190 0.931 . S
H211 C191 0.930 . S
H212 C199 0.931 . S
H213 C200 0.929 . S
H214 C208 0.929 . S
H215 C209 0.930 . S
Mn216 O221 2.095 . S
Mn216 O231 2.162 . S
Mn216 O232 2.297 . S
Mn216 O240 2.385 . S
Mn216 O241 2.209 . S
Mn216 O242 2.094 . S
Mn217 O222 2.121 . S
Mn217 N224 2.257 . S
Mn217 N233 2.282 . S
Mn217 O241 2.215 1_554 S
Mn217 O243 2.117 . S
C218 O240 1.234 . S
C218 O241 1.283 . S
C219 O231 1.281 . S
C219 O232 1.236 . S
C220 O242 1.240 . S
C220 O243 1.264 1_556 S
O221 Mn216 2.095 . S
O221 C230 1.250 . S
O222 Mn217 2.121 . S
O222 C230 1.258 1_554 S
C223 N224 1.326 . S
C223 C227 1.460 . S
C223 H229 0.929 . S
N224 Mn217 2.257 . S
N224 C223 1.326 . S
N224 C228 1.362 . S
C225 C226 1.258 . S
C225 C228 1.431 . S
C225 C245 1.449 . S
C226 C225 1.258 . S
C226 C227 1.477 . S
C226 H246 0.931 . S
C227 C223 1.460 . S
C227 C226 1.477 . S
C227 H247 0.930 . S
C228 N224 1.362 . S
C228 C225 1.431 . S
C228 C238 1.476 . S
H229 C223 0.929 . S
C230 O221 1.250 . S
C230 O222 1.258 1_556 S
O231 Mn216 2.162 . S
O231 C219 1.281 . S
O232 Mn216 2.297 . S
O232 C219 1.236 . S
N233 Mn217 2.282 . S
N233 C234 1.328 . S
N233 C238 1.318 . S
C234 N233 1.328 . S
C234 C235 1.457 . S
C234 H239 0.929 . S
C235 C234 1.457 . S
C235 C236 1.291 . S
C235 H248 0.931 . S
C236 C235 1.291 . S
C236 C237 1.373 . S
C236 H249 0.929 . S
C237 C236 1.373 . S
C237 C238 1.396 . S
C237 C244 1.403 . S
C238 C228 1.476 . S
C238 N233 1.318 . S
C238 C237 1.396 . S
H239 C234 0.929 . S
O240 Mn216 2.385 . S
O240 C218 1.234 . S
O241 Mn216 2.209 . S
O241 Mn217 2.215 1_556 S
O241 C218 1.283 . S
O242 Mn216 2.094 . S
O242 C220 1.240 . S
O243 Mn217 2.117 . S
O243 C220 1.264 1_554 S
C244 C237 1.403 . S
C244 C245 1.399 . S
C244 H250 0.929 . S
C245 C225 1.449 . S
C245 C244 1.399 . S
C245 H251 0.930 . S
H246 C226 0.931 . S
H247 C227 0.930 . S
H248 C235 0.931 . S
H249 C236 0.929 . S
H250 C244 0.929 . S
H251 C245 0.930 . S
Mn252 O257 2.095 . S
Mn252 O267 2.162 . S
Mn252 O268 2.297 . S
Mn252 O276 2.385 . S
Mn252 O277 2.209 . S
Mn252 O278 2.094 . S
Mn253 O258 2.121 . S
Mn253 N260 2.257 . S
Mn253 N269 2.282 . S
Mn253 O277 2.215 1_556 S
Mn253 O279 2.117 . S
C254 O276 1.234 . S
C254 O277 1.283 . S
C255 O267 1.281 . S
C255 O268 1.236 . S
C256 O278 1.240 . S
C256 O279 1.264 1_554 S
O257 Mn252 2.095 . S
O257 C266 1.250 . S
O258 Mn253 2.121 . S
O258 C266 1.258 1_556 S
C259 N260 1.326 . S
C259 C263 1.460 . S
C259 H265 0.929 . S
N260 Mn253 2.257 . S
N260 C259 1.326 . S
N260 C264 1.362 . S
C261 C262 1.258 . S
C261 C264 1.431 . S
C261 C281 1.449 . S
C262 C261 1.258 . S
C262 C263 1.477 . S
C262 H282 0.931 . S
C263 C259 1.460 . S
C263 C262 1.477 . S
C263 H283 0.930 . S
C264 N260 1.362 . S
C264 C261 1.431 . S
C264 C274 1.476 . S
H265 C259 0.929 . S
C266 O257 1.250 . S
C266 O258 1.258 1_554 S
O267 Mn252 2.162 . S
O267 C255 1.281 . S
O268 Mn252 2.297 . S
O268 C255 1.236 . S
N269 Mn253 2.282 . S
N269 C270 1.328 . S
N269 C274 1.318 . S
C270 N269 1.328 . S
C270 C271 1.457 . S
C270 H275 0.929 . S
C271 C270 1.457 . S
C271 C272 1.291 . S
C271 H284 0.931 . S
C272 C271 1.291 . S
C272 C273 1.373 . S
C272 H285 0.929 . S
C273 C272 1.373 . S
C273 C274 1.396 . S
C273 C280 1.403 . S
C274 C264 1.476 . S
C274 N269 1.318 . S
C274 C273 1.396 . S
H275 C270 0.929 . S
O276 Mn252 2.385 . S
O276 C254 1.234 . S
O277 Mn252 2.209 . S
O277 Mn253 2.215 1_554 S
O277 C254 1.283 . S
O278 Mn252 2.094 . S
O278 C256 1.240 . S
O279 Mn253 2.117 . S
O279 C256 1.264 1_556 S
C280 C273 1.403 . S
C280 C281 1.399 . S
C280 H286 0.929 . S
C281 C261 1.449 . S
C281 C280 1.399 . S
C281 H287 0.930 . S
H282 C262 0.931 . S
H283 C263 0.930 . S
H284 C271 0.931 . S
H285 C272 0.929 . S
H286 C280 0.929 . S
H287 C281 0.930 . S
H288 C294 0.930 . S
H289 C297 0.930 . S
H290 C298 0.930 . S
H291 C299 0.930 . S
H292 C302 0.930 . S
H293 C303 0.930 . S
C294 H288 0.930 . S
C294 C295 1.355 . S
C294 C296 1.415 . S
C295 C294 1.355 . S
C295 C297 1.419 . S
C296 C294 1.415 . S
C296 C301 1.425 . S
C296 C303 1.409 . S
C297 H289 0.930 . S
C297 C295 1.419 . S
C297 C298 1.362 . S
C298 H290 0.930 . S
C298 C297 1.362 . S
C298 C301 1.409 . S
C299 H291 0.930 . S
C299 C300 1.355 . S
C299 C301 1.415 . S
C300 C299 1.355 . S
C300 C302 1.419 . S
C301 C296 1.425 . S
C301 C298 1.409 . S
C301 C299 1.415 . S
C302 H292 0.930 . S
C302 C300 1.419 . S
C302 C303 1.362 . S
C303 H293 0.930 . S
C303 C296 1.409 . S
C303 C302 1.362 . S
H304 C310 0.930 . S
H305 C313 0.930 . S
H306 C314 0.930 . S
H307 C315 0.930 . S
H308 C318 0.930 . S
H309 C319 0.930 . S
C310 H304 0.930 . S
C310 C311 1.355 . S
C310 C312 1.415 . S
C311 C310 1.355 . S
C311 C313 1.419 . S
C312 C310 1.415 . S
C312 C317 1.425 . S
C312 C319 1.409 . S
C313 H305 0.930 . S
C313 C311 1.419 . S
C313 C314 1.362 . S
C314 H306 0.930 . S
C314 C313 1.362 . S
C314 C317 1.409 . S
C315 H307 0.930 . S
C315 C316 1.355 . S
C315 C317 1.415 . S
C316 C315 1.355 . S
C316 C318 1.419 . S
C317 C312 1.425 . S
C317 C314 1.409 . S
C317 C315 1.415 . S
C318 H308 0.930 . S
C318 C316 1.419 . S
C318 C319 1.362 . S
C319 H309 0.930 . S
C319 C312 1.409 . S
C319 C318 1.362 . S
H320 C326 0.930 . S
H321 C329 0.930 . S
H322 C330 0.930 . S
H323 C331 0.930 . S
H324 C334 0.930 . S
H325 C335 0.930 . S
C326 H320 0.930 . S
C326 C327 1.355 . S
C326 C328 1.415 . S
C327 C326 1.355 . S
C327 C329 1.419 . S
C328 C326 1.415 . S
C328 C333 1.425 . S
C328 C335 1.409 . S
C329 H321 0.930 . S
C329 C327 1.419 . S
C329 C330 1.362 . S
C330 H322 0.930 . S
C330 C329 1.362 . S
C330 C333 1.409 . S
C331 H323 0.930 . S
C331 C332 1.355 . S
C331 C333 1.415 . S
C332 C331 1.355 . S
C332 C334 1.419 . S
C333 C328 1.425 . S
C333 C330 1.409 . S
C333 C331 1.415 . S
C334 H324 0.930 . S
C334 C332 1.419 . S
C334 C335 1.362 . S
C335 H325 0.930 . S
C335 C328 1.409 . S
C335 C334 1.362 . S
H336 C342 0.930 . S
H337 C345 0.930 . S
H338 C346 0.930 . S
H339 C347 0.930 . S
H340 C350 0.930 . S
H341 C351 0.930 . S
C342 H336 0.930 . S
C342 C343 1.355 . S
C342 C344 1.415 . S
C343 C342 1.355 . S
C343 C345 1.419 . S
C344 C342 1.415 . S
C344 C349 1.425 . S
C344 C351 1.409 . S
C345 H337 0.930 . S
C345 C343 1.419 . S
C345 C346 1.362 . S
C346 H338 0.930 . S
C346 C345 1.362 . S
C346 C349 1.409 . S
C347 H339 0.930 . S
C347 C348 1.355 . S
C347 C349 1.415 . S
C348 C347 1.355 . S
C348 C350 1.419 . S
C349 C344 1.425 . S
C349 C346 1.409 . S
C349 C347 1.415 . S
C350 H340 0.930 . S
C350 C348 1.419 . S
C350 C351 1.362 . S
C351 H341 0.930 . S
C351 C344 1.409 . S
C351 C350 1.362 . S
H352 C358 0.930 . S
H353 C361 0.930 . S
H354 C362 0.930 . S
H355 C363 0.930 . S
H356 C366 0.930 . S
H357 C367 0.930 . S
C358 H352 0.930 . S
C358 C359 1.355 . S
C358 C360 1.415 . S
C359 C358 1.355 . S
C359 C361 1.419 . S
C360 C358 1.415 . S
C360 C365 1.425 . S
C360 C367 1.409 . S
C361 H353 0.930 . S
C361 C359 1.419 . S
C361 C362 1.362 . S
C362 H354 0.930 . S
C362 C361 1.362 . S
C362 C365 1.409 . S
C363 H355 0.930 . S
C363 C364 1.355 . S
C363 C365 1.415 . S
C364 C363 1.355 . S
C364 C366 1.419 . S
C365 C360 1.425 . S
C365 C362 1.409 . S
C365 C363 1.415 . S
C366 H356 0.930 . S
C366 C364 1.419 . S
C366 C367 1.362 . S
C367 H357 0.930 . S
C367 C360 1.409 . S
C367 C366 1.362 . S
H368 C374 0.930 . S
H369 C377 0.930 . S
H370 C378 0.930 . S
H371 C379 0.930 . S
H372 C382 0.930 . S
H373 C383 0.930 . S
C374 H368 0.930 . S
C374 C375 1.355 . S
C374 C376 1.415 . S
C375 C374 1.355 . S
C375 C377 1.419 . S
C376 C374 1.415 . S
C376 C381 1.425 . S
C376 C383 1.409 . S
C377 H369 0.930 . S
C377 C375 1.419 . S
C377 C378 1.362 . S
C378 H370 0.930 . S
C378 C377 1.362 . S
C378 C381 1.409 . S
C379 H371 0.930 . S
C379 C380 1.355 . S
C379 C381 1.415 . S
C380 C379 1.355 . S
C380 C382 1.419 . S
C381 C376 1.425 . S
C381 C378 1.409 . S
C381 C379 1.415 . S
C382 H372 0.930 . S
C382 C380 1.419 . S
C382 C383 1.362 . S
C383 H373 0.930 . S
C383 C376 1.409 . S
C383 C382 1.362 . S
H384 C390 0.930 . S
H385 C393 0.930 . S
H386 C394 0.930 . S
H387 C395 0.930 . S
H388 C398 0.930 . S
H389 C399 0.930 . S
C390 H384 0.930 . S
C390 C391 1.355 . S
C390 C392 1.415 . S
C391 C390 1.355 . S
C391 C393 1.419 . S
C392 C390 1.415 . S
C392 C397 1.425 . S
C392 C399 1.409 . S
C393 H385 0.930 . S
C393 C391 1.419 . S
C393 C394 1.362 . S
C394 H386 0.930 . S
C394 C393 1.362 . S
C394 C397 1.409 . S
C395 H387 0.930 . S
C395 C396 1.355 . S
C395 C397 1.415 . S
C396 C395 1.355 . S
C396 C398 1.419 . S
C397 C392 1.425 . S
C397 C394 1.409 . S
C397 C395 1.415 . S
C398 H388 0.930 . S
C398 C396 1.419 . S
C398 C399 1.362 . S
C399 H389 0.930 . S
C399 C392 1.409 . S
C399 C398 1.362 . S
H400 C406 0.930 . S
H401 C409 0.930 . S
H402 C410 0.930 . S
H403 C411 0.930 . S
H404 C414 0.930 . S
H405 C415 0.930 . S
C406 H400 0.930 . S
C406 C407 1.355 . S
C406 C408 1.415 . S
C407 C406 1.355 . S
C407 C409 1.419 . S
C408 C406 1.415 . S
C408 C413 1.425 . S
C408 C415 1.409 . S
C409 H401 0.930 . S
C409 C407 1.419 . S
C409 C410 1.362 . S
C410 H402 0.930 . S
C410 C409 1.362 . S
C410 C413 1.409 . S
C411 H403 0.930 . S
C411 C412 1.355 . S
C411 C413 1.415 . S
C412 C411 1.355 . S
C412 C414 1.419 . S
C413 C408 1.425 . S
C413 C410 1.409 . S
C413 C411 1.415 . S
C414 H404 0.930 . S
C414 C412 1.419 . S
C414 C415 1.362 . S
C415 H405 0.930 . S
C415 C408 1.409 . S
C415 C414 1.362 . S
H416 C422 0.930 . S
H417 C425 0.930 . S
H418 C426 0.930 . S
H419 C427 0.930 . S
H420 C430 0.930 . S
H421 C431 0.930 . S
C422 H416 0.930 . S
C422 C423 1.355 . S
C422 C424 1.415 . S
C423 C422 1.355 . S
C423 C425 1.419 1_554 S
C424 C422 1.415 . S
C424 C429 1.425 1_554 S
C424 C431 1.409 . S
C425 H417 0.930 . S
C425 C423 1.419 1_556 S
C425 C426 1.362 . S
C426 H418 0.930 . S
C426 C425 1.362 . S
C426 C429 1.409 . S
C427 H419 0.930 . S
C427 C428 1.353 1_556 S
C427 C429 1.415 . S
C428 C427 1.353 1_554 S
C428 C430 1.421 . S
C429 C424 1.425 1_556 S
C429 C426 1.409 . S
C429 C427 1.415 . S
C430 H420 0.930 . S
C430 C428 1.421 . S
C430 C431 1.362 . S
C431 H421 0.930 . S
C431 C424 1.409 . S
C431 C430 1.362 . S
H432 C438 0.930 . S
H433 C441 0.930 . S
H434 C442 0.930 . S
H435 C443 0.930 . S
H436 C446 0.930 . S
H437 C447 0.930 . S
C438 H432 0.930 . S
C438 C439 1.355 1_556 S
C438 C440 1.415 . S
C439 C438 1.355 1_554 S
C439 C441 1.419 . S
C440 C438 1.415 . S
C440 C445 1.425 1_556 S
C440 C447 1.409 . S
C441 H433 0.930 . S
C441 C439 1.419 . S
C441 C442 1.362 . S
C442 H434 0.930 . S
C442 C441 1.362 . S
C442 C445 1.409 . S
C443 H435 0.930 . S
C443 C444 1.355 1_554 S
C443 C445 1.415 . S
C444 C443 1.355 1_556 S
C444 C446 1.419 . S
C445 C440 1.425 1_554 S
C445 C442 1.409 . S
C445 C443 1.415 . S
C446 H436 0.930 . S
C446 C444 1.419 . S
C446 C447 1.362 . S
C447 H437 0.930 . S
C447 C440 1.409 . S
C447 C446 1.362 . S
H448 C454 0.931 . S
H449 C457 0.930 . S
H450 C458 0.930 . S
H451 C459 0.930 . S
H452 C462 0.930 . S
H453 C463 0.930 . S
C454 H448 0.931 . S
C454 C455 1.355 . S
C454 C456 1.415 . S
C455 C454 1.355 . S
C455 C457 1.419 . S
C456 C454 1.415 . S
C456 C461 1.426 . S
C456 C463 1.407 1_554 S
C457 H449 0.930 . S
C457 C455 1.419 . S
C457 C458 1.362 . S
C458 H450 0.930 . S
C458 C457 1.362 . S
C458 C461 1.409 . S
C459 H451 0.930 . S
C459 C460 1.355 1_554 S
C459 C461 1.415 . S
C460 C459 1.355 1_556 S
C460 C462 1.419 . S
C461 C456 1.426 . S
C461 C458 1.409 . S
C461 C459 1.415 . S
C462 H452 0.930 . S
C462 C460 1.419 . S
C462 C463 1.362 . S
C463 H453 0.930 . S
C463 C456 1.407 1_556 S
C463 C462 1.362 . S
H464 C470 0.930 . S
H465 C473 0.930 . S
H466 C474 0.930 . S
H467 C475 0.930 . S
H468 C478 0.930 . S
H469 C479 0.930 . S
C470 H464 0.930 . S
C470 C471 1.355 1_554 S
C470 C472 1.415 . S
C471 C470 1.355 1_556 S
C471 C473 1.419 . S
C472 C470 1.415 . S
C472 C477 1.425 1_554 S
C472 C479 1.409 . S
C473 H465 0.930 . S
C473 C471 1.419 . S
C473 C474 1.362 . S
C474 H466 0.930 . S
C474 C473 1.362 . S
C474 C477 1.409 . S
C475 H467 0.930 . S
C475 C476 1.355 1_556 S
C475 C477 1.415 . S
C476 C475 1.355 1_554 S
C476 C478 1.419 . S
C477 C472 1.425 1_556 S
C477 C474 1.409 . S
C477 C475 1.415 . S
C478 H468 0.930 . S
C478 C476 1.419 . S
C478 C479 1.362 . S
C479 H469 0.930 . S
C479 C472 1.409 . S
C479 C478 1.362 . S
H480 C486 0.930 . S
H481 C489 0.930 . S
H482 C490 0.930 . S
H483 C491 0.930 . S
H484 C494 0.930 . S
H485 C495 0.930 . S
C486 H480 0.930 . S
C486 C487 1.355 . S
C486 C488 1.415 . S
C487 C486 1.355 . S
C487 C489 1.419 . S
C488 C486 1.415 . S
C488 C493 1.425 1_655 S
C488 C495 1.409 1_655 S
C489 H481 0.930 . S
C489 C487 1.419 . S
C489 C490 1.362 . S
C490 H482 0.930 . S
C490 C489 1.362 . S
C490 C493 1.409 1_655 S
C491 H483 0.930 . S
C491 C492 1.355 . S
C491 C493 1.415 . S
C492 C491 1.355 . S
C492 C494 1.419 . S
C493 C488 1.425 1_455 S
C493 C490 1.409 1_455 S
C493 C491 1.415 . S
C494 H484 0.930 . S
C494 C492 1.419 . S
C494 C495 1.362 . S
C495 H485 0.930 . S
C495 C488 1.409 1_455 S
C495 C494 1.362 . S
H496 C502 0.930 . S
H497 C505 0.930 . S
H498 C506 0.930 . S
H499 C507 0.930 . S
H500 C510 0.930 . S
H501 C511 0.930 . S
C502 H496 0.930 . S
C502 C503 1.355 . S
C502 C504 1.415 . S
C503 C502 1.355 . S
C503 C505 1.419 . S
C504 C502 1.415 . S
C504 C509 1.425 1_545 S
C504 C511 1.409 1_545 S
C505 H497 0.930 . S
C505 C503 1.419 . S
C505 C506 1.362 . S
C506 H498 0.930 . S
C506 C505 1.362 . S
C506 C509 1.409 1_545 S
C507 H499 0.930 . S
C507 C508 1.355 . S
C507 C509 1.415 . S
C508 C507 1.355 . S
C508 C510 1.419 . S
C509 C504 1.425 1_565 S
C509 C506 1.409 1_565 S
C509 C507 1.415 . S
C510 H500 0.930 . S
C510 C508 1.419 . S
C510 C511 1.362 . S
C511 H501 0.930 . S
C511 C504 1.409 1_565 S
C511 C510 1.362 . S
H512 C518 0.930 . S
H513 C521 0.930 . S
H514 C522 0.930 . S
H515 C523 0.930 . S
H516 C526 0.930 . S
H517 C527 0.930 . S
C518 H512 0.930 . S
C518 C519 1.355 . S
C518 C520 1.415 . S
C519 C518 1.355 . S
C519 C521 1.419 . S
C520 C518 1.415 . S
C520 C525 1.425 1_545 S
C520 C527 1.409 . S
C521 H513 0.930 . S
C521 C519 1.419 . S
C521 C522 1.362 1_545 S
C522 H514 0.930 . S
C522 C521 1.362 1_565 S
C522 C525 1.409 . S
C523 H515 0.930 . S
C523 C524 1.355 . S
C523 C525 1.415 . S
C524 C523 1.355 . S
C524 C526 1.419 . S
C525 C520 1.425 1_565 S
C525 C522 1.409 . S
C525 C523 1.415 . S
C526 H516 0.930 . S
C526 C524 1.419 . S
C526 C527 1.362 1_565 S
C527 H517 0.930 . S
C527 C520 1.409 . S
C527 C526 1.362 1_545 S
H528 C534 0.930 . S
H529 C537 0.924 1_556 S
H530 C538 0.930 . S
H531 C539 0.930 1_556 S
H532 C542 0.930 . S
H533 C543 0.930 . S
C534 H528 0.930 . S
C534 C535 1.355 . S
C534 C536 1.415 . S
C535 C534 1.355 . S
C535 C537 1.427 . S
C536 C534 1.415 . S
C536 C541 1.425 1_455 S
C536 C543 1.409 . S
C537 H529 0.924 1_554 S
C537 C535 1.427 . S
C537 C538 1.361 1_454 S
C538 H530 0.930 . S
C538 C537 1.361 1_656 S
C538 C541 1.409 1_556 S
C539 H531 0.930 1_554 S
C539 C540 1.355 . S
C539 C541 1.415 . S
C540 C539 1.355 . S
C540 C542 1.419 . S
C541 C536 1.425 1_655 S
C541 C538 1.409 1_554 S
C541 C539 1.415 . S
C542 H532 0.930 . S
C542 C540 1.419 . S
C542 C543 1.362 1_655 S
C543 H533 0.930 . S
C543 C536 1.409 . S
C543 C542 1.362 1_455 S
C295 C255 1.531 . S
C300 C3 1.528 . S
C311 C39 1.545 . S
C316 C147 1.543 . S
C327 C75 1.544 . S
C332 C183 1.544 . S
C343 C219 1.531 . S
C348 C111 1.538 . S
C359 C40 1.484 . S
C364 C14 1.460 . S
C375 C50 1.387 . S
C380 C76 1.473 . S
C391 C112 1.476 . S
C396 C86 1.392 . S
C407 C122 1.404 . S
C412 C4 1.474 . S
C423 C256 1.483 . S
C428 C158 1.433 1_554 S
C439 C194 1.418 . S
C444 C148 1.476 . S
C455 C184 1.473 . S
C460 C230 1.398 . S
C471 C220 1.483 . S
C476 C266 1.457 . S
C487 C74 0.943 . S
C492 C2 1.035 . S
C503 C110 1.033 . S
C508 C38 0.942 . S
C519 C218 1.055 . S
C524 C146 1.035 . S
C535 C254 1.044 . S
C540 C182 1.048 . S
