# Generated by pormake.
# Topology soi, (5)-cn, num edge types: 1
# Building blocks:
#     Node 0, Type 0, BuildingBlock: BEQFEK_clean_sbu_0, # of connection points: 5
#     Node 1, Type 0, BuildingBlock: BEQFEK_clean_sbu_0, # of connection points: 5
#     Node 2, Type 0, BuildingBlock: BEQFEK_clean_sbu_0, # of connection points: 5
#     Node 3, Type 0, BuildingBlock: BEQFEK_clean_sbu_0, # of connection points: 5
#     Node 4, Type 0, BuildingBlock: BEQFEK_clean_sbu_0, # of connection points: 5
#     Node 5, Type 0, BuildingBlock: BEQFEK_clean_sbu_0, # of connection points: 5
#     Node 6, Type 0, BuildingBlock: BEQFEK_clean_sbu_0, # of connection points: 5
#     Node 7, Type 0, BuildingBlock: BEQFEK_clean_sbu_0, # of connection points: 5
#     Node 8, Type 0, BuildingBlock: BEQFEK_clean_sbu_0, # of connection points: 5
#     Node 9, Type 0, BuildingBlock: BEQFEK_clean_sbu_0, # of connection points: 5
#     Node 10, Type 0, BuildingBlock: BEQFEK_clean_sbu_0, # of connection points: 5
#     Node 11, Type 0, BuildingBlock: BEQFEK_clean_sbu_0, # of connection points: 5
#     Node 12, Type 0, BuildingBlock: BEQFEK_clean_sbu_0, # of connection points: 5
#     Node 13, Type 0, BuildingBlock: BEQFEK_clean_sbu_0, # of connection points: 5
#     Node 14, Type 0, BuildingBlock: BEQFEK_clean_sbu_0, # of connection points: 5
#     Node 15, Type 0, BuildingBlock: BEQFEK_clean_sbu_0, # of connection points: 5
#     Edge 16, Type (0, 0), BuildingBlock: OJICUG_clean_linker_0, # of connection points: 2
#     Edge 17, Type (0, 0), BuildingBlock: OJICUG_clean_linker_0, # of connection points: 2
#     Edge 18, Type (0, 0), BuildingBlock: OJICUG_clean_linker_0, # of connection points: 2
#     Edge 19, Type (0, 0), BuildingBlock: OJICUG_clean_linker_0, # of connection points: 2
#     Edge 20, Type (0, 0), BuildingBlock: OJICUG_clean_linker_0, # of connection points: 2
#     Edge 21, Type (0, 0), BuildingBlock: OJICUG_clean_linker_0, # of connection points: 2
#     Edge 22, Type (0, 0), BuildingBlock: OJICUG_clean_linker_0, # of connection points: 2
#     Edge 23, Type (0, 0), BuildingBlock: OJICUG_clean_linker_0, # of connection points: 2
#     Edge 24, Type (0, 0), BuildingBlock: OJICUG_clean_linker_0, # of connection points: 2
#     Edge 25, Type (0, 0), BuildingBlock: OJICUG_clean_linker_0, # of connection points: 2
#     Edge 26, Type (0, 0), BuildingBlock: OJICUG_clean_linker_0, # of connection points: 2
#     Edge 27, Type (0, 0), BuildingBlock: OJICUG_clean_linker_0, # of connection points: 2
#     Edge 28, Type (0, 0), BuildingBlock: OJICUG_clean_linker_0, # of connection points: 2
#     Edge 29, Type (0, 0), BuildingBlock: OJICUG_clean_linker_0, # of connection points: 2
#     Edge 30, Type (0, 0), BuildingBlock: OJICUG_clean_linker_0, # of connection points: 2
#     Edge 31, Type (0, 0), BuildingBlock: OJICUG_clean_linker_0, # of connection points: 2
#     Edge 32, Type (0, 0), BuildingBlock: OJICUG_clean_linker_0, # of connection points: 2
#     Edge 33, Type (0, 0), BuildingBlock: OJICUG_clean_linker_0, # of connection points: 2
#     Edge 34, Type (0, 0), BuildingBlock: OJICUG_clean_linker_0, # of connection points: 2
#     Edge 35, Type (0, 0), BuildingBlock: OJICUG_clean_linker_0, # of connection points: 2
#     Edge 36, Type (0, 0), BuildingBlock: OJICUG_clean_linker_0, # of connection points: 2
#     Edge 37, Type (0, 0), BuildingBlock: OJICUG_clean_linker_0, # of connection points: 2
#     Edge 38, Type (0, 0), BuildingBlock: OJICUG_clean_linker_0, # of connection points: 2
#     Edge 39, Type (0, 0), BuildingBlock: OJICUG_clean_linker_0, # of connection points: 2
#     Edge 40, Type (0, 0), BuildingBlock: OJICUG_clean_linker_0, # of connection points: 2
#     Edge 41, Type (0, 0), BuildingBlock: OJICUG_clean_linker_0, # of connection points: 2
#     Edge 42, Type (0, 0), BuildingBlock: OJICUG_clean_linker_0, # of connection points: 2
#     Edge 43, Type (0, 0), BuildingBlock: OJICUG_clean_linker_0, # of connection points: 2
#     Edge 44, Type (0, 0), BuildingBlock: OJICUG_clean_linker_0, # of connection points: 2
#     Edge 45, Type (0, 0), BuildingBlock: OJICUG_clean_linker_0, # of connection points: 2
#     Edge 46, Type (0, 0), BuildingBlock: OJICUG_clean_linker_0, # of connection points: 2
#     Edge 47, Type (0, 0), BuildingBlock: OJICUG_clean_linker_0, # of connection points: 2
#     Edge 48, Type (0, 0), BuildingBlock: OJICUG_clean_linker_0, # of connection points: 2
#     Edge 49, Type (0, 0), BuildingBlock: OJICUG_clean_linker_0, # of connection points: 2
#     Edge 50, Type (0, 0), BuildingBlock: OJICUG_clean_linker_0, # of connection points: 2
#     Edge 51, Type (0, 0), BuildingBlock: OJICUG_clean_linker_0, # of connection points: 2
#     Edge 52, Type (0, 0), BuildingBlock: OJICUG_clean_linker_0, # of connection points: 2
#     Edge 53, Type (0, 0), BuildingBlock: OJICUG_clean_linker_0, # of connection points: 2
#     Edge 54, Type (0, 0), BuildingBlock: OJICUG_clean_linker_0, # of connection points: 2
#     Edge 55, Type (0, 0), BuildingBlock: OJICUG_clean_linker_0, # of connection points: 2
# Relax obj value: 0.110
# Max RMSD: 0.193
# Mean RMSD: 0.176
data_MOF--net-soi--node1-BEQFEK_clean_sbu_0--edge1-OJICUG_clean_linker_0
_symmetry_space_group_name_H-M    P1
_symmetry_Int_Tables_number       1
_symmetry_cell_setting            triclinic
loop_
_symmetry_equiv_pos_as_xyz
'x, y, z'
_cell_length_a     26.560589
_cell_length_b     20.709748
_cell_length_c     59.189663
_cell_angle_alpha  89.967726
_cell_angle_beta   89.970784
_cell_angle_gamma 90.43246
loop_
_atom_site_label
_atom_site_type_symbol
_atom_site_fract_x
_atom_site_fract_y
_atom_site_fract_z
_atom_type_partial_charge
Co0 Co 0.34092 0.07665 0.15778 0.0
Co1 Co 0.32221 0.07958 0.1052 0.0
C2 C 0.25631 0.1514 0.13656 0.0
O3 O 0.28165 0.13321 0.15363 0.0
O4 O 0.26659 0.13157 0.11681 0.0
C5 C 0.37942 0.05987 0.20458 0.0
O6 O 0.42333 0.08386 0.19854 0.0
C7 C 0.27302 0.08458 0.06074 0.0
C8 C 0.32051 0.01954 0.04047 0.0
C9 C 0.27641 0.05489 0.03979 0.0
N10 N 0.31221 0.06569 0.07349 0.0
N11 N 0.34092 0.0277 0.06111 0.0
C12 C 0.23524 0.13358 0.06805 0.0
H13 H 0.20674 0.10982 0.07902 0.0
H14 H 0.21614 0.15601 0.05339 0.0
H15 H 0.25427 0.17246 0.07776 0.0
C16 C 0.33795 0.93752 0.14944 0.0
N17 N 0.33682 -0.00139 0.14181 0.0
N18 N 0.32414 -0.00128 0.12038 0.0
C19 C 0.31332 0.93753 0.11408 0.0
C20 C 0.32227 0.8966 0.13231 0.0
C21 C 0.35407 0.91875 0.17274 0.0
H22 H 0.38748 0.94772 0.17777 0.0
H23 H 0.32306 0.92857 0.18476 0.0
H24 H 0.36371 0.86675 0.17362 0.0
O25 O 0.39781 0.12712 0.14742 0.0
O26 O 0.38503 0.13302 0.11022 0.0
H27 H 0.31555 0.90708 0.0796 0.0
H28 H 0.26147 0.87805 0.09492 0.0
C29 C 0.28708 0.92004 0.09251 0.0
H30 H 0.26461 0.96121 0.08628 0.0
H31 H 0.37351 0.00551 0.06702 0.0
O32 O 0.34384 0.05621 0.19029 0.0
C33 C 0.40979 0.14857 0.12796 0.0
Co34 Co 0.633 0.41418 0.15946 0.0
Co35 Co 0.65164 0.41275 0.10676 0.0
C36 C 0.71487 0.33556 0.13842 0.0
O37 O 0.69121 0.35517 0.15583 0.0
O38 O 0.7039 0.35538 0.1187 0.0
C39 C 0.63927 0.39906 0.20784 0.0
O40 O 0.66343 0.3457 0.20299 0.0
C41 C 0.70794 0.42224 0.06414 0.0
C42 C 0.64854 0.44965 0.03994 0.0
C43 C 0.69955 0.43693 0.04162 0.0
N44 N 0.664 0.42693 0.07533 0.0
N45 N 0.62867 0.4435 0.06077 0.0
C46 C 0.75556 0.3985 0.07464 0.0
H47 H 0.76239 0.42401 0.09085 0.0
H48 H 0.78857 0.4046 0.0634 0.0
H49 H 0.75096 0.3463 0.07834 0.0
C50 C 0.6458 0.55314 0.15216 0.0
N51 N 0.64208 0.49263 0.14412 0.0
N52 N 0.65199 0.49271 0.12238 0.0
C53 C 0.66429 0.5533 0.11599 0.0
C54 C 0.66059 0.59375 0.13472 0.0
C55 C 0.63617 0.57127 0.17626 0.0
H56 H 0.59995 0.54963 0.18188 0.0
H57 H 0.66662 0.55177 0.18707 0.0
H58 H 0.63424 0.6244 0.17844 0.0
O59 O 0.57522 0.36781 0.14754 0.0
O60 O 0.58652 0.36426 0.11032 0.0
H61 H 0.65664 0.56471 0.08027 0.0
H62 H 0.70239 0.61895 0.09269 0.0
C63 C 0.68628 0.56955 0.09336 0.0
H64 H 0.71666 0.53505 0.08937 0.0
H65 H 0.59096 0.45024 0.06505 0.0
O66 O 0.62195 0.43321 0.19188 0.0
C67 C 0.56144 0.34928 0.12799 0.0
Co68 Co 0.33905 0.90767 0.41392 0.0
Co69 Co 0.34498 0.91139 0.36092 0.0
C70 C 0.42212 0.84287 0.38726 0.0
O71 O 0.40079 0.85787 0.40592 0.0
O72 O 0.40577 0.86293 0.36826 0.0
C73 C 0.34469 0.9348 0.46498 0.0
O74 O 0.38895 0.96353 0.46525 0.0
C75 C 0.36692 0.94035 0.31218 0.0
C76 C 0.28848 0.95411 0.30077 0.0
C77 C 0.33797 0.95727 0.29347 0.0
N78 N 0.33554 0.92917 0.32967 0.0
N79 N 0.28885 0.93684 0.32258 0.0
C80 C 0.42287 0.93335 0.31344 0.0
H81 H 0.43325 0.90019 0.32736 0.0
H82 H 0.44036 0.98115 0.31685 0.0
H83 H 0.43788 0.91488 0.29719 0.0
C84 C 0.32706 0.04859 0.40679 0.0
N85 N 0.33633 0.98843 0.39931 0.0
N86 N 0.34279 0.98998 0.37731 0.0
C87 C 0.34074 0.05167 0.37024 0.0
C88 C 0.32985 0.09095 0.38856 0.0
C89 C 0.30889 0.06316 0.43019 0.0
H90 H 0.28624 0.02212 0.43676 0.0
H91 H 0.34184 0.07062 0.44142 0.0
H92 H 0.28531 0.10708 0.4306 0.0
O93 O 0.28236 0.85391 0.40524 0.0
O94 O 0.28858 0.85142 0.36807 0.0
H95 H 0.31672 0.06174 0.33592 0.0
H96 H 0.35818 0.12555 0.34552 0.0
C97 C 0.35019 0.07294 0.34643 0.0
H98 H 0.38293 0.04674 0.33955 0.0
H99 H 0.25714 0.93183 0.33286 0.0
O100 O 0.32636 0.91412 0.44656 0.0
C101 C 0.26751 0.83318 0.38627 0.0
Co102 Co 0.65673 0.58081 0.41374 0.0
Co103 Co 0.65106 0.57623 0.36057 0.0
C104 C 0.57331 0.64413 0.38662 0.0
O105 O 0.59511 0.6297 0.40521 0.0
O106 O 0.58938 0.62396 0.36754 0.0
C107 C 0.64985 0.55135 0.4645 0.0
O108 O 0.60703 0.51923 0.46386 0.0
C109 C 0.63334 0.53995 0.31198 0.0
C110 C 0.71302 0.52761 0.30208 0.0
C111 C 0.66422 0.51927 0.29448 0.0
N112 N 0.66298 0.55803 0.32939 0.0
N113 N 0.71042 0.55204 0.32302 0.0
C114 C 0.57717 0.53578 0.31303 0.0
H115 H 0.56373 0.54207 0.33065 0.0
H116 H 0.56397 0.48868 0.30622 0.0
H117 H 0.56102 0.57442 0.30232 0.0
C118 C 0.67079 0.44075 0.40704 0.0
N119 N 0.66026 0.50027 0.39931 0.0
N120 N 0.65373 0.49791 0.37731 0.0
C121 C 0.65693 0.43602 0.37054 0.0
C122 C 0.66865 0.39786 0.38902 0.0
C123 C 0.69023 0.42753 0.43033 0.0
H124 H 0.71192 0.4697 0.43663 0.0
H125 H 0.65794 0.41846 0.44182 0.0
H126 H 0.71513 0.38482 0.43065 0.0
O127 O 0.71338 0.63433 0.40521 0.0
O128 O 0.70644 0.63728 0.36807 0.0
H129 H 0.68107 0.42652 0.33622 0.0
H130 H 0.64263 0.36017 0.34619 0.0
C131 C 0.64825 0.41328 0.34687 0.0
H132 H 0.6142 0.43658 0.34003 0.0
H133 H 0.7412 0.56106 0.33353 0.0
O134 O 0.66844 0.57485 0.44652 0.0
C135 C 0.72775 0.65539 0.38621 0.0
Co136 Co 0.66913 0.90926 0.92679 0.0
Co137 Co 0.63838 0.90372 0.87435 0.0
C138 C 0.57944 0.83193 0.90896 0.0
O139 O 0.60659 0.85194 0.92546 0.0
O140 O 0.58682 0.85087 0.88872 0.0
C141 C 0.68367 0.95863 0.97502 0.0
O142 O 0.6479 0.00144 0.97251 0.0
C143 C 0.59217 0.92569 0.82802 0.0
C144 C 0.65958 0.90716 0.80728 0.0
C145 C 0.60968 0.92492 0.80585 0.0
N146 N 0.63041 0.90945 0.84192 0.0
N147 N 0.6702 0.89752 0.82918 0.0
C148 C 0.53951 0.93887 0.83554 0.0
H149 H 0.53676 0.93787 0.85426 0.0
H150 H 0.52713 0.98635 0.82896 0.0
H151 H 0.51392 0.90164 0.82832 0.0
C152 C 0.67524 0.05012 0.91401 0.0
N153 N 0.66239 0.98813 0.90962 0.0
N154 N 0.64544 0.98488 0.88868 0.0
C155 C 0.64443 0.04454 0.8797 0.0
C156 C 0.66348 0.08782 0.89531 0.0
C157 C 0.70687 0.07107 0.93364 0.0
H158 H 0.72739 0.02953 0.94084 0.0
H159 H 0.6824 0.09285 0.94671 0.0
H160 H 0.7347 0.10839 0.92835 0.0
O161 O 0.72303 0.85718 0.91363 0.0
O162 O 0.70009 0.85327 0.87776 0.0
H163 H 0.65191 0.03861 0.84373 0.0
H164 H 0.62308 0.11247 0.85349 0.0
C165 C 0.62612 0.05977 0.85642 0.0
H166 H 0.58823 0.03857 0.85427 0.0
H167 H 0.70537 0.88457 0.83548 0.0
O168 O 0.69431 0.92056 0.95885 0.0
C169 C 0.72982 0.83754 0.89358 0.0
Co170 Co 0.32875 0.57991 0.92857 0.0
Co171 Co 0.35398 0.58492 0.87547 0.0
C172 C 0.42575 0.63647 0.9104 0.0
O173 O 0.3979 0.62131 0.92729 0.0
O174 O 0.41285 0.62355 0.89012 0.0
C175 C 0.30937 0.53073 0.9764 0.0
O176 O 0.3428 0.48491 0.97387 0.0
C177 C 0.39787 0.55687 0.82918 0.0
C178 C 0.33284 0.5854 0.80834 0.0
C179 C 0.38072 0.56011 0.80698 0.0
N180 N 0.3613 0.5788 0.84301 0.0
N181 N 0.32301 0.59663 0.83024 0.0
C182 C 0.4488 0.53577 0.83684 0.0
H183 H 0.45116 0.53572 0.85557 0.0
H184 H 0.45708 0.48695 0.83015 0.0
H185 H 0.47768 0.5693 0.82988 0.0
C186 C 0.30521 0.44303 0.91488 0.0
N187 N 0.3235 0.50277 0.9105 0.0
N188 N 0.33811 0.50477 0.88919 0.0
C189 C 0.33245 0.44591 0.8799 0.0
C190 C 0.31114 0.40494 0.89575 0.0
C191 C 0.27466 0.42573 0.93528 0.0
H192 H 0.25751 0.46941 0.9427 0.0
H193 H 0.29918 0.40202 0.94791 0.0
H194 H 0.24408 0.3912 0.93084 0.0
O195 O 0.284 0.6449 0.91632 0.0
O196 O 0.29805 0.64645 0.87941 0.0
H197 H 0.32429 0.45423 0.84401 0.0
H198 H 0.34679 0.37618 0.85325 0.0
C199 C 0.34842 0.42889 0.85641 0.0
H200 H 0.38783 0.4445 0.85401 0.0
H201 H 0.28926 0.61479 0.83652 0.0
O202 O 0.3016 0.57054 0.9604 0.0
C203 C 0.27483 0.66662 0.89674 0.0
Co204 Co 0.66305 0.07498 0.60214 0.0
Co205 Co 0.63813 0.07766 0.65515 0.0
C206 C 0.57365 0.14678 0.62143 0.0
O207 O 0.59913 0.12863 0.60421 0.0
O208 O 0.58414 0.12734 0.64131 0.0
C209 C 0.67686 0.02953 0.55336 0.0
O210 O 0.64036 0.98682 0.55541 0.0
C211 C 0.592 0.04801 0.70078 0.0
C212 C 0.65468 0.08029 0.72257 0.0
C213 C 0.60719 0.05265 0.72322 0.0
N214 N 0.62925 0.07148 0.68749 0.0
N215 N 0.6661 0.09159 0.70081 0.0
C216 C 0.54205 0.0246 0.69235 0.0
H217 H 0.5418 0.02211 0.67361 0.0
H218 H 0.53306 0.97655 0.69968 0.0
H219 H 0.51241 0.05837 0.69806 0.0
C220 C 0.67614 0.93464 0.61422 0.0
N221 N 0.66083 -0.00487 0.6192 0.0
N222 N 0.64806 -0.00325 0.64077 0.0
C223 C 0.65319 0.93737 0.64979 0.0
C224 C 0.67099 0.89604 0.63332 0.0
C225 C 0.70416 0.91678 0.59321 0.0
H226 H 0.72402 0.95947 0.5862 0.0
H227 H 0.6772 0.89737 0.5806 0.0
H228 H 0.73232 0.87874 0.59671 0.0
O229 O 0.71598 0.13031 0.61495 0.0
O230 O 0.69838 0.13255 0.65152 0.0
H231 H 0.66766 0.9508 0.68511 0.0
H232 H 0.64905 0.8692 0.67774 0.0
C233 C 0.64316 0.92101 0.67402 0.0
H234 H 0.60345 0.93157 0.67786 0.0
H235 H 0.69991 0.11153 0.69504 0.0
O236 O 0.68801 0.06613 0.56993 0.0
C237 C 0.72528 0.15002 0.63482 0.0
Co238 Co 0.3305 0.4128 0.60265 0.0
Co239 Co 0.3539 0.40636 0.65571 0.0
C240 C 0.42363 0.34797 0.62164 0.0
O241 O 0.39661 0.3638 0.60462 0.0
O242 O 0.41162 0.36434 0.64169 0.0
C243 C 0.31757 0.46075 0.55405 0.0
O244 O 0.35333 0.5043 0.55649 0.0
C245 C 0.3974 0.43421 0.70191 0.0
C246 C 0.33362 0.40118 0.72296 0.0
C247 C 0.38093 0.4292 0.72419 0.0
N248 N 0.36101 0.41077 0.68818 0.0
N249 N 0.32349 0.39018 0.70106 0.0
C250 C 0.4477 0.45809 0.69401 0.0
H251 H 0.4488 0.46121 0.67529 0.0
H252 H 0.45631 0.50591 0.70157 0.0
H253 H 0.47713 0.42419 0.69985 0.0
C254 C 0.31456 0.55195 0.61596 0.0
N255 N 0.32955 0.49109 0.62057 0.0
N256 N 0.34119 0.48786 0.64224 0.0
C257 C 0.33556 0.54653 0.65173 0.0
C258 C 0.31871 0.58909 0.63545 0.0
C259 C 0.28881 0.57189 0.59462 0.0
H260 H 0.26936 0.53004 0.58683 0.0
H261 H 0.31716 0.59187 0.58273 0.0
H262 H 0.26067 0.61008 0.59795 0.0
O263 O 0.27908 0.35346 0.6144 0.0
O264 O 0.29634 0.34729 0.65093 0.0
H265 H 0.32135 0.53076 0.68696 0.0
H266 H 0.33946 0.61294 0.68019 0.0
C267 C 0.34562 0.56146 0.67606 0.0
H268 H 0.38543 0.55103 0.67975 0.0
H269 H 0.29006 0.37027 0.69485 0.0
O270 O 0.30646 0.42322 0.57038 0.0
C271 C 0.2702 0.33063 0.6339 0.0
Co272 Co 0.85102 0.57302 0.65892 0.0
Co273 Co 0.83191 0.57345 0.60632 0.0
C274 C 0.76885 0.65122 0.63782 0.0
O275 O 0.79266 0.63189 0.65523 0.0
O276 O 0.77961 0.63095 0.61815 0.0
C277 C 0.84611 0.58988 0.70727 0.0
O278 O 0.82378 0.64451 0.70236 0.0
C279 C 0.775 0.56241 0.56403 0.0
C280 C 0.83442 0.53789 0.53943 0.0
C281 C 0.7832 0.5489 0.54141 0.0
N282 N 0.81927 0.55881 0.57498 0.0
N283 N 0.8546 0.54382 0.5602 0.0
C284 C 0.72715 0.58426 0.57484 0.0
H285 H 0.72207 0.55981 0.59138 0.0
H286 H 0.69381 0.57521 0.56406 0.0
H287 H 0.73005 0.63696 0.57789 0.0
C288 C 0.84131 0.43365 0.65183 0.0
N289 N 0.84273 0.49428 0.64377 0.0
N290 N 0.83227 0.49369 0.62209 0.0
C291 C 0.82163 0.43253 0.6158 0.0
C292 C 0.82727 0.39227 0.63451 0.0
C293 C 0.85333 0.41593 0.67575 0.0
H294 H 0.88885 0.4402 0.68093 0.0
H295 H 0.82273 0.43288 0.68701 0.0
H296 H 0.85787 0.36304 0.6778 0.0
O297 O 0.90864 0.61924 0.64688 0.0
O298 O 0.89695 0.62231 0.60968 0.0
H299 H 0.82955 0.41982 0.58014 0.0
H300 H 0.78406 0.36558 0.59284 0.0
C301 C 0.79987 0.41516 0.59324 0.0
H302 H 0.76928 0.44915 0.58904 0.0
H303 H 0.89255 0.53832 0.56426 0.0
O304 O 0.86185 0.55439 0.69135 0.0
C305 C 0.92223 0.63743 0.62726 0.0
Co306 Co 0.13938 0.91165 0.65905 0.0
Co307 Co 0.16098 0.90694 0.60657 0.0
C308 C 0.22447 0.83532 0.63977 0.0
O309 O 0.19964 0.85526 0.65684 0.0
O310 O 0.21393 0.85331 0.61979 0.0
C311 C 0.12212 0.89901 0.70854 0.0
O312 O 0.129 0.83644 0.70689 0.0
C313 C 0.21807 0.91354 0.56409 0.0
C314 C 0.15958 0.94365 0.53983 0.0
C315 C 0.2103 0.92935 0.54162 0.0
N316 N 0.17407 0.91929 0.57516 0.0
N317 N 0.13927 0.93727 0.56056 0.0
C318 C 0.26514 0.88843 0.5747 0.0
H319 H 0.27435 0.91734 0.58995 0.0
H320 H 0.29752 0.88885 0.56292 0.0
H321 H 0.25827 0.83788 0.58013 0.0
C322 C 0.14802 0.05056 0.6501 0.0
N323 N 0.14652 0.98922 0.64274 0.0
N324 N 0.15849 0.98791 0.62122 0.0
C325 C 0.17047 0.04831 0.61445 0.0
C326 C 0.16403 0.09018 0.63261 0.0
C327 C 0.1344 0.07071 0.67355 0.0
H328 H 0.09769 0.04845 0.67809 0.0
H329 H 0.1634 0.05327 0.68553 0.0
H330 H 0.13113 0.12393 0.67501 0.0
O331 O 0.08447 0.85993 0.6471 0.0
O332 O 0.0974 0.85534 0.60997 0.0
H333 H 0.16649 0.05953 0.5786 0.0
H334 H 0.21224 0.1121 0.59183 0.0
C335 C 0.19498 0.06329 0.59223 0.0
H336 H 0.22488 0.02759 0.58885 0.0
H337 H 0.10169 0.94535 0.56477 0.0
O338 O 0.12522 0.9342 0.69099 0.0
C339 C 0.0726 0.83914 0.62758 0.0
Co340 Co 0.82427 0.40924 0.91322 0.0
Co341 Co 0.83213 0.41333 0.8602 0.0
C342 C 0.90683 0.34176 0.88613 0.0
O343 O 0.88438 0.35684 0.90453 0.0
O344 O 0.8925 0.36317 0.86694 0.0
C345 C 0.83164 0.43755 0.96414 0.0
O346 O 0.87509 0.46824 0.96369 0.0
C347 C 0.84926 0.44844 0.81139 0.0
C348 C 0.77014 0.47031 0.80279 0.0
C349 C 0.81869 0.47318 0.79443 0.0
N350 N 0.81979 0.43342 0.82922 0.0
N351 N 0.77257 0.44513 0.82363 0.0
C352 C 0.9055 0.44585 0.81155 0.0
H353 H 0.91976 0.43733 0.82891 0.0
H354 H 0.92154 0.49146 0.80466 0.0
H355 H 0.91795 0.4058 0.80048 0.0
C356 C 0.81744 0.55076 0.90642 0.0
N357 N 0.82422 0.49012 0.89886 0.0
N358 N 0.83248 0.49162 0.87698 0.0
C359 C 0.83459 0.55359 0.87017 0.0
C360 C 0.82419 0.59328 0.88843 0.0
C361 C 0.79806 0.56633 0.92953 0.0
H362 H 0.77564 0.52533 0.93627 0.0
H363 H 0.83039 0.57564 0.94096 0.0
H364 H 0.77391 0.60976 0.92927 0.0
O365 O 0.76585 0.35892 0.90469 0.0
O366 O 0.77558 0.35375 0.86774 0.0
H367 H 0.81621 0.56759 0.83533 0.0
H368 H 0.85999 0.62649 0.84649 0.0
C369 C 0.84867 0.57481 0.84683 0.0
H370 H 0.88067 0.54569 0.84077 0.0
H371 H 0.74212 0.43942 0.83461 0.0
O372 O 0.81278 0.4153 0.94603 0.0
C373 C 0.75261 0.33703 0.88567 0.0
Co374 Co 0.13912 0.0809 0.91271 0.0
Co375 Co 0.14157 0.08144 0.85971 0.0
C376 C 0.05851 0.1437 0.88838 0.0
O377 O 0.07586 0.12595 0.90748 0.0
O378 O 0.0799 0.12815 0.86982 0.0
C379 C 0.13999 0.07077 0.96389 0.0
O380 O 0.09228 0.08559 0.9663 0.0
C381 C 0.11587 0.02576 0.81494 0.0
C382 C 0.16322 0.08725 0.79284 0.0
C383 C 0.13016 0.03533 0.79263 0.0
N384 N 0.14009 0.06974 0.82778 0.0
N385 N 0.16799 0.10651 0.8144 0.0
C386 C 0.07732 0.97898 0.82365 0.0
H387 H 0.07113 0.98594 0.84203 0.0
H388 H 0.0895 0.92879 0.82042 0.0
H389 H 0.04139 0.98601 0.81444 0.0
C390 C 0.14866 0.94301 0.9053 0.0
N391 N 0.14172 0.00245 0.89699 0.0
N392 N 0.15048 0.00245 0.87516 0.0
C393 C 0.16708 0.94357 0.8691 0.0
C394 C 0.16603 0.90361 0.88804 0.0
C395 C 0.13996 0.92562 0.92956 0.0
H396 H 0.1073 0.95277 0.93622 0.0
H397 H 0.13289 0.87301 0.93149 0.0
H398 H 0.17351 0.93939 0.93968 0.0
O399 O 0.19271 0.14107 0.90315 0.0
O400 O 0.19749 0.14039 0.86583 0.0
H401 H 0.22817 0.90246 0.85018 0.0
H402 H 0.1683 0.89981 0.83634 0.0
C403 C 0.19308 0.92992 0.84716 0.0
H404 H 0.2027 0.97535 0.8382 0.0
H405 H 0.19091 0.14433 0.82003 0.0
O406 O 0.15915 0.06706 0.94433 0.0
C407 C 0.21247 0.16089 0.88488 0.0
Co408 Co 0.1722 0.40857 0.42715 0.0
Co409 Co 0.14009 0.40397 0.37478 0.0
C410 C 0.07954 0.33621 0.40995 0.0
O411 O 0.10792 0.35476 0.42623 0.0
O412 O 0.08694 0.35433 0.38961 0.0
C413 C 0.18807 0.45811 0.47516 0.0
O414 O 0.15274 0.50145 0.47253 0.0
C415 C 0.09361 0.42967 0.32864 0.0
C416 C 0.15938 0.40603 0.30751 0.0
C417 C 0.11047 0.42791 0.30637 0.0
N418 N 0.13131 0.41013 0.34232 0.0
N419 N 0.17006 0.39517 0.32935 0.0
C420 C 0.0419 0.44688 0.33646 0.0
H421 H 0.03969 0.4463 0.35519 0.0
H422 H 0.03147 0.49513 0.32986 0.0
H423 H 0.01446 0.4115 0.32947 0.0
C424 C 0.18308 0.5485 0.41424 0.0
N425 N 0.16788 0.48737 0.40989 0.0
N426 N 0.15075 0.485 0.38896 0.0
C427 C 0.15208 0.54467 0.37994 0.0
C428 C 0.17272 0.58682 0.39555 0.0
C429 C 0.21555 0.56754 0.43384 0.0
H430 H 0.19192 0.59013 0.44705 0.0
H431 H 0.24436 0.60365 0.42858 0.0
H432 H 0.23498 0.5249 0.44085 0.0
O433 O 0.22401 0.35354 0.41379 0.0
O434 O 0.20009 0.34951 0.378 0.0
H435 H 0.15886 0.53746 0.34397 0.0
H436 H 0.13393 0.61379 0.3536 0.0
C437 C 0.13436 0.561 0.35666 0.0
H438 H 0.09547 0.54299 0.35464 0.0
H439 H 0.20467 0.37931 0.33544 0.0
O440 O 0.19823 0.4194 0.45912 0.0
C441 C 0.22965 0.33283 0.39379 0.0
Co442 Co 0.82857 0.07901 0.42783 0.0
Co443 Co 0.86015 0.0834 0.37546 0.0
C444 C 0.92655 0.14004 0.41065 0.0
O445 O 0.89599 0.12668 0.4268 0.0
O446 O 0.91757 0.12341 0.39029 0.0
C447 C 0.81049 0.02925 0.47578 0.0
O448 O 0.8447 0.98439 0.47329 0.0
C449 C 0.90377 0.05821 0.32879 0.0
C450 C 0.83755 0.0854 0.30849 0.0
C451 C 0.88591 0.06192 0.30672 0.0
N452 N 0.86715 0.07823 0.34297 0.0
N453 N 0.82813 0.09525 0.3305 0.0
C454 C 0.95543 0.03876 0.336 0.0
H455 H 0.95872 0.03915 0.3547 0.0
H456 H 0.96419 0.99006 0.32932 0.0
H457 H 0.98339 0.07292 0.32866 0.0
C458 C 0.8125 0.93995 0.41438 0.0
N459 N 0.82878 0.0007 0.41013 0.0
N460 N 0.84524 0.00306 0.38908 0.0
C461 C 0.84243 0.94382 0.37986 0.0
C462 C 0.82149 0.90197 0.39547 0.0
C463 C 0.78106 0.92097 0.43433 0.0
H464 H 0.76238 0.96375 0.44165 0.0
H465 H 0.80532 0.89791 0.4472 0.0
H466 H 0.75172 0.88527 0.42936 0.0
O467 O 0.77897 0.13776 0.41501 0.0
O468 O 0.8037 0.14309 0.37937 0.0
H469 H 0.83604 0.95162 0.3439 0.0
H470 H 0.86005 0.87471 0.35345 0.0
C471 C 0.86018 0.92747 0.35658 0.0
H472 H 0.89927 0.9449 0.35462 0.0
H473 H 0.79418 0.11195 0.33706 0.0
O474 O 0.8019 0.0686 0.45973 0.0
C475 C 0.77444 0.16016 0.3952 0.0
Co476 Co 0.15903 0.57751 0.10178 0.0
Co477 Co 0.13602 0.58185 0.15505 0.0
C478 C 0.07104 0.65106 0.12145 0.0
O479 O 0.09559 0.63164 0.10412 0.0
O480 O 0.08217 0.63262 0.14139 0.0
C481 C 0.17275 0.53188 0.05289 0.0
O482 O 0.1358 0.4897 0.05462 0.0
C483 C 0.09188 0.55429 0.20142 0.0
C484 C 0.15759 0.58144 0.22223 0.0
C485 C 0.10913 0.55707 0.22362 0.0
N486 N 0.12891 0.57562 0.18756 0.0
N487 N 0.16762 0.59266 0.20033 0.0
C488 C 0.04036 0.53455 0.19381 0.0
H489 H 0.03826 0.5332 0.17507 0.0
H490 H 0.03023 0.48668 0.20099 0.0
H491 H 0.01262 0.56979 0.20032 0.0
C492 C 0.16943 0.43701 0.11394 0.0
N493 N 0.15623 0.49823 0.11901 0.0
N494 N 0.14382 0.50049 0.14061 0.0
C495 C 0.14675 0.44073 0.14954 0.0
C496 C 0.16297 0.39853 0.13299 0.0
C497 C 0.19662 0.41783 0.09286 0.0
H498 H 0.21734 0.45965 0.08571 0.0
H499 H 0.16901 0.39924 0.08038 0.0
H500 H 0.22397 0.37881 0.09633 0.0
O501 O 0.21241 0.63255 0.11411 0.0
O502 O 0.1969 0.63564 0.15083 0.0
H503 H 0.16126 0.45143 0.18495 0.0
H504 H 0.138 0.3721 0.17713 0.0
C505 C 0.13529 0.42452 0.17364 0.0
H506 H 0.09628 0.43882 0.17737 0.0
H507 H 0.20175 0.61032 0.19405 0.0
O508 O 0.18382 0.56794 0.0696 0.0
C509 C 0.22298 0.65259 0.13379 0.0
Co510 Co 0.82647 0.91404 0.10248 0.0
Co511 Co 0.8521 0.91078 0.15534 0.0
C512 C 0.92092 0.85163 0.1212 0.0
O513 O 0.89295 0.86595 0.10432 0.0
O514 O 0.90967 0.86904 0.14122 0.0
C515 C 0.81296 0.96076 0.05396 0.0
O516 O 0.84849 0.00458 0.0565 0.0
C517 C 0.89756 0.94073 0.20097 0.0
C518 C 0.83549 0.90641 0.22279 0.0
C519 C 0.88259 0.93518 0.22343 0.0
N520 N 0.86058 0.91668 0.18769 0.0
N521 N 0.82407 0.89545 0.20101 0.0
C522 C 0.9471 0.96551 0.19247 0.0
H523 H 0.94724 0.96797 0.17373 0.0
H524 H 0.95529 0.01384 0.19972 0.0
H525 H 0.97735 0.93263 0.19818 0.0
C526 C 0.80899 0.05315 0.11505 0.0
N527 N 0.82544 0.9931 0.11989 0.0
N528 N 0.83811 0.99133 0.14146 0.0
C529 C 0.83183 0.05027 0.15064 0.0
C530 C 0.81336 0.09141 0.13425 0.0
C531 C 0.78127 0.07089 0.09396 0.0
H532 H 0.76255 0.02783 0.08663 0.0
H533 H 0.8082 0.09177 0.0816 0.0
H534 H 0.75222 0.1078 0.09748 0.0
O535 O 0.7757 0.85507 0.11497 0.0
O536 O 0.79486 0.85064 0.15136 0.0
H537 H 0.8187 0.03617 0.18603 0.0
H538 H 0.83602 0.11823 0.17862 0.0
C539 C 0.84247 0.06658 0.17481 0.0
H540 H 0.88243 0.05667 0.17838 0.0
H541 H 0.79054 0.87481 0.19522 0.0
O542 O 0.80193 0.92304 0.07025 0.0
C543 C 0.76793 0.83311 0.13469 0.0
C544 C 0.27697 0.81004 0.15353 0.0
C545 C 0.30594 0.82865 0.13475 0.0
H546 H 0.2296 0.7382 0.16841 0.0
C547 C 0.31464 0.78387 0.11744 0.0
H548 H 0.26877 0.84385 0.16695 0.0
C549 C 0.29101 0.7234 0.11799 0.0
C550 C 0.25892 0.70673 0.13602 0.0
H551 H 0.33746 0.7969 0.10295 0.0
H552 H 0.29549 0.69131 0.10369 0.0
C553 C 0.25429 0.74932 0.15433 0.0
C554 C 0.66894 0.70777 0.1212 0.0
C555 C 0.68102 0.65981 0.13698 0.0
H556 H 0.68735 0.80142 0.10806 0.0
C557 C 0.71645 0.67337 0.15394 0.0
H558 H 0.64115 0.69851 0.10818 0.0
C559 C 0.74159 0.73254 0.15435 0.0
C560 C 0.73272 0.7785 0.13741 0.0
H561 H 0.72694 0.63691 0.16615 0.0
H562 H 0.77064 0.74019 0.16693 0.0
C563 C 0.69507 0.76654 0.12123 0.0
C564 C 0.32507 0.20262 0.40472 0.0
C565 C 0.31211 0.15832 0.38772 0.0
H566 H 0.30906 0.29399 0.42001 0.0
C567 C 0.27791 0.17666 0.37088 0.0
H568 H 0.35194 0.18982 0.4177 0.0
C569 C 0.25486 0.23664 0.3717 0.0
C570 C 0.26426 0.27875 0.38981 0.0
H571 H 0.26633 0.1432 0.35781 0.0
H572 H 0.22661 0.24757 0.35909 0.0
C573 C 0.3009 0.26226 0.40591 0.0
C574 C 0.74913 0.25651 0.37323 0.0
C575 C 0.73988 0.21412 0.39128 0.0
H576 H 0.73527 0.34902 0.35898 0.0
C577 C 0.70205 0.22887 0.40703 0.0
H578 H 0.77822 0.24669 0.36088 0.0
C579 C 0.67614 0.28713 0.40548 0.0
C580 C 0.68849 0.33166 0.38846 0.0
H581 H 0.69396 0.19673 0.42104 0.0
H582 H 0.64828 0.29877 0.41819 0.0
C583 C 0.72421 0.31513 0.37203 0.0
C584 C 0.70541 0.17154 0.87141 0.0
C585 C 0.67861 0.15545 0.8911 0.0
H586 H 0.74781 0.2433 0.85368 0.0
C587 C 0.66948 0.2032 0.90732 0.0
H588 H 0.71392 0.13523 0.85885 0.0
C589 C 0.68965 0.26515 0.90455 0.0
C590 C 0.71902 0.28017 0.88543 0.0
H591 H 0.64853 0.19188 0.92254 0.0
H592 H 0.68475 0.30011 0.91797 0.0
C593 C 0.72475 0.23363 0.86842 0.0
C594 C 0.26353 0.32569 0.87223 0.0
C595 C 0.2912 0.33924 0.89188 0.0
H596 H 0.21891 0.25699 0.85415 0.0
C597 C 0.29745 0.29078 0.90819 0.0
H598 H 0.25683 0.36274 0.8597 0.0
C599 C 0.27434 0.23055 0.90533 0.0
C600 C 0.24567 0.21772 0.88588 0.0
H601 H 0.31894 0.30009 0.9234 0.0
H602 H 0.27746 0.19482 0.91862 0.0
C603 C 0.24179 0.26508 0.86905 0.0
C604 C 0.72437 0.8165 0.65394 0.0
C605 C 0.69025 0.82986 0.63647 0.0
H606 H 0.77453 0.74805 0.66862 0.0
C607 C 0.67722 0.78083 0.62118 0.0
H608 H 0.73591 0.85396 0.66564 0.0
C609 C 0.69982 0.72026 0.6227 0.0
C610 C 0.73568 0.70779 0.63958 0.0
H611 H 0.65082 0.79007 0.60763 0.0
H612 H 0.6907 0.68405 0.61016 0.0
C613 C 0.74637 0.75575 0.65567 0.0
C614 C 0.29433 0.76633 0.62561 0.0
C615 C 0.25779 0.77916 0.64218 0.0
H616 H 0.34254 0.69558 0.6106 0.0
C617 C 0.2456 0.731 0.65801 0.0
H618 H 0.30452 0.80269 0.61325 0.0
C619 C 0.26649 0.66961 0.65616 0.0
C620 C 0.30091 0.65582 0.63885 0.0
H621 H 0.21685 0.73898 0.67067 0.0
H622 H 0.25369 0.63203 0.66758 0.0
C623 C 0.31576 0.70511 0.62397 0.0
C624 C 0.77611 0.30909 0.65451 0.0
C625 C 0.80946 0.32499 0.63694 0.0
H626 H 0.7248 0.23969 0.66811 0.0
C627 C 0.82158 0.27809 0.62078 0.0
H628 H 0.76557 0.34457 0.66705 0.0
C629 C 0.79695 0.21824 0.62097 0.0
C630 C 0.76087 0.20417 0.63768 0.0
H631 H 0.84794 0.28906 0.60732 0.0
H632 H 0.80416 0.18441 0.60741 0.0
C633 C 0.75264 0.24887 0.65509 0.0
C634 C 0.24155 0.23083 0.65342 0.0
C635 C 0.23489 0.27583 0.63596 0.0
H636 H 0.2258 0.13579 0.66543 0.0
C637 C 0.19971 0.26255 0.6188 0.0
H638 H 0.26864 0.23941 0.66678 0.0
C639 C 0.174 0.20345 0.61839 0.0
C640 C 0.18396 0.15654 0.63484 0.0
H641 H 0.19369 0.29661 0.60518 0.0
H642 H 0.14821 0.19318 0.60465 0.0
C643 C 0.21685 0.17141 0.65268 0.0
C644 C 0.77935 0.68373 0.8698 0.0
C645 C 0.80997 0.66203 0.88751 0.0
H646 H 0.7321 0.75793 0.85727 0.0
C647 C 0.82182 0.70432 0.90529 0.0
H648 H 0.76864 0.65207 0.85606 0.0
C649 C 0.79914 0.76493 0.90645 0.0
C650 C 0.7652 0.7843 0.88957 0.0
H651 H 0.84617 0.68906 0.91893 0.0
H652 H 0.80574 0.79477 0.9212 0.0
C653 C 0.758 0.74467 0.87059 0.0
C654 C 0.22168 0.82925 0.90933 0.0
C655 C 0.19057 0.84032 0.8906 0.0
H656 H 0.27115 0.76466 0.92616 0.0
C657 C 0.18575 0.79225 0.87397 0.0
H658 H 0.22837 0.86623 0.92187 0.0
C659 C 0.21253 0.73457 0.87591 0.0
C660 C 0.24303 0.7238 0.89486 0.0
H661 H 0.1619 0.7996 0.85938 0.0
H662 H 0.20954 0.69862 0.86268 0.0
C663 C 0.24675 0.77116 0.91167 0.0
C664 C 0.18206 0.70153 0.40787 0.0
C665 C 0.18981 0.65378 0.3915 0.0
H666 H 0.19983 0.79754 0.41877 0.0
C667 C 0.21709 0.6691 0.37186 0.0
H668 H 0.16082 0.6908 0.42306 0.0
C669 C 0.23802 0.73044 0.36904 0.0
C670 C 0.23336 0.7769 0.38614 0.0
H671 H 0.2246 0.63269 0.3592 0.0
H672 H 0.26124 0.73958 0.3543 0.0
C673 C 0.20386 0.76262 0.40527 0.0
C674 C 0.77686 0.82002 0.3719 0.0
C675 C 0.80435 0.83516 0.39147 0.0
H676 H 0.73286 0.74948 0.35437 0.0
C677 C 0.81274 0.78721 0.40771 0.0
H678 H 0.76903 0.85661 0.35933 0.0
C679 C 0.79133 0.72598 0.40506 0.0
C680 C 0.76156 0.71187 0.38602 0.0
H681 H 0.83428 0.79781 0.42281 0.0
H682 H 0.79586 0.6908 0.41845 0.0
C683 C 0.75628 0.75857 0.36903 0.0
C684 C 0.18821 0.22225 0.12154 0.0
C685 C 0.223 0.20774 0.13867 0.0
H686 H 0.14134 0.29444 0.1065 0.0
C687 C 0.23335 0.25426 0.15533 0.0
H688 H 0.17947 0.1873 0.10851 0.0
C689 C 0.21263 0.31573 0.15382 0.0
C690 C 0.17993 0.33128 0.13604 0.0
H691 H 0.26066 0.24508 0.16851 0.0
H692 H 0.22439 0.35209 0.16589 0.0
C693 C 0.16671 0.28353 0.12028 0.0
C694 C 0.738 0.23164 0.15656 0.0
C695 C 0.74829 0.27932 0.14028 0.0
H696 H 0.74901 0.1337 0.16678 0.0
C697 C 0.78407 0.26681 0.12336 0.0
H698 H 0.70996 0.23944 0.16956 0.0
C699 C 0.80685 0.20638 0.12194 0.0
C700 C 0.7941 0.15754 0.13737 0.0
H701 H 0.79294 0.30286 0.11071 0.0
H702 H 0.83315 0.19708 0.10835 0.0
C703 C 0.76024 0.17101 0.15494 0.0
C704 C 0.25901 0.05481 0.99847 0.0
C705 C 0.24064 0.05726 0.02064 0.0
H706 H 0.24186 0.05708 0.96332 0.0
C707 C 0.18826 0.06014 0.02416 0.0
H708 H 0.29907 0.05164 0.99523 0.0
C709 C 0.15513 0.06395 1.00581 0.0
C710 C 0.17376 0.06356 0.98362 0.0
H711 H 0.17272 0.05895 0.04105 0.0
H712 H 0.11508 0.06721 1.00901 0.0
C713 C 0.22605 0.05794 0.98019 0.0
C714 C 0.81423 0.46752 1.00469 0.0
C715 C 0.80037 0.43462 0.98486 0.0
H716 H 0.79247 0.49515 0.03827 0.0
C717 C 0.75393 0.40133 0.9843 0.0
H718 H 0.84942 0.49415 1.00558 0.0
C719 C 0.7217 0.40197 1.00286 0.0
C720 C 0.73529 0.43506 0.02255 0.0
H721 H 0.74185 0.37541 0.96934 0.0
H722 H 0.68599 0.37648 1.0018 0.0
C723 C 0.7818 0.46788 0.02339 0.0
C724 C 0.26528 0.89993 0.48402 0.0
C725 C 0.31253 0.93106 0.4854 0.0
H726 H 0.19633 0.87538 0.50073 0.0
C727 C 0.32664 0.96055 0.50583 0.0
H728 H 0.25296 0.87667 0.46857 0.0
C729 C 0.29374 0.95954 0.52437 0.0
C730 C 0.24652 0.92872 0.52274 0.0
H731 H 0.36248 0.98544 0.50736 0.0
H732 H 0.30468 0.98417 0.53976 0.0
C733 C 0.23261 0.89919 0.50241 0.0
C734 C 0.7013 0.51695 0.52316 0.0
C735 C 0.74711 0.5514 0.52253 0.0
H736 H 0.6339 0.49022 0.50532 0.0
C737 C 0.75956 0.58713 0.50323 0.0
H738 H 0.69153 0.48775 0.53773 0.0
C739 C 0.72691 0.58867 0.48485 0.0
C740 C 0.68122 0.55368 0.48517 0.0
H741 H 0.79469 0.61397 0.50235 0.0
H742 H 0.73812 0.61657 0.47017 0.0
C743 C 0.66847 0.51821 0.50463 0.0
C744 C 0.73299 0.90105 1.00494 0.0
C745 C 0.71587 0.95918 0.9955 0.0
H746 H 0.77625 0.85604 0.03119 0.0
C747 C 0.73177 0.01788 1.00516 0.0
H748 H 0.72147 0.85514 0.99777 0.0
C749 C 0.7647 0.01842 0.0237 0.0
C750 C 0.78103 0.96024 0.0334 0.0
H751 H 0.71961 0.0634 0.99807 0.0
H752 H 0.77646 0.06433 0.03079 0.0
C753 C 0.76441 0.90156 0.02398 0.0
C754 C 0.22657 0.58981 0.02438 0.0
C755 C 0.20647 0.53169 0.03289 0.0
H756 H 0.27407 0.63508 0.99949 0.0
C757 C 0.22127 0.47317 0.02296 0.0
H758 H 0.21601 0.63556 0.0318 0.0
C759 C 0.25602 0.47277 1.00509 0.0
C760 C 0.27543 0.53097 0.99633 0.0
H761 H 0.20688 0.42763 0.02936 0.0
H762 H 0.26687 0.42697 0.99778 0.0
C763 C 0.2599 0.58952 1.00599 0.0
C764 C 0.72864 0.08787 0.52419 0.0
C765 C 0.70985 0.02956 0.53311 0.0
H766 H 0.77434 0.13347 0.4987 0.0
C767 C 0.7251 0.9711 0.52327 0.0
H768 H 0.71768 0.13358 0.53152 0.0
C769 C 0.75906 0.97096 0.50509 0.0
C770 C 0.77717 0.02933 0.49593 0.0
H771 H 0.71169 0.92543 0.52998 0.0
H772 H 0.77033 0.92521 0.49789 0.0
C773 C 0.76115 0.0878 0.5055 0.0
C774 C 0.26852 0.40137 0.52427 0.0
C775 C 0.28562 0.4601 0.53349 0.0
H776 H 0.22515 0.35476 0.49824 0.0
C777 C 0.26974 0.51821 0.52359 0.0
H778 H 0.28 0.3559 0.53164 0.0
C779 C 0.23679 0.51757 0.50506 0.0
C780 C 0.2204 0.4588 0.49561 0.0
H781 H 0.28188 0.56417 0.53051 0.0
H782 H 0.22497 0.56305 0.49781 0.0
C783 C 0.23706 0.40072 0.50524 0.0
C784 C 0.40668 0.0401 0.2448 0.0
C785 C 0.37142 0.03183 0.22731 0.0
H786 H 0.42373 0.0244 0.27972 0.0
C787 C 0.32744 -0.00423 0.23158 0.0
H788 H 0.44084 0.06787 0.24204 0.0
C789 C 0.31845 0.96933 0.25278 0.0
C790 C 0.35277 0.97876 0.27052 0.0
H791 H 0.29936 0.98822 0.21857 0.0
H792 H 0.28381 0.94238 0.25539 0.0
C793 C 0.39722 0.01422 0.26632 0.0
C794 C 0.61137 0.48013 0.23677 0.0
C795 C 0.6391 0.42459 0.23118 0.0
H796 H 0.59703 0.55358 0.26157 0.0
C797 C 0.6705 0.39712 0.24758 0.0
H798 H 0.58667 0.50229 0.2245 0.0
C799 C 0.67669 0.42685 0.26853 0.0
C800 C 0.65095 0.48394 0.2737 0.0
H801 H 0.69225 0.35436 0.2439 0.0
H802 H 0.70281 0.4061 0.28053 0.0
C803 C 0.61701 0.50937 0.25797 0.0
C804 C 0.58855 0.9195 0.765 0.0
C805 C 0.58833 0.95449 0.78532 0.0
H806 H 0.59248 0.92403 0.72884 0.0
C807 C 0.58238 0.02175 0.78455 0.0
H808 H 0.59423 0.86775 0.7652 0.0
C809 C 0.58252 0.05408 0.76375 0.0
C810 C 0.58732 0.01948 0.74347 0.0
H811 H 0.58349 0.04993 0.79996 0.0
H812 H 0.58344 0.1064 0.76361 0.0
C813 C 0.58742 0.95172 0.74419 0.0
C814 C 0.40196 0.52974 0.74527 0.0
C815 C 0.39972 0.46199 0.74473 0.0
H816 H 0.39806 0.61459 0.76598 0.0
C817 C 0.40208 0.42761 0.76517 0.0
H818 H 0.39864 0.5574 0.72981 0.0
C819 C 0.4027 0.46039 0.78587 0.0
C820 C 0.39979 0.52804 0.78642 0.0
H821 H 0.39929 0.37539 0.76518 0.0
H822 H 0.39998 0.43264 0.80135 0.0
C823 C 0.40142 0.56248 0.76597 0.0
C824 C 0.86495 0.4789 0.75752 0.0
C825 C 0.83274 0.50704 0.77342 0.0
H826 H 0.89454 0.48326 0.72386 0.0
C827 C 0.80948 0.56593 0.76828 0.0
H828 H 0.88299 0.4333 0.76108 0.0
C829 C 0.81629 0.59482 0.74721 0.0
C830 C 0.84589 0.56482 0.73068 0.0
H831 H 0.78477 0.58884 0.78039 0.0
H832 H 0.7964 0.63908 0.74356 0.0
C833 C 0.87126 0.50741 0.73623 0.0
C834 C 0.10604 0.02969 0.75234 0.0
C835 C 0.11798 -0.00281 0.77234 0.0
H836 H 0.09608 0.02374 0.71676 0.0
C837 C 0.12594 0.93021 0.77174 0.0
H838 H 0.09981 0.08135 0.75241 0.0
C839 C 0.12481 0.89702 0.7511 0.0
C840 C 0.11575 0.9305 0.73083 0.0
H841 H 0.13641 0.90434 0.78691 0.0
H842 H 0.13359 0.84604 0.75089 0.0
C843 C 0.1044 -0.00336 0.73187 0.0
C844 C 0.08699 0.52701 0.28529 0.0
C845 C 0.09001 0.45937 0.28596 0.0
H846 H 0.09044 0.61175 0.26443 0.0
C847 C 0.08783 0.42468 0.26558 0.0
H848 H 0.09002 0.5549 0.30073 0.0
C849 C 0.08693 0.4572 0.24482 0.0
C850 C 0.08951 0.52492 0.24415 0.0
H851 H 0.09125 0.37258 0.26567 0.0
H852 H 0.08991 0.42938 0.22938 0.0
C853 C 0.08739 0.55955 0.26453 0.0
C854 C 0.90852 0.96383 0.2849 0.0
C855 C 0.90485 0.03137 0.28587 0.0
H856 H 0.90454 0.87975 0.26378 0.0
C857 C 0.90499 0.06677 0.26561 0.0
H858 H 0.90698 0.93536 0.30025 0.0
C859 C 0.90452 0.03499 0.24473 0.0
C860 C 0.90275 0.96727 0.24383 0.0
H861 H 0.90104 0.1188 0.26595 0.0
H862 H 0.89993 0.06329 0.22947 0.0
C863 C 0.90687 0.932 0.26403 0.0
C864 C 0.50567 0.27152 0.10642 0.0
C865 C 0.51954 0.30201 0.12677 0.0
H866 H 0.45988 0.19814 0.09068 0.0
C867 C 0.49664 0.2818 0.14698 0.0
H868 H 0.52288 0.28579 0.09058 0.0
C869 C 0.46226 0.2312 0.14711 0.0
C870 C 0.44878 0.19971 0.12697 0.0
H871 H 0.50611 0.30394 0.16302 0.0
H872 H 0.44588 0.2173 0.16318 0.0
C873 C 0.47013 0.22097 0.1065 0.0
C874 C 0.48046 0.76918 0.36678 0.0
C875 C 0.46255 0.79422 0.38732 0.0
H876 H 0.52817 0.70119 0.35043 0.0
C877 C 0.48009 0.76778 0.4077 0.0
H878 H 0.46741 0.78786 0.35073 0.0
C879 C 0.51486 0.71751 0.40751 0.0
C880 C 0.53265 0.69245 0.38694 0.0
H881 H 0.4667 0.7855 0.42381 0.0
H882 H 0.52809 0.69873 0.42351 0.0
C883 C 0.5149 0.71876 0.36659 0.0
C884 C 0.51231 0.77091 0.9309 0.0
C885 C 0.544 0.77733 0.912 0.0
H886 H 0.44915 0.71998 0.94542 0.0
C887 C 0.54149 0.73067 0.89483 0.0
H888 H 0.51409 0.80581 0.9445 0.0
C889 C 0.5058 0.68143 0.89556 0.0
C890 C 0.47098 0.67777 0.91335 0.0
H891 H 0.56652 0.73311 0.88038 0.0
H892 H 0.50383 0.64807 0.88147 0.0
C893 C 0.47563 0.72149 0.9315 0.0
C894 C 0.49723 0.29168 0.63814 0.0
C895 C 0.46644 0.30251 0.61926 0.0
H896 H 0.5536 0.23445 0.65357 0.0
C897 C 0.47322 0.26356 0.59995 0.0
H898 H 0.49382 0.3209 0.65324 0.0
C899 C 0.50862 0.21306 0.60009 0.0
C900 C 0.53688 0.20026 0.61968 0.0
H901 H 0.44998 0.27045 0.58513 0.0
H902 H 0.51266 0.18293 0.58526 0.0
C903 C 0.5314 0.24128 0.63841 0.0
C904 C 0.97574 0.71807 0.60583 0.0
C905 C 0.96428 0.68437 0.62588 0.0
H906 H 0.01922 0.79457 0.59052 0.0
C907 C 0.98958 0.70128 0.64585 0.0
H908 H 0.95668 0.7063 0.59018 0.0
C909 C 0.02363 0.75221 0.64616 0.0
C910 C 0.03434 0.78728 0.62641 0.0
H911 H 0.98218 0.67634 0.66162 0.0
H912 H 0.0419 0.76365 0.66204 0.0
C913 C 0.01097 0.76897 0.60606 0.0
C914 C 0.00225 0.2185 0.86713 0.0
C915 C 0.01713 0.191 0.88777 0.0
H916 H 0.95685 0.28852 0.85044 0.0
C917 C -0.004 0.21434 0.90793 0.0
H918 H 0.01806 0.20214 0.85128 0.0
C919 C 0.96117 0.26445 0.90746 0.0
C920 C 0.94669 0.29237 0.88682 0.0
H921 H 0.00692 0.19465 0.92415 0.0
H922 H 0.94546 0.28105 0.9233 0.0
C923 C 0.96755 0.26868 0.86666 0.0
C924 C 0.04474 0.23194 0.39727 0.0
C925 C 0.04389 0.28204 0.4132 0.0
H926 H 0.00987 0.14642 0.38471 0.0
C927 C 0.00868 0.27942 0.43091 0.0
H928 H 0.07244 0.23172 0.38381 0.0
C929 C 0.97199 0.22995 0.43137 0.0
C930 C 0.9709 0.18249 0.4143 0.0
H931 H 0.00782 0.3172 0.44355 0.0
H932 H 0.94289 0.23113 0.44419 0.0
C933 C 0.00907 0.18267 0.3979 0.0
C934 C 0.96955 0.76583 0.09985 0.0
C935 C 0.96389 0.80654 0.11877 0.0
H936 H 0.00809 0.68384 0.08565 0.0
C937 C -0.00409 0.7977 0.13738 0.0
H938 H 0.94533 0.77118 0.08527 0.0
C939 C 0.03016 0.74739 0.13782 0.0
C940 C 0.03441 0.70456 0.11953 0.0
H941 H 0.99336 0.82837 0.15216 0.0
H942 H 0.05332 0.74195 0.15276 0.0
C943 C 0.00499 0.71544 0.10015 0.0
loop_
_geom_bond_atom_site_label_1
_geom_bond_atom_site_label_2
_geom_bond_distance
_geom_bond_site_symmetry_2
_ccdc_geom_bond_type
Co0 O3 1.970 . S
Co0 N17 1.989 . S
Co0 O25 1.967 . S
Co0 O32 1.920 . S
Co1 O4 1.966 . S
Co1 N10 2.022 . S
Co1 N18 1.993 . S
Co1 O26 1.941 . S
C2 O3 1.258 . S
C2 O4 1.263 . S
O3 Co0 1.970 . S
O3 C2 1.258 . S
O4 Co1 1.966 . S
O4 C2 1.263 . S
C5 O6 1.235 . S
C5 O32 1.289 . S
O6 C5 1.235 . S
C7 C9 1.400 . S
C7 N10 1.351 . S
C7 C12 1.501 . S
C8 C9 1.387 . S
C8 N11 1.341 . S
C9 C7 1.400 . S
C9 C8 1.387 . S
N10 Co1 2.022 . S
N10 C7 1.351 . S
N10 N11 1.365 . S
N11 C8 1.341 . S
N11 N10 1.365 . S
N11 H31 0.862 . S
C12 C7 1.501 . S
C12 H13 0.961 . S
C12 H14 0.961 . S
C12 H15 0.960 . S
H13 C12 0.961 . S
H14 C12 0.961 . S
H15 C12 0.960 . S
C16 N17 1.342 1_565 S
C16 C20 1.401 . S
C16 C21 1.499 . S
N17 Co0 1.989 . S
N17 C16 1.342 1_545 S
N17 N18 1.388 . S
N18 Co1 1.993 . S
N18 N17 1.388 . S
N18 C19 1.346 1_545 S
C19 N18 1.346 1_565 S
C19 C20 1.396 . S
C19 C29 1.510 . S
C20 C16 1.401 . S
C20 C19 1.396 . S
C21 C16 1.499 . S
C21 H22 0.959 . S
C21 H23 0.960 . S
C21 H24 0.961 . S
H22 C21 0.959 . S
H23 C21 0.960 . S
H24 C21 0.961 . S
O25 Co0 1.967 . S
O25 C33 1.258 . S
O26 Co1 1.941 . S
O26 C33 1.266 . S
H27 C29 0.959 . S
H28 C29 0.961 . S
C29 C19 1.510 . S
C29 H27 0.959 . S
C29 H28 0.961 . S
C29 H30 0.960 1_565 S
H30 C29 0.960 1_545 S
H31 N11 0.862 . S
O32 Co0 1.920 . S
O32 C5 1.289 . S
C33 O25 1.258 . S
C33 O26 1.266 . S
Co34 O37 1.970 . S
Co34 N51 1.989 . S
Co34 O59 1.967 . S
Co34 O66 1.920 . S
Co35 O38 1.966 . S
Co35 N44 2.022 . S
Co35 N52 1.993 . S
Co35 O60 1.941 . S
C36 O37 1.258 . S
C36 O38 1.263 . S
O37 Co34 1.970 . S
O37 C36 1.258 . S
O38 Co35 1.966 . S
O38 C36 1.263 . S
C39 O40 1.235 . S
C39 O66 1.289 . S
O40 C39 1.235 . S
C41 C43 1.400 . S
C41 N44 1.351 . S
C41 C46 1.501 . S
C42 C43 1.387 . S
C42 N45 1.341 . S
C43 C41 1.400 . S
C43 C42 1.387 . S
N44 Co35 2.022 . S
N44 C41 1.351 . S
N44 N45 1.365 . S
N45 C42 1.341 . S
N45 N44 1.365 . S
N45 H65 0.862 . S
C46 C41 1.501 . S
C46 H47 0.961 . S
C46 H48 0.961 . S
C46 H49 0.960 . S
H47 C46 0.961 . S
H48 C46 0.961 . S
H49 C46 0.960 . S
C50 N51 1.342 . S
C50 C54 1.401 . S
C50 C55 1.499 . S
N51 Co34 1.989 . S
N51 C50 1.342 . S
N51 N52 1.388 . S
N52 Co35 1.993 . S
N52 N51 1.388 . S
N52 C53 1.346 . S
C53 N52 1.346 . S
C53 C54 1.396 . S
C53 C63 1.510 . S
C54 C50 1.401 . S
C54 C53 1.396 . S
C55 C50 1.499 . S
C55 H56 0.959 . S
C55 H57 0.960 . S
C55 H58 0.961 . S
H56 C55 0.959 . S
H57 C55 0.960 . S
H58 C55 0.961 . S
O59 Co34 1.967 . S
O59 C67 1.258 . S
O60 Co35 1.941 . S
O60 C67 1.266 . S
H61 C63 0.959 . S
H62 C63 0.961 . S
C63 C53 1.510 . S
C63 H61 0.959 . S
C63 H62 0.961 . S
C63 H64 0.960 . S
H64 C63 0.960 . S
H65 N45 0.862 . S
O66 Co34 1.920 . S
O66 C39 1.289 . S
C67 O59 1.258 . S
C67 O60 1.266 . S
Co68 O71 1.970 . S
Co68 N85 1.989 . S
Co68 O93 1.967 . S
Co68 O100 1.920 . S
Co69 O72 1.966 . S
Co69 N78 2.022 . S
Co69 N86 1.993 . S
Co69 O94 1.941 . S
C70 O71 1.258 . S
C70 O72 1.263 . S
O71 Co68 1.970 . S
O71 C70 1.258 . S
O72 Co69 1.966 . S
O72 C70 1.263 . S
C73 O74 1.235 . S
C73 O100 1.289 . S
O74 C73 1.235 . S
C75 C77 1.400 . S
C75 N78 1.351 . S
C75 C80 1.501 . S
C76 C77 1.387 . S
C76 N79 1.341 . S
C77 C75 1.400 . S
C77 C76 1.387 . S
N78 Co69 2.022 . S
N78 C75 1.351 . S
N78 N79 1.365 . S
N79 C76 1.341 . S
N79 N78 1.365 . S
N79 H99 0.862 . S
C80 C75 1.501 . S
C80 H81 0.961 . S
C80 H82 0.961 . S
C80 H83 0.960 . S
H81 C80 0.961 . S
H82 C80 0.961 . S
H83 C80 0.960 . S
C84 N85 1.342 1_545 S
C84 C88 1.401 . S
C84 C89 1.499 . S
N85 Co68 1.989 . S
N85 C84 1.342 1_565 S
N85 N86 1.388 . S
N86 Co69 1.993 . S
N86 N85 1.388 . S
N86 C87 1.346 1_565 S
C87 N86 1.346 1_545 S
C87 C88 1.396 . S
C87 C97 1.510 . S
C88 C84 1.401 . S
C88 C87 1.396 . S
C89 C84 1.499 . S
C89 H90 0.959 . S
C89 H91 0.960 . S
C89 H92 0.961 . S
H90 C89 0.959 . S
H91 C89 0.960 . S
H92 C89 0.961 . S
O93 Co68 1.967 . S
O93 C101 1.258 . S
O94 Co69 1.941 . S
O94 C101 1.266 . S
H95 C97 0.959 . S
H96 C97 0.961 . S
C97 C87 1.510 . S
C97 H95 0.959 . S
C97 H96 0.961 . S
C97 H98 0.960 . S
H98 C97 0.960 . S
H99 N79 0.862 . S
O100 Co68 1.920 . S
O100 C73 1.289 . S
C101 O93 1.258 . S
C101 O94 1.266 . S
Co102 O105 1.970 . S
Co102 N119 1.989 . S
Co102 O127 1.967 . S
Co102 O134 1.920 . S
Co103 O106 1.966 . S
Co103 N112 2.022 . S
Co103 N120 1.993 . S
Co103 O128 1.941 . S
C104 O105 1.258 . S
C104 O106 1.263 . S
O105 Co102 1.970 . S
O105 C104 1.258 . S
O106 Co103 1.966 . S
O106 C104 1.263 . S
C107 O108 1.235 . S
C107 O134 1.289 . S
O108 C107 1.235 . S
C109 C111 1.400 . S
C109 N112 1.351 . S
C109 C114 1.501 . S
C110 C111 1.387 . S
C110 N113 1.341 . S
C111 C109 1.400 . S
C111 C110 1.387 . S
N112 Co103 2.022 . S
N112 C109 1.351 . S
N112 N113 1.365 . S
N113 C110 1.341 . S
N113 N112 1.365 . S
N113 H133 0.862 . S
C114 C109 1.501 . S
C114 H115 0.961 . S
C114 H116 0.961 . S
C114 H117 0.960 . S
H115 C114 0.961 . S
H116 C114 0.961 . S
H117 C114 0.960 . S
C118 N119 1.342 . S
C118 C122 1.401 . S
C118 C123 1.499 . S
N119 Co102 1.989 . S
N119 C118 1.342 . S
N119 N120 1.388 . S
N120 Co103 1.993 . S
N120 N119 1.388 . S
N120 C121 1.346 . S
C121 N120 1.346 . S
C121 C122 1.396 . S
C121 C131 1.510 . S
C122 C118 1.401 . S
C122 C121 1.396 . S
C123 C118 1.499 . S
C123 H124 0.959 . S
C123 H125 0.960 . S
C123 H126 0.961 . S
H124 C123 0.959 . S
H125 C123 0.960 . S
H126 C123 0.961 . S
O127 Co102 1.967 . S
O127 C135 1.258 . S
O128 Co103 1.941 . S
O128 C135 1.266 . S
H129 C131 0.959 . S
H130 C131 0.961 . S
C131 C121 1.510 . S
C131 H129 0.959 . S
C131 H130 0.961 . S
C131 H132 0.960 . S
H132 C131 0.960 . S
H133 N113 0.862 . S
O134 Co102 1.920 . S
O134 C107 1.289 . S
C135 O127 1.258 . S
C135 O128 1.266 . S
Co136 O139 1.970 . S
Co136 N153 1.989 . S
Co136 O161 1.967 . S
Co136 O168 1.920 . S
Co137 O140 1.966 . S
Co137 N146 2.022 . S
Co137 N154 1.993 . S
Co137 O162 1.941 . S
C138 O139 1.258 . S
C138 O140 1.263 . S
O139 Co136 1.970 . S
O139 C138 1.258 . S
O140 Co137 1.966 . S
O140 C138 1.263 . S
C141 O142 1.235 . S
C141 O168 1.289 . S
O142 C141 1.235 . S
C143 C145 1.400 . S
C143 N146 1.351 . S
C143 C148 1.501 . S
C144 C145 1.387 . S
C144 N147 1.341 . S
C145 C143 1.400 . S
C145 C144 1.387 . S
N146 Co137 2.022 . S
N146 C143 1.351 . S
N146 N147 1.365 . S
N147 C144 1.341 . S
N147 N146 1.365 . S
N147 H167 0.862 . S
C148 C143 1.501 . S
C148 H149 0.961 . S
C148 H150 0.961 . S
C148 H151 0.960 . S
H149 C148 0.961 . S
H150 C148 0.961 . S
H151 C148 0.960 . S
C152 N153 1.342 1_545 S
C152 C156 1.401 . S
C152 C157 1.499 . S
N153 Co136 1.989 . S
N153 C152 1.342 1_565 S
N153 N154 1.388 . S
N154 Co137 1.993 . S
N154 N153 1.388 . S
N154 C155 1.346 1_565 S
C155 N154 1.346 1_545 S
C155 C156 1.396 . S
C155 C165 1.510 . S
C156 C152 1.401 . S
C156 C155 1.396 . S
C157 C152 1.499 . S
C157 H158 0.959 . S
C157 H159 0.960 . S
C157 H160 0.961 . S
H158 C157 0.959 . S
H159 C157 0.960 . S
H160 C157 0.961 . S
O161 Co136 1.967 . S
O161 C169 1.258 . S
O162 Co137 1.941 . S
O162 C169 1.266 . S
H163 C165 0.959 . S
H164 C165 0.961 . S
C165 C155 1.510 . S
C165 H163 0.959 . S
C165 H164 0.961 . S
C165 H166 0.960 . S
H166 C165 0.960 . S
H167 N147 0.862 . S
O168 Co136 1.920 . S
O168 C141 1.289 . S
C169 O161 1.258 . S
C169 O162 1.266 . S
Co170 O173 1.970 . S
Co170 N187 1.989 . S
Co170 O195 1.967 . S
Co170 O202 1.920 . S
Co171 O174 1.966 . S
Co171 N180 2.022 . S
Co171 N188 1.993 . S
Co171 O196 1.941 . S
C172 O173 1.258 . S
C172 O174 1.263 . S
O173 Co170 1.970 . S
O173 C172 1.258 . S
O174 Co171 1.966 . S
O174 C172 1.263 . S
C175 O176 1.235 . S
C175 O202 1.289 . S
O176 C175 1.235 . S
C177 C179 1.400 . S
C177 N180 1.351 . S
C177 C182 1.501 . S
C178 C179 1.387 . S
C178 N181 1.341 . S
C179 C177 1.400 . S
C179 C178 1.387 . S
N180 Co171 2.022 . S
N180 C177 1.351 . S
N180 N181 1.365 . S
N181 C178 1.341 . S
N181 N180 1.365 . S
N181 H201 0.862 . S
C182 C177 1.501 . S
C182 H183 0.961 . S
C182 H184 0.961 . S
C182 H185 0.960 . S
H183 C182 0.961 . S
H184 C182 0.961 . S
H185 C182 0.960 . S
C186 N187 1.342 . S
C186 C190 1.401 . S
C186 C191 1.499 . S
N187 Co170 1.989 . S
N187 C186 1.342 . S
N187 N188 1.388 . S
N188 Co171 1.993 . S
N188 N187 1.388 . S
N188 C189 1.346 . S
C189 N188 1.346 . S
C189 C190 1.396 . S
C189 C199 1.510 . S
C190 C186 1.401 . S
C190 C189 1.396 . S
C191 C186 1.499 . S
C191 H192 0.959 . S
C191 H193 0.960 . S
C191 H194 0.961 . S
H192 C191 0.959 . S
H193 C191 0.960 . S
H194 C191 0.961 . S
O195 Co170 1.967 . S
O195 C203 1.258 . S
O196 Co171 1.941 . S
O196 C203 1.266 . S
H197 C199 0.959 . S
H198 C199 0.961 . S
C199 C189 1.510 . S
C199 H197 0.959 . S
C199 H198 0.961 . S
C199 H200 0.960 . S
H200 C199 0.960 . S
H201 N181 0.862 . S
O202 Co170 1.920 . S
O202 C175 1.289 . S
C203 O195 1.258 . S
C203 O196 1.266 . S
Co204 O207 1.970 . S
Co204 N221 1.989 . S
Co204 O229 1.967 . S
Co204 O236 1.920 . S
Co205 O208 1.966 . S
Co205 N214 2.022 . S
Co205 N222 1.993 . S
Co205 O230 1.941 . S
C206 O207 1.258 . S
C206 O208 1.263 . S
O207 Co204 1.970 . S
O207 C206 1.258 . S
O208 Co205 1.966 . S
O208 C206 1.263 . S
C209 O210 1.235 . S
C209 O236 1.289 . S
O210 C209 1.235 . S
C211 C213 1.400 . S
C211 N214 1.351 . S
C211 C216 1.501 . S
C212 C213 1.387 . S
C212 N215 1.341 . S
C213 C211 1.400 . S
C213 C212 1.387 . S
N214 Co205 2.022 . S
N214 C211 1.351 . S
N214 N215 1.365 . S
N215 C212 1.341 . S
N215 N214 1.365 . S
N215 H235 0.862 . S
C216 C211 1.501 . S
C216 H217 0.961 . S
C216 H218 0.961 . S
C216 H219 0.960 . S
H217 C216 0.961 . S
H218 C216 0.961 . S
H219 C216 0.960 . S
C220 N221 1.342 1_565 S
C220 C224 1.401 . S
C220 C225 1.499 . S
N221 Co204 1.989 . S
N221 C220 1.342 1_545 S
N221 N222 1.388 . S
N222 Co205 1.993 . S
N222 N221 1.388 . S
N222 C223 1.346 1_545 S
C223 N222 1.346 1_565 S
C223 C224 1.396 . S
C223 C233 1.510 . S
C224 C220 1.401 . S
C224 C223 1.396 . S
C225 C220 1.499 . S
C225 H226 0.959 1_565 S
C225 H227 0.960 . S
C225 H228 0.961 . S
H226 C225 0.959 1_545 S
H227 C225 0.960 . S
H228 C225 0.961 . S
O229 Co204 1.967 . S
O229 C237 1.258 . S
O230 Co205 1.941 . S
O230 C237 1.266 . S
H231 C233 0.959 . S
H232 C233 0.961 . S
C233 C223 1.510 . S
C233 H231 0.959 . S
C233 H232 0.961 . S
C233 H234 0.960 . S
H234 C233 0.960 . S
H235 N215 0.862 . S
O236 Co204 1.920 . S
O236 C209 1.289 . S
C237 O229 1.258 . S
C237 O230 1.266 . S
Co238 O241 1.970 . S
Co238 N255 1.989 . S
Co238 O263 1.967 . S
Co238 O270 1.920 . S
Co239 O242 1.966 . S
Co239 N248 2.022 . S
Co239 N256 1.993 . S
Co239 O264 1.941 . S
C240 O241 1.258 . S
C240 O242 1.263 . S
O241 Co238 1.970 . S
O241 C240 1.258 . S
O242 Co239 1.966 . S
O242 C240 1.263 . S
C243 O244 1.235 . S
C243 O270 1.289 . S
O244 C243 1.235 . S
C245 C247 1.400 . S
C245 N248 1.351 . S
C245 C250 1.501 . S
C246 C247 1.387 . S
C246 N249 1.341 . S
C247 C245 1.400 . S
C247 C246 1.387 . S
N248 Co239 2.022 . S
N248 C245 1.351 . S
N248 N249 1.365 . S
N249 C246 1.341 . S
N249 N248 1.365 . S
N249 H269 0.862 . S
C250 C245 1.501 . S
C250 H251 0.961 . S
C250 H252 0.961 . S
C250 H253 0.960 . S
H251 C250 0.961 . S
H252 C250 0.961 . S
H253 C250 0.960 . S
C254 N255 1.342 . S
C254 C258 1.401 . S
C254 C259 1.499 . S
N255 Co238 1.989 . S
N255 C254 1.342 . S
N255 N256 1.388 . S
N256 Co239 1.993 . S
N256 N255 1.388 . S
N256 C257 1.346 . S
C257 N256 1.346 . S
C257 C258 1.396 . S
C257 C267 1.510 . S
C258 C254 1.401 . S
C258 C257 1.396 . S
C259 C254 1.499 . S
C259 H260 0.959 . S
C259 H261 0.960 . S
C259 H262 0.961 . S
H260 C259 0.959 . S
H261 C259 0.960 . S
H262 C259 0.961 . S
O263 Co238 1.967 . S
O263 C271 1.258 . S
O264 Co239 1.941 . S
O264 C271 1.266 . S
H265 C267 0.959 . S
H266 C267 0.961 . S
C267 C257 1.510 . S
C267 H265 0.959 . S
C267 H266 0.961 . S
C267 H268 0.960 . S
H268 C267 0.960 . S
H269 N249 0.862 . S
O270 Co238 1.920 . S
O270 C243 1.289 . S
C271 O263 1.258 . S
C271 O264 1.266 . S
Co272 O275 1.970 . S
Co272 N289 1.989 . S
Co272 O297 1.967 . S
Co272 O304 1.920 . S
Co273 O276 1.966 . S
Co273 N282 2.022 . S
Co273 N290 1.993 . S
Co273 O298 1.941 . S
C274 O275 1.258 . S
C274 O276 1.263 . S
O275 Co272 1.970 . S
O275 C274 1.258 . S
O276 Co273 1.966 . S
O276 C274 1.263 . S
C277 O278 1.235 . S
C277 O304 1.289 . S
O278 C277 1.235 . S
C279 C281 1.400 . S
C279 N282 1.351 . S
C279 C284 1.501 . S
C280 C281 1.387 . S
C280 N283 1.341 . S
C281 C279 1.400 . S
C281 C280 1.387 . S
N282 Co273 2.022 . S
N282 C279 1.351 . S
N282 N283 1.365 . S
N283 C280 1.341 . S
N283 N282 1.365 . S
N283 H303 0.862 . S
C284 C279 1.501 . S
C284 H285 0.961 . S
C284 H286 0.961 . S
C284 H287 0.960 . S
H285 C284 0.961 . S
H286 C284 0.961 . S
H287 C284 0.960 . S
C288 N289 1.342 . S
C288 C292 1.401 . S
C288 C293 1.499 . S
N289 Co272 1.989 . S
N289 C288 1.342 . S
N289 N290 1.388 . S
N290 Co273 1.993 . S
N290 N289 1.388 . S
N290 C291 1.346 . S
C291 N290 1.346 . S
C291 C292 1.396 . S
C291 C301 1.510 . S
C292 C288 1.401 . S
C292 C291 1.396 . S
C293 C288 1.499 . S
C293 H294 0.959 . S
C293 H295 0.960 . S
C293 H296 0.961 . S
H294 C293 0.959 . S
H295 C293 0.960 . S
H296 C293 0.961 . S
O297 Co272 1.967 . S
O297 C305 1.258 . S
O298 Co273 1.941 . S
O298 C305 1.266 . S
H299 C301 0.959 . S
H300 C301 0.961 . S
C301 C291 1.510 . S
C301 H299 0.959 . S
C301 H300 0.961 . S
C301 H302 0.960 . S
H302 C301 0.960 . S
H303 N283 0.862 . S
O304 Co272 1.920 . S
O304 C277 1.289 . S
C305 O297 1.258 . S
C305 O298 1.266 . S
Co306 O309 1.970 . S
Co306 N323 1.989 . S
Co306 O331 1.967 . S
Co306 O338 1.920 . S
Co307 O310 1.966 . S
Co307 N316 2.022 . S
Co307 N324 1.993 . S
Co307 O332 1.941 . S
C308 O309 1.258 . S
C308 O310 1.263 . S
O309 Co306 1.970 . S
O309 C308 1.258 . S
O310 Co307 1.966 . S
O310 C308 1.263 . S
C311 O312 1.235 . S
C311 O338 1.289 . S
O312 C311 1.235 . S
C313 C315 1.400 . S
C313 N316 1.351 . S
C313 C318 1.501 . S
C314 C315 1.387 . S
C314 N317 1.341 . S
C315 C313 1.400 . S
C315 C314 1.387 . S
N316 Co307 2.022 . S
N316 C313 1.351 . S
N316 N317 1.365 . S
N317 C314 1.341 . S
N317 N316 1.365 . S
N317 H337 0.862 . S
C318 C313 1.501 . S
C318 H319 0.961 . S
C318 H320 0.961 . S
C318 H321 0.960 . S
H319 C318 0.961 . S
H320 C318 0.961 . S
H321 C318 0.960 . S
C322 N323 1.342 1_545 S
C322 C326 1.401 . S
C322 C327 1.499 . S
N323 Co306 1.989 . S
N323 C322 1.342 1_565 S
N323 N324 1.388 . S
N324 Co307 1.993 . S
N324 N323 1.388 . S
N324 C325 1.346 1_565 S
C325 N324 1.346 1_545 S
C325 C326 1.396 . S
C325 C335 1.510 . S
C326 C322 1.401 . S
C326 C325 1.396 . S
C327 C322 1.499 . S
C327 H328 0.959 . S
C327 H329 0.960 . S
C327 H330 0.961 . S
H328 C327 0.959 . S
H329 C327 0.960 . S
H330 C327 0.961 . S
O331 Co306 1.967 . S
O331 C339 1.258 . S
O332 Co307 1.941 . S
O332 C339 1.266 . S
H333 C335 0.959 . S
H334 C335 0.961 . S
C335 C325 1.510 . S
C335 H333 0.959 . S
C335 H334 0.961 . S
C335 H336 0.960 1_545 S
H336 C335 0.960 1_565 S
H337 N317 0.862 . S
O338 Co306 1.920 . S
O338 C311 1.289 . S
C339 O331 1.258 . S
C339 O332 1.266 . S
Co340 O343 1.970 . S
Co340 N357 1.989 . S
Co340 O365 1.967 . S
Co340 O372 1.920 . S
Co341 O344 1.966 . S
Co341 N350 2.022 . S
Co341 N358 1.993 . S
Co341 O366 1.941 . S
C342 O343 1.258 . S
C342 O344 1.263 . S
O343 Co340 1.970 . S
O343 C342 1.258 . S
O344 Co341 1.966 . S
O344 C342 1.263 . S
C345 O346 1.235 . S
C345 O372 1.289 . S
O346 C345 1.235 . S
C347 C349 1.400 . S
C347 N350 1.351 . S
C347 C352 1.501 . S
C348 C349 1.387 . S
C348 N351 1.341 . S
C349 C347 1.400 . S
C349 C348 1.387 . S
N350 Co341 2.022 . S
N350 C347 1.351 . S
N350 N351 1.365 . S
N351 C348 1.341 . S
N351 N350 1.365 . S
N351 H371 0.862 . S
C352 C347 1.501 . S
C352 H353 0.961 . S
C352 H354 0.961 . S
C352 H355 0.960 . S
H353 C352 0.961 . S
H354 C352 0.961 . S
H355 C352 0.960 . S
C356 N357 1.342 . S
C356 C360 1.401 . S
C356 C361 1.499 . S
N357 Co340 1.989 . S
N357 C356 1.342 . S
N357 N358 1.388 . S
N358 Co341 1.993 . S
N358 N357 1.388 . S
N358 C359 1.346 . S
C359 N358 1.346 . S
C359 C360 1.396 . S
C359 C369 1.510 . S
C360 C356 1.401 . S
C360 C359 1.396 . S
C361 C356 1.499 . S
C361 H362 0.959 . S
C361 H363 0.960 . S
C361 H364 0.961 . S
H362 C361 0.959 . S
H363 C361 0.960 . S
H364 C361 0.961 . S
O365 Co340 1.967 . S
O365 C373 1.258 . S
O366 Co341 1.941 . S
O366 C373 1.266 . S
H367 C369 0.959 . S
H368 C369 0.961 . S
C369 C359 1.510 . S
C369 H367 0.959 . S
C369 H368 0.961 . S
C369 H370 0.960 . S
H370 C369 0.960 . S
H371 N351 0.862 . S
O372 Co340 1.920 . S
O372 C345 1.289 . S
C373 O365 1.258 . S
C373 O366 1.266 . S
Co374 O377 1.970 . S
Co374 N391 1.989 . S
Co374 O399 1.967 . S
Co374 O406 1.920 . S
Co375 O378 1.966 . S
Co375 N384 2.022 . S
Co375 N392 1.993 . S
Co375 O400 1.941 . S
C376 O377 1.258 . S
C376 O378 1.263 . S
O377 Co374 1.970 . S
O377 C376 1.258 . S
O378 Co375 1.966 . S
O378 C376 1.263 . S
C379 O380 1.235 . S
C379 O406 1.289 . S
O380 C379 1.235 . S
C381 C383 1.400 . S
C381 N384 1.351 . S
C381 C386 1.501 . S
C382 C383 1.387 . S
C382 N385 1.341 . S
C383 C381 1.400 . S
C383 C382 1.387 . S
N384 Co375 2.022 . S
N384 C381 1.351 . S
N384 N385 1.365 . S
N385 C382 1.341 . S
N385 N384 1.365 . S
N385 H405 0.862 . S
C386 C381 1.501 . S
C386 H387 0.961 . S
C386 H388 0.961 . S
C386 H389 0.960 . S
H387 C386 0.961 . S
H388 C386 0.961 . S
H389 C386 0.960 . S
C390 N391 1.342 1_565 S
C390 C394 1.401 . S
C390 C395 1.499 . S
N391 Co374 1.989 . S
N391 C390 1.342 1_545 S
N391 N392 1.388 . S
N392 Co375 1.993 . S
N392 N391 1.388 . S
N392 C393 1.346 1_545 S
C393 N392 1.346 1_565 S
C393 C394 1.396 . S
C393 C403 1.510 . S
C394 C390 1.401 . S
C394 C393 1.396 . S
C395 C390 1.499 . S
C395 H396 0.959 . S
C395 H397 0.960 . S
C395 H398 0.961 . S
H396 C395 0.959 . S
H397 C395 0.960 . S
H398 C395 0.961 . S
O399 Co374 1.967 . S
O399 C407 1.258 . S
O400 Co375 1.941 . S
O400 C407 1.266 . S
H401 C403 0.959 . S
H402 C403 0.961 . S
C403 C393 1.510 . S
C403 H401 0.959 . S
C403 H402 0.961 . S
C403 H404 0.960 . S
H404 C403 0.960 . S
H405 N385 0.862 . S
O406 Co374 1.920 . S
O406 C379 1.289 . S
C407 O399 1.258 . S
C407 O400 1.266 . S
Co408 O411 1.970 . S
Co408 N425 1.989 . S
Co408 O433 1.967 . S
Co408 O440 1.920 . S
Co409 O412 1.966 . S
Co409 N418 2.022 . S
Co409 N426 1.993 . S
Co409 O434 1.941 . S
C410 O411 1.258 . S
C410 O412 1.263 . S
O411 Co408 1.970 . S
O411 C410 1.258 . S
O412 Co409 1.966 . S
O412 C410 1.263 . S
C413 O414 1.235 . S
C413 O440 1.289 . S
O414 C413 1.235 . S
C415 C417 1.400 . S
C415 N418 1.351 . S
C415 C420 1.501 . S
C416 C417 1.387 . S
C416 N419 1.341 . S
C417 C415 1.400 . S
C417 C416 1.387 . S
N418 Co409 2.022 . S
N418 C415 1.351 . S
N418 N419 1.365 . S
N419 C416 1.341 . S
N419 N418 1.365 . S
N419 H439 0.862 . S
C420 C415 1.501 . S
C420 H421 0.961 . S
C420 H422 0.961 . S
C420 H423 0.960 . S
H421 C420 0.961 . S
H422 C420 0.961 . S
H423 C420 0.960 . S
C424 N425 1.342 . S
C424 C428 1.401 . S
C424 C429 1.499 . S
N425 Co408 1.989 . S
N425 C424 1.342 . S
N425 N426 1.388 . S
N426 Co409 1.993 . S
N426 N425 1.388 . S
N426 C427 1.346 . S
C427 N426 1.346 . S
C427 C428 1.396 . S
C427 C437 1.510 . S
C428 C424 1.401 . S
C428 C427 1.396 . S
C429 C424 1.499 . S
C429 H430 0.959 . S
C429 H431 0.960 . S
C429 H432 0.961 . S
H430 C429 0.959 . S
H431 C429 0.960 . S
H432 C429 0.961 . S
O433 Co408 1.967 . S
O433 C441 1.258 . S
O434 Co409 1.941 . S
O434 C441 1.266 . S
H435 C437 0.959 . S
H436 C437 0.961 . S
C437 C427 1.510 . S
C437 H435 0.959 . S
C437 H436 0.961 . S
C437 H438 0.960 . S
H438 C437 0.960 . S
H439 N419 0.862 . S
O440 Co408 1.920 . S
O440 C413 1.289 . S
C441 O433 1.258 . S
C441 O434 1.266 . S
Co442 O445 1.970 . S
Co442 N459 1.989 . S
Co442 O467 1.967 . S
Co442 O474 1.920 . S
Co443 O446 1.966 . S
Co443 N452 2.022 . S
Co443 N460 1.993 . S
Co443 O468 1.941 . S
C444 O445 1.258 . S
C444 O446 1.263 . S
O445 Co442 1.970 . S
O445 C444 1.258 . S
O446 Co443 1.966 . S
O446 C444 1.263 . S
C447 O448 1.235 . S
C447 O474 1.289 . S
O448 C447 1.235 . S
C449 C451 1.400 . S
C449 N452 1.351 . S
C449 C454 1.501 . S
C450 C451 1.387 . S
C450 N453 1.341 . S
C451 C449 1.400 . S
C451 C450 1.387 . S
N452 Co443 2.022 . S
N452 C449 1.351 . S
N452 N453 1.365 . S
N453 C450 1.341 . S
N453 N452 1.365 . S
N453 H473 0.862 . S
C454 C449 1.501 . S
C454 H455 0.961 . S
C454 H456 0.961 . S
C454 H457 0.960 . S
H455 C454 0.961 . S
H456 C454 0.961 . S
H457 C454 0.960 . S
C458 N459 1.342 1_565 S
C458 C462 1.401 . S
C458 C463 1.499 . S
N459 Co442 1.989 . S
N459 C458 1.342 1_545 S
N459 N460 1.388 . S
N460 Co443 1.993 . S
N460 N459 1.388 . S
N460 C461 1.346 1_545 S
C461 N460 1.346 1_565 S
C461 C462 1.396 . S
C461 C471 1.510 . S
C462 C458 1.401 . S
C462 C461 1.396 . S
C463 C458 1.499 . S
C463 H464 0.959 . S
C463 H465 0.960 . S
C463 H466 0.961 . S
H464 C463 0.959 . S
H465 C463 0.960 . S
H466 C463 0.961 . S
O467 Co442 1.967 . S
O467 C475 1.258 . S
O468 Co443 1.941 . S
O468 C475 1.266 . S
H469 C471 0.959 . S
H470 C471 0.961 . S
C471 C461 1.510 . S
C471 H469 0.959 . S
C471 H470 0.961 . S
C471 H472 0.960 . S
H472 C471 0.960 . S
H473 N453 0.862 . S
O474 Co442 1.920 . S
O474 C447 1.289 . S
C475 O467 1.258 . S
C475 O468 1.266 . S
Co476 O479 1.970 . S
Co476 N493 1.989 . S
Co476 O501 1.967 . S
Co476 O508 1.920 . S
Co477 O480 1.966 . S
Co477 N486 2.022 . S
Co477 N494 1.993 . S
Co477 O502 1.941 . S
C478 O479 1.258 . S
C478 O480 1.263 . S
O479 Co476 1.970 . S
O479 C478 1.258 . S
O480 Co477 1.966 . S
O480 C478 1.263 . S
C481 O482 1.235 . S
C481 O508 1.289 . S
O482 C481 1.235 . S
C483 C485 1.400 . S
C483 N486 1.351 . S
C483 C488 1.501 . S
C484 C485 1.387 . S
C484 N487 1.341 . S
C485 C483 1.400 . S
C485 C484 1.387 . S
N486 Co477 2.022 . S
N486 C483 1.351 . S
N486 N487 1.365 . S
N487 C484 1.341 . S
N487 N486 1.365 . S
N487 H507 0.862 . S
C488 C483 1.501 . S
C488 H489 0.961 . S
C488 H490 0.961 . S
C488 H491 0.960 . S
H489 C488 0.961 . S
H490 C488 0.961 . S
H491 C488 0.960 . S
C492 N493 1.342 . S
C492 C496 1.401 . S
C492 C497 1.499 . S
N493 Co476 1.989 . S
N493 C492 1.342 . S
N493 N494 1.388 . S
N494 Co477 1.993 . S
N494 N493 1.388 . S
N494 C495 1.346 . S
C495 N494 1.346 . S
C495 C496 1.396 . S
C495 C505 1.510 . S
C496 C492 1.401 . S
C496 C495 1.396 . S
C497 C492 1.499 . S
C497 H498 0.959 . S
C497 H499 0.960 . S
C497 H500 0.961 . S
H498 C497 0.959 . S
H499 C497 0.960 . S
H500 C497 0.961 . S
O501 Co476 1.967 . S
O501 C509 1.258 . S
O502 Co477 1.941 . S
O502 C509 1.266 . S
H503 C505 0.959 . S
H504 C505 0.961 . S
C505 C495 1.510 . S
C505 H503 0.959 . S
C505 H504 0.961 . S
C505 H506 0.960 . S
H506 C505 0.960 . S
H507 N487 0.862 . S
O508 Co476 1.920 . S
O508 C481 1.289 . S
C509 O501 1.258 . S
C509 O502 1.266 . S
Co510 O513 1.970 . S
Co510 N527 1.989 . S
Co510 O535 1.967 . S
Co510 O542 1.920 . S
Co511 O514 1.966 . S
Co511 N520 2.022 . S
Co511 N528 1.993 . S
Co511 O536 1.941 . S
C512 O513 1.258 . S
C512 O514 1.263 . S
O513 Co510 1.970 . S
O513 C512 1.258 . S
O514 Co511 1.966 . S
O514 C512 1.263 . S
C515 O516 1.235 . S
C515 O542 1.289 . S
O516 C515 1.235 . S
C517 C519 1.400 . S
C517 N520 1.351 . S
C517 C522 1.501 . S
C518 C519 1.387 . S
C518 N521 1.341 . S
C519 C517 1.400 . S
C519 C518 1.387 . S
N520 Co511 2.022 . S
N520 C517 1.351 . S
N520 N521 1.365 . S
N521 C518 1.341 . S
N521 N520 1.365 . S
N521 H541 0.862 . S
C522 C517 1.501 . S
C522 H523 0.961 . S
C522 H524 0.961 . S
C522 H525 0.960 . S
H523 C522 0.961 . S
H524 C522 0.961 . S
H525 C522 0.960 . S
C526 N527 1.342 1_545 S
C526 C530 1.401 . S
C526 C531 1.499 . S
N527 Co510 1.989 . S
N527 C526 1.342 1_565 S
N527 N528 1.388 . S
N528 Co511 1.993 . S
N528 N527 1.388 . S
N528 C529 1.346 1_565 S
C529 N528 1.346 1_545 S
C529 C530 1.396 . S
C529 C539 1.510 . S
C530 C526 1.401 . S
C530 C529 1.396 . S
C531 C526 1.499 . S
C531 H532 0.959 1_545 S
C531 H533 0.960 . S
C531 H534 0.961 . S
H532 C531 0.959 1_565 S
H533 C531 0.960 . S
H534 C531 0.961 . S
O535 Co510 1.967 . S
O535 C543 1.258 . S
O536 Co511 1.941 . S
O536 C543 1.266 . S
H537 C539 0.959 . S
H538 C539 0.961 . S
C539 C529 1.510 . S
C539 H537 0.959 . S
C539 H538 0.961 . S
C539 H540 0.960 . S
H540 C539 0.960 . S
H541 N521 0.862 . S
O542 Co510 1.920 . S
O542 C515 1.289 . S
C543 O535 1.258 . S
C543 O536 1.266 . S
C544 C545 1.387 . S
C544 H548 0.950 . S
C544 C553 1.390 . S
C545 C544 1.387 . S
C545 C547 1.387 . S
H546 C553 0.950 . S
C547 C545 1.387 . S
C547 C549 1.390 . S
C547 H551 0.950 . S
H548 C544 0.950 . S
C549 C547 1.390 . S
C549 C550 1.387 . S
C549 H552 0.950 . S
C550 C549 1.387 . S
C550 C553 1.387 . S
H551 C547 0.950 . S
H552 C549 0.950 . S
C553 C544 1.390 . S
C553 H546 0.950 . S
C553 C550 1.387 . S
C554 C555 1.387 . S
C554 H558 0.950 . S
C554 C563 1.390 . S
C555 C554 1.387 . S
C555 C557 1.387 . S
H556 C563 0.950 . S
C557 C555 1.387 . S
C557 C559 1.390 . S
C557 H561 0.950 . S
H558 C554 0.950 . S
C559 C557 1.390 . S
C559 C560 1.387 . S
C559 H562 0.950 . S
C560 C559 1.387 . S
C560 C563 1.387 . S
H561 C557 0.950 . S
H562 C559 0.950 . S
C563 C554 1.390 . S
C563 H556 0.950 . S
C563 C560 1.387 . S
C564 C565 1.387 . S
C564 H568 0.950 . S
C564 C573 1.390 . S
C565 C564 1.387 . S
C565 C567 1.387 . S
H566 C573 0.950 . S
C567 C565 1.387 . S
C567 C569 1.390 . S
C567 H571 0.950 . S
H568 C564 0.950 . S
C569 C567 1.390 . S
C569 C570 1.387 . S
C569 H572 0.950 . S
C570 C569 1.387 . S
C570 C573 1.387 . S
H571 C567 0.950 . S
H572 C569 0.950 . S
C573 C564 1.390 . S
C573 H566 0.950 . S
C573 C570 1.387 . S
C574 C575 1.387 . S
C574 H578 0.950 . S
C574 C583 1.390 . S
C575 C574 1.387 . S
C575 C577 1.387 . S
H576 C583 0.950 . S
C577 C575 1.387 . S
C577 C579 1.390 . S
C577 H581 0.950 . S
H578 C574 0.950 . S
C579 C577 1.390 . S
C579 C580 1.387 . S
C579 H582 0.950 . S
C580 C579 1.387 . S
C580 C583 1.387 . S
H581 C577 0.950 . S
H582 C579 0.950 . S
C583 C574 1.390 . S
C583 H576 0.950 . S
C583 C580 1.387 . S
C584 C585 1.387 . S
C584 H588 0.950 . S
C584 C593 1.390 . S
C585 C584 1.387 . S
C585 C587 1.387 . S
H586 C593 0.950 . S
C587 C585 1.387 . S
C587 C589 1.390 . S
C587 H591 0.950 . S
H588 C584 0.950 . S
C589 C587 1.390 . S
C589 C590 1.387 . S
C589 H592 0.950 . S
C590 C589 1.387 . S
C590 C593 1.387 . S
H591 C587 0.950 . S
H592 C589 0.950 . S
C593 C584 1.390 . S
C593 H586 0.950 . S
C593 C590 1.387 . S
C594 C595 1.387 . S
C594 H598 0.950 . S
C594 C603 1.390 . S
C595 C594 1.387 . S
C595 C597 1.387 . S
H596 C603 0.950 . S
C597 C595 1.387 . S
C597 C599 1.390 . S
C597 H601 0.950 . S
H598 C594 0.950 . S
C599 C597 1.390 . S
C599 C600 1.387 . S
C599 H602 0.950 . S
C600 C599 1.387 . S
C600 C603 1.387 . S
H601 C597 0.950 . S
H602 C599 0.950 . S
C603 C594 1.390 . S
C603 H596 0.950 . S
C603 C600 1.387 . S
C604 C605 1.387 . S
C604 H608 0.950 . S
C604 C613 1.390 . S
C605 C604 1.387 . S
C605 C607 1.387 . S
H606 C613 0.950 . S
C607 C605 1.387 . S
C607 C609 1.390 . S
C607 H611 0.950 . S
H608 C604 0.950 . S
C609 C607 1.390 . S
C609 C610 1.387 . S
C609 H612 0.950 . S
C610 C609 1.387 . S
C610 C613 1.387 . S
H611 C607 0.950 . S
H612 C609 0.950 . S
C613 C604 1.390 . S
C613 H606 0.950 . S
C613 C610 1.387 . S
C614 C615 1.387 . S
C614 H618 0.950 . S
C614 C623 1.390 . S
C615 C614 1.387 . S
C615 C617 1.387 . S
H616 C623 0.950 . S
C617 C615 1.387 . S
C617 C619 1.390 . S
C617 H621 0.950 . S
H618 C614 0.950 . S
C619 C617 1.390 . S
C619 C620 1.387 . S
C619 H622 0.950 . S
C620 C619 1.387 . S
C620 C623 1.387 . S
H621 C617 0.950 . S
H622 C619 0.950 . S
C623 C614 1.390 . S
C623 H616 0.950 . S
C623 C620 1.387 . S
C624 C625 1.387 . S
C624 H628 0.950 . S
C624 C633 1.390 . S
C625 C624 1.387 . S
C625 C627 1.387 . S
H626 C633 0.950 . S
C627 C625 1.387 . S
C627 C629 1.390 . S
C627 H631 0.950 . S
H628 C624 0.950 . S
C629 C627 1.390 . S
C629 C630 1.387 . S
C629 H632 0.950 . S
C630 C629 1.387 . S
C630 C633 1.387 . S
H631 C627 0.950 . S
H632 C629 0.950 . S
C633 C624 1.390 . S
C633 H626 0.950 . S
C633 C630 1.387 . S
C634 C635 1.387 . S
C634 H638 0.950 . S
C634 C643 1.390 . S
C635 C634 1.387 . S
C635 C637 1.387 . S
H636 C643 0.950 . S
C637 C635 1.387 . S
C637 C639 1.390 . S
C637 H641 0.950 . S
H638 C634 0.950 . S
C639 C637 1.390 . S
C639 C640 1.387 . S
C639 H642 0.950 . S
C640 C639 1.387 . S
C640 C643 1.387 . S
H641 C637 0.950 . S
H642 C639 0.950 . S
C643 C634 1.390 . S
C643 H636 0.950 . S
C643 C640 1.387 . S
C644 C645 1.387 . S
C644 H648 0.950 . S
C644 C653 1.390 . S
C645 C644 1.387 . S
C645 C647 1.387 . S
H646 C653 0.950 . S
C647 C645 1.387 . S
C647 C649 1.390 . S
C647 H651 0.950 . S
H648 C644 0.950 . S
C649 C647 1.390 . S
C649 C650 1.387 . S
C649 H652 0.950 . S
C650 C649 1.387 . S
C650 C653 1.387 . S
H651 C647 0.950 . S
H652 C649 0.950 . S
C653 C644 1.390 . S
C653 H646 0.950 . S
C653 C650 1.387 . S
C654 C655 1.387 . S
C654 H658 0.950 . S
C654 C663 1.390 . S
C655 C654 1.387 . S
C655 C657 1.387 . S
H656 C663 0.950 . S
C657 C655 1.387 . S
C657 C659 1.390 . S
C657 H661 0.950 . S
H658 C654 0.950 . S
C659 C657 1.390 . S
C659 C660 1.387 . S
C659 H662 0.950 . S
C660 C659 1.387 . S
C660 C663 1.387 . S
H661 C657 0.950 . S
H662 C659 0.950 . S
C663 C654 1.390 . S
C663 H656 0.950 . S
C663 C660 1.387 . S
C664 C665 1.387 . S
C664 H668 0.950 . S
C664 C673 1.390 . S
C665 C664 1.387 . S
C665 C667 1.387 . S
H666 C673 0.950 . S
C667 C665 1.387 . S
C667 C669 1.390 . S
C667 H671 0.950 . S
H668 C664 0.950 . S
C669 C667 1.390 . S
C669 C670 1.387 . S
C669 H672 0.950 . S
C670 C669 1.387 . S
C670 C673 1.387 . S
H671 C667 0.950 . S
H672 C669 0.950 . S
C673 C664 1.390 . S
C673 H666 0.950 . S
C673 C670 1.387 . S
C674 C675 1.387 . S
C674 H678 0.950 . S
C674 C683 1.390 . S
C675 C674 1.387 . S
C675 C677 1.387 . S
H676 C683 0.950 . S
C677 C675 1.387 . S
C677 C679 1.390 . S
C677 H681 0.950 . S
H678 C674 0.950 . S
C679 C677 1.390 . S
C679 C680 1.387 . S
C679 H682 0.950 . S
C680 C679 1.387 . S
C680 C683 1.387 . S
H681 C677 0.950 . S
H682 C679 0.950 . S
C683 C674 1.390 . S
C683 H676 0.950 . S
C683 C680 1.387 . S
C684 C685 1.387 . S
C684 H688 0.950 . S
C684 C693 1.390 . S
C685 C684 1.387 . S
C685 C687 1.387 . S
H686 C693 0.950 . S
C687 C685 1.387 . S
C687 C689 1.390 . S
C687 H691 0.950 . S
H688 C684 0.950 . S
C689 C687 1.390 . S
C689 C690 1.387 . S
C689 H692 0.950 . S
C690 C689 1.387 . S
C690 C693 1.387 . S
H691 C687 0.950 . S
H692 C689 0.950 . S
C693 C684 1.390 . S
C693 H686 0.950 . S
C693 C690 1.387 . S
C694 C695 1.387 . S
C694 H698 0.950 . S
C694 C703 1.390 . S
C695 C694 1.387 . S
C695 C697 1.387 . S
H696 C703 0.950 . S
C697 C695 1.387 . S
C697 C699 1.390 . S
C697 H701 0.950 . S
H698 C694 0.950 . S
C699 C697 1.390 . S
C699 C700 1.387 . S
C699 H702 0.950 . S
C700 C699 1.387 . S
C700 C703 1.387 . S
H701 C697 0.950 . S
H702 C699 0.950 . S
C703 C694 1.390 . S
C703 H696 0.950 . S
C703 C700 1.387 . S
C704 C705 1.387 1_556 S
C704 H708 0.950 1_556 S
C704 C713 1.390 . S
C705 C704 1.387 1_554 S
C705 C707 1.387 . S
H706 C713 0.950 . S
C707 C705 1.387 . S
C707 C709 1.390 1_554 S
C707 H711 0.950 1_545 S
H708 C704 0.950 1_554 S
C709 C707 1.390 1_556 S
C709 C710 1.387 . S
C709 H712 0.950 1_545 S
C710 C709 1.387 . S
C710 C713 1.387 . S
H711 C707 0.950 1_565 S
H712 C709 0.950 1_565 S
C713 C704 1.390 . S
C713 H706 0.950 . S
C713 C710 1.387 . S
C714 C715 1.387 . S
C714 H718 0.950 . S
C714 C723 1.390 1_556 S
C715 C714 1.387 . S
C715 C717 1.387 . S
H716 C723 0.950 . S
C717 C715 1.387 . S
C717 C719 1.390 . S
C717 H721 0.950 . S
H718 C714 0.950 . S
C719 C717 1.390 . S
C719 C720 1.387 1_556 S
C719 H722 0.950 . S
C720 C719 1.387 1_554 S
C720 C723 1.387 . S
H721 C717 0.950 . S
H722 C719 0.950 . S
C723 C714 1.390 1_554 S
C723 H716 0.950 . S
C723 C720 1.387 . S
C724 C725 1.387 . S
C724 H728 0.950 . S
C724 C733 1.390 . S
C725 C724 1.387 . S
C725 C727 1.387 . S
H726 C733 0.950 . S
C727 C725 1.387 . S
C727 C729 1.390 . S
C727 H731 0.950 1_565 S
H728 C724 0.950 . S
C729 C727 1.390 . S
C729 C730 1.387 . S
C729 H732 0.950 1_565 S
C730 C729 1.387 . S
C730 C733 1.387 . S
H731 C727 0.950 1_545 S
H732 C729 0.950 1_545 S
C733 C724 1.390 . S
C733 H726 0.950 . S
C733 C730 1.387 . S
C734 C735 1.387 . S
C734 H738 0.950 . S
C734 C743 1.390 . S
C735 C734 1.387 . S
C735 C737 1.387 . S
H736 C743 0.950 . S
C737 C735 1.387 . S
C737 C739 1.390 . S
C737 H741 0.950 . S
H738 C734 0.950 . S
C739 C737 1.390 . S
C739 C740 1.387 . S
C739 H742 0.950 . S
C740 C739 1.387 . S
C740 C743 1.387 . S
H741 C737 0.950 . S
H742 C739 0.950 . S
C743 C734 1.390 . S
C743 H736 0.950 . S
C743 C740 1.387 . S
C744 C745 1.387 . S
C744 H748 0.950 . S
C744 C753 1.390 1_556 S
C745 C744 1.387 . S
C745 C747 1.387 . S
H746 C753 0.950 . S
C747 C745 1.387 . S
C747 C749 1.390 1_556 S
C747 H751 0.950 1_565 S
H748 C744 0.950 . S
C749 C747 1.390 1_554 S
C749 C750 1.387 . S
C749 H752 0.950 1_565 S
C750 C749 1.387 . S
C750 C753 1.387 . S
H751 C747 0.950 1_545 S
H752 C749 0.950 1_545 S
C753 C744 1.390 1_554 S
C753 H746 0.950 . S
C753 C750 1.387 . S
C754 C755 1.387 . S
C754 H758 0.950 . S
C754 C763 1.390 1_554 S
C755 C754 1.387 . S
C755 C757 1.387 . S
H756 C763 0.950 . S
C757 C755 1.387 . S
C757 C759 1.390 1_554 S
C757 H761 0.950 . S
H758 C754 0.950 . S
C759 C757 1.390 1_556 S
C759 C760 1.387 . S
C759 H762 0.950 . S
C760 C759 1.387 . S
C760 C763 1.387 . S
H761 C757 0.950 . S
H762 C759 0.950 . S
C763 C754 1.390 1_556 S
C763 H756 0.950 . S
C763 C760 1.387 . S
C764 C765 1.387 . S
C764 H768 0.950 . S
C764 C773 1.390 . S
C765 C764 1.387 . S
C765 C767 1.387 . S
H766 C773 0.950 . S
C767 C765 1.387 . S
C767 C769 1.390 . S
C767 H771 0.950 . S
H768 C764 0.950 . S
C769 C767 1.390 . S
C769 C770 1.387 . S
C769 H772 0.950 . S
C770 C769 1.387 . S
C770 C773 1.387 . S
H771 C767 0.950 . S
H772 C769 0.950 . S
C773 C764 1.390 . S
C773 H766 0.950 . S
C773 C770 1.387 . S
C774 C775 1.387 . S
C774 H778 0.950 . S
C774 C783 1.390 . S
C775 C774 1.387 . S
C775 C777 1.387 . S
H776 C783 0.950 . S
C777 C775 1.387 . S
C777 C779 1.390 . S
C777 H781 0.950 . S
H778 C774 0.950 . S
C779 C777 1.390 . S
C779 C780 1.387 . S
C779 H782 0.950 . S
C780 C779 1.387 . S
C780 C783 1.387 . S
H781 C777 0.950 . S
H782 C779 0.950 . S
C783 C774 1.390 . S
C783 H776 0.950 . S
C783 C780 1.387 . S
C784 C785 1.387 . S
C784 H788 0.950 . S
C784 C793 1.390 . S
C785 C784 1.387 . S
C785 C787 1.382 1_545 S
H786 C793 0.950 . S
C787 C785 1.382 1_565 S
C787 C789 1.392 . S
C787 H791 0.953 . S
H788 C784 0.950 . S
C789 C787 1.392 . S
C789 C790 1.387 1_565 S
C789 H792 0.950 . S
C790 C789 1.387 1_545 S
C790 C793 1.387 . S
H791 C787 0.953 . S
H792 C789 0.950 . S
C793 C784 1.390 . S
C793 H786 0.950 . S
C793 C790 1.387 . S
C794 C795 1.387 . S
C794 H798 0.950 . S
C794 C803 1.390 . S
C795 C794 1.387 . S
C795 C797 1.387 . S
H796 C803 0.950 . S
C797 C795 1.387 . S
C797 C799 1.390 . S
C797 H801 0.950 . S
H798 C794 0.950 . S
C799 C797 1.390 . S
C799 C800 1.387 . S
C799 H802 0.950 . S
C800 C799 1.387 . S
C800 C803 1.387 . S
H801 C797 0.950 . S
H802 C799 0.950 . S
C803 C794 1.390 . S
C803 H796 0.950 . S
C803 C800 1.387 . S
C804 C805 1.387 . S
C804 H808 0.950 . S
C804 C813 1.390 . S
C805 C804 1.387 . S
C805 C807 1.387 1_565 S
H806 C813 0.950 . S
C807 C805 1.387 1_545 S
C807 C809 1.390 . S
C807 H811 0.950 . S
H808 C804 0.950 . S
C809 C807 1.390 . S
C809 C810 1.387 . S
C809 H812 0.950 . S
C810 C809 1.387 . S
C810 C813 1.387 1_545 S
H811 C807 0.950 . S
H812 C809 0.950 . S
C813 C804 1.390 . S
C813 H806 0.950 . S
C813 C810 1.387 1_565 S
C814 C815 1.387 . S
C814 H818 0.950 . S
C814 C823 1.390 . S
C815 C814 1.387 . S
C815 C817 1.387 . S
H816 C823 0.950 . S
C817 C815 1.387 . S
C817 C819 1.390 . S
C817 H821 0.950 . S
H818 C814 0.950 . S
C819 C817 1.390 . S
C819 C820 1.387 . S
C819 H822 0.950 . S
C820 C819 1.387 . S
C820 C823 1.387 . S
H821 C817 0.950 . S
H822 C819 0.950 . S
C823 C814 1.390 . S
C823 H816 0.950 . S
C823 C820 1.387 . S
C824 C825 1.387 . S
C824 H828 0.950 . S
C824 C833 1.390 . S
C825 C824 1.387 . S
C825 C827 1.387 . S
H826 C833 0.950 . S
C827 C825 1.387 . S
C827 C829 1.390 . S
C827 H831 0.950 . S
H828 C824 0.950 . S
C829 C827 1.390 . S
C829 C830 1.387 . S
C829 H832 0.950 . S
C830 C829 1.387 . S
C830 C833 1.387 . S
H831 C827 0.950 . S
H832 C829 0.950 . S
C833 C824 1.390 . S
C833 H826 0.950 . S
C833 C830 1.387 . S
C834 C835 1.387 1_545 S
C834 H838 0.950 . S
C834 C843 1.385 1_545 S
C835 C834 1.387 1_565 S
C835 C837 1.387 . S
H836 C843 0.941 1_545 S
C837 C835 1.387 . S
C837 C839 1.390 . S
C837 H841 0.950 . S
H838 C834 0.950 . S
C839 C837 1.390 . S
C839 C840 1.387 . S
C839 H842 0.950 . S
C840 C839 1.387 . S
C840 C843 1.401 . S
H841 C837 0.950 . S
H842 C839 0.950 . S
C843 C834 1.385 1_565 S
C843 H836 0.941 1_565 S
C843 C840 1.401 . S
C844 C845 1.387 . S
C844 H848 0.950 . S
C844 C853 1.390 . S
C845 C844 1.387 . S
C845 C847 1.387 . S
H846 C853 0.950 . S
C847 C845 1.387 . S
C847 C849 1.390 . S
C847 H851 0.950 . S
H848 C844 0.950 . S
C849 C847 1.390 . S
C849 C850 1.387 . S
C849 H852 0.950 . S
C850 C849 1.387 . S
C850 C853 1.387 . S
H851 C847 0.950 . S
H852 C849 0.950 . S
C853 C844 1.390 . S
C853 H846 0.950 . S
C853 C850 1.387 . S
C854 C855 1.386 1_565 S
C854 H858 0.949 1_565 S
C854 C863 1.393 . S
C855 C854 1.386 1_545 S
C855 C857 1.387 . S
H856 C863 0.950 . S
C857 C855 1.387 . S
C857 C859 1.390 1_545 S
C857 H861 0.950 . S
H858 C854 0.949 1_545 S
C859 C857 1.390 1_565 S
C859 C860 1.387 . S
C859 H862 0.950 . S
C860 C859 1.387 . S
C860 C863 1.387 . S
H861 C857 0.950 . S
H862 C859 0.950 . S
C863 C854 1.393 . S
C863 H856 0.950 . S
C863 C860 1.387 . S
C864 C865 1.387 . S
C864 H868 0.950 . S
C864 C873 1.390 . S
C865 C864 1.387 . S
C865 C867 1.387 . S
H866 C873 0.950 . S
C867 C865 1.387 . S
C867 C869 1.390 . S
C867 H871 0.950 . S
H868 C864 0.950 . S
C869 C867 1.390 . S
C869 C870 1.387 . S
C869 H872 0.950 . S
C870 C869 1.387 . S
C870 C873 1.387 . S
H871 C867 0.950 . S
H872 C869 0.950 . S
C873 C864 1.390 . S
C873 H866 0.950 . S
C873 C870 1.387 . S
C874 C875 1.387 . S
C874 H878 0.950 . S
C874 C883 1.390 . S
C875 C874 1.387 . S
C875 C877 1.387 . S
H876 C883 0.950 . S
C877 C875 1.387 . S
C877 C879 1.390 . S
C877 H881 0.950 . S
H878 C874 0.950 . S
C879 C877 1.390 . S
C879 C880 1.387 . S
C879 H882 0.950 . S
C880 C879 1.387 . S
C880 C883 1.387 . S
H881 C877 0.950 . S
H882 C879 0.950 . S
C883 C874 1.390 . S
C883 H876 0.950 . S
C883 C880 1.387 . S
C884 C885 1.387 . S
C884 H888 0.950 . S
C884 C893 1.390 . S
C885 C884 1.387 . S
C885 C887 1.387 . S
H886 C893 0.950 . S
C887 C885 1.387 . S
C887 C889 1.390 . S
C887 H891 0.950 . S
H888 C884 0.950 . S
C889 C887 1.390 . S
C889 C890 1.387 . S
C889 H892 0.950 . S
C890 C889 1.387 . S
C890 C893 1.387 . S
H891 C887 0.950 . S
H892 C889 0.950 . S
C893 C884 1.390 . S
C893 H886 0.950 . S
C893 C890 1.387 . S
C894 C895 1.387 . S
C894 H898 0.950 . S
C894 C903 1.390 . S
C895 C894 1.387 . S
C895 C897 1.387 . S
H896 C903 0.950 . S
C897 C895 1.387 . S
C897 C899 1.390 . S
C897 H901 0.950 . S
H898 C894 0.950 . S
C899 C897 1.390 . S
C899 C900 1.387 . S
C899 H902 0.950 . S
C900 C899 1.387 . S
C900 C903 1.387 . S
H901 C897 0.950 . S
H902 C899 0.950 . S
C903 C894 1.390 . S
C903 H896 0.950 . S
C903 C900 1.387 . S
C904 C905 1.387 . S
C904 H908 0.950 . S
C904 C913 1.390 1_655 S
C905 C904 1.387 . S
C905 C907 1.387 . S
H906 C913 0.950 . S
C907 C905 1.387 . S
C907 C909 1.390 1_655 S
C907 H911 0.950 . S
H908 C904 0.950 . S
C909 C907 1.390 1_455 S
C909 C910 1.387 . S
C909 H912 0.950 . S
C910 C909 1.387 . S
C910 C913 1.387 . S
H911 C907 0.950 . S
H912 C909 0.950 . S
C913 C904 1.390 1_455 S
C913 H906 0.950 . S
C913 C910 1.387 . S
C914 C915 1.387 . S
C914 H918 0.950 . S
C914 C923 1.390 1_455 S
C915 C914 1.387 . S
C915 C917 1.387 . S
H916 C923 0.950 . S
C917 C915 1.387 . S
C917 C919 1.390 1_455 S
C917 H921 0.950 . S
H918 C914 0.950 . S
C919 C917 1.390 1_655 S
C919 C920 1.387 . S
C919 H922 0.950 . S
C920 C919 1.387 . S
C920 C923 1.387 . S
H921 C917 0.950 . S
H922 C919 0.950 . S
C923 C914 1.390 1_655 S
C923 H916 0.950 . S
C923 C920 1.387 . S
C924 C925 1.387 . S
C924 H928 0.950 . S
C924 C933 1.390 1_455 S
C925 C924 1.387 . S
C925 C927 1.387 . S
H926 C933 0.950 . S
C927 C925 1.387 . S
C927 C929 1.390 1_455 S
C927 H931 0.950 . S
H928 C924 0.950 . S
C929 C927 1.390 1_655 S
C929 C930 1.387 . S
C929 H932 0.950 . S
C930 C929 1.387 . S
C930 C933 1.387 . S
H931 C927 0.950 . S
H932 C929 0.950 . S
C933 C924 1.390 1_655 S
C933 H926 0.950 . S
C933 C930 1.387 . S
C934 C935 1.387 . S
C934 H938 0.950 . S
C934 C943 1.390 1_655 S
C935 C934 1.387 . S
C935 C937 1.387 . S
H936 C943 0.950 . S
C937 C935 1.387 . S
C937 C939 1.390 1_655 S
C937 H941 0.950 . S
H938 C934 0.950 . S
C939 C937 1.390 1_455 S
C939 C940 1.387 . S
C939 H942 0.950 . S
C940 C939 1.387 . S
C940 C943 1.387 . S
H941 C937 0.950 . S
H942 C939 0.950 . S
C943 C934 1.390 1_455 S
C943 H936 0.950 . S
C943 C940 1.387 . S
C545 C20 0.970 . S
C550 C509 0.974 . S
C555 C54 0.967 . S
C560 C543 0.976 . S
C565 C88 1.024 . S
C570 C441 1.020 . S
C575 C475 1.017 . S
C580 C122 1.023 . S
C585 C156 1.253 . S
C590 C373 1.242 . S
C595 C190 1.253 . S
C600 C407 1.242 . S
C605 C224 1.113 . S
C610 C274 1.119 . S
C615 C308 1.117 . S
C620 C258 1.110 . S
C625 C292 0.970 . S
C630 C237 0.974 . S
C635 C271 0.974 . S
C640 C326 0.970 . S
C645 C360 1.023 . S
C650 C169 1.017 . S
C655 C394 1.025 . S
C660 C203 1.020 . S
C665 C428 1.253 . S
C670 C101 1.242 . S
C675 C462 1.253 . S
C680 C135 1.242 . S
C685 C2 1.117 . S
C690 C496 1.110 . S
C695 C36 1.119 . S
C700 C530 1.113 . S
C705 C9 1.747 . S
C710 C379 1.712 . S
C715 C345 1.714 . S
C720 C43 1.746 . S
C725 C73 1.712 . S
C730 C315 1.747 . S
C735 C281 1.746 . S
C740 C107 1.714 . S
C745 C141 2.129 . S
C750 C515 2.115 . S
C755 C481 2.115 . S
C760 C175 2.129 . S
C765 C209 2.115 . S
C770 C447 2.129 . S
C775 C243 2.115 . S
C780 C413 2.129 . S
C785 C5 1.949 . S
C790 C77 1.747 1_545 S
C795 C39 1.949 . S
C800 C111 1.751 . S
C805 C145 1.416 . S
C810 C213 1.453 . S
C815 C247 1.451 . S
C820 C179 1.416 . S
C825 C349 1.751 . S
C830 C277 1.949 . S
C835 C383 1.751 1_565 S
C840 C311 1.949 . S
C845 C417 1.418 . S
C850 C485 1.450 . S
C855 C451 1.417 . S
C860 C519 1.451 . S
C865 C67 1.393 . S
C870 C33 1.393 . S
C875 C70 1.554 . S
C880 C104 1.554 . S
C885 C138 1.677 . S
C890 C172 1.677 . S
C895 C240 1.669 . S
C900 C206 1.669 . S
C905 C305 1.393 . S
C910 C339 1.393 . S
C915 C376 1.554 . S
C920 C342 1.554 . S
C925 C410 1.679 . S
C930 C444 1.679 . S
C935 C512 1.667 . S
C940 C478 1.667 . S
