# Generated by pormake.
# Topology gis, (4)-cn, num edge types: 1
# Building blocks:
#     Node 0, Type 0, BuildingBlock: QUQFOY_clean_sbu_1, # of connection points: 4
#     Node 1, Type 0, BuildingBlock: QUQFOY_clean_sbu_1, # of connection points: 4
#     Node 2, Type 0, BuildingBlock: QUQFOY_clean_sbu_1, # of connection points: 4
#     Node 3, Type 0, BuildingBlock: QUQFOY_clean_sbu_1, # of connection points: 4
#     Node 4, Type 0, BuildingBlock: QUQFOY_clean_sbu_1, # of connection points: 4
#     Node 5, Type 0, BuildingBlock: QUQFOY_clean_sbu_1, # of connection points: 4
#     Node 6, Type 0, BuildingBlock: QUQFOY_clean_sbu_1, # of connection points: 4
#     Node 7, Type 0, BuildingBlock: QUQFOY_clean_sbu_1, # of connection points: 4
#     Node 8, Type 0, BuildingBlock: QUQFOY_clean_sbu_1, # of connection points: 4
#     Node 9, Type 0, BuildingBlock: QUQFOY_clean_sbu_1, # of connection points: 4
#     Node 10, Type 0, BuildingBlock: QUQFOY_clean_sbu_1, # of connection points: 4
#     Node 11, Type 0, BuildingBlock: QUQFOY_clean_sbu_1, # of connection points: 4
#     Node 12, Type 0, BuildingBlock: QUQFOY_clean_sbu_1, # of connection points: 4
#     Node 13, Type 0, BuildingBlock: QUQFOY_clean_sbu_1, # of connection points: 4
#     Node 14, Type 0, BuildingBlock: QUQFOY_clean_sbu_1, # of connection points: 4
#     Node 15, Type 0, BuildingBlock: QUQFOY_clean_sbu_1, # of connection points: 4
#     Edge 16, Type (0, 0), BuildingBlock: AJUNOK_clean_linker_0, # of connection points: 2
#     Edge 17, Type (0, 0), BuildingBlock: AJUNOK_clean_linker_0, # of connection points: 2
#     Edge 18, Type (0, 0), BuildingBlock: AJUNOK_clean_linker_0, # of connection points: 2
#     Edge 19, Type (0, 0), BuildingBlock: AJUNOK_clean_linker_0, # of connection points: 2
#     Edge 20, Type (0, 0), BuildingBlock: AJUNOK_clean_linker_0, # of connection points: 2
#     Edge 21, Type (0, 0), BuildingBlock: AJUNOK_clean_linker_0, # of connection points: 2
#     Edge 22, Type (0, 0), BuildingBlock: AJUNOK_clean_linker_0, # of connection points: 2
#     Edge 23, Type (0, 0), BuildingBlock: AJUNOK_clean_linker_0, # of connection points: 2
#     Edge 24, Type (0, 0), BuildingBlock: AJUNOK_clean_linker_0, # of connection points: 2
#     Edge 25, Type (0, 0), BuildingBlock: AJUNOK_clean_linker_0, # of connection points: 2
#     Edge 26, Type (0, 0), BuildingBlock: AJUNOK_clean_linker_0, # of connection points: 2
#     Edge 27, Type (0, 0), BuildingBlock: AJUNOK_clean_linker_0, # of connection points: 2
#     Edge 28, Type (0, 0), BuildingBlock: AJUNOK_clean_linker_0, # of connection points: 2
#     Edge 29, Type (0, 0), BuildingBlock: AJUNOK_clean_linker_0, # of connection points: 2
#     Edge 30, Type (0, 0), BuildingBlock: AJUNOK_clean_linker_0, # of connection points: 2
#     Edge 31, Type (0, 0), BuildingBlock: AJUNOK_clean_linker_0, # of connection points: 2
#     Edge 32, Type (0, 0), BuildingBlock: AJUNOK_clean_linker_0, # of connection points: 2
#     Edge 33, Type (0, 0), BuildingBlock: AJUNOK_clean_linker_0, # of connection points: 2
#     Edge 34, Type (0, 0), BuildingBlock: AJUNOK_clean_linker_0, # of connection points: 2
#     Edge 35, Type (0, 0), BuildingBlock: AJUNOK_clean_linker_0, # of connection points: 2
#     Edge 36, Type (0, 0), BuildingBlock: AJUNOK_clean_linker_0, # of connection points: 2
#     Edge 37, Type (0, 0), BuildingBlock: AJUNOK_clean_linker_0, # of connection points: 2
#     Edge 38, Type (0, 0), BuildingBlock: AJUNOK_clean_linker_0, # of connection points: 2
#     Edge 39, Type (0, 0), BuildingBlock: AJUNOK_clean_linker_0, # of connection points: 2
#     Edge 40, Type (0, 0), BuildingBlock: AJUNOK_clean_linker_0, # of connection points: 2
#     Edge 41, Type (0, 0), BuildingBlock: AJUNOK_clean_linker_0, # of connection points: 2
#     Edge 42, Type (0, 0), BuildingBlock: AJUNOK_clean_linker_0, # of connection points: 2
#     Edge 43, Type (0, 0), BuildingBlock: AJUNOK_clean_linker_0, # of connection points: 2
#     Edge 44, Type (0, 0), BuildingBlock: AJUNOK_clean_linker_0, # of connection points: 2
#     Edge 45, Type (0, 0), BuildingBlock: AJUNOK_clean_linker_0, # of connection points: 2
#     Edge 46, Type (0, 0), BuildingBlock: AJUNOK_clean_linker_0, # of connection points: 2
#     Edge 47, Type (0, 0), BuildingBlock: AJUNOK_clean_linker_0, # of connection points: 2
# Relax obj value: 0.008
# Max RMSD: 0.052
# Mean RMSD: 0.052
data_MOF--net-gis--node1-QUQFOY_clean_sbu_1--edge1-AJUNOK_clean_linker_0
_symmetry_space_group_name_H-M    P1
_symmetry_Int_Tables_number       1
_symmetry_cell_setting            triclinic
loop_
_symmetry_equiv_pos_as_xyz
'x, y, z'
_cell_length_a     39.508858
_cell_length_b     39.542419
_cell_length_c     31.279725
_cell_angle_alpha  89.994055
_cell_angle_beta   90.011312
_cell_angle_gamma 89.977079
loop_
_atom_site_label
_atom_site_type_symbol
_atom_site_fract_x
_atom_site_fract_y
_atom_site_fract_z
_atom_type_partial_charge
O0 O 0.16637 0.68249 0.17376 0.0
Cd1 Cd 0.15939 0.63205 0.1876 0.0
Cd2 Cd 0.15629 0.62846 0.10295 0.0
O3 O 0.17462 0.67772 0.1043 0.0
O4 O 0.1797 0.62479 0.24548 0.0
O5 O 0.2016 0.6039 0.18601 0.0
C6 C 0.20398 0.60874 0.22672 0.0
C7 C 0.17964 0.58347 0.06473 0.0
C8 C 0.17426 0.69569 0.13807 0.0
C9 C 0.09216 0.61439 0.15185 0.0
O10 O 0.10567 0.62201 0.11624 0.0
O11 O 0.10996 0.61405 0.18579 0.0
O12 O 0.16393 0.60771 0.04544 0.0
O13 O 0.18412 0.58608 0.10548 0.0
O14 O 0.66495 0.85506 0.36757 0.0
Cd15 Cd 0.65912 0.90568 0.35384 0.0
Cd16 Cd 0.65586 0.90919 0.43785 0.0
O17 O 0.67411 0.85995 0.43676 0.0
O18 O 0.67952 0.91269 0.29599 0.0
O19 O 0.7017 0.93325 0.35548 0.0
C20 C 0.70396 0.92847 0.31475 0.0
C21 C 0.67903 0.95414 0.4763 0.0
C22 C 0.67271 0.84173 0.40326 0.0
C23 C 0.59173 0.92275 0.38876 0.0
O24 O 0.60516 0.91506 0.42442 0.0
O25 O 0.60988 0.92404 0.35518 0.0
O26 O 0.66327 0.92987 0.49543 0.0
O27 O 0.68354 0.95166 0.43555 0.0
O28 O 0.37066 0.35511 0.6731 0.0
Cd29 Cd 0.37726 0.4056 0.68701 0.0
Cd30 Cd 0.38222 0.40848 0.60261 0.0
O31 O 0.36338 0.35942 0.60343 0.0
O32 O 0.35681 0.41238 0.74493 0.0
O33 O 0.33488 0.43361 0.68568 0.0
C34 C 0.33251 0.42849 0.72632 0.0
C35 C 0.35964 0.45467 0.56597 0.0
C36 C 0.36332 0.34164 0.63738 0.0
C37 C 0.44547 0.42194 0.65344 0.0
O38 O 0.43267 0.41406 0.61748 0.0
O39 O 0.42675 0.42346 0.68652 0.0
O40 O 0.37517 0.43074 0.54581 0.0
O41 O 0.35471 0.4509 0.60648 0.0
O42 O 0.93314 0.12106 0.92318 0.0
Cd43 Cd 0.88277 0.12789 0.93759 0.0
Cd44 Cd 0.87866 0.1315 0.85284 0.0
O45 O 0.92798 0.11309 0.8537 0.0
O46 O 0.87547 0.10611 0.99462 0.0
O47 O 0.85453 0.08596 0.93422 0.0
C48 C 0.85957 0.0823 0.97473 0.0
C49 C 0.83359 0.10881 0.81399 0.0
C50 C 0.94615 0.11331 0.88732 0.0
C51 C 0.86495 0.19526 0.90292 0.0
O52 O 0.87231 0.18194 0.8671 0.0
O53 O 0.86478 0.1773 0.93672 0.0
O54 O 0.85789 0.12473 0.79511 0.0
O55 O 0.83617 0.10378 0.85463 0.0
O56 O 0.16491 0.35532 0.86893 0.0
Cd57 Cd 0.15933 0.4057 0.85381 0.0
Cd58 Cd 0.15585 0.41046 0.93853 0.0
O59 O 0.17332 0.36084 0.93825 0.0
O60 O 0.18127 0.41233 0.79668 0.0
O61 O 0.20176 0.43326 0.85688 0.0
C62 C 0.20528 0.42808 0.8164 0.0
C63 C 0.17927 0.4559 0.97592 0.0
C64 C 0.17221 0.34231 0.90498 0.0
C65 C 0.09227 0.42484 0.88823 0.0
O66 O 0.10548 0.41752 0.92413 0.0
O67 O 0.11024 0.42456 0.85444 0.0
O68 O 0.16306 0.43222 0.99565 0.0
O69 O 0.18445 0.45219 0.93547 0.0
O70 O 0.87128 0.85493 0.17288 0.0
Cd71 Cd 0.87712 0.90533 0.18774 0.0
Cd72 Cd 0.88154 0.90998 0.10373 0.0
O73 O 0.86322 0.86073 0.10358 0.0
O74 O 0.85501 0.91207 0.24464 0.0
O75 O 0.83492 0.93331 0.18435 0.0
C76 C 0.8312 0.92806 0.22481 0.0
C77 C 0.8592 0.95503 0.06448 0.0
C78 C 0.86401 0.84209 0.13675 0.0
C79 C 0.94498 0.92278 0.1549 0.0
O80 O 0.932 0.91574 0.11876 0.0
O81 O 0.92642 0.92348 0.18814 0.0
O82 O 0.87543 0.93079 0.04593 0.0
O83 O 0.85379 0.95251 0.10505 0.0
O84 O 0.43217 0.62033 0.42227 0.0
Cd85 Cd 0.38187 0.62708 0.43737 0.0
Cd86 Cd 0.37747 0.63174 0.35272 0.0
O87 O 0.42686 0.61357 0.35261 0.0
O88 O 0.37569 0.60641 0.49525 0.0
O89 O 0.35372 0.58484 0.43623 0.0
C90 C 0.35928 0.58227 0.47677 0.0
C91 C 0.33155 0.60875 0.31596 0.0
C92 C 0.44513 0.61323 0.38615 0.0
C93 C 0.36362 0.69485 0.4037 0.0
O94 O 0.37088 0.68203 0.36757 0.0
O95 O 0.36378 0.67648 0.43714 0.0
O96 O 0.35525 0.62473 0.29593 0.0
O97 O 0.33546 0.60355 0.3564 0.0
O98 O 0.66567 0.18232 0.67266 0.0
Cd99 Cd 0.65978 0.13201 0.68793 0.0
Cd100 Cd 0.65659 0.1271 0.60328 0.0
O101 O 0.67465 0.17645 0.60351 0.0
O102 O 0.6819 0.12522 0.74495 0.0
O103 O 0.70207 0.10425 0.6846 0.0
C104 C 0.70579 0.10941 0.72506 0.0
C105 C 0.6795 0.08146 0.56577 0.0
C106 C 0.67341 0.19511 0.63665 0.0
C107 C 0.59269 0.11344 0.65326 0.0
O108 O 0.6061 0.12073 0.61748 0.0
O109 O 0.61057 0.11343 0.68714 0.0
O110 O 0.66357 0.10537 0.54609 0.0
O111 O 0.68468 0.08499 0.60624 0.0
O112 O 0.87224 0.3552 0.86732 0.0
Cd113 Cd 0.87851 0.40573 0.85356 0.0
Cd114 Cd 0.88227 0.40918 0.93816 0.0
O115 O 0.86461 0.35967 0.93692 0.0
O116 O 0.85792 0.41281 0.79585 0.0
O117 O 0.83601 0.43346 0.85545 0.0
C118 C 0.83357 0.42863 0.81475 0.0
C119 C 0.85868 0.45374 0.97692 0.0
C120 C 0.86487 0.34179 0.90307 0.0
C121 C 0.9458 0.42412 0.88838 0.0
O122 O 0.93268 0.41639 0.92418 0.0
O123 O 0.92775 0.4242 0.85466 0.0
O124 O 0.87495 0.42969 0.99584 0.0
O125 O 0.85379 0.45115 0.93624 0.0
O126 O 0.37186 0.18202 0.67389 0.0
Cd127 Cd 0.37865 0.13168 0.68849 0.0
Cd128 Cd 0.38208 0.12781 0.60368 0.0
O129 O 0.36356 0.17703 0.60445 0.0
O130 O 0.35829 0.12509 0.74652 0.0
O131 O 0.33633 0.10371 0.68739 0.0
C132 C 0.33395 0.10896 0.728 0.0
C133 C 0.35899 0.08164 0.56751 0.0
C134 C 0.36397 0.19513 0.63813 0.0
C135 C 0.446 0.11397 0.65321 0.0
O136 O 0.43264 0.12163 0.61752 0.0
O137 O 0.42807 0.11354 0.68703 0.0
O138 O 0.37443 0.10545 0.54704 0.0
O139 O 0.35433 0.0856 0.60803 0.0
O140 O 0.66404 0.68213 0.36508 0.0
Cd141 Cd 0.65857 0.63176 0.35005 0.0
Cd142 Cd 0.65563 0.62643 0.4344 0.0
O143 O 0.67332 0.67593 0.4341 0.0
O144 O 0.68119 0.62477 0.29349 0.0
O145 O 0.70102 0.60432 0.35436 0.0
C146 C 0.70504 0.6093 0.31389 0.0
C147 C 0.6786 0.58204 0.47426 0.0
C148 C 0.67184 0.69477 0.40115 0.0
C149 C 0.59169 0.61252 0.38446 0.0
O150 O 0.60515 0.61959 0.42029 0.0
O151 O 0.60948 0.61292 0.35052 0.0
O152 O 0.66219 0.60629 0.49251 0.0
O153 O 0.68391 0.58423 0.43365 0.0
O154 O 0.10506 0.91482 0.11908 0.0
Cd155 Cd 0.15551 0.90916 0.10412 0.0
Cd156 Cd 0.16023 0.90557 0.18879 0.0
O157 O 0.11065 0.92313 0.1884 0.0
O158 O 0.16238 0.93127 0.04716 0.0
O159 O 0.18316 0.95149 0.10759 0.0
C160 C 0.17812 0.95516 0.06709 0.0
C161 C 0.20535 0.9288 0.22697 0.0
C162 C 0.09209 0.92212 0.15514 0.0
C163 C 0.17463 0.84208 0.1384 0.0
O164 O 0.16731 0.85525 0.17431 0.0
O165 O 0.17434 0.86008 0.10464 0.0
O166 O 0.1815 0.91249 0.24624 0.0
O167 O 0.20204 0.93415 0.1865 0.0
O168 O 0.87228 0.68217 0.17185 0.0
Cd169 Cd 0.87832 0.63179 0.18675 0.0
Cd170 Cd 0.8814 0.62728 0.10225 0.0
O171 O 0.86322 0.67661 0.10268 0.0
O172 O 0.85757 0.62526 0.24458 0.0
O173 O 0.83579 0.60415 0.18519 0.0
C174 C 0.83325 0.60929 0.22581 0.0
C175 C 0.85826 0.58137 0.06563 0.0
C176 C 0.86448 0.69513 0.13595 0.0
C177 C 0.94546 0.61358 0.15157 0.0
O178 O 0.93201 0.62105 0.11587 0.0
O179 O 0.92759 0.61331 0.18545 0.0
O180 O 0.87383 0.60522 0.04543 0.0
O181 O 0.85352 0.58513 0.10617 0.0
O182 O 0.16499 0.18245 0.8682 0.0
Cd183 Cd 0.1597 0.13203 0.85323 0.0
Cd184 Cd 0.15617 0.12697 0.93758 0.0
O185 O 0.17361 0.17659 0.93741 0.0
O186 O 0.18227 0.12513 0.79662 0.0
O187 O 0.2022 0.10461 0.85739 0.0
C188 C 0.20614 0.10959 0.81691 0.0
C189 C 0.17899 0.08239 0.97722 0.0
C190 C 0.17235 0.19529 0.90431 0.0
C191 C 0.09264 0.11274 0.88707 0.0
O192 O 0.10582 0.12 0.92301 0.0
O193 O 0.11066 0.11308 0.85334 0.0
O194 O 0.16254 0.10657 0.99558 0.0
O195 O 0.18451 0.08483 0.93667 0.0
O196 O 0.60568 0.41543 0.6181 0.0
Cd197 Cd 0.65616 0.40976 0.60325 0.0
Cd198 Cd 0.66041 0.40534 0.68755 0.0
O199 O 0.61105 0.42349 0.68747 0.0
O200 O 0.66268 0.43151 0.54604 0.0
O201 O 0.6839 0.45209 0.60602 0.0
C202 C 0.67859 0.4555 0.56555 0.0
C203 C 0.7062 0.42805 0.72498 0.0
C204 C 0.59259 0.42263 0.65412 0.0
C205 C 0.6738 0.34204 0.63649 0.0
O206 O 0.66642 0.35497 0.67254 0.0
O207 O 0.67463 0.36058 0.60323 0.0
O208 O 0.68236 0.41202 0.74466 0.0
O209 O 0.70257 0.43334 0.68453 0.0
O210 O 0.36964 0.85501 0.37079 0.0
Cd211 Cd 0.37633 0.90562 0.35764 0.0
Cd212 Cd 0.38155 0.90799 0.44186 0.0
O213 O 0.36296 0.85884 0.44059 0.0
O214 O 0.35609 0.91283 0.29976 0.0
O215 O 0.33405 0.93377 0.35911 0.0
C216 C 0.33181 0.92895 0.31839 0.0
C217 C 0.35884 0.95328 0.48011 0.0
C218 C 0.36261 0.8413 0.40646 0.0
C219 C 0.44465 0.92185 0.39104 0.0
O220 O 0.43199 0.91387 0.42704 0.0
O221 O 0.42581 0.92339 0.35808 0.0
O222 O 0.37471 0.92909 0.49932 0.0
O223 O 0.35391 0.95048 0.43946 0.0
C224 C 0.17248 0.78674 0.09892 0.0
C225 C 0.1806 0.80504 0.13616 0.0
C226 C 0.17236 0.75116 0.09885 0.0
C227 C 0.18034 0.7327 0.13603 0.0
H228 H 0.16439 0.7999 0.07032 0.0
H229 H 0.1642 0.73812 0.07019 0.0
S230 S 0.20983 0.7686 0.23917 0.0
N231 N 0.20148 0.80195 0.20922 0.0
N232 N 0.20121 0.73541 0.2091 0.0
C233 C 0.19099 0.75074 0.17238 0.0
C234 C 0.19114 0.78681 0.17244 0.0
C235 C 0.50079 0.93089 0.42578 0.0
C236 C 0.48186 0.92705 0.38797 0.0
C237 C 0.53618 0.93118 0.42522 0.0
C238 C 0.55441 0.92761 0.38682 0.0
H239 H 0.48823 0.93272 0.45648 0.0
H240 H 0.54932 0.93318 0.45552 0.0
S241 S 0.5171 0.91984 0.27828 0.0
N242 N 0.48405 0.92203 0.31047 0.0
N243 N 0.55075 0.92254 0.30941 0.0
C244 C 0.5359 0.92565 0.34839 0.0
C245 C 0.49963 0.92538 0.34897 0.0
C246 C 0.36506 0.28606 0.59828 0.0
C247 C 0.35754 0.30454 0.63559 0.0
C248 C 0.36524 0.25047 0.59846 0.0
C249 C 0.35791 0.23216 0.63597 0.0
H250 H 0.37262 0.29909 0.56936 0.0
H251 H 0.37291 0.23731 0.56968 0.0
S252 S 0.3303 0.26854 0.7397 0.0
N253 N 0.33802 0.30175 0.70927 0.0
N254 N 0.33838 0.23522 0.70961 0.0
C255 C 0.34789 0.25038 0.67248 0.0
C256 C 0.34769 0.28645 0.67229 0.0
C257 C 0.03716 0.11513 0.84774 0.0
C258 C 0.05557 0.10679 0.88485 0.0
C259 C 1.00154 0.1153 0.84781 0.0
C260 C 0.98317 0.10715 0.885 0.0
H261 H 0.05027 0.12337 0.81917 0.0
H262 H 0.98842 0.12365 0.81929 0.0
S263 S 0.01937 0.07714 0.98776 0.0
N264 N 0.05267 0.08556 0.95774 0.0
N265 N 0.98607 0.08592 0.95788 0.0
C266 C 1.00132 0.09628 0.92118 0.0
C267 C 0.03742 0.09609 0.9211 0.0
C268 C 0.18171 0.28659 0.86952 0.0
C269 C 0.17715 0.30505 0.90756 0.0
C270 C 0.18173 0.25123 0.86935 0.0
C271 C 0.17721 0.23254 0.90722 0.0
H272 H 0.18432 0.29952 0.83916 0.0
H273 H 0.18436 0.23848 0.83888 0.0
S274 S 0.16719 0.26846 1.01618 0.0
N275 N 0.17032 0.3019 0.98478 0.0
N276 N 0.17038 0.23522 0.98447 0.0
C277 C 0.17449 0.25055 0.94594 0.0
C278 C 0.17446 0.28681 0.94611 0.0
C279 C 1.00091 0.93205 0.11975 0.0
C280 C 0.98227 0.92764 0.15768 0.0
C281 C 0.0363 0.93184 0.1198 0.0
C282 C 0.05483 0.92723 0.15779 0.0
H283 H 0.9881 0.93468 0.0893 0.0
H284 H 0.04919 0.93435 0.08939 0.0
S285 S 1.01842 0.91764 0.26656 0.0
N286 N 0.9851 0.92093 0.23495 0.0
N287 N 0.05182 0.92056 0.23504 0.0
C288 C 0.03665 0.92469 0.19641 0.0
C289 C 1.00037 0.9249 0.19635 0.0
C290 C 0.3658 0.74984 0.44398 0.0
C291 C 0.35754 0.73184 0.40655 0.0
C292 C 0.36551 0.78542 0.44467 0.0
C293 C 0.35692 0.80419 0.40796 0.0
H294 H 0.37429 0.73645 0.47224 0.0
H295 H 0.37381 0.79823 0.47343 0.0
S296 S 0.32689 0.76903 0.30464 0.0
N297 N 0.33595 0.73547 0.33387 0.0
N298 N 0.33538 0.802 0.33517 0.0
C299 C 0.34615 0.78641 0.37146 0.0
C300 C 0.34646 0.75034 0.37075 0.0
C301 C 0.53716 0.11523 0.69257 0.0
C302 C 0.55555 0.10775 0.65516 0.0
C303 C 0.50154 0.11539 0.69254 0.0
C304 C 0.48311 0.10809 0.65511 0.0
H305 H 0.55028 0.12273 0.72145 0.0
H306 H 0.48845 0.123 0.72141 0.0
S307 S 0.51923 0.08067 0.55115 0.0
N308 N 0.55255 0.08835 0.58145 0.0
N309 N 0.48597 0.08869 0.5814 0.0
C310 C 0.50124 0.09816 0.61848 0.0
C311 C 0.53734 0.09797 0.61851 0.0
C312 C 0.86704 0.2507 0.94224 0.0
C313 C 0.85919 0.23234 0.90495 0.0
C314 C 0.86703 0.28629 0.94227 0.0
C315 C 0.85918 0.3047 0.90501 0.0
H316 H 0.87495 0.23758 0.97096 0.0
H317 H 0.87493 0.29937 0.97101 0.0
S318 S 0.8306 0.26859 0.80155 0.0
N319 N 0.83885 0.23531 0.83164 0.0
N320 N 0.83886 0.30184 0.83169 0.0
C321 C 0.84888 0.28658 0.86855 0.0
C322 C 0.84888 0.25051 0.86852 0.0
C323 C 0.68103 0.75084 0.36645 0.0
C324 C 0.677 0.73196 0.40425 0.0
C325 C 0.68131 0.7862 0.36696 0.0
C326 C 0.67755 0.80445 0.4053 0.0
H327 H 0.68302 0.73826 0.33578 0.0
H328 H 0.68347 0.7993 0.33667 0.0
S329 S 0.6692 0.76726 0.51382 0.0
N330 N 0.67156 0.7342 0.4817 0.0
N331 N 0.67206 0.80086 0.48267 0.0
C332 C 0.67539 0.78598 0.44374 0.0
C333 C 0.67511 0.74974 0.44322 0.0
C334 C 0.85498 0.75077 0.17158 0.0
C335 C 0.85924 0.73235 0.13346 0.0
C336 C 0.85485 0.78613 0.17178 0.0
C337 C 0.85899 0.80485 0.13386 0.0
H338 H 0.85274 0.73782 0.20197 0.0
H339 H 0.85252 0.79885 0.20231 0.0
S340 S 0.86785 0.769 0.0247 0.0
N341 N 0.86517 0.73555 0.05613 0.0
N342 N 0.86493 0.80222 0.05649 0.0
C343 C 0.86131 0.78686 0.09508 0.0
C344 C 0.86143 0.75061 0.09488 0.0
C345 C 0.68315 0.28624 0.67184 0.0
C346 C 0.67889 0.3048 0.63382 0.0
C347 C 0.68302 0.25089 0.67188 0.0
C348 C 0.67865 0.23231 0.6339 0.0
H349 H 0.68556 0.29909 0.70228 0.0
H350 H 0.68535 0.23806 0.70235 0.0
S351 S 0.66976 0.26851 0.52492 0.0
N352 N 0.67275 0.30186 0.55648 0.0
N353 N 0.67253 0.23519 0.55656 0.0
C354 C 0.67636 0.25041 0.5952 0.0
C355 C 0.67648 0.28666 0.59516 0.0
C356 C 0.03682 0.42246 0.84892 0.0
C357 C 0.0552 0.43077 0.88605 0.0
C358 C 1.00121 0.42225 0.84898 0.0
C359 C 0.98281 0.43032 0.88617 0.0
H360 H 0.04995 0.41428 0.82034 0.0
H361 H 0.98812 0.41393 0.82043 0.0
S362 S 0.01891 0.4603 0.98898 0.0
N363 N 0.05224 0.45192 0.95898 0.0
N364 N 0.98563 0.45148 0.95908 0.0
C365 C 1.00092 0.44117 0.92238 0.0
C366 C 0.03702 0.44141 0.92232 0.0
C367 C 0.53595 0.61522 0.34575 0.0
C368 C 0.55459 0.6067 0.38261 0.0
C369 C 0.50033 0.61545 0.34619 0.0
C370 C 0.48217 0.60717 0.3835 0.0
H371 H 0.54889 0.62354 0.3171 0.0
H372 H 0.48704 0.62391 0.31784 0.0
S373 S 0.519 0.57673 0.48572 0.0
N374 N 0.55211 0.58523 0.45541 0.0
N375 N 0.48552 0.58566 0.45623 0.0
C376 C 0.50054 0.59614 0.41943 0.0
C377 C 0.53664 0.5959 0.41899 0.0
C378 C 0.53677 0.43149 0.61848 0.0
C379 C 0.55528 0.42752 0.65661 0.0
C380 C 0.50138 0.43127 0.61831 0.0
C381 C 0.48271 0.4271 0.65626 0.0
H382 H 0.54968 0.43376 0.58806 0.0
H383 H 0.4886 0.4334 0.58777 0.0
S384 S 0.51872 0.41888 0.76544 0.0
N385 N 0.55216 0.42178 0.73399 0.0
N386 N 0.48544 0.42141 0.73365 0.0
C387 C 0.50075 0.42505 0.69504 0.0
C388 C 0.53704 0.42525 0.69522 0.0
C389 C 0.03656 0.61569 0.19097 0.0
C390 C 0.05506 0.60849 0.15356 0.0
C391 C 1.00095 0.61545 0.19092 0.0
C392 C 0.98262 0.60799 0.15346 0.0
H393 H 0.04959 0.62326 0.2199 0.0
H394 H 0.98778 0.62286 0.2198 0.0
S395 S 0.01911 0.58112 0.04946 0.0
N396 N 0.05233 0.58919 0.0798 0.0
N397 N 0.98574 0.58873 0.07971 0.0
C398 C 1.00088 0.59833 0.11681 0.0
C399 C 0.03699 0.59859 0.11686 0.0
C400 C 0.18701 0.52077 0.06453 0.0
C401 C 0.18757 0.55156 0.04195 0.0
C402 C 0.18657 0.48967 0.04294 0.0
C403 C 0.18735 0.48814 0.998 0.0
H404 H 0.18452 0.52064 0.09902 0.0
H405 H 0.18399 0.46674 0.06161 0.0
S406 S 0.19456 0.56153 0.92439 0.0
N407 N 0.19275 0.57858 0.97252 0.0
N408 N 0.1928 0.52023 0.9319 0.0
C409 C 0.19093 0.5187 0.97524 0.0
C410 C 0.19077 0.55038 0.99723 0.0
C411 C 0.76664 0.93638 0.31374 0.0
C412 C 0.7357 0.93624 0.29144 0.0
C413 C 0.79765 0.93593 0.29189 0.0
C414 C 0.79892 0.936 0.24693 0.0
H415 H 0.76701 0.93449 0.34829 0.0
H416 H 0.82074 0.93394 0.31041 0.0
S417 S 0.72502 0.94111 0.17379 0.0
N418 N 0.70822 0.93995 0.2221 0.0
N419 N 0.7664 0.93992 0.18098 0.0
C420 C 0.76819 0.93883 0.22435 0.0
C421 C 0.7366 0.9387 0.24662 0.0
C422 C 0.35145 0.48859 0.4992 0.0
C423 C 0.35188 0.48712 0.54415 0.0
C424 C 0.35099 0.51967 0.47755 0.0
C425 C 0.35163 0.5505 0.50003 0.0
H426 H 0.353 0.46558 0.4805 0.0
H427 H 0.35244 0.51944 0.44296 0.0
S428 S 0.3484 0.56071 0.61783 0.0
N429 N 0.34911 0.51938 0.61036 0.0
N430 N 0.34909 0.57768 0.56961 0.0
C431 C 0.34977 0.54942 0.54489 0.0
C432 C 0.34964 0.51777 0.56696 0.0
C433 C 0.73972 0.10188 0.79198 0.0
C434 C 0.73819 0.10158 0.74703 0.0
C435 C 0.77085 0.10136 0.81356 0.0
C436 C 0.80167 0.1012 0.791 0.0
H437 H 0.71674 0.10407 0.81067 0.0
H438 H 0.77069 0.1034 0.8481 0.0
S439 S 0.81168 0.09574 0.67332 0.0
N440 N 0.77034 0.09716 0.68084 0.0
N441 N 0.82874 0.09707 0.72148 0.0
C442 C 0.80051 0.09858 0.74622 0.0
C443 C 0.76879 0.0985 0.72422 0.0
C444 C 0.84998 0.51628 0.97735 0.0
C445 C 0.85056 0.4855 0.99995 0.0
C446 C 0.85023 0.5474 0.9989 0.0
C447 C 0.8504 0.54894 0.04385 0.0
H448 H 0.85172 0.51646 0.94279 0.0
H449 H 0.85192 0.57038 0.98015 0.0
S450 S 0.84643 0.47549 0.11773 0.0
N451 N 0.8475 0.45844 0.06957 0.0
N452 N 0.84714 0.5168 0.11014 0.0
C453 C 0.84798 0.51834 0.06674 0.0
C454 C 0.84831 0.48665 0.04477 0.0
C455 C 0.24018 0.10122 0.75029 0.0
C456 C 0.23865 0.10178 0.79523 0.0
C457 C 0.27131 0.10068 0.72873 0.0
C458 C 0.30214 0.10139 0.75128 0.0
H459 H 0.21717 0.10271 0.73154 0.0
H460 H 0.2711 0.10202 0.69414 0.0
S461 S 0.3122 0.09849 0.86912 0.0
N462 N 0.27084 0.09919 0.86154 0.0
N463 N 0.32925 0.09903 0.82094 0.0
C464 C 0.30101 0.09965 0.79614 0.0
C465 C 0.26929 0.09959 0.81814 0.0
C466 C 0.68679 0.51946 0.47594 0.0
C467 C 0.68646 0.55052 0.49792 0.0
C468 C 0.68641 0.48862 0.49812 0.0
C469 C 0.68637 0.48765 0.54309 0.0
H470 H 0.685 0.51888 0.44139 0.0
H471 H 0.68458 0.46542 0.47984 0.0
S472 S 0.69089 0.56198 0.61547 0.0
N473 N 0.68979 0.57844 0.56697 0.0
N474 N 0.68995 0.52058 0.60872 0.0
C475 C 0.68899 0.51851 0.56536 0.0
C476 C 0.68876 0.54992 0.54276 0.0
C477 C 0.26913 0.93673 0.31686 0.0
C478 C 0.30023 0.93698 0.29492 0.0
C479 C 0.23829 0.93634 0.29463 0.0
C480 C 0.23736 0.93686 0.24965 0.0
H481 H 0.26854 0.93444 0.35137 0.0
H482 H 0.21508 0.93399 0.31282 0.0
S483 S 0.31177 0.94315 0.17752 0.0
N484 N 0.3282 0.94156 0.22601 0.0
N485 N 0.27034 0.94169 0.18417 0.0
C486 C 0.26823 0.94012 0.2275 0.0
C487 C 0.29965 0.93992 0.25015 0.0
C488 C 0.68661 0.04782 0.4986 0.0
C489 C 0.6873 0.0492 0.54355 0.0
C490 C 0.68683 1.01679 0.47686 0.0
C491 C 0.68707 0.98592 0.49928 0.0
H492 H 0.6843 0.07084 0.48005 0.0
H493 H 0.68444 1.01706 0.44236 0.0
S494 S 0.69368 0.97552 0.61683 0.0
N495 N 0.69229 1.01685 0.60952 0.0
N496 N 0.69184 0.95864 0.56861 0.0
C497 C 0.69016 0.98693 0.54403 0.0
C498 C 0.69054 0.01854 0.56617 0.0
C499 C 0.2698 0.43615 0.72732 0.0
C500 C 0.30076 0.43621 0.7496 0.0
C501 C 0.2388 0.43566 0.7492 0.0
C502 C 0.23756 0.43589 0.79416 0.0
H503 H 0.26943 0.43415 0.69278 0.0
H504 H 0.21571 0.43354 0.73071 0.0
S505 S 0.3115 0.44151 0.8672 0.0
N506 N 0.32826 0.44022 0.81888 0.0
N507 N 0.27011 0.44017 0.86006 0.0
C508 C 0.2683 0.43889 0.81669 0.0
C509 C 0.29987 0.43878 0.7944 0.0
C510 C 0.85158 0.04868 0.04176 0.0
C511 C 0.85165 0.05001 0.9968 0.0
C512 C 0.85117 1.01766 0.06355 0.0
C513 C 0.85151 0.98677 0.04119 0.0
H514 H 0.85342 0.07173 0.06032 0.0
H515 H 0.85292 1.01797 0.09811 0.0
S516 S 0.84719 0.97623 0.9235 0.0
N517 N 0.84815 1.01758 0.93077 0.0
N518 N 0.84822 0.9594 0.97179 0.0
C519 C 0.84925 0.98772 0.99637 0.0
C520 C 0.84906 0.01931 0.97415 0.0
C521 C 0.2666 0.60029 0.22748 0.0
C522 C 0.23574 0.60083 0.24994 0.0
C523 C 0.2977 0.60064 0.24914 0.0
C524 C 0.29914 0.60087 0.29409 0.0
H525 H 0.26685 0.60194 0.19291 0.0
H526 H 0.32073 0.60232 0.23048 0.0
S527 S 0.22549 0.59699 0.36771 0.0
N528 N 0.20851 0.5979 0.31949 0.0
N529 N 0.26686 0.59775 0.36027 0.0
C530 C 0.26848 0.59847 0.31688 0.0
C531 C 0.2368 0.5987 0.29479 0.0
C532 C 0.35114 0.0472 0.50109 0.0
C533 C 0.35116 0.04906 0.54603 0.0
C534 C 0.35078 1.01594 0.47988 0.0
C535 C 0.35109 0.9853 0.5028 0.0
H536 H 0.35299 0.07004 0.48209 0.0
H537 H 0.35259 1.01586 0.44532 0.0
S538 S 0.34656 0.97613 0.62068 0.0
N539 N 0.34754 1.01739 0.61264 0.0
N540 N 0.34768 0.95874 0.57271 0.0
C541 C 0.34875 0.98678 0.54761 0.0
C542 C 0.34853 0.01863 0.56923 0.0
C543 C 0.77061 0.6009 0.22609 0.0
C544 C 0.80135 0.60164 0.24885 0.0
C545 C 0.73939 0.60123 0.24745 0.0
C546 C 0.73767 0.60164 0.29238 0.0
H547 H 0.77055 0.60233 0.19151 0.0
H548 H 0.71645 0.6027 0.22855 0.0
S549 S 0.81092 0.59839 0.36674 0.0
N550 N 0.82817 0.59916 0.31868 0.0
N551 N 0.7696 0.59896 0.35889 0.0
C552 C 0.76822 0.5995 0.31548 0.0
C553 C 0.80003 0.59976 0.2937 0.0
C554 C 0.18636 0.98877 1.0001 0.0
C555 C 0.18604 0.98747 0.04506 0.0
C556 C 0.18698 0.01977 0.97828 0.0
C557 C 0.18661 0.05067 1.0006 0.0
H558 H 0.18459 0.9657 0.98154 0.0
H559 H 0.18541 0.01943 0.94371 0.0
S560 S 0.19029 0.06128 0.11832 0.0
N561 N 0.18928 0.01993 0.11109 0.0
N562 N 0.18956 0.07809 0.07 0.0
C563 C 0.18861 0.04975 0.04545 0.0
C564 C 0.18859 0.01817 0.0677 0.0
C565 C 0.73979 0.43555 0.79216 0.0
C566 C 0.73846 0.43598 0.7472 0.0
C567 C 0.77082 0.43607 0.81397 0.0
C568 C 0.80173 0.43637 0.79162 0.0
H569 H 0.71674 0.43323 0.81068 0.0
H570 H 0.77052 0.43388 0.84849 0.0
S571 S 0.81223 0.44228 0.67403 0.0
N572 N 0.77087 0.44072 0.68126 0.0
N573 N 0.82909 0.44084 0.7223 0.0
C574 C 0.80076 0.43916 0.74684 0.0
C575 C 0.76914 0.43924 0.72462 0.0
loop_
_geom_bond_atom_site_label_1
_geom_bond_atom_site_label_2
_geom_bond_distance
_geom_bond_site_symmetry_2
_ccdc_geom_bond_type
O0 Cd1 2.223 . S
O0 C8 1.315 . S
Cd1 O0 2.223 . S
Cd1 O4 2.297 . S
Cd1 O5 2.439 . S
Cd1 O11 2.240 . S
Cd2 O3 2.240 . S
Cd2 O10 2.223 . S
Cd2 O12 2.297 . S
Cd2 O13 2.439 . S
O3 Cd2 2.240 . S
O3 C8 1.279 . S
O4 Cd1 2.297 . S
O4 C6 1.247 . S
O5 Cd1 2.439 . S
O5 C6 1.208 . S
C6 O4 1.247 . S
C6 O5 1.208 . S
C7 O12 1.247 . S
C7 O13 1.208 . S
C8 O0 1.315 . S
C8 O3 1.279 . S
C9 O10 1.315 . S
C9 O11 1.279 . S
O10 Cd2 2.223 . S
O10 C9 1.315 . S
O11 Cd1 2.240 . S
O11 C9 1.279 . S
O12 Cd2 2.297 . S
O12 C7 1.247 . S
O13 Cd2 2.439 . S
O13 C7 1.208 . S
O14 Cd15 2.223 . S
O14 C22 1.315 . S
Cd15 O14 2.223 . S
Cd15 O18 2.297 . S
Cd15 O19 2.439 . S
Cd15 O25 2.240 . S
Cd16 O17 2.240 . S
Cd16 O24 2.223 . S
Cd16 O26 2.297 . S
Cd16 O27 2.439 . S
O17 Cd16 2.240 . S
O17 C22 1.279 . S
O18 Cd15 2.297 . S
O18 C20 1.247 . S
O19 Cd15 2.439 . S
O19 C20 1.208 . S
C20 O18 1.247 . S
C20 O19 1.208 . S
C21 O26 1.247 . S
C21 O27 1.208 . S
C22 O14 1.315 . S
C22 O17 1.279 . S
C23 O24 1.315 . S
C23 O25 1.279 . S
O24 Cd16 2.223 . S
O24 C23 1.315 . S
O25 Cd15 2.240 . S
O25 C23 1.279 . S
O26 Cd16 2.297 . S
O26 C21 1.247 . S
O27 Cd16 2.439 . S
O27 C21 1.208 . S
O28 Cd29 2.223 . S
O28 C36 1.315 . S
Cd29 O28 2.223 . S
Cd29 O32 2.297 . S
Cd29 O33 2.439 . S
Cd29 O39 2.240 . S
Cd30 O31 2.240 . S
Cd30 O38 2.223 . S
Cd30 O40 2.297 . S
Cd30 O41 2.439 . S
O31 Cd30 2.240 . S
O31 C36 1.279 . S
O32 Cd29 2.297 . S
O32 C34 1.247 . S
O33 Cd29 2.439 . S
O33 C34 1.208 . S
C34 O32 1.247 . S
C34 O33 1.208 . S
C35 O40 1.247 . S
C35 O41 1.208 . S
C36 O28 1.315 . S
C36 O31 1.279 . S
C37 O38 1.315 . S
C37 O39 1.279 . S
O38 Cd30 2.223 . S
O38 C37 1.315 . S
O39 Cd29 2.240 . S
O39 C37 1.279 . S
O40 Cd30 2.297 . S
O40 C35 1.247 . S
O41 Cd30 2.439 . S
O41 C35 1.208 . S
O42 Cd43 2.223 . S
O42 C50 1.315 . S
Cd43 O42 2.223 . S
Cd43 O46 2.297 . S
Cd43 O47 2.439 . S
Cd43 O53 2.240 . S
Cd44 O45 2.240 . S
Cd44 O52 2.223 . S
Cd44 O54 2.297 . S
Cd44 O55 2.439 . S
O45 Cd44 2.240 . S
O45 C50 1.279 . S
O46 Cd43 2.297 . S
O46 C48 1.247 . S
O47 Cd43 2.439 . S
O47 C48 1.208 . S
C48 O46 1.247 . S
C48 O47 1.208 . S
C49 O54 1.247 . S
C49 O55 1.208 . S
C50 O42 1.315 . S
C50 O45 1.279 . S
C51 O52 1.315 . S
C51 O53 1.279 . S
O52 Cd44 2.223 . S
O52 C51 1.315 . S
O53 Cd43 2.240 . S
O53 C51 1.279 . S
O54 Cd44 2.297 . S
O54 C49 1.247 . S
O55 Cd44 2.439 . S
O55 C49 1.208 . S
O56 Cd57 2.223 . S
O56 C64 1.315 . S
Cd57 O56 2.223 . S
Cd57 O60 2.297 . S
Cd57 O61 2.439 . S
Cd57 O67 2.240 . S
Cd58 O59 2.240 . S
Cd58 O66 2.223 . S
Cd58 O68 2.297 . S
Cd58 O69 2.439 . S
O59 Cd58 2.240 . S
O59 C64 1.279 . S
O60 Cd57 2.297 . S
O60 C62 1.247 . S
O61 Cd57 2.439 . S
O61 C62 1.208 . S
C62 O60 1.247 . S
C62 O61 1.208 . S
C63 O68 1.247 . S
C63 O69 1.208 . S
C64 O56 1.315 . S
C64 O59 1.279 . S
C65 O66 1.315 . S
C65 O67 1.279 . S
O66 Cd58 2.223 . S
O66 C65 1.315 . S
O67 Cd57 2.240 . S
O67 C65 1.279 . S
O68 Cd58 2.297 . S
O68 C63 1.247 . S
O69 Cd58 2.439 . S
O69 C63 1.208 . S
O70 Cd71 2.223 . S
O70 C78 1.315 . S
Cd71 O70 2.223 . S
Cd71 O74 2.297 . S
Cd71 O75 2.439 . S
Cd71 O81 2.240 . S
Cd72 O73 2.240 . S
Cd72 O80 2.223 . S
Cd72 O82 2.297 . S
Cd72 O83 2.439 . S
O73 Cd72 2.240 . S
O73 C78 1.279 . S
O74 Cd71 2.297 . S
O74 C76 1.247 . S
O75 Cd71 2.439 . S
O75 C76 1.208 . S
C76 O74 1.247 . S
C76 O75 1.208 . S
C77 O82 1.247 . S
C77 O83 1.208 . S
C78 O70 1.315 . S
C78 O73 1.279 . S
C79 O80 1.315 . S
C79 O81 1.279 . S
O80 Cd72 2.223 . S
O80 C79 1.315 . S
O81 Cd71 2.240 . S
O81 C79 1.279 . S
O82 Cd72 2.297 . S
O82 C77 1.247 . S
O83 Cd72 2.439 . S
O83 C77 1.208 . S
O84 Cd85 2.223 . S
O84 C92 1.315 . S
Cd85 O84 2.223 . S
Cd85 O88 2.297 . S
Cd85 O89 2.439 . S
Cd85 O95 2.240 . S
Cd86 O87 2.240 . S
Cd86 O94 2.223 . S
Cd86 O96 2.297 . S
Cd86 O97 2.439 . S
O87 Cd86 2.240 . S
O87 C92 1.279 . S
O88 Cd85 2.297 . S
O88 C90 1.247 . S
O89 Cd85 2.439 . S
O89 C90 1.208 . S
C90 O88 1.247 . S
C90 O89 1.208 . S
C91 O96 1.247 . S
C91 O97 1.208 . S
C92 O84 1.315 . S
C92 O87 1.279 . S
C93 O94 1.315 . S
C93 O95 1.279 . S
O94 Cd86 2.223 . S
O94 C93 1.315 . S
O95 Cd85 2.240 . S
O95 C93 1.279 . S
O96 Cd86 2.297 . S
O96 C91 1.247 . S
O97 Cd86 2.439 . S
O97 C91 1.208 . S
O98 Cd99 2.223 . S
O98 C106 1.315 . S
Cd99 O98 2.223 . S
Cd99 O102 2.297 . S
Cd99 O103 2.439 . S
Cd99 O109 2.240 . S
Cd100 O101 2.240 . S
Cd100 O108 2.223 . S
Cd100 O110 2.297 . S
Cd100 O111 2.439 . S
O101 Cd100 2.240 . S
O101 C106 1.279 . S
O102 Cd99 2.297 . S
O102 C104 1.247 . S
O103 Cd99 2.439 . S
O103 C104 1.208 . S
C104 O102 1.247 . S
C104 O103 1.208 . S
C105 O110 1.247 . S
C105 O111 1.208 . S
C106 O98 1.315 . S
C106 O101 1.279 . S
C107 O108 1.315 . S
C107 O109 1.279 . S
O108 Cd100 2.223 . S
O108 C107 1.315 . S
O109 Cd99 2.240 . S
O109 C107 1.279 . S
O110 Cd100 2.297 . S
O110 C105 1.247 . S
O111 Cd100 2.439 . S
O111 C105 1.208 . S
O112 Cd113 2.223 . S
O112 C120 1.315 . S
Cd113 O112 2.223 . S
Cd113 O116 2.297 . S
Cd113 O117 2.439 . S
Cd113 O123 2.240 . S
Cd114 O115 2.240 . S
Cd114 O122 2.223 . S
Cd114 O124 2.297 . S
Cd114 O125 2.439 . S
O115 Cd114 2.240 . S
O115 C120 1.279 . S
O116 Cd113 2.297 . S
O116 C118 1.247 . S
O117 Cd113 2.439 . S
O117 C118 1.208 . S
C118 O116 1.247 . S
C118 O117 1.208 . S
C119 O124 1.247 . S
C119 O125 1.208 . S
C120 O112 1.315 . S
C120 O115 1.279 . S
C121 O122 1.315 . S
C121 O123 1.279 . S
O122 Cd114 2.223 . S
O122 C121 1.315 . S
O123 Cd113 2.240 . S
O123 C121 1.279 . S
O124 Cd114 2.297 . S
O124 C119 1.247 . S
O125 Cd114 2.439 . S
O125 C119 1.208 . S
O126 Cd127 2.223 . S
O126 C134 1.315 . S
Cd127 O126 2.223 . S
Cd127 O130 2.297 . S
Cd127 O131 2.439 . S
Cd127 O137 2.240 . S
Cd128 O129 2.240 . S
Cd128 O136 2.223 . S
Cd128 O138 2.297 . S
Cd128 O139 2.439 . S
O129 Cd128 2.240 . S
O129 C134 1.279 . S
O130 Cd127 2.297 . S
O130 C132 1.247 . S
O131 Cd127 2.439 . S
O131 C132 1.208 . S
C132 O130 1.247 . S
C132 O131 1.208 . S
C133 O138 1.247 . S
C133 O139 1.208 . S
C134 O126 1.315 . S
C134 O129 1.279 . S
C135 O136 1.315 . S
C135 O137 1.279 . S
O136 Cd128 2.223 . S
O136 C135 1.315 . S
O137 Cd127 2.240 . S
O137 C135 1.279 . S
O138 Cd128 2.297 . S
O138 C133 1.247 . S
O139 Cd128 2.439 . S
O139 C133 1.208 . S
O140 Cd141 2.223 . S
O140 C148 1.315 . S
Cd141 O140 2.223 . S
Cd141 O144 2.297 . S
Cd141 O145 2.439 . S
Cd141 O151 2.240 . S
Cd142 O143 2.240 . S
Cd142 O150 2.223 . S
Cd142 O152 2.297 . S
Cd142 O153 2.439 . S
O143 Cd142 2.240 . S
O143 C148 1.279 . S
O144 Cd141 2.297 . S
O144 C146 1.247 . S
O145 Cd141 2.439 . S
O145 C146 1.208 . S
C146 O144 1.247 . S
C146 O145 1.208 . S
C147 O152 1.247 . S
C147 O153 1.208 . S
C148 O140 1.315 . S
C148 O143 1.279 . S
C149 O150 1.315 . S
C149 O151 1.279 . S
O150 Cd142 2.223 . S
O150 C149 1.315 . S
O151 Cd141 2.240 . S
O151 C149 1.279 . S
O152 Cd142 2.297 . S
O152 C147 1.247 . S
O153 Cd142 2.439 . S
O153 C147 1.208 . S
O154 Cd155 2.223 . S
O154 C162 1.315 . S
Cd155 O154 2.223 . S
Cd155 O158 2.297 . S
Cd155 O159 2.439 . S
Cd155 O165 2.240 . S
Cd156 O157 2.240 . S
Cd156 O164 2.223 . S
Cd156 O166 2.297 . S
Cd156 O167 2.439 . S
O157 Cd156 2.240 . S
O157 C162 1.279 . S
O158 Cd155 2.297 . S
O158 C160 1.247 . S
O159 Cd155 2.439 . S
O159 C160 1.208 . S
C160 O158 1.247 . S
C160 O159 1.208 . S
C161 O166 1.247 . S
C161 O167 1.208 . S
C162 O154 1.315 . S
C162 O157 1.279 . S
C163 O164 1.315 . S
C163 O165 1.279 . S
O164 Cd156 2.223 . S
O164 C163 1.315 . S
O165 Cd155 2.240 . S
O165 C163 1.279 . S
O166 Cd156 2.297 . S
O166 C161 1.247 . S
O167 Cd156 2.439 . S
O167 C161 1.208 . S
O168 Cd169 2.223 . S
O168 C176 1.315 . S
Cd169 O168 2.223 . S
Cd169 O172 2.297 . S
Cd169 O173 2.439 . S
Cd169 O179 2.240 . S
Cd170 O171 2.240 . S
Cd170 O178 2.223 . S
Cd170 O180 2.297 . S
Cd170 O181 2.439 . S
O171 Cd170 2.240 . S
O171 C176 1.279 . S
O172 Cd169 2.297 . S
O172 C174 1.247 . S
O173 Cd169 2.439 . S
O173 C174 1.208 . S
C174 O172 1.247 . S
C174 O173 1.208 . S
C175 O180 1.247 . S
C175 O181 1.208 . S
C176 O168 1.315 . S
C176 O171 1.279 . S
C177 O178 1.315 . S
C177 O179 1.279 . S
O178 Cd170 2.223 . S
O178 C177 1.315 . S
O179 Cd169 2.240 . S
O179 C177 1.279 . S
O180 Cd170 2.297 . S
O180 C175 1.247 . S
O181 Cd170 2.439 . S
O181 C175 1.208 . S
O182 Cd183 2.223 . S
O182 C190 1.315 . S
Cd183 O182 2.223 . S
Cd183 O186 2.297 . S
Cd183 O187 2.439 . S
Cd183 O193 2.240 . S
Cd184 O185 2.240 . S
Cd184 O192 2.223 . S
Cd184 O194 2.297 . S
Cd184 O195 2.439 . S
O185 Cd184 2.240 . S
O185 C190 1.279 . S
O186 Cd183 2.297 . S
O186 C188 1.247 . S
O187 Cd183 2.439 . S
O187 C188 1.208 . S
C188 O186 1.247 . S
C188 O187 1.208 . S
C189 O194 1.247 . S
C189 O195 1.208 . S
C190 O182 1.315 . S
C190 O185 1.279 . S
C191 O192 1.315 . S
C191 O193 1.279 . S
O192 Cd184 2.223 . S
O192 C191 1.315 . S
O193 Cd183 2.240 . S
O193 C191 1.279 . S
O194 Cd184 2.297 . S
O194 C189 1.247 . S
O195 Cd184 2.439 . S
O195 C189 1.208 . S
O196 Cd197 2.223 . S
O196 C204 1.315 . S
Cd197 O196 2.223 . S
Cd197 O200 2.297 . S
Cd197 O201 2.439 . S
Cd197 O207 2.240 . S
Cd198 O199 2.240 . S
Cd198 O206 2.223 . S
Cd198 O208 2.297 . S
Cd198 O209 2.439 . S
O199 Cd198 2.240 . S
O199 C204 1.279 . S
O200 Cd197 2.297 . S
O200 C202 1.247 . S
O201 Cd197 2.439 . S
O201 C202 1.208 . S
C202 O200 1.247 . S
C202 O201 1.208 . S
C203 O208 1.247 . S
C203 O209 1.208 . S
C204 O196 1.315 . S
C204 O199 1.279 . S
C205 O206 1.315 . S
C205 O207 1.279 . S
O206 Cd198 2.223 . S
O206 C205 1.315 . S
O207 Cd197 2.240 . S
O207 C205 1.279 . S
O208 Cd198 2.297 . S
O208 C203 1.247 . S
O209 Cd198 2.439 . S
O209 C203 1.208 . S
O210 Cd211 2.223 . S
O210 C218 1.315 . S
Cd211 O210 2.223 . S
Cd211 O214 2.297 . S
Cd211 O215 2.439 . S
Cd211 O221 2.240 . S
Cd212 O213 2.240 . S
Cd212 O220 2.223 . S
Cd212 O222 2.297 . S
Cd212 O223 2.439 . S
O213 Cd212 2.240 . S
O213 C218 1.279 . S
O214 Cd211 2.297 . S
O214 C216 1.247 . S
O215 Cd211 2.439 . S
O215 C216 1.208 . S
C216 O214 1.247 . S
C216 O215 1.208 . S
C217 O222 1.247 . S
C217 O223 1.208 . S
C218 O210 1.315 . S
C218 O213 1.279 . S
C219 O220 1.315 . S
C219 O221 1.279 . S
O220 Cd212 2.223 . S
O220 C219 1.315 . S
O221 Cd211 2.240 . S
O221 C219 1.279 . S
O222 Cd212 2.297 . S
O222 C217 1.247 . S
O223 Cd212 2.439 . S
O223 C217 1.208 . S
C224 C225 1.369 . S
C224 C226 1.419 . S
C224 H228 0.930 . S
C225 C224 1.369 . S
C225 C234 1.429 . S
C226 C224 1.419 . S
C226 C227 1.363 . S
C226 H229 0.929 . S
C227 C226 1.363 . S
C227 C233 1.428 . S
H228 C224 0.930 . S
H229 C226 0.929 . S
S230 N231 1.613 . S
S230 N232 1.610 . S
N231 S230 1.613 . S
N231 C234 1.350 . S
N232 S230 1.610 . S
N232 C233 1.351 . S
C233 C227 1.428 . S
C233 N232 1.351 . S
C233 C234 1.434 . S
C234 C225 1.429 . S
C234 N231 1.350 . S
C234 C233 1.434 . S
C235 C236 1.369 . S
C235 C237 1.419 . S
C235 H239 0.930 . S
C236 C235 1.369 . S
C236 C245 1.429 . S
C237 C235 1.419 . S
C237 C238 1.363 . S
C237 H240 0.929 . S
C238 C237 1.363 . S
C238 C244 1.428 . S
H239 C235 0.930 . S
H240 C237 0.929 . S
S241 N242 1.613 . S
S241 N243 1.610 . S
N242 S241 1.613 . S
N242 C245 1.350 . S
N243 S241 1.610 . S
N243 C244 1.351 . S
C244 C238 1.428 . S
C244 N243 1.351 . S
C244 C245 1.434 . S
C245 C236 1.429 . S
C245 N242 1.350 . S
C245 C244 1.434 . S
C246 C247 1.369 . S
C246 C248 1.419 . S
C246 H250 0.930 . S
C247 C246 1.369 . S
C247 C256 1.429 . S
C248 C246 1.419 . S
C248 C249 1.363 . S
C248 H251 0.929 . S
C249 C248 1.363 . S
C249 C255 1.428 . S
H250 C246 0.930 . S
H251 C248 0.929 . S
S252 N253 1.613 . S
S252 N254 1.610 . S
N253 S252 1.613 . S
N253 C256 1.350 . S
N254 S252 1.610 . S
N254 C255 1.351 . S
C255 C249 1.428 . S
C255 N254 1.351 . S
C255 C256 1.434 . S
C256 C247 1.429 . S
C256 N253 1.350 . S
C256 C255 1.434 . S
C257 C258 1.369 . S
C257 C259 1.419 1_455 S
C257 H261 0.930 . S
C258 C257 1.369 . S
C258 C267 1.429 . S
C259 C257 1.419 1_655 S
C259 C260 1.363 . S
C259 H262 0.929 . S
C260 C259 1.363 . S
C260 C266 1.428 . S
H261 C257 0.930 . S
H262 C259 0.929 . S
S263 N264 1.615 1_655 S
S263 N265 1.608 . S
N264 S263 1.615 1_455 S
N264 C267 1.350 . S
N265 S263 1.608 . S
N265 C266 1.351 . S
C266 C260 1.428 . S
C266 N265 1.351 . S
C266 C267 1.434 1_655 S
C267 C258 1.429 . S
C267 N264 1.350 . S
C267 C266 1.434 1_455 S
C268 C269 1.369 . S
C268 C270 1.419 . S
C268 H272 0.930 . S
C269 C268 1.369 . S
C269 C278 1.429 . S
C270 C268 1.419 . S
C270 C271 1.363 . S
C270 H273 0.929 . S
C271 C270 1.363 . S
C271 C277 1.428 . S
H272 C268 0.930 . S
H273 C270 0.929 . S
S274 N275 1.613 . S
S274 N276 1.610 . S
N275 S274 1.613 . S
N275 C278 1.350 . S
N276 S274 1.610 . S
N276 C277 1.351 . S
C277 C271 1.428 . S
C277 N276 1.351 . S
C277 C278 1.434 . S
C278 C269 1.429 . S
C278 N275 1.350 . S
C278 C277 1.434 . S
C279 C280 1.369 . S
C279 C281 1.419 1_655 S
C279 H283 0.930 . S
C280 C279 1.369 . S
C280 C289 1.429 . S
C281 C279 1.419 1_455 S
C281 C282 1.363 . S
C281 H284 0.929 . S
C282 C281 1.363 . S
C282 C288 1.428 . S
H283 C279 0.930 . S
H284 C281 0.929 . S
S285 N286 1.616 1_455 S
S285 N287 1.608 . S
N286 S285 1.616 1_655 S
N286 C289 1.350 . S
N287 S285 1.608 . S
N287 C288 1.351 . S
C288 C282 1.428 . S
C288 N287 1.351 . S
C288 C289 1.434 1_455 S
C289 C280 1.429 . S
C289 N286 1.350 . S
C289 C288 1.434 1_655 S
C290 C291 1.369 . S
C290 C292 1.419 . S
C290 H294 0.930 . S
C291 C290 1.369 . S
C291 C300 1.429 . S
C292 C290 1.419 . S
C292 C293 1.363 . S
C292 H295 0.929 . S
C293 C292 1.363 . S
C293 C299 1.428 . S
H294 C290 0.930 . S
H295 C292 0.929 . S
S296 N297 1.613 . S
S296 N298 1.610 . S
N297 S296 1.613 . S
N297 C300 1.350 . S
N298 S296 1.610 . S
N298 C299 1.351 . S
C299 C293 1.428 . S
C299 N298 1.351 . S
C299 C300 1.434 . S
C300 C291 1.429 . S
C300 N297 1.350 . S
C300 C299 1.434 . S
C301 C302 1.369 . S
C301 C303 1.419 . S
C301 H305 0.930 . S
C302 C301 1.369 . S
C302 C311 1.429 . S
C303 C301 1.419 . S
C303 C304 1.363 . S
C303 H306 0.929 . S
C304 C303 1.363 . S
C304 C310 1.428 . S
H305 C301 0.930 . S
H306 C303 0.929 . S
S307 N308 1.613 . S
S307 N309 1.610 . S
N308 S307 1.613 . S
N308 C311 1.350 . S
N309 S307 1.610 . S
N309 C310 1.351 . S
C310 C304 1.428 . S
C310 N309 1.351 . S
C310 C311 1.434 . S
C311 C302 1.429 . S
C311 N308 1.350 . S
C311 C310 1.434 . S
C312 C313 1.369 . S
C312 C314 1.419 . S
C312 H316 0.930 . S
C313 C312 1.369 . S
C313 C322 1.429 . S
C314 C312 1.419 . S
C314 C315 1.363 . S
C314 H317 0.929 . S
C315 C314 1.363 . S
C315 C321 1.428 . S
H316 C312 0.930 . S
H317 C314 0.929 . S
S318 N319 1.613 . S
S318 N320 1.610 . S
N319 S318 1.613 . S
N319 C322 1.350 . S
N320 S318 1.610 . S
N320 C321 1.351 . S
C321 C315 1.428 . S
C321 N320 1.351 . S
C321 C322 1.434 . S
C322 C313 1.429 . S
C322 N319 1.350 . S
C322 C321 1.434 . S
C323 C324 1.369 . S
C323 C325 1.419 . S
C323 H327 0.930 . S
C324 C323 1.369 . S
C324 C333 1.429 . S
C325 C323 1.419 . S
C325 C326 1.363 . S
C325 H328 0.929 . S
C326 C325 1.363 . S
C326 C332 1.428 . S
H327 C323 0.930 . S
H328 C325 0.929 . S
S329 N330 1.613 . S
S329 N331 1.610 . S
N330 S329 1.613 . S
N330 C333 1.350 . S
N331 S329 1.610 . S
N331 C332 1.351 . S
C332 C326 1.428 . S
C332 N331 1.351 . S
C332 C333 1.434 . S
C333 C324 1.429 . S
C333 N330 1.350 . S
C333 C332 1.434 . S
C334 C335 1.369 . S
C334 C336 1.419 . S
C334 H338 0.930 . S
C335 C334 1.369 . S
C335 C344 1.429 . S
C336 C334 1.419 . S
C336 C337 1.363 . S
C336 H339 0.929 . S
C337 C336 1.363 . S
C337 C343 1.428 . S
H338 C334 0.930 . S
H339 C336 0.929 . S
S340 N341 1.613 . S
S340 N342 1.610 . S
N341 S340 1.613 . S
N341 C344 1.350 . S
N342 S340 1.610 . S
N342 C343 1.351 . S
C343 C337 1.428 . S
C343 N342 1.351 . S
C343 C344 1.434 . S
C344 C335 1.429 . S
C344 N341 1.350 . S
C344 C343 1.434 . S
C345 C346 1.369 . S
C345 C347 1.419 . S
C345 H349 0.930 . S
C346 C345 1.369 . S
C346 C355 1.429 . S
C347 C345 1.419 . S
C347 C348 1.363 . S
C347 H350 0.929 . S
C348 C347 1.363 . S
C348 C354 1.428 . S
H349 C345 0.930 . S
H350 C347 0.929 . S
S351 N352 1.613 . S
S351 N353 1.610 . S
N352 S351 1.613 . S
N352 C355 1.350 . S
N353 S351 1.610 . S
N353 C354 1.351 . S
C354 C348 1.428 . S
C354 N353 1.351 . S
C354 C355 1.434 . S
C355 C346 1.429 . S
C355 N352 1.350 . S
C355 C354 1.434 . S
C356 C357 1.369 . S
C356 C358 1.419 1_455 S
C356 H360 0.930 . S
C357 C356 1.369 . S
C357 C366 1.429 . S
C358 C356 1.419 1_655 S
C358 C359 1.363 . S
C358 H361 0.929 . S
C359 C358 1.363 . S
C359 C365 1.428 . S
H360 C356 0.930 . S
H361 C358 0.929 . S
S362 N363 1.616 1_655 S
S362 N364 1.608 . S
N363 S362 1.616 1_455 S
N363 C366 1.350 . S
N364 S362 1.608 . S
N364 C365 1.351 . S
C365 C359 1.428 . S
C365 N364 1.351 . S
C365 C366 1.434 1_655 S
C366 C357 1.429 . S
C366 N363 1.350 . S
C366 C365 1.434 1_455 S
C367 C368 1.369 . S
C367 C369 1.419 . S
C367 H371 0.930 . S
C368 C367 1.369 . S
C368 C377 1.429 . S
C369 C367 1.419 . S
C369 C370 1.363 . S
C369 H372 0.929 . S
C370 C369 1.363 . S
C370 C376 1.428 . S
H371 C367 0.930 . S
H372 C369 0.929 . S
S373 N374 1.613 . S
S373 N375 1.610 . S
N374 S373 1.613 . S
N374 C377 1.350 . S
N375 S373 1.610 . S
N375 C376 1.351 . S
C376 C370 1.428 . S
C376 N375 1.351 . S
C376 C377 1.434 . S
C377 C368 1.429 . S
C377 N374 1.350 . S
C377 C376 1.434 . S
C378 C379 1.369 . S
C378 C380 1.419 . S
C378 H382 0.930 . S
C379 C378 1.369 . S
C379 C388 1.429 . S
C380 C378 1.419 . S
C380 C381 1.363 . S
C380 H383 0.929 . S
C381 C380 1.363 . S
C381 C387 1.428 . S
H382 C378 0.930 . S
H383 C380 0.929 . S
S384 N385 1.613 . S
S384 N386 1.610 . S
N385 S384 1.613 . S
N385 C388 1.350 . S
N386 S384 1.610 . S
N386 C387 1.351 . S
C387 C381 1.428 . S
C387 N386 1.351 . S
C387 C388 1.434 . S
C388 C379 1.429 . S
C388 N385 1.350 . S
C388 C387 1.434 . S
C389 C390 1.369 . S
C389 C391 1.419 1_455 S
C389 H393 0.930 . S
C390 C389 1.369 . S
C390 C399 1.429 . S
C391 C389 1.419 1_655 S
C391 C392 1.363 . S
C391 H394 0.929 . S
C392 C391 1.363 . S
C392 C398 1.428 . S
H393 C389 0.930 . S
H394 C391 0.929 . S
S395 N396 1.616 1_655 S
S395 N397 1.608 . S
N396 S395 1.616 1_455 S
N396 C399 1.350 . S
N397 S395 1.608 . S
N397 C398 1.351 . S
C398 C392 1.428 . S
C398 N397 1.351 . S
C398 C399 1.434 1_655 S
C399 C390 1.429 . S
C399 N396 1.350 . S
C399 C398 1.434 1_455 S
C400 C401 1.369 . S
C400 C402 1.419 . S
C400 H404 0.930 . S
C401 C400 1.369 . S
C401 C410 1.429 1_554 S
C402 C400 1.419 . S
C402 C403 1.363 1_554 S
C402 H405 0.929 . S
C403 C402 1.363 1_556 S
C403 C409 1.428 . S
H404 C400 0.930 . S
H405 C402 0.929 . S
S406 N407 1.613 . S
S406 N408 1.610 . S
N407 S406 1.613 . S
N407 C410 1.350 . S
N408 S406 1.610 . S
N408 C409 1.351 . S
C409 C403 1.428 . S
C409 N408 1.351 . S
C409 C410 1.434 . S
C410 C401 1.429 1_556 S
C410 N407 1.350 . S
C410 C409 1.434 . S
C411 C412 1.369 . S
C411 C413 1.419 . S
C411 H415 0.930 . S
C412 C411 1.369 . S
C412 C421 1.429 . S
C413 C411 1.419 . S
C413 C414 1.363 . S
C413 H416 0.929 . S
C414 C413 1.363 . S
C414 C420 1.428 . S
H415 C411 0.930 . S
H416 C413 0.929 . S
S417 N418 1.613 . S
S417 N419 1.610 . S
N418 S417 1.613 . S
N418 C421 1.350 . S
N419 S417 1.610 . S
N419 C420 1.351 . S
C420 C414 1.428 . S
C420 N419 1.351 . S
C420 C421 1.434 . S
C421 C412 1.429 . S
C421 N418 1.350 . S
C421 C420 1.434 . S
C422 C423 1.369 . S
C422 C424 1.419 . S
C422 H426 0.930 . S
C423 C422 1.369 . S
C423 C432 1.429 . S
C424 C422 1.419 . S
C424 C425 1.363 . S
C424 H427 0.929 . S
C425 C424 1.363 . S
C425 C431 1.428 . S
H426 C422 0.930 . S
H427 C424 0.929 . S
S428 N429 1.613 . S
S428 N430 1.610 . S
N429 S428 1.613 . S
N429 C432 1.350 . S
N430 S428 1.610 . S
N430 C431 1.351 . S
C431 C425 1.428 . S
C431 N430 1.351 . S
C431 C432 1.434 . S
C432 C423 1.429 . S
C432 N429 1.350 . S
C432 C431 1.434 . S
C433 C434 1.369 . S
C433 C435 1.419 . S
C433 H437 0.930 . S
C434 C433 1.369 . S
C434 C443 1.429 . S
C435 C433 1.419 . S
C435 C436 1.363 . S
C435 H438 0.929 . S
C436 C435 1.363 . S
C436 C442 1.428 . S
H437 C433 0.930 . S
H438 C435 0.929 . S
S439 N440 1.613 . S
S439 N441 1.610 . S
N440 S439 1.613 . S
N440 C443 1.350 . S
N441 S439 1.610 . S
N441 C442 1.351 . S
C442 C436 1.428 . S
C442 N441 1.351 . S
C442 C443 1.434 . S
C443 C434 1.429 . S
C443 N440 1.350 . S
C443 C442 1.434 . S
C444 C445 1.369 . S
C444 C446 1.419 1_556 S
C444 H448 0.930 . S
C445 C444 1.369 . S
C445 C454 1.426 1_556 S
C446 C444 1.419 1_554 S
C446 C447 1.363 . S
C446 H449 0.929 . S
C447 C446 1.363 . S
C447 C453 1.428 . S
H448 C444 0.930 . S
H449 C446 0.929 . S
S450 N451 1.613 . S
S450 N452 1.610 . S
N451 S450 1.613 . S
N451 C454 1.350 . S
N452 S450 1.610 . S
N452 C453 1.351 . S
C453 C447 1.428 . S
C453 N452 1.351 . S
C453 C454 1.437 . S
C454 C445 1.426 1_554 S
C454 N451 1.350 . S
C454 C453 1.437 . S
C455 C456 1.369 . S
C455 C457 1.419 . S
C455 H459 0.930 . S
C456 C455 1.369 . S
C456 C465 1.429 . S
C457 C455 1.419 . S
C457 C458 1.363 . S
C457 H460 0.929 . S
C458 C457 1.363 . S
C458 C464 1.428 . S
H459 C455 0.930 . S
H460 C457 0.929 . S
S461 N462 1.613 . S
S461 N463 1.610 . S
N462 S461 1.613 . S
N462 C465 1.350 . S
N463 S461 1.610 . S
N463 C464 1.351 . S
C464 C458 1.428 . S
C464 N463 1.351 . S
C464 C465 1.434 . S
C465 C456 1.429 . S
C465 N462 1.350 . S
C465 C464 1.434 . S
C466 C467 1.369 . S
C466 C468 1.419 . S
C466 H470 0.930 . S
C467 C466 1.369 . S
C467 C476 1.429 . S
C468 C466 1.419 . S
C468 C469 1.363 . S
C468 H471 0.929 . S
C469 C468 1.363 . S
C469 C475 1.428 . S
H470 C466 0.930 . S
H471 C468 0.929 . S
S472 N473 1.613 . S
S472 N474 1.610 . S
N473 S472 1.613 . S
N473 C476 1.350 . S
N474 S472 1.610 . S
N474 C475 1.351 . S
C475 C469 1.428 . S
C475 N474 1.351 . S
C475 C476 1.434 . S
C476 C467 1.429 . S
C476 N473 1.350 . S
C476 C475 1.434 . S
C477 C478 1.369 . S
C477 C479 1.419 . S
C477 H481 0.930 . S
C478 C477 1.369 . S
C478 C487 1.429 . S
C479 C477 1.419 . S
C479 C480 1.363 . S
C479 H482 0.929 . S
C480 C479 1.363 . S
C480 C486 1.428 . S
H481 C477 0.930 . S
H482 C479 0.929 . S
S483 N484 1.613 . S
S483 N485 1.610 . S
N484 S483 1.613 . S
N484 C487 1.350 . S
N485 S483 1.610 . S
N485 C486 1.351 . S
C486 C480 1.428 . S
C486 N485 1.351 . S
C486 C487 1.434 . S
C487 C478 1.429 . S
C487 N484 1.350 . S
C487 C486 1.434 . S
C488 C489 1.369 . S
C488 C490 1.419 1_545 S
C488 H492 0.930 . S
C489 C488 1.369 . S
C489 C498 1.429 . S
C490 C488 1.419 1_565 S
C490 C491 1.363 . S
C490 H493 0.929 . S
C491 C490 1.363 . S
C491 C497 1.428 . S
H492 C488 0.930 . S
H493 C490 0.929 . S
S494 N495 1.613 1_565 S
S494 N496 1.610 . S
N495 S494 1.613 1_545 S
N495 C498 1.350 . S
N496 S494 1.610 . S
N496 C497 1.351 . S
C497 C491 1.428 . S
C497 N496 1.351 . S
C497 C498 1.434 1_565 S
C498 C489 1.429 . S
C498 N495 1.350 . S
C498 C497 1.434 1_545 S
C499 C500 1.369 . S
C499 C501 1.419 . S
C499 H503 0.930 . S
C500 C499 1.369 . S
C500 C509 1.429 . S
C501 C499 1.419 . S
C501 C502 1.363 . S
C501 H504 0.929 . S
C502 C501 1.363 . S
C502 C508 1.428 . S
H503 C499 0.930 . S
H504 C501 0.929 . S
S505 N506 1.613 . S
S505 N507 1.610 . S
N506 S505 1.613 . S
N506 C509 1.350 . S
N507 S505 1.610 . S
N507 C508 1.351 . S
C508 C502 1.428 . S
C508 N507 1.351 . S
C508 C509 1.434 . S
C509 C500 1.429 . S
C509 N506 1.350 . S
C509 C508 1.434 . S
C510 C511 1.369 . S
C510 C512 1.419 1_546 S
C510 H514 0.930 . S
C511 C510 1.369 . S
C511 C520 1.429 . S
C512 C510 1.419 1_564 S
C512 C513 1.363 . S
C512 H515 0.929 . S
C513 C512 1.363 . S
C513 C519 1.428 . S
H514 C510 0.930 . S
H515 C512 0.929 . S
S516 N517 1.613 1_565 S
S516 N518 1.610 1_556 S
N517 S516 1.613 1_545 S
N517 C520 1.350 . S
N518 S516 1.610 1_554 S
N518 C519 1.351 . S
C519 C513 1.428 . S
C519 N518 1.351 . S
C519 C520 1.434 1_564 S
C520 C511 1.429 . S
C520 N517 1.350 . S
C520 C519 1.434 1_546 S
C521 C522 1.369 . S
C521 C523 1.419 . S
C521 H525 0.930 . S
C522 C521 1.369 . S
C522 C531 1.429 . S
C523 C521 1.419 . S
C523 C524 1.363 . S
C523 H526 0.929 . S
C524 C523 1.363 . S
C524 C530 1.428 . S
H525 C521 0.930 . S
H526 C523 0.929 . S
S527 N528 1.613 . S
S527 N529 1.610 . S
N528 S527 1.613 . S
N528 C531 1.350 . S
N529 S527 1.610 . S
N529 C530 1.351 . S
C530 C524 1.428 . S
C530 N529 1.351 . S
C530 C531 1.434 . S
C531 C522 1.429 . S
C531 N528 1.350 . S
C531 C530 1.434 . S
C532 C533 1.369 . S
C532 C534 1.419 . S
C532 H536 0.930 . S
C533 C532 1.369 . S
C533 C542 1.429 1_545 S
C534 C532 1.419 . S
C534 C535 1.363 1_545 S
C534 H537 0.929 . S
C535 C534 1.363 1_565 S
C535 C541 1.428 . S
H536 C532 0.930 . S
H537 C534 0.929 . S
S538 N539 1.613 . S
S538 N540 1.610 . S
N539 S538 1.613 . S
N539 C542 1.350 . S
N540 S538 1.610 . S
N540 C541 1.351 . S
C541 C535 1.428 . S
C541 N540 1.351 . S
C541 C542 1.434 . S
C542 C533 1.429 1_565 S
C542 N539 1.350 . S
C542 C541 1.434 . S
C543 C544 1.369 . S
C543 C545 1.419 . S
C543 H547 0.930 . S
C544 C543 1.369 . S
C544 C553 1.429 . S
C545 C543 1.419 . S
C545 C546 1.363 . S
C545 H548 0.929 . S
C546 C545 1.363 . S
C546 C552 1.428 . S
H547 C543 0.930 . S
H548 C545 0.929 . S
S549 N550 1.613 . S
S549 N551 1.610 . S
N550 S549 1.613 . S
N550 C553 1.350 . S
N551 S549 1.610 . S
N551 C552 1.351 . S
C552 C546 1.428 . S
C552 N551 1.351 . S
C552 C553 1.434 . S
C553 C544 1.429 . S
C553 N550 1.350 . S
C553 C552 1.434 . S
C554 C555 1.369 1_556 S
C554 C556 1.419 . S
C554 H558 0.930 . S
C555 C554 1.369 1_554 S
C555 C564 1.429 1_565 S
C556 C554 1.419 . S
C556 C557 1.363 1_565 S
C556 H559 0.929 . S
C557 C556 1.363 1_545 S
C557 C563 1.428 1_556 S
H558 C554 0.930 . S
H559 C556 0.929 . S
S560 N561 1.613 . S
S560 N562 1.610 . S
N561 S560 1.613 . S
N561 C564 1.350 . S
N562 S560 1.610 . S
N562 C563 1.351 . S
C563 C557 1.428 1_554 S
C563 N562 1.351 . S
C563 C564 1.434 . S
C564 C555 1.429 1_545 S
C564 N561 1.350 . S
C564 C563 1.434 . S
C565 C566 1.369 . S
C565 C567 1.419 . S
C565 H569 0.930 . S
C566 C565 1.369 . S
C566 C575 1.429 . S
C567 C565 1.419 . S
C567 C568 1.363 . S
C567 H570 0.929 . S
C568 C567 1.363 . S
C568 C574 1.428 . S
H569 C565 0.930 . S
H570 C567 0.929 . S
S571 N572 1.613 . S
S571 N573 1.610 . S
N572 S571 1.613 . S
N572 C575 1.350 . S
N573 S571 1.610 . S
N573 C574 1.351 . S
C574 C568 1.428 . S
C574 N573 1.351 . S
C574 C575 1.434 . S
C575 C566 1.429 . S
C575 N572 1.350 . S
C575 C574 1.434 . S
C225 C163 1.433 . S
C227 C8 1.433 . S
C236 C219 1.436 . S
C238 C23 1.436 . S
C247 C36 1.434 . S
C249 C134 1.434 . S
C258 C191 1.432 . S
C260 C50 1.432 . S
C269 C64 1.439 . S
C271 C190 1.438 . S
C280 C79 1.438 . S
C282 C162 1.437 . S
C291 C93 1.431 . S
C293 C218 1.432 . S
C302 C107 1.433 . S
C304 C135 1.434 . S
C313 C51 1.431 . S
C315 C120 1.432 . S
C324 C148 1.438 . S
C326 C22 1.437 . S
C335 C176 1.438 . S
C337 C78 1.438 . S
C346 C205 1.439 . S
C348 C106 1.438 . S
C357 C65 1.432 . S
C359 C121 1.432 . S
C368 C149 1.432 . S
C370 C92 1.433 . S
C379 C204 1.438 . S
C381 C37 1.437 . S
C390 C9 1.436 . S
C392 C177 1.435 . S
C401 C7 1.440 . S
C403 C63 1.445 . S
C412 C20 1.440 . S
C414 C76 1.444 . S
C423 C35 1.445 . S
C425 C90 1.444 . S
C434 C104 1.446 . S
C436 C49 1.442 . S
C445 C119 1.440 . S
C447 C175 1.444 . S
C456 C188 1.445 . S
C458 C132 1.441 . S
C467 C147 1.440 . S
C469 C202 1.443 . S
C478 C216 1.440 . S
C480 C161 1.444 . S
C489 C105 1.445 . S
C491 C21 1.444 . S
C500 C34 1.440 . S
C502 C62 1.444 . S
C511 C48 1.444 . S
C513 C77 1.444 . S
C522 C6 1.440 . S
C524 C91 1.444 . S
C533 C133 1.444 . S
C535 C217 1.441 . S
C544 C174 1.440 . S
C546 C146 1.444 . S
C555 C160 1.445 . S
C557 C189 1.441 . S
C566 C203 1.445 . S
C568 C118 1.441 . S
