# Generated by pormake.
# Topology sma, (6)-cn, num edge types: 1
# Building blocks:
#     Node 0, Type 0, BuildingBlock: BETFEN_clean_sbu_0, # of connection points: 6
#     Node 1, Type 0, BuildingBlock: BETFEN_clean_sbu_0, # of connection points: 6
#     Node 2, Type 0, BuildingBlock: BETFEN_clean_sbu_0, # of connection points: 6
#     Edge 3, Type (0, 0), BuildingBlock: TEMPAE_clean_linker_10, # of connection points: 2
#     Edge 4, Type (0, 0), BuildingBlock: TEMPAE_clean_linker_10, # of connection points: 2
#     Edge 5, Type (0, 0), BuildingBlock: TEMPAE_clean_linker_10, # of connection points: 2
#     Edge 6, Type (0, 0), BuildingBlock: TEMPAE_clean_linker_10, # of connection points: 2
#     Edge 7, Type (0, 0), BuildingBlock: TEMPAE_clean_linker_10, # of connection points: 2
#     Edge 8, Type (0, 0), BuildingBlock: TEMPAE_clean_linker_10, # of connection points: 2
#     Edge 9, Type (0, 0), BuildingBlock: TEMPAE_clean_linker_10, # of connection points: 2
#     Edge 10, Type (0, 0), BuildingBlock: TEMPAE_clean_linker_10, # of connection points: 2
#     Edge 11, Type (0, 0), BuildingBlock: TEMPAE_clean_linker_10, # of connection points: 2
# Relax obj value: 0.131
# Max RMSD: 0.256
# Mean RMSD: 0.202
data_MOF--net-sma--node1-BETFEN_clean_sbu_0--edge1-TEMPAE_clean_linker_10
_symmetry_space_group_name_H-M    P1
_symmetry_Int_Tables_number       1
_symmetry_cell_setting            triclinic
loop_
_symmetry_equiv_pos_as_xyz
'x, y, z'
_cell_length_a     31.360399
_cell_length_b     41.102173
_cell_length_c     14.303948
_cell_angle_alpha  90.23496
_cell_angle_beta   95.107167
_cell_angle_gamma 98.467254
loop_
_atom_site_label
_atom_site_type_symbol
_atom_site_fract_x
_atom_site_fract_y
_atom_site_fract_z
_atom_type_partial_charge
Pr0 Pr 0.09085 0.50456 0.04936 0.0
Pr1 Pr 0.10735 0.57973 -0.00353 0.0
C2 C 0.08054 0.44637 0.1373 0.0
C3 C 1.04548 0.41987 0.15975 0.0
C4 C 1.02681 0.39582 0.09199 0.0
C5 C 0.99524 0.37006 0.11464 0.0
C6 C 0.98156 0.36754 0.20571 0.0
C7 C 1.00002 0.39173 0.27334 0.0
C8 C 1.03166 0.41753 0.25068 0.0
C9 C 0.08502 0.5159 0.85979 0.0
C10 C 1.00699 0.53998 -0.02093 0.0
C11 C 0.11634 0.64355 0.94956 0.0
C12 C 0.13917 0.67355 -0.00054 0.0
C13 C 0.14039 0.67631 0.09765 0.0
C14 C 0.16401 0.70381 0.1456 0.0
C15 C 0.18739 0.72909 0.09671 0.0
C16 C 0.18581 0.72637 -0.00184 0.0
C17 C 0.16193 0.69884 0.95008 0.0
C18 C 0.10999 0.56536 0.18563 0.0
C19 C 0.19194 0.54127 0.02064 0.0
O20 O 0.08365 0.4747 0.18173 0.0
O21 O 0.08876 0.4494 0.04931 0.0
O22 O 0.11209 0.53195 0.91918 0.0
O23 O 1.06268 0.49047 0.89533 0.0
O24 O 1.03444 0.56282 0.94175 0.0
O25 O 1.02048 0.51739 0.0354 0.0
O26 O 0.14093 0.62323 0.92029 0.0
O27 O 0.08226 0.62853 -0.01339 0.0
O28 O 0.08279 0.55214 0.12264 0.0
O29 O 0.1378 0.5879 0.15301 0.0
O30 O 0.16783 0.51745 0.06318 0.0
O31 O 0.17506 0.56571 -0.02046 0.0
H32 H 1.03693 0.39657 0.0215 0.0
H33 H 0.98234 0.35161 0.06119 0.0
H34 H 0.99 0.39076 0.34392 0.0
H35 H 1.04559 0.43551 0.3047 0.0
H36 H 0.1234 0.65703 0.13769 0.0
H37 H 0.16388 0.70523 0.22119 0.0
H38 H 0.20385 0.74512 -0.04173 0.0
H39 H 0.16181 0.69705 0.87446 0.0
Pr40 Pr 0.63021 0.04751 0.49727 0.0
Pr41 Pr 0.53491 1.03149 0.54112 0.0
C42 C 0.7021 0.06993 0.4128 0.0
C43 C 0.72832 0.10162 0.39288 0.0
C44 C 0.77357 0.10423 0.40145 0.0
C45 C 0.79921 0.13383 0.38228 0.0
C46 C 0.78016 0.16156 0.35373 0.0
C47 C 0.73467 0.15894 0.3461 0.0
C48 C 0.70901 0.12928 0.36554 0.0
C49 C 0.61986 0.04878 0.6868 0.0
C50 C 0.57091 0.10865 0.52208 0.0
C51 C 0.45564 1.00465 0.58415 0.0
C52 C 0.42476 0.97803 0.53577 0.0
C53 C 0.42661 0.97172 0.43978 0.0
C54 C 0.39973 0.94517 0.39432 0.0
C55 C 0.37066 0.924 0.44397 0.0
C56 C 0.36857 0.93059 0.54013 0.0
C57 C 0.39548 0.95736 0.58563 0.0
C58 C 0.54938 1.02904 0.35267 0.0
C59 C 0.59909 0.9733 0.56424 0.0
O60 O 0.66357 0.06317 0.36752 0.0
O61 O 0.70314 0.061 0.50057 0.0
O62 O 0.59483 0.05941 0.6242 0.0
O63 O 0.65405 0.04024 0.65408 0.0
O64 O 0.54364 0.08811 0.56706 0.0
O65 O 0.60241 0.09809 0.47987 0.0
O66 O 0.49116 0.99575 0.62393 0.0
O67 O 0.46275 0.03211 0.53835 0.0
O68 O 0.57108 1.01716 0.41823 0.0
O69 O 0.51871 0.04289 0.38279 0.0
O70 O 0.62616 0.99027 0.51024 0.0
O71 O 0.56623 0.98585 0.59404 0.0
H72 H 0.78914 0.08328 0.42303 0.0
H73 H 0.83408 0.13505 0.39068 0.0
H74 H 0.71882 0.17964 0.32359 0.0
H75 H 0.67412 0.12793 0.35865 0.0
H76 H 0.44931 0.98712 0.39998 0.0
H77 H 0.4018 0.94124 0.32006 0.0
H78 H 0.34695 0.9146 0.58079 0.0
H79 H 0.39398 0.96156 0.66001 0.0
Pr80 Pr 0.58466 0.51073 0.82588 0.0
Pr81 Pr 0.60034 0.58582 0.8813 0.0
C82 C 0.57996 0.45037 0.75121 0.0
C83 C 0.57955 0.41696 0.71234 0.0
C84 C 0.61471 0.4001 0.73579 0.0
C85 C 0.61372 0.36772 0.70487 0.0
C86 C 0.57729 0.35118 0.65056 0.0
C87 C 0.54254 0.36846 0.62483 0.0
C88 C 0.54375 0.4011 0.65515 0.0
C89 C 0.57961 0.52339 0.01459 0.0
C90 C 0.68555 0.5473 0.87137 0.0
C91 C 0.62511 0.64968 0.93014 0.0
C92 C 0.62013 0.68194 0.88899 0.0
C93 C 0.61401 0.68534 0.79123 0.0
C94 C 0.61334 0.71642 0.75204 0.0
C95 C 0.61846 0.74482 0.80977 0.0
C96 C 0.6234 0.7411 0.90792 0.0
C97 C 0.62436 0.70999 0.94701 0.0
C98 C 0.57534 0.57037 0.69236 0.0
C99 C 0.50241 0.5459 0.88057 0.0
O100 O 0.55773 0.47215 0.7115 0.0
O101 O 0.60382 0.46019 0.82888 0.0
O102 O 0.60675 0.539 -0.03494 0.0
O103 O 0.55618 0.49873 -0.03098 0.0
O104 O 0.67005 0.57186 0.90966 0.0
O105 O 0.65991 0.52298 0.82548 0.0
O106 O 0.59073 0.63214 -0.04002 0.0
O107 O 0.64869 0.63213 0.88565 0.0
O108 O 0.60219 0.55738 0.74403 0.0
O109 O 0.56167 0.59381 0.73625 0.0
O110 O 0.51423 0.5251 0.81989 0.0
O111 O 0.53089 0.56894 0.92548 0.0
H112 H 0.64299 0.41188 0.77883 0.0
H113 H 0.64153 0.35556 0.72413 0.0
H114 H 0.51382 0.35647 0.58371 0.0
H115 H 0.51619 0.41358 0.63621 0.0
H116 H 0.61077 0.664 0.74496 0.0
H117 H 0.60991 0.71823 0.67633 0.0
H118 H 0.62657 0.76226 -0.04528 0.0
H119 H 0.62908 0.7079 0.02259 0.0
C120 C 0.25828 0.51275 0.04056 0.0
C121 C 0.23849 0.53987 0.01066 0.0
C122 C 0.30157 0.51091 0.02411 0.0
C123 C 0.32542 0.53667 -0.02369 0.0
C124 C 0.30577 0.56425 0.94747 0.0
C125 C 0.26285 0.56556 -0.03474 0.0
C126 C 0.32164 0.48128 0.05684 0.0
C127 C 0.32993 0.59234 0.89652 0.0
C128 C 0.44815 0.55383 -0.00706 0.0
C129 C 0.45713 0.54168 0.90605 0.0
C130 C 0.40568 0.5506 0.01907 0.0
C131 C 0.37104 0.53537 -0.04388 0.0
C132 C 0.37999 0.52216 0.86943 0.0
C133 C 0.42301 0.52523 0.84575 0.0
C134 C 0.39783 0.56456 0.1128 0.0
C135 C 0.34397 0.50593 0.80009 0.0
H136 H 0.23983 0.49277 0.0755 0.0
H137 H 0.24821 0.58676 0.94198 0.0
H138 H 0.33065 0.46802 -0.00445 0.0
H139 H 0.35184 0.48918 0.10281 0.0
H140 H 0.29941 0.46392 0.09594 0.0
H141 H 0.30988 0.61194 0.87826 0.0
H142 H 0.35938 0.60343 0.94073 0.0
H143 H 0.34064 0.58304 0.83089 0.0
H144 H 0.47443 0.56594 0.04101 0.0
H145 H 0.42978 0.51556 0.7789 0.0
H146 H 0.37598 0.54644 0.1503 0.0
H147 H 0.38169 0.58668 0.10156 0.0
H148 H 0.4284 0.57167 0.15844 0.0
H149 H 0.32254 0.48675 0.83504 0.0
H150 H 0.35643 0.49449 0.73957 0.0
H151 H 0.32383 0.5245 0.77307 0.0
C152 C 0.7976 0.22349 0.35872 0.0
C153 C 0.80778 0.19288 0.33145 0.0
C154 C 0.82395 0.25303 0.33942 0.0
C155 C 0.86153 0.25202 0.29198 0.0
C156 C 0.87178 0.22125 0.26364 0.0
C157 C 0.84479 0.19216 0.28339 0.0
C158 C 0.81183 0.28531 0.37065 0.0
C159 C 0.91144 0.21903 0.21265 0.0
C160 C 0.91348 0.3273 0.1668 0.0
C161 C 0.94919 0.33918 0.23035 0.0
C162 C 0.88415 0.29946 0.18683 0.0
C163 C 0.89054 0.283 0.2726 0.0
C164 C 0.92588 0.2953 0.33804 0.0
C165 C 0.95474 0.32317 0.31615 0.0
C166 C 0.84678 0.28727 0.11533 0.0
C167 C 0.93392 0.27848 0.43022 0.0
H168 H 0.76939 0.22436 0.39674 0.0
H169 H 0.85256 0.16875 0.26037 0.0
H170 H 0.83783 0.29809 0.42127 0.0
H171 H 0.80863 0.30164 0.30965 0.0
H172 H 0.78094 0.28199 0.40439 0.0
H173 H 0.91485 0.19323 0.19521 0.0
H174 H 0.90988 0.23305 0.14664 0.0
H175 H 0.94092 0.23027 0.25652 0.0
H176 H 0.90847 0.33977 0.101 0.0
H177 H 0.98245 0.33185 0.36529 0.0
H178 H 0.81576 0.28535 0.14805 0.0
H179 H 0.84994 0.26226 0.08998 0.0
H180 H 0.84519 0.30364 0.05391 0.0
H181 H 0.90453 0.27598 0.46898 0.0
H182 H 0.96144 0.29209 0.47559 0.0
H183 H 0.941 0.2533 0.41687 0.0
C184 C 0.58024 0.92483 0.66521 0.0
C185 C 0.60527 0.93974 0.59591 0.0
C186 C 0.58458 0.89318 0.69699 0.0
C187 C 0.61458 0.87561 0.65846 0.0
C188 C 0.64016 0.89042 0.58871 0.0
C189 C 0.63533 0.9224 0.55844 0.0
C190 C 0.55688 0.87854 0.77198 0.0
C191 C 0.67236 0.87236 0.5457 0.0
C192 C 0.64737 0.80533 0.80764 0.0
C193 C 0.61906 0.77813 0.76786 0.0
C194 C 0.64735 0.83699 0.77077 0.0
C195 C 0.61857 0.84168 0.6916 0.0
C196 C 0.59083 0.81424 0.64936 0.0
C197 C 0.59125 0.7829 0.68816 0.0
C198 C 0.67728 0.86559 0.81831 0.0
C199 C 0.55962 0.81814 0.56491 0.0
H200 H 0.5571 0.93796 0.69548 0.0
H201 H 0.65477 0.93366 0.50495 0.0
H202 H 0.53635 0.85553 0.74503 0.0
H203 H 0.57774 0.87202 0.83374 0.0
H204 H 0.5355 0.89563 0.79563 0.0
H205 H 0.69003 0.88731 0.49283 0.0
H206 H 0.69626 0.86551 0.60127 0.0
H207 H 0.65543 0.84919 0.51138 0.0
H208 H 0.66964 0.80191 0.86794 0.0
H209 H 0.5689 0.76224 0.65727 0.0
H210 H 0.65793 0.88285 0.84868 0.0
H211 H 0.69676 0.87943 0.76638 0.0
H212 H 0.69963 0.85758 0.87538 0.0
H213 H 0.53471 0.83276 0.585 0.0
H214 H 0.54303 0.79409 0.53526 0.0
H215 H 0.5769 0.83178 0.50931 0.0
C216 C 0.75106 0.5232 0.8332 0.0
C217 C 0.73288 0.54646 0.88288 0.0
C218 C 0.7957 0.52174 0.84496 0.0
C219 C 0.8228 0.54386 0.90856 0.0
C220 C 0.80471 0.56749 -0.04144 0.0
C221 C 0.76005 0.5686 0.94482 0.0
C222 C 0.81383 0.4964 0.78972 0.0
C223 C 0.83247 0.59135 0.02756 0.0
C224 C 0.93013 0.52058 0.01048 0.0
C225 C 0.95979 0.54007 -0.04155 0.0
C226 C 0.88547 0.52141 -0.00552 0.0
C227 C 0.86998 0.54199 0.92414 0.0
C228 C 0.89965 0.56127 0.87018 0.0
C229 C 0.9442 0.56019 0.88825 0.0
C230 C 0.8549 0.50065 0.05397 0.0
C231 C 0.88436 0.58327 0.79393 0.0
H232 H 0.73042 0.50607 0.78486 0.0
H233 H 0.74637 0.5866 -0.01621 0.0
H234 H 0.83963 0.50867 0.74813 0.0
H235 H 0.82883 0.4795 0.83841 0.0
H236 H 0.78863 0.48158 0.7412 0.0
H237 H 0.81348 0.60837 0.06036 0.0
H238 H 0.84833 0.57761 0.08392 0.0
H239 H 0.85853 0.60613 -0.00825 0.0
H240 H 0.94181 0.50503 0.06509 0.0
H241 H 0.96681 0.5752 0.84728 0.0
H242 H 0.83052 0.48397 0.00854 0.0
H243 H 0.83706 0.51671 0.09351 0.0
H244 H 0.87205 0.48557 0.10483 0.0
H245 H 0.86046 0.56867 0.74239 0.0
H246 H 0.91142 0.59582 0.75607 0.0
H247 H 0.86779 0.60225 0.82476 0.0
C248 C 0.36068 0.87629 0.32972 0.0
C249 C 0.34336 0.89494 0.39543 0.0
C250 C 0.3353 0.84938 0.28138 0.0
C251 C 0.29148 0.84059 0.29948 0.0
C252 C 0.27387 0.85898 0.36653 0.0
C253 C 0.29997 0.88595 0.41355 0.0
C254 C 0.35539 0.83038 0.21067 0.0
C255 C 0.22736 0.85029 0.38816 0.0
C256 C 0.21542 0.78971 0.1132 0.0
C257 C 0.21385 0.75781 0.14876 0.0
C258 C 0.24034 0.81686 0.16168 0.0
C259 C 0.26417 0.81211 0.24816 0.0
C260 C 0.26261 0.78004 0.28467 0.0
C261 C 0.23767 0.75332 0.23447 0.0
C262 C 0.24129 0.85065 0.12019 0.0
C263 C 0.28756 0.77389 0.37654 0.0
H264 H 0.39437 0.88258 0.31646 0.0
H265 H 0.28614 0.90034 0.46341 0.0
H266 H 0.35344 0.80424 0.2311 0.0
H267 H 0.33717 0.83089 0.14067 0.0
H268 H 0.38986 0.84047 0.20433 0.0
H269 H 0.21875 0.86669 0.44322 0.0
H270 H 0.20543 0.85201 0.32366 0.0
H271 H 0.22138 0.8245 0.41204 0.0
H272 H 0.19676 0.79354 0.04777 0.0
H273 H 0.23734 0.72876 0.26191 0.0
H274 H 0.27501 0.86108 0.10817 0.0
H275 H 0.22984 0.86745 0.17013 0.0
H276 H 0.22082 0.85025 0.05258 0.0
H277 H 0.32272 0.7814 0.37148 0.0
H278 H 0.28201 0.74763 0.3966 0.0
H279 H 0.27809 0.78902 0.43347 0.0
C280 C 0.59165 0.294 0.68855 0.0
C281 C 0.57523 0.31578 0.62415 0.0
C282 C 0.59031 0.26063 0.66556 0.0
C283 C 0.57156 0.24843 0.57626 0.0
C284 C 0.55466 0.27011 0.51093 0.0
C285 C 0.55681 0.30354 0.53552 0.0
C286 C 0.60877 0.23838 0.73729 0.0
C287 C 0.53422 0.25797 0.41523 0.0
C288 C 0.60324 0.16729 0.49915 0.0
C289 C 0.56904 0.14449 0.52708 0.0
C290 C 0.60383 0.20128 0.5118 0.0
C291 C 0.56921 0.2128 0.55262 0.0
C292 C 0.53375 0.18999 0.57726 0.0
C293 C 0.53418 0.15613 0.5646 0.0
C294 C 0.6424 0.22474 0.48508 0.0
C295 C 0.49599 0.20127 0.62006 0.0
H296 H 0.60511 0.30294 0.7579 0.0
H297 H 0.54444 0.32017 0.48487 0.0
H298 H 0.58295 0.21865 0.75588 0.0
H299 H 0.63399 0.22627 0.70736 0.0
H300 H 0.62331 0.2519 0.80259 0.0
H301 H 0.52245 0.27791 0.37255 0.0
H302 H 0.55797 0.24709 0.37654 0.0
H303 H 0.50654 0.23826 0.42274 0.0
H304 H 0.63036 0.1586 0.47015 0.0
H305 H 0.50745 0.13875 0.58573 0.0
H306 H 0.66022 0.23704 0.54922 0.0
H307 H 0.63161 0.24426 0.43938 0.0
H308 H 0.66512 0.21208 0.44793 0.0
H309 H 0.50699 0.21258 0.69027 0.0
H310 H 0.46938 0.18071 0.6281 0.0
H311 H 0.48301 0.22037 0.57604 0.0
C312 C 0.08653 0.55428 0.72914 0.0
C313 C 0.08529 0.52204 0.7602 0.0
C314 C 0.09001 0.56134 0.63462 0.0
C315 C 0.09429 0.53563 0.57176 0.0
C316 C 0.09338 0.50297 0.60333 0.0
C317 C 0.08793 0.49641 0.69767 0.0
C318 C 0.08902 0.59618 0.60213 0.0
C319 C 0.09927 0.47527 0.53818 0.0
C320 C 0.06609 0.54643 0.31414 0.0
C321 C 0.10673 0.55822 0.2844 0.0
C322 C 1.06154 0.53924 0.40812 0.0
C323 C 0.09885 0.5429 0.47243 0.0
C324 C 0.14019 0.55418 0.44233 0.0
C325 C 0.14356 0.56235 0.34814 0.0
C326 C 1.01683 0.52826 0.43871 0.0
C327 C 0.1807 0.55731 0.50926 0.0
H328 H 0.0845 0.57388 0.77883 0.0
H329 H 0.08764 0.47161 0.7234 0.0
H330 H 0.12008 0.60599 0.57394 0.0
H331 H 1.063 0.59655 0.54439 0.0
H332 H 0.08344 0.61287 0.65964 0.0
H333 H 0.0992 0.45151 0.57498 0.0
H334 H 0.07308 0.4721 0.48002 0.0
H335 H 0.13036 0.48133 0.5061 0.0
H336 H 1.03765 0.54344 0.26405 0.0
H337 H 0.17493 0.57117 0.32391 0.0
H338 H 1.01013 0.54506 0.49476 0.0
H339 H 1.01492 0.50328 0.46855 0.0
H340 H 0.9911 0.52777 0.37986 0.0
H341 H 0.17925 0.57584 0.56499 0.0
H342 H 0.21049 0.56471 0.47324 0.0
H343 H 0.18307 0.53352 0.54433 0.0
C344 C 0.56242 0.06231 0.21225 0.0
C345 C 0.56212 0.03221 0.25735 0.0
C346 C 0.57477 0.06592 0.12091 0.0
C347 C 0.58509 0.0383 0.07312 0.0
C348 C 0.58473 1.00778 0.11879 0.0
C349 C 0.57411 1.00531 0.21175 0.0
C350 C 0.57653 0.09915 0.07548 0.0
C351 C 0.59416 0.97758 0.06862 0.0
C352 C 0.56863 0.04044 0.80882 0.0
C353 C 0.61135 0.04663 0.78541 0.0
C354 C 0.55967 0.03683 0.90248 0.0
C355 C 0.59435 0.04103 -0.02609 0.0
C356 C 0.63761 0.0481 0.95054 0.0
C357 C 0.64567 0.05011 0.85586 0.0
C358 C 0.51321 1.0282 0.92483 0.0
C359 C 0.67518 0.05396 0.02538 0.0
H360 H 0.55373 0.08315 0.24912 0.0
H361 H 0.57373 0.98211 0.24775 0.0
H362 H 0.6084 0.10629 0.04743 0.0
H363 H 0.5514 0.09793 0.01539 0.0
H364 H 0.57127 0.11867 0.12533 0.0
H365 H 0.5924 0.95574 0.11439 0.0
H366 H 0.57056 0.97178 0.00611 0.0
H367 H 0.62685 0.98225 0.04318 0.0
H368 H 0.54226 0.03759 0.75365 0.0
H369 H 0.6787 0.05512 0.83694 0.0
H370 H 0.50386 0.04839 -0.03345 0.0
H371 H 0.50957 1.00576 -0.03196 0.0
H372 H 0.49037 1.02382 0.86052 0.0
H373 H 0.6707 0.07417 0.07361 0.0
H374 H 0.70671 0.06048 -0.00478 0.0
H375 H 0.67647 0.03164 0.06818 0.0
C376 C 0.54438 0.58353 0.53298 0.0
C377 C 0.56682 0.56331 0.59151 0.0
C378 C 0.54033 0.57866 0.43533 0.0
C379 C 0.55917 0.55302 0.39675 0.0
C380 C 0.5799 0.53156 0.45623 0.0
C381 C 0.58356 0.53705 0.55308 0.0
C382 C 0.51764 0.60171 0.37352 0.0
C383 C 0.59993 0.50366 0.41751 0.0
C384 C 0.53497 0.51945 0.14954 0.0
C385 C 0.57223 0.53359 0.10915 0.0
C386 C 0.52846 0.52751 0.24172 0.0
C387 C 0.56045 0.54972 0.29439 0.0
C388 C 0.59695 0.56544 0.25198 0.0
C389 C 0.60231 0.55726 0.1592 0.0
C390 C 0.48867 0.51085 0.2841 0.0
C391 C 0.63163 0.58938 0.30622 0.0
H392 H 0.53128 0.60376 0.56314 0.0
H393 H 0.60063 0.52127 0.59865 0.0
H394 H 0.5418 0.61778 0.33575 0.0
H395 H 0.49435 0.58767 0.31971 0.0
H396 H 0.50004 0.61757 0.41457 0.0
H397 H 0.6125 0.48809 0.47376 0.0
H398 H 0.57577 0.48783 0.36935 0.0
H399 H 0.62708 0.51375 0.37632 0.0
H400 H 0.51118 0.50168 0.10965 0.0
H401 H 0.63079 0.56849 0.12703 0.0
H402 H 0.47442 0.52868 0.32568 0.0
H403 H 0.49782 0.4915 0.33252 0.0
H404 H 0.46355 0.49918 0.22959 0.0
H405 H 0.65544 0.60199 0.26026 0.0
H406 H 0.64923 0.57602 0.36079 0.0
H407 H 0.61693 0.60825 0.34263 0.0
loop_
_geom_bond_atom_site_label_1
_geom_bond_atom_site_label_2
_geom_bond_distance
_geom_bond_site_symmetry_2
_ccdc_geom_bond_type
Pr0 C2 2.880 1_455 S
Pr0 O20 2.562 1_455 S
Pr0 O21 2.490 1_455 S
Pr0 O22 2.695 . S
Pr0 O23 2.512 1_554 S
Pr0 O25 2.437 1_455 S
Pr0 O28 2.436 . S
Pr0 O30 2.438 . S
Pr1 C11 2.880 . S
Pr1 O22 2.436 . S
Pr1 O24 2.438 1_455 S
Pr1 O26 2.562 . S
Pr1 O27 2.490 . S
Pr1 O28 2.695 . S
Pr1 O29 2.512 . S
Pr1 O31 2.437 . S
C2 Pr0 2.880 1_655 S
C2 C3 1.491 . S
C2 O20 1.254 . S
C2 O21 1.225 . S
C3 C2 1.491 . S
C3 C4 1.392 . S
C3 C8 1.356 . S
C4 C3 1.392 . S
C4 C5 1.368 . S
C4 H32 0.929 1_554 S
C5 C4 1.368 . S
C5 C6 1.386 . S
C5 H33 0.929 . S
C6 C5 1.386 . S
C6 C7 1.373 . S
C7 C6 1.373 . S
C7 C8 1.409 . S
C7 H34 0.931 . S
C8 C3 1.356 . S
C8 C7 1.409 . S
C8 H35 0.930 . S
C9 O22 1.270 1_556 S
C9 O23 1.248 . S
C10 O24 1.267 . S
C10 O25 1.278 . S
C11 Pr1 2.880 . S
C11 C12 1.491 . S
C11 O26 1.254 . S
C11 O27 1.225 . S
C12 C11 1.491 . S
C12 C13 1.392 . S
C12 C17 1.356 . S
C13 C12 1.392 . S
C13 C14 1.368 . S
C13 H36 0.929 . S
C14 C13 1.368 . S
C14 C15 1.386 . S
C14 H37 0.929 . S
C15 C14 1.386 . S
C15 C16 1.373 . S
C16 C15 1.373 . S
C16 C17 1.409 . S
C16 H38 0.931 1_554 S
C17 C12 1.356 . S
C17 C16 1.409 . S
C17 H39 0.930 1_554 S
C18 O28 1.270 . S
C18 O29 1.248 . S
C19 O30 1.267 . S
C19 O31 1.278 . S
O20 Pr0 2.562 1_655 S
O20 C2 1.254 . S
O21 Pr0 2.490 1_655 S
O21 C2 1.225 . S
O22 Pr0 2.695 . S
O22 Pr1 2.436 . S
O22 C9 1.270 1_554 S
O23 Pr0 2.512 1_556 S
O23 C9 1.248 . S
O24 Pr1 2.438 1_655 S
O24 C10 1.267 . S
O25 Pr0 2.437 1_655 S
O25 C10 1.278 . S
O26 Pr1 2.562 . S
O26 C11 1.254 . S
O27 Pr1 2.490 . S
O27 C11 1.225 . S
O28 Pr0 2.436 . S
O28 Pr1 2.695 . S
O28 C18 1.270 . S
O29 Pr1 2.512 . S
O29 C18 1.248 . S
O30 Pr0 2.438 . S
O30 C19 1.267 . S
O31 Pr1 2.437 . S
O31 C19 1.278 . S
H32 C4 0.929 1_556 S
H33 C5 0.929 . S
H34 C7 0.931 . S
H35 C8 0.930 . S
H36 C13 0.929 . S
H37 C14 0.929 . S
H38 C16 0.931 1_556 S
H39 C17 0.930 1_556 S
Pr40 C42 2.880 . S
Pr40 O60 2.562 . S
Pr40 O61 2.490 . S
Pr40 O62 2.695 . S
Pr40 O63 2.512 . S
Pr40 O65 2.437 . S
Pr40 O68 2.436 . S
Pr40 O70 2.438 1_545 S
Pr41 C51 2.864 1_545 S
Pr41 O62 2.435 . S
Pr41 O64 2.459 . S
Pr41 O66 2.547 1_545 S
Pr41 O67 2.476 1_545 S
Pr41 O68 2.700 . S
Pr41 O69 2.512 . S
Pr41 O71 2.419 1_545 S
C42 Pr40 2.880 . S
C42 C43 1.491 . S
C42 O60 1.254 . S
C42 O61 1.225 . S
C43 C42 1.491 . S
C43 C44 1.392 . S
C43 C48 1.356 . S
C44 C43 1.392 . S
C44 C45 1.368 . S
C44 H72 0.929 . S
C45 C44 1.368 . S
C45 C46 1.386 . S
C45 H73 0.929 . S
C46 C45 1.386 . S
C46 C47 1.373 . S
C47 C46 1.373 . S
C47 C48 1.409 . S
C47 H74 0.931 . S
C48 C43 1.356 . S
C48 C47 1.409 . S
C48 H75 0.930 . S
C49 O62 1.270 . S
C49 O63 1.248 . S
C50 O64 1.267 . S
C50 O65 1.278 . S
C51 Pr41 2.864 1_565 S
C51 C52 1.491 . S
C51 O66 1.254 . S
C51 O67 1.225 . S
C52 C51 1.491 . S
C52 C53 1.392 . S
C52 C57 1.356 . S
C53 C52 1.392 . S
C53 C54 1.368 . S
C53 H76 0.929 . S
C54 C53 1.368 . S
C54 C55 1.386 . S
C54 H77 0.929 . S
C55 C54 1.386 . S
C55 C56 1.373 . S
C56 C55 1.373 . S
C56 C57 1.409 . S
C56 H78 0.931 . S
C57 C52 1.356 . S
C57 C56 1.409 . S
C57 H79 0.930 . S
C58 O68 1.270 . S
C58 O69 1.255 . S
C59 O70 1.267 . S
C59 O71 1.278 . S
O60 Pr40 2.562 . S
O60 C42 1.254 . S
O61 Pr40 2.490 . S
O61 C42 1.225 . S
O62 Pr40 2.695 . S
O62 Pr41 2.435 . S
O62 C49 1.270 . S
O63 Pr40 2.512 . S
O63 C49 1.248 . S
O64 Pr41 2.459 . S
O64 C50 1.267 . S
O65 Pr40 2.437 . S
O65 C50 1.278 . S
O66 Pr41 2.547 1_565 S
O66 C51 1.254 . S
O67 Pr41 2.476 1_565 S
O67 C51 1.225 . S
O68 Pr40 2.436 . S
O68 Pr41 2.700 . S
O68 C58 1.270 . S
O69 Pr41 2.512 . S
O69 C58 1.255 . S
O70 Pr40 2.438 1_565 S
O70 C59 1.267 . S
O71 Pr41 2.419 1_565 S
O71 C59 1.278 . S
H72 C44 0.929 . S
H73 C45 0.929 . S
H74 C47 0.931 . S
H75 C48 0.930 . S
H76 C53 0.929 . S
H77 C54 0.929 . S
H78 C56 0.931 . S
H79 C57 0.930 . S
Pr80 C82 2.880 . S
Pr80 O100 2.562 . S
Pr80 O101 2.490 . S
Pr80 O102 2.695 . S
Pr80 O103 2.512 1_556 S
Pr80 O105 2.437 . S
Pr80 O108 2.436 . S
Pr80 O110 2.438 . S
Pr81 C91 2.880 . S
Pr81 O102 2.436 . S
Pr81 O104 2.438 . S
Pr81 O106 2.562 . S
Pr81 O107 2.490 . S
Pr81 O108 2.695 . S
Pr81 O109 2.512 . S
Pr81 O111 2.437 . S
C82 Pr80 2.880 . S
C82 C83 1.491 . S
C82 O100 1.254 . S
C82 O101 1.225 . S
C83 C82 1.491 . S
C83 C84 1.392 . S
C83 C88 1.356 . S
C84 C83 1.392 . S
C84 C85 1.368 . S
C84 H112 0.929 . S
C85 C84 1.368 . S
C85 C86 1.386 . S
C85 H113 0.929 . S
C86 C85 1.386 . S
C86 C87 1.373 . S
C87 C86 1.373 . S
C87 C88 1.409 . S
C87 H114 0.931 . S
C88 C83 1.356 . S
C88 C87 1.409 . S
C88 H115 0.930 . S
C89 O102 1.270 1_554 S
C89 O103 1.248 . S
C90 O104 1.267 . S
C90 O105 1.278 . S
C91 Pr81 2.880 . S
C91 C92 1.491 . S
C91 O106 1.254 . S
C91 O107 1.225 . S
C92 C91 1.491 . S
C92 C93 1.392 . S
C92 C97 1.356 . S
C93 C92 1.392 . S
C93 C94 1.368 . S
C93 H116 0.929 . S
C94 C93 1.368 . S
C94 C95 1.386 . S
C94 H117 0.929 . S
C95 C94 1.386 . S
C95 C96 1.373 . S
C96 C95 1.373 . S
C96 C97 1.409 . S
C96 H118 0.931 1_556 S
C97 C92 1.356 . S
C97 C96 1.409 . S
C97 H119 0.930 . S
C98 O108 1.270 . S
C98 O109 1.248 . S
C99 O110 1.267 . S
C99 O111 1.278 . S
O100 Pr80 2.562 . S
O100 C82 1.254 . S
O101 Pr80 2.490 . S
O101 C82 1.225 . S
O102 Pr80 2.695 . S
O102 Pr81 2.436 . S
O102 C89 1.270 1_556 S
O103 Pr80 2.512 1_554 S
O103 C89 1.248 . S
O104 Pr81 2.438 . S
O104 C90 1.267 . S
O105 Pr80 2.437 . S
O105 C90 1.278 . S
O106 Pr81 2.562 . S
O106 C91 1.254 . S
O107 Pr81 2.490 . S
O107 C91 1.225 . S
O108 Pr80 2.436 . S
O108 Pr81 2.695 . S
O108 C98 1.270 . S
O109 Pr81 2.512 . S
O109 C98 1.248 . S
O110 Pr80 2.438 . S
O110 C99 1.267 . S
O111 Pr81 2.437 . S
O111 C99 1.278 . S
H112 C84 0.929 . S
H113 C85 0.929 . S
H114 C87 0.931 . S
H115 C88 0.930 . S
H116 C93 0.929 . S
H117 C94 0.929 . S
H118 C96 0.931 1_554 S
H119 C97 0.930 . S
C120 C121 1.391 . S
C120 C122 1.394 . S
C120 H136 0.931 . S
C121 C120 1.391 . S
C121 C125 1.376 1_554 S
C122 C120 1.394 . S
C122 C123 1.369 . S
C122 C126 1.531 . S
C123 C122 1.369 . S
C123 C124 1.410 1_554 S
C123 C131 1.503 1_554 S
C124 C123 1.410 1_556 S
C124 C125 1.392 . S
C124 C127 1.511 . S
C125 C121 1.376 1_556 S
C125 C124 1.392 . S
C125 H137 0.929 . S
C126 C122 1.531 . S
C126 H138 0.960 . S
C126 H139 0.962 . S
C126 H140 0.960 . S
C127 C124 1.511 . S
C127 H141 0.961 . S
C127 H142 0.961 . S
C127 H143 0.961 . S
C128 C129 1.370 . S
C128 C130 1.363 . S
C128 H144 0.931 . S
C129 C128 1.370 . S
C129 C133 1.408 . S
C130 C128 1.363 . S
C130 C131 1.370 . S
C130 C134 1.524 1_556 S
C131 C123 1.503 1_556 S
C131 C130 1.370 . S
C131 C132 1.403 . S
C132 C131 1.403 . S
C132 C133 1.404 . S
C132 C135 1.539 . S
C133 C129 1.408 . S
C133 C132 1.404 . S
C133 H145 0.930 . S
C134 C130 1.524 1_554 S
C134 H146 0.956 . S
C134 H147 0.961 1_554 S
C134 H148 0.961 . S
C135 C132 1.539 . S
C135 H149 0.958 . S
C135 H150 0.961 . S
C135 H151 0.960 . S
H136 C120 0.931 . S
H137 C125 0.929 . S
H138 C126 0.960 . S
H139 C126 0.962 . S
H140 C126 0.960 . S
H141 C127 0.961 . S
H142 C127 0.961 . S
H143 C127 0.961 . S
H144 C128 0.931 . S
H145 C133 0.930 . S
H146 C134 0.956 . S
H147 C134 0.961 1_556 S
H148 C134 0.961 . S
H149 C135 0.958 . S
H150 C135 0.961 . S
H151 C135 0.960 . S
C152 C153 1.391 . S
C152 C154 1.394 . S
C152 H168 0.931 . S
C153 C152 1.391 . S
C153 C157 1.376 . S
C154 C152 1.394 . S
C154 C155 1.369 . S
C154 C158 1.531 . S
C155 C154 1.369 . S
C155 C156 1.410 . S
C155 C163 1.503 . S
C156 C155 1.410 . S
C156 C157 1.392 . S
C156 C159 1.511 . S
C157 C153 1.376 . S
C157 C156 1.392 . S
C157 H169 0.929 . S
C158 C154 1.531 . S
C158 H170 0.960 . S
C158 H171 0.962 . S
C158 H172 0.960 . S
C159 C156 1.511 . S
C159 H173 0.961 . S
C159 H174 0.961 . S
C159 H175 0.961 . S
C160 C161 1.370 . S
C160 C162 1.363 . S
C160 H176 0.931 . S
C161 C160 1.370 . S
C161 C165 1.408 . S
C162 C160 1.363 . S
C162 C163 1.370 . S
C162 C166 1.524 . S
C163 C155 1.503 . S
C163 C162 1.370 . S
C163 C164 1.403 . S
C164 C163 1.403 . S
C164 C165 1.404 . S
C164 C167 1.539 . S
C165 C161 1.408 . S
C165 C164 1.404 . S
C165 H177 0.930 . S
C166 C162 1.524 . S
C166 H178 0.956 . S
C166 H179 0.961 . S
C166 H180 0.961 . S
C167 C164 1.539 . S
C167 H181 0.958 . S
C167 H182 0.961 . S
C167 H183 0.960 . S
H168 C152 0.931 . S
H169 C157 0.929 . S
H170 C158 0.960 . S
H171 C158 0.962 . S
H172 C158 0.960 . S
H173 C159 0.961 . S
H174 C159 0.961 . S
H175 C159 0.961 . S
H176 C160 0.931 . S
H177 C165 0.930 . S
H178 C166 0.956 . S
H179 C166 0.961 . S
H180 C166 0.961 . S
H181 C167 0.958 . S
H182 C167 0.961 . S
H183 C167 0.960 . S
C184 C185 1.391 . S
C184 C186 1.394 . S
C184 H200 0.931 . S
C185 C184 1.391 . S
C185 C189 1.376 . S
C186 C184 1.394 . S
C186 C187 1.369 . S
C186 C190 1.531 . S
C187 C186 1.369 . S
C187 C188 1.410 . S
C187 C195 1.503 . S
C188 C187 1.410 . S
C188 C189 1.392 . S
C188 C191 1.511 . S
C189 C185 1.376 . S
C189 C188 1.392 . S
C189 H201 0.929 . S
C190 C186 1.531 . S
C190 H202 0.960 . S
C190 H203 0.962 . S
C190 H204 0.960 . S
C191 C188 1.511 . S
C191 H205 0.961 . S
C191 H206 0.961 . S
C191 H207 0.961 . S
C192 C193 1.370 . S
C192 C194 1.363 . S
C192 H208 0.931 . S
C193 C192 1.370 . S
C193 C197 1.408 . S
C194 C192 1.363 . S
C194 C195 1.370 . S
C194 C198 1.524 . S
C195 C187 1.503 . S
C195 C194 1.370 . S
C195 C196 1.403 . S
C196 C195 1.403 . S
C196 C197 1.404 . S
C196 C199 1.539 . S
C197 C193 1.408 . S
C197 C196 1.404 . S
C197 H209 0.930 . S
C198 C194 1.524 . S
C198 H210 0.956 . S
C198 H211 0.961 . S
C198 H212 0.961 . S
C199 C196 1.539 . S
C199 H213 0.958 . S
C199 H214 0.961 . S
C199 H215 0.960 . S
H200 C184 0.931 . S
H201 C189 0.929 . S
H202 C190 0.960 . S
H203 C190 0.962 . S
H204 C190 0.960 . S
H205 C191 0.961 . S
H206 C191 0.961 . S
H207 C191 0.961 . S
H208 C192 0.931 . S
H209 C197 0.930 . S
H210 C198 0.956 . S
H211 C198 0.961 . S
H212 C198 0.961 . S
H213 C199 0.958 . S
H214 C199 0.961 . S
H215 C199 0.960 . S
C216 C217 1.391 . S
C216 C218 1.394 . S
C216 H232 0.931 . S
C217 C216 1.391 . S
C217 C221 1.376 . S
C218 C216 1.394 . S
C218 C219 1.369 . S
C218 C222 1.531 . S
C219 C218 1.369 . S
C219 C220 1.410 . S
C219 C227 1.503 . S
C220 C219 1.410 . S
C220 C221 1.392 . S
C220 C223 1.511 1_556 S
C221 C217 1.376 . S
C221 C220 1.392 . S
C221 H233 0.929 . S
C222 C218 1.531 . S
C222 H234 0.960 . S
C222 H235 0.962 . S
C222 H236 0.960 . S
C223 C220 1.511 1_554 S
C223 H237 0.961 . S
C223 H238 0.961 . S
C223 H239 0.961 1_554 S
C224 C225 1.370 . S
C224 C226 1.363 . S
C224 H240 0.931 . S
C225 C224 1.370 . S
C225 C229 1.408 1_554 S
C226 C224 1.363 . S
C226 C227 1.370 1_554 S
C226 C230 1.524 . S
C227 C219 1.503 . S
C227 C226 1.370 1_556 S
C227 C228 1.403 . S
C228 C227 1.403 . S
C228 C229 1.404 . S
C228 C231 1.539 . S
C229 C225 1.408 1_556 S
C229 C228 1.404 . S
C229 H241 0.930 . S
C230 C226 1.524 . S
C230 H242 0.956 . S
C230 H243 0.961 . S
C230 H244 0.961 . S
C231 C228 1.539 . S
C231 H245 0.958 . S
C231 H246 0.961 . S
C231 H247 0.960 . S
H232 C216 0.931 . S
H233 C221 0.929 . S
H234 C222 0.960 . S
H235 C222 0.962 . S
H236 C222 0.960 . S
H237 C223 0.961 . S
H238 C223 0.961 . S
H239 C223 0.961 1_556 S
H240 C224 0.931 . S
H241 C229 0.930 . S
H242 C230 0.956 . S
H243 C230 0.961 . S
H244 C230 0.961 . S
H245 C231 0.958 . S
H246 C231 0.961 . S
H247 C231 0.960 . S
C248 C249 1.391 . S
C248 C250 1.394 . S
C248 H264 0.931 . S
C249 C248 1.391 . S
C249 C253 1.376 . S
C250 C248 1.394 . S
C250 C251 1.369 . S
C250 C254 1.531 . S
C251 C250 1.369 . S
C251 C252 1.410 . S
C251 C259 1.503 . S
C252 C251 1.410 . S
C252 C253 1.392 . S
C252 C255 1.511 . S
C253 C249 1.376 . S
C253 C252 1.392 . S
C253 H265 0.929 . S
C254 C250 1.531 . S
C254 H266 0.960 . S
C254 H267 0.962 . S
C254 H268 0.960 . S
C255 C252 1.511 . S
C255 H269 0.961 . S
C255 H270 0.961 . S
C255 H271 0.961 . S
C256 C257 1.370 . S
C256 C258 1.363 . S
C256 H272 0.931 . S
C257 C256 1.370 . S
C257 C261 1.408 . S
C258 C256 1.363 . S
C258 C259 1.370 . S
C258 C262 1.524 . S
C259 C251 1.503 . S
C259 C258 1.370 . S
C259 C260 1.403 . S
C260 C259 1.403 . S
C260 C261 1.404 . S
C260 C263 1.539 . S
C261 C257 1.408 . S
C261 C260 1.404 . S
C261 H273 0.930 . S
C262 C258 1.524 . S
C262 H274 0.956 . S
C262 H275 0.961 . S
C262 H276 0.961 . S
C263 C260 1.539 . S
C263 H277 0.958 . S
C263 H278 0.961 . S
C263 H279 0.960 . S
H264 C248 0.931 . S
H265 C253 0.929 . S
H266 C254 0.960 . S
H267 C254 0.962 . S
H268 C254 0.960 . S
H269 C255 0.961 . S
H270 C255 0.961 . S
H271 C255 0.961 . S
H272 C256 0.931 . S
H273 C261 0.930 . S
H274 C262 0.956 . S
H275 C262 0.961 . S
H276 C262 0.961 . S
H277 C263 0.958 . S
H278 C263 0.961 . S
H279 C263 0.960 . S
C280 C281 1.391 . S
C280 C282 1.394 . S
C280 H296 0.931 . S
C281 C280 1.391 . S
C281 C285 1.376 . S
C282 C280 1.394 . S
C282 C283 1.369 . S
C282 C286 1.531 . S
C283 C282 1.369 . S
C283 C284 1.410 . S
C283 C291 1.503 . S
C284 C283 1.410 . S
C284 C285 1.392 . S
C284 C287 1.511 . S
C285 C281 1.376 . S
C285 C284 1.392 . S
C285 H297 0.929 . S
C286 C282 1.531 . S
C286 H298 0.960 . S
C286 H299 0.962 . S
C286 H300 0.960 . S
C287 C284 1.511 . S
C287 H301 0.961 . S
C287 H302 0.961 . S
C287 H303 0.961 . S
C288 C289 1.370 . S
C288 C290 1.363 . S
C288 H304 0.931 . S
C289 C288 1.370 . S
C289 C293 1.408 . S
C290 C288 1.363 . S
C290 C291 1.370 . S
C290 C294 1.524 . S
C291 C283 1.503 . S
C291 C290 1.370 . S
C291 C292 1.403 . S
C292 C291 1.403 . S
C292 C293 1.404 . S
C292 C295 1.539 . S
C293 C289 1.408 . S
C293 C292 1.404 . S
C293 H305 0.930 . S
C294 C290 1.524 . S
C294 H306 0.956 . S
C294 H307 0.961 . S
C294 H308 0.961 . S
C295 C292 1.539 . S
C295 H309 0.958 . S
C295 H310 0.961 . S
C295 H311 0.960 . S
H296 C280 0.931 . S
H297 C285 0.929 . S
H298 C286 0.960 . S
H299 C286 0.962 . S
H300 C286 0.960 . S
H301 C287 0.961 . S
H302 C287 0.961 . S
H303 C287 0.961 . S
H304 C288 0.931 . S
H305 C293 0.930 . S
H306 C294 0.956 . S
H307 C294 0.961 . S
H308 C294 0.961 . S
H309 C295 0.958 . S
H310 C295 0.961 . S
H311 C295 0.960 . S
C312 C313 1.391 . S
C312 C314 1.394 . S
C312 H328 0.931 . S
C313 C312 1.391 . S
C313 C317 1.376 . S
C314 C312 1.394 . S
C314 C315 1.369 . S
C314 C318 1.531 . S
C315 C314 1.369 . S
C315 C316 1.410 . S
C315 C323 1.503 . S
C316 C315 1.410 . S
C316 C317 1.392 . S
C316 C319 1.511 . S
C317 C313 1.376 . S
C317 C316 1.392 . S
C317 H329 0.929 . S
C318 C314 1.531 . S
C318 H330 0.960 . S
C318 H331 0.962 . S
C318 H332 0.960 . S
C319 C316 1.511 . S
C319 H333 0.961 . S
C319 H334 0.961 . S
C319 H335 0.961 . S
C320 C321 1.370 1_655 S
C320 C322 1.363 . S
C320 H336 0.931 . S
C321 C320 1.370 1_455 S
C321 C325 1.408 . S
C322 C320 1.363 . S
C322 C323 1.370 1_655 S
C322 C326 1.524 . S
C323 C315 1.503 . S
C323 C322 1.370 1_455 S
C323 C324 1.403 . S
C324 C323 1.403 . S
C324 C325 1.404 . S
C324 C327 1.539 . S
C325 C321 1.408 . S
C325 C324 1.404 . S
C325 H337 0.930 . S
C326 C322 1.524 . S
C326 H338 0.956 . S
C326 H339 0.961 . S
C326 H340 0.961 . S
C327 C324 1.539 . S
C327 H341 0.958 . S
C327 H342 0.961 . S
C327 H343 0.960 . S
H328 C312 0.931 . S
H329 C317 0.929 . S
H330 C318 0.960 . S
H331 C318 0.962 . S
H332 C318 0.960 . S
H333 C319 0.961 . S
H334 C319 0.961 . S
H335 C319 0.961 . S
H336 C320 0.931 . S
H337 C325 0.930 . S
H338 C326 0.956 . S
H339 C326 0.961 . S
H340 C326 0.961 . S
H341 C327 0.958 . S
H342 C327 0.961 . S
H343 C327 0.960 . S
C344 C345 1.391 . S
C344 C346 1.394 . S
C344 H360 0.931 . S
C345 C344 1.391 . S
C345 C349 1.376 . S
C346 C344 1.394 . S
C346 C347 1.369 . S
C346 C350 1.531 . S
C347 C346 1.369 . S
C347 C348 1.410 . S
C347 C355 1.503 1_554 S
C348 C347 1.410 . S
C348 C349 1.392 . S
C348 C351 1.511 1_545 S
C349 C345 1.376 . S
C349 C348 1.392 . S
C349 H361 0.929 1_545 S
C350 C346 1.531 . S
C350 H362 0.960 . S
C350 H363 0.962 . S
C350 H364 0.960 . S
C351 C348 1.511 1_565 S
C351 H365 0.961 . S
C351 H366 0.961 . S
C351 H367 0.961 . S
C352 C353 1.370 1_565 S
C352 C354 1.363 . S
C352 H368 0.931 . S
C353 C352 1.370 1_545 S
C353 C357 1.408 . S
C354 C352 1.363 . S
C354 C355 1.370 1_565 S
C354 C358 1.524 . S
C355 C347 1.503 1_556 S
C355 C354 1.370 1_545 S
C355 C356 1.403 . S
C356 C355 1.403 . S
C356 C357 1.404 . S
C356 C359 1.539 . S
C357 C353 1.408 . S
C357 C356 1.404 . S
C357 H369 0.930 . S
C358 C354 1.524 . S
C358 H370 0.956 1_556 S
C358 H371 0.961 1_556 S
C358 H372 0.961 . S
C359 C356 1.539 . S
C359 H373 0.958 . S
C359 H374 0.961 . S
C359 H375 0.960 1_556 S
H360 C344 0.931 . S
H361 C349 0.929 1_565 S
H362 C350 0.960 . S
H363 C350 0.962 . S
H364 C350 0.960 . S
H365 C351 0.961 . S
H366 C351 0.961 . S
H367 C351 0.961 . S
H368 C352 0.931 . S
H369 C357 0.930 . S
H370 C358 0.956 1_554 S
H371 C358 0.961 1_554 S
H372 C358 0.961 . S
H373 C359 0.958 . S
H374 C359 0.961 . S
H375 C359 0.960 1_554 S
C376 C377 1.391 . S
C376 C378 1.394 . S
C376 H392 0.931 . S
C377 C376 1.391 . S
C377 C381 1.376 . S
C378 C376 1.394 . S
C378 C379 1.369 . S
C378 C382 1.531 . S
C379 C378 1.369 . S
C379 C380 1.410 . S
C379 C387 1.503 . S
C380 C379 1.410 . S
C380 C381 1.392 . S
C380 C383 1.511 . S
C381 C377 1.376 . S
C381 C380 1.392 . S
C381 H393 0.929 . S
C382 C378 1.531 . S
C382 H394 0.960 . S
C382 H395 0.962 . S
C382 H396 0.960 . S
C383 C380 1.511 . S
C383 H397 0.961 . S
C383 H398 0.961 . S
C383 H399 0.961 . S
C384 C385 1.370 . S
C384 C386 1.363 . S
C384 H400 0.931 . S
C385 C384 1.370 . S
C385 C389 1.408 . S
C386 C384 1.363 . S
C386 C387 1.370 . S
C386 C390 1.524 . S
C387 C379 1.503 . S
C387 C386 1.370 . S
C387 C388 1.403 . S
C388 C387 1.403 . S
C388 C389 1.404 . S
C388 C391 1.539 . S
C389 C385 1.408 . S
C389 C388 1.404 . S
C389 H401 0.930 . S
C390 C386 1.524 . S
C390 H402 0.956 . S
C390 H403 0.961 . S
C390 H404 0.961 . S
C391 C388 1.539 . S
C391 H405 0.958 . S
C391 H406 0.961 . S
C391 H407 0.960 . S
H392 C376 0.931 . S
H393 C381 0.929 . S
H394 C382 0.960 . S
H395 C382 0.962 . S
H396 C382 0.960 . S
H397 C383 0.961 . S
H398 C383 0.961 . S
H399 C383 0.961 . S
H400 C384 0.931 . S
H401 C389 0.930 . S
H402 C390 0.956 . S
H403 C390 0.961 . S
H404 C390 0.961 . S
H405 C391 0.958 . S
H406 C391 0.961 . S
H407 C391 0.960 . S
C121 C19 2.990 . S
C129 C99 2.947 . S
C153 C46 1.585 . S
C161 C6 1.545 . S
C185 C59 2.568 . S
C193 C95 2.426 . S
C217 C90 2.659 . S
C225 C10 2.689 . S
C249 C55 1.554 . S
C257 C15 1.515 . S
C281 C86 2.185 . S
C289 C50 2.205 . S
C313 C9 0.553 . S
C321 C18 0.542 . S
C345 C58 0.610 . S
C353 C49 0.504 . S
C377 C98 0.471 . S
C385 C89 0.592 . S
