# Generated by pormake.
# Topology uni, (4)-cn, num edge types: 1
# Building blocks:
#     Node 0, Type 0, BuildingBlock: ICAMEG_clean_sbu_1, # of connection points: 4
#     Node 1, Type 0, BuildingBlock: ICAMEG_clean_sbu_1, # of connection points: 4
#     Node 2, Type 0, BuildingBlock: ICAMEG_clean_sbu_1, # of connection points: 4
#     Node 3, Type 0, BuildingBlock: ICAMEG_clean_sbu_1, # of connection points: 4
#     Node 4, Type 0, BuildingBlock: ICAMEG_clean_sbu_1, # of connection points: 4
#     Node 5, Type 0, BuildingBlock: ICAMEG_clean_sbu_1, # of connection points: 4
#     Edge 6, Type (0, 0), BuildingBlock: FUNLAD_clean_linker_1, # of connection points: 2
#     Edge 7, Type (0, 0), BuildingBlock: FUNLAD_clean_linker_1, # of connection points: 2
#     Edge 8, Type (0, 0), BuildingBlock: FUNLAD_clean_linker_1, # of connection points: 2
#     Edge 9, Type (0, 0), BuildingBlock: FUNLAD_clean_linker_1, # of connection points: 2
#     Edge 10, Type (0, 0), BuildingBlock: FUNLAD_clean_linker_1, # of connection points: 2
#     Edge 11, Type (0, 0), BuildingBlock: FUNLAD_clean_linker_1, # of connection points: 2
#     Edge 12, Type (0, 0), BuildingBlock: FUNLAD_clean_linker_1, # of connection points: 2
#     Edge 13, Type (0, 0), BuildingBlock: FUNLAD_clean_linker_1, # of connection points: 2
#     Edge 14, Type (0, 0), BuildingBlock: FUNLAD_clean_linker_1, # of connection points: 2
#     Edge 15, Type (0, 0), BuildingBlock: FUNLAD_clean_linker_1, # of connection points: 2
#     Edge 16, Type (0, 0), BuildingBlock: FUNLAD_clean_linker_1, # of connection points: 2
#     Edge 17, Type (0, 0), BuildingBlock: FUNLAD_clean_linker_1, # of connection points: 2
# Relax obj value: 0.140
# Max RMSD: 0.183
# Mean RMSD: 0.183
data_MOF--net-uni--node1-ICAMEG_clean_sbu_1--edge1-FUNLAD_clean_linker_1
_symmetry_space_group_name_H-M    P1
_symmetry_Int_Tables_number       1
_symmetry_cell_setting            triclinic
loop_
_symmetry_equiv_pos_as_xyz
'x, y, z'
_cell_length_a     41.466428
_cell_length_b     41.818748
_cell_length_c     25.455111
_cell_angle_alpha  89.906108
_cell_angle_beta   90.09644
_cell_angle_gamma 119.93755
loop_
_atom_site_label
_atom_site_type_symbol
_atom_site_fract_x
_atom_site_fract_y
_atom_site_fract_z
_atom_type_partial_charge
Co0 Co 0.66342 0.03387 0.04474 0.0
Co1 Co 0.72397 0.09607 0.13536 0.0
O2 O 0.70339 0.08302 0.0643 0.0
C3 C 0.61008 0.05023 0.98951 0.0
O4 O 0.58406 0.02664 0.02122 0.0
C5 C 0.78995 0.12057 0.06646 0.0
O6 O 0.77198 0.08863 0.04249 0.0
O7 O 0.73208 0.05291 0.13768 0.0
O8 O 0.68321 0.00947 0.09248 0.0
H9 H 0.73797 0.07114 0.32476 0.0
H10 H 0.70909 0.08657 0.96109 0.0
O11 O 0.64371 0.05785 0.9954 0.0
H12 H 0.72588 0.97872 0.93807 0.0
H13 H 0.57674 0.93583 0.91779 0.0
H14 H 0.61328 0.96575 0.10356 0.0
H15 H 0.6852 0.97941 1.00794 0.0
H16 H 0.62774 0.99745 0.94287 0.0
O17 O 0.77512 0.12771 0.10515 0.0
H18 H 0.71188 0.05503 0.23522 0.0
H19 H 0.78159 0.16582 0.1856 0.0
H20 H 0.56246 0.90362 0.08015 0.0
H21 H 0.74952 0.08674 0.89005 0.0
H22 H 0.54379 0.88837 0.98669 0.0
H23 H 0.75827 0.0326 0.87832 0.0
O24 O 0.63176 0.03511 0.10308 0.0
H25 H 0.73073 0.20887 0.05404 0.0
H26 H 0.68954 0.12643 0.20825 0.0
H27 H 0.67834 0.17901 0.20545 0.0
H28 H 0.69923 0.22083 0.12806 0.0
H29 H 0.74066 0.15547 0.05797 0.0
H30 H 0.80868 0.18305 0.27443 0.0
H31 H 0.78674 0.13556 0.3448 0.0
O32 O 0.67334 0.06545 0.16722 0.0
C33 C 0.71146 0.0197 0.12236 0.0
C34 C 0.74769 0.0921 0.29446 0.0
C35 C 0.78742 0.15489 0.2662 0.0
N36 N 0.74503 0.10949 0.20535 0.0
C37 C 0.73296 0.08315 0.24374 0.0
C38 C 0.77205 0.14495 0.21593 0.0
C39 C 0.77508 0.12824 0.30567 0.0
C40 C 0.71239 0.06271 0.95589 0.0
N41 N 0.6947 0.03298 0.98866 0.0
C42 C 0.73548 0.06305 0.91574 0.0
C43 C 0.74044 0.0327 0.90925 0.0
C44 C 0.72232 1.00249 0.94279 0.0
C45 C 0.69946 1.00312 0.98251 0.0
C46 C 0.58462 0.94213 0.95865 0.0
C47 C 0.60541 0.95928 0.06279 0.0
C48 C 0.61344 0.97699 0.9731 0.0
N49 N 0.62344 0.98523 0.02468 0.0
C50 C 0.57658 0.92407 0.04977 0.0
C51 C 0.56614 0.91552 0.99733 0.0
C52 C 0.63995 0.04605 0.15059 0.0
C53 C 0.72155 0.19088 0.088 0.0
C54 C 0.69839 0.14426 0.17421 0.0
C55 C 0.69212 0.17411 0.17296 0.0
C56 C 0.70385 0.19756 0.12954 0.0
N57 N 0.71583 0.13791 0.13336 0.0
C58 C 0.72722 0.16067 0.09053 0.0
Co59 Co 0.68745 0.65278 0.20212 0.0
Co60 Co 0.68674 0.71908 0.28131 0.0
O61 O 0.67903 0.6944 0.21313 0.0
C62 C 0.61034 0.62099 0.15794 0.0
O63 O 0.59877 0.62702 0.20281 0.0
C64 C 0.72588 0.78125 0.20488 0.0
O65 O 0.73904 0.76264 0.18034 0.0
O66 O 0.73832 0.72715 0.28584 0.0
O67 O 0.73165 0.675 0.2504 0.0
H68 H 0.72699 0.74414 0.47024 0.0
H69 H 0.68154 0.69297 0.10997 0.0
O70 O 0.64427 0.6298 0.15194 0.0
H71 H 0.80511 0.70364 0.09531 0.0
H72 H 0.6931 0.55466 0.09459 0.0
H73 H 0.70671 0.6078 0.27157 0.0
H74 H 0.76331 0.66936 0.16873 0.0
H75 H 0.68425 0.60809 0.10872 0.0
O76 O 0.70557 0.76788 0.24543 0.0
H77 H 0.7168 0.71323 0.3844 0.0
H78 H 0.67393 0.77882 0.32201 0.0
H79 H 0.71659 0.55485 0.25901 0.0
H80 H 0.7222 0.72699 0.03533 0.0
H81 H 0.70965 0.52783 0.17001 0.0
H82 H 0.78455 0.73264 0.0278 0.0
O83 O 0.65396 0.62554 0.26239 0.0
H84 H 0.57919 0.71961 0.19068 0.0
H85 H 0.62301 0.69174 0.35525 0.0
H86 H 0.5587 0.68058 0.35001 0.0
H87 H 0.53654 0.6948 0.26721 0.0
H88 H 0.6429 0.72956 0.19761 0.0
H89 H 0.68406 0.8107 0.40696 0.0
H90 H 0.71058 0.79326 0.48192 0.0
O91 O 0.66711 0.6711 0.31994 0.0
C92 C 0.75032 0.70501 0.27604 0.0
C93 C 0.71533 0.75192 0.43791 0.0
C94 C 0.6913 0.78932 0.40238 0.0
N95 N 0.69459 0.74404 0.34831 0.0
C96 C 0.70942 0.73446 0.38925 0.0
C97 C 0.68576 0.77125 0.3543 0.0
C98 C 0.70615 0.77951 0.44442 0.0
C99 C 0.70851 0.69505 0.10672 0.0
N100 N 0.72006 0.67927 0.14378 0.0
C101 C 0.73146 0.71446 0.06448 0.0
C102 C 0.76646 0.71766 0.06031 0.0
C103 C 0.77803 0.70145 0.09822 0.0
C104 C 0.75433 0.68224 0.1399 0.0
C105 C 0.69626 0.56622 0.13354 0.0
C106 C 0.70398 0.59641 0.23265 0.0
C107 C 0.69114 0.59639 0.14183 0.0
N108 N 0.69515 0.61118 0.1909 0.0
C109 C 0.70947 0.56634 0.22581 0.0
C110 C 0.70555 0.55118 0.17587 0.0
C111 C 0.65216 0.63697 0.30817 0.0
C112 C 0.58849 0.71326 0.22695 0.0
C113 C 0.61324 0.6974 0.31906 0.0
C114 C 0.57696 0.6913 0.31633 0.0
C115 C 0.56457 0.69932 0.26989 0.0
N116 N 0.63652 0.71106 0.27684 0.0
C117 C 0.62456 0.71892 0.23114 0.0
Co118 Co 0.08397 0.66364 0.36551 0.0
Co119 Co 0.0247 0.67353 0.44822 0.0
O120 O 0.03588 0.66047 0.37921 0.0
C121 C 0.02834 0.59137 0.31764 0.0
O122 O 1.00632 0.5845 0.35814 0.0
C123 C 0.99993 0.71102 0.37152 0.0
O124 O 0.03076 0.72177 0.34503 0.0
O125 O 0.06991 0.72337 0.44302 0.0
O126 O 0.11063 0.70707 0.41375 0.0
H127 H 0.05683 0.72738 0.62978 0.0
H128 H 0.03881 0.66289 0.27456 0.0
O129 O 0.0597 0.62098 0.31558 0.0
H130 H 0.1576 0.78004 0.25986 0.0
H131 H 0.18132 0.65941 0.25235 0.0
H132 H 0.14721 0.67434 0.43244 0.0
H133 H 0.14721 0.73682 0.33233 0.0
H134 H 0.1218 0.65729 0.26961 0.0
O135 O 0.99394 0.69258 0.41379 0.0
H136 H 0.06929 0.7089 0.54364 0.0
H137 H 0.95689 0.66808 0.49783 0.0
H138 H 0.20715 0.67692 0.41686 0.0
H139 H 0.04843 0.7049 0.20062 0.0
H140 H 0.22454 0.66942 0.32627 0.0
H141 H 0.10809 0.76408 0.19312 0.0
O142 O 0.0751 0.62938 0.4252 0.0
H143 H 0.90569 0.56672 0.38072 0.0
H144 H 0.99273 0.61455 0.53038 0.0
H145 H 0.93716 0.55269 0.53612 0.0
H146 H 0.89301 0.52848 0.46106 0.0
H147 H 0.96215 0.62804 0.37607 0.0
H148 H 0.94324 0.68626 0.58342 0.0
H149 H 0.99339 0.71603 0.65015 0.0
O150 O 0.05411 0.65373 0.48544 0.0
C151 C 0.10307 0.73043 0.43392 0.0
C152 C 0.03471 0.71431 0.60111 0.0
C153 C 0.97097 0.69128 0.57505 0.0
N154 N 1.0138 0.6872 0.51589 0.0
C155 C 0.04158 0.70372 0.5523 0.0
C156 C 0.97888 0.68111 0.52661 0.0
C157 C 0.99912 0.70797 0.61248 0.0
C158 C 0.06503 0.68835 0.2712 0.0
N159 N 0.0924 0.6973 0.30772 0.0
C160 C 0.07024 0.71213 0.22939 0.0
C161 C 0.1037 0.74535 0.22524 0.0
C162 C 0.13148 0.75434 0.26269 0.0
C163 C 0.12534 0.72981 0.30383 0.0
C164 C 0.17408 0.66276 0.29199 0.0
C165 C 0.15465 0.67122 0.39288 0.0
C166 C 0.14036 0.66149 0.30204 0.0
N167 N 0.1311 0.66587 0.35198 0.0
C168 C 0.1886 0.67263 0.38431 0.0
C169 C 0.19832 0.66839 0.33348 0.0
C170 C 0.06719 0.63288 0.47249 0.0
C171 C 0.9247 0.57697 0.4137 0.0
C172 C 0.97395 0.60405 0.49727 0.0
C173 C 0.94239 0.56907 0.50088 0.0
C174 C 0.91762 0.55552 0.45877 0.0
N175 N 0.98073 0.62493 0.4529 0.0
C176 C 0.95663 0.61176 0.4114 0.0
Co177 Co 0.46387 0.08226 0.55803 0.0
Co178 Co 0.38431 1.00804 0.60703 0.0
O179 O 0.41898 0.03356 0.54883 0.0
C180 C 0.48602 0.04065 0.48108 0.0
O181 O 0.45335 0.01066 0.48446 0.0
C182 C 0.31134 0.98747 0.55923 0.0
O183 O 0.30855 1.00914 0.59388 0.0
O184 O 0.37815 0.05187 0.61726 0.0
O185 O 0.43676 0.09826 0.60727 0.0
H186 H 0.33074 0.99957 0.78689 0.0
H187 H 0.43168 0.05461 0.45115 0.0
O188 O 0.49366 0.0692 0.50827 0.0
H189 H 0.43811 0.1749 0.46927 0.0
H190 H 0.58008 0.19715 0.4996 0.0
H191 H 0.50046 0.12977 0.6505 0.0
H192 H 0.45954 0.15049 0.54095 0.0
H193 H 0.5231 0.137 0.48685 0.0
O194 O 0.34131 0.98595 0.55591 0.0
H195 H 0.37433 0.03024 0.71358 0.0
H196 H 0.31977 0.9319 0.62324 0.0
H197 H 0.55706 0.18989 0.66494 0.0
H198 H 0.41077 0.07835 0.37816 0.0
H199 H 0.59731 0.22405 0.58913 0.0
H200 H 0.41379 0.13893 0.38686 0.0
O201 O 0.48012 0.06294 0.61811 0.0
H202 H 0.38993 0.91001 0.50008 0.0
H203 H 0.40275 0.96206 0.67759 0.0
H204 H 0.41285 0.90936 0.66449 0.0
H205 H 0.4063 0.88285 0.57524 0.0
H206 H 0.38068 0.96316 0.51477 0.0
H207 H 0.2757 0.90017 0.69563 0.0
H208 H 0.28098 0.93406 0.77814 0.0
O209 O 0.42579 0.02842 0.65967 0.0
C210 C 0.40298 0.08575 0.62112 0.0
C211 C 0.32816 0.9845 0.75113 0.0
C212 C 0.29726 0.92872 0.69991 0.0
N213 N 0.34969 0.98291 0.6642 0.0
C214 C 0.35277 1.00172 0.70949 0.0
C215 C 0.32233 0.94685 0.65907 0.0
C216 C 0.30024 0.94775 0.74619 0.0
C217 C 0.43391 0.08126 0.4551 0.0
N218 N 0.4478 0.10142 0.50003 0.0
C219 C 0.42166 0.09447 0.41366 0.0
C220 C 0.42328 0.12841 0.4186 0.0
C221 C 0.43694 0.14861 0.46478 0.0
C222 C 0.44904 0.13458 0.5053 0.0
C223 C 0.56273 0.18257 0.53292 0.0
C224 C 0.51772 0.14452 0.61726 0.0
C225 C 0.53049 0.14844 0.52597 0.0
N226 N 0.50833 0.12997 0.56785 0.0
C227 C 0.54979 0.17853 0.62571 0.0
C228 C 0.57238 0.19765 0.58317 0.0
C229 C 0.46123 0.04537 0.65834 0.0
C230 C 0.39284 0.9213 0.53916 0.0
C231 C 0.40025 0.95101 0.6385 0.0
C232 C 0.40579 0.92099 0.6314 0.0
C233 C 0.40207 0.9061 0.58133 0.0
N234 N 0.3913 0.96585 0.5969 0.0
C235 C 0.38753 0.95134 0.54775 0.0
Co236 Co 0.44255 0.46918 0.70302 0.0
Co237 Co 0.44623 0.40209 0.77603 0.0
O238 O 0.45267 0.42866 0.71025 0.0
C239 C 0.51916 0.50176 0.65824 0.0
O240 O 0.53055 0.49402 0.70206 0.0
C241 C 0.40258 0.32386 0.74128 0.0
O242 O 0.37879 0.31811 0.77915 0.0
O243 O 0.39362 0.39139 0.78114 0.0
O244 O 0.39845 0.44417 0.7509 0.0
H245 H 0.40383 0.36586 0.96249 0.0
H246 H 0.44911 0.43121 0.60883 0.0
O247 O 0.48558 0.49439 0.65327 0.0
H248 H 0.32502 0.41957 0.5958 0.0
H249 H 0.43394 0.56901 0.60388 0.0
H250 H 0.42108 0.51019 0.77659 0.0
H251 H 0.36658 0.45264 0.67006 0.0
H252 H 0.44479 0.51644 0.61338 0.0
O253 O 0.4301 0.35609 0.73328 0.0
H254 H 0.41283 0.40004 0.87967 0.0
H255 H 0.46556 0.34539 0.81136 0.0
H256 H 0.40921 0.56221 0.76865 0.0
H257 H 0.40862 0.39828 0.53347 0.0
H258 H 0.41574 0.59207 0.68182 0.0
H259 H 0.34604 0.39222 0.52668 0.0
O260 O 0.47566 0.49503 0.76421 0.0
H261 H 0.55803 0.41346 0.68185 0.0
H262 H 0.51024 0.43073 0.85024 0.0
H263 H 0.57607 0.44709 0.84355 0.0
H264 H 0.60032 0.43833 0.75882 0.0
H265 H 0.49255 0.39796 0.69025 0.0
H266 H 0.45685 0.3104 0.89323 0.0
H267 H 0.42587 0.32062 0.9696 0.0
O268 O 0.46323 0.44808 0.81909 0.0
C269 C 0.3804 0.41286 0.77372 0.0
C270 C 0.41739 0.36118 0.9295 0.0
C271 C 0.44716 0.33006 0.89065 0.0
N272 N 0.43968 0.37473 0.84073 0.0
C273 C 0.42257 0.38047 0.88253 0.0
C274 C 0.45198 0.34994 0.84438 0.0
C275 C 0.42976 0.3358 0.93346 0.0
C276 C 0.42197 0.42882 0.60604 0.0
N277 N 0.41022 0.44381 0.64388 0.0
C278 C 0.39915 0.41008 0.56333 0.0
C279 C 0.36403 0.40667 0.55956 0.0
C280 C 0.3522 0.42198 0.59834 0.0
C281 C 0.3758 0.44054 0.64046 0.0
C282 C 0.43093 0.55619 0.64191 0.0
C283 C 0.42364 0.52282 0.73859 0.0
C284 C 0.43719 0.5265 0.64757 0.0
N285 N 0.43335 0.51011 0.69545 0.0
C286 C 0.41703 0.55236 0.73437 0.0
C287 C 0.42072 0.56911 0.68565 0.0
C288 C 0.47749 0.4825 0.80924 0.0
C289 C 0.54778 0.41732 0.719 0.0
C290 C 0.52071 0.42715 0.81325 0.0
C291 C 0.55794 0.43628 0.8097 0.0
C292 C 0.57151 0.43133 0.76218 0.0
N293 N 0.49757 0.41337 0.77079 0.0
C294 C 0.51068 0.40846 0.72406 0.0
Co295 Co 0.02715 0.42702 0.88292 0.0
Co296 Co 0.10268 0.43235 0.94931 0.0
O297 O 0.07943 0.43837 0.88504 0.0
C298 C 0.06942 0.49598 0.81531 0.0
O299 O 0.10177 0.49949 0.82759 0.0
C300 C 0.12537 0.39659 0.86569 0.0
O301 O 0.09335 0.38429 0.84163 0.0
O302 O 0.06175 0.38019 0.95733 0.0
O303 O 1.01192 0.38329 0.92976 0.0
H304 H 0.10298 0.39301 0.13591 0.0
H305 H 0.06829 0.43415 0.78328 0.0
O306 O 0.03938 0.47018 0.83498 0.0
H307 H 0.95688 0.31051 0.77677 0.0
H308 H 0.91024 0.41178 0.79832 0.0
H309 H 0.96835 0.40441 0.96364 0.0
H310 H 0.96815 0.35122 0.85266 0.0
H311 H 0.97554 0.42595 0.79965 0.0
O312 O 0.13246 0.41552 0.90755 0.0
H313 H 0.07489 0.40141 0.05535 0.0
H314 H 0.17973 0.45017 0.97849 0.0
H315 H 0.90285 0.38951 0.96392 0.0
H316 H 0.05766 0.39478 0.70616 0.0
H317 H 0.87337 0.39319 0.88082 0.0
H318 H 1.00167 0.33233 0.70253 0.0
O319 O 0.03545 0.45926 0.94526 0.0
H320 H 0.20364 0.54023 0.85123 0.0
H321 H 0.13884 0.49753 0.02103 0.0
H322 H 0.18952 0.56193 1.01184 0.0
H323 H 0.22246 0.58362 0.92654 0.0
H324 H 0.15233 0.47624 0.86183 0.0
H325 H 0.20883 0.442 0.05803 0.0
H326 H 0.17041 0.41335 0.13757 0.0
O327 O 0.07483 0.4495 0.99416 0.0
C328 C 0.02669 0.36642 0.95218 0.0
C329 C 0.12003 0.4056 0.10154 0.0
C330 C 0.17943 0.43306 0.05782 0.0
N331 N 0.12564 0.42642 1.01231 0.0
C332 C 0.10429 0.41051 0.05584 0.0
C333 C 0.16275 0.43752 1.01283 0.0
C334 C 0.15786 0.417 0.10244 0.0
C335 C 0.04352 0.40742 0.78181 0.0
N336 N 1.01864 0.39539 0.82237 0.0
C337 C 0.0378 0.38504 0.7381 0.0
C338 C 1.00644 0.34998 0.73614 0.0
C339 C 0.98133 0.33771 0.77779 0.0
C340 C 0.98796 0.36087 0.82082 0.0
C341 C 0.92277 0.41004 0.83476 0.0
C342 C 0.95567 0.40585 0.92725 0.0
C343 C 0.95978 0.41816 0.8358 0.0
N344 N 0.9757 0.41577 0.88163 0.0
C345 C 0.91859 0.39749 0.92769 0.0
C346 C 0.90209 0.39959 0.88106 0.0
C347 C 0.05251 0.46181 0.98818 0.0
C348 C 0.18952 0.53111 0.88861 0.0
C349 C 0.15268 0.50684 0.98356 0.0
C350 C 0.18153 0.54331 0.9787 0.0
C351 C 0.20003 0.55545 0.93085 0.0
N352 N 0.14252 0.48311 0.94193 0.0
C353 C 0.16052 0.49485 0.89491 0.0
H354 H 0.58062 0.01958 0.17446 0.0
C355 C 0.60909 0.03602 0.18838 0.0
H356 H 0.64365 0.06452 0.25308 0.0
H357 H 0.51723 0.08553 0.36133 0.0
H358 H 0.54925 0.14335 0.31392 0.0
H359 H 0.59821 0.15469 0.24946 0.0
H360 H 0.61487 0.10785 0.23133 0.0
C361 C 0.61539 0.04737 0.23884 0.0
C362 C 0.58468 0.03959 0.27638 0.0
C363 C 0.57596 0.06756 0.28788 0.0
C364 C 0.54867 0.06149 0.3266 0.0
C365 C 0.539 0.0892 0.33451 0.0
C366 C 0.55689 0.12244 0.30705 0.0
C367 C 0.58439 0.1288 0.27067 0.0
C368 C 0.59377 0.10172 0.2608 0.0
H369 H 0.54175 0.06666 0.44474 0.0
C370 C 0.51344 0.04373 0.44124 0.0
H371 H 0.47566 0.99897 0.3944 0.0
H372 H 0.59402 0.97992 0.26294 0.0
H373 H 0.56234 0.92193 0.3105 0.0
H374 H 0.51636 0.91185 0.37928 0.0
H375 H 0.50171 0.9596 0.40099 0.0
C376 C 0.50391 0.02189 0.39847 0.0
C377 C 0.53123 0.02794 0.35566 0.0
C378 C 0.53935 0.99961 0.3431 0.0
C379 C 0.56601 1.00543 0.30343 0.0
C380 C 0.57393 0.97688 0.29245 0.0
C381 C 0.55599 0.94349 0.3195 0.0
C382 C 0.53009 0.93781 0.35822 0.0
C383 C 0.52185 0.96545 0.37018 0.0
H384 H 0.61355 0.58061 0.33816 0.0
C385 C 0.63055 0.60937 0.34948 0.0
H386 H 0.64698 0.64819 0.41101 0.0
H387 H 0.51266 0.57033 0.56311 0.0
H388 H 0.50615 0.62135 0.53121 0.0
H389 H 0.54411 0.65962 0.45705 0.0
H390 H 0.58887 0.64706 0.41492 0.0
C391 C 0.63053 0.61932 0.39993 0.0
C392 C 0.60527 0.5933 0.44111 0.0
C393 C 0.5784 0.60028 0.46484 0.0
C394 C 0.5558 0.5776 0.50668 0.0
C395 C 0.53001 0.58605 0.53042 0.0
C396 C 0.52604 0.6154 0.51265 0.0
C397 C 0.54745 0.63698 0.47103 0.0
C398 C 0.57327 0.6296 0.44731 0.0
H399 H 0.57543 0.53438 0.62328 0.0
C400 C 0.5458 0.52092 0.61497 0.0
H401 H 0.50421 0.50968 0.55851 0.0
H402 H 0.65618 0.57392 0.40855 0.0
H403 H 0.66061 0.52107 0.43777 0.0
H404 H 0.61795 0.47883 0.50529 0.0
H405 H 0.5711 0.48968 0.54486 0.0
C406 C 0.53391 0.52296 0.56643 0.0
C407 C 0.55942 0.54737 0.52435 0.0
C408 C 0.58574 0.53986 0.50012 0.0
C409 C 0.60925 0.56331 0.45928 0.0
C410 C 0.63665 0.55629 0.43805 0.0
C411 C 0.63965 0.52614 0.45473 0.0
C412 C 0.61571 0.50242 0.49287 0.0
C413 C 0.58904 0.50907 0.51545 0.0
H414 H 0.03927 0.51698 0.7682 0.0
C415 C 0.06615 0.51875 0.77333 0.0
H416 H 0.12043 0.54041 0.74271 0.0
H417 H 1.01775 0.54681 0.54359 0.0
H418 H 0.98466 0.48007 0.54822 0.0
H419 H 0.99948 0.44779 0.61704 0.0
H420 H 0.04682 0.48209 0.68238 0.0
C421 C 0.09333 0.53821 0.73832 0.0
C422 C 0.08729 0.55738 0.69277 0.0
C423 C 0.06092 0.53683 0.65296 0.0
C424 C 0.05384 0.55543 0.61139 0.0
C425 C 0.02549 0.53421 0.57455 0.0
C426 C 1.00608 0.49582 0.57694 0.0
C427 C 1.0143 0.47765 0.61581 0.0
C428 C 0.04138 0.49774 0.65339 0.0
H429 H 0.08598 0.59522 0.50312 0.0
C430 C 0.07443 0.61252 0.51435 0.0
H431 H 0.05642 0.63264 0.57729 0.0
H432 H 0.14056 0.60514 0.76099 0.0
H433 H 0.1758 0.67186 0.75396 0.0
H434 H 0.16552 0.70389 0.67994 0.0
H435 H 0.11983 0.66944 0.61255 0.0
C436 C 0.06686 0.61453 0.56537 0.0
C437 C 0.07458 0.59452 0.6079 0.0
C438 C 0.10173 0.61495 0.64675 0.0
C439 C 0.10803 0.59642 0.68916 0.0
C440 C 0.13491 0.61771 0.72769 0.0
C441 C 0.15531 0.65606 0.72418 0.0
C442 C 0.14949 0.67409 0.68254 0.0
C443 C 0.12309 0.65396 0.64418 0.0
H444 H 0.62254 0.08129 0.91493 0.0
C445 C 0.6001 0.06258 0.9407 0.0
H446 H 0.54217 0.02751 0.94829 0.0
H447 H 0.54488 0.12981 0.7464 0.0
H448 H 0.57026 0.18142 0.80704 0.0
H449 H 0.58871 0.17488 0.89685 0.0
H450 H 0.58199 0.11671 0.9266 0.0
C451 C 0.56469 0.04793 0.92421 0.0
C452 C 0.55549 0.05319 0.86924 0.0
C453 C 0.55974 0.08745 0.85239 0.0
C454 C 0.54872 0.09113 0.80066 0.0
C455 C 0.5528 0.12549 0.78516 0.0
C456 C 0.56729 0.15534 0.81959 0.0
C457 C 0.57772 0.15166 0.87015 0.0
C458 C 0.57389 0.11815 0.88665 0.0
H459 H 0.46235 0.02631 0.73841 0.0
C460 C 0.48003 0.04382 0.70684 0.0
H461 H 0.53536 0.08198 0.68483 0.0
H462 H 0.54625 0.9845 0.88732 0.0
H463 H 0.5223 0.93347 0.82596 0.0
H464 H 0.50386 0.94011 0.73619 0.0
H465 H 0.50928 0.99786 0.7073 0.0
C466 C 0.51702 0.06298 0.71459 0.0
C467 C 0.53297 0.06043 0.76612 0.0
C468 C 0.53027 0.02666 0.7822 0.0
C469 C 0.54125 0.02297 0.83384 0.0
C470 C 0.53806 0.98883 0.84877 0.0
C471 C 0.52449 0.95931 0.81385 0.0
C472 C 0.51409 0.96304 0.76333 0.0
C473 C 0.51705 0.99628 0.7474 0.0
H474 H 0.55379 0.58659 0.12444 0.0
C475 C 0.58331 0.60088 0.11527 0.0
H476 H 0.6243 0.61242 0.05791 0.0
H477 H 0.54315 0.47379 0.91631 0.0
H478 H 0.59114 0.46509 0.95648 0.0
H479 H 0.62904 0.50487 0.02954 0.0
H480 H 0.61934 0.55369 0.06231 0.0
C481 C 0.59468 0.59842 0.06657 0.0
C482 C 0.56901 0.57275 0.02545 0.0
C483 C 0.57439 0.54365 1.00737 0.0
C484 C 0.55185 0.52005 0.96614 0.0
C485 C 0.55877 0.49199 0.94815 0.0
C486 C 0.58639 0.48676 0.97079 0.0
C487 C 0.60777 0.50919 1.01179 0.0
C488 C 0.60197 0.53728 0.03006 0.0
H489 H 0.51391 0.5385 0.84169 0.0
C490 C 0.49819 0.50937 0.85175 0.0
H491 H 0.48394 0.46955 0.91155 0.0
H492 H 0.55337 0.62776 0.04661 0.0
H493 H 0.50326 0.63453 1.00935 0.0
H494 H 0.46069 0.59035 0.9435 0.0
H495 H 0.46848 0.53964 0.91359 0.0
C496 C 0.49897 0.49872 0.90161 0.0
C497 C 0.5233 0.52494 0.94339 0.0
C498 C 0.51735 0.55355 0.96225 0.0
C499 C 0.54078 0.57799 1.00236 0.0
C500 C 0.53554 0.60755 0.01798 0.0
C501 C 0.50699 0.61189 0.99667 0.0
C502 C 0.48311 0.5871 0.95944 0.0
C503 C 0.48805 0.55821 0.94234 0.0
H504 H 0.06568 0.48454 0.06792 0.0
C505 C 0.0474 0.47998 0.0346 0.0
H506 H 1.00313 0.48657 1.00615 0.0
H507 H 1.0184 0.50409 0.27063 0.0
H508 H 0.99737 0.43872 0.27094 0.0
H509 H 0.98395 0.40395 0.18794 0.0
H510 H 0.99251 0.43479 0.10396 0.0
C511 C 0.02143 0.49011 0.03892 0.0
C512 C 0.01917 0.50841 0.08819 0.0
C513 C 1.01158 0.48962 0.1371 0.0
C514 C 1.01726 0.50931 0.18506 0.0
C515 C 1.01279 0.49037 0.23306 0.0
C516 C 1.00096 0.45279 0.23382 0.0
C517 C 0.99355 0.43323 0.1871 0.0
C518 C 0.99882 0.4513 0.1392 0.0
H519 H 0.98754 0.54304 0.2712 0.0
C520 C 1.01614 0.56558 0.27248 0.0
H521 H 0.06797 0.59324 0.23391 0.0
H522 H 0.03143 0.55157 1.00135 0.0
H523 H 0.04744 0.61585 1.0004 0.0
H524 H 0.0538 0.64919 0.08312 0.0
H525 H 0.04453 0.61859 0.1673 0.0
C526 C 0.03965 0.57012 0.2329 0.0
C527 C 0.02832 0.54738 0.18393 0.0
C528 C 0.03254 0.56524 0.13482 0.0
C529 C 0.02819 0.54584 0.087 0.0
C530 C 0.03404 0.56488 0.03877 0.0
C531 C 0.04322 0.60178 0.03766 0.0
C532 C 0.04685 0.62056 0.08422 0.0
C533 C 0.04161 0.60268 0.13231 0.0
H534 H 0.73952 0.82249 0.1415 0.0
C535 C 0.73067 0.81598 0.18215 0.0
H536 H 0.71242 0.83087 0.25019 0.0
H537 H 0.77292 0.98106 0.09849 0.0
H538 H 0.83344 0.98547 0.0999 0.0
H539 H 0.84219 0.93736 0.14268 0.0
H540 H 0.79024 0.88406 0.18308 0.0
C541 C 0.72164 0.83789 0.20973 0.0
C542 C 0.71766 0.86823 0.18526 0.0
C543 C 0.74875 0.90015 0.16412 0.0
C544 C 0.74414 0.929 0.14209 0.0
C545 C 0.77513 0.95926 0.11803 0.0
C546 C 0.81002 0.96201 0.1182 0.0
C547 C 0.81491 0.93484 0.14209 0.0
C548 C 0.78476 0.90424 0.16487 0.0
H549 H 0.74054 0.9988 0.17279 0.0
C550 C 0.72017 0.99138 0.14149 0.0
H551 H 0.68247 0.94919 0.09108 0.0
H552 H 0.65162 0.81004 0.21963 0.0
H553 H 0.59177 0.80686 0.22159 0.0
H554 H 0.58474 0.85871 0.18933 0.0
H555 H 0.63745 0.91384 0.15435 0.0
C556 C 0.70334 0.95689 0.12168 0.0
C557 C 0.70888 0.92689 0.14395 0.0
C558 C 0.67788 0.89508 0.16544 0.0
C559 C 0.68217 0.86561 0.18547 0.0
C560 C 0.65036 0.83372 0.20514 0.0
C561 C 0.61568 0.83141 0.2063 0.0
C562 C 0.61171 0.86054 0.18803 0.0
C563 C 0.64228 0.89203 0.16783 0.0
H564 H 0.97195 0.7243 0.30797 0.0
C565 C 0.96992 0.71628 0.34898 0.0
H566 H 0.93729 0.70038 0.41768 0.0
H567 H 0.85207 0.76322 0.25728 0.0
H568 H 0.9096 0.82185 0.25748 0.0
H569 H 0.96519 0.82896 0.30352 0.0
H570 H 0.96385 0.77714 0.34836 0.0
C571 C 0.93935 0.70891 0.37688 0.0
C572 C 0.90528 0.70628 0.35233 0.0
C573 C 0.9059 0.73742 0.32884 0.0
C574 C 0.87308 0.7339 0.30505 0.0
C575 C 0.87543 0.76472 0.27835 0.0
C576 C 0.90842 0.79852 0.27778 0.0
C577 C 0.93977 0.80248 0.30349 0.0
C578 C 0.93869 0.7724 0.32879 0.0
H579 H 0.80005 0.73531 0.32689 0.0
C580 C 0.78711 0.71371 0.2975 0.0
H581 H 0.791 0.67306 0.25364 0.0
H582 H 0.8943 0.6405 0.39201 0.0
H583 H 0.83605 0.58284 0.39599 0.0
H584 H 0.77824 0.57804 0.3612 0.0
H585 H 0.77848 0.63079 0.32164 0.0
C586 C 0.80429 0.69504 0.28238 0.0
C587 C 0.83903 0.69983 0.30769 0.0
C588 C 0.83828 0.66895 0.33228 0.0
C589 C 0.87142 0.67203 0.35388 0.0
C590 C 0.86991 0.64021 0.37626 0.0
C591 C 0.83661 0.60676 0.37862 0.0
C592 C 0.80411 0.60404 0.35892 0.0
C593 C 0.80473 0.63461 0.33605 0.0
H594 H 0.16275 0.77014 0.44217 0.0
C595 C 0.13517 0.76676 0.44739 0.0
H596 H 0.10526 0.79313 0.47047 0.0
H597 H 0.24346 0.9087 0.60808 0.0
H598 H 0.19846 0.87373 0.67558 0.0
H599 H 0.13817 0.81927 0.65285 0.0
H600 H 0.12273 0.79941 0.56233 0.0
C601 C 0.13236 0.79577 0.4638 0.0
C602 C 0.16664 0.83148 0.47625 0.0
C603 C 0.17478 0.84351 0.5291 0.0
C604 C 0.2094 0.87526 0.54208 0.0
C605 C 0.21739 0.88543 0.59562 0.0
C606 C 0.19183 0.86543 0.63492 0.0
C607 C 0.15791 0.83476 0.62213 0.0
C608 C 0.14939 0.8237 0.56997 0.0
H609 H 0.25262 0.96281 0.53494 0.0
C610 C 0.27692 0.95939 0.53309 0.0
H611 H 0.29661 0.92286 0.51454 0.0
H612 H 0.15785 0.81895 0.3702 0.0
H613 H 0.20296 0.85386 0.30246 0.0
H614 H 0.26343 0.90811 0.32515 0.0
H615 H 0.27906 0.92791 0.41583 0.0
C616 C 0.27288 0.92722 0.51575 0.0
C617 C 0.2356 0.89542 0.50194 0.0
C618 C 0.22699 0.88394 0.44895 0.0
C619 C 0.19235 0.85224 0.43598 0.0
C620 C 0.18414 0.84212 0.38247 0.0
C621 C 0.20969 0.86209 0.34313 0.0
C622 C 0.24371 0.89267 0.3559 0.0
C623 C 0.25237 0.90368 0.40809 0.0
H624 H 0.42169 0.29892 0.68149 0.0
C625 C 0.40202 0.29258 0.71344 0.0
H626 H 0.36391 0.25107 0.76437 0.0
H627 H 0.38282 0.15521 0.56824 0.0
H628 H 0.34963 0.1775 0.51479 0.0
H629 H 0.33313 0.22234 0.55027 0.0
H630 H 0.35017 0.24556 0.63931 0.0
C631 C 0.3819 0.25752 0.73033 0.0
C632 C 0.38897 0.22818 0.70966 0.0
C633 C 0.37786 0.21406 0.65809 0.0
C634 C 0.38648 0.18738 0.63811 0.0
C635 C 0.37627 0.17482 0.58582 0.0
C636 C 0.3573 0.18748 0.55464 0.0
C637 C 0.34809 0.21279 0.57458 0.0
C638 C 0.35815 0.22601 0.62567 0.0
H639 H 0.36305 0.10119 0.65346 0.0
C640 C 0.392 0.11179 0.64274 0.0
H641 H 0.44577 0.15893 0.63949 0.0
H642 H 0.41436 0.24938 0.81021 0.0
H643 H 0.44699 0.2266 0.8638 0.0
H644 H 0.4607 0.17946 0.82975 0.0
H645 H 0.44194 0.15486 0.74171 0.0
C646 C 0.41653 0.14801 0.64862 0.0
C647 C 0.40548 0.17427 0.67013 0.0
C648 C 0.41612 0.18801 0.72189 0.0
C649 C 0.40785 0.21493 0.7417 0.0
C650 C 0.41948 0.22861 0.79328 0.0
C651 C 0.43833 0.21583 0.82449 0.0
C652 C 0.44609 0.18932 0.8053 0.0
C653 C 0.4352 0.17547 0.75466 0.0
H654 H 0.15412 0.38657 0.79966 0.0
C655 C 0.15546 0.39226 0.84148 0.0
H656 H 0.1863 0.40362 0.91156 0.0
H657 H 0.27937 0.35312 0.74761 0.0
H658 H 0.22236 0.29449 0.73853 0.0
H659 H 0.16429 0.28393 0.78058 0.0
H660 H 0.16268 0.33231 0.8308 0.0
C661 C 0.18537 0.39785 0.86978 0.0
C662 C 0.2204 0.40268 0.84567 0.0
C663 C 0.22132 0.37345 0.81869 0.0
C664 C 0.2554 0.37886 0.79688 0.0
C665 C 0.25483 0.35005 0.76704 0.0
C666 C 0.22219 0.31629 0.76121 0.0
C667 C 0.18946 0.31039 0.78471 0.0
C668 C 0.18887 0.3385 0.81318 0.0
H669 H 0.32964 0.37849 0.82115 0.0
C670 C 0.34269 0.40165 0.79411 0.0
H671 H 0.33822 0.44349 0.75418 0.0
H672 H 0.22858 0.46534 0.89278 0.0
H673 H 0.28607 0.52281 0.90554 0.0
H674 H 0.34571 0.53055 0.8737 0.0
H675 H 0.34809 0.48095 0.82842 0.0
C676 C 0.3248 0.41996 0.7805 0.0
C677 C 0.28894 0.41283 0.8046 0.0
C678 C 0.28808 0.44177 0.83249 0.0
C679 C 0.25383 0.4369 0.85232 0.0
C680 C 0.25383 0.46694 0.87818 0.0
C681 C 0.28667 0.50027 0.88557 0.0
C682 C 0.32021 0.50466 0.86753 0.0
C683 C 0.3211 0.47592 0.84133 0.0
H684 H 1.01291 0.31905 1.00512 0.0
C685 C 1.00152 0.33 0.97639 0.0
H686 H 0.95354 0.32285 0.93736 0.0
H687 H 0.89274 0.15649 0.04523 0.0
H688 H 0.94195 0.15357 0.99805 0.0
H689 H 0.98816 0.20687 0.94669 0.0
H690 H 0.98614 0.26373 0.94353 0.0
C691 C 0.96477 0.31141 0.96549 0.0
C692 C 0.93699 0.27831 0.99551 0.0
C693 C 0.93748 0.24459 0.99464 0.0
C694 C 0.90931 0.21297 0.02145 0.0
C695 C 0.91212 0.18061 0.02318 0.0
C696 C 0.94043 0.17866 0.99663 0.0
C697 C 0.96655 0.20873 0.96792 0.0
C698 C 0.96522 0.24135 0.96675 0.0
H699 H 0.83179 0.14733 1.00366 0.0
C700 C 0.82528 0.15009 0.04415 0.0
H701 H 0.84106 0.18347 0.11171 0.0
H702 H 0.92919 0.33915 1.00914 0.0
H703 H 0.87796 0.34098 0.05148 0.0
H704 H 0.82607 0.28481 0.09041 0.0
H705 H 0.82545 0.22674 0.08801 0.0
C706 C 0.84794 0.18091 0.07132 0.0
C707 C 0.87922 0.21429 0.04594 0.0
C708 C 0.87869 0.24798 0.04654 0.0
C709 C 0.90789 0.28007 0.02227 0.0
C710 C 0.9072 0.3136 0.02531 0.0
C711 C 0.87802 0.31514 0.0498 0.0
C712 C 0.84889 0.28357 0.07185 0.0
C713 C 0.84904 0.25036 0.07037 0.0
loop_
_geom_bond_atom_site_label_1
_geom_bond_atom_site_label_2
_geom_bond_distance
_geom_bond_site_symmetry_2
_ccdc_geom_bond_type
Co0 O2 2.143 . S
Co0 O8 2.074 1_545 S
Co0 O11 2.093 1_554 S
Co0 O24 2.097 . S
Co0 N41 2.151 1_544 S
Co0 N49 2.214 1_545 S
Co1 O2 2.160 . S
Co1 O7 2.058 . S
Co1 O17 2.057 . S
Co1 O32 2.037 . S
Co1 N36 2.145 . S
Co1 N57 2.257 . S
O2 Co0 2.143 . S
O2 Co1 2.160 . S
C3 O4 1.278 . S
C3 O11 1.224 . S
O4 C3 1.278 . S
C5 O6 1.245 1_554 S
C5 O17 1.232 . S
O6 C5 1.245 1_556 S
O7 Co1 2.058 . S
O7 C33 1.269 . S
O8 Co0 2.074 1_565 S
O8 C33 1.257 1_565 S
H9 C34 0.930 . S
H10 C40 0.930 . S
O11 Co0 2.093 1_556 S
O11 C3 1.224 . S
H12 C44 0.929 . S
H13 C46 0.930 1_556 S
H14 C47 0.930 . S
H15 C45 0.929 . S
H16 C48 0.928 1_556 S
O17 Co1 2.057 . S
O17 C5 1.232 . S
H18 C37 0.929 . S
H19 C38 0.929 . S
H20 C50 0.931 . S
H21 C42 0.929 1_545 S
H22 C51 0.930 . S
H23 C43 0.931 . S
O24 Co0 2.097 . S
O24 C52 1.214 . S
H25 C53 0.929 . S
H26 C54 0.929 . S
H27 C55 0.930 . S
H28 C56 0.929 . S
H29 C58 0.930 . S
H30 C35 0.930 . S
H31 C39 0.930 . S
O32 Co1 2.037 . S
O32 C52 1.234 . S
C33 O7 1.269 . S
C33 O8 1.257 1_545 S
C34 H9 0.930 . S
C34 C37 1.388 . S
C34 C39 1.418 . S
C35 H30 0.930 . S
C35 C38 1.404 . S
C35 C39 1.353 . S
N36 Co1 2.145 . S
N36 C37 1.397 . S
N36 C38 1.334 . S
C37 H18 0.929 . S
C37 C34 1.388 . S
C37 N36 1.397 . S
C38 H19 0.929 . S
C38 C35 1.404 . S
C38 N36 1.334 . S
C39 H31 0.930 . S
C39 C34 1.418 . S
C39 C35 1.353 . S
C40 H10 0.930 . S
C40 N41 1.330 1_545 S
C40 C42 1.446 1_545 S
N41 Co0 2.151 1_566 S
N41 C40 1.330 1_565 S
N41 C45 1.418 . S
C42 H21 0.929 1_565 S
C42 C40 1.446 1_565 S
C42 C43 1.332 . S
C43 H23 0.931 . S
C43 C42 1.332 . S
C43 C44 1.267 . S
C44 H12 0.929 . S
C44 C43 1.267 . S
C44 C45 1.251 . S
C45 H15 0.929 . S
C45 N41 1.418 . S
C45 C44 1.251 . S
C46 H13 0.930 1_554 S
C46 C48 1.406 . S
C46 C51 1.261 . S
C47 H14 0.930 . S
C47 N49 1.325 . S
C47 C50 1.357 . S
C48 H16 0.928 1_554 S
C48 C46 1.406 . S
C48 N49 1.261 . S
N49 Co0 2.214 1_565 S
N49 C47 1.325 . S
N49 C48 1.261 . S
C50 H20 0.931 . S
C50 C47 1.357 . S
C50 C51 1.312 . S
C51 H22 0.930 . S
C51 C46 1.261 . S
C51 C50 1.312 . S
C52 O24 1.214 . S
C52 O32 1.234 . S
C53 H25 0.929 . S
C53 C56 1.391 . S
C53 C58 1.391 . S
C54 H26 0.929 . S
C54 C55 1.390 . S
C54 N57 1.391 . S
C55 H27 0.930 . S
C55 C54 1.390 . S
C55 C56 1.392 . S
C56 H28 0.929 . S
C56 C53 1.391 . S
C56 C55 1.392 . S
N57 Co1 2.257 . S
N57 C54 1.391 . S
N57 C58 1.388 . S
C58 H29 0.930 . S
C58 C53 1.391 . S
C58 N57 1.388 . S
Co59 O61 2.143 . S
Co59 O67 2.074 . S
Co59 O70 2.093 . S
Co59 O83 2.097 . S
Co59 N100 2.151 . S
Co59 N108 2.214 . S
Co60 O61 2.160 . S
Co60 O66 2.058 . S
Co60 O76 2.057 . S
Co60 O91 2.037 . S
Co60 N95 2.145 . S
Co60 N116 2.257 . S
O61 Co59 2.143 . S
O61 Co60 2.160 . S
C62 O63 1.278 . S
C62 O70 1.224 . S
O63 C62 1.278 . S
C64 O65 1.245 . S
C64 O76 1.232 . S
O65 C64 1.245 . S
O66 Co60 2.058 . S
O66 C92 1.269 . S
O67 Co59 2.074 . S
O67 C92 1.257 . S
H68 C93 0.930 . S
H69 C99 0.930 . S
O70 Co59 2.093 . S
O70 C62 1.224 . S
H71 C103 0.929 . S
H72 C105 0.930 . S
H73 C106 0.930 . S
H74 C104 0.929 . S
H75 C107 0.928 . S
O76 Co60 2.057 . S
O76 C64 1.232 . S
H77 C96 0.929 . S
H78 C97 0.929 . S
H79 C109 0.931 . S
H80 C101 0.929 . S
H81 C110 0.930 . S
H82 C102 0.931 . S
O83 Co59 2.097 . S
O83 C111 1.214 . S
H84 C112 0.929 . S
H85 C113 0.929 . S
H86 C114 0.930 . S
H87 C115 0.929 . S
H88 C117 0.930 . S
H89 C94 0.930 . S
H90 C98 0.930 . S
O91 Co60 2.037 . S
O91 C111 1.234 . S
C92 O66 1.269 . S
C92 O67 1.257 . S
C93 H68 0.930 . S
C93 C96 1.388 . S
C93 C98 1.418 . S
C94 H89 0.930 . S
C94 C97 1.404 . S
C94 C98 1.353 . S
N95 Co60 2.145 . S
N95 C96 1.397 . S
N95 C97 1.334 . S
C96 H77 0.929 . S
C96 C93 1.388 . S
C96 N95 1.397 . S
C97 H78 0.929 . S
C97 C94 1.404 . S
C97 N95 1.334 . S
C98 H90 0.930 . S
C98 C93 1.418 . S
C98 C94 1.353 . S
C99 H69 0.930 . S
C99 N100 1.330 . S
C99 C101 1.446 . S
N100 Co59 2.151 . S
N100 C99 1.330 . S
N100 C104 1.418 . S
C101 H80 0.929 . S
C101 C99 1.446 . S
C101 C102 1.332 . S
C102 H82 0.931 . S
C102 C101 1.332 . S
C102 C103 1.267 . S
C103 H71 0.929 . S
C103 C102 1.267 . S
C103 C104 1.251 . S
C104 H74 0.929 . S
C104 N100 1.418 . S
C104 C103 1.251 . S
C105 H72 0.930 . S
C105 C107 1.406 . S
C105 C110 1.261 . S
C106 H73 0.930 . S
C106 N108 1.325 . S
C106 C109 1.357 . S
C107 H75 0.928 . S
C107 C105 1.406 . S
C107 N108 1.261 . S
N108 Co59 2.214 . S
N108 C106 1.325 . S
N108 C107 1.261 . S
C109 H79 0.931 . S
C109 C106 1.357 . S
C109 C110 1.312 . S
C110 H81 0.930 . S
C110 C105 1.261 . S
C110 C109 1.312 . S
C111 O83 1.214 . S
C111 O91 1.234 . S
C112 H84 0.929 . S
C112 C115 1.391 . S
C112 C117 1.391 . S
C113 H85 0.929 . S
C113 C114 1.390 . S
C113 N116 1.391 . S
C114 H86 0.930 . S
C114 C113 1.390 . S
C114 C115 1.392 . S
C115 H87 0.929 . S
C115 C112 1.391 . S
C115 C114 1.392 . S
N116 Co60 2.257 . S
N116 C113 1.391 . S
N116 C117 1.388 . S
C117 H88 0.930 . S
C117 C112 1.391 . S
C117 N116 1.388 . S
Co118 O120 2.143 . S
Co118 O126 2.074 . S
Co118 O129 2.093 . S
Co118 O142 2.097 . S
Co118 N159 2.151 . S
Co118 N167 2.214 . S
Co119 O120 2.160 1_655 S
Co119 O125 2.058 1_655 S
Co119 O135 2.057 . S
Co119 O150 2.037 1_655 S
Co119 N154 2.145 . S
Co119 N175 2.257 . S
O120 Co118 2.143 . S
O120 Co119 2.160 1_455 S
C121 O122 1.278 1_455 S
C121 O129 1.224 . S
O122 C121 1.278 1_655 S
C123 O124 1.245 . S
C123 O135 1.232 . S
O124 C123 1.245 . S
O125 Co119 2.058 1_455 S
O125 C151 1.269 . S
O126 Co118 2.074 . S
O126 C151 1.257 . S
H127 C152 0.930 . S
H128 C158 0.930 . S
O129 Co118 2.093 . S
O129 C121 1.224 . S
H130 C162 0.929 . S
H131 C164 0.930 . S
H132 C165 0.930 . S
H133 C163 0.929 . S
H134 C166 0.928 . S
O135 Co119 2.057 . S
O135 C123 1.232 . S
H136 C155 0.929 1_455 S
H137 C156 0.929 . S
H138 C168 0.931 . S
H139 C160 0.929 . S
H140 C169 0.930 . S
H141 C161 0.931 . S
O142 Co118 2.097 . S
O142 C170 1.214 . S
H143 C171 0.929 . S
H144 C172 0.929 . S
H145 C173 0.930 . S
H146 C174 0.929 . S
H147 C176 0.930 . S
H148 C153 0.930 . S
H149 C157 0.930 . S
O150 Co119 2.037 1_455 S
O150 C170 1.234 . S
C151 O125 1.269 . S
C151 O126 1.257 . S
C152 H127 0.930 . S
C152 C155 1.388 . S
C152 C157 1.418 . S
C153 H148 0.930 . S
C153 C156 1.404 . S
C153 C157 1.353 . S
N154 Co119 2.145 . S
N154 C155 1.397 . S
N154 C156 1.334 . S
C155 H136 0.929 1_655 S
C155 C152 1.388 . S
C155 N154 1.397 . S
C156 H137 0.929 . S
C156 C153 1.404 . S
C156 N154 1.334 . S
C157 H149 0.930 . S
C157 C152 1.418 . S
C157 C153 1.353 . S
C158 H128 0.930 . S
C158 N159 1.330 . S
C158 C160 1.446 . S
N159 Co118 2.151 . S
N159 C158 1.330 . S
N159 C163 1.418 . S
C160 H139 0.929 . S
C160 C158 1.446 . S
C160 C161 1.332 . S
C161 H141 0.931 . S
C161 C160 1.332 . S
C161 C162 1.267 . S
C162 H130 0.929 . S
C162 C161 1.267 . S
C162 C163 1.251 . S
C163 H133 0.929 . S
C163 N159 1.418 . S
C163 C162 1.251 . S
C164 H131 0.930 . S
C164 C166 1.406 . S
C164 C169 1.261 . S
C165 H132 0.930 . S
C165 N167 1.325 . S
C165 C168 1.357 . S
C166 H134 0.928 . S
C166 C164 1.406 . S
C166 N167 1.261 . S
N167 Co118 2.214 . S
N167 C165 1.325 . S
N167 C166 1.261 . S
C168 H138 0.931 . S
C168 C165 1.357 . S
C168 C169 1.312 . S
C169 H140 0.930 . S
C169 C164 1.261 . S
C169 C168 1.312 . S
C170 O142 1.214 . S
C170 O150 1.234 . S
C171 H143 0.929 . S
C171 C174 1.391 . S
C171 C176 1.391 . S
C172 H144 0.929 . S
C172 C173 1.390 . S
C172 N175 1.391 . S
C173 H145 0.930 . S
C173 C172 1.390 . S
C173 C174 1.392 . S
C174 H146 0.929 . S
C174 C171 1.391 . S
C174 C173 1.392 . S
N175 Co119 2.257 . S
N175 C172 1.391 . S
N175 C176 1.388 . S
C176 H147 0.930 . S
C176 C171 1.391 . S
C176 N175 1.388 . S
Co177 O179 2.143 . S
Co177 O185 2.074 . S
Co177 O188 2.093 . S
Co177 O201 2.097 . S
Co177 N218 2.151 . S
Co177 N226 2.214 . S
Co178 O179 2.160 . S
Co178 O184 2.058 . S
Co178 O194 2.057 1_545 S
Co178 O209 2.037 . S
Co178 N213 2.145 1_545 S
Co178 N234 2.257 1_545 S
O179 Co177 2.143 . S
O179 Co178 2.160 . S
C180 O181 1.278 1_545 S
C180 O188 1.224 . S
O181 C180 1.278 1_565 S
C182 O183 1.245 . S
C182 O194 1.232 . S
O183 C182 1.245 . S
O184 Co178 2.058 . S
O184 C210 1.269 . S
O185 Co177 2.074 . S
O185 C210 1.257 . S
H186 C211 0.930 . S
H187 C217 0.930 . S
O188 Co177 2.093 . S
O188 C180 1.224 . S
H189 C221 0.929 . S
H190 C223 0.930 . S
H191 C224 0.930 . S
H192 C222 0.929 . S
H193 C225 0.928 . S
O194 Co178 2.057 1_565 S
O194 C182 1.232 . S
H195 C214 0.929 1_545 S
H196 C215 0.929 . S
H197 C227 0.931 . S
H198 C219 0.929 . S
H199 C228 0.930 . S
H200 C220 0.931 . S
O201 Co177 2.097 . S
O201 C229 1.214 . S
H202 C230 0.929 . S
H203 C231 0.929 . S
H204 C232 0.930 . S
H205 C233 0.929 . S
H206 C235 0.930 . S
H207 C212 0.930 . S
H208 C216 0.930 . S
O209 Co178 2.037 . S
O209 C229 1.234 . S
C210 O184 1.269 . S
C210 O185 1.257 . S
C211 H186 0.930 . S
C211 C214 1.388 . S
C211 C216 1.418 . S
C212 H207 0.930 . S
C212 C215 1.404 . S
C212 C216 1.353 . S
N213 Co178 2.145 1_565 S
N213 C214 1.397 . S
N213 C215 1.334 . S
C214 H195 0.929 1_565 S
C214 C211 1.388 . S
C214 N213 1.397 . S
C215 H196 0.929 . S
C215 C212 1.404 . S
C215 N213 1.334 . S
C216 H208 0.930 . S
C216 C211 1.418 . S
C216 C212 1.353 . S
C217 H187 0.930 . S
C217 N218 1.330 . S
C217 C219 1.446 . S
N218 Co177 2.151 . S
N218 C217 1.330 . S
N218 C222 1.418 . S
C219 H198 0.929 . S
C219 C217 1.446 . S
C219 C220 1.332 . S
C220 H200 0.931 . S
C220 C219 1.332 . S
C220 C221 1.267 . S
C221 H189 0.929 . S
C221 C220 1.267 . S
C221 C222 1.251 . S
C222 H192 0.929 . S
C222 N218 1.418 . S
C222 C221 1.251 . S
C223 H190 0.930 . S
C223 C225 1.406 . S
C223 C228 1.261 . S
C224 H191 0.930 . S
C224 N226 1.325 . S
C224 C227 1.357 . S
C225 H193 0.928 . S
C225 C223 1.406 . S
C225 N226 1.261 . S
N226 Co177 2.214 . S
N226 C224 1.325 . S
N226 C225 1.261 . S
C227 H197 0.931 . S
C227 C224 1.357 . S
C227 C228 1.312 . S
C228 H199 0.930 . S
C228 C223 1.261 . S
C228 C227 1.312 . S
C229 O201 1.214 . S
C229 O209 1.234 . S
C230 H202 0.929 . S
C230 C233 1.391 . S
C230 C235 1.391 . S
C231 H203 0.929 . S
C231 C232 1.390 . S
C231 N234 1.391 . S
C232 H204 0.930 . S
C232 C231 1.390 . S
C232 C233 1.392 . S
C233 H205 0.929 . S
C233 C230 1.391 . S
C233 C232 1.392 . S
N234 Co178 2.257 1_565 S
N234 C231 1.391 . S
N234 C235 1.388 . S
C235 H206 0.930 . S
C235 C230 1.391 . S
C235 N234 1.388 . S
Co236 O238 2.143 . S
Co236 O244 2.074 . S
Co236 O247 2.093 . S
Co236 O260 2.097 . S
Co236 N277 2.151 . S
Co236 N285 2.214 . S
Co237 O238 2.160 . S
Co237 O243 2.058 . S
Co237 O253 2.057 . S
Co237 O268 2.037 . S
Co237 N272 2.145 . S
Co237 N293 2.257 . S
O238 Co236 2.143 . S
O238 Co237 2.160 . S
C239 O240 1.278 . S
C239 O247 1.224 . S
O240 C239 1.278 . S
C241 O242 1.245 . S
C241 O253 1.232 . S
O242 C241 1.245 . S
O243 Co237 2.058 . S
O243 C269 1.269 . S
O244 Co236 2.074 . S
O244 C269 1.257 . S
H245 C270 0.930 . S
H246 C276 0.930 . S
O247 Co236 2.093 . S
O247 C239 1.224 . S
H248 C280 0.929 . S
H249 C282 0.930 . S
H250 C283 0.930 . S
H251 C281 0.929 . S
H252 C284 0.928 . S
O253 Co237 2.057 . S
O253 C241 1.232 . S
H254 C273 0.929 . S
H255 C274 0.929 . S
H256 C286 0.931 . S
H257 C278 0.929 . S
H258 C287 0.930 . S
H259 C279 0.931 . S
O260 Co236 2.097 . S
O260 C288 1.214 . S
H261 C289 0.929 . S
H262 C290 0.929 . S
H263 C291 0.930 . S
H264 C292 0.929 . S
H265 C294 0.930 . S
H266 C271 0.930 . S
H267 C275 0.930 . S
O268 Co237 2.037 . S
O268 C288 1.234 . S
C269 O243 1.269 . S
C269 O244 1.257 . S
C270 H245 0.930 . S
C270 C273 1.388 . S
C270 C275 1.418 . S
C271 H266 0.930 . S
C271 C274 1.404 . S
C271 C275 1.353 . S
N272 Co237 2.145 . S
N272 C273 1.397 . S
N272 C274 1.334 . S
C273 H254 0.929 . S
C273 C270 1.388 . S
C273 N272 1.397 . S
C274 H255 0.929 . S
C274 C271 1.404 . S
C274 N272 1.334 . S
C275 H267 0.930 . S
C275 C270 1.418 . S
C275 C271 1.353 . S
C276 H246 0.930 . S
C276 N277 1.330 . S
C276 C278 1.446 . S
N277 Co236 2.151 . S
N277 C276 1.330 . S
N277 C281 1.418 . S
C278 H257 0.929 . S
C278 C276 1.446 . S
C278 C279 1.332 . S
C279 H259 0.931 . S
C279 C278 1.332 . S
C279 C280 1.267 . S
C280 H248 0.929 . S
C280 C279 1.267 . S
C280 C281 1.251 . S
C281 H251 0.929 . S
C281 N277 1.418 . S
C281 C280 1.251 . S
C282 H249 0.930 . S
C282 C284 1.406 . S
C282 C287 1.261 . S
C283 H250 0.930 . S
C283 N285 1.325 . S
C283 C286 1.357 . S
C284 H252 0.928 . S
C284 C282 1.406 . S
C284 N285 1.261 . S
N285 Co236 2.214 . S
N285 C283 1.325 . S
N285 C284 1.261 . S
C286 H256 0.931 . S
C286 C283 1.357 . S
C286 C287 1.312 . S
C287 H258 0.930 . S
C287 C282 1.261 . S
C287 C286 1.312 . S
C288 O260 1.214 . S
C288 O268 1.234 . S
C289 H261 0.929 . S
C289 C292 1.391 . S
C289 C294 1.391 . S
C290 H262 0.929 . S
C290 C291 1.390 . S
C290 N293 1.391 . S
C291 H263 0.930 . S
C291 C290 1.390 . S
C291 C292 1.392 . S
C292 H264 0.929 . S
C292 C289 1.391 . S
C292 C291 1.392 . S
N293 Co237 2.257 . S
N293 C290 1.391 . S
N293 C294 1.388 . S
C294 H265 0.930 . S
C294 C289 1.391 . S
C294 N293 1.388 . S
Co295 O297 2.143 . S
Co295 O303 2.074 1_455 S
Co295 O306 2.093 . S
Co295 O319 2.097 . S
Co295 N336 2.151 1_455 S
Co295 N344 2.214 1_455 S
Co296 O297 2.160 . S
Co296 O302 2.058 . S
Co296 O312 2.057 . S
Co296 O327 2.037 . S
Co296 N331 2.145 1_556 S
Co296 N352 2.257 . S
O297 Co295 2.143 . S
O297 Co296 2.160 . S
C298 O299 1.278 . S
C298 O306 1.224 . S
O299 C298 1.278 . S
C300 O301 1.245 . S
C300 O312 1.232 . S
O301 C300 1.245 . S
O302 Co296 2.058 . S
O302 C328 1.269 . S
O303 Co295 2.074 1_655 S
O303 C328 1.257 1_655 S
H304 C329 0.930 . S
H305 C335 0.930 . S
O306 Co295 2.093 . S
O306 C298 1.224 . S
H307 C339 0.929 . S
H308 C341 0.930 . S
H309 C342 0.930 . S
H310 C340 0.929 . S
H311 C343 0.928 . S
O312 Co296 2.057 . S
O312 C300 1.232 . S
H313 C332 0.929 . S
H314 C333 0.929 1_556 S
H315 C345 0.931 . S
H316 C337 0.929 1_455 S
H317 C346 0.930 . S
H318 C338 0.931 . S
O319 Co295 2.097 . S
O319 C347 1.214 . S
H320 C348 0.929 . S
H321 C349 0.929 1_554 S
H322 C350 0.930 . S
H323 C351 0.929 . S
H324 C353 0.930 . S
H325 C330 0.930 . S
H326 C334 0.930 . S
O327 Co296 2.037 . S
O327 C347 1.234 . S
C328 O302 1.269 . S
C328 O303 1.257 1_455 S
C329 H304 0.930 . S
C329 C332 1.388 . S
C329 C334 1.418 . S
C330 H325 0.930 . S
C330 C333 1.404 . S
C330 C334 1.353 . S
N331 Co296 2.145 1_554 S
N331 C332 1.397 . S
N331 C333 1.334 . S
C332 H313 0.929 . S
C332 C329 1.388 . S
C332 N331 1.397 . S
C333 H314 0.929 1_554 S
C333 C330 1.404 . S
C333 N331 1.334 . S
C334 H326 0.930 . S
C334 C329 1.418 . S
C334 C330 1.353 . S
C335 H305 0.930 . S
C335 N336 1.330 1_455 S
C335 C337 1.446 1_455 S
N336 Co295 2.151 1_655 S
N336 C335 1.330 1_655 S
N336 C340 1.418 . S
C337 H316 0.929 1_655 S
C337 C335 1.446 1_655 S
C337 C338 1.332 . S
C338 H318 0.931 . S
C338 C337 1.332 . S
C338 C339 1.267 . S
C339 H307 0.929 . S
C339 C338 1.267 . S
C339 C340 1.251 . S
C340 H310 0.929 . S
C340 N336 1.418 . S
C340 C339 1.251 . S
C341 H308 0.930 . S
C341 C343 1.406 . S
C341 C346 1.261 . S
C342 H309 0.930 . S
C342 N344 1.325 . S
C342 C345 1.357 . S
C343 H311 0.928 . S
C343 C341 1.406 . S
C343 N344 1.261 . S
N344 Co295 2.214 1_655 S
N344 C342 1.325 . S
N344 C343 1.261 . S
C345 H315 0.931 . S
C345 C342 1.357 . S
C345 C346 1.312 . S
C346 H317 0.930 . S
C346 C341 1.261 . S
C346 C345 1.312 . S
C347 O319 1.214 . S
C347 O327 1.234 . S
C348 H320 0.929 . S
C348 C351 1.391 . S
C348 C353 1.391 . S
C349 H321 0.929 1_556 S
C349 C350 1.390 . S
C349 N352 1.391 . S
C350 H322 0.930 . S
C350 C349 1.390 . S
C350 C351 1.392 . S
C351 H323 0.929 . S
C351 C348 1.391 . S
C351 C350 1.392 . S
N352 Co296 2.257 . S
N352 C349 1.391 . S
N352 C353 1.388 . S
C353 H324 0.930 . S
C353 C348 1.391 . S
C353 N352 1.388 . S
H354 C355 0.951 . S
C355 H354 0.951 . S
C355 C361 1.265 . S
H356 C361 0.950 . S
H357 C365 0.949 . S
H358 C366 0.950 . S
H359 C367 0.951 . S
H360 C368 0.951 . S
C361 C355 1.265 . S
C361 H356 0.950 . S
C361 C362 1.478 . S
C362 C361 1.478 . S
C362 C363 1.397 . S
C362 C379 1.394 . S
C363 C362 1.397 . S
C363 C364 1.438 . S
C363 C368 1.429 . S
C364 C363 1.438 . S
C364 C365 1.428 . S
C364 C377 1.394 . S
C365 H357 0.949 . S
C365 C364 1.428 . S
C365 C366 1.345 . S
C366 H358 0.950 . S
C366 C365 1.345 . S
C366 C367 1.424 . S
C367 H359 0.951 . S
C367 C366 1.424 . S
C367 C368 1.347 . S
C368 H360 0.951 . S
C368 C363 1.429 . S
C368 C367 1.347 . S
H369 C370 0.951 . S
C370 H369 0.951 . S
C370 C376 1.265 . S
H371 C376 0.950 . S
H372 C380 0.949 . S
H373 C381 0.950 . S
H374 C382 0.951 . S
H375 C383 0.951 . S
C376 C370 1.265 . S
C376 H371 0.950 . S
C376 C377 1.478 . S
C377 C364 1.394 . S
C377 C376 1.478 . S
C377 C378 1.409 . S
C378 C377 1.409 . S
C378 C379 1.433 . S
C378 C383 1.422 1_545 S
C379 C362 1.394 . S
C379 C378 1.433 . S
C379 C380 1.428 1_545 S
C380 H372 0.949 . S
C380 C379 1.428 1_565 S
C380 C381 1.345 . S
C381 H373 0.950 . S
C381 C380 1.345 . S
C381 C382 1.424 . S
C382 H374 0.951 . S
C382 C381 1.424 . S
C382 C383 1.347 . S
C383 H375 0.951 . S
C383 C378 1.422 1_565 S
C383 C382 1.347 . S
H384 C385 0.951 . S
C385 H384 0.951 . S
C385 C391 1.265 . S
H386 C391 0.950 . S
H387 C395 0.949 . S
H388 C396 0.950 . S
H389 C397 0.951 . S
H390 C398 0.951 . S
C391 C385 1.265 . S
C391 H386 0.950 . S
C391 C392 1.478 . S
C392 C391 1.478 . S
C392 C393 1.397 . S
C392 C409 1.394 . S
C393 C392 1.397 . S
C393 C394 1.438 . S
C393 C398 1.429 . S
C394 C393 1.438 . S
C394 C395 1.428 . S
C394 C407 1.394 . S
C395 H387 0.949 . S
C395 C394 1.428 . S
C395 C396 1.345 . S
C396 H388 0.950 . S
C396 C395 1.345 . S
C396 C397 1.424 . S
C397 H389 0.951 . S
C397 C396 1.424 . S
C397 C398 1.347 . S
C398 H390 0.951 . S
C398 C393 1.429 . S
C398 C397 1.347 . S
H399 C400 0.951 . S
C400 H399 0.951 . S
C400 C406 1.265 . S
H401 C406 0.950 . S
H402 C410 0.949 . S
H403 C411 0.950 . S
H404 C412 0.951 . S
H405 C413 0.951 . S
C406 C400 1.265 . S
C406 H401 0.950 . S
C406 C407 1.478 . S
C407 C394 1.394 . S
C407 C406 1.478 . S
C407 C408 1.397 . S
C408 C407 1.397 . S
C408 C409 1.438 . S
C408 C413 1.429 . S
C409 C392 1.394 . S
C409 C408 1.438 . S
C409 C410 1.428 . S
C410 H402 0.949 . S
C410 C409 1.428 . S
C410 C411 1.345 . S
C411 H403 0.950 . S
C411 C410 1.345 . S
C411 C412 1.424 . S
C412 H404 0.951 . S
C412 C411 1.424 . S
C412 C413 1.347 . S
C413 H405 0.951 . S
C413 C408 1.429 . S
C413 C412 1.347 . S
H414 C415 0.951 . S
C415 H414 0.951 . S
C415 C421 1.265 . S
H416 C421 0.950 . S
H417 C425 0.949 . S
H418 C426 0.950 . S
H419 C427 0.951 . S
H420 C428 0.951 . S
C421 C415 1.265 . S
C421 H416 0.950 . S
C421 C422 1.478 . S
C422 C421 1.478 . S
C422 C423 1.397 . S
C422 C439 1.394 . S
C423 C422 1.397 . S
C423 C424 1.438 . S
C423 C428 1.429 . S
C424 C423 1.438 . S
C424 C425 1.428 . S
C424 C437 1.394 . S
C425 H417 0.949 . S
C425 C424 1.428 . S
C425 C426 1.345 . S
C426 H418 0.950 . S
C426 C425 1.345 . S
C426 C427 1.424 . S
C427 H419 0.951 . S
C427 C426 1.424 . S
C427 C428 1.347 . S
C428 H420 0.951 . S
C428 C423 1.429 . S
C428 C427 1.347 . S
H429 C430 0.951 . S
C430 H429 0.951 . S
C430 C436 1.265 . S
H431 C436 0.950 . S
H432 C440 0.949 . S
H433 C441 0.950 . S
H434 C442 0.951 . S
H435 C443 0.951 . S
C436 C430 1.265 . S
C436 H431 0.950 . S
C436 C437 1.478 . S
C437 C424 1.394 . S
C437 C436 1.478 . S
C437 C438 1.397 . S
C438 C437 1.397 . S
C438 C439 1.438 . S
C438 C443 1.429 . S
C439 C422 1.394 . S
C439 C438 1.438 . S
C439 C440 1.428 . S
C440 H432 0.949 . S
C440 C439 1.428 . S
C440 C441 1.345 . S
C441 H433 0.950 . S
C441 C440 1.345 . S
C441 C442 1.424 . S
C442 H434 0.951 . S
C442 C441 1.424 . S
C442 C443 1.347 . S
C443 H435 0.951 . S
C443 C438 1.429 . S
C443 C442 1.347 . S
H444 C445 0.951 . S
C445 H444 0.951 . S
C445 C451 1.265 . S
H446 C451 0.950 . S
H447 C455 0.949 . S
H448 C456 0.950 . S
H449 C457 0.951 . S
H450 C458 0.951 . S
C451 C445 1.265 . S
C451 H446 0.950 . S
C451 C452 1.478 . S
C452 C451 1.478 . S
C452 C453 1.397 . S
C452 C469 1.394 . S
C453 C452 1.397 . S
C453 C454 1.438 . S
C453 C458 1.429 . S
C454 C453 1.438 . S
C454 C455 1.428 . S
C454 C467 1.394 . S
C455 H447 0.949 . S
C455 C454 1.428 . S
C455 C456 1.345 . S
C456 H448 0.950 . S
C456 C455 1.345 . S
C456 C457 1.424 . S
C457 H449 0.951 . S
C457 C456 1.424 . S
C457 C458 1.347 . S
C458 H450 0.951 . S
C458 C453 1.429 . S
C458 C457 1.347 . S
H459 C460 0.951 . S
C460 H459 0.951 . S
C460 C466 1.265 . S
H461 C466 0.950 . S
H462 C470 0.949 1_545 S
H463 C471 0.950 . S
H464 C472 0.951 . S
H465 C473 0.951 . S
C466 C460 1.265 . S
C466 H461 0.950 . S
C466 C467 1.478 . S
C467 C454 1.394 . S
C467 C466 1.478 . S
C467 C468 1.397 . S
C468 C467 1.397 . S
C468 C469 1.438 . S
C468 C473 1.429 1_545 S
C469 C452 1.394 . S
C469 C468 1.438 . S
C469 C470 1.428 1_545 S
C470 H462 0.949 1_565 S
C470 C469 1.428 1_565 S
C470 C471 1.345 . S
C471 H463 0.950 . S
C471 C470 1.345 . S
C471 C472 1.424 . S
C472 H464 0.951 . S
C472 C471 1.424 . S
C472 C473 1.347 . S
C473 H465 0.951 . S
C473 C468 1.429 1_565 S
C473 C472 1.347 . S
H474 C475 0.951 . S
C475 H474 0.951 . S
C475 C481 1.265 . S
H476 C481 0.950 . S
H477 C485 0.949 . S
H478 C486 0.950 . S
H479 C487 0.951 . S
H480 C488 0.951 . S
C481 C475 1.265 . S
C481 H476 0.950 . S
C481 C482 1.478 . S
C482 C481 1.478 . S
C482 C483 1.397 1_554 S
C482 C499 1.394 1_554 S
C483 C482 1.397 1_556 S
C483 C484 1.438 . S
C483 C488 1.429 1_556 S
C484 C483 1.438 . S
C484 C485 1.428 . S
C484 C497 1.394 . S
C485 H477 0.949 . S
C485 C484 1.428 . S
C485 C486 1.345 . S
C486 H478 0.950 . S
C486 C485 1.345 . S
C486 C487 1.424 1_556 S
C487 H479 0.951 . S
C487 C486 1.424 1_554 S
C487 C488 1.347 . S
C488 H480 0.951 . S
C488 C483 1.429 1_554 S
C488 C487 1.347 . S
H489 C490 0.951 . S
C490 H489 0.951 . S
C490 C496 1.265 . S
H491 C496 0.950 . S
H492 C500 0.949 1_554 S
H493 C501 0.950 . S
H494 C502 0.951 . S
H495 C503 0.951 . S
C496 C490 1.265 . S
C496 H491 0.950 . S
C496 C497 1.478 . S
C497 C484 1.394 . S
C497 C496 1.478 . S
C497 C498 1.397 . S
C498 C497 1.397 . S
C498 C499 1.438 . S
C498 C503 1.429 . S
C499 C482 1.394 1_556 S
C499 C498 1.438 . S
C499 C500 1.428 . S
C500 H492 0.949 1_556 S
C500 C499 1.428 . S
C500 C501 1.345 . S
C501 H493 0.950 . S
C501 C500 1.345 . S
C501 C502 1.424 . S
C502 H494 0.951 . S
C502 C501 1.424 . S
C502 C503 1.347 . S
C503 H495 0.951 . S
C503 C498 1.429 . S
C503 C502 1.347 . S
H504 C505 0.951 . S
C505 H504 0.951 . S
C505 C511 1.265 . S
H506 C511 0.950 1_655 S
H507 C515 0.949 . S
H508 C516 0.950 . S
H509 C517 0.951 . S
H510 C518 0.951 . S
C511 C505 1.265 . S
C511 H506 0.950 1_455 S
C511 C512 1.478 . S
C512 C511 1.478 . S
C512 C513 1.397 . S
C512 C529 1.394 . S
C513 C512 1.397 . S
C513 C514 1.438 . S
C513 C518 1.429 1_455 S
C514 C513 1.438 . S
C514 C515 1.428 1_455 S
C514 C527 1.394 . S
C515 H507 0.949 . S
C515 C514 1.428 1_655 S
C515 C516 1.345 . S
C516 H508 0.950 . S
C516 C515 1.345 . S
C516 C517 1.424 . S
C517 H509 0.951 . S
C517 C516 1.424 . S
C517 C518 1.347 . S
C518 H510 0.951 . S
C518 C513 1.429 1_655 S
C518 C517 1.347 . S
H519 C520 0.951 1_655 S
C520 H519 0.951 1_455 S
C520 C526 1.265 . S
H521 C526 0.950 . S
H522 C530 0.949 . S
H523 C531 0.958 . S
H524 C532 0.951 . S
H525 C533 0.951 . S
C526 C520 1.265 . S
C526 H521 0.950 . S
C526 C527 1.478 . S
C527 C514 1.394 . S
C527 C526 1.478 . S
C527 C528 1.397 . S
C528 C527 1.397 . S
C528 C529 1.438 . S
C528 C533 1.429 . S
C529 C512 1.394 . S
C529 C528 1.438 . S
C529 C530 1.428 . S
C530 H522 0.949 . S
C530 C529 1.428 . S
C530 C531 1.345 . S
C531 H523 0.958 . S
C531 C530 1.345 . S
C531 C532 1.424 . S
C532 H524 0.951 . S
C532 C531 1.424 . S
C532 C533 1.347 . S
C533 H525 0.951 . S
C533 C528 1.429 . S
C533 C532 1.347 . S
H534 C535 0.951 . S
C535 H534 0.951 . S
C535 C541 1.265 . S
H536 C541 0.950 . S
H537 C545 0.949 . S
H538 C546 0.950 . S
H539 C547 0.951 . S
H540 C548 0.951 . S
C541 C535 1.265 . S
C541 H536 0.950 . S
C541 C542 1.478 . S
C542 C541 1.478 . S
C542 C543 1.397 . S
C542 C559 1.394 . S
C543 C542 1.397 . S
C543 C544 1.438 . S
C543 C548 1.429 . S
C544 C543 1.438 . S
C544 C545 1.428 . S
C544 C557 1.394 . S
C545 H537 0.949 . S
C545 C544 1.428 . S
C545 C546 1.345 . S
C546 H538 0.950 . S
C546 C545 1.345 . S
C546 C547 1.424 . S
C547 H539 0.951 . S
C547 C546 1.424 . S
C547 C548 1.347 . S
C548 H540 0.951 . S
C548 C543 1.429 . S
C548 C547 1.347 . S
H549 C550 0.951 . S
C550 H549 0.951 . S
C550 C556 1.265 . S
H551 C556 0.950 . S
H552 C560 0.949 . S
H553 C561 0.950 . S
H554 C562 0.951 . S
H555 C563 0.951 . S
C556 C550 1.265 . S
C556 H551 0.950 . S
C556 C557 1.478 . S
C557 C544 1.394 . S
C557 C556 1.478 . S
C557 C558 1.397 . S
C558 C557 1.397 . S
C558 C559 1.438 . S
C558 C563 1.429 . S
C559 C542 1.394 . S
C559 C558 1.438 . S
C559 C560 1.428 . S
C560 H552 0.949 . S
C560 C559 1.428 . S
C560 C561 1.345 . S
C561 H553 0.950 . S
C561 C560 1.345 . S
C561 C562 1.424 . S
C562 H554 0.951 . S
C562 C561 1.424 . S
C562 C563 1.347 . S
C563 H555 0.951 . S
C563 C558 1.429 . S
C563 C562 1.347 . S
H564 C565 0.951 . S
C565 H564 0.951 . S
C565 C571 1.265 . S
H566 C571 0.950 . S
H567 C575 0.949 . S
H568 C576 0.950 . S
H569 C577 0.951 . S
H570 C578 0.951 . S
C571 C565 1.265 . S
C571 H566 0.950 . S
C571 C572 1.478 . S
C572 C571 1.478 . S
C572 C573 1.397 . S
C572 C589 1.394 . S
C573 C572 1.397 . S
C573 C574 1.438 . S
C573 C578 1.429 . S
C574 C573 1.438 . S
C574 C575 1.428 . S
C574 C587 1.394 . S
C575 H567 0.949 . S
C575 C574 1.428 . S
C575 C576 1.345 . S
C576 H568 0.950 . S
C576 C575 1.345 . S
C576 C577 1.424 . S
C577 H569 0.951 . S
C577 C576 1.424 . S
C577 C578 1.347 . S
C578 H570 0.951 . S
C578 C573 1.429 . S
C578 C577 1.347 . S
H579 C580 0.951 . S
C580 H579 0.951 . S
C580 C586 1.265 . S
H581 C586 0.950 . S
H582 C590 0.949 . S
H583 C591 0.950 . S
H584 C592 0.951 . S
H585 C593 0.951 . S
C586 C580 1.265 . S
C586 H581 0.950 . S
C586 C587 1.478 . S
C587 C574 1.394 . S
C587 C586 1.478 . S
C587 C588 1.397 . S
C588 C587 1.397 . S
C588 C589 1.438 . S
C588 C593 1.429 . S
C589 C572 1.394 . S
C589 C588 1.438 . S
C589 C590 1.428 . S
C590 H582 0.949 . S
C590 C589 1.428 . S
C590 C591 1.345 . S
C591 H583 0.950 . S
C591 C590 1.345 . S
C591 C592 1.424 . S
C592 H584 0.951 . S
C592 C591 1.424 . S
C592 C593 1.347 . S
C593 H585 0.951 . S
C593 C588 1.429 . S
C593 C592 1.347 . S
H594 C595 0.951 . S
C595 H594 0.951 . S
C595 C601 1.265 . S
H596 C601 0.950 . S
H597 C605 0.949 . S
H598 C606 0.950 . S
H599 C607 0.951 . S
H600 C608 0.951 . S
C601 C595 1.265 . S
C601 H596 0.950 . S
C601 C602 1.478 . S
C602 C601 1.478 . S
C602 C603 1.397 . S
C602 C619 1.394 . S
C603 C602 1.397 . S
C603 C604 1.438 . S
C603 C608 1.429 . S
C604 C603 1.438 . S
C604 C605 1.428 . S
C604 C617 1.394 . S
C605 H597 0.949 . S
C605 C604 1.428 . S
C605 C606 1.345 . S
C606 H598 0.950 . S
C606 C605 1.345 . S
C606 C607 1.424 . S
C607 H599 0.951 . S
C607 C606 1.424 . S
C607 C608 1.347 . S
C608 H600 0.951 . S
C608 C603 1.429 . S
C608 C607 1.347 . S
H609 C610 0.951 . S
C610 H609 0.951 . S
C610 C616 1.265 . S
H611 C616 0.950 . S
H612 C620 0.949 . S
H613 C621 0.950 . S
H614 C622 0.951 . S
H615 C623 0.951 . S
C616 C610 1.265 . S
C616 H611 0.950 . S
C616 C617 1.478 . S
C617 C604 1.394 . S
C617 C616 1.478 . S
C617 C618 1.397 . S
C618 C617 1.397 . S
C618 C619 1.438 . S
C618 C623 1.429 . S
C619 C602 1.394 . S
C619 C618 1.438 . S
C619 C620 1.428 . S
C620 H612 0.949 . S
C620 C619 1.428 . S
C620 C621 1.345 . S
C621 H613 0.950 . S
C621 C620 1.345 . S
C621 C622 1.424 . S
C622 H614 0.951 . S
C622 C621 1.424 . S
C622 C623 1.347 . S
C623 H615 0.951 . S
C623 C618 1.429 . S
C623 C622 1.347 . S
H624 C625 0.951 . S
C625 H624 0.951 . S
C625 C631 1.265 . S
H626 C631 0.950 . S
H627 C635 0.949 . S
H628 C636 0.950 . S
H629 C637 0.951 . S
H630 C638 0.951 . S
C631 C625 1.265 . S
C631 H626 0.950 . S
C631 C632 1.478 . S
C632 C631 1.478 . S
C632 C633 1.397 . S
C632 C649 1.394 . S
C633 C632 1.397 . S
C633 C634 1.438 . S
C633 C638 1.429 . S
C634 C633 1.438 . S
C634 C635 1.428 . S
C634 C647 1.394 . S
C635 H627 0.949 . S
C635 C634 1.428 . S
C635 C636 1.345 . S
C636 H628 0.950 . S
C636 C635 1.345 . S
C636 C637 1.424 . S
C637 H629 0.951 . S
C637 C636 1.424 . S
C637 C638 1.347 . S
C638 H630 0.951 . S
C638 C633 1.429 . S
C638 C637 1.347 . S
H639 C640 0.951 . S
C640 H639 0.951 . S
C640 C646 1.265 . S
H641 C646 0.950 . S
H642 C650 0.949 . S
H643 C651 0.950 . S
H644 C652 0.951 . S
H645 C653 0.951 . S
C646 C640 1.265 . S
C646 H641 0.950 . S
C646 C647 1.478 . S
C647 C634 1.394 . S
C647 C646 1.478 . S
C647 C648 1.397 . S
C648 C647 1.397 . S
C648 C649 1.438 . S
C648 C653 1.429 . S
C649 C632 1.394 . S
C649 C648 1.438 . S
C649 C650 1.428 . S
C650 H642 0.949 . S
C650 C649 1.428 . S
C650 C651 1.345 . S
C651 H643 0.950 . S
C651 C650 1.345 . S
C651 C652 1.424 . S
C652 H644 0.951 . S
C652 C651 1.424 . S
C652 C653 1.347 . S
C653 H645 0.951 . S
C653 C648 1.429 . S
C653 C652 1.347 . S
H654 C655 0.951 . S
C655 H654 0.951 . S
C655 C661 1.265 . S
H656 C661 0.950 . S
H657 C665 0.949 . S
H658 C666 0.950 . S
H659 C667 0.951 . S
H660 C668 0.951 . S
C661 C655 1.265 . S
C661 H656 0.950 . S
C661 C662 1.478 . S
C662 C661 1.478 . S
C662 C663 1.397 . S
C662 C679 1.394 . S
C663 C662 1.397 . S
C663 C664 1.438 . S
C663 C668 1.429 . S
C664 C663 1.438 . S
C664 C665 1.428 . S
C664 C677 1.394 . S
C665 H657 0.949 . S
C665 C664 1.428 . S
C665 C666 1.345 . S
C666 H658 0.950 . S
C666 C665 1.345 . S
C666 C667 1.424 . S
C667 H659 0.951 . S
C667 C666 1.424 . S
C667 C668 1.347 . S
C668 H660 0.951 . S
C668 C663 1.429 . S
C668 C667 1.347 . S
H669 C670 0.951 . S
C670 H669 0.951 . S
C670 C676 1.265 . S
H671 C676 0.950 . S
H672 C680 0.949 . S
H673 C681 0.950 . S
H674 C682 0.951 . S
H675 C683 0.951 . S
C676 C670 1.265 . S
C676 H671 0.950 . S
C676 C677 1.478 . S
C677 C664 1.394 . S
C677 C676 1.478 . S
C677 C678 1.397 . S
C678 C677 1.397 . S
C678 C679 1.438 . S
C678 C683 1.429 . S
C679 C662 1.394 . S
C679 C678 1.438 . S
C679 C680 1.428 . S
C680 H672 0.949 . S
C680 C679 1.428 . S
C680 C681 1.345 . S
C681 H673 0.950 . S
C681 C680 1.345 . S
C681 C682 1.424 . S
C682 H674 0.951 . S
C682 C681 1.424 . S
C682 C683 1.347 . S
C683 H675 0.951 . S
C683 C678 1.429 . S
C683 C682 1.347 . S
H684 C685 0.951 . S
C685 H684 0.951 . S
C685 C691 1.265 . S
H686 C691 0.950 . S
H687 C695 0.949 . S
H688 C696 0.950 . S
H689 C697 0.951 . S
H690 C698 0.951 . S
C691 C685 1.265 . S
C691 H686 0.950 . S
C691 C692 1.478 . S
C692 C691 1.478 . S
C692 C693 1.397 . S
C692 C709 1.394 1_556 S
C693 C692 1.397 . S
C693 C694 1.438 . S
C693 C698 1.429 . S
C694 C693 1.438 . S
C694 C695 1.428 . S
C694 C707 1.394 . S
C695 H687 0.949 . S
C695 C694 1.428 . S
C695 C696 1.345 . S
C696 H688 0.950 . S
C696 C695 1.345 . S
C696 C697 1.424 . S
C697 H689 0.951 . S
C697 C696 1.424 . S
C697 C698 1.347 . S
C698 H690 0.951 . S
C698 C693 1.429 . S
C698 C697 1.347 . S
H699 C700 0.951 1_556 S
C700 H699 0.951 1_554 S
C700 C706 1.265 . S
H701 C706 0.950 . S
H702 C710 0.949 . S
H703 C711 0.950 . S
H704 C712 0.951 . S
H705 C713 0.951 . S
C706 C700 1.265 . S
C706 H701 0.950 . S
C706 C707 1.478 1_554 S
C707 C694 1.394 . S
C707 C706 1.478 1_556 S
C707 C708 1.397 1_556 S
C708 C707 1.397 1_554 S
C708 C709 1.438 . S
C708 C713 1.429 . S
C709 C692 1.394 1_554 S
C709 C708 1.438 . S
C709 C710 1.428 . S
C710 H702 0.949 . S
C710 C709 1.428 . S
C710 C711 1.345 . S
C711 H703 0.950 . S
C711 C710 1.345 . S
C711 C712 1.424 . S
C712 H704 0.951 . S
C712 C711 1.424 . S
C712 C713 1.347 . S
C713 H705 0.951 . S
C713 C708 1.429 . S
C713 C712 1.347 . S
C355 C52 1.829 . S
C370 C180 1.813 . S
C385 C111 1.822 . S
C400 C239 1.831 . S
C415 C298 1.806 . S
C430 C170 1.842 . S
C445 C3 1.835 . S
C460 C229 1.841 . S
C475 C62 1.826 . S
C490 C288 1.823 . S
C505 C347 1.825 1_554 S
C520 C121 1.842 . S
C535 C64 1.400 . S
C550 C33 1.423 1_565 S
C565 C123 1.415 . S
C580 C92 1.412 . S
C595 C151 1.378 . S
C610 C182 1.419 . S
C625 C241 1.389 . S
C640 C210 1.418 . S
C655 C300 1.413 . S
C670 C269 1.414 . S
C685 C328 1.420 1_655 S
C700 C5 1.392 . S
