# Generated by pormake.
# Topology ske, (6)-cn, num edge types: 1
# Building blocks:
#     Node 0, Type 0, BuildingBlock: CUWYAW_clean_sbu_0, # of connection points: 6
#     Node 1, Type 0, BuildingBlock: CUWYAW_clean_sbu_0, # of connection points: 6
#     Node 2, Type 0, BuildingBlock: CUWYAW_clean_sbu_0, # of connection points: 6
#     Node 3, Type 0, BuildingBlock: CUWYAW_clean_sbu_0, # of connection points: 6
#     Node 4, Type 0, BuildingBlock: CUWYAW_clean_sbu_0, # of connection points: 6
#     Node 5, Type 0, BuildingBlock: CUWYAW_clean_sbu_0, # of connection points: 6
#     Node 6, Type 0, BuildingBlock: CUWYAW_clean_sbu_0, # of connection points: 6
#     Node 7, Type 0, BuildingBlock: CUWYAW_clean_sbu_0, # of connection points: 6
#     Edge 8, Type (0, 0), BuildingBlock: AJUNOK_clean_linker_0, # of connection points: 2
#     Edge 9, Type (0, 0), BuildingBlock: AJUNOK_clean_linker_0, # of connection points: 2
#     Edge 10, Type (0, 0), BuildingBlock: AJUNOK_clean_linker_0, # of connection points: 2
#     Edge 11, Type (0, 0), BuildingBlock: AJUNOK_clean_linker_0, # of connection points: 2
#     Edge 12, Type (0, 0), BuildingBlock: AJUNOK_clean_linker_0, # of connection points: 2
#     Edge 13, Type (0, 0), BuildingBlock: AJUNOK_clean_linker_0, # of connection points: 2
#     Edge 14, Type (0, 0), BuildingBlock: AJUNOK_clean_linker_0, # of connection points: 2
#     Edge 15, Type (0, 0), BuildingBlock: AJUNOK_clean_linker_0, # of connection points: 2
#     Edge 16, Type (0, 0), BuildingBlock: AJUNOK_clean_linker_0, # of connection points: 2
#     Edge 17, Type (0, 0), BuildingBlock: AJUNOK_clean_linker_0, # of connection points: 2
#     Edge 18, Type (0, 0), BuildingBlock: AJUNOK_clean_linker_0, # of connection points: 2
#     Edge 19, Type (0, 0), BuildingBlock: AJUNOK_clean_linker_0, # of connection points: 2
#     Edge 20, Type (0, 0), BuildingBlock: AJUNOK_clean_linker_0, # of connection points: 2
#     Edge 21, Type (0, 0), BuildingBlock: AJUNOK_clean_linker_0, # of connection points: 2
#     Edge 22, Type (0, 0), BuildingBlock: AJUNOK_clean_linker_0, # of connection points: 2
#     Edge 23, Type (0, 0), BuildingBlock: AJUNOK_clean_linker_0, # of connection points: 2
#     Edge 24, Type (0, 0), BuildingBlock: AJUNOK_clean_linker_0, # of connection points: 2
#     Edge 25, Type (0, 0), BuildingBlock: AJUNOK_clean_linker_0, # of connection points: 2
#     Edge 26, Type (0, 0), BuildingBlock: AJUNOK_clean_linker_0, # of connection points: 2
#     Edge 27, Type (0, 0), BuildingBlock: AJUNOK_clean_linker_0, # of connection points: 2
#     Edge 28, Type (0, 0), BuildingBlock: AJUNOK_clean_linker_0, # of connection points: 2
#     Edge 29, Type (0, 0), BuildingBlock: AJUNOK_clean_linker_0, # of connection points: 2
#     Edge 30, Type (0, 0), BuildingBlock: AJUNOK_clean_linker_0, # of connection points: 2
#     Edge 31, Type (0, 0), BuildingBlock: AJUNOK_clean_linker_0, # of connection points: 2
# Relax obj value: 0.180
# Max RMSD: 0.199
# Mean RMSD: 0.191
data_MOF--net-ske--node1-CUWYAW_clean_sbu_0--edge1-AJUNOK_clean_linker_0
_symmetry_space_group_name_H-M    P1
_symmetry_Int_Tables_number       1
_symmetry_cell_setting            triclinic
loop_
_symmetry_equiv_pos_as_xyz
'x, y, z'
_cell_length_a     87.513173
_cell_length_b     21.101887
_cell_length_c     11.512702
_cell_angle_alpha  89.83095
_cell_angle_beta   89.857558
_cell_angle_gamma 97.51
loop_
_atom_site_label
_atom_site_type_symbol
_atom_site_fract_x
_atom_site_fract_y
_atom_site_fract_z
_atom_type_partial_charge
C0 C 0.19681 0.23377 0.53955 0.0
Eu1 Eu 0.1687 0.26127 0.52094 0.0
C2 C 0.21215 0.24713 0.59408 0.0
C3 C 0.22268 0.30068 0.56293 0.0
C4 C 0.23775 0.30783 0.60643 0.0
C5 C 0.24251 0.26166 0.68174 0.0
C6 C 0.23193 0.2084 0.71283 0.0
C7 C 0.21694 0.20126 0.66953 0.0
C8 C 0.15864 0.37847 0.50936 0.0
C9 C 0.15054 0.25731 0.7709 0.0
C10 C 0.10539 0.29755 0.52258 0.0
Eu11 Eu 0.13249 0.25955 0.52376 0.0
C12 C 0.0893 0.28377 0.4816 0.0
C13 C 0.07987 0.22751 0.51498 0.0
C14 C 0.06397 0.22131 0.49653 0.0
C15 C 0.05722 0.2711 0.44437 0.0
C16 C 0.06676 0.32515 0.40306 0.0
C17 C 0.08267 0.33156 0.42212 0.0
C18 C 0.13977 0.13686 0.49842 0.0
C19 C 0.15048 0.25355 0.27948 0.0
O20 O 0.18536 0.20837 0.60492 0.0
O21 O 0.19266 0.27381 0.46227 0.0
O22 O 0.17142 0.36532 0.46356 0.0
O23 O 0.15262 0.33105 0.56821 0.0
O24 O 0.16374 0.2548 0.71511 0.0
O25 O 0.1376 0.26391 0.71574 0.0
O26 O 0.11617 0.31785 0.44688 0.0
O27 O 0.10996 0.25951 0.6019 0.0
O28 O 0.12574 0.1507 0.50358 0.0
O29 O 0.14859 0.18875 0.50571 0.0
O30 O 0.13901 0.27573 0.33469 0.0
O31 O 0.16215 0.23383 0.33602 0.0
H32 H 0.2194 0.33635 0.50341 0.0
H33 H 0.24571 0.34924 0.58087 0.0
H34 H 0.23538 0.17123 0.76827 0.0
H35 H 0.20919 0.15873 0.69263 0.0
H36 H 0.08464 0.18964 0.56052 0.0
H37 H 0.05683 0.17882 0.52781 0.0
H38 H 0.0618 0.36416 0.36271 0.0
H39 H 0.08969 0.37546 0.396 0.0
C40 C 0.84989 0.29741 0.51539 0.0
Eu41 Eu 0.87716 0.25991 0.51604 0.0
C42 C 0.83457 0.28916 0.57207 0.0
C43 C 0.8258 0.22882 0.5852 0.0
C44 C 0.81085 0.22352 0.63153 0.0
C45 C 0.80445 0.27833 0.66613 0.0
C46 C 0.81332 0.33846 0.65366 0.0
C47 C 0.82821 0.34375 0.60719 0.0
C48 C 0.88531 0.13823 0.52841 0.0
C49 C 0.89485 0.25286 0.75975 0.0
C50 C 0.94247 0.24362 0.52775 0.0
Eu51 Eu 0.91383 0.2638 0.50908 0.0
C52 C 0.95867 0.26021 0.48976 0.0
C53 C 0.96837 0.30946 0.54463 0.0
C54 C 0.98429 0.3163 0.52609 0.0
C55 C 0.99083 0.27384 0.453 0.0
C56 C 0.9811 0.22733 0.39222 0.0
C57 C 0.96516 0.22031 0.41097 0.0
C58 C 0.90291 0.37833 0.48057 0.0
C59 C 0.89564 0.25734 0.26883 0.0
O60 O 0.86152 0.32581 0.57527 0.0
O61 O 0.85363 0.25073 0.45072 0.0
O62 O 0.87113 0.15056 0.53216 0.0
O63 O 0.89381 0.19087 0.51906 0.0
O64 O 0.88167 0.26047 0.70842 0.0
O65 O 0.90768 0.247 0.70059 0.0
O66 O 0.93273 0.21328 0.45429 0.0
O67 O 0.93621 0.2839 0.59357 0.0
O68 O 0.91552 0.36463 0.43253 0.0
O69 O 0.89756 0.33264 0.54534 0.0
O70 O 0.90767 0.24011 0.32383 0.0
O71 O 0.88374 0.27595 0.32507 0.0
H72 H 0.83039 0.18588 0.5585 0.0
H73 H 0.80428 0.17655 0.64037 0.0
H74 H 0.80861 0.38164 0.67729 0.0
H75 H 0.83468 0.39083 0.5966 0.0
H76 H 0.96378 0.34076 0.60634 0.0
H77 H 0.99159 0.35303 0.57293 0.0
H78 H 0.98589 0.19392 0.33574 0.0
H79 H 0.95803 0.18139 0.36844 0.0
C80 C 0.10214 0.77821 0.54628 0.0
Eu81 Eu 0.13052 0.75293 0.53235 0.0
C82 C 0.08651 0.77092 0.59804 0.0
C83 C 0.07687 0.71211 0.59791 0.0
C84 C 0.06119 0.70942 0.62592 0.0
C85 C 0.05486 0.76547 0.65382 0.0
C86 C 0.0647 0.82356 0.65947 0.0
C87 C 0.08034 0.8262 0.63212 0.0
C88 C 0.14032 0.63552 0.52436 0.0
C89 C 0.14784 0.75439 0.78165 0.0
C90 C 0.19398 0.73629 0.52635 0.0
Eu91 Eu 0.16521 0.75749 0.53817 0.0
C92 C 0.2091 0.74877 0.46611 0.0
C93 C 0.21988 0.80145 0.49693 0.0
C94 C 0.23496 0.80776 0.45336 0.0
C95 C 0.23964 0.76153 0.37815 0.0
C96 C 0.22879 0.70956 0.34556 0.0
C97 C 0.21371 0.7032 0.38913 0.0
C98 C 0.15529 0.87567 0.53907 0.0
C99 C 0.14806 0.75845 0.28863 0.0
O100 O 0.11357 0.81047 0.60245 0.0
O101 O 0.10635 0.73172 0.48386 0.0
O102 O 0.12784 0.64898 0.47542 0.0
O103 O 0.14616 0.68195 0.58575 0.0
O104 O 0.13579 0.76911 0.72351 0.0
O105 O 0.15981 0.73645 0.72698 0.0
O106 O 0.18265 0.70058 0.47499 0.0
O107 O 0.18929 0.78232 0.58718 0.0
O108 O 0.16767 0.8624 0.58986 0.0
O109 O 0.14953 0.82774 0.48158 0.0
O110 O 0.16011 0.74231 0.34535 0.0
O111 O 0.13618 0.77602 0.34518 0.0
H112 H 0.08126 0.66877 0.57101 0.0
H113 H 0.05385 0.66409 0.6193 0.0
H114 H 0.06016 0.86745 0.681 0.0
H115 H 0.08748 0.87222 0.63184 0.0
H116 H 0.21685 0.83674 0.558 0.0
H117 H 0.24312 0.84765 0.48208 0.0
H118 H 0.23204 0.67324 0.28752 0.0
H119 H 0.2058 0.66145 0.36532 0.0
C120 C 0.94093 0.73706 0.53557 0.0
Eu121 Eu 0.9125 0.7618 0.52435 0.0
C122 C 0.95631 0.74358 0.59058 0.0
C123 C 0.96462 0.80361 0.61507 0.0
C124 C 0.98024 0.80869 0.64549 0.0
C125 C 0.98786 0.75394 0.65165 0.0
C126 C 0.97928 0.69379 0.6324 0.0
C127 C 0.96368 0.68874 0.60259 0.0
C128 C 0.90258 0.87935 0.52222 0.0
C129 C 0.89504 0.75998 0.77466 0.0
C130 C 0.84901 0.77248 0.51985 0.0
Eu131 Eu 0.87801 0.75515 0.53174 0.0
C132 C 0.83416 0.76456 0.45729 0.0
C133 C 0.82551 0.70429 0.4406 0.0
C134 C 0.81053 0.69953 0.39565 0.0
C135 C 0.80392 0.7549 0.36722 0.0
C136 C 0.81275 0.81487 0.38138 0.0
C137 C 0.82769 0.8196 0.42585 0.0
C138 C 0.8887 0.63928 0.53503 0.0
C139 C 0.89511 0.75928 0.28096 0.0
O140 O 0.9294 0.7009 0.58473 0.0
O141 O 0.93674 0.78645 0.48112 0.0
O142 O 0.9151 0.86648 0.47249 0.0
O143 O 0.89667 0.83161 0.58082 0.0
O144 O 0.90733 0.74621 0.71756 0.0
O145 O 0.88311 0.77711 0.71882 0.0
O146 O 0.86029 0.81242 0.47702 0.0
O147 O 0.85376 0.72287 0.56978 0.0
O148 O 0.87699 0.65256 0.59495 0.0
O149 O 0.89375 0.6864 0.47232 0.0
O150 O 0.88294 0.77219 0.33994 0.0
O151 O 0.9074 0.74385 0.33479 0.0
H152 H 0.95925 0.84678 0.60599 0.0
H153 H 0.98651 0.8557 0.66027 0.0
H154 H 0.9848 0.65078 0.63355 0.0
H155 H 0.95758 0.64202 0.58253 0.0
H156 H 0.83012 0.66102 0.46535 0.0
H157 H 0.80391 0.6527 0.38704 0.0
H158 H 0.80801 0.85829 0.35957 0.0
H159 H 0.83403 0.86665 0.43918 0.0
C160 C 0.69675 0.75052 0.04097 0.0
Eu161 Eu 0.66746 0.7631 1.02719 0.0
C162 C 0.71079 0.75078 0.11286 0.0
C163 C 0.72036 0.80816 0.13653 0.0
C164 C 0.73495 0.80713 0.18558 0.0
C165 C 0.74035 0.74875 0.21086 0.0
C166 C 0.73051 0.69156 0.19226 0.0
C167 C 0.71593 0.69255 0.14331 0.0
C168 C 0.65577 0.87651 1.01226 0.0
C169 C 0.65008 0.76171 0.27623 0.0
C170 C 0.60387 0.75442 1.01419 0.0
Eu171 Eu 0.63319 0.74848 0.03407 0.0
C172 C 0.58712 0.75678 1.00415 0.0
C173 C 0.57661 0.71025 0.05951 0.0
C174 C 0.56076 0.71205 0.05048 0.0
C175 C 0.55507 0.76068 0.98665 0.0
C176 C 0.56557 0.80712 0.93069 0.0
C177 C 0.58146 0.80512 0.93921 0.0
C178 C 0.6451 0.6353 0.04356 0.0
C179 C 0.65048 0.75763 0.78328 0.0
O180 O 0.68568 0.70295 0.05254 0.0
O181 O 0.69161 0.80473 1.01901 0.0
O182 O 0.66791 0.86341 0.95744 0.0
O183 O 0.65067 0.83055 0.07835 0.0
O184 O 0.66231 0.74696 0.21983 0.0
O185 O 0.63812 0.77754 0.21889 0.0
O186 O 0.61417 0.78996 0.95154 0.0
O187 O 0.60952 0.71604 0.08704 0.0
O188 O 0.63273 0.64634 0.09676 0.0
O189 O 0.64989 0.68228 0.9795 0.0
O190 O 0.63808 0.76684 0.84287 0.0
O191 O 0.66314 0.746 0.83655 0.0
H192 H 0.71686 0.85384 0.1129 0.0
H193 H 0.74228 0.85197 0.19897 0.0
H194 H 0.73424 0.64591 0.21314 0.0
H195 H 0.70892 0.64749 0.12513 0.0
H196 H 0.58063 0.67228 0.10986 0.0
H197 H 0.55293 0.67583 0.09484 0.0
H198 H 0.56148 0.84464 0.87958 0.0
H199 H 0.5893 0.84149 0.89532 0.0
C200 C 0.34762 0.78816 0.04797 0.0
Eu201 Eu 0.37623 0.76595 0.02829 0.0
C202 C 0.33311 0.77838 0.11672 0.0
C203 C 0.32165 0.72716 0.0914 0.0
C204 C 0.30699 0.72367 0.14178 0.0
C205 C 0.30338 0.77161 0.21774 0.0
C206 C 0.31502 0.82135 0.24702 0.0
C207 C 0.3297 0.82488 0.19664 0.0
C208 C 0.38595 0.64866 1.01184 0.0
C209 C 0.394 0.76521 0.27983 0.0
C210 C 0.43954 0.7636 1.00735 0.0
Eu211 Eu 0.41037 0.77127 0.03318 0.0
C212 C 0.45619 0.7603 0.99145 0.0
C213 C 0.46543 0.80868 0.92991 0.0
C214 C 0.48137 0.80858 0.92232 0.0
C215 C 0.48844 0.76034 0.9768 0.0
C216 C 0.47913 0.71075 0.03504 0.0
C217 C 0.46316 0.71075 0.04238 0.0
C218 C 0.40004 0.88658 0.05615 0.0
C219 C 0.39302 0.76682 0.78682 0.0
O220 O 0.35937 0.82625 0.08894 0.0
O221 O 0.3518 0.73941 0.99185 0.0
O222 O 0.37398 0.6647 0.95877 0.0
O223 O 0.39166 0.69359 0.07684 0.0
O224 O 0.38119 0.7727 0.2231 0.0
O225 O 0.40677 0.75707 0.22419 0.0
O226 O 0.43005 0.71755 0.05453 0.0
O227 O 0.43313 0.81292 0.97291 0.0
O228 O 0.41103 0.86821 0.11774 0.0
O229 O 0.39497 0.84358 0.98496 0.0
O230 O 0.40415 0.74545 0.84655 0.0
O231 O 0.38157 0.78917 0.84068 0.0
H232 H 0.32379 0.69098 0.02906 0.0
H233 H 0.29826 0.68482 0.11734 0.0
H234 H 0.31269 0.8583 0.30714 0.0
H235 H 0.33819 0.8653 0.21733 0.0
H236 H 0.46038 0.84724 0.88888 0.0
H237 H 0.48819 0.84654 0.8744 0.0
H238 H 0.48425 0.67292 0.07781 0.0
H239 H 0.45632 0.67282 0.09033 0.0
C240 C 0.60583 0.29365 1.02235 0.0
Eu241 Eu 0.63352 0.26022 1.01001 0.0
C242 C 0.58959 0.27826 0.05946 0.0
C243 C 0.58127 0.21749 0.04123 0.0
C244 C 0.56523 0.20774 0.0558 0.0
C245 C 0.55721 0.25861 0.0882 0.0
C246 C 0.56569 0.31829 0.11289 0.0
C247 C 0.58171 0.32801 0.0983 0.0
C248 C 0.64077 0.13803 1.00925 0.0
C249 C 0.65103 0.25525 0.25739 0.0
C250 C 0.69598 0.22336 0.99412 0.0
Eu251 Eu 0.66805 0.25366 1.01383 0.0
C252 C 0.711 0.23613 0.93399 0.0
C253 C 0.71909 0.29798 0.92401 0.0
C254 C 0.734 0.30708 0.87649 0.0
C255 C 0.74108 0.25453 0.83873 0.0
C256 C 0.73272 0.19307 0.84561 0.0
C257 C 0.71787 0.18402 0.89294 0.0
C258 C 0.66033 0.37498 1.01956 0.0
C259 C 0.65084 0.25716 0.76588 0.0
O260 O 0.61646 0.31057 0.10006 0.0
O261 O 0.61063 0.2597 0.9383 0.0
O262 O 0.62821 0.15438 0.96606 0.0
O263 O 0.64782 0.1846 0.0636 0.0
O264 O 0.63978 0.27815 0.2007 0.0
O265 O 0.66191 0.23042 0.20017 0.0
O266 O 0.68426 0.19623 0.93424 0.0
O267 O 0.69215 0.26595 0.0673 0.0
O268 O 0.67246 0.35792 0.06858 0.0
O269 O 0.65377 0.32919 0.96057 0.0
O270 O 0.66221 0.23684 0.82421 0.0
O271 O 0.63954 0.2803 0.82098 0.0
H272 H 0.58707 0.17823 1.01131 0.0
H273 H 0.55904 0.16085 0.03862 0.0
H274 H 0.55987 0.35843 0.13782 0.0
H275 H 0.58786 0.3754 0.11187 0.0
H276 H 0.71403 0.33907 0.95457 0.0
H277 H 0.74002 0.35517 0.86999 0.0
H278 H 0.73785 0.15164 0.81763 0.0
H279 H 0.71188 0.13587 0.90024 0.0
C280 C 0.44159 0.26317 0.05157 0.0
Eu281 Eu 0.41253 0.2746 0.02848 0.0
C282 C 0.45822 0.25787 0.06536 0.0
C283 C 0.46854 0.3113 0.09915 0.0
C284 C 0.48434 0.30746 0.10752 0.0
C285 C 0.49021 0.25017 0.08193 0.0
C286 C 0.47985 0.1963 0.0506 0.0
C287 C 0.46402 0.20013 0.04224 0.0
C288 C 0.40158 0.3886 1.00483 0.0
C289 C 0.39512 0.27217 0.2771 0.0
C290 C 0.34935 0.28555 1.01732 0.0
Eu291 Eu 0.37816 0.26698 0.03594 0.0
C292 C 0.3352 0.27621 0.94564 0.0
C293 C 0.32423 0.22204 0.96272 0.0
C294 C 0.30965 0.21851 0.91207 0.0
C295 C 0.30568 0.26921 0.84405 0.0
C296 C 0.31689 0.32172 0.82132 0.0
C297 C 0.33149 0.32539 0.87225 0.0
C298 C 0.38864 0.15193 0.0571 0.0
C299 C 0.39592 0.26872 0.78337 0.0
O300 O 0.43142 0.21557 1.01863 0.0
O301 O 0.43592 0.3163 0.07264 0.0
O302 O 0.41337 0.37327 0.94826 0.0
O303 O 0.39663 0.34504 0.07578 0.0
O304 O 0.40672 0.25371 0.21827 0.0
O305 O 0.38323 0.29089 0.22304 0.0
O306 O 0.3609 0.32701 0.9824 0.0
O307 O 0.35382 0.23547 0.06755 0.0
O308 O 0.37685 0.16767 0.11291 0.0
O309 O 0.39386 0.19587 0.9875 0.0
O310 O 0.38303 0.27435 0.8409 0.0
O311 O 0.40881 0.26146 0.83775 0.0
H312 H 0.46445 0.35649 0.11766 0.0
H313 H 0.49203 0.34984 0.13141 0.0
H314 H 0.48399 0.15116 0.03242 0.0
H315 H 0.45635 0.15803 1.01665 0.0
H316 H 0.32664 0.18349 1.01929 0.0
H317 H 0.30129 0.17697 0.92921 0.0
H318 H 0.3141 0.3614 0.76906 0.0
H319 H 0.33961 0.36808 0.85832 0.0
C320 C 0.27112 0.27888 0.64763 0.0
C321 C 0.2586 0.26738 0.72529 0.0
C322 C 0.28637 0.27994 0.6864 0.0
C323 C 0.28958 0.26922 0.80398 0.0
H324 H 0.26911 0.28554 0.55586 0.0
H325 H 0.29568 0.28791 0.6237 0.0
S326 S 0.26104 0.24464 0.04399 0.0
N327 N 0.25054 0.25056 0.92642 0.0
N328 N 0.27911 0.25211 0.99895 0.0
C329 C 0.27719 0.25969 0.88283 0.0
C330 C 0.26173 0.25887 0.84358 0.0
C331 C 0.76102 0.23201 0.69231 0.0
C332 C 0.75726 0.2629 0.79482 0.0
C333 C 0.77627 0.23696 0.65174 0.0
C334 C 0.78839 0.27305 0.71198 0.0
H335 H 0.75207 0.204 0.64261 0.0
H336 H 0.77857 0.21291 0.5718 0.0
S337 S 0.78492 0.35929 0.98926 0.0
N338 N 0.76709 0.32827 0.95861 0.0
N339 N 0.7957 0.33778 0.88212 0.0
C340 C 0.78483 0.30377 0.81499 0.0
C341 C 0.7693 0.29868 0.85638 0.0
C342 C 0.27923 0.71436 0.30802 0.0
C343 C 0.28732 0.77088 0.26175 0.0
C344 C 0.26387 0.71185 0.34543 0.0
C345 C 0.25596 0.76572 0.33786 0.0
H346 H 0.28484 0.67173 0.31585 0.0
H347 H 0.25819 0.66743 0.38151 0.0
S348 S 0.27157 0.92408 0.21614 0.0
N349 N 0.28602 0.88128 0.20594 0.0
N350 N 0.25721 0.87653 0.27622 0.0
C351 C 0.26389 0.82245 0.29131 0.0
C352 C 0.27953 0.82503 0.25329 0.0
C353 C 0.7623 0.78762 0.34345 0.0
C354 C 0.75644 0.74774 0.25184 0.0
C355 C 0.7776 0.78913 0.38065 0.0
C356 C 0.78766 0.75093 0.32757 0.0
H357 H 0.75498 0.81777 0.38703 0.0
H358 H 0.78157 0.82033 0.45198 0.0
S359 S 0.77833 0.64154 0.07893 0.0
N360 N 0.76212 0.67117 0.10554 0.0
N361 N 0.79084 0.67397 0.17584 0.0
C362 C 0.78197 0.71099 0.23571 0.0
C363 C 0.76639 0.70945 0.19774 0.0
C364 C 0.13621 0.95449 0.51509 0.0
C365 C 0.15159 0.94205 0.52106 0.0
C366 C 0.13255 0.01745 0.50609 0.0
C367 C 0.14414 0.07056 0.49933 0.0
H368 H 0.1269 0.91556 0.52044 0.0
H369 H 0.12052 0.02452 0.50588 0.0
S370 S 0.18621 0.06244 0.4885 0.0
N371 N 0.17849 0.9875 0.50782 0.0
N372 N 0.17162 0.10472 0.48281 0.0
C373 C 0.15954 0.05818 0.49741 0.0
C374 C 0.16326 0.99431 0.5103 0.0
C375 C 0.90154 0.48903 0.40313 0.0
C376 C 0.89938 0.44484 0.49546 0.0
C377 C 0.89837 0.55243 0.41667 0.0
C378 C 0.89297 0.57377 0.52316 0.0
H379 H 0.90551 0.47426 0.31947 0.0
H380 H 0.89987 0.58451 0.34268 0.0
S381 S 0.8877 0.47983 0.79628 0.0
N382 N 0.89299 0.42901 0.70005 0.0
N383 N 0.88706 0.5475 0.72507 0.0
C384 C 0.89129 0.53066 0.61693 0.0
C385 C 0.89448 0.46636 0.60323 0.0
C386 C 0.88291 0.95638 0.52908 0.0
C387 C 0.89838 0.94531 0.53323 0.0
C388 C 0.87885 0.01879 0.52868 0.0
C389 C 0.89011 0.07288 0.53542 0.0
H390 H 0.87385 0.91682 0.52275 0.0
H391 H 0.86677 0.02459 0.52141 0.0
S392 S 0.93207 0.06924 0.57277 0.0
N393 N 0.92492 0.99339 0.55722 0.0
N394 N 0.91723 0.11005 0.56454 0.0
C395 C 0.90555 0.0622 0.54768 0.0
C396 C 0.9097 0.99869 0.54462 0.0
C397 C 0.1385 0.522 0.59672 0.0
C398 C 0.14536 0.57094 0.52274 0.0
C399 C 0.14265 0.4596 0.59134 0.0
C400 C 0.15387 0.44396 0.51194 0.0
H401 H 0.1298 0.53196 0.65881 0.0
H402 H 0.13713 0.42354 0.65033 0.0
S403 S 0.17429 0.55429 0.29325 0.0
N404 N 0.16305 0.59858 0.36295 0.0
N405 N 0.17122 0.48282 0.35436 0.0
C406 C 0.16061 0.49259 0.43655 0.0
C407 C 0.15626 0.55564 0.44149 0.0
C408 C 0.66326 0.55439 0.07143 0.0
C409 C 0.64922 0.57002 0.02855 0.0
C410 C 0.66677 0.49127 0.06726 0.0
C411 C 0.65642 0.44153 1.01889 0.0
H412 H 0.67138 0.59069 0.11192 0.0
H413 H 0.67763 0.48135 0.10322 0.0
S414 S 0.61818 0.45848 0.89263 0.0
N415 N 0.62491 0.53134 0.93608 0.0
N416 N 0.63163 0.4132 0.92489 0.0
C417 C 0.64244 0.45703 0.97377 0.0
C418 C 0.63879 0.52111 0.97971 0.0
C419 C 0.3994 0.99182 0.15318 0.0
C420 C 0.39675 0.95375 0.0532 0.0
C421 C 0.39685 0.05618 0.15317 0.0
C422 C 0.39209 0.08535 0.05212 0.0
H423 H 0.40329 0.97149 0.23261 0.0
H424 H 0.39871 0.08346 0.23265 0.0
S425 S 0.3836 1.00736 0.76741 0.0
N426 N 0.38884 0.95007 0.85069 0.0
N427 N 0.38468 0.07179 0.8498 0.0
C428 C 0.38954 0.04828 0.95123 0.0
C429 C 0.39171 0.98221 0.952 0.0
C430 C 0.38589 0.47255 0.93909 0.0
C431 C 0.39763 0.45442 1.00985 0.0
C432 C 0.38224 0.5355 0.94046 0.0
C433 C 0.39019 0.58257 1.01272 0.0
H434 H 0.37957 0.43796 0.88176 0.0
H435 H 0.37313 0.54734 0.88409 0.0
S436 S 0.42188 0.55805 0.2151 0.0
N437 N 0.4172 0.4875 0.15381 0.0
N438 N 0.41029 0.60551 0.158 0.0
C439 C 0.40193 0.56455 0.08428 0.0
C440 C 0.40566 0.50052 0.0824 0.0
C441 C 0.6595 0.05804 1.00403 0.0
C442 C 0.64429 0.07114 1.01782 0.0
C443 C 0.66305 0.99504 1.00259 0.0
C444 C 0.6516 0.94249 1.02009 0.0
H445 H 0.66871 0.09655 0.99087 0.0
H446 H 0.67492 0.98752 0.98804 0.0
S447 S 0.61013 0.95115 0.0738 0.0
N448 N 0.6177 0.02642 0.05479 0.0
N449 N 0.62455 0.90829 0.06116 0.0
C450 C 0.63644 0.95503 0.04035 0.0
C451 C 0.63272 0.01921 0.03687 0.0
C452 C 0.1641 0.25692 0.08643 0.0
C453 C 0.15025 0.25169 0.15029 0.0
C454 C 0.16411 0.25845 0.96421 0.0
C455 C 0.15026 0.25437 0.90067 0.0
H456 H 0.17506 0.26126 0.13116 0.0
H457 H 0.17511 0.26359 0.91948 0.0
S458 S 0.11074 0.2331 1.02739 0.0
N459 N 0.12228 0.23806 0.14105 0.0
N460 N 0.1222 0.24019 0.91272 0.0
C461 C 0.13629 0.24717 0.96399 0.0
C462 C 0.13632 0.24603 0.08822 0.0
C463 C 0.88174 0.2479 0.07715 0.0
C464 C 0.89568 0.25662 0.13933 0.0
C465 C 0.88158 0.2459 0.95498 0.0
C466 C 0.89536 0.25285 0.88956 0.0
H467 H 0.87083 0.24179 0.12319 0.0
H468 H 0.87052 0.23869 0.91166 0.0
S469 S 0.93498 0.28271 1.01072 0.0
N470 N 0.92364 0.27582 0.126 0.0
N471 N 0.92338 0.27254 0.89764 0.0
C472 C 0.90939 0.26266 0.95096 0.0
C473 C 0.90954 0.26445 0.07525 0.0
C474 C 0.1587 0.72837 0.09681 0.0
C475 C 0.14803 0.75939 0.15955 0.0
C476 C 0.15857 0.72705 0.97488 0.0
C477 C 0.14775 0.75659 0.9107 0.0
H478 H 0.16712 0.70417 0.14204 0.0
H479 H 0.16695 0.70206 0.93084 0.0
S480 S 0.118 0.84812 0.03292 0.0
N481 N 0.12678 0.82307 0.14761 0.0
N482 N 0.12654 0.82041 0.91948 0.0
C483 C 0.13717 0.78863 0.97236 0.0
C484 C 0.13731 0.79008 0.09637 0.0
C485 C 0.90851 0.75862 0.96653 0.0
C486 C 0.89477 0.75885 0.90354 0.0
C487 C 0.9085 0.75869 0.08838 0.0
C488 C 0.89474 0.75892 0.15213 0.0
H489 H 0.91942 0.75911 0.92159 0.0
H490 H 0.91941 0.75917 0.13277 0.0
S491 S 0.85544 0.75444 0.02881 0.0
N492 N 0.86687 0.75582 0.91445 0.0
N493 N 0.86688 0.75612 0.14268 0.0
C494 C 0.88088 0.75806 0.09021 0.0
C495 C 0.88088 0.75795 0.96623 0.0
C496 C 0.66353 0.75709 0.46764 0.0
C497 C 0.6499 0.76165 0.40528 0.0
C498 C 0.66361 0.75595 0.58948 0.0
C499 C 0.65005 0.75915 0.65419 0.0
H500 H 0.67429 0.75455 0.42221 0.0
H501 H 0.67443 0.75265 0.63303 0.0
S502 S 0.61112 0.76937 0.5327 0.0
N503 N 0.62236 0.76803 0.41777 0.0
N504 N 0.62249 0.76587 0.6459 0.0
C505 C 0.63631 0.7635 0.59284 0.0
C506 C 0.63624 0.76476 0.46879 0.0
C507 C 0.37987 0.76466 0.59336 0.0
C508 C 0.39354 0.76647 0.65808 0.0
C509 C 0.38011 0.76402 0.47139 0.0
C510 C 0.39404 0.76561 0.40919 0.0
H511 H 0.36886 0.763 0.63722 0.0
H512 H 0.36925 0.76201 0.42577 0.0
S513 S 0.4332 0.77583 0.53857 0.0
N514 N 0.42146 0.77298 0.65134 0.0
N515 N 0.42201 0.77234 0.42303 0.0
C516 C 0.40784 0.76849 0.47331 0.0
C517 C 0.40756 0.76876 0.59738 0.0
C518 C 0.63978 0.28162 0.45003 0.0
C519 C 0.65118 0.25496 0.38692 0.0
C520 C 0.63974 0.28212 0.57209 0.0
C521 C 0.65111 0.25605 0.63645 0.0
H522 H 0.63079 0.30247 0.40502 0.0
H523 H 0.63072 0.30333 0.61611 0.0
S524 S 0.68353 0.17973 0.5136 0.0
N525 N 0.67416 0.20136 0.39906 0.0
N526 N 0.67407 0.20223 0.62703 0.0
C527 C 0.66257 0.2291 0.57443 0.0
C528 C 0.66261 0.22858 0.45028 0.0
C529 C 0.38178 0.26236 0.47038 0.0
C530 C 0.39554 0.2723 0.40565 0.0
C531 C 0.38197 0.26122 0.59237 0.0
C532 C 0.39595 0.27035 0.65423 0.0
H533 H 0.37076 0.25443 0.4265 0.0
H534 H 0.37108 0.25255 0.63829 0.0
S535 S 0.43513 0.30481 0.52459 0.0
N536 N 0.42346 0.29539 0.41188 0.0
N537 N 0.42391 0.29402 0.64029 0.0
C538 C 0.40979 0.28181 0.59006 0.0
C539 C 0.40957 0.28256 0.46607 0.0
C540 C 0.03204 0.27763 0.3428 0.0
C541 C 0.04025 0.27013 0.44583 0.0
C542 C 1.01599 0.27847 0.34494 0.0
C543 C 1.00776 0.27345 0.45049 0.0
H544 H 0.03804 0.28243 0.26022 0.0
H545 H 1.01001 0.28384 0.26394 0.0
S546 S 0.02395 0.25348 0.74369 0.0
N547 N 0.03898 0.25783 0.65566 0.0
N548 N 1.00896 0.25971 0.65972 0.0
C549 C 1.01588 0.26608 0.55372 0.0
C550 C 0.03209 0.26438 0.55138 0.0
C551 C 1.0144 0.80504 0.59674 0.0
C552 C 1.00497 0.75991 0.66452 0.0
C553 C 0.03049 0.8075 0.59675 0.0
C554 C 0.03786 0.7648 0.66415 0.0
H555 H 1.00929 0.83723 0.53955 0.0
H556 H 0.03718 0.84172 0.54013 0.0
S557 S 1.01872 0.64258 0.86733 0.0
N558 N 1.00437 0.67522 0.80896 0.0
N559 N 0.03464 0.67942 0.8075 0.0
C560 C 0.02867 0.72093 0.73546 0.0
C561 C 1.01225 0.71862 0.73604 0.0
C562 C 0.52822 0.70733 0.94967 0.0
C563 C 0.53818 0.76268 0.97963 0.0
C564 C 0.51218 0.70716 0.94752 0.0
C565 C 0.50549 0.76233 0.9754 0.0
H566 H 0.53286 0.66375 0.92766 0.0
H567 H 0.50496 0.6635 0.92368 0.0
S568 S 0.52649 0.91855 0.06627 0.0
N569 N 0.5402 0.87345 0.04139 0.0
N570 N 0.51009 0.87316 0.0381 0.0
C571 C 0.51534 0.81801 1.00554 0.0
C572 C 0.53167 0.81819 1.00743 0.0
C573 C 0.51593 0.27281 0.18088 0.0
C574 C 0.50716 0.24764 0.0853 0.0
C575 C 0.53204 0.27459 0.18269 0.0
C576 C 0.54002 0.25124 0.08903 0.0
H577 H 0.51031 0.29167 0.25468 0.0
H578 H 0.53831 0.29491 0.25768 0.0
S579 S 0.52253 0.18363 0.8154 0.0
N580 N 0.50773 0.20059 0.89318 0.0
N581 N 0.53792 0.20398 0.89644 0.0
C582 C 0.53137 0.22553 0.99331 0.0
C583 C 0.51498 0.22372 0.99148 0.0
loop_
_geom_bond_atom_site_label_1
_geom_bond_atom_site_label_2
_geom_bond_distance
_geom_bond_site_symmetry_2
_ccdc_geom_bond_type
C0 Eu1 2.835 . S
C0 C2 1.500 . S
C0 O20 1.257 . S
C0 O21 1.260 . S
Eu1 C0 2.835 . S
Eu1 O20 2.473 . S
Eu1 O21 2.480 . S
Eu1 O22 2.430 . S
Eu1 O23 2.670 . S
Eu1 O24 2.394 . S
Eu1 O29 2.355 . S
Eu1 O31 2.374 . S
C2 C0 1.500 . S
C2 C3 1.377 . S
C2 C7 1.377 . S
C3 C2 1.377 . S
C3 C4 1.395 . S
C3 H32 0.931 . S
C4 C3 1.395 . S
C4 C5 1.383 . S
C4 H33 0.931 . S
C5 C4 1.383 . S
C5 C6 1.394 . S
C6 C5 1.394 . S
C6 C7 1.378 . S
C6 H34 0.931 . S
C7 C2 1.377 . S
C7 C6 1.378 . S
C7 H35 0.931 . S
C8 O22 1.259 . S
C8 O23 1.270 . S
C9 O24 1.251 . S
C9 O25 1.251 . S
C10 Eu11 2.835 . S
C10 C12 1.500 . S
C10 O26 1.257 . S
C10 O27 1.260 . S
Eu11 C10 2.835 . S
Eu11 O23 2.355 . S
Eu11 O25 2.374 . S
Eu11 O26 2.473 . S
Eu11 O27 2.480 . S
Eu11 O28 2.430 . S
Eu11 O29 2.670 . S
Eu11 O30 2.394 . S
C12 C10 1.500 . S
C12 C13 1.377 . S
C12 C17 1.377 . S
C13 C12 1.377 . S
C13 C14 1.395 . S
C13 H36 0.931 . S
C14 C13 1.395 . S
C14 C15 1.383 . S
C14 H37 0.931 . S
C15 C14 1.383 . S
C15 C16 1.394 . S
C16 C15 1.394 . S
C16 C17 1.378 . S
C16 H38 0.931 . S
C17 C12 1.377 . S
C17 C16 1.378 . S
C17 H39 0.931 . S
C18 O28 1.259 . S
C18 O29 1.270 . S
C19 O30 1.251 . S
C19 O31 1.251 . S
O20 C0 1.257 . S
O20 Eu1 2.473 . S
O21 C0 1.260 . S
O21 Eu1 2.480 . S
O22 Eu1 2.430 . S
O22 C8 1.259 . S
O23 Eu1 2.670 . S
O23 C8 1.270 . S
O23 Eu11 2.355 . S
O24 Eu1 2.394 . S
O24 C9 1.251 . S
O25 C9 1.251 . S
O25 Eu11 2.374 . S
O26 C10 1.257 . S
O26 Eu11 2.473 . S
O27 C10 1.260 . S
O27 Eu11 2.480 . S
O28 Eu11 2.430 . S
O28 C18 1.259 . S
O29 Eu1 2.355 . S
O29 Eu11 2.670 . S
O29 C18 1.270 . S
O30 Eu11 2.394 . S
O30 C19 1.251 . S
O31 Eu1 2.374 . S
O31 C19 1.251 . S
H32 C3 0.931 . S
H33 C4 0.931 . S
H34 C6 0.931 . S
H35 C7 0.931 . S
H36 C13 0.931 . S
H37 C14 0.931 . S
H38 C16 0.931 . S
H39 C17 0.931 . S
C40 Eu41 2.835 . S
C40 C42 1.500 . S
C40 O60 1.257 . S
C40 O61 1.260 . S
Eu41 C40 2.835 . S
Eu41 O60 2.473 . S
Eu41 O61 2.480 . S
Eu41 O62 2.430 . S
Eu41 O63 2.670 . S
Eu41 O64 2.394 . S
Eu41 O69 2.355 . S
Eu41 O71 2.374 . S
C42 C40 1.500 . S
C42 C43 1.377 . S
C42 C47 1.377 . S
C43 C42 1.377 . S
C43 C44 1.395 . S
C43 H72 0.931 . S
C44 C43 1.395 . S
C44 C45 1.383 . S
C44 H73 0.931 . S
C45 C44 1.383 . S
C45 C46 1.394 . S
C46 C45 1.394 . S
C46 C47 1.378 . S
C46 H74 0.931 . S
C47 C42 1.377 . S
C47 C46 1.378 . S
C47 H75 0.931 . S
C48 O62 1.259 . S
C48 O63 1.270 . S
C49 O64 1.251 . S
C49 O65 1.251 . S
C50 Eu51 2.835 . S
C50 C52 1.500 . S
C50 O66 1.257 . S
C50 O67 1.260 . S
Eu51 C50 2.835 . S
Eu51 O63 2.355 . S
Eu51 O65 2.374 . S
Eu51 O66 2.473 . S
Eu51 O67 2.480 . S
Eu51 O68 2.430 . S
Eu51 O69 2.670 . S
Eu51 O70 2.394 . S
C52 C50 1.500 . S
C52 C53 1.377 . S
C52 C57 1.377 . S
C53 C52 1.377 . S
C53 C54 1.395 . S
C53 H76 0.931 . S
C54 C53 1.395 . S
C54 C55 1.383 . S
C54 H77 0.931 . S
C55 C54 1.383 . S
C55 C56 1.394 . S
C56 C55 1.394 . S
C56 C57 1.378 . S
C56 H78 0.931 . S
C57 C52 1.377 . S
C57 C56 1.378 . S
C57 H79 0.931 . S
C58 O68 1.259 . S
C58 O69 1.270 . S
C59 O70 1.251 . S
C59 O71 1.251 . S
O60 C40 1.257 . S
O60 Eu41 2.473 . S
O61 C40 1.260 . S
O61 Eu41 2.480 . S
O62 Eu41 2.430 . S
O62 C48 1.259 . S
O63 Eu41 2.670 . S
O63 C48 1.270 . S
O63 Eu51 2.355 . S
O64 Eu41 2.394 . S
O64 C49 1.251 . S
O65 C49 1.251 . S
O65 Eu51 2.374 . S
O66 C50 1.257 . S
O66 Eu51 2.473 . S
O67 C50 1.260 . S
O67 Eu51 2.480 . S
O68 Eu51 2.430 . S
O68 C58 1.259 . S
O69 Eu41 2.355 . S
O69 Eu51 2.670 . S
O69 C58 1.270 . S
O70 Eu51 2.394 . S
O70 C59 1.251 . S
O71 Eu41 2.374 . S
O71 C59 1.251 . S
H72 C43 0.931 . S
H73 C44 0.931 . S
H74 C46 0.931 . S
H75 C47 0.931 . S
H76 C53 0.931 . S
H77 C54 0.931 . S
H78 C56 0.931 . S
H79 C57 0.931 . S
C80 Eu81 2.835 . S
C80 C82 1.500 . S
C80 O100 1.257 . S
C80 O101 1.260 . S
Eu81 C80 2.835 . S
Eu81 O100 2.473 . S
Eu81 O101 2.480 . S
Eu81 O102 2.430 . S
Eu81 O103 2.670 . S
Eu81 O104 2.394 . S
Eu81 O109 2.355 . S
Eu81 O111 2.374 . S
C82 C80 1.500 . S
C82 C83 1.377 . S
C82 C87 1.377 . S
C83 C82 1.377 . S
C83 C84 1.395 . S
C83 H112 0.931 . S
C84 C83 1.395 . S
C84 C85 1.383 . S
C84 H113 0.931 . S
C85 C84 1.383 . S
C85 C86 1.394 . S
C86 C85 1.394 . S
C86 C87 1.378 . S
C86 H114 0.931 . S
C87 C82 1.377 . S
C87 C86 1.378 . S
C87 H115 0.931 . S
C88 O102 1.259 . S
C88 O103 1.270 . S
C89 O104 1.251 . S
C89 O105 1.251 . S
C90 Eu91 2.835 . S
C90 C92 1.500 . S
C90 O106 1.257 . S
C90 O107 1.260 . S
Eu91 C90 2.835 . S
Eu91 O103 2.355 . S
Eu91 O105 2.374 . S
Eu91 O106 2.473 . S
Eu91 O107 2.480 . S
Eu91 O108 2.430 . S
Eu91 O109 2.670 . S
Eu91 O110 2.394 . S
C92 C90 1.500 . S
C92 C93 1.377 . S
C92 C97 1.377 . S
C93 C92 1.377 . S
C93 C94 1.395 . S
C93 H116 0.931 . S
C94 C93 1.395 . S
C94 C95 1.383 . S
C94 H117 0.931 . S
C95 C94 1.383 . S
C95 C96 1.394 . S
C96 C95 1.394 . S
C96 C97 1.378 . S
C96 H118 0.931 . S
C97 C92 1.377 . S
C97 C96 1.378 . S
C97 H119 0.931 . S
C98 O108 1.259 . S
C98 O109 1.270 . S
C99 O110 1.251 . S
C99 O111 1.251 . S
O100 C80 1.257 . S
O100 Eu81 2.473 . S
O101 C80 1.260 . S
O101 Eu81 2.480 . S
O102 Eu81 2.430 . S
O102 C88 1.259 . S
O103 Eu81 2.670 . S
O103 C88 1.270 . S
O103 Eu91 2.355 . S
O104 Eu81 2.394 . S
O104 C89 1.251 . S
O105 C89 1.251 . S
O105 Eu91 2.374 . S
O106 C90 1.257 . S
O106 Eu91 2.473 . S
O107 C90 1.260 . S
O107 Eu91 2.480 . S
O108 Eu91 2.430 . S
O108 C98 1.259 . S
O109 Eu81 2.355 . S
O109 Eu91 2.670 . S
O109 C98 1.270 . S
O110 Eu91 2.394 . S
O110 C99 1.251 . S
O111 Eu81 2.374 . S
O111 C99 1.251 . S
H112 C83 0.931 . S
H113 C84 0.931 . S
H114 C86 0.931 . S
H115 C87 0.931 . S
H116 C93 0.931 . S
H117 C94 0.931 . S
H118 C96 0.931 . S
H119 C97 0.931 . S
C120 Eu121 2.835 . S
C120 C122 1.500 . S
C120 O140 1.257 . S
C120 O141 1.260 . S
Eu121 C120 2.835 . S
Eu121 O140 2.473 . S
Eu121 O141 2.480 . S
Eu121 O142 2.430 . S
Eu121 O143 2.670 . S
Eu121 O144 2.394 . S
Eu121 O149 2.355 . S
Eu121 O151 2.374 . S
C122 C120 1.500 . S
C122 C123 1.377 . S
C122 C127 1.377 . S
C123 C122 1.377 . S
C123 C124 1.395 . S
C123 H152 0.931 . S
C124 C123 1.395 . S
C124 C125 1.383 . S
C124 H153 0.931 . S
C125 C124 1.383 . S
C125 C126 1.394 . S
C126 C125 1.394 . S
C126 C127 1.378 . S
C126 H154 0.931 . S
C127 C122 1.377 . S
C127 C126 1.378 . S
C127 H155 0.931 . S
C128 O142 1.259 . S
C128 O143 1.270 . S
C129 O144 1.251 . S
C129 O145 1.251 . S
C130 Eu131 2.835 . S
C130 C132 1.500 . S
C130 O146 1.257 . S
C130 O147 1.260 . S
Eu131 C130 2.835 . S
Eu131 O143 2.355 . S
Eu131 O145 2.374 . S
Eu131 O146 2.473 . S
Eu131 O147 2.480 . S
Eu131 O148 2.430 . S
Eu131 O149 2.670 . S
Eu131 O150 2.394 . S
C132 C130 1.500 . S
C132 C133 1.377 . S
C132 C137 1.377 . S
C133 C132 1.377 . S
C133 C134 1.395 . S
C133 H156 0.931 . S
C134 C133 1.395 . S
C134 C135 1.383 . S
C134 H157 0.931 . S
C135 C134 1.383 . S
C135 C136 1.394 . S
C136 C135 1.394 . S
C136 C137 1.378 . S
C136 H158 0.931 . S
C137 C132 1.377 . S
C137 C136 1.378 . S
C137 H159 0.931 . S
C138 O148 1.259 . S
C138 O149 1.270 . S
C139 O150 1.251 . S
C139 O151 1.251 . S
O140 C120 1.257 . S
O140 Eu121 2.473 . S
O141 C120 1.260 . S
O141 Eu121 2.480 . S
O142 Eu121 2.430 . S
O142 C128 1.259 . S
O143 Eu121 2.670 . S
O143 C128 1.270 . S
O143 Eu131 2.355 . S
O144 Eu121 2.394 . S
O144 C129 1.251 . S
O145 C129 1.251 . S
O145 Eu131 2.374 . S
O146 C130 1.257 . S
O146 Eu131 2.473 . S
O147 C130 1.260 . S
O147 Eu131 2.480 . S
O148 Eu131 2.430 . S
O148 C138 1.259 . S
O149 Eu121 2.355 . S
O149 Eu131 2.670 . S
O149 C138 1.270 . S
O150 Eu131 2.394 . S
O150 C139 1.251 . S
O151 Eu121 2.374 . S
O151 C139 1.251 . S
H152 C123 0.931 . S
H153 C124 0.931 . S
H154 C126 0.931 . S
H155 C127 0.931 . S
H156 C133 0.931 . S
H157 C134 0.931 . S
H158 C136 0.931 . S
H159 C137 0.931 . S
C160 Eu161 2.835 1_554 S
C160 C162 1.500 . S
C160 O180 1.257 . S
C160 O181 1.260 . S
Eu161 C160 2.835 1_556 S
Eu161 O180 2.473 1_556 S
Eu161 O181 2.480 1_556 S
Eu161 O182 2.430 . S
Eu161 O183 2.670 . S
Eu161 O184 2.394 1_556 S
Eu161 O189 2.355 1_556 S
Eu161 O191 2.374 . S
C162 C160 1.500 . S
C162 C163 1.377 . S
C162 C167 1.377 . S
C163 C162 1.377 . S
C163 C164 1.395 . S
C163 H192 0.931 . S
C164 C163 1.395 . S
C164 C165 1.383 . S
C164 H193 0.931 . S
C165 C164 1.383 . S
C165 C166 1.394 . S
C166 C165 1.394 . S
C166 C167 1.378 . S
C166 H194 0.931 . S
C167 C162 1.377 . S
C167 C166 1.378 . S
C167 H195 0.931 . S
C168 O182 1.259 . S
C168 O183 1.270 . S
C169 O184 1.251 . S
C169 O185 1.251 . S
C170 Eu171 2.835 1_556 S
C170 C172 1.500 . S
C170 O186 1.257 . S
C170 O187 1.260 . S
Eu171 C170 2.835 1_554 S
Eu171 O183 2.355 1_554 S
Eu171 O185 2.374 . S
Eu171 O186 2.473 1_554 S
Eu171 O187 2.480 1_554 S
Eu171 O188 2.430 . S
Eu171 O189 2.670 . S
Eu171 O190 2.394 1_554 S
C172 C170 1.500 . S
C172 C173 1.377 . S
C172 C177 1.377 . S
C173 C172 1.377 . S
C173 C174 1.395 . S
C173 H196 0.931 . S
C174 C173 1.395 . S
C174 C175 1.383 . S
C174 H197 0.931 . S
C175 C174 1.383 . S
C175 C176 1.394 . S
C176 C175 1.394 . S
C176 C177 1.378 . S
C176 H198 0.931 . S
C177 C172 1.377 . S
C177 C176 1.378 . S
C177 H199 0.931 . S
C178 O188 1.259 . S
C178 O189 1.270 . S
C179 O190 1.251 . S
C179 O191 1.251 . S
O180 C160 1.257 . S
O180 Eu161 2.473 1_554 S
O181 C160 1.260 . S
O181 Eu161 2.480 1_554 S
O182 Eu161 2.430 . S
O182 C168 1.259 . S
O183 Eu161 2.670 . S
O183 C168 1.270 . S
O183 Eu171 2.355 1_556 S
O184 Eu161 2.394 1_554 S
O184 C169 1.251 . S
O185 C169 1.251 . S
O185 Eu171 2.374 . S
O186 C170 1.257 . S
O186 Eu171 2.473 1_556 S
O187 C170 1.260 . S
O187 Eu171 2.480 1_556 S
O188 Eu171 2.430 . S
O188 C178 1.259 . S
O189 Eu161 2.355 1_554 S
O189 Eu171 2.670 . S
O189 C178 1.270 . S
O190 Eu171 2.394 1_556 S
O190 C179 1.251 . S
O191 Eu161 2.374 . S
O191 C179 1.251 . S
H192 C163 0.931 . S
H193 C164 0.931 . S
H194 C166 0.931 . S
H195 C167 0.931 . S
H196 C173 0.931 . S
H197 C174 0.931 . S
H198 C176 0.931 . S
H199 C177 0.931 . S
C200 Eu201 2.835 1_554 S
C200 C202 1.500 . S
C200 O220 1.257 . S
C200 O221 1.260 . S
Eu201 C200 2.835 1_556 S
Eu201 O220 2.473 1_556 S
Eu201 O221 2.480 1_556 S
Eu201 O222 2.430 . S
Eu201 O223 2.670 . S
Eu201 O224 2.394 1_556 S
Eu201 O229 2.355 1_556 S
Eu201 O231 2.374 . S
C202 C200 1.500 . S
C202 C203 1.377 . S
C202 C207 1.377 . S
C203 C202 1.377 . S
C203 C204 1.395 . S
C203 H232 0.931 . S
C204 C203 1.395 . S
C204 C205 1.383 . S
C204 H233 0.931 . S
C205 C204 1.383 . S
C205 C206 1.394 . S
C206 C205 1.394 . S
C206 C207 1.378 . S
C206 H234 0.931 . S
C207 C202 1.377 . S
C207 C206 1.378 . S
C207 H235 0.931 . S
C208 O222 1.259 . S
C208 O223 1.270 . S
C209 O224 1.251 . S
C209 O225 1.251 . S
C210 Eu211 2.835 1_556 S
C210 C212 1.500 . S
C210 O226 1.257 . S
C210 O227 1.260 . S
Eu211 C210 2.835 1_554 S
Eu211 O223 2.355 1_554 S
Eu211 O225 2.374 . S
Eu211 O226 2.473 1_554 S
Eu211 O227 2.480 1_554 S
Eu211 O228 2.430 . S
Eu211 O229 2.670 . S
Eu211 O230 2.394 1_554 S
C212 C210 1.500 . S
C212 C213 1.377 . S
C212 C217 1.377 . S
C213 C212 1.377 . S
C213 C214 1.395 . S
C213 H236 0.931 . S
C214 C213 1.395 . S
C214 C215 1.383 . S
C214 H237 0.931 . S
C215 C214 1.383 . S
C215 C216 1.394 . S
C216 C215 1.394 . S
C216 C217 1.378 . S
C216 H238 0.931 . S
C217 C212 1.377 . S
C217 C216 1.378 . S
C217 H239 0.931 . S
C218 O228 1.259 . S
C218 O229 1.270 . S
C219 O230 1.251 . S
C219 O231 1.251 . S
O220 C200 1.257 . S
O220 Eu201 2.473 1_554 S
O221 C200 1.260 . S
O221 Eu201 2.480 1_554 S
O222 Eu201 2.430 . S
O222 C208 1.259 . S
O223 Eu201 2.670 . S
O223 C208 1.270 . S
O223 Eu211 2.355 1_556 S
O224 Eu201 2.394 1_554 S
O224 C209 1.251 . S
O225 C209 1.251 . S
O225 Eu211 2.374 . S
O226 C210 1.257 . S
O226 Eu211 2.473 1_556 S
O227 C210 1.260 . S
O227 Eu211 2.480 1_556 S
O228 Eu211 2.430 . S
O228 C218 1.259 . S
O229 Eu201 2.355 1_554 S
O229 Eu211 2.670 . S
O229 C218 1.270 . S
O230 Eu211 2.394 1_556 S
O230 C219 1.251 . S
O231 Eu201 2.374 . S
O231 C219 1.251 . S
H232 C203 0.931 . S
H233 C204 0.931 . S
H234 C206 0.931 . S
H235 C207 0.931 . S
H236 C213 0.931 . S
H237 C214 0.931 . S
H238 C216 0.931 . S
H239 C217 0.931 . S
C240 Eu241 2.835 1_554 S
C240 C242 1.500 . S
C240 O260 1.257 . S
C240 O261 1.260 . S
Eu241 C240 2.835 1_556 S
Eu241 O260 2.473 1_556 S
Eu241 O261 2.480 1_556 S
Eu241 O262 2.430 . S
Eu241 O263 2.670 . S
Eu241 O264 2.394 1_556 S
Eu241 O269 2.355 1_556 S
Eu241 O271 2.374 . S
C242 C240 1.500 . S
C242 C243 1.377 . S
C242 C247 1.377 . S
C243 C242 1.377 . S
C243 C244 1.395 . S
C243 H272 0.931 . S
C244 C243 1.395 . S
C244 C245 1.383 . S
C244 H273 0.931 . S
C245 C244 1.383 . S
C245 C246 1.394 . S
C246 C245 1.394 . S
C246 C247 1.378 . S
C246 H274 0.931 . S
C247 C242 1.377 . S
C247 C246 1.378 . S
C247 H275 0.931 . S
C248 O262 1.259 . S
C248 O263 1.270 . S
C249 O264 1.251 . S
C249 O265 1.251 . S
C250 Eu251 2.835 1_556 S
C250 C252 1.500 . S
C250 O266 1.257 . S
C250 O267 1.260 . S
Eu251 C250 2.835 1_554 S
Eu251 O263 2.355 1_554 S
Eu251 O265 2.374 . S
Eu251 O266 2.473 1_554 S
Eu251 O267 2.480 1_554 S
Eu251 O268 2.430 . S
Eu251 O269 2.670 . S
Eu251 O270 2.394 1_554 S
C252 C250 1.500 . S
C252 C253 1.377 . S
C252 C257 1.377 . S
C253 C252 1.377 . S
C253 C254 1.395 . S
C253 H276 0.931 . S
C254 C253 1.395 . S
C254 C255 1.383 . S
C254 H277 0.931 . S
C255 C254 1.383 . S
C255 C256 1.394 . S
C256 C255 1.394 . S
C256 C257 1.378 . S
C256 H278 0.931 . S
C257 C252 1.377 . S
C257 C256 1.378 . S
C257 H279 0.931 . S
C258 O268 1.259 . S
C258 O269 1.270 . S
C259 O270 1.251 . S
C259 O271 1.251 . S
O260 C240 1.257 . S
O260 Eu241 2.473 1_554 S
O261 C240 1.260 . S
O261 Eu241 2.480 1_554 S
O262 Eu241 2.430 . S
O262 C248 1.259 . S
O263 Eu241 2.670 . S
O263 C248 1.270 . S
O263 Eu251 2.355 1_556 S
O264 Eu241 2.394 1_554 S
O264 C249 1.251 . S
O265 C249 1.251 . S
O265 Eu251 2.374 . S
O266 C250 1.257 . S
O266 Eu251 2.473 1_556 S
O267 C250 1.260 . S
O267 Eu251 2.480 1_556 S
O268 Eu251 2.430 . S
O268 C258 1.259 . S
O269 Eu241 2.355 1_554 S
O269 Eu251 2.670 . S
O269 C258 1.270 . S
O270 Eu251 2.394 1_556 S
O270 C259 1.251 . S
O271 Eu241 2.374 . S
O271 C259 1.251 . S
H272 C243 0.931 . S
H273 C244 0.931 . S
H274 C246 0.931 . S
H275 C247 0.931 . S
H276 C253 0.931 . S
H277 C254 0.931 . S
H278 C256 0.931 . S
H279 C257 0.931 . S
C280 Eu281 2.835 1_554 S
C280 C282 1.500 . S
C280 O300 1.257 . S
C280 O301 1.260 . S
Eu281 C280 2.835 1_556 S
Eu281 O300 2.473 1_556 S
Eu281 O301 2.480 1_556 S
Eu281 O302 2.430 . S
Eu281 O303 2.670 . S
Eu281 O304 2.394 1_556 S
Eu281 O309 2.355 1_556 S
Eu281 O311 2.374 . S
C282 C280 1.500 . S
C282 C283 1.377 . S
C282 C287 1.377 . S
C283 C282 1.377 . S
C283 C284 1.395 . S
C283 H312 0.931 . S
C284 C283 1.395 . S
C284 C285 1.383 . S
C284 H313 0.931 . S
C285 C284 1.383 . S
C285 C286 1.394 . S
C286 C285 1.394 . S
C286 C287 1.378 . S
C286 H314 0.931 . S
C287 C282 1.377 . S
C287 C286 1.378 . S
C287 H315 0.931 . S
C288 O302 1.259 . S
C288 O303 1.270 . S
C289 O304 1.251 . S
C289 O305 1.251 . S
C290 Eu291 2.835 1_556 S
C290 C292 1.500 . S
C290 O306 1.257 . S
C290 O307 1.260 . S
Eu291 C290 2.835 1_554 S
Eu291 O303 2.355 1_554 S
Eu291 O305 2.374 . S
Eu291 O306 2.473 1_554 S
Eu291 O307 2.480 1_554 S
Eu291 O308 2.430 . S
Eu291 O309 2.670 . S
Eu291 O310 2.394 1_554 S
C292 C290 1.500 . S
C292 C293 1.377 . S
C292 C297 1.377 . S
C293 C292 1.377 . S
C293 C294 1.395 . S
C293 H316 0.931 . S
C294 C293 1.395 . S
C294 C295 1.383 . S
C294 H317 0.931 . S
C295 C294 1.383 . S
C295 C296 1.394 . S
C296 C295 1.394 . S
C296 C297 1.378 . S
C296 H318 0.931 . S
C297 C292 1.377 . S
C297 C296 1.378 . S
C297 H319 0.931 . S
C298 O308 1.259 . S
C298 O309 1.270 . S
C299 O310 1.251 . S
C299 O311 1.251 . S
O300 C280 1.257 . S
O300 Eu281 2.473 1_554 S
O301 C280 1.260 . S
O301 Eu281 2.480 1_554 S
O302 Eu281 2.430 . S
O302 C288 1.259 . S
O303 Eu281 2.670 . S
O303 C288 1.270 . S
O303 Eu291 2.355 1_556 S
O304 Eu281 2.394 1_554 S
O304 C289 1.251 . S
O305 C289 1.251 . S
O305 Eu291 2.374 . S
O306 C290 1.257 . S
O306 Eu291 2.473 1_556 S
O307 C290 1.260 . S
O307 Eu291 2.480 1_556 S
O308 Eu291 2.430 . S
O308 C298 1.259 . S
O309 Eu281 2.355 1_554 S
O309 Eu291 2.670 . S
O309 C298 1.270 . S
O310 Eu291 2.394 1_556 S
O310 C299 1.251 . S
O311 Eu281 2.374 . S
O311 C299 1.251 . S
H312 C283 0.931 . S
H313 C284 0.931 . S
H314 C286 0.931 . S
H315 C287 0.931 . S
H316 C293 0.931 . S
H317 C294 0.931 . S
H318 C296 0.931 . S
H319 C297 0.931 . S
C320 C321 1.369 . S
C320 C322 1.419 . S
C320 H324 0.930 . S
C321 C320 1.369 . S
C321 C330 1.429 . S
C322 C320 1.419 . S
C322 C323 1.363 . S
C322 H325 0.929 . S
C323 C322 1.363 . S
C323 C329 1.428 . S
H324 C320 0.930 . S
H325 C322 0.929 . S
S326 N327 1.613 . S
S326 N328 1.610 . S
N327 S326 1.613 . S
N327 C330 1.350 . S
N328 S326 1.610 . S
N328 C329 1.351 . S
C329 C323 1.428 . S
C329 N328 1.351 . S
C329 C330 1.434 . S
C330 C321 1.429 . S
C330 N327 1.350 . S
C330 C329 1.434 . S
C331 C332 1.369 . S
C331 C333 1.419 . S
C331 H335 0.930 . S
C332 C331 1.369 . S
C332 C341 1.429 . S
C333 C331 1.419 . S
C333 C334 1.363 . S
C333 H336 0.929 . S
C334 C333 1.363 . S
C334 C340 1.428 . S
H335 C331 0.930 . S
H336 C333 0.929 . S
S337 N338 1.613 . S
S337 N339 1.610 . S
N338 S337 1.613 . S
N338 C341 1.350 . S
N339 S337 1.610 . S
N339 C340 1.351 . S
C340 C334 1.428 . S
C340 N339 1.351 . S
C340 C341 1.434 . S
C341 C332 1.429 . S
C341 N338 1.350 . S
C341 C340 1.434 . S
C342 C343 1.369 . S
C342 C344 1.419 . S
C342 H346 0.930 . S
C343 C342 1.369 . S
C343 C352 1.429 . S
C344 C342 1.419 . S
C344 C345 1.363 . S
C344 H347 0.929 . S
C345 C344 1.363 . S
C345 C351 1.428 . S
H346 C342 0.930 . S
H347 C344 0.929 . S
S348 N349 1.613 . S
S348 N350 1.610 . S
N349 S348 1.613 . S
N349 C352 1.350 . S
N350 S348 1.610 . S
N350 C351 1.351 . S
C351 C345 1.428 . S
C351 N350 1.351 . S
C351 C352 1.434 . S
C352 C343 1.429 . S
C352 N349 1.350 . S
C352 C351 1.434 . S
C353 C354 1.369 . S
C353 C355 1.419 . S
C353 H357 0.930 . S
C354 C353 1.369 . S
C354 C363 1.429 . S
C355 C353 1.419 . S
C355 C356 1.363 . S
C355 H358 0.929 . S
C356 C355 1.363 . S
C356 C362 1.428 . S
H357 C353 0.930 . S
H358 C355 0.929 . S
S359 N360 1.613 . S
S359 N361 1.610 . S
N360 S359 1.613 . S
N360 C363 1.350 . S
N361 S359 1.610 . S
N361 C362 1.351 . S
C362 C356 1.428 . S
C362 N361 1.351 . S
C362 C363 1.434 . S
C363 C354 1.429 . S
C363 N360 1.350 . S
C363 C362 1.434 . S
C364 C365 1.369 . S
C364 C366 1.419 1_565 S
C364 H368 0.930 . S
C365 C364 1.369 . S
C365 C374 1.429 . S
C366 C364 1.419 1_545 S
C366 C367 1.363 . S
C366 H369 0.929 . S
C367 C366 1.363 . S
C367 C373 1.428 . S
H368 C364 0.930 . S
H369 C366 0.929 . S
S370 N371 1.613 1_545 S
S370 N372 1.610 . S
N371 S370 1.613 1_565 S
N371 C374 1.350 . S
N372 S370 1.610 . S
N372 C373 1.351 . S
C373 C367 1.428 . S
C373 N372 1.351 . S
C373 C374 1.434 1_545 S
C374 C365 1.429 . S
C374 N371 1.350 . S
C374 C373 1.434 1_565 S
C375 C376 1.369 . S
C375 C377 1.419 . S
C375 H379 0.930 . S
C376 C375 1.369 . S
C376 C385 1.429 . S
C377 C375 1.419 . S
C377 C378 1.363 . S
C377 H380 0.929 . S
C378 C377 1.363 . S
C378 C384 1.428 . S
H379 C375 0.930 . S
H380 C377 0.929 . S
S381 N382 1.613 . S
S381 N383 1.610 . S
N382 S381 1.613 . S
N382 C385 1.350 . S
N383 S381 1.610 . S
N383 C384 1.351 . S
C384 C378 1.428 . S
C384 N383 1.351 . S
C384 C385 1.434 . S
C385 C376 1.429 . S
C385 N382 1.350 . S
C385 C384 1.434 . S
C386 C387 1.369 . S
C386 C388 1.419 1_565 S
C386 H390 0.930 . S
C387 C386 1.369 . S
C387 C396 1.429 . S
C388 C386 1.419 1_545 S
C388 C389 1.363 . S
C388 H391 0.929 . S
C389 C388 1.363 . S
C389 C395 1.428 . S
H390 C386 0.930 . S
H391 C388 0.929 . S
S392 N393 1.613 1_545 S
S392 N394 1.610 . S
N393 S392 1.613 1_565 S
N393 C396 1.350 . S
N394 S392 1.610 . S
N394 C395 1.351 . S
C395 C389 1.428 . S
C395 N394 1.351 . S
C395 C396 1.434 1_545 S
C396 C387 1.429 . S
C396 N393 1.350 . S
C396 C395 1.434 1_565 S
C397 C398 1.369 . S
C397 C399 1.419 . S
C397 H401 0.930 . S
C398 C397 1.369 . S
C398 C407 1.429 . S
C399 C397 1.419 . S
C399 C400 1.363 . S
C399 H402 0.929 . S
C400 C399 1.363 . S
C400 C406 1.428 . S
H401 C397 0.930 . S
H402 C399 0.929 . S
S403 N404 1.613 . S
S403 N405 1.610 . S
N404 S403 1.613 . S
N404 C407 1.350 . S
N405 S403 1.610 . S
N405 C406 1.351 . S
C406 C400 1.428 . S
C406 N405 1.351 . S
C406 C407 1.434 . S
C407 C398 1.429 . S
C407 N404 1.350 . S
C407 C406 1.434 . S
C408 C409 1.369 1_554 S
C408 C410 1.419 . S
C408 H412 0.930 . S
C409 C408 1.369 1_556 S
C409 C418 1.429 . S
C410 C408 1.419 . S
C410 C411 1.363 1_554 S
C410 H413 0.929 . S
C411 C410 1.363 1_556 S
C411 C417 1.428 . S
H412 C408 0.930 . S
H413 C410 0.929 . S
S414 N415 1.613 . S
S414 N416 1.610 . S
N415 S414 1.613 . S
N415 C418 1.350 . S
N416 S414 1.610 . S
N416 C417 1.351 . S
C417 C411 1.428 . S
C417 N416 1.351 . S
C417 C418 1.434 . S
C418 C409 1.429 . S
C418 N415 1.350 . S
C418 C417 1.434 . S
C419 C420 1.369 1_554 S
C419 C421 1.419 1_565 S
C419 H423 0.930 . S
C420 C419 1.369 1_556 S
C420 C429 1.429 . S
C421 C419 1.419 1_545 S
C421 C422 1.363 1_554 S
C421 H424 0.929 . S
C422 C421 1.363 1_556 S
C422 C428 1.428 . S
H423 C419 0.930 . S
H424 C421 0.929 . S
S425 N426 1.613 . S
S425 N427 1.610 1_565 S
N426 S425 1.613 . S
N426 C429 1.350 . S
N427 S425 1.610 1_545 S
N427 C428 1.351 . S
C428 C422 1.428 . S
C428 N427 1.351 . S
C428 C429 1.434 1_545 S
C429 C420 1.429 . S
C429 N426 1.350 . S
C429 C428 1.434 1_565 S
C430 C431 1.369 1_556 S
C430 C432 1.419 . S
C430 H434 0.930 . S
C431 C430 1.369 1_554 S
C431 C440 1.429 . S
C432 C430 1.419 . S
C432 C433 1.363 1_556 S
C432 H435 0.929 . S
C433 C432 1.363 1_554 S
C433 C439 1.428 . S
H434 C430 0.930 . S
H435 C432 0.929 . S
S436 N437 1.613 . S
S436 N438 1.610 . S
N437 S436 1.613 . S
N437 C440 1.350 . S
N438 S436 1.610 . S
N438 C439 1.351 . S
C439 C433 1.428 . S
C439 N438 1.351 . S
C439 C440 1.434 . S
C440 C431 1.429 . S
C440 N437 1.350 . S
C440 C439 1.434 . S
C441 C442 1.369 . S
C441 C443 1.419 1_545 S
C441 H445 0.930 . S
C442 C441 1.369 . S
C442 C451 1.429 1_554 S
C443 C441 1.419 1_565 S
C443 C444 1.363 . S
C443 H446 0.929 . S
C444 C443 1.363 . S
C444 C450 1.428 1_554 S
H445 C441 0.930 . S
H446 C443 0.929 . S
S447 N448 1.613 1_565 S
S447 N449 1.610 . S
N448 S447 1.613 1_545 S
N448 C451 1.350 . S
N449 S447 1.610 . S
N449 C450 1.351 . S
C450 C444 1.428 1_556 S
C450 N449 1.351 . S
C450 C451 1.434 1_565 S
C451 C442 1.429 1_556 S
C451 N448 1.350 . S
C451 C450 1.434 1_545 S
C452 C453 1.369 1_556 S
C452 C454 1.419 . S
C452 H456 0.930 1_556 S
C453 C452 1.369 1_554 S
C453 C462 1.429 1_554 S
C454 C452 1.419 . S
C454 C455 1.363 . S
C454 H457 0.929 . S
C455 C454 1.363 . S
C455 C461 1.428 . S
H456 C452 0.930 1_554 S
H457 C454 0.929 . S
S458 N459 1.613 . S
S458 N460 1.610 . S
N459 S458 1.613 . S
N459 C462 1.350 . S
N460 S458 1.610 . S
N460 C461 1.351 . S
C461 C455 1.428 . S
C461 N460 1.351 . S
C461 C462 1.434 . S
C462 C453 1.429 1_556 S
C462 N459 1.350 . S
C462 C461 1.434 . S
C463 C464 1.369 1_556 S
C463 C465 1.419 . S
C463 H467 0.930 1_556 S
C464 C463 1.369 1_554 S
C464 C473 1.429 1_554 S
C465 C463 1.419 . S
C465 C466 1.363 . S
C465 H468 0.929 . S
C466 C465 1.363 . S
C466 C472 1.428 . S
H467 C463 0.930 1_554 S
H468 C465 0.929 . S
S469 N470 1.613 . S
S469 N471 1.610 . S
N470 S469 1.613 . S
N470 C473 1.350 . S
N471 S469 1.610 . S
N471 C472 1.351 . S
C472 C466 1.428 . S
C472 N471 1.351 . S
C472 C473 1.434 . S
C473 C464 1.429 1_556 S
C473 N470 1.350 . S
C473 C472 1.434 . S
C474 C475 1.369 . S
C474 C476 1.419 . S
C474 H478 0.930 . S
C475 C474 1.369 . S
C475 C484 1.429 . S
C476 C474 1.419 . S
C476 C477 1.363 1_554 S
C476 H479 0.929 1_554 S
C477 C476 1.363 1_556 S
C477 C483 1.428 1_556 S
H478 C474 0.930 . S
H479 C476 0.929 1_556 S
S480 N481 1.613 . S
S480 N482 1.610 1_554 S
N481 S480 1.613 . S
N481 C484 1.350 . S
N482 S480 1.610 1_556 S
N482 C483 1.351 1_556 S
C483 C477 1.428 1_554 S
C483 N482 1.351 1_554 S
C483 C484 1.434 . S
C484 C475 1.429 . S
C484 N481 1.350 . S
C484 C483 1.434 . S
C485 C486 1.369 1_554 S
C485 C487 1.419 . S
C485 H489 0.930 . S
C486 C485 1.369 1_556 S
C486 C495 1.429 . S
C487 C485 1.419 . S
C487 C488 1.363 . S
C487 H490 0.929 . S
C488 C487 1.363 . S
C488 C494 1.428 . S
H489 C485 0.930 . S
H490 C487 0.929 . S
S491 N492 1.613 1_554 S
S491 N493 1.610 . S
N492 S491 1.613 1_556 S
N492 C495 1.350 . S
N493 S491 1.610 . S
N493 C494 1.351 . S
C494 C488 1.428 . S
C494 N493 1.351 . S
C494 C495 1.434 1_554 S
C495 C486 1.429 . S
C495 N492 1.350 . S
C495 C494 1.434 1_556 S
C496 C497 1.369 . S
C496 C498 1.419 . S
C496 H500 0.930 . S
C497 C496 1.369 . S
C497 C506 1.429 . S
C498 C496 1.419 . S
C498 C499 1.363 . S
C498 H501 0.929 . S
C499 C498 1.363 . S
C499 C505 1.428 . S
H500 C496 0.930 . S
H501 C498 0.929 . S
S502 N503 1.613 . S
S502 N504 1.610 . S
N503 S502 1.613 . S
N503 C506 1.350 . S
N504 S502 1.610 . S
N504 C505 1.351 . S
C505 C499 1.428 . S
C505 N504 1.351 . S
C505 C506 1.434 . S
C506 C497 1.429 . S
C506 N503 1.350 . S
C506 C505 1.434 . S
C507 C508 1.369 . S
C507 C509 1.419 . S
C507 H511 0.930 . S
C508 C507 1.369 . S
C508 C517 1.429 . S
C509 C507 1.419 . S
C509 C510 1.363 . S
C509 H512 0.929 . S
C510 C509 1.363 . S
C510 C516 1.428 . S
H511 C507 0.930 . S
H512 C509 0.929 . S
S513 N514 1.613 . S
S513 N515 1.610 . S
N514 S513 1.613 . S
N514 C517 1.350 . S
N515 S513 1.610 . S
N515 C516 1.351 . S
C516 C510 1.428 . S
C516 N515 1.351 . S
C516 C517 1.434 . S
C517 C508 1.429 . S
C517 N514 1.350 . S
C517 C516 1.434 . S
C518 C519 1.369 . S
C518 C520 1.419 . S
C518 H522 0.930 . S
C519 C518 1.369 . S
C519 C528 1.429 . S
C520 C518 1.419 . S
C520 C521 1.363 . S
C520 H523 0.929 . S
C521 C520 1.363 . S
C521 C527 1.428 . S
H522 C518 0.930 . S
H523 C520 0.929 . S
S524 N525 1.613 . S
S524 N526 1.610 . S
N525 S524 1.613 . S
N525 C528 1.350 . S
N526 S524 1.610 . S
N526 C527 1.351 . S
C527 C521 1.428 . S
C527 N526 1.351 . S
C527 C528 1.434 . S
C528 C519 1.429 . S
C528 N525 1.350 . S
C528 C527 1.434 . S
C529 C530 1.369 . S
C529 C531 1.419 . S
C529 H533 0.930 . S
C530 C529 1.369 . S
C530 C539 1.429 . S
C531 C529 1.419 . S
C531 C532 1.363 . S
C531 H534 0.929 . S
C532 C531 1.363 . S
C532 C538 1.428 . S
H533 C529 0.930 . S
H534 C531 0.929 . S
S535 N536 1.613 . S
S535 N537 1.610 . S
N536 S535 1.613 . S
N536 C539 1.350 . S
N537 S535 1.610 . S
N537 C538 1.351 . S
C538 C532 1.428 . S
C538 N537 1.351 . S
C538 C539 1.434 . S
C539 C530 1.429 . S
C539 N536 1.350 . S
C539 C538 1.434 . S
C540 C541 1.369 . S
C540 C542 1.419 1_455 S
C540 H544 0.930 1_554 S
C541 C540 1.369 . S
C541 C550 1.429 . S
C542 C540 1.419 1_655 S
C542 C543 1.363 . S
C542 H545 0.929 1_554 S
C543 C542 1.363 . S
C543 C549 1.428 . S
H544 C540 0.930 1_556 S
H545 C542 0.929 1_556 S
S546 N547 1.613 1_655 S
S546 N548 1.610 . S
N547 S546 1.613 1_455 S
N547 C550 1.350 . S
N548 S546 1.610 . S
N548 C549 1.351 . S
C549 C543 1.428 . S
C549 N548 1.351 . S
C549 C550 1.434 1_655 S
C550 C541 1.429 . S
C550 N547 1.350 . S
C550 C549 1.434 1_455 S
C551 C552 1.369 . S
C551 C553 1.419 1_655 S
C551 H555 0.930 . S
C552 C551 1.369 . S
C552 C561 1.429 . S
C553 C551 1.419 1_455 S
C553 C554 1.363 . S
C553 H556 0.929 . S
C554 C553 1.363 . S
C554 C560 1.428 . S
H555 C551 0.930 . S
H556 C553 0.929 . S
S557 N558 1.613 . S
S557 N559 1.610 1_655 S
N558 S557 1.613 . S
N558 C561 1.350 1_554 S
N559 S557 1.610 1_455 S
N559 C560 1.351 1_554 S
C560 C554 1.428 . S
C560 N559 1.351 1_556 S
C560 C561 1.434 1_455 S
C561 C552 1.429 . S
C561 N558 1.350 1_556 S
C561 C560 1.434 1_655 S
C562 C563 1.369 . S
C562 C564 1.419 . S
C562 H566 0.930 . S
C563 C562 1.369 . S
C563 C572 1.429 . S
C564 C562 1.419 . S
C564 C565 1.363 . S
C564 H567 0.929 . S
C565 C564 1.363 . S
C565 C571 1.428 . S
H566 C562 0.930 . S
H567 C564 0.929 . S
S568 N569 1.613 . S
S568 N570 1.610 . S
N569 S568 1.613 . S
N569 C572 1.350 . S
N570 S568 1.610 . S
N570 C571 1.351 . S
C571 C565 1.428 . S
C571 N570 1.351 . S
C571 C572 1.434 . S
C572 C563 1.429 . S
C572 N569 1.350 . S
C572 C571 1.434 . S
C573 C574 1.369 . S
C573 C575 1.419 . S
C573 H577 0.930 . S
C574 C573 1.369 . S
C574 C583 1.429 . S
C575 C573 1.419 . S
C575 C576 1.363 . S
C575 H578 0.929 . S
C576 C575 1.363 . S
C576 C582 1.428 . S
H577 C573 0.930 . S
H578 C575 0.929 . S
S579 N580 1.613 1_556 S
S579 N581 1.610 1_556 S
N580 S579 1.613 1_554 S
N580 C583 1.350 . S
N581 S579 1.610 1_554 S
N581 C582 1.351 . S
C582 C576 1.428 . S
C582 N581 1.351 . S
C582 C583 1.434 . S
C583 C574 1.429 . S
C583 N580 1.350 . S
C583 C582 1.434 . S
C321 C5 1.678 . S
C323 C295 1.674 . S
C332 C255 1.674 . S
C334 C45 1.677 . S
C343 C205 1.677 . S
C345 C95 1.675 . S
C354 C165 1.674 . S
C356 C135 1.677 . S
C365 C98 1.622 . S
C367 C18 1.555 . S
C376 C58 1.548 . S
C378 C138 1.626 . S
C387 C128 1.556 . S
C389 C48 1.628 . S
C398 C88 1.553 . S
C400 C8 1.625 . S
C409 C178 1.432 1_556 S
C411 C258 1.439 1_556 S
C420 C218 1.438 1_556 S
C422 C298 1.437 1_556 S
C431 C288 1.434 1_554 S
C433 C208 1.438 1_554 S
C442 C248 1.431 1_554 S
C444 C168 1.438 1_554 S
C453 C19 2.010 . S
C455 C9 2.011 . S
C464 C59 2.010 . S
C466 C49 2.011 . S
C475 C99 2.008 . S
C477 C89 2.013 . S
C486 C129 2.007 . S
C488 C139 2.014 . S
C497 C169 2.007 . S
C499 C179 2.013 . S
C508 C219 2.010 . S
C510 C209 2.011 . S
C519 C249 2.008 . S
C521 C259 2.012 . S
C530 C289 2.012 . S
C532 C299 2.010 . S
C541 C15 2.190 . S
C543 C55 2.191 . S
C552 C125 2.195 . S
C554 C85 2.194 . S
C563 C175 2.193 . S
C565 C215 2.193 . S
C574 C285 2.192 . S
C576 C245 2.192 . S
