# Generated by pormake.
# Topology wgu, (5)-cn, num edge types: 1
# Building blocks:
#     Node 0, Type 0, BuildingBlock: BEQFEK_clean_sbu_0, # of connection points: 5
#     Node 1, Type 0, BuildingBlock: BEQFEK_clean_sbu_0, # of connection points: 5
#     Node 2, Type 0, BuildingBlock: BEQFEK_clean_sbu_0, # of connection points: 5
#     Node 3, Type 0, BuildingBlock: BEQFEK_clean_sbu_0, # of connection points: 5
#     Node 4, Type 0, BuildingBlock: BEQFEK_clean_sbu_0, # of connection points: 5
#     Node 5, Type 0, BuildingBlock: BEQFEK_clean_sbu_0, # of connection points: 5
#     Node 6, Type 0, BuildingBlock: BEQFEK_clean_sbu_0, # of connection points: 5
#     Node 7, Type 0, BuildingBlock: BEQFEK_clean_sbu_0, # of connection points: 5
#     Edge 8, Type (0, 0), BuildingBlock: EZIPEK_clean_linker_0, # of connection points: 2
#     Edge 9, Type (0, 0), BuildingBlock: EZIPEK_clean_linker_0, # of connection points: 2
#     Edge 10, Type (0, 0), BuildingBlock: EZIPEK_clean_linker_0, # of connection points: 2
#     Edge 11, Type (0, 0), BuildingBlock: EZIPEK_clean_linker_0, # of connection points: 2
#     Edge 12, Type (0, 0), BuildingBlock: EZIPEK_clean_linker_0, # of connection points: 2
#     Edge 13, Type (0, 0), BuildingBlock: EZIPEK_clean_linker_0, # of connection points: 2
#     Edge 14, Type (0, 0), BuildingBlock: EZIPEK_clean_linker_0, # of connection points: 2
#     Edge 15, Type (0, 0), BuildingBlock: EZIPEK_clean_linker_0, # of connection points: 2
#     Edge 16, Type (0, 0), BuildingBlock: EZIPEK_clean_linker_0, # of connection points: 2
#     Edge 17, Type (0, 0), BuildingBlock: EZIPEK_clean_linker_0, # of connection points: 2
#     Edge 18, Type (0, 0), BuildingBlock: EZIPEK_clean_linker_0, # of connection points: 2
#     Edge 19, Type (0, 0), BuildingBlock: EZIPEK_clean_linker_0, # of connection points: 2
#     Edge 20, Type (0, 0), BuildingBlock: EZIPEK_clean_linker_0, # of connection points: 2
#     Edge 21, Type (0, 0), BuildingBlock: EZIPEK_clean_linker_0, # of connection points: 2
#     Edge 22, Type (0, 0), BuildingBlock: EZIPEK_clean_linker_0, # of connection points: 2
#     Edge 23, Type (0, 0), BuildingBlock: EZIPEK_clean_linker_0, # of connection points: 2
#     Edge 24, Type (0, 0), BuildingBlock: EZIPEK_clean_linker_0, # of connection points: 2
#     Edge 25, Type (0, 0), BuildingBlock: EZIPEK_clean_linker_0, # of connection points: 2
#     Edge 26, Type (0, 0), BuildingBlock: EZIPEK_clean_linker_0, # of connection points: 2
#     Edge 27, Type (0, 0), BuildingBlock: EZIPEK_clean_linker_0, # of connection points: 2
# Relax obj value: 0.553
# Max RMSD: 0.236
# Mean RMSD: 0.236
data_MOF--net-wgu--node1-BEQFEK_clean_sbu_0--edge1-EZIPEK_clean_linker_0
_symmetry_space_group_name_H-M    P1
_symmetry_Int_Tables_number       1
_symmetry_cell_setting            triclinic
loop_
_symmetry_equiv_pos_as_xyz
'x, y, z'
_cell_length_a     25.083834
_cell_length_b     24.756497
_cell_length_c     20.332306
_cell_angle_alpha  90.295091
_cell_angle_beta   90.629646
_cell_angle_gamma 90.115751
loop_
_atom_site_label
_atom_site_type_symbol
_atom_site_fract_x
_atom_site_fract_y
_atom_site_fract_z
_atom_type_partial_charge
Co0 Co 0.29797 0.44182 1.04239 0.0
Co1 Co 0.37627 0.34496 0.05855 0.0
C2 C 0.2979 0.35002 0.94449 0.0
O3 O 0.27979 0.39515 0.9644 0.0
O4 O 0.33588 0.32667 0.97509 0.0
C5 C 0.19358 0.48945 1.02711 0.0
O6 O 0.1789 0.4406 1.00902 0.0
C7 C 0.39531 0.23102 0.07824 0.0
C8 C 0.47682 0.22717 0.12007 0.0
C9 C 0.43272 0.19581 0.10382 0.0
N10 N 0.4157 0.28117 0.07965 0.0
N11 N 0.46482 0.27864 0.10382 0.0
C12 C 0.33973 0.2176 0.0558 0.0
H13 H 0.31265 0.25212 0.0651 0.0
H14 H 0.32453 0.18098 0.0807 0.0
H15 H 0.33998 0.20961 1.00205 0.0
C16 C 0.26122 0.40181 0.17417 0.0
N17 N 0.29376 0.40018 0.12152 0.0
N18 N 0.32718 0.35954 0.12866 0.0
C19 C 0.31672 0.3346 0.18622 0.0
C20 C 0.27414 0.35982 0.21617 0.0
C21 C 0.21711 0.44128 0.18366 0.0
H22 H 0.18178 0.42638 0.15607 0.0
H23 H 0.20643 0.44462 0.23636 0.0
H24 H 0.22861 0.48155 0.16497 0.0
O25 O 0.37127 0.4774 1.03599 0.0
O26 O 0.42685 0.4081 1.04804 0.0
H27 H 0.33148 0.25004 0.19023 0.0
H28 H 0.38978 0.29215 0.20354 0.0
C29 C 0.34671 0.28764 0.2135 0.0
H30 H 0.34102 0.28425 0.2674 0.0
H31 H 0.48938 0.3122 0.11153 0.0
O32 O 0.24208 0.49893 1.0427 0.0
C33 C 0.41874 0.45864 1.03989 0.0
Co34 Co 0.62011 0.3165 0.54164 0.0
Co35 Co 0.71319 0.39928 0.55511 0.0
C36 C 0.70866 0.31438 0.44591 0.0
O37 O 0.66489 0.29448 0.46572 0.0
O38 O 0.72978 0.35517 0.47456 0.0
C39 C 0.55777 0.215 0.54763 0.0
O40 O 0.603 0.18842 0.54817 0.0
C41 C 0.8259 0.41805 0.57458 0.0
C42 C 0.83154 0.50246 0.60964 0.0
C43 C 0.86152 0.45654 0.59765 0.0
N44 N 0.77688 0.43958 0.57337 0.0
N45 N 0.78049 0.49044 0.5933 0.0
C46 C 0.83772 0.36037 0.55754 0.0
H47 H 0.84522 0.35739 0.50396 0.0
H48 H 0.80309 0.33422 0.56892 0.0
H49 H 0.87366 0.34566 0.58417 0.0
C50 C 0.66464 0.28183 0.67501 0.0
N51 N 0.66222 0.31437 0.62154 0.0
N52 N 0.69923 0.35209 0.62816 0.0
C53 C 0.72454 0.34537 0.68662 0.0
C54 C 0.70429 0.30028 0.71719 0.0
C55 C 0.63239 0.23198 0.68566 0.0
H56 H 0.6504 0.19808 0.65794 0.0
H57 H 0.63217 0.22082 0.73848 0.0
H58 H 0.59104 0.23818 0.66897 0.0
O59 O 0.58612 0.39055 0.53155 0.0
O60 O 0.65203 0.45022 0.54099 0.0
H61 H 0.80676 0.36473 0.6936 0.0
H62 H 0.76253 0.42254 0.69831 0.0
C63 C 0.76857 0.38 0.71303 0.0
H64 H 0.77077 0.37783 0.76752 0.0
H65 H 0.74791 0.51621 0.59841 0.0
O66 O 0.55862 0.26625 0.54405 0.0
C67 C 0.60268 0.43939 0.53275 0.0
Co68 Co 0.726 0.60747 1.03435 0.0
Co69 Co 0.6604 0.71349 1.04323 0.0
C70 C 0.72719 0.69527 0.92654 0.0
O71 O 0.74425 0.65165 0.95274 0.0
O72 O 0.69227 0.72299 0.95626 0.0
C73 C 0.82968 0.56195 1.03005 0.0
O74 O 0.84285 0.61189 1.01594 0.0
C75 C 0.63937 0.83058 0.06217 0.0
C76 C 0.57503 0.82854 0.13519 0.0
C77 C 0.61006 0.86301 0.10398 0.0
N78 N 0.62435 0.77876 0.07023 0.0
N79 N 0.58475 0.77819 0.11268 0.0
C80 C 0.68347 0.84923 1.01882 0.0
H81 H 0.70863 0.81504 1.00301 0.0
H82 H 0.70842 0.88 1.04458 0.0
H83 H 0.66578 0.86883 0.97479 0.0
C84 C 0.76039 0.64541 0.16904 0.0
N85 N 0.7334 0.65063 0.11151 0.0
N86 N 0.71694 0.70049 0.10558 0.0
C87 C 0.73948 0.73037 0.15398 0.0
C88 C 0.76579 0.69654 0.19842 0.0
C89 C 0.77486 0.59173 0.19765 0.0
H90 H 0.74362 0.56155 0.18468 0.0
H91 H 0.81261 0.57735 0.17609 0.0
H92 H 0.77952 0.59431 0.25191 0.0
O93 O 0.65239 0.57614 1.02971 0.0
O94 O 0.60523 0.65149 1.04193 0.0
H95 H 0.70415 0.80807 0.16508 0.0
H96 H 0.77414 0.80664 0.18636 0.0
C97 C 0.7431 0.79063 0.15223 0.0
H98 H 0.75389 0.80329 0.10209 0.0
H99 H 0.56656 0.743 0.1295 0.0
O100 O 0.78092 0.54981 1.0391 0.0
C101 C 0.60757 0.59999 1.03532 0.0
Co102 Co 0.43159 0.7396 0.53861 0.0
Co103 Co 0.3367 0.65826 0.54643 0.0
C104 C 0.34419 0.74046 0.43679 0.0
O105 O 0.3883 0.75907 0.45875 0.0
O106 O 0.32073 0.70153 0.46527 0.0
C107 C 0.48411 0.84396 0.53018 0.0
O108 O 0.43781 0.86182 0.50893 0.0
C109 C 0.22413 0.63872 0.56029 0.0
C110 C 0.21835 0.55446 0.59456 0.0
C111 C 0.18838 0.60017 0.58111 0.0
N112 N 0.27329 0.61756 0.56187 0.0
N113 N 0.26966 0.5668 0.58145 0.0
C114 C 0.21215 0.69612 0.54273 0.0
H115 H 0.20808 0.6992 0.48849 0.0
H116 H 0.24545 0.7227 0.55889 0.0
H117 H 0.17443 0.71005 0.56515 0.0
C118 C 0.38745 0.77426 0.66897 0.0
N119 N 0.38804 0.74182 0.6153 0.0
N120 N 0.34922 0.70611 0.61989 0.0
C121 C 0.32353 0.71452 0.67723 0.0
C122 C 0.34622 0.75843 0.70942 0.0
C123 C 0.42364 0.82138 0.68011 0.0
H124 H 0.46507 0.81052 0.6672 0.0
H125 H 0.41008 0.85468 0.64792 0.0
H126 H 0.42247 0.83545 0.73201 0.0
O127 O 0.46677 0.66612 0.53116 0.0
O128 O 0.39913 0.60802 0.53505 0.0
H129 H 0.27497 0.68481 0.75616 0.0
H130 H 0.24034 0.69699 0.6802 0.0
C131 C 0.27801 0.68157 0.70186 0.0
H132 H 0.28323 0.63861 0.68808 0.0
H133 H 0.3023 0.54127 0.58819 0.0
O134 O 0.48958 0.79441 0.54529 0.0
C135 C 0.44905 0.61765 0.53084 0.0
Co136 Co 0.81389 0.12344 0.1269 0.0
Co137 Co 0.8975 0.21589 0.11129 0.0
C138 C 0.81892 0.21219 0.22616 0.0
O139 O 0.79561 0.16997 0.20409 0.0
O140 O 0.85941 0.23091 0.1966 0.0
C141 C 0.71111 0.06846 0.13871 0.0
O142 O 0.69378 0.11447 0.16265 0.0
C143 C 0.90732 0.32914 0.08131 0.0
C144 C 0.99371 0.34373 0.07175 0.0
C145 C 0.94434 0.36868 0.06814 0.0
N146 N 0.93297 0.28246 0.09251 0.0
N147 N 0.98477 0.29139 0.08702 0.0
C148 C 0.84795 0.33595 0.08116 0.0
H149 H 0.82759 0.29853 0.09708 0.0
H150 H 0.83364 0.34677 1.03119 0.0
H151 H 0.83718 0.37026 0.11372 0.0
C152 C 0.77714 0.16709 0.99643 0.0
N153 N 0.81069 0.16566 1.04884 0.0
N154 N 0.84962 0.20042 1.03949 0.0
C155 C 0.84373 0.22213 0.97899 0.0
C156 C 0.79685 0.20326 0.95088 0.0
C157 C 0.72596 0.13655 0.99115 0.0
H158 H 0.73313 0.09317 1.00105 0.0
H159 H 0.69846 0.15252 1.02877 0.0
H160 H 0.70727 0.14104 0.94173 0.0
O161 O 0.88812 0.08836 0.13449 0.0
O162 O 0.94761 0.1544 0.12099 0.0
H163 H 0.88866 0.24348 0.89404 0.0
H164 H 0.86757 0.29914 0.94269 0.0
C165 C 0.88333 0.25751 0.9455 0.0
H166 H 0.92251 0.25685 0.97099 0.0
H167 H 1.01394 0.26176 0.093 0.0
O168 O 0.75965 0.06396 0.12164 0.0
C169 C 0.93657 0.10465 0.13013 0.0
Co170 Co 0.93995 0.80775 0.61755 0.0
Co171 Co 0.83622 0.87637 0.61119 0.0
C172 C 0.84986 0.79863 0.71899 0.0
O173 O 0.89491 0.78364 0.69616 0.0
O174 O 0.82409 0.83718 0.69263 0.0
C175 C 0.98921 0.7034 0.6107 0.0
O176 O 0.94021 0.686 0.61807 0.0
C177 C 0.72172 0.90309 0.59545 0.0
C178 C 0.7256 0.97098 0.52562 0.0
C179 C 0.69054 0.93622 0.55623 0.0
N180 N 0.77331 0.91588 0.58644 0.0
N181 N 0.77514 0.95747 0.54591 0.0
C182 C 0.70193 0.85843 0.63835 0.0
H183 H 0.68859 0.87605 0.68568 0.0
H184 H 0.7335 0.82856 0.64887 0.0
H185 H 0.66715 0.83783 0.61505 0.0
C186 C 0.90216 0.7796 0.48013 0.0
N187 N 0.89775 0.80502 0.53884 0.0
N188 N 0.84916 0.82357 0.54453 0.0
C189 C 0.81912 0.80394 0.49467 0.0
C190 C 0.85169 0.77721 0.44981 0.0
C191 C 0.95467 0.76437 0.45115 0.0
H192 H 0.98538 0.79465 0.46567 0.0
H193 H 0.96772 0.72499 0.47096 0.0
H194 H 0.95193 0.76159 0.39672 0.0
O195 O 0.97089 0.88201 0.62873 0.0
O196 O 0.89717 0.93109 0.61885 0.0
H197 H 0.74522 0.84532 0.48188 0.0
H198 H 0.74209 0.77459 0.45971 0.0
C199 C 0.75947 0.80448 0.49464 0.0
H200 H 0.74534 0.79414 0.54426 0.0
H201 H 0.81043 0.97473 0.52915 0.0
O202 O 0.99852 0.75399 0.60945 0.0
C203 C 0.9478 0.92785 0.62606 0.0
Co204 Co 0.23601 0.93611 0.11873 0.0
Co205 Co 0.15564 0.83985 0.1053 0.0
C206 C 0.23702 0.84568 0.21641 0.0
O207 O 0.25568 0.89027 0.19582 0.0
O208 O 0.19794 0.82249 0.18724 0.0
C209 C 0.33932 0.98876 0.13139 0.0
O210 O 0.35651 0.94158 0.15171 0.0
C211 C 0.13417 0.72616 0.08515 0.0
C212 C 0.05186 0.7237 1.0455 0.0
C213 C 0.09568 0.69166 0.05975 0.0
N214 N 0.11466 0.77655 0.08541 0.0
N215 N 0.06504 0.77485 0.06269 0.0
C216 C 0.19 0.71198 0.10541 0.0
H217 H 0.21738 0.74625 0.09589 0.0
H218 H 0.20408 0.6753 0.07931 0.0
H219 H 0.19082 0.70376 0.15901 0.0
C220 C 0.26971 0.89385 0.98675 0.0
N221 N 0.23781 0.89356 1.03995 0.0
N222 N 0.20303 0.85385 1.03347 0.0
C223 C 0.21158 0.82848 0.97544 0.0
C224 C 0.25454 0.85221 0.94473 0.0
C225 C 0.31584 0.93104 0.97761 0.0
H226 H 0.3051 0.97262 0.99282 0.0
H227 H 0.3492 0.91668 1.00894 0.0
H228 H 0.329 0.93111 0.92565 0.0
O229 O 0.16333 0.97114 0.12819 0.0
O230 O 0.10613 0.90272 0.11796 0.0
H231 H 0.18397 0.77855 0.89471 0.0
H232 H 0.19493 0.74427 0.97105 0.0
C233 C 0.17984 0.7821 0.94886 0.0
H234 H 0.13719 0.7874 0.96063 0.0
H235 H 0.04099 0.8088 0.05628 0.0
O236 O 0.29044 0.99486 0.1155 0.0
C237 C 0.11554 0.953 0.12616 0.0
Co238 Co 0.10096 0.24232 0.62331 0.0
Co239 Co 0.19757 0.16272 0.61014 0.0
C240 C 0.1902 0.24304 0.72309 0.0
O241 O 0.14576 0.26138 0.70252 0.0
O242 O 0.21318 0.20462 0.69292 0.0
C243 C 0.05672 0.34926 0.63423 0.0
O244 O 0.10566 0.3627 0.65114 0.0
C245 C 0.30905 0.13074 0.61965 0.0
C246 C 0.32062 0.09272 0.52279 0.0
C247 C 0.34801 0.11693 0.5748 0.0
N248 N 0.26084 0.12102 0.59236 0.0
N249 N 0.26816 0.09463 0.53653 0.0
C250 C 0.31828 0.15395 0.68709 0.0
H251 H 0.28916 0.13653 0.72182 0.0
H252 H 0.31297 0.19827 0.68665 0.0
H253 H 0.3594 0.14516 0.7047 0.0
C254 C 0.13952 0.27784 0.49116 0.0
N255 N 0.14278 0.24566 0.54469 0.0
N256 N 0.18442 0.21349 0.53882 0.0
C257 C 0.20912 0.22575 0.4816 0.0
C258 C 0.18201 0.26708 0.45042 0.0
C259 C 0.09664 0.31816 0.47822 0.0
H260 H 0.05806 0.30371 0.49752 0.0
H261 H 0.10788 0.35639 0.50291 0.0
H262 H 0.09251 0.32618 0.42472 0.0
O263 O 0.06581 0.16833 0.63025 0.0
O264 O 0.13471 0.11248 0.61929 0.0
H265 H 0.2453 0.15897 0.43312 0.0
H266 H 0.27578 0.22264 0.41493 0.0
C267 C 0.25721 0.19852 0.45446 0.0
H268 H 0.28694 0.19246 0.49356 0.0
H269 H 0.23737 0.08348 0.50427 0.0
O270 O 0.04548 0.30008 0.62094 0.0
C271 C 0.08479 0.12042 0.62681 0.0
C272 C 0.4135 0.04448 0.08453 0.0
C273 C 0.37478 0.03665 0.13394 0.0
C274 C 0.39465 0.12653 0.17844 0.0
C275 C 0.42311 0.13847 0.12055 0.0
N276 N 0.46244 0.10921 1.01906 0.0
N277 N 0.3301 0.06854 0.23108 0.0
C278 C 0.43408 0.09729 0.07411 0.0
C279 C 0.36621 0.07706 0.18233 0.0
N280 N 0.43087 1.00154 1.04833 0.0
N281 N 0.39559 0.16229 0.22978 0.0
H282 H 0.31114 0.03146 0.23791 0.0
H283 H 0.31721 0.0988 0.26289 0.0
H284 H 0.41816 0.19769 0.22875 0.0
H285 H 0.37892 0.15442 0.27542 0.0
H286 H 0.46196 1.00392 1.01495 0.0
H287 H 0.41818 0.96221 0.05724 0.0
H288 H 0.46654 0.08268 0.97954 0.0
H289 H 0.47996 0.14695 1.01176 0.0
C290 C 0.97298 0.38556 0.68354 0.0
C291 C 1.0135 0.38994 0.63583 0.0
C292 C 0.95924 0.45374 0.57271 0.0
C293 C 0.91743 0.44606 0.61779 0.0
N294 N 0.89202 0.42404 0.72792 0.0
N295 N 0.05386 0.44494 0.55227 0.0
C296 C 0.9269 0.41833 0.67738 0.0
C297 C 1.00961 0.42967 0.58593 0.0
N298 N 0.97815 0.34949 0.73385 0.0
N299 N 0.95021 0.48228 0.51641 0.0
H300 H 0.09173 0.43062 0.56425 0.0
H301 H 0.05401 0.47636 0.51841 0.0
H302 H 0.91435 0.50235 0.50725 0.0
H303 H 0.97724 0.48403 0.47795 0.0
H304 H 0.94727 0.33989 0.7656 0.0
H305 H 1.01299 0.32746 0.74217 0.0
H306 H 0.89816 0.40746 0.77426 0.0
H307 H 0.85952 0.45018 0.72505 0.0
C308 C 0.6346 1.01428 0.09108 0.0
C309 C 0.67627 1.0199 0.13849 0.0
C310 C 0.65723 0.92887 0.17893 0.0
C311 C 0.62401 0.91947 0.12298 0.0
N312 N 0.57918 0.95298 1.0263 0.0
N313 N 0.72692 0.9835 0.22941 0.0
C314 C 0.61168 0.96236 0.07954 0.0
C315 C 0.68717 0.97757 0.18333 0.0
N316 N 0.6166 0.05849 0.05776 0.0
N317 N 0.65965 0.8918 0.2284 0.0
H318 H 0.74707 1.01989 0.23749 0.0
H319 H 0.74182 0.95169 0.2574 0.0
H320 H 0.63812 0.85585 0.22771 0.0
H321 H 0.67882 0.89901 0.27324 0.0
H322 H 0.58329 0.05796 1.02675 0.0
H323 H 0.63164 0.09712 0.06643 0.0
H324 H 0.5737 0.9805 0.98828 0.0
H325 H 0.55942 0.91629 1.01876 0.0
C326 C 0.07175 0.66527 0.66279 0.0
C327 C 0.03423 0.66475 0.61003 0.0
C328 C 0.09282 0.60649 0.54539 0.0
C329 C 0.13166 0.61022 0.59623 0.0
N330 N 0.15258 0.62719 0.71013 0.0
N331 N 1.00095 0.6209 0.51145 0.0
C332 C 0.11911 0.63427 0.65743 0.0
C333 C 0.04195 0.63045 0.55475 0.0
N334 N 0.06248 0.69626 0.71734 0.0
N335 N 0.10557 0.58216 0.48719 0.0
H336 H 0.96312 0.63738 0.51723 0.0
H337 H 1.00281 0.59275 0.47333 0.0
H338 H 0.14159 0.56194 0.48041 0.0
H339 H 0.08165 0.58381 0.44509 0.0
H340 H 0.09094 0.70384 0.75388 0.0
H341 H 0.02647 0.71623 0.72501 0.0
H342 H 0.1441 0.64011 0.75765 0.0
H343 H 0.18691 0.60365 0.70741 0.0
C344 C 0.90665 0.51589 0.08619 0.0
C345 C 0.87081 0.51917 1.03184 0.0
C346 C 0.90581 0.43407 0.98879 0.0
C347 C 0.93144 0.42506 0.05003 0.0
N348 N 0.95898 0.4573 0.15701 0.0
N349 N 0.83871 0.48416 0.92782 0.0
C350 C 0.93367 0.46644 0.0983 0.0
C351 C 0.87153 0.47928 0.98157 0.0
N352 N 0.9147 0.55979 0.12603 0.0
N353 N 0.91465 0.39914 0.93792 0.0
H354 H 0.81558 0.51844 0.91917 0.0
H355 H 0.83276 0.45356 0.89317 0.0
H356 H 0.94123 0.36691 0.94218 0.0
H357 H 0.89986 0.40475 0.8905 0.0
H358 H 0.94374 0.56135 0.163 0.0
H359 H 0.8958 0.59662 0.11794 0.0
H360 H 0.95643 0.48319 0.19736 0.0
H361 H 0.9808 0.42228 0.16625 0.0
C362 C 0.5708 0.86839 0.47879 0.0
C363 C 0.53203 0.8788 0.52741 0.0
C364 C 0.59392 0.93922 0.58595 0.0
C365 C 0.6336 0.92661 0.53925 0.0
N366 N 0.65512 0.8935 0.43073 0.0
N367 N 0.50022 0.9363 0.61434 0.0
C368 C 0.62045 0.896 0.48203 0.0
C369 C 0.54143 0.91844 0.57676 0.0
N370 N 0.56058 0.83097 0.4305 0.0
N371 N 0.60705 0.96958 0.64009 0.0
H372 H 0.46118 0.92311 0.60678 0.0
H373 H 0.50346 0.96812 0.64782 0.0
H374 H 0.64435 0.98783 0.64609 0.0
H375 H 0.58203 0.97478 0.68013 0.0
H376 H 0.58951 0.81591 0.39904 0.0
H377 H 0.52328 0.81292 0.4237 0.0
H378 H 0.64578 0.87583 0.38552 0.0
H379 H 0.69156 0.91361 0.43061 0.0
C380 C 0.16205 0.5756 0.97622 0.0
C381 C 0.15531 0.53483 1.02409 0.0
C382 C 0.09437 0.59273 0.08552 0.0
C383 C 0.10438 0.63469 1.04033 0.0
N384 N 0.1292 0.6598 0.93083 0.0
N385 N 0.0994 0.49669 0.10765 0.0
C386 C 0.13212 0.62395 0.9815 0.0
C387 C 0.11612 0.54069 0.07338 0.0
N388 N 0.19785 0.56854 0.92674 0.0
N389 N 0.06581 0.60319 0.14093 0.0
H390 H 0.11219 0.45777 0.0964 0.0
H391 H 0.06846 0.49783 0.14135 0.0
H392 H 0.04744 0.64035 0.14926 0.0
H393 H 0.06225 0.576 0.17956 0.0
H394 H 0.20922 0.59928 0.89502 0.0
H395 H 0.21787 0.53217 0.91912 0.0
H396 H 0.14554 0.65275 0.88474 0.0
H397 H 0.10539 0.69422 0.93307 0.0
C398 C 0.44621 0.10822 0.54935 0.0
C399 C 0.40281 0.14029 0.57081 0.0
C400 C 0.46444 0.21488 0.59143 0.0
C401 C 0.50585 0.18695 0.5585 0.0
N402 N 0.52999 0.10914 0.49189 0.0
N403 N 0.37108 0.23245 0.58712 0.0
C404 C 0.49535 0.13391 0.53366 0.0
C405 C 0.4118 0.19599 0.58463 0.0
N406 N 0.44098 0.05344 0.54436 0.0
N407 N 0.47446 0.25879 0.63071 0.0
H408 H 0.33152 0.22289 0.57743 0.0
H409 H 0.37777 0.27395 0.59142 0.0
H410 H 0.51249 0.27291 0.64219 0.0
H411 H 0.44479 0.27691 0.65883 0.0
H412 H 0.47298 0.0281 0.53403 0.0
H413 H 0.40618 0.03311 0.55717 0.0
H414 H 0.52139 0.07243 0.46872 0.0
H415 H 0.56396 0.12782 0.47379 0.0
C416 C 0.51986 0.56704 0.9846 0.0
C417 C 0.55742 0.56627 1.03761 0.0
C418 C 0.50057 0.50008 0.09494 0.0
C419 C 0.46583 0.49677 1.03919 0.0
N420 N 0.44594 0.52252 0.92754 0.0
N421 N 0.58573 0.52875 0.14149 0.0
C422 C 0.4762 0.52944 0.9833 0.0
C423 C 0.5484 0.53164 0.0921 0.0
N424 N 0.52595 0.60371 0.93521 0.0
N425 N 0.48641 0.47523 0.15212 0.0
H426 H 0.61905 0.55397 0.14425 0.0
H427 H 0.5854 0.49933 0.17789 0.0
H428 H 0.45143 0.45282 0.15686 0.0
H429 H 0.50654 0.48077 0.19669 0.0
H430 H 0.49704 0.611 0.89924 0.0
H431 H 0.55858 0.62975 0.93259 0.0
H432 H 0.45468 0.54035 0.88267 0.0
H433 H 0.41423 0.49529 0.92446 0.0
C434 C 0.55637 0.51673 0.47395 0.0
C435 C 0.56289 0.48462 0.53121 0.0
C436 C 0.49248 0.5372 0.58625 0.0
C437 C 0.48784 0.57131 0.53024 0.0
N438 N 0.51801 0.59655 0.4225 0.0
N439 N 0.54277 0.46833 0.64494 0.0
C440 C 0.52076 0.56198 0.47467 0.0
C441 C 0.53215 0.49577 0.58802 0.0
N442 N 0.58293 0.50263 0.41805 0.0
N443 N 0.45904 0.54455 0.63824 0.0
H444 H 0.57099 0.43754 0.64821 0.0
H445 H 0.52674 0.4784 0.69035 0.0
H446 H 0.43295 0.57709 0.64216 0.0
H447 H 0.45499 0.51699 0.67634 0.0
H448 H 0.57623 0.52025 0.37238 0.0
H449 H 0.60955 0.47034 0.41621 0.0
H450 H 0.54488 0.5964 0.38388 0.0
H451 H 0.49009 0.62759 0.41911 0.0
C452 C 0.05903 1.02542 0.07295 0.0
C453 C 0.06962 0.99179 0.12807 0.0
C454 C 0.99366 0.03312 0.18608 0.0
C455 C 0.9813 0.06439 0.12947 0.0
N456 N 0.99588 0.08252 1.01466 0.0
N457 N 0.04358 0.95862 0.23421 0.0
C458 C 1.01246 0.05856 0.07182 0.0
C459 C 0.03569 0.99403 0.18367 0.0
N460 N 0.09355 1.02575 1.02134 0.0
N461 N 0.96676 0.04251 0.24312 0.0
H462 H 0.07545 0.93164 0.23583 0.0
H463 H 1.01694 0.95358 0.27259 0.0
H464 H 0.93593 0.07054 0.24661 0.0
H465 H 0.97737 1.02567 0.28818 0.0
H466 H 0.09213 0.0542 0.98383 0.0
H467 H 0.126 0.99968 1.01781 0.0
H468 H 1.0131 0.07516 0.96914 0.0
H469 H 0.96155 0.10608 1.01119 0.0
C470 C 0.98045 1.01496 0.68029 0.0
C471 C 0.98124 0.97843 0.62601 0.0
C472 C 0.0445 0.03873 0.56964 0.0
C473 C 0.04773 0.07248 0.62642 0.0
N474 N 0.02331 0.08965 0.7388 0.0
N475 N 1.01716 0.95328 0.5206 0.0
C476 C 1.01653 0.05999 0.6824 0.0
C477 C 1.01438 0.98965 0.57132 0.0
N478 N 0.94517 1.0066 0.72999 0.0
N479 N 0.06806 0.05508 0.51269 0.0
H480 H 0.99288 0.91913 0.51696 0.0
H481 H 0.04564 0.95517 0.48382 0.0
H482 H 0.08949 0.09105 0.50888 0.0
H483 H 0.06244 0.03579 0.46753 0.0
H484 H 0.93792 0.03467 0.7671 0.0
H485 H 0.92034 0.97282 0.73194 0.0
H486 H 1.00652 0.07943 0.78364 0.0
H487 H 0.04924 0.12256 0.74222 0.0
C488 C 0.25776 0.363 0.33843 0.0
C489 C 0.24496 0.34104 0.2756 0.0
C490 C 0.18636 0.27381 0.32683 0.0
C491 C 0.19874 0.29608 0.38963 0.0
N492 N 0.23848 0.36709 0.45528 0.0
N493 N 0.19002 0.28278 0.20795 0.0
C494 C 0.23188 0.34253 0.39533 0.0
C495 C 0.20696 0.29865 0.26924 0.0
N496 N 0.29629 0.40197 0.34384 0.0
N497 N 0.15623 0.22781 0.32253 0.0
H498 H 0.20467 0.29965 0.16483 0.0
H499 H 0.15857 0.25606 0.19955 0.0
H500 H 0.13844 0.21012 0.36329 0.0
H501 H 0.15104 0.20547 0.27943 0.0
H502 H 0.31231 0.41538 0.38844 0.0
H503 H 0.31478 0.41896 0.30313 0.0
H504 H 0.25747 0.40413 0.46206 0.0
H505 H 0.22139 0.35241 0.49817 0.0
C506 C 0.73341 0.26859 0.89736 0.0
C507 C 0.76994 0.22512 0.8911 0.0
C508 C 0.7645 0.23177 0.77082 0.0
C509 C 0.72582 0.27327 0.77712 0.0
N510 N 0.66686 0.32554 0.84491 0.0
N511 N 0.81437 0.15953 0.82344 0.0
C512 C 0.70827 0.28995 0.84005 0.0
C513 C 0.78367 0.20493 0.82818 0.0
N514 N 0.72419 0.29074 0.95795 0.0
N515 N 0.78413 0.21926 0.71014 0.0
H516 H 0.82958 0.13946 0.86454 0.0
H517 H 0.82144 0.13931 0.77939 0.0
H518 H 0.77033 0.23718 0.66689 0.0
H519 H 0.81662 0.19393 0.70281 0.0
H520 H 0.70321 0.32649 0.96502 0.0
H521 H 0.74065 0.27546 1.00133 0.0
H522 H 0.64817 0.33487 0.88897 0.0
H523 H 0.64829 0.34278 0.80395 0.0
C524 C 0.85296 0.70617 0.35621 0.0
C525 C 0.83453 0.75588 0.3832 0.0
C526 C 0.76418 0.7553 0.30027 0.0
C527 C 0.78907 0.71331 0.26427 0.0
N528 N 0.87026 0.66126 0.2529 0.0
N529 N 0.78591 0.83771 0.35686 0.0
C530 C 0.83748 0.69199 0.29055 0.0
C531 C 0.79455 0.7839 0.34748 0.0
N532 N 0.88217 0.67105 0.39312 0.0
N533 N 0.71152 0.76711 0.29177 0.0
H534 H 0.81087 0.8615 0.38653 0.0
H535 H 0.75769 0.85886 0.32911 0.0
H536 H 0.68618 0.74336 0.26258 0.0
H537 H 0.69266 0.79655 0.32012 0.0
H538 H 0.89372 0.63333 0.37515 0.0
H539 H 0.88843 0.67675 0.4434 0.0
H540 H 0.90711 0.64752 0.27021 0.0
H541 H 0.86365 0.65607 0.20262 0.0
C542 C 0.26383 0.84935 0.8215 0.0
C543 C 0.28184 0.83227 0.88443 0.0
C544 C 0.34329 0.7678 0.8328 0.0
C545 C 0.32627 0.78588 0.76987 0.0
N546 N 0.27643 0.8486 0.70313 0.0
N547 N 0.34355 0.78145 0.95128 0.0
C548 C 0.28841 0.82823 0.76392 0.0
C549 C 0.32318 0.7934 0.89041 0.0
N550 N 0.22198 0.88451 0.81691 0.0
N551 N 0.37748 0.72497 0.83732 0.0
H552 H 0.32886 0.7982 0.9946 0.0
H553 H 0.37736 0.75794 0.959 0.0
H554 H 0.39447 0.70663 0.79628 0.0
H555 H 0.38678 0.70538 0.88111 0.0
H556 H 0.20244 0.89383 0.77303 0.0
H557 H 0.20449 0.90236 0.85795 0.0
H558 H 0.25373 0.88318 0.69556 0.0
H559 H 0.29222 0.83303 0.65977 0.0
C560 C 0.78579 0.68613 0.82326 0.0
C561 C 0.75328 0.71817 0.86555 0.0
C562 C 0.79353 0.7997 0.81964 0.0
C563 C 0.82311 0.76902 0.7739 0.0
N564 N 0.83399 0.68215 0.72057 0.0
N565 N 0.70751 0.80459 0.86882 0.0
C566 C 0.81618 0.71176 0.77276 0.0
C567 C 0.75149 0.7748 0.85392 0.0
N568 N 0.78526 0.63115 0.82784 0.0
N569 N 0.80465 0.8531 0.82988 0.0
H570 H 0.67114 0.78709 0.88088 0.0
H571 H 0.7045 0.84553 0.85743 0.0
H572 H 0.83675 0.87249 0.80774 0.0
H573 H 0.78555 0.87583 0.86598 0.0
H574 H 0.81421 0.60674 0.80649 0.0
H575 H 0.75553 0.6099 0.85207 0.0
H576 H 0.82544 0.6413 0.71381 0.0
H577 H 0.85221 0.69932 0.68004 0.0
C578 C 0.33744 0.76167 0.31548 0.0
C579 C 0.31721 0.76759 0.38005 0.0
C580 C 0.2419 0.82083 0.33649 0.0
C581 C 0.26411 0.81819 0.27269 0.0
N582 N 0.33567 0.79106 0.20155 0.0
N583 N 0.25632 0.81129 0.4541 0.0
C584 C 0.31278 0.79012 0.26229 0.0
C585 C 0.27094 0.79933 0.3911 0.0
N586 N 0.3791 0.72731 0.30472 0.0
N587 N 0.19283 0.84363 0.34487 0.0
H588 H 0.27757 0.79783 0.49521 0.0
H589 H 0.2263 0.83855 0.46581 0.0
H590 H 0.17139 0.86158 0.30656 0.0
H591 H 0.17164 0.84134 0.38852 0.0
H592 H 0.39225 0.71636 0.25816 0.0
H593 H 0.39836 0.70644 0.34253 0.0
H594 H 0.37396 0.77704 0.19227 0.0
H595 H 0.31762 0.80897 0.16068 0.0
C596 C 0.19534 0.26813 0.8439 0.0
C597 C 0.21795 0.26983 0.7802 0.0
C598 C 0.29547 0.31975 0.82545 0.0
C599 C 0.27087 0.32183 0.88795 0.0
N600 N 0.19522 0.30231 0.95621 0.0
N601 N 0.28483 0.30552 0.7078 0.0
C602 C 0.22004 0.29739 0.89691 0.0
C603 C 0.26694 0.29764 0.77035 0.0
N604 N 0.15143 0.23659 0.85433 0.0
N605 N 0.34633 0.33873 0.81874 0.0
H606 H 0.26479 0.29098 0.6661 0.0
H607 H 0.31704 0.33025 0.69656 0.0
H608 H 0.36751 0.35733 0.85708 0.0
H609 H 0.36894 0.33263 0.77672 0.0
H610 H 0.13617 0.22862 0.90068 0.0
H611 H 0.13247 0.21463 0.81689 0.0
H612 H 0.15567 0.29148 0.96384 0.0
H613 H 0.21318 0.32027 0.99737 0.0
C614 C 0.78589 0.29655 0.28679 0.0
C615 C 0.79733 0.23999 0.2867 0.0
C616 C 0.75613 0.23394 0.39649 0.0
C617 C 0.73757 0.28795 0.39055 0.0
N618 N 0.72695 0.3675 0.32423 0.0
N619 N 0.79476 0.15497 0.34447 0.0
C620 C 0.75027 0.31827 0.33406 0.0
C621 C 0.78247 0.2087 0.34237 0.0
N622 N 0.81045 0.33061 0.2441 0.0
N623 N 0.75127 0.20767 0.45517 0.0
H624 H 0.82077 0.13663 0.31156 0.0
H625 H 0.77824 0.12825 0.37803 0.0
H626 H 0.73324 0.22489 0.49618 0.0
H627 H 0.76903 0.17064 0.46534 0.0
H628 H 0.80663 0.37248 0.24637 0.0
H629 H 0.84072 0.31876 0.2131 0.0
H630 H 0.72977 0.38867 0.28022 0.0
H631 H 0.70023 0.38464 0.35726 0.0
loop_
_geom_bond_atom_site_label_1
_geom_bond_atom_site_label_2
_geom_bond_distance
_geom_bond_site_symmetry_2
_ccdc_geom_bond_type
Co0 O3 1.970 1_554 S
Co0 N17 1.989 . S
Co0 O25 1.967 1_554 S
Co0 O32 1.920 . S
Co1 O4 1.966 1_554 S
Co1 N10 2.022 . S
Co1 N18 1.993 . S
Co1 O26 1.941 1_554 S
C2 O3 1.258 . S
C2 O4 1.263 . S
O3 Co0 1.970 1_556 S
O3 C2 1.258 . S
O4 Co1 1.966 1_556 S
O4 C2 1.263 . S
C5 O6 1.235 . S
C5 O32 1.289 . S
O6 C5 1.235 . S
C7 C9 1.400 1_556 S
C7 N10 1.351 1_556 S
C7 C12 1.501 . S
C8 C9 1.387 . S
C8 N11 1.341 . S
C9 C7 1.400 1_554 S
C9 C8 1.387 . S
N10 Co1 2.022 . S
N10 C7 1.351 1_554 S
N10 N11 1.365 . S
N11 C8 1.341 . S
N11 N10 1.365 . S
N11 H31 0.862 . S
C12 C7 1.501 . S
C12 H13 0.961 . S
C12 H14 0.961 . S
C12 H15 0.960 . S
H13 C12 0.961 . S
H14 C12 0.961 . S
H15 C12 0.960 . S
C16 N17 1.342 . S
C16 C20 1.401 . S
C16 C21 1.499 . S
N17 Co0 1.989 . S
N17 C16 1.342 . S
N17 N18 1.388 . S
N18 Co1 1.993 . S
N18 N17 1.388 . S
N18 C19 1.346 . S
C19 N18 1.346 . S
C19 C20 1.396 . S
C19 C29 1.510 . S
C20 C16 1.401 . S
C20 C19 1.396 . S
C21 C16 1.499 . S
C21 H22 0.959 . S
C21 H23 0.960 . S
C21 H24 0.961 . S
H22 C21 0.959 . S
H23 C21 0.960 . S
H24 C21 0.961 . S
O25 Co0 1.967 1_556 S
O25 C33 1.258 . S
O26 Co1 1.941 1_556 S
O26 C33 1.266 . S
H27 C29 0.959 . S
H28 C29 0.961 . S
C29 C19 1.510 . S
C29 H27 0.959 . S
C29 H28 0.961 . S
C29 H30 0.960 . S
H30 C29 0.960 . S
H31 N11 0.862 . S
O32 Co0 1.920 . S
O32 C5 1.289 . S
C33 O25 1.258 . S
C33 O26 1.266 . S
Co34 O37 1.970 . S
Co34 N51 1.989 . S
Co34 O59 1.967 . S
Co34 O66 1.920 . S
Co35 O38 1.966 . S
Co35 N44 2.022 . S
Co35 N52 1.993 . S
Co35 O60 1.941 . S
C36 O37 1.258 . S
C36 O38 1.263 . S
O37 Co34 1.970 . S
O37 C36 1.258 . S
O38 Co35 1.966 . S
O38 C36 1.263 . S
C39 O40 1.235 . S
C39 O66 1.289 . S
O40 C39 1.235 . S
C41 C43 1.400 . S
C41 N44 1.351 . S
C41 C46 1.501 . S
C42 C43 1.387 . S
C42 N45 1.341 . S
C43 C41 1.400 . S
C43 C42 1.387 . S
N44 Co35 2.022 . S
N44 C41 1.351 . S
N44 N45 1.365 . S
N45 C42 1.341 . S
N45 N44 1.365 . S
N45 H65 0.862 . S
C46 C41 1.501 . S
C46 H47 0.961 . S
C46 H48 0.961 . S
C46 H49 0.960 . S
H47 C46 0.961 . S
H48 C46 0.961 . S
H49 C46 0.960 . S
C50 N51 1.342 . S
C50 C54 1.401 . S
C50 C55 1.499 . S
N51 Co34 1.989 . S
N51 C50 1.342 . S
N51 N52 1.388 . S
N52 Co35 1.993 . S
N52 N51 1.388 . S
N52 C53 1.346 . S
C53 N52 1.346 . S
C53 C54 1.396 . S
C53 C63 1.510 . S
C54 C50 1.401 . S
C54 C53 1.396 . S
C55 C50 1.499 . S
C55 H56 0.959 . S
C55 H57 0.960 . S
C55 H58 0.961 . S
H56 C55 0.959 . S
H57 C55 0.960 . S
H58 C55 0.961 . S
O59 Co34 1.967 . S
O59 C67 1.258 . S
O60 Co35 1.941 . S
O60 C67 1.266 . S
H61 C63 0.959 . S
H62 C63 0.961 . S
C63 C53 1.510 . S
C63 H61 0.959 . S
C63 H62 0.961 . S
C63 H64 0.960 . S
H64 C63 0.960 . S
H65 N45 0.862 . S
O66 Co34 1.920 . S
O66 C39 1.289 . S
C67 O59 1.258 . S
C67 O60 1.266 . S
Co68 O71 1.970 1_554 S
Co68 N85 1.989 . S
Co68 O93 1.967 1_554 S
Co68 O100 1.920 . S
Co69 O72 1.966 1_554 S
Co69 N78 2.022 . S
Co69 N86 1.993 . S
Co69 O94 1.941 1_554 S
C70 O71 1.258 . S
C70 O72 1.263 . S
O71 Co68 1.970 1_556 S
O71 C70 1.258 . S
O72 Co69 1.966 1_556 S
O72 C70 1.263 . S
C73 O74 1.235 . S
C73 O100 1.289 . S
O74 C73 1.235 . S
C75 C77 1.400 1_556 S
C75 N78 1.351 1_556 S
C75 C80 1.501 . S
C76 C77 1.387 . S
C76 N79 1.341 . S
C77 C75 1.400 1_554 S
C77 C76 1.387 . S
N78 Co69 2.022 . S
N78 C75 1.351 1_554 S
N78 N79 1.365 . S
N79 C76 1.341 . S
N79 N78 1.365 . S
N79 H99 0.862 . S
C80 C75 1.501 . S
C80 H81 0.961 . S
C80 H82 0.961 . S
C80 H83 0.960 . S
H81 C80 0.961 . S
H82 C80 0.961 . S
H83 C80 0.960 . S
C84 N85 1.342 . S
C84 C88 1.401 . S
C84 C89 1.499 . S
N85 Co68 1.989 . S
N85 C84 1.342 . S
N85 N86 1.388 . S
N86 Co69 1.993 . S
N86 N85 1.388 . S
N86 C87 1.346 . S
C87 N86 1.346 . S
C87 C88 1.396 . S
C87 C97 1.510 . S
C88 C84 1.401 . S
C88 C87 1.396 . S
C89 C84 1.499 . S
C89 H90 0.959 . S
C89 H91 0.960 . S
C89 H92 0.961 . S
H90 C89 0.959 . S
H91 C89 0.960 . S
H92 C89 0.961 . S
O93 Co68 1.967 1_556 S
O93 C101 1.258 . S
O94 Co69 1.941 1_556 S
O94 C101 1.266 . S
H95 C97 0.959 . S
H96 C97 0.961 . S
C97 C87 1.510 . S
C97 H95 0.959 . S
C97 H96 0.961 . S
C97 H98 0.960 . S
H98 C97 0.960 . S
H99 N79 0.862 . S
O100 Co68 1.920 . S
O100 C73 1.289 . S
C101 O93 1.258 . S
C101 O94 1.266 . S
Co102 O105 1.970 . S
Co102 N119 1.989 . S
Co102 O127 1.967 . S
Co102 O134 1.920 . S
Co103 O106 1.966 . S
Co103 N112 2.022 . S
Co103 N120 1.993 . S
Co103 O128 1.941 . S
C104 O105 1.258 . S
C104 O106 1.263 . S
O105 Co102 1.970 . S
O105 C104 1.258 . S
O106 Co103 1.966 . S
O106 C104 1.263 . S
C107 O108 1.235 . S
C107 O134 1.289 . S
O108 C107 1.235 . S
C109 C111 1.400 . S
C109 N112 1.351 . S
C109 C114 1.501 . S
C110 C111 1.387 . S
C110 N113 1.341 . S
C111 C109 1.400 . S
C111 C110 1.387 . S
N112 Co103 2.022 . S
N112 C109 1.351 . S
N112 N113 1.365 . S
N113 C110 1.341 . S
N113 N112 1.365 . S
N113 H133 0.862 . S
C114 C109 1.501 . S
C114 H115 0.961 . S
C114 H116 0.961 . S
C114 H117 0.960 . S
H115 C114 0.961 . S
H116 C114 0.961 . S
H117 C114 0.960 . S
C118 N119 1.342 . S
C118 C122 1.401 . S
C118 C123 1.499 . S
N119 Co102 1.989 . S
N119 C118 1.342 . S
N119 N120 1.388 . S
N120 Co103 1.993 . S
N120 N119 1.388 . S
N120 C121 1.346 . S
C121 N120 1.346 . S
C121 C122 1.396 . S
C121 C131 1.510 . S
C122 C118 1.401 . S
C122 C121 1.396 . S
C123 C118 1.499 . S
C123 H124 0.959 . S
C123 H125 0.960 . S
C123 H126 0.961 . S
H124 C123 0.959 . S
H125 C123 0.960 . S
H126 C123 0.961 . S
O127 Co102 1.967 . S
O127 C135 1.258 . S
O128 Co103 1.941 . S
O128 C135 1.266 . S
H129 C131 0.959 . S
H130 C131 0.961 . S
C131 C121 1.510 . S
C131 H129 0.959 . S
C131 H130 0.961 . S
C131 H132 0.960 . S
H132 C131 0.960 . S
H133 N113 0.862 . S
O134 Co102 1.920 . S
O134 C107 1.289 . S
C135 O127 1.258 . S
C135 O128 1.266 . S
Co136 O139 1.970 . S
Co136 N153 1.989 1_554 S
Co136 O161 1.967 . S
Co136 O168 1.920 1_545 S
Co137 O140 1.966 . S
Co137 N146 2.022 . S
Co137 N154 1.993 1_554 S
Co137 O162 1.941 . S
C138 O139 1.258 . S
C138 O140 1.263 . S
O139 Co136 1.970 . S
O139 C138 1.258 . S
O140 Co137 1.966 . S
O140 C138 1.263 . S
C141 O142 1.235 . S
C141 O168 1.289 . S
O142 C141 1.235 . S
C143 C145 1.400 . S
C143 N146 1.351 . S
C143 C148 1.501 . S
C144 C145 1.390 . S
C144 N147 1.341 . S
C145 C143 1.400 . S
C145 C144 1.390 . S
N146 Co137 2.022 . S
N146 C143 1.351 . S
N146 N147 1.365 . S
N147 C144 1.341 . S
N147 N146 1.365 . S
N147 H167 0.862 1_554 S
C148 C143 1.501 . S
C148 H149 0.961 . S
C148 H150 0.961 . S
C148 H151 0.960 . S
H149 C148 0.961 . S
H150 C148 0.961 . S
H151 C148 0.960 . S
C152 N153 1.342 . S
C152 C156 1.401 . S
C152 C157 1.499 . S
N153 Co136 1.989 1_556 S
N153 C152 1.342 . S
N153 N154 1.388 . S
N154 Co137 1.993 1_556 S
N154 N153 1.388 . S
N154 C155 1.346 . S
C155 N154 1.346 . S
C155 C156 1.396 . S
C155 C165 1.510 . S
C156 C152 1.401 . S
C156 C155 1.396 . S
C157 C152 1.499 . S
C157 H158 0.959 1_545 S
C157 H159 0.960 . S
C157 H160 0.961 . S
H158 C157 0.959 1_565 S
H159 C157 0.960 . S
H160 C157 0.961 . S
O161 Co136 1.967 . S
O161 C169 1.258 . S
O162 Co137 1.941 . S
O162 C169 1.266 . S
H163 C165 0.959 . S
H164 C165 0.961 . S
C165 C155 1.510 . S
C165 H163 0.959 . S
C165 H164 0.961 . S
C165 H166 0.960 . S
H166 C165 0.960 . S
H167 N147 0.862 1_556 S
O168 Co136 1.920 1_565 S
O168 C141 1.289 . S
C169 O161 1.258 . S
C169 O162 1.266 . S
Co170 O173 1.970 . S
Co170 N187 1.989 . S
Co170 O195 1.967 . S
Co170 O202 1.920 1_655 S
Co171 O174 1.966 . S
Co171 N180 2.022 . S
Co171 N188 1.993 . S
Co171 O196 1.941 . S
C172 O173 1.258 . S
C172 O174 1.263 . S
O173 Co170 1.970 . S
O173 C172 1.258 . S
O174 Co171 1.966 . S
O174 C172 1.263 . S
C175 O176 1.235 . S
C175 O202 1.289 . S
O176 C175 1.235 . S
C177 C179 1.400 . S
C177 N180 1.351 . S
C177 C182 1.501 . S
C178 C179 1.387 . S
C178 N181 1.341 . S
C179 C177 1.400 . S
C179 C178 1.387 . S
N180 Co171 2.022 . S
N180 C177 1.351 . S
N180 N181 1.365 . S
N181 C178 1.341 . S
N181 N180 1.365 . S
N181 H201 0.862 . S
C182 C177 1.501 . S
C182 H183 0.961 . S
C182 H184 0.961 . S
C182 H185 0.960 . S
H183 C182 0.961 . S
H184 C182 0.961 . S
H185 C182 0.960 . S
C186 N187 1.342 . S
C186 C190 1.401 . S
C186 C191 1.499 . S
N187 Co170 1.989 . S
N187 C186 1.342 . S
N187 N188 1.388 . S
N188 Co171 1.993 . S
N188 N187 1.388 . S
N188 C189 1.346 . S
C189 N188 1.346 . S
C189 C190 1.396 . S
C189 C199 1.510 . S
C190 C186 1.401 . S
C190 C189 1.396 . S
C191 C186 1.499 . S
C191 H192 0.959 1_655 S
C191 H193 0.960 . S
C191 H194 0.961 . S
H192 C191 0.959 1_455 S
H193 C191 0.960 . S
H194 C191 0.961 . S
O195 Co170 1.967 . S
O195 C203 1.258 . S
O196 Co171 1.941 . S
O196 C203 1.266 . S
H197 C199 0.959 . S
H198 C199 0.961 . S
C199 C189 1.510 . S
C199 H197 0.959 . S
C199 H198 0.961 . S
C199 H200 0.960 . S
H200 C199 0.960 . S
H201 N181 0.862 . S
O202 Co170 1.920 1_455 S
O202 C175 1.289 . S
C203 O195 1.258 . S
C203 O196 1.266 . S
Co204 O207 1.970 . S
Co204 N221 1.989 1_554 S
Co204 O229 1.967 . S
Co204 O236 1.920 1_565 S
Co205 O208 1.966 . S
Co205 N214 2.022 . S
Co205 N222 1.993 1_554 S
Co205 O230 1.941 . S
C206 O207 1.258 . S
C206 O208 1.263 . S
O207 Co204 1.970 . S
O207 C206 1.258 . S
O208 Co205 1.966 . S
O208 C206 1.263 . S
C209 O210 1.235 . S
C209 O236 1.289 . S
O210 C209 1.235 . S
C211 C213 1.400 . S
C211 N214 1.351 . S
C211 C216 1.501 . S
C212 C213 1.390 . S
C212 N215 1.341 . S
C213 C211 1.400 . S
C213 C212 1.390 . S
N214 Co205 2.022 . S
N214 C211 1.351 . S
N214 N215 1.365 . S
N215 C212 1.341 . S
N215 N214 1.365 . S
N215 H235 0.862 1_554 S
C216 C211 1.501 . S
C216 H217 0.961 . S
C216 H218 0.961 . S
C216 H219 0.960 . S
H217 C216 0.961 . S
H218 C216 0.961 . S
H219 C216 0.960 . S
C220 N221 1.342 . S
C220 C224 1.401 . S
C220 C225 1.499 . S
N221 Co204 1.989 1_556 S
N221 C220 1.342 . S
N221 N222 1.388 . S
N222 Co205 1.993 1_556 S
N222 N221 1.388 . S
N222 C223 1.346 . S
C223 N222 1.346 . S
C223 C224 1.396 . S
C223 C233 1.510 . S
C224 C220 1.401 . S
C224 C223 1.396 . S
C225 C220 1.499 . S
C225 H226 0.959 1_565 S
C225 H227 0.960 . S
C225 H228 0.961 . S
H226 C225 0.959 1_545 S
H227 C225 0.960 . S
H228 C225 0.961 . S
O229 Co204 1.967 . S
O229 C237 1.258 . S
O230 Co205 1.941 . S
O230 C237 1.266 . S
H231 C233 0.959 . S
H232 C233 0.961 . S
C233 C223 1.510 . S
C233 H231 0.959 . S
C233 H232 0.961 . S
C233 H234 0.960 . S
H234 C233 0.960 . S
H235 N215 0.862 1_556 S
O236 Co204 1.920 1_545 S
O236 C209 1.289 . S
C237 O229 1.258 . S
C237 O230 1.266 . S
Co238 O241 1.970 . S
Co238 N255 1.989 . S
Co238 O263 1.967 . S
Co238 O270 1.920 1_455 S
Co239 O242 1.966 . S
Co239 N248 2.022 . S
Co239 N256 1.993 . S
Co239 O264 1.941 . S
C240 O241 1.258 . S
C240 O242 1.263 . S
O241 Co238 1.970 . S
O241 C240 1.258 . S
O242 Co239 1.966 . S
O242 C240 1.263 . S
C243 O244 1.235 . S
C243 O270 1.289 . S
O244 C243 1.235 . S
C245 C247 1.400 . S
C245 N248 1.351 . S
C245 C250 1.501 . S
C246 C247 1.387 . S
C246 N249 1.341 . S
C247 C245 1.400 . S
C247 C246 1.387 . S
N248 Co239 2.022 . S
N248 C245 1.351 . S
N248 N249 1.365 . S
N249 C246 1.341 . S
N249 N248 1.365 . S
N249 H269 0.862 . S
C250 C245 1.501 . S
C250 H251 0.961 . S
C250 H252 0.961 . S
C250 H253 0.960 . S
H251 C250 0.961 . S
H252 C250 0.961 . S
H253 C250 0.960 . S
C254 N255 1.342 . S
C254 C258 1.401 . S
C254 C259 1.499 . S
N255 Co238 1.989 . S
N255 C254 1.342 . S
N255 N256 1.388 . S
N256 Co239 1.993 . S
N256 N255 1.388 . S
N256 C257 1.346 . S
C257 N256 1.346 . S
C257 C258 1.396 . S
C257 C267 1.510 . S
C258 C254 1.401 . S
C258 C257 1.396 . S
C259 C254 1.499 . S
C259 H260 0.959 1_455 S
C259 H261 0.960 . S
C259 H262 0.961 . S
H260 C259 0.959 1_655 S
H261 C259 0.960 . S
H262 C259 0.961 . S
O263 Co238 1.967 . S
O263 C271 1.258 . S
O264 Co239 1.941 . S
O264 C271 1.266 . S
H265 C267 0.959 . S
H266 C267 0.961 . S
C267 C257 1.510 . S
C267 H265 0.959 . S
C267 H266 0.961 . S
C267 H268 0.960 . S
H268 C267 0.960 . S
H269 N249 0.862 . S
O270 Co238 1.920 1_655 S
O270 C243 1.289 . S
C271 O263 1.258 . S
C271 O264 1.266 . S
C272 C273 1.363 . S
C272 C278 1.379 1_554 S
C272 N280 1.356 1_554 S
C273 C272 1.363 . S
C273 C279 1.363 . S
C274 C275 1.363 . S
C274 C279 1.379 . S
C274 N281 1.356 . S
C275 C274 1.363 . S
C275 C278 1.363 1_554 S
N276 C278 1.356 . S
N276 H288 0.984 . S
N276 H289 0.985 . S
N277 C279 1.356 . S
N277 H282 0.984 . S
N277 H283 0.985 . S
C278 C272 1.379 1_556 S
C278 C275 1.363 1_556 S
C278 N276 1.356 . S
C279 C273 1.363 . S
C279 C274 1.379 . S
C279 N277 1.356 . S
N280 C272 1.356 1_556 S
N280 H286 0.984 . S
N280 H287 0.984 1_556 S
N281 C274 1.356 . S
N281 H284 0.984 . S
N281 H285 0.985 . S
H282 N277 0.984 . S
H283 N277 0.985 . S
H284 N281 0.984 . S
H285 N281 0.985 . S
H286 N280 0.984 . S
H287 N280 0.984 1_554 S
H288 N276 0.984 . S
H289 N276 0.985 . S
C290 C291 1.363 . S
C290 C296 1.379 . S
C290 N298 1.356 . S
C291 C290 1.363 . S
C291 C297 1.363 . S
C292 C293 1.363 . S
C292 C297 1.379 . S
C292 N299 1.356 . S
C293 C292 1.363 . S
C293 C296 1.363 . S
N294 C296 1.356 . S
N294 H306 0.984 . S
N294 H307 0.985 . S
N295 C297 1.356 . S
N295 H300 0.984 . S
N295 H301 0.985 . S
C296 C290 1.379 . S
C296 C293 1.363 . S
C296 N294 1.356 . S
C297 C291 1.363 . S
C297 C292 1.379 . S
C297 N295 1.356 . S
N298 C290 1.356 . S
N298 H304 0.984 . S
N298 H305 0.984 . S
N299 C292 1.356 . S
N299 H302 0.984 . S
N299 H303 0.985 . S
H300 N295 0.984 . S
H301 N295 0.985 . S
H302 N299 0.984 . S
H303 N299 0.985 . S
H304 N298 0.984 . S
H305 N298 0.984 . S
H306 N294 0.984 . S
H307 N294 0.985 . S
C308 C309 1.363 . S
C308 C314 1.379 1_554 S
C308 N316 1.356 1_554 S
C309 C308 1.363 . S
C309 C315 1.363 . S
C310 C311 1.363 . S
C310 C315 1.379 . S
C310 N317 1.356 . S
C311 C310 1.363 . S
C311 C314 1.363 1_554 S
N312 C314 1.356 . S
N312 H324 0.984 . S
N312 H325 0.985 . S
N313 C315 1.356 . S
N313 H318 0.984 . S
N313 H319 0.985 . S
C314 C308 1.379 1_556 S
C314 C311 1.363 1_556 S
C314 N312 1.356 . S
C315 C309 1.363 . S
C315 C310 1.379 . S
C315 N313 1.356 . S
N316 C308 1.356 1_556 S
N316 H322 0.984 . S
N316 H323 0.984 1_556 S
N317 C310 1.356 . S
N317 H320 0.984 . S
N317 H321 0.985 . S
H318 N313 0.984 . S
H319 N313 0.985 . S
H320 N317 0.984 . S
H321 N317 0.985 . S
H322 N316 0.984 . S
H323 N316 0.984 1_554 S
H324 N312 0.984 . S
H325 N312 0.985 . S
C326 C327 1.363 . S
C326 C332 1.379 . S
C326 N334 1.356 . S
C327 C326 1.363 . S
C327 C333 1.363 . S
C328 C329 1.363 . S
C328 C333 1.379 . S
C328 N335 1.356 . S
C329 C328 1.363 . S
C329 C332 1.363 . S
N330 C332 1.356 . S
N330 H342 0.984 . S
N330 H343 0.985 . S
N331 C333 1.356 . S
N331 H336 0.984 . S
N331 H337 0.985 . S
C332 C326 1.379 . S
C332 C329 1.363 . S
C332 N330 1.356 . S
C333 C327 1.363 . S
C333 C328 1.379 . S
C333 N331 1.356 . S
N334 C326 1.356 . S
N334 H340 0.984 . S
N334 H341 0.984 . S
N335 C328 1.356 . S
N335 H338 0.984 . S
N335 H339 0.985 . S
H336 N331 0.984 . S
H337 N331 0.985 . S
H338 N335 0.984 . S
H339 N335 0.985 . S
H340 N334 0.984 . S
H341 N334 0.984 . S
H342 N330 0.984 . S
H343 N330 0.985 . S
C344 C345 1.363 . S
C344 C350 1.379 . S
C344 N352 1.356 . S
C345 C344 1.363 . S
C345 C351 1.363 1_554 S
C346 C347 1.363 1_556 S
C346 C351 1.379 . S
C346 N353 1.356 . S
C347 C346 1.363 1_554 S
C347 C350 1.363 . S
N348 C350 1.356 . S
N348 H360 0.984 . S
N348 H361 0.985 . S
N349 C351 1.356 . S
N349 H354 0.984 . S
N349 H355 0.985 . S
C350 C344 1.379 . S
C350 C347 1.363 . S
C350 N348 1.356 . S
C351 C345 1.363 1_556 S
C351 C346 1.379 . S
C351 N349 1.356 . S
N352 C344 1.356 . S
N352 H358 0.984 . S
N352 H359 0.984 . S
N353 C346 1.356 . S
N353 H356 0.984 1_556 S
N353 H357 0.985 . S
H354 N349 0.984 . S
H355 N349 0.985 . S
H356 N353 0.984 1_554 S
H357 N353 0.985 . S
H358 N352 0.984 . S
H359 N352 0.984 . S
H360 N348 0.984 . S
H361 N348 0.985 . S
C362 C363 1.363 . S
C362 C368 1.379 . S
C362 N370 1.356 . S
C363 C362 1.363 . S
C363 C369 1.363 . S
C364 C365 1.363 . S
C364 C369 1.379 . S
C364 N371 1.356 . S
C365 C364 1.363 . S
C365 C368 1.363 . S
N366 C368 1.356 . S
N366 H378 0.984 . S
N366 H379 0.985 . S
N367 C369 1.356 . S
N367 H372 0.984 . S
N367 H373 0.985 . S
C368 C362 1.379 . S
C368 C365 1.363 . S
C368 N366 1.356 . S
C369 C363 1.363 . S
C369 C364 1.379 . S
C369 N367 1.356 . S
N370 C362 1.356 . S
N370 H376 0.984 . S
N370 H377 0.984 . S
N371 C364 1.356 . S
N371 H374 0.984 . S
N371 H375 0.985 . S
H372 N367 0.984 . S
H373 N367 0.985 . S
H374 N371 0.984 . S
H375 N371 0.985 . S
H376 N370 0.984 . S
H377 N370 0.984 . S
H378 N366 0.984 . S
H379 N366 0.985 . S
C380 C381 1.363 1_556 S
C380 C386 1.379 . S
C380 N388 1.356 . S
C381 C380 1.363 1_554 S
C381 C387 1.363 . S
C382 C383 1.363 . S
C382 C387 1.379 . S
C382 N389 1.356 . S
C383 C382 1.363 . S
C383 C386 1.363 1_554 S
N384 C386 1.356 . S
N384 H396 0.984 . S
N384 H397 0.985 . S
N385 C387 1.356 . S
N385 H390 0.984 . S
N385 H391 0.985 . S
C386 C380 1.379 . S
C386 C383 1.363 1_556 S
C386 N384 1.356 . S
C387 C381 1.363 . S
C387 C382 1.379 . S
C387 N385 1.356 . S
N388 C380 1.356 . S
N388 H394 0.984 . S
N388 H395 0.984 . S
N389 C382 1.356 . S
N389 H392 0.984 . S
N389 H393 0.985 . S
H390 N385 0.984 . S
H391 N385 0.985 . S
H392 N389 0.984 . S
H393 N389 0.985 . S
H394 N388 0.984 . S
H395 N388 0.984 . S
H396 N384 0.984 . S
H397 N384 0.985 . S
C398 C399 1.363 . S
C398 C404 1.379 . S
C398 N406 1.356 . S
C399 C398 1.363 . S
C399 C405 1.363 . S
C400 C401 1.363 . S
C400 C405 1.379 . S
C400 N407 1.356 . S
C401 C400 1.363 . S
C401 C404 1.363 . S
N402 C404 1.356 . S
N402 H414 0.984 . S
N402 H415 0.985 . S
N403 C405 1.356 . S
N403 H408 0.984 . S
N403 H409 0.985 . S
C404 C398 1.379 . S
C404 C401 1.363 . S
C404 N402 1.356 . S
C405 C399 1.363 . S
C405 C400 1.379 . S
C405 N403 1.356 . S
N406 C398 1.356 . S
N406 H412 0.984 . S
N406 H413 0.984 . S
N407 C400 1.356 . S
N407 H410 0.984 . S
N407 H411 0.985 . S
H408 N403 0.984 . S
H409 N403 0.985 . S
H410 N407 0.984 . S
H411 N407 0.985 . S
H412 N406 0.984 . S
H413 N406 0.984 . S
H414 N402 0.984 . S
H415 N402 0.985 . S
C416 C417 1.363 . S
C416 C422 1.379 . S
C416 N424 1.356 . S
C417 C416 1.363 . S
C417 C423 1.363 1_556 S
C418 C419 1.363 1_554 S
C418 C423 1.379 . S
C418 N425 1.356 . S
C419 C418 1.363 1_556 S
C419 C422 1.363 . S
N420 C422 1.356 . S
N420 H432 0.984 . S
N420 H433 0.985 . S
N421 C423 1.356 . S
N421 H426 0.984 . S
N421 H427 0.985 . S
C422 C416 1.379 . S
C422 C419 1.363 . S
C422 N420 1.356 . S
C423 C417 1.363 1_554 S
C423 C418 1.379 . S
C423 N421 1.356 . S
N424 C416 1.356 . S
N424 H430 0.984 . S
N424 H431 0.984 . S
N425 C418 1.356 . S
N425 H428 0.984 . S
N425 H429 0.985 . S
H426 N421 0.984 . S
H427 N421 0.985 . S
H428 N425 0.984 . S
H429 N425 0.985 . S
H430 N424 0.984 . S
H431 N424 0.984 . S
H432 N420 0.984 . S
H433 N420 0.985 . S
C434 C435 1.363 . S
C434 C440 1.379 . S
C434 N442 1.356 . S
C435 C434 1.363 . S
C435 C441 1.363 . S
C436 C437 1.363 . S
C436 C441 1.379 . S
C436 N443 1.356 . S
C437 C436 1.363 . S
C437 C440 1.363 . S
N438 C440 1.356 . S
N438 H450 0.984 . S
N438 H451 0.985 . S
N439 C441 1.356 . S
N439 H444 0.984 . S
N439 H445 0.985 . S
C440 C434 1.379 . S
C440 C437 1.363 . S
C440 N438 1.356 . S
C441 C435 1.363 . S
C441 C436 1.379 . S
C441 N439 1.356 . S
N442 C434 1.356 . S
N442 H448 0.984 . S
N442 H449 0.984 . S
N443 C436 1.356 . S
N443 H446 0.984 . S
N443 H447 0.985 . S
H444 N439 0.984 . S
H445 N439 0.985 . S
H446 N443 0.984 . S
H447 N443 0.985 . S
H448 N442 0.984 . S
H449 N442 0.984 . S
H450 N438 0.984 . S
H451 N438 0.985 . S
C452 C453 1.363 1_545 S
C452 C458 1.379 1_455 S
C452 N460 1.351 1_554 S
C453 C452 1.363 1_565 S
C453 C459 1.363 . S
C454 C455 1.363 1_565 S
C454 C459 1.379 1_655 S
C454 N461 1.356 . S
C455 C454 1.363 1_545 S
C455 C458 1.363 . S
N456 C458 1.351 1_556 S
N456 H468 0.992 . S
N456 H469 0.982 1_556 S
N457 C459 1.356 . S
N457 H462 0.984 . S
N457 H463 0.985 . S
C458 C452 1.379 1_655 S
C458 C455 1.363 . S
C458 N456 1.351 1_554 S
C459 C453 1.363 . S
C459 C454 1.379 1_455 S
C459 N457 1.356 . S
N460 C452 1.351 1_556 S
N460 H466 0.992 . S
N460 H467 0.982 1_546 S
N461 C454 1.356 . S
N461 H464 0.984 1_565 S
N461 H465 0.985 . S
H462 N457 0.984 . S
H463 N457 0.985 . S
H464 N461 0.984 1_545 S
H465 N461 0.985 . S
H466 N460 0.992 . S
H467 N460 0.982 1_564 S
H468 N456 0.992 . S
H469 N456 0.982 1_554 S
C470 C471 1.363 . S
C470 C476 1.379 1_565 S
C470 N478 1.356 . S
C471 C470 1.363 . S
C471 C477 1.363 1_655 S
C472 C473 1.363 . S
C472 C477 1.379 1_545 S
C472 N479 1.356 . S
C473 C472 1.363 . S
C473 C476 1.363 1_455 S
N474 C476 1.356 . S
N474 H486 0.984 . S
N474 H487 0.985 1_655 S
N475 C477 1.356 . S
N475 H480 0.984 1_455 S
N475 H481 0.985 . S
C476 C470 1.379 1_545 S
C476 C473 1.363 1_655 S
C476 N474 1.356 . S
C477 C471 1.363 1_455 S
C477 C472 1.379 1_565 S
C477 N475 1.356 . S
N478 C470 1.356 . S
N478 H484 0.984 . S
N478 H485 0.984 . S
N479 C472 1.356 . S
N479 H482 0.984 . S
N479 H483 0.985 . S
H480 N475 0.984 1_655 S
H481 N475 0.985 . S
H482 N479 0.984 . S
H483 N479 0.985 . S
H484 N478 0.984 . S
H485 N478 0.984 . S
H486 N474 0.984 . S
H487 N474 0.985 1_455 S
C488 C489 1.363 . S
C488 C494 1.379 . S
C488 N496 1.356 . S
C489 C488 1.363 . S
C489 C495 1.363 . S
C490 C491 1.363 . S
C490 C495 1.379 . S
C490 N497 1.356 . S
C491 C490 1.363 . S
C491 C494 1.363 . S
N492 C494 1.356 . S
N492 H504 0.984 . S
N492 H505 0.985 . S
N493 C495 1.356 . S
N493 H498 0.984 . S
N493 H499 0.985 . S
C494 C488 1.379 . S
C494 C491 1.363 . S
C494 N492 1.356 . S
C495 C489 1.363 . S
C495 C490 1.379 . S
C495 N493 1.356 . S
N496 C488 1.356 . S
N496 H502 0.984 . S
N496 H503 0.984 . S
N497 C490 1.356 . S
N497 H500 0.984 . S
N497 H501 0.985 . S
H498 N493 0.984 . S
H499 N493 0.985 . S
H500 N497 0.984 . S
H501 N497 0.985 . S
H502 N496 0.984 . S
H503 N496 0.984 . S
H504 N492 0.984 . S
H505 N492 0.985 . S
C506 C507 1.363 . S
C506 C512 1.379 . S
C506 N514 1.356 . S
C507 C506 1.363 . S
C507 C513 1.363 . S
C508 C509 1.363 . S
C508 C513 1.379 . S
C508 N515 1.356 . S
C509 C508 1.363 . S
C509 C512 1.363 . S
N510 C512 1.356 . S
N510 H522 0.984 . S
N510 H523 0.985 . S
N511 C513 1.356 . S
N511 H516 0.984 . S
N511 H517 0.985 . S
C512 C506 1.379 . S
C512 C509 1.363 . S
C512 N510 1.356 . S
C513 C507 1.363 . S
C513 C508 1.379 . S
C513 N511 1.356 . S
N514 C506 1.356 . S
N514 H520 0.984 . S
N514 H521 0.984 . S
N515 C508 1.356 . S
N515 H518 0.984 . S
N515 H519 0.985 . S
H516 N511 0.984 . S
H517 N511 0.985 . S
H518 N515 0.984 . S
H519 N515 0.985 . S
H520 N514 0.984 . S
H521 N514 0.984 . S
H522 N510 0.984 . S
H523 N510 0.985 . S
C524 C525 1.363 . S
C524 C530 1.379 . S
C524 N532 1.356 . S
C525 C524 1.363 . S
C525 C531 1.363 . S
C526 C527 1.363 . S
C526 C531 1.379 . S
C526 N533 1.356 . S
C527 C526 1.363 . S
C527 C530 1.363 . S
N528 C530 1.356 . S
N528 H540 0.984 . S
N528 H541 0.985 . S
N529 C531 1.356 . S
N529 H534 0.984 . S
N529 H535 0.985 . S
C530 C524 1.379 . S
C530 C527 1.363 . S
C530 N528 1.356 . S
C531 C525 1.363 . S
C531 C526 1.379 . S
C531 N529 1.356 . S
N532 C524 1.356 . S
N532 H538 0.984 . S
N532 H539 0.984 . S
N533 C526 1.356 . S
N533 H536 0.984 . S
N533 H537 0.985 . S
H534 N529 0.984 . S
H535 N529 0.985 . S
H536 N533 0.984 . S
H537 N533 0.985 . S
H538 N532 0.984 . S
H539 N532 0.984 . S
H540 N528 0.984 . S
H541 N528 0.985 . S
C542 C543 1.363 . S
C542 C548 1.379 . S
C542 N550 1.356 . S
C543 C542 1.363 . S
C543 C549 1.363 . S
C544 C545 1.363 . S
C544 C549 1.379 . S
C544 N551 1.356 . S
C545 C544 1.363 . S
C545 C548 1.363 . S
N546 C548 1.356 . S
N546 H558 0.984 . S
N546 H559 0.985 . S
N547 C549 1.356 . S
N547 H552 0.984 . S
N547 H553 0.985 . S
C548 C542 1.379 . S
C548 C545 1.363 . S
C548 N546 1.356 . S
C549 C543 1.363 . S
C549 C544 1.379 . S
C549 N547 1.356 . S
N550 C542 1.356 . S
N550 H556 0.984 . S
N550 H557 0.984 . S
N551 C544 1.356 . S
N551 H554 0.984 . S
N551 H555 0.985 . S
H552 N547 0.984 . S
H553 N547 0.985 . S
H554 N551 0.984 . S
H555 N551 0.985 . S
H556 N550 0.984 . S
H557 N550 0.984 . S
H558 N546 0.984 . S
H559 N546 0.985 . S
C560 C561 1.363 . S
C560 C566 1.379 . S
C560 N568 1.356 . S
C561 C560 1.363 . S
C561 C567 1.363 . S
C562 C563 1.363 . S
C562 C567 1.379 . S
C562 N569 1.356 . S
C563 C562 1.363 . S
C563 C566 1.363 . S
N564 C566 1.356 . S
N564 H576 0.984 . S
N564 H577 0.985 . S
N565 C567 1.356 . S
N565 H570 0.984 . S
N565 H571 0.985 . S
C566 C560 1.379 . S
C566 C563 1.363 . S
C566 N564 1.356 . S
C567 C561 1.363 . S
C567 C562 1.379 . S
C567 N565 1.356 . S
N568 C560 1.356 . S
N568 H574 0.984 . S
N568 H575 0.984 . S
N569 C562 1.356 . S
N569 H572 0.984 . S
N569 H573 0.985 . S
H570 N565 0.984 . S
H571 N565 0.985 . S
H572 N569 0.984 . S
H573 N569 0.985 . S
H574 N568 0.984 . S
H575 N568 0.984 . S
H576 N564 0.984 . S
H577 N564 0.985 . S
C578 C579 1.363 . S
C578 C584 1.379 . S
C578 N586 1.356 . S
C579 C578 1.363 . S
C579 C585 1.363 . S
C580 C581 1.363 . S
C580 C585 1.379 . S
C580 N587 1.356 . S
C581 C580 1.363 . S
C581 C584 1.363 . S
N582 C584 1.356 . S
N582 H594 0.984 . S
N582 H595 0.985 . S
N583 C585 1.356 . S
N583 H588 0.984 . S
N583 H589 0.985 . S
C584 C578 1.379 . S
C584 C581 1.363 . S
C584 N582 1.356 . S
C585 C579 1.363 . S
C585 C580 1.379 . S
C585 N583 1.356 . S
N586 C578 1.356 . S
N586 H592 0.984 . S
N586 H593 0.984 . S
N587 C580 1.356 . S
N587 H590 0.984 . S
N587 H591 0.985 . S
H588 N583 0.984 . S
H589 N583 0.985 . S
H590 N587 0.984 . S
H591 N587 0.985 . S
H592 N586 0.984 . S
H593 N586 0.984 . S
H594 N582 0.984 . S
H595 N582 0.985 . S
C596 C597 1.363 . S
C596 C602 1.379 . S
C596 N604 1.356 . S
C597 C596 1.363 . S
C597 C603 1.363 . S
C598 C599 1.363 . S
C598 C603 1.379 . S
C598 N605 1.356 . S
C599 C598 1.363 . S
C599 C602 1.363 . S
N600 C602 1.356 . S
N600 H612 0.984 . S
N600 H613 0.985 . S
N601 C603 1.356 . S
N601 H606 0.984 . S
N601 H607 0.985 . S
C602 C596 1.379 . S
C602 C599 1.363 . S
C602 N600 1.356 . S
C603 C597 1.363 . S
C603 C598 1.379 . S
C603 N601 1.356 . S
N604 C596 1.356 . S
N604 H610 0.984 . S
N604 H611 0.984 . S
N605 C598 1.356 . S
N605 H608 0.984 . S
N605 H609 0.985 . S
H606 N601 0.984 . S
H607 N601 0.985 . S
H608 N605 0.984 . S
H609 N605 0.985 . S
H610 N604 0.984 . S
H611 N604 0.984 . S
H612 N600 0.984 . S
H613 N600 0.985 . S
C614 C615 1.363 . S
C614 C620 1.379 . S
C614 N622 1.356 . S
C615 C614 1.363 . S
C615 C621 1.363 . S
C616 C617 1.363 . S
C616 C621 1.379 . S
C616 N623 1.356 . S
C617 C616 1.363 . S
C617 C620 1.363 . S
N618 C620 1.356 . S
N618 H630 0.984 . S
N618 H631 0.985 . S
N619 C621 1.356 . S
N619 H624 0.984 . S
N619 H625 0.985 . S
C620 C614 1.379 . S
C620 C617 1.363 . S
C620 N618 1.356 . S
C621 C615 1.363 . S
C621 C616 1.379 . S
C621 N619 1.356 . S
N622 C614 1.356 . S
N622 H628 0.984 . S
N622 H629 0.984 . S
N623 C616 1.356 . S
N623 H626 0.984 . S
N623 H627 0.985 . S
H624 N619 0.984 . S
H625 N619 0.985 . S
H626 N623 0.984 . S
H627 N623 0.985 . S
H628 N622 0.984 . S
H629 N622 0.984 . S
H630 N618 0.984 . S
H631 N618 0.985 . S
C273 C209 0.560 . S
C275 C9 0.667 . S
C291 C243 0.560 . S
C293 C43 0.667 . S
C309 C141 0.560 . S
C311 C77 0.667 . S
C327 C175 0.560 . S
C329 C111 0.667 . S
C345 C73 0.560 . S
C347 C145 0.667 . S
C363 C107 0.560 . S
C365 C179 0.667 . S
C381 C5 0.560 . S
C383 C213 0.667 . S
C399 C247 0.667 . S
C401 C39 0.560 . S
C417 C101 2.770 . S
C419 C33 2.770 . S
C435 C67 2.770 . S
C437 C135 2.770 . S
C453 C237 2.770 . S
C455 C169 2.770 . S
C471 C203 2.770 . S
C473 C271 2.770 . S
C489 C20 1.763 . S
C491 C258 1.763 . S
C507 C156 1.763 . S
C509 C54 1.763 . S
C525 C190 1.763 . S
C527 C88 1.763 . S
C543 C224 1.763 . S
C545 C122 1.763 . S
C561 C70 2.187 . S
C563 C172 2.187 . S
C579 C104 2.187 . S
C581 C206 2.187 . S
C597 C240 2.187 . S
C599 C2 2.187 . S
C615 C138 2.187 . S
C617 C36 2.187 . S
