# Generated by pormake.
# Topology qtz-f, (3)-cn, num edge types: 1
# Building blocks:
#     Node 0, Type 0, BuildingBlock: OLANEW_clean_sbu_2, # of connection points: 3
#     Node 1, Type 0, BuildingBlock: OLANEW_clean_sbu_2, # of connection points: 3
#     Node 2, Type 0, BuildingBlock: OLANEW_clean_sbu_2, # of connection points: 3
#     Node 3, Type 0, BuildingBlock: OLANEW_clean_sbu_2, # of connection points: 3
#     Node 4, Type 0, BuildingBlock: OLANEW_clean_sbu_2, # of connection points: 3
#     Node 5, Type 0, BuildingBlock: OLANEW_clean_sbu_2, # of connection points: 3
#     Node 6, Type 0, BuildingBlock: OLANEW_clean_sbu_2, # of connection points: 3
#     Node 7, Type 0, BuildingBlock: OLANEW_clean_sbu_2, # of connection points: 3
#     Node 8, Type 0, BuildingBlock: OLANEW_clean_sbu_2, # of connection points: 3
#     Node 9, Type 0, BuildingBlock: OLANEW_clean_sbu_2, # of connection points: 3
#     Node 10, Type 0, BuildingBlock: OLANEW_clean_sbu_2, # of connection points: 3
#     Node 11, Type 0, BuildingBlock: OLANEW_clean_sbu_2, # of connection points: 3
#     Edge 12, Type (0, 0), BuildingBlock: MIFKUJ_clean_linker_0, # of connection points: 2
#     Edge 13, Type (0, 0), BuildingBlock: MIFKUJ_clean_linker_0, # of connection points: 2
#     Edge 14, Type (0, 0), BuildingBlock: MIFKUJ_clean_linker_0, # of connection points: 2
#     Edge 15, Type (0, 0), BuildingBlock: MIFKUJ_clean_linker_0, # of connection points: 2
#     Edge 16, Type (0, 0), BuildingBlock: MIFKUJ_clean_linker_0, # of connection points: 2
#     Edge 17, Type (0, 0), BuildingBlock: MIFKUJ_clean_linker_0, # of connection points: 2
#     Edge 18, Type (0, 0), BuildingBlock: MIFKUJ_clean_linker_0, # of connection points: 2
#     Edge 19, Type (0, 0), BuildingBlock: MIFKUJ_clean_linker_0, # of connection points: 2
#     Edge 20, Type (0, 0), BuildingBlock: MIFKUJ_clean_linker_0, # of connection points: 2
#     Edge 21, Type (0, 0), BuildingBlock: MIFKUJ_clean_linker_0, # of connection points: 2
#     Edge 22, Type (0, 0), BuildingBlock: MIFKUJ_clean_linker_0, # of connection points: 2
#     Edge 23, Type (0, 0), BuildingBlock: MIFKUJ_clean_linker_0, # of connection points: 2
#     Edge 24, Type (0, 0), BuildingBlock: MIFKUJ_clean_linker_0, # of connection points: 2
#     Edge 25, Type (0, 0), BuildingBlock: MIFKUJ_clean_linker_0, # of connection points: 2
#     Edge 26, Type (0, 0), BuildingBlock: MIFKUJ_clean_linker_0, # of connection points: 2
#     Edge 27, Type (0, 0), BuildingBlock: MIFKUJ_clean_linker_0, # of connection points: 2
#     Edge 28, Type (0, 0), BuildingBlock: MIFKUJ_clean_linker_0, # of connection points: 2
#     Edge 29, Type (0, 0), BuildingBlock: MIFKUJ_clean_linker_0, # of connection points: 2
# Relax obj value: 0.008
# Max RMSD: 0.030
# Mean RMSD: 0.030
data_MOF--net-qtz-f--node1-OLANEW_clean_sbu_2--edge1-MIFKUJ_clean_linker_0
_symmetry_space_group_name_H-M    P1
_symmetry_Int_Tables_number       1
_symmetry_cell_setting            triclinic
loop_
_symmetry_equiv_pos_as_xyz
'x, y, z'
_cell_length_a     94.610106
_cell_length_b     94.59342
_cell_length_c     30.450022
_cell_angle_alpha  90.002349
_cell_angle_beta   90.000977
_cell_angle_gamma 120.02003
loop_
_atom_site_label
_atom_site_type_symbol
_atom_site_fract_x
_atom_site_fract_y
_atom_site_fract_z
_atom_type_partial_charge
O0 O 0.14151 0.49346 0.1303 0.0
Cd1 Cd 0.13166 0.46439 0.11908 0.0
O2 O 0.13923 0.49131 0.20218 0.0
Cd3 Cd 0.1252 0.46469 0.1996 0.0
O4 O 0.10062 0.44344 0.1999 0.0
C5 C 0.08988 0.44667 0.21381 0.0
O6 O 0.09461 0.46163 0.22683 0.0
C7 C 0.14357 0.50013 0.16781 0.0
C8 C 0.15639 0.45991 0.08418 0.0
O9 O 0.14644 0.46159 0.05909 0.0
O10 O 0.15452 0.46019 0.1258 0.0
O11 O 0.64947 0.13516 0.46419 0.0
Cd12 Cd 0.67067 0.12767 0.45957 0.0
O13 O 0.64377 0.12774 0.53333 0.0
Cd14 Cd 0.65757 0.11486 0.53361 0.0
O15 O 0.6578 0.09186 0.53238 0.0
C16 C 0.65861 0.08571 0.49599 0.0
O17 O 0.66052 0.09397 0.45966 0.0
C18 C 0.64167 0.13419 0.49914 0.0
C19 C 0.69943 0.15336 0.42535 0.0
O20 O 0.68859 0.14248 0.40014 0.0
O21 O 0.69671 0.152 0.46681 0.0
O22 O 0.50687 0.65741 0.8485 0.0
Cd23 Cd 0.53494 0.6801 0.85333 0.0
O24 O 0.51378 0.64354 0.80401 0.0
Cd25 Cd 0.54022 0.65939 0.80868 0.0
O26 O 0.56369 0.66014 0.81032 0.0
C27 C 0.56917 0.65788 0.7745 0.0
O28 O 0.56125 0.65662 0.73792 0.0
C29 C 0.50285 0.64495 0.82453 0.0
C30 C 0.53764 0.70826 0.81567 0.0
O31 O 0.53984 0.69816 0.7927 0.0
O32 O 0.53429 0.70509 0.85652 0.0
O33 O 0.8607 0.50994 0.14912 0.0
Cd34 Cd 0.86928 0.53889 0.14229 0.0
O35 O 0.88287 0.51476 0.18496 0.0
Cd36 Cd 0.89539 0.54137 0.18085 0.0
O37 O 0.91782 0.56503 0.17681 0.0
C38 C 0.92438 0.57035 0.13953 0.0
O39 O 0.91681 0.56204 0.10418 0.0
C40 C 0.86905 0.5047 0.16866 0.0
C41 C 0.84406 0.54252 0.1071 0.0
O42 O 0.85469 0.54197 0.08219 0.0
O43 O 0.84547 0.54154 0.14869 0.0
O44 O 0.35482 0.86762 0.40259 0.0
Cd45 Cd 0.33479 0.87639 0.39081 0.0
O46 O 0.3519 0.86643 0.47437 0.0
Cd47 Cd 0.33805 0.87921 0.47279 0.0
O48 O 0.33801 0.90226 0.47552 0.0
C49 C 0.33939 0.90887 0.51282 0.0
O50 O 0.33946 0.90095 0.5482 0.0
C51 C 0.35819 0.86414 0.4401 0.0
C52 C 0.30408 0.84955 0.37368 0.0
O53 O 0.31399 0.8574 0.34237 0.0
O54 O 0.30865 0.8545 0.41308 0.0
O55 O 0.48965 0.34148 0.82829 0.0
Cd56 Cd 0.46135 0.31969 0.81843 0.0
O57 O 0.48192 0.35689 0.86295 0.0
Cd58 Cd 0.45558 0.34094 0.85603 0.0
O59 O 0.43156 0.33879 0.85096 0.0
C60 C 0.42477 0.33716 0.81384 0.0
O61 O 0.43179 0.33541 0.77863 0.0
C62 C 0.49324 0.35466 0.84827 0.0
C63 C 0.45929 0.29155 0.78286 0.0
O64 O 0.4597 0.30269 0.75803 0.0
O65 O 0.45987 0.29373 0.82452 0.0
O66 O 0.50989 0.86479 0.55634 0.0
Cd67 Cd 0.53767 0.87345 0.58086 0.0
O68 O 0.51676 0.86981 0.48669 0.0
Cd69 Cd 0.5429 0.88283 0.50096 0.0
O70 O 0.56588 0.90585 0.5078 0.0
C71 C 0.57348 0.91327 0.47319 0.0
O72 O 0.5679 0.90622 0.43495 0.0
C73 C 0.50583 0.8644 0.51634 0.0
C74 C 0.53933 0.84753 0.61924 0.0
O75 O 0.5362 0.85696 0.64236 0.0
O76 O 0.54178 0.85043 0.57799 0.0
O77 O 0.65366 0.51011 0.88435 0.0
Cd78 Cd 0.67429 0.53885 0.89408 0.0
O79 O 0.64092 0.51557 0.83244 0.0
Cd80 Cd 0.65523 0.54215 0.83747 0.0
O81 O 0.65562 0.56543 0.83484 0.0
C82 C 0.65468 0.57086 0.79742 0.0
O83 O 0.65485 0.56296 0.7621 0.0
C84 C 0.6423 0.50523 0.85602 0.0
C85 C 0.70317 0.54203 0.92779 0.0
O86 O 0.69192 0.541 0.95336 0.0
O87 O 0.70079 0.54167 0.88626 0.0
O88 O 0.13809 0.65055 0.24676 0.0
Cd89 Cd 0.12866 0.67003 0.25917 0.0
O90 O 0.14121 0.65522 0.17568 0.0
Cd91 Cd 0.12756 0.66822 0.1769 0.0
O92 O 0.10391 0.66701 0.17384 0.0
C93 C 0.09689 0.66441 0.13673 0.0
O94 O 0.1047 0.66388 0.10163 0.0
C95 C 0.14275 0.64825 0.20958 0.0
C96 C 0.15506 0.7007 0.27929 0.0
O97 O 0.15057 0.69652 0.23941 0.0
O98 O 0.14692 0.69043 0.30967 0.0
O99 O 0.48419 0.13023 0.55113 0.0
Cd100 Cd 0.45569 0.12268 0.56229 0.0
O101 O 0.48141 0.12595 0.47985 0.0
Cd102 Cd 0.45477 0.11253 0.48389 0.0
O103 O 0.43178 0.08931 0.48728 0.0
C104 C 0.42762 0.08164 0.52357 0.0
O105 O 0.43669 0.08846 0.55844 0.0
C106 C 0.49049 0.13094 0.51372 0.0
C107 C 0.45388 0.14887 0.59804 0.0
O108 O 0.45454 0.13825 0.62277 0.0
O109 O 0.45388 0.14699 0.55635 0.0
O110 O 0.34534 0.48757 0.86538 0.0
Cd111 Cd 0.3246 0.45899 0.87702 0.0
O112 O 0.35788 0.4816 0.81408 0.0
Cd113 Cd 0.34332 0.45511 0.82134 0.0
O114 O 0.34133 0.4311 0.82449 0.0
C115 C 0.34039 0.42355 0.78909 0.0
O116 O 0.33936 0.42985 0.75159 0.0
C117 C 0.35663 0.49218 0.83691 0.0
C118 C 0.29592 0.4565 0.90988 0.0
O119 O 0.30708 0.45755 0.93578 0.0
O120 O 0.29827 0.4565 0.86843 0.0
O121 O 0.85495 0.34203 0.18902 0.0
Cd122 Cd 0.86348 0.32177 0.19964 0.0
O123 O 0.87108 0.35337 0.13218 0.0
Cd124 Cd 0.88422 0.34003 0.14009 0.0
O125 O 0.90844 0.34364 0.15433 0.0
C126 C 0.91746 0.35683 0.17498 0.0
O127 O 0.91126 0.36601 0.18638 0.0
C128 C 0.86016 0.3525 0.15818 0.0
C129 C 0.8384 0.29341 0.23744 0.0
O130 O 0.84895 0.30509 0.26135 0.0
O131 O 0.83981 0.2951 0.19562 0.0
H132 H 0.27054 0.45514 0.86332 0.0
H133 H 0.24612 0.45449 0.89225 0.0
H134 H 0.26286 0.45534 0.02451 0.0
H135 H 0.28725 0.45582 0.99588 0.0
H136 H 0.2305 0.43344 0.0158 0.0
H137 H 0.26701 0.48968 0.97864 0.0
H138 H 0.28517 0.51254 0.93027 0.0
H139 H 0.24536 0.50014 0.84155 0.0
H140 H 0.227 0.47705 0.88913 0.0
H141 H 0.18009 0.45733 0.12878 0.0
H142 H 0.20289 0.45537 0.09798 0.0
H143 H 0.18594 0.45626 0.96704 0.0
H144 H 0.16323 0.45849 0.99758 0.0
H145 H 0.21796 0.47666 0.97369 0.0
H146 H 0.18118 0.42088 0.01178 0.0
H147 H 0.16298 0.39802 0.06012 0.0
H148 H 0.20309 0.40943 0.14682 0.0
H149 H 0.22149 0.4325 0.09929 0.0
C150 C 0.26902 0.45514 0.89857 0.0
C151 C 0.28088 0.45561 0.92731 0.0
C152 C 0.25507 0.45482 0.91504 0.0
C153 C 0.25277 0.45506 0.96053 0.0
C154 C 0.26442 0.45518 0.9893 0.0
C155 C 0.27837 0.4555 0.97286 0.0
C156 C 0.23832 0.45539 0.97813 0.0
C157 C 0.22785 0.44299 0.00702 0.0
C158 C 0.23467 0.46764 0.96583 0.0
C159 C 0.24568 0.48154 0.93722 0.0
C160 C 0.26216 0.49174 0.94864 0.0
C161 C 0.27248 0.50476 0.92139 0.0
C162 C 0.26643 0.50776 0.8828 0.0
C163 C 0.25004 0.49778 0.87142 0.0
C164 C 0.23966 0.48474 0.89853 0.0
C165 C 0.18115 0.45702 0.09342 0.0
C166 C 0.16984 0.45806 0.06562 0.0
C167 C 0.19416 0.45582 0.07586 0.0
C168 C 0.19603 0.4555 0.03019 0.0
C169 C 0.18472 0.45647 0.00237 0.0
C170 C 0.17173 0.45771 0.0199 0.0
C171 C 0.21011 0.45471 0.01143 0.0
C172 C 0.22055 0.46706 0.98236 0.0
C173 C 0.21371 0.4424 0.02355 0.0
C174 C 0.20268 0.42852 0.05218 0.0
C175 C 0.18609 0.4186 0.04134 0.0
C176 C 0.17575 0.40558 0.06856 0.0
C177 C 0.18187 0.4023 0.10657 0.0
C178 C 0.19836 0.412 0.11739 0.0
C179 C 0.20876 0.42503 0.0903 0.0
H180 H 0.17384 0.39222 0.1276 0.0
H181 H 0.27445 0.51784 0.86175 0.0
H182 H 0.70849 0.15965 0.3391 0.0
H183 H 0.73295 0.18301 0.30885 0.0
H184 H 0.74893 0.20178 0.43963 0.0
H185 H 0.72438 0.17854 0.47017 0.0
H186 H 0.75188 0.22535 0.38505 0.0
H187 H 0.76707 0.18408 0.38287 0.0
H188 H 0.76393 0.15717 0.36578 0.0
H189 H 0.76313 0.16624 0.22788 0.0
H190 H 0.76605 0.19312 0.24417 0.0
H191 H 0.83189 0.28653 0.32481 0.0
H192 H 0.80902 0.26232 0.35777 0.0
H193 H 0.79128 0.24256 0.22875 0.0
H194 H 0.81422 0.26664 0.19549 0.0
H195 H 0.78978 0.21944 0.28413 0.0
H196 H 0.77371 0.26028 0.28653 0.0
H197 H 0.77678 0.28716 0.30355 0.0
H198 H 0.77918 0.2788 0.44126 0.0
H199 H 0.77635 0.25195 0.425 0.0
C200 C 0.71724 0.1687 0.36148 0.0
C201 C 0.71449 0.16723 0.40706 0.0
C202 C 0.73126 0.18202 0.34413 0.0
C203 C 0.74285 0.19406 0.37201 0.0
C204 C 0.74015 0.19261 0.41752 0.0
C205 C 0.72613 0.1793 0.43492 0.0
C206 C 0.75756 0.2084 0.35357 0.0
C207 C 0.76031 0.22406 0.36355 0.0
C208 C 0.76835 0.20671 0.32469 0.0
C209 C 0.76662 0.19056 0.31477 0.0
C210 C 0.76609 0.18028 0.34891 0.0
C211 C 0.76438 0.16505 0.33937 0.0
C212 C 0.76329 0.15998 0.29578 0.0
C213 C 0.76396 0.17017 0.26164 0.0
C214 C 0.76566 0.18542 0.271 0.0
C215 C 0.82316 0.27702 0.30342 0.0
C216 C 0.82484 0.27855 0.25751 0.0
C217 C 0.81006 0.26321 0.32232 0.0
C218 C 0.79834 0.25073 0.2957 0.0
C219 C 0.80017 0.25206 0.24989 0.0
C220 C 0.81327 0.26586 0.23095 0.0
C221 C 0.78406 0.23636 0.31556 0.0
C222 C 0.78138 0.22071 0.3058 0.0
C223 C 0.77333 0.23805 0.34465 0.0
C224 C 0.77499 0.25418 0.35451 0.0
C225 C 0.77502 0.26423 0.32042 0.0
C226 C 0.7767 0.27945 0.32993 0.0
C227 C 0.77822 0.28471 0.37345 0.0
C228 C 0.77803 0.27473 0.40756 0.0
C229 C 0.77637 0.2595 0.39822 0.0
H230 H 0.77951 0.2965 0.38075 0.0
H231 H 0.76197 0.14818 0.28846 0.0
H232 H 0.54576 0.82549 0.57901 0.0
H233 H 0.5462 0.80221 0.61236 0.0
H234 H 0.53447 0.81458 0.73831 0.0
H235 H 0.53423 0.83803 0.70535 0.0
H236 H 0.55808 0.80678 0.7459 0.0
H237 H 0.50537 0.78339 0.67753 0.0
H238 H 0.48606 0.77776 0.61667 0.0
H239 H 0.50816 0.75508 0.5434 0.0
H240 H 0.52775 0.76078 0.60362 0.0
H241 H 0.53315 0.73163 0.85551 0.0
H242 H 0.53432 0.75563 0.82178 0.0
H243 H 0.54586 0.74242 0.69676 0.0
H244 H 0.54447 0.71824 0.73012 0.0
H245 H 0.52278 0.75077 0.68807 0.0
H246 H 0.57521 0.77374 0.7574 0.0
H247 H 0.59439 0.77935 0.81856 0.0
H248 H 0.5727 0.80275 0.89039 0.0
H249 H 0.55323 0.79708 0.82988 0.0
C250 C 0.5433 0.82328 0.61382 0.0
C251 C 0.53989 0.83358 0.63949 0.0
C252 C 0.5435 0.80993 0.6328 0.0
C253 C 0.54018 0.80654 0.67773 0.0
C254 C 0.53704 0.81696 0.70357 0.0
C255 C 0.53686 0.83033 0.68463 0.0
C256 C 0.53992 0.79211 0.69778 0.0
C257 C 0.55021 0.7945 0.73362 0.0
C258 C 0.52993 0.77614 0.68111 0.0
C259 C 0.51813 0.77266 0.6449 0.0
C260 C 0.50619 0.77732 0.6483 0.0
C261 C 0.49518 0.7741 0.61395 0.0
C262 C 0.49591 0.76611 0.57615 0.0
C263 C 0.50763 0.76129 0.57268 0.0
C264 C 0.51868 0.7645 0.60692 0.0
C265 C 0.53599 0.73385 0.82087 0.0
C266 C 0.53875 0.72303 0.79552 0.0
C267 C 0.53673 0.74762 0.80167 0.0
C268 C 0.54035 0.75092 0.75684 0.0
C269 C 0.54306 0.74012 0.73143 0.0
C270 C 0.54231 0.72633 0.75059 0.0
C271 C 0.54093 0.76543 0.73623 0.0
C272 C 0.53068 0.76305 0.7003 0.0
C273 C 0.55095 0.7814 0.75286 0.0
C274 C 0.56266 0.78485 0.78927 0.0
C275 C 0.57444 0.77997 0.78639 0.0
C276 C 0.58539 0.78318 0.82091 0.0
C277 C 0.58474 0.79136 0.85838 0.0
C278 C 0.57318 0.79639 0.86136 0.0
C279 C 0.5622 0.7932 0.82695 0.0
H280 H 0.59323 0.79384 0.88507 0.0
H281 H 0.48737 0.76362 0.54959 0.0
H282 H 0.71156 0.54274 0.01405 0.0
H283 H 0.73628 0.54417 0.04343 0.0
H284 H 0.75385 0.54585 0.91173 0.0
H285 H 0.72906 0.5442 0.88203 0.0
H286 H 0.75741 0.52444 0.9614 0.0
H287 H 0.77009 0.58004 0.97575 0.0
H288 H 0.76551 0.60244 0.9986 0.0
H289 H 0.76421 0.58891 0.13377 0.0
H290 H 0.76857 0.56628 0.11168 0.0
H291 H 0.83786 0.54492 0.02051 0.0
H292 H 0.81464 0.54609 0.98952 0.0
H293 H 0.79588 0.54408 0.11989 0.0
H294 H 0.81919 0.54314 0.15121 0.0
H295 H 0.79336 0.56622 0.06974 0.0
H296 H 0.77984 0.51024 0.05547 0.0
H297 H 0.78428 0.48772 0.03299 0.0
H298 H 0.78698 0.50189 0.89791 0.0
H299 H 0.78277 0.52465 0.91966 0.0
C300 C 0.72071 0.54349 0.9913 0.0
C301 C 0.71834 0.54338 0.94568 0.0
C302 C 0.73487 0.54438 0.00817 0.0
C303 C 0.74699 0.54529 0.97978 0.0
C304 C 0.74467 0.54518 0.93423 0.0
C305 C 0.7305 0.54428 0.91732 0.0
C306 C 0.76188 0.54586 0.99758 0.0
C307 C 0.76541 0.53374 0.98456 0.0
C308 C 0.77209 0.55775 0.02863 0.0
C309 C 0.7695 0.57137 0.04202 0.0
C310 C 0.7687 0.58176 0.01033 0.0
C311 C 0.76617 0.59452 0.02314 0.0
C312 C 0.76453 0.59707 0.0676 0.0
C313 C 0.76546 0.5869 0.09934 0.0
C314 C 0.76798 0.57412 0.08669 0.0
C315 C 0.82883 0.54479 0.04262 0.0
C316 C 0.83033 0.54385 0.08833 0.0
C317 C 0.81553 0.5454 0.02484 0.0
C318 C 0.80341 0.54495 0.05237 0.0
C319 C 0.80507 0.54441 0.09804 0.0
C320 C 0.81839 0.54382 0.11587 0.0
C321 C 0.78887 0.54481 0.03355 0.0
C322 C 0.78539 0.55698 0.04644 0.0
C323 C 0.77868 0.53296 0.00241 0.0
C324 C 0.78116 0.51925 0.98924 0.0
C325 C 0.78151 0.50863 0.021 0.0
C326 C 0.78396 0.49581 0.00839 0.0
C327 C 0.78596 0.4934 0.96406 0.0
C328 C 0.78546 0.50379 0.93224 0.0
C329 C 0.78303 0.51664 0.94469 0.0
H330 H 0.78785 0.48347 0.95436 0.0
H331 H 0.76258 0.60696 0.07746 0.0
H332 H 0.16672 0.71357 0.36056 0.0
H333 H 0.19097 0.7397 0.37788 0.0
H334 H 0.20042 0.74999 0.23956 0.0
H335 H 0.17603 0.72405 0.22199 0.0
H336 H 0.22205 0.75025 0.36032 0.0
H337 H 0.21936 0.79083 0.22153 0.0
H338 H 0.19876 0.79337 0.17795 0.0
H339 H 0.16376 0.77071 0.28169 0.0
H340 H 0.1842 0.76823 0.32612 0.0
H341 H 0.29059 0.83672 0.29372 0.0
H342 H 0.2645 0.81202 0.27904 0.0
H343 H 0.25504 0.8048 0.41817 0.0
H344 H 0.28116 0.82942 0.4332 0.0
H345 H 0.23299 0.80338 0.29893 0.0
H346 H 0.23571 0.7637 0.43896 0.0
H347 H 0.25623 0.76117 0.483 0.0
H348 H 0.29081 0.78198 0.37756 0.0
H349 H 0.27043 0.78442 0.33271 0.0
C350 C 0.17389 0.72145 0.33381 0.0
C351 C 0.16943 0.71675 0.28988 0.0
C352 C 0.18777 0.73637 0.34378 0.0
C353 C 0.19744 0.74689 0.31006 0.0
C354 C 0.193 0.74222 0.26616 0.0
C355 C 0.17908 0.72734 0.25616 0.0
C356 C 0.2125 0.76246 0.32077 0.0
C357 C 0.22431 0.7619 0.34747 0.0
C358 C 0.21563 0.77762 0.30322 0.0
C359 C 0.20328 0.7792 0.27695 0.0
C360 C 0.20729 0.78644 0.2351 0.0
C361 C 0.19563 0.78786 0.21024 0.0
C362 C 0.17995 0.78216 0.22698 0.0
C363 C 0.17589 0.77507 0.26869 0.0
C364 C 0.1875 0.77363 0.29369 0.0
C365 C 0.28294 0.82991 0.32122 0.0
C366 C 0.28799 0.83499 0.36465 0.0
C367 C 0.26801 0.81583 0.31274 0.0
C368 C 0.25792 0.80649 0.3475 0.0
C369 C 0.26276 0.81172 0.39087 0.0
C370 C 0.27766 0.82581 0.39938 0.0
C371 C 0.24248 0.79112 0.33837 0.0
C372 C 0.23065 0.79172 0.31193 0.0
C373 C 0.23929 0.77599 0.35624 0.0
C374 C 0.2516 0.77441 0.38271 0.0
C375 C 0.24768 0.76769 0.42515 0.0
C376 C 0.25929 0.76628 0.45025 0.0
C377 C 0.27483 0.77147 0.43315 0.0
C378 C 0.27878 0.77803 0.39084 0.0
C379 C 0.26722 0.77945 0.36559 0.0
H380 H 0.2838 0.77038 0.45265 0.0
H381 H 0.17094 0.78326 0.20768 0.0
H382 H 0.45769 0.28333 0.69613 0.0
H383 H 0.45607 0.25873 0.66516 0.0
H384 H 0.45671 0.24131 0.79565 0.0
H385 H 0.45854 0.26598 0.82691 0.0
H386 H 0.47716 0.23759 0.74179 0.0
H387 H 0.42142 0.22522 0.73698 0.0
H388 H 0.39876 0.22997 0.71846 0.0
H389 H 0.40949 0.23068 0.58119 0.0
H390 H 0.43236 0.22615 0.59892 0.0
H391 H 0.45385 0.15621 0.68488 0.0
H392 H 0.45413 0.18014 0.71615 0.0
H393 H 0.45352 0.19771 0.58582 0.0
H394 H 0.45302 0.17369 0.55424 0.0
H395 H 0.43287 0.20124 0.63974 0.0
H396 H 0.48872 0.21395 0.64433 0.0
H397 H 0.51146 0.20929 0.6625 0.0
H398 H 0.50064 0.2081 0.79985 0.0
H399 H 0.47768 0.21254 0.78245 0.0
C400 C 0.45746 0.27426 0.71827 0.0
C401 C 0.45821 0.2766 0.76401 0.0
C402 C 0.45646 0.26017 0.70051 0.0
C403 C 0.45609 0.2481 0.72812 0.0
C404 C 0.45695 0.25046 0.77376 0.0
C405 C 0.45796 0.26455 0.79156 0.0
C406 C 0.45507 0.23313 0.70939 0.0
C407 C 0.46735 0.22951 0.71998 0.0
C408 C 0.44248 0.22281 0.68007 0.0
C409 C 0.42871 0.22551 0.66931 0.0
C410 C 0.41903 0.22652 0.70286 0.0
C411 C 0.40613 0.22915 0.6925 0.0
C412 C 0.40271 0.23067 0.64868 0.0
C413 C 0.41216 0.22952 0.61512 0.0
C414 C 0.42509 0.22691 0.6253 0.0
C415 C 0.45373 0.16513 0.66284 0.0
C416 C 0.4535 0.16308 0.61706 0.0
C417 C 0.45395 0.17884 0.68078 0.0
C418 C 0.45406 0.19082 0.6533 0.0
C419 C 0.45348 0.18863 0.60762 0.0
C420 C 0.45323 0.17491 0.58964 0.0
C421 C 0.45495 0.20569 0.67222 0.0
C422 C 0.44266 0.20931 0.66162 0.0
C423 C 0.46754 0.21602 0.70149 0.0
C424 C 0.48138 0.21341 0.71205 0.0
C425 C 0.49111 0.21256 0.67839 0.0
C426 C 0.50405 0.20999 0.68855 0.0
C427 C 0.50747 0.20836 0.7323 0.0
C428 C 0.49797 0.20934 0.76598 0.0
C429 C 0.485 0.2119 0.75599 0.0
H430 H 0.5175 0.20636 0.7401 0.0
H431 H 0.39272 0.2327 0.64073 0.0
H432 H 0.15377 0.6405 0.13534 0.0
H433 H 0.15981 0.6184 0.12617 0.0
H434 H 0.15063 0.60682 0.26394 0.0
H435 H 0.14483 0.62906 0.27363 0.0
H436 H 0.1758 0.60303 0.23453 0.0
H437 H 0.12068 0.58662 0.18984 0.0
H438 H 0.09969 0.58887 0.14739 0.0
H439 H 0.12102 0.58481 0.02697 0.0
H440 H 0.14227 0.58274 0.06875 0.0
H441 H 0.1468 0.51782 0.24203 0.0
H442 H 0.15267 0.546 0.2463 0.0
H443 H 0.15967 0.55086 0.10594 0.0
H444 H 0.15352 0.52256 0.10124 0.0
H445 H 0.13861 0.55978 0.13117 0.0
H446 H 0.19173 0.5723 0.17772 0.0
H447 H 0.2121 0.56946 0.22147 0.0
H448 H 0.19431 0.58019 0.33926 0.0
H449 H 0.17367 0.58287 0.29631 0.0
C450 C 0.15328 0.63343 0.16387 0.0
C451 C 0.14859 0.63641 0.20512 0.0
C452 C 0.15672 0.62079 0.15853 0.0
C453 C 0.15539 0.6108 0.19422 0.0
C454 C 0.15169 0.61436 0.23594 0.0
C455 C 0.14831 0.62705 0.24136 0.0
C456 C 0.1564 0.59579 0.18746 0.0
C457 C 0.16764 0.59352 0.2121 0.0
C458 C 0.14597 0.58355 0.15751 0.0
C459 C 0.13317 0.58472 0.13238 0.0
C460 C 0.12096 0.58633 0.1543 0.0
C461 C 0.10901 0.58756 0.13037 0.0
C462 C 0.10905 0.58704 0.08451 0.0
C463 C 0.12102 0.58524 0.06249 0.0
C464 C 0.13302 0.58404 0.08627 0.0
C465 C 0.14988 0.52496 0.21212 0.0
C466 C 0.14955 0.51787 0.17123 0.0
C467 C 0.15334 0.54113 0.21467 0.0
C468 C 0.15669 0.55059 0.17646 0.0
C469 C 0.15711 0.54379 0.13584 0.0
C470 C 0.1536 0.5276 0.13324 0.0
C471 C 0.15798 0.56688 0.1784 0.0
C472 C 0.14704 0.56938 0.15302 0.0
C473 C 0.16864 0.57924 0.2078 0.0
C474 C 0.18106 0.57767 0.23379 0.0
C475 C 0.19207 0.57393 0.213 0.0
C476 C 0.20368 0.57238 0.23765 0.0
C477 C 0.20448 0.57462 0.28313 0.0
C478 C 0.19368 0.57845 0.30403 0.0
C479 C 0.18203 0.58001 0.27954 0.0
H480 H 0.21348 0.5734 0.30215 0.0
H481 H 0.09978 0.58798 0.06604 0.0
H482 H 0.50887 0.13804 0.43892 0.0
H483 H 0.53707 0.14396 0.43271 0.0
H484 H 0.53989 0.14135 0.57366 0.0
H485 H 0.51191 0.13598 0.58023 0.0
H486 H 0.56814 0.16448 0.54297 0.0
H487 H 0.53072 0.10822 0.50619 0.0
H488 H 0.50814 0.08571 0.46546 0.0
H489 H 0.53445 0.10411 0.34457 0.0
H490 H 0.5571 0.12686 0.38456 0.0
H491 H 0.62464 0.13615 0.56927 0.0
H492 H 0.60169 0.14113 0.56763 0.0
H493 H 0.60722 0.14844 0.4275 0.0
H494 H 0.63022 0.14347 0.42875 0.0
H495 H 0.57619 0.12568 0.45144 0.0
H496 H 0.61559 0.18012 0.49293 0.0
H497 H 0.63805 0.2015 0.53667 0.0
H498 H 0.60803 0.18533 0.6522 0.0
H499 H 0.58546 0.16369 0.60929 0.0
C500 C 0.51557 0.13894 0.46864 0.0
C501 C 0.50808 0.13634 0.51004 0.0
C502 C 0.53168 0.14228 0.46503 0.0
C503 C 0.54049 0.14275 0.50266 0.0
C504 C 0.53332 0.141 0.54415 0.0
C505 C 0.51729 0.13787 0.54783 0.0
C506 C 0.55671 0.14396 0.49886 0.0
C507 C 0.56989 0.15595 0.52315 0.0
C508 C 0.5591 0.13302 0.47235 0.0
C509 C 0.54551 0.11934 0.44828 0.0
C510 C 0.53163 0.10753 0.47088 0.0
C511 C 0.51883 0.09472 0.44794 0.0
C512 C 0.51984 0.09351 0.40244 0.0
C513 C 0.53367 0.10509 0.3798 0.0
C514 C 0.54649 0.11793 0.40258 0.0
C515 C 0.62117 0.13908 0.53817 0.0
C516 C 0.6292 0.1393 0.49909 0.0
C517 C 0.60808 0.14201 0.53734 0.0
C518 C 0.60279 0.14521 0.49746 0.0
C519 C 0.61114 0.14602 0.45862 0.0
C520 C 0.6243 0.1432 0.45944 0.0
C521 C 0.58759 0.1461 0.49585 0.0
C522 C 0.57455 0.13441 0.47068 0.0
C523 C 0.58532 0.15717 0.52198 0.0
C524 C 0.59887 0.17019 0.54792 0.0
C525 C 0.61382 0.18103 0.52774 0.0
C526 C 0.62656 0.19322 0.55237 0.0
C527 C 0.62448 0.19475 0.5972 0.0
C528 C 0.60963 0.18412 0.61748 0.0
C529 C 0.59685 0.1719 0.59299 0.0
H530 H 0.63436 0.20419 0.61622 0.0
H531 H 0.50992 0.08358 0.38474 0.0
H532 H 0.47625 0.64233 0.86848 0.0
H533 H 0.44831 0.6191 0.86799 0.0
H534 H 0.46266 0.59418 0.77507 0.0
H535 H 0.4904 0.6173 0.77481 0.0
H536 H 0.43314 0.59005 0.75474 0.0
H537 H 0.46062 0.5864 0.88588 0.0
H538 H 0.47517 0.59648 0.95629 0.0
H539 H 0.43474 0.59972 0.00858 0.0
H540 H 0.42003 0.58984 0.93824 0.0
H541 H 0.38289 0.50574 0.7818 0.0
H542 H 0.40435 0.5342 0.77738 0.0
H543 H 0.37976 0.54703 0.87539 0.0
H544 H 0.35828 0.51835 0.88074 0.0
H545 H 0.41108 0.56016 0.8947 0.0
H546 H 0.38158 0.55892 0.76723 0.0
H547 H 0.36699 0.54834 0.69716 0.0
H548 H 0.41072 0.55414 0.6376 0.0
H549 H 0.42553 0.56454 0.70748 0.0
C550 C 0.47341 0.63198 0.84759 0.0
C551 C 0.48561 0.63163 0.82196 0.0
C552 C 0.45744 0.6187 0.84745 0.0
C553 C 0.45344 0.60483 0.82187 0.0
C554 C 0.46545 0.60475 0.79505 0.0
C555 C 0.48135 0.61797 0.79512 0.0
C556 C 0.43707 0.58998 0.82435 0.0
C557 C 0.42831 0.58348 0.78529 0.0
C558 C 0.4305 0.58169 0.86445 0.0
C559 C 0.43933 0.58759 0.90668 0.0
C560 C 0.4549 0.58939 0.91229 0.0
C561 C 0.46316 0.59504 0.95219 0.0
C562 C 0.45591 0.59879 0.98683 0.0
C563 C 0.44035 0.59685 0.98169 0.0
C564 C 0.43205 0.59122 0.94183 0.0
C565 C 0.3819 0.5146 0.80211 0.0
C566 C 0.36885 0.50973 0.8317 0.0
C567 C 0.39415 0.53093 0.79932 0.0
C568 C 0.39358 0.54282 0.82562 0.0
C569 C 0.38042 0.53808 0.85465 0.0
C570 C 0.36814 0.52168 0.8576 0.0
C571 C 0.40736 0.55992 0.8248 0.0
C572 C 0.41566 0.56686 0.8642 0.0
C573 C 0.41349 0.56861 0.78498 0.0
C574 C 0.40465 0.56244 0.74273 0.0
C575 C 0.38807 0.55784 0.73928 0.0
C576 C 0.37976 0.55189 0.69957 0.0
C577 C 0.38792 0.55055 0.66297 0.0
C578 C 0.40442 0.55519 0.66598 0.0
C579 C 0.41278 0.56114 0.70562 0.0
H580 H 0.38146 0.54593 0.63226 0.0
H581 H 0.46232 0.60316 0.0177 0.0
H582 H 0.83651 0.3541 0.2065 0.0
H583 H 0.83023 0.37625 0.20714 0.0
H584 H 0.86586 0.40096 0.10495 0.0
H585 H 0.87181 0.37876 0.10319 0.0
H586 H 0.84904 0.40592 0.23043 0.0
H587 H 0.85856 0.42576 0.0456 0.0
H588 H 0.85188 0.41269 0.97267 0.0
H589 H 0.81255 0.36904 0.02873 0.0
H590 H 0.81883 0.38192 0.10191 0.0
H591 H 0.88478 0.48982 0.20388 0.0
H592 H 0.87612 0.4609 0.20346 0.0
H593 H 0.83127 0.4502 0.13873 0.0
H594 H 0.84006 0.47936 0.1381 0.0
H595 H 0.84384 0.43438 0.09994 0.0
H596 H 0.83099 0.4391 0.2467 0.0
H597 H 0.8348 0.45089 0.32092 0.0
H598 H 0.875 0.44276 0.34311 0.0
H599 H 0.87159 0.43114 0.26879 0.0
C600 C 0.84275 0.3641 0.18353 0.0
C601 C 0.85471 0.36468 0.15491 0.0
C602 C 0.83917 0.37677 0.184 0.0
C603 C 0.84747 0.39025 0.1559 0.0
C604 C 0.859 0.39055 0.12631 0.0
C605 C 0.86249 0.37786 0.12555 0.0
C606 C 0.84545 0.4048 0.16034 0.0
C607 C 0.8477 0.41203 0.20193 0.0
C608 C 0.8432 0.41257 0.12343 0.0
C609 C 0.83924 0.4048 0.07935 0.0
C610 C 0.84842 0.41342 0.04236 0.0
C611 C 0.84472 0.40602 0.00097 0.0
C612 C 0.83182 0.39003 0.99609 0.0
C613 C 0.82257 0.38141 0.03258 0.0
C614 C 0.82621 0.38874 0.07404 0.0
C615 C 0.87299 0.48135 0.18989 0.0
C616 C 0.86312 0.48694 0.171 0.0
C617 C 0.868 0.46476 0.18993 0.0
C618 C 0.85293 0.45332 0.17163 0.0
C619 C 0.84292 0.4588 0.15319 0.0
C620 C 0.84795 0.47547 0.15295 0.0
C621 C 0.84828 0.43583 0.16961 0.0
C622 C 0.8448 0.42807 0.12851 0.0
C623 C 0.84896 0.42736 0.20715 0.0
C624 C 0.85107 0.4343 0.25202 0.0
C625 C 0.84071 0.43992 0.26729 0.0
C626 C 0.84279 0.44656 0.3094 0.0
C627 C 0.85514 0.44759 0.33669 0.0
C628 C 0.86543 0.44195 0.32194 0.0
C629 C 0.86341 0.43531 0.27984 0.0
H630 H 0.85673 0.45273 0.36929 0.0
H631 H 0.82898 0.38433 0.96402 0.0
H632 H 0.47989 0.85509 0.57191 0.0
H633 H 0.45262 0.84988 0.55318 0.0
H634 H 0.46549 0.85626 0.41579 0.0
H635 H 0.49292 0.86178 0.4343 0.0
H636 H 0.45308 0.87463 0.43857 0.0
H637 H 0.43722 0.81863 0.4579 0.0
H638 H 0.43525 0.79461 0.49539 0.0
H639 H 0.40971 0.80127 0.60267 0.0
H640 H 0.41172 0.82548 0.56612 0.0
H641 H 0.37533 0.85972 0.37429 0.0
H642 H 0.3981 0.85462 0.38214 0.0
H643 H 0.39186 0.85178 0.52277 0.0
H644 H 0.36896 0.8567 0.51529 0.0
H645 H 0.40008 0.82942 0.4919 0.0
H646 H 0.41909 0.88705 0.47684 0.0
H647 H 0.42131 0.91138 0.44047 0.0
H648 H 0.44133 0.90157 0.32561 0.0
H649 H 0.43901 0.87704 0.36113 0.0
C650 C 0.47686 0.85511 0.53763 0.0
C651 C 0.48865 0.85898 0.50464 0.0
C652 C 0.4612 0.85204 0.52694 0.0
C653 C 0.45696 0.85259 0.48303 0.0
C654 C 0.46849 0.85578 0.44989 0.0
C655 C 0.48417 0.85891 0.46055 0.0
C656 C 0.44113 0.85148 0.4722 0.0
C657 C 0.44147 0.86454 0.44938 0.0
C658 C 0.426 0.83853 0.48728 0.0
C659 C 0.42473 0.82396 0.50939 0.0
C660 C 0.43129 0.81506 0.48965 0.0
C661 C 0.43015 0.80139 0.51071 0.0
C662 C 0.42239 0.79644 0.55143 0.0
C663 C 0.41572 0.80513 0.57114 0.0
C664 C 0.41684 0.81881 0.55023 0.0
C665 C 0.37861 0.85775 0.40687 0.0
C666 C 0.37045 0.85883 0.44422 0.0
C667 C 0.39165 0.85486 0.41128 0.0
C668 C 0.39682 0.85308 0.45308 0.0
C669 C 0.38809 0.85316 0.49021 0.0
C670 C 0.37504 0.85604 0.48585 0.0
C671 C 0.41214 0.85257 0.45849 0.0
C672 C 0.4117 0.83931 0.48047 0.0
C673 C 0.42724 0.86534 0.44274 0.0
C674 C 0.4287 0.88011 0.42143 0.0
C675 C 0.42384 0.89001 0.44369 0.0
C676 C 0.42514 0.90385 0.42326 0.0
C677 C 0.43141 0.90799 0.3807 0.0
C678 C 0.43644 0.89833 0.35854 0.0
C679 C 0.43515 0.88446 0.37881 0.0
H680 H 0.43241 0.91871 0.36494 0.0
H681 H 0.42152 0.78585 0.56768 0.0
H682 H 0.61618 0.49114 0.80051 0.0
H683 H 0.59401 0.46292 0.80009 0.0
H684 H 0.61812 0.45105 0.90178 0.0
H685 H 0.64032 0.4795 0.90312 0.0
H686 H 0.59022 0.43368 0.78521 0.0
H687 H 0.58863 0.42362 0.97143 0.0
H688 H 0.59731 0.43956 0.04022 0.0
H689 H 0.59324 0.4782 0.97853 0.0
H690 H 0.58436 0.4624 0.90962 0.0
H691 H 0.52107 0.35444 0.82305 0.0
H692 H 0.54927 0.37717 0.82672 0.0
H693 H 0.53237 0.40747 0.8861 0.0
H694 H 0.50444 0.38487 0.88365 0.0
H695 H 0.55931 0.41304 0.9244 0.0
H696 H 0.54065 0.40855 0.7737 0.0
H697 H 0.53008 0.39443 0.70296 0.0
H698 H 0.57163 0.38783 0.69028 0.0
H699 H 0.58234 0.40176 0.76124 0.0
C700 C 0.61691 0.48253 0.82253 0.0
C701 C 0.62994 0.48765 0.85227 0.0
C702 C 0.60423 0.46634 0.82205 0.0
C703 C 0.60429 0.4549 0.85125 0.0
C704 C 0.61771 0.45973 0.87937 0.0
C705 C 0.63041 0.47599 0.88002 0.0
C706 C 0.58964 0.43837 0.85424 0.0
C707 C 0.58357 0.42906 0.81577 0.0
C708 C 0.58086 0.43237 0.89398 0.0
C709 C 0.58606 0.44193 0.93529 0.0
C710 C 0.58957 0.43551 0.97263 0.0
C711 C 0.59452 0.44451 0.01162 0.0
C712 C 0.59589 0.45991 0.01369 0.0
C713 C 0.59225 0.46631 0.97683 0.0
C714 C 0.58727 0.45734 0.9378 0.0
C715 C 0.5234 0.3659 0.83728 0.0
C716 C 0.51047 0.36785 0.8528 0.0
C717 C 0.53952 0.3789 0.83923 0.0
C718 C 0.54293 0.3941 0.85627 0.0
C719 C 0.53008 0.39586 0.87294 0.0
C720 C 0.51406 0.38291 0.87131 0.0
C721 C 0.55966 0.40853 0.85515 0.0
C722 C 0.56616 0.41743 0.89404 0.0
C723 C 0.5686 0.41435 0.81556 0.0
C724 C 0.56218 0.406 0.77296 0.0
C725 C 0.54746 0.40398 0.75596 0.0
C726 C 0.54146 0.39603 0.71581 0.0
C727 C 0.55015 0.39019 0.69221 0.0
C728 C 0.56489 0.39233 0.70865 0.0
C729 C 0.57093 0.40025 0.74881 0.0
H730 H 0.54549 0.38404 0.66114 0.0
H731 H 0.59974 0.46687 0.04389 0.0
H732 H 0.06464 0.45045 0.24153 0.0
H733 H 0.03562 0.43057 0.23939 0.0
H734 H 0.04601 0.39468 0.18467 0.0
H735 H 0.07532 0.41474 0.18607 0.0
H736 H 0.0216 0.39556 0.14078 0.0
H737 H 0.03305 0.39092 0.29048 0.0
H738 H 0.04456 0.40069 0.36424 0.0
H739 H 0.01498 0.42305 0.37907 0.0
H740 H 0.00344 0.41362 0.30515 0.0
H741 H 0.93489 0.34162 0.15402 0.0
H742 H 0.96416 0.35217 0.16527 0.0
H743 H 0.9686 0.39546 0.22576 0.0
H744 H 0.93952 0.38494 0.21555 0.0
H745 H 0.9858 0.38512 0.27014 0.0
H746 H 0.9787 0.39432 0.11628 0.0
H747 H 0.96766 0.38559 0.04156 0.0
H748 H 0.98933 0.35516 0.0347 0.0
H749 H 0.00035 0.36358 0.10963 0.0
C750 C 0.06083 0.43831 0.22929 0.0
C751 C 0.07232 0.43418 0.21405 0.0
C752 C 0.04419 0.42691 0.22833 0.0
C753 C 0.03864 0.41105 0.21253 0.0
C754 C 0.05005 0.40683 0.19726 0.0
C755 C 0.06678 0.41828 0.19817 0.0
C756 C 0.02084 0.39931 0.21033 0.0
C757 C 0.01378 0.39294 0.16927 0.0
C758 C 0.01063 0.39603 0.24741 0.0
C759 C 0.01743 0.4016 0.29213 0.0
C760 C 0.02906 0.398 0.30936 0.0
C761 C 0.03558 0.40347 0.35122 0.0
C762 C 0.03052 0.41249 0.37631 0.0
C763 C 0.01889 0.41604 0.35962 0.0
C764 C 0.01233 0.41061 0.31776 0.0
C765 C 0.9421 0.35332 0.17004 0.0
C766 C 0.93489 0.36248 0.18369 0.0
C767 C 0.95883 0.35935 0.1763 0.0
C768 C 0.96861 0.37468 0.19597 0.0
C769 C 0.96131 0.38359 0.21059 0.0
C770 C 0.94466 0.37757 0.20455 0.0
C771 C 0.98655 0.38193 0.20033 0.0
C772 C 0.99364 0.38742 0.24186 0.0
C773 C 0.99677 0.38445 0.16368 0.0
C774 C 0.99016 0.37941 0.1187 0.0
C775 C 0.981 0.38567 0.09895 0.0
C776 C 0.97477 0.3808 0.05655 0.0
C777 C 0.97774 0.36978 0.03346 0.0
C778 C 0.987 0.36366 0.05267 0.0
C779 C 0.99325 0.36848 0.09508 0.0
H780 H 0.97291 0.36603 0.00063 0.0
H781 H 0.03559 0.41672 0.40871 0.0
H782 H 0.65888 0.06876 0.42358 0.0
H783 H 0.64921 0.03954 0.41848 0.0
H784 H 0.64025 0.03458 0.55806 0.0
H785 H 0.65016 0.06385 0.56362 0.0
H786 H 0.65157 0.0147 0.52936 0.0
H787 H 0.60976 0.02713 0.48834 0.0
H788 H 0.59813 0.04118 0.44628 0.0
H789 H 0.6052 0.02177 0.3261 0.0
H790 H 0.61708 0.00777 0.36745 0.0
H791 H 0.58597 0.93258 0.54615 0.0
H792 H 0.60528 0.96191 0.54817 0.0
H793 H 0.6107 0.96225 0.40745 0.0
H794 H 0.59124 0.93297 0.40504 0.0
H795 H 0.60326 0.98461 0.43281 0.0
H796 H 0.64231 0.96938 0.47632 0.0
H797 H 0.65326 0.95507 0.51995 0.0
H798 H 0.65076 0.97913 0.6368 0.0
H799 H 0.63956 0.99343 0.59398 0.0
C800 C 0.65511 0.06152 0.45334 0.0
C801 C 0.65507 0.0686 0.49391 0.0
C802 C 0.64956 0.04481 0.45034 0.0
C803 C 0.64373 0.03484 0.48776 0.0
C804 C 0.64465 0.04204 0.52874 0.0
C805 C 0.65026 0.05877 0.53182 0.0
C806 C 0.63536 0.01681 0.48367 0.0
C807 C 0.64096 0.00807 0.50846 0.0
C808 C 0.62167 0.00821 0.45582 0.0
C809 C 0.61448 0.01656 0.43092 0.0
C810 C 0.60895 0.02596 0.45291 0.0
C811 C 0.60229 0.0339 0.42921 0.0
C812 C 0.60097 0.03241 0.38353 0.0
C813 C 0.60626 0.02294 0.36147 0.0
C814 C 0.61295 0.015 0.38502 0.0
C815 C 0.59149 0.93883 0.5157 0.0
C816 C 0.58694 0.93045 0.47538 0.0
C817 C 0.6026 0.9556 0.51694 0.0
C818 C 0.60948 0.96428 0.47796 0.0
C819 C 0.60553 0.9558 0.43792 0.0
C820 C 0.5944 0.93904 0.43663 0.0
C821 C 0.61944 0.98238 0.47848 0.0
C822 C 0.61404 0.99117 0.4532 0.0
C823 C 0.63322 0.99095 0.50607 0.0
C824 C 0.63996 0.98238 0.53196 0.0
C825 C 0.64396 0.97153 0.51138 0.0
C826 C 0.65024 0.96343 0.53596 0.0
C827 C 0.65267 0.96616 0.58113 0.0
C828 C 0.64886 0.97702 0.6018 0.0
C829 C 0.64256 0.98514 0.57738 0.0
H830 H 0.65753 0.95988 0.6001 0.0
H831 H 0.59582 0.03857 0.36524 0.0
H832 H 0.58594 0.65592 0.84548 0.0
H833 H 0.60506 0.64564 0.8464 0.0
H834 H 0.60192 0.64103 0.7053 0.0
H835 H 0.58268 0.65111 0.70411 0.0
H836 H 0.59565 0.61314 0.74343 0.0
H837 H 0.63722 0.66918 0.7557 0.0
H838 H 0.65097 0.69702 0.7865 0.0
H839 H 0.65579 0.67843 0.91083 0.0
H840 H 0.64185 0.65043 0.88097 0.0
H841 H 0.65047 0.58422 0.72252 0.0
H842 H 0.64038 0.60338 0.71656 0.0
H843 H 0.64009 0.6069 0.85772 0.0
H844 H 0.65035 0.58783 0.86407 0.0
H845 H 0.64955 0.63663 0.81696 0.0
H846 H 0.60599 0.58086 0.80745 0.0
H847 H 0.59179 0.55276 0.77833 0.0
H848 H 0.59019 0.5709 0.65024 0.0
H849 H 0.60461 0.59915 0.6785 0.0
C850 C 0.58956 0.65302 0.81455 0.0
C851 C 0.58266 0.65419 0.77475 0.0
C852 C 0.60055 0.64721 0.81512 0.0
C853 C 0.60494 0.64258 0.7759 0.0
C854 C 0.59868 0.6445 0.73597 0.0
C855 C 0.58769 0.65029 0.73536 0.0
C856 C 0.61463 0.63416 0.77688 0.0
C857 C 0.60759 0.61845 0.7587 0.0
C858 C 0.62997 0.64086 0.79808 0.0
C859 C 0.63835 0.65768 0.81618 0.0
C860 C 0.64108 0.671 0.78973 0.0
C861 C 0.64893 0.68682 0.80699 0.0
C862 C 0.65421 0.68948 0.85062 0.0
C863 C 0.65168 0.67634 0.87705 0.0
C864 C 0.64381 0.6605 0.85995 0.0
C865 C 0.64854 0.58926 0.75234 0.0
C866 C 0.651 0.58431 0.7938 0.0
C867 C 0.64275 0.60021 0.74885 0.0
C868 C 0.63923 0.60634 0.78672 0.0
C869 C 0.64268 0.60227 0.8281 0.0
C870 C 0.64849 0.59131 0.83164 0.0
C871 C 0.63058 0.61574 0.7832 0.0
C872 C 0.63772 0.63149 0.80118 0.0
C873 C 0.61525 0.60909 0.76202 0.0
C874 C 0.60655 0.59212 0.74497 0.0
C875 C 0.60273 0.57887 0.77299 0.0
C876 C 0.59462 0.56291 0.75666 0.0
C877 C 0.59013 0.56005 0.71243 0.0
C878 C 0.59371 0.57314 0.68447 0.0
C879 C 0.60184 0.58912 0.70063 0.0
H880 H 0.58385 0.5477 0.69986 0.0
H881 H 0.6603 0.70174 0.86393 0.0
H882 H 0.94247 0.58384 0.06533 0.0
H883 H 0.9715 0.6041 0.06094 0.0
H884 H 0.97374 0.60848 0.20208 0.0
H885 H 0.94465 0.58836 0.20681 0.0
H886 H 0.99316 0.63809 0.16191 0.0
H887 H 0.98398 0.58324 0.15365 0.0
H888 H 0.97178 0.5553 0.12394 0.0
H889 H 0.99283 0.57455 0.99766 0.0
H890 H 0.00498 0.60263 0.02652 0.0
H891 H 0.07615 0.66101 0.20393 0.0
H892 H 0.0466 0.64941 0.19974 0.0
H893 H 0.04854 0.64548 0.05899 0.0
H894 H 0.07806 0.65687 0.06292 0.0
H895 H 0.02683 0.61715 0.09433 0.0
H896 H 0.03864 0.67234 0.10591 0.0
H897 H 0.05111 0.70004 0.13734 0.0
H898 H 0.02567 0.68028 0.25868 0.0
H899 H 0.01322 0.65243 0.2282 0.0
C900 C 0.94905 0.58929 0.09543 0.0
C901 C 0.94128 0.58431 0.13647 0.0
C902 C 0.96566 0.60086 0.09284 0.0
C903 C 0.97483 0.60758 0.13123 0.0
C904 C 0.9669 0.60341 0.17206 0.0
C905 C 0.95027 0.59185 0.17469 0.0
C906 C 0.99287 0.61779 0.12911 0.0
C907 C 0.00056 0.63352 0.14739 0.0
C908 C 0.00249 0.61189 0.10948 0.0
C909 C 0.99523 0.59503 0.0921 0.0
C910 C 0.9859 0.58151 0.11946 0.0
C911 C 0.97901 0.56566 0.10279 0.0
C912 C 0.98148 0.56315 0.0589 0.0
C913 C 0.99089 0.57651 0.03162 0.0
C914 C 0.99779 0.59239 0.04812 0.0
C915 C 0.07034 0.65796 0.17198 0.0
C916 C 0.07946 0.65974 0.13379 0.0
C917 C 0.05344 0.65139 0.16962 0.0
C918 C 0.04535 0.64661 0.12902 0.0
C919 C 0.05452 0.64907 0.09067 0.0
C920 C 0.07141 0.65561 0.09299 0.0
C921 C 0.02724 0.63755 0.12705 0.0
C922 C 0.01949 0.62191 0.10826 0.0
C923 C 0.01765 0.64354 0.1464 0.0
C924 C 0.0251 0.66027 0.16486 0.0
C925 C 0.03581 0.67388 0.13942 0.0
C926 C 0.04285 0.68962 0.15704 0.0
C927 C 0.03921 0.69191 0.20001 0.0
C928 C 0.02849 0.67848 0.22541 0.0
C929 C 0.02142 0.66272 0.20796 0.0
H930 H 0.04468 0.7041 0.21359 0.0
H931 H 0.97614 0.55086 0.04606 0.0
H932 H 0.40932 0.06222 0.45528 0.0
H933 H 0.38992 0.0329 0.45734 0.0
H934 H 0.39599 0.03286 0.59776 0.0
H935 H 0.4156 0.0621 0.59589 0.0
H936 H 0.40052 0.01033 0.56019 0.0
H937 H 0.35977 0.02595 0.55142 0.0
H938 H 0.3461 0.04027 0.52167 0.0
H939 H 0.3388 0.01543 0.39851 0.0
H940 H 0.35264 0.00113 0.4273 0.0
H941 H 0.34467 0.92699 0.58722 0.0
H942 H 0.35527 0.95638 0.59209 0.0
H943 H 0.35402 0.95927 0.45093 0.0
H944 H 0.34325 0.92982 0.44569 0.0
H945 H 0.34552 0.9802 0.49236 0.0
H946 H 0.38846 0.96691 0.49861 0.0
H947 H 0.40244 0.95272 0.52722 0.0
H948 H 0.40591 0.97372 0.65457 0.0
H949 H 0.39173 0.98786 0.62683 0.0
C950 C 0.40632 0.05604 0.48672 0.0
C951 C 0.41413 0.06448 0.52538 0.0
C952 C 0.39515 0.03927 0.48787 0.0
C953 C 0.39145 0.03067 0.52774 0.0
C954 C 0.39868 0.03923 0.56661 0.0
C955 C 0.40988 0.05597 0.56548 0.0
C956 C 0.38139 0.01258 0.52834 0.0
C957 C 0.38835 0.00378 0.54618 0.0
C958 C 0.36571 0.004 0.50887 0.0
C959 C 0.35737 0.01257 0.49142 0.0
C960 C 0.35538 0.02364 0.51787 0.0
C961 C 0.34757 0.03173 0.5012 0.0
C962 C 0.34162 0.02879 0.4582 0.0
C963 C 0.34343 0.01771 0.4318 0.0
C964 C 0.35124 0.0096 0.4483 0.0
C965 C 0.34637 0.9338 0.5572 0.0
C966 C 0.34334 0.92609 0.51602 0.0
C967 C 0.35245 0.95061 0.56007 0.0
C968 C 0.35568 0.96003 0.52184 0.0
C969 C 0.35165 0.95222 0.48083 0.0
C970 C 0.34555 0.93539 0.4779 0.0
C971 C 0.36467 0.97811 0.52443 0.0
C972 C 0.35759 0.98684 0.50691 0.0
C973 C 0.3803 0.98671 0.54408 0.0
C974 C 0.38888 0.97828 0.56078 0.0
C975 C 0.39209 0.96839 0.5328 0.0
C976 C 0.40006 0.96038 0.54884 0.0
C977 C 0.40501 0.96228 0.59272 0.0
C978 C 0.40204 0.97224 0.62062 0.0
C979 C 0.39404 0.98025 0.60475 0.0
H980 H 0.41119 0.95607 0.60507 0.0
H981 H 0.33558 0.03507 0.44536 0.0
H982 H 0.40805 0.3359 0.73917 0.0
H983 H 0.38788 0.34467 0.73078 0.0
H984 H 0.38983 0.35376 0.87009 0.0
H985 H 0.40972 0.34471 0.87893 0.0
H986 H 0.35916 0.34215 0.83893 0.0
H987 H 0.41383 0.38424 0.79945 0.0
H988 H 0.43967 0.39575 0.75807 0.0
H989 H 0.41354 0.38791 0.6369 0.0
H990 H 0.38751 0.37615 0.67759 0.0
H991 H 0.34581 0.40924 0.86029 0.0
H992 H 0.35422 0.3887 0.8598 0.0
H993 H 0.34917 0.38506 0.71881 0.0
H994 H 0.34098 0.4058 0.71893 0.0
H995 H 0.37838 0.39077 0.74305 0.0
H996 H 0.32386 0.35282 0.78559 0.0
H997 H 0.29851 0.34217 0.82873 0.0
H998 H 0.3243 0.34288 0.94548 0.0
H999 H 0.34988 0.35375 0.90318 0.0
C1000 C 0.40396 0.33947 0.76816 0.0
C1001 C 0.41069 0.33985 0.80962 0.0
C1002 C 0.39244 0.3445 0.76329 0.0
C1003 C 0.3876 0.35017 0.79969 0.0
C1004 C 0.39344 0.34949 0.84152 0.0
C1005 C 0.40488 0.34437 0.84647 0.0
C1006 C 0.3778 0.35833 0.79387 0.0
C1007 C 0.36334 0.3528 0.81807 0.0
C1008 C 0.3831 0.37204 0.76595 0.0
C1009 C 0.39873 0.37914 0.74149 0.0
C1010 C 0.41359 0.38486 0.76396 0.0
C1011 C 0.42827 0.39144 0.74064 0.0
C1012 C 0.42824 0.39251 0.69487 0.0
C1013 C 0.41354 0.38704 0.67234 0.0
C1014 C 0.39882 0.38042 0.6955 0.0
C1015 C 0.34618 0.40385 0.82923 0.0
C1016 C 0.34289 0.40929 0.7896 0.0
C1017 C 0.35089 0.39201 0.82903 0.0
C1018 C 0.35227 0.38528 0.78926 0.0
C1019 C 0.3482 0.3901 0.74987 0.0
C1020 C 0.3435 0.40195 0.75003 0.0
C1021 C 0.35975 0.37472 0.78846 0.0
C1022 C 0.37391 0.37989 0.76319 0.0
C1023 C 0.35419 0.36078 0.81559 0.0
C1024 C 0.33882 0.35422 0.84121 0.0
C1025 C 0.32416 0.35083 0.82053 0.0
C1026 C 0.30974 0.34473 0.84483 0.0
C1027 C 0.3098 0.34188 0.88983 0.0
C1028 C 0.32428 0.3451 0.91061 0.0
C1029 C 0.33874 0.35121 0.88647 0.0
H1030 H 0.29862 0.33716 0.90858 0.0
H1031 H 0.43961 0.39761 0.67688 0.0
loop_
_geom_bond_atom_site_label_1
_geom_bond_atom_site_label_2
_geom_bond_distance
_geom_bond_site_symmetry_2
_ccdc_geom_bond_type
O0 Cd1 2.300 . S
O0 C7 1.275 . S
Cd1 O0 2.300 . S
Cd1 O9 2.381 . S
Cd1 O10 2.378 . S
O2 Cd3 2.385 . S
O2 C7 1.255 . S
Cd3 O2 2.385 . S
Cd3 O4 2.317 . S
O4 Cd3 2.317 . S
O4 C5 1.232 . S
C5 O4 1.232 . S
C5 O6 1.218 . S
O6 C5 1.218 . S
C7 O0 1.275 . S
C7 O2 1.255 . S
C8 O9 1.258 . S
C8 O10 1.256 . S
O9 Cd1 2.381 . S
O9 C8 1.258 . S
O10 Cd1 2.378 . S
O10 C8 1.256 . S
O11 Cd12 2.300 . S
O11 C18 1.275 . S
Cd12 O11 2.300 . S
Cd12 O20 2.381 . S
Cd12 O21 2.378 . S
O13 Cd14 2.385 . S
O13 C18 1.255 . S
Cd14 O13 2.385 . S
Cd14 O15 2.317 . S
O15 Cd14 2.317 . S
O15 C16 1.232 . S
C16 O15 1.232 . S
C16 O17 1.218 . S
O17 C16 1.218 . S
C18 O11 1.275 . S
C18 O13 1.255 . S
C19 O20 1.258 . S
C19 O21 1.256 . S
O20 Cd12 2.381 . S
O20 C19 1.258 . S
O21 Cd12 2.378 . S
O21 C19 1.256 . S
O22 Cd23 2.300 . S
O22 C29 1.275 . S
Cd23 O22 2.300 . S
Cd23 O31 2.381 . S
Cd23 O32 2.378 . S
O24 Cd25 2.385 . S
O24 C29 1.255 . S
Cd25 O24 2.385 . S
Cd25 O26 2.317 . S
O26 Cd25 2.317 . S
O26 C27 1.232 . S
C27 O26 1.232 . S
C27 O28 1.218 . S
O28 C27 1.218 . S
C29 O22 1.275 . S
C29 O24 1.255 . S
C30 O31 1.258 . S
C30 O32 1.256 . S
O31 Cd23 2.381 . S
O31 C30 1.258 . S
O32 Cd23 2.378 . S
O32 C30 1.256 . S
O33 Cd34 2.300 . S
O33 C40 1.275 . S
Cd34 O33 2.300 . S
Cd34 O42 2.381 . S
Cd34 O43 2.378 . S
O35 Cd36 2.385 . S
O35 C40 1.255 . S
Cd36 O35 2.385 . S
Cd36 O37 2.317 . S
O37 Cd36 2.317 . S
O37 C38 1.232 . S
C38 O37 1.232 . S
C38 O39 1.218 . S
O39 C38 1.218 . S
C40 O33 1.275 . S
C40 O35 1.255 . S
C41 O42 1.258 . S
C41 O43 1.256 . S
O42 Cd34 2.381 . S
O42 C41 1.258 . S
O43 Cd34 2.378 . S
O43 C41 1.256 . S
O44 Cd45 2.300 . S
O44 C51 1.275 . S
Cd45 O44 2.300 . S
Cd45 O53 2.381 . S
Cd45 O54 2.378 . S
O46 Cd47 2.385 . S
O46 C51 1.255 . S
Cd47 O46 2.385 . S
Cd47 O48 2.317 . S
O48 Cd47 2.317 . S
O48 C49 1.232 . S
C49 O48 1.232 . S
C49 O50 1.218 . S
O50 C49 1.218 . S
C51 O44 1.275 . S
C51 O46 1.255 . S
C52 O53 1.258 . S
C52 O54 1.256 . S
O53 Cd45 2.381 . S
O53 C52 1.258 . S
O54 Cd45 2.378 . S
O54 C52 1.256 . S
O55 Cd56 2.300 . S
O55 C62 1.275 . S
Cd56 O55 2.300 . S
Cd56 O64 2.381 . S
Cd56 O65 2.378 . S
O57 Cd58 2.385 . S
O57 C62 1.255 . S
Cd58 O57 2.385 . S
Cd58 O59 2.317 . S
O59 Cd58 2.317 . S
O59 C60 1.232 . S
C60 O59 1.232 . S
C60 O61 1.218 . S
O61 C60 1.218 . S
C62 O55 1.275 . S
C62 O57 1.255 . S
C63 O64 1.258 . S
C63 O65 1.256 . S
O64 Cd56 2.381 . S
O64 C63 1.258 . S
O65 Cd56 2.378 . S
O65 C63 1.256 . S
O66 Cd67 2.300 . S
O66 C73 1.275 . S
Cd67 O66 2.300 . S
Cd67 O75 2.381 . S
Cd67 O76 2.378 . S
O68 Cd69 2.385 . S
O68 C73 1.255 . S
Cd69 O68 2.385 . S
Cd69 O70 2.317 . S
O70 Cd69 2.317 . S
O70 C71 1.232 . S
C71 O70 1.232 . S
C71 O72 1.218 . S
O72 C71 1.218 . S
C73 O66 1.275 . S
C73 O68 1.255 . S
C74 O75 1.258 . S
C74 O76 1.256 . S
O75 Cd67 2.381 . S
O75 C74 1.258 . S
O76 Cd67 2.378 . S
O76 C74 1.256 . S
O77 Cd78 2.300 . S
O77 C84 1.275 . S
Cd78 O77 2.300 . S
Cd78 O86 2.381 . S
Cd78 O87 2.378 . S
O79 Cd80 2.385 . S
O79 C84 1.255 . S
Cd80 O79 2.385 . S
Cd80 O81 2.317 . S
O81 Cd80 2.317 . S
O81 C82 1.232 . S
C82 O81 1.232 . S
C82 O83 1.218 . S
O83 C82 1.218 . S
C84 O77 1.275 . S
C84 O79 1.255 . S
C85 O86 1.258 . S
C85 O87 1.256 . S
O86 Cd78 2.381 . S
O86 C85 1.258 . S
O87 Cd78 2.378 . S
O87 C85 1.256 . S
O88 Cd89 2.300 . S
O88 C95 1.275 . S
Cd89 O88 2.300 . S
Cd89 O97 2.381 . S
Cd89 O98 2.378 . S
O90 Cd91 2.385 . S
O90 C95 1.255 . S
Cd91 O90 2.385 . S
Cd91 O92 2.317 . S
O92 Cd91 2.317 . S
O92 C93 1.232 . S
C93 O92 1.232 . S
C93 O94 1.218 . S
O94 C93 1.218 . S
C95 O88 1.275 . S
C95 O90 1.255 . S
C96 O97 1.258 . S
C96 O98 1.256 . S
O97 Cd89 2.381 . S
O97 C96 1.258 . S
O98 Cd89 2.378 . S
O98 C96 1.256 . S
O99 Cd100 2.300 . S
O99 C106 1.275 . S
Cd100 O99 2.300 . S
Cd100 O108 2.381 . S
Cd100 O109 2.378 . S
O101 Cd102 2.385 . S
O101 C106 1.255 . S
Cd102 O101 2.385 . S
Cd102 O103 2.317 . S
O103 Cd102 2.317 . S
O103 C104 1.232 . S
C104 O103 1.232 . S
C104 O105 1.218 . S
O105 C104 1.218 . S
C106 O99 1.275 . S
C106 O101 1.255 . S
C107 O108 1.258 . S
C107 O109 1.256 . S
O108 Cd100 2.381 . S
O108 C107 1.258 . S
O109 Cd100 2.378 . S
O109 C107 1.256 . S
O110 Cd111 2.300 . S
O110 C117 1.275 . S
Cd111 O110 2.300 . S
Cd111 O119 2.381 . S
Cd111 O120 2.378 . S
O112 Cd113 2.385 . S
O112 C117 1.255 . S
Cd113 O112 2.385 . S
Cd113 O114 2.317 . S
O114 Cd113 2.317 . S
O114 C115 1.232 . S
C115 O114 1.232 . S
C115 O116 1.218 . S
O116 C115 1.218 . S
C117 O110 1.275 . S
C117 O112 1.255 . S
C118 O119 1.258 . S
C118 O120 1.256 . S
O119 Cd111 2.381 . S
O119 C118 1.258 . S
O120 Cd111 2.378 . S
O120 C118 1.256 . S
O121 Cd122 2.300 . S
O121 C128 1.275 . S
Cd122 O121 2.300 . S
Cd122 O130 2.381 . S
Cd122 O131 2.378 . S
O123 Cd124 2.385 . S
O123 C128 1.255 . S
Cd124 O123 2.385 . S
Cd124 O125 2.317 . S
O125 Cd124 2.317 . S
O125 C126 1.232 . S
C126 O125 1.232 . S
C126 O127 1.218 . S
O127 C126 1.218 . S
C128 O121 1.275 . S
C128 O123 1.255 . S
C129 O130 1.258 . S
C129 O131 1.256 . S
O130 Cd122 2.381 . S
O130 C129 1.258 . S
O131 Cd122 2.378 . S
O131 C129 1.256 . S
H132 C150 0.951 . S
H133 C152 0.951 . S
H134 C154 0.950 . S
H135 C155 0.950 . S
H136 C157 0.950 . S
H137 C160 0.950 . S
H138 C161 0.950 . S
H139 C163 0.950 . S
H140 C164 0.950 . S
H141 C165 0.951 . S
H142 C167 0.951 . S
H143 C169 0.950 . S
H144 C170 0.950 . S
H145 C172 0.950 . S
H146 C175 0.950 . S
H147 C176 0.950 . S
H148 C178 0.950 . S
H149 C179 0.950 . S
C150 H132 0.951 . S
C150 C151 1.366 . S
C150 C152 1.388 . S
C151 C150 1.366 . S
C151 C155 1.385 . S
C152 H133 0.951 . S
C152 C150 1.388 . S
C152 C153 1.366 . S
C153 C152 1.366 . S
C153 C154 1.414 . S
C153 C156 1.499 . S
C154 H134 0.950 . S
C154 C153 1.414 . S
C154 C155 1.374 . S
C155 H135 0.950 . S
C155 C151 1.385 . S
C155 C154 1.374 . S
C156 C153 1.499 . S
C156 C157 1.373 1_556 S
C156 C158 1.389 . S
C157 H136 0.950 . S
C157 C156 1.373 1_554 S
C157 C173 1.377 . S
C158 C156 1.389 . S
C158 C159 1.524 . S
C158 C172 1.377 . S
C159 C158 1.524 . S
C159 C160 1.397 . S
C159 C164 1.363 . S
C160 H137 0.950 . S
C160 C159 1.397 . S
C160 C161 1.334 . S
C161 H138 0.950 . S
C161 C160 1.334 . S
C161 C162 1.287 . S
C162 C161 1.287 . S
C162 C163 1.524 . S
C162 H181 0.913 . S
C163 H139 0.950 . S
C163 C162 1.524 . S
C163 C164 1.415 . S
C164 H140 0.950 . S
C164 C159 1.363 . S
C164 C163 1.415 . S
C165 H141 0.951 . S
C165 C166 1.366 . S
C165 C167 1.388 . S
C166 C165 1.366 . S
C166 C170 1.385 . S
C167 H142 0.951 . S
C167 C165 1.388 . S
C167 C168 1.366 . S
C168 C167 1.366 . S
C168 C169 1.414 . S
C168 C171 1.499 . S
C169 H143 0.950 . S
C169 C168 1.414 . S
C169 C170 1.374 . S
C170 H144 0.950 . S
C170 C166 1.385 . S
C170 C169 1.374 . S
C171 C168 1.499 . S
C171 C172 1.373 1_554 S
C171 C173 1.389 . S
C172 H145 0.950 . S
C172 C158 1.377 . S
C172 C171 1.373 1_556 S
C173 C157 1.377 . S
C173 C171 1.389 . S
C173 C174 1.524 . S
C174 C173 1.524 . S
C174 C175 1.397 . S
C174 C179 1.363 . S
C175 H146 0.950 . S
C175 C174 1.397 . S
C175 C176 1.334 . S
C176 H147 0.950 . S
C176 C175 1.334 . S
C176 C177 1.287 . S
C177 C176 1.287 . S
C177 C178 1.524 . S
C177 H180 0.999 . S
C178 H148 0.950 . S
C178 C177 1.524 . S
C178 C179 1.415 . S
C179 H149 0.950 . S
C179 C174 1.363 . S
C179 C178 1.415 . S
H180 C177 0.999 . S
H181 C162 0.913 . S
H182 C200 0.951 . S
H183 C202 0.951 . S
H184 C204 0.950 . S
H185 C205 0.950 . S
H186 C207 0.950 . S
H187 C210 0.950 . S
H188 C211 0.950 . S
H189 C213 0.950 . S
H190 C214 0.950 . S
H191 C215 0.951 . S
H192 C217 0.951 . S
H193 C219 0.950 . S
H194 C220 0.950 . S
H195 C222 0.950 . S
H196 C225 0.950 . S
H197 C226 0.950 . S
H198 C228 0.950 . S
H199 C229 0.950 . S
C200 H182 0.951 . S
C200 C201 1.366 . S
C200 C202 1.388 . S
C201 C200 1.366 . S
C201 C205 1.385 . S
C202 H183 0.951 . S
C202 C200 1.388 . S
C202 C203 1.366 . S
C203 C202 1.366 . S
C203 C204 1.414 . S
C203 C206 1.499 . S
C204 H184 0.950 . S
C204 C203 1.414 . S
C204 C205 1.374 . S
C205 H185 0.950 . S
C205 C201 1.385 . S
C205 C204 1.374 . S
C206 C203 1.499 . S
C206 C207 1.373 . S
C206 C208 1.389 . S
C207 H186 0.950 . S
C207 C206 1.373 . S
C207 C223 1.377 . S
C208 C206 1.389 . S
C208 C209 1.524 . S
C208 C222 1.377 . S
C209 C208 1.524 . S
C209 C210 1.397 . S
C209 C214 1.363 . S
C210 H187 0.950 . S
C210 C209 1.397 . S
C210 C211 1.334 . S
C211 H188 0.950 . S
C211 C210 1.334 . S
C211 C212 1.287 . S
C212 C211 1.287 . S
C212 C213 1.524 . S
C212 H231 0.913 . S
C213 H189 0.950 . S
C213 C212 1.524 . S
C213 C214 1.415 . S
C214 H190 0.950 . S
C214 C209 1.363 . S
C214 C213 1.415 . S
C215 H191 0.951 . S
C215 C216 1.366 . S
C215 C217 1.388 . S
C216 C215 1.366 . S
C216 C220 1.385 . S
C217 H192 0.951 . S
C217 C215 1.388 . S
C217 C218 1.366 . S
C218 C217 1.366 . S
C218 C219 1.414 . S
C218 C221 1.499 . S
C219 H193 0.950 . S
C219 C218 1.414 . S
C219 C220 1.374 . S
C220 H194 0.950 . S
C220 C216 1.385 . S
C220 C219 1.374 . S
C221 C218 1.499 . S
C221 C222 1.373 . S
C221 C223 1.389 . S
C222 H195 0.950 . S
C222 C208 1.377 . S
C222 C221 1.373 . S
C223 C207 1.377 . S
C223 C221 1.389 . S
C223 C224 1.524 . S
C224 C223 1.524 . S
C224 C225 1.397 . S
C224 C229 1.363 . S
C225 H196 0.950 . S
C225 C224 1.397 . S
C225 C226 1.334 . S
C226 H197 0.950 . S
C226 C225 1.334 . S
C226 C227 1.287 . S
C227 C226 1.287 . S
C227 C228 1.524 . S
C227 H230 0.999 . S
C228 H198 0.950 . S
C228 C227 1.524 . S
C228 C229 1.415 . S
C229 H199 0.950 . S
C229 C224 1.363 . S
C229 C228 1.415 . S
H230 C227 0.999 . S
H231 C212 0.913 . S
H232 C250 0.951 . S
H233 C252 0.951 . S
H234 C254 0.950 . S
H235 C255 0.950 . S
H236 C257 0.950 . S
H237 C260 0.950 . S
H238 C261 0.950 . S
H239 C263 0.950 . S
H240 C264 0.950 . S
H241 C265 0.951 . S
H242 C267 0.951 . S
H243 C269 0.950 . S
H244 C270 0.950 . S
H245 C272 0.950 . S
H246 C275 0.950 . S
H247 C276 0.950 . S
H248 C278 0.950 . S
H249 C279 0.950 . S
C250 H232 0.951 . S
C250 C251 1.366 . S
C250 C252 1.388 . S
C251 C250 1.366 . S
C251 C255 1.385 . S
C252 H233 0.951 . S
C252 C250 1.388 . S
C252 C253 1.366 . S
C253 C252 1.366 . S
C253 C254 1.414 . S
C253 C256 1.499 . S
C254 H234 0.950 . S
C254 C253 1.414 . S
C254 C255 1.374 . S
C255 H235 0.950 . S
C255 C251 1.385 . S
C255 C254 1.374 . S
C256 C253 1.499 . S
C256 C257 1.373 . S
C256 C258 1.389 . S
C257 H236 0.950 . S
C257 C256 1.373 . S
C257 C273 1.377 . S
C258 C256 1.389 . S
C258 C259 1.524 . S
C258 C272 1.377 . S
C259 C258 1.524 . S
C259 C260 1.397 . S
C259 C264 1.363 . S
C260 H237 0.950 . S
C260 C259 1.397 . S
C260 C261 1.334 . S
C261 H238 0.950 . S
C261 C260 1.334 . S
C261 C262 1.287 . S
C262 C261 1.287 . S
C262 C263 1.524 . S
C262 H281 0.913 . S
C263 H239 0.950 . S
C263 C262 1.524 . S
C263 C264 1.415 . S
C264 H240 0.950 . S
C264 C259 1.363 . S
C264 C263 1.415 . S
C265 H241 0.951 . S
C265 C266 1.366 . S
C265 C267 1.388 . S
C266 C265 1.366 . S
C266 C270 1.385 . S
C267 H242 0.951 . S
C267 C265 1.388 . S
C267 C268 1.366 . S
C268 C267 1.366 . S
C268 C269 1.414 . S
C268 C271 1.499 . S
C269 H243 0.950 . S
C269 C268 1.414 . S
C269 C270 1.374 . S
C270 H244 0.950 . S
C270 C266 1.385 . S
C270 C269 1.374 . S
C271 C268 1.499 . S
C271 C272 1.373 . S
C271 C273 1.389 . S
C272 H245 0.950 . S
C272 C258 1.377 . S
C272 C271 1.373 . S
C273 C257 1.377 . S
C273 C271 1.389 . S
C273 C274 1.524 . S
C274 C273 1.524 . S
C274 C275 1.397 . S
C274 C279 1.363 . S
C275 H246 0.950 . S
C275 C274 1.397 . S
C275 C276 1.334 . S
C276 H247 0.950 . S
C276 C275 1.334 . S
C276 C277 1.287 . S
C277 C276 1.287 . S
C277 C278 1.524 . S
C277 H280 0.999 . S
C278 H248 0.950 . S
C278 C277 1.524 . S
C278 C279 1.415 . S
C279 H249 0.950 . S
C279 C274 1.363 . S
C279 C278 1.415 . S
H280 C277 0.999 . S
H281 C262 0.913 . S
H282 C300 0.951 . S
H283 C302 0.951 . S
H284 C304 0.950 . S
H285 C305 0.950 . S
H286 C307 0.950 . S
H287 C310 0.950 . S
H288 C311 0.950 . S
H289 C313 0.950 . S
H290 C314 0.950 . S
H291 C315 0.951 . S
H292 C317 0.951 . S
H293 C319 0.950 . S
H294 C320 0.950 . S
H295 C322 0.950 . S
H296 C325 0.950 . S
H297 C326 0.950 . S
H298 C328 0.950 . S
H299 C329 0.950 . S
C300 H282 0.951 . S
C300 C301 1.366 . S
C300 C302 1.388 . S
C301 C300 1.366 . S
C301 C305 1.385 . S
C302 H283 0.951 . S
C302 C300 1.388 . S
C302 C303 1.366 . S
C303 C302 1.366 . S
C303 C304 1.414 . S
C303 C306 1.499 . S
C304 H284 0.950 . S
C304 C303 1.414 . S
C304 C305 1.374 . S
C305 H285 0.950 . S
C305 C301 1.385 . S
C305 C304 1.374 . S
C306 C303 1.499 . S
C306 C307 1.373 . S
C306 C308 1.389 1_556 S
C307 H286 0.950 . S
C307 C306 1.373 . S
C307 C323 1.377 . S
C308 C306 1.389 1_554 S
C308 C309 1.524 . S
C308 C322 1.377 . S
C309 C308 1.524 . S
C309 C310 1.397 . S
C309 C314 1.363 . S
C310 H287 0.950 . S
C310 C309 1.397 . S
C310 C311 1.334 . S
C311 H288 0.950 . S
C311 C310 1.334 . S
C311 C312 1.287 . S
C312 C311 1.287 . S
C312 C313 1.524 . S
C312 H331 0.913 . S
C313 H289 0.950 . S
C313 C312 1.524 . S
C313 C314 1.415 . S
C314 H290 0.950 . S
C314 C309 1.363 . S
C314 C313 1.415 . S
C315 H291 0.951 . S
C315 C316 1.366 . S
C315 C317 1.388 . S
C316 C315 1.366 . S
C316 C320 1.385 . S
C317 H292 0.951 . S
C317 C315 1.388 . S
C317 C318 1.366 . S
C318 C317 1.366 . S
C318 C319 1.414 . S
C318 C321 1.499 . S
C319 H293 0.950 . S
C319 C318 1.414 . S
C319 C320 1.374 . S
C320 H294 0.950 . S
C320 C316 1.385 . S
C320 C319 1.374 . S
C321 C318 1.499 . S
C321 C322 1.373 . S
C321 C323 1.389 1_554 S
C322 H295 0.950 . S
C322 C308 1.377 . S
C322 C321 1.373 . S
C323 C307 1.377 . S
C323 C321 1.389 1_556 S
C323 C324 1.524 . S
C324 C323 1.524 . S
C324 C325 1.397 . S
C324 C329 1.363 . S
C325 H296 0.950 . S
C325 C324 1.397 . S
C325 C326 1.334 . S
C326 H297 0.950 . S
C326 C325 1.334 . S
C326 C327 1.287 . S
C327 C326 1.287 . S
C327 C328 1.524 . S
C327 H330 0.999 . S
C328 H298 0.950 . S
C328 C327 1.524 . S
C328 C329 1.415 . S
C329 H299 0.950 . S
C329 C324 1.363 . S
C329 C328 1.415 . S
H330 C327 0.999 . S
H331 C312 0.913 . S
H332 C350 0.951 . S
H333 C352 0.951 . S
H334 C354 0.950 . S
H335 C355 0.950 . S
H336 C357 0.950 . S
H337 C360 0.950 . S
H338 C361 0.950 . S
H339 C363 0.950 . S
H340 C364 0.950 . S
H341 C365 0.951 . S
H342 C367 0.951 . S
H343 C369 0.950 . S
H344 C370 0.950 . S
H345 C372 0.950 . S
H346 C375 0.950 . S
H347 C376 0.950 . S
H348 C378 0.950 . S
H349 C379 0.950 . S
C350 H332 0.951 . S
C350 C351 1.366 . S
C350 C352 1.388 . S
C351 C350 1.366 . S
C351 C355 1.385 . S
C352 H333 0.951 . S
C352 C350 1.388 . S
C352 C353 1.366 . S
C353 C352 1.366 . S
C353 C354 1.414 . S
C353 C356 1.499 . S
C354 H334 0.950 . S
C354 C353 1.414 . S
C354 C355 1.374 . S
C355 H335 0.950 . S
C355 C351 1.385 . S
C355 C354 1.374 . S
C356 C353 1.499 . S
C356 C357 1.373 . S
C356 C358 1.389 . S
C357 H336 0.950 . S
C357 C356 1.373 . S
C357 C373 1.377 . S
C358 C356 1.389 . S
C358 C359 1.524 . S
C358 C372 1.377 . S
C359 C358 1.524 . S
C359 C360 1.397 . S
C359 C364 1.363 . S
C360 H337 0.950 . S
C360 C359 1.397 . S
C360 C361 1.334 . S
C361 H338 0.950 . S
C361 C360 1.334 . S
C361 C362 1.287 . S
C362 C361 1.287 . S
C362 C363 1.524 . S
C362 H381 0.913 . S
C363 H339 0.950 . S
C363 C362 1.524 . S
C363 C364 1.415 . S
C364 H340 0.950 . S
C364 C359 1.363 . S
C364 C363 1.415 . S
C365 H341 0.951 . S
C365 C366 1.366 . S
C365 C367 1.388 . S
C366 C365 1.366 . S
C366 C370 1.385 . S
C367 H342 0.951 . S
C367 C365 1.388 . S
C367 C368 1.366 . S
C368 C367 1.366 . S
C368 C369 1.414 . S
C368 C371 1.499 . S
C369 H343 0.950 . S
C369 C368 1.414 . S
C369 C370 1.374 . S
C370 H344 0.950 . S
C370 C366 1.385 . S
C370 C369 1.374 . S
C371 C368 1.499 . S
C371 C372 1.373 . S
C371 C373 1.389 . S
C372 H345 0.950 . S
C372 C358 1.377 . S
C372 C371 1.373 . S
C373 C357 1.377 . S
C373 C371 1.389 . S
C373 C374 1.524 . S
C374 C373 1.524 . S
C374 C375 1.397 . S
C374 C379 1.363 . S
C375 H346 0.950 . S
C375 C374 1.397 . S
C375 C376 1.334 . S
C376 H347 0.950 . S
C376 C375 1.334 . S
C376 C377 1.287 . S
C377 C376 1.287 . S
C377 C378 1.524 . S
C377 H380 0.999 . S
C378 H348 0.950 . S
C378 C377 1.524 . S
C378 C379 1.415 . S
C379 H349 0.950 . S
C379 C374 1.363 . S
C379 C378 1.415 . S
H380 C377 0.999 . S
H381 C362 0.913 . S
H382 C400 0.951 . S
H383 C402 0.951 . S
H384 C404 0.950 . S
H385 C405 0.950 . S
H386 C407 0.950 . S
H387 C410 0.950 . S
H388 C411 0.950 . S
H389 C413 0.950 . S
H390 C414 0.950 . S
H391 C415 0.951 . S
H392 C417 0.951 . S
H393 C419 0.950 . S
H394 C420 0.950 . S
H395 C422 0.950 . S
H396 C425 0.950 . S
H397 C426 0.950 . S
H398 C428 0.950 . S
H399 C429 0.950 . S
C400 H382 0.951 . S
C400 C401 1.366 . S
C400 C402 1.388 . S
C401 C400 1.366 . S
C401 C405 1.385 . S
C402 H383 0.951 . S
C402 C400 1.388 . S
C402 C403 1.366 . S
C403 C402 1.366 . S
C403 C404 1.414 . S
C403 C406 1.499 . S
C404 H384 0.950 . S
C404 C403 1.414 . S
C404 C405 1.374 . S
C405 H385 0.950 . S
C405 C401 1.385 . S
C405 C404 1.374 . S
C406 C403 1.499 . S
C406 C407 1.373 . S
C406 C408 1.389 . S
C407 H386 0.950 . S
C407 C406 1.373 . S
C407 C423 1.377 . S
C408 C406 1.389 . S
C408 C409 1.524 . S
C408 C422 1.377 . S
C409 C408 1.524 . S
C409 C410 1.397 . S
C409 C414 1.363 . S
C410 H387 0.950 . S
C410 C409 1.397 . S
C410 C411 1.334 . S
C411 H388 0.950 . S
C411 C410 1.334 . S
C411 C412 1.287 . S
C412 C411 1.287 . S
C412 C413 1.524 . S
C412 H431 0.913 . S
C413 H389 0.950 . S
C413 C412 1.524 . S
C413 C414 1.415 . S
C414 H390 0.950 . S
C414 C409 1.363 . S
C414 C413 1.415 . S
C415 H391 0.951 . S
C415 C416 1.366 . S
C415 C417 1.388 . S
C416 C415 1.366 . S
C416 C420 1.385 . S
C417 H392 0.951 . S
C417 C415 1.388 . S
C417 C418 1.366 . S
C418 C417 1.366 . S
C418 C419 1.414 . S
C418 C421 1.499 . S
C419 H393 0.950 . S
C419 C418 1.414 . S
C419 C420 1.374 . S
C420 H394 0.950 . S
C420 C416 1.385 . S
C420 C419 1.374 . S
C421 C418 1.499 . S
C421 C422 1.373 . S
C421 C423 1.389 . S
C422 H395 0.950 . S
C422 C408 1.377 . S
C422 C421 1.373 . S
C423 C407 1.377 . S
C423 C421 1.389 . S
C423 C424 1.524 . S
C424 C423 1.524 . S
C424 C425 1.397 . S
C424 C429 1.363 . S
C425 H396 0.950 . S
C425 C424 1.397 . S
C425 C426 1.334 . S
C426 H397 0.950 . S
C426 C425 1.334 . S
C426 C427 1.287 . S
C427 C426 1.287 . S
C427 C428 1.524 . S
C427 H430 0.999 . S
C428 H398 0.950 . S
C428 C427 1.524 . S
C428 C429 1.415 . S
C429 H399 0.950 . S
C429 C424 1.363 . S
C429 C428 1.415 . S
H430 C427 0.999 . S
H431 C412 0.913 . S
H432 C450 0.951 . S
H433 C452 0.951 . S
H434 C454 0.950 . S
H435 C455 0.950 . S
H436 C457 0.950 . S
H437 C460 0.950 . S
H438 C461 0.950 . S
H439 C463 0.950 1_556 S
H440 C464 0.950 . S
H441 C465 0.951 . S
H442 C467 0.951 . S
H443 C469 0.950 . S
H444 C470 0.950 . S
H445 C472 0.950 . S
H446 C475 0.950 . S
H447 C476 0.950 . S
H448 C478 0.950 . S
H449 C479 0.950 . S
C450 H432 0.951 . S
C450 C451 1.366 . S
C450 C452 1.388 . S
C451 C450 1.366 . S
C451 C455 1.385 . S
C452 H433 0.951 . S
C452 C450 1.388 . S
C452 C453 1.366 . S
C453 C452 1.366 . S
C453 C454 1.414 . S
C453 C456 1.499 . S
C454 H434 0.950 . S
C454 C453 1.414 . S
C454 C455 1.374 . S
C455 H435 0.950 . S
C455 C451 1.385 . S
C455 C454 1.374 . S
C456 C453 1.499 . S
C456 C457 1.373 . S
C456 C458 1.389 . S
C457 H436 0.950 . S
C457 C456 1.373 . S
C457 C473 1.377 . S
C458 C456 1.389 . S
C458 C459 1.524 . S
C458 C472 1.377 . S
C459 C458 1.524 . S
C459 C460 1.397 . S
C459 C464 1.363 . S
C460 H437 0.950 . S
C460 C459 1.397 . S
C460 C461 1.334 . S
C461 H438 0.950 . S
C461 C460 1.334 . S
C461 C462 1.287 . S
C462 C461 1.287 . S
C462 C463 1.524 . S
C462 H481 0.913 . S
C463 H439 0.950 1_554 S
C463 C462 1.524 . S
C463 C464 1.415 . S
C464 H440 0.950 . S
C464 C459 1.363 . S
C464 C463 1.415 . S
C465 H441 0.951 . S
C465 C466 1.366 . S
C465 C467 1.388 . S
C466 C465 1.366 . S
C466 C470 1.385 . S
C467 H442 0.951 . S
C467 C465 1.388 . S
C467 C468 1.366 . S
C468 C467 1.366 . S
C468 C469 1.414 . S
C468 C471 1.499 . S
C469 H443 0.950 . S
C469 C468 1.414 . S
C469 C470 1.374 . S
C470 H444 0.950 . S
C470 C466 1.385 . S
C470 C469 1.374 . S
C471 C468 1.499 . S
C471 C472 1.373 . S
C471 C473 1.389 . S
C472 H445 0.950 . S
C472 C458 1.377 . S
C472 C471 1.373 . S
C473 C457 1.377 . S
C473 C471 1.389 . S
C473 C474 1.524 . S
C474 C473 1.524 . S
C474 C475 1.397 . S
C474 C479 1.363 . S
C475 H446 0.950 . S
C475 C474 1.397 . S
C475 C476 1.334 . S
C476 H447 0.950 . S
C476 C475 1.334 . S
C476 C477 1.287 . S
C477 C476 1.287 . S
C477 C478 1.524 . S
C477 H480 0.999 . S
C478 H448 0.950 . S
C478 C477 1.524 . S
C478 C479 1.415 . S
C479 H449 0.950 . S
C479 C474 1.363 . S
C479 C478 1.415 . S
H480 C477 0.999 . S
H481 C462 0.913 . S
H482 C500 0.951 . S
H483 C502 0.951 . S
H484 C504 0.950 . S
H485 C505 0.950 . S
H486 C507 0.950 . S
H487 C510 0.950 . S
H488 C511 0.950 . S
H489 C513 0.950 . S
H490 C514 0.950 . S
H491 C515 0.951 . S
H492 C517 0.951 . S
H493 C519 0.950 . S
H494 C520 0.950 . S
H495 C522 0.950 . S
H496 C525 0.950 . S
H497 C526 0.950 . S
H498 C528 0.950 . S
H499 C529 0.950 . S
C500 H482 0.951 . S
C500 C501 1.366 . S
C500 C502 1.388 . S
C501 C500 1.366 . S
C501 C505 1.385 . S
C502 H483 0.951 . S
C502 C500 1.388 . S
C502 C503 1.366 . S
C503 C502 1.366 . S
C503 C504 1.414 . S
C503 C506 1.499 . S
C504 H484 0.950 . S
C504 C503 1.414 . S
C504 C505 1.374 . S
C505 H485 0.950 . S
C505 C501 1.385 . S
C505 C504 1.374 . S
C506 C503 1.499 . S
C506 C507 1.373 . S
C506 C508 1.389 . S
C507 H486 0.950 . S
C507 C506 1.373 . S
C507 C523 1.377 . S
C508 C506 1.389 . S
C508 C509 1.524 . S
C508 C522 1.377 . S
C509 C508 1.524 . S
C509 C510 1.397 . S
C509 C514 1.363 . S
C510 H487 0.950 . S
C510 C509 1.397 . S
C510 C511 1.334 . S
C511 H488 0.950 . S
C511 C510 1.334 . S
C511 C512 1.287 . S
C512 C511 1.287 . S
C512 C513 1.524 . S
C512 H531 0.913 . S
C513 H489 0.950 . S
C513 C512 1.524 . S
C513 C514 1.415 . S
C514 H490 0.950 . S
C514 C509 1.363 . S
C514 C513 1.415 . S
C515 H491 0.951 . S
C515 C516 1.366 . S
C515 C517 1.388 . S
C516 C515 1.366 . S
C516 C520 1.385 . S
C517 H492 0.951 . S
C517 C515 1.388 . S
C517 C518 1.366 . S
C518 C517 1.366 . S
C518 C519 1.414 . S
C518 C521 1.499 . S
C519 H493 0.950 . S
C519 C518 1.414 . S
C519 C520 1.374 . S
C520 H494 0.950 . S
C520 C516 1.385 . S
C520 C519 1.374 . S
C521 C518 1.499 . S
C521 C522 1.373 . S
C521 C523 1.389 . S
C522 H495 0.950 . S
C522 C508 1.377 . S
C522 C521 1.373 . S
C523 C507 1.377 . S
C523 C521 1.389 . S
C523 C524 1.524 . S
C524 C523 1.524 . S
C524 C525 1.397 . S
C524 C529 1.363 . S
C525 H496 0.950 . S
C525 C524 1.397 . S
C525 C526 1.334 . S
C526 H497 0.950 . S
C526 C525 1.334 . S
C526 C527 1.287 . S
C527 C526 1.287 . S
C527 C528 1.524 . S
C527 H530 0.999 . S
C528 H498 0.950 . S
C528 C527 1.524 . S
C528 C529 1.415 . S
C529 H499 0.950 . S
C529 C524 1.363 . S
C529 C528 1.415 . S
H530 C527 0.999 . S
H531 C512 0.913 . S
H532 C550 0.951 . S
H533 C552 0.951 . S
H534 C554 0.950 . S
H535 C555 0.950 . S
H536 C557 0.950 . S
H537 C560 0.950 . S
H538 C561 0.950 . S
H539 C563 0.950 . S
H540 C564 0.950 . S
H541 C565 0.951 . S
H542 C567 0.951 . S
H543 C569 0.950 . S
H544 C570 0.950 . S
H545 C572 0.950 . S
H546 C575 0.950 . S
H547 C576 0.950 . S
H548 C578 0.950 . S
H549 C579 0.950 . S
C550 H532 0.951 . S
C550 C551 1.366 . S
C550 C552 1.388 . S
C551 C550 1.366 . S
C551 C555 1.385 . S
C552 H533 0.951 . S
C552 C550 1.388 . S
C552 C553 1.366 . S
C553 C552 1.366 . S
C553 C554 1.414 . S
C553 C556 1.499 . S
C554 H534 0.950 . S
C554 C553 1.414 . S
C554 C555 1.374 . S
C555 H535 0.950 . S
C555 C551 1.385 . S
C555 C554 1.374 . S
C556 C553 1.499 . S
C556 C557 1.373 . S
C556 C558 1.389 . S
C557 H536 0.950 . S
C557 C556 1.373 . S
C557 C573 1.377 . S
C558 C556 1.389 . S
C558 C559 1.524 . S
C558 C572 1.377 . S
C559 C558 1.524 . S
C559 C560 1.397 . S
C559 C564 1.363 . S
C560 H537 0.950 . S
C560 C559 1.397 . S
C560 C561 1.334 . S
C561 H538 0.950 . S
C561 C560 1.334 . S
C561 C562 1.287 . S
C562 C561 1.287 . S
C562 C563 1.524 . S
C562 H581 0.913 1_556 S
C563 H539 0.950 . S
C563 C562 1.524 . S
C563 C564 1.415 . S
C564 H540 0.950 . S
C564 C559 1.363 . S
C564 C563 1.415 . S
C565 H541 0.951 . S
C565 C566 1.366 . S
C565 C567 1.388 . S
C566 C565 1.366 . S
C566 C570 1.385 . S
C567 H542 0.951 . S
C567 C565 1.388 . S
C567 C568 1.366 . S
C568 C567 1.366 . S
C568 C569 1.414 . S
C568 C571 1.499 . S
C569 H543 0.950 . S
C569 C568 1.414 . S
C569 C570 1.374 . S
C570 H544 0.950 . S
C570 C566 1.385 . S
C570 C569 1.374 . S
C571 C568 1.499 . S
C571 C572 1.373 . S
C571 C573 1.389 . S
C572 H545 0.950 . S
C572 C558 1.377 . S
C572 C571 1.373 . S
C573 C557 1.377 . S
C573 C571 1.389 . S
C573 C574 1.524 . S
C574 C573 1.524 . S
C574 C575 1.397 . S
C574 C579 1.363 . S
C575 H546 0.950 . S
C575 C574 1.397 . S
C575 C576 1.334 . S
C576 H547 0.950 . S
C576 C575 1.334 . S
C576 C577 1.287 . S
C577 C576 1.287 . S
C577 C578 1.524 . S
C577 H580 0.999 . S
C578 H548 0.950 . S
C578 C577 1.524 . S
C578 C579 1.415 . S
C579 H549 0.950 . S
C579 C574 1.363 . S
C579 C578 1.415 . S
H580 C577 0.999 . S
H581 C562 0.913 1_554 S
H582 C600 0.951 . S
H583 C602 0.951 . S
H584 C604 0.950 . S
H585 C605 0.950 . S
H586 C607 0.950 . S
H587 C610 0.950 . S
H588 C611 0.950 . S
H589 C613 0.950 . S
H590 C614 0.950 . S
H591 C615 0.951 . S
H592 C617 0.951 . S
H593 C619 0.950 . S
H594 C620 0.950 . S
H595 C622 0.950 . S
H596 C625 0.950 . S
H597 C626 0.950 . S
H598 C628 0.950 . S
H599 C629 0.950 . S
C600 H582 0.951 . S
C600 C601 1.366 . S
C600 C602 1.388 . S
C601 C600 1.366 . S
C601 C605 1.385 . S
C602 H583 0.951 . S
C602 C600 1.388 . S
C602 C603 1.366 . S
C603 C602 1.366 . S
C603 C604 1.414 . S
C603 C606 1.499 . S
C604 H584 0.950 . S
C604 C603 1.414 . S
C604 C605 1.374 . S
C605 H585 0.950 . S
C605 C601 1.385 . S
C605 C604 1.374 . S
C606 C603 1.499 . S
C606 C607 1.373 . S
C606 C608 1.389 . S
C607 H586 0.950 . S
C607 C606 1.373 . S
C607 C623 1.377 . S
C608 C606 1.389 . S
C608 C609 1.524 . S
C608 C622 1.377 . S
C609 C608 1.524 . S
C609 C610 1.397 . S
C609 C614 1.363 . S
C610 H587 0.950 . S
C610 C609 1.397 . S
C610 C611 1.334 . S
C611 H588 0.950 . S
C611 C610 1.334 . S
C611 C612 1.287 . S
C612 C611 1.287 . S
C612 C613 1.524 . S
C612 H631 0.913 1_554 S
C613 H589 0.950 . S
C613 C612 1.524 . S
C613 C614 1.415 . S
C614 H590 0.950 . S
C614 C609 1.363 . S
C614 C613 1.415 . S
C615 H591 0.951 . S
C615 C616 1.366 . S
C615 C617 1.388 . S
C616 C615 1.366 . S
C616 C620 1.385 . S
C617 H592 0.951 . S
C617 C615 1.388 . S
C617 C618 1.366 . S
C618 C617 1.366 . S
C618 C619 1.414 . S
C618 C621 1.499 . S
C619 H593 0.950 . S
C619 C618 1.414 . S
C619 C620 1.374 . S
C620 H594 0.950 . S
C620 C616 1.385 . S
C620 C619 1.374 . S
C621 C618 1.499 . S
C621 C622 1.373 . S
C621 C623 1.389 . S
C622 H595 0.950 . S
C622 C608 1.377 . S
C622 C621 1.373 . S
C623 C607 1.377 . S
C623 C621 1.389 . S
C623 C624 1.524 . S
C624 C623 1.524 . S
C624 C625 1.397 . S
C624 C629 1.363 . S
C625 H596 0.950 . S
C625 C624 1.397 . S
C625 C626 1.334 . S
C626 H597 0.950 . S
C626 C625 1.334 . S
C626 C627 1.287 . S
C627 C626 1.287 . S
C627 C628 1.524 . S
C627 H630 0.999 . S
C628 H598 0.950 . S
C628 C627 1.524 . S
C628 C629 1.415 . S
C629 H599 0.950 . S
C629 C624 1.363 . S
C629 C628 1.415 . S
H630 C627 0.999 . S
H631 C612 0.913 1_556 S
H632 C650 0.951 . S
H633 C652 0.951 . S
H634 C654 0.950 . S
H635 C655 0.950 . S
H636 C657 0.950 . S
H637 C660 0.950 . S
H638 C661 0.950 . S
H639 C663 0.950 . S
H640 C664 0.950 . S
H641 C665 0.951 . S
H642 C667 0.951 . S
H643 C669 0.950 . S
H644 C670 0.950 . S
H645 C672 0.950 . S
H646 C675 0.950 . S
H647 C676 0.950 . S
H648 C678 0.950 . S
H649 C679 0.950 . S
C650 H632 0.951 . S
C650 C651 1.366 . S
C650 C652 1.388 . S
C651 C650 1.366 . S
C651 C655 1.385 . S
C652 H633 0.951 . S
C652 C650 1.388 . S
C652 C653 1.366 . S
C653 C652 1.366 . S
C653 C654 1.414 . S
C653 C656 1.499 . S
C654 H634 0.950 . S
C654 C653 1.414 . S
C654 C655 1.374 . S
C655 H635 0.950 . S
C655 C651 1.385 . S
C655 C654 1.374 . S
C656 C653 1.499 . S
C656 C657 1.373 . S
C656 C658 1.389 . S
C657 H636 0.950 . S
C657 C656 1.373 . S
C657 C673 1.377 . S
C658 C656 1.389 . S
C658 C659 1.524 . S
C658 C672 1.377 . S
C659 C658 1.524 . S
C659 C660 1.397 . S
C659 C664 1.363 . S
C660 H637 0.950 . S
C660 C659 1.397 . S
C660 C661 1.334 . S
C661 H638 0.950 . S
C661 C660 1.334 . S
C661 C662 1.287 . S
C662 C661 1.287 . S
C662 C663 1.524 . S
C662 H681 0.913 . S
C663 H639 0.950 . S
C663 C662 1.524 . S
C663 C664 1.415 . S
C664 H640 0.950 . S
C664 C659 1.363 . S
C664 C663 1.415 . S
C665 H641 0.951 . S
C665 C666 1.366 . S
C665 C667 1.388 . S
C666 C665 1.366 . S
C666 C670 1.385 . S
C667 H642 0.951 . S
C667 C665 1.388 . S
C667 C668 1.366 . S
C668 C667 1.366 . S
C668 C669 1.414 . S
C668 C671 1.499 . S
C669 H643 0.950 . S
C669 C668 1.414 . S
C669 C670 1.374 . S
C670 H644 0.950 . S
C670 C666 1.385 . S
C670 C669 1.374 . S
C671 C668 1.499 . S
C671 C672 1.373 . S
C671 C673 1.389 . S
C672 H645 0.950 . S
C672 C658 1.377 . S
C672 C671 1.373 . S
C673 C657 1.377 . S
C673 C671 1.389 . S
C673 C674 1.524 . S
C674 C673 1.524 . S
C674 C675 1.397 . S
C674 C679 1.363 . S
C675 H646 0.950 . S
C675 C674 1.397 . S
C675 C676 1.334 . S
C676 H647 0.950 . S
C676 C675 1.334 . S
C676 C677 1.287 . S
C677 C676 1.287 . S
C677 C678 1.524 . S
C677 H680 0.999 . S
C678 H648 0.950 . S
C678 C677 1.524 . S
C678 C679 1.415 . S
C679 H649 0.950 . S
C679 C674 1.363 . S
C679 C678 1.415 . S
H680 C677 0.999 . S
H681 C662 0.913 . S
H682 C700 0.951 . S
H683 C702 0.951 . S
H684 C704 0.950 . S
H685 C705 0.950 . S
H686 C707 0.950 . S
H687 C710 0.950 . S
H688 C711 0.950 . S
H689 C713 0.950 . S
H690 C714 0.950 . S
H691 C715 0.951 . S
H692 C717 0.951 . S
H693 C719 0.950 . S
H694 C720 0.950 . S
H695 C722 0.950 . S
H696 C725 0.950 . S
H697 C726 0.950 . S
H698 C728 0.950 . S
H699 C729 0.950 . S
C700 H682 0.951 . S
C700 C701 1.366 . S
C700 C702 1.388 . S
C701 C700 1.366 . S
C701 C705 1.385 . S
C702 H683 0.951 . S
C702 C700 1.388 . S
C702 C703 1.366 . S
C703 C702 1.366 . S
C703 C704 1.414 . S
C703 C706 1.499 . S
C704 H684 0.950 . S
C704 C703 1.414 . S
C704 C705 1.374 . S
C705 H685 0.950 . S
C705 C701 1.385 . S
C705 C704 1.374 . S
C706 C703 1.499 . S
C706 C707 1.373 . S
C706 C708 1.389 . S
C707 H686 0.950 . S
C707 C706 1.373 . S
C707 C723 1.377 . S
C708 C706 1.389 . S
C708 C709 1.524 . S
C708 C722 1.377 . S
C709 C708 1.524 . S
C709 C710 1.397 . S
C709 C714 1.363 . S
C710 H687 0.950 . S
C710 C709 1.397 . S
C710 C711 1.334 . S
C711 H688 0.950 . S
C711 C710 1.334 . S
C711 C712 1.287 . S
C712 C711 1.287 . S
C712 C713 1.524 . S
C712 H731 0.913 . S
C713 H689 0.950 . S
C713 C712 1.524 . S
C713 C714 1.415 . S
C714 H690 0.950 . S
C714 C709 1.363 . S
C714 C713 1.415 . S
C715 H691 0.951 . S
C715 C716 1.366 . S
C715 C717 1.388 . S
C716 C715 1.366 . S
C716 C720 1.385 . S
C717 H692 0.951 . S
C717 C715 1.388 . S
C717 C718 1.366 . S
C718 C717 1.366 . S
C718 C719 1.414 . S
C718 C721 1.499 . S
C719 H693 0.950 . S
C719 C718 1.414 . S
C719 C720 1.374 . S
C720 H694 0.950 . S
C720 C716 1.385 . S
C720 C719 1.374 . S
C721 C718 1.499 . S
C721 C722 1.373 . S
C721 C723 1.389 . S
C722 H695 0.950 . S
C722 C708 1.377 . S
C722 C721 1.373 . S
C723 C707 1.377 . S
C723 C721 1.389 . S
C723 C724 1.524 . S
C724 C723 1.524 . S
C724 C725 1.397 . S
C724 C729 1.363 . S
C725 H696 0.950 . S
C725 C724 1.397 . S
C725 C726 1.334 . S
C726 H697 0.950 . S
C726 C725 1.334 . S
C726 C727 1.287 . S
C727 C726 1.287 . S
C727 C728 1.524 . S
C727 H730 0.999 . S
C728 H698 0.950 . S
C728 C727 1.524 . S
C728 C729 1.415 . S
C729 H699 0.950 . S
C729 C724 1.363 . S
C729 C728 1.415 . S
H730 C727 0.999 . S
H731 C712 0.913 . S
H732 C750 0.951 . S
H733 C752 0.951 . S
H734 C754 0.950 . S
H735 C755 0.950 . S
H736 C757 0.950 . S
H737 C760 0.950 . S
H738 C761 0.950 . S
H739 C763 0.950 . S
H740 C764 0.950 . S
H741 C765 0.951 . S
H742 C767 0.951 . S
H743 C769 0.950 . S
H744 C770 0.950 . S
H745 C772 0.950 . S
H746 C775 0.950 . S
H747 C776 0.950 . S
H748 C778 0.950 . S
H749 C779 0.950 . S
C750 H732 0.951 . S
C750 C751 1.366 . S
C750 C752 1.388 . S
C751 C750 1.366 . S
C751 C755 1.385 . S
C752 H733 0.951 . S
C752 C750 1.388 . S
C752 C753 1.366 . S
C753 C752 1.366 . S
C753 C754 1.414 . S
C753 C756 1.499 . S
C754 H734 0.950 . S
C754 C753 1.414 . S
C754 C755 1.374 . S
C755 H735 0.950 . S
C755 C751 1.385 . S
C755 C754 1.374 . S
C756 C753 1.499 . S
C756 C757 1.373 . S
C756 C758 1.389 . S
C757 H736 0.950 . S
C757 C756 1.373 . S
C757 C773 1.377 1_455 S
C758 C756 1.389 . S
C758 C759 1.524 . S
C758 C772 1.377 1_455 S
C759 C758 1.524 . S
C759 C760 1.397 . S
C759 C764 1.363 . S
C760 H737 0.950 . S
C760 C759 1.397 . S
C760 C761 1.334 . S
C761 H738 0.950 . S
C761 C760 1.334 . S
C761 C762 1.287 . S
C762 C761 1.287 . S
C762 C763 1.524 . S
C762 H781 0.913 . S
C763 H739 0.950 . S
C763 C762 1.524 . S
C763 C764 1.415 . S
C764 H740 0.950 . S
C764 C759 1.363 . S
C764 C763 1.415 . S
C765 H741 0.951 . S
C765 C766 1.366 . S
C765 C767 1.388 . S
C766 C765 1.366 . S
C766 C770 1.385 . S
C767 H742 0.951 . S
C767 C765 1.388 . S
C767 C768 1.366 . S
C768 C767 1.366 . S
C768 C769 1.414 . S
C768 C771 1.499 . S
C769 H743 0.950 . S
C769 C768 1.414 . S
C769 C770 1.374 . S
C770 H744 0.950 . S
C770 C766 1.385 . S
C770 C769 1.374 . S
C771 C768 1.499 . S
C771 C772 1.373 . S
C771 C773 1.389 . S
C772 H745 0.950 . S
C772 C758 1.377 1_655 S
C772 C771 1.373 . S
C773 C757 1.377 1_655 S
C773 C771 1.389 . S
C773 C774 1.524 . S
C774 C773 1.524 . S
C774 C775 1.397 . S
C774 C779 1.363 . S
C775 H746 0.950 . S
C775 C774 1.397 . S
C775 C776 1.334 . S
C776 H747 0.950 . S
C776 C775 1.334 . S
C776 C777 1.287 . S
C777 C776 1.287 . S
C777 C778 1.524 . S
C777 H780 0.999 1_554 S
C778 H748 0.950 . S
C778 C777 1.524 . S
C778 C779 1.415 . S
C779 H749 0.950 . S
C779 C774 1.363 . S
C779 C778 1.415 . S
H780 C777 0.999 1_556 S
H781 C762 0.913 . S
H782 C800 0.951 . S
H783 C802 0.951 . S
H784 C804 0.950 . S
H785 C805 0.950 . S
H786 C807 0.950 . S
H787 C810 0.950 . S
H788 C811 0.950 . S
H789 C813 0.950 . S
H790 C814 0.950 . S
H791 C815 0.951 . S
H792 C817 0.951 . S
H793 C819 0.950 . S
H794 C820 0.950 . S
H795 C822 0.950 . S
H796 C825 0.950 . S
H797 C826 0.950 . S
H798 C828 0.950 . S
H799 C829 0.950 . S
C800 H782 0.951 . S
C800 C801 1.366 . S
C800 C802 1.388 . S
C801 C800 1.366 . S
C801 C805 1.385 . S
C802 H783 0.951 . S
C802 C800 1.388 . S
C802 C803 1.366 . S
C803 C802 1.366 . S
C803 C804 1.414 . S
C803 C806 1.499 . S
C804 H784 0.950 . S
C804 C803 1.414 . S
C804 C805 1.374 . S
C805 H785 0.950 . S
C805 C801 1.385 . S
C805 C804 1.374 . S
C806 C803 1.499 . S
C806 C807 1.373 . S
C806 C808 1.389 . S
C807 H786 0.950 . S
C807 C806 1.373 . S
C807 C823 1.377 1_545 S
C808 C806 1.389 . S
C808 C809 1.524 . S
C808 C822 1.377 1_545 S
C809 C808 1.524 . S
C809 C810 1.397 . S
C809 C814 1.363 . S
C810 H787 0.950 . S
C810 C809 1.397 . S
C810 C811 1.334 . S
C811 H788 0.950 . S
C811 C810 1.334 . S
C811 C812 1.287 . S
C812 C811 1.287 . S
C812 C813 1.524 . S
C812 H831 0.913 . S
C813 H789 0.950 . S
C813 C812 1.524 . S
C813 C814 1.415 . S
C814 H790 0.950 . S
C814 C809 1.363 . S
C814 C813 1.415 . S
C815 H791 0.951 . S
C815 C816 1.366 . S
C815 C817 1.388 . S
C816 C815 1.366 . S
C816 C820 1.385 . S
C817 H792 0.951 . S
C817 C815 1.388 . S
C817 C818 1.366 . S
C818 C817 1.366 . S
C818 C819 1.414 . S
C818 C821 1.499 . S
C819 H793 0.950 . S
C819 C818 1.414 . S
C819 C820 1.374 . S
C820 H794 0.950 . S
C820 C816 1.385 . S
C820 C819 1.374 . S
C821 C818 1.499 . S
C821 C822 1.373 . S
C821 C823 1.389 . S
C822 H795 0.950 . S
C822 C808 1.377 1_565 S
C822 C821 1.373 . S
C823 C807 1.377 1_565 S
C823 C821 1.389 . S
C823 C824 1.524 . S
C824 C823 1.524 . S
C824 C825 1.397 . S
C824 C829 1.363 . S
C825 H796 0.950 . S
C825 C824 1.397 . S
C825 C826 1.334 . S
C826 H797 0.950 . S
C826 C825 1.334 . S
C826 C827 1.287 . S
C827 C826 1.287 . S
C827 C828 1.524 . S
C827 H830 0.999 . S
C828 H798 0.950 . S
C828 C827 1.524 . S
C828 C829 1.415 . S
C829 H799 0.950 . S
C829 C824 1.363 . S
C829 C828 1.415 . S
H830 C827 0.999 . S
H831 C812 0.913 . S
H832 C850 0.951 . S
H833 C852 0.951 . S
H834 C854 0.950 . S
H835 C855 0.950 . S
H836 C857 0.950 . S
H837 C860 0.950 . S
H838 C861 0.950 . S
H839 C863 0.950 . S
H840 C864 0.950 . S
H841 C865 0.951 . S
H842 C867 0.951 . S
H843 C869 0.950 . S
H844 C870 0.950 . S
H845 C872 0.950 . S
H846 C875 0.950 . S
H847 C876 0.950 . S
H848 C878 0.950 . S
H849 C879 0.950 . S
C850 H832 0.951 . S
C850 C851 1.366 . S
C850 C852 1.388 . S
C851 C850 1.366 . S
C851 C855 1.385 . S
C852 H833 0.951 . S
C852 C850 1.388 . S
C852 C853 1.366 . S
C853 C852 1.366 . S
C853 C854 1.414 . S
C853 C856 1.499 . S
C854 H834 0.950 . S
C854 C853 1.414 . S
C854 C855 1.374 . S
C855 H835 0.950 . S
C855 C851 1.385 . S
C855 C854 1.374 . S
C856 C853 1.499 . S
C856 C857 1.373 . S
C856 C858 1.389 . S
C857 H836 0.950 . S
C857 C856 1.373 . S
C857 C873 1.377 . S
C858 C856 1.389 . S
C858 C859 1.524 . S
C858 C872 1.377 . S
C859 C858 1.524 . S
C859 C860 1.397 . S
C859 C864 1.363 . S
C860 H837 0.950 . S
C860 C859 1.397 . S
C860 C861 1.334 . S
C861 H838 0.950 . S
C861 C860 1.334 . S
C861 C862 1.287 . S
C862 C861 1.287 . S
C862 C863 1.524 . S
C862 H881 0.913 . S
C863 H839 0.950 . S
C863 C862 1.524 . S
C863 C864 1.415 . S
C864 H840 0.950 . S
C864 C859 1.363 . S
C864 C863 1.415 . S
C865 H841 0.951 . S
C865 C866 1.366 . S
C865 C867 1.388 . S
C866 C865 1.366 . S
C866 C870 1.385 . S
C867 H842 0.951 . S
C867 C865 1.388 . S
C867 C868 1.366 . S
C868 C867 1.366 . S
C868 C869 1.414 . S
C868 C871 1.499 . S
C869 H843 0.950 . S
C869 C868 1.414 . S
C869 C870 1.374 . S
C870 H844 0.950 . S
C870 C866 1.385 . S
C870 C869 1.374 . S
C871 C868 1.499 . S
C871 C872 1.373 . S
C871 C873 1.389 . S
C872 H845 0.950 . S
C872 C858 1.377 . S
C872 C871 1.373 . S
C873 C857 1.377 . S
C873 C871 1.389 . S
C873 C874 1.524 . S
C874 C873 1.524 . S
C874 C875 1.397 . S
C874 C879 1.363 . S
C875 H846 0.950 . S
C875 C874 1.397 . S
C875 C876 1.334 . S
C876 H847 0.950 . S
C876 C875 1.334 . S
C876 C877 1.287 . S
C877 C876 1.287 . S
C877 C878 1.524 . S
C877 H880 0.999 . S
C878 H848 0.950 . S
C878 C877 1.524 . S
C878 C879 1.415 . S
C879 H849 0.950 . S
C879 C874 1.363 . S
C879 C878 1.415 . S
H880 C877 0.999 . S
H881 C862 0.913 . S
H882 C900 0.951 . S
H883 C902 0.951 . S
H884 C904 0.950 . S
H885 C905 0.950 . S
H886 C907 0.950 . S
H887 C910 0.950 . S
H888 C911 0.950 . S
H889 C913 0.950 . S
H890 C914 0.950 . S
H891 C915 0.951 . S
H892 C917 0.951 . S
H893 C919 0.950 . S
H894 C920 0.950 . S
H895 C922 0.950 . S
H896 C925 0.950 . S
H897 C926 0.950 . S
H898 C928 0.950 . S
H899 C929 0.950 . S
C900 H882 0.951 . S
C900 C901 1.366 . S
C900 C902 1.388 . S
C901 C900 1.366 . S
C901 C905 1.385 . S
C902 H883 0.951 . S
C902 C900 1.388 . S
C902 C903 1.366 . S
C903 C902 1.366 . S
C903 C904 1.414 . S
C903 C906 1.499 . S
C904 H884 0.950 . S
C904 C903 1.414 . S
C904 C905 1.374 . S
C905 H885 0.950 . S
C905 C901 1.385 . S
C905 C904 1.374 . S
C906 C903 1.499 . S
C906 C907 1.373 . S
C906 C908 1.389 . S
C907 H886 0.950 . S
C907 C906 1.373 . S
C907 C923 1.377 1_655 S
C908 C906 1.389 . S
C908 C909 1.524 . S
C908 C922 1.377 1_655 S
C909 C908 1.524 . S
C909 C910 1.397 . S
C909 C914 1.363 . S
C910 H887 0.950 . S
C910 C909 1.397 . S
C910 C911 1.334 . S
C911 H888 0.950 . S
C911 C910 1.334 . S
C911 C912 1.287 . S
C912 C911 1.287 . S
C912 C913 1.524 . S
C912 H931 0.913 . S
C913 H889 0.950 . S
C913 C912 1.524 . S
C913 C914 1.415 . S
C914 H890 0.950 . S
C914 C909 1.363 . S
C914 C913 1.415 . S
C915 H891 0.951 . S
C915 C916 1.366 . S
C915 C917 1.388 . S
C916 C915 1.366 . S
C916 C920 1.385 . S
C917 H892 0.951 . S
C917 C915 1.388 . S
C917 C918 1.366 . S
C918 C917 1.366 . S
C918 C919 1.414 . S
C918 C921 1.499 . S
C919 H893 0.950 . S
C919 C918 1.414 . S
C919 C920 1.374 . S
C920 H894 0.950 . S
C920 C916 1.385 . S
C920 C919 1.374 . S
C921 C918 1.499 . S
C921 C922 1.373 . S
C921 C923 1.389 . S
C922 H895 0.950 . S
C922 C908 1.377 1_455 S
C922 C921 1.373 . S
C923 C907 1.377 1_455 S
C923 C921 1.389 . S
C923 C924 1.524 . S
C924 C923 1.524 . S
C924 C925 1.397 . S
C924 C929 1.363 . S
C925 H896 0.950 . S
C925 C924 1.397 . S
C925 C926 1.334 . S
C926 H897 0.950 . S
C926 C925 1.334 . S
C926 C927 1.287 . S
C927 C926 1.287 . S
C927 C928 1.524 . S
C927 H930 0.999 . S
C928 H898 0.950 . S
C928 C927 1.524 . S
C928 C929 1.415 . S
C929 H899 0.950 . S
C929 C924 1.363 . S
C929 C928 1.415 . S
H930 C927 0.999 . S
H931 C912 0.913 . S
H932 C950 0.951 . S
H933 C952 0.951 . S
H934 C954 0.950 . S
H935 C955 0.950 . S
H936 C957 0.950 . S
H937 C960 0.950 . S
H938 C961 0.950 . S
H939 C963 0.950 . S
H940 C964 0.950 . S
H941 C965 0.951 . S
H942 C967 0.951 . S
H943 C969 0.950 . S
H944 C970 0.950 . S
H945 C972 0.950 . S
H946 C975 0.950 . S
H947 C976 0.950 . S
H948 C978 0.950 . S
H949 C979 0.950 . S
C950 H932 0.951 . S
C950 C951 1.366 . S
C950 C952 1.388 . S
C951 C950 1.366 . S
C951 C955 1.385 . S
C952 H933 0.951 . S
C952 C950 1.388 . S
C952 C953 1.366 . S
C953 C952 1.366 . S
C953 C954 1.414 . S
C953 C956 1.499 . S
C954 H934 0.950 . S
C954 C953 1.414 . S
C954 C955 1.374 . S
C955 H935 0.950 . S
C955 C951 1.385 . S
C955 C954 1.374 . S
C956 C953 1.499 . S
C956 C957 1.373 . S
C956 C958 1.389 . S
C957 H936 0.950 . S
C957 C956 1.373 . S
C957 C973 1.377 1_545 S
C958 C956 1.389 . S
C958 C959 1.524 . S
C958 C972 1.377 1_545 S
C959 C958 1.524 . S
C959 C960 1.397 . S
C959 C964 1.363 . S
C960 H937 0.950 . S
C960 C959 1.397 . S
C960 C961 1.334 . S
C961 H938 0.950 . S
C961 C960 1.334 . S
C961 C962 1.287 . S
C962 C961 1.287 . S
C962 C963 1.524 . S
C962 H981 0.913 . S
C963 H939 0.950 . S
C963 C962 1.524 . S
C963 C964 1.415 . S
C964 H940 0.950 . S
C964 C959 1.363 . S
C964 C963 1.415 . S
C965 H941 0.951 . S
C965 C966 1.366 . S
C965 C967 1.388 . S
C966 C965 1.366 . S
C966 C970 1.385 . S
C967 H942 0.951 . S
C967 C965 1.388 . S
C967 C968 1.366 . S
C968 C967 1.366 . S
C968 C969 1.414 . S
C968 C971 1.499 . S
C969 H943 0.950 . S
C969 C968 1.414 . S
C969 C970 1.374 . S
C970 H944 0.950 . S
C970 C966 1.385 . S
C970 C969 1.374 . S
C971 C968 1.499 . S
C971 C972 1.373 . S
C971 C973 1.389 . S
C972 H945 0.950 . S
C972 C958 1.377 1_565 S
C972 C971 1.373 . S
C973 C957 1.377 1_565 S
C973 C971 1.389 . S
C973 C974 1.524 . S
C974 C973 1.524 . S
C974 C975 1.397 . S
C974 C979 1.363 . S
C975 H946 0.950 . S
C975 C974 1.397 . S
C975 C976 1.334 . S
C976 H947 0.950 . S
C976 C975 1.334 . S
C976 C977 1.287 . S
C977 C976 1.287 . S
C977 C978 1.524 . S
C977 H980 0.999 . S
C978 H948 0.950 . S
C978 C977 1.524 . S
C978 C979 1.415 . S
C979 H949 0.950 . S
C979 C974 1.363 . S
C979 C978 1.415 . S
H980 C977 0.999 . S
H981 C962 0.913 . S
H982 C1000 0.951 . S
H983 C1002 0.951 . S
H984 C1004 0.950 . S
H985 C1005 0.950 . S
H986 C1007 0.950 . S
H987 C1010 0.950 . S
H988 C1011 0.950 . S
H989 C1013 0.950 . S
H990 C1014 0.950 . S
H991 C1015 0.951 . S
H992 C1017 0.951 . S
H993 C1019 0.950 . S
H994 C1020 0.950 . S
H995 C1022 0.950 . S
H996 C1025 0.950 . S
H997 C1026 0.950 . S
H998 C1028 0.950 . S
H999 C1029 0.950 . S
C1000 H982 0.951 . S
C1000 C1001 1.366 . S
C1000 C1002 1.388 . S
C1001 C1000 1.366 . S
C1001 C1005 1.385 . S
C1002 H983 0.951 . S
C1002 C1000 1.388 . S
C1002 C1003 1.366 . S
C1003 C1002 1.366 . S
C1003 C1004 1.414 . S
C1003 C1006 1.499 . S
C1004 H984 0.950 . S
C1004 C1003 1.414 . S
C1004 C1005 1.374 . S
C1005 H985 0.950 . S
C1005 C1001 1.385 . S
C1005 C1004 1.374 . S
C1006 C1003 1.499 . S
C1006 C1007 1.373 . S
C1006 C1008 1.389 . S
C1007 H986 0.950 . S
C1007 C1006 1.373 . S
C1007 C1023 1.377 . S
C1008 C1006 1.389 . S
C1008 C1009 1.524 . S
C1008 C1022 1.377 . S
C1009 C1008 1.524 . S
C1009 C1010 1.397 . S
C1009 C1014 1.363 . S
C1010 H987 0.950 . S
C1010 C1009 1.397 . S
C1010 C1011 1.334 . S
C1011 H988 0.950 . S
C1011 C1010 1.334 . S
C1011 C1012 1.287 . S
C1012 C1011 1.287 . S
C1012 C1013 1.524 . S
C1012 H1031 0.913 . S
C1013 H989 0.950 . S
C1013 C1012 1.524 . S
C1013 C1014 1.415 . S
C1014 H990 0.950 . S
C1014 C1009 1.363 . S
C1014 C1013 1.415 . S
C1015 H991 0.951 . S
C1015 C1016 1.366 . S
C1015 C1017 1.388 . S
C1016 C1015 1.366 . S
C1016 C1020 1.385 . S
C1017 H992 0.951 . S
C1017 C1015 1.388 . S
C1017 C1018 1.366 . S
C1018 C1017 1.366 . S
C1018 C1019 1.414 . S
C1018 C1021 1.499 . S
C1019 H993 0.950 . S
C1019 C1018 1.414 . S
C1019 C1020 1.374 . S
C1020 H994 0.950 . S
C1020 C1016 1.385 . S
C1020 C1019 1.374 . S
C1021 C1018 1.499 . S
C1021 C1022 1.373 . S
C1021 C1023 1.389 . S
C1022 H995 0.950 . S
C1022 C1008 1.377 . S
C1022 C1021 1.373 . S
C1023 C1007 1.377 . S
C1023 C1021 1.389 . S
C1023 C1024 1.524 . S
C1024 C1023 1.524 . S
C1024 C1025 1.397 . S
C1024 C1029 1.363 . S
C1025 H996 0.950 . S
C1025 C1024 1.397 . S
C1025 C1026 1.334 . S
C1026 H997 0.950 . S
C1026 C1025 1.334 . S
C1026 C1027 1.287 . S
C1027 C1026 1.287 . S
C1027 C1028 1.524 . S
C1027 H1030 0.999 . S
C1028 H998 0.950 . S
C1028 C1027 1.524 . S
C1028 C1029 1.415 . S
C1029 H999 0.950 . S
C1029 C1024 1.363 . S
C1029 C1028 1.415 . S
H1030 C1027 0.999 . S
H1031 C1012 0.913 . S
C151 C118 1.591 . S
C166 C8 1.590 . S
C201 C19 1.591 . S
C216 C129 1.591 . S
C251 C74 1.590 . S
C266 C30 1.590 . S
C301 C85 1.590 . S
C316 C41 1.590 . S
C351 C96 1.590 . S
C366 C52 1.590 . S
C401 C63 1.590 . S
C416 C107 1.590 . S
C451 C95 1.605 . S
C466 C7 1.605 . S
C501 C106 1.605 . S
C516 C18 1.606 . S
C551 C29 1.606 . S
C566 C117 1.606 . S
C601 C128 1.605 . S
C616 C40 1.605 . S
C651 C73 1.605 . S
C666 C51 1.605 . S
C701 C84 1.605 . S
C716 C62 1.605 . S
C751 C5 1.406 . S
C766 C126 1.406 . S
C801 C16 1.404 . S
C816 C71 1.404 . S
C851 C27 1.404 . S
C866 C82 1.404 . S
C901 C38 1.405 . S
C916 C93 1.405 . S
C951 C104 1.404 . S
C966 C49 1.405 . S
C1001 C60 1.406 . S
C1016 C115 1.405 . S
