# Generated by pormake.
# Topology wif, (6)-cn, num edge types: 1
# Building blocks:
#     Node 0, Type 0, BuildingBlock: IZENUY_clean_sbu_0, # of connection points: 6
#     Node 1, Type 0, BuildingBlock: IZENUY_clean_sbu_0, # of connection points: 6
#     Node 2, Type 0, BuildingBlock: IZENUY_clean_sbu_0, # of connection points: 6
#     Node 3, Type 0, BuildingBlock: IZENUY_clean_sbu_0, # of connection points: 6
#     Node 4, Type 0, BuildingBlock: IZENUY_clean_sbu_0, # of connection points: 6
#     Node 5, Type 0, BuildingBlock: IZENUY_clean_sbu_0, # of connection points: 6
#     Node 6, Type 0, BuildingBlock: IZENUY_clean_sbu_0, # of connection points: 6
#     Node 7, Type 0, BuildingBlock: IZENUY_clean_sbu_0, # of connection points: 6
#     Node 8, Type 0, BuildingBlock: IZENUY_clean_sbu_0, # of connection points: 6
#     Node 9, Type 0, BuildingBlock: IZENUY_clean_sbu_0, # of connection points: 6
#     Node 10, Type 0, BuildingBlock: IZENUY_clean_sbu_0, # of connection points: 6
#     Node 11, Type 0, BuildingBlock: IZENUY_clean_sbu_0, # of connection points: 6
#     Node 12, Type 0, BuildingBlock: IZENUY_clean_sbu_0, # of connection points: 6
#     Node 13, Type 0, BuildingBlock: IZENUY_clean_sbu_0, # of connection points: 6
#     Node 14, Type 0, BuildingBlock: IZENUY_clean_sbu_0, # of connection points: 6
#     Node 15, Type 0, BuildingBlock: IZENUY_clean_sbu_0, # of connection points: 6
#     Edge 16, Type (0, 0), BuildingBlock: UVAHIK_clean_linker_0, # of connection points: 2
#     Edge 17, Type (0, 0), BuildingBlock: UVAHIK_clean_linker_0, # of connection points: 2
#     Edge 18, Type (0, 0), BuildingBlock: UVAHIK_clean_linker_0, # of connection points: 2
#     Edge 19, Type (0, 0), BuildingBlock: UVAHIK_clean_linker_0, # of connection points: 2
#     Edge 20, Type (0, 0), BuildingBlock: UVAHIK_clean_linker_0, # of connection points: 2
#     Edge 21, Type (0, 0), BuildingBlock: UVAHIK_clean_linker_0, # of connection points: 2
#     Edge 22, Type (0, 0), BuildingBlock: UVAHIK_clean_linker_0, # of connection points: 2
#     Edge 23, Type (0, 0), BuildingBlock: UVAHIK_clean_linker_0, # of connection points: 2
#     Edge 24, Type (0, 0), BuildingBlock: UVAHIK_clean_linker_0, # of connection points: 2
#     Edge 25, Type (0, 0), BuildingBlock: UVAHIK_clean_linker_0, # of connection points: 2
#     Edge 26, Type (0, 0), BuildingBlock: UVAHIK_clean_linker_0, # of connection points: 2
#     Edge 27, Type (0, 0), BuildingBlock: UVAHIK_clean_linker_0, # of connection points: 2
#     Edge 28, Type (0, 0), BuildingBlock: UVAHIK_clean_linker_0, # of connection points: 2
#     Edge 29, Type (0, 0), BuildingBlock: UVAHIK_clean_linker_0, # of connection points: 2
#     Edge 30, Type (0, 0), BuildingBlock: UVAHIK_clean_linker_0, # of connection points: 2
#     Edge 31, Type (0, 0), BuildingBlock: UVAHIK_clean_linker_0, # of connection points: 2
#     Edge 32, Type (0, 0), BuildingBlock: UVAHIK_clean_linker_0, # of connection points: 2
#     Edge 33, Type (0, 0), BuildingBlock: UVAHIK_clean_linker_0, # of connection points: 2
#     Edge 34, Type (0, 0), BuildingBlock: UVAHIK_clean_linker_0, # of connection points: 2
#     Edge 35, Type (0, 0), BuildingBlock: UVAHIK_clean_linker_0, # of connection points: 2
#     Edge 36, Type (0, 0), BuildingBlock: UVAHIK_clean_linker_0, # of connection points: 2
#     Edge 37, Type (0, 0), BuildingBlock: UVAHIK_clean_linker_0, # of connection points: 2
#     Edge 38, Type (0, 0), BuildingBlock: UVAHIK_clean_linker_0, # of connection points: 2
#     Edge 39, Type (0, 0), BuildingBlock: UVAHIK_clean_linker_0, # of connection points: 2
#     Edge 40, Type (0, 0), BuildingBlock: UVAHIK_clean_linker_0, # of connection points: 2
#     Edge 41, Type (0, 0), BuildingBlock: UVAHIK_clean_linker_0, # of connection points: 2
#     Edge 42, Type (0, 0), BuildingBlock: UVAHIK_clean_linker_0, # of connection points: 2
#     Edge 43, Type (0, 0), BuildingBlock: UVAHIK_clean_linker_0, # of connection points: 2
#     Edge 44, Type (0, 0), BuildingBlock: UVAHIK_clean_linker_0, # of connection points: 2
#     Edge 45, Type (0, 0), BuildingBlock: UVAHIK_clean_linker_0, # of connection points: 2
#     Edge 46, Type (0, 0), BuildingBlock: UVAHIK_clean_linker_0, # of connection points: 2
#     Edge 47, Type (0, 0), BuildingBlock: UVAHIK_clean_linker_0, # of connection points: 2
#     Edge 48, Type (0, 0), BuildingBlock: UVAHIK_clean_linker_0, # of connection points: 2
#     Edge 49, Type (0, 0), BuildingBlock: UVAHIK_clean_linker_0, # of connection points: 2
#     Edge 50, Type (0, 0), BuildingBlock: UVAHIK_clean_linker_0, # of connection points: 2
#     Edge 51, Type (0, 0), BuildingBlock: UVAHIK_clean_linker_0, # of connection points: 2
#     Edge 52, Type (0, 0), BuildingBlock: UVAHIK_clean_linker_0, # of connection points: 2
#     Edge 53, Type (0, 0), BuildingBlock: UVAHIK_clean_linker_0, # of connection points: 2
#     Edge 54, Type (0, 0), BuildingBlock: UVAHIK_clean_linker_0, # of connection points: 2
#     Edge 55, Type (0, 0), BuildingBlock: UVAHIK_clean_linker_0, # of connection points: 2
#     Edge 56, Type (0, 0), BuildingBlock: UVAHIK_clean_linker_0, # of connection points: 2
#     Edge 57, Type (0, 0), BuildingBlock: UVAHIK_clean_linker_0, # of connection points: 2
#     Edge 58, Type (0, 0), BuildingBlock: UVAHIK_clean_linker_0, # of connection points: 2
#     Edge 59, Type (0, 0), BuildingBlock: UVAHIK_clean_linker_0, # of connection points: 2
#     Edge 60, Type (0, 0), BuildingBlock: UVAHIK_clean_linker_0, # of connection points: 2
#     Edge 61, Type (0, 0), BuildingBlock: UVAHIK_clean_linker_0, # of connection points: 2
#     Edge 62, Type (0, 0), BuildingBlock: UVAHIK_clean_linker_0, # of connection points: 2
#     Edge 63, Type (0, 0), BuildingBlock: UVAHIK_clean_linker_0, # of connection points: 2
# Relax obj value: 0.830
# Max RMSD: 0.279
# Mean RMSD: 0.279
data_MOF--net-wif--node1-IZENUY_clean_sbu_0--edge1-UVAHIK_clean_linker_0
_symmetry_space_group_name_H-M    P1
_symmetry_Int_Tables_number       1
_symmetry_cell_setting            triclinic
loop_
_symmetry_equiv_pos_as_xyz
'x, y, z'
_cell_length_a     44.275524
_cell_length_b     44.340291
_cell_length_c     37.30613
_cell_angle_alpha  89.968451
_cell_angle_beta   90.00154
_cell_angle_gamma 90.019564
loop_
_atom_site_label
_atom_site_type_symbol
_atom_site_fract_x
_atom_site_fract_y
_atom_site_fract_z
_atom_type_partial_charge
Fe0 Fe 0.26396 0.0533 0.10682 0.0
Fe1 Fe 0.28698 0.0163 0.04245 0.0
O2 O 0.28407 0.0513 0.06583 0.0
Fe3 Fe 0.30203 0.08392 0.04856 0.0
O4 O 0.32463 0.08914 0.08846 0.0
O5 O 0.288 0.0822 0.12729 0.0
O6 O 0.28882 0.02574 0.12688 0.0
C7 C 0.29408 0.99975 0.11477 0.0
C8 C 0.24647 0.10661 0.07676 0.0
O9 O 0.28648 0.99275 0.08311 0.0
C10 C 0.28614 0.06045 0.98543 0.0
O11 O 0.23641 0.02434 0.09409 0.0
O12 O 0.24588 0.01268 0.03772 0.0
O13 O 0.27298 0.1101 0.06466 0.0
O14 O 0.23805 0.08171 0.08989 0.0
C15 C 0.34498 0.03745 0.03717 0.0
O16 O 0.29021 0.03371 0.99695 0.0
O17 O 0.28056 0.08095 0.00764 0.0
C18 C 0.22857 0.01183 0.06494 0.0
O19 O 0.32756 0.0166 0.04708 0.0
O20 O 0.33484 0.06349 0.0299 0.0
C21 C 0.31445 0.09093 0.11988 0.0
Fe22 Fe 0.01614 0.72775 0.95931 0.0
Fe23 Fe 0.05248 0.7553 0.89689 0.0
O24 O 0.05068 0.73189 0.93533 0.0
Fe25 Fe 0.08313 0.71178 0.94928 0.0
O26 O 0.0622 0.67832 0.96527 0.0
O27 O 0.01529 0.68792 0.94996 0.0
O28 O 0.99169 0.73217 0.91959 0.0
C29 C 0.99778 0.7279 0.88678 0.0
C30 C 0.0617 0.72364 0.0148 0.0
O31 O 0.02384 0.73316 0.87476 0.0
C32 C 0.10694 0.76861 0.92656 0.0
O33 O 0.01373 0.76809 0.9689 0.0
O34 O 0.0244 0.78233 0.91367 0.0
O35 O 0.08208 0.72987 0.99255 0.0
O36 O 0.03462 0.72061 0.00371 0.0
C37 C 0.08795 0.7049 0.87672 0.0
O38 O 0.08181 0.77881 0.91613 0.0
O39 O 0.10988 0.74111 0.93518 0.0
C40 C 0.0124 0.78756 0.94393 0.0
O41 O 0.08038 0.73222 0.87268 0.0
O42 O 0.08622 0.69238 0.90693 0.0
C43 C 0.03583 0.66938 0.95744 0.0
Fe44 Fe 0.74929 0.95572 0.10237 0.0
Fe45 Fe 0.72013 0.99176 0.04061 0.0
O46 O 0.72553 0.95725 0.06418 0.0
Fe47 Fe 0.70624 0.92438 0.0502 0.0
O48 O 0.68682 0.92105 0.09268 0.0
O49 O 0.72711 0.92688 0.12621 0.0
O50 O 0.7264 0.98341 0.12507 0.0
C51 C 0.71991 0.00929 0.11346 0.0
C52 C 0.76385 0.90202 0.07199 0.0
O53 O 0.72365 0.01592 0.08068 0.0
C54 C 0.71797 0.94638 0.98484 0.0
O55 O 0.77547 0.98476 0.08587 0.0
O56 O 0.76041 0.99581 0.03103 0.0
O57 O 0.73622 0.89836 0.06432 0.0
O58 O 0.77357 0.92728 0.08252 0.0
C59 C 0.6623 0.9702 0.0412 0.0
O60 O 0.71393 0.97328 0.99605 0.0
O61 O 0.72446 0.92602 0.00702 0.0
C62 C 0.78012 0.99717 0.05571 0.0
O63 O 0.68002 0.99119 0.04972 0.0
O64 O 0.67231 0.9442 0.03378 0.0
C65 C 0.69969 0.91931 0.12272 0.0
Fe66 Fe 0.98963 0.29899 0.97467 0.0
Fe67 Fe 0.96626 0.2667 0.90675 0.0
O68 O 0.95971 0.29013 0.9446 0.0
Fe69 Fe 0.92335 0.30584 0.95136 0.0
O70 O 0.93816 0.34392 0.94739 0.0
O71 O 0.97646 0.3373 0.98403 0.0
O72 O 0.01182 0.31547 0.9387 0.0
C73 C 0.01861 0.30296 0.90949 0.0
C74 C 0.94347 0.29502 0.023 0.0
O75 O 0.00528 0.27918 0.89948 0.0
C76 C 0.90688 0.24973 0.92995 0.0
O77 O 0.00888 0.26215 0.96926 0.0
O78 O 0.97864 0.23555 0.93481 0.0
O79 O 0.92629 0.30696 1.00003 0.0
O80 O 0.96909 0.28462 0.01385 0.0
C81 C 0.93036 0.31037 0.87683 0.0
O82 O 0.92802 0.25033 0.90693 0.0
O83 O 0.90628 0.26872 0.9552 0.0
C84 C 1.0018 0.23722 0.95455 0.0
O85 O 0.95509 0.29637 0.87561 0.0
O86 O 0.91351 0.30832 0.90397 0.0
C87 C 0.95952 0.3545 0.96594 0.0
Fe88 Fe 0.30097 0.42591 0.21015 0.0
Fe89 Fe 0.26238 0.45476 0.1513 0.0
O90 O 0.28276 0.45798 0.19198 0.0
Fe91 Fe 0.28573 0.4936 0.21392 0.0
O92 O 0.32639 0.49339 0.20933 0.0
O93 O 0.3338 0.44682 0.22759 0.0
O94 O 0.32329 0.42015 0.17015 0.0
C95 C 0.31288 0.41715 0.13899 0.0
C96 C 0.28559 0.45103 0.2726 0.0
O97 O 0.28613 0.42505 0.13182 0.0
C98 C 0.22728 0.49752 0.1916 0.0
O99 O 0.27186 0.39921 0.19516 0.0
O100 O 0.23655 0.42701 0.16987 0.0
O101 O 0.28913 0.47745 0.25988 0.0
O102 O 0.27996 0.42972 0.25142 0.0
C103 C 0.29253 0.508 0.1409 0.0
O104 O 0.23499 0.48422 0.1629 0.0
O105 O 0.24465 0.49722 0.21876 0.0
C106 C 0.24522 0.40224 0.18318 0.0
O107 O 0.28727 0.48164 0.12988 0.0
O108 O 0.28498 0.51589 0.17228 0.0
C109 C 0.34387 0.47274 0.21971 0.0
Fe110 Fe 0.46145 0.74778 0.84961 0.0
Fe111 Fe 0.42185 0.70496 0.80597 0.0
O112 O 0.45714 0.72282 0.81281 0.0
Fe113 Fe 0.48809 0.71483 0.78379 0.0
O114 O 0.5108 0.70108 0.821 0.0
O115 O 0.50075 0.73773 0.85874 0.0
O116 O 0.45111 0.71872 0.88194 0.0
C117 C 0.42636 0.70478 0.88125 0.0
C118 C 0.49646 0.77773 0.80173 0.0
O119 O 0.41069 0.70417 0.85307 0.0
C120 C 0.44225 0.71463 0.73452 0.0
O121 O 0.42248 0.76217 0.84725 0.0
O122 O 0.40306 0.74094 0.79922 0.0
O123 O 0.50521 0.75301 0.78777 0.0
O124 O 0.47266 0.7784 0.82036 0.0
C125 C 0.46081 0.65789 0.79486 0.0
O126 O 0.42585 0.70198 0.75771 0.0
O127 O 0.46732 0.72654 0.74332 0.0
C128 C 0.40228 0.76111 0.82312 0.0
O129 O 0.43867 0.66796 0.81259 0.0
O130 O 0.4772 0.67541 0.77632 0.0
C131 C 0.51588 0.71472 0.85004 0.0
Fe132 Fe 0.70549 0.58584 0.20153 0.0
Fe133 Fe 0.75001 0.55502 0.15033 0.0
O134 O 0.72524 0.5531 0.18764 0.0
Fe135 Fe 0.71951 0.51827 0.2105 0.0
O136 O 0.67961 0.51865 0.20027 0.0
O137 O 0.6711 0.56568 0.21573 0.0
O138 O 0.68745 0.59009 0.15834 0.0
C139 C 0.70102 0.59181 0.12875 0.0
C140 C 0.71546 0.56266 0.26699 0.0
O141 O 0.72834 0.58378 0.12589 0.0
C142 C 0.7798 0.51315 0.19745 0.0
O143 O 0.73589 0.61204 0.1893 0.0
O144 O 0.77359 0.58347 0.17137 0.0
O145 O 0.7121 0.53601 0.2549 0.0
O146 O 0.7221 0.58369 0.24575 0.0
C147 C 0.72155 0.50128 0.13747 0.0
O148 O 0.77594 0.526 0.1674 0.0
O149 O 0.75953 0.51447 0.22147 0.0
C150 C 0.7636 0.60867 0.18178 0.0
O151 O 0.72796 0.52734 0.12638 0.0
O152 O 0.72421 0.49455 0.17034 0.0
C153 C 0.66152 0.53951 0.2082 0.0
Fe154 Fe 0.55804 0.2565 0.85477 0.0
Fe155 Fe 0.58392 0.29965 0.79851 0.0
O156 O 0.55292 0.2795 0.81645 0.0
Fe157 Fe 0.51651 0.28319 0.79663 0.0
O158 O 0.49559 0.27898 0.83909 0.0
O159 O 0.53136 0.27885 0.87987 0.0
O160 O 0.58783 0.27979 0.8751 0.0
C161 C 0.59479 0.30715 0.87004 0.0
C162 C 0.51435 0.2235 0.81315 0.0
O163 O 0.59035 0.31948 0.8401 0.0
C164 C 0.55715 0.28714 0.73608 0.0
O165 O 0.58571 0.23289 0.83248 0.0
O166 O 0.61189 0.27057 0.80983 0.0
O167 O 0.51357 0.24267 0.78781 0.0
O168 O 0.52875 0.22928 0.84179 0.0
C169 C 0.53589 0.34179 0.79535 0.0
O170 O 0.57934 0.28108 0.75579 0.0
O171 O 0.53115 0.29009 0.75035 0.0
C172 C 0.60986 0.24316 0.81921 0.0
O173 O 0.56157 0.33286 0.78469 0.0
O174 O 0.51618 0.32319 0.8055 0.0
C175 C 0.50441 0.28389 0.87089 0.0
Fe176 Fe 0.78341 0.51575 0.54553 0.0
Fe177 Fe 0.79867 0.58313 0.55219 0.0
O178 O 0.77912 0.55093 0.56798 0.0
Fe179 Fe 0.75626 0.55349 0.60687 0.0
O180 O 0.7795 0.52593 0.62973 0.0
O181 O 0.7797 0.49263 0.58625 0.0
O182 O 0.82342 0.51566 0.55433 0.0
C183 C 0.8417 0.53619 0.54593 0.0
C184 C 0.72369 0.51207 0.56192 0.0
O185 O 0.83239 0.56217 0.53701 0.0
C186 C 0.74163 0.6068 0.57508 0.0
O187 O 0.78998 0.53272 0.50041 0.0
O188 O 0.78034 0.5804 0.50902 0.0
O189 O 0.72939 0.52453 0.5918 0.0
O190 O 0.74294 0.51262 0.53664 0.0
C191 C 0.80615 0.59075 0.6244 0.0
O192 O 0.76893 0.60979 0.56535 0.0
O193 O 0.73195 0.58188 0.5869 0.0
C194 C 0.78657 0.55923 0.4879 0.0
O195 O 0.81842 0.58797 0.59416 0.0
O196 O 0.77907 0.58259 0.62929 0.0
C197 C 0.78555 0.49987 0.61834 0.0
Fe198 Fe 0.51803 0.22725 0.45794 0.0
Fe199 Fe 0.55859 0.25476 0.39941 0.0
O200 O 0.55412 0.23135 0.43752 0.0
Fe201 Fe 0.58535 0.21105 0.4545 0.0
O202 O 0.56322 0.17765 0.46825 0.0
O203 O 0.51762 0.18739 0.44819 0.0
O204 O 0.49644 0.23221 0.41608 0.0
C205 C 0.50492 0.2271 0.38423 0.0
C206 C 0.55943 0.22278 0.51766 0.0
O207 O 0.53165 0.23236 0.37464 0.0
C208 C 0.61087 0.26785 0.43417 0.0
O209 O 0.51539 0.26745 0.46771 0.0
O210 O 0.52936 0.28185 0.41357 0.0
O211 O 0.58143 0.22902 0.4977 0.0
O212 O 0.53331 0.21974 0.50374 0.0
C213 C 0.5948 0.20421 0.3825 0.0
O214 O 0.58657 0.27822 0.42139 0.0
O215 O 0.61308 0.24033 0.44304 0.0
C216 C 0.51564 0.28703 0.44286 0.0
O217 O 0.58812 0.23172 0.37801 0.0
O218 O 0.59102 0.19173 0.41246 0.0
C219 C 0.53749 0.16876 0.45773 0.0
Fe220 Fe 0.24815 0.46404 0.60106 0.0
Fe221 Fe 0.21514 0.49004 0.53485 0.0
O222 O 0.22318 0.4594 0.56422 0.0
Fe223 Fe 0.20524 0.42411 0.55776 0.0
O224 O 0.20423 0.41344 0.60508 0.0
O225 O 0.219 0.45396 0.6334 0.0
O226 O 0.23797 0.50335 0.60971 0.0
C227 C 0.21476 0.51815 0.60083 0.0
C228 C 0.26125 0.40452 0.57554 0.0
O229 O 0.20128 0.5129 0.57174 0.0
C230 C 0.21478 0.44408 0.48599 0.0
O231 O 0.27895 0.47523 0.57186 0.0
O232 O 0.25329 0.50718 0.53863 0.0
O233 O 0.24125 0.40533 0.5514 0.0
O234 O 0.26253 0.42504 0.59925 0.0
C235 C 0.15816 0.4629 0.54605 0.0
O236 O 0.22693 0.46901 0.49473 0.0
O237 O 0.20228 0.42771 0.50933 0.0
C238 C 0.2781 0.49872 0.55268 0.0
O239 O 0.17572 0.47911 0.5274 0.0
O240 O 0.16819 0.44092 0.56404 0.0
C241 C 0.20459 0.42949 0.63297 0.0
Fe242 Fe 0.48976 0.7965 0.4714 0.0
Fe243 Fe 0.46382 0.76244 0.40614 0.0
O244 O 0.459 0.78784 0.44255 0.0
Fe245 Fe 0.42357 0.80548 0.44911 0.0
O246 O 0.43997 0.84269 0.44273 0.0
O247 O 0.47847 0.83572 0.47897 0.0
O248 O 0.51195 0.81047 0.43396 0.0
C249 C 0.51787 0.79614 0.40566 0.0
C250 C 0.4442 0.7962 0.52076 0.0
O251 O 0.50332 0.77259 0.39747 0.0
C252 C 0.40432 0.74922 0.43164 0.0
O253 O 0.50731 0.75868 0.4676 0.0
O254 O 0.47495 0.7321 0.43606 0.0
O255 O 0.42732 0.80832 0.49759 0.0
O256 O 0.46929 0.78453 0.51175 0.0
C257 C 0.42979 0.8065 0.37424 0.0
O258 O 0.42482 0.74803 0.40789 0.0
O259 O 0.40493 0.76938 0.45554 0.0
C260 C 0.49875 0.73351 0.4547 0.0
O261 O 0.45374 0.79121 0.37345 0.0
O262 O 0.4132 0.80649 0.40174 0.0
C263 C 0.46192 0.85303 0.4605 0.0
Fe264 Fe 0.75579 0.95523 0.64831 0.0
Fe265 Fe 0.7833 0.99353 0.70895 0.0
O266 O 0.77885 0.95813 0.68703 0.0
Fe267 Fe 0.79844 0.92611 0.70319 0.0
O268 O 0.8179 0.92071 0.66115 0.0
O269 O 0.77846 0.92592 0.62612 0.0
O270 O 0.77894 0.9826 0.62493 0.0
C271 C 0.785 0.00877 0.63597 0.0
C272 C 0.74121 0.90234 0.68128 0.0
O273 O 0.77925 0.01627 0.66798 0.0
C274 C 0.78677 0.95073 0.7672 0.0
O275 O 0.72902 0.98433 0.66329 0.0
O276 O 0.74292 0.99662 0.71822 0.0
O277 O 0.76854 0.89937 0.69081 0.0
O278 O 0.73155 0.927 0.6687 0.0
C279 C 0.84154 0.97312 0.70815 0.0
O280 O 0.79024 0.97707 0.75424 0.0
O281 O 0.78037 0.92935 0.74647 0.0
C282 C 0.72353 0.99702 0.69311 0.0
O283 O 0.82319 0.99355 0.69968 0.0
O284 O 0.83229 0.94725 0.71767 0.0
C285 C 0.80549 0.91765 0.63104 0.0
Fe286 Fe 0.98996 0.21058 0.28004 0.0
Fe287 Fe 0.96652 0.24247 0.34821 0.0
O288 O 0.95996 0.21946 0.30998 0.0
Fe289 Fe 0.92348 0.20416 0.30276 0.0
O290 O 0.9379 0.16591 0.30649 0.0
O291 O 0.97646 0.17245 0.27019 0.0
O292 O 0.01181 0.19361 0.31596 0.0
C293 C 0.01846 0.2057 0.34547 0.0
C294 C 0.94413 0.21516 0.23135 0.0
O295 O 0.00533 0.2295 0.35569 0.0
C296 C 0.90751 0.26029 0.3246 0.0
O297 O 0.00956 0.24725 0.28602 0.0
O298 O 0.97944 0.27376 0.32071 0.0
O299 O 0.92668 0.20335 0.25414 0.0
O300 O 0.96976 0.22538 0.24082 0.0
C301 C 0.92991 0.19893 0.37727 0.0
O302 O 0.92847 0.25926 0.34783 0.0
O303 O 0.90683 0.24147 0.29916 0.0
C304 C 1.00266 0.27209 0.30107 0.0
O305 O 0.95481 0.21263 0.37886 0.0
O306 O 0.91326 0.20145 0.35003 0.0
C307 C 0.95928 0.15527 0.28803 0.0
Fe308 Fe 0.24784 0.04473 0.65436 0.0
Fe309 Fe 0.21372 0.02048 0.72064 0.0
O310 O 0.22263 0.05049 0.69076 0.0
Fe311 Fe 0.20528 0.08619 0.69629 0.0
O312 O 0.20465 0.09599 0.64873 0.0
O313 O 0.21911 0.05484 0.62147 0.0
O314 O 0.23692 0.00549 0.64651 0.0
C315 C 0.2134 0.99119 0.65545 0.0
C316 C 0.26172 0.1046 0.67834 0.0
O317 O 0.19959 0.99736 0.68408 0.0
C318 C 0.2142 0.06705 0.76855 0.0
O319 O 0.27829 0.03334 0.68414 0.0
O320 O 0.25135 1.00258 0.7175 0.0
O321 O 0.24156 0.10455 0.70234 0.0
O322 O 0.26296 0.08345 0.65542 0.0
C323 C 0.15741 0.04842 0.70856 0.0
O324 O 0.22585 0.04179 0.76031 0.0
O325 O 0.20214 0.0834 0.74485 0.0
C326 C 0.27656 0.01021 0.70388 0.0
O327 O 0.1746 0.0323 0.72771 0.0
O328 O 0.1679 0.06994 0.69015 0.0
C329 C 0.20485 0.07941 0.62129 0.0
Fe330 Fe 0.08365 0.79828 0.30886 0.0
Fe331 Fe 0.01679 0.78213 0.29757 0.0
O332 O 0.05116 0.77771 0.32185 0.0
Fe333 Fe 0.05277 0.75356 0.35968 0.0
O334 O 0.08037 0.77625 0.38472 0.0
O335 O 0.08631 0.8169 0.35183 0.0
O336 O 0.06277 0.83186 0.29335 0.0
C337 C 0.03624 0.84059 0.30071 0.0
C338 C 0.10755 0.74114 0.3302 0.0
O339 O 0.01572 0.82187 0.30766 0.0
C340 C 0.01295 0.72206 0.31162 0.0
O341 O 0.08313 0.78103 0.26508 0.0
O342 O 0.03561 0.78988 0.25354 0.0
O343 O 0.08241 0.73056 0.34013 0.0
O344 O 0.1104 0.76884 0.3225 0.0
C345 C 0.9979 0.78066 0.36992 0.0
O346 O 0.01444 0.74192 0.28711 0.0
O347 O 0.0249 0.72674 0.34201 0.0
C348 C 0.0628 0.78716 0.24272 0.0
O349 O 0.99208 0.77708 0.33692 0.0
O350 O 0.02386 0.77515 0.38211 0.0
C351 C 0.08784 0.80367 0.38164 0.0
C352 C 0.0544 0.82314 0.19084 0.0
C353 C 0.07295 0.80221 0.20877 0.0
C354 C 0.06664 0.84333 0.16552 0.0
C355 C 0.10062 0.89761 0.13553 0.0
H356 H 0.17552 0.88169 0.08531 0.0
C357 C 0.18143 0.99384 0.09508 0.0
C358 C 0.20267 0.99021 0.06733 0.0
C359 C 0.16162 0.97055 0.10458 0.0
C360 C 0.15434 0.88666 0.09852 0.0
H361 H 0.11868 0.78488 0.21168 0.0
H362 H 0.13989 0.81992 0.16883 0.0
H363 H 0.14837 0.84042 0.11346 0.0
H364 H 0.21813 0.95941 0.02624 0.0
H365 H 0.18266 0.919 0.04176 0.0
H366 H 0.10604 0.94364 0.11964 0.0
C367 C 0.11581 0.82087 0.17362 0.0
C368 C 0.13888 0.86284 0.11539 0.0
C369 C 0.10355 0.80059 0.19855 0.0
C370 C 0.20198 0.96319 0.04756 0.0
C371 C 0.1819 0.93975 0.05699 0.0
C372 C 0.11581 0.92131 0.11821 0.0
C373 C 0.09785 0.84336 0.15752 0.0
C374 C 0.11218 0.86798 0.13516 0.0
C375 C 0.16203 0.94268 0.08647 0.0
C376 C 0.14348 0.91651 0.10033 0.0
H377 H 0.03078 0.82527 0.19794 0.0
H378 H 0.05168 0.85959 0.15317 0.0
H379 H 0.08037 0.90297 0.15045 0.0
H380 H 0.18126 0.01424 0.11105 0.0
H381 H 0.14723 0.97402 0.12765 0.0
C382 C 0.7948 0.91593 0.81961 0.0
C383 C 0.80281 0.94232 0.80096 0.0
C384 C 0.81455 0.90295 0.84473 0.0
C385 C 0.88996 0.91427 0.89162 0.0
H386 H 0.8898 0.82686 0.89194 0.0
C387 C 0.99384 0.83848 0.925 0.0
C388 C 0.98904 0.81172 0.94451 0.0
C389 C 0.96962 0.85739 0.91581 0.0
C390 C 0.88995 0.85128 0.89264 0.0
H391 H 0.83768 0.9763 0.79537 0.0
H392 H 0.87232 0.95344 0.83776 0.0
H393 H 0.85022 0.85389 0.86041 0.0
H394 H 0.95493 0.7845 0.97069 0.0
H395 H 0.91257 0.81734 0.95433 0.0
H396 H 0.93108 0.91114 0.92211 0.0
C397 C 0.85045 0.94298 0.83417 0.0
C398 C 0.86701 0.86699 0.87459 0.0
C399 C 0.83038 0.95632 0.8097 0.0
C400 C 0.95956 0.80524 0.95635 0.0
C401 C 0.93521 0.82384 0.94649 0.0
C402 C 0.91326 0.89848 0.90911 0.0
C403 C 0.84337 0.91546 0.85129 0.0
C404 C 0.86668 0.89882 0.87337 0.0
C405 C 0.93982 0.84968 0.92516 0.0
C406 C 0.91369 0.86676 0.90961 0.0
H407 H 0.77383 0.90446 0.81343 0.0
H408 H 0.80751 0.88242 0.858 0.0
H409 H 0.89049 0.93865 0.89225 0.0
H410 H 0.01617 0.84385 0.91496 0.0
H411 H 0.97402 0.87696 0.89923 0.0
C412 C 0.79668 0.05084 0.04838 0.0
C413 C 0.80424 0.02053 0.05474 0.0
C414 C 0.81657 0.07421 0.05806 0.0
C415 C 0.88349 0.08734 0.11879 0.0
H416 H 0.87765 0.1688 0.0817 0.0
C417 C 0.95582 0.18228 0.17936 0.0
C418 C 0.93805 0.20552 0.19396 0.0
C419 C 0.94364 0.16226 0.15399 0.0
C420 C 0.87967 0.14611 0.09219 0.0
H421 H 0.83937 0.99092 0.07416 0.0
H422 H 0.87506 0.03104 0.088 0.0
H423 H 0.84965 0.12812 0.05258 0.0
H424 H 0.89446 0.22738 0.19102 0.0
H425 H 0.87386 0.19368 0.14523 0.0
H426 H 0.91382 0.10544 0.15805 0.0
C427 C 0.85324 0.0373 0.0773 0.0
C428 C 0.86334 0.12265 0.0757 0.0
C429 C 0.833 0.01404 0.06858 0.0
C430 C 0.90903 0.21025 0.17962 0.0
C431 C 0.89707 0.19064 0.15367 0.0
C432 C 0.90025 0.11061 0.13467 0.0
C433 C 0.84491 0.06793 0.07382 0.0
C434 C 0.8645 0.09282 0.08906 0.0
C435 C 0.91361 0.16538 0.14206 0.0
C436 C 0.89826 0.1404 0.12201 0.0
H437 H 0.77435 0.05665 0.03868 0.0
H438 H 0.80874 0.09718 0.0551 0.0
H439 H 0.88473 0.06524 0.13096 0.0
H440 H 0.97789 0.17742 0.19052 0.0
H441 H 0.95708 0.14317 0.14542 0.0
C442 C 0.05586 0.21982 0.95894 0.0
C443 C 0.02542 0.2132 0.95108 0.0
C444 C 0.07915 0.20044 0.948 0.0
C445 C 0.12075 0.16934 0.89361 0.0
H446 H 0.12069 0.08231 0.90269 0.0
C447 C 0.21293 0.10102 0.82155 0.0
C448 C 0.20409 0.07377 0.80552 0.0
C449 C 0.19469 0.11492 0.84755 0.0
C450 C 0.12106 0.10655 0.89943 0.0
H451 H 0.99586 0.1796 0.92757 0.0
H452 H 0.03651 0.14538 0.9095 0.0
H453 H 0.08099 0.11193 0.93148 0.0
H454 H 0.16966 0.03921 0.80526 0.0
H455 H 0.13755 0.06341 0.84945 0.0
H456 H 0.15934 0.16444 0.85995 0.0
C457 C 0.04227 0.16584 0.92381 0.0
C458 C 0.09825 0.12355 0.91621 0.0
C459 C 0.01893 0.18549 0.93424 0.0
C460 C 0.17765 0.05968 0.81798 0.0
C461 C 0.15898 0.07391 0.84327 0.0
C462 C 0.14315 0.1524 0.87629 0.0
C463 C 0.07275 0.17358 0.92943 0.0
C464 C 0.09773 0.15519 0.91339 0.0
C465 C 0.16644 0.10254 0.85729 0.0
C466 C 0.14373 0.12061 0.87863 0.0
H467 H 0.06195 0.24091 0.97165 0.0
H468 H 0.10233 0.20694 0.95315 0.0
H469 H 0.12082 0.19362 0.89034 0.0
H470 H 0.23278 0.1128 0.81193 0.0
H471 H 0.20209 0.1363 0.85842 0.0
C472 C 0.20066 0.54626 0.20862 0.0
C473 C 0.20162 0.51939 0.18858 0.0
C474 C 0.1807 0.56976 0.1991 0.0
C475 C 0.11512 0.58846 0.13729 0.0
H476 H 0.1471 0.66952 0.14375 0.0
C477 C 0.05334 0.68708 0.06611 0.0
C478 C 0.0718 0.70837 0.04864 0.0
C479 C 0.06563 0.66668 0.09113 0.0
C480 C 0.13777 0.64706 0.14135 0.0
H481 H 0.18078 0.49571 0.14417 0.0
H482 H 0.14698 0.53605 0.12741 0.0
H483 H 0.17433 0.6281 0.17146 0.0
H484 H 0.11741 0.72609 0.04628 0.0
H485 H 0.13871 0.6907 0.08866 0.0
H486 H 0.07975 0.60694 0.10506 0.0
C487 C 0.16108 0.53934 0.15077 0.0
C488 C 0.15328 0.62314 0.15795 0.0
C489 C 0.18077 0.51599 0.16035 0.0
C490 C 0.10235 0.71011 0.05907 0.0
C491 C 0.11465 0.68962 0.08371 0.0
C492 C 0.09987 0.61226 0.12026 0.0
C493 C 0.16118 0.56704 0.16925 0.0
C494 C 0.14262 0.59324 0.15554 0.0
C495 C 0.09681 0.66678 0.09929 0.0
C496 C 0.11121 0.64197 0.12128 0.0
H497 H 0.21647 0.54987 0.23035 0.0
H498 H 0.18121 0.59037 0.21462 0.0
H499 H 0.1055 0.56607 0.13538 0.0
H500 H 0.02976 0.68484 0.05883 0.0
H501 H 0.05074 0.65014 0.1031 0.0
C502 C 0.51342 0.82548 0.83217 0.0
C503 C 0.51858 0.80309 0.8061 0.0
C504 C 0.53647 0.84521 0.84283 0.0
C505 C 0.5857 0.89053 0.8592 0.0
H506 H 0.66719 0.85909 0.85661 0.0
C507 C 0.68205 0.95404 0.93276 0.0
C508 C 0.70352 0.93608 0.95065 0.0
C509 C 0.66223 0.9413 0.90742 0.0
C510 C 0.64459 0.86826 0.85807 0.0
H511 H 0.55191 0.78575 0.76896 0.0
H512 H 0.59151 0.82127 0.78581 0.0
H513 H 0.62677 0.8309 0.82876 0.0
H514 H 0.72226 0.89096 0.95339 0.0
H515 H 0.68775 0.86884 0.91079 0.0
H516 H 0.60308 0.9266 0.89107 0.0
C517 C 0.56997 0.82277 0.79938 0.0
C518 C 0.6212 0.85219 0.84125 0.0
C519 C 0.54699 0.80256 0.78917 0.0
C520 C 0.70609 0.90564 0.94032 0.0
C521 C 0.6861 0.89285 0.91548 0.0
C522 C 0.60897 0.90625 0.87671 0.0
C523 C 0.56549 0.84381 0.82733 0.0
C524 C 0.59113 0.86268 0.84204 0.0
C525 C 0.66304 0.91014 0.89945 0.0
C526 C 0.63881 0.89515 0.87711 0.0
H527 H 0.49202 0.82666 0.84616 0.0
H528 H 0.5317 0.86048 0.86471 0.0
H529 H 0.56326 0.90016 0.85982 0.0
H530 H 0.67921 0.97753 0.93995 0.0
H531 H 0.64557 0.95582 0.89508 0.0
C532 C 0.79617 0.46004 0.21053 0.0
C533 C 0.80349 0.48931 0.19878 0.0
C534 C 0.81483 0.43542 0.20198 0.0
C535 C 0.89065 0.41176 0.1707 0.0
H536 H 0.84769 0.35089 0.11651 0.0
C537 C 0.95221 0.33039 0.07322 0.0
C538 C 0.93724 0.30465 0.0603 0.0
C539 C 0.93852 0.34922 0.09876 0.0
C540 C 0.86031 0.36697 0.13234 0.0
H541 H 0.83711 0.51578 0.17072 0.0
H542 H 0.87036 0.47312 0.15739 0.0
H543 H 0.81973 0.3907 0.14617 0.0
H544 H 0.89731 0.27714 0.06641 0.0
H545 H 0.87479 0.30792 0.11343 0.0
H546 H 0.93124 0.38802 0.15752 0.0
C547 C 0.85004 0.46913 0.17285 0.0
C548 C 0.84405 0.3901 0.14925 0.0
C549 C 0.83104 0.49362 0.18064 0.0
C550 C 0.90973 0.29647 0.07631 0.0
C551 C 0.89639 0.31481 0.10263 0.0
C552 C 0.90695 0.3882 0.15446 0.0
C553 C 0.84161 0.43956 0.18218 0.0
C554 C 0.859 0.41315 0.16803 0.0
C555 C 0.90961 0.34255 0.1127 0.0
C556 C 0.89216 0.36567 0.1342 0.0
H557 H 0.77485 0.45578 0.22385 0.0
H558 H 0.80774 0.41294 0.20966 0.0
H559 H 0.90286 0.42907 0.18518 0.0
H560 H 0.97296 0.33788 0.06063 0.0
H561 H 0.94973 0.37022 0.10514 0.0
C562 C 0.32153 0.05149 0.9332 0.0
C563 C 0.30073 0.07023 0.95108 0.0
C564 C 0.34193 0.06353 0.90803 0.0
C565 C 0.363 0.13571 0.85892 0.0
H566 H 0.44336 0.10169 0.86459 0.0
C567 C 0.46529 0.19815 0.79471 0.0
C568 C 0.49214 0.19807 0.81493 0.0
C569 C 0.44142 0.17833 0.80324 0.0
C570 C 0.42117 0.11181 0.86279 0.0
H571 H 0.28363 0.11599 0.95373 0.0
H572 H 0.3191 0.13687 0.91115 0.0
H573 H 0.40184 0.07642 0.89418 0.0
H574 H 0.5154 0.17546 0.85846 0.0
H575 H 0.47436 0.142 0.87366 0.0
H576 H 0.38285 0.17235 0.82988 0.0
C577 C 0.31981 0.11281 0.91593 0.0
C578 C 0.39696 0.09683 0.87936 0.0
C579 C 0.29927 0.10075 0.94068 0.0
C580 C 0.49514 0.17631 0.8422 0.0
C581 C 0.47138 0.1568 0.85086 0.0
C582 C 0.38733 0.15098 0.84287 0.0
C583 C 0.34234 0.0947 0.90015 0.0
C584 C 0.36748 0.1088 0.87844 0.0
C585 C 0.4437 0.15797 0.8323 0.0
C586 C 0.41703 0.13969 0.84523 0.0
H587 H 0.3235 0.02791 0.94038 0.0
H588 H 0.35814 0.04844 0.89582 0.0
H589 H 0.34071 0.14552 0.85658 0.0
H590 H 0.462 0.21464 0.77364 0.0
H591 H 0.42086 0.17965 0.78762 0.0
C592 C 0.70472 0.45918 0.55388 0.0
C593 C 0.69876 0.48956 0.56199 0.0
C594 C 0.68458 0.43631 0.56453 0.0
C595 C 0.62239 0.42394 0.63171 0.0
H596 H 0.61979 0.34417 0.58939 0.0
C597 C 0.54842 0.33037 0.69372 0.0
C598 C 0.56434 0.30383 0.70233 0.0
C599 C 0.56073 0.3517 0.67001 0.0
C600 C 0.62022 0.36637 0.60148 0.0
H601 H 0.66603 0.51988 0.5854 0.0
H602 H 0.62993 0.48066 0.60135 0.0
H603 H 0.64786 0.38445 0.55946 0.0
H604 H 0.60458 0.278 0.69021 0.0
H605 H 0.62541 0.31461 0.64782 0.0
H606 H 0.59458 0.40583 0.67353 0.0
C607 C 0.65072 0.47398 0.58836 0.0
C608 C 0.63654 0.38956 0.58442 0.0
C609 C 0.67117 0.4967 0.57851 0.0
C610 C 0.59154 0.29801 0.68399 0.0
C611 C 0.60359 0.31911 0.65978 0.0
C612 C 0.60573 0.40096 0.64834 0.0
C613 C 0.65766 0.44322 0.58313 0.0
C614 C 0.63827 0.41874 0.59948 0.0
C615 C 0.58902 0.34686 0.65372 0.0
C616 C 0.60467 0.37174 0.63376 0.0
H617 H 0.72612 0.45284 0.542 0.0
H618 H 0.69122 0.41313 0.56007 0.0
H619 H 0.62356 0.44554 0.64509 0.0
H620 H 0.52768 0.33596 0.70761 0.0
H621 H 0.54871 0.37266 0.66566 0.0
C622 C 0.46213 0.30437 0.45057 0.0
C623 C 0.4923 0.31117 0.44203 0.0
C624 C 0.43857 0.32375 0.44016 0.0
C625 C 0.42367 0.38622 0.37395 0.0
H626 H 0.34403 0.38522 0.41709 0.0
C627 C 0.32741 0.45945 0.31705 0.0
C628 C 0.30195 0.44266 0.30623 0.0
C629 C 0.349 0.44692 0.34022 0.0
C630 C 0.36619 0.38579 0.40482 0.0
H631 H 0.52152 0.3446 0.41801 0.0
H632 H 0.48111 0.37951 0.40257 0.0
H633 H 0.38551 0.35815 0.44596 0.0
H634 H 0.2781 0.40052 0.31425 0.0
H635 H 0.31512 0.37926 0.35597 0.0
H636 H 0.40429 0.41432 0.33321 0.0
C637 C 0.4751 0.35856 0.41564 0.0
C638 C 0.39009 0.37004 0.42122 0.0
C639 C 0.49852 0.33881 0.42518 0.0
C640 C 0.29726 0.4142 0.32213 0.0
C641 C 0.31859 0.40192 0.34593 0.0
C642 C 0.4 0.40243 0.35808 0.0
C643 C 0.44454 0.35081 0.42146 0.0
C644 C 0.41926 0.3696 0.40582 0.0
C645 C 0.34541 0.41756 0.35392 0.0
C646 C 0.37086 0.40217 0.37301 0.0
H647 H 0.45647 0.28291 0.46274 0.0
H648 H 0.41563 0.31643 0.44501 0.0
H649 H 0.44521 0.38607 0.36028 0.0
H650 H 0.33212 0.48126 0.30521 0.0
H651 H 0.36925 0.45969 0.34614 0.0
C652 C 0.32605 0.51685 0.5821 0.0
C653 C 0.30344 0.52103 0.556 0.0
C654 C 0.34577 0.54034 0.59149 0.0
C655 C 0.35164 0.62482 0.58681 0.0
H656 H 0.42763 0.60912 0.63468 0.0
C657 C 0.40377 0.70906 0.68696 0.0
C658 C 0.43431 0.70688 0.69697 0.0
C659 C 0.39155 0.69014 0.66062 0.0
C660 C 0.40681 0.61431 0.6208 0.0
H661 H 0.28565 0.55303 0.5175 0.0
H662 H 0.32094 0.59336 0.53237 0.0
H663 H 0.40117 0.56821 0.60531 0.0
H664 H 0.47656 0.68477 0.68468 0.0
H665 H 0.45585 0.65298 0.63705 0.0
H666 H 0.35781 0.67111 0.60122 0.0
C667 C 0.32272 0.57227 0.54681 0.0
C668 C 0.39114 0.59045 0.6044 0.0
C669 C 0.30263 0.54885 0.5378 0.0
C670 C 0.4531 0.68754 0.67714 0.0
C671 C 0.4409 0.66864 0.65044 0.0
C672 C 0.36757 0.64877 0.60266 0.0
C673 C 0.34402 0.56881 0.57471 0.0
C674 C 0.36277 0.59503 0.58805 0.0
C675 C 0.40955 0.66843 0.64314 0.0
C676 C 0.39501 0.64385 0.62099 0.0
H677 H 0.32743 0.49595 0.59705 0.0
H678 H 0.36132 0.53643 0.61337 0.0
H679 H 0.32992 0.6297 0.57485 0.0
H680 H 0.38854 0.72323 0.70224 0.0
H681 H 0.36739 0.69093 0.65644 0.0
C682 C 0.51318 0.68048 0.4368 0.0
C683 C 0.52151 0.70881 0.45062 0.0
C684 C 0.53518 0.65985 0.42515 0.0
C685 C 0.61969 0.64613 0.42156 0.0
H686 H 0.59837 0.60108 0.33625 0.0
C687 C 0.70581 0.59968 0.3168 0.0
C688 C 0.69974 0.57157 0.30078 0.0
C689 C 0.68571 0.61228 0.34177 0.0
C690 C 0.60465 0.61314 0.36037 0.0
H691 H 0.55999 0.73681 0.46441 0.0
H692 H 0.59791 0.70167 0.44339 0.0
H693 H 0.55999 0.63043 0.36696 0.0
H694 H 0.66825 0.53407 0.30017 0.0
H695 H 0.63325 0.55611 0.34341 0.0
H696 H 0.66492 0.62988 0.41335 0.0
C697 C 0.57449 0.69477 0.44215 0.0
C698 C 0.5825 0.63 0.37825 0.0
C699 C 0.55253 0.71515 0.45432 0.0
C700 C 0.674 0.55554 0.31222 0.0
C701 C 0.65364 0.56838 0.33668 0.0
C702 C 0.64198 0.62963 0.40327 0.0
C703 C 0.56622 0.66709 0.42635 0.0
C704 C 0.58961 0.64708 0.40902 0.0
C705 C 0.65872 0.59734 0.35089 0.0
C706 C 0.6348 0.61308 0.37226 0.0
H707 H 0.48956 0.67471 0.43358 0.0
H708 H 0.52766 0.63851 0.41427 0.0
H709 H 0.62623 0.65831 0.44547 0.0
H710 H 0.72522 0.61278 0.3084 0.0
H711 H 0.69033 0.63464 0.35208 0.0
C712 C 0.67115 0.01289 0.6766 0.0
C713 C 0.69887 0.01979 0.69296 0.0
C714 C 0.65097 0.03582 0.6667 0.0
C715 C 0.63806 0.12045 0.66999 0.0
H716 H 0.59568 0.10421 0.58116 0.0
C717 C 0.59437 0.21172 0.56921 0.0
C718 C 0.56685 0.2062 0.5514 0.0
C719 C 0.60622 0.19068 0.59363 0.0
C720 C 0.60696 0.10908 0.60626 0.0
H721 H 0.72676 0.05626 0.71265 0.0
H722 H 0.69235 0.0963 0.69443 0.0
H723 H 0.62408 0.06426 0.60989 0.0
H724 H 0.52945 0.17478 0.54729 0.0
H725 H 0.55018 0.13819 0.58954 0.0
H726 H 0.62207 0.16607 0.66458 0.0
C727 C 0.68539 0.07319 0.69017 0.0
C728 C 0.62328 0.08597 0.62307 0.0
C729 C 0.70524 0.05012 0.70088 0.0
C730 C 0.55047 0.18011 0.56073 0.0
C731 C 0.56258 0.15885 0.58463 0.0
C732 C 0.62212 0.14378 0.65273 0.0
C733 C 0.65835 0.06652 0.6717 0.0
C734 C 0.63929 0.09115 0.65521 0.0
C735 C 0.59111 0.16334 0.60042 0.0
C736 C 0.60643 0.1384 0.62056 0.0
H737 H 0.66571 0.98975 0.66987 0.0
H738 H 0.63006 0.02934 0.65384 0.0
H739 H 0.6495 0.12556 0.69488 0.0
H740 H 0.60773 0.23139 0.56246 0.0
H741 H 0.62826 0.19488 0.6052 0.0
C742 C 0.21391 0.41075 0.43242 0.0
C743 C 0.20477 0.43774 0.44884 0.0
C744 C 0.19559 0.39659 0.40666 0.0
C745 C 0.12119 0.40376 0.35603 0.0
H746 H 0.12248 0.31667 0.3647 0.0
C747 C 0.01976 0.32386 0.32141 0.0
C748 C 0.02634 0.29608 0.30476 0.0
C749 C 0.04303 0.34363 0.33183 0.0
C750 C 0.12197 0.34095 0.36153 0.0
H751 H 0.16967 0.47159 0.44991 0.0
H752 H 0.13752 0.44701 0.40604 0.0
H753 H 0.16089 0.34643 0.39457 0.0
H754 H 0.06299 0.26834 0.28466 0.0
H755 H 0.10327 0.30254 0.30307 0.0
H756 H 0.08089 0.3978 0.32454 0.0
C757 C 0.15921 0.43689 0.41178 0.0
C758 C 0.1443 0.35824 0.37857 0.0
C759 C 0.17793 0.45136 0.43688 0.0
C760 C 0.05683 0.28948 0.29719 0.0
C761 C 0.08006 0.309 0.3081 0.0
C762 C 0.09848 0.38641 0.3395 0.0
C763 C 0.167 0.40846 0.39747 0.0
C764 C 0.14434 0.39003 0.3764 0.0
C765 C 0.07356 0.33599 0.3264 0.0
C766 C 0.09848 0.35475 0.34216 0.0
H767 H 0.23406 0.39927 0.44168 0.0
H768 H 0.20323 0.37539 0.39556 0.0
H769 H 0.12038 0.428 0.3529 0.0
H770 H 0.99666 0.32975 0.32787 0.0
H771 H 0.03715 0.36415 0.34592 0.0
C772 C 0.45285 0.83285 0.56958 0.0
C773 C 0.43839 0.80642 0.55787 0.0
C774 C 0.43914 0.8518 0.59496 0.0
C775 C 0.36115 0.8682 0.6294 0.0
H776 H 0.4026 0.93127 0.6819 0.0
C777 C 0.32845 0.99322 0.68365 0.0
C778 C 0.30102 0.98696 0.70135 0.0
C779 C 0.34821 0.9698 0.67379 0.0
C780 C 0.39071 0.91375 0.6674 0.0
H781 H 0.3994 0.77791 0.56582 0.0
H782 H 0.37689 0.80907 0.61253 0.0
H783 H 0.43177 0.891 0.65362 0.0
H784 H 0.27412 0.95085 0.72439 0.0
H785 H 0.30824 0.91037 0.70686 0.0
H786 H 0.32014 0.89083 0.64374 0.0
C787 C 0.39809 0.81629 0.60095 0.0
C788 C 0.40745 0.89061 0.65091 0.0
C789 C 0.41144 0.79779 0.57484 0.0
C790 C 0.29494 0.95678 0.71087 0.0
C791 C 0.31441 0.93341 0.70053 0.0
C792 C 0.3445 0.89091 0.64646 0.0
C793 C 0.41072 0.84459 0.60984 0.0
C794 C 0.39301 0.86761 0.63105 0.0
C795 C 0.34084 0.9395 0.68093 0.0
C796 C 0.35901 0.91425 0.66525 0.0
H797 H 0.47311 0.84066 0.55617 0.0
H798 H 0.44982 0.87324 0.60048 0.0
H799 H 0.34881 0.85176 0.61377 0.0
H800 H 0.33396 0.01608 0.67573 0.0
H801 H 0.36837 0.97529 0.65869 0.0
C802 C 0.79479 0.59472 0.43616 0.0
C803 C 0.80255 0.56796 0.45419 0.0
C804 C 0.81455 0.60782 0.41111 0.0
C805 C 0.88939 0.59616 0.36309 0.0
H806 H 0.89042 0.68355 0.36435 0.0
C807 C 0.99397 0.67097 0.32933 0.0
C808 C 0.98933 0.69813 0.31057 0.0
C809 C 0.96959 0.65225 0.33852 0.0
C810 C 0.89024 0.65914 0.36319 0.0
H811 H 0.83701 0.53348 0.45874 0.0
H812 H 0.87166 0.5565 0.41647 0.0
H813 H 0.85079 0.65663 0.39594 0.0
H814 H 0.95529 0.72627 0.28569 0.0
H815 H 0.91267 0.69374 0.302 0.0
H816 H 0.93023 0.59915 0.33205 0.0
C817 C 0.84997 0.56719 0.4205 0.0
C818 C 0.86726 0.6435 0.38129 0.0
C819 C 0.82988 0.55375 0.4449 0.0
C820 C 0.95981 0.70521 0.29941 0.0
C821 C 0.9353 0.68679 0.30927 0.0
C822 C 0.91272 0.61187 0.34554 0.0
C823 C 0.84314 0.59504 0.404 0.0
C824 C 0.86649 0.61166 0.38194 0.0
C825 C 0.93978 0.66054 0.32992 0.0
C826 C 0.91359 0.64359 0.3456 0.0
H827 H 0.77402 0.60637 0.44277 0.0
H828 H 0.80769 0.62863 0.39833 0.0
H829 H 0.88958 0.57178 0.36202 0.0
H830 H 0.01633 0.66514 0.33888 0.0
H831 H 0.97391 0.63235 0.35456 0.0
C832 C 0.21195 0.37103 0.14369 0.0
C833 C 0.22773 0.37439 0.17616 0.0
C834 C 0.20273 0.34241 0.13216 0.0
C835 C 0.18934 0.26336 0.15677 0.0
H836 H 0.23415 0.24402 0.07063 0.0
C837 C 0.21971 0.14084 0.11898 0.0
C838 C 0.22876 0.13415 0.08384 0.0
C839 C 0.21074 0.17012 0.12818 0.0
C840 C 0.22059 0.24884 0.09405 0.0
H841 H 0.24379 0.35094 0.22341 0.0
H842 H 0.22658 0.30114 0.20386 0.0
H843 H 0.23241 0.29562 0.09159 0.0
H844 H 0.23316 0.15184 0.0301 0.0
H845 H 0.21496 0.20212 0.04513 0.0
H846 H 0.17711 0.21675 0.15923 0.0
C847 C 0.22173 0.32054 0.18717 0.0
C848 C 0.21983 0.27862 0.10619 0.0
C849 C 0.23159 0.34903 0.19834 0.0
C850 C 0.22624 0.15649 0.05741 0.0
C851 C 0.21632 0.1855 0.06631 0.0
C852 C 0.18942 0.23357 0.14413 0.0
C853 C 0.20843 0.31679 0.15329 0.0
C854 C 0.20486 0.28607 0.1381 0.0
C855 C 0.20995 0.19326 0.10221 0.0
C856 C 0.20581 0.22562 0.11307 0.0
H857 H 0.20894 0.39006 0.12582 0.0
H858 H 0.1925 0.34008 0.10593 0.0
H859 H 0.17755 0.26859 0.18144 0.0
H860 H 0.22201 0.12412 0.14 0.0
H861 H 0.20646 0.17483 0.15616 0.0
C862 C 0.13742 0.80267 0.88747 0.0
C863 C 0.13477 0.78596 0.91936 0.0
C864 C 0.16586 0.81182 0.87519 0.0
C865 C 0.24525 0.82423 0.89676 0.0
H866 H 0.26356 0.77665 0.8124 0.0
C867 C 0.3661 0.78761 0.86359 0.0
C868 C 0.37374 0.7779 0.8289 0.0
C869 C 0.33701 0.79787 0.87125 0.0
C870 C 0.25898 0.79094 0.83526 0.0
H871 H 0.15921 0.76802 0.9649 0.0
H872 H 0.20877 0.78524 0.94419 0.0
H873 H 0.21186 0.78004 0.83352 0.0
H874 H 0.35762 0.77395 0.77431 0.0
H875 H 0.30731 0.79366 0.78706 0.0
H876 H 0.29214 0.83548 0.89861 0.0
C877 C 0.18894 0.79086 0.92853 0.0
C878 C 0.2292 0.79269 0.84746 0.0
C879 C 0.16064 0.78102 0.94036 0.0
C880 C 0.35231 0.78097 0.8014 0.0
C881 C 0.32332 0.79198 0.80889 0.0
C882 C 0.27498 0.82318 0.88403 0.0
C883 C 0.19192 0.80514 0.89511 0.0
C884 C 0.22225 0.80851 0.87894 0.0
C885 C 0.31482 0.79941 0.84426 0.0
C886 C 0.28254 0.80549 0.85388 0.0
H887 H 0.11792 0.80643 0.87051 0.0
H888 H 0.16769 0.82271 0.84928 0.0
H889 H 0.24033 0.83669 0.92105 0.0
H890 H 0.38196 0.78538 0.88555 0.0
H891 H 0.33163 0.80281 0.89892 0.0
C892 C 0.77623 0.66214 0.19642 0.0
C893 C 0.7816 0.63629 0.17558 0.0
C894 C 0.78662 0.6904 0.1851 0.0
C895 C 0.79074 0.73056 0.10419 0.0
H896 H 0.83422 0.79309 0.15512 0.0
C897 C 0.78367 0.85195 0.05289 0.0
C898 C 0.78176 0.87463 0.07891 0.0
C899 C 0.79378 0.82306 0.06212 0.0
C900 C 0.82168 0.77609 0.14059 0.0
H901 H 0.80346 0.61949 0.12759 0.0
H902 H 0.82073 0.66912 0.10725 0.0
H903 H 0.83345 0.74171 0.17885 0.0
H904 H 0.78957 0.88544 0.13465 0.0
H905 H 0.80534 0.83499 0.15146 0.0
H906 H 0.77635 0.76455 0.06783 0.0
C907 C 0.80905 0.66731 0.13268 0.0
C908 C 0.82161 0.74656 0.1541 0.0
C909 C 0.79933 0.63893 0.14446 0.0
C910 C 0.79147 0.86843 0.11392 0.0
C911 C 0.80058 0.83929 0.12349 0.0
C912 C 0.79006 0.76011 0.09123 0.0
C913 C 0.80192 0.69337 0.15232 0.0
C914 C 0.80582 0.72366 0.13619 0.0
C915 C 0.80086 0.81579 0.09801 0.0
C916 C 0.80508 0.78359 0.10951 0.0
H917 H 0.76244 0.66076 0.22036 0.0
H918 H 0.78063 0.7102 0.20054 0.0
H919 H 0.77798 0.71334 0.09019 0.0
H920 H 0.77615 0.85624 0.02572 0.0
H921 H 0.79471 0.80616 0.04125 0.0
C922 C 0.85371 0.23339 0.94427 0.0
C923 C 0.87881 0.23285 0.92111 0.0
C924 C 0.82529 0.22371 0.9323 0.0
C925 C 0.78248 0.22757 0.85172 0.0
H926 H 0.72354 0.1753 0.89685 0.0
C927 C 0.66138 0.22805 0.79912 0.0
C928 C 0.63837 0.22663 0.82486 0.0
C929 C 0.69092 0.21965 0.80795 0.0
C930 C 0.73954 0.19027 0.88402 0.0
H931 H 0.89405 0.21919 0.86817 0.0
H932 H 0.84449 0.20312 0.84733 0.0
H933 H 0.77503 0.17765 0.92049 0.0
H934 H 0.62775 0.21421 0.87953 0.0
H935 H 0.67919 0.20123 0.8957 0.0
H936 H 0.7473 0.24231 0.81715 0.0
C937 C 0.84688 0.21097 0.87468 0.0
C938 C 0.76911 0.19137 0.8975 0.0
C939 C 0.87529 0.22015 0.88677 0.0
C940 C 0.64501 0.215 0.85896 0.0
C941 C 0.67472 0.20755 0.86819 0.0
C942 C 0.7529 0.2271 0.83883 0.0
C943 C 0.82145 0.21367 0.89688 0.0
C944 C 0.79075 0.21019 0.88155 0.0
C945 C 0.6984 0.2109 0.84323 0.0
C946 C 0.73076 0.20867 0.85492 0.0
H947 H 0.8556 0.2429 0.97092 0.0
H948 H 0.80597 0.22607 0.94989 0.0
H949 H 0.79865 0.24264 0.83926 0.0
H950 H 0.65678 0.23699 0.77263 0.0
H951 H 0.70808 0.22145 0.78741 0.0
C952 C 0.71303 0.86781 0.64089 0.0
C953 C 0.72374 0.87446 0.67538 0.0
C954 C 0.70432 0.8384 0.63198 0.0
C955 C 0.71761 0.75964 0.66444 0.0
H956 H 0.6717 0.73967 0.57918 0.0
C957 C 0.70741 0.63769 0.61363 0.0
C958 C 0.72415 0.63468 0.58179 0.0
C959 C 0.69812 0.6662 0.62539 0.0
C960 C 0.68428 0.74497 0.60327 0.0
H961 H 0.73137 0.85649 0.72845 0.0
H962 H 0.71355 0.80589 0.71417 0.0
H963 H 0.67079 0.79124 0.60224 0.0
H964 H 0.74197 0.65867 0.53584 0.0
H965 H 0.72451 0.70836 0.55568 0.0
H966 H 0.73053 0.71309 0.66555 0.0
C967 C 0.71344 0.82269 0.69313 0.0
C968 C 0.68412 0.77461 0.61639 0.0
C969 C 0.72314 0.85187 0.70166 0.0
C970 C 0.72896 0.66032 0.56036 0.0
C971 C 0.71899 0.68872 0.57169 0.0
C972 C 0.71704 0.72996 0.65191 0.0
C973 C 0.70542 0.81504 0.65764 0.0
C974 C 0.70155 0.78267 0.64662 0.0
C975 C 0.70466 0.69204 0.60503 0.0
C976 C 0.70102 0.7225 0.62075 0.0
H977 H 0.71384 0.88472 0.61993 0.0
H978 H 0.69875 0.83383 0.60428 0.0
H979 H 0.73198 0.76454 0.68715 0.0
H980 H 0.70371 0.61843 0.63096 0.0
H981 H 0.6872 0.66828 0.65126 0.0
C982 C 0.8762 0.2904 0.36753 0.0
C983 C 0.87964 0.27753 0.33326 0.0
C984 C 0.84786 0.29991 0.37949 0.0
C985 C 0.77014 0.31975 0.35627 0.0
H986 H 0.74815 0.26951 0.43718 0.0
C987 C 0.646 0.29599 0.3944 0.0
C988 C 0.63927 0.28456 0.42857 0.0
C989 C 0.6757 0.30356 0.38528 0.0
C990 C 0.7538 0.28455 0.41534 0.0
H991 H 0.8564 0.26757 0.28343 0.0
H992 H 0.80693 0.28494 0.30426 0.0
H993 H 0.79954 0.26902 0.41526 0.0
H994 H 0.65748 0.2747 0.48102 0.0
H995 H 0.70877 0.29048 0.46643 0.0
H996 H 0.72457 0.33577 0.35654 0.0
C997 C 0.82624 0.28719 0.32189 0.0
C998 C 0.78341 0.28398 0.40257 0.0
C999 C 0.85457 0.27719 0.31003 0.0
C1000 C 0.66216 0.28348 0.45448 0.0
C1001 C 0.69169 0.29201 0.44576 0.0
C1002 C 0.74054 0.32094 0.36963 0.0
C1003 C 0.82244 0.29737 0.35726 0.0
C1004 C 0.79175 0.30108 0.37253 0.0
C1005 C 0.69929 0.30054 0.41043 0.0
C1006 C 0.73169 0.30279 0.39892 0.0
H1007 H 0.89494 0.29123 0.38616 0.0
H1008 H 0.84552 0.30788 0.4068 0.0
H1009 H 0.77611 0.33325 0.33311 0.0
H1010 H 0.62882 0.29651 0.37372 0.0
H1011 H 0.68027 0.30969 0.35774 0.0
C1012 C 0.27589 0.15795 0.69409 0.0
C1013 C 0.27784 0.13326 0.6705 0.0
C1014 C 0.28485 0.18679 0.68298 0.0
C1015 C 0.28311 0.23065 0.60225 0.0
H1016 H 0.32805 0.29114 0.65488 0.0
C1017 C 0.27965 0.35372 0.55526 0.0
C1018 C 0.27692 0.37551 0.58235 0.0
C1019 C 0.2887 0.32426 0.56357 0.0
C1020 C 0.31516 0.27466 0.63992 0.0
H1021 H 0.29316 0.11928 0.61772 0.0
H1022 H 0.30812 0.16958 0.59837 0.0
H1023 H 0.32737 0.23902 0.67622 0.0
H1024 H 0.28318 0.38386 0.63917 0.0
H1025 H 0.29742 0.33272 0.65389 0.0
H1026 H 0.26884 0.26599 0.56751 0.0
C1027 C 0.29964 0.16655 0.62538 0.0
C1028 C 0.31502 0.24475 0.6521 0.0
C1029 C 0.29116 0.1377 0.63662 0.0
C1030 C 0.28521 0.3677 0.61753 0.0
C1031 C 0.29356 0.33816 0.62598 0.0
C1032 C 0.28268 0.26056 0.59052 0.0
C1033 C 0.29558 0.19151 0.64797 0.0
C1034 C 0.29868 0.22256 0.63358 0.0
C1035 C 0.29448 0.31569 0.59935 0.0
C1036 C 0.29828 0.28321 0.60947 0.0
H1037 H 0.26586 0.15534 0.7204 0.0
H1038 H 0.28142 0.20569 0.7009 0.0
H1039 H 0.26996 0.21406 0.58772 0.0
H1040 H 0.27368 0.35912 0.52783 0.0
H1041 H 0.29007 0.30799 0.54202 0.0
C1042 C 0.13872 0.70742 0.36892 0.0
C1043 C 0.13551 0.7239 0.33694 0.0
C1044 C 0.1674 0.69859 0.38076 0.0
C1045 C 0.24678 0.6871 0.35741 0.0
H1046 H 0.26546 0.73351 0.44258 0.0
C1047 C 0.36797 0.72348 0.39061 0.0
C1048 C 0.37573 0.73258 0.4255 0.0
C1049 C 0.33881 0.71343 0.38279 0.0
C1050 C 0.2608 0.71956 0.41945 0.0
H1051 H 0.15921 0.74181 0.29085 0.0
H1052 H 0.20918 0.72513 0.31075 0.0
H1053 H 0.2136 0.72993 0.42208 0.0
H1054 H 0.35972 0.73566 0.48021 0.0
H1055 H 0.30934 0.71628 0.46718 0.0
H1056 H 0.29376 0.67637 0.35467 0.0
C1057 C 0.18961 0.71942 0.32683 0.0
C1058 C 0.23091 0.71769 0.4076 0.0
C1059 C 0.16107 0.72894 0.31545 0.0
C1060 C 0.35433 0.72911 0.45298 0.0
C1061 C 0.32528 0.71831 0.44532 0.0
C1062 C 0.27664 0.68828 0.36975 0.0
C1063 C 0.19317 0.70538 0.36032 0.0
C1064 C 0.22378 0.70226 0.37591 0.0
C1065 C 0.31666 0.71149 0.40982 0.0
C1066 C 0.28432 0.7055 0.40023 0.0
H1067 H 0.11947 0.70363 0.38627 0.0
H1068 H 0.16964 0.68785 0.40671 0.0
H1069 H 0.24175 0.67495 0.33294 0.0
H1070 H 0.38381 0.72605 0.36868 0.0
H1071 H 0.33334 0.70896 0.35504 0.0
C1072 C 0.31313 0.98334 0.17468 0.0
C1073 C 0.30929 0.97737 0.138 0.0
C1074 C 0.32946 0.96357 0.19632 0.0
C1075 C 0.3583 0.88556 0.2024 0.0
H1076 H 0.40728 0.92084 0.27773 0.0
C1077 C 0.42913 0.81732 0.30792 0.0
C1078 C 0.42026 0.82463 0.34305 0.0
C1079 C 0.4192 0.83488 0.27893 0.0
C1080 C 0.39388 0.91071 0.25661 0.0
H1081 H 0.31937 0.94574 0.0953 0.0
H1082 H 0.34829 0.91124 0.1332 0.0
H1083 H 0.38274 0.95354 0.23406 0.0
H1084 H 0.39494 0.85639 0.37552 0.0
H1085 H 0.37837 0.88716 0.3253 0.0
H1086 H 0.36951 0.84264 0.22559 0.0
C1087 C 0.3383 0.93108 0.14525 0.0
C1088 C 0.3796 0.92939 0.2318 0.0
C1089 C 0.32173 0.95085 0.12355 0.0
C1090 C 0.40191 0.85001 0.34873 0.0
C1091 C 0.39259 0.86777 0.32005 0.0
C1092 C 0.37292 0.8668 0.22713 0.0
C1093 C 0.34266 0.93744 0.18182 0.0
C1094 C 0.36079 0.91713 0.20514 0.0
C1095 C 0.40101 0.86036 0.28491 0.0
C1096 C 0.39005 0.87934 0.25506 0.0
H1097 H 0.30372 1.00347 0.18674 0.0
H1098 H 0.33168 0.9688 0.22455 0.0
H1099 H 0.34393 0.87539 0.18226 0.0
H1100 H 0.44328 0.79786 0.30285 0.0
H1101 H 0.42594 0.82881 0.25197 0.0
C1102 C 0.85171 0.61823 0.64689 0.0
C1103 C 0.82284 0.60623 0.65345 0.0
C1104 C 0.8673 0.63352 0.6738 0.0
C1105 C 0.87353 0.64172 0.77119 0.0
H1106 H 0.91679 0.7148 0.74605 0.0
C1107 C 0.94531 0.70896 0.87405 0.0
C1108 C 0.97405 0.71757 0.86167 0.0
C1109 C 0.92368 0.6977 0.85016 0.0
C1110 C 0.90493 0.69437 0.75347 0.0
H1111 H 0.78792 0.60053 0.69373 0.0
H1112 H 0.81539 0.62725 0.74091 0.0
H1113 H 0.88504 0.69017 0.70148 0.0
H1114 H 1.00244 0.72138 0.81439 0.0
H1115 H 0.96502 0.70173 0.77312 0.0
H1116 H 0.89409 0.64555 0.82299 0.0
C1117 C 0.82583 0.62475 0.71482 0.0
C1118 C 0.88676 0.68026 0.72795 0.0
C1119 C 0.81009 0.60956 0.68777 0.0
C1120 C 0.98051 0.71511 0.8249 0.0
C1121 C 0.95895 0.704 0.80112 0.0
C1122 C 0.89181 0.65582 0.79678 0.0
C1123 C 0.8545 0.63708 0.70799 0.0
C1124 C 0.87139 0.65344 0.73627 0.0
C1125 C 0.93035 0.69501 0.81344 0.0
C1126 C 0.90823 0.68193 0.78791 0.0
H1127 H 0.8623 0.61598 0.62085 0.0
H1128 H 0.88959 0.64231 0.66791 0.0
H1129 H 0.86206 0.62097 0.77831 0.0
H1130 H 0.93964 0.71051 0.90224 0.0
H1131 H 0.90176 0.69111 0.86039 0.0
C1132 C 0.7015 0.06165 0.12784 0.0
C1133 C 0.70827 0.03208 0.13895 0.0
C1134 C 0.68892 0.08235 0.15195 0.0
C1135 C 0.64483 0.08451 0.23546 0.0
H1136 H 0.67457 0.16634 0.24551 0.0
C1137 C 0.61563 0.15609 0.35796 0.0
C1138 C 0.60825 0.18661 0.3528 0.0
C1139 C 0.62723 0.13892 0.32987 0.0
C1140 C 0.66576 0.14368 0.24265 0.0
H1141 H 0.70764 1.00135 0.18434 0.0
H1142 H 0.686 0.0373 0.22602 0.0
H1143 H 0.69607 0.13332 0.19948 0.0
H1144 H 0.60765 0.22312 0.31403 0.0
H1145 H 0.6279 0.1929 0.26474 0.0
H1146 H 0.61473 0.09454 0.27858 0.0
C1147 C 0.69004 0.04442 0.19865 0.0
C1148 C 0.67806 0.12481 0.21633 0.0
C1149 C 0.70267 0.02387 0.17475 0.0
C1150 C 0.61314 0.19967 0.31891 0.0
C1151 C 0.62484 0.18242 0.29072 0.0
C1152 C 0.63254 0.1033 0.26159 0.0
C1153 C 0.68267 0.07375 0.18747 0.0
C1154 C 0.66812 0.09483 0.21302 0.0
C1155 C 0.63171 0.15177 0.29585 0.0
C1156 C 0.64327 0.13288 0.26601 0.0
H1157 H 0.70552 0.06868 0.10044 0.0
H1158 H 0.68339 0.10481 0.1426 0.0
H1159 H 0.63623 0.06172 0.23299 0.0
H1160 H 0.61226 0.14527 0.3837 0.0
H1161 H 0.63283 0.11552 0.3349 0.0
C1162 C 0.05175 0.30077 0.85532 0.0
C1163 C 0.04209 0.31632 0.88606 0.0
C1164 C 0.07126 0.31445 0.83089 0.0
C1165 C 0.12537 0.3767 0.81712 0.0
H1166 H 0.10253 0.36577 0.71761 0.0
C1167 C 0.18414 0.43662 0.69555 0.0
C1168 C 0.1891 0.41813 0.66548 0.0
C1169 C 0.16739 0.42586 0.72484 0.0
C1170 C 0.10938 0.36887 0.74525 0.0
H1171 H 0.04643 0.35807 0.91597 0.0
H1172 H 0.08058 0.38205 0.87296 0.0
H1173 H 0.07176 0.34353 0.76459 0.0
H1174 H 0.18157 0.37341 0.64342 0.0
H1175 H 0.15294 0.35485 0.69412 0.0
H1176 H 0.16324 0.40204 0.79732 0.0
C1177 C 0.07307 0.35919 0.86799 0.0
C1178 C 0.09176 0.35607 0.77218 0.0
C1179 C 0.05347 0.34545 0.89256 0.0
C1180 C 0.17789 0.38847 0.66586 0.0
C1181 C 0.16131 0.37781 0.69491 0.0
C1182 C 0.14313 0.38957 0.78999 0.0
C1183 C 0.08157 0.34406 0.83646 0.0
C1184 C 0.09982 0.35931 0.80838 0.0
C1185 C 0.15531 0.3965 0.72442 0.0
C1186 C 0.1356 0.38524 0.75373 0.0
H1187 H 0.0437 0.2782 0.84962 0.0
H1188 H 0.07793 0.30194 0.80724 0.0
H1189 H 0.13211 0.37959 0.84481 0.0
H1190 H 0.19249 0.45958 0.69606 0.0
H1191 H 0.16308 0.44078 0.74723 0.0
C1192 C 0.43278 0.67842 0.94046 0.0
C1193 C 0.41393 0.69045 0.91375 0.0
C1194 C 0.42043 0.66108 0.96831 0.0
C1195 C 0.38499 0.63401 0.03212 0.0
H1196 H 0.32359 0.57813 0.99896 0.0
C1197 C 0.31244 0.55985 0.12753 0.0
C1198 C 0.30686 0.53005 0.11644 0.0
C1199 C 0.32671 0.5803 0.10452 0.0
C1200 C 0.34084 0.59341 0.00866 0.0
H1201 H 0.36738 0.69608 0.89681 0.0
H1202 H 0.34601 0.66666 0.94544 0.0
H1203 H 0.34669 0.61287 0.95684 0.0
H1204 H 0.31255 0.49821 0.07275 0.0
H1205 H 0.33744 0.53373 0.0329 0.0
H1206 H 0.37934 0.61385 0.084 0.0
C1207 C 0.37028 0.66961 0.94442 0.0
C1208 C 0.35384 0.61361 0.9846 0.0
C1209 C 0.38254 0.68657 0.91663 0.0
C1210 C 0.31612 0.52108 0.08203 0.0
C1211 C 0.33037 0.54147 0.05912 0.0
C1212 C 0.37188 0.6137 0.05635 0.0
C1213 C 0.3891 0.65578 0.96986 0.0
C1214 C 0.37592 0.63427 0.99602 0.0
C1215 C 0.33567 0.57135 0.06999 0.0
C1216 C 0.34969 0.59316 0.04479 0.0
H1217 H 0.45706 0.68111 0.93882 0.0
H1218 H 0.43549 0.65068 0.98756 0.0
H1219 H 0.4019 0.64971 0.0417 0.0
H1220 H 0.30575 0.56744 0.15395 0.0
H1221 H 0.33025 0.60325 0.11353 0.0
C1222 C 0.69512 0.59894 0.0625 0.0
C1223 C 0.68544 0.60531 0.0976 0.0
C1224 C 0.67996 0.61129 0.03303 0.0
C1225 C 0.63344 0.67495 0.00593 0.0
H1226 H 0.60061 0.62236 0.93261 0.0
C1227 C 0.54112 0.71537 0.90984 0.0
C1228 C 0.53968 0.70386 0.87479 0.0
C1229 C 0.56202 0.70412 0.93436 0.0
C1230 C 0.61013 0.6375 0.95237 0.0
H1231 H 0.6526 0.62984 0.12937 0.0
H1232 H 0.62667 0.65197 0.0779 0.0
H1233 H 0.63176 0.60119 0.98045 0.0
H1234 H 0.55961 0.67185 0.83778 0.0
H1235 H 0.59692 0.65277 0.88042 0.0
H1236 H 0.61239 0.71135 0.978 0.0
C1237 C 0.64582 0.63727 0.07326 0.0
C1238 C 0.62784 0.6253 0.97985 0.0
C1239 C 0.66056 0.62449 0.10266 0.0
C1240 C 0.56012 0.68118 0.86461 0.0
C1241 C 0.58136 0.67011 0.88914 0.0
C1242 C 0.6162 0.68723 0.97821 0.0
C1243 C 0.65529 0.63069 0.03821 0.0
C1244 C 0.63905 0.64385 0.00728 0.0
C1245 C 0.5824 0.68128 0.92446 0.0
C1246 C 0.60364 0.66858 0.95154 0.0
H1247 H 0.71412 0.58408 0.0578 0.0
H1248 H 0.68768 0.60593 0.00623 0.0
H1249 H 0.64224 0.68977 0.02653 0.0
H1250 H 0.52551 0.7326 0.91878 0.0
H1251 H 0.56154 0.71284 0.96145 0.0
C1252 C 0.62063 0.35376 0.89214 0.0
C1253 C 0.61025 0.3243 0.89867 0.0
C1254 C 0.63514 0.37008 0.91906 0.0
C1255 C 0.64238 0.37597 0.01663 0.0
H1256 H 0.71241 0.42467 0.99307 0.0
C1257 C 0.70478 0.44867 0.12231 0.0
C1258 C 0.71205 0.47812 0.11125 0.0
C1259 C 0.69472 0.42732 0.09741 0.0
C1260 C 0.69278 0.4113 1.00003 0.0
H1261 H 0.6069 0.28894 0.93874 0.0
H1262 H 0.63229 0.3176 0.98584 0.0
H1263 H 0.69018 0.39211 0.94752 0.0
H1264 H 0.71459 0.50813 0.06531 0.0
H1265 H 0.69692 0.47113 0.02225 0.0
H1266 H 0.64459 0.3957 0.06894 0.0
C1267 C 0.62907 0.328 0.95984 0.0
C1268 C 0.68006 0.39267 0.97395 0.0
C1269 C 0.61466 0.31157 0.93281 0.0
C1270 C 0.70937 0.48563 0.07478 0.0
C1271 C 0.69939 0.46434 0.04998 0.0
C1272 C 0.65508 0.39469 0.04274 0.0
C1273 C 0.63951 0.3574 0.95319 0.0
C1274 C 0.65441 0.37521 0.98178 0.0
C1275 C 0.69184 0.43499 0.06099 0.0
C1276 C 0.68008 0.41297 0.0345 0.0
H1277 H 0.61752 0.36432 0.86621 0.0
H1278 H 0.64251 0.39287 0.91329 0.0
H1279 H 0.62246 0.36295 0.02335 0.0
H1280 H 0.7066 0.44216 0.15021 0.0
H1281 H 0.68929 0.4048 0.10664 0.0
C1282 C 0.49265 0.29949 0.93371 0.0
C1283 C 0.48296 0.29511 0.8982 0.0
C1284 C 0.47327 0.31189 0.95918 0.0
C1285 C 0.39325 0.32668 0.97966 0.0
H1286 H 0.4268 0.38728 0.04318 0.0
C1287 C 0.31993 0.39772 0.07643 0.0
C1288 C 0.33154 0.40255 0.11105 0.0
C1289 C 0.33772 0.38429 0.04995 0.0
C1290 C 0.41716 0.37017 0.02592 0.0
H1291 H 0.44504 0.2999 0.86179 0.0
H1292 H 0.41114 0.32178 0.90644 0.0
H1293 H 0.4588 0.36412 0.99786 0.0
H1294 H 0.37097 0.39688 0.14499 0.0
H1295 H 0.40183 0.37323 0.09893 0.0
H1296 H 0.35157 0.33278 0.00788 0.0
C1297 C 0.43372 0.31532 0.91452 0.0
C1298 C 0.43549 0.35689 0.99994 0.0
C1299 C 0.45317 0.30287 0.88894 0.0
C1300 C 0.36131 0.39354 0.11861 0.0
C1301 C 0.37908 0.38015 0.09214 0.0
C1302 C 0.37488 0.33998 0.00571 0.0
C1303 C 0.44373 0.32031 0.9498 0.0
C1304 C 0.42382 0.33484 0.9767 0.0
C1305 C 0.36753 0.37548 0.05749 0.0
C1306 C 0.38671 0.36172 0.02928 0.0
H1307 H 0.5154 0.29367 0.94185 0.0
H1308 H 0.48147 0.31495 0.98629 0.0
H1309 H 0.38369 0.30955 0.96234 0.0
H1310 H 0.29711 0.40446 0.06967 0.0
H1311 H 0.3283 0.38129 0.0234 0.0
C1312 C 0.81487 0.45223 0.62851 0.0
C1313 C 0.80044 0.47793 0.64246 0.0
C1314 C 0.83169 0.43325 0.65089 0.0
C1315 C 0.87014 0.43341 0.7393 0.0
H1316 H 0.86833 0.34632 0.72965 0.0
C1317 C 0.90034 0.35329 0.85343 0.0
C1318 C 0.91998 0.32911 0.84651 0.0
C1319 C 0.88957 0.37118 0.82558 0.0
C1320 C 0.86942 0.37063 0.73222 0.0
H1321 H 0.79144 0.50323 0.69103 0.0
H1322 H 0.81981 0.46975 0.73011 0.0
H1323 H 0.84054 0.37772 0.6869 0.0
H1324 H 0.94395 0.30476 0.80498 0.0
H1325 H 0.92417 0.33593 0.75556 0.0
H1326 H 0.89791 0.42623 0.78549 0.0
C1327 C 0.81896 0.46465 0.70174 0.0
C1328 C 0.8535 0.38863 0.70781 0.0
C1329 C 0.80241 0.48372 0.67938 0.0
C1330 C 0.92883 0.32327 0.811 0.0
C1331 C 0.91748 0.34096 0.78283 0.0
C1332 C 0.88574 0.41545 0.76379 0.0
C1333 C 0.83429 0.4395 0.68772 0.0
C1334 C 0.85311 0.42023 0.7116 0.0
C1335 C 0.89782 0.36512 0.79001 0.0
C1336 C 0.885 0.3839 0.76095 0.0
H1337 H 0.81404 0.4473 0.60009 0.0
H1338 H 0.84336 0.41422 0.63913 0.0
H1339 H 0.8711 0.45767 0.74243 0.0
H1340 H 0.89333 0.35853 0.88055 0.0
H1341 H 0.87425 0.38949 0.83182 0.0
C1342 C 0.32814 0.09798 0.18423 0.0
C1343 C 0.33273 0.10547 0.14803 0.0
C1344 C 0.34543 0.11164 0.211 0.0
C1345 C 0.38627 0.17926 0.23383 0.0
H1346 H 0.43534 0.12911 0.29613 0.0
C1347 C 0.45225 0.21961 0.36114 0.0
C1348 C 0.48349 0.21475 0.35782 0.0
C1349 C 0.43225 0.20705 0.33622 0.0
C1350 C 0.42154 0.14327 0.27903 0.0
H1351 H 0.35859 0.13336 0.11141 0.0
H1352 H 0.38826 0.15792 0.15853 0.0
H1353 H 0.40277 0.10548 0.25094 0.0
H1354 H 0.5183 0.19265 0.32644 0.0
H1355 H 0.4832 0.17 0.28368 0.0
H1356 H 0.40487 0.21705 0.26227 0.0
C1357 C 0.37149 0.14125 0.16596 0.0
C1358 C 0.40296 0.12983 0.25337 0.0
C1359 C 0.35469 0.12709 0.1391 0.0
C1360 C 0.49435 0.19699 0.32943 0.0
C1361 C 0.47435 0.1839 0.30513 0.0
C1362 C 0.40435 0.19269 0.26008 0.0
C1363 C 0.36708 0.13349 0.20206 0.0
C1364 C 0.38551 0.14774 0.23029 0.0
C1365 C 0.44321 0.18886 0.30832 0.0
C1366 C 0.42238 0.17477 0.28249 0.0
H1367 H 0.31146 0.08127 0.19181 0.0
H1368 H 0.34171 0.10536 0.23872 0.0
H1369 H 0.37286 0.19343 0.21633 0.0
H1370 H 0.44335 0.23324 0.38279 0.0
H1371 H 0.40823 0.21106 0.33906 0.0
C1372 C 0.11805 0.6618 0.85275 0.0
C1373 C 0.10088 0.68786 0.84633 0.0
C1374 C 0.12982 0.64516 0.8243 0.0
C1375 C 0.14701 0.64867 0.72679 0.0
H1376 H 0.15118 0.56181 0.73817 0.0
C1377 C 0.18037 0.56169 0.6152 0.0
C1378 C 0.20289 0.54117 0.62584 0.0
C1379 C 0.16756 0.58154 0.64014 0.0
C1380 C 0.15018 0.58606 0.73469 0.0
H1381 H 0.08255 0.71696 0.805 0.0
H1382 H 0.10232 0.68729 0.75508 0.0
H1383 H 0.12847 0.5923 0.78516 0.0
H1384 H 0.22992 0.52578 0.67087 0.0
H1385 H 0.20722 0.55994 0.71419 0.0
H1386 H 0.16825 0.64187 0.67563 0.0
C1387 C 0.10731 0.68009 0.78217 0.0
C1388 C 0.13737 0.6036 0.76169 0.0
C1389 C 0.09586 0.69704 0.81077 0.0
C1390 C 0.21274 0.54135 0.66168 0.0
C1391 C 0.19964 0.56077 0.68658 0.0
C1392 C 0.15945 0.63097 0.69944 0.0
C1393 C 0.1243 0.65381 0.7886 0.0
C1394 C 0.13615 0.6352 0.75849 0.0
C1395 C 0.1767 0.58074 0.67618 0.0
C1396 C 0.16163 0.59958 0.70353 0.0
H1397 H 0.12263 0.6543 0.87986 0.0
H1398 H 0.14345 0.62555 0.83041 0.0
H1399 H 0.1467 0.67292 0.72348 0.0
H1400 H 0.1723 0.56208 0.58779 0.0
H1401 H 0.14983 0.59675 0.63158 0.0
C1402 C 0.69819 0.89946 0.18573 0.0
C1403 C 0.68316 0.9062 0.1535 0.0
C1404 C 0.68249 0.88685 0.21461 0.0
C1405 C 0.61237 0.84505 0.23579 0.0
H1406 H 0.62859 0.87069 0.33327 0.0
C1407 C 0.552 0.83697 0.38284 0.0
C1408 C 0.54186 0.80696 0.38127 0.0
C1409 C 0.572 0.84807 0.35698 0.0
C1410 C 0.6237 0.86339 0.30619 0.0
H1411 H 0.63968 0.90558 0.12666 0.0
H1412 H 0.61229 0.88412 0.17707 0.0
H1413 H 0.65705 0.8929 0.28381 0.0
H1414 H 0.54617 0.76456 0.35274 0.0
H1415 H 0.58157 0.78366 0.3083 0.0
H1416 H 0.57832 0.81642 0.25778 0.0
C1417 C 0.63634 0.88792 0.17982 0.0
C1418 C 0.64025 0.87587 0.27788 0.0
C1419 C 0.65203 0.90038 0.15095 0.0
C1420 C 0.55326 0.78791 0.35441 0.0
C1421 C 0.57342 0.79891 0.3288 0.0
C1422 C 0.5958 0.83268 0.264 0.0
C1423 C 0.65139 0.88082 0.21193 0.0
C1424 C 0.6346 0.867 0.2423 0.0
C1425 C 0.58244 0.82932 0.32919 0.0
C1426 C 0.60115 0.84176 0.29955 0.0
H1427 H 0.72218 0.90363 0.18858 0.0
H1428 H 0.69482 0.88137 0.23882 0.0
H1429 H 0.60772 0.83736 0.2088 0.0
H1430 H 0.54351 0.85224 0.40313 0.0
H1431 H 0.57826 0.87167 0.35793 0.0
C1432 C 0.92829 0.18509 0.44285 0.0
C1433 C 0.9191 0.18005 0.40728 0.0
C1434 C 0.91665 0.16724 0.4707 0.0
C1435 C 0.88328 0.0932 0.48837 0.0
H1436 H 0.84023 0.13065 0.56713 0.0
C1437 C 0.80098 0.02489 0.57454 0.0
C1438 C 0.7997 0.03059 0.61153 0.0
C1439 C 0.81725 0.04393 0.55183 0.0
C1440 C 0.85258 0.11978 0.54569 0.0
H1441 H 0.89148 0.15185 0.37283 0.0
H1442 H 0.87186 0.12061 0.42103 0.0
H1443 H 0.86793 0.16212 0.5244 0.0
H1444 H 0.81433 0.06097 0.65367 0.0
H1445 H 0.84322 0.09393 0.61409 0.0
H1446 H 0.86824 0.05095 0.50926 0.0
C1447 C 0.88769 0.13843 0.42755 0.0
C1448 C 0.86844 0.13783 0.52128 0.0
C1449 C 0.89877 0.15649 0.4 0.0
C1450 C 0.8146 0.05613 0.62521 0.0
C1451 C 0.83117 0.07505 0.6025 0.0
C1452 C 0.86777 0.07517 0.51289 0.0
C1453 C 0.89632 0.14369 0.46316 0.0
C1454 C 0.8833 0.12471 0.49193 0.0
C1455 C 0.83303 0.06896 0.56557 0.0
C1456 C 0.85154 0.08824 0.54133 0.0
H1457 H 0.94394 0.2031 0.44916 0.0
H1458 H 0.92365 0.17165 0.49802 0.0
H1459 H 0.89488 0.08252 0.46618 0.0
H1460 H 0.78965 0.00549 0.56311 0.0
H1461 H 0.81751 0.03893 0.52342 0.0
C1462 C 0.04981 0.20596 0.40118 0.0
C1463 C 0.04148 0.19171 0.36904 0.0
C1464 C 0.0689 0.19159 0.4255 0.0
C1465 C 0.12486 0.13105 0.43724 0.0
H1466 H 0.09919 0.13656 0.53642 0.0
C1467 C 0.18519 0.07158 0.55839 0.0
C1468 C 0.18891 0.09007 0.58873 0.0
C1469 C 0.16801 0.0816 0.52907 0.0
C1470 C 0.10676 0.13493 0.50887 0.0
H1471 H 0.04773 0.15153 0.33663 0.0
H1472 H 0.08127 0.12639 0.37941 0.0
H1473 H 0.06819 0.15886 0.48963 0.0
H1474 H 0.17851 0.13405 0.61128 0.0
H1475 H 0.14906 0.15126 0.56062 0.0
H1476 H 0.16376 0.10727 0.45699 0.0
C1477 C 0.07296 0.14877 0.38558 0.0
C1478 C 0.08903 0.14776 0.48207 0.0
C1479 C 0.05373 0.16317 0.36114 0.0
C1480 C 0.17591 0.119 0.58862 0.0
C1481 C 0.15885 0.12888 0.5596 0.0
C1482 C 0.14273 0.11814 0.46425 0.0
C1483 C 0.08015 0.16258 0.41838 0.0
C1484 C 0.0982 0.14663 0.44606 0.0
C1485 C 0.15419 0.11016 0.52979 0.0
C1486 C 0.13416 0.12064 0.50042 0.0
H1487 H 0.04104 0.22802 0.40805 0.0
H1488 H 0.07454 0.20309 0.45023 0.0
H1489 H 0.13244 0.12979 0.40968 0.0
H1490 H 0.19491 0.04917 0.55765 0.0
H1491 H 0.16478 0.06671 0.50638 0.0
C1492 C 0.12035 0.84437 0.40729 0.0
C1493 C 0.10101 0.81966 0.41265 0.0
C1494 C 0.13323 0.85923 0.4365 0.0
C1495 C 0.12169 0.8785 0.5293 0.0
H1496 H 0.20827 0.8916 0.53118 0.0
C1497 C 0.17897 0.94737 0.64241 0.0
C1498 C 0.20216 0.96702 0.63157 0.0
C1499 C 0.16749 0.92578 0.61864 0.0
C1500 C 0.18402 0.88844 0.53095 0.0
H1501 H 0.07948 0.79148 0.45274 0.0
H1502 H 0.10146 0.81823 0.50404 0.0
H1503 H 0.186 0.86145 0.48339 0.0
H1504 H 0.23141 0.9794 0.58724 0.0
H1505 H 0.21096 0.94276 0.54583 0.0
H1506 H 0.11933 0.90673 0.57569 0.0
C1507 C 0.10689 0.82567 0.47713 0.0
C1508 C 0.17135 0.87103 0.50368 0.0
C1509 C 0.09446 0.81036 0.44785 0.0
C1510 C 0.21379 0.96442 0.59667 0.0
C1511 C 0.20214 0.94316 0.5729 0.0
C1512 C 0.1343 0.89639 0.55632 0.0
C1513 C 0.12656 0.85006 0.47164 0.0
C1514 C 0.14006 0.8663 0.50231 0.0
C1515 C 0.17876 0.9236 0.58344 0.0
C1516 C 0.16559 0.90206 0.55709 0.0
H1517 H 0.12587 0.85201 0.38048 0.0
H1518 H 0.14815 0.87818 0.43165 0.0
H1519 H 0.09744 0.87524 0.52864 0.0
H1520 H 0.16955 0.94878 0.66916 0.0
H1521 H 0.14975 0.91085 0.62786 0.0
C1522 C 0.98006 0.79259 0.43183 0.0
C1523 C 0.97395 0.79058 0.39494 0.0
C1524 C 0.95829 0.80346 0.4555 0.0
C1525 C 0.89134 0.85189 0.4594 0.0
H1526 H 0.88359 0.81715 0.5544 0.0
C1527 C 0.80935 0.89853 0.56779 0.0
C1528 C 0.82203 0.90181 0.60215 0.0
C1529 C 0.82502 0.88311 0.54086 0.0
C1530 C 0.88558 0.82715 0.528 0.0
H1531 H 0.93991 0.79809 0.35405 0.0
H1532 H 0.90167 0.81704 0.39567 0.0
H1533 H 0.91558 0.79255 0.51003 0.0
H1534 H 0.86125 0.89166 0.63499 0.0
H1535 H 0.88839 0.86495 0.58816 0.0
H1536 H 0.86164 0.8868 0.47774 0.0
C1537 C 0.92349 0.81032 0.4061 0.0
C1538 C 0.90388 0.81307 0.5026 0.0
C1539 C 0.94532 0.79931 0.38233 0.0
C1540 C 0.85072 0.88947 0.60891 0.0
C1541 C 0.86622 0.87396 0.58213 0.0
C1542 C 0.87291 0.86596 0.48485 0.0
C1543 C 0.92983 0.81264 0.44293 0.0
C1544 C 0.90755 0.82566 0.46829 0.0
C1545 C 0.85353 0.8705 0.54787 0.0
C1546 C 0.87043 0.85409 0.51966 0.0
H1547 H 1.0019 0.7862 0.44251 0.0
H1548 H 0.9641 0.80543 0.4836 0.0
H1549 H 0.8939 0.86228 0.43329 0.0
H1550 H 0.78732 0.9078 0.56169 0.0
H1551 H 0.81466 0.8807 0.51471 0.0
C1552 C 0.61715 1.00215 0.05396 0.0
C1553 C 0.62984 0.97698 0.03681 0.0
C1554 C 0.58653 0.00882 0.04992 0.0
C1555 C 0.5137 0.97419 0.02337 0.0
H1556 H 0.48684 0.05741 0.02435 0.0
C1557 C 0.39622 0.0492 0.01175 0.0
C1558 C 0.37743 0.03064 0.0326 0.0
C1559 C 0.42698 0.04252 0.00813 0.0
C1560 C 0.4939 0.03404 0.02348 0.0
H1561 H 0.6206 0.93938 1.00134 0.0
H1562 H 0.56726 0.95145 0.99344 0.0
H1563 H 0.5406 0.04625 0.02434 0.0
H1564 H 0.37614 0.99074 0.06628 0.0
H1565 H 0.42958 0.97969 0.06094 0.0
H1566 H 0.46705 0.96197 0.02149 0.0
C1567 C 0.58075 0.96564 0.0108 0.0
C1568 C 0.5248 0.02761 0.02404 0.0
C1569 C 0.61135 0.95874 0.01523 0.0
C1570 C 0.38995 0.00533 0.04969 0.0
C1571 C 0.42064 0.99886 0.04641 0.0
C1572 C 0.48283 0.98062 0.02241 0.0
C1573 C 0.5679 0.99072 0.02822 0.0
C1574 C 0.5351 0.99759 0.02471 0.0
C1575 C 0.4396 0.01732 0.02558 0.0
C1576 C 0.47249 0.01061 0.0232 0.0
H1577 H 0.6308 0.0165 0.07099 0.0
H1578 H 0.57739 0.0279 0.0644 0.0
H1579 H 0.52068 0.9508 0.02412 0.0
H1580 H 0.38713 0.06874 0.99803 0.0
H1581 H 0.4408 0.05701 0.99148 0.0
C1582 C 0.047 0.61624 0.97652 0.0
C1583 C 0.02806 0.63704 0.95914 0.0
C1584 C 0.03901 0.58574 0.97815 0.0
C1585 C 0.99279 0.52863 0.93271 0.0
H1586 H 0.9979 0.48529 0.02278 0.0
C1587 C 0.94674 0.40759 0.94798 0.0
C1588 C 0.96482 0.38739 0.96751 0.0
C1589 C 0.95326 0.43845 0.94808 0.0
C1590 C 0.99662 0.49698 0.99733 0.0
H1591 H 0.98615 0.64218 0.92948 0.0
H1592 H 0.97243 0.58913 0.93226 0.0
H1593 H 0.01315 0.53813 0.02015 0.0
H1594 H 1.00372 0.38383 0.00279 0.0
H1595 H 0.01528 0.43724 0.00236 0.0
H1596 H 0.97677 0.4875 0.90966 0.0
C1597 C 0.99339 0.59632 0.94456 0.0
C1598 C 0.00538 0.52721 0.99587 0.0
C1599 C 1.00118 0.62674 0.94321 0.0
C1600 C 0.9892 0.39875 0.98755 0.0
C1601 C 0.99576 0.42947 0.98751 0.0
C1602 C 0.98424 0.49836 0.9341 0.0
C1603 C 0.01216 0.57553 0.96207 0.0
C1604 C 1.00352 0.54332 0.96355 0.0
C1605 C 0.97803 0.44968 0.96759 0.0
C1606 C 0.98608 0.48217 0.96642 0.0
H1607 H 0.0678 0.62354 0.98909 0.0
H1608 H 0.05398 0.57009 0.99162 0.0
H1609 H 0.99145 0.54045 0.90734 0.0
H1610 H 0.9278 0.39956 0.93228 0.0
H1611 H 0.93891 0.45351 0.93282 0.0
C1612 C 0.39731 0.45581 0.22912 0.0
C1613 C 0.37646 0.4793 0.22385 0.0
C1614 C 0.42827 0.46187 0.23048 0.0
C1615 C 0.4841 0.52182 0.24609 0.0
H1616 H 0.53562 0.47412 0.18412 0.0
C1617 C 0.6076 0.55564 0.21596 0.0
C1618 C 0.62898 0.53247 0.21193 0.0
C1619 C 0.57688 0.54884 0.21928 0.0
C1620 C 0.52172 0.48737 0.20207 0.0
H1621 H 0.37174 0.52772 0.21712 0.0
H1622 H 0.42574 0.53823 0.21989 0.0
H1623 H 0.48203 0.46233 0.18829 0.0
H1624 H 0.6349 0.48394 0.209 0.0
H1625 H 0.58164 0.4721 0.21577 0.0
H1626 H 0.52376 0.54668 0.26025 0.0
C1627 C 0.4181 0.51515 0.22289 0.0
C1628 C 0.49098 0.48061 0.20436 0.0
C1629 C 0.38719 0.50908 0.22111 0.0
C1630 C 0.61901 0.50238 0.21171 0.0
C1631 C 0.58838 0.49558 0.21541 0.0
C1632 C 0.51494 0.52839 0.24412 0.0
C1633 C 0.43897 0.49158 0.22705 0.0
C1634 C 0.47183 0.49789 0.22619 0.0
C1635 C 0.56687 0.51871 0.219 0.0
C1636 C 0.53413 0.51137 0.22187 0.0
H1637 H 0.38979 0.43263 0.23136 0.0
H1638 H 0.44389 0.44331 0.23402 0.0
H1639 H 0.46985 0.53533 0.26338 0.0
H1640 H 0.61454 0.57907 0.21612 0.0
H1641 H 0.56096 0.56728 0.22145 0.0
C1642 C 0.5465 0.39513 0.77629 0.0
C1643 C 0.52794 0.37418 0.79406 0.0
C1644 C 0.53875 0.42573 0.77561 0.0
C1645 C 0.49363 0.48239 0.82416 0.0
H1646 H 0.50041 0.52857 0.73627 0.0
C1647 C 0.44877 0.60446 0.81253 0.0
C1648 C 0.46704 0.62508 0.79382 0.0
C1649 C 0.45543 0.57361 0.81194 0.0
C1650 C 0.49867 0.51607 0.76113 0.0
H1651 H 0.48674 0.36895 0.82505 0.0
H1652 H 0.47332 0.4221 0.82371 0.0
H1653 H 0.5144 0.47536 0.73654 0.0
H1654 H 0.50669 0.62936 0.7599 0.0
H1655 H 0.51842 0.57592 0.75935 0.0
H1656 H 0.4782 0.52309 0.84889 0.0
C1657 C 0.49392 0.41498 0.81055 0.0
C1658 C 0.50671 0.4856 0.76126 0.0
C1659 C 0.50153 0.38446 0.81105 0.0
C1660 C 0.49199 0.61414 0.77445 0.0
C1661 C 0.49865 0.58341 0.77394 0.0
C1662 C 0.4857 0.51288 0.82407 0.0
C1663 C 0.51245 0.43597 0.79291 0.0
C1664 C 0.50427 0.46843 0.79277 0.0
C1665 C 0.48051 0.56275 0.7927 0.0
C1666 C 0.48816 0.53011 0.79257 0.0
H1667 H 0.56695 0.38792 0.76287 0.0
H1668 H 0.55359 0.44143 0.76202 0.0
H1669 H 0.49189 0.46984 0.84899 0.0
H1670 H 0.42938 0.61212 0.8277 0.0
H1671 H 0.44079 0.55824 0.82636 0.0
C1672 C 0.11456 0.49424 0.52572 0.0
C1673 C 0.12537 0.46916 0.54491 0.0
C1674 C 0.08382 0.50101 0.52521 0.0
C1675 C 0.01323 0.48791 0.57515 0.0
H1676 H 0.9757 0.51732 0.48789 0.0
C1677 C 0.88476 0.50227 0.56106 0.0
C1678 C 0.87424 0.52892 0.54484 0.0
C1679 C 0.9154 0.49516 0.56074 0.0
C1680 C 0.98597 0.50943 0.51252 0.0
H1681 H 0.11225 0.43133 0.57835 0.0
H1682 H 0.05834 0.44289 0.57694 0.0
H1683 H 0.02899 0.50333 0.48751 0.0
H1684 H 0.88763 0.5689 0.51533 0.0
H1685 H 0.94147 0.55634 0.51471 0.0
H1686 H 0.97009 0.49377 0.60003 0.0
C1687 C 0.07381 0.45757 0.56273 0.0
C1688 C 0.01647 0.5014 0.51234 0.0
C1689 C 0.10466 0.45083 0.56336 0.0
C1690 C 0.89507 0.54825 0.52811 0.0
C1691 C 0.92581 0.54099 0.52757 0.0
C1692 C 0.98272 0.49579 0.57527 0.0
C1693 C 0.06308 0.48283 0.54375 0.0
C1694 C 0.03047 0.4906 0.54368 0.0
C1695 C 0.93626 0.51442 0.54405 0.0
C1696 C 0.96878 0.50664 0.54397 0.0
H1697 H 0.12987 0.50899 0.51136 0.0
H1698 H 0.07641 0.5209 0.51082 0.0
H1699 H 0.02344 0.4802 0.5999 0.0
H1700 H 0.86932 0.48691 0.57431 0.0
H1701 H 0.92274 0.47437 0.57327 0.0
C1702 C 0.50356 0.12605 0.44102 0.0
C1703 C 0.5296 0.13638 0.45877 0.0
C1704 C 0.49585 0.09556 0.4416 0.0
C1705 C 0.50684 0.0257 0.49263 0.0
H1706 H 0.48065 0.98692 0.40476 0.0
C1707 C 0.49215 0.89713 0.4817 0.0
C1708 C 0.46785 0.88587 0.46143 0.0
C1709 C 0.49875 0.92787 0.4819 0.0
C1710 C 0.48748 0.9975 0.42963 0.0
H1711 H 0.5679 0.12281 0.49124 0.0
H1712 H 0.55433 0.06933 0.49227 0.0
H1713 H 0.49469 0.04009 0.40399 0.0
H1714 H 0.43124 0.89823 0.42568 0.0
H1715 H 0.44251 0.95217 0.4265 0.0
H1716 H 0.49948 0.98323 0.51837 0.0
C1717 C 0.53988 0.08497 0.47802 0.0
C1718 C 0.49562 0.02794 0.42916 0.0
C1719 C 0.54775 0.11552 0.47723 0.0
C1720 C 0.4501 0.90617 0.44159 0.0
C1721 C 0.4567 0.93703 0.44186 0.0
C1722 C 0.49856 0.99531 0.49315 0.0
C1723 C 0.51389 0.07469 0.46009 0.0
C1724 C 0.50546 0.04233 0.46062 0.0
C1725 C 0.48119 0.9482 0.46193 0.0
C1726 C 0.48891 0.98081 0.46162 0.0
H1727 H 0.48913 0.14151 0.42643 0.0
H1728 H 0.47552 0.08838 0.42789 0.0
H1729 H 0.51389 0.03632 0.5174 0.0
H1730 H 0.50642 0.88215 0.49718 0.0
H1731 H 0.51806 0.9356 0.49716 0.0
C1732 C 0.11349 0.01798 0.72966 0.0
C1733 C 0.12457 0.04241 0.70951 0.0
C1734 C 0.08278 0.01121 0.72995 0.0
C1735 C 0.01288 0.02223 0.6782 0.0
H1736 H 0.97458 0.99524 0.76611 0.0
C1737 C 0.88441 0.00665 0.69131 0.0
C1738 C 0.87405 0.98049 0.70874 0.0
C1739 C 0.91498 0.01404 0.69145 0.0
C1740 C 0.98507 1.00243 0.7413 0.0
H1741 H 0.11194 0.0791 0.67407 0.0
H1742 H 0.05795 0.06753 0.67507 0.0
H1743 H 0.02763 0.01004 0.7668 0.0
H1744 H 0.88763 0.94157 0.74006 0.0
H1745 H 0.94137 0.95465 0.7404 0.0
H1746 H 0.97016 0.01486 0.65283 0.0
C1747 C 0.07325 0.05338 0.69026 0.0
C1748 C 0.01543 0.01094 0.74166 0.0
C1749 C 0.10412 0.06013 0.68987 0.0
C1750 C 0.89496 0.96184 0.72636 0.0
C1751 C 0.92564 0.96941 0.72673 0.0
C1752 C 0.98248 0.01387 0.67789 0.0
C1753 C 0.06228 0.02875 0.71022 0.0
C1754 C 0.02971 0.02083 0.71008 0.0
C1755 C 0.93591 0.99556 0.70917 0.0
C1756 C 0.9683 1.00384 0.70942 0.0
H1757 H 0.12859 1.0037 0.74497 0.0
H1758 H 0.0752 0.99178 0.74509 0.0
H1759 H 0.02333 0.02923 0.65329 0.0
H1760 H 0.86889 0.02145 0.67733 0.0
H1761 H 0.92219 0.0345 0.67805 0.0
C1762 C 0.98889 0.11098 0.26646 0.0
C1763 C 0.96453 0.12237 0.28652 0.0
C1764 C 0.99569 0.08032 0.26697 0.0
C1765 C 0.96473 0.00539 0.28544 0.0
H1766 H 0.0486 0.9837 0.30112 0.0
C1767 C 1.00117 0.88316 0.31394 0.0
C1768 C 0.02828 0.87287 0.29863 0.0
C1769 C 0.99318 0.91352 0.31194 0.0
C1770 C 0.02516 0.98933 0.29619 0.0
H1771 H 0.92769 0.11026 0.3221 0.0
H1772 H 0.93955 0.05635 0.32271 0.0
H1773 H 0.03428 0.03669 0.29812 0.0
H1774 H 0.06822 0.88631 0.26902 0.0
H1775 H 0.05396 0.93938 0.26484 0.0
H1776 H 0.9556 0.95808 0.28304 0.0
C1777 C 0.95329 0.07137 0.30661 0.0
C1778 C 0.01696 0.01968 0.2946 0.0
C1779 C 0.94656 0.1022 0.3063 0.0
C1780 C 0.04729 0.89362 0.28128 0.0
C1781 C 0.03915 0.92402 0.27902 0.0
C1782 C 0.97297 0.975 0.28675 0.0
C1783 C 0.97823 0.06026 0.28738 0.0
C1784 C 0.98668 0.028 0.28922 0.0
C1785 C 0.01198 0.93431 0.29432 0.0
C1786 C 1.00328 0.96661 0.29224 0.0
H1787 H 1.00316 0.12582 0.25079 0.0
H1788 H 0.01475 0.07229 0.25147 0.0
H1789 H 0.94129 0.01121 0.28086 0.0
H1790 H 0.98617 0.86777 0.32783 0.0
H1791 H 0.97241 0.92073 0.32463 0.0
loop_
_geom_bond_atom_site_label_1
_geom_bond_atom_site_label_2
_geom_bond_distance
_geom_bond_site_symmetry_2
_ccdc_geom_bond_type
Fe0 O2 1.918 . S
Fe0 O5 1.997 . S
Fe0 O6 2.002 . S
Fe0 O11 1.976 . S
Fe0 O14 1.996 . S
Fe1 O2 1.918 . S
Fe1 O9 1.997 1_545 S
Fe1 O12 1.996 . S
Fe1 O16 1.976 1_554 S
Fe1 O19 2.002 . S
O2 Fe0 1.918 . S
O2 Fe1 1.918 . S
O2 Fe3 1.918 . S
Fe3 O2 1.918 . S
Fe3 O4 2.002 . S
Fe3 O13 1.976 . S
Fe3 O17 1.996 1_554 S
Fe3 O20 1.997 . S
O4 Fe3 2.002 . S
O4 C21 1.295 . S
O5 Fe0 1.997 . S
O5 C21 1.235 . S
O6 Fe0 2.002 . S
O6 C7 1.295 1_545 S
C7 O6 1.295 1_565 S
C7 O9 1.235 . S
C8 O13 1.287 . S
C8 O14 1.255 . S
O9 Fe1 1.997 1_565 S
O9 C7 1.235 . S
C10 O16 1.287 . S
C10 O17 1.255 . S
O11 Fe0 1.976 . S
O11 C18 1.287 . S
O12 Fe1 1.996 . S
O12 C18 1.255 . S
O13 Fe3 1.976 . S
O13 C8 1.287 . S
O14 Fe0 1.996 . S
O14 C8 1.255 . S
C15 O19 1.295 . S
C15 O20 1.235 . S
O16 Fe1 1.976 1_556 S
O16 C10 1.287 . S
O17 Fe3 1.996 1_556 S
O17 C10 1.255 . S
C18 O11 1.287 . S
C18 O12 1.255 . S
O19 Fe1 2.002 . S
O19 C15 1.295 . S
O20 Fe3 1.997 . S
O20 C15 1.235 . S
C21 O4 1.295 . S
C21 O5 1.235 . S
Fe22 O24 1.918 . S
Fe22 O27 1.997 . S
Fe22 O28 2.002 1_455 S
Fe22 O33 1.976 . S
Fe22 O36 1.996 1_556 S
Fe23 O24 1.918 . S
Fe23 O31 1.997 . S
Fe23 O34 1.996 . S
Fe23 O38 1.976 . S
Fe23 O41 2.002 . S
O24 Fe22 1.918 . S
O24 Fe23 1.918 . S
O24 Fe25 1.918 . S
Fe25 O24 1.918 . S
Fe25 O26 2.002 . S
Fe25 O35 1.976 1_556 S
Fe25 O39 1.996 . S
Fe25 O42 1.997 . S
O26 Fe25 2.002 . S
O26 C43 1.295 . S
O27 Fe22 1.997 . S
O27 C43 1.235 . S
O28 Fe22 2.002 1_655 S
O28 C29 1.295 . S
C29 O28 1.295 . S
C29 O31 1.235 1_655 S
C30 O35 1.287 . S
C30 O36 1.255 . S
O31 Fe23 1.997 . S
O31 C29 1.235 1_455 S
C32 O38 1.287 . S
C32 O39 1.255 . S
O33 Fe22 1.976 . S
O33 C40 1.287 . S
O34 Fe23 1.996 . S
O34 C40 1.255 . S
O35 Fe25 1.976 1_554 S
O35 C30 1.287 . S
O36 Fe22 1.996 1_554 S
O36 C30 1.255 . S
C37 O41 1.295 . S
C37 O42 1.235 . S
O38 Fe23 1.976 . S
O38 C32 1.287 . S
O39 Fe25 1.996 . S
O39 C32 1.255 . S
C40 O33 1.287 . S
C40 O34 1.255 . S
O41 Fe23 2.002 . S
O41 C37 1.295 . S
O42 Fe25 1.997 . S
O42 C37 1.235 . S
C43 O26 1.295 . S
C43 O27 1.235 . S
Fe44 O46 1.918 . S
Fe44 O49 1.997 . S
Fe44 O50 2.002 . S
Fe44 O55 1.976 . S
Fe44 O58 1.996 . S
Fe45 O46 1.918 . S
Fe45 O53 1.997 1_565 S
Fe45 O56 1.996 . S
Fe45 O60 1.976 1_554 S
Fe45 O63 2.002 . S
O46 Fe44 1.918 . S
O46 Fe45 1.918 . S
O46 Fe47 1.918 . S
Fe47 O46 1.918 . S
Fe47 O48 2.002 . S
Fe47 O57 1.976 . S
Fe47 O61 1.996 1_554 S
Fe47 O64 1.997 . S
O48 Fe47 2.002 . S
O48 C65 1.295 . S
O49 Fe44 1.997 . S
O49 C65 1.235 . S
O50 Fe44 2.002 . S
O50 C51 1.295 1_565 S
C51 O50 1.295 1_545 S
C51 O53 1.235 . S
C52 O57 1.287 . S
C52 O58 1.255 . S
O53 Fe45 1.997 1_545 S
O53 C51 1.235 . S
C54 O60 1.287 . S
C54 O61 1.255 . S
O55 Fe44 1.976 . S
O55 C62 1.287 . S
O56 Fe45 1.996 . S
O56 C62 1.255 . S
O57 Fe47 1.976 . S
O57 C52 1.287 . S
O58 Fe44 1.996 . S
O58 C52 1.255 . S
C59 O63 1.295 . S
C59 O64 1.235 . S
O60 Fe45 1.976 1_556 S
O60 C54 1.287 . S
O61 Fe47 1.996 1_556 S
O61 C54 1.255 . S
C62 O55 1.287 . S
C62 O56 1.255 . S
O63 Fe45 2.002 . S
O63 C59 1.295 . S
O64 Fe47 1.997 . S
O64 C59 1.235 . S
C65 O48 1.295 . S
C65 O49 1.235 . S
Fe66 O68 1.918 . S
Fe66 O71 1.997 . S
Fe66 O72 2.002 1_655 S
Fe66 O77 1.976 . S
Fe66 O80 1.996 1_556 S
Fe67 O68 1.918 . S
Fe67 O75 1.997 . S
Fe67 O78 1.996 . S
Fe67 O82 1.976 . S
Fe67 O85 2.002 . S
O68 Fe66 1.918 . S
O68 Fe67 1.918 . S
O68 Fe69 1.918 . S
Fe69 O68 1.918 . S
Fe69 O70 2.002 . S
Fe69 O79 1.976 1_556 S
Fe69 O83 1.996 . S
Fe69 O86 1.997 . S
O70 Fe69 2.002 . S
O70 C87 1.295 . S
O71 Fe66 1.997 . S
O71 C87 1.235 . S
O72 Fe66 2.002 1_455 S
O72 C73 1.295 . S
C73 O72 1.295 . S
C73 O75 1.235 1_455 S
C74 O79 1.287 . S
C74 O80 1.255 . S
O75 Fe67 1.997 . S
O75 C73 1.235 1_655 S
C76 O82 1.287 . S
C76 O83 1.255 . S
O77 Fe66 1.976 . S
O77 C84 1.287 . S
O78 Fe67 1.996 . S
O78 C84 1.255 . S
O79 Fe69 1.976 1_554 S
O79 C74 1.287 . S
O80 Fe66 1.996 1_554 S
O80 C74 1.255 . S
C81 O85 1.295 . S
C81 O86 1.235 . S
O82 Fe67 1.976 . S
O82 C76 1.287 . S
O83 Fe69 1.996 . S
O83 C76 1.255 . S
C84 O77 1.287 . S
C84 O78 1.255 . S
O85 Fe67 2.002 . S
O85 C81 1.295 . S
O86 Fe69 1.997 . S
O86 C81 1.235 . S
C87 O70 1.295 . S
C87 O71 1.235 . S
Fe88 O90 1.918 . S
Fe88 O93 1.997 . S
Fe88 O94 2.002 . S
Fe88 O99 1.976 . S
Fe88 O102 1.996 . S
Fe89 O90 1.918 . S
Fe89 O97 1.997 . S
Fe89 O100 1.996 . S
Fe89 O104 1.976 . S
Fe89 O107 2.002 . S
O90 Fe88 1.918 . S
O90 Fe89 1.918 . S
O90 Fe91 1.918 . S
Fe91 O90 1.918 . S
Fe91 O92 2.002 . S
Fe91 O101 1.976 . S
Fe91 O105 1.996 . S
Fe91 O108 1.997 . S
O92 Fe91 2.002 . S
O92 C109 1.295 . S
O93 Fe88 1.997 . S
O93 C109 1.235 . S
O94 Fe88 2.002 . S
O94 C95 1.295 . S
C95 O94 1.295 . S
C95 O97 1.235 . S
C96 O101 1.287 . S
C96 O102 1.255 . S
O97 Fe89 1.997 . S
O97 C95 1.235 . S
C98 O104 1.287 . S
C98 O105 1.255 . S
O99 Fe88 1.976 . S
O99 C106 1.287 . S
O100 Fe89 1.996 . S
O100 C106 1.255 . S
O101 Fe91 1.976 . S
O101 C96 1.287 . S
O102 Fe88 1.996 . S
O102 C96 1.255 . S
C103 O107 1.295 . S
C103 O108 1.235 . S
O104 Fe89 1.976 . S
O104 C98 1.287 . S
O105 Fe91 1.996 . S
O105 C98 1.255 . S
C106 O99 1.287 . S
C106 O100 1.255 . S
O107 Fe89 2.002 . S
O107 C103 1.295 . S
O108 Fe91 1.997 . S
O108 C103 1.235 . S
C109 O92 1.295 . S
C109 O93 1.235 . S
Fe110 O112 1.918 . S
Fe110 O115 1.997 . S
Fe110 O116 2.002 . S
Fe110 O121 1.976 . S
Fe110 O124 1.996 . S
Fe111 O112 1.918 . S
Fe111 O119 1.997 . S
Fe111 O122 1.996 . S
Fe111 O126 1.976 . S
Fe111 O129 2.002 . S
O112 Fe110 1.918 . S
O112 Fe111 1.918 . S
O112 Fe113 1.918 . S
Fe113 O112 1.918 . S
Fe113 O114 2.002 . S
Fe113 O123 1.976 . S
Fe113 O127 1.996 . S
Fe113 O130 1.997 . S
O114 Fe113 2.002 . S
O114 C131 1.295 . S
O115 Fe110 1.997 . S
O115 C131 1.235 . S
O116 Fe110 2.002 . S
O116 C117 1.295 . S
C117 O116 1.295 . S
C117 O119 1.235 . S
C118 O123 1.287 . S
C118 O124 1.255 . S
O119 Fe111 1.997 . S
O119 C117 1.235 . S
C120 O126 1.287 . S
C120 O127 1.255 . S
O121 Fe110 1.976 . S
O121 C128 1.287 . S
O122 Fe111 1.996 . S
O122 C128 1.255 . S
O123 Fe113 1.976 . S
O123 C118 1.287 . S
O124 Fe110 1.996 . S
O124 C118 1.255 . S
C125 O129 1.295 . S
C125 O130 1.235 . S
O126 Fe111 1.976 . S
O126 C120 1.287 . S
O127 Fe113 1.996 . S
O127 C120 1.255 . S
C128 O121 1.287 . S
C128 O122 1.255 . S
O129 Fe111 2.002 . S
O129 C125 1.295 . S
O130 Fe113 1.997 . S
O130 C125 1.235 . S
C131 O114 1.295 . S
C131 O115 1.235 . S
Fe132 O134 1.918 . S
Fe132 O137 1.997 . S
Fe132 O138 2.002 . S
Fe132 O143 1.976 . S
Fe132 O146 1.996 . S
Fe133 O134 1.918 . S
Fe133 O141 1.997 . S
Fe133 O144 1.996 . S
Fe133 O148 1.976 . S
Fe133 O151 2.002 . S
O134 Fe132 1.918 . S
O134 Fe133 1.918 . S
O134 Fe135 1.918 . S
Fe135 O134 1.918 . S
Fe135 O136 2.002 . S
Fe135 O145 1.976 . S
Fe135 O149 1.996 . S
Fe135 O152 1.997 . S
O136 Fe135 2.002 . S
O136 C153 1.295 . S
O137 Fe132 1.997 . S
O137 C153 1.235 . S
O138 Fe132 2.002 . S
O138 C139 1.295 . S
C139 O138 1.295 . S
C139 O141 1.235 . S
C140 O145 1.287 . S
C140 O146 1.255 . S
O141 Fe133 1.997 . S
O141 C139 1.235 . S
C142 O148 1.287 . S
C142 O149 1.255 . S
O143 Fe132 1.976 . S
O143 C150 1.287 . S
O144 Fe133 1.996 . S
O144 C150 1.255 . S
O145 Fe135 1.976 . S
O145 C140 1.287 . S
O146 Fe132 1.996 . S
O146 C140 1.255 . S
C147 O151 1.295 . S
C147 O152 1.235 . S
O148 Fe133 1.976 . S
O148 C142 1.287 . S
O149 Fe135 1.996 . S
O149 C142 1.255 . S
C150 O143 1.287 . S
C150 O144 1.255 . S
O151 Fe133 2.002 . S
O151 C147 1.295 . S
O152 Fe135 1.997 . S
O152 C147 1.235 . S
C153 O136 1.295 . S
C153 O137 1.235 . S
Fe154 O156 1.918 . S
Fe154 O159 1.997 . S
Fe154 O160 2.002 . S
Fe154 O165 1.976 . S
Fe154 O168 1.996 . S
Fe155 O156 1.918 . S
Fe155 O163 1.997 . S
Fe155 O166 1.996 . S
Fe155 O170 1.976 . S
Fe155 O173 2.002 . S
O156 Fe154 1.918 . S
O156 Fe155 1.918 . S
O156 Fe157 1.918 . S
Fe157 O156 1.918 . S
Fe157 O158 2.002 . S
Fe157 O167 1.976 . S
Fe157 O171 1.996 . S
Fe157 O174 1.997 . S
O158 Fe157 2.002 . S
O158 C175 1.295 . S
O159 Fe154 1.997 . S
O159 C175 1.235 . S
O160 Fe154 2.002 . S
O160 C161 1.295 . S
C161 O160 1.295 . S
C161 O163 1.235 . S
C162 O167 1.287 . S
C162 O168 1.255 . S
O163 Fe155 1.997 . S
O163 C161 1.235 . S
C164 O170 1.287 . S
C164 O171 1.255 . S
O165 Fe154 1.976 . S
O165 C172 1.287 . S
O166 Fe155 1.996 . S
O166 C172 1.255 . S
O167 Fe157 1.976 . S
O167 C162 1.287 . S
O168 Fe154 1.996 . S
O168 C162 1.255 . S
C169 O173 1.295 . S
C169 O174 1.235 . S
O170 Fe155 1.976 . S
O170 C164 1.287 . S
O171 Fe157 1.996 . S
O171 C164 1.255 . S
C172 O165 1.287 . S
C172 O166 1.255 . S
O173 Fe155 2.002 . S
O173 C169 1.295 . S
O174 Fe157 1.997 . S
O174 C169 1.235 . S
C175 O158 1.295 . S
C175 O159 1.235 . S
Fe176 O178 1.918 . S
Fe176 O181 1.997 . S
Fe176 O182 2.002 . S
Fe176 O187 1.976 . S
Fe176 O190 1.996 . S
Fe177 O178 1.918 . S
Fe177 O185 1.997 . S
Fe177 O188 1.996 . S
Fe177 O192 1.976 . S
Fe177 O195 2.002 . S
O178 Fe176 1.918 . S
O178 Fe177 1.918 . S
O178 Fe179 1.918 . S
Fe179 O178 1.918 . S
Fe179 O180 2.002 . S
Fe179 O189 1.976 . S
Fe179 O193 1.996 . S
Fe179 O196 1.997 . S
O180 Fe179 2.002 . S
O180 C197 1.295 . S
O181 Fe176 1.997 . S
O181 C197 1.235 . S
O182 Fe176 2.002 . S
O182 C183 1.295 . S
C183 O182 1.295 . S
C183 O185 1.235 . S
C184 O189 1.287 . S
C184 O190 1.255 . S
O185 Fe177 1.997 . S
O185 C183 1.235 . S
C186 O192 1.287 . S
C186 O193 1.255 . S
O187 Fe176 1.976 . S
O187 C194 1.287 . S
O188 Fe177 1.996 . S
O188 C194 1.255 . S
O189 Fe179 1.976 . S
O189 C184 1.287 . S
O190 Fe176 1.996 . S
O190 C184 1.255 . S
C191 O195 1.295 . S
C191 O196 1.235 . S
O192 Fe177 1.976 . S
O192 C186 1.287 . S
O193 Fe179 1.996 . S
O193 C186 1.255 . S
C194 O187 1.287 . S
C194 O188 1.255 . S
O195 Fe177 2.002 . S
O195 C191 1.295 . S
O196 Fe179 1.997 . S
O196 C191 1.235 . S
C197 O180 1.295 . S
C197 O181 1.235 . S
Fe198 O200 1.918 . S
Fe198 O203 1.997 . S
Fe198 O204 2.002 . S
Fe198 O209 1.976 . S
Fe198 O212 1.996 . S
Fe199 O200 1.918 . S
Fe199 O207 1.997 . S
Fe199 O210 1.996 . S
Fe199 O214 1.976 . S
Fe199 O217 2.002 . S
O200 Fe198 1.918 . S
O200 Fe199 1.918 . S
O200 Fe201 1.918 . S
Fe201 O200 1.918 . S
Fe201 O202 2.002 . S
Fe201 O211 1.976 . S
Fe201 O215 1.996 . S
Fe201 O218 1.997 . S
O202 Fe201 2.002 . S
O202 C219 1.295 . S
O203 Fe198 1.997 . S
O203 C219 1.235 . S
O204 Fe198 2.002 . S
O204 C205 1.295 . S
C205 O204 1.295 . S
C205 O207 1.235 . S
C206 O211 1.287 . S
C206 O212 1.255 . S
O207 Fe199 1.997 . S
O207 C205 1.235 . S
C208 O214 1.287 . S
C208 O215 1.255 . S
O209 Fe198 1.976 . S
O209 C216 1.287 . S
O210 Fe199 1.996 . S
O210 C216 1.255 . S
O211 Fe201 1.976 . S
O211 C206 1.287 . S
O212 Fe198 1.996 . S
O212 C206 1.255 . S
C213 O217 1.295 . S
C213 O218 1.235 . S
O214 Fe199 1.976 . S
O214 C208 1.287 . S
O215 Fe201 1.996 . S
O215 C208 1.255 . S
C216 O209 1.287 . S
C216 O210 1.255 . S
O217 Fe199 2.002 . S
O217 C213 1.295 . S
O218 Fe201 1.997 . S
O218 C213 1.235 . S
C219 O202 1.295 . S
C219 O203 1.235 . S
Fe220 O222 1.918 . S
Fe220 O225 1.997 . S
Fe220 O226 2.002 . S
Fe220 O231 1.976 . S
Fe220 O234 1.996 . S
Fe221 O222 1.918 . S
Fe221 O229 1.997 . S
Fe221 O232 1.996 . S
Fe221 O236 1.976 . S
Fe221 O239 2.002 . S
O222 Fe220 1.918 . S
O222 Fe221 1.918 . S
O222 Fe223 1.918 . S
Fe223 O222 1.918 . S
Fe223 O224 2.002 . S
Fe223 O233 1.976 . S
Fe223 O237 1.996 . S
Fe223 O240 1.997 . S
O224 Fe223 2.002 . S
O224 C241 1.295 . S
O225 Fe220 1.997 . S
O225 C241 1.235 . S
O226 Fe220 2.002 . S
O226 C227 1.295 . S
C227 O226 1.295 . S
C227 O229 1.235 . S
C228 O233 1.287 . S
C228 O234 1.255 . S
O229 Fe221 1.997 . S
O229 C227 1.235 . S
C230 O236 1.287 . S
C230 O237 1.255 . S
O231 Fe220 1.976 . S
O231 C238 1.287 . S
O232 Fe221 1.996 . S
O232 C238 1.255 . S
O233 Fe223 1.976 . S
O233 C228 1.287 . S
O234 Fe220 1.996 . S
O234 C228 1.255 . S
C235 O239 1.295 . S
C235 O240 1.235 . S
O236 Fe221 1.976 . S
O236 C230 1.287 . S
O237 Fe223 1.996 . S
O237 C230 1.255 . S
C238 O231 1.287 . S
C238 O232 1.255 . S
O239 Fe221 2.002 . S
O239 C235 1.295 . S
O240 Fe223 1.997 . S
O240 C235 1.235 . S
C241 O224 1.295 . S
C241 O225 1.235 . S
Fe242 O244 1.918 . S
Fe242 O247 1.997 . S
Fe242 O248 2.002 . S
Fe242 O253 1.976 . S
Fe242 O256 1.996 . S
Fe243 O244 1.918 . S
Fe243 O251 1.997 . S
Fe243 O254 1.996 . S
Fe243 O258 1.976 . S
Fe243 O261 2.002 . S
O244 Fe242 1.918 . S
O244 Fe243 1.918 . S
O244 Fe245 1.918 . S
Fe245 O244 1.918 . S
Fe245 O246 2.002 . S
Fe245 O255 1.976 . S
Fe245 O259 1.996 . S
Fe245 O262 1.997 . S
O246 Fe245 2.002 . S
O246 C263 1.295 . S
O247 Fe242 1.997 . S
O247 C263 1.235 . S
O248 Fe242 2.002 . S
O248 C249 1.295 . S
C249 O248 1.295 . S
C249 O251 1.235 . S
C250 O255 1.287 . S
C250 O256 1.255 . S
O251 Fe243 1.997 . S
O251 C249 1.235 . S
C252 O258 1.287 . S
C252 O259 1.255 . S
O253 Fe242 1.976 . S
O253 C260 1.287 . S
O254 Fe243 1.996 . S
O254 C260 1.255 . S
O255 Fe245 1.976 . S
O255 C250 1.287 . S
O256 Fe242 1.996 . S
O256 C250 1.255 . S
C257 O261 1.295 . S
C257 O262 1.235 . S
O258 Fe243 1.976 . S
O258 C252 1.287 . S
O259 Fe245 1.996 . S
O259 C252 1.255 . S
C260 O253 1.287 . S
C260 O254 1.255 . S
O261 Fe243 2.002 . S
O261 C257 1.295 . S
O262 Fe245 1.997 . S
O262 C257 1.235 . S
C263 O246 1.295 . S
C263 O247 1.235 . S
Fe264 O266 1.918 . S
Fe264 O269 1.997 . S
Fe264 O270 2.002 . S
Fe264 O275 1.976 . S
Fe264 O278 1.996 . S
Fe265 O266 1.918 . S
Fe265 O273 1.997 1_565 S
Fe265 O276 1.996 . S
Fe265 O280 1.976 . S
Fe265 O283 2.002 . S
O266 Fe264 1.918 . S
O266 Fe265 1.918 . S
O266 Fe267 1.918 . S
Fe267 O266 1.918 . S
Fe267 O268 2.002 . S
Fe267 O277 1.976 . S
Fe267 O281 1.996 . S
Fe267 O284 1.997 . S
O268 Fe267 2.002 . S
O268 C285 1.295 . S
O269 Fe264 1.997 . S
O269 C285 1.235 . S
O270 Fe264 2.002 . S
O270 C271 1.295 1_565 S
C271 O270 1.295 1_545 S
C271 O273 1.235 . S
C272 O277 1.287 . S
C272 O278 1.255 . S
O273 Fe265 1.997 1_545 S
O273 C271 1.235 . S
C274 O280 1.287 . S
C274 O281 1.255 . S
O275 Fe264 1.976 . S
O275 C282 1.287 . S
O276 Fe265 1.996 . S
O276 C282 1.255 . S
O277 Fe267 1.976 . S
O277 C272 1.287 . S
O278 Fe264 1.996 . S
O278 C272 1.255 . S
C279 O283 1.295 . S
C279 O284 1.235 . S
O280 Fe265 1.976 . S
O280 C274 1.287 . S
O281 Fe267 1.996 . S
O281 C274 1.255 . S
C282 O275 1.287 . S
C282 O276 1.255 . S
O283 Fe265 2.002 . S
O283 C279 1.295 . S
O284 Fe267 1.997 . S
O284 C279 1.235 . S
C285 O268 1.295 . S
C285 O269 1.235 . S
Fe286 O288 1.918 . S
Fe286 O291 1.997 . S
Fe286 O292 2.002 1_655 S
Fe286 O297 1.976 . S
Fe286 O300 1.996 . S
Fe287 O288 1.918 . S
Fe287 O295 1.997 . S
Fe287 O298 1.996 . S
Fe287 O302 1.976 . S
Fe287 O305 2.002 . S
O288 Fe286 1.918 . S
O288 Fe287 1.918 . S
O288 Fe289 1.918 . S
Fe289 O288 1.918 . S
Fe289 O290 2.002 . S
Fe289 O299 1.976 . S
Fe289 O303 1.996 . S
Fe289 O306 1.997 . S
O290 Fe289 2.002 . S
O290 C307 1.295 . S
O291 Fe286 1.997 . S
O291 C307 1.235 . S
O292 Fe286 2.002 1_455 S
O292 C293 1.295 . S
C293 O292 1.295 . S
C293 O295 1.235 1_455 S
C294 O299 1.287 . S
C294 O300 1.255 . S
O295 Fe287 1.997 . S
O295 C293 1.235 1_655 S
C296 O302 1.287 . S
C296 O303 1.255 . S
O297 Fe286 1.976 . S
O297 C304 1.287 . S
O298 Fe287 1.996 . S
O298 C304 1.255 . S
O299 Fe289 1.976 . S
O299 C294 1.287 . S
O300 Fe286 1.996 . S
O300 C294 1.255 . S
C301 O305 1.295 . S
C301 O306 1.235 . S
O302 Fe287 1.976 . S
O302 C296 1.287 . S
O303 Fe289 1.996 . S
O303 C296 1.255 . S
C304 O297 1.287 . S
C304 O298 1.255 . S
O305 Fe287 2.002 . S
O305 C301 1.295 . S
O306 Fe289 1.997 . S
O306 C301 1.235 . S
C307 O290 1.295 . S
C307 O291 1.235 . S
Fe308 O310 1.918 . S
Fe308 O313 1.997 . S
Fe308 O314 2.002 . S
Fe308 O319 1.976 . S
Fe308 O322 1.996 . S
Fe309 O310 1.918 . S
Fe309 O317 1.997 1_545 S
Fe309 O320 1.996 . S
Fe309 O324 1.976 . S
Fe309 O327 2.002 . S
O310 Fe308 1.918 . S
O310 Fe309 1.918 . S
O310 Fe311 1.918 . S
Fe311 O310 1.918 . S
Fe311 O312 2.002 . S
Fe311 O321 1.976 . S
Fe311 O325 1.996 . S
Fe311 O328 1.997 . S
O312 Fe311 2.002 . S
O312 C329 1.295 . S
O313 Fe308 1.997 . S
O313 C329 1.235 . S
O314 Fe308 2.002 . S
O314 C315 1.295 1_545 S
C315 O314 1.295 1_565 S
C315 O317 1.235 . S
C316 O321 1.287 . S
C316 O322 1.255 . S
O317 Fe309 1.997 1_565 S
O317 C315 1.235 . S
C318 O324 1.287 . S
C318 O325 1.255 . S
O319 Fe308 1.976 . S
O319 C326 1.287 . S
O320 Fe309 1.996 . S
O320 C326 1.255 . S
O321 Fe311 1.976 . S
O321 C316 1.287 . S
O322 Fe308 1.996 . S
O322 C316 1.255 . S
C323 O327 1.295 . S
C323 O328 1.235 . S
O324 Fe309 1.976 . S
O324 C318 1.287 . S
O325 Fe311 1.996 . S
O325 C318 1.255 . S
C326 O319 1.287 . S
C326 O320 1.255 . S
O327 Fe309 2.002 . S
O327 C323 1.295 . S
O328 Fe311 1.997 . S
O328 C323 1.235 . S
C329 O312 1.295 . S
C329 O313 1.235 . S
Fe330 O332 1.918 . S
Fe330 O335 1.997 . S
Fe330 O336 2.002 . S
Fe330 O341 1.976 . S
Fe330 O344 1.996 . S
Fe331 O332 1.918 . S
Fe331 O339 1.997 . S
Fe331 O342 1.996 . S
Fe331 O346 1.976 . S
Fe331 O349 2.002 1_455 S
O332 Fe330 1.918 . S
O332 Fe331 1.918 . S
O332 Fe333 1.918 . S
Fe333 O332 1.918 . S
Fe333 O334 2.002 . S
Fe333 O343 1.976 . S
Fe333 O347 1.996 . S
Fe333 O350 1.997 . S
O334 Fe333 2.002 . S
O334 C351 1.295 . S
O335 Fe330 1.997 . S
O335 C351 1.235 . S
O336 Fe330 2.002 . S
O336 C337 1.295 . S
C337 O336 1.295 . S
C337 O339 1.235 . S
C338 O343 1.287 . S
C338 O344 1.255 . S
O339 Fe331 1.997 . S
O339 C337 1.235 . S
C340 O346 1.287 . S
C340 O347 1.255 . S
O341 Fe330 1.976 . S
O341 C348 1.287 . S
O342 Fe331 1.996 . S
O342 C348 1.255 . S
O343 Fe333 1.976 . S
O343 C338 1.287 . S
O344 Fe330 1.996 . S
O344 C338 1.255 . S
C345 O349 1.295 . S
C345 O350 1.235 1_655 S
O346 Fe331 1.976 . S
O346 C340 1.287 . S
O347 Fe333 1.996 . S
O347 C340 1.255 . S
C348 O341 1.287 . S
C348 O342 1.255 . S
O349 Fe331 2.002 1_655 S
O349 C345 1.295 . S
O350 Fe333 1.997 . S
O350 C345 1.235 1_455 S
C351 O334 1.295 . S
C351 O335 1.235 . S
C352 C353 1.349 . S
C352 C354 1.327 . S
C352 H377 0.950 . S
C353 C352 1.349 . S
C353 C369 1.349 . S
C354 C352 1.327 . S
C354 C373 1.429 . S
C354 H378 0.950 . S
C355 C372 1.574 . S
C355 C374 1.368 . S
C355 H379 0.949 . S
H356 C360 0.949 . S
C357 C358 1.349 1_565 S
C357 C359 1.327 . S
C357 H380 0.950 1_565 S
C358 C357 1.349 1_545 S
C358 C370 1.349 1_545 S
C359 C357 1.327 . S
C359 C375 1.429 . S
C359 H381 0.950 . S
C360 H356 0.949 . S
C360 C368 1.574 . S
C360 C376 1.368 . S
H361 C369 0.950 . S
H362 C367 0.950 . S
H363 C368 0.949 . S
H364 C370 0.950 . S
H365 C371 0.950 . S
H366 C372 0.949 . S
C367 H362 0.950 . S
C367 C369 1.327 . S
C367 C373 1.429 . S
C368 C360 1.574 . S
C368 H363 0.949 . S
C368 C374 1.368 . S
C369 C353 1.349 . S
C369 H361 0.950 . S
C369 C367 1.327 . S
C370 C358 1.349 1_565 S
C370 H364 0.950 . S
C370 C371 1.327 . S
C371 H365 0.950 . S
C371 C370 1.327 . S
C371 C375 1.429 . S
C372 C355 1.574 . S
C372 H366 0.949 . S
C372 C376 1.368 . S
C373 C354 1.429 . S
C373 C367 1.429 . S
C373 C374 1.523 . S
C374 C355 1.368 . S
C374 C368 1.368 . S
C374 C373 1.523 . S
C375 C359 1.429 . S
C375 C371 1.429 . S
C375 C376 1.523 . S
C376 C360 1.368 . S
C376 C372 1.368 . S
C376 C375 1.523 . S
H377 C352 0.950 . S
H378 C354 0.950 . S
H379 C355 0.949 . S
H380 C357 0.950 1_545 S
H381 C359 0.950 . S
C382 C383 1.349 . S
C382 C384 1.327 . S
C382 H407 0.950 . S
C383 C382 1.349 . S
C383 C399 1.349 . S
C384 C382 1.327 . S
C384 C403 1.429 . S
C384 H408 0.950 . S
C385 C402 1.574 . S
C385 C404 1.368 . S
C385 H409 0.949 . S
H386 C390 0.949 . S
C387 C388 1.349 1_655 S
C387 C389 1.327 . S
C387 H410 0.950 1_655 S
C388 C387 1.349 1_455 S
C388 C400 1.349 1_455 S
C389 C387 1.327 . S
C389 C405 1.429 . S
C389 H411 0.950 . S
C390 H386 0.949 . S
C390 C398 1.574 . S
C390 C406 1.368 . S
H391 C399 0.950 . S
H392 C397 0.950 . S
H393 C398 0.949 . S
H394 C400 0.950 . S
H395 C401 0.950 . S
H396 C402 0.949 . S
C397 H392 0.950 . S
C397 C399 1.327 . S
C397 C403 1.429 . S
C398 C390 1.574 . S
C398 H393 0.949 . S
C398 C404 1.368 . S
C399 C383 1.349 . S
C399 H391 0.950 . S
C399 C397 1.327 . S
C400 C388 1.349 1_655 S
C400 H394 0.950 . S
C400 C401 1.327 . S
C401 H395 0.950 . S
C401 C400 1.327 . S
C401 C405 1.429 . S
C402 C385 1.574 . S
C402 H396 0.949 . S
C402 C406 1.368 . S
C403 C384 1.429 . S
C403 C397 1.429 . S
C403 C404 1.523 . S
C404 C385 1.368 . S
C404 C398 1.368 . S
C404 C403 1.523 . S
C405 C389 1.429 . S
C405 C401 1.429 . S
C405 C406 1.523 . S
C406 C390 1.368 . S
C406 C402 1.368 . S
C406 C405 1.523 . S
H407 C382 0.950 . S
H408 C384 0.950 . S
H409 C385 0.949 . S
H410 C387 0.950 1_455 S
H411 C389 0.950 . S
C412 C413 1.349 1_545 S
C412 C414 1.327 . S
C412 H437 0.950 . S
C413 C412 1.349 1_565 S
C413 C429 1.349 . S
C414 C412 1.327 . S
C414 C433 1.429 . S
C414 H438 0.950 . S
C415 C432 1.574 . S
C415 C434 1.368 . S
C415 H439 0.949 . S
H416 C420 0.949 . S
C417 C418 1.349 . S
C417 C419 1.327 . S
C417 H440 0.950 . S
C418 C417 1.349 . S
C418 C430 1.349 . S
C419 C417 1.327 . S
C419 C435 1.429 . S
C419 H441 0.950 . S
C420 H416 0.949 . S
C420 C428 1.574 . S
C420 C436 1.368 . S
H421 C429 0.950 . S
H422 C427 0.950 . S
H423 C428 0.949 . S
H424 C430 0.950 . S
H425 C431 0.950 . S
H426 C432 0.949 . S
C427 H422 0.950 . S
C427 C429 1.327 1_545 S
C427 C433 1.429 . S
C428 C420 1.574 . S
C428 H423 0.949 . S
C428 C434 1.368 . S
C429 C413 1.349 . S
C429 H421 0.950 . S
C429 C427 1.327 1_565 S
C430 C418 1.349 . S
C430 H424 0.950 . S
C430 C431 1.327 . S
C431 H425 0.950 . S
C431 C430 1.327 . S
C431 C435 1.429 . S
C432 C415 1.574 . S
C432 H426 0.949 . S
C432 C436 1.368 . S
C433 C414 1.429 . S
C433 C427 1.429 . S
C433 C434 1.523 . S
C434 C415 1.368 . S
C434 C428 1.368 . S
C434 C433 1.523 . S
C435 C419 1.429 . S
C435 C431 1.429 . S
C435 C436 1.523 . S
C436 C420 1.368 . S
C436 C432 1.368 . S
C436 C435 1.523 . S
H437 C412 0.950 . S
H438 C414 0.950 . S
H439 C415 0.949 . S
H440 C417 0.950 . S
H441 C419 0.950 . S
C442 C443 1.349 1_455 S
C442 C444 1.327 . S
C442 H467 0.950 . S
C443 C442 1.349 1_655 S
C443 C459 1.349 1_655 S
C444 C442 1.327 . S
C444 C463 1.429 . S
C444 H468 0.950 . S
C445 C462 1.574 . S
C445 C464 1.368 . S
C445 H469 0.949 . S
H446 C450 0.949 . S
C447 C448 1.349 . S
C447 C449 1.327 . S
C447 H470 0.950 . S
C448 C447 1.349 . S
C448 C460 1.349 . S
C449 C447 1.327 . S
C449 C465 1.429 . S
C449 H471 0.950 . S
C450 H446 0.949 . S
C450 C458 1.574 . S
C450 C466 1.368 . S
H451 C459 0.950 1_655 S
H452 C457 0.950 . S
H453 C458 0.949 . S
H454 C460 0.950 . S
H455 C461 0.950 . S
H456 C462 0.949 . S
C457 H452 0.950 . S
C457 C459 1.327 . S
C457 C463 1.429 . S
C458 C450 1.574 . S
C458 H453 0.949 . S
C458 C464 1.368 . S
C459 C443 1.349 1_455 S
C459 H451 0.950 1_455 S
C459 C457 1.327 . S
C460 C448 1.349 . S
C460 H454 0.950 . S
C460 C461 1.327 . S
C461 H455 0.950 . S
C461 C460 1.327 . S
C461 C465 1.429 . S
C462 C445 1.574 . S
C462 H456 0.949 . S
C462 C466 1.368 . S
C463 C444 1.429 . S
C463 C457 1.429 . S
C463 C464 1.523 . S
C464 C445 1.368 . S
C464 C458 1.368 . S
C464 C463 1.523 . S
C465 C449 1.429 . S
C465 C461 1.429 . S
C465 C466 1.523 . S
C466 C450 1.368 . S
C466 C462 1.368 . S
C466 C465 1.523 . S
H467 C442 0.950 . S
H468 C444 0.950 . S
H469 C445 0.949 . S
H470 C447 0.950 . S
H471 C449 0.950 . S
C472 C473 1.349 . S
C472 C474 1.327 . S
C472 H497 0.950 . S
C473 C472 1.349 . S
C473 C489 1.349 . S
C474 C472 1.327 . S
C474 C493 1.429 . S
C474 H498 0.950 . S
C475 C492 1.574 . S
C475 C494 1.368 . S
C475 H499 0.949 . S
H476 C480 0.949 . S
C477 C478 1.349 . S
C477 C479 1.327 . S
C477 H500 0.950 . S
C478 C477 1.349 . S
C478 C490 1.349 . S
C479 C477 1.327 . S
C479 C495 1.429 . S
C479 H501 0.950 . S
C480 H476 0.949 . S
C480 C488 1.574 . S
C480 C496 1.368 . S
H481 C489 0.950 . S
H482 C487 0.950 . S
H483 C488 0.949 . S
H484 C490 0.950 . S
H485 C491 0.950 . S
H486 C492 0.949 . S
C487 H482 0.950 . S
C487 C489 1.327 . S
C487 C493 1.429 . S
C488 C480 1.574 . S
C488 H483 0.949 . S
C488 C494 1.368 . S
C489 C473 1.349 . S
C489 H481 0.950 . S
C489 C487 1.327 . S
C490 C478 1.349 . S
C490 H484 0.950 . S
C490 C491 1.327 . S
C491 H485 0.950 . S
C491 C490 1.327 . S
C491 C495 1.429 . S
C492 C475 1.574 . S
C492 H486 0.949 . S
C492 C496 1.368 . S
C493 C474 1.429 . S
C493 C487 1.429 . S
C493 C494 1.523 . S
C494 C475 1.368 . S
C494 C488 1.368 . S
C494 C493 1.523 . S
C495 C479 1.429 . S
C495 C491 1.429 . S
C495 C496 1.523 . S
C496 C480 1.368 . S
C496 C492 1.368 . S
C496 C495 1.523 . S
H497 C472 0.950 . S
H498 C474 0.950 . S
H499 C475 0.949 . S
H500 C477 0.950 . S
H501 C479 0.950 . S
C502 C503 1.349 . S
C502 C504 1.327 . S
C502 H527 0.950 . S
C503 C502 1.349 . S
C503 C519 1.349 . S
C504 C502 1.327 . S
C504 C523 1.429 . S
C504 H528 0.950 . S
C505 C522 1.574 . S
C505 C524 1.368 . S
C505 H529 0.949 . S
H506 C510 0.949 . S
C507 C508 1.349 . S
C507 C509 1.327 . S
C507 H530 0.950 . S
C508 C507 1.349 . S
C508 C520 1.349 . S
C509 C507 1.327 . S
C509 C525 1.429 . S
C509 H531 0.950 . S
C510 H506 0.949 . S
C510 C518 1.574 . S
C510 C526 1.368 . S
H511 C519 0.950 . S
H512 C517 0.950 . S
H513 C518 0.949 . S
H514 C520 0.950 . S
H515 C521 0.950 . S
H516 C522 0.949 . S
C517 H512 0.950 . S
C517 C519 1.327 . S
C517 C523 1.429 . S
C518 C510 1.574 . S
C518 H513 0.949 . S
C518 C524 1.368 . S
C519 C503 1.349 . S
C519 H511 0.950 . S
C519 C517 1.327 . S
C520 C508 1.349 . S
C520 H514 0.950 . S
C520 C521 1.327 . S
C521 H515 0.950 . S
C521 C520 1.327 . S
C521 C525 1.429 . S
C522 C505 1.574 . S
C522 H516 0.949 . S
C522 C526 1.368 . S
C523 C504 1.429 . S
C523 C517 1.429 . S
C523 C524 1.523 . S
C524 C505 1.368 . S
C524 C518 1.368 . S
C524 C523 1.523 . S
C525 C509 1.429 . S
C525 C521 1.429 . S
C525 C526 1.523 . S
C526 C510 1.368 . S
C526 C522 1.368 . S
C526 C525 1.523 . S
H527 C502 0.950 . S
H528 C504 0.950 . S
H529 C505 0.949 . S
H530 C507 0.950 . S
H531 C509 0.950 . S
C532 C533 1.349 . S
C532 C534 1.327 . S
C532 H557 0.950 . S
C533 C532 1.349 . S
C533 C549 1.349 . S
C534 C532 1.327 . S
C534 C553 1.429 . S
C534 H558 0.950 . S
C535 C552 1.574 . S
C535 C554 1.368 . S
C535 H559 0.949 . S
H536 C540 0.949 . S
C537 C538 1.349 . S
C537 C539 1.327 . S
C537 H560 0.950 . S
C538 C537 1.349 . S
C538 C550 1.349 . S
C539 C537 1.327 . S
C539 C555 1.429 . S
C539 H561 0.950 . S
C540 H536 0.949 . S
C540 C548 1.574 . S
C540 C556 1.368 . S
H541 C549 0.950 . S
H542 C547 0.950 . S
H543 C548 0.949 . S
H544 C550 0.950 . S
H545 C551 0.950 . S
H546 C552 0.949 . S
C547 H542 0.950 . S
C547 C549 1.327 . S
C547 C553 1.429 . S
C548 C540 1.574 . S
C548 H543 0.949 . S
C548 C554 1.368 . S
C549 C533 1.349 . S
C549 H541 0.950 . S
C549 C547 1.327 . S
C550 C538 1.349 . S
C550 H544 0.950 . S
C550 C551 1.327 . S
C551 H545 0.950 . S
C551 C550 1.327 . S
C551 C555 1.429 . S
C552 C535 1.574 . S
C552 H546 0.949 . S
C552 C556 1.368 . S
C553 C534 1.429 . S
C553 C547 1.429 . S
C553 C554 1.523 . S
C554 C535 1.368 . S
C554 C548 1.368 . S
C554 C553 1.523 . S
C555 C539 1.429 . S
C555 C551 1.429 . S
C555 C556 1.523 . S
C556 C540 1.368 . S
C556 C552 1.368 . S
C556 C555 1.523 . S
H557 C532 0.950 . S
H558 C534 0.950 . S
H559 C535 0.949 . S
H560 C537 0.950 . S
H561 C539 0.950 . S
C562 C563 1.349 . S
C562 C564 1.327 . S
C562 H587 0.950 . S
C563 C562 1.349 . S
C563 C579 1.349 . S
C564 C562 1.327 . S
C564 C583 1.429 . S
C564 H588 0.950 . S
C565 C582 1.574 . S
C565 C584 1.368 . S
C565 H589 0.949 . S
H566 C570 0.949 . S
C567 C568 1.349 . S
C567 C569 1.327 . S
C567 H590 0.950 . S
C568 C567 1.349 . S
C568 C580 1.349 . S
C569 C567 1.327 . S
C569 C585 1.429 . S
C569 H591 0.950 . S
C570 H566 0.949 . S
C570 C578 1.574 . S
C570 C586 1.368 . S
H571 C579 0.950 . S
H572 C577 0.950 . S
H573 C578 0.949 . S
H574 C580 0.950 . S
H575 C581 0.950 . S
H576 C582 0.949 . S
C577 H572 0.950 . S
C577 C579 1.327 . S
C577 C583 1.429 . S
C578 C570 1.574 . S
C578 H573 0.949 . S
C578 C584 1.368 . S
C579 C563 1.349 . S
C579 H571 0.950 . S
C579 C577 1.327 . S
C580 C568 1.349 . S
C580 H574 0.950 . S
C580 C581 1.327 . S
C581 H575 0.950 . S
C581 C580 1.327 . S
C581 C585 1.429 . S
C582 C565 1.574 . S
C582 H576 0.949 . S
C582 C586 1.368 . S
C583 C564 1.429 . S
C583 C577 1.429 . S
C583 C584 1.523 . S
C584 C565 1.368 . S
C584 C578 1.368 . S
C584 C583 1.523 . S
C585 C569 1.429 . S
C585 C581 1.429 . S
C585 C586 1.523 . S
C586 C570 1.368 . S
C586 C582 1.368 . S
C586 C585 1.523 . S
H587 C562 0.950 . S
H588 C564 0.950 . S
H589 C565 0.949 . S
H590 C567 0.950 . S
H591 C569 0.950 . S
C592 C593 1.349 . S
C592 C594 1.327 . S
C592 H617 0.950 . S
C593 C592 1.349 . S
C593 C609 1.349 . S
C594 C592 1.327 . S
C594 C613 1.429 . S
C594 H618 0.950 . S
C595 C612 1.574 . S
C595 C614 1.368 . S
C595 H619 0.949 . S
H596 C600 0.949 . S
C597 C598 1.349 . S
C597 C599 1.327 . S
C597 H620 0.950 . S
C598 C597 1.349 . S
C598 C610 1.349 . S
C599 C597 1.327 . S
C599 C615 1.429 . S
C599 H621 0.950 . S
C600 H596 0.949 . S
C600 C608 1.574 . S
C600 C616 1.368 . S
H601 C609 0.950 . S
H602 C607 0.950 . S
H603 C608 0.949 . S
H604 C610 0.950 . S
H605 C611 0.950 . S
H606 C612 0.949 . S
C607 H602 0.950 . S
C607 C609 1.327 . S
C607 C613 1.429 . S
C608 C600 1.574 . S
C608 H603 0.949 . S
C608 C614 1.368 . S
C609 C593 1.349 . S
C609 H601 0.950 . S
C609 C607 1.327 . S
C610 C598 1.349 . S
C610 H604 0.950 . S
C610 C611 1.327 . S
C611 H605 0.950 . S
C611 C610 1.327 . S
C611 C615 1.429 . S
C612 C595 1.574 . S
C612 H606 0.949 . S
C612 C616 1.368 . S
C613 C594 1.429 . S
C613 C607 1.429 . S
C613 C614 1.523 . S
C614 C595 1.368 . S
C614 C608 1.368 . S
C614 C613 1.523 . S
C615 C599 1.429 . S
C615 C611 1.429 . S
C615 C616 1.523 . S
C616 C600 1.368 . S
C616 C612 1.368 . S
C616 C615 1.523 . S
H617 C592 0.950 . S
H618 C594 0.950 . S
H619 C595 0.949 . S
H620 C597 0.950 . S
H621 C599 0.950 . S
C622 C623 1.349 . S
C622 C624 1.327 . S
C622 H647 0.950 . S
C623 C622 1.349 . S
C623 C639 1.349 . S
C624 C622 1.327 . S
C624 C643 1.429 . S
C624 H648 0.950 . S
C625 C642 1.574 . S
C625 C644 1.368 . S
C625 H649 0.949 . S
H626 C630 0.949 . S
C627 C628 1.349 . S
C627 C629 1.327 . S
C627 H650 0.950 . S
C628 C627 1.349 . S
C628 C640 1.349 . S
C629 C627 1.327 . S
C629 C645 1.429 . S
C629 H651 0.950 . S
C630 H626 0.949 . S
C630 C638 1.574 . S
C630 C646 1.368 . S
H631 C639 0.950 . S
H632 C637 0.950 . S
H633 C638 0.949 . S
H634 C640 0.950 . S
H635 C641 0.950 . S
H636 C642 0.949 . S
C637 H632 0.950 . S
C637 C639 1.327 . S
C637 C643 1.429 . S
C638 C630 1.574 . S
C638 H633 0.949 . S
C638 C644 1.368 . S
C639 C623 1.349 . S
C639 H631 0.950 . S
C639 C637 1.327 . S
C640 C628 1.349 . S
C640 H634 0.950 . S
C640 C641 1.327 . S
C641 H635 0.950 . S
C641 C640 1.327 . S
C641 C645 1.429 . S
C642 C625 1.574 . S
C642 H636 0.949 . S
C642 C646 1.368 . S
C643 C624 1.429 . S
C643 C637 1.429 . S
C643 C644 1.523 . S
C644 C625 1.368 . S
C644 C638 1.368 . S
C644 C643 1.523 . S
C645 C629 1.429 . S
C645 C641 1.429 . S
C645 C646 1.523 . S
C646 C630 1.368 . S
C646 C642 1.368 . S
C646 C645 1.523 . S
H647 C622 0.950 . S
H648 C624 0.950 . S
H649 C625 0.949 . S
H650 C627 0.950 . S
H651 C629 0.950 . S
C652 C653 1.349 . S
C652 C654 1.327 . S
C652 H677 0.950 . S
C653 C652 1.349 . S
C653 C669 1.349 . S
C654 C652 1.327 . S
C654 C673 1.429 . S
C654 H678 0.950 . S
C655 C672 1.574 . S
C655 C674 1.368 . S
C655 H679 0.949 . S
H656 C660 0.949 . S
C657 C658 1.349 . S
C657 C659 1.327 . S
C657 H680 0.950 . S
C658 C657 1.349 . S
C658 C670 1.349 . S
C659 C657 1.327 . S
C659 C675 1.429 . S
C659 H681 0.950 . S
C660 H656 0.949 . S
C660 C668 1.574 . S
C660 C676 1.368 . S
H661 C669 0.950 . S
H662 C667 0.950 . S
H663 C668 0.949 . S
H664 C670 0.950 . S
H665 C671 0.950 . S
H666 C672 0.949 . S
C667 H662 0.950 . S
C667 C669 1.327 . S
C667 C673 1.429 . S
C668 C660 1.574 . S
C668 H663 0.949 . S
C668 C674 1.368 . S
C669 C653 1.349 . S
C669 H661 0.950 . S
C669 C667 1.327 . S
C670 C658 1.349 . S
C670 H664 0.950 . S
C670 C671 1.327 . S
C671 H665 0.950 . S
C671 C670 1.327 . S
C671 C675 1.429 . S
C672 C655 1.574 . S
C672 H666 0.949 . S
C672 C676 1.368 . S
C673 C654 1.429 . S
C673 C667 1.429 . S
C673 C674 1.523 . S
C674 C655 1.368 . S
C674 C668 1.368 . S
C674 C673 1.523 . S
C675 C659 1.429 . S
C675 C671 1.429 . S
C675 C676 1.523 . S
C676 C660 1.368 . S
C676 C672 1.368 . S
C676 C675 1.523 . S
H677 C652 0.950 . S
H678 C654 0.950 . S
H679 C655 0.949 . S
H680 C657 0.950 . S
H681 C659 0.950 . S
C682 C683 1.349 . S
C682 C684 1.327 . S
C682 H707 0.950 . S
C683 C682 1.349 . S
C683 C699 1.349 . S
C684 C682 1.327 . S
C684 C703 1.429 . S
C684 H708 0.950 . S
C685 C702 1.574 . S
C685 C704 1.368 . S
C685 H709 0.949 . S
H686 C690 0.949 . S
C687 C688 1.349 . S
C687 C689 1.327 . S
C687 H710 0.950 . S
C688 C687 1.349 . S
C688 C700 1.349 . S
C689 C687 1.327 . S
C689 C705 1.429 . S
C689 H711 0.950 . S
C690 H686 0.949 . S
C690 C698 1.574 . S
C690 C706 1.368 . S
H691 C699 0.950 . S
H692 C697 0.950 . S
H693 C698 0.949 . S
H694 C700 0.950 . S
H695 C701 0.950 . S
H696 C702 0.949 . S
C697 H692 0.950 . S
C697 C699 1.327 . S
C697 C703 1.429 . S
C698 C690 1.574 . S
C698 H693 0.949 . S
C698 C704 1.368 . S
C699 C683 1.349 . S
C699 H691 0.950 . S
C699 C697 1.327 . S
C700 C688 1.349 . S
C700 H694 0.950 . S
C700 C701 1.327 . S
C701 H695 0.950 . S
C701 C700 1.327 . S
C701 C705 1.429 . S
C702 C685 1.574 . S
C702 H696 0.949 . S
C702 C706 1.368 . S
C703 C684 1.429 . S
C703 C697 1.429 . S
C703 C704 1.523 . S
C704 C685 1.368 . S
C704 C698 1.368 . S
C704 C703 1.523 . S
C705 C689 1.429 . S
C705 C701 1.429 . S
C705 C706 1.523 . S
C706 C690 1.368 . S
C706 C702 1.368 . S
C706 C705 1.523 . S
H707 C682 0.950 . S
H708 C684 0.950 . S
H709 C685 0.949 . S
H710 C687 0.950 . S
H711 C689 0.950 . S
C712 C713 1.349 . S
C712 C714 1.327 1_565 S
C712 H737 0.950 . S
C713 C712 1.349 . S
C713 C729 1.349 1_565 S
C714 C712 1.327 1_545 S
C714 C733 1.429 . S
C714 H738 0.950 . S
C715 C732 1.574 . S
C715 C734 1.368 . S
C715 H739 0.949 . S
H716 C720 0.949 . S
C717 C718 1.349 . S
C717 C719 1.327 . S
C717 H740 0.950 . S
C718 C717 1.349 . S
C718 C730 1.349 . S
C719 C717 1.327 . S
C719 C735 1.429 . S
C719 H741 0.950 . S
C720 H716 0.949 . S
C720 C728 1.574 . S
C720 C736 1.368 . S
H721 C729 0.950 . S
H722 C727 0.950 . S
H723 C728 0.949 . S
H724 C730 0.950 . S
H725 C731 0.950 . S
H726 C732 0.949 . S
C727 H722 0.950 . S
C727 C729 1.327 . S
C727 C733 1.429 . S
C728 C720 1.574 . S
C728 H723 0.949 . S
C728 C734 1.368 . S
C729 C713 1.349 1_545 S
C729 H721 0.950 . S
C729 C727 1.327 . S
C730 C718 1.349 . S
C730 H724 0.950 . S
C730 C731 1.327 . S
C731 H725 0.950 . S
C731 C730 1.327 . S
C731 C735 1.429 . S
C732 C715 1.574 . S
C732 H726 0.949 . S
C732 C736 1.368 . S
C733 C714 1.429 . S
C733 C727 1.429 . S
C733 C734 1.523 . S
C734 C715 1.368 . S
C734 C728 1.368 . S
C734 C733 1.523 . S
C735 C719 1.429 . S
C735 C731 1.429 . S
C735 C736 1.523 . S
C736 C720 1.368 . S
C736 C732 1.368 . S
C736 C735 1.523 . S
H737 C712 0.950 . S
H738 C714 0.950 . S
H739 C715 0.949 . S
H740 C717 0.950 . S
H741 C719 0.950 . S
C742 C743 1.349 . S
C742 C744 1.327 . S
C742 H767 0.950 . S
C743 C742 1.349 . S
C743 C759 1.349 . S
C744 C742 1.327 . S
C744 C763 1.429 . S
C744 H768 0.950 . S
C745 C762 1.574 . S
C745 C764 1.368 . S
C745 H769 0.949 . S
H746 C750 0.949 . S
C747 C748 1.349 . S
C747 C749 1.327 1_655 S
C747 H770 0.950 . S
C748 C747 1.349 . S
C748 C760 1.349 1_655 S
C749 C747 1.327 1_455 S
C749 C765 1.429 . S
C749 H771 0.950 . S
C750 H746 0.949 . S
C750 C758 1.574 . S
C750 C766 1.368 . S
H751 C759 0.950 . S
H752 C757 0.950 . S
H753 C758 0.949 . S
H754 C760 0.950 . S
H755 C761 0.950 . S
H756 C762 0.949 . S
C757 H752 0.950 . S
C757 C759 1.327 . S
C757 C763 1.429 . S
C758 C750 1.574 . S
C758 H753 0.949 . S
C758 C764 1.368 . S
C759 C743 1.349 . S
C759 H751 0.950 . S
C759 C757 1.327 . S
C760 C748 1.349 1_455 S
C760 H754 0.950 . S
C760 C761 1.327 . S
C761 H755 0.950 . S
C761 C760 1.327 . S
C761 C765 1.429 . S
C762 C745 1.574 . S
C762 H756 0.949 . S
C762 C766 1.368 . S
C763 C744 1.429 . S
C763 C757 1.429 . S
C763 C764 1.523 . S
C764 C745 1.368 . S
C764 C758 1.368 . S
C764 C763 1.523 . S
C765 C749 1.429 . S
C765 C761 1.429 . S
C765 C766 1.523 . S
C766 C750 1.368 . S
C766 C762 1.368 . S
C766 C765 1.523 . S
H767 C742 0.950 . S
H768 C744 0.950 . S
H769 C745 0.949 . S
H770 C747 0.950 . S
H771 C749 0.950 . S
C772 C773 1.349 . S
C772 C774 1.327 . S
C772 H797 0.950 . S
C773 C772 1.349 . S
C773 C789 1.349 . S
C774 C772 1.327 . S
C774 C793 1.429 . S
C774 H798 0.950 . S
C775 C792 1.574 . S
C775 C794 1.368 . S
C775 H799 0.949 . S
H776 C780 0.949 . S
C777 C778 1.349 1_565 S
C777 C779 1.327 . S
C777 H800 0.950 1_565 S
C778 C777 1.349 1_545 S
C778 C790 1.349 1_545 S
C779 C777 1.327 . S
C779 C795 1.429 . S
C779 H801 0.950 . S
C780 H776 0.949 . S
C780 C788 1.574 . S
C780 C796 1.368 . S
H781 C789 0.950 . S
H782 C787 0.950 . S
H783 C788 0.949 . S
H784 C790 0.950 . S
H785 C791 0.950 . S
H786 C792 0.949 . S
C787 H782 0.950 . S
C787 C789 1.327 . S
C787 C793 1.429 . S
C788 C780 1.574 . S
C788 H783 0.949 . S
C788 C794 1.368 . S
C789 C773 1.349 . S
C789 H781 0.950 . S
C789 C787 1.327 . S
C790 C778 1.349 1_565 S
C790 H784 0.950 . S
C790 C791 1.327 . S
C791 H785 0.950 . S
C791 C790 1.327 . S
C791 C795 1.429 . S
C792 C775 1.574 . S
C792 H786 0.949 . S
C792 C796 1.368 . S
C793 C774 1.429 . S
C793 C787 1.429 . S
C793 C794 1.523 . S
C794 C775 1.368 . S
C794 C788 1.368 . S
C794 C793 1.523 . S
C795 C779 1.429 . S
C795 C791 1.429 . S
C795 C796 1.523 . S
C796 C780 1.368 . S
C796 C792 1.368 . S
C796 C795 1.523 . S
H797 C772 0.950 . S
H798 C774 0.950 . S
H799 C775 0.949 . S
H800 C777 0.950 1_545 S
H801 C779 0.950 . S
C802 C803 1.349 . S
C802 C804 1.327 . S
C802 H827 0.950 . S
C803 C802 1.349 . S
C803 C819 1.349 . S
C804 C802 1.327 . S
C804 C823 1.429 . S
C804 H828 0.950 . S
C805 C822 1.574 . S
C805 C824 1.368 . S
C805 H829 0.949 . S
H806 C810 0.949 . S
C807 C808 1.349 . S
C807 C809 1.327 1_455 S
C807 H830 0.950 . S
C808 C807 1.349 . S
C808 C820 1.349 1_455 S
C809 C807 1.327 1_655 S
C809 C825 1.429 . S
C809 H831 0.950 . S
C810 H806 0.949 . S
C810 C818 1.574 . S
C810 C826 1.368 . S
H811 C819 0.950 . S
H812 C817 0.950 . S
H813 C818 0.949 . S
H814 C820 0.950 . S
H815 C821 0.950 . S
H816 C822 0.949 . S
C817 H812 0.950 . S
C817 C819 1.327 . S
C817 C823 1.429 . S
C818 C810 1.574 . S
C818 H813 0.949 . S
C818 C824 1.368 . S
C819 C803 1.349 . S
C819 H811 0.950 . S
C819 C817 1.327 . S
C820 C808 1.349 1_655 S
C820 H814 0.950 . S
C820 C821 1.327 . S
C821 H815 0.950 . S
C821 C820 1.327 . S
C821 C825 1.429 . S
C822 C805 1.574 . S
C822 H816 0.949 . S
C822 C826 1.368 . S
C823 C804 1.429 . S
C823 C817 1.429 . S
C823 C824 1.523 . S
C824 C805 1.368 . S
C824 C818 1.368 . S
C824 C823 1.523 . S
C825 C809 1.429 . S
C825 C821 1.429 . S
C825 C826 1.523 . S
C826 C810 1.368 . S
C826 C822 1.368 . S
C826 C825 1.523 . S
H827 C802 0.950 . S
H828 C804 0.950 . S
H829 C805 0.949 . S
H830 C807 0.950 . S
H831 C809 0.950 . S
C832 C833 1.349 . S
C832 C834 1.327 . S
C832 H857 0.950 . S
C833 C832 1.349 . S
C833 C849 1.349 . S
C834 C832 1.327 . S
C834 C853 1.429 . S
C834 H858 0.950 . S
C835 C852 1.574 . S
C835 C854 1.368 . S
C835 H859 0.949 . S
H836 C840 0.949 . S
C837 C838 1.349 . S
C837 C839 1.327 . S
C837 H860 0.950 . S
C838 C837 1.349 . S
C838 C850 1.349 . S
C839 C837 1.327 . S
C839 C855 1.429 . S
C839 H861 0.950 . S
C840 H836 0.949 . S
C840 C848 1.574 . S
C840 C856 1.368 . S
H841 C849 0.950 . S
H842 C847 0.950 . S
H843 C848 0.949 . S
H844 C850 0.950 . S
H845 C851 0.950 . S
H846 C852 0.949 . S
C847 H842 0.950 . S
C847 C849 1.327 . S
C847 C853 1.429 . S
C848 C840 1.574 . S
C848 H843 0.949 . S
C848 C854 1.368 . S
C849 C833 1.349 . S
C849 H841 0.950 . S
C849 C847 1.327 . S
C850 C838 1.349 . S
C850 H844 0.950 . S
C850 C851 1.327 . S
C851 H845 0.950 . S
C851 C850 1.327 . S
C851 C855 1.429 . S
C852 C835 1.574 . S
C852 H846 0.949 . S
C852 C856 1.368 . S
C853 C834 1.429 . S
C853 C847 1.429 . S
C853 C854 1.523 . S
C854 C835 1.368 . S
C854 C848 1.368 . S
C854 C853 1.523 . S
C855 C839 1.429 . S
C855 C851 1.429 . S
C855 C856 1.523 . S
C856 C840 1.368 . S
C856 C852 1.368 . S
C856 C855 1.523 . S
H857 C832 0.950 . S
H858 C834 0.950 . S
H859 C835 0.949 . S
H860 C837 0.950 . S
H861 C839 0.950 . S
C862 C863 1.349 . S
C862 C864 1.327 . S
C862 H887 0.950 . S
C863 C862 1.349 . S
C863 C879 1.349 . S
C864 C862 1.327 . S
C864 C883 1.429 . S
C864 H888 0.950 . S
C865 C882 1.574 . S
C865 C884 1.368 . S
C865 H889 0.949 . S
H866 C870 0.949 . S
C867 C868 1.349 . S
C867 C869 1.327 . S
C867 H890 0.950 . S
C868 C867 1.349 . S
C868 C880 1.349 . S
C869 C867 1.327 . S
C869 C885 1.429 . S
C869 H891 0.950 . S
C870 H866 0.949 . S
C870 C878 1.574 . S
C870 C886 1.368 . S
H871 C879 0.950 . S
H872 C877 0.950 . S
H873 C878 0.949 . S
H874 C880 0.950 . S
H875 C881 0.950 . S
H876 C882 0.949 . S
C877 H872 0.950 . S
C877 C879 1.327 . S
C877 C883 1.429 . S
C878 C870 1.574 . S
C878 H873 0.949 . S
C878 C884 1.368 . S
C879 C863 1.349 . S
C879 H871 0.950 . S
C879 C877 1.327 . S
C880 C868 1.349 . S
C880 H874 0.950 . S
C880 C881 1.327 . S
C881 H875 0.950 . S
C881 C880 1.327 . S
C881 C885 1.429 . S
C882 C865 1.574 . S
C882 H876 0.949 . S
C882 C886 1.368 . S
C883 C864 1.429 . S
C883 C877 1.429 . S
C883 C884 1.523 . S
C884 C865 1.368 . S
C884 C878 1.368 . S
C884 C883 1.523 . S
C885 C869 1.429 . S
C885 C881 1.429 . S
C885 C886 1.523 . S
C886 C870 1.368 . S
C886 C882 1.368 . S
C886 C885 1.523 . S
H887 C862 0.950 . S
H888 C864 0.950 . S
H889 C865 0.949 . S
H890 C867 0.950 . S
H891 C869 0.950 . S
C892 C893 1.349 . S
C892 C894 1.327 . S
C892 H917 0.950 . S
C893 C892 1.349 . S
C893 C909 1.349 . S
C894 C892 1.327 . S
C894 C913 1.429 . S
C894 H918 0.950 . S
C895 C912 1.574 . S
C895 C914 1.368 . S
C895 H919 0.949 . S
H896 C900 0.949 . S
C897 C898 1.349 . S
C897 C899 1.327 . S
C897 H920 0.950 . S
C898 C897 1.349 . S
C898 C910 1.349 . S
C899 C897 1.327 . S
C899 C915 1.429 . S
C899 H921 0.950 . S
C900 H896 0.949 . S
C900 C908 1.574 . S
C900 C916 1.368 . S
H901 C909 0.950 . S
H902 C907 0.950 . S
H903 C908 0.949 . S
H904 C910 0.950 . S
H905 C911 0.950 . S
H906 C912 0.949 . S
C907 H902 0.950 . S
C907 C909 1.327 . S
C907 C913 1.429 . S
C908 C900 1.574 . S
C908 H903 0.949 . S
C908 C914 1.368 . S
C909 C893 1.349 . S
C909 H901 0.950 . S
C909 C907 1.327 . S
C910 C898 1.349 . S
C910 H904 0.950 . S
C910 C911 1.327 . S
C911 H905 0.950 . S
C911 C910 1.327 . S
C911 C915 1.429 . S
C912 C895 1.574 . S
C912 H906 0.949 . S
C912 C916 1.368 . S
C913 C894 1.429 . S
C913 C907 1.429 . S
C913 C914 1.523 . S
C914 C895 1.368 . S
C914 C908 1.368 . S
C914 C913 1.523 . S
C915 C899 1.429 . S
C915 C911 1.429 . S
C915 C916 1.523 . S
C916 C900 1.368 . S
C916 C912 1.368 . S
C916 C915 1.523 . S
H917 C892 0.950 . S
H918 C894 0.950 . S
H919 C895 0.949 . S
H920 C897 0.950 . S
H921 C899 0.950 . S
C922 C923 1.349 . S
C922 C924 1.327 . S
C922 H947 0.950 . S
C923 C922 1.349 . S
C923 C939 1.349 . S
C924 C922 1.327 . S
C924 C943 1.429 . S
C924 H948 0.950 . S
C925 C942 1.574 . S
C925 C944 1.368 . S
C925 H949 0.949 . S
H926 C930 0.949 . S
C927 C928 1.349 . S
C927 C929 1.327 . S
C927 H950 0.950 . S
C928 C927 1.349 . S
C928 C940 1.349 . S
C929 C927 1.327 . S
C929 C945 1.429 . S
C929 H951 0.950 . S
C930 H926 0.949 . S
C930 C938 1.574 . S
C930 C946 1.368 . S
H931 C939 0.950 . S
H932 C937 0.950 . S
H933 C938 0.949 . S
H934 C940 0.950 . S
H935 C941 0.950 . S
H936 C942 0.949 . S
C937 H932 0.950 . S
C937 C939 1.327 . S
C937 C943 1.429 . S
C938 C930 1.574 . S
C938 H933 0.949 . S
C938 C944 1.368 . S
C939 C923 1.349 . S
C939 H931 0.950 . S
C939 C937 1.327 . S
C940 C928 1.349 . S
C940 H934 0.950 . S
C940 C941 1.327 . S
C941 H935 0.950 . S
C941 C940 1.327 . S
C941 C945 1.429 . S
C942 C925 1.574 . S
C942 H936 0.949 . S
C942 C946 1.368 . S
C943 C924 1.429 . S
C943 C937 1.429 . S
C943 C944 1.523 . S
C944 C925 1.368 . S
C944 C938 1.368 . S
C944 C943 1.523 . S
C945 C929 1.429 . S
C945 C941 1.429 . S
C945 C946 1.523 . S
C946 C930 1.368 . S
C946 C942 1.368 . S
C946 C945 1.523 . S
H947 C922 0.950 . S
H948 C924 0.950 . S
H949 C925 0.949 . S
H950 C927 0.950 . S
H951 C929 0.950 . S
C952 C953 1.349 . S
C952 C954 1.327 . S
C952 H977 0.950 . S
C953 C952 1.349 . S
C953 C969 1.349 . S
C954 C952 1.327 . S
C954 C973 1.429 . S
C954 H978 0.950 . S
C955 C972 1.574 . S
C955 C974 1.368 . S
C955 H979 0.949 . S
H956 C960 0.949 . S
C957 C958 1.349 . S
C957 C959 1.327 . S
C957 H980 0.950 . S
C958 C957 1.349 . S
C958 C970 1.349 . S
C959 C957 1.327 . S
C959 C975 1.429 . S
C959 H981 0.950 . S
C960 H956 0.949 . S
C960 C968 1.574 . S
C960 C976 1.368 . S
H961 C969 0.950 . S
H962 C967 0.950 . S
H963 C968 0.949 . S
H964 C970 0.950 . S
H965 C971 0.950 . S
H966 C972 0.949 . S
C967 H962 0.950 . S
C967 C969 1.327 . S
C967 C973 1.429 . S
C968 C960 1.574 . S
C968 H963 0.949 . S
C968 C974 1.368 . S
C969 C953 1.349 . S
C969 H961 0.950 . S
C969 C967 1.327 . S
C970 C958 1.349 . S
C970 H964 0.950 . S
C970 C971 1.327 . S
C971 H965 0.950 . S
C971 C970 1.327 . S
C971 C975 1.429 . S
C972 C955 1.574 . S
C972 H966 0.949 . S
C972 C976 1.368 . S
C973 C954 1.429 . S
C973 C967 1.429 . S
C973 C974 1.523 . S
C974 C955 1.368 . S
C974 C968 1.368 . S
C974 C973 1.523 . S
C975 C959 1.429 . S
C975 C971 1.429 . S
C975 C976 1.523 . S
C976 C960 1.368 . S
C976 C972 1.368 . S
C976 C975 1.523 . S
H977 C952 0.950 . S
H978 C954 0.950 . S
H979 C955 0.949 . S
H980 C957 0.950 . S
H981 C959 0.950 . S
C982 C983 1.349 . S
C982 C984 1.327 . S
C982 H1007 0.950 . S
C983 C982 1.349 . S
C983 C999 1.349 . S
C984 C982 1.327 . S
C984 C1003 1.429 . S
C984 H1008 0.950 . S
C985 C1002 1.574 . S
C985 C1004 1.368 . S
C985 H1009 0.949 . S
H986 C990 0.949 . S
C987 C988 1.349 . S
C987 C989 1.327 . S
C987 H1010 0.950 . S
C988 C987 1.349 . S
C988 C1000 1.349 . S
C989 C987 1.327 . S
C989 C1005 1.429 . S
C989 H1011 0.950 . S
C990 H986 0.949 . S
C990 C998 1.574 . S
C990 C1006 1.368 . S
H991 C999 0.950 . S
H992 C997 0.950 . S
H993 C998 0.949 . S
H994 C1000 0.950 . S
H995 C1001 0.950 . S
H996 C1002 0.949 . S
C997 H992 0.950 . S
C997 C999 1.327 . S
C997 C1003 1.429 . S
C998 C990 1.574 . S
C998 H993 0.949 . S
C998 C1004 1.368 . S
C999 C983 1.349 . S
C999 H991 0.950 . S
C999 C997 1.327 . S
C1000 C988 1.349 . S
C1000 H994 0.950 . S
C1000 C1001 1.327 . S
C1001 H995 0.950 . S
C1001 C1000 1.327 . S
C1001 C1005 1.429 . S
C1002 C985 1.574 . S
C1002 H996 0.949 . S
C1002 C1006 1.368 . S
C1003 C984 1.429 . S
C1003 C997 1.429 . S
C1003 C1004 1.523 . S
C1004 C985 1.368 . S
C1004 C998 1.368 . S
C1004 C1003 1.523 . S
C1005 C989 1.429 . S
C1005 C1001 1.429 . S
C1005 C1006 1.523 . S
C1006 C990 1.368 . S
C1006 C1002 1.368 . S
C1006 C1005 1.523 . S
H1007 C982 0.950 . S
H1008 C984 0.950 . S
H1009 C985 0.949 . S
H1010 C987 0.950 . S
H1011 C989 0.950 . S
C1012 C1013 1.349 . S
C1012 C1014 1.327 . S
C1012 H1037 0.950 . S
C1013 C1012 1.349 . S
C1013 C1029 1.349 . S
C1014 C1012 1.327 . S
C1014 C1033 1.429 . S
C1014 H1038 0.950 . S
C1015 C1032 1.574 . S
C1015 C1034 1.368 . S
C1015 H1039 0.949 . S
H1016 C1020 0.949 . S
C1017 C1018 1.349 . S
C1017 C1019 1.327 . S
C1017 H1040 0.950 . S
C1018 C1017 1.349 . S
C1018 C1030 1.349 . S
C1019 C1017 1.327 . S
C1019 C1035 1.429 . S
C1019 H1041 0.950 . S
C1020 H1016 0.949 . S
C1020 C1028 1.574 . S
C1020 C1036 1.368 . S
H1021 C1029 0.950 . S
H1022 C1027 0.950 . S
H1023 C1028 0.949 . S
H1024 C1030 0.950 . S
H1025 C1031 0.950 . S
H1026 C1032 0.949 . S
C1027 H1022 0.950 . S
C1027 C1029 1.327 . S
C1027 C1033 1.429 . S
C1028 C1020 1.574 . S
C1028 H1023 0.949 . S
C1028 C1034 1.368 . S
C1029 C1013 1.349 . S
C1029 H1021 0.950 . S
C1029 C1027 1.327 . S
C1030 C1018 1.349 . S
C1030 H1024 0.950 . S
C1030 C1031 1.327 . S
C1031 H1025 0.950 . S
C1031 C1030 1.327 . S
C1031 C1035 1.429 . S
C1032 C1015 1.574 . S
C1032 H1026 0.949 . S
C1032 C1036 1.368 . S
C1033 C1014 1.429 . S
C1033 C1027 1.429 . S
C1033 C1034 1.523 . S
C1034 C1015 1.368 . S
C1034 C1028 1.368 . S
C1034 C1033 1.523 . S
C1035 C1019 1.429 . S
C1035 C1031 1.429 . S
C1035 C1036 1.523 . S
C1036 C1020 1.368 . S
C1036 C1032 1.368 . S
C1036 C1035 1.523 . S
H1037 C1012 0.950 . S
H1038 C1014 0.950 . S
H1039 C1015 0.949 . S
H1040 C1017 0.950 . S
H1041 C1019 0.950 . S
C1042 C1043 1.349 . S
C1042 C1044 1.327 . S
C1042 H1067 0.950 . S
C1043 C1042 1.349 . S
C1043 C1059 1.349 . S
C1044 C1042 1.327 . S
C1044 C1063 1.429 . S
C1044 H1068 0.950 . S
C1045 C1062 1.574 . S
C1045 C1064 1.368 . S
C1045 H1069 0.949 . S
H1046 C1050 0.949 . S
C1047 C1048 1.349 . S
C1047 C1049 1.327 . S
C1047 H1070 0.950 . S
C1048 C1047 1.349 . S
C1048 C1060 1.349 . S
C1049 C1047 1.327 . S
C1049 C1065 1.429 . S
C1049 H1071 0.950 . S
C1050 H1046 0.949 . S
C1050 C1058 1.574 . S
C1050 C1066 1.368 . S
H1051 C1059 0.950 . S
H1052 C1057 0.950 . S
H1053 C1058 0.949 . S
H1054 C1060 0.950 . S
H1055 C1061 0.950 . S
H1056 C1062 0.949 . S
C1057 H1052 0.950 . S
C1057 C1059 1.327 . S
C1057 C1063 1.429 . S
C1058 C1050 1.574 . S
C1058 H1053 0.949 . S
C1058 C1064 1.368 . S
C1059 C1043 1.349 . S
C1059 H1051 0.950 . S
C1059 C1057 1.327 . S
C1060 C1048 1.349 . S
C1060 H1054 0.950 . S
C1060 C1061 1.327 . S
C1061 H1055 0.950 . S
C1061 C1060 1.327 . S
C1061 C1065 1.429 . S
C1062 C1045 1.574 . S
C1062 H1056 0.949 . S
C1062 C1066 1.368 . S
C1063 C1044 1.429 . S
C1063 C1057 1.429 . S
C1063 C1064 1.523 . S
C1064 C1045 1.368 . S
C1064 C1058 1.368 . S
C1064 C1063 1.523 . S
C1065 C1049 1.429 . S
C1065 C1061 1.429 . S
C1065 C1066 1.523 . S
C1066 C1050 1.368 . S
C1066 C1062 1.368 . S
C1066 C1065 1.523 . S
H1067 C1042 0.950 . S
H1068 C1044 0.950 . S
H1069 C1045 0.949 . S
H1070 C1047 0.950 . S
H1071 C1049 0.950 . S
C1072 C1073 1.349 . S
C1072 C1074 1.327 . S
C1072 H1097 0.950 1_565 S
C1073 C1072 1.349 . S
C1073 C1089 1.349 . S
C1074 C1072 1.327 . S
C1074 C1093 1.429 . S
C1074 H1098 0.950 . S
C1075 C1092 1.574 . S
C1075 C1094 1.368 . S
C1075 H1099 0.949 . S
H1076 C1080 0.949 . S
C1077 C1078 1.349 . S
C1077 C1079 1.327 . S
C1077 H1100 0.950 . S
C1078 C1077 1.349 . S
C1078 C1090 1.349 . S
C1079 C1077 1.327 . S
C1079 C1095 1.429 . S
C1079 H1101 0.950 . S
C1080 H1076 0.949 . S
C1080 C1088 1.574 . S
C1080 C1096 1.368 . S
H1081 C1089 0.950 . S
H1082 C1087 0.950 . S
H1083 C1088 0.949 . S
H1084 C1090 0.950 . S
H1085 C1091 0.950 . S
H1086 C1092 0.949 . S
C1087 H1082 0.950 . S
C1087 C1089 1.327 . S
C1087 C1093 1.429 . S
C1088 C1080 1.574 . S
C1088 H1083 0.949 . S
C1088 C1094 1.368 . S
C1089 C1073 1.349 . S
C1089 H1081 0.950 . S
C1089 C1087 1.327 . S
C1090 C1078 1.349 . S
C1090 H1084 0.950 . S
C1090 C1091 1.327 . S
C1091 H1085 0.950 . S
C1091 C1090 1.327 . S
C1091 C1095 1.429 . S
C1092 C1075 1.574 . S
C1092 H1086 0.949 . S
C1092 C1096 1.368 . S
C1093 C1074 1.429 . S
C1093 C1087 1.429 . S
C1093 C1094 1.523 . S
C1094 C1075 1.368 . S
C1094 C1088 1.368 . S
C1094 C1093 1.523 . S
C1095 C1079 1.429 . S
C1095 C1091 1.429 . S
C1095 C1096 1.523 . S
C1096 C1080 1.368 . S
C1096 C1092 1.368 . S
C1096 C1095 1.523 . S
H1097 C1072 0.950 1_545 S
H1098 C1074 0.950 . S
H1099 C1075 0.949 . S
H1100 C1077 0.950 . S
H1101 C1079 0.950 . S
C1102 C1103 1.349 . S
C1102 C1104 1.327 . S
C1102 H1127 0.950 . S
C1103 C1102 1.349 . S
C1103 C1119 1.349 . S
C1104 C1102 1.327 . S
C1104 C1123 1.429 . S
C1104 H1128 0.950 . S
C1105 C1122 1.574 . S
C1105 C1124 1.368 . S
C1105 H1129 0.949 . S
H1106 C1110 0.949 . S
C1107 C1108 1.349 . S
C1107 C1109 1.327 . S
C1107 H1130 0.950 . S
C1108 C1107 1.349 . S
C1108 C1120 1.349 . S
C1109 C1107 1.327 . S
C1109 C1125 1.429 . S
C1109 H1131 0.950 . S
C1110 H1106 0.949 . S
C1110 C1118 1.574 . S
C1110 C1126 1.368 . S
H1111 C1119 0.950 . S
H1112 C1117 0.950 . S
H1113 C1118 0.949 . S
H1114 C1120 0.925 1_455 S
H1115 C1121 0.950 . S
H1116 C1122 0.949 . S
C1117 H1112 0.950 . S
C1117 C1119 1.327 . S
C1117 C1123 1.429 . S
C1118 C1110 1.574 . S
C1118 H1113 0.949 . S
C1118 C1124 1.368 . S
C1119 C1103 1.349 . S
C1119 H1111 0.950 . S
C1119 C1117 1.327 . S
C1120 C1108 1.349 . S
C1120 H1114 0.925 1_655 S
C1120 C1121 1.327 . S
C1121 H1115 0.950 . S
C1121 C1120 1.327 . S
C1121 C1125 1.429 . S
C1122 C1105 1.574 . S
C1122 H1116 0.949 . S
C1122 C1126 1.368 . S
C1123 C1104 1.429 . S
C1123 C1117 1.429 . S
C1123 C1124 1.523 . S
C1124 C1105 1.368 . S
C1124 C1118 1.368 . S
C1124 C1123 1.523 . S
C1125 C1109 1.429 . S
C1125 C1121 1.429 . S
C1125 C1126 1.523 . S
C1126 C1110 1.368 . S
C1126 C1122 1.368 . S
C1126 C1125 1.523 . S
H1127 C1102 0.950 . S
H1128 C1104 0.950 . S
H1129 C1105 0.949 . S
H1130 C1107 0.950 . S
H1131 C1109 0.950 . S
C1132 C1133 1.349 . S
C1132 C1134 1.327 . S
C1132 H1157 0.950 . S
C1133 C1132 1.349 . S
C1133 C1149 1.349 . S
C1134 C1132 1.327 . S
C1134 C1153 1.429 . S
C1134 H1158 0.950 . S
C1135 C1152 1.574 . S
C1135 C1154 1.368 . S
C1135 H1159 0.949 . S
H1136 C1140 0.949 . S
C1137 C1138 1.349 . S
C1137 C1139 1.327 . S
C1137 H1160 0.950 . S
C1138 C1137 1.349 . S
C1138 C1150 1.349 . S
C1139 C1137 1.327 . S
C1139 C1155 1.429 . S
C1139 H1161 0.950 . S
C1140 H1136 0.949 . S
C1140 C1148 1.574 . S
C1140 C1156 1.368 . S
H1141 C1149 0.950 . S
H1142 C1147 0.950 . S
H1143 C1148 0.949 . S
H1144 C1150 0.950 . S
H1145 C1151 0.950 . S
H1146 C1152 0.949 . S
C1147 H1142 0.950 . S
C1147 C1149 1.327 . S
C1147 C1153 1.429 . S
C1148 C1140 1.574 . S
C1148 H1143 0.949 . S
C1148 C1154 1.368 . S
C1149 C1133 1.349 . S
C1149 H1141 0.950 . S
C1149 C1147 1.327 . S
C1150 C1138 1.349 . S
C1150 H1144 0.950 . S
C1150 C1151 1.327 . S
C1151 H1145 0.950 . S
C1151 C1150 1.327 . S
C1151 C1155 1.429 . S
C1152 C1135 1.574 . S
C1152 H1146 0.949 . S
C1152 C1156 1.368 . S
C1153 C1134 1.429 . S
C1153 C1147 1.429 . S
C1153 C1154 1.523 . S
C1154 C1135 1.368 . S
C1154 C1148 1.368 . S
C1154 C1153 1.523 . S
C1155 C1139 1.429 . S
C1155 C1151 1.429 . S
C1155 C1156 1.523 . S
C1156 C1140 1.368 . S
C1156 C1152 1.368 . S
C1156 C1155 1.523 . S
H1157 C1132 0.950 . S
H1158 C1134 0.950 . S
H1159 C1135 0.949 . S
H1160 C1137 0.950 . S
H1161 C1139 0.950 . S
C1162 C1163 1.349 . S
C1162 C1164 1.327 . S
C1162 H1187 0.950 . S
C1163 C1162 1.349 . S
C1163 C1179 1.349 . S
C1164 C1162 1.327 . S
C1164 C1183 1.429 . S
C1164 H1188 0.950 . S
C1165 C1182 1.574 . S
C1165 C1184 1.368 . S
C1165 H1189 0.949 . S
H1166 C1170 0.949 . S
C1167 C1168 1.349 . S
C1167 C1169 1.327 . S
C1167 H1190 0.950 . S
C1168 C1167 1.349 . S
C1168 C1180 1.349 . S
C1169 C1167 1.327 . S
C1169 C1185 1.429 . S
C1169 H1191 0.950 . S
C1170 H1166 0.949 . S
C1170 C1178 1.574 . S
C1170 C1186 1.368 . S
H1171 C1179 0.950 . S
H1172 C1177 0.950 . S
H1173 C1178 0.949 . S
H1174 C1180 0.950 . S
H1175 C1181 0.950 . S
H1176 C1182 0.949 . S
C1177 H1172 0.950 . S
C1177 C1179 1.327 . S
C1177 C1183 1.429 . S
C1178 C1170 1.574 . S
C1178 H1173 0.949 . S
C1178 C1184 1.368 . S
C1179 C1163 1.349 . S
C1179 H1171 0.950 . S
C1179 C1177 1.327 . S
C1180 C1168 1.349 . S
C1180 H1174 0.950 . S
C1180 C1181 1.327 . S
C1181 H1175 0.950 . S
C1181 C1180 1.327 . S
C1181 C1185 1.429 . S
C1182 C1165 1.574 . S
C1182 H1176 0.949 . S
C1182 C1186 1.368 . S
C1183 C1164 1.429 . S
C1183 C1177 1.429 . S
C1183 C1184 1.523 . S
C1184 C1165 1.368 . S
C1184 C1178 1.368 . S
C1184 C1183 1.523 . S
C1185 C1169 1.429 . S
C1185 C1181 1.429 . S
C1185 C1186 1.523 . S
C1186 C1170 1.368 . S
C1186 C1182 1.368 . S
C1186 C1185 1.523 . S
H1187 C1162 0.950 . S
H1188 C1164 0.950 . S
H1189 C1165 0.949 . S
H1190 C1167 0.950 . S
H1191 C1169 0.950 . S
C1192 C1193 1.349 . S
C1192 C1194 1.327 . S
C1192 H1217 0.950 . S
C1193 C1192 1.349 . S
C1193 C1209 1.349 . S
C1194 C1192 1.327 . S
C1194 C1213 1.429 . S
C1194 H1218 0.950 . S
C1195 C1212 1.574 . S
C1195 C1214 1.368 1_554 S
C1195 H1219 0.949 1_554 S
H1196 C1200 0.949 . S
C1197 C1198 1.349 . S
C1197 C1199 1.327 . S
C1197 H1220 0.950 . S
C1198 C1197 1.349 . S
C1198 C1210 1.349 . S
C1199 C1197 1.327 . S
C1199 C1215 1.429 . S
C1199 H1221 0.950 . S
C1200 H1196 0.949 . S
C1200 C1208 1.574 1_554 S
C1200 C1216 1.368 . S
H1201 C1209 0.950 . S
H1202 C1207 0.950 . S
H1203 C1208 0.949 . S
H1204 C1210 0.950 . S
H1205 C1211 0.950 . S
H1206 C1212 0.949 . S
C1207 H1202 0.950 . S
C1207 C1209 1.327 . S
C1207 C1213 1.429 . S
C1208 C1200 1.574 1_556 S
C1208 H1203 0.949 . S
C1208 C1214 1.368 . S
C1209 C1193 1.349 . S
C1209 H1201 0.950 . S
C1209 C1207 1.327 . S
C1210 C1198 1.349 . S
C1210 H1204 0.950 . S
C1210 C1211 1.327 . S
C1211 H1205 0.950 . S
C1211 C1210 1.327 . S
C1211 C1215 1.429 . S
C1212 C1195 1.574 . S
C1212 H1206 0.949 . S
C1212 C1216 1.368 . S
C1213 C1194 1.429 . S
C1213 C1207 1.429 . S
C1213 C1214 1.523 . S
C1214 C1195 1.368 1_556 S
C1214 C1208 1.368 . S
C1214 C1213 1.523 . S
C1215 C1199 1.429 . S
C1215 C1211 1.429 . S
C1215 C1216 1.523 . S
C1216 C1200 1.368 . S
C1216 C1212 1.368 . S
C1216 C1215 1.523 . S
H1217 C1192 0.950 . S
H1218 C1194 0.950 . S
H1219 C1195 0.949 1_556 S
H1220 C1197 0.950 . S
H1221 C1199 0.950 . S
C1222 C1223 1.349 . S
C1222 C1224 1.327 . S
C1222 H1247 0.950 . S
C1223 C1222 1.349 . S
C1223 C1239 1.349 . S
C1224 C1222 1.327 . S
C1224 C1243 1.429 . S
C1224 H1248 0.950 . S
C1225 C1242 1.574 1_554 S
C1225 C1244 1.368 . S
C1225 H1249 0.949 . S
H1226 C1230 0.949 . S
C1227 C1228 1.349 . S
C1227 C1229 1.327 . S
C1227 H1250 0.950 . S
C1228 C1227 1.349 . S
C1228 C1240 1.349 . S
C1229 C1227 1.327 . S
C1229 C1245 1.429 . S
C1229 H1251 0.950 . S
C1230 H1226 0.949 . S
C1230 C1238 1.574 . S
C1230 C1246 1.368 . S
H1231 C1239 0.950 . S
H1232 C1237 0.950 . S
H1233 C1238 0.949 . S
H1234 C1240 0.950 . S
H1235 C1241 0.950 . S
H1236 C1242 0.949 . S
C1237 H1232 0.950 . S
C1237 C1239 1.327 . S
C1237 C1243 1.429 . S
C1238 C1230 1.574 . S
C1238 H1233 0.949 . S
C1238 C1244 1.368 1_556 S
C1239 C1223 1.349 . S
C1239 H1231 0.950 . S
C1239 C1237 1.327 . S
C1240 C1228 1.349 . S
C1240 H1234 0.950 . S
C1240 C1241 1.327 . S
C1241 H1235 0.950 . S
C1241 C1240 1.327 . S
C1241 C1245 1.429 . S
C1242 C1225 1.574 1_556 S
C1242 H1236 0.949 . S
C1242 C1246 1.368 . S
C1243 C1224 1.429 . S
C1243 C1237 1.429 . S
C1243 C1244 1.523 . S
C1244 C1225 1.368 . S
C1244 C1238 1.368 1_554 S
C1244 C1243 1.523 . S
C1245 C1229 1.429 . S
C1245 C1241 1.429 . S
C1245 C1246 1.523 . S
C1246 C1230 1.368 . S
C1246 C1242 1.368 . S
C1246 C1245 1.523 . S
H1247 C1222 0.950 . S
H1248 C1224 0.950 . S
H1249 C1225 0.949 . S
H1250 C1227 0.950 . S
H1251 C1229 0.950 . S
C1252 C1253 1.349 . S
C1252 C1254 1.327 . S
C1252 H1277 0.950 . S
C1253 C1252 1.349 . S
C1253 C1269 1.349 . S
C1254 C1252 1.327 . S
C1254 C1273 1.429 . S
C1254 H1278 0.950 . S
C1255 C1272 1.574 . S
C1255 C1274 1.368 1_554 S
C1255 H1279 0.949 1_554 S
H1256 C1260 0.949 . S
C1257 C1258 1.349 . S
C1257 C1259 1.327 . S
C1257 H1280 0.950 . S
C1258 C1257 1.349 . S
C1258 C1270 1.349 . S
C1259 C1257 1.327 . S
C1259 C1275 1.429 . S
C1259 H1281 0.950 . S
C1260 H1256 0.949 . S
C1260 C1268 1.574 1_554 S
C1260 C1276 1.368 . S
H1261 C1269 0.950 . S
H1262 C1267 0.950 . S
H1263 C1268 0.949 . S
H1264 C1270 0.950 . S
H1265 C1271 0.950 . S
H1266 C1272 0.949 . S
C1267 H1262 0.950 . S
C1267 C1269 1.327 . S
C1267 C1273 1.429 . S
C1268 C1260 1.574 1_556 S
C1268 H1263 0.949 . S
C1268 C1274 1.368 . S
C1269 C1253 1.349 . S
C1269 H1261 0.950 . S
C1269 C1267 1.327 . S
C1270 C1258 1.349 . S
C1270 H1264 0.950 . S
C1270 C1271 1.327 . S
C1271 H1265 0.950 . S
C1271 C1270 1.327 . S
C1271 C1275 1.429 . S
C1272 C1255 1.574 . S
C1272 H1266 0.949 . S
C1272 C1276 1.368 . S
C1273 C1254 1.429 . S
C1273 C1267 1.429 . S
C1273 C1274 1.523 . S
C1274 C1255 1.368 1_556 S
C1274 C1268 1.368 . S
C1274 C1273 1.523 . S
C1275 C1259 1.429 . S
C1275 C1271 1.429 . S
C1275 C1276 1.523 . S
C1276 C1260 1.368 . S
C1276 C1272 1.368 . S
C1276 C1275 1.523 . S
H1277 C1252 0.950 . S
H1278 C1254 0.950 . S
H1279 C1255 0.949 1_556 S
H1280 C1257 0.950 . S
H1281 C1259 0.950 . S
C1282 C1283 1.349 . S
C1282 C1284 1.327 . S
C1282 H1307 0.950 . S
C1283 C1282 1.349 . S
C1283 C1299 1.349 . S
C1284 C1282 1.327 . S
C1284 C1303 1.429 . S
C1284 H1308 0.950 . S
C1285 C1302 1.574 . S
C1285 C1304 1.368 . S
C1285 H1309 0.949 . S
H1286 C1290 0.949 . S
C1287 C1288 1.349 . S
C1287 C1289 1.327 . S
C1287 H1310 0.950 . S
C1288 C1287 1.349 . S
C1288 C1300 1.349 . S
C1289 C1287 1.327 . S
C1289 C1305 1.429 . S
C1289 H1311 0.950 . S
C1290 H1286 0.949 . S
C1290 C1298 1.574 1_554 S
C1290 C1306 1.368 . S
H1291 C1299 0.950 . S
H1292 C1297 0.950 . S
H1293 C1298 0.949 . S
H1294 C1300 0.950 . S
H1295 C1301 0.950 . S
H1296 C1302 0.949 . S
C1297 H1292 0.950 . S
C1297 C1299 1.327 . S
C1297 C1303 1.429 . S
C1298 C1290 1.574 1_556 S
C1298 H1293 0.949 . S
C1298 C1304 1.368 . S
C1299 C1283 1.349 . S
C1299 H1291 0.950 . S
C1299 C1297 1.327 . S
C1300 C1288 1.349 . S
C1300 H1294 0.950 . S
C1300 C1301 1.327 . S
C1301 H1295 0.950 . S
C1301 C1300 1.327 . S
C1301 C1305 1.429 . S
C1302 C1285 1.574 . S
C1302 H1296 0.949 . S
C1302 C1306 1.368 1_556 S
C1303 C1284 1.429 . S
C1303 C1297 1.429 . S
C1303 C1304 1.523 . S
C1304 C1285 1.368 . S
C1304 C1298 1.368 . S
C1304 C1303 1.523 . S
C1305 C1289 1.429 . S
C1305 C1301 1.429 . S
C1305 C1306 1.523 . S
C1306 C1290 1.368 . S
C1306 C1302 1.368 1_554 S
C1306 C1305 1.523 . S
H1307 C1282 0.950 . S
H1308 C1284 0.950 . S
H1309 C1285 0.949 . S
H1310 C1287 0.950 . S
H1311 C1289 0.950 . S
C1312 C1313 1.349 . S
C1312 C1314 1.327 . S
C1312 H1337 0.950 . S
C1313 C1312 1.349 . S
C1313 C1329 1.349 . S
C1314 C1312 1.327 . S
C1314 C1333 1.429 . S
C1314 H1338 0.950 . S
C1315 C1332 1.574 . S
C1315 C1334 1.368 . S
C1315 H1339 0.949 . S
H1316 C1320 0.949 . S
C1317 C1318 1.349 . S
C1317 C1319 1.327 . S
C1317 H1340 0.950 . S
C1318 C1317 1.349 . S
C1318 C1330 1.349 . S
C1319 C1317 1.327 . S
C1319 C1335 1.429 . S
C1319 H1341 0.950 . S
C1320 H1316 0.949 . S
C1320 C1328 1.574 . S
C1320 C1336 1.368 . S
H1321 C1329 0.950 . S
H1322 C1327 0.950 . S
H1323 C1328 0.949 . S
H1324 C1330 0.950 . S
H1325 C1331 0.950 . S
H1326 C1332 0.949 . S
C1327 H1322 0.950 . S
C1327 C1329 1.327 . S
C1327 C1333 1.429 . S
C1328 C1320 1.574 . S
C1328 H1323 0.949 . S
C1328 C1334 1.368 . S
C1329 C1313 1.349 . S
C1329 H1321 0.950 . S
C1329 C1327 1.327 . S
C1330 C1318 1.349 . S
C1330 H1324 0.950 . S
C1330 C1331 1.327 . S
C1331 H1325 0.950 . S
C1331 C1330 1.327 . S
C1331 C1335 1.429 . S
C1332 C1315 1.574 . S
C1332 H1326 0.949 . S
C1332 C1336 1.368 . S
C1333 C1314 1.429 . S
C1333 C1327 1.429 . S
C1333 C1334 1.523 . S
C1334 C1315 1.368 . S
C1334 C1328 1.368 . S
C1334 C1333 1.523 . S
C1335 C1319 1.429 . S
C1335 C1331 1.429 . S
C1335 C1336 1.523 . S
C1336 C1320 1.368 . S
C1336 C1332 1.368 . S
C1336 C1335 1.523 . S
H1337 C1312 0.950 . S
H1338 C1314 0.950 . S
H1339 C1315 0.949 . S
H1340 C1317 0.950 . S
H1341 C1319 0.950 . S
C1342 C1343 1.349 . S
C1342 C1344 1.327 . S
C1342 H1367 0.950 . S
C1343 C1342 1.349 . S
C1343 C1359 1.349 . S
C1344 C1342 1.327 . S
C1344 C1363 1.429 . S
C1344 H1368 0.950 . S
C1345 C1362 1.574 . S
C1345 C1364 1.368 . S
C1345 H1369 0.949 . S
H1346 C1350 0.949 . S
C1347 C1348 1.349 . S
C1347 C1349 1.327 . S
C1347 H1370 0.950 . S
C1348 C1347 1.349 . S
C1348 C1360 1.349 . S
C1349 C1347 1.327 . S
C1349 C1365 1.429 . S
C1349 H1371 0.950 . S
C1350 H1346 0.949 . S
C1350 C1358 1.574 . S
C1350 C1366 1.368 . S
H1351 C1359 0.950 . S
H1352 C1357 0.950 . S
H1353 C1358 0.949 . S
H1354 C1360 0.950 . S
H1355 C1361 0.950 . S
H1356 C1362 0.949 . S
C1357 H1352 0.950 . S
C1357 C1359 1.327 . S
C1357 C1363 1.429 . S
C1358 C1350 1.574 . S
C1358 H1353 0.949 . S
C1358 C1364 1.368 . S
C1359 C1343 1.349 . S
C1359 H1351 0.950 . S
C1359 C1357 1.327 . S
C1360 C1348 1.349 . S
C1360 H1354 0.950 . S
C1360 C1361 1.327 . S
C1361 H1355 0.950 . S
C1361 C1360 1.327 . S
C1361 C1365 1.429 . S
C1362 C1345 1.574 . S
C1362 H1356 0.949 . S
C1362 C1366 1.368 . S
C1363 C1344 1.429 . S
C1363 C1357 1.429 . S
C1363 C1364 1.523 . S
C1364 C1345 1.368 . S
C1364 C1358 1.368 . S
C1364 C1363 1.523 . S
C1365 C1349 1.429 . S
C1365 C1361 1.429 . S
C1365 C1366 1.523 . S
C1366 C1350 1.368 . S
C1366 C1362 1.368 . S
C1366 C1365 1.523 . S
H1367 C1342 0.950 . S
H1368 C1344 0.950 . S
H1369 C1345 0.949 . S
H1370 C1347 0.950 . S
H1371 C1349 0.950 . S
C1372 C1373 1.349 . S
C1372 C1374 1.327 . S
C1372 H1397 0.950 . S
C1373 C1372 1.349 . S
C1373 C1389 1.349 . S
C1374 C1372 1.327 . S
C1374 C1393 1.429 . S
C1374 H1398 0.950 . S
C1375 C1392 1.574 . S
C1375 C1394 1.368 . S
C1375 H1399 0.949 . S
H1376 C1380 0.949 . S
C1377 C1378 1.349 . S
C1377 C1379 1.327 . S
C1377 H1400 0.950 . S
C1378 C1377 1.349 . S
C1378 C1390 1.349 . S
C1379 C1377 1.327 . S
C1379 C1395 1.429 . S
C1379 H1401 0.950 . S
C1380 H1376 0.949 . S
C1380 C1388 1.574 . S
C1380 C1396 1.368 . S
H1381 C1389 0.950 . S
H1382 C1387 0.950 . S
H1383 C1388 0.949 . S
H1384 C1390 0.950 . S
H1385 C1391 0.950 . S
H1386 C1392 0.949 . S
C1387 H1382 0.950 . S
C1387 C1389 1.327 . S
C1387 C1393 1.429 . S
C1388 C1380 1.574 . S
C1388 H1383 0.949 . S
C1388 C1394 1.368 . S
C1389 C1373 1.349 . S
C1389 H1381 0.950 . S
C1389 C1387 1.327 . S
C1390 C1378 1.349 . S
C1390 H1384 0.950 . S
C1390 C1391 1.327 . S
C1391 H1385 0.950 . S
C1391 C1390 1.327 . S
C1391 C1395 1.429 . S
C1392 C1375 1.574 . S
C1392 H1386 0.949 . S
C1392 C1396 1.368 . S
C1393 C1374 1.429 . S
C1393 C1387 1.429 . S
C1393 C1394 1.523 . S
C1394 C1375 1.368 . S
C1394 C1388 1.368 . S
C1394 C1393 1.523 . S
C1395 C1379 1.429 . S
C1395 C1391 1.429 . S
C1395 C1396 1.523 . S
C1396 C1380 1.368 . S
C1396 C1392 1.368 . S
C1396 C1395 1.523 . S
H1397 C1372 0.950 . S
H1398 C1374 0.950 . S
H1399 C1375 0.949 . S
H1400 C1377 0.950 . S
H1401 C1379 0.950 . S
C1402 C1403 1.349 . S
C1402 C1404 1.327 . S
C1402 H1427 0.950 . S
C1403 C1402 1.349 . S
C1403 C1419 1.349 . S
C1404 C1402 1.327 . S
C1404 C1423 1.429 . S
C1404 H1428 0.950 . S
C1405 C1422 1.574 . S
C1405 C1424 1.368 . S
C1405 H1429 0.949 . S
H1406 C1410 0.949 . S
C1407 C1408 1.349 . S
C1407 C1409 1.327 . S
C1407 H1430 0.950 . S
C1408 C1407 1.349 . S
C1408 C1420 1.349 . S
C1409 C1407 1.327 . S
C1409 C1425 1.429 . S
C1409 H1431 0.950 . S
C1410 H1406 0.949 . S
C1410 C1418 1.574 . S
C1410 C1426 1.368 . S
H1411 C1419 0.950 . S
H1412 C1417 0.950 . S
H1413 C1418 0.949 . S
H1414 C1420 0.950 . S
H1415 C1421 0.950 . S
H1416 C1422 0.949 . S
C1417 H1412 0.950 . S
C1417 C1419 1.327 . S
C1417 C1423 1.429 . S
C1418 C1410 1.574 . S
C1418 H1413 0.949 . S
C1418 C1424 1.368 . S
C1419 C1403 1.349 . S
C1419 H1411 0.950 . S
C1419 C1417 1.327 . S
C1420 C1408 1.349 . S
C1420 H1414 0.950 . S
C1420 C1421 1.327 . S
C1421 H1415 0.950 . S
C1421 C1420 1.327 . S
C1421 C1425 1.429 . S
C1422 C1405 1.574 . S
C1422 H1416 0.949 . S
C1422 C1426 1.368 . S
C1423 C1404 1.429 . S
C1423 C1417 1.429 . S
C1423 C1424 1.523 . S
C1424 C1405 1.368 . S
C1424 C1418 1.368 . S
C1424 C1423 1.523 . S
C1425 C1409 1.429 . S
C1425 C1421 1.429 . S
C1425 C1426 1.523 . S
C1426 C1410 1.368 . S
C1426 C1422 1.368 . S
C1426 C1425 1.523 . S
H1427 C1402 0.950 . S
H1428 C1404 0.950 . S
H1429 C1405 0.949 . S
H1430 C1407 0.950 . S
H1431 C1409 0.950 . S
C1432 C1433 1.349 . S
C1432 C1434 1.327 . S
C1432 H1457 0.950 . S
C1433 C1432 1.349 . S
C1433 C1449 1.349 . S
C1434 C1432 1.327 . S
C1434 C1453 1.429 . S
C1434 H1458 0.950 . S
C1435 C1452 1.574 . S
C1435 C1454 1.368 . S
C1435 H1459 0.949 . S
H1436 C1440 0.949 . S
C1437 C1438 1.349 . S
C1437 C1439 1.327 . S
C1437 H1460 0.950 . S
C1438 C1437 1.349 . S
C1438 C1450 1.349 . S
C1439 C1437 1.327 . S
C1439 C1455 1.429 . S
C1439 H1461 0.950 . S
C1440 H1436 0.949 . S
C1440 C1448 1.574 . S
C1440 C1456 1.368 . S
H1441 C1449 0.950 . S
H1442 C1447 0.950 . S
H1443 C1448 0.949 . S
H1444 C1450 0.950 . S
H1445 C1451 0.950 . S
H1446 C1452 0.949 . S
C1447 H1442 0.950 . S
C1447 C1449 1.327 . S
C1447 C1453 1.429 . S
C1448 C1440 1.574 . S
C1448 H1443 0.949 . S
C1448 C1454 1.368 . S
C1449 C1433 1.349 . S
C1449 H1441 0.950 . S
C1449 C1447 1.327 . S
C1450 C1438 1.349 . S
C1450 H1444 0.950 . S
C1450 C1451 1.327 . S
C1451 H1445 0.950 . S
C1451 C1450 1.327 . S
C1451 C1455 1.429 . S
C1452 C1435 1.574 . S
C1452 H1446 0.949 . S
C1452 C1456 1.368 . S
C1453 C1434 1.429 . S
C1453 C1447 1.429 . S
C1453 C1454 1.523 . S
C1454 C1435 1.368 . S
C1454 C1448 1.368 . S
C1454 C1453 1.523 . S
C1455 C1439 1.429 . S
C1455 C1451 1.429 . S
C1455 C1456 1.523 . S
C1456 C1440 1.368 . S
C1456 C1452 1.368 . S
C1456 C1455 1.523 . S
H1457 C1432 0.950 . S
H1458 C1434 0.950 . S
H1459 C1435 0.949 . S
H1460 C1437 0.950 . S
H1461 C1439 0.950 . S
C1462 C1463 1.349 . S
C1462 C1464 1.327 . S
C1462 H1487 0.950 1_455 S
C1463 C1462 1.349 . S
C1463 C1479 1.349 . S
C1464 C1462 1.327 . S
C1464 C1483 1.429 . S
C1464 H1488 0.950 . S
C1465 C1482 1.574 . S
C1465 C1484 1.368 . S
C1465 H1489 0.949 . S
H1466 C1470 0.949 . S
C1467 C1468 1.349 . S
C1467 C1469 1.327 . S
C1467 H1490 0.950 . S
C1468 C1467 1.349 . S
C1468 C1480 1.349 . S
C1469 C1467 1.327 . S
C1469 C1485 1.429 . S
C1469 H1491 0.950 . S
C1470 H1466 0.949 . S
C1470 C1478 1.574 . S
C1470 C1486 1.368 . S
H1471 C1479 0.950 . S
H1472 C1477 0.950 . S
H1473 C1478 0.949 . S
H1474 C1480 0.950 . S
H1475 C1481 0.950 . S
H1476 C1482 0.949 . S
C1477 H1472 0.950 . S
C1477 C1479 1.327 . S
C1477 C1483 1.429 . S
C1478 C1470 1.574 . S
C1478 H1473 0.949 . S
C1478 C1484 1.368 . S
C1479 C1463 1.349 . S
C1479 H1471 0.950 . S
C1479 C1477 1.327 . S
C1480 C1468 1.349 . S
C1480 H1474 0.950 . S
C1480 C1481 1.327 . S
C1481 H1475 0.950 . S
C1481 C1480 1.327 . S
C1481 C1485 1.429 . S
C1482 C1465 1.574 . S
C1482 H1476 0.949 . S
C1482 C1486 1.368 . S
C1483 C1464 1.429 . S
C1483 C1477 1.429 . S
C1483 C1484 1.523 . S
C1484 C1465 1.368 . S
C1484 C1478 1.368 . S
C1484 C1483 1.523 . S
C1485 C1469 1.429 . S
C1485 C1481 1.429 . S
C1485 C1486 1.523 . S
C1486 C1470 1.368 . S
C1486 C1482 1.368 . S
C1486 C1485 1.523 . S
H1487 C1462 0.950 1_655 S
H1488 C1464 0.950 . S
H1489 C1465 0.949 . S
H1490 C1467 0.950 . S
H1491 C1469 0.950 . S
C1492 C1493 1.349 . S
C1492 C1494 1.327 . S
C1492 H1517 0.950 . S
C1493 C1492 1.349 . S
C1493 C1509 1.349 . S
C1494 C1492 1.327 . S
C1494 C1513 1.429 . S
C1494 H1518 0.950 . S
C1495 C1512 1.574 . S
C1495 C1514 1.368 . S
C1495 H1519 0.949 . S
H1496 C1500 0.949 . S
C1497 C1498 1.349 . S
C1497 C1499 1.327 . S
C1497 H1520 0.950 . S
C1498 C1497 1.349 . S
C1498 C1510 1.349 . S
C1499 C1497 1.327 . S
C1499 C1515 1.429 . S
C1499 H1521 0.950 . S
C1500 H1496 0.949 . S
C1500 C1508 1.574 . S
C1500 C1516 1.368 . S
H1501 C1509 0.950 . S
H1502 C1507 0.950 . S
H1503 C1508 0.949 . S
H1504 C1510 0.950 . S
H1505 C1511 0.950 . S
H1506 C1512 0.949 . S
C1507 H1502 0.950 . S
C1507 C1509 1.327 . S
C1507 C1513 1.429 . S
C1508 C1500 1.574 . S
C1508 H1503 0.949 . S
C1508 C1514 1.368 . S
C1509 C1493 1.349 . S
C1509 H1501 0.950 . S
C1509 C1507 1.327 . S
C1510 C1498 1.349 . S
C1510 H1504 0.950 . S
C1510 C1511 1.327 . S
C1511 H1505 0.950 . S
C1511 C1510 1.327 . S
C1511 C1515 1.429 . S
C1512 C1495 1.574 . S
C1512 H1506 0.949 . S
C1512 C1516 1.368 . S
C1513 C1494 1.429 . S
C1513 C1507 1.429 . S
C1513 C1514 1.523 . S
C1514 C1495 1.368 . S
C1514 C1508 1.368 . S
C1514 C1513 1.523 . S
C1515 C1499 1.429 . S
C1515 C1511 1.429 . S
C1515 C1516 1.523 . S
C1516 C1500 1.368 . S
C1516 C1512 1.368 . S
C1516 C1515 1.523 . S
H1517 C1492 0.950 . S
H1518 C1494 0.950 . S
H1519 C1495 0.949 . S
H1520 C1497 0.950 . S
H1521 C1499 0.950 . S
C1522 C1523 1.349 . S
C1522 C1524 1.327 . S
C1522 H1547 0.950 . S
C1523 C1522 1.349 . S
C1523 C1539 1.349 . S
C1524 C1522 1.327 . S
C1524 C1543 1.429 . S
C1524 H1548 0.950 . S
C1525 C1542 1.574 . S
C1525 C1544 1.368 . S
C1525 H1549 0.949 . S
H1526 C1530 0.949 . S
C1527 C1528 1.349 . S
C1527 C1529 1.327 . S
C1527 H1550 0.950 . S
C1528 C1527 1.349 . S
C1528 C1540 1.349 . S
C1529 C1527 1.327 . S
C1529 C1545 1.429 . S
C1529 H1551 0.950 . S
C1530 H1526 0.949 . S
C1530 C1538 1.574 . S
C1530 C1546 1.368 . S
H1531 C1539 0.950 . S
H1532 C1537 0.950 . S
H1533 C1538 0.949 . S
H1534 C1540 0.950 . S
H1535 C1541 0.950 . S
H1536 C1542 0.949 . S
C1537 H1532 0.950 . S
C1537 C1539 1.327 . S
C1537 C1543 1.429 . S
C1538 C1530 1.574 . S
C1538 H1533 0.949 . S
C1538 C1544 1.368 . S
C1539 C1523 1.349 . S
C1539 H1531 0.950 . S
C1539 C1537 1.327 . S
C1540 C1528 1.349 . S
C1540 H1534 0.950 . S
C1540 C1541 1.327 . S
C1541 H1535 0.950 . S
C1541 C1540 1.327 . S
C1541 C1545 1.429 . S
C1542 C1525 1.574 . S
C1542 H1536 0.949 . S
C1542 C1546 1.368 . S
C1543 C1524 1.429 . S
C1543 C1537 1.429 . S
C1543 C1544 1.523 . S
C1544 C1525 1.368 . S
C1544 C1538 1.368 . S
C1544 C1543 1.523 . S
C1545 C1529 1.429 . S
C1545 C1541 1.429 . S
C1545 C1546 1.523 . S
C1546 C1530 1.368 . S
C1546 C1542 1.368 . S
C1546 C1545 1.523 . S
H1547 C1522 0.950 . S
H1548 C1524 0.950 . S
H1549 C1525 0.949 . S
H1550 C1527 0.950 . S
H1551 C1529 0.950 . S
C1552 C1553 1.349 . S
C1552 C1554 1.328 . S
C1552 H1577 0.950 1_565 S
C1553 C1552 1.349 . S
C1553 C1569 1.356 . S
C1554 C1552 1.328 . S
C1554 C1573 1.430 . S
C1554 H1578 0.947 1_565 S
C1555 C1572 1.574 . S
C1555 C1574 1.368 1_556 S
C1555 H1579 0.949 . S
H1556 C1560 0.949 . S
C1557 C1558 1.356 . S
C1557 C1559 1.328 1_554 S
C1557 H1580 0.943 1_544 S
C1558 C1557 1.356 . S
C1558 C1570 1.349 . S
C1559 C1557 1.328 1_556 S
C1559 C1575 1.426 1_556 S
C1559 H1581 0.952 1_545 S
C1560 H1556 0.949 . S
C1560 C1568 1.574 . S
C1560 C1576 1.368 . S
H1561 C1569 0.943 1_556 S
H1562 C1567 0.954 . S
H1563 C1568 0.949 . S
H1564 C1570 0.950 . S
H1565 C1571 0.950 . S
H1566 C1572 0.949 . S
C1567 H1562 0.954 . S
C1567 C1569 1.327 1_556 S
C1567 C1573 1.424 1_556 S
C1568 C1560 1.574 . S
C1568 H1563 0.949 . S
C1568 C1574 1.368 1_545 S
C1569 C1553 1.356 . S
C1569 H1561 0.943 1_554 S
C1569 C1567 1.327 1_554 S
C1570 C1558 1.349 . S
C1570 H1564 0.950 . S
C1570 C1571 1.327 . S
C1571 H1565 0.950 . S
C1571 C1570 1.327 . S
C1571 C1575 1.429 . S
C1572 C1555 1.574 . S
C1572 H1566 0.949 . S
C1572 C1576 1.368 1_566 S
C1573 C1554 1.430 . S
C1573 C1567 1.424 1_554 S
C1573 C1574 1.523 . S
C1574 C1555 1.368 1_554 S
C1574 C1568 1.368 1_565 S
C1574 C1573 1.523 . S
C1575 C1559 1.426 1_554 S
C1575 C1571 1.429 . S
C1575 C1576 1.523 . S
C1576 C1560 1.368 . S
C1576 C1572 1.368 1_544 S
C1576 C1575 1.523 . S
H1577 C1552 0.950 1_545 S
H1578 C1554 0.947 1_545 S
H1579 C1555 0.949 . S
H1580 C1557 0.943 1_566 S
H1581 C1559 0.952 1_565 S
C1582 C1583 1.368 . S
C1582 C1584 1.331 . S
C1582 H1607 0.931 1_456 S
C1583 C1582 1.368 . S
C1583 C1599 1.349 . S
C1584 C1582 1.331 . S
C1584 C1603 1.437 . S
C1584 H1608 0.937 1_456 S
C1585 C1602 1.574 . S
C1585 C1604 1.368 . S
C1585 H1609 0.949 . S
H1586 C1590 0.949 . S
C1587 C1588 1.349 . S
C1587 C1589 1.331 . S
C1587 H1610 0.950 1_655 S
C1588 C1587 1.349 . S
C1588 C1600 1.368 . S
C1589 C1587 1.331 . S
C1589 C1605 1.436 . S
C1589 H1611 0.938 1_655 S
C1590 H1586 0.949 . S
C1590 C1598 1.574 . S
C1590 C1606 1.368 1_554 S
H1591 C1599 0.950 . S
H1592 C1597 0.950 . S
H1593 C1598 0.949 . S
H1594 C1600 0.931 1_554 S
H1595 C1601 0.948 1_554 S
H1596 C1602 0.949 . S
C1597 H1592 0.950 . S
C1597 C1599 1.327 . S
C1597 C1603 1.429 . S
C1598 C1590 1.574 . S
C1598 H1593 0.949 . S
C1598 C1604 1.368 1_654 S
C1599 C1583 1.349 . S
C1599 H1591 0.950 . S
C1599 C1597 1.327 . S
C1600 C1588 1.368 . S
C1600 H1594 0.931 1_556 S
C1600 C1601 1.327 . S
C1601 H1595 0.948 1_556 S
C1601 C1600 1.327 . S
C1601 C1605 1.430 . S
C1602 C1585 1.574 . S
C1602 H1596 0.949 . S
C1602 C1606 1.368 1_455 S
C1603 C1584 1.437 . S
C1603 C1597 1.429 . S
C1603 C1604 1.523 . S
C1604 C1585 1.368 . S
C1604 C1598 1.368 1_456 S
C1604 C1603 1.523 . S
C1605 C1589 1.436 . S
C1605 C1601 1.430 . S
C1605 C1606 1.523 . S
C1606 C1590 1.368 1_556 S
C1606 C1602 1.368 1_655 S
C1606 C1605 1.523 . S
H1607 C1582 0.931 1_654 S
H1608 C1584 0.937 1_654 S
H1609 C1585 0.949 . S
H1610 C1587 0.950 1_455 S
H1611 C1589 0.938 1_455 S
C1612 C1613 1.349 . S
C1612 C1614 1.327 . S
C1612 H1637 0.950 . S
C1613 C1612 1.349 . S
C1613 C1629 1.349 . S
C1614 C1612 1.327 . S
C1614 C1633 1.429 . S
C1614 H1638 0.950 . S
C1615 C1632 1.574 . S
C1615 C1634 1.368 . S
C1615 H1639 0.949 . S
H1616 C1620 0.949 . S
C1617 C1618 1.349 . S
C1617 C1619 1.327 . S
C1617 H1640 0.950 . S
C1618 C1617 1.349 . S
C1618 C1630 1.349 . S
C1619 C1617 1.327 . S
C1619 C1635 1.429 . S
C1619 H1641 0.950 . S
C1620 H1616 0.949 . S
C1620 C1628 1.574 . S
C1620 C1636 1.368 . S
H1621 C1629 0.950 . S
H1622 C1627 0.950 . S
H1623 C1628 0.949 . S
H1624 C1630 0.950 . S
H1625 C1631 0.950 . S
H1626 C1632 0.949 . S
C1627 H1622 0.950 . S
C1627 C1629 1.327 . S
C1627 C1633 1.429 . S
C1628 C1620 1.574 . S
C1628 H1623 0.949 . S
C1628 C1634 1.368 . S
C1629 C1613 1.349 . S
C1629 H1621 0.950 . S
C1629 C1627 1.327 . S
C1630 C1618 1.349 . S
C1630 H1624 0.950 . S
C1630 C1631 1.327 . S
C1631 H1625 0.950 . S
C1631 C1630 1.327 . S
C1631 C1635 1.429 . S
C1632 C1615 1.574 . S
C1632 H1626 0.949 . S
C1632 C1636 1.368 . S
C1633 C1614 1.429 . S
C1633 C1627 1.429 . S
C1633 C1634 1.523 . S
C1634 C1615 1.368 . S
C1634 C1628 1.368 . S
C1634 C1633 1.523 . S
C1635 C1619 1.429 . S
C1635 C1631 1.429 . S
C1635 C1636 1.523 . S
C1636 C1620 1.368 . S
C1636 C1632 1.368 . S
C1636 C1635 1.523 . S
H1637 C1612 0.950 . S
H1638 C1614 0.950 . S
H1639 C1615 0.949 . S
H1640 C1617 0.950 . S
H1641 C1619 0.950 . S
C1642 C1643 1.349 . S
C1642 C1644 1.327 . S
C1642 H1667 0.950 . S
C1643 C1642 1.349 . S
C1643 C1659 1.349 . S
C1644 C1642 1.327 . S
C1644 C1663 1.429 . S
C1644 H1668 0.950 . S
C1645 C1662 1.574 . S
C1645 C1664 1.368 . S
C1645 H1669 0.949 . S
H1646 C1650 0.949 . S
C1647 C1648 1.349 . S
C1647 C1649 1.327 . S
C1647 H1670 0.950 . S
C1648 C1647 1.349 . S
C1648 C1660 1.349 . S
C1649 C1647 1.327 . S
C1649 C1665 1.429 . S
C1649 H1671 0.950 . S
C1650 H1646 0.949 . S
C1650 C1658 1.574 . S
C1650 C1666 1.368 . S
H1651 C1659 0.950 . S
H1652 C1657 0.950 . S
H1653 C1658 0.949 . S
H1654 C1660 0.950 . S
H1655 C1661 0.950 . S
H1656 C1662 0.949 . S
C1657 H1652 0.950 . S
C1657 C1659 1.327 . S
C1657 C1663 1.429 . S
C1658 C1650 1.574 . S
C1658 H1653 0.949 . S
C1658 C1664 1.368 . S
C1659 C1643 1.349 . S
C1659 H1651 0.950 . S
C1659 C1657 1.327 . S
C1660 C1648 1.349 . S
C1660 H1654 0.950 . S
C1660 C1661 1.327 . S
C1661 H1655 0.950 . S
C1661 C1660 1.327 . S
C1661 C1665 1.429 . S
C1662 C1645 1.574 . S
C1662 H1656 0.949 . S
C1662 C1666 1.368 . S
C1663 C1644 1.429 . S
C1663 C1657 1.429 . S
C1663 C1664 1.523 . S
C1664 C1645 1.368 . S
C1664 C1658 1.368 . S
C1664 C1663 1.523 . S
C1665 C1649 1.429 . S
C1665 C1661 1.429 . S
C1665 C1666 1.523 . S
C1666 C1650 1.368 . S
C1666 C1662 1.368 . S
C1666 C1665 1.523 . S
H1667 C1642 0.950 . S
H1668 C1644 0.950 . S
H1669 C1645 0.949 . S
H1670 C1647 0.950 . S
H1671 C1649 0.950 . S
C1672 C1673 1.349 . S
C1672 C1674 1.327 . S
C1672 H1697 0.950 . S
C1673 C1672 1.349 . S
C1673 C1689 1.349 . S
C1674 C1672 1.327 . S
C1674 C1693 1.429 . S
C1674 H1698 0.950 . S
C1675 C1692 1.574 1_455 S
C1675 C1694 1.368 . S
C1675 H1699 0.949 . S
H1676 C1680 0.949 . S
C1677 C1678 1.349 . S
C1677 C1679 1.327 . S
C1677 H1700 0.950 . S
C1678 C1677 1.349 . S
C1678 C1690 1.349 . S
C1679 C1677 1.327 . S
C1679 C1695 1.429 . S
C1679 H1701 0.950 . S
C1680 H1676 0.949 . S
C1680 C1688 1.574 1_655 S
C1680 C1696 1.368 . S
H1681 C1689 0.950 . S
H1682 C1687 0.950 . S
H1683 C1688 0.949 . S
H1684 C1690 0.950 . S
H1685 C1691 0.950 . S
H1686 C1692 0.949 . S
C1687 H1682 0.950 . S
C1687 C1689 1.327 . S
C1687 C1693 1.429 . S
C1688 C1680 1.574 1_455 S
C1688 H1683 0.949 . S
C1688 C1694 1.368 . S
C1689 C1673 1.349 . S
C1689 H1681 0.950 . S
C1689 C1687 1.327 . S
C1690 C1678 1.349 . S
C1690 H1684 0.950 . S
C1690 C1691 1.327 . S
C1691 H1685 0.950 . S
C1691 C1690 1.327 . S
C1691 C1695 1.429 . S
C1692 C1675 1.574 1_655 S
C1692 H1686 0.949 . S
C1692 C1696 1.368 . S
C1693 C1674 1.429 . S
C1693 C1687 1.429 . S
C1693 C1694 1.523 . S
C1694 C1675 1.368 . S
C1694 C1688 1.368 . S
C1694 C1693 1.523 . S
C1695 C1679 1.429 . S
C1695 C1691 1.429 . S
C1695 C1696 1.523 . S
C1696 C1680 1.368 . S
C1696 C1692 1.368 . S
C1696 C1695 1.523 . S
H1697 C1672 0.950 . S
H1698 C1674 0.950 . S
H1699 C1675 0.949 . S
H1700 C1677 0.950 . S
H1701 C1679 0.950 . S
C1702 C1703 1.349 . S
C1702 C1704 1.327 . S
C1702 H1727 0.950 . S
C1703 C1702 1.349 . S
C1703 C1719 1.349 . S
C1704 C1702 1.327 . S
C1704 C1723 1.429 . S
C1704 H1728 0.950 . S
C1705 C1722 1.574 1_545 S
C1705 C1724 1.368 . S
C1705 H1729 0.949 . S
H1706 C1710 0.949 . S
C1707 C1708 1.349 . S
C1707 C1709 1.327 . S
C1707 H1730 0.950 . S
C1708 C1707 1.349 . S
C1708 C1720 1.349 . S
C1709 C1707 1.327 . S
C1709 C1725 1.429 . S
C1709 H1731 0.950 . S
C1710 H1706 0.949 . S
C1710 C1718 1.574 1_565 S
C1710 C1726 1.368 . S
H1711 C1719 0.950 . S
H1712 C1717 0.950 . S
H1713 C1718 0.949 . S
H1714 C1720 0.950 . S
H1715 C1721 0.950 . S
H1716 C1722 0.949 . S
C1717 H1712 0.950 . S
C1717 C1719 1.327 . S
C1717 C1723 1.429 . S
C1718 C1710 1.574 1_545 S
C1718 H1713 0.949 . S
C1718 C1724 1.368 . S
C1719 C1703 1.349 . S
C1719 H1711 0.950 . S
C1719 C1717 1.327 . S
C1720 C1708 1.349 . S
C1720 H1714 0.950 . S
C1720 C1721 1.327 . S
C1721 H1715 0.950 . S
C1721 C1720 1.327 . S
C1721 C1725 1.429 . S
C1722 C1705 1.574 1_565 S
C1722 H1716 0.949 . S
C1722 C1726 1.368 . S
C1723 C1704 1.429 . S
C1723 C1717 1.429 . S
C1723 C1724 1.523 . S
C1724 C1705 1.368 . S
C1724 C1718 1.368 . S
C1724 C1723 1.523 . S
C1725 C1709 1.429 . S
C1725 C1721 1.429 . S
C1725 C1726 1.523 . S
C1726 C1710 1.368 . S
C1726 C1722 1.368 . S
C1726 C1725 1.523 . S
H1727 C1702 0.950 . S
H1728 C1704 0.950 . S
H1729 C1705 0.949 . S
H1730 C1707 0.950 . S
H1731 C1709 0.950 . S
C1732 C1733 1.349 . S
C1732 C1734 1.327 . S
C1732 H1757 0.950 . S
C1733 C1732 1.349 . S
C1733 C1749 1.349 . S
C1734 C1732 1.327 . S
C1734 C1753 1.429 . S
C1734 H1758 0.950 . S
C1735 C1752 1.574 1_455 S
C1735 C1754 1.368 1_565 S
C1735 H1759 0.949 . S
H1736 C1740 0.949 . S
C1737 C1738 1.349 . S
C1737 C1739 1.327 . S
C1737 H1760 0.950 . S
C1738 C1737 1.349 . S
C1738 C1750 1.349 . S
C1739 C1737 1.327 . S
C1739 C1755 1.429 . S
C1739 H1761 0.950 . S
C1740 H1736 0.949 . S
C1740 C1748 1.574 1_655 S
C1740 C1756 1.368 1_545 S
H1741 C1749 0.950 1_565 S
H1742 C1747 0.947 1_565 S
H1743 C1748 0.949 . S
H1744 C1750 0.950 1_545 S
H1745 C1751 0.947 1_545 S
H1746 C1752 0.949 . S
C1747 H1742 0.947 1_545 S
C1747 C1749 1.328 . S
C1747 C1753 1.430 . S
C1748 C1740 1.574 1_455 S
C1748 H1743 0.949 . S
C1748 C1754 1.368 . S
C1749 C1733 1.349 . S
C1749 H1741 0.950 1_545 S
C1749 C1747 1.328 . S
C1750 C1738 1.349 . S
C1750 H1744 0.950 1_565 S
C1750 C1751 1.328 . S
C1751 H1745 0.947 1_565 S
C1751 C1750 1.328 . S
C1751 C1755 1.430 . S
C1752 C1735 1.574 1_655 S
C1752 H1746 0.949 . S
C1752 C1756 1.368 . S
C1753 C1734 1.429 . S
C1753 C1747 1.430 . S
C1753 C1754 1.523 . S
C1754 C1735 1.368 1_545 S
C1754 C1748 1.368 . S
C1754 C1753 1.523 . S
C1755 C1739 1.429 . S
C1755 C1751 1.430 . S
C1755 C1756 1.523 . S
C1756 C1740 1.368 1_565 S
C1756 C1752 1.368 . S
C1756 C1755 1.523 . S
H1757 C1732 0.950 . S
H1758 C1734 0.950 . S
H1759 C1735 0.949 . S
H1760 C1737 0.950 . S
H1761 C1739 0.950 . S
C1762 C1763 1.349 . S
C1762 C1764 1.331 . S
C1762 H1787 0.950 1_655 S
C1763 C1762 1.349 . S
C1763 C1779 1.349 . S
C1764 C1762 1.331 . S
C1764 C1783 1.436 . S
C1764 H1788 0.938 1_655 S
C1765 C1782 1.574 1_545 S
C1765 C1784 1.368 . S
C1765 H1789 0.949 . S
H1766 C1770 0.949 . S
C1767 C1768 1.349 . S
C1767 C1769 1.331 . S
C1767 H1790 0.950 1_455 S
C1768 C1767 1.349 . S
C1768 C1780 1.349 . S
C1769 C1767 1.331 . S
C1769 C1785 1.436 . S
C1769 H1791 0.938 1_455 S
C1770 H1766 0.949 . S
C1770 C1778 1.574 1_565 S
C1770 C1786 1.368 . S
H1771 C1779 0.950 . S
H1772 C1777 0.950 . S
H1773 C1778 0.949 . S
H1774 C1780 0.950 . S
H1775 C1781 0.950 . S
H1776 C1782 0.949 . S
C1777 H1772 0.950 . S
C1777 C1779 1.327 . S
C1777 C1783 1.429 . S
C1778 C1770 1.574 1_545 S
C1778 H1773 0.949 . S
C1778 C1784 1.368 1_455 S
C1779 C1763 1.349 . S
C1779 H1771 0.950 . S
C1779 C1777 1.327 . S
C1780 C1768 1.349 . S
C1780 H1774 0.950 . S
C1780 C1781 1.327 . S
C1781 H1775 0.950 . S
C1781 C1780 1.327 . S
C1781 C1785 1.429 . S
C1782 C1765 1.574 1_565 S
C1782 H1776 0.949 . S
C1782 C1786 1.368 1_655 S
C1783 C1764 1.436 . S
C1783 C1777 1.429 . S
C1783 C1784 1.523 . S
C1784 C1765 1.368 . S
C1784 C1778 1.368 1_655 S
C1784 C1783 1.523 . S
C1785 C1769 1.436 . S
C1785 C1781 1.429 . S
C1785 C1786 1.523 . S
C1786 C1770 1.368 . S
C1786 C1782 1.368 1_455 S
C1786 C1785 1.523 . S
H1787 C1762 0.950 1_455 S
H1788 C1764 0.938 1_455 S
H1789 C1765 0.949 . S
H1790 C1767 0.950 1_655 S
H1791 C1769 0.938 1_655 S
C353 C348 1.465 . S
C358 C18 1.531 . S
C383 C274 1.431 . S
C388 C40 1.514 . S
C413 C62 1.531 . S
C418 C294 1.465 . S
C443 C84 1.514 . S
C448 C318 1.431 . S
C473 C98 1.531 . S
C478 C30 1.465 . S
C503 C118 1.514 . S
C508 C54 1.431 . S
C533 C142 1.531 . S
C538 C74 1.465 . S
C563 C10 1.431 . S
C568 C162 1.514 . S
C593 C184 1.531 . S
C598 C164 1.465 . S
C623 C216 1.514 . S
C628 C96 1.431 . S
C653 C238 1.531 . S
C658 C120 1.465 . S
C683 C260 1.514 . S
C688 C140 1.431 . S
C713 C282 1.531 . S
C718 C206 1.465 . S
C743 C230 1.431 . S
C748 C304 1.514 . S
C773 C250 1.465 . S
C778 C326 1.531 . S
C803 C194 1.431 . S
C808 C340 1.514 . S
C833 C106 0.863 . S
C838 C8 0.863 . S
C863 C32 0.847 . S
C868 C128 0.847 . S
C893 C150 0.863 . S
C898 C52 0.863 . S
C923 C76 0.847 . S
C928 C172 0.847 . S
C953 C272 0.863 . S
C958 C186 0.863 . S
C983 C296 0.847 . S
C988 C208 0.847 . S
C1013 C316 0.863 . S
C1018 C228 0.863 . S
C1043 C338 0.847 . S
C1048 C252 0.847 . S
C1073 C7 0.810 . S
C1078 C257 0.814 . S
C1103 C191 0.815 . S
C1108 C29 0.812 . S
C1133 C51 0.810 . S
C1138 C213 0.814 . S
C1163 C73 0.812 . S
C1168 C241 0.815 . S
C1193 C117 0.814 . S
C1198 C103 0.810 . S
C1223 C139 0.815 . S
C1228 C131 0.812 . S
C1253 C161 0.814 . S
C1258 C147 0.810 . S
C1283 C175 0.812 . S
C1288 C95 0.815 . S
C1313 C197 0.809 . S
C1318 C81 0.814 . S
C1343 C21 0.815 . S
C1348 C205 0.812 . S
C1373 C37 0.814 . S
C1378 C227 0.809 . S
C1403 C65 0.815 . S
C1408 C249 0.812 . S
C1433 C301 0.814 . S
C1438 C271 0.809 . S
C1463 C293 0.812 . S
C1468 C329 0.815 . S
C1493 C351 0.814 . S
C1498 C315 0.809 . S
C1523 C345 0.812 . S
C1528 C285 0.815 . S
C1553 C59 0.173 . S
C1558 C15 0.173 . S
C1583 C43 0.212 . S
C1588 C87 0.212 . S
C1613 C109 0.173 . S
C1618 C153 0.173 . S
C1643 C169 0.212 . S
C1648 C125 0.212 . S
C1673 C235 0.173 . S
C1678 C183 0.173 . S
C1703 C219 0.212 . S
C1708 C263 0.212 . S
C1733 C323 0.173 . S
C1738 C279 0.173 . S
C1763 C307 0.212 . S
C1768 C337 0.212 . S
