# Generated by pormake.
# Topology upd, (4)-cn, num edge types: 1
# Building blocks:
#     Node 0, Type 0, BuildingBlock: KOZSID_clean_sbu_0, # of connection points: 4
#     Node 1, Type 0, BuildingBlock: KOZSID_clean_sbu_0, # of connection points: 4
#     Node 2, Type 0, BuildingBlock: KOZSID_clean_sbu_0, # of connection points: 4
#     Node 3, Type 0, BuildingBlock: KOZSID_clean_sbu_0, # of connection points: 4
#     Node 4, Type 0, BuildingBlock: KOZSID_clean_sbu_0, # of connection points: 4
#     Node 5, Type 0, BuildingBlock: KOZSID_clean_sbu_0, # of connection points: 4
#     Node 6, Type 0, BuildingBlock: KOZSID_clean_sbu_0, # of connection points: 4
#     Node 7, Type 0, BuildingBlock: KOZSID_clean_sbu_0, # of connection points: 4
#     Node 8, Type 0, BuildingBlock: KOZSID_clean_sbu_0, # of connection points: 4
#     Node 9, Type 0, BuildingBlock: KOZSID_clean_sbu_0, # of connection points: 4
#     Node 10, Type 0, BuildingBlock: KOZSID_clean_sbu_0, # of connection points: 4
#     Node 11, Type 0, BuildingBlock: KOZSID_clean_sbu_0, # of connection points: 4
#     Node 12, Type 0, BuildingBlock: KOZSID_clean_sbu_0, # of connection points: 4
#     Node 13, Type 0, BuildingBlock: KOZSID_clean_sbu_0, # of connection points: 4
#     Node 14, Type 0, BuildingBlock: KOZSID_clean_sbu_0, # of connection points: 4
#     Node 15, Type 0, BuildingBlock: KOZSID_clean_sbu_0, # of connection points: 4
#     Node 16, Type 0, BuildingBlock: KOZSID_clean_sbu_0, # of connection points: 4
#     Node 17, Type 0, BuildingBlock: KOZSID_clean_sbu_0, # of connection points: 4
#     Node 18, Type 0, BuildingBlock: KOZSID_clean_sbu_0, # of connection points: 4
#     Node 19, Type 0, BuildingBlock: KOZSID_clean_sbu_0, # of connection points: 4
#     Node 20, Type 0, BuildingBlock: KOZSID_clean_sbu_0, # of connection points: 4
#     Node 21, Type 0, BuildingBlock: KOZSID_clean_sbu_0, # of connection points: 4
#     Node 22, Type 0, BuildingBlock: KOZSID_clean_sbu_0, # of connection points: 4
#     Node 23, Type 0, BuildingBlock: KOZSID_clean_sbu_0, # of connection points: 4
#     Node 24, Type 0, BuildingBlock: KOZSID_clean_sbu_0, # of connection points: 4
#     Node 25, Type 0, BuildingBlock: KOZSID_clean_sbu_0, # of connection points: 4
#     Node 26, Type 0, BuildingBlock: KOZSID_clean_sbu_0, # of connection points: 4
#     Node 27, Type 0, BuildingBlock: KOZSID_clean_sbu_0, # of connection points: 4
#     Node 28, Type 0, BuildingBlock: KOZSID_clean_sbu_0, # of connection points: 4
#     Node 29, Type 0, BuildingBlock: KOZSID_clean_sbu_0, # of connection points: 4
#     Node 30, Type 0, BuildingBlock: KOZSID_clean_sbu_0, # of connection points: 4
#     Node 31, Type 0, BuildingBlock: KOZSID_clean_sbu_0, # of connection points: 4
#     Edge 32, Type (0, 0), BuildingBlock: AJUNOK_clean_linker_0, # of connection points: 2
#     Edge 33, Type (0, 0), BuildingBlock: AJUNOK_clean_linker_0, # of connection points: 2
#     Edge 34, Type (0, 0), BuildingBlock: AJUNOK_clean_linker_0, # of connection points: 2
#     Edge 35, Type (0, 0), BuildingBlock: AJUNOK_clean_linker_0, # of connection points: 2
#     Edge 36, Type (0, 0), BuildingBlock: AJUNOK_clean_linker_0, # of connection points: 2
#     Edge 37, Type (0, 0), BuildingBlock: AJUNOK_clean_linker_0, # of connection points: 2
#     Edge 38, Type (0, 0), BuildingBlock: AJUNOK_clean_linker_0, # of connection points: 2
#     Edge 39, Type (0, 0), BuildingBlock: AJUNOK_clean_linker_0, # of connection points: 2
#     Edge 40, Type (0, 0), BuildingBlock: AJUNOK_clean_linker_0, # of connection points: 2
#     Edge 41, Type (0, 0), BuildingBlock: AJUNOK_clean_linker_0, # of connection points: 2
#     Edge 42, Type (0, 0), BuildingBlock: AJUNOK_clean_linker_0, # of connection points: 2
#     Edge 43, Type (0, 0), BuildingBlock: AJUNOK_clean_linker_0, # of connection points: 2
#     Edge 44, Type (0, 0), BuildingBlock: AJUNOK_clean_linker_0, # of connection points: 2
#     Edge 45, Type (0, 0), BuildingBlock: AJUNOK_clean_linker_0, # of connection points: 2
#     Edge 46, Type (0, 0), BuildingBlock: AJUNOK_clean_linker_0, # of connection points: 2
#     Edge 47, Type (0, 0), BuildingBlock: AJUNOK_clean_linker_0, # of connection points: 2
#     Edge 48, Type (0, 0), BuildingBlock: AJUNOK_clean_linker_0, # of connection points: 2
#     Edge 49, Type (0, 0), BuildingBlock: AJUNOK_clean_linker_0, # of connection points: 2
#     Edge 50, Type (0, 0), BuildingBlock: AJUNOK_clean_linker_0, # of connection points: 2
#     Edge 51, Type (0, 0), BuildingBlock: AJUNOK_clean_linker_0, # of connection points: 2
#     Edge 52, Type (0, 0), BuildingBlock: AJUNOK_clean_linker_0, # of connection points: 2
#     Edge 53, Type (0, 0), BuildingBlock: AJUNOK_clean_linker_0, # of connection points: 2
#     Edge 54, Type (0, 0), BuildingBlock: AJUNOK_clean_linker_0, # of connection points: 2
#     Edge 55, Type (0, 0), BuildingBlock: AJUNOK_clean_linker_0, # of connection points: 2
#     Edge 56, Type (0, 0), BuildingBlock: AJUNOK_clean_linker_0, # of connection points: 2
#     Edge 57, Type (0, 0), BuildingBlock: AJUNOK_clean_linker_0, # of connection points: 2
#     Edge 58, Type (0, 0), BuildingBlock: AJUNOK_clean_linker_0, # of connection points: 2
#     Edge 59, Type (0, 0), BuildingBlock: AJUNOK_clean_linker_0, # of connection points: 2
#     Edge 60, Type (0, 0), BuildingBlock: AJUNOK_clean_linker_0, # of connection points: 2
#     Edge 61, Type (0, 0), BuildingBlock: AJUNOK_clean_linker_0, # of connection points: 2
#     Edge 62, Type (0, 0), BuildingBlock: AJUNOK_clean_linker_0, # of connection points: 2
#     Edge 63, Type (0, 0), BuildingBlock: AJUNOK_clean_linker_0, # of connection points: 2
#     Edge 64, Type (0, 0), BuildingBlock: AJUNOK_clean_linker_0, # of connection points: 2
#     Edge 65, Type (0, 0), BuildingBlock: AJUNOK_clean_linker_0, # of connection points: 2
#     Edge 66, Type (0, 0), BuildingBlock: AJUNOK_clean_linker_0, # of connection points: 2
#     Edge 67, Type (0, 0), BuildingBlock: AJUNOK_clean_linker_0, # of connection points: 2
#     Edge 68, Type (0, 0), BuildingBlock: AJUNOK_clean_linker_0, # of connection points: 2
#     Edge 69, Type (0, 0), BuildingBlock: AJUNOK_clean_linker_0, # of connection points: 2
#     Edge 70, Type (0, 0), BuildingBlock: AJUNOK_clean_linker_0, # of connection points: 2
#     Edge 71, Type (0, 0), BuildingBlock: AJUNOK_clean_linker_0, # of connection points: 2
#     Edge 72, Type (0, 0), BuildingBlock: AJUNOK_clean_linker_0, # of connection points: 2
#     Edge 73, Type (0, 0), BuildingBlock: AJUNOK_clean_linker_0, # of connection points: 2
#     Edge 74, Type (0, 0), BuildingBlock: AJUNOK_clean_linker_0, # of connection points: 2
#     Edge 75, Type (0, 0), BuildingBlock: AJUNOK_clean_linker_0, # of connection points: 2
#     Edge 76, Type (0, 0), BuildingBlock: AJUNOK_clean_linker_0, # of connection points: 2
#     Edge 77, Type (0, 0), BuildingBlock: AJUNOK_clean_linker_0, # of connection points: 2
#     Edge 78, Type (0, 0), BuildingBlock: AJUNOK_clean_linker_0, # of connection points: 2
#     Edge 79, Type (0, 0), BuildingBlock: AJUNOK_clean_linker_0, # of connection points: 2
#     Edge 80, Type (0, 0), BuildingBlock: AJUNOK_clean_linker_0, # of connection points: 2
#     Edge 81, Type (0, 0), BuildingBlock: AJUNOK_clean_linker_0, # of connection points: 2
#     Edge 82, Type (0, 0), BuildingBlock: AJUNOK_clean_linker_0, # of connection points: 2
#     Edge 83, Type (0, 0), BuildingBlock: AJUNOK_clean_linker_0, # of connection points: 2
#     Edge 84, Type (0, 0), BuildingBlock: AJUNOK_clean_linker_0, # of connection points: 2
#     Edge 85, Type (0, 0), BuildingBlock: AJUNOK_clean_linker_0, # of connection points: 2
#     Edge 86, Type (0, 0), BuildingBlock: AJUNOK_clean_linker_0, # of connection points: 2
#     Edge 87, Type (0, 0), BuildingBlock: AJUNOK_clean_linker_0, # of connection points: 2
#     Edge 88, Type (0, 0), BuildingBlock: AJUNOK_clean_linker_0, # of connection points: 2
#     Edge 89, Type (0, 0), BuildingBlock: AJUNOK_clean_linker_0, # of connection points: 2
#     Edge 90, Type (0, 0), BuildingBlock: AJUNOK_clean_linker_0, # of connection points: 2
#     Edge 91, Type (0, 0), BuildingBlock: AJUNOK_clean_linker_0, # of connection points: 2
#     Edge 92, Type (0, 0), BuildingBlock: AJUNOK_clean_linker_0, # of connection points: 2
#     Edge 93, Type (0, 0), BuildingBlock: AJUNOK_clean_linker_0, # of connection points: 2
#     Edge 94, Type (0, 0), BuildingBlock: AJUNOK_clean_linker_0, # of connection points: 2
#     Edge 95, Type (0, 0), BuildingBlock: AJUNOK_clean_linker_0, # of connection points: 2
# Relax obj value: 0.029
# Max RMSD: 0.129
# Mean RMSD: 0.088
data_MOF--net-upd--node1-KOZSID_clean_sbu_0--edge1-AJUNOK_clean_linker_0
_symmetry_space_group_name_H-M    P1
_symmetry_Int_Tables_number       1
_symmetry_cell_setting            triclinic
loop_
_symmetry_equiv_pos_as_xyz
'x, y, z'
_cell_length_a     38.771324
_cell_length_b     31.409093
_cell_length_c     81.055274
_cell_angle_alpha  89.986223
_cell_angle_beta   89.974924
_cell_angle_gamma 89.987361
loop_
_atom_site_label
_atom_site_type_symbol
_atom_site_fract_x
_atom_site_fract_y
_atom_site_fract_z
_atom_type_partial_charge
C0 C 0.05006 0.15416 0.34166 0.0
C1 C 0.01516 0.16363 0.34087 0.0
C2 C 0.01041 0.18707 0.32686 0.0
C3 C 0.04258 0.19077 0.31994 0.0
N4 N 0.06745 0.17012 0.32846 0.0
Co5 Co 0.1185 0.17221 0.32428 0.0
N6 N 0.11289 0.21551 0.30624 0.0
C7 C 0.08287 0.23262 0.30088 0.0
C8 C 0.08691 0.26128 0.28829 0.0
C9 C 0.12152 0.26212 0.28522 0.0
C10 C 0.1367 0.2335 0.29608 0.0
N11 N 0.16956 0.17414 0.32021 0.0
C12 C 0.18792 0.19455 0.30831 0.0
C13 C 0.2226 0.18336 0.30886 0.0
C14 C 0.22636 0.15556 0.32163 0.0
C15 C 0.19392 0.15074 0.32801 0.0
N16 N 0.12413 0.12932 0.34241 0.0
C17 C 0.15368 0.11044 0.34738 0.0
C18 C 0.14973 0.08446 0.36084 0.0
C19 C 0.1158 0.08805 0.36507 0.0
C20 C 0.10111 0.1163 0.35394 0.0
N21 N 0.1145 0.12552 0.30743 0.0
C22 C 0.11328 0.06389 0.28175 0.0
C23 C 0.13578 0.05993 0.29512 0.0
C24 C 0.13608 0.09083 0.30763 0.0
C25 C 0.09047 0.09835 0.28179 0.0
C26 C 0.09127 0.12818 0.29468 0.0
N27 N 0.12216 0.21847 0.34107 0.0
C28 C 0.14383 0.24347 0.36742 0.0
C29 C 0.11772 0.27421 0.36844 0.0
C30 C 0.09577 0.2787 0.35487 0.0
C31 C 0.09851 0.25094 0.34143 0.0
C32 C 0.14568 0.21627 0.35368 0.0
H33 H 0.08039 0.25547 0.33171 0.0
H34 H 0.16552 0.19262 0.35375 0.0
H35 H 0.15441 0.08609 0.31719 0.0
H36 H 0.07298 0.15332 0.29391 0.0
C37 C 0.05117 0.21964 0.30745 0.0
C38 C 0.06625 0.13302 0.35573 0.0
C39 C 0.17362 0.22356 0.29589 0.0
C40 C 0.18524 0.1219 0.34044 0.0
H41 H 0.99546 0.15628 0.34989 0.0
H42 H 0.98679 0.2023 0.32289 0.0
H43 H 0.06699 0.27887 0.28188 0.0
H44 H 0.13408 0.28113 0.27585 0.0
H45 H 0.24306 0.19329 0.30065 0.0
H46 H 0.24977 0.13948 0.3254 0.0
H47 H 0.16955 0.06702 0.36738 0.0
H48 H 0.10362 0.07331 0.37565 0.0
H49 H 0.15377 0.03357 0.29573 0.0
H50 H 0.07188 0.10222 0.27193 0.0
H51 H 0.16186 0.23913 0.37748 0.0
H52 H 0.07604 0.30312 0.35472 0.0
C53 C 0.12834 0.79699 0.59421 0.0
C54 C 0.12704 0.75282 0.59435 0.0
C55 C 0.10887 0.74085 0.58069 0.0
C56 C 0.10053 0.77816 0.57285 0.0
N57 N 0.11296 0.81316 0.58051 0.0
Co58 Co 0.10682 0.87368 0.57327 0.0
N59 N 0.073 0.85712 0.55559 0.0
C60 C 0.06226 0.81718 0.55204 0.0
C61 C 0.03819 0.81545 0.53968 0.0
C62 C 0.03313 0.85679 0.53505 0.0
C63 C 0.05463 0.88147 0.54484 0.0
N64 N 0.10127 0.93425 0.56578 0.0
C65 C 0.08108 0.95136 0.55375 0.0
C66 C 0.08616 0.99494 0.55234 0.0
C67 C 0.11035 0.00575 0.56384 0.0
C68 C 0.11876 0.96834 0.57158 0.0
N69 N 0.13931 0.8902 0.59155 0.0
C70 C 0.1507 0.92999 0.59492 0.0
C71 C 0.1684 0.93301 0.60948 0.0
C72 C 0.16763 0.89302 0.61606 0.0
C73 C 0.14986 0.86744 0.60497 0.0
N74 N 0.14606 0.8671 0.55738 0.0
C75 C 0.19975 0.86141 0.53376 0.0
C76 C 0.20067 0.8918 0.5463 0.0
C77 C 0.17399 0.89391 0.55788 0.0
C78 C 0.17173 0.83355 0.53334 0.0
C79 C 0.14555 0.83675 0.54519 0.0
N80 N 0.06832 0.88025 0.58903 0.0
C81 C 0.04281 0.9186 0.61176 0.0
C82 C 0.02017 0.885 0.61489 0.0
C83 C 0.02117 0.84959 0.60443 0.0
C84 C 0.04527 0.8479 0.59163 0.0
C85 C 0.06605 0.9159 0.59869 0.0
H86 H 0.04548 0.81976 0.58422 0.0
H87 H 0.08274 0.94248 0.59694 0.0
H88 H 0.17657 0.91798 0.56697 0.0
H89 H 0.12515 0.8144 0.54406 0.0
C90 C 0.07648 0.78186 0.56009 0.0
C91 C 0.14209 0.82223 0.60795 0.0
C92 C 0.05698 0.9278 0.54326 0.0
C93 C 0.14087 0.96465 0.58513 0.0
H94 H 0.13681 0.73156 0.60376 0.0
H95 H 0.1009 0.70893 0.57741 0.0
H96 H 0.02599 0.78744 0.53454 0.0
H97 H 0.01578 0.86757 0.52546 0.0
H98 H 0.07357 0.01667 0.54391 0.0
H99 H 0.12022 0.03728 0.56644 0.0
H100 H 0.17887 0.96143 0.61513 0.0
H101 H 0.17783 0.88449 0.62801 0.0
H102 H 0.22155 0.91463 0.54701 0.0
H103 H 0.16999 0.80923 0.5239 0.0
H104 H 0.0435 0.94639 0.61965 0.0
H105 H 0.00374 0.82304 0.60625 0.0
C106 C 0.45659 0.84841 0.84421 0.0
C107 C 0.49177 0.84013 0.84473 0.0
C108 C 0.49911 0.81508 0.83144 0.0
C109 C 0.46809 0.80886 0.82372 0.0
N110 N 0.4414 0.82915 0.83106 0.0
Co111 Co 0.39107 0.82196 0.82587 0.0
N112 N 0.40117 0.77937 0.80801 0.0
C113 C 0.43266 0.76594 0.80304 0.0
C114 C 0.43181 0.73955 0.7896 0.0
C115 C 0.39777 0.73659 0.78548 0.0
C116 C 0.37971 0.76115 0.79681 0.0
N117 N 0.34075 0.81393 0.82113 0.0
C118 C 0.32493 0.79084 0.8092 0.0
C119 C 0.28928 0.79366 0.81036 0.0
C120 C 0.28233 0.82048 0.82317 0.0
C121 C 0.31397 0.8322 0.82916 0.0
N122 N 0.38086 0.86536 0.84333 0.0
C123 C 0.34962 0.8813 0.84747 0.0
C124 C 0.35081 0.9108 0.85991 0.0
C125 C 0.38474 0.9131 0.86425 0.0
C126 C 0.40225 0.88437 0.85428 0.0
N127 N 0.39318 0.86822 0.8089 0.0
C128 C 0.3922 0.92901 0.78292 0.0
C129 C 0.3662 0.92783 0.79489 0.0
C130 C 0.36703 0.8974 0.8075 0.0
C131 C 0.41964 0.90036 0.78472 0.0
C132 C 0.41972 0.87071 0.79772 0.0
N133 N 0.38902 0.77578 0.84283 0.0
C134 C 0.36673 0.74843 0.86871 0.0
C135 C 0.39082 0.71522 0.86881 0.0
C136 C 0.41351 0.71247 0.85543 0.0
C137 C 0.41209 0.74264 0.84268 0.0
C138 C 0.36603 0.77771 0.85567 0.0
H139 H 0.43031 0.73893 0.83295 0.0
H140 H 0.34712 0.80224 0.85646 0.0
H141 H 0.34589 0.89785 0.81587 0.0
H142 H 0.44127 0.84967 0.79833 0.0
C143 C 0.46262 0.78035 0.81078 0.0
C144 C 0.43832 0.87297 0.85684 0.0
C145 C 0.34247 0.76799 0.79596 0.0
C146 C 0.3194 0.86391 0.84095 0.0
H147 H 0.51015 0.8497 0.85404 0.0
H148 H 0.5238 0.80118 0.82832 0.0
H149 H 0.45346 0.72531 0.78321 0.0
H150 H 0.38756 0.71921 0.77505 0.0
H151 H 0.27028 0.77893 0.80242 0.0
H152 H 0.25724 0.83154 0.82717 0.0
H153 H 0.32936 0.927 0.86572 0.0
H154 H 0.39519 0.93216 0.87419 0.0
H155 H 0.34506 0.95035 0.79458 0.0
H156 H 0.44069 0.90014 0.77593 0.0
H157 H 0.34901 0.75273 0.8789 0.0
H158 H 0.43248 0.68719 0.85481 0.0
C159 C 0.39734 0.23413 0.09378 0.0
C160 C 0.41202 0.27414 0.09591 0.0
C161 C 0.42822 0.28426 0.08149 0.0
C162 C 0.42381 0.24948 0.07155 0.0
N163 N 0.40539 0.2178 0.07866 0.0
Co164 Co 0.40272 0.15729 0.07062 0.0
N165 N 0.43461 0.16876 0.05171 0.0
C166 C 0.44509 0.20748 0.04653 0.0
C167 C 0.46368 0.20633 0.03217 0.0
C168 C 0.46604 0.16425 0.02816 0.0
C169 C 0.44848 0.142 0.04033 0.0
N170 N 0.40188 0.09608 0.06333 0.0
C171 C 0.42106 0.07539 0.05174 0.0
C172 C 0.41423 0.03201 0.05175 0.0
C173 C 0.38982 0.02508 0.06361 0.0
C174 C 0.38336 0.06435 0.07031 0.0
N175 N 0.36989 0.14625 0.08921 0.0
C176 C 0.3518 0.11006 0.09172 0.0
C177 C 0.32993 0.11224 0.10498 0.0
C178 C 0.33488 0.15188 0.11151 0.0
C179 C 0.36015 0.17152 0.10204 0.0
N180 N 0.36272 0.17096 0.05579 0.0
C181 C 0.31002 0.18586 0.03213 0.0
C182 C 0.31204 0.1475 0.04076 0.0
C183 C 0.33811 0.14085 0.05236 0.0
C184 C 0.33404 0.21749 0.03607 0.0
C185 C 0.35967 0.20962 0.04796 0.0
N186 N 0.4421 0.14372 0.08513 0.0
C187 C 0.46579 0.10383 0.10791 0.0
C188 C 0.49502 0.12976 0.10814 0.0
C189 C 0.49786 0.16192 0.09631 0.0
C190 C 0.47149 0.16791 0.08479 0.0
C191 C 0.43981 0.1113 0.09637 0.0
H192 H 0.47486 0.19292 0.07597 0.0
H193 H 0.4176 0.09127 0.09704 0.0
H194 H 0.33774 0.11067 0.05819 0.0
H195 H 0.37686 0.23524 0.05041 0.0
C196 C 0.44037 0.24344 0.0564 0.0
C197 C 0.37574 0.21284 0.10634 0.0
C198 C 0.44591 0.09552 0.04054 0.0
C199 C 0.35985 0.07282 0.08304 0.0
H200 H 0.41214 0.29372 0.10687 0.0
H201 H 0.44328 0.31253 0.07895 0.0
H202 H 0.47439 0.23287 0.02546 0.0
H203 H 0.47923 0.15139 0.01749 0.0
H204 H 0.42576 0.00779 0.04403 0.0
H205 H 0.37836 0.99493 0.06704 0.0
H206 H 0.31357 0.08727 0.10983 0.0
H207 H 0.3222 0.16423 0.1224 0.0
H208 H 0.29354 0.12229 0.03854 0.0
H209 H 0.33371 0.24787 0.02976 0.0
H210 H 0.46227 0.07899 0.11703 0.0
H211 H 0.52006 0.18279 0.09613 0.0
C212 C 0.04732 0.86968 0.17234 0.0
C213 C 0.0116 0.86608 0.17221 0.0
C214 C 0.00344 0.83201 0.18199 0.0
C215 C 0.03445 0.81691 0.18763 0.0
N216 N 0.0617 0.83983 0.18234 0.0
Co217 Co 0.11103 0.82759 0.18743 0.0
N218 N 0.09857 0.78645 0.20516 0.0
C219 C 0.06743 0.76856 0.20752 0.0
C220 C 0.06622 0.74295 0.22124 0.0
C221 C 0.09864 0.74489 0.22795 0.0
C222 C 0.11793 0.77138 0.21782 0.0
N223 N 0.16016 0.81524 0.19255 0.0
C224 C 0.1743 0.79727 0.20614 0.0
C225 C 0.20988 0.79409 0.20463 0.0
C226 C 0.21823 0.81099 0.18957 0.0
C227 C 0.1874 0.82332 0.18277 0.0
N228 N 0.12399 0.86847 0.16964 0.0
C229 C 0.15554 0.87187 0.16273 0.0
C230 C 0.15704 0.90097 0.15018 0.0
C231 C 0.12424 0.91634 0.14876 0.0
C232 C 0.10435 0.89568 0.1606 0.0
N233 N 0.11126 0.87401 0.20381 0.0
C234 C 0.11276 0.93749 0.2284 0.0
C235 C 0.1387 0.93507 0.21635 0.0
C236 C 0.13756 0.90308 0.20424 0.0
C237 C 0.08598 0.90765 0.22774 0.0
C238 C 0.08553 0.87661 0.21534 0.0
N239 N 0.1106 0.78089 0.17112 0.0
C240 C 0.12509 0.70904 0.16288 0.0
C241 C 0.10843 0.71476 0.14767 0.0
C242 C 0.09303 0.75415 0.14451 0.0
C243 C 0.09463 0.78659 0.15623 0.0
C244 C 0.12568 0.74238 0.17447 0.0
H245 H 0.0829 0.81632 0.15309 0.0
H246 H 0.13832 0.73696 0.18614 0.0
H247 H 0.15823 0.90155 0.19537 0.0
H248 H 0.06443 0.85439 0.21525 0.0
C249 C 0.03879 0.7835 0.19883 0.0
C250 C 0.06639 0.89717 0.16078 0.0
C251 C 0.1547 0.78077 0.22019 0.0
C252 C 0.18362 0.84912 0.16891 0.0
H253 H 0.99346 0.88501 0.1652 0.0
H254 H 0.97795 0.81974 0.18465 0.0
H255 H 0.04393 0.72684 0.22631 0.0
H256 H 0.10692 0.72911 0.23913 0.0
H257 H 0.2279 0.78099 0.21347 0.0
H258 H 0.24384 0.81545 0.18454 0.0
H259 H 0.17923 0.90964 0.1428 0.0
H260 H 0.11586 0.93866 0.13944 0.0
H261 H 0.16014 0.95717 0.21648 0.0
H262 H 0.06529 0.90844 0.23672 0.0
H263 H 0.13722 0.67895 0.16587 0.0
H264 H 0.08024 0.76021 0.13286 0.0
C265 C 0.37285 0.79605 0.42067 0.0
C266 C 0.37344 0.7519 0.4204 0.0
C267 C 0.39205 0.73919 0.43384 0.0
C268 C 0.40132 0.77612 0.44169 0.0
N269 N 0.38912 0.81156 0.43425 0.0
Co270 Co 0.39617 0.87171 0.44175 0.0
N271 N 0.43052 0.85402 0.45903 0.0
C272 C 0.44138 0.81385 0.46209 0.0
C273 C 0.46571 0.81129 0.47431 0.0
C274 C 0.47081 0.85229 0.47937 0.0
C275 C 0.44905 0.87762 0.46996 0.0
N276 N 0.4022 0.93179 0.4497 0.0
C277 C 0.42222 0.94801 0.46197 0.0
C278 C 0.41687 0.99141 0.46393 0.0
C279 C 0.39267 0.00301 0.45255 0.0
C280 C 0.38449 0.96619 0.44436 0.0
N281 N 0.36356 0.88945 0.4237 0.0
C282 C 0.35314 0.9297 0.42045 0.0
C283 C 0.33657 0.93399 0.40564 0.0
C284 C 0.33699 0.89432 0.3988 0.0
C285 C 0.35309 0.86755 0.41006 0.0
N286 N 0.35741 0.86496 0.45785 0.0
C287 C 0.30545 0.86041 0.48232 0.0
C288 C 0.30291 0.88911 0.46922 0.0
C289 C 0.32889 0.89082 0.45723 0.0
C290 C 0.33363 0.83277 0.48257 0.0
C291 C 0.35897 0.83547 0.47033 0.0
N292 N 0.43419 0.87845 0.42574 0.0
C293 C 0.45947 0.91792 0.40323 0.0
C294 C 0.47876 0.88244 0.39852 0.0
C295 C 0.47742 0.84604 0.40842 0.0
C296 C 0.45525 0.84482 0.42198 0.0
C297 C 0.43761 0.91534 0.41687 0.0
H298 H 0.45473 0.81598 0.42897 0.0
H299 H 0.42283 0.94307 0.41968 0.0
H300 H 0.32535 0.91376 0.44774 0.0
H301 H 0.37964 0.81346 0.47141 0.0
C302 C 0.42621 0.77905 0.45412 0.0
C303 C 0.35881 0.82181 0.40715 0.0
C304 C 0.44632 0.92374 0.4722 0.0
C305 C 0.36275 0.96352 0.43067 0.0
H306 H 0.3627 0.73117 0.41107 0.0
H307 H 0.39966 0.70701 0.43694 0.0
H308 H 0.4778 0.7829 0.4792 0.0
H309 H 0.48818 0.86238 0.48906 0.0
H310 H 0.42928 0.01251 0.47266 0.0
H311 H 0.38267 0.03467 0.45032 0.0
H312 H 0.32715 0.96302 0.40002 0.0
H313 H 0.32765 0.88667 0.3866 0.0
H314 H 0.28134 0.91094 0.46842 0.0
H315 H 0.33618 0.80904 0.49219 0.0
H316 H 0.46035 0.94709 0.3961 0.0
H317 H 0.49311 0.81843 0.4056 0.0
C318 C 0.4419 0.15721 0.67253 0.0
C319 C 0.47674 0.1669 0.6737 0.0
C320 C 0.48172 0.1842 0.68906 0.0
C321 C 0.44968 0.18476 0.69632 0.0
N322 N 0.42492 0.16885 0.68648 0.0
Co323 Co 0.37438 0.16988 0.69076 0.0
N324 N 0.37922 0.21288 0.7087 0.0
C325 C 0.40903 0.22321 0.71628 0.0
C326 C 0.40475 0.25168 0.72893 0.0
C327 C 0.37001 0.25919 0.72965 0.0
C328 C 0.35489 0.23488 0.71729 0.0
N329 N 0.32361 0.17095 0.69468 0.0
C330 C 0.30395 0.19777 0.70388 0.0
C331 C 0.26932 0.18664 0.70299 0.0
C332 C 0.26743 0.1506 0.69357 0.0
C333 C 0.30079 0.14203 0.68903 0.0
N334 N 0.36968 0.12642 0.67316 0.0
C335 C 0.34256 0.10047 0.67078 0.0
C336 C 0.34691 0.07356 0.65759 0.0
C337 C 0.37869 0.08343 0.65123 0.0
C338 C 0.39182 0.11608 0.66091 0.0
N339 N 0.37944 0.12397 0.70725 0.0
C340 C 0.38547 0.05815 0.73071 0.0
C341 C 0.3633 0.09261 0.73335 0.0
C342 C 0.36092 0.12513 0.72162 0.0
C343 C 0.40505 0.05754 0.71616 0.0
C344 C 0.40141 0.09049 0.70453 0.0
N345 N 0.36998 0.21541 0.67415 0.0
C346 C 0.3486 0.23913 0.64771 0.0
C347 C 0.37301 0.27215 0.64721 0.0
C348 C 0.39469 0.2772 0.66091 0.0
C349 C 0.39264 0.24883 0.67421 0.0
C350 C 0.34732 0.21144 0.6613 0.0
H351 H 0.41053 0.25302 0.68422 0.0
H352 H 0.329 0.18564 0.66105 0.0
H353 H 0.34394 0.15115 0.72426 0.0
H354 H 0.41625 0.08873 0.69329 0.0
C355 C 0.44072 0.20852 0.71026 0.0
C356 C 0.42553 0.13601 0.65836 0.0
C357 C 0.31732 0.22934 0.71566 0.0
C358 C 0.31124 0.10896 0.67862 0.0
H359 H 0.4964 0.16291 0.66436 0.0
H360 H 0.50541 0.19761 0.69385 0.0
H361 H 0.42452 0.26541 0.73671 0.0
H362 H 0.35723 0.27922 0.73862 0.0
H363 H 0.24784 0.20181 0.70917 0.0
H364 H 0.24448 0.13274 0.69044 0.0
H365 H 0.32839 0.05127 0.65257 0.0
H366 H 0.39057 0.06881 0.64056 0.0
H367 H 0.34799 0.09459 0.74451 0.0
H368 H 0.42249 0.0314 0.71364 0.0
H369 H 0.33153 0.23347 0.63737 0.0
H370 H 0.41367 0.30249 0.66123 0.0
C371 C 0.10615 0.24362 0.92575 0.0
C372 C 0.09531 0.28557 0.92408 0.0
C373 C 0.08464 0.29885 0.93937 0.0
C374 C 0.08812 0.26403 0.94946 0.0
N375 N 0.10003 0.22959 0.94138 0.0
Co376 Co 0.09999 0.1703 0.95001 0.0
N377 N 0.0678 0.18471 0.96825 0.0
C378 C 0.06284 0.22419 0.97422 0.0
C379 C 0.04289 0.22481 0.98817 0.0
C380 C 0.03421 0.18315 0.99105 0.0
C381 C 0.04988 0.15921 0.97875 0.0
N382 N 0.09966 0.11072 0.95834 0.0
C383 C 0.07782 0.09097 0.96902 0.0
C384 C 0.08734 0.04872 0.97124 0.0
C385 C 0.11662 0.04235 0.96205 0.0
C386 C 0.12324 0.08075 0.95461 0.0
N387 N 0.13266 0.15637 0.93196 0.0
C388 C 0.15386 0.12247 0.93169 0.0
C389 C 0.17503 0.12199 0.91811 0.0
C390 C 0.16655 0.15781 0.9093 0.0
C391 C 0.14026 0.17807 0.91791 0.0
N392 N 0.13916 0.18326 0.96462 0.0
C393 C 0.19697 0.19456 0.98495 0.0
C394 C 0.19607 0.21236 0.96911 0.0
C395 C 0.16683 0.2064 0.95912 0.0
C396 C 0.16815 0.17227 0.99058 0.0
C397 C 0.13958 0.16719 0.98032 0.0
N398 N 0.06117 0.15717 0.93553 0.0
C399 C 0.03739 0.11505 0.91354 0.0
C400 C 0.00977 0.1435 0.91186 0.0
C401 C 0.00755 0.17777 0.92289 0.0
C402 C 0.03346 0.184 0.93463 0.0
C403 C 0.06266 0.12234 0.92546 0.0
H404 H 0.03155 0.21125 0.94266 0.0
H405 H 0.08404 0.1005 0.92616 0.0
H406 H 0.16691 0.21961 0.94683 0.0
H407 H 0.11816 0.14924 0.98507 0.0
C408 C 0.073 0.25982 0.96506 0.0
C409 C 0.12426 0.2187 0.91281 0.0
C410 C 0.05056 0.11236 0.97866 0.0
C411 C 0.14865 0.08858 0.94266 0.0
H412 H 0.09429 0.30457 0.91297 0.0
H413 H 0.0731 0.32924 0.94241 0.0
H414 H 0.03542 0.25237 0.99532 0.0
H415 H 0.01906 0.1716 1.00134 0.0
H416 H 0.07496 0.02523 0.979 0.0
H417 H 0.13097 0.01298 0.96074 0.0
H418 H 0.19345 0.09767 0.91466 0.0
H419 H 0.1784 0.16777 0.89785 0.0
H420 H 0.21806 0.22974 0.96436 0.0
H421 H 0.16799 0.15808 1.00277 0.0
H422 H 0.04022 0.08814 0.9053 0.0
H423 H 0.98632 0.20007 0.92233 0.0
C424 C 0.84274 0.76344 0.68606 0.0
C425 C 0.85601 0.7231 0.68892 0.0
C426 C 0.8641 0.72124 0.70539 0.0
C427 C 0.8552 0.76036 0.71168 0.0
N428 N 0.84182 0.78654 0.70026 0.0
Co429 Co 0.82742 0.84666 0.70385 0.0
N430 N 0.85399 0.85134 0.72485 0.0
C431 C 0.86534 0.81766 0.73366 0.0
C432 C 0.87833 0.82857 0.74878 0.0
C433 C 0.87437 0.87172 0.74981 0.0
C434 C 0.85938 0.88511 0.7351 0.0
N435 N 0.8143 0.90759 0.70673 0.0
C436 C 0.82727 0.93794 0.717 0.0
C437 C 0.81311 0.97748 0.71336 0.0
C438 C 0.78871 0.97101 0.70139 0.0
C439 C 0.78995 0.92825 0.698 0.0
N440 N 0.79992 0.84069 0.6832 0.0
C441 C 0.77479 0.86733 0.6782 0.0
C442 C 0.76258 0.85753 0.66277 0.0
C443 C 0.78138 0.82301 0.65767 0.0
C444 C 0.80393 0.813 0.6704 0.0
N445 N 0.78721 0.82837 0.71709 0.0
C446 C 0.73939 0.79784 0.74046 0.0
C447 C 0.75114 0.83987 0.74093 0.0
C448 C 0.7755 0.85394 0.72958 0.0
C449 C 0.74934 0.7727 0.72691 0.0
C450 C 0.77267 0.78892 0.71517 0.0
N451 N 0.86737 0.86478 0.69095 0.0
C452 C 0.88944 0.89806 0.66644 0.0
C453 C 0.92235 0.88133 0.66943 0.0
C454 C 0.92736 0.85745 0.68387 0.0
C455 C 0.89951 0.84925 0.69438 0.0
C456 C 0.86274 0.89039 0.67751 0.0
H457 H 0.90373 0.8291 0.70495 0.0
H458 H 0.8379 0.90365 0.67467 0.0
H459 H 0.78558 0.88519 0.7316 0.0
H460 H 0.77997 0.76878 0.70497 0.0
C461 C 0.86461 0.77639 0.72711 0.0
C462 C 0.82938 0.77791 0.66999 0.0
C463 C 0.84733 0.92917 0.73218 0.0
C464 C 0.77133 0.9073 0.68564 0.0
H465 H 0.85961 0.69784 0.68 0.0
H466 H 0.87653 0.6952 0.71181 0.0
H467 H 0.88888 0.80757 0.75809 0.0
H468 H 0.8806 0.89053 0.76056 0.0
H469 H 0.81842 0.00751 0.71939 0.0
H470 H 0.77223 0.99473 0.69577 0.0
H471 H 0.74461 0.87582 0.6554 0.0
H472 H 0.77958 0.80861 0.64561 0.0
H473 H 0.7426 0.86172 0.75042 0.0
H474 H 0.74027 0.74026 0.72568 0.0
H475 H 0.88361 0.91535 0.65524 0.0
H476 H 0.95236 0.84409 0.68682 0.0
C477 C 0.88461 0.07914 0.43066 0.0
C478 C 0.87194 0.05518 0.41764 0.0
C479 C 0.87797 0.0135 0.4215 0.0
C480 C 0.89408 0.01444 0.43655 0.0
N481 N 0.89783 0.05409 0.44277 0.0
Co482 Co 0.92438 0.0705 0.46306 0.0
N483 N 0.93829 0.0099 0.46752 0.0
C484 C 0.92776 0.97518 0.45903 0.0
C485 C 0.93992 0.93756 0.46532 0.0
C486 C 0.9592 0.94879 0.47871 0.0
C487 C 0.95795 0.99288 0.47978 0.0
N488 N 0.95247 0.08726 0.48284 0.0
C489 C 0.9721 0.06338 0.49325 0.0
C490 C 0.98858 0.08857 0.5049 0.0
C491 C 0.97861 0.12955 0.50197 0.0
C492 C 0.95696 0.12725 0.48864 0.0
N493 N 0.90938 0.13072 0.45907 0.0
C494 C 0.91545 0.16467 0.46888 0.0
C495 C 0.90292 0.20219 0.46262 0.0
C496 C 0.88862 0.19164 0.44777 0.0
C497 C 0.89345 0.14819 0.44582 0.0
N498 N 0.88249 0.06216 0.47712 0.0
C499 C 0.81789 0.0587 0.49336 0.0
C500 C 0.84312 0.08796 0.49816 0.0
C501 C 0.87502 0.08905 0.48999 0.0
C502 C 0.82652 0.02929 0.48112 0.0
C503 C 0.85867 0.03138 0.47333 0.0
N504 N 0.96504 0.07952 0.44852 0.0
C505 C 0.99716 0.13043 0.43221 0.0
C506 C 0.00429 0.09948 0.42024 0.0
C507 C 0.99475 0.05744 0.42375 0.0
C508 C 0.97545 0.04818 0.43788 0.0
C509 C 0.97851 0.11951 0.44641 0.0
H510 H 0.96757 0.01586 0.43944 0.0
H511 H 0.97334 0.14454 0.45501 0.0
H512 H 0.89287 0.11256 0.49408 0.0
H513 H 0.86329 0.00812 0.46408 0.0
C514 C 0.90805 0.97917 0.44467 0.0
C515 C 0.88546 0.12559 0.43061 0.0
C516 C 0.97547 0.01691 0.49282 0.0
C517 C 0.93855 0.16151 0.48204 0.0
H518 H 0.86053 0.06672 0.4063 0.0
H519 H 0.87257 0.98593 0.41392 0.0
H520 H 0.93548 0.90574 0.46065 0.0
H521 H 0.97258 0.92692 0.4868 0.0
H522 H 0.00573 0.07834 0.51466 0.0
H523 H 0.98581 0.1576 0.50891 0.0
H524 H 0.90597 0.23386 0.46768 0.0
H525 H 0.87748 0.21366 0.43898 0.0
H526 H 0.8379 0.11087 0.50783 0.0
H527 H 0.80836 0.00487 0.47743 0.0
H528 H 0.00404 0.16344 0.4303 0.0
H529 H 1.00096 0.03188 0.41528 0.0
C530 C 0.63422 0.23072 0.18848 0.0
C531 C 0.60809 0.26053 0.19039 0.0
C532 C 0.5984 0.25948 0.20666 0.0
C533 C 0.61796 0.22801 0.21375 0.0
N534 N 0.63937 0.20924 0.20291 0.0
Co535 Co 0.66371 0.15398 0.20629 0.0
N536 N 0.63469 0.13842 0.22567 0.0
C537 C 0.61622 0.16664 0.23457 0.0
C538 C 0.60266 0.14975 0.24872 0.0
C539 C 0.61371 0.10844 0.24899 0.0
C540 C 0.63312 0.10197 0.23476 0.0
N541 N 0.68754 0.09824 0.20895 0.0
C542 C 0.67894 0.06333 0.21804 0.0
C543 C 0.70225 0.03051 0.21521 0.0
C544 C 0.72722 0.04627 0.20491 0.0
C545 C 0.71754 0.08742 0.20167 0.0
N546 N 0.69311 0.17064 0.18736 0.0
C547 C 0.72423 0.15427 0.18375 0.0
C548 C 0.73866 0.17242 0.16995 0.0
C549 C 0.71488 0.20161 0.16448 0.0
C550 C 0.68699 0.19929 0.17517 0.0
N551 N 0.69676 0.18073 0.22154 0.0
C552 C 0.74117 0.2189 0.24475 0.0
C553 C 0.73091 0.17638 0.24632 0.0
C554 C 0.70857 0.1583 0.23487 0.0
C555 C 0.7292 0.24174 0.23095 0.0
C556 C 0.70748 0.22188 0.21939 0.0
N557 N 0.63082 0.12781 0.19113 0.0
C558 C 0.62059 0.10124 0.16375 0.0
C559 C 0.58649 0.11566 0.16453 0.0
C560 C 0.57405 0.13182 0.17946 0.0
C561 C 0.59653 0.137 0.19272 0.0
C562 C 0.64234 0.1073 0.1773 0.0
H563 H 0.58673 0.15194 0.20371 0.0
H564 H 0.66909 0.09856 0.17606 0.0
H565 H 0.70066 0.12611 0.23709 0.0
H566 H 0.69887 0.24006 0.20885 0.0
C567 C 0.60975 0.20758 0.22854 0.0
C568 C 0.65477 0.22383 0.17323 0.0
C569 C 0.65276 0.06249 0.23139 0.0
C570 C 0.73426 0.1155 0.19082 0.0
H571 H 0.59561 0.27947 0.18104 0.0
H572 H 0.57707 0.27654 0.21219 0.0
H573 H 0.58679 0.16563 0.25783 0.0
H574 H 0.60896 0.08641 0.25898 0.0
H575 H 0.70209 0.99894 0.22054 0.0
H576 H 0.74962 0.02956 0.20026 0.0
H577 H 0.76241 0.16337 0.16387 0.0
H578 H 0.71727 0.22126 0.15357 0.0
H579 H 0.7398 0.15693 0.2565 0.0
H580 H 0.73573 0.27494 0.22925 0.0
H581 H 0.63101 0.08823 0.15242 0.0
H582 H 0.54758 0.14248 0.1806 0.0
C583 C 0.61585 0.92912 0.93049 0.0
C584 C 0.63045 0.95203 0.91762 0.0
C585 C 0.62685 0.9941 0.92149 0.0
C586 C 0.61043 0.9945 0.93647 0.0
N587 N 0.60422 0.95524 0.94265 0.0
Co588 Co 0.57767 0.94141 0.96322 0.0
N589 N 0.56789 0.00316 0.96784 0.0
C590 C 0.5802 0.03682 0.95926 0.0
C591 C 0.5697 0.07542 0.96535 0.0
C592 C 0.54956 0.06595 0.97867 0.0
C593 C 0.54889 0.0219 0.97997 0.0
N594 N 0.54942 0.92745 0.98331 0.0
C595 C 0.53103 0.95302 0.99363 0.0
C596 C 0.51445 0.92965 1.00581 0.0
C597 C 0.52242 0.88794 1.00308 0.0
C598 C 0.54332 0.88815 0.98944 0.0
N599 N 0.58846 0.87979 0.95898 0.0
C600 C 0.58017 0.84657 0.96884 0.0
C601 C 0.58778 0.80773 0.9621 0.0
C602 C 0.60122 0.81652 0.94694 0.0
C603 C 0.60161 0.86058 0.94532 0.0
N604 N 0.62062 0.94554 0.97678 0.0
C605 C 0.68565 0.94377 0.99255 0.0
C606 C 0.65909 0.91666 0.99758 0.0
C607 C 0.62702 0.91806 0.98959 0.0
C608 C 0.67847 0.97347 0.98025 0.0
C609 C 0.64605 0.97409 0.97273 0.0
N610 N 0.53597 0.93664 0.94923 0.0
C611 C 0.50136 0.88837 0.93307 0.0
C612 C 0.49714 0.91928 0.92078 0.0
C613 C 0.50803 0.96077 0.92434 0.0
C614 C 0.52739 0.96871 0.93854 0.0
C615 C 0.51985 0.89815 0.94738 0.0
H616 H 0.5369 1.00038 0.94011 0.0
H617 H 0.52296 0.87323 0.95626 0.0
H618 H 0.60812 0.89604 0.99383 0.0
H619 H 0.64253 0.99766 0.96351 0.0
C620 C 0.59904 0.03098 0.94472 0.0
C621 C 0.6122 0.88274 0.93021 0.0
C622 C 0.52919 0.99948 0.99272 0.0
C623 C 0.55872 0.85228 0.98248 0.0
H624 H 0.64166 0.93958 0.90638 0.0
H625 H 0.6343 0.02116 0.91403 0.0
H626 H 0.57536 0.10672 0.96045 0.0
H627 H 0.53646 0.08887 0.98643 0.0
H628 H 0.4985 0.94156 0.01576 0.0
H629 H 0.51424 0.86072 0.01028 0.0
H630 H 0.58162 0.77661 0.96704 0.0
H631 H 0.608 0.79279 0.93786 0.0
H632 H 0.66333 0.8936 1.00731 0.0
H633 H 0.69791 0.99613 0.97635 0.0
H634 H 0.49219 0.85613 0.93133 0.0
H635 H 0.50297 0.98675 0.9159 0.0
C636 C 0.87219 0.22271 0.83024 0.0
C637 C 0.89838 0.25246 0.82841 0.0
C638 C 0.90792 0.25188 0.81214 0.0
C639 C 0.88834 0.22059 0.80496 0.0
N640 N 0.86697 0.20153 0.81575 0.0
Co641 Co 0.84369 0.14549 0.81246 0.0
N642 N 0.87263 0.13072 0.7929 0.0
C643 C 0.89102 0.15929 0.78414 0.0
C644 C 0.90475 0.14295 0.76993 0.0
C645 C 0.89379 0.10165 0.76942 0.0
C646 C 0.87412 0.0947 0.78354 0.0
N647 N 0.82115 0.08884 0.81001 0.0
C648 C 0.83021 0.05436 0.80078 0.0
C649 C 0.80878 0.02008 0.8043 0.0
C650 C 0.78406 0.03456 0.81501 0.0
C651 C 0.79223 0.0764 0.81788 0.0
N652 N 0.81419 0.16133 0.83147 0.0
C653 C 0.78365 0.14371 0.83532 0.0
C654 C 0.76898 0.16167 0.8491 0.0
C655 C 0.79206 0.19195 0.85434 0.0
C656 C 0.81983 0.19039 0.84356 0.0
N657 N 0.80973 0.17116 0.79733 0.0
C658 C 0.76429 0.20832 0.77428 0.0
C659 C 0.77485 0.16588 0.77279 0.0
C660 C 0.79764 0.14829 0.78418 0.0
C661 C 0.77646 0.23156 0.78793 0.0
C662 C 0.79867 0.21221 0.79942 0.0
N663 N 0.87752 0.12067 0.82759 0.0
C664 C 0.88825 0.09958 0.85566 0.0
C665 C 0.92146 0.11679 0.85472 0.0
C666 C 0.9338 0.1302 0.83935 0.0
C667 C 0.91153 0.13122 0.82585 0.0
C668 C 0.8667 0.10145 0.84184 0.0
H669 H 0.92101 0.14473 0.81453 0.0
H670 H 0.84036 0.09113 0.84321 0.0
H671 H 0.80565 0.11615 0.78204 0.0
H672 H 0.80736 0.23073 0.80984 0.0
C673 C 0.89696 0.20024 0.79022 0.0
C674 C 0.85182 0.21532 0.84552 0.0
C675 C 0.8541 0.05533 0.7865 0.0
C676 C 0.77489 0.10401 0.82867 0.0
H677 H 0.91119 0.27082 0.83783 0.0
H678 H 0.92938 0.26886 0.80668 0.0
H679 H 0.9206 0.15922 0.76092 0.0
H680 H 0.89878 0.08003 0.75934 0.0
H681 H 0.80963 0.9886 0.79889 0.0
H682 H 0.76265 0.01669 0.82006 0.0
H683 H 0.74571 0.15167 0.85538 0.0
H684 H 0.78945 0.21158 0.86524 0.0
H685 H 0.76582 0.14613 0.76273 0.0
H686 H 0.7697 0.26471 0.78957 0.0
H687 H 0.87813 0.08792 0.86727 0.0
H688 H 0.95982 0.14232 0.83803 0.0
C689 C 0.61118 0.07781 0.58694 0.0
C690 C 0.62377 0.05399 0.60004 0.0
C691 C 0.61925 0.0122 0.59594 0.0
C692 C 0.604 0.01286 0.58068 0.0
N693 N 0.59929 0.0525 0.57458 0.0
Co694 Co 0.57353 0.06803 0.55393 0.0
N695 N 0.56207 0.00692 0.54904 0.0
C696 C 0.57347 0.97253 0.55748 0.0
C697 C 0.56287 0.9345 0.55093 0.0
C698 C 0.54366 0.94512 0.53744 0.0
C699 C 0.54335 0.98927 0.53658 0.0
N700 N 0.54621 0.08385 0.53377 0.0
C701 C 0.52768 0.05932 0.52314 0.0
C702 C 0.51122 0.08397 0.51129 0.0
C703 C 0.51999 0.12528 0.51437 0.0
C704 C 0.54096 0.12369 0.52796 0.0
N705 N 0.58598 0.1289 0.55844 0.0
C706 C 0.57931 0.16277 0.54867 0.0
C707 C 0.59016 0.20075 0.55521 0.0
C708 C 0.60403 0.19058 0.57019 0.0
C709 C 0.60063 0.14685 0.57195 0.0
N710 N 0.61662 0.06228 0.54048 0.0
C711 C 0.68086 0.05962 0.5238 0.0
C712 C 0.65527 0.08869 0.51924 0.0
C713 C 0.6236 0.08934 0.5276 0.0
C714 C 0.6733 0.03109 0.5365 0.0
C715 C 0.6413 0.03268 0.54447 0.0
N716 N 0.53157 0.07436 0.56774 0.0
C717 C 0.49517 0.12293 0.58298 0.0
C718 C 0.48987 0.09232 0.59529 0.0
C719 C 0.50129 0.05083 0.59212 0.0
C720 C 0.52194 0.04257 0.57835 0.0
C721 C 0.51559 0.1131 0.56924 0.0
H722 H 0.53151 0.01084 0.57707 0.0
H723 H 0.52003 0.1381 0.56053 0.0
H724 H 0.60546 0.11252 0.52355 0.0
H725 H 0.63746 0.00984 0.55396 0.0
C726 C 0.59204 0.97714 0.57215 0.0
C727 C 0.60921 0.12428 0.58714 0.0
C728 C 0.52506 0.01277 0.52363 0.0
C729 C 0.55756 0.15872 0.53503 0.0
H730 H 0.63422 0.06558 0.61157 0.0
H731 H 0.62518 0.98466 0.60345 0.0
H732 H 0.56814 0.90281 0.55554 0.0
H733 H 0.53121 0.92284 0.52918 0.0
H734 H 0.49471 0.07322 0.50137 0.0
H735 H 0.51227 0.15313 0.50743 0.0
H736 H 0.58644 0.23234 0.55018 0.0
H737 H 0.61408 0.21294 0.57914 0.0
H738 H 0.65993 0.11167 0.50952 0.0
H739 H 0.69208 0.00749 0.5403 0.0
H740 H 0.48572 0.15515 0.58444 0.0
H741 H 0.49562 0.0251 0.60059 0.0
C742 C 0.66054 0.76531 0.32932 0.0
C743 C 0.64765 0.725 0.32607 0.0
C744 C 0.64113 0.72345 0.30942 0.0
C745 C 0.65045 0.76276 0.30344 0.0
N746 N 0.66258 0.78876 0.31522 0.0
Co747 Co 0.67665 0.84916 0.31217 0.0
N748 N 0.65222 0.85396 0.29062 0.0
C749 C 0.64278 0.8203 0.2813 0.0
C750 C 0.6316 0.83148 0.26588 0.0
C751 C 0.63466 0.8748 0.26525 0.0
C752 C 0.64713 0.88804 0.2805 0.0
N753 N 0.68922 0.9104 0.30988 0.0
C754 C 0.67688 0.9409 0.29948 0.0
C755 C 0.69107 0.98033 0.30329 0.0
C756 C 0.71448 0.97374 0.31569 0.0
C757 C 0.71282 0.93101 0.31906 0.0
N758 N 0.70239 0.84302 0.33333 0.0
C759 C 0.72689 0.86977 0.33889 0.0
C760 C 0.73831 0.85936 0.3544 0.0
C761 C 0.71966 0.8242 0.35895 0.0
C762 C 0.69798 0.8146 0.34584 0.0
N763 N 0.71831 0.83202 0.29972 0.0
C764 C 0.76834 0.80295 0.2771 0.0
C765 C 0.75641 0.84494 0.27671 0.0
C766 C 0.73095 0.85828 0.28765 0.0
C767 C 0.75735 0.77712 0.29027 0.0
C768 C 0.73294 0.79261 0.30166 0.0
N769 N 0.63513 0.86605 0.32422 0.0
C770 C 0.60982 0.89523 0.34878 0.0
C771 C 0.57716 0.87961 0.34435 0.0
C772 C 0.57399 0.85971 0.32891 0.0
C773 C 0.60334 0.85224 0.31928 0.0
C774 C 0.63799 0.8893 0.33838 0.0
H775 H 0.60032 0.83427 0.30806 0.0
H776 H 0.66242 0.90205 0.34224 0.0
H777 H 0.72077 0.88951 0.2856 0.0
H778 H 0.72487 0.77191 0.31155 0.0
C779 C 0.64294 0.7789 0.28777 0.0
C780 C 0.67287 0.77926 0.34565 0.0
C781 C 0.65691 0.93254 0.28424 0.0
C782 C 0.7306 0.90997 0.33168 0.0
H783 H 0.64343 0.69951 0.33483 0.0
H784 H 0.62956 0.69742 0.30265 0.0
H785 H 0.62269 0.81058 0.25616 0.0
H786 H 0.62948 0.89397 0.25446 0.0
H787 H 0.68614 0.0105 0.29731 0.0
H788 H 0.73056 0.99739 0.32161 0.0
H789 H 0.75571 0.87746 0.36213 0.0
H790 H 0.721 0.80896 0.37087 0.0
H791 H 0.76564 0.86731 0.26756 0.0
H792 H 0.76644 0.74467 0.29145 0.0
H793 H 0.61423 0.91076 0.3605 0.0
H794 H 0.5493 0.84924 0.32425 0.0
C795 C 0.88835 0.92941 0.08666 0.0
C796 C 0.86429 0.94714 0.0973 0.0
C797 C 0.85504 0.98575 0.09065 0.0
C798 C 0.87382 0.98938 0.07634 0.0
N799 N 0.89424 0.95549 0.07362 0.0
Co800 Co 0.9256 0.9478 0.05449 0.0
N801 N 0.92543 0.00974 0.04926 0.0
C802 C 0.90207 0.03809 0.0548 0.0
C803 C 0.90749 0.07842 0.04878 0.0
C804 C 0.93573 0.07516 0.03864 0.0
C805 C 0.94596 0.03283 0.03898 0.0
N806 N 0.95672 0.93978 0.03521 0.0
C807 C 0.97465 0.96865 0.02614 0.0
C808 C 0.99216 0.94892 0.01329 0.0
C809 C 0.98462 0.90641 0.01425 0.0
C810 C 0.963 0.90248 0.02757 0.0
N811 N 0.9259 0.88595 0.05971 0.0
C812 C 0.93614 0.85449 0.04956 0.0
C813 C 0.93639 0.81536 0.05709 0.0
C814 C 0.92551 0.82265 0.07293 0.0
C815 C 0.9186 0.86594 0.07413 0.0
N816 N 0.88512 0.93963 0.04026 0.0
C817 C 0.82243 0.9365 0.02289 0.0
C818 C 0.82736 0.91238 0.03722 0.0
C819 C 0.85867 0.91438 0.04567 0.0
C820 C 0.85028 0.96079 0.01702 0.0
C821 C 0.88146 0.96154 0.02577 0.0
N822 N 0.96503 0.95562 0.06926 0.0
C823 C 0.01128 0.92106 0.08376 0.0
C824 C 0.00566 0.94707 0.09761 0.0
C825 C 0.98213 0.98071 0.09608 0.0
C826 C 0.96269 0.98499 0.08166 0.0
C827 C 0.9908 0.92598 0.06967 0.0
H828 H 0.9433 0.00952 0.0813 0.0
H829 H 0.99379 0.90344 0.05975 0.0
H830 H 0.86091 0.89653 0.05697 0.0
H831 H 0.90214 0.98109 0.02112 0.0
C832 C 0.87803 0.02656 0.06696 0.0
C833 C 0.90354 0.88684 0.08872 0.0
C834 C 0.9731 0.01507 0.02827 0.0
C835 C 0.95211 0.86406 0.03456 0.0
H836 H 0.85452 0.93362 0.10866 0.0
H837 H 0.83788 0.00913 0.09602 0.0
H838 H 0.89301 0.10696 0.05162 0.0
H839 H 0.94705 0.1008 0.03156 0.0
H840 H 0.00822 0.96377 1.004 0.0
H841 H 0.99439 0.88127 1.0064 0.0
H842 H 0.94544 0.78551 0.05201 0.0
H843 H 0.92337 0.79875 0.08248 0.0
H844 H 0.80686 0.89261 0.0421 0.0
H845 H 0.84768 0.9804 1.00611 0.0
H846 H 0.02992 0.8954 0.08416 0.0
H847 H 0.97663 0.00164 0.10635 0.0
C848 C 0.54783 0.64815 0.84597 0.0
C849 C 0.51236 0.65438 0.84626 0.0
C850 C 0.50431 0.6779 0.83264 0.0
C851 C 0.53516 0.68536 0.82492 0.0
N852 N 0.56243 0.66743 0.83267 0.0
Co853 Co 0.61234 0.67468 0.82658 0.0
N854 N 0.60109 0.71704 0.80887 0.0
C855 C 0.56969 0.7337 0.80564 0.0
C856 C 0.56976 0.76281 0.79304 0.0
C857 C 0.60321 0.76456 0.78779 0.0
C858 C 0.62162 0.73597 0.79743 0.0
N859 N 0.66198 0.67949 0.81977 0.0
C860 C 0.67635 0.69877 0.80644 0.0
C861 C 0.71115 0.68874 0.80496 0.0
C862 C 0.71917 0.66297 0.81791 0.0
C863 C 0.68888 0.65802 0.82636 0.0
N864 N 0.62396 0.63445 0.84496 0.0
C865 C 0.65578 0.62116 0.8494 0.0
C866 C 0.6561 0.59515 0.86295 0.0
C867 C 0.62252 0.5927 0.86782 0.0
C868 C 0.60366 0.61775 0.85695 0.0
N869 N 0.60757 0.62684 0.81052 0.0
C870 C 0.6048 0.56213 0.78616 0.0
C871 C 0.62659 0.55863 0.79985 0.0
C872 C 0.62762 0.59098 0.81174 0.0
C873 C 0.5839 0.59837 0.78512 0.0
C874 C 0.5853 0.62966 0.79741 0.0
N875 N 0.61698 0.72248 0.84274 0.0
C876 C 0.65052 0.76171 0.86293 0.0
C877 C 0.62079 0.78105 0.86944 0.0
C878 C 0.58963 0.77268 0.86132 0.0
C879 C 0.58852 0.74479 0.8479 0.0
C880 C 0.64798 0.73215 0.84997 0.0
H881 H 0.56394 0.74118 0.84221 0.0
H882 H 0.67145 0.71716 0.84618 0.0
H883 H 0.64522 0.58643 0.82168 0.0
H884 H 0.56849 0.65626 0.79586 0.0
C885 C 0.5402 0.71679 0.813 0.0
C886 C 0.56697 0.62665 0.85915 0.0
C887 C 0.65818 0.72662 0.79485 0.0
C888 C 0.6847 0.63266 0.84028 0.0
H889 H 0.49425 0.64509 0.85574 0.0
H890 H 0.47936 0.69098 0.8295 0.0
H891 H 0.54784 0.77938 0.78782 0.0
H892 H 0.61276 0.78378 0.77769 0.0
H893 H 0.72895 0.69852 0.7954 0.0
H894 H 0.74394 0.6487 0.82062 0.0
H895 H 0.67817 0.58015 0.86872 0.0
H896 H 0.6131 0.57521 0.87841 0.0
H897 H 0.64304 0.53104 0.80139 0.0
H898 H 0.56707 0.60334 0.77464 0.0
H899 H 0.67585 0.76887 0.86775 0.0
H900 H 0.56563 0.78668 0.86546 0.0
C901 C 0.60594 0.26659 0.09306 0.0
C902 C 0.5945 0.22472 0.09426 0.0
C903 C 0.58167 0.21367 0.07908 0.0
C904 C 0.58467 0.24949 0.06952 0.0
N905 N 0.59861 0.2824 0.07779 0.0
Co906 Co 0.60138 0.34195 0.06957 0.0
N907 N 0.56575 0.33207 0.05244 0.0
C908 C 0.55687 0.29366 0.0465 0.0
C909 C 0.53419 0.2961 0.03357 0.0
C910 C 0.52816 0.3387 0.0313 0.0
C911 C 0.548 0.36009 0.0429 0.0
N912 N 0.6046 0.40156 0.06148 0.0
C913 C 0.58328 0.42408 0.05144 0.0
C914 C 0.59644 0.46451 0.04854 0.0
C915 C 0.62732 0.46689 0.05677 0.0
C916 C 0.63129 0.42801 0.06428 0.0
N917 N 0.63695 0.35142 0.08668 0.0
C918 C 0.66101 0.3822 0.08629 0.0
C919 C 0.68418 0.37908 0.09904 0.0
C920 C 0.67388 0.34419 0.108 0.0
C921 C 0.64448 0.32829 0.10038 0.0
N922 N 0.63746 0.3256 0.05362 0.0
C923 C 0.69221 0.31236 0.03144 0.0
C924 C 0.69266 0.29382 0.0472 0.0
C925 C 0.66498 0.30082 0.05812 0.0
C926 C 0.66295 0.33533 0.02674 0.0
C927 C 0.63607 0.34151 0.03791 0.0
N928 N 0.56548 0.35873 0.08523 0.0
C929 C 0.54351 0.40826 0.1053 0.0
C930 C 0.51539 0.38147 0.10868 0.0
C931 C 0.51239 0.34373 0.09952 0.0
C932 C 0.53729 0.33337 0.0877 0.0
C933 C 0.56855 0.39588 0.09387 0.0
H934 H 0.53401 0.30438 0.08076 0.0
H935 H 0.59054 0.41635 0.09207 0.0
H936 H 0.66633 0.28737 0.07037 0.0
H937 H 0.61467 0.36057 0.03387 0.0
C938 C 0.567 0.25643 0.05469 0.0
C939 C 0.62532 0.29016 0.10601 0.0
C940 C 0.55288 0.40659 0.0429 0.0
C941 C 0.65747 0.41672 0.07543 0.0
H942 H 0.59401 0.20427 0.10495 0.0
H943 H 0.56905 0.18409 0.07584 0.0
H944 H 0.52354 0.27006 0.02656 0.0
H945 H 0.51213 0.35245 0.02175 0.0
H946 H 0.58538 0.48924 0.0409 0.0
H947 H 0.64455 0.49396 0.05737 0.0
H948 H 0.70531 0.40039 0.10184 0.0
H949 H 0.68651 0.332 0.11893 0.0
H950 H 0.71478 0.27558 0.05127 0.0
H951 H 0.66122 0.34953 0.01458 0.0
H952 H 0.54641 0.43863 0.11144 0.0
H953 H 0.49133 0.32178 0.10165 0.0
C954 C 0.94715 0.34824 0.3475 0.0
C955 C 0.98105 0.33405 0.34828 0.0
C956 C 0.98642 0.30943 0.33466 0.0
C957 C 0.9555 0.3093 0.32648 0.0
N958 N 0.93078 0.33303 0.33388 0.0
Co959 Co 0.8803 0.33418 0.32817 0.0
N960 N 0.88666 0.29154 0.30996 0.0
C961 C 0.91668 0.27337 0.30517 0.0
C962 C 0.91332 0.2462 0.29205 0.0
C963 C 0.87922 0.24772 0.28797 0.0
C964 C 0.8637 0.2761 0.29881 0.0
N965 N 0.82969 0.33449 0.32289 0.0
C966 C 0.81203 0.31506 0.31054 0.0
C967 C 0.77726 0.32581 0.31088 0.0
C968 C 0.77278 0.35276 0.32387 0.0
C969 C 0.80489 0.35727 0.33066 0.0
N970 N 0.87399 0.37756 0.34606 0.0
C971 C 0.84456 0.39822 0.35006 0.0
C972 C 0.84818 0.42623 0.36289 0.0
C973 C 0.88176 0.42246 0.36767 0.0
C974 C 0.89658 0.39184 0.35753 0.0
N975 N 0.88797 0.38079 0.31176 0.0
C976 C 0.89586 0.44363 0.28698 0.0
C977 C 0.86867 0.44548 0.29826 0.0
C978 C 0.86523 0.41409 0.3104 0.0
C979 C 0.91935 0.41011 0.28846 0.0
C980 C 0.91518 0.37958 0.30094 0.0
N981 N 0.87297 0.28777 0.34459 0.0
C982 C 0.84915 0.26409 0.37069 0.0
C983 C 0.8717 0.22931 0.37113 0.0
C984 C 0.89341 0.22305 0.35759 0.0
C985 C 0.89342 0.25213 0.34452 0.0
C986 C 0.84996 0.29245 0.35732 0.0
H987 H 0.911 0.24574 0.33475 0.0
H988 H 0.83257 0.31877 0.35782 0.0
H989 H 0.8436 0.41721 0.31836 0.0
H990 H 0.93413 0.35508 0.30146 0.0
C991 C 0.94762 0.28264 0.31322 0.0
C992 C 0.93099 0.37445 0.36031 0.0
C993 C 0.8273 0.28817 0.29773 0.0
C994 C 0.8132 0.38673 0.34292 0.0
H995 H 0.99968 0.33931 0.358 0.0
H996 H 0.00946 0.29153 0.33166 0.0
H997 H 0.93337 0.22786 0.28605 0.0
H998 H 0.86724 0.23035 0.27797 0.0
H999 H 0.75728 0.31649 0.30231 0.0
H1000 H 0.74923 0.36881 0.32744 0.0
H1001 H 0.82837 0.44546 0.36864 0.0
H1002 H 0.89358 0.43891 0.37795 0.0
H1003 H 0.84955 0.47057 0.29749 0.0
H1004 H 0.94098 0.40755 0.28005 0.0
H1005 H 0.83191 0.27052 0.3809 0.0
H1006 H 0.91088 0.19612 0.35719 0.0
C1007 C 0.87692 0.71225 0.59406 0.0
C1008 C 0.87954 0.7563 0.59426 0.0
C1009 C 0.89666 0.76772 0.5802 0.0
C1010 C 0.90326 0.73023 0.57211 0.0
N1011 N 0.89096 0.69562 0.58007 0.0
Co1012 Co 0.89529 0.63506 0.57252 0.0
N1013 N 0.92847 0.65057 0.5544 0.0
C1014 C 0.93974 0.69021 0.55077 0.0
C1015 C 0.96341 0.69132 0.5382 0.0
C1016 C 0.96773 0.64981 0.53358 0.0
C1017 C 0.94618 0.62567 0.54356 0.0
N1018 N 0.89863 0.57464 0.56464 0.0
C1019 C 0.91797 0.55686 0.55242 0.0
C1020 C 0.91097 0.51377 0.55072 0.0
C1021 C 0.88651 0.50398 0.56225 0.0
C1022 C 0.87982 0.5415 0.57029 0.0
N1023 N 0.86402 0.61937 0.59141 0.0
C1024 C 0.85206 0.57992 0.59484 0.0
C1025 C 0.83459 0.57734 0.6095 0.0
C1026 C 0.83609 0.61736 0.61605 0.0
C1027 C 0.85407 0.64244 0.60486 0.0
N1028 N 0.855 0.64339 0.55726 0.0
C1029 C 0.80144 0.64669 0.53342 0.0
C1030 C 0.79825 0.62196 0.54766 0.0
C1031 C 0.82495 0.62082 0.55929 0.0
C1032 C 0.83098 0.67178 0.53183 0.0
C1033 C 0.85705 0.66986 0.54379 0.0
N1034 N 0.9349 0.62651 0.58745 0.0
C1035 C 0.96401 0.58433 0.60811 0.0
C1036 C 0.98732 0.61732 0.6111 0.0
C1037 C 0.98469 0.6544 0.60164 0.0
C1038 C 0.95855 0.65825 0.5899 0.0
C1039 C 0.93829 0.58945 0.59622 0.0
H1040 H 0.9574 0.68747 0.58315 0.0
H1041 H 0.9208 0.56351 0.59461 0.0
H1042 H 0.82051 0.60096 0.56968 0.0
H1043 H 0.87874 0.68975 0.5416 0.0
C1044 C 0.92622 0.72577 0.55891 0.0
C1045 C 0.86204 0.68762 0.60774 0.0
C1046 C 0.94308 0.57932 0.54206 0.0
C1047 C 0.85923 0.54564 0.58436 0.0
H1048 H 0.871 0.77784 0.60385 0.0
H1049 H 0.90508 0.79938 0.57677 0.0
H1050 H 0.97586 0.71903 0.53294 0.0
H1051 H 0.98462 0.63859 0.52388 0.0
H1052 H 0.92255 0.49165 0.5421 0.0
H1053 H 0.87559 0.47294 0.56477 0.0
H1054 H 0.82319 0.54934 0.61506 0.0
H1055 H 0.82579 0.62657 0.62792 0.0
H1056 H 0.77523 0.60326 0.54985 0.0
H1057 H 0.83448 0.69206 0.52115 0.0
H1058 H 0.96476 0.55528 0.6153 0.0
H1059 H 0.00243 0.68063 0.60348 0.0
C1060 C 0.55541 0.34163 0.67353 0.0
C1061 C 0.521 0.32943 0.67339 0.0
C1062 C 0.51608 0.30418 0.68689 0.0
C1063 C 0.5477 0.30196 0.6944 0.0
N1064 N 0.57244 0.32497 0.6867 0.0
Co1065 Co 0.6232 0.32488 0.69179 0.0
N1066 N 0.61721 0.28158 0.70981 0.0
C1067 C 0.58728 0.26331 0.71469 0.0
C1068 C 0.59099 0.23544 0.72757 0.0
C1069 C 0.62524 0.23652 0.73139 0.0
C1070 C 0.6405 0.26539 0.72065 0.0
N1071 N 0.674 0.32438 0.69663 0.0
C1072 C 0.69192 0.30457 0.70882 0.0
C1073 C 0.7267 0.3152 0.70833 0.0
C1074 C 0.73091 0.34249 0.69542 0.0
C1075 C 0.69865 0.34733 0.68883 0.0
N1076 N 0.62921 0.36849 0.67393 0.0
C1077 C 0.65877 0.38828 0.66951 0.0
C1078 C 0.65501 0.416 0.65658 0.0
C1079 C 0.62117 0.41294 0.65218 0.0
C1080 C 0.60633 0.3831 0.66264 0.0
N1081 N 0.61673 0.37115 0.70845 0.0
C1082 C 0.61004 0.43415 0.73334 0.0
C1083 C 0.6357 0.43691 0.72126 0.0
C1084 C 0.63863 0.4054 0.70911 0.0
C1085 C 0.58757 0.39935 0.73259 0.0
C1086 C 0.59105 0.3689 0.72007 0.0
N1087 N 0.62925 0.2789 0.67506 0.0
C1088 C 0.65145 0.25603 0.64853 0.0
C1089 C 0.62703 0.22334 0.64768 0.0
C1090 C 0.60595 0.21668 0.66142 0.0
C1091 C 0.60759 0.2444 0.67488 0.0
C1092 C 0.65227 0.2831 0.6623 0.0
H1093 H 0.59017 0.23808 0.68471 0.0
H1094 H 0.67085 0.30818 0.6621 0.0
H1095 H 0.65908 0.40934 0.70051 0.0
H1096 H 0.57292 0.34349 0.72021 0.0
C1097 C 0.55596 0.27399 0.70721 0.0
C1098 C 0.57138 0.36695 0.66043 0.0
C1099 C 0.67693 0.27734 0.72161 0.0
C1100 C 0.69021 0.37665 0.67654 0.0
H1101 H 0.5017 0.33648 0.66415 0.0
H1102 H 0.49275 0.28733 0.69024 0.0
H1103 H 0.57106 0.21711 0.73365 0.0
H1104 H 0.63748 0.21866 0.74119 0.0
H1105 H 0.74688 0.30551 0.71673 0.0
H1106 H 0.75444 0.35843 0.69174 0.0
H1107 H 0.67486 0.43464 0.65057 0.0
H1108 H 0.60912 0.42938 0.64195 0.0
H1109 H 0.65364 0.46334 0.72115 0.0
H1110 H 0.56773 0.39489 0.74184 0.0
H1111 H 0.66883 0.2619 0.63832 0.0
H1112 H 0.58754 0.19072 0.66162 0.0
C1113 C 0.89919 0.25457 0.92633 0.0
C1114 C 0.90978 0.21237 0.92522 0.0
C1115 C 0.92109 0.20061 0.94061 0.0
C1116 C 0.91804 0.23635 0.95022 0.0
N1117 N 0.90564 0.26988 0.94176 0.0
Co1118 Co 0.90494 0.32972 0.94975 0.0
N1119 N 0.93882 0.3179 0.96751 0.0
C1120 C 0.94514 0.2791 0.97383 0.0
C1121 C 0.96637 0.28028 0.98732 0.0
C1122 C 0.97435 0.32245 0.98952 0.0
C1123 C 0.95692 0.3449 0.97734 0.0
N1124 N 0.90413 0.3898 0.95741 0.0
C1125 C 0.92591 0.41115 0.9676 0.0
C1126 C 0.91453 0.45259 0.97006 0.0
C1127 C 0.88432 0.45687 0.96139 0.0
C1128 C 0.87893 0.41802 0.95407 0.0
N1129 N 0.87078 0.34101 0.93217 0.0
C1130 C 0.84788 0.37314 0.93222 0.0
C1131 C 0.82497 0.37082 0.91934 0.0
C1132 C 0.83424 0.33504 0.91065 0.0
C1133 C 0.86289 0.3179 0.91854 0.0
N1134 N 0.86721 0.31653 0.96527 0.0
C1135 C 0.8108 0.30771 0.98681 0.0
C1136 C 0.84051 0.32945 0.99168 0.0
C1137 C 0.86821 0.33342 0.98083 0.0
C1138 C 0.81057 0.2882 0.97123 0.0
C1139 C 0.83909 0.293 0.96062 0.0
N1140 N 0.94249 0.3433 0.93456 0.0
C1141 C 0.9666 0.38836 0.91349 0.0
C1142 C 0.99532 0.36153 0.91206 0.0
C1143 C 0.99706 0.32544 0.92219 0.0
C1144 C 0.97062 0.31716 0.93346 0.0
C1145 C 0.94049 0.37866 0.92477 0.0
H1146 H 0.97272 0.28925 0.94112 0.0
H1147 H 0.9184 0.39946 0.92543 0.0
H1148 H 0.89 0.35155 0.985 0.0
H1149 H 0.83799 0.27886 0.94849 0.0
C1150 C 0.93447 0.2424 0.96544 0.0
C1151 C 0.88128 0.279 0.91312 0.0
C1152 C 0.95459 0.39172 0.97687 0.0
C1153 C 0.85259 0.40796 0.94283 0.0
H1154 H 0.91087 0.19219 0.91447 0.0
H1155 H 0.93302 0.17066 0.94394 0.0
H1156 H 0.97492 0.25359 0.99468 0.0
H1157 H 0.9901 0.33532 0.99935 0.0
H1158 H 0.92621 0.47675 0.97777 0.0
H1159 H 0.86838 0.48506 0.96045 0.0
H1160 H 0.80477 0.39322 0.91626 0.0
H1161 H 0.82153 0.3232 0.89969 0.0
H1162 H 0.84202 0.34439 1.0037 0.0
H1163 H 0.78806 0.27088 0.96704 0.0
H1164 H 0.96378 0.41598 0.9056 0.0
H1165 H 0.01859 0.30361 0.92135 0.0
C1166 C 0.96057 0.65056 0.17208 0.0
C1167 C 0.99599 0.65696 0.17135 0.0
C1168 C 0.00467 0.68076 0.18479 0.0
C1169 C 0.97419 0.68823 0.19285 0.0
N1170 N 0.94654 0.67015 0.18546 0.0
Co1171 Co 0.8968 0.67791 0.19188 0.0
N1172 N 0.90886 0.72021 0.20953 0.0
C1173 C 0.94059 0.73579 0.21284 0.0
C1174 C 0.94108 0.76458 0.22554 0.0
C1175 C 0.90767 0.76722 0.2308 0.0
C1176 C 0.88869 0.73952 0.22103 0.0
N1177 N 0.84724 0.68404 0.19874 0.0
C1178 C 0.83318 0.70425 0.21193 0.0
C1179 C 0.79817 0.6954 0.21341 0.0
C1180 C 0.7897 0.66937 0.20063 0.0
C1181 C 0.81991 0.66314 0.19225 0.0
N1182 N 0.88444 0.63704 0.17382 0.0
C1183 C 0.85247 0.62346 0.16975 0.0
C1184 C 0.85173 0.59627 0.15656 0.0
C1185 C 0.88517 0.5932 0.15154 0.0
C1186 C 0.90438 0.61917 0.16194 0.0
N1187 N 0.90136 0.63041 0.20814 0.0
C1188 C 0.90312 0.56806 0.23335 0.0
C1189 C 0.87974 0.56503 0.2203 0.0
C1190 C 0.87924 0.59629 0.20796 0.0
C1191 C 0.92668 0.6017 0.23315 0.0
C1192 C 0.92555 0.63201 0.22048 0.0
N1193 N 0.89243 0.72537 0.17558 0.0
C1194 C 0.86067 0.76153 0.15394 0.0
C1195 C 0.89019 0.78396 0.14889 0.0
C1196 C 0.92003 0.77858 0.15838 0.0
C1197 C 0.92031 0.75034 0.17172 0.0
C1198 C 0.86248 0.73216 0.16698 0.0
H1199 H 0.94386 0.74854 0.17841 0.0
H1200 H 0.83948 0.71479 0.16972 0.0
H1201 H 0.86027 0.59252 0.19858 0.0
H1202 H 0.94423 0.65683 0.2211 0.0
C1203 C 0.96979 0.71905 0.20511 0.0
C1204 C 0.941 0.62782 0.15935 0.0
C1205 C 0.85186 0.73163 0.2235 0.0
C1206 C 0.82369 0.63636 0.1787 0.0
H1207 H 0.01366 0.64732 0.16172 0.0
H1208 H 0.02984 0.69374 0.18762 0.0
H1209 H 0.96329 0.78053 0.23076 0.0
H1210 H 0.89847 0.78655 0.24093 0.0
H1211 H 0.78053 0.70597 0.22291 0.0
H1212 H 0.7647 0.65558 0.19803 0.0
H1213 H 0.82947 0.58098 0.1511 0.0
H1214 H 0.89424 0.57471 0.14115 0.0
H1215 H 0.86117 0.53929 0.21986 0.0
H1216 H 0.94589 0.60475 0.24278 0.0
H1217 H 0.83615 0.7661 0.14783 0.0
H1218 H 0.94367 0.79515 0.15533 0.0
C1219 C 0.62255 0.71313 0.42103 0.0
C1220 C 0.62042 0.75723 0.4209 0.0
C1221 C 0.60254 0.76875 0.43472 0.0
C1222 C 0.59509 0.73126 0.44263 0.0
N1223 N 0.60754 0.69652 0.43481 0.0
Co1224 Co 0.60248 0.63593 0.4423 0.0
N1225 N 0.56944 0.6519 0.46043 0.0
C1226 C 0.55852 0.69171 0.46405 0.0
C1227 C 0.53548 0.6933 0.47686 0.0
C1228 C 0.53118 0.65197 0.48167 0.0
C1229 C 0.55192 0.62733 0.47147 0.0
N1230 N 0.59837 0.57543 0.45013 0.0
C1231 C 0.57926 0.55798 0.46253 0.0
C1232 C 0.585 0.51447 0.4638 0.0
C1233 C 0.60871 0.50419 0.452 0.0
C1234 C 0.61609 0.54174 0.44414 0.0
N1235 N 0.63389 0.61984 0.42349 0.0
C1236 C 0.6451 0.58012 0.41993 0.0
C1237 C 0.66289 0.57742 0.40536 0.0
C1238 C 0.66248 0.61767 0.39901 0.0
C1239 C 0.64476 0.643 0.41022 0.0
N1240 N 0.64269 0.64339 0.45761 0.0
C1241 C 0.69605 0.64643 0.48153 0.0
C1242 C 0.69819 0.61936 0.46789 0.0
C1243 C 0.67158 0.61835 0.45623 0.0
C1244 C 0.66769 0.67375 0.48245 0.0
C1245 C 0.64169 0.67189 0.47046 0.0
N1246 N 0.5628 0.62826 0.42725 0.0
C1247 C 0.53329 0.58679 0.40651 0.0
C1248 C 0.51011 0.61997 0.40364 0.0
C1249 C 0.51306 0.65692 0.41313 0.0
C1250 C 0.53936 0.66033 0.42485 0.0
C1251 C 0.5591 0.59144 0.41837 0.0
H1252 H 0.54079 0.68949 0.4316 0.0
H1253 H 0.5762 0.56514 0.41994 0.0
H1254 H 0.67501 0.59656 0.44635 0.0
H1255 H 0.62084 0.69346 0.4721 0.0
C1256 C 0.57201 0.72709 0.45578 0.0
C1257 C 0.63782 0.68849 0.40746 0.0
C1258 C 0.55496 0.58096 0.4732 0.0
C1259 C 0.63679 0.54567 0.43011 0.0
H1260 H 0.62983 0.77878 0.4115 0.0
H1261 H 0.59441 0.80051 0.43815 0.0
H1262 H 0.52364 0.72124 0.48225 0.0
H1263 H 0.51499 0.64127 0.49173 0.0
H1264 H 0.57296 0.49228 0.47223 0.0
H1265 H 0.61868 0.47282 0.44918 0.0
H1266 H 0.67376 0.54921 0.39972 0.0
H1267 H 0.67325 0.62684 0.38724 0.0
H1268 H 0.72031 0.59874 0.46622 0.0
H1269 H 0.66503 0.6958 0.49265 0.0
H1270 H 0.53171 0.55748 0.39951 0.0
H1271 H 0.49588 0.68366 0.41117 0.0
C1272 C 0.36833 0.27962 0.18779 0.0
C1273 C 0.39347 0.24869 0.1902 0.0
C1274 C 0.40453 0.25248 0.20621 0.0
C1275 C 0.38642 0.28603 0.21274 0.0
N1276 N 0.36446 0.30332 0.20179 0.0
Co1277 Co 0.33931 0.35811 0.2046 0.0
N1278 N 0.36966 0.37721 0.22291 0.0
C1279 C 0.39142 0.35187 0.23139 0.0
C1280 C 0.41095 0.37376 0.24264 0.0
C1281 C 0.40015 0.41518 0.24151 0.0
C1282 C 0.3738 0.41626 0.22988 0.0
N1283 N 0.31391 0.41299 0.20685 0.0
C1284 C 0.32073 0.44823 0.21614 0.0
C1285 C 0.29261 0.47584 0.21588 0.0
C1286 C 0.26783 0.45754 0.20621 0.0
C1287 C 0.2816 0.41957 0.20121 0.0
N1288 N 0.30882 0.33833 0.18663 0.0
C1289 C 0.27649 0.35171 0.18387 0.0
C1290 C 0.26086 0.33044 0.17108 0.0
C1291 C 0.28517 0.30214 0.16542 0.0
C1292 C 0.3145 0.30836 0.17494 0.0
N1293 N 0.3082 0.33198 0.22099 0.0
C1294 C 0.26478 0.29564 0.24516 0.0
C1295 C 0.27593 0.33792 0.24633 0.0
C1296 C 0.29813 0.35487 0.23452 0.0
C1297 C 0.2752 0.27222 0.23121 0.0
C1298 C 0.2966 0.29106 0.21923 0.0
N1299 N 0.37078 0.38345 0.18841 0.0
C1300 C 0.38146 0.41148 0.16117 0.0
C1301 C 0.41664 0.40102 0.16247 0.0
C1302 C 0.4283 0.38371 0.17735 0.0
C1303 C 0.40531 0.37604 0.19014 0.0
C1304 C 0.35894 0.40261 0.17435 0.0
H1305 H 0.41546 0.36106 0.20099 0.0
H1306 H 0.33177 0.40917 0.17287 0.0
H1307 H 0.30708 0.38674 0.23651 0.0
H1308 H 0.30401 0.27242 0.20861 0.0
C1309 C 0.39703 0.30964 0.22648 0.0
C1310 C 0.34747 0.28586 0.17256 0.0
C1311 C 0.35041 0.45315 0.22756 0.0
C1312 C 0.26502 0.38945 0.19119 0.0
H1313 H 0.40445 0.22693 0.18138 0.0
H1314 H 0.42585 0.23561 0.21183 0.0
H1315 H 0.43142 0.36141 0.25035 0.0
H1316 H 0.41003 0.44135 0.24878 0.0
H1317 H 0.28902 0.50491 0.22278 0.0
H1318 H 0.24233 0.46987 0.20361 0.0
H1319 H 0.23561 0.33639 0.16588 0.0
H1320 H 0.28209 0.28038 0.15518 0.0
H1321 H 0.26755 0.35833 0.25631 0.0
H1322 H 0.26725 0.23944 0.22962 0.0
H1323 H 0.37124 0.42502 0.1499 0.0
H1324 H 0.45478 0.37355 0.1789 0.0
C1325 C 0.39524 0.56256 0.92897 0.0
C1326 C 0.38002 0.53827 0.91669 0.0
C1327 C 0.37632 0.4979 0.923 0.0
C1328 C 0.38963 0.4997 0.9387 0.0
N1329 N 0.40136 0.53866 0.94261 0.0
Co1330 Co 0.42519 0.5548 0.96334 0.0
N1331 N 0.43584 0.49451 0.96885 0.0
C1332 C 0.41995 0.46029 0.96231 0.0
C1333 C 0.43134 0.42255 0.96889 0.0
C1334 C 0.45554 0.43371 0.98044 0.0
C1335 C 0.45765 0.47784 0.98027 0.0
N1336 N 0.44929 0.5714 0.984 0.0
C1337 C 0.47015 0.5484 0.99411 0.0
C1338 C 0.48077 0.57271 1.00748 0.0
C1339 C 0.46531 0.61175 1.00589 0.0
C1340 C 0.44634 0.60934 0.99163 0.0
N1341 N 0.41384 0.61483 0.95795 0.0
C1342 C 0.41354 0.64768 0.96858 0.0
C1343 C 0.40536 0.68563 0.96108 0.0
C1344 C 0.40034 0.67588 0.94473 0.0
C1345 C 0.40587 0.63243 0.94319 0.0
N1346 N 0.38152 0.55 0.97546 0.0
C1347 C 0.31837 0.54285 0.99211 0.0
C1348 C 0.34861 0.52591 0.99892 0.0
C1349 C 0.37992 0.53 0.99044 0.0
C1350 C 0.32041 0.56355 0.97687 0.0
C1351 C 0.35205 0.56652 0.96871 0.0
N1352 N 0.4681 0.55988 0.95074 0.0
C1353 C 0.50356 0.60887 0.93555 0.0
C1354 C 0.50847 0.57838 0.92308 0.0
C1355 C 0.49762 0.53658 0.92629 0.0
C1356 C 0.47701 0.52814 0.94003 0.0
C1357 C 0.48419 0.59847 0.94955 0.0
H1358 H 0.46577 0.49692 0.94103 0.0
H1359 H 0.47921 0.62313 0.9585 0.0
H1360 H 0.40278 0.51697 0.99605 0.0
H1361 H 0.3526 0.58223 0.95689 0.0
C1362 C 0.39812 0.46464 0.9486 0.0
C1363 C 0.40243 0.60845 0.92775 0.0
C1364 C 0.4777 0.50267 0.99231 0.0
C1365 C 0.42843 0.64309 0.98421 0.0
H1366 H 0.37273 0.54846 0.90442 0.0
H1367 H 0.3669 0.47008 0.91654 0.0
H1368 H 0.42351 0.39066 0.96548 0.0
H1369 H 0.46947 0.41189 0.98834 0.0
H1370 H 0.49737 0.563 0.01753 0.0
H1371 H 0.46801 0.63883 0.01404 0.0
H1372 H 0.40511 0.717 0.9666 0.0
H1373 H 0.39386 0.69819 0.93504 0.0
H1374 H 0.34818 0.51021 0.01082 0.0
H1375 H 0.29759 0.57702 0.97119 0.0
H1376 H 0.51237 0.64133 0.93403 0.0
H1377 H 0.50309 0.51095 0.91777 0.0
C1378 C 0.1498 0.74044 0.68571 0.0
C1379 C 0.1289 0.776 0.68759 0.0
C1380 C 0.11234 0.77152 0.70235 0.0
C1381 C 0.1243 0.73391 0.70874 0.0
N1382 N 0.14831 0.71469 0.69922 0.0
Co1383 Co 0.17098 0.65825 0.70361 0.0
N1384 N 0.14256 0.64804 0.72401 0.0
C1385 C 0.11909 0.67518 0.73053 0.0
C1386 C 0.10188 0.65901 0.74387 0.0
C1387 C 0.11551 0.61947 0.74625 0.0
C1388 C 0.14096 0.61386 0.73436 0.0
N1389 N 0.19302 0.60125 0.70768 0.0
C1390 C 0.18958 0.57351 0.72051 0.0
C1391 C 0.21412 0.54129 0.71961 0.0
C1392 C 0.23222 0.54745 0.70541 0.0
C1393 C 0.21861 0.58362 0.69862 0.0
N1394 N 0.19967 0.66894 0.68329 0.0
C1395 C 0.22522 0.64367 0.67753 0.0
C1396 C 0.23763 0.65575 0.66244 0.0
C1397 C 0.21848 0.69031 0.65807 0.0
C1398 C 0.19557 0.69799 0.67093 0.0
N1399 N 0.20694 0.6859 0.71769 0.0
C1400 C 0.25512 0.71548 0.74118 0.0
C1401 C 0.26473 0.68605 0.72915 0.0
C1402 C 0.2406 0.67233 0.71747 0.0
C1403 C 0.22175 0.73196 0.74063 0.0
C1404 C 0.19829 0.71685 0.72891 0.0
N1405 N 0.13518 0.63112 0.68969 0.0
C1406 C 0.11965 0.60031 0.66342 0.0
C1407 C 0.08518 0.61227 0.66566 0.0
C1408 C 0.07578 0.62966 0.68087 0.0
C1409 C 0.10097 0.63895 0.69257 0.0
C1410 C 0.14393 0.60893 0.67575 0.0
H1411 H 0.09224 0.65437 0.70349 0.0
H1412 H 0.16994 0.59946 0.67339 0.0
H1413 H 0.24978 0.65018 0.70861 0.0
H1414 H 0.17314 0.7301 0.72949 0.0
C1415 C 0.11169 0.71416 0.72296 0.0
C1416 C 0.16891 0.73135 0.67046 0.0
C1417 C 0.16356 0.57616 0.73373 0.0
C1418 C 0.23229 0.6046 0.68495 0.0
H1419 H 0.12504 0.80172 0.67889 0.0
H1420 H 0.09287 0.79236 0.7075 0.0
H1421 H 0.08128 0.67383 0.75083 0.0
H1422 H 0.10734 0.59734 0.75569 0.0
H1423 H 0.21908 0.5162 0.72843 0.0
H1424 H 0.25382 0.52888 0.70096 0.0
H1425 H 0.25649 0.63936 0.6549 0.0
H1426 H 0.22024 0.7062 0.64629 0.0
H1427 H 0.29072 0.67338 0.72883 0.0
H1428 H 0.21336 0.75534 0.74961 0.0
H1429 H 0.12842 0.5866 0.65191 0.0
H1430 H 0.04923 0.6381 0.68345 0.0
C1431 C 0.10913 0.41901 0.43086 0.0
C1432 C 0.12668 0.44257 0.41905 0.0
C1433 C 0.13205 0.48224 0.42571 0.0
C1434 C 0.11731 0.48092 0.44112 0.0
N1435 N 0.10299 0.44294 0.44451 0.0
Co1436 Co 0.077 0.42828 0.46486 0.0
N1437 N 0.06988 0.48915 0.47076 0.0
C1438 C 0.08829 0.522 0.46471 0.0
C1439 C 0.0788 0.56044 0.47138 0.0
C1440 C 0.05309 0.55117 0.48244 0.0
C1441 C 0.04818 0.50741 0.4819 0.0
N1442 N 0.05085 0.41337 0.48517 0.0
C1443 C 0.03044 0.43776 0.49503 0.0
C1444 C 0.01705 0.41376 0.50793 0.0
C1445 C 0.03034 0.37353 0.50634 0.0
C1446 C 0.05078 0.37489 0.49252 0.0
N1447 N 0.0845 0.36751 0.45908 0.0
C1448 C 0.08181 0.33429 0.46946 0.0
C1449 C 0.08809 0.29594 0.46188 0.0
C1450 C 0.09518 0.30576 0.44572 0.0
C1451 C 0.09265 0.3497 0.44435 0.0
N1452 N 0.12042 0.42802 0.47739 0.0
C1453 C 0.18398 0.42965 0.49401 0.0
C1454 C 0.18061 0.40898 0.47882 0.0
C1455 C 0.14884 0.40868 0.47072 0.0
C1456 C 0.15481 0.44946 0.50078 0.0
C1457 C 0.1232 0.44791 0.49236 0.0
N1458 N 0.03451 0.4282 0.45184 0.0
C1459 C 0.99452 0.38436 0.43684 0.0
C1460 C 0.99258 0.41506 0.42428 0.0
C1461 C 0.00755 0.45495 0.42725 0.0
C1462 C 0.02867 0.46073 0.441 0.0
C1463 C 0.01512 0.39196 0.45071 0.0
H1464 H 0.04268 0.49022 0.44195 0.0
H1465 H 0.01801 0.36682 0.45967 0.0
H1466 H 0.14748 0.39309 0.4589 0.0
H1467 H 0.10112 0.46314 0.4979 0.0
C1468 C 0.11051 0.51615 0.45123 0.0
C1469 C 0.09984 0.3737 0.42917 0.0
C1470 C 0.02535 0.48412 0.49331 0.0
C1471 C 0.06656 0.33977 0.48498 0.0
H1472 H 0.13451 0.43248 0.40686 0.0
H1473 H 0.14368 0.50941 0.41967 0.0
H1474 H 0.08878 0.59163 0.46829 0.0
H1475 H 0.03993 0.57394 0.49024 0.0
H1476 H 0.99977 0.42419 0.51759 0.0
H1477 H 0.02498 0.34626 0.51409 0.0
H1478 H 0.08603 0.26445 0.46721 0.0
H1479 H 0.10127 0.28322 0.43605 0.0
H1480 H 0.2026 0.39378 0.47305 0.0
H1481 H 0.15637 0.46572 0.51254 0.0
H1482 H 0.98252 0.35345 0.43543 0.0
H1483 H 0.00483 0.48078 0.4185 0.0
C1484 C 0.34842 0.74775 0.32886 0.0
C1485 C 0.36778 0.78475 0.32757 0.0
C1486 C 0.38416 0.78316 0.31267 0.0
C1487 C 0.37371 0.74562 0.30563 0.0
N1488 N 0.35092 0.72364 0.31496 0.0
Co1489 Co 0.33068 0.66633 0.30973 0.0
N1490 N 0.36052 0.65931 0.2896 0.0
C1491 C 0.38438 0.68738 0.2841 0.0
C1492 C 0.40354 0.67252 0.27113 0.0
C1493 C 0.39086 0.63284 0.26796 0.0
C1494 C 0.36387 0.62602 0.27893 0.0
N1495 N 0.31022 0.60912 0.30445 0.0
C1496 C 0.31482 0.58313 0.29117 0.0
C1497 C 0.29115 0.54986 0.29127 0.0
C1498 C 0.27202 0.55395 0.30527 0.0
C1499 C 0.28432 0.58984 0.31278 0.0
N1500 N 0.3016 0.67294 0.33017 0.0
C1501 C 0.27767 0.64504 0.33572 0.0
C1502 C 0.26612 0.65356 0.35133 0.0
C1503 C 0.28421 0.68846 0.35626 0.0
C1504 C 0.3054 0.70005 0.34318 0.0
N1505 N 0.2942 0.69371 0.29587 0.0
C1506 C 0.24406 0.72481 0.27361 0.0
C1507 C 0.235 0.69678 0.28623 0.0
C1508 C 0.26015 0.6823 0.2973 0.0
C1509 C 0.27816 0.73868 0.27277 0.0
C1510 C 0.30262 0.72273 0.28386 0.0
N1511 N 0.36684 0.63956 0.32355 0.0
C1512 C 0.38134 0.60069 0.34831 0.0
C1513 C 0.41398 0.61955 0.34865 0.0
C1514 C 0.42382 0.64494 0.33534 0.0
C1515 C 0.40008 0.65424 0.32295 0.0
C1516 C 0.35844 0.61057 0.33553 0.0
H1517 H 0.40867 0.67523 0.3135 0.0
H1518 H 0.33355 0.59602 0.33595 0.0
H1519 H 0.25139 0.66142 0.30671 0.0
H1520 H 0.32825 0.73377 0.28219 0.0
C1521 C 0.38884 0.72702 0.29171 0.0
C1522 C 0.32999 0.73564 0.34396 0.0
C1523 C 0.34121 0.5884 0.27824 0.0
C1524 C 0.27073 0.60752 0.32716 0.0
H1525 H 0.37091 0.80944 0.33676 0.0
H1526 H 0.40306 0.80545 0.30798 0.0
H1527 H 0.42449 0.68847 0.26483 0.0
H1528 H 0.40039 0.61156 0.25851 0.0
H1529 H 0.28743 0.52536 0.28208 0.0
H1530 H 0.25094 0.53383 0.30926 0.0
H1531 H 0.24853 0.63475 0.35871 0.0
H1532 H 0.283 0.7022 0.36847 0.0
H1533 H 0.20862 0.68587 0.28751 0.0
H1534 H 0.28623 0.76064 0.26321 0.0
H1535 H 0.37318 0.57946 0.3581 0.0
H1536 H 0.44911 0.65958 0.33494 0.0
C1537 C 0.11031 0.55435 0.09037 0.0
C1538 C 0.12565 0.53092 0.10287 0.0
C1539 C 0.12973 0.49028 0.0969 0.0
C1540 C 0.11649 0.49107 0.08117 0.0
N1541 N 0.10444 0.52966 0.07692 0.0
Co1542 Co 0.08047 0.54434 0.05604 0.0
N1543 N 0.07049 0.48359 0.051 0.0
C1544 C 0.08656 0.44996 0.0579 0.0
C1545 C 0.07563 0.41169 0.05162 0.0
C1546 C 0.05154 0.42183 0.03989 0.0
C1547 C 0.04902 0.46593 0.03965 0.0
N1548 N 0.05636 0.55942 0.03519 0.0
C1549 C 0.03595 0.53551 0.02518 0.0
C1550 C 0.02511 0.55901 0.01162 0.0
C1551 C 0.04002 0.59842 0.01297 0.0
C1552 C 0.05887 0.59705 0.02728 0.0
N1553 N 0.09101 0.60485 0.06098 0.0
C1554 C 0.09094 0.63717 0.05011 0.0
C1555 C 0.09869 0.67561 0.05732 0.0
C1556 C 0.10383 0.66675 0.07374 0.0
C1557 C 0.09879 0.62329 0.07561 0.0
N1558 N 0.1243 0.53988 0.04403 0.0
C1559 C 0.18712 0.53676 0.02699 0.0
C1560 C 0.1577 0.51705 0.02053 0.0
C1561 C 0.12644 0.51926 0.02919 0.0
C1562 C 0.18466 0.55751 0.04218 0.0
C1563 C 0.15324 0.55829 0.05057 0.0
N1564 N 0.03742 0.54946 0.06852 0.0
C1565 C 1.00151 0.59952 0.08292 0.0
C1566 C 0.99742 0.57065 0.09602 0.0
C1567 C 0.0088 0.52869 0.09355 0.0
C1568 C 0.02917 0.5189 0.07985 0.0
C1569 C 0.0207 0.58775 0.06903 0.0
H1570 H 0.04085 0.48782 0.07933 0.0
H1571 H 0.0252 0.61138 0.05962 0.0
H1572 H 0.10402 0.50459 0.02378 0.0
H1573 H 0.15235 0.57425 0.06233 0.0
C1574 C 0.10828 0.45537 0.07158 0.0
C1575 C 0.10263 0.60013 0.09122 0.0
C1576 C 0.02898 0.48971 0.02728 0.0
C1577 C 0.07625 0.63151 0.03449 0.0
H1578 H 0.13274 0.54181 0.11507 0.0
H1579 H 0.13931 0.46291 0.1036 0.0
H1580 H 0.08373 0.38012 0.05533 0.0
H1581 H 0.03798 0.39935 0.03212 0.0
H1582 H 0.00872 0.54854 1.00161 0.0
H1583 H 0.03702 0.62507 1.00463 0.0
H1584 H 0.09864 0.7067 0.05156 0.0
H1585 H 0.11012 0.68961 0.08326 0.0
H1586 H 0.15869 0.50088 0.00874 0.0
H1587 H 0.20696 0.57295 0.04757 0.0
H1588 H 0.99233 0.63197 0.08383 0.0
H1589 H 0.00394 0.50409 0.1026 0.0
C1590 C 0.1304 0.27848 0.83102 0.0
C1591 C 0.10164 0.2521 0.83057 0.0
C1592 C 0.08582 0.2588 0.81576 0.0
C1593 C 0.10498 0.28959 0.8081 0.0
N1594 N 0.13289 0.30203 0.81686 0.0
Co1595 Co 0.16076 0.35518 0.81287 0.0
N1596 N 0.13004 0.37475 0.79452 0.0
C1597 C 0.1036 0.35247 0.78795 0.0
C1598 C 0.08593 0.37425 0.776 0.0
C1599 C 0.10278 0.41219 0.77449 0.0
C1600 C 0.1305 0.41104 0.78535 0.0
N1601 N 0.18729 0.40966 0.81009 0.0
C1602 C 0.18397 0.44169 0.79884 0.0
C1603 C 0.21023 0.47147 0.80069 0.0
C1604 C 0.2302 0.45826 0.81357 0.0
C1605 C 0.21559 0.42098 0.81883 0.0
N1606 N 0.19213 0.33441 0.83065 0.0
C1607 C 0.22299 0.35095 0.83473 0.0
C1608 C 0.23922 0.32893 0.84713 0.0
C1609 C 0.21666 0.29739 0.85155 0.0
C1610 C 0.18752 0.30277 0.84184 0.0
N1611 N 0.19059 0.32645 0.79588 0.0
C1612 C 0.23044 0.29219 0.76963 0.0
C1613 C 0.24317 0.32487 0.77952 0.0
C1614 C 0.22332 0.34093 0.79252 0.0
C1615 C 0.19778 0.27596 0.77338 0.0
C1616 C 0.17846 0.29339 0.78641 0.0
N1617 N 0.13118 0.38304 0.82958 0.0
C1618 C 0.12408 0.40246 0.85822 0.0
C1619 C 0.08913 0.39178 0.85741 0.0
C1620 C 0.07479 0.38304 0.84202 0.0
C1621 C 0.09606 0.37998 0.82824 0.0
C1622 C 0.14475 0.39788 0.8441 0.0
H1623 H 0.08383 0.37157 0.81692 0.0
H1624 H 0.17195 0.40325 0.84542 0.0
H1625 H 0.23531 0.36537 0.7995 0.0
H1626 H 0.15366 0.27976 0.78839 0.0
C1627 C 0.09345 0.31353 0.79467 0.0
C1628 C 0.15428 0.282 0.84521 0.0
C1629 C 0.15781 0.44365 0.78564 0.0
C1630 C 0.2317 0.3919 0.82945 0.0
H1631 H 0.0913 0.23197 0.84012 0.0
H1632 H 0.06133 0.24581 0.8118 0.0
H1633 H 0.06307 0.36414 0.76943 0.0
H1634 H 0.09575 0.4375 0.76608 0.0
H1635 H 0.21581 0.49885 0.79309 0.0
H1636 H 0.25401 0.47256 0.8178 0.0
H1637 H 0.26316 0.33708 0.85323 0.0
H1638 H 0.21993 0.27541 0.86172 0.0
H1639 H 0.26863 0.33791 0.77731 0.0
H1640 H 0.18683 0.25046 0.76606 0.0
H1641 H 0.13584 0.41095 0.86988 0.0
H1642 H 0.0475 0.37624 0.8408 0.0
C1643 C 0.39093 0.42199 0.5876 0.0
C1644 C 0.37842 0.44545 0.60081 0.0
C1645 C 0.38239 0.48738 0.59674 0.0
C1646 C 0.39729 0.48714 0.5814 0.0
N1647 N 0.40221 0.44766 0.5752 0.0
Co1648 Co 0.42819 0.43285 0.55452 0.0
N1649 N 0.4391 0.49415 0.5497 0.0
C1650 C 0.42708 0.52823 0.55811 0.0
C1651 C 0.43752 0.56649 0.55168 0.0
C1652 C 0.45719 0.55632 0.53826 0.0
C1653 C 0.45771 0.51223 0.53727 0.0
N1654 N 0.45622 0.41771 0.53449 0.0
C1655 C 0.47482 0.4426 0.52398 0.0
C1656 C 0.49115 0.41841 0.51197 0.0
C1657 C 0.48257 0.37694 0.51494 0.0
C1658 C 0.46167 0.37803 0.52858 0.0
N1659 N 0.41592 0.37185 0.55883 0.0
C1660 C 0.42235 0.33844 0.5488 0.0
C1661 C 0.41167 0.3002 0.5552 0.0
C1662 C 0.39817 0.30975 0.57034 0.0
C1663 C 0.40159 0.35339 0.57233 0.0
N1664 N 0.38525 0.43827 0.54096 0.0
C1665 C 0.32047 0.43738 0.52474 0.0
C1666 C 0.348 0.41256 0.51907 0.0
C1667 C 0.3798 0.41342 0.52728 0.0
C1668 C 0.32675 0.46473 0.53799 0.0
C1669 C 0.35902 0.46496 0.54572 0.0
N1670 N 0.46981 0.42671 0.56849 0.0
C1671 C 0.50371 0.37757 0.58468 0.0
C1672 C 0.50884 0.40858 0.59684 0.0
C1673 C 0.49853 0.4503 0.59325 0.0
C1674 C 0.47921 0.45867 0.57906 0.0
C1675 C 0.48493 0.3876 0.57046 0.0
H1676 H 0.4703 0.4906 0.57741 0.0
H1677 H 0.48081 0.36248 0.56175 0.0
H1678 H 0.39933 0.3932 0.52239 0.0
H1679 H 0.36171 0.48655 0.55573 0.0
C1680 C 0.40859 0.5231 0.57279 0.0
C1681 C 0.39313 0.37549 0.58766 0.0
C1682 C 0.47661 0.48918 0.5244 0.0
C1683 C 0.44444 0.34297 0.5353 0.0
H1684 H 0.36836 0.43352 0.61238 0.0
H1685 H 0.37634 0.51474 0.60433 0.0
H1686 H 0.43204 0.59804 0.55637 0.0
H1687 H 0.46997 0.57879 0.53019 0.0
H1688 H 0.50707 0.42969 0.50191 0.0
H1689 H 0.49005 0.34937 0.50777 0.0
H1690 H 0.41542 0.2688 0.55 0.0
H1691 H 0.38836 0.28701 0.57921 0.0
H1692 H 0.34505 0.39223 0.50838 0.0
H1693 H 0.30653 0.48517 0.54272 0.0
H1694 H 0.51237 0.34513 0.58651 0.0
H1695 H 0.50407 0.47615 0.60168 0.0
C1696 C 0.13668 0.3443 0.40604 0.0
C1697 C 0.1039 0.35022 0.41317 0.0
C1698 C 0.14099 0.32 0.39158 0.0
C1699 C 0.1127 0.3005 0.38369 0.0
H1700 H 0.15925 0.35805 0.41184 0.0
H1701 H 0.16669 0.31653 0.38651 0.0
S1702 S 0.02193 0.3031 0.39837 0.0
N1703 N 0.04311 0.33265 0.41183 0.0
N1704 N 0.05096 0.28687 0.38485 0.0
C1705 C 0.07987 0.30568 0.39091 0.0
C1706 C 0.07558 0.33036 0.40561 0.0
C1707 C 0.99343 0.85012 0.63952 0.0
C1708 C 0.99647 0.8861 0.62929 0.0
C1709 C 0.97082 0.84977 0.65298 0.0
C1710 C 0.95001 0.88523 0.65672 0.0
H1711 H 0.00857 0.82182 0.63706 0.0
H1712 H 0.96894 0.8209 0.66019 0.0
S1713 S 0.95112 0.98921 0.63486 0.0
N1714 N 0.97824 0.95911 0.62436 0.0
N1715 N 0.937 0.95917 0.65014 0.0
C1716 C 0.95418 0.92227 0.6471 0.0
C1717 C 0.97702 0.9225 0.63328 0.0
C1718 C 0.42845 0.64903 0.90412 0.0
C1719 C 0.39904 0.63203 0.91183 0.0
C1720 C 0.42566 0.67476 0.88996 0.0
C1721 C 0.39324 0.68495 0.88308 0.0
H1722 H 0.45376 0.64306 0.90927 0.0
H1723 H 0.44903 0.68789 0.8847 0.0
S1724 S 0.30847 0.6466 0.89846 0.0
N1725 N 0.33669 0.62634 0.91154 0.0
N1726 N 0.33122 0.67365 0.88478 0.0
C1727 C 0.3637 0.6672 0.89056 0.0
C1728 C 0.36664 0.64108 0.90496 0.0
C1729 C 0.52973 0.16148 0.13095 0.0
C1730 C 0.52083 0.12554 0.12153 0.0
C1731 C 0.55125 0.15785 0.14474 0.0
C1732 C 0.5649 0.11823 0.14953 0.0
H1733 H 0.51911 0.19245 0.12796 0.0
H1734 H 0.55711 0.18625 0.1518 0.0
S1735 S 0.55182 0.01515 0.12825 0.0
N1736 N 0.52896 0.04952 0.11736 0.0
N1737 N 0.56962 0.04283 0.14335 0.0
C1738 C 0.55733 0.08234 0.13989 0.0
C1739 C 0.53515 0.08594 0.1259 0.0
C1740 C 0.07571 0.66992 0.12732 0.0
C1741 C 0.10734 0.68082 0.13479 0.0
C1742 C 0.07436 0.64236 0.11368 0.0
C1743 C 0.10451 0.62447 0.10701 0.0
H1744 H 0.05186 0.68371 0.13181 0.0
H1745 H 0.04964 0.636 0.108 0.0
S1746 S 0.19376 0.64315 0.12166 0.0
N1747 N 0.16953 0.67135 0.13439 0.0
N1748 N 0.16689 0.61989 0.10867 0.0
C1749 C 0.1362 0.63437 0.11449 0.0
C1750 C 0.13761 0.66231 0.12844 0.0
C1751 C 0.52342 0.91737 0.38085 0.0
C1752 C 0.50053 0.88347 0.38349 0.0
C1753 C 0.54633 0.9171 0.3675 0.0
C1754 C 0.54782 0.88255 0.35637 0.0
H1755 H 0.52446 0.9437 0.38946 0.0
H1756 H 0.56364 0.94392 0.36621 0.0
S1757 S 0.48735 0.79026 0.35618 0.0
N1758 N 0.47621 0.81813 0.37258 0.0
N1759 N 0.52005 0.81619 0.34784 0.0
C1760 C 0.52295 0.84994 0.35823 0.0
C1761 C 0.49934 0.85061 0.37177 0.0
C1762 C 0.41057 0.30782 0.62586 0.0
C1763 C 0.37731 0.29974 0.63224 0.0
C1764 C 0.41544 0.33259 0.61157 0.0
C1765 C 0.3873 0.35054 0.60315 0.0
H1766 H 0.43307 0.29422 0.63178 0.0
H1767 H 0.44141 0.33758 0.60702 0.0
S1768 S 0.29524 0.34081 0.61476 0.0
N1769 N 0.31587 0.31327 0.62905 0.0
N1770 N 0.32522 0.35919 0.60214 0.0
C1771 C 0.35404 0.34317 0.60937 0.0
C1772 C 0.34899 0.31793 0.6239 0.0
C1773 C 0.97163 0.09733 0.89429 0.0
C1774 C 0.98463 0.13809 0.89812 0.0
C1775 C 0.95056 0.09064 0.88044 0.0
C1776 C 0.94209 0.12437 0.86982 0.0
H1777 H 0.97811 0.07025 0.90196 0.0
H1778 H 0.94158 0.05871 0.87779 0.0
S1779 S 0.96686 0.23769 0.87489 0.0
N1780 N 0.98577 0.21307 0.89045 0.0
N1781 N 0.94592 0.2004 0.86462 0.0
C1782 C 0.95378 0.16548 0.87379 0.0
C1783 C 0.97505 0.17239 0.8879 0.0
C1784 C 0.81985 0.713 0.62978 0.0
C1785 C 0.85402 0.70907 0.62403 0.0
C1786 C 0.81213 0.73409 0.64474 0.0
C1787 C 0.83803 0.75386 0.65429 0.0
H1788 H 0.79886 0.69963 0.62266 0.0
H1789 H 0.78555 0.73491 0.64882 0.0
S1790 S 0.93184 0.74986 0.64529 0.0
N1791 N 0.91416 0.72391 0.62974 0.0
N1792 N 0.89965 0.76546 0.65723 0.0
C1793 C 0.87235 0.74933 0.64881 0.0
C1794 C 0.88026 0.72692 0.63381 0.0
C1795 C 0.02092 0.09971 0.37378 0.0
C1796 C 0.0483 0.12852 0.37194 0.0
C1797 C 0.00665 0.09126 0.38936 0.0
C1798 C 0.01957 0.1107 0.40381 0.0
H1799 H 0.01097 0.08288 0.36313 0.0
H1800 H 0.98536 0.06901 0.39008 0.0
S1801 S 0.09131 0.18913 0.40531 0.0
N1802 N 0.0874 0.17742 0.38554 0.0
N1803 N 0.0617 0.1606 0.41494 0.0
C1804 C 0.04677 0.14016 0.40201 0.0
C1805 C 0.06093 0.14912 0.38608 0.0
C1806 C 0.64092 0.23073 0.12639 0.0
C1807 C 0.6308 0.27324 0.12342 0.0
C1808 C 0.64663 0.21514 0.14247 0.0
C1809 C 0.64558 0.24196 0.15642 0.0
H1810 H 0.64568 0.20928 0.11622 0.0
H1811 H 0.65323 0.18183 0.14394 0.0
S1812 S 0.62898 0.35856 0.15511 0.0
N1813 N 0.62202 0.3426 0.13601 0.0
N1814 N 0.64082 0.31567 0.16544 0.0
C1815 C 0.63864 0.28546 0.1535 0.0
C1816 C 0.6296 0.30048 0.13728 0.0
C1817 C 0.4551 0.87882 0.90299 0.0
C1818 C 0.48266 0.9079 0.90426 0.0
C1819 C 0.44166 0.86696 0.88759 0.0
C1820 C 0.45494 0.88401 0.87286 0.0
H1821 H 0.44347 0.86543 0.91397 0.0
H1822 H 0.42034 0.84468 0.88719 0.0
S1823 S 0.52734 0.96026 0.86907 0.0
N1824 N 0.52389 0.95159 0.88909 0.0
N1825 N 0.4966 0.93171 0.86035 0.0
C1826 C 0.48224 0.91317 0.87386 0.0
C1827 C 0.49655 0.92453 0.88949 0.0
C1828 C 0.86558 0.22037 0.89242 0.0
C1829 C 0.87627 0.26254 0.8956 0.0
C1830 C 0.85979 0.20545 0.87625 0.0
C1831 C 0.8612 0.23272 0.86243 0.0
H1832 H 0.86028 0.19873 0.90246 0.0
H1833 H 0.85275 0.17234 0.87464 0.0
S1834 S 0.87956 0.34882 0.86432 0.0
N1835 N 0.88646 0.33199 0.88332 0.0
N1836 N 0.86691 0.30663 0.85381 0.0
C1837 C 0.86877 0.27593 0.86558 0.0
C1838 C 0.87813 0.29013 0.88186 0.0
C1839 C 0.43131 0.14351 0.6277 0.0
C1840 C 0.44432 0.12736 0.64264 0.0
C1841 C 0.44603 0.13214 0.61247 0.0
C1842 C 0.47434 0.10405 0.61158 0.0
H1843 H 0.40911 0.16448 0.6278 0.0
H1844 H 0.43469 0.14485 0.6013 0.0
S1845 S 0.51857 0.05409 0.6474 0.0
N1846 N 0.48662 0.08146 0.65569 0.0
N1847 N 0.51601 0.06252 0.62733 0.0
C1848 C 0.488 0.08847 0.62656 0.0
C1849 C 0.47257 0.09947 0.642 0.0
C1850 C 0.68901 0.73376 0.3706 0.0
C1851 C 0.66361 0.75474 0.36113 0.0
C1852 C 0.68074 0.7126 0.38548 0.0
C1853 C 0.64648 0.70999 0.39124 0.0
H1854 H 0.71563 0.73397 0.36656 0.0
H1855 H 0.70138 0.69828 0.39257 0.0
S1856 S 0.57004 0.75595 0.37047 0.0
N1857 N 0.60252 0.76989 0.35843 0.0
N1858 N 0.58689 0.72831 0.38578 0.0
C1859 C 0.62077 0.72939 0.38158 0.0
C1860 C 0.62927 0.75179 0.36665 0.0
C1861 C 0.03543 0.88117 0.13436 0.0
C1862 C 0.04861 0.91164 0.14538 0.0
C1863 C 0.02178 0.89308 0.11904 0.0
C1864 C 0.02116 0.93598 0.11394 0.0
H1865 H 0.03602 0.84767 0.1375 0.0
H1866 H 0.01142 0.86834 0.11116 0.0
S1867 S 0.05273 0.02804 0.13843 0.0
N1868 N 0.0595 0.98648 0.15049 0.0
N1869 N 0.03529 0.00908 0.12135 0.0
C1870 C 0.03402 0.96688 0.12497 0.0
C1871 C 0.0474 0.95466 0.14074 0.0
C1872 C 0.59734 0.84252 0.88639 0.0
C1873 C 0.6215 0.80903 0.8846 0.0
C1874 C 0.59489 0.86636 0.90101 0.0
C1875 C 0.61709 0.85878 0.91438 0.0
H1876 H 0.57974 0.85039 0.87649 0.0
H1877 H 0.5751 0.89059 0.90197 0.0
S1878 S 0.68715 0.77872 0.91605 0.0
N1879 N 0.66873 0.77082 0.89795 0.0
N1880 N 0.66635 0.81908 0.92447 0.0
C1881 C 0.64279 0.82765 0.91251 0.0
C1882 C 0.64447 0.80203 0.8979 0.0
C1883 C 0.45457 0.38236 0.11978 0.0
C1884 C 0.48985 0.39181 0.12196 0.0
C1885 C 0.43062 0.38788 0.13261 0.0
C1886 C 0.44077 0.40357 0.14812 0.0
H1887 H 0.4454 0.36964 0.10816 0.0
H1888 H 0.40428 0.37787 0.13057 0.0
S1889 S 0.52924 0.43718 0.1599 0.0
N1890 N 0.53332 0.41913 0.14089 0.0
N1891 N 0.48787 0.43282 0.16437 0.0
C1892 C 0.47549 0.41576 0.15014 0.0
C1893 C 0.50008 0.40911 0.13725 0.0
C1894 C 0.91027 0.16637 0.40688 0.0
C1895 C 0.88113 0.15 0.41498 0.0
C1896 C 0.90693 0.19135 0.3926 0.0
C1897 C 0.87426 0.20118 0.38595 0.0
H1898 H 0.93581 0.16015 0.41172 0.0
H1899 H 0.93012 0.20386 0.38693 0.0
S1900 S 0.79005 0.16446 0.40249 0.0
N1901 N 0.81879 0.14442 0.41538 0.0
N1902 N 0.81225 0.19098 0.38844 0.0
C1903 C 0.84493 0.18447 0.39392 0.0
C1904 C 0.84843 0.15895 0.40845 0.0
C1905 C 0.03795 0.64645 0.6494 0.0
C1906 C 0.05983 0.6112 0.65186 0.0
C1907 C 0.01498 0.64816 0.63614 0.0
C1908 C 0.01262 0.61451 0.62479 0.0
H1909 H 0.03887 0.67345 0.65768 0.0
H1910 H 0.99865 0.67598 0.63487 0.0
S1911 S 0.0629 0.51404 0.62584 0.0
N1912 N 0.07662 0.54096 0.64206 0.0
N1913 N 0.03369 0.54453 0.61687 0.0
C1914 C 0.03391 0.57873 0.62713 0.0
C1915 C 0.05748 0.57702 0.64068 0.0
C1916 C 0.64638 0.15438 0.60991 0.0
C1917 C 0.61356 0.14863 0.60285 0.0
C1918 C 0.6507 0.17857 0.62439 0.0
C1919 C 0.62231 0.19761 0.63237 0.0
H1920 H 0.66883 0.14031 0.60411 0.0
H1921 H 0.67639 0.18213 0.62946 0.0
S1922 S 0.53134 0.19399 0.61816 0.0
N1923 N 0.55258 0.16509 0.6045 0.0
N1924 N 0.56046 0.21049 0.63156 0.0
C1925 C 0.58944 0.19232 0.62527 0.0
C1926 C 0.58515 0.16792 0.61055 0.0
C1927 C 0.054 0.344 0.87522 0.0
C1928 C 0.06819 0.3846 0.87244 0.0
C1929 C 0.03151 0.33651 0.88843 0.0
C1930 C 0.02206 0.36948 0.89927 0.0
H1931 H 0.05991 0.31795 0.86691 0.0
H1932 H 0.02052 0.30502 0.88982 0.0
S1933 S 0.05477 0.48049 0.89819 0.0
N1934 N 0.07331 0.45734 0.88217 0.0
N1935 N 0.03081 0.44349 0.90707 0.0
C1936 C 0.03718 0.40984 0.897 0.0
C1937 C 0.0604 0.41732 0.88359 0.0
C1938 C 0.91503 0.87328 0.11879 0.0
C1939 C 0.89747 0.86226 0.10427 0.0
C1940 C 0.91153 0.84883 0.13325 0.0
C1941 C 0.89069 0.81184 0.13374 0.0
H1942 H 0.93208 0.90062 0.11889 0.0
H1943 H 0.92564 0.85894 0.14408 0.0
S1944 S 0.83777 0.77127 0.0988 0.0
N1945 N 0.85619 0.81468 0.09146 0.0
N1946 N 0.85179 0.76644 0.11793 0.0
C1947 C 0.8723 0.80134 0.11924 0.0
C1948 C 0.87515 0.82707 0.10472 0.0
C1949 C 0.49521 0.6053 0.37417 0.0
C1950 C 0.4844 0.61689 0.39013 0.0
C1951 C 0.47204 0.60485 0.3609 0.0
C1952 C 0.43711 0.61546 0.36314 0.0
H1953 H 0.52204 0.59777 0.37182 0.0
H1954 H 0.48164 0.59678 0.34874 0.0
S1955 S 0.39549 0.64612 0.40258 0.0
N1956 N 0.43621 0.63759 0.40755 0.0
N1957 N 0.39266 0.63709 0.38256 0.0
C1958 C 0.42576 0.62602 0.3791 0.0
C1959 C 0.44941 0.62675 0.3926 0.0
C1960 C 0.37435 0.20869 0.13764 0.0
C1961 C 0.36898 0.23258 0.12313 0.0
C1962 C 0.36675 0.2253 0.1534 0.0
C1963 C 0.35638 0.26799 0.15565 0.0
H1964 H 0.38341 0.17614 0.13678 0.0
H1965 H 0.36769 0.2036 0.16371 0.0
S1966 S 0.33458 0.3429 0.12168 0.0
N1967 N 0.34667 0.29903 0.11208 0.0
N1968 N 0.33936 0.33309 0.14155 0.0
C1969 C 0.35099 0.29228 0.14118 0.0
C1970 C 0.35581 0.27411 0.12507 0.0
C1971 C 0.54918 0.62121 0.90529 0.0
C1972 C 0.52269 0.59064 0.90657 0.0
C1973 C 0.56242 0.63359 0.8899 0.0
C1974 C 0.55025 0.61535 0.87517 0.0
H1975 H 0.56019 0.63536 0.91627 0.0
H1976 H 0.58289 0.65705 0.88952 0.0
S1977 S 0.48031 0.5357 0.87129 0.0
N1978 N 0.48287 0.54521 0.89128 0.0
N1979 N 0.51058 0.56519 0.86266 0.0
C1980 C 0.52394 0.58484 0.87616 0.0
C1981 C 0.50952 0.57329 0.89176 0.0
C1982 C 0.18759 0.77907 0.64667 0.0
C1983 C 0.16141 0.75602 0.65482 0.0
C1984 C 0.18144 0.80005 0.63157 0.0
C1985 C 0.14829 0.80137 0.62448 0.0
H1986 H 0.21332 0.78022 0.65184 0.0
H1987 H 0.20295 0.8151 0.62535 0.0
S1988 S 0.06983 0.7504 0.64162 0.0
N1989 N 0.10066 0.7369 0.65469 0.0
N1990 N 0.08843 0.78021 0.6274 0.0
C1991 C 0.12151 0.78034 0.63292 0.0
C1992 C 0.12812 0.75716 0.64784 0.0
C1993 C 0.94737 0.37966 0.40658 0.0
C1994 C 0.9775 0.40453 0.4078 0.0
C1995 C 0.93325 0.36897 0.39118 0.0
C1996 C 0.94846 0.38307 0.37639 0.0
H1997 H 0.93428 0.36878 0.41761 0.0
H1998 H 0.90985 0.35014 0.39081 0.0
S1999 S 0.02847 0.44665 0.37249 0.0
N2000 N 0.02357 0.43986 0.39255 0.0
N2001 N 0.99514 0.42291 0.3638 0.0
C2002 C 0.97855 0.40769 0.37735 0.0
C2003 C 0.99351 0.41764 0.39298 0.0
C2004 C 0.37 0.75904 0.36689 0.0
C2005 C 0.33672 0.75909 0.35989 0.0
C2006 C 0.37693 0.77997 0.38191 0.0
C2007 C 0.35073 0.80112 0.39079 0.0
H2008 H 0.39085 0.74247 0.36071 0.0
H2009 H 0.40298 0.77924 0.38673 0.0
S2010 S 0.25917 0.81039 0.37792 0.0
N2011 N 0.27777 0.78436 0.36261 0.0
N2012 N 0.28976 0.81893 0.39171 0.0
C2013 C 0.31726 0.80083 0.38404 0.0
C2014 C 0.31056 0.78117 0.36839 0.0
C2015 C 0.95719 0.61574 0.11324 0.0
C2016 C 0.98364 0.58499 0.11239 0.0
C2017 C 0.9446 0.63044 0.12845 0.0
C2018 C 0.95732 0.61437 0.14346 0.0
H2019 H 0.94572 0.6283 0.10208 0.0
H2020 H 0.92414 0.65395 0.12848 0.0
S2021 S 0.02745 0.53535 0.14845 0.0
N2022 N 0.02408 0.54186 0.12831 0.0
N2023 N 0.99752 0.56609 0.15669 0.0
C2024 C 0.9836 0.58372 0.1429 0.0
C2025 C 0.99739 0.56984 0.12745 0.0
C2026 C 0.13329 0.22507 0.8656 0.0
C2027 C 0.14573 0.26658 0.86256 0.0
C2028 C 0.12507 0.21091 0.88166 0.0
C2029 C 0.13147 0.2362 0.8957 0.0
H2030 H 0.13074 0.20256 0.85559 0.0
H2031 H 0.1146 0.17917 0.88315 0.0
S2032 S 0.17211 0.34331 0.89514 0.0
N2033 N 0.16651 0.33157 0.8755 0.0
N2034 N 0.15787 0.30166 0.90551 0.0
C2035 C 0.14697 0.27619 0.893 0.0
C2036 C 0.15263 0.29198 0.87658 0.0
C2037 C 0.55198 0.36918 0.61443 0.0
C2038 C 0.52371 0.39724 0.61327 0.0
C2039 C 0.56642 0.35849 0.62977 0.0
C2040 C 0.55324 0.37549 0.64453 0.0
H2041 H 0.56351 0.35599 0.60338 0.0
H2042 H 0.58853 0.33738 0.63009 0.0
S2043 S 0.4785 0.44817 0.64859 0.0
N2044 N 0.48166 0.43932 0.62856 0.0
N2045 N 0.5103 0.42114 0.65719 0.0
C2046 C 0.52485 0.40306 0.64364 0.0
C2047 C 0.50974 0.41345 0.62808 0.0
C2048 C 0.21465 0.24944 0.25415 0.0
C2049 C 0.24224 0.27668 0.25834 0.0
C2050 C 0.19252 0.23261 0.26629 0.0
C2051 C 0.19673 0.2428 0.28307 0.0
H2052 H 0.20977 0.24143 0.24137 0.0
H2053 H 0.17189 0.21147 0.26252 0.0
S2054 S 0.26521 0.31083 0.30092 0.0
N2055 N 0.27348 0.31047 0.28094 0.0
N2056 N 0.23017 0.28168 0.30333 0.0
C2057 C 0.22387 0.27007 0.28746 0.0
C2058 C 0.24702 0.28623 0.27523 0.0
C2059 C 0.04685 0.95241 0.51399 0.0
C2060 C 0.03588 0.95072 0.53053 0.0
C2061 C 0.02728 0.97377 0.50188 0.0
C2062 C 0.99596 0.99408 0.50587 0.0
H2063 H 0.07077 0.93716 0.51041 0.0
H2064 H 0.03669 0.9745 0.4893 0.0
S2065 S 0.95574 0.99807 0.54735 0.0
N2066 N 0.99171 0.97082 0.55023 0.0
N2067 N 0.95479 0.01045 0.52754 0.0
C2068 C 0.98472 0.99235 0.52236 0.0
C2069 C 0.0047 0.97081 0.53467 0.0
C2070 C 0.28634 0.7713 0.75751 0.0
C2071 C 0.27924 0.72804 0.75455 0.0
C2072 C 0.30765 0.78383 0.77065 0.0
C2073 C 0.32224 0.75357 0.78136 0.0
H2074 H 0.27522 0.7956 0.74966 0.0
H2075 H 0.31232 0.81746 0.77263 0.0
S2076 S 0.31022 0.6367 0.77949 0.0
N2077 N 0.28795 0.65506 0.76363 0.0
N2078 N 0.3273 0.67884 0.78854 0.0
C2079 C 0.31527 0.71033 0.7786 0.0
C2080 C 0.29397 0.69751 0.76512 0.0
C2081 C 0.45194 0.04747 0.0156 0.0
C2082 C 0.46737 0.0696 0.02879 0.0
C2083 C 0.472 0.02485 1.00402 0.0
C2084 C 0.50823 0.02385 1.00513 0.0
H2085 H 0.42417 0.04803 0.01414 0.0
H2086 H 0.45913 0.00824 0.99407 0.0
S2087 S 0.56116 0.0763 0.0373 0.0
N2088 N 0.52106 0.08877 0.04226 0.0
N2089 N 0.55861 0.04658 0.02052 0.0
C2090 C 0.52392 0.04575 0.01824 0.0
C2091 C 0.50354 0.06858 0.03004 0.0
C2092 C 0.21177 0.78174 0.2583 0.0
C2093 C 0.21861 0.73827 0.26095 0.0
C2094 C 0.1897 0.79508 0.24555 0.0
C2095 C 0.17394 0.76545 0.23496 0.0
H2096 H 0.22394 0.80557 0.266 0.0
H2097 H 0.18562 0.82887 0.24367 0.0
S2098 S 0.18545 0.64834 0.23596 0.0
N2099 N 0.20863 0.66581 0.25166 0.0
N2100 N 0.1681 0.69101 0.2274 0.0
C2101 C 0.1807 0.72197 0.23743 0.0
C2102 C 0.20275 0.70836 0.25052 0.0
C2103 C 0.49727 0.96728 0.4818 0.0
C2104 C 0.46645 0.94566 0.48553 0.0
C2105 C 0.51614 0.98864 0.49415 0.0
C2106 C 0.50478 0.98936 0.51066 0.0
H2107 H 0.50678 0.9677 0.46923 0.0
H2108 H 0.53977 0.00485 0.49076 0.0
S2109 S 0.42544 0.93807 0.52672 0.0
N2110 N 0.4254 0.92637 0.50684 0.0
N2111 N 0.46051 0.96679 0.52996 0.0
C2112 C 0.47398 0.96786 0.5145 0.0
C2113 C 0.45491 0.94599 0.50196 0.0
C2114 C 0.26547 0.30336 0.74379 0.0
C2115 C 0.25146 0.27535 0.75564 0.0
C2116 C 0.28631 0.28835 0.73079 0.0
C2117 C 0.29424 0.24485 0.72927 0.0
H2118 H 0.26016 0.33717 0.74455 0.0
H2119 H 0.29652 0.31092 0.72194 0.0
S2120 S 0.26579 0.15871 0.75751 0.0
N2121 N 0.24794 0.20218 0.76517 0.0
N2122 N 0.28747 0.17419 0.74104 0.0
C2123 C 0.2807 0.21663 0.74111 0.0
C2124 C 0.2592 0.23179 0.7542 0.0
C2125 C 0.9952 0.08134 0.99 0.0
C2126 C 0.03088 0.0884 0.99169 0.0
C2127 C 0.97642 0.05878 1.00209 0.0
C2128 C 0.99258 0.04284 0.01639 0.0
H2129 H 0.98184 0.09288 0.97915 0.0
H2130 H 0.94918 0.05305 1.00011 0.0
S2131 S 0.08492 0.05482 0.02712 0.0
N2132 N 0.08118 0.07941 0.00918 0.0
N2133 N 0.04608 0.03659 0.03166 0.0
C2134 C 0.02804 0.0504 0.01834 0.0
C2135 C 0.0471 0.07341 1.00609 0.0
C2136 C 0.69035 0.75267 0.75144 0.0
C2137 C 0.71825 0.78045 0.75441 0.0
C2138 C 0.6705 0.73609 0.7645 0.0
C2139 C 0.67757 0.747 0.78099 0.0
H2140 H 0.6837 0.74373 0.73894 0.0
H2141 H 0.64972 0.71419 0.76172 0.0
S2142 S 0.74774 0.81725 0.79574 0.0
N2143 N 0.75263 0.81608 0.77552 0.0
N2144 N 0.71358 0.7876 0.79966 0.0
C2145 C 0.70477 0.77523 0.78415 0.0
C2146 C 0.72556 0.79117 0.77099 0.0
C2147 C 0.75725 0.22788 0.27461 0.0
C2148 C 0.7631 0.23865 0.25791 0.0
C2149 C 0.77825 0.24359 0.28728 0.0
C2150 C 0.80545 0.27175 0.28393 0.0
H2151 H 0.73617 0.20702 0.27799 0.0
H2152 H 0.77305 0.23382 0.29986 0.0
S2153 S 0.83224 0.31059 0.24271 0.0
N2154 N 0.79925 0.27882 0.23888 0.0
N2155 N 0.83723 0.31039 0.26294 0.0
C2156 C 0.81144 0.2835 0.26745 0.0
C2157 C 0.79054 0.26672 0.25442 0.0
C2158 C 0.7474 0.21686 0.74448 0.0
C2159 C 0.74188 0.22767 0.76119 0.0
C2160 C 0.72617 0.2326 0.73187 0.0
C2161 C 0.699 0.26076 0.73532 0.0
H2162 H 0.76845 0.19602 0.74102 0.0
H2163 H 0.73118 0.22289 0.71927 0.0
S2164 S 0.67278 0.29934 0.77666 0.0
N2165 N 0.70592 0.26767 0.78036 0.0
N2166 N 0.66746 0.29918 0.75645 0.0
C2167 C 0.69323 0.27239 0.75183 0.0
C2168 C 0.7144 0.25563 0.76478 0.0
C2169 C 0.818 0.75784 0.26661 0.0
C2170 C 0.79059 0.78623 0.26339 0.0
C2171 C 0.83848 0.74129 0.25376 0.0
C2172 C 0.83261 0.75287 0.23723 0.0
H2173 H 0.82365 0.74819 0.27915 0.0
H2174 H 0.85866 0.71868 0.25672 0.0
S2175 S 0.76435 0.82507 0.22182 0.0
N2176 N 0.75815 0.82334 0.24195 0.0
N2177 N 0.79839 0.79491 0.21827 0.0
C2178 C 0.80609 0.78192 0.23384 0.0
C2179 C 0.78462 0.79781 0.24677 0.0
C2180 C 0.50203 0.45045 0.03341 0.0
C2181 C 0.53465 0.43279 0.03013 0.0
C2182 C 0.48399 0.47352 0.02124 0.0
C2183 C 0.49795 0.4797 1.00535 0.0
H2184 H 0.49029 0.44606 0.04542 0.0
H2185 H 0.45876 0.48624 0.02418 0.0
S2186 S 0.58197 0.43878 0.99045 0.0
N2187 N 0.57982 0.42233 0.00979 0.0
N2188 N 0.54598 0.46556 0.98698 0.0
C2189 C 0.53042 0.46199 1.00193 0.0
C2190 C 0.54876 0.43862 0.0143 0.0
C2191 C 0.01332 0.50985 0.52244 0.0
C2192 C 0.00385 0.50842 0.50564 0.0
C2193 C 0.99358 0.53262 0.53411 0.0
C2194 C 0.96389 0.55539 0.52942 0.0
H2195 H 0.0362 0.4932 0.52658 0.0
H2196 H 0.00166 0.5326 0.5469 0.0
S2197 S 0.92862 0.56316 0.48703 0.0
N2198 N 0.96305 0.53257 0.48497 0.0
N2199 N 0.92633 0.57562 0.50681 0.0
C2200 C 0.95444 0.55473 0.51267 0.0
C2201 C 0.97437 0.53135 0.50082 0.0
C2202 C 0.02293 0.45989 0.9984 0.0
C2203 C 0.00915 0.46567 0.01436 0.0
C2204 C 0.00516 0.43625 0.9863 0.0
C2205 C 0.97306 0.41739 0.98974 0.0
H2206 H 0.04777 0.47356 0.99532 0.0
H2207 H 0.01666 0.43249 0.9742 0.0
S2208 S 0.92623 0.42215 0.02957 0.0
N2209 N 0.96174 0.44998 0.0329 0.0
N2210 N 0.92843 0.40569 0.01024 0.0
C2211 C 0.95913 0.42278 1.00562 0.0
C2212 C 0.97718 0.44678 0.01791 0.0
C2213 C 0.55108 0.53943 0.50001 0.0
C2214 C 0.53452 0.5576 0.48621 0.0
C2215 C 0.53232 0.51746 0.51228 0.0
C2216 C 0.49623 0.51305 0.51129 0.0
H2217 H 0.5788 0.54224 0.5013 0.0
H2218 H 0.5461 0.50385 0.52263 0.0
S2219 S 0.44057 0.55441 0.47776 0.0
N2220 N 0.47987 0.56924 0.47233 0.0
N2221 N 0.44475 0.52853 0.49541 0.0
C2222 C 0.4794 0.53113 0.49762 0.0
C2223 C 0.49847 0.55326 0.48511 0.0
C2224 C 0.11084 0.98834 0.27126 0.0
C2225 C 0.11355 0.03224 0.26794 0.0
C2226 C 0.11055 0.95807 0.25844 0.0
C2227 C 0.11364 0.97034 0.24178 0.0
H2228 H 0.10842 0.97732 0.28388 0.0
H2229 H 0.10814 0.9247 0.26162 0.0
S2230 S 0.12229 0.08115 0.22647 0.0
N2231 N 0.11987 0.08631 0.24672 0.0
N2232 N 0.11969 0.02956 0.22272 0.0
C2233 C 0.11682 0.01407 0.23831 0.0
C2234 C 0.11661 0.04492 0.25134 0.0
C2235 C 0.21829 0.85836 0.50408 0.0
C2236 C 0.22724 0.85968 0.52091 0.0
C2237 C 0.24365 0.85855 0.4917 0.0
C2238 C 0.27899 0.85959 0.49565 0.0
H2239 H 0.19142 0.85799 0.50042 0.0
H2240 H 0.23553 0.8577 0.47891 0.0
S2241 S 0.31615 0.86257 0.53783 0.0
N2242 N 0.27404 0.86116 0.54086 0.0
N2243 N 0.32161 0.86213 0.51763 0.0
C2244 C 0.28831 0.86051 0.51243 0.0
C2245 C 0.26249 0.86048 0.52503 0.0
C2246 C 0.41873 0.0135 0.75114 0.0
C2247 C 0.3875 0.02308 0.7431 0.0
C2248 C 0.42024 0.98271 0.76379 0.0
C2249 C 0.3906 0.96002 0.76882 0.0
H2250 H 0.44196 0.03083 0.74795 0.0
H2251 H 0.44464 0.97748 0.76996 0.0
S2252 S 0.30353 0.96951 0.74997 0.0
N2253 N 0.32696 0.00532 0.74013 0.0
N2254 N 0.32981 0.9467 0.76335 0.0
C2255 C 0.35956 0.96819 0.7603 0.0
C2256 C 0.35802 0.99983 0.74761 0.0
C2257 C 0.2767 0.15794 1.00785 0.0
C2258 C 0.2833 0.19152 0.01897 0.0
C2259 C 0.24967 0.16013 0.99638 0.0
C2260 C 0.22833 0.19614 0.9954 0.0
H2261 H 0.29218 0.12924 1.00822 0.0
H2262 H 0.24481 0.13293 0.98849 0.0
S2263 S 0.23467 0.29329 0.0211 0.0
N2264 N 0.26617 0.26247 0.02789 0.0
N2265 N 0.21574 0.26656 1.00606 0.0
C2266 C 0.23514 0.23055 1.00595 0.0
C2267 C 0.2626 0.22832 0.01776 0.0
C2268 C 0.88139 0.00155 0.76694 0.0
C2269 C 0.85158 0.02216 0.77293 0.0
C2270 C 0.87997 0.97289 0.75354 0.0
C2271 C 0.8484 0.96132 0.74615 0.0
H2272 H 0.90624 0.00843 0.77242 0.0
H2273 H 0.90382 0.95918 0.74904 0.0
S2274 S 0.76234 0.00397 0.75777 0.0
N2275 N 0.78953 0.03013 0.76969 0.0
N2276 N 0.78613 0.97065 0.74689 0.0
C2277 C 0.8182 0.98024 0.75254 0.0
C2278 C 0.81994 0.01176 0.76533 0.0
C2279 C 0.74569 0.05953 0.5254 0.0
C2280 C 0.71549 0.05947 0.51572 0.0
C2281 C 0.77863 0.05966 0.51813 0.0
C2282 C 0.78272 0.05909 0.50087 0.0
H2283 H 0.74384 0.05996 0.53873 0.0
H2284 H 0.80108 0.05967 0.52608 0.0
S2285 S 0.71205 0.0588 0.46998 0.0
N2286 N 0.69195 0.05869 0.48794 0.0
N2287 N 0.75367 0.05919 0.47429 0.0
C2288 C 0.75275 0.05902 0.49105 0.0
C2289 C 0.71924 0.05922 0.49846 0.0
C2290 C 0.68422 0.01705 0.2525 0.0
C2291 C 0.6533 0.02757 0.24429 0.0
C2292 C 0.68522 0.98593 0.26498 0.0
C2293 C 0.65498 0.96589 0.27076 0.0
H2294 H 0.70802 0.03308 0.24928 0.0
H2295 H 0.71001 0.97781 0.27028 0.0
S2296 S 0.56703 0.98282 0.25393 0.0
N2297 N 0.59179 0.01377 0.24246 0.0
N2298 N 0.59291 0.95988 0.26746 0.0
C2299 C 0.62373 0.97684 0.26296 0.0
C2300 C 0.62306 0.00655 0.24948 0.0
C2301 C 0.72484 0.943 0.01721 0.0
C2302 C 0.72068 0.94116 1.0 0.0
C2303 C 0.75774 0.94153 0.02443 0.0
C2304 C 0.78785 0.93772 0.01475 0.0
H2305 H 0.70251 0.94636 0.02515 0.0
H2306 H 0.7596 0.94401 0.03773 0.0
S2307 S 0.79053 0.92774 0.96914 0.0
N2308 N 0.74914 0.93315 0.97348 0.0
N2309 N 0.81088 0.92951 0.98702 0.0
C2310 C 0.78391 0.935 0.99752 0.0
C2311 C 0.7504 0.93687 0.99017 0.0
C2312 C 0.63786 0.48156 0.75458 0.0
C2313 C 0.60765 0.46668 0.74683 0.0
C2314 C 0.63659 0.51201 0.76725 0.0
C2315 C 0.60504 0.52902 0.77284 0.0
H2316 H 0.66284 0.46933 0.75092 0.0
H2317 H 0.6607 0.52271 0.77257 0.0
S2318 S 0.51826 0.50064 0.75684 0.0
N2319 N 0.5451 0.47201 0.74557 0.0
N2320 N 0.54262 0.52763 0.76985 0.0
C2321 C 0.57456 0.51419 0.76531 0.0
C2322 C 0.57587 0.48341 0.75227 0.0
C2323 C 0.7648 0.27071 1.00372 0.0
C2324 C 0.77978 0.30852 0.9977 0.0
C2325 C 0.7369 0.27186 0.01491 0.0
C2326 C 0.7227 0.31085 0.02021 0.0
H2327 H 0.77512 0.24015 0.99999 0.0
H2328 H 0.72608 0.24213 0.01929 0.0
S2329 S 0.7524 0.4186 1.00792 0.0
N2330 N 0.7781 0.38582 0.99779 0.0
N2331 N 0.72599 0.38798 0.01863 0.0
C2332 C 0.7374 0.3487 0.01416 0.0
C2333 C 0.76579 0.34754 1.00296 0.0
C2334 C 0.90188 0.46287 0.25698 0.0
C2335 C 0.8991 0.4759 0.27355 0.0
C2336 C 0.90319 0.49275 0.24405 0.0
C2337 C 0.9024 0.53683 0.24722 0.0
H2338 H 0.90229 0.42928 0.25395 0.0
H2339 H 0.90496 0.48128 0.23148 0.0
S2340 S 0.89595 0.58752 0.28846 0.0
N2341 N 0.89611 0.53592 0.2924 0.0
N2342 N 0.89872 0.59192 0.2682 0.0
C2343 C 0.9001 0.55024 0.26375 0.0
C2344 C 0.89837 0.51986 0.27688 0.0
C2345 C 0.73683 0.68418 0.50088 0.0
C2346 C 0.72293 0.64586 0.49476 0.0
C2347 C 0.76218 0.68424 0.5133 0.0
C2348 C 0.77443 0.646 0.52026 0.0
H2349 H 0.72832 0.71442 0.4959 0.0
H2350 H 0.77201 0.71454 0.51761 0.0
S2351 S 0.74633 0.537 0.50871 0.0
N2352 N 0.72301 0.56863 0.49688 0.0
N2353 N 0.77102 0.56871 0.51985 0.0
C2354 C 0.76072 0.60749 0.51426 0.0
C2355 C 0.73497 0.60742 0.50162 0.0
C2356 C 0.34897 0.51174 0.2692 0.0
C2357 C 0.34531 0.55496 0.26489 0.0
C2358 C 0.34983 0.47947 0.25719 0.0
C2359 C 0.35029 0.48885 0.24016 0.0
H2360 H 0.34996 0.50254 0.28208 0.0
H2361 H 0.34994 0.44673 0.26137 0.0
S2362 S 0.34312 0.597 0.22205 0.0
N2363 N 0.3404 0.60513 0.24214 0.0
N2364 N 0.34885 0.54525 0.21967 0.0
C2365 C 0.3485 0.53213 0.23564 0.0
C2366 C 0.34464 0.56485 0.2479 0.0
C2367 C 0.2657 0.57743 1.00396 0.0
C2368 C 0.28488 0.54015 1.00099 0.0
C2369 C 0.23408 0.57597 0.01237 0.0
C2370 C 0.22016 0.5371 0.01781 0.0
H2371 H 0.27547 0.60805 0.99996 0.0
H2372 H 0.2203 0.60544 0.01457 0.0
S2373 S 0.25962 0.43042 0.01286 0.0
N2374 N 0.28745 0.46321 1.00407 0.0
N2375 N 0.22763 0.46051 0.01962 0.0
C2376 C 0.23877 0.49956 0.01477 0.0
C2377 C 0.27127 0.50109 1.00645 0.0
C2378 C 0.16089 0.52078 0.77608 0.0
C2379 C 0.15963 0.47707 0.77217 0.0
C2380 C 0.16313 0.5522 0.76372 0.0
C2381 C 0.16121 0.54177 0.74681 0.0
H2382 H 0.16055 0.53088 0.78885 0.0
H2383 H 0.166 0.5851 0.76746 0.0
S2384 S 0.15516 0.43223 0.72982 0.0
N2385 N 0.15828 0.4251 0.74995 0.0
N2386 N 0.15507 0.48427 0.72695 0.0
C2387 C 0.1581 0.49829 0.74275 0.0
C2388 C 0.15897 0.4661 0.7553 0.0
C2389 C 0.23308 0.47006 0.50685 0.0
C2390 C 0.21805 0.43091 0.50247 0.0
C2391 C 0.26615 0.47193 0.51395 0.0
C2392 C 0.28542 0.43468 0.51707 0.0
H2393 H 0.21949 0.49955 0.50443 0.0
H2394 H 0.27689 0.5029 0.51679 0.0
S2395 S 0.25583 0.32394 0.50942 0.0
N2396 N 0.2239 0.35397 0.50262 0.0
N2397 N 0.28548 0.35722 0.5163 0.0
C2398 C 0.27014 0.39526 0.51312 0.0
C2399 C 0.23665 0.39345 0.50577 0.0
loop_
_geom_bond_atom_site_label_1
_geom_bond_atom_site_label_2
_geom_bond_distance
_geom_bond_site_symmetry_2
_ccdc_geom_bond_type
C0 C1 1.443 . S
C0 N4 1.376 . S
C0 C38 1.389 . S
C1 C0 1.443 . S
C1 C2 1.340 . S
C1 H41 0.951 . S
C2 C1 1.340 . S
C2 C3 1.439 . S
C2 H42 0.950 . S
C3 C2 1.439 . S
C3 N4 1.374 . S
C3 C37 1.395 . S
N4 C0 1.376 . S
N4 C3 1.374 . S
N4 Co5 2.008 . S
Co5 N4 2.008 . S
Co5 N6 1.995 . S
Co5 N11 2.008 . S
Co5 N16 1.995 . S
Co5 N21 2.282 . S
Co5 N27 2.282 . S
N6 Co5 1.995 . S
N6 C7 1.376 . S
N6 C10 1.383 . S
C7 N6 1.376 . S
C7 C8 1.446 . S
C7 C37 1.391 . S
C8 C7 1.446 . S
C8 C9 1.339 . S
C8 H43 0.949 . S
C9 C8 1.339 . S
C9 C10 1.439 . S
C9 H44 0.950 . S
C10 N6 1.383 . S
C10 C9 1.439 . S
C10 C39 1.392 . S
N11 Co5 2.008 . S
N11 C12 1.376 . S
N11 C15 1.374 . S
C12 N11 1.376 . S
C12 C13 1.443 . S
C12 C39 1.389 . S
C13 C12 1.443 . S
C13 C14 1.340 . S
C13 H45 0.951 . S
C14 C13 1.340 . S
C14 C15 1.439 . S
C14 H46 0.950 . S
C15 N11 1.374 . S
C15 C14 1.439 . S
C15 C40 1.395 . S
N16 Co5 1.995 . S
N16 C17 1.376 . S
N16 C20 1.383 . S
C17 N16 1.376 . S
C17 C18 1.446 . S
C17 C40 1.391 . S
C18 C17 1.446 . S
C18 C19 1.339 . S
C18 H47 0.949 . S
C19 C18 1.339 . S
C19 C20 1.439 . S
C19 H48 0.950 . S
C20 N16 1.383 . S
C20 C19 1.439 . S
C20 C38 1.392 . S
N21 Co5 2.282 . S
N21 C24 1.332 . S
N21 C26 1.332 . S
C22 C23 1.386 . S
C22 C25 1.388 . S
C23 C22 1.386 . S
C23 C24 1.382 . S
C23 H49 0.950 . S
C24 N21 1.332 . S
C24 C23 1.382 . S
C24 H35 0.952 . S
C25 C22 1.388 . S
C25 C26 1.382 . S
C25 H50 0.950 . S
C26 N21 1.332 . S
C26 C25 1.382 . S
C26 H36 0.948 . S
N27 Co5 2.282 . S
N27 C31 1.332 . S
N27 C32 1.332 . S
C28 C29 1.388 . S
C28 C32 1.382 . S
C28 H51 0.950 . S
C29 C28 1.388 . S
C29 C30 1.386 . S
C30 C29 1.386 . S
C30 C31 1.382 . S
C30 H52 0.950 . S
C31 N27 1.332 . S
C31 C30 1.382 . S
C31 H33 0.952 . S
C32 N27 1.332 . S
C32 C28 1.382 . S
C32 H34 0.948 . S
H33 C31 0.952 . S
H34 C32 0.948 . S
H35 C24 0.952 . S
H36 C26 0.948 . S
C37 C3 1.395 . S
C37 C7 1.391 . S
C38 C0 1.389 . S
C38 C20 1.392 . S
C39 C10 1.392 . S
C39 C12 1.389 . S
C40 C15 1.395 . S
C40 C17 1.391 . S
H41 C1 0.951 . S
H42 C2 0.950 . S
H43 C8 0.949 . S
H44 C9 0.950 . S
H45 C13 0.951 . S
H46 C14 0.950 . S
H47 C18 0.949 . S
H48 C19 0.950 . S
H49 C23 0.950 . S
H50 C25 0.950 . S
H51 C28 0.950 . S
H52 C30 0.950 . S
C53 C54 1.443 . S
C53 N57 1.376 . S
C53 C91 1.389 . S
C54 C53 1.443 . S
C54 C55 1.340 . S
C54 H94 0.951 . S
C55 C54 1.340 . S
C55 C56 1.439 . S
C55 H95 0.950 . S
C56 C55 1.439 . S
C56 N57 1.374 . S
C56 C90 1.395 . S
N57 C53 1.376 . S
N57 C56 1.374 . S
N57 Co58 2.008 . S
Co58 N57 2.008 . S
Co58 N59 1.995 . S
Co58 N64 2.008 . S
Co58 N69 1.995 . S
Co58 N74 2.282 . S
Co58 N80 2.282 . S
N59 Co58 1.995 . S
N59 C60 1.376 . S
N59 C63 1.383 . S
C60 N59 1.376 . S
C60 C61 1.446 . S
C60 C90 1.391 . S
C61 C60 1.446 . S
C61 C62 1.339 . S
C61 H96 0.949 . S
C62 C61 1.339 . S
C62 C63 1.439 . S
C62 H97 0.950 . S
C63 N59 1.383 . S
C63 C62 1.439 . S
C63 C92 1.392 . S
N64 Co58 2.008 . S
N64 C65 1.376 1_565 S
N64 C68 1.374 1_565 S
C65 N64 1.376 1_545 S
C65 C66 1.443 . S
C65 C92 1.389 1_545 S
C66 C65 1.443 . S
C66 C67 1.340 . S
C66 H98 0.951 . S
C67 C66 1.340 . S
C67 C68 1.439 . S
C67 H99 0.950 . S
C68 N64 1.374 1_545 S
C68 C67 1.439 . S
C68 C93 1.395 . S
N69 Co58 1.995 . S
N69 C70 1.376 . S
N69 C73 1.383 . S
C70 N69 1.376 . S
C70 C71 1.446 . S
C70 C93 1.391 1_565 S
C71 C70 1.446 . S
C71 C72 1.339 . S
C71 H100 0.949 1_565 S
C72 C71 1.339 . S
C72 C73 1.439 . S
C72 H101 0.950 . S
C73 N69 1.383 . S
C73 C72 1.439 . S
C73 C91 1.392 . S
N74 Co58 2.282 . S
N74 C77 1.332 . S
N74 C79 1.332 . S
C75 C76 1.386 . S
C75 C78 1.388 . S
C76 C75 1.386 . S
C76 C77 1.382 . S
C76 H102 0.950 . S
C77 N74 1.332 . S
C77 C76 1.382 . S
C77 H88 0.952 . S
C78 C75 1.388 . S
C78 C79 1.382 . S
C78 H103 0.950 . S
C79 N74 1.332 . S
C79 C78 1.382 . S
C79 H89 0.948 . S
N80 Co58 2.282 . S
N80 C84 1.332 . S
N80 C85 1.332 . S
C81 C82 1.388 . S
C81 C85 1.382 . S
C81 H104 0.950 . S
C82 C81 1.388 . S
C82 C83 1.386 . S
C83 C82 1.386 . S
C83 C84 1.382 . S
C83 H105 0.950 1_455 S
C84 N80 1.332 . S
C84 C83 1.382 . S
C84 H86 0.952 . S
C85 N80 1.332 . S
C85 C81 1.382 . S
C85 H87 0.948 . S
H86 C84 0.952 . S
H87 C85 0.948 . S
H88 C77 0.952 . S
H89 C79 0.948 . S
C90 C56 1.395 . S
C90 C60 1.391 . S
C91 C53 1.389 . S
C91 C73 1.392 . S
C92 C63 1.392 . S
C92 C65 1.389 1_565 S
C93 C68 1.395 . S
C93 C70 1.391 1_545 S
H94 C54 0.951 . S
H95 C55 0.950 . S
H96 C61 0.949 . S
H97 C62 0.950 . S
H98 C66 0.951 . S
H99 C67 0.950 . S
H100 C71 0.949 1_545 S
H101 C72 0.950 . S
H102 C76 0.950 . S
H103 C78 0.950 . S
H104 C81 0.950 . S
H105 C83 0.950 1_655 S
C106 C107 1.443 . S
C106 N110 1.376 . S
C106 C144 1.389 . S
C107 C106 1.443 . S
C107 C108 1.340 . S
C107 H147 0.951 . S
C108 C107 1.340 . S
C108 C109 1.439 . S
C108 H148 0.950 . S
C109 C108 1.439 . S
C109 N110 1.374 . S
C109 C143 1.395 . S
N110 C106 1.376 . S
N110 C109 1.374 . S
N110 Co111 2.008 . S
Co111 N110 2.008 . S
Co111 N112 1.995 . S
Co111 N117 2.008 . S
Co111 N122 1.995 . S
Co111 N127 2.282 . S
Co111 N133 2.282 . S
N112 Co111 1.995 . S
N112 C113 1.376 . S
N112 C116 1.383 . S
C113 N112 1.376 . S
C113 C114 1.446 . S
C113 C143 1.391 . S
C114 C113 1.446 . S
C114 C115 1.339 . S
C114 H149 0.949 . S
C115 C114 1.339 . S
C115 C116 1.439 . S
C115 H150 0.950 . S
C116 N112 1.383 . S
C116 C115 1.439 . S
C116 C145 1.392 . S
N117 Co111 2.008 . S
N117 C118 1.376 . S
N117 C121 1.374 . S
C118 N117 1.376 . S
C118 C119 1.443 . S
C118 C145 1.389 . S
C119 C118 1.443 . S
C119 C120 1.340 . S
C119 H151 0.951 . S
C120 C119 1.340 . S
C120 C121 1.439 . S
C120 H152 0.950 . S
C121 N117 1.374 . S
C121 C120 1.439 . S
C121 C146 1.395 . S
N122 Co111 1.995 . S
N122 C123 1.376 . S
N122 C126 1.383 . S
C123 N122 1.376 . S
C123 C124 1.446 . S
C123 C146 1.391 . S
C124 C123 1.446 . S
C124 C125 1.339 . S
C124 H153 0.949 . S
C125 C124 1.339 . S
C125 C126 1.439 . S
C125 H154 0.950 . S
C126 N122 1.383 . S
C126 C125 1.439 . S
C126 C144 1.392 . S
N127 Co111 2.282 . S
N127 C130 1.332 . S
N127 C132 1.332 . S
C128 C129 1.386 . S
C128 C131 1.388 . S
C129 C128 1.386 . S
C129 C130 1.382 . S
C129 H155 0.950 . S
C130 N127 1.332 . S
C130 C129 1.382 . S
C130 H141 0.952 . S
C131 C128 1.388 . S
C131 C132 1.382 . S
C131 H156 0.950 . S
C132 N127 1.332 . S
C132 C131 1.382 . S
C132 H142 0.948 . S
N133 Co111 2.282 . S
N133 C137 1.332 . S
N133 C138 1.332 . S
C134 C135 1.388 . S
C134 C138 1.382 . S
C134 H157 0.950 . S
C135 C134 1.388 . S
C135 C136 1.386 . S
C136 C135 1.386 . S
C136 C137 1.382 . S
C136 H158 0.950 . S
C137 N133 1.332 . S
C137 C136 1.382 . S
C137 H139 0.952 . S
C138 N133 1.332 . S
C138 C134 1.382 . S
C138 H140 0.948 . S
H139 C137 0.952 . S
H140 C138 0.948 . S
H141 C130 0.952 . S
H142 C132 0.948 . S
C143 C109 1.395 . S
C143 C113 1.391 . S
C144 C106 1.389 . S
C144 C126 1.392 . S
C145 C116 1.392 . S
C145 C118 1.389 . S
C146 C121 1.395 . S
C146 C123 1.391 . S
H147 C107 0.951 . S
H148 C108 0.950 . S
H149 C114 0.949 . S
H150 C115 0.950 . S
H151 C119 0.951 . S
H152 C120 0.950 . S
H153 C124 0.949 . S
H154 C125 0.950 . S
H155 C129 0.950 . S
H156 C131 0.950 . S
H157 C134 0.950 . S
H158 C136 0.950 . S
C159 C160 1.443 . S
C159 N163 1.376 . S
C159 C197 1.389 . S
C160 C159 1.443 . S
C160 C161 1.340 . S
C160 H200 0.951 . S
C161 C160 1.340 . S
C161 C162 1.439 . S
C161 H201 0.950 . S
C162 C161 1.439 . S
C162 N163 1.374 . S
C162 C196 1.395 . S
N163 C159 1.376 . S
N163 C162 1.374 . S
N163 Co164 2.008 . S
Co164 N163 2.008 . S
Co164 N165 1.995 . S
Co164 N170 2.008 . S
Co164 N175 1.995 . S
Co164 N180 2.282 . S
Co164 N186 2.282 . S
N165 Co164 1.995 . S
N165 C166 1.376 . S
N165 C169 1.383 . S
C166 N165 1.376 . S
C166 C167 1.446 . S
C166 C196 1.391 . S
C167 C166 1.446 . S
C167 C168 1.339 . S
C167 H202 0.949 . S
C168 C167 1.339 . S
C168 C169 1.439 . S
C168 H203 0.950 . S
C169 N165 1.383 . S
C169 C168 1.439 . S
C169 C198 1.392 . S
N170 Co164 2.008 . S
N170 C171 1.376 1_545 S
N170 C174 1.374 1_545 S
C171 N170 1.376 1_565 S
C171 C172 1.443 . S
C171 C198 1.389 1_565 S
C172 C171 1.443 . S
C172 C173 1.340 . S
C172 H204 0.951 . S
C173 C172 1.340 . S
C173 C174 1.439 . S
C173 H205 0.950 . S
C174 N170 1.374 1_565 S
C174 C173 1.439 . S
C174 C199 1.395 . S
N175 Co164 1.995 . S
N175 C176 1.376 . S
N175 C179 1.383 . S
C176 N175 1.376 . S
C176 C177 1.446 . S
C176 C199 1.391 1_545 S
C177 C176 1.446 . S
C177 C178 1.339 . S
C177 H206 0.949 1_545 S
C178 C177 1.339 . S
C178 C179 1.439 . S
C178 H207 0.950 . S
C179 N175 1.383 . S
C179 C178 1.439 . S
C179 C197 1.392 . S
N180 Co164 2.282 . S
N180 C183 1.332 . S
N180 C185 1.332 . S
C181 C182 1.386 . S
C181 C184 1.388 . S
C182 C181 1.386 . S
C182 C183 1.382 . S
C182 H208 0.950 . S
C183 N180 1.332 . S
C183 C182 1.382 . S
C183 H194 0.952 . S
C184 C181 1.388 . S
C184 C185 1.382 . S
C184 H209 0.950 . S
C185 N180 1.332 . S
C185 C184 1.382 . S
C185 H195 0.948 . S
N186 Co164 2.282 . S
N186 C190 1.332 . S
N186 C191 1.332 . S
C187 C188 1.388 . S
C187 C191 1.382 . S
C187 H210 0.950 . S
C188 C187 1.388 . S
C188 C189 1.386 . S
C189 C188 1.386 . S
C189 C190 1.382 . S
C189 H211 0.950 . S
C190 N186 1.332 . S
C190 C189 1.382 . S
C190 H192 0.952 . S
C191 N186 1.332 . S
C191 C187 1.382 . S
C191 H193 0.948 . S
H192 C190 0.952 . S
H193 C191 0.948 . S
H194 C183 0.952 . S
H195 C185 0.948 . S
C196 C162 1.395 . S
C196 C166 1.391 . S
C197 C159 1.389 . S
C197 C179 1.392 . S
C198 C169 1.392 . S
C198 C171 1.389 1_545 S
C199 C174 1.395 . S
C199 C176 1.391 1_565 S
H200 C160 0.951 . S
H201 C161 0.950 . S
H202 C167 0.949 . S
H203 C168 0.950 . S
H204 C172 0.951 . S
H205 C173 0.950 . S
H206 C177 0.949 1_565 S
H207 C178 0.950 . S
H208 C182 0.950 . S
H209 C184 0.950 . S
H210 C187 0.950 . S
H211 C189 0.950 . S
C212 C213 1.443 . S
C212 N216 1.376 . S
C212 C250 1.389 . S
C213 C212 1.443 . S
C213 C214 1.340 . S
C213 H253 0.951 . S
C214 C213 1.340 . S
C214 C215 1.439 . S
C214 H254 0.950 . S
C215 C214 1.439 . S
C215 N216 1.374 . S
C215 C249 1.395 . S
N216 C212 1.376 . S
N216 C215 1.374 . S
N216 Co217 2.008 . S
Co217 N216 2.008 . S
Co217 N218 1.995 . S
Co217 N223 2.008 . S
Co217 N228 1.995 . S
Co217 N233 2.282 . S
Co217 N239 2.282 . S
N218 Co217 1.995 . S
N218 C219 1.376 . S
N218 C222 1.383 . S
C219 N218 1.376 . S
C219 C220 1.446 . S
C219 C249 1.391 . S
C220 C219 1.446 . S
C220 C221 1.339 . S
C220 H255 0.949 . S
C221 C220 1.339 . S
C221 C222 1.439 . S
C221 H256 0.950 . S
C222 N218 1.383 . S
C222 C221 1.439 . S
C222 C251 1.392 . S
N223 Co217 2.008 . S
N223 C224 1.376 . S
N223 C227 1.374 . S
C224 N223 1.376 . S
C224 C225 1.443 . S
C224 C251 1.389 . S
C225 C224 1.443 . S
C225 C226 1.340 . S
C225 H257 0.951 . S
C226 C225 1.340 . S
C226 C227 1.439 . S
C226 H258 0.950 . S
C227 N223 1.374 . S
C227 C226 1.439 . S
C227 C252 1.395 . S
N228 Co217 1.995 . S
N228 C229 1.376 . S
N228 C232 1.383 . S
C229 N228 1.376 . S
C229 C230 1.446 . S
C229 C252 1.391 . S
C230 C229 1.446 . S
C230 C231 1.339 . S
C230 H259 0.949 . S
C231 C230 1.339 . S
C231 C232 1.439 . S
C231 H260 0.950 . S
C232 N228 1.383 . S
C232 C231 1.439 . S
C232 C250 1.392 . S
N233 Co217 2.282 . S
N233 C236 1.332 . S
N233 C238 1.332 . S
C234 C235 1.386 . S
C234 C237 1.388 . S
C235 C234 1.386 . S
C235 C236 1.382 . S
C235 H261 0.950 . S
C236 N233 1.332 . S
C236 C235 1.382 . S
C236 H247 0.952 . S
C237 C234 1.388 . S
C237 C238 1.382 . S
C237 H262 0.950 . S
C238 N233 1.332 . S
C238 C237 1.382 . S
C238 H248 0.948 . S
N239 Co217 2.282 . S
N239 C243 1.332 . S
N239 C244 1.332 . S
C240 C241 1.388 . S
C240 C244 1.382 . S
C240 H263 0.950 . S
C241 C240 1.388 . S
C241 C242 1.386 . S
C242 C241 1.386 . S
C242 C243 1.382 . S
C242 H264 0.950 . S
C243 N239 1.332 . S
C243 C242 1.382 . S
C243 H245 0.952 . S
C244 N239 1.332 . S
C244 C240 1.382 . S
C244 H246 0.948 . S
H245 C243 0.952 . S
H246 C244 0.948 . S
H247 C236 0.952 . S
H248 C238 0.948 . S
C249 C215 1.395 . S
C249 C219 1.391 . S
C250 C212 1.389 . S
C250 C232 1.392 . S
C251 C222 1.392 . S
C251 C224 1.389 . S
C252 C227 1.395 . S
C252 C229 1.391 . S
H253 C213 0.951 . S
H254 C214 0.950 . S
H255 C220 0.949 . S
H256 C221 0.950 . S
H257 C225 0.951 . S
H258 C226 0.950 . S
H259 C230 0.949 . S
H260 C231 0.950 . S
H261 C235 0.950 . S
H262 C237 0.950 . S
H263 C240 0.950 . S
H264 C242 0.950 . S
C265 C266 1.443 . S
C265 N269 1.376 . S
C265 C303 1.389 . S
C266 C265 1.443 . S
C266 C267 1.340 . S
C266 H306 0.951 . S
C267 C266 1.340 . S
C267 C268 1.439 . S
C267 H307 0.950 . S
C268 C267 1.439 . S
C268 N269 1.374 . S
C268 C302 1.395 . S
N269 C265 1.376 . S
N269 C268 1.374 . S
N269 Co270 2.008 . S
Co270 N269 2.008 . S
Co270 N271 1.995 . S
Co270 N276 2.008 . S
Co270 N281 1.995 . S
Co270 N286 2.282 . S
Co270 N292 2.282 . S
N271 Co270 1.995 . S
N271 C272 1.376 . S
N271 C275 1.383 . S
C272 N271 1.376 . S
C272 C273 1.446 . S
C272 C302 1.391 . S
C273 C272 1.446 . S
C273 C274 1.339 . S
C273 H308 0.949 . S
C274 C273 1.339 . S
C274 C275 1.439 . S
C274 H309 0.950 . S
C275 N271 1.383 . S
C275 C274 1.439 . S
C275 C304 1.392 . S
N276 Co270 2.008 . S
N276 C277 1.376 1_565 S
N276 C280 1.374 1_565 S
C277 N276 1.376 1_545 S
C277 C278 1.443 . S
C277 C304 1.389 1_545 S
C278 C277 1.443 . S
C278 C279 1.340 . S
C278 H310 0.951 . S
C279 C278 1.340 . S
C279 C280 1.439 . S
C279 H311 0.950 . S
C280 N276 1.374 1_545 S
C280 C279 1.439 . S
C280 C305 1.395 . S
N281 Co270 1.995 . S
N281 C282 1.376 . S
N281 C285 1.383 . S
C282 N281 1.376 . S
C282 C283 1.446 . S
C282 C305 1.391 1_565 S
C283 C282 1.446 . S
C283 C284 1.339 . S
C283 H312 0.949 1_565 S
C284 C283 1.339 . S
C284 C285 1.439 . S
C284 H313 0.950 . S
C285 N281 1.383 . S
C285 C284 1.439 . S
C285 C303 1.392 . S
N286 Co270 2.282 . S
N286 C289 1.332 . S
N286 C291 1.332 . S
C287 C288 1.386 . S
C287 C290 1.388 . S
C288 C287 1.386 . S
C288 C289 1.382 . S
C288 H314 0.950 . S
C289 N286 1.332 . S
C289 C288 1.382 . S
C289 H300 0.952 . S
C290 C287 1.388 . S
C290 C291 1.382 . S
C290 H315 0.950 . S
C291 N286 1.332 . S
C291 C290 1.382 . S
C291 H301 0.948 . S
N292 Co270 2.282 . S
N292 C296 1.332 . S
N292 C297 1.332 . S
C293 C294 1.388 . S
C293 C297 1.382 . S
C293 H316 0.950 . S
C294 C293 1.388 . S
C294 C295 1.386 . S
C295 C294 1.386 . S
C295 C296 1.382 . S
C295 H317 0.950 . S
C296 N292 1.332 . S
C296 C295 1.382 . S
C296 H298 0.952 . S
C297 N292 1.332 . S
C297 C293 1.382 . S
C297 H299 0.948 . S
H298 C296 0.952 . S
H299 C297 0.948 . S
H300 C289 0.952 . S
H301 C291 0.948 . S
C302 C268 1.395 . S
C302 C272 1.391 . S
C303 C265 1.389 . S
C303 C285 1.392 . S
C304 C275 1.392 . S
C304 C277 1.389 1_565 S
C305 C280 1.395 . S
C305 C282 1.391 1_545 S
H306 C266 0.951 . S
H307 C267 0.950 . S
H308 C273 0.949 . S
H309 C274 0.950 . S
H310 C278 0.951 . S
H311 C279 0.950 . S
H312 C283 0.949 1_545 S
H313 C284 0.950 . S
H314 C288 0.950 . S
H315 C290 0.950 . S
H316 C293 0.950 . S
H317 C295 0.950 . S
C318 C319 1.443 . S
C318 N322 1.376 . S
C318 C356 1.389 . S
C319 C318 1.443 . S
C319 C320 1.340 . S
C319 H359 0.951 . S
C320 C319 1.340 . S
C320 C321 1.439 . S
C320 H360 0.950 . S
C321 C320 1.439 . S
C321 N322 1.374 . S
C321 C355 1.395 . S
N322 C318 1.376 . S
N322 C321 1.374 . S
N322 Co323 2.008 . S
Co323 N322 2.008 . S
Co323 N324 1.995 . S
Co323 N329 2.008 . S
Co323 N334 1.995 . S
Co323 N339 2.282 . S
Co323 N345 2.282 . S
N324 Co323 1.995 . S
N324 C325 1.376 . S
N324 C328 1.383 . S
C325 N324 1.376 . S
C325 C326 1.446 . S
C325 C355 1.391 . S
C326 C325 1.446 . S
C326 C327 1.339 . S
C326 H361 0.949 . S
C327 C326 1.339 . S
C327 C328 1.439 . S
C327 H362 0.950 . S
C328 N324 1.383 . S
C328 C327 1.439 . S
C328 C357 1.392 . S
N329 Co323 2.008 . S
N329 C330 1.376 . S
N329 C333 1.374 . S
C330 N329 1.376 . S
C330 C331 1.443 . S
C330 C357 1.389 . S
C331 C330 1.443 . S
C331 C332 1.340 . S
C331 H363 0.951 . S
C332 C331 1.340 . S
C332 C333 1.439 . S
C332 H364 0.950 . S
C333 N329 1.374 . S
C333 C332 1.439 . S
C333 C358 1.395 . S
N334 Co323 1.995 . S
N334 C335 1.376 . S
N334 C338 1.383 . S
C335 N334 1.376 . S
C335 C336 1.446 . S
C335 C358 1.391 . S
C336 C335 1.446 . S
C336 C337 1.339 . S
C336 H365 0.949 . S
C337 C336 1.339 . S
C337 C338 1.439 . S
C337 H366 0.950 . S
C338 N334 1.383 . S
C338 C337 1.439 . S
C338 C356 1.392 . S
N339 Co323 2.282 . S
N339 C342 1.332 . S
N339 C344 1.332 . S
C340 C341 1.386 . S
C340 C343 1.388 . S
C341 C340 1.386 . S
C341 C342 1.382 . S
C341 H367 0.950 . S
C342 N339 1.332 . S
C342 C341 1.382 . S
C342 H353 0.952 . S
C343 C340 1.388 . S
C343 C344 1.382 . S
C343 H368 0.950 . S
C344 N339 1.332 . S
C344 C343 1.382 . S
C344 H354 0.948 . S
N345 Co323 2.282 . S
N345 C349 1.332 . S
N345 C350 1.332 . S
C346 C347 1.388 . S
C346 C350 1.382 . S
C346 H369 0.950 . S
C347 C346 1.388 . S
C347 C348 1.386 . S
C348 C347 1.386 . S
C348 C349 1.382 . S
C348 H370 0.950 . S
C349 N345 1.332 . S
C349 C348 1.382 . S
C349 H351 0.952 . S
C350 N345 1.332 . S
C350 C346 1.382 . S
C350 H352 0.948 . S
H351 C349 0.952 . S
H352 C350 0.948 . S
H353 C342 0.952 . S
H354 C344 0.948 . S
C355 C321 1.395 . S
C355 C325 1.391 . S
C356 C318 1.389 . S
C356 C338 1.392 . S
C357 C328 1.392 . S
C357 C330 1.389 . S
C358 C333 1.395 . S
C358 C335 1.391 . S
H359 C319 0.951 . S
H360 C320 0.950 . S
H361 C326 0.949 . S
H362 C327 0.950 . S
H363 C331 0.951 . S
H364 C332 0.950 . S
H365 C336 0.949 . S
H366 C337 0.950 . S
H367 C341 0.950 . S
H368 C343 0.950 . S
H369 C346 0.950 . S
H370 C348 0.950 . S
C371 C372 1.443 . S
C371 N375 1.376 . S
C371 C409 1.389 . S
C372 C371 1.443 . S
C372 C373 1.340 . S
C372 H412 0.951 . S
C373 C372 1.340 . S
C373 C374 1.439 . S
C373 H413 0.950 . S
C374 C373 1.439 . S
C374 N375 1.374 . S
C374 C408 1.395 . S
N375 C371 1.376 . S
N375 C374 1.374 . S
N375 Co376 2.008 . S
Co376 N375 2.008 . S
Co376 N377 1.995 . S
Co376 N382 2.008 . S
Co376 N387 1.995 . S
Co376 N392 2.282 . S
Co376 N398 2.282 . S
N377 Co376 1.995 . S
N377 C378 1.376 . S
N377 C381 1.383 . S
C378 N377 1.376 . S
C378 C379 1.446 . S
C378 C408 1.391 . S
C379 C378 1.446 . S
C379 C380 1.339 . S
C379 H414 0.949 . S
C380 C379 1.339 . S
C380 C381 1.439 . S
C380 H415 0.950 . S
C381 N377 1.383 . S
C381 C380 1.439 . S
C381 C410 1.392 . S
N382 Co376 2.008 . S
N382 C383 1.376 1_545 S
N382 C386 1.374 1_545 S
C383 N382 1.376 1_565 S
C383 C384 1.443 . S
C383 C410 1.389 1_565 S
C384 C383 1.443 . S
C384 C385 1.340 . S
C384 H416 0.951 . S
C385 C384 1.340 . S
C385 C386 1.439 . S
C385 H417 0.950 . S
C386 N382 1.374 1_565 S
C386 C385 1.439 . S
C386 C411 1.395 . S
N387 Co376 1.995 . S
N387 C388 1.376 . S
N387 C391 1.383 . S
C388 N387 1.376 . S
C388 C389 1.446 . S
C388 C411 1.391 1_545 S
C389 C388 1.446 . S
C389 C390 1.339 . S
C389 H418 0.949 1_545 S
C390 C389 1.339 . S
C390 C391 1.439 . S
C390 H419 0.950 . S
C391 N387 1.383 . S
C391 C390 1.439 . S
C391 C409 1.392 . S
N392 Co376 2.282 . S
N392 C395 1.332 . S
N392 C397 1.332 . S
C393 C394 1.386 . S
C393 C396 1.388 . S
C394 C393 1.386 . S
C394 C395 1.382 . S
C394 H420 0.950 . S
C395 N392 1.332 . S
C395 C394 1.382 . S
C395 H406 0.952 . S
C396 C393 1.388 . S
C396 C397 1.382 . S
C396 H421 0.950 . S
C397 N392 1.332 . S
C397 C396 1.382 . S
C397 H407 0.948 . S
N398 Co376 2.282 . S
N398 C402 1.332 . S
N398 C403 1.332 . S
C399 C400 1.388 . S
C399 C403 1.382 . S
C399 H422 0.950 . S
C400 C399 1.388 . S
C400 C401 1.386 . S
C401 C400 1.386 . S
C401 C402 1.382 . S
C401 H423 0.950 1_455 S
C402 N398 1.332 . S
C402 C401 1.382 . S
C402 H404 0.952 . S
C403 N398 1.332 . S
C403 C399 1.382 . S
C403 H405 0.948 . S
H404 C402 0.952 . S
H405 C403 0.948 . S
H406 C395 0.952 . S
H407 C397 0.948 . S
C408 C374 1.395 . S
C408 C378 1.391 . S
C409 C371 1.389 . S
C409 C391 1.392 . S
C410 C381 1.392 . S
C410 C383 1.389 1_545 S
C411 C386 1.395 . S
C411 C388 1.391 1_565 S
H412 C372 0.951 . S
H413 C373 0.950 . S
H414 C379 0.949 . S
H415 C380 0.950 . S
H416 C384 0.951 . S
H417 C385 0.950 . S
H418 C389 0.949 1_565 S
H419 C390 0.950 . S
H420 C394 0.950 . S
H421 C396 0.950 . S
H422 C399 0.950 . S
H423 C401 0.950 1_655 S
C424 C425 1.443 . S
C424 N428 1.376 . S
C424 C462 1.389 . S
C425 C424 1.443 . S
C425 C426 1.340 . S
C425 H465 0.951 . S
C426 C425 1.340 . S
C426 C427 1.439 . S
C426 H466 0.950 . S
C427 C426 1.439 . S
C427 N428 1.374 . S
C427 C461 1.395 . S
N428 C424 1.376 . S
N428 C427 1.374 . S
N428 Co429 2.008 . S
Co429 N428 2.008 . S
Co429 N430 1.995 . S
Co429 N435 2.008 . S
Co429 N440 1.995 . S
Co429 N445 2.282 . S
Co429 N451 2.282 . S
N430 Co429 1.995 . S
N430 C431 1.376 . S
N430 C434 1.383 . S
C431 N430 1.376 . S
C431 C432 1.446 . S
C431 C461 1.391 . S
C432 C431 1.446 . S
C432 C433 1.339 . S
C432 H467 0.949 . S
C433 C432 1.339 . S
C433 C434 1.439 . S
C433 H468 0.950 . S
C434 N430 1.383 . S
C434 C433 1.439 . S
C434 C463 1.392 . S
N435 Co429 2.008 . S
N435 C436 1.376 . S
N435 C439 1.374 . S
C436 N435 1.376 . S
C436 C437 1.443 . S
C436 C463 1.389 . S
C437 C436 1.443 . S
C437 C438 1.340 . S
C437 H469 0.951 . S
C438 C437 1.340 . S
C438 C439 1.439 . S
C438 H470 0.950 . S
C439 N435 1.374 . S
C439 C438 1.439 . S
C439 C464 1.395 . S
N440 Co429 1.995 . S
N440 C441 1.376 . S
N440 C444 1.383 . S
C441 N440 1.376 . S
C441 C442 1.446 . S
C441 C464 1.391 . S
C442 C441 1.446 . S
C442 C443 1.339 . S
C442 H471 0.949 . S
C443 C442 1.339 . S
C443 C444 1.439 . S
C443 H472 0.950 . S
C444 N440 1.383 . S
C444 C443 1.439 . S
C444 C462 1.392 . S
N445 Co429 2.282 . S
N445 C448 1.332 . S
N445 C450 1.332 . S
C446 C447 1.386 . S
C446 C449 1.388 . S
C447 C446 1.386 . S
C447 C448 1.382 . S
C447 H473 0.950 . S
C448 N445 1.332 . S
C448 C447 1.382 . S
C448 H459 0.952 . S
C449 C446 1.388 . S
C449 C450 1.382 . S
C449 H474 0.950 . S
C450 N445 1.332 . S
C450 C449 1.382 . S
C450 H460 0.948 . S
N451 Co429 2.282 . S
N451 C455 1.332 . S
N451 C456 1.332 . S
C452 C453 1.388 . S
C452 C456 1.382 . S
C452 H475 0.950 . S
C453 C452 1.388 . S
C453 C454 1.386 . S
C454 C453 1.386 . S
C454 C455 1.382 . S
C454 H476 0.950 . S
C455 N451 1.332 . S
C455 C454 1.382 . S
C455 H457 0.952 . S
C456 N451 1.332 . S
C456 C452 1.382 . S
C456 H458 0.948 . S
H457 C455 0.952 . S
H458 C456 0.948 . S
H459 C448 0.952 . S
H460 C450 0.948 . S
C461 C427 1.395 . S
C461 C431 1.391 . S
C462 C424 1.389 . S
C462 C444 1.392 . S
C463 C434 1.392 . S
C463 C436 1.389 . S
C464 C439 1.395 . S
C464 C441 1.391 . S
H465 C425 0.951 . S
H466 C426 0.950 . S
H467 C432 0.949 . S
H468 C433 0.950 . S
H469 C437 0.951 . S
H470 C438 0.950 . S
H471 C442 0.949 . S
H472 C443 0.950 . S
H473 C447 0.950 . S
H474 C449 0.950 . S
H475 C452 0.950 . S
H476 C454 0.950 . S
C477 C478 1.436 1_545 S
C477 N481 1.376 1_545 S
C477 C515 1.389 . S
C478 C477 1.436 1_565 S
C478 C479 1.354 . S
C478 H518 0.946 1_565 S
C479 C478 1.354 . S
C479 C480 1.439 . S
C479 H519 0.950 . S
C480 C479 1.439 . S
C480 N481 1.374 . S
C480 C514 1.395 . S
N481 C477 1.376 1_565 S
N481 C480 1.374 . S
N481 Co482 2.008 1_565 S
Co482 N481 2.008 1_545 S
Co482 N483 1.995 1_545 S
Co482 N488 2.008 . S
Co482 N493 1.995 . S
Co482 N498 2.282 . S
Co482 N504 2.282 . S
N483 Co482 1.995 1_565 S
N483 C484 1.376 . S
N483 C487 1.383 . S
C484 N483 1.376 . S
C484 C485 1.446 . S
C484 C514 1.391 . S
C485 C484 1.446 . S
C485 C486 1.339 . S
C485 H520 0.949 . S
C486 C485 1.339 . S
C486 C487 1.439 . S
C486 H521 0.950 . S
C487 N483 1.383 . S
C487 C486 1.439 . S
C487 C516 1.392 . S
N488 Co482 2.008 . S
N488 C489 1.376 . S
N488 C492 1.374 . S
C489 N488 1.376 . S
C489 C490 1.443 . S
C489 C516 1.389 1_545 S
C490 C489 1.443 . S
C490 C491 1.340 . S
C490 H522 0.951 . S
C491 C490 1.340 . S
C491 C492 1.439 . S
C491 H523 0.950 . S
C492 N488 1.374 . S
C492 C491 1.439 . S
C492 C517 1.395 . S
N493 Co482 1.995 . S
N493 C494 1.376 . S
N493 C497 1.383 . S
C494 N493 1.376 . S
C494 C495 1.446 . S
C494 C517 1.391 . S
C495 C494 1.446 . S
C495 C496 1.339 . S
C495 H524 0.949 . S
C496 C495 1.339 . S
C496 C497 1.439 . S
C496 H525 0.950 . S
C497 N493 1.383 . S
C497 C496 1.439 . S
C497 C515 1.392 . S
N498 Co482 2.282 . S
N498 C501 1.332 . S
N498 C503 1.332 1_545 S
C499 C500 1.386 1_565 S
C499 C502 1.388 . S
C500 C499 1.386 1_545 S
C500 C501 1.382 . S
C500 H526 0.950 . S
C501 N498 1.332 . S
C501 C500 1.382 . S
C501 H512 0.952 . S
C502 C499 1.388 . S
C502 C503 1.382 . S
C502 H527 0.950 . S
C503 N498 1.332 1_565 S
C503 C502 1.382 . S
C503 H513 0.948 . S
N504 Co482 2.282 . S
N504 C508 1.332 1_545 S
N504 C509 1.332 . S
C505 C506 1.388 . S
C505 C509 1.382 1_455 S
C505 H528 0.950 . S
C506 C505 1.388 . S
C506 C507 1.384 1_445 S
C507 C506 1.384 1_665 S
C507 C508 1.385 . S
C507 H529 0.949 1_655 S
C508 N504 1.332 1_565 S
C508 C507 1.385 . S
C508 H510 0.952 . S
C509 N504 1.332 . S
C509 C505 1.382 1_655 S
C509 H511 0.948 . S
H510 C508 0.952 . S
H511 C509 0.948 . S
H512 C501 0.952 . S
H513 C503 0.948 . S
C514 C480 1.395 . S
C514 C484 1.391 . S
C515 C477 1.389 . S
C515 C497 1.392 . S
C516 C487 1.392 . S
C516 C489 1.389 1_565 S
C517 C492 1.395 . S
C517 C494 1.391 . S
H518 C478 0.946 1_545 S
H519 C479 0.950 . S
H520 C485 0.949 . S
H521 C486 0.950 . S
H522 C490 0.951 . S
H523 C491 0.950 . S
H524 C495 0.949 . S
H525 C496 0.950 . S
H526 C500 0.950 . S
H527 C502 0.950 . S
H528 C505 0.950 . S
H529 C507 0.949 1_455 S
C530 C531 1.443 . S
C530 N534 1.376 . S
C530 C568 1.389 . S
C531 C530 1.443 . S
C531 C532 1.340 . S
C531 H571 0.951 . S
C532 C531 1.340 . S
C532 C533 1.439 . S
C532 H572 0.950 . S
C533 C532 1.439 . S
C533 N534 1.374 . S
C533 C567 1.395 . S
N534 C530 1.376 . S
N534 C533 1.374 . S
N534 Co535 2.008 . S
Co535 N534 2.008 . S
Co535 N536 1.995 . S
Co535 N541 2.008 . S
Co535 N546 1.995 . S
Co535 N551 2.282 . S
Co535 N557 2.282 . S
N536 Co535 1.995 . S
N536 C537 1.376 . S
N536 C540 1.383 . S
C537 N536 1.376 . S
C537 C538 1.446 . S
C537 C567 1.391 . S
C538 C537 1.446 . S
C538 C539 1.339 . S
C538 H573 0.949 . S
C539 C538 1.339 . S
C539 C540 1.439 . S
C539 H574 0.950 . S
C540 N536 1.383 . S
C540 C539 1.439 . S
C540 C569 1.392 . S
N541 Co535 2.008 . S
N541 C542 1.376 . S
N541 C545 1.374 . S
C542 N541 1.376 . S
C542 C543 1.443 . S
C542 C569 1.389 . S
C543 C542 1.443 . S
C543 C544 1.340 . S
C543 H575 0.951 . S
C544 C543 1.340 . S
C544 C545 1.439 . S
C544 H576 0.950 . S
C545 N541 1.374 . S
C545 C544 1.439 . S
C545 C570 1.395 . S
N546 Co535 1.995 . S
N546 C547 1.376 . S
N546 C550 1.383 . S
C547 N546 1.376 . S
C547 C548 1.446 . S
C547 C570 1.391 . S
C548 C547 1.446 . S
C548 C549 1.339 . S
C548 H577 0.949 . S
C549 C548 1.339 . S
C549 C550 1.439 . S
C549 H578 0.950 . S
C550 N546 1.383 . S
C550 C549 1.439 . S
C550 C568 1.392 . S
N551 Co535 2.282 . S
N551 C554 1.332 . S
N551 C556 1.332 . S
C552 C553 1.386 . S
C552 C555 1.388 . S
C553 C552 1.386 . S
C553 C554 1.382 . S
C553 H579 0.950 . S
C554 N551 1.332 . S
C554 C553 1.382 . S
C554 H565 0.952 . S
C555 C552 1.388 . S
C555 C556 1.382 . S
C555 H580 0.950 . S
C556 N551 1.332 . S
C556 C555 1.382 . S
C556 H566 0.948 . S
N557 Co535 2.282 . S
N557 C561 1.332 . S
N557 C562 1.332 . S
C558 C559 1.388 . S
C558 C562 1.382 . S
C558 H581 0.950 . S
C559 C558 1.388 . S
C559 C560 1.386 . S
C560 C559 1.386 . S
C560 C561 1.382 . S
C560 H582 0.950 . S
C561 N557 1.332 . S
C561 C560 1.382 . S
C561 H563 0.952 . S
C562 N557 1.332 . S
C562 C558 1.382 . S
C562 H564 0.948 . S
H563 C561 0.952 . S
H564 C562 0.948 . S
H565 C554 0.952 . S
H566 C556 0.948 . S
C567 C533 1.395 . S
C567 C537 1.391 . S
C568 C530 1.389 . S
C568 C550 1.392 . S
C569 C540 1.392 . S
C569 C542 1.389 . S
C570 C545 1.395 . S
C570 C547 1.391 . S
H571 C531 0.951 . S
H572 C532 0.950 . S
H573 C538 0.949 . S
H574 C539 0.950 . S
H575 C543 0.951 . S
H576 C544 0.950 . S
H577 C548 0.949 . S
H578 C549 0.950 . S
H579 C553 0.950 . S
H580 C555 0.950 . S
H581 C558 0.950 . S
H582 C560 0.950 . S
C583 C584 1.436 1_565 S
C583 N587 1.376 1_565 S
C583 C621 1.389 . S
C584 C583 1.436 1_545 S
C584 C585 1.354 . S
C584 H624 0.946 1_545 S
C585 C584 1.354 . S
C585 C586 1.439 . S
C585 H625 0.950 . S
C586 C585 1.439 . S
C586 N587 1.374 . S
C586 C620 1.395 . S
N587 C583 1.376 1_545 S
N587 C586 1.374 . S
N587 Co588 2.008 1_545 S
Co588 N587 2.008 1_565 S
Co588 N589 1.995 1_565 S
Co588 N594 2.008 . S
Co588 N599 1.995 . S
Co588 N604 2.282 . S
Co588 N610 2.282 . S
N589 Co588 1.995 1_545 S
N589 C590 1.376 . S
N589 C593 1.383 . S
C590 N589 1.376 . S
C590 C591 1.446 . S
C590 C620 1.391 . S
C591 C590 1.446 . S
C591 C592 1.339 . S
C591 H626 0.949 . S
C592 C591 1.339 . S
C592 C593 1.439 . S
C592 H627 0.950 . S
C593 N589 1.383 . S
C593 C592 1.439 . S
C593 C622 1.392 . S
N594 Co588 2.008 . S
N594 C595 1.376 . S
N594 C598 1.374 . S
C595 N594 1.376 . S
C595 C596 1.443 . S
C595 C622 1.389 1_565 S
C596 C595 1.443 . S
C596 C597 1.340 . S
C596 H628 0.951 . S
C597 C596 1.340 . S
C597 C598 1.439 . S
C597 H629 0.950 . S
C598 N594 1.374 . S
C598 C597 1.439 . S
C598 C623 1.395 . S
N599 Co588 1.995 . S
N599 C600 1.376 . S
N599 C603 1.383 . S
C600 N599 1.376 . S
C600 C601 1.446 . S
C600 C623 1.391 . S
C601 C600 1.446 . S
C601 C602 1.339 . S
C601 H630 0.949 . S
C602 C601 1.339 . S
C602 C603 1.439 . S
C602 H631 0.950 . S
C603 N599 1.383 . S
C603 C602 1.439 . S
C603 C621 1.392 . S
N604 Co588 2.282 . S
N604 C607 1.332 . S
N604 C609 1.332 1_565 S
C605 C606 1.386 1_545 S
C605 C608 1.388 . S
C606 C605 1.386 1_565 S
C606 C607 1.382 . S
C606 H632 0.950 . S
C607 N604 1.332 . S
C607 C606 1.382 . S
C607 H618 0.952 . S
C608 C605 1.388 . S
C608 C609 1.382 . S
C608 H633 0.950 . S
C609 N604 1.332 1_545 S
C609 C608 1.382 . S
C609 H619 0.948 . S
N610 Co588 2.282 . S
N610 C614 1.332 1_565 S
N610 C615 1.332 . S
C611 C612 1.388 . S
C611 C615 1.382 . S
C611 H634 0.950 . S
C612 C611 1.388 . S
C612 C613 1.386 1_565 S
C613 C612 1.386 1_545 S
C613 C614 1.382 . S
C613 H635 0.950 . S
C614 N610 1.332 1_545 S
C614 C613 1.382 . S
C614 H616 0.952 . S
C615 N610 1.332 . S
C615 C611 1.382 . S
C615 H617 0.948 . S
H616 C614 0.952 . S
H617 C615 0.948 . S
H618 C607 0.952 . S
H619 C609 0.948 . S
C620 C586 1.395 . S
C620 C590 1.391 . S
C621 C583 1.389 . S
C621 C603 1.392 . S
C622 C593 1.392 . S
C622 C595 1.389 1_545 S
C623 C598 1.395 . S
C623 C600 1.391 . S
H624 C584 0.946 1_565 S
H625 C585 0.950 . S
H626 C591 0.949 . S
H627 C592 0.950 . S
H628 C596 0.951 . S
H629 C597 0.950 . S
H630 C601 0.949 . S
H631 C602 0.950 . S
H632 C606 0.950 . S
H633 C608 0.950 . S
H634 C611 0.950 . S
H635 C613 0.950 . S
C636 C637 1.443 . S
C636 N640 1.376 . S
C636 C674 1.389 . S
C637 C636 1.443 . S
C637 C638 1.340 . S
C637 H677 0.951 . S
C638 C637 1.340 . S
C638 C639 1.439 . S
C638 H678 0.950 . S
C639 C638 1.439 . S
C639 N640 1.374 . S
C639 C673 1.395 . S
N640 C636 1.376 . S
N640 C639 1.374 . S
N640 Co641 2.008 . S
Co641 N640 2.008 . S
Co641 N642 1.995 . S
Co641 N647 2.008 . S
Co641 N652 1.995 . S
Co641 N657 2.282 . S
Co641 N663 2.282 . S
N642 Co641 1.995 . S
N642 C643 1.376 . S
N642 C646 1.383 . S
C643 N642 1.376 . S
C643 C644 1.446 . S
C643 C673 1.391 . S
C644 C643 1.446 . S
C644 C645 1.339 . S
C644 H679 0.949 . S
C645 C644 1.339 . S
C645 C646 1.439 . S
C645 H680 0.950 . S
C646 N642 1.383 . S
C646 C645 1.439 . S
C646 C675 1.392 . S
N647 Co641 2.008 . S
N647 C648 1.376 . S
N647 C651 1.374 . S
C648 N647 1.376 . S
C648 C649 1.443 . S
C648 C675 1.389 . S
C649 C648 1.443 . S
C649 C650 1.340 . S
C649 H681 0.951 . S
C650 C649 1.340 . S
C650 C651 1.439 . S
C650 H682 0.950 . S
C651 N647 1.374 . S
C651 C650 1.439 . S
C651 C676 1.395 . S
N652 Co641 1.995 . S
N652 C653 1.376 . S
N652 C656 1.383 . S
C653 N652 1.376 . S
C653 C654 1.446 . S
C653 C676 1.391 . S
C654 C653 1.446 . S
C654 C655 1.339 . S
C654 H683 0.949 . S
C655 C654 1.339 . S
C655 C656 1.439 . S
C655 H684 0.950 . S
C656 N652 1.383 . S
C656 C655 1.439 . S
C656 C674 1.392 . S
N657 Co641 2.282 . S
N657 C660 1.332 . S
N657 C662 1.332 . S
C658 C659 1.386 . S
C658 C661 1.388 . S
C659 C658 1.386 . S
C659 C660 1.382 . S
C659 H685 0.950 . S
C660 N657 1.332 . S
C660 C659 1.382 . S
C660 H671 0.952 . S
C661 C658 1.388 . S
C661 C662 1.382 . S
C661 H686 0.950 . S
C662 N657 1.332 . S
C662 C661 1.382 . S
C662 H672 0.948 . S
N663 Co641 2.282 . S
N663 C667 1.332 . S
N663 C668 1.332 . S
C664 C665 1.388 . S
C664 C668 1.382 . S
C664 H687 0.950 . S
C665 C664 1.388 . S
C665 C666 1.386 . S
C666 C665 1.386 . S
C666 C667 1.382 . S
C666 H688 0.950 . S
C667 N663 1.332 . S
C667 C666 1.382 . S
C667 H669 0.952 . S
C668 N663 1.332 . S
C668 C664 1.382 . S
C668 H670 0.948 . S
H669 C667 0.952 . S
H670 C668 0.948 . S
H671 C660 0.952 . S
H672 C662 0.948 . S
C673 C639 1.395 . S
C673 C643 1.391 . S
C674 C636 1.389 . S
C674 C656 1.392 . S
C675 C646 1.392 . S
C675 C648 1.389 . S
C676 C651 1.395 . S
C676 C653 1.391 . S
H677 C637 0.951 . S
H678 C638 0.950 . S
H679 C644 0.949 . S
H680 C645 0.950 . S
H681 C649 0.951 . S
H682 C650 0.950 . S
H683 C654 0.949 . S
H684 C655 0.950 . S
H685 C659 0.950 . S
H686 C661 0.950 . S
H687 C664 0.950 . S
H688 C666 0.950 . S
C689 C690 1.436 1_545 S
C689 N693 1.376 1_545 S
C689 C727 1.389 . S
C690 C689 1.436 1_565 S
C690 C691 1.354 . S
C690 H730 0.946 1_565 S
C691 C690 1.354 . S
C691 C692 1.439 . S
C691 H731 0.950 . S
C692 C691 1.439 . S
C692 N693 1.374 . S
C692 C726 1.395 . S
N693 C689 1.376 1_565 S
N693 C692 1.374 . S
N693 Co694 2.008 1_565 S
Co694 N693 2.008 1_545 S
Co694 N695 1.995 1_545 S
Co694 N700 2.008 . S
Co694 N705 1.995 . S
Co694 N710 2.282 . S
Co694 N716 2.282 . S
N695 Co694 1.995 1_565 S
N695 C696 1.376 . S
N695 C699 1.383 . S
C696 N695 1.376 . S
C696 C697 1.446 . S
C696 C726 1.391 . S
C697 C696 1.446 . S
C697 C698 1.339 . S
C697 H732 0.949 . S
C698 C697 1.339 . S
C698 C699 1.439 . S
C698 H733 0.950 . S
C699 N695 1.383 . S
C699 C698 1.439 . S
C699 C728 1.392 . S
N700 Co694 2.008 . S
N700 C701 1.376 . S
N700 C704 1.374 . S
C701 N700 1.376 . S
C701 C702 1.443 . S
C701 C728 1.389 1_545 S
C702 C701 1.443 . S
C702 C703 1.340 . S
C702 H734 0.951 . S
C703 C702 1.340 . S
C703 C704 1.439 . S
C703 H735 0.950 . S
C704 N700 1.374 . S
C704 C703 1.439 . S
C704 C729 1.395 . S
N705 Co694 1.995 . S
N705 C706 1.376 . S
N705 C709 1.383 . S
C706 N705 1.376 . S
C706 C707 1.446 . S
C706 C729 1.391 . S
C707 C706 1.446 . S
C707 C708 1.339 . S
C707 H736 0.949 . S
C708 C707 1.339 . S
C708 C709 1.439 . S
C708 H737 0.950 . S
C709 N705 1.383 . S
C709 C708 1.439 . S
C709 C727 1.392 . S
N710 Co694 2.282 . S
N710 C713 1.332 . S
N710 C715 1.332 1_545 S
C711 C712 1.386 1_565 S
C711 C714 1.388 . S
C712 C711 1.386 1_545 S
C712 C713 1.382 . S
C712 H738 0.950 . S
C713 N710 1.332 . S
C713 C712 1.382 . S
C713 H724 0.952 . S
C714 C711 1.388 . S
C714 C715 1.382 . S
C714 H739 0.950 . S
C715 N710 1.332 1_565 S
C715 C714 1.382 . S
C715 H725 0.948 . S
N716 Co694 2.282 . S
N716 C720 1.332 1_545 S
N716 C721 1.332 . S
C717 C718 1.388 . S
C717 C721 1.382 . S
C717 H740 0.950 . S
C718 C717 1.388 . S
C718 C719 1.386 1_545 S
C719 C718 1.386 1_565 S
C719 C720 1.382 . S
C719 H741 0.950 . S
C720 N716 1.332 1_565 S
C720 C719 1.382 . S
C720 H722 0.952 . S
C721 N716 1.332 . S
C721 C717 1.382 . S
C721 H723 0.948 . S
H722 C720 0.952 . S
H723 C721 0.948 . S
H724 C713 0.952 . S
H725 C715 0.948 . S
C726 C692 1.395 . S
C726 C696 1.391 . S
C727 C689 1.389 . S
C727 C709 1.392 . S
C728 C699 1.392 . S
C728 C701 1.389 1_565 S
C729 C704 1.395 . S
C729 C706 1.391 . S
H730 C690 0.946 1_545 S
H731 C691 0.950 . S
H732 C697 0.949 . S
H733 C698 0.950 . S
H734 C702 0.951 . S
H735 C703 0.950 . S
H736 C707 0.949 . S
H737 C708 0.950 . S
H738 C712 0.950 . S
H739 C714 0.950 . S
H740 C717 0.950 . S
H741 C719 0.950 . S
C742 C743 1.443 . S
C742 N746 1.376 . S
C742 C780 1.389 . S
C743 C742 1.443 . S
C743 C744 1.340 . S
C743 H783 0.951 . S
C744 C743 1.340 . S
C744 C745 1.439 . S
C744 H784 0.950 . S
C745 C744 1.439 . S
C745 N746 1.374 . S
C745 C779 1.395 . S
N746 C742 1.376 . S
N746 C745 1.374 . S
N746 Co747 2.008 . S
Co747 N746 2.008 . S
Co747 N748 1.995 . S
Co747 N753 2.008 . S
Co747 N758 1.995 . S
Co747 N763 2.282 . S
Co747 N769 2.282 . S
N748 Co747 1.995 . S
N748 C749 1.376 . S
N748 C752 1.383 . S
C749 N748 1.376 . S
C749 C750 1.446 . S
C749 C779 1.391 . S
C750 C749 1.446 . S
C750 C751 1.339 . S
C750 H785 0.949 . S
C751 C750 1.339 . S
C751 C752 1.439 . S
C751 H786 0.950 . S
C752 N748 1.383 . S
C752 C751 1.439 . S
C752 C781 1.392 . S
N753 Co747 2.008 . S
N753 C754 1.376 . S
N753 C757 1.374 . S
C754 N753 1.376 . S
C754 C755 1.443 . S
C754 C781 1.389 . S
C755 C754 1.443 . S
C755 C756 1.340 . S
C755 H787 0.951 . S
C756 C755 1.340 . S
C756 C757 1.439 . S
C756 H788 0.950 . S
C757 N753 1.374 . S
C757 C756 1.439 . S
C757 C782 1.395 . S
N758 Co747 1.995 . S
N758 C759 1.376 . S
N758 C762 1.383 . S
C759 N758 1.376 . S
C759 C760 1.446 . S
C759 C782 1.391 . S
C760 C759 1.446 . S
C760 C761 1.339 . S
C760 H789 0.949 . S
C761 C760 1.339 . S
C761 C762 1.439 . S
C761 H790 0.950 . S
C762 N758 1.383 . S
C762 C761 1.439 . S
C762 C780 1.392 . S
N763 Co747 2.282 . S
N763 C766 1.332 . S
N763 C768 1.332 . S
C764 C765 1.386 . S
C764 C767 1.388 . S
C765 C764 1.386 . S
C765 C766 1.382 . S
C765 H791 0.950 . S
C766 N763 1.332 . S
C766 C765 1.382 . S
C766 H777 0.952 . S
C767 C764 1.388 . S
C767 C768 1.382 . S
C767 H792 0.950 . S
C768 N763 1.332 . S
C768 C767 1.382 . S
C768 H778 0.948 . S
N769 Co747 2.282 . S
N769 C773 1.332 . S
N769 C774 1.332 . S
C770 C771 1.388 . S
C770 C774 1.382 . S
C770 H793 0.950 . S
C771 C770 1.388 . S
C771 C772 1.386 . S
C772 C771 1.386 . S
C772 C773 1.382 . S
C772 H794 0.950 . S
C773 N769 1.332 . S
C773 C772 1.382 . S
C773 H775 0.952 . S
C774 N769 1.332 . S
C774 C770 1.382 . S
C774 H776 0.948 . S
H775 C773 0.952 . S
H776 C774 0.948 . S
H777 C766 0.952 . S
H778 C768 0.948 . S
C779 C745 1.395 . S
C779 C749 1.391 . S
C780 C742 1.389 . S
C780 C762 1.392 . S
C781 C752 1.392 . S
C781 C754 1.389 . S
C782 C757 1.395 . S
C782 C759 1.391 . S
H783 C743 0.951 . S
H784 C744 0.950 . S
H785 C750 0.949 . S
H786 C751 0.950 . S
H787 C755 0.951 . S
H788 C756 0.950 . S
H789 C760 0.949 . S
H790 C761 0.950 . S
H791 C765 0.950 . S
H792 C767 0.950 . S
H793 C770 0.950 . S
H794 C772 0.950 . S
C795 C796 1.436 1_565 S
C795 N799 1.376 1_565 S
C795 C833 1.389 . S
C796 C795 1.436 1_545 S
C796 C797 1.354 . S
C796 H836 0.946 1_545 S
C797 C796 1.354 . S
C797 C798 1.439 . S
C797 H837 0.950 . S
C798 C797 1.439 . S
C798 N799 1.374 . S
C798 C832 1.395 . S
N799 C795 1.376 1_545 S
N799 C798 1.374 . S
N799 Co800 2.008 1_545 S
Co800 N799 2.008 1_565 S
Co800 N801 1.995 1_565 S
Co800 N806 2.008 . S
Co800 N811 1.995 . S
Co800 N816 2.282 . S
Co800 N822 2.282 . S
N801 Co800 1.995 1_545 S
N801 C802 1.376 . S
N801 C805 1.383 . S
C802 N801 1.376 . S
C802 C803 1.446 . S
C802 C832 1.391 . S
C803 C802 1.446 . S
C803 C804 1.339 . S
C803 H838 0.949 . S
C804 C803 1.339 . S
C804 C805 1.439 . S
C804 H839 0.950 . S
C805 N801 1.383 . S
C805 C804 1.439 . S
C805 C834 1.392 . S
N806 Co800 2.008 . S
N806 C807 1.376 . S
N806 C810 1.374 . S
C807 N806 1.376 . S
C807 C808 1.443 . S
C807 C834 1.389 1_565 S
C808 C807 1.443 . S
C808 C809 1.340 . S
C808 H840 0.951 . S
C809 C808 1.340 . S
C809 C810 1.439 . S
C809 H841 0.950 . S
C810 N806 1.374 . S
C810 C809 1.439 . S
C810 C835 1.395 . S
N811 Co800 1.995 . S
N811 C812 1.376 . S
N811 C815 1.383 . S
C812 N811 1.376 . S
C812 C813 1.446 . S
C812 C835 1.391 . S
C813 C812 1.446 . S
C813 C814 1.339 . S
C813 H842 0.949 . S
C814 C813 1.339 . S
C814 C815 1.439 . S
C814 H843 0.950 . S
C815 N811 1.383 . S
C815 C814 1.439 . S
C815 C833 1.392 . S
N816 Co800 2.282 . S
N816 C819 1.332 . S
N816 C821 1.332 1_565 S
C817 C818 1.386 1_545 S
C817 C820 1.388 . S
C818 C817 1.386 1_565 S
C818 C819 1.382 . S
C818 H844 0.950 . S
C819 N816 1.332 . S
C819 C818 1.382 . S
C819 H830 0.952 . S
C820 C817 1.388 . S
C820 C821 1.382 . S
C820 H845 0.950 . S
C821 N816 1.332 1_545 S
C821 C820 1.382 . S
C821 H831 0.948 . S
N822 Co800 2.282 . S
N822 C826 1.332 1_565 S
N822 C827 1.332 . S
C823 C824 1.388 . S
C823 C827 1.382 1_455 S
C823 H846 0.950 . S
C824 C823 1.388 . S
C824 C825 1.384 1_465 S
C825 C824 1.384 1_645 S
C825 C826 1.385 . S
C825 H847 0.949 1_655 S
C826 N822 1.332 1_545 S
C826 C825 1.385 . S
C826 H828 0.952 . S
C827 N822 1.332 . S
C827 C823 1.382 1_655 S
C827 H829 0.948 . S
H828 C826 0.952 . S
H829 C827 0.948 . S
H830 C819 0.952 . S
H831 C821 0.948 . S
C832 C798 1.395 . S
C832 C802 1.391 . S
C833 C795 1.389 . S
C833 C815 1.392 . S
C834 C805 1.392 . S
C834 C807 1.389 1_545 S
C835 C810 1.395 . S
C835 C812 1.391 . S
H836 C796 0.946 1_565 S
H837 C797 0.950 . S
H838 C803 0.949 . S
H839 C804 0.950 . S
H840 C808 0.951 . S
H841 C809 0.950 . S
H842 C813 0.949 . S
H843 C814 0.950 . S
H844 C818 0.950 . S
H845 C820 0.950 . S
H846 C823 0.950 . S
H847 C825 0.949 1_455 S
C848 C849 1.443 . S
C848 N852 1.376 . S
C848 C886 1.389 . S
C849 C848 1.443 . S
C849 C850 1.340 . S
C849 H889 0.951 . S
C850 C849 1.340 . S
C850 C851 1.439 . S
C850 H890 0.950 . S
C851 C850 1.439 . S
C851 N852 1.374 . S
C851 C885 1.395 . S
N852 C848 1.376 . S
N852 C851 1.374 . S
N852 Co853 2.008 . S
Co853 N852 2.008 . S
Co853 N854 1.995 . S
Co853 N859 2.008 . S
Co853 N864 1.995 . S
Co853 N869 2.282 . S
Co853 N875 2.282 . S
N854 Co853 1.995 . S
N854 C855 1.376 . S
N854 C858 1.383 . S
C855 N854 1.376 . S
C855 C856 1.446 . S
C855 C885 1.391 . S
C856 C855 1.446 . S
C856 C857 1.339 . S
C856 H891 0.949 . S
C857 C856 1.339 . S
C857 C858 1.439 . S
C857 H892 0.950 . S
C858 N854 1.383 . S
C858 C857 1.439 . S
C858 C887 1.392 . S
N859 Co853 2.008 . S
N859 C860 1.376 . S
N859 C863 1.374 . S
C860 N859 1.376 . S
C860 C861 1.443 . S
C860 C887 1.389 . S
C861 C860 1.443 . S
C861 C862 1.340 . S
C861 H893 0.951 . S
C862 C861 1.340 . S
C862 C863 1.439 . S
C862 H894 0.950 . S
C863 N859 1.374 . S
C863 C862 1.439 . S
C863 C888 1.395 . S
N864 Co853 1.995 . S
N864 C865 1.376 . S
N864 C868 1.383 . S
C865 N864 1.376 . S
C865 C866 1.446 . S
C865 C888 1.391 . S
C866 C865 1.446 . S
C866 C867 1.339 . S
C866 H895 0.949 . S
C867 C866 1.339 . S
C867 C868 1.439 . S
C867 H896 0.950 . S
C868 N864 1.383 . S
C868 C867 1.439 . S
C868 C886 1.392 . S
N869 Co853 2.282 . S
N869 C872 1.332 . S
N869 C874 1.332 . S
C870 C871 1.386 . S
C870 C873 1.388 . S
C871 C870 1.386 . S
C871 C872 1.382 . S
C871 H897 0.950 . S
C872 N869 1.332 . S
C872 C871 1.382 . S
C872 H883 0.952 . S
C873 C870 1.388 . S
C873 C874 1.382 . S
C873 H898 0.950 . S
C874 N869 1.332 . S
C874 C873 1.382 . S
C874 H884 0.948 . S
N875 Co853 2.282 . S
N875 C879 1.332 . S
N875 C880 1.332 . S
C876 C877 1.388 . S
C876 C880 1.382 . S
C876 H899 0.950 . S
C877 C876 1.388 . S
C877 C878 1.386 . S
C878 C877 1.386 . S
C878 C879 1.382 . S
C878 H900 0.950 . S
C879 N875 1.332 . S
C879 C878 1.382 . S
C879 H881 0.952 . S
C880 N875 1.332 . S
C880 C876 1.382 . S
C880 H882 0.948 . S
H881 C879 0.952 . S
H882 C880 0.948 . S
H883 C872 0.952 . S
H884 C874 0.948 . S
C885 C851 1.395 . S
C885 C855 1.391 . S
C886 C848 1.389 . S
C886 C868 1.392 . S
C887 C858 1.392 . S
C887 C860 1.389 . S
C888 C863 1.395 . S
C888 C865 1.391 . S
H889 C849 0.951 . S
H890 C850 0.950 . S
H891 C856 0.949 . S
H892 C857 0.950 . S
H893 C861 0.951 . S
H894 C862 0.950 . S
H895 C866 0.949 . S
H896 C867 0.950 . S
H897 C871 0.950 . S
H898 C873 0.950 . S
H899 C876 0.950 . S
H900 C878 0.950 . S
C901 C902 1.443 . S
C901 N905 1.376 . S
C901 C939 1.389 . S
C902 C901 1.443 . S
C902 C903 1.340 . S
C902 H942 0.951 . S
C903 C902 1.340 . S
C903 C904 1.439 . S
C903 H943 0.950 . S
C904 C903 1.439 . S
C904 N905 1.374 . S
C904 C938 1.395 . S
N905 C901 1.376 . S
N905 C904 1.374 . S
N905 Co906 2.008 . S
Co906 N905 2.008 . S
Co906 N907 1.995 . S
Co906 N912 2.008 . S
Co906 N917 1.995 . S
Co906 N922 2.282 . S
Co906 N928 2.282 . S
N907 Co906 1.995 . S
N907 C908 1.376 . S
N907 C911 1.383 . S
C908 N907 1.376 . S
C908 C909 1.446 . S
C908 C938 1.391 . S
C909 C908 1.446 . S
C909 C910 1.339 . S
C909 H944 0.949 . S
C910 C909 1.339 . S
C910 C911 1.439 . S
C910 H945 0.950 . S
C911 N907 1.383 . S
C911 C910 1.439 . S
C911 C940 1.392 . S
N912 Co906 2.008 . S
N912 C913 1.376 . S
N912 C916 1.374 . S
C913 N912 1.376 . S
C913 C914 1.443 . S
C913 C940 1.389 . S
C914 C913 1.443 . S
C914 C915 1.340 . S
C914 H946 0.951 . S
C915 C914 1.340 . S
C915 C916 1.439 . S
C915 H947 0.950 . S
C916 N912 1.374 . S
C916 C915 1.439 . S
C916 C941 1.395 . S
N917 Co906 1.995 . S
N917 C918 1.376 . S
N917 C921 1.383 . S
C918 N917 1.376 . S
C918 C919 1.446 . S
C918 C941 1.391 . S
C919 C918 1.446 . S
C919 C920 1.339 . S
C919 H948 0.949 . S
C920 C919 1.339 . S
C920 C921 1.439 . S
C920 H949 0.950 . S
C921 N917 1.383 . S
C921 C920 1.439 . S
C921 C939 1.392 . S
N922 Co906 2.282 . S
N922 C925 1.332 . S
N922 C927 1.332 . S
C923 C924 1.386 . S
C923 C926 1.388 . S
C924 C923 1.386 . S
C924 C925 1.382 . S
C924 H950 0.950 . S
C925 N922 1.332 . S
C925 C924 1.382 . S
C925 H936 0.952 . S
C926 C923 1.388 . S
C926 C927 1.382 . S
C926 H951 0.950 . S
C927 N922 1.332 . S
C927 C926 1.382 . S
C927 H937 0.948 . S
N928 Co906 2.282 . S
N928 C932 1.332 . S
N928 C933 1.332 . S
C929 C930 1.388 . S
C929 C933 1.382 . S
C929 H952 0.950 . S
C930 C929 1.388 . S
C930 C931 1.386 . S
C931 C930 1.386 . S
C931 C932 1.382 . S
C931 H953 0.950 . S
C932 N928 1.332 . S
C932 C931 1.382 . S
C932 H934 0.952 . S
C933 N928 1.332 . S
C933 C929 1.382 . S
C933 H935 0.948 . S
H934 C932 0.952 . S
H935 C933 0.948 . S
H936 C925 0.952 . S
H937 C927 0.948 . S
C938 C904 1.395 . S
C938 C908 1.391 . S
C939 C901 1.389 . S
C939 C921 1.392 . S
C940 C911 1.392 . S
C940 C913 1.389 . S
C941 C916 1.395 . S
C941 C918 1.391 . S
H942 C902 0.951 . S
H943 C903 0.950 . S
H944 C909 0.949 . S
H945 C910 0.950 . S
H946 C914 0.951 . S
H947 C915 0.950 . S
H948 C919 0.949 . S
H949 C920 0.950 . S
H950 C924 0.950 . S
H951 C926 0.950 . S
H952 C929 0.950 . S
H953 C931 0.950 . S
C954 C955 1.443 . S
C954 N958 1.376 . S
C954 C992 1.389 . S
C955 C954 1.443 . S
C955 C956 1.340 . S
C955 H995 0.951 . S
C956 C955 1.340 . S
C956 C957 1.439 . S
C956 H996 0.950 . S
C957 C956 1.439 . S
C957 N958 1.374 . S
C957 C991 1.395 . S
N958 C954 1.376 . S
N958 C957 1.374 . S
N958 Co959 2.008 . S
Co959 N958 2.008 . S
Co959 N960 1.995 . S
Co959 N965 2.008 . S
Co959 N970 1.995 . S
Co959 N975 2.282 . S
Co959 N981 2.282 . S
N960 Co959 1.995 . S
N960 C961 1.376 . S
N960 C964 1.383 . S
C961 N960 1.376 . S
C961 C962 1.446 . S
C961 C991 1.391 . S
C962 C961 1.446 . S
C962 C963 1.339 . S
C962 H997 0.949 . S
C963 C962 1.339 . S
C963 C964 1.439 . S
C963 H998 0.950 . S
C964 N960 1.383 . S
C964 C963 1.439 . S
C964 C993 1.392 . S
N965 Co959 2.008 . S
N965 C966 1.376 . S
N965 C969 1.374 . S
C966 N965 1.376 . S
C966 C967 1.443 . S
C966 C993 1.389 . S
C967 C966 1.443 . S
C967 C968 1.340 . S
C967 H999 0.951 . S
C968 C967 1.340 . S
C968 C969 1.439 . S
C968 H1000 0.950 . S
C969 N965 1.374 . S
C969 C968 1.439 . S
C969 C994 1.395 . S
N970 Co959 1.995 . S
N970 C971 1.376 . S
N970 C974 1.383 . S
C971 N970 1.376 . S
C971 C972 1.446 . S
C971 C994 1.391 . S
C972 C971 1.446 . S
C972 C973 1.339 . S
C972 H1001 0.949 . S
C973 C972 1.339 . S
C973 C974 1.439 . S
C973 H1002 0.950 . S
C974 N970 1.383 . S
C974 C973 1.439 . S
C974 C992 1.392 . S
N975 Co959 2.282 . S
N975 C978 1.332 . S
N975 C980 1.332 . S
C976 C977 1.386 . S
C976 C979 1.388 . S
C977 C976 1.386 . S
C977 C978 1.382 . S
C977 H1003 0.950 . S
C978 N975 1.332 . S
C978 C977 1.382 . S
C978 H989 0.952 . S
C979 C976 1.388 . S
C979 C980 1.382 . S
C979 H1004 0.950 . S
C980 N975 1.332 . S
C980 C979 1.382 . S
C980 H990 0.948 . S
N981 Co959 2.282 . S
N981 C985 1.332 . S
N981 C986 1.332 . S
C982 C983 1.388 . S
C982 C986 1.382 . S
C982 H1005 0.950 . S
C983 C982 1.388 . S
C983 C984 1.386 . S
C984 C983 1.386 . S
C984 C985 1.382 . S
C984 H1006 0.950 . S
C985 N981 1.332 . S
C985 C984 1.382 . S
C985 H987 0.952 . S
C986 N981 1.332 . S
C986 C982 1.382 . S
C986 H988 0.948 . S
H987 C985 0.952 . S
H988 C986 0.948 . S
H989 C978 0.952 . S
H990 C980 0.948 . S
C991 C957 1.395 . S
C991 C961 1.391 . S
C992 C954 1.389 . S
C992 C974 1.392 . S
C993 C964 1.392 . S
C993 C966 1.389 . S
C994 C969 1.395 . S
C994 C971 1.391 . S
H995 C955 0.951 . S
H996 C956 0.950 . S
H997 C962 0.949 . S
H998 C963 0.950 . S
H999 C967 0.951 . S
H1000 C968 0.950 . S
H1001 C972 0.949 . S
H1002 C973 0.950 . S
H1003 C977 0.950 . S
H1004 C979 0.950 . S
H1005 C982 0.950 . S
H1006 C984 0.950 . S
C1007 C1008 1.443 . S
C1007 N1011 1.376 . S
C1007 C1045 1.389 . S
C1008 C1007 1.443 . S
C1008 C1009 1.340 . S
C1008 H1048 0.951 . S
C1009 C1008 1.340 . S
C1009 C1010 1.439 . S
C1009 H1049 0.950 . S
C1010 C1009 1.439 . S
C1010 N1011 1.374 . S
C1010 C1044 1.395 . S
N1011 C1007 1.376 . S
N1011 C1010 1.374 . S
N1011 Co1012 2.008 . S
Co1012 N1011 2.008 . S
Co1012 N1013 1.995 . S
Co1012 N1018 2.008 . S
Co1012 N1023 1.995 . S
Co1012 N1028 2.282 . S
Co1012 N1034 2.282 . S
N1013 Co1012 1.995 . S
N1013 C1014 1.376 . S
N1013 C1017 1.383 . S
C1014 N1013 1.376 . S
C1014 C1015 1.446 . S
C1014 C1044 1.391 . S
C1015 C1014 1.446 . S
C1015 C1016 1.339 . S
C1015 H1050 0.949 . S
C1016 C1015 1.339 . S
C1016 C1017 1.439 . S
C1016 H1051 0.950 . S
C1017 N1013 1.383 . S
C1017 C1016 1.439 . S
C1017 C1046 1.392 . S
N1018 Co1012 2.008 . S
N1018 C1019 1.376 . S
N1018 C1022 1.374 . S
C1019 N1018 1.376 . S
C1019 C1020 1.443 . S
C1019 C1046 1.389 . S
C1020 C1019 1.443 . S
C1020 C1021 1.340 . S
C1020 H1052 0.951 . S
C1021 C1020 1.340 . S
C1021 C1022 1.439 . S
C1021 H1053 0.950 . S
C1022 N1018 1.374 . S
C1022 C1021 1.439 . S
C1022 C1047 1.395 . S
N1023 Co1012 1.995 . S
N1023 C1024 1.376 . S
N1023 C1027 1.383 . S
C1024 N1023 1.376 . S
C1024 C1025 1.446 . S
C1024 C1047 1.391 . S
C1025 C1024 1.446 . S
C1025 C1026 1.339 . S
C1025 H1054 0.949 . S
C1026 C1025 1.339 . S
C1026 C1027 1.439 . S
C1026 H1055 0.950 . S
C1027 N1023 1.383 . S
C1027 C1026 1.439 . S
C1027 C1045 1.392 . S
N1028 Co1012 2.282 . S
N1028 C1031 1.332 . S
N1028 C1033 1.332 . S
C1029 C1030 1.386 . S
C1029 C1032 1.388 . S
C1030 C1029 1.386 . S
C1030 C1031 1.382 . S
C1030 H1056 0.950 . S
C1031 N1028 1.332 . S
C1031 C1030 1.382 . S
C1031 H1042 0.952 . S
C1032 C1029 1.388 . S
C1032 C1033 1.382 . S
C1032 H1057 0.950 . S
C1033 N1028 1.332 . S
C1033 C1032 1.382 . S
C1033 H1043 0.948 . S
N1034 Co1012 2.282 . S
N1034 C1038 1.332 . S
N1034 C1039 1.332 . S
C1035 C1036 1.388 . S
C1035 C1039 1.382 . S
C1035 H1058 0.950 . S
C1036 C1035 1.388 . S
C1036 C1037 1.386 . S
C1037 C1036 1.386 . S
C1037 C1038 1.382 . S
C1037 H1059 0.950 1_655 S
C1038 N1034 1.332 . S
C1038 C1037 1.382 . S
C1038 H1040 0.952 . S
C1039 N1034 1.332 . S
C1039 C1035 1.382 . S
C1039 H1041 0.948 . S
H1040 C1038 0.952 . S
H1041 C1039 0.948 . S
H1042 C1031 0.952 . S
H1043 C1033 0.948 . S
C1044 C1010 1.395 . S
C1044 C1014 1.391 . S
C1045 C1007 1.389 . S
C1045 C1027 1.392 . S
C1046 C1017 1.392 . S
C1046 C1019 1.389 . S
C1047 C1022 1.395 . S
C1047 C1024 1.391 . S
H1048 C1008 0.951 . S
H1049 C1009 0.950 . S
H1050 C1015 0.949 . S
H1051 C1016 0.950 . S
H1052 C1020 0.951 . S
H1053 C1021 0.950 . S
H1054 C1025 0.949 . S
H1055 C1026 0.950 . S
H1056 C1030 0.950 . S
H1057 C1032 0.950 . S
H1058 C1035 0.950 . S
H1059 C1037 0.950 1_455 S
C1060 C1061 1.443 . S
C1060 N1064 1.376 . S
C1060 C1098 1.389 . S
C1061 C1060 1.443 . S
C1061 C1062 1.340 . S
C1061 H1101 0.951 . S
C1062 C1061 1.340 . S
C1062 C1063 1.439 . S
C1062 H1102 0.950 . S
C1063 C1062 1.439 . S
C1063 N1064 1.374 . S
C1063 C1097 1.395 . S
N1064 C1060 1.376 . S
N1064 C1063 1.374 . S
N1064 Co1065 2.008 . S
Co1065 N1064 2.008 . S
Co1065 N1066 1.995 . S
Co1065 N1071 2.008 . S
Co1065 N1076 1.995 . S
Co1065 N1081 2.282 . S
Co1065 N1087 2.282 . S
N1066 Co1065 1.995 . S
N1066 C1067 1.376 . S
N1066 C1070 1.383 . S
C1067 N1066 1.376 . S
C1067 C1068 1.446 . S
C1067 C1097 1.391 . S
C1068 C1067 1.446 . S
C1068 C1069 1.339 . S
C1068 H1103 0.949 . S
C1069 C1068 1.339 . S
C1069 C1070 1.439 . S
C1069 H1104 0.950 . S
C1070 N1066 1.383 . S
C1070 C1069 1.439 . S
C1070 C1099 1.392 . S
N1071 Co1065 2.008 . S
N1071 C1072 1.376 . S
N1071 C1075 1.374 . S
C1072 N1071 1.376 . S
C1072 C1073 1.443 . S
C1072 C1099 1.389 . S
C1073 C1072 1.443 . S
C1073 C1074 1.340 . S
C1073 H1105 0.951 . S
C1074 C1073 1.340 . S
C1074 C1075 1.439 . S
C1074 H1106 0.950 . S
C1075 N1071 1.374 . S
C1075 C1074 1.439 . S
C1075 C1100 1.395 . S
N1076 Co1065 1.995 . S
N1076 C1077 1.376 . S
N1076 C1080 1.383 . S
C1077 N1076 1.376 . S
C1077 C1078 1.446 . S
C1077 C1100 1.391 . S
C1078 C1077 1.446 . S
C1078 C1079 1.339 . S
C1078 H1107 0.949 . S
C1079 C1078 1.339 . S
C1079 C1080 1.439 . S
C1079 H1108 0.950 . S
C1080 N1076 1.383 . S
C1080 C1079 1.439 . S
C1080 C1098 1.392 . S
N1081 Co1065 2.282 . S
N1081 C1084 1.332 . S
N1081 C1086 1.332 . S
C1082 C1083 1.386 . S
C1082 C1085 1.388 . S
C1083 C1082 1.386 . S
C1083 C1084 1.382 . S
C1083 H1109 0.950 . S
C1084 N1081 1.332 . S
C1084 C1083 1.382 . S
C1084 H1095 0.952 . S
C1085 C1082 1.388 . S
C1085 C1086 1.382 . S
C1085 H1110 0.950 . S
C1086 N1081 1.332 . S
C1086 C1085 1.382 . S
C1086 H1096 0.948 . S
N1087 Co1065 2.282 . S
N1087 C1091 1.332 . S
N1087 C1092 1.332 . S
C1088 C1089 1.388 . S
C1088 C1092 1.382 . S
C1088 H1111 0.950 . S
C1089 C1088 1.388 . S
C1089 C1090 1.386 . S
C1090 C1089 1.386 . S
C1090 C1091 1.382 . S
C1090 H1112 0.950 . S
C1091 N1087 1.332 . S
C1091 C1090 1.382 . S
C1091 H1093 0.952 . S
C1092 N1087 1.332 . S
C1092 C1088 1.382 . S
C1092 H1094 0.948 . S
H1093 C1091 0.952 . S
H1094 C1092 0.948 . S
H1095 C1084 0.952 . S
H1096 C1086 0.948 . S
C1097 C1063 1.395 . S
C1097 C1067 1.391 . S
C1098 C1060 1.389 . S
C1098 C1080 1.392 . S
C1099 C1070 1.392 . S
C1099 C1072 1.389 . S
C1100 C1075 1.395 . S
C1100 C1077 1.391 . S
H1101 C1061 0.951 . S
H1102 C1062 0.950 . S
H1103 C1068 0.949 . S
H1104 C1069 0.950 . S
H1105 C1073 0.951 . S
H1106 C1074 0.950 . S
H1107 C1078 0.949 . S
H1108 C1079 0.950 . S
H1109 C1083 0.950 . S
H1110 C1085 0.950 . S
H1111 C1088 0.950 . S
H1112 C1090 0.950 . S
C1113 C1114 1.443 . S
C1113 N1117 1.376 . S
C1113 C1151 1.389 . S
C1114 C1113 1.443 . S
C1114 C1115 1.340 . S
C1114 H1154 0.951 . S
C1115 C1114 1.340 . S
C1115 C1116 1.439 . S
C1115 H1155 0.950 . S
C1116 C1115 1.439 . S
C1116 N1117 1.374 . S
C1116 C1150 1.395 . S
N1117 C1113 1.376 . S
N1117 C1116 1.374 . S
N1117 Co1118 2.008 . S
Co1118 N1117 2.008 . S
Co1118 N1119 1.995 . S
Co1118 N1124 2.008 . S
Co1118 N1129 1.995 . S
Co1118 N1134 2.282 . S
Co1118 N1140 2.282 . S
N1119 Co1118 1.995 . S
N1119 C1120 1.376 . S
N1119 C1123 1.383 . S
C1120 N1119 1.376 . S
C1120 C1121 1.446 . S
C1120 C1150 1.391 . S
C1121 C1120 1.446 . S
C1121 C1122 1.339 . S
C1121 H1156 0.949 . S
C1122 C1121 1.339 . S
C1122 C1123 1.439 . S
C1122 H1157 0.950 . S
C1123 N1119 1.383 . S
C1123 C1122 1.439 . S
C1123 C1152 1.392 . S
N1124 Co1118 2.008 . S
N1124 C1125 1.376 . S
N1124 C1128 1.374 . S
C1125 N1124 1.376 . S
C1125 C1126 1.443 . S
C1125 C1152 1.389 . S
C1126 C1125 1.443 . S
C1126 C1127 1.340 . S
C1126 H1158 0.951 . S
C1127 C1126 1.340 . S
C1127 C1128 1.439 . S
C1127 H1159 0.950 . S
C1128 N1124 1.374 . S
C1128 C1127 1.439 . S
C1128 C1153 1.395 . S
N1129 Co1118 1.995 . S
N1129 C1130 1.376 . S
N1129 C1133 1.383 . S
C1130 N1129 1.376 . S
C1130 C1131 1.446 . S
C1130 C1153 1.391 . S
C1131 C1130 1.446 . S
C1131 C1132 1.339 . S
C1131 H1160 0.949 . S
C1132 C1131 1.339 . S
C1132 C1133 1.439 . S
C1132 H1161 0.950 . S
C1133 N1129 1.383 . S
C1133 C1132 1.439 . S
C1133 C1151 1.392 . S
N1134 Co1118 2.282 . S
N1134 C1137 1.332 . S
N1134 C1139 1.332 . S
C1135 C1136 1.386 . S
C1135 C1138 1.388 . S
C1136 C1135 1.386 . S
C1136 C1137 1.382 . S
C1136 H1162 0.950 . S
C1137 N1134 1.332 . S
C1137 C1136 1.382 . S
C1137 H1148 0.952 . S
C1138 C1135 1.388 . S
C1138 C1139 1.382 . S
C1138 H1163 0.950 . S
C1139 N1134 1.332 . S
C1139 C1138 1.382 . S
C1139 H1149 0.948 . S
N1140 Co1118 2.282 . S
N1140 C1144 1.332 . S
N1140 C1145 1.332 . S
C1141 C1142 1.388 . S
C1141 C1145 1.382 . S
C1141 H1164 0.950 . S
C1142 C1141 1.388 . S
C1142 C1143 1.386 . S
C1143 C1142 1.386 . S
C1143 C1144 1.382 . S
C1143 H1165 0.950 1_655 S
C1144 N1140 1.332 . S
C1144 C1143 1.382 . S
C1144 H1146 0.952 . S
C1145 N1140 1.332 . S
C1145 C1141 1.382 . S
C1145 H1147 0.948 . S
H1146 C1144 0.952 . S
H1147 C1145 0.948 . S
H1148 C1137 0.952 . S
H1149 C1139 0.948 . S
C1150 C1116 1.395 . S
C1150 C1120 1.391 . S
C1151 C1113 1.389 . S
C1151 C1133 1.392 . S
C1152 C1123 1.392 . S
C1152 C1125 1.389 . S
C1153 C1128 1.395 . S
C1153 C1130 1.391 . S
H1154 C1114 0.951 . S
H1155 C1115 0.950 . S
H1156 C1121 0.949 . S
H1157 C1122 0.950 . S
H1158 C1126 0.951 . S
H1159 C1127 0.950 . S
H1160 C1131 0.949 . S
H1161 C1132 0.950 . S
H1162 C1136 0.950 . S
H1163 C1138 0.950 . S
H1164 C1141 0.950 . S
H1165 C1143 0.950 1_455 S
C1166 C1167 1.443 . S
C1166 N1170 1.376 . S
C1166 C1204 1.389 . S
C1167 C1166 1.443 . S
C1167 C1168 1.340 . S
C1167 H1207 0.951 . S
C1168 C1167 1.340 . S
C1168 C1169 1.439 . S
C1168 H1208 0.950 . S
C1169 C1168 1.439 . S
C1169 N1170 1.374 . S
C1169 C1203 1.395 . S
N1170 C1166 1.376 . S
N1170 C1169 1.374 . S
N1170 Co1171 2.008 . S
Co1171 N1170 2.008 . S
Co1171 N1172 1.995 . S
Co1171 N1177 2.008 . S
Co1171 N1182 1.995 . S
Co1171 N1187 2.282 . S
Co1171 N1193 2.282 . S
N1172 Co1171 1.995 . S
N1172 C1173 1.376 . S
N1172 C1176 1.383 . S
C1173 N1172 1.376 . S
C1173 C1174 1.446 . S
C1173 C1203 1.391 . S
C1174 C1173 1.446 . S
C1174 C1175 1.339 . S
C1174 H1209 0.949 . S
C1175 C1174 1.339 . S
C1175 C1176 1.439 . S
C1175 H1210 0.950 . S
C1176 N1172 1.383 . S
C1176 C1175 1.439 . S
C1176 C1205 1.392 . S
N1177 Co1171 2.008 . S
N1177 C1178 1.376 . S
N1177 C1181 1.374 . S
C1178 N1177 1.376 . S
C1178 C1179 1.443 . S
C1178 C1205 1.389 . S
C1179 C1178 1.443 . S
C1179 C1180 1.340 . S
C1179 H1211 0.951 . S
C1180 C1179 1.340 . S
C1180 C1181 1.439 . S
C1180 H1212 0.950 . S
C1181 N1177 1.374 . S
C1181 C1180 1.439 . S
C1181 C1206 1.395 . S
N1182 Co1171 1.995 . S
N1182 C1183 1.376 . S
N1182 C1186 1.383 . S
C1183 N1182 1.376 . S
C1183 C1184 1.446 . S
C1183 C1206 1.391 . S
C1184 C1183 1.446 . S
C1184 C1185 1.339 . S
C1184 H1213 0.949 . S
C1185 C1184 1.339 . S
C1185 C1186 1.439 . S
C1185 H1214 0.950 . S
C1186 N1182 1.383 . S
C1186 C1185 1.439 . S
C1186 C1204 1.392 . S
N1187 Co1171 2.282 . S
N1187 C1190 1.332 . S
N1187 C1192 1.332 . S
C1188 C1189 1.386 . S
C1188 C1191 1.388 . S
C1189 C1188 1.386 . S
C1189 C1190 1.382 . S
C1189 H1215 0.950 . S
C1190 N1187 1.332 . S
C1190 C1189 1.382 . S
C1190 H1201 0.952 . S
C1191 C1188 1.388 . S
C1191 C1192 1.382 . S
C1191 H1216 0.950 . S
C1192 N1187 1.332 . S
C1192 C1191 1.382 . S
C1192 H1202 0.948 . S
N1193 Co1171 2.282 . S
N1193 C1197 1.332 . S
N1193 C1198 1.332 . S
C1194 C1195 1.388 . S
C1194 C1198 1.382 . S
C1194 H1217 0.950 . S
C1195 C1194 1.388 . S
C1195 C1196 1.386 . S
C1196 C1195 1.386 . S
C1196 C1197 1.382 . S
C1196 H1218 0.950 . S
C1197 N1193 1.332 . S
C1197 C1196 1.382 . S
C1197 H1199 0.952 . S
C1198 N1193 1.332 . S
C1198 C1194 1.382 . S
C1198 H1200 0.948 . S
H1199 C1197 0.952 . S
H1200 C1198 0.948 . S
H1201 C1190 0.952 . S
H1202 C1192 0.948 . S
C1203 C1169 1.395 . S
C1203 C1173 1.391 . S
C1204 C1166 1.389 . S
C1204 C1186 1.392 . S
C1205 C1176 1.392 . S
C1205 C1178 1.389 . S
C1206 C1181 1.395 . S
C1206 C1183 1.391 . S
H1207 C1167 0.951 . S
H1208 C1168 0.950 . S
H1209 C1174 0.949 . S
H1210 C1175 0.950 . S
H1211 C1179 0.951 . S
H1212 C1180 0.950 . S
H1213 C1184 0.949 . S
H1214 C1185 0.950 . S
H1215 C1189 0.950 . S
H1216 C1191 0.950 . S
H1217 C1194 0.950 . S
H1218 C1196 0.950 . S
C1219 C1220 1.443 . S
C1219 N1223 1.376 . S
C1219 C1257 1.389 . S
C1220 C1219 1.443 . S
C1220 C1221 1.340 . S
C1220 H1260 0.951 . S
C1221 C1220 1.340 . S
C1221 C1222 1.439 . S
C1221 H1261 0.950 . S
C1222 C1221 1.439 . S
C1222 N1223 1.374 . S
C1222 C1256 1.395 . S
N1223 C1219 1.376 . S
N1223 C1222 1.374 . S
N1223 Co1224 2.008 . S
Co1224 N1223 2.008 . S
Co1224 N1225 1.995 . S
Co1224 N1230 2.008 . S
Co1224 N1235 1.995 . S
Co1224 N1240 2.282 . S
Co1224 N1246 2.282 . S
N1225 Co1224 1.995 . S
N1225 C1226 1.376 . S
N1225 C1229 1.383 . S
C1226 N1225 1.376 . S
C1226 C1227 1.446 . S
C1226 C1256 1.391 . S
C1227 C1226 1.446 . S
C1227 C1228 1.339 . S
C1227 H1262 0.949 . S
C1228 C1227 1.339 . S
C1228 C1229 1.439 . S
C1228 H1263 0.950 . S
C1229 N1225 1.383 . S
C1229 C1228 1.439 . S
C1229 C1258 1.392 . S
N1230 Co1224 2.008 . S
N1230 C1231 1.376 . S
N1230 C1234 1.374 . S
C1231 N1230 1.376 . S
C1231 C1232 1.443 . S
C1231 C1258 1.389 . S
C1232 C1231 1.443 . S
C1232 C1233 1.340 . S
C1232 H1264 0.951 . S
C1233 C1232 1.340 . S
C1233 C1234 1.439 . S
C1233 H1265 0.950 . S
C1234 N1230 1.374 . S
C1234 C1233 1.439 . S
C1234 C1259 1.395 . S
N1235 Co1224 1.995 . S
N1235 C1236 1.376 . S
N1235 C1239 1.383 . S
C1236 N1235 1.376 . S
C1236 C1237 1.446 . S
C1236 C1259 1.391 . S
C1237 C1236 1.446 . S
C1237 C1238 1.339 . S
C1237 H1266 0.949 . S
C1238 C1237 1.339 . S
C1238 C1239 1.439 . S
C1238 H1267 0.950 . S
C1239 N1235 1.383 . S
C1239 C1238 1.439 . S
C1239 C1257 1.392 . S
N1240 Co1224 2.282 . S
N1240 C1243 1.332 . S
N1240 C1245 1.332 . S
C1241 C1242 1.386 . S
C1241 C1244 1.388 . S
C1242 C1241 1.386 . S
C1242 C1243 1.382 . S
C1242 H1268 0.950 . S
C1243 N1240 1.332 . S
C1243 C1242 1.382 . S
C1243 H1254 0.952 . S
C1244 C1241 1.388 . S
C1244 C1245 1.382 . S
C1244 H1269 0.950 . S
C1245 N1240 1.332 . S
C1245 C1244 1.382 . S
C1245 H1255 0.948 . S
N1246 Co1224 2.282 . S
N1246 C1250 1.332 . S
N1246 C1251 1.332 . S
C1247 C1248 1.388 . S
C1247 C1251 1.382 . S
C1247 H1270 0.950 . S
C1248 C1247 1.388 . S
C1248 C1249 1.386 . S
C1249 C1248 1.386 . S
C1249 C1250 1.382 . S
C1249 H1271 0.950 . S
C1250 N1246 1.332 . S
C1250 C1249 1.382 . S
C1250 H1252 0.952 . S
C1251 N1246 1.332 . S
C1251 C1247 1.382 . S
C1251 H1253 0.948 . S
H1252 C1250 0.952 . S
H1253 C1251 0.948 . S
H1254 C1243 0.952 . S
H1255 C1245 0.948 . S
C1256 C1222 1.395 . S
C1256 C1226 1.391 . S
C1257 C1219 1.389 . S
C1257 C1239 1.392 . S
C1258 C1229 1.392 . S
C1258 C1231 1.389 . S
C1259 C1234 1.395 . S
C1259 C1236 1.391 . S
H1260 C1220 0.951 . S
H1261 C1221 0.950 . S
H1262 C1227 0.949 . S
H1263 C1228 0.950 . S
H1264 C1232 0.951 . S
H1265 C1233 0.950 . S
H1266 C1237 0.949 . S
H1267 C1238 0.950 . S
H1268 C1242 0.950 . S
H1269 C1244 0.950 . S
H1270 C1247 0.950 . S
H1271 C1249 0.950 . S
C1272 C1273 1.443 . S
C1272 N1276 1.376 . S
C1272 C1310 1.389 . S
C1273 C1272 1.443 . S
C1273 C1274 1.340 . S
C1273 H1313 0.951 . S
C1274 C1273 1.340 . S
C1274 C1275 1.439 . S
C1274 H1314 0.950 . S
C1275 C1274 1.439 . S
C1275 N1276 1.374 . S
C1275 C1309 1.395 . S
N1276 C1272 1.376 . S
N1276 C1275 1.374 . S
N1276 Co1277 2.008 . S
Co1277 N1276 2.008 . S
Co1277 N1278 1.995 . S
Co1277 N1283 2.008 . S
Co1277 N1288 1.995 . S
Co1277 N1293 2.282 . S
Co1277 N1299 2.282 . S
N1278 Co1277 1.995 . S
N1278 C1279 1.376 . S
N1278 C1282 1.383 . S
C1279 N1278 1.376 . S
C1279 C1280 1.446 . S
C1279 C1309 1.391 . S
C1280 C1279 1.446 . S
C1280 C1281 1.339 . S
C1280 H1315 0.949 . S
C1281 C1280 1.339 . S
C1281 C1282 1.439 . S
C1281 H1316 0.950 . S
C1282 N1278 1.383 . S
C1282 C1281 1.439 . S
C1282 C1311 1.392 . S
N1283 Co1277 2.008 . S
N1283 C1284 1.376 . S
N1283 C1287 1.374 . S
C1284 N1283 1.376 . S
C1284 C1285 1.443 . S
C1284 C1311 1.389 . S
C1285 C1284 1.443 . S
C1285 C1286 1.340 . S
C1285 H1317 0.951 . S
C1286 C1285 1.340 . S
C1286 C1287 1.439 . S
C1286 H1318 0.950 . S
C1287 N1283 1.374 . S
C1287 C1286 1.439 . S
C1287 C1312 1.395 . S
N1288 Co1277 1.995 . S
N1288 C1289 1.376 . S
N1288 C1292 1.383 . S
C1289 N1288 1.376 . S
C1289 C1290 1.446 . S
C1289 C1312 1.391 . S
C1290 C1289 1.446 . S
C1290 C1291 1.339 . S
C1290 H1319 0.949 . S
C1291 C1290 1.339 . S
C1291 C1292 1.439 . S
C1291 H1320 0.950 . S
C1292 N1288 1.383 . S
C1292 C1291 1.439 . S
C1292 C1310 1.392 . S
N1293 Co1277 2.282 . S
N1293 C1296 1.332 . S
N1293 C1298 1.332 . S
C1294 C1295 1.386 . S
C1294 C1297 1.388 . S
C1295 C1294 1.386 . S
C1295 C1296 1.382 . S
C1295 H1321 0.950 . S
C1296 N1293 1.332 . S
C1296 C1295 1.382 . S
C1296 H1307 0.952 . S
C1297 C1294 1.388 . S
C1297 C1298 1.382 . S
C1297 H1322 0.950 . S
C1298 N1293 1.332 . S
C1298 C1297 1.382 . S
C1298 H1308 0.948 . S
N1299 Co1277 2.282 . S
N1299 C1303 1.332 . S
N1299 C1304 1.332 . S
C1300 C1301 1.388 . S
C1300 C1304 1.382 . S
C1300 H1323 0.950 . S
C1301 C1300 1.388 . S
C1301 C1302 1.386 . S
C1302 C1301 1.386 . S
C1302 C1303 1.382 . S
C1302 H1324 0.950 . S
C1303 N1299 1.332 . S
C1303 C1302 1.382 . S
C1303 H1305 0.952 . S
C1304 N1299 1.332 . S
C1304 C1300 1.382 . S
C1304 H1306 0.948 . S
H1305 C1303 0.952 . S
H1306 C1304 0.948 . S
H1307 C1296 0.952 . S
H1308 C1298 0.948 . S
C1309 C1275 1.395 . S
C1309 C1279 1.391 . S
C1310 C1272 1.389 . S
C1310 C1292 1.392 . S
C1311 C1282 1.392 . S
C1311 C1284 1.389 . S
C1312 C1287 1.395 . S
C1312 C1289 1.391 . S
H1313 C1273 0.951 . S
H1314 C1274 0.950 . S
H1315 C1280 0.949 . S
H1316 C1281 0.950 . S
H1317 C1285 0.951 . S
H1318 C1286 0.950 . S
H1319 C1290 0.949 . S
H1320 C1291 0.950 . S
H1321 C1295 0.950 . S
H1322 C1297 0.950 . S
H1323 C1300 0.950 . S
H1324 C1302 0.950 . S
C1325 C1326 1.443 . S
C1325 N1329 1.376 . S
C1325 C1363 1.389 . S
C1326 C1325 1.443 . S
C1326 C1327 1.340 . S
C1326 H1366 0.951 . S
C1327 C1326 1.340 . S
C1327 C1328 1.439 . S
C1327 H1367 0.950 . S
C1328 C1327 1.439 . S
C1328 N1329 1.374 . S
C1328 C1362 1.395 . S
N1329 C1325 1.376 . S
N1329 C1328 1.374 . S
N1329 Co1330 2.008 . S
Co1330 N1329 2.008 . S
Co1330 N1331 1.995 . S
Co1330 N1336 2.008 . S
Co1330 N1341 1.995 . S
Co1330 N1346 2.282 . S
Co1330 N1352 2.282 . S
N1331 Co1330 1.995 . S
N1331 C1332 1.376 . S
N1331 C1335 1.383 . S
C1332 N1331 1.376 . S
C1332 C1333 1.446 . S
C1332 C1362 1.391 . S
C1333 C1332 1.446 . S
C1333 C1334 1.339 . S
C1333 H1368 0.949 . S
C1334 C1333 1.339 . S
C1334 C1335 1.439 . S
C1334 H1369 0.950 . S
C1335 N1331 1.383 . S
C1335 C1334 1.439 . S
C1335 C1364 1.392 . S
N1336 Co1330 2.008 . S
N1336 C1337 1.376 . S
N1336 C1340 1.374 . S
C1337 N1336 1.376 . S
C1337 C1338 1.443 . S
C1337 C1364 1.389 . S
C1338 C1337 1.443 . S
C1338 C1339 1.340 . S
C1338 H1370 0.951 . S
C1339 C1338 1.340 . S
C1339 C1340 1.439 . S
C1339 H1371 0.950 . S
C1340 N1336 1.374 . S
C1340 C1339 1.439 . S
C1340 C1365 1.395 . S
N1341 Co1330 1.995 . S
N1341 C1342 1.376 . S
N1341 C1345 1.383 . S
C1342 N1341 1.376 . S
C1342 C1343 1.446 . S
C1342 C1365 1.391 . S
C1343 C1342 1.446 . S
C1343 C1344 1.339 . S
C1343 H1372 0.949 . S
C1344 C1343 1.339 . S
C1344 C1345 1.439 . S
C1344 H1373 0.950 . S
C1345 N1341 1.383 . S
C1345 C1344 1.439 . S
C1345 C1363 1.392 . S
N1346 Co1330 2.282 . S
N1346 C1349 1.332 . S
N1346 C1351 1.332 . S
C1347 C1348 1.386 . S
C1347 C1350 1.388 . S
C1348 C1347 1.386 . S
C1348 C1349 1.382 . S
C1348 H1374 0.950 . S
C1349 N1346 1.332 . S
C1349 C1348 1.382 . S
C1349 H1360 0.952 . S
C1350 C1347 1.388 . S
C1350 C1351 1.382 . S
C1350 H1375 0.950 . S
C1351 N1346 1.332 . S
C1351 C1350 1.382 . S
C1351 H1361 0.948 . S
N1352 Co1330 2.282 . S
N1352 C1356 1.332 . S
N1352 C1357 1.332 . S
C1353 C1354 1.388 . S
C1353 C1357 1.382 . S
C1353 H1376 0.950 . S
C1354 C1353 1.388 . S
C1354 C1355 1.386 . S
C1355 C1354 1.386 . S
C1355 C1356 1.382 . S
C1355 H1377 0.950 . S
C1356 N1352 1.332 . S
C1356 C1355 1.382 . S
C1356 H1358 0.952 . S
C1357 N1352 1.332 . S
C1357 C1353 1.382 . S
C1357 H1359 0.948 . S
H1358 C1356 0.952 . S
H1359 C1357 0.948 . S
H1360 C1349 0.952 . S
H1361 C1351 0.948 . S
C1362 C1328 1.395 . S
C1362 C1332 1.391 . S
C1363 C1325 1.389 . S
C1363 C1345 1.392 . S
C1364 C1335 1.392 . S
C1364 C1337 1.389 . S
C1365 C1340 1.395 . S
C1365 C1342 1.391 . S
H1366 C1326 0.951 . S
H1367 C1327 0.950 . S
H1368 C1333 0.949 . S
H1369 C1334 0.950 . S
H1370 C1338 0.951 . S
H1371 C1339 0.950 . S
H1372 C1343 0.949 . S
H1373 C1344 0.950 . S
H1374 C1348 0.950 . S
H1375 C1350 0.950 . S
H1376 C1353 0.950 . S
H1377 C1355 0.950 . S
C1378 C1379 1.443 . S
C1378 N1382 1.376 . S
C1378 C1416 1.389 . S
C1379 C1378 1.443 . S
C1379 C1380 1.340 . S
C1379 H1419 0.951 . S
C1380 C1379 1.340 . S
C1380 C1381 1.439 . S
C1380 H1420 0.950 . S
C1381 C1380 1.439 . S
C1381 N1382 1.374 . S
C1381 C1415 1.395 . S
N1382 C1378 1.376 . S
N1382 C1381 1.374 . S
N1382 Co1383 2.008 . S
Co1383 N1382 2.008 . S
Co1383 N1384 1.995 . S
Co1383 N1389 2.008 . S
Co1383 N1394 1.995 . S
Co1383 N1399 2.282 . S
Co1383 N1405 2.282 . S
N1384 Co1383 1.995 . S
N1384 C1385 1.376 . S
N1384 C1388 1.383 . S
C1385 N1384 1.376 . S
C1385 C1386 1.446 . S
C1385 C1415 1.391 . S
C1386 C1385 1.446 . S
C1386 C1387 1.339 . S
C1386 H1421 0.949 . S
C1387 C1386 1.339 . S
C1387 C1388 1.439 . S
C1387 H1422 0.950 . S
C1388 N1384 1.383 . S
C1388 C1387 1.439 . S
C1388 C1417 1.392 . S
N1389 Co1383 2.008 . S
N1389 C1390 1.376 . S
N1389 C1393 1.374 . S
C1390 N1389 1.376 . S
C1390 C1391 1.443 . S
C1390 C1417 1.389 . S
C1391 C1390 1.443 . S
C1391 C1392 1.340 . S
C1391 H1423 0.951 . S
C1392 C1391 1.340 . S
C1392 C1393 1.439 . S
C1392 H1424 0.950 . S
C1393 N1389 1.374 . S
C1393 C1392 1.439 . S
C1393 C1418 1.395 . S
N1394 Co1383 1.995 . S
N1394 C1395 1.376 . S
N1394 C1398 1.383 . S
C1395 N1394 1.376 . S
C1395 C1396 1.446 . S
C1395 C1418 1.391 . S
C1396 C1395 1.446 . S
C1396 C1397 1.339 . S
C1396 H1425 0.949 . S
C1397 C1396 1.339 . S
C1397 C1398 1.439 . S
C1397 H1426 0.950 . S
C1398 N1394 1.383 . S
C1398 C1397 1.439 . S
C1398 C1416 1.392 . S
N1399 Co1383 2.282 . S
N1399 C1402 1.332 . S
N1399 C1404 1.332 . S
C1400 C1401 1.386 . S
C1400 C1403 1.388 . S
C1401 C1400 1.386 . S
C1401 C1402 1.382 . S
C1401 H1427 0.950 . S
C1402 N1399 1.332 . S
C1402 C1401 1.382 . S
C1402 H1413 0.952 . S
C1403 C1400 1.388 . S
C1403 C1404 1.382 . S
C1403 H1428 0.950 . S
C1404 N1399 1.332 . S
C1404 C1403 1.382 . S
C1404 H1414 0.948 . S
N1405 Co1383 2.282 . S
N1405 C1409 1.332 . S
N1405 C1410 1.332 . S
C1406 C1407 1.388 . S
C1406 C1410 1.382 . S
C1406 H1429 0.950 . S
C1407 C1406 1.388 . S
C1407 C1408 1.386 . S
C1408 C1407 1.386 . S
C1408 C1409 1.382 . S
C1408 H1430 0.950 . S
C1409 N1405 1.332 . S
C1409 C1408 1.382 . S
C1409 H1411 0.952 . S
C1410 N1405 1.332 . S
C1410 C1406 1.382 . S
C1410 H1412 0.948 . S
H1411 C1409 0.952 . S
H1412 C1410 0.948 . S
H1413 C1402 0.952 . S
H1414 C1404 0.948 . S
C1415 C1381 1.395 . S
C1415 C1385 1.391 . S
C1416 C1378 1.389 . S
C1416 C1398 1.392 . S
C1417 C1388 1.392 . S
C1417 C1390 1.389 . S
C1418 C1393 1.395 . S
C1418 C1395 1.391 . S
H1419 C1379 0.951 . S
H1420 C1380 0.950 . S
H1421 C1386 0.949 . S
H1422 C1387 0.950 . S
H1423 C1391 0.951 . S
H1424 C1392 0.950 . S
H1425 C1396 0.949 . S
H1426 C1397 0.950 . S
H1427 C1401 0.950 . S
H1428 C1403 0.950 . S
H1429 C1406 0.950 . S
H1430 C1408 0.950 . S
C1431 C1432 1.443 . S
C1431 N1435 1.376 . S
C1431 C1469 1.389 . S
C1432 C1431 1.443 . S
C1432 C1433 1.340 . S
C1432 H1472 0.951 . S
C1433 C1432 1.340 . S
C1433 C1434 1.439 . S
C1433 H1473 0.950 . S
C1434 C1433 1.439 . S
C1434 N1435 1.374 . S
C1434 C1468 1.395 . S
N1435 C1431 1.376 . S
N1435 C1434 1.374 . S
N1435 Co1436 2.008 . S
Co1436 N1435 2.008 . S
Co1436 N1437 1.995 . S
Co1436 N1442 2.008 . S
Co1436 N1447 1.995 . S
Co1436 N1452 2.282 . S
Co1436 N1458 2.282 . S
N1437 Co1436 1.995 . S
N1437 C1438 1.376 . S
N1437 C1441 1.383 . S
C1438 N1437 1.376 . S
C1438 C1439 1.446 . S
C1438 C1468 1.391 . S
C1439 C1438 1.446 . S
C1439 C1440 1.339 . S
C1439 H1474 0.949 . S
C1440 C1439 1.339 . S
C1440 C1441 1.439 . S
C1440 H1475 0.950 . S
C1441 N1437 1.383 . S
C1441 C1440 1.439 . S
C1441 C1470 1.392 . S
N1442 Co1436 2.008 . S
N1442 C1443 1.376 . S
N1442 C1446 1.374 . S
C1443 N1442 1.376 . S
C1443 C1444 1.443 . S
C1443 C1470 1.389 . S
C1444 C1443 1.443 . S
C1444 C1445 1.340 . S
C1444 H1476 0.951 . S
C1445 C1444 1.340 . S
C1445 C1446 1.439 . S
C1445 H1477 0.950 . S
C1446 N1442 1.374 . S
C1446 C1445 1.439 . S
C1446 C1471 1.395 . S
N1447 Co1436 1.995 . S
N1447 C1448 1.376 . S
N1447 C1451 1.383 . S
C1448 N1447 1.376 . S
C1448 C1449 1.446 . S
C1448 C1471 1.391 . S
C1449 C1448 1.446 . S
C1449 C1450 1.339 . S
C1449 H1478 0.949 . S
C1450 C1449 1.339 . S
C1450 C1451 1.439 . S
C1450 H1479 0.950 . S
C1451 N1447 1.383 . S
C1451 C1450 1.439 . S
C1451 C1469 1.392 . S
N1452 Co1436 2.282 . S
N1452 C1455 1.332 . S
N1452 C1457 1.332 . S
C1453 C1454 1.386 . S
C1453 C1456 1.388 . S
C1454 C1453 1.386 . S
C1454 C1455 1.382 . S
C1454 H1480 0.950 . S
C1455 N1452 1.332 . S
C1455 C1454 1.382 . S
C1455 H1466 0.952 . S
C1456 C1453 1.388 . S
C1456 C1457 1.382 . S
C1456 H1481 0.950 . S
C1457 N1452 1.332 . S
C1457 C1456 1.382 . S
C1457 H1467 0.948 . S
N1458 Co1436 2.282 . S
N1458 C1462 1.332 . S
N1458 C1463 1.332 . S
C1459 C1460 1.388 . S
C1459 C1463 1.382 1_655 S
C1459 H1482 0.950 . S
C1460 C1459 1.388 . S
C1460 C1461 1.383 1_655 S
C1461 C1460 1.383 1_455 S
C1461 C1462 1.385 . S
C1461 H1483 0.949 1_455 S
C1462 N1458 1.332 . S
C1462 C1461 1.385 . S
C1462 H1464 0.952 . S
C1463 N1458 1.332 . S
C1463 C1459 1.382 1_455 S
C1463 H1465 0.948 . S
H1464 C1462 0.952 . S
H1465 C1463 0.948 . S
H1466 C1455 0.952 . S
H1467 C1457 0.948 . S
C1468 C1434 1.395 . S
C1468 C1438 1.391 . S
C1469 C1431 1.389 . S
C1469 C1451 1.392 . S
C1470 C1441 1.392 . S
C1470 C1443 1.389 . S
C1471 C1446 1.395 . S
C1471 C1448 1.391 . S
H1472 C1432 0.951 . S
H1473 C1433 0.950 . S
H1474 C1439 0.949 . S
H1475 C1440 0.950 . S
H1476 C1444 0.951 . S
H1477 C1445 0.950 . S
H1478 C1449 0.949 . S
H1479 C1450 0.950 . S
H1480 C1454 0.950 . S
H1481 C1456 0.950 . S
H1482 C1459 0.950 . S
H1483 C1461 0.949 1_655 S
C1484 C1485 1.443 . S
C1484 N1488 1.376 . S
C1484 C1522 1.389 . S
C1485 C1484 1.443 . S
C1485 C1486 1.340 . S
C1485 H1525 0.951 . S
C1486 C1485 1.340 . S
C1486 C1487 1.439 . S
C1486 H1526 0.950 . S
C1487 C1486 1.439 . S
C1487 N1488 1.374 . S
C1487 C1521 1.395 . S
N1488 C1484 1.376 . S
N1488 C1487 1.374 . S
N1488 Co1489 2.008 . S
Co1489 N1488 2.008 . S
Co1489 N1490 1.995 . S
Co1489 N1495 2.008 . S
Co1489 N1500 1.995 . S
Co1489 N1505 2.282 . S
Co1489 N1511 2.282 . S
N1490 Co1489 1.995 . S
N1490 C1491 1.376 . S
N1490 C1494 1.383 . S
C1491 N1490 1.376 . S
C1491 C1492 1.446 . S
C1491 C1521 1.391 . S
C1492 C1491 1.446 . S
C1492 C1493 1.339 . S
C1492 H1527 0.949 . S
C1493 C1492 1.339 . S
C1493 C1494 1.439 . S
C1493 H1528 0.950 . S
C1494 N1490 1.383 . S
C1494 C1493 1.439 . S
C1494 C1523 1.392 . S
N1495 Co1489 2.008 . S
N1495 C1496 1.376 . S
N1495 C1499 1.374 . S
C1496 N1495 1.376 . S
C1496 C1497 1.443 . S
C1496 C1523 1.389 . S
C1497 C1496 1.443 . S
C1497 C1498 1.340 . S
C1497 H1529 0.951 . S
C1498 C1497 1.340 . S
C1498 C1499 1.439 . S
C1498 H1530 0.950 . S
C1499 N1495 1.374 . S
C1499 C1498 1.439 . S
C1499 C1524 1.395 . S
N1500 Co1489 1.995 . S
N1500 C1501 1.376 . S
N1500 C1504 1.383 . S
C1501 N1500 1.376 . S
C1501 C1502 1.446 . S
C1501 C1524 1.391 . S
C1502 C1501 1.446 . S
C1502 C1503 1.339 . S
C1502 H1531 0.949 . S
C1503 C1502 1.339 . S
C1503 C1504 1.439 . S
C1503 H1532 0.950 . S
C1504 N1500 1.383 . S
C1504 C1503 1.439 . S
C1504 C1522 1.392 . S
N1505 Co1489 2.282 . S
N1505 C1508 1.332 . S
N1505 C1510 1.332 . S
C1506 C1507 1.386 . S
C1506 C1509 1.388 . S
C1507 C1506 1.386 . S
C1507 C1508 1.382 . S
C1507 H1533 0.950 . S
C1508 N1505 1.332 . S
C1508 C1507 1.382 . S
C1508 H1519 0.952 . S
C1509 C1506 1.388 . S
C1509 C1510 1.382 . S
C1509 H1534 0.950 . S
C1510 N1505 1.332 . S
C1510 C1509 1.382 . S
C1510 H1520 0.948 . S
N1511 Co1489 2.282 . S
N1511 C1515 1.332 . S
N1511 C1516 1.332 . S
C1512 C1513 1.388 . S
C1512 C1516 1.382 . S
C1512 H1535 0.950 . S
C1513 C1512 1.388 . S
C1513 C1514 1.386 . S
C1514 C1513 1.386 . S
C1514 C1515 1.382 . S
C1514 H1536 0.950 . S
C1515 N1511 1.332 . S
C1515 C1514 1.382 . S
C1515 H1517 0.952 . S
C1516 N1511 1.332 . S
C1516 C1512 1.382 . S
C1516 H1518 0.948 . S
H1517 C1515 0.952 . S
H1518 C1516 0.948 . S
H1519 C1508 0.952 . S
H1520 C1510 0.948 . S
C1521 C1487 1.395 . S
C1521 C1491 1.391 . S
C1522 C1484 1.389 . S
C1522 C1504 1.392 . S
C1523 C1494 1.392 . S
C1523 C1496 1.389 . S
C1524 C1499 1.395 . S
C1524 C1501 1.391 . S
H1525 C1485 0.951 . S
H1526 C1486 0.950 . S
H1527 C1492 0.949 . S
H1528 C1493 0.950 . S
H1529 C1497 0.951 . S
H1530 C1498 0.950 . S
H1531 C1502 0.949 . S
H1532 C1503 0.950 . S
H1533 C1507 0.950 . S
H1534 C1509 0.950 . S
H1535 C1512 0.950 . S
H1536 C1514 0.950 . S
C1537 C1538 1.443 . S
C1537 N1541 1.376 . S
C1537 C1575 1.389 . S
C1538 C1537 1.443 . S
C1538 C1539 1.340 . S
C1538 H1578 0.951 . S
C1539 C1538 1.340 . S
C1539 C1540 1.439 . S
C1539 H1579 0.950 . S
C1540 C1539 1.439 . S
C1540 N1541 1.374 . S
C1540 C1574 1.395 . S
N1541 C1537 1.376 . S
N1541 C1540 1.374 . S
N1541 Co1542 2.008 . S
Co1542 N1541 2.008 . S
Co1542 N1543 1.995 . S
Co1542 N1548 2.008 . S
Co1542 N1553 1.995 . S
Co1542 N1558 2.282 . S
Co1542 N1564 2.282 . S
N1543 Co1542 1.995 . S
N1543 C1544 1.376 . S
N1543 C1547 1.383 . S
C1544 N1543 1.376 . S
C1544 C1545 1.446 . S
C1544 C1574 1.391 . S
C1545 C1544 1.446 . S
C1545 C1546 1.339 . S
C1545 H1580 0.949 . S
C1546 C1545 1.339 . S
C1546 C1547 1.439 . S
C1546 H1581 0.950 . S
C1547 N1543 1.383 . S
C1547 C1546 1.439 . S
C1547 C1576 1.392 . S
N1548 Co1542 2.008 . S
N1548 C1549 1.376 . S
N1548 C1552 1.374 . S
C1549 N1548 1.376 . S
C1549 C1550 1.443 . S
C1549 C1576 1.389 . S
C1550 C1549 1.443 . S
C1550 C1551 1.340 . S
C1550 H1582 0.951 . S
C1551 C1550 1.340 . S
C1551 C1552 1.439 . S
C1551 H1583 0.950 . S
C1552 N1548 1.374 . S
C1552 C1551 1.439 . S
C1552 C1577 1.395 . S
N1553 Co1542 1.995 . S
N1553 C1554 1.376 . S
N1553 C1557 1.383 . S
C1554 N1553 1.376 . S
C1554 C1555 1.446 . S
C1554 C1577 1.391 . S
C1555 C1554 1.446 . S
C1555 C1556 1.339 . S
C1555 H1584 0.949 . S
C1556 C1555 1.339 . S
C1556 C1557 1.439 . S
C1556 H1585 0.950 . S
C1557 N1553 1.383 . S
C1557 C1556 1.439 . S
C1557 C1575 1.392 . S
N1558 Co1542 2.282 . S
N1558 C1561 1.332 . S
N1558 C1563 1.332 . S
C1559 C1560 1.386 . S
C1559 C1562 1.388 . S
C1560 C1559 1.386 . S
C1560 C1561 1.382 . S
C1560 H1586 0.950 . S
C1561 N1558 1.332 . S
C1561 C1560 1.382 . S
C1561 H1572 0.952 . S
C1562 C1559 1.388 . S
C1562 C1563 1.382 . S
C1562 H1587 0.950 . S
C1563 N1558 1.332 . S
C1563 C1562 1.382 . S
C1563 H1573 0.948 . S
N1564 Co1542 2.282 . S
N1564 C1568 1.332 . S
N1564 C1569 1.332 . S
C1565 C1566 1.388 . S
C1565 C1569 1.382 1_655 S
C1565 H1588 0.950 . S
C1566 C1565 1.388 . S
C1566 C1567 1.383 1_655 S
C1567 C1566 1.383 1_455 S
C1567 C1568 1.385 . S
C1567 H1589 0.949 1_455 S
C1568 N1564 1.332 . S
C1568 C1567 1.385 . S
C1568 H1570 0.952 . S
C1569 N1564 1.332 . S
C1569 C1565 1.382 1_455 S
C1569 H1571 0.948 . S
H1570 C1568 0.952 . S
H1571 C1569 0.948 . S
H1572 C1561 0.952 . S
H1573 C1563 0.948 . S
C1574 C1540 1.395 . S
C1574 C1544 1.391 . S
C1575 C1537 1.389 . S
C1575 C1557 1.392 . S
C1576 C1547 1.392 . S
C1576 C1549 1.389 . S
C1577 C1552 1.395 . S
C1577 C1554 1.391 . S
H1578 C1538 0.951 . S
H1579 C1539 0.950 . S
H1580 C1545 0.949 . S
H1581 C1546 0.950 . S
H1582 C1550 0.951 . S
H1583 C1551 0.950 . S
H1584 C1555 0.949 . S
H1585 C1556 0.950 . S
H1586 C1560 0.950 . S
H1587 C1562 0.950 . S
H1588 C1565 0.950 . S
H1589 C1567 0.949 1_655 S
C1590 C1591 1.443 . S
C1590 N1594 1.376 . S
C1590 C1628 1.389 . S
C1591 C1590 1.443 . S
C1591 C1592 1.340 . S
C1591 H1631 0.951 . S
C1592 C1591 1.340 . S
C1592 C1593 1.439 . S
C1592 H1632 0.950 . S
C1593 C1592 1.439 . S
C1593 N1594 1.374 . S
C1593 C1627 1.395 . S
N1594 C1590 1.376 . S
N1594 C1593 1.374 . S
N1594 Co1595 2.008 . S
Co1595 N1594 2.008 . S
Co1595 N1596 1.995 . S
Co1595 N1601 2.008 . S
Co1595 N1606 1.995 . S
Co1595 N1611 2.282 . S
Co1595 N1617 2.282 . S
N1596 Co1595 1.995 . S
N1596 C1597 1.376 . S
N1596 C1600 1.383 . S
C1597 N1596 1.376 . S
C1597 C1598 1.446 . S
C1597 C1627 1.391 . S
C1598 C1597 1.446 . S
C1598 C1599 1.339 . S
C1598 H1633 0.949 . S
C1599 C1598 1.339 . S
C1599 C1600 1.439 . S
C1599 H1634 0.950 . S
C1600 N1596 1.383 . S
C1600 C1599 1.439 . S
C1600 C1629 1.392 . S
N1601 Co1595 2.008 . S
N1601 C1602 1.376 . S
N1601 C1605 1.374 . S
C1602 N1601 1.376 . S
C1602 C1603 1.443 . S
C1602 C1629 1.389 . S
C1603 C1602 1.443 . S
C1603 C1604 1.340 . S
C1603 H1635 0.951 . S
C1604 C1603 1.340 . S
C1604 C1605 1.439 . S
C1604 H1636 0.950 . S
C1605 N1601 1.374 . S
C1605 C1604 1.439 . S
C1605 C1630 1.395 . S
N1606 Co1595 1.995 . S
N1606 C1607 1.376 . S
N1606 C1610 1.383 . S
C1607 N1606 1.376 . S
C1607 C1608 1.446 . S
C1607 C1630 1.391 . S
C1608 C1607 1.446 . S
C1608 C1609 1.339 . S
C1608 H1637 0.949 . S
C1609 C1608 1.339 . S
C1609 C1610 1.439 . S
C1609 H1638 0.950 . S
C1610 N1606 1.383 . S
C1610 C1609 1.439 . S
C1610 C1628 1.392 . S
N1611 Co1595 2.282 . S
N1611 C1614 1.332 . S
N1611 C1616 1.332 . S
C1612 C1613 1.386 . S
C1612 C1615 1.388 . S
C1613 C1612 1.386 . S
C1613 C1614 1.382 . S
C1613 H1639 0.950 . S
C1614 N1611 1.332 . S
C1614 C1613 1.382 . S
C1614 H1625 0.952 . S
C1615 C1612 1.388 . S
C1615 C1616 1.382 . S
C1615 H1640 0.950 . S
C1616 N1611 1.332 . S
C1616 C1615 1.382 . S
C1616 H1626 0.948 . S
N1617 Co1595 2.282 . S
N1617 C1621 1.332 . S
N1617 C1622 1.332 . S
C1618 C1619 1.388 . S
C1618 C1622 1.382 . S
C1618 H1641 0.950 . S
C1619 C1618 1.388 . S
C1619 C1620 1.386 . S
C1620 C1619 1.386 . S
C1620 C1621 1.382 . S
C1620 H1642 0.950 . S
C1621 N1617 1.332 . S
C1621 C1620 1.382 . S
C1621 H1623 0.952 . S
C1622 N1617 1.332 . S
C1622 C1618 1.382 . S
C1622 H1624 0.948 . S
H1623 C1621 0.952 . S
H1624 C1622 0.948 . S
H1625 C1614 0.952 . S
H1626 C1616 0.948 . S
C1627 C1593 1.395 . S
C1627 C1597 1.391 . S
C1628 C1590 1.389 . S
C1628 C1610 1.392 . S
C1629 C1600 1.392 . S
C1629 C1602 1.389 . S
C1630 C1605 1.395 . S
C1630 C1607 1.391 . S
H1631 C1591 0.951 . S
H1632 C1592 0.950 . S
H1633 C1598 0.949 . S
H1634 C1599 0.950 . S
H1635 C1603 0.951 . S
H1636 C1604 0.950 . S
H1637 C1608 0.949 . S
H1638 C1609 0.950 . S
H1639 C1613 0.950 . S
H1640 C1615 0.950 . S
H1641 C1618 0.950 . S
H1642 C1620 0.950 . S
C1643 C1644 1.443 . S
C1643 N1647 1.376 . S
C1643 C1681 1.389 . S
C1644 C1643 1.443 . S
C1644 C1645 1.340 . S
C1644 H1684 0.951 . S
C1645 C1644 1.340 . S
C1645 C1646 1.439 . S
C1645 H1685 0.950 . S
C1646 C1645 1.439 . S
C1646 N1647 1.374 . S
C1646 C1680 1.395 . S
N1647 C1643 1.376 . S
N1647 C1646 1.374 . S
N1647 Co1648 2.008 . S
Co1648 N1647 2.008 . S
Co1648 N1649 1.995 . S
Co1648 N1654 2.008 . S
Co1648 N1659 1.995 . S
Co1648 N1664 2.282 . S
Co1648 N1670 2.282 . S
N1649 Co1648 1.995 . S
N1649 C1650 1.376 . S
N1649 C1653 1.383 . S
C1650 N1649 1.376 . S
C1650 C1651 1.446 . S
C1650 C1680 1.391 . S
C1651 C1650 1.446 . S
C1651 C1652 1.339 . S
C1651 H1686 0.949 . S
C1652 C1651 1.339 . S
C1652 C1653 1.439 . S
C1652 H1687 0.950 . S
C1653 N1649 1.383 . S
C1653 C1652 1.439 . S
C1653 C1682 1.392 . S
N1654 Co1648 2.008 . S
N1654 C1655 1.376 . S
N1654 C1658 1.374 . S
C1655 N1654 1.376 . S
C1655 C1656 1.443 . S
C1655 C1682 1.389 . S
C1656 C1655 1.443 . S
C1656 C1657 1.340 . S
C1656 H1688 0.951 . S
C1657 C1656 1.340 . S
C1657 C1658 1.439 . S
C1657 H1689 0.950 . S
C1658 N1654 1.374 . S
C1658 C1657 1.439 . S
C1658 C1683 1.395 . S
N1659 Co1648 1.995 . S
N1659 C1660 1.376 . S
N1659 C1663 1.383 . S
C1660 N1659 1.376 . S
C1660 C1661 1.446 . S
C1660 C1683 1.391 . S
C1661 C1660 1.446 . S
C1661 C1662 1.339 . S
C1661 H1690 0.949 . S
C1662 C1661 1.339 . S
C1662 C1663 1.439 . S
C1662 H1691 0.950 . S
C1663 N1659 1.383 . S
C1663 C1662 1.439 . S
C1663 C1681 1.392 . S
N1664 Co1648 2.282 . S
N1664 C1667 1.332 . S
N1664 C1669 1.332 . S
C1665 C1666 1.386 . S
C1665 C1668 1.388 . S
C1666 C1665 1.386 . S
C1666 C1667 1.382 . S
C1666 H1692 0.950 . S
C1667 N1664 1.332 . S
C1667 C1666 1.382 . S
C1667 H1678 0.952 . S
C1668 C1665 1.388 . S
C1668 C1669 1.382 . S
C1668 H1693 0.950 . S
C1669 N1664 1.332 . S
C1669 C1668 1.382 . S
C1669 H1679 0.948 . S
N1670 Co1648 2.282 . S
N1670 C1674 1.332 . S
N1670 C1675 1.332 . S
C1671 C1672 1.388 . S
C1671 C1675 1.382 . S
C1671 H1694 0.950 . S
C1672 C1671 1.388 . S
C1672 C1673 1.386 . S
C1673 C1672 1.386 . S
C1673 C1674 1.382 . S
C1673 H1695 0.950 . S
C1674 N1670 1.332 . S
C1674 C1673 1.382 . S
C1674 H1676 0.952 . S
C1675 N1670 1.332 . S
C1675 C1671 1.382 . S
C1675 H1677 0.948 . S
H1676 C1674 0.952 . S
H1677 C1675 0.948 . S
H1678 C1667 0.952 . S
H1679 C1669 0.948 . S
C1680 C1646 1.395 . S
C1680 C1650 1.391 . S
C1681 C1643 1.389 . S
C1681 C1663 1.392 . S
C1682 C1653 1.392 . S
C1682 C1655 1.389 . S
C1683 C1658 1.395 . S
C1683 C1660 1.391 . S
H1684 C1644 0.951 . S
H1685 C1645 0.950 . S
H1686 C1651 0.949 . S
H1687 C1652 0.950 . S
H1688 C1656 0.951 . S
H1689 C1657 0.950 . S
H1690 C1661 0.949 . S
H1691 C1662 0.950 . S
H1692 C1666 0.950 . S
H1693 C1668 0.950 . S
H1694 C1671 0.950 . S
H1695 C1673 0.950 . S
C1696 C1697 1.369 . S
C1696 C1698 1.419 . S
C1696 H1700 0.930 . S
C1697 C1696 1.369 . S
C1697 C1706 1.429 . S
C1698 C1696 1.419 . S
C1698 C1699 1.363 . S
C1698 H1701 0.929 . S
C1699 C1698 1.363 . S
C1699 C1705 1.428 . S
H1700 C1696 0.930 . S
H1701 C1698 0.929 . S
S1702 N1703 1.613 . S
S1702 N1704 1.610 . S
N1703 S1702 1.613 . S
N1703 C1706 1.350 . S
N1704 S1702 1.610 . S
N1704 C1705 1.351 . S
C1705 C1699 1.428 . S
C1705 N1704 1.351 . S
C1705 C1706 1.434 . S
C1706 C1697 1.429 . S
C1706 N1703 1.350 . S
C1706 C1705 1.434 . S
C1707 C1708 1.369 . S
C1707 C1709 1.419 . S
C1707 H1711 0.930 . S
C1708 C1707 1.369 . S
C1708 C1717 1.429 . S
C1709 C1707 1.419 . S
C1709 C1710 1.363 . S
C1709 H1712 0.929 . S
C1710 C1709 1.363 . S
C1710 C1716 1.428 . S
H1711 C1707 0.930 . S
H1712 C1709 0.929 . S
S1713 N1714 1.613 . S
S1713 N1715 1.610 . S
N1714 S1713 1.613 . S
N1714 C1717 1.350 . S
N1715 S1713 1.610 . S
N1715 C1716 1.351 . S
C1716 C1710 1.428 . S
C1716 N1715 1.351 . S
C1716 C1717 1.434 . S
C1717 C1708 1.429 . S
C1717 N1714 1.350 . S
C1717 C1716 1.434 . S
C1718 C1719 1.369 . S
C1718 C1720 1.419 . S
C1718 H1722 0.930 . S
C1719 C1718 1.369 . S
C1719 C1728 1.429 . S
C1720 C1718 1.419 . S
C1720 C1721 1.363 . S
C1720 H1723 0.929 . S
C1721 C1720 1.363 . S
C1721 C1727 1.428 . S
H1722 C1718 0.930 . S
H1723 C1720 0.929 . S
S1724 N1725 1.613 . S
S1724 N1726 1.610 . S
N1725 S1724 1.613 . S
N1725 C1728 1.350 . S
N1726 S1724 1.610 . S
N1726 C1727 1.351 . S
C1727 C1721 1.428 . S
C1727 N1726 1.351 . S
C1727 C1728 1.434 . S
C1728 C1719 1.429 . S
C1728 N1725 1.350 . S
C1728 C1727 1.434 . S
C1729 C1730 1.369 . S
C1729 C1731 1.419 . S
C1729 H1733 0.930 . S
C1730 C1729 1.369 . S
C1730 C1739 1.429 . S
C1731 C1729 1.419 . S
C1731 C1732 1.363 . S
C1731 H1734 0.929 . S
C1732 C1731 1.363 . S
C1732 C1738 1.428 . S
H1733 C1729 0.930 . S
H1734 C1731 0.929 . S
S1735 N1736 1.613 1_565 S
S1735 N1737 1.610 1_565 S
N1736 S1735 1.613 1_545 S
N1736 C1739 1.350 . S
N1737 S1735 1.610 1_545 S
N1737 C1738 1.351 . S
C1738 C1732 1.428 . S
C1738 N1737 1.351 . S
C1738 C1739 1.434 . S
C1739 C1730 1.429 . S
C1739 N1736 1.350 . S
C1739 C1738 1.434 . S
C1740 C1741 1.369 . S
C1740 C1742 1.419 . S
C1740 H1744 0.930 . S
C1741 C1740 1.369 . S
C1741 C1750 1.429 . S
C1742 C1740 1.419 . S
C1742 C1743 1.363 . S
C1742 H1745 0.929 . S
C1743 C1742 1.363 . S
C1743 C1749 1.428 . S
H1744 C1740 0.930 . S
H1745 C1742 0.929 . S
S1746 N1747 1.613 . S
S1746 N1748 1.610 . S
N1747 S1746 1.613 . S
N1747 C1750 1.350 . S
N1748 S1746 1.610 . S
N1748 C1749 1.351 . S
C1749 C1743 1.428 . S
C1749 N1748 1.351 . S
C1749 C1750 1.434 . S
C1750 C1741 1.429 . S
C1750 N1747 1.350 . S
C1750 C1749 1.434 . S
C1751 C1752 1.369 . S
C1751 C1753 1.419 . S
C1751 H1755 0.930 . S
C1752 C1751 1.369 . S
C1752 C1761 1.429 . S
C1753 C1751 1.419 . S
C1753 C1754 1.363 . S
C1753 H1756 0.929 . S
C1754 C1753 1.363 . S
C1754 C1760 1.428 . S
H1755 C1751 0.930 . S
H1756 C1753 0.929 . S
S1757 N1758 1.613 . S
S1757 N1759 1.610 . S
N1758 S1757 1.613 . S
N1758 C1761 1.350 . S
N1759 S1757 1.610 . S
N1759 C1760 1.351 . S
C1760 C1754 1.428 . S
C1760 N1759 1.351 . S
C1760 C1761 1.434 . S
C1761 C1752 1.429 . S
C1761 N1758 1.350 . S
C1761 C1760 1.434 . S
C1762 C1763 1.369 . S
C1762 C1764 1.419 . S
C1762 H1766 0.930 . S
C1763 C1762 1.369 . S
C1763 C1772 1.429 . S
C1764 C1762 1.419 . S
C1764 C1765 1.363 . S
C1764 H1767 0.929 . S
C1765 C1764 1.363 . S
C1765 C1771 1.428 . S
H1766 C1762 0.930 . S
H1767 C1764 0.929 . S
S1768 N1769 1.613 . S
S1768 N1770 1.610 . S
N1769 S1768 1.613 . S
N1769 C1772 1.350 . S
N1770 S1768 1.610 . S
N1770 C1771 1.351 . S
C1771 C1765 1.428 . S
C1771 N1770 1.351 . S
C1771 C1772 1.434 . S
C1772 C1763 1.429 . S
C1772 N1769 1.350 . S
C1772 C1771 1.434 . S
C1773 C1774 1.369 . S
C1773 C1775 1.419 . S
C1773 H1777 0.930 . S
C1774 C1773 1.369 . S
C1774 C1783 1.429 . S
C1775 C1773 1.419 . S
C1775 C1776 1.363 . S
C1775 H1778 0.929 . S
C1776 C1775 1.363 . S
C1776 C1782 1.428 . S
H1777 C1773 0.930 . S
H1778 C1775 0.929 . S
S1779 N1780 1.613 1_655 S
S1779 N1781 1.610 . S
N1780 S1779 1.613 1_455 S
N1780 C1783 1.350 1_455 S
N1781 S1779 1.610 . S
N1781 C1782 1.351 . S
C1782 C1776 1.428 . S
C1782 N1781 1.351 . S
C1782 C1783 1.434 . S
C1783 C1774 1.429 . S
C1783 N1780 1.350 1_655 S
C1783 C1782 1.434 . S
C1784 C1785 1.369 . S
C1784 C1786 1.419 . S
C1784 H1788 0.930 . S
C1785 C1784 1.369 . S
C1785 C1794 1.429 . S
C1786 C1784 1.419 . S
C1786 C1787 1.363 . S
C1786 H1789 0.929 . S
C1787 C1786 1.363 . S
C1787 C1793 1.428 . S
H1788 C1784 0.930 . S
H1789 C1786 0.929 . S
S1790 N1791 1.613 . S
S1790 N1792 1.610 . S
N1791 S1790 1.613 . S
N1791 C1794 1.350 . S
N1792 S1790 1.610 . S
N1792 C1793 1.351 . S
C1793 C1787 1.428 . S
C1793 N1792 1.351 . S
C1793 C1794 1.434 . S
C1794 C1785 1.429 . S
C1794 N1791 1.350 . S
C1794 C1793 1.434 . S
C1795 C1796 1.369 . S
C1795 C1797 1.419 . S
C1795 H1799 0.930 . S
C1796 C1795 1.369 . S
C1796 C1805 1.429 . S
C1797 C1795 1.419 . S
C1797 C1798 1.363 . S
C1797 H1800 0.929 . S
C1798 C1797 1.363 . S
C1798 C1804 1.428 . S
H1799 C1795 0.930 . S
H1800 C1797 0.929 . S
S1801 N1802 1.613 . S
S1801 N1803 1.610 . S
N1802 S1801 1.613 . S
N1802 C1805 1.350 . S
N1803 S1801 1.610 . S
N1803 C1804 1.351 . S
C1804 C1798 1.428 . S
C1804 N1803 1.351 . S
C1804 C1805 1.434 . S
C1805 C1796 1.429 . S
C1805 N1802 1.350 . S
C1805 C1804 1.434 . S
C1806 C1807 1.369 . S
C1806 C1808 1.419 . S
C1806 H1810 0.930 . S
C1807 C1806 1.369 . S
C1807 C1816 1.429 . S
C1808 C1806 1.419 . S
C1808 C1809 1.363 . S
C1808 H1811 0.929 . S
C1809 C1808 1.363 . S
C1809 C1815 1.428 . S
H1810 C1806 0.930 . S
H1811 C1808 0.929 . S
S1812 N1813 1.613 . S
S1812 N1814 1.610 . S
N1813 S1812 1.613 . S
N1813 C1816 1.350 . S
N1814 S1812 1.610 . S
N1814 C1815 1.351 . S
C1815 C1809 1.428 . S
C1815 N1814 1.351 . S
C1815 C1816 1.434 . S
C1816 C1807 1.429 . S
C1816 N1813 1.350 . S
C1816 C1815 1.434 . S
C1817 C1818 1.369 . S
C1817 C1819 1.419 . S
C1817 H1821 0.930 . S
C1818 C1817 1.369 . S
C1818 C1827 1.429 . S
C1819 C1817 1.419 . S
C1819 C1820 1.363 . S
C1819 H1822 0.929 . S
C1820 C1819 1.363 . S
C1820 C1826 1.428 . S
H1821 C1817 0.930 . S
H1822 C1819 0.929 . S
S1823 N1824 1.613 . S
S1823 N1825 1.610 . S
N1824 S1823 1.613 . S
N1824 C1827 1.350 . S
N1825 S1823 1.610 . S
N1825 C1826 1.351 . S
C1826 C1820 1.428 . S
C1826 N1825 1.351 . S
C1826 C1827 1.434 . S
C1827 C1818 1.429 . S
C1827 N1824 1.350 . S
C1827 C1826 1.434 . S
C1828 C1829 1.369 . S
C1828 C1830 1.419 . S
C1828 H1832 0.930 . S
C1829 C1828 1.369 . S
C1829 C1838 1.429 . S
C1830 C1828 1.419 . S
C1830 C1831 1.363 . S
C1830 H1833 0.929 . S
C1831 C1830 1.363 . S
C1831 C1837 1.428 . S
H1832 C1828 0.930 . S
H1833 C1830 0.929 . S
S1834 N1835 1.613 . S
S1834 N1836 1.610 . S
N1835 S1834 1.613 . S
N1835 C1838 1.350 . S
N1836 S1834 1.610 . S
N1836 C1837 1.351 . S
C1837 C1831 1.428 . S
C1837 N1836 1.351 . S
C1837 C1838 1.434 . S
C1838 C1829 1.429 . S
C1838 N1835 1.350 . S
C1838 C1837 1.434 . S
C1839 C1840 1.369 . S
C1839 C1841 1.419 . S
C1839 H1843 0.930 . S
C1840 C1839 1.369 . S
C1840 C1849 1.429 . S
C1841 C1839 1.419 . S
C1841 C1842 1.363 . S
C1841 H1844 0.929 . S
C1842 C1841 1.363 . S
C1842 C1848 1.428 . S
H1843 C1839 0.930 . S
H1844 C1841 0.929 . S
S1845 N1846 1.613 . S
S1845 N1847 1.610 . S
N1846 S1845 1.613 . S
N1846 C1849 1.350 . S
N1847 S1845 1.610 . S
N1847 C1848 1.351 . S
C1848 C1842 1.428 . S
C1848 N1847 1.351 . S
C1848 C1849 1.434 . S
C1849 C1840 1.429 . S
C1849 N1846 1.350 . S
C1849 C1848 1.434 . S
C1850 C1851 1.369 . S
C1850 C1852 1.419 . S
C1850 H1854 0.930 . S
C1851 C1850 1.369 . S
C1851 C1860 1.429 . S
C1852 C1850 1.419 . S
C1852 C1853 1.363 . S
C1852 H1855 0.929 . S
C1853 C1852 1.363 . S
C1853 C1859 1.428 . S
H1854 C1850 0.930 . S
H1855 C1852 0.929 . S
S1856 N1857 1.613 . S
S1856 N1858 1.610 . S
N1857 S1856 1.613 . S
N1857 C1860 1.350 . S
N1858 S1856 1.610 . S
N1858 C1859 1.351 . S
C1859 C1853 1.428 . S
C1859 N1858 1.351 . S
C1859 C1860 1.434 . S
C1860 C1851 1.429 . S
C1860 N1857 1.350 . S
C1860 C1859 1.434 . S
C1861 C1862 1.369 . S
C1861 C1863 1.419 . S
C1861 H1865 0.930 . S
C1862 C1861 1.369 . S
C1862 C1871 1.429 . S
C1863 C1861 1.419 . S
C1863 C1864 1.363 . S
C1863 H1866 0.929 . S
C1864 C1863 1.363 . S
C1864 C1870 1.428 . S
H1865 C1861 0.930 . S
H1866 C1863 0.929 . S
S1867 N1868 1.613 1_545 S
S1867 N1869 1.610 . S
N1868 S1867 1.613 1_565 S
N1868 C1871 1.350 . S
N1869 S1867 1.610 . S
N1869 C1870 1.351 1_545 S
C1870 C1864 1.428 . S
C1870 N1869 1.351 1_565 S
C1870 C1871 1.434 . S
C1871 C1862 1.429 . S
C1871 N1868 1.350 . S
C1871 C1870 1.434 . S
C1872 C1873 1.369 . S
C1872 C1874 1.419 . S
C1872 H1876 0.930 . S
C1873 C1872 1.369 . S
C1873 C1882 1.429 . S
C1874 C1872 1.419 . S
C1874 C1875 1.363 . S
C1874 H1877 0.929 . S
C1875 C1874 1.363 . S
C1875 C1881 1.428 . S
H1876 C1872 0.930 . S
H1877 C1874 0.929 . S
S1878 N1879 1.613 . S
S1878 N1880 1.610 . S
N1879 S1878 1.613 . S
N1879 C1882 1.350 . S
N1880 S1878 1.610 . S
N1880 C1881 1.351 . S
C1881 C1875 1.428 . S
C1881 N1880 1.351 . S
C1881 C1882 1.434 . S
C1882 C1873 1.429 . S
C1882 N1879 1.350 . S
C1882 C1881 1.434 . S
C1883 C1884 1.369 . S
C1883 C1885 1.419 . S
C1883 H1887 0.930 . S
C1884 C1883 1.369 . S
C1884 C1893 1.429 . S
C1885 C1883 1.419 . S
C1885 C1886 1.363 . S
C1885 H1888 0.929 . S
C1886 C1885 1.363 . S
C1886 C1892 1.428 . S
H1887 C1883 0.930 . S
H1888 C1885 0.929 . S
S1889 N1890 1.613 . S
S1889 N1891 1.610 . S
N1890 S1889 1.613 . S
N1890 C1893 1.350 . S
N1891 S1889 1.610 . S
N1891 C1892 1.351 . S
C1892 C1886 1.428 . S
C1892 N1891 1.351 . S
C1892 C1893 1.434 . S
C1893 C1884 1.429 . S
C1893 N1890 1.350 . S
C1893 C1892 1.434 . S
C1894 C1895 1.369 . S
C1894 C1896 1.419 . S
C1894 H1898 0.930 . S
C1895 C1894 1.369 . S
C1895 C1904 1.429 . S
C1896 C1894 1.419 . S
C1896 C1897 1.363 . S
C1896 H1899 0.929 . S
C1897 C1896 1.363 . S
C1897 C1903 1.428 . S
H1898 C1894 0.930 . S
H1899 C1896 0.929 . S
S1900 N1901 1.613 . S
S1900 N1902 1.610 . S
N1901 S1900 1.613 . S
N1901 C1904 1.350 . S
N1902 S1900 1.610 . S
N1902 C1903 1.351 . S
C1903 C1897 1.428 . S
C1903 N1902 1.351 . S
C1903 C1904 1.434 . S
C1904 C1895 1.429 . S
C1904 N1901 1.350 . S
C1904 C1903 1.434 . S
C1905 C1906 1.369 . S
C1905 C1907 1.419 . S
C1905 H1909 0.930 . S
C1906 C1905 1.369 . S
C1906 C1915 1.429 . S
C1907 C1905 1.419 . S
C1907 C1908 1.363 . S
C1907 H1910 0.929 . S
C1908 C1907 1.363 . S
C1908 C1914 1.428 . S
H1909 C1905 0.930 . S
H1910 C1907 0.929 . S
S1911 N1912 1.613 . S
S1911 N1913 1.610 . S
N1912 S1911 1.613 . S
N1912 C1915 1.350 . S
N1913 S1911 1.610 . S
N1913 C1914 1.351 . S
C1914 C1908 1.428 . S
C1914 N1913 1.351 . S
C1914 C1915 1.434 . S
C1915 C1906 1.429 . S
C1915 N1912 1.350 . S
C1915 C1914 1.434 . S
C1916 C1917 1.369 . S
C1916 C1918 1.419 . S
C1916 H1920 0.930 . S
C1917 C1916 1.369 . S
C1917 C1926 1.429 . S
C1918 C1916 1.419 . S
C1918 C1919 1.363 . S
C1918 H1921 0.929 . S
C1919 C1918 1.363 . S
C1919 C1925 1.428 . S
H1920 C1916 0.930 . S
H1921 C1918 0.929 . S
S1922 N1923 1.613 . S
S1922 N1924 1.610 . S
N1923 S1922 1.613 . S
N1923 C1926 1.350 . S
N1924 S1922 1.610 . S
N1924 C1925 1.351 . S
C1925 C1919 1.428 . S
C1925 N1924 1.351 . S
C1925 C1926 1.434 . S
C1926 C1917 1.429 . S
C1926 N1923 1.350 . S
C1926 C1925 1.434 . S
C1927 C1928 1.369 . S
C1927 C1929 1.419 . S
C1927 H1931 0.930 . S
C1928 C1927 1.369 . S
C1928 C1937 1.429 . S
C1929 C1927 1.419 . S
C1929 C1930 1.363 . S
C1929 H1932 0.929 . S
C1930 C1929 1.363 . S
C1930 C1936 1.428 . S
H1931 C1927 0.930 . S
H1932 C1929 0.929 . S
S1933 N1934 1.613 . S
S1933 N1935 1.610 . S
N1934 S1933 1.613 . S
N1934 C1937 1.350 . S
N1935 S1933 1.610 . S
N1935 C1936 1.351 . S
C1936 C1930 1.428 . S
C1936 N1935 1.351 . S
C1936 C1937 1.434 . S
C1937 C1928 1.429 . S
C1937 N1934 1.350 . S
C1937 C1936 1.434 . S
C1938 C1939 1.369 . S
C1938 C1940 1.419 . S
C1938 H1942 0.930 . S
C1939 C1938 1.369 . S
C1939 C1948 1.429 . S
C1940 C1938 1.419 . S
C1940 C1941 1.363 . S
C1940 H1943 0.929 . S
C1941 C1940 1.363 . S
C1941 C1947 1.428 . S
H1942 C1938 0.930 . S
H1943 C1940 0.929 . S
S1944 N1945 1.613 . S
S1944 N1946 1.610 . S
N1945 S1944 1.613 . S
N1945 C1948 1.350 . S
N1946 S1944 1.610 . S
N1946 C1947 1.351 . S
C1947 C1941 1.428 . S
C1947 N1946 1.351 . S
C1947 C1948 1.434 . S
C1948 C1939 1.429 . S
C1948 N1945 1.350 . S
C1948 C1947 1.434 . S
C1949 C1950 1.369 . S
C1949 C1951 1.419 . S
C1949 H1953 0.930 . S
C1950 C1949 1.369 . S
C1950 C1959 1.429 . S
C1951 C1949 1.419 . S
C1951 C1952 1.363 . S
C1951 H1954 0.929 . S
C1952 C1951 1.363 . S
C1952 C1958 1.428 . S
H1953 C1949 0.930 . S
H1954 C1951 0.929 . S
S1955 N1956 1.613 . S
S1955 N1957 1.610 . S
N1956 S1955 1.613 . S
N1956 C1959 1.350 . S
N1957 S1955 1.610 . S
N1957 C1958 1.351 . S
C1958 C1952 1.428 . S
C1958 N1957 1.351 . S
C1958 C1959 1.434 . S
C1959 C1950 1.429 . S
C1959 N1956 1.350 . S
C1959 C1958 1.434 . S
C1960 C1961 1.369 . S
C1960 C1962 1.419 . S
C1960 H1964 0.930 . S
C1961 C1960 1.369 . S
C1961 C1970 1.429 . S
C1962 C1960 1.419 . S
C1962 C1963 1.363 . S
C1962 H1965 0.929 . S
C1963 C1962 1.363 . S
C1963 C1969 1.428 . S
H1964 C1960 0.930 . S
H1965 C1962 0.929 . S
S1966 N1967 1.613 . S
S1966 N1968 1.610 . S
N1967 S1966 1.613 . S
N1967 C1970 1.350 . S
N1968 S1966 1.610 . S
N1968 C1969 1.351 . S
C1969 C1963 1.428 . S
C1969 N1968 1.351 . S
C1969 C1970 1.434 . S
C1970 C1961 1.429 . S
C1970 N1967 1.350 . S
C1970 C1969 1.434 . S
C1971 C1972 1.369 . S
C1971 C1973 1.419 . S
C1971 H1975 0.930 . S
C1972 C1971 1.369 . S
C1972 C1981 1.429 . S
C1973 C1971 1.419 . S
C1973 C1974 1.363 . S
C1973 H1976 0.929 . S
C1974 C1973 1.363 . S
C1974 C1980 1.428 . S
H1975 C1971 0.930 . S
H1976 C1973 0.929 . S
S1977 N1978 1.613 . S
S1977 N1979 1.610 . S
N1978 S1977 1.613 . S
N1978 C1981 1.350 . S
N1979 S1977 1.610 . S
N1979 C1980 1.351 . S
C1980 C1974 1.428 . S
C1980 N1979 1.351 . S
C1980 C1981 1.434 . S
C1981 C1972 1.429 . S
C1981 N1978 1.350 . S
C1981 C1980 1.434 . S
C1982 C1983 1.369 . S
C1982 C1984 1.419 . S
C1982 H1986 0.930 . S
C1983 C1982 1.369 . S
C1983 C1992 1.429 . S
C1984 C1982 1.419 . S
C1984 C1985 1.363 . S
C1984 H1987 0.929 . S
C1985 C1984 1.363 . S
C1985 C1991 1.428 . S
H1986 C1982 0.930 . S
H1987 C1984 0.929 . S
S1988 N1989 1.613 . S
S1988 N1990 1.610 . S
N1989 S1988 1.613 . S
N1989 C1992 1.350 . S
N1990 S1988 1.610 . S
N1990 C1991 1.351 . S
C1991 C1985 1.428 . S
C1991 N1990 1.351 . S
C1991 C1992 1.434 . S
C1992 C1983 1.429 . S
C1992 N1989 1.350 . S
C1992 C1991 1.434 . S
C1993 C1994 1.369 . S
C1993 C1995 1.419 . S
C1993 H1997 0.930 . S
C1994 C1993 1.369 . S
C1994 C2003 1.429 . S
C1995 C1993 1.419 . S
C1995 C1996 1.363 . S
C1995 H1998 0.929 . S
C1996 C1995 1.363 . S
C1996 C2002 1.428 . S
H1997 C1993 0.930 . S
H1998 C1995 0.929 . S
S1999 N2000 1.613 . S
S1999 N2001 1.610 . S
N2000 S1999 1.613 . S
N2000 C2003 1.350 . S
N2001 S1999 1.610 . S
N2001 C2002 1.351 . S
C2002 C1996 1.428 . S
C2002 N2001 1.351 . S
C2002 C2003 1.434 . S
C2003 C1994 1.429 . S
C2003 N2000 1.350 . S
C2003 C2002 1.434 . S
C2004 C2005 1.369 . S
C2004 C2006 1.419 . S
C2004 H2008 0.930 . S
C2005 C2004 1.369 . S
C2005 C2014 1.429 . S
C2006 C2004 1.419 . S
C2006 C2007 1.363 . S
C2006 H2009 0.929 . S
C2007 C2006 1.363 . S
C2007 C2013 1.428 . S
H2008 C2004 0.930 . S
H2009 C2006 0.929 . S
S2010 N2011 1.613 . S
S2010 N2012 1.610 . S
N2011 S2010 1.613 . S
N2011 C2014 1.350 . S
N2012 S2010 1.610 . S
N2012 C2013 1.351 . S
C2013 C2007 1.428 . S
C2013 N2012 1.351 . S
C2013 C2014 1.434 . S
C2014 C2005 1.429 . S
C2014 N2011 1.350 . S
C2014 C2013 1.434 . S
C2015 C2016 1.369 . S
C2015 C2017 1.419 . S
C2015 H2019 0.930 . S
C2016 C2015 1.369 . S
C2016 C2025 1.429 . S
C2017 C2015 1.419 . S
C2017 C2018 1.363 . S
C2017 H2020 0.929 . S
C2018 C2017 1.363 . S
C2018 C2024 1.428 . S
H2019 C2015 0.930 . S
H2020 C2017 0.929 . S
S2021 N2022 1.613 . S
S2021 N2023 1.610 . S
N2022 S2021 1.613 . S
N2022 C2025 1.350 . S
N2023 S2021 1.610 . S
N2023 C2024 1.351 . S
C2024 C2018 1.428 . S
C2024 N2023 1.351 . S
C2024 C2025 1.434 . S
C2025 C2016 1.429 . S
C2025 N2022 1.350 . S
C2025 C2024 1.434 . S
C2026 C2027 1.369 . S
C2026 C2028 1.419 . S
C2026 H2030 0.930 . S
C2027 C2026 1.369 . S
C2027 C2036 1.429 . S
C2028 C2026 1.419 . S
C2028 C2029 1.363 . S
C2028 H2031 0.929 . S
C2029 C2028 1.363 . S
C2029 C2035 1.428 . S
H2030 C2026 0.930 . S
H2031 C2028 0.929 . S
S2032 N2033 1.613 . S
S2032 N2034 1.610 . S
N2033 S2032 1.613 . S
N2033 C2036 1.350 . S
N2034 S2032 1.610 . S
N2034 C2035 1.351 . S
C2035 C2029 1.428 . S
C2035 N2034 1.351 . S
C2035 C2036 1.434 . S
C2036 C2027 1.429 . S
C2036 N2033 1.350 . S
C2036 C2035 1.434 . S
C2037 C2038 1.369 . S
C2037 C2039 1.419 . S
C2037 H2041 0.930 . S
C2038 C2037 1.369 . S
C2038 C2047 1.429 . S
C2039 C2037 1.419 . S
C2039 C2040 1.363 . S
C2039 H2042 0.929 . S
C2040 C2039 1.363 . S
C2040 C2046 1.428 . S
H2041 C2037 0.930 . S
H2042 C2039 0.929 . S
S2043 N2044 1.613 . S
S2043 N2045 1.610 . S
N2044 S2043 1.613 . S
N2044 C2047 1.350 . S
N2045 S2043 1.610 . S
N2045 C2046 1.351 . S
C2046 C2040 1.428 . S
C2046 N2045 1.351 . S
C2046 C2047 1.434 . S
C2047 C2038 1.429 . S
C2047 N2044 1.350 . S
C2047 C2046 1.434 . S
C2048 C2049 1.369 . S
C2048 C2050 1.419 . S
C2048 H2052 0.930 . S
C2049 C2048 1.369 . S
C2049 C2058 1.429 . S
C2050 C2048 1.419 . S
C2050 C2051 1.363 . S
C2050 H2053 0.929 . S
C2051 C2050 1.363 . S
C2051 C2057 1.428 . S
H2052 C2048 0.930 . S
H2053 C2050 0.929 . S
S2054 N2055 1.613 . S
S2054 N2056 1.610 . S
N2055 S2054 1.613 . S
N2055 C2058 1.350 . S
N2056 S2054 1.610 . S
N2056 C2057 1.351 . S
C2057 C2051 1.428 . S
C2057 N2056 1.351 . S
C2057 C2058 1.434 . S
C2058 C2049 1.429 . S
C2058 N2055 1.350 . S
C2058 C2057 1.434 . S
C2059 C2060 1.369 . S
C2059 C2061 1.419 . S
C2059 H2063 0.930 . S
C2060 C2059 1.369 . S
C2060 C2069 1.429 1_565 S
C2061 C2059 1.419 . S
C2061 C2062 1.363 1_455 S
C2061 H2064 0.929 . S
C2062 C2061 1.363 1_655 S
C2062 C2068 1.428 . S
H2063 C2059 0.930 . S
H2064 C2061 0.929 . S
S2065 N2066 1.613 . S
S2065 N2067 1.610 . S
N2066 S2065 1.613 . S
N2066 C2069 1.350 1_655 S
N2067 S2065 1.610 . S
N2067 C2068 1.351 1_545 S
C2068 C2062 1.428 . S
C2068 N2067 1.351 1_565 S
C2068 C2069 1.434 1_665 S
C2069 C2060 1.429 1_545 S
C2069 N2066 1.350 1_455 S
C2069 C2068 1.434 1_445 S
C2070 C2071 1.369 . S
C2070 C2072 1.419 . S
C2070 H2074 0.930 . S
C2071 C2070 1.369 . S
C2071 C2080 1.429 . S
C2072 C2070 1.419 . S
C2072 C2073 1.363 . S
C2072 H2075 0.929 . S
C2073 C2072 1.363 . S
C2073 C2079 1.428 . S
H2074 C2070 0.930 . S
H2075 C2072 0.929 . S
S2076 N2077 1.613 . S
S2076 N2078 1.610 . S
N2077 S2076 1.613 . S
N2077 C2080 1.350 . S
N2078 S2076 1.610 . S
N2078 C2079 1.351 . S
C2079 C2073 1.428 . S
C2079 N2078 1.351 . S
C2079 C2080 1.434 . S
C2080 C2071 1.429 . S
C2080 N2077 1.350 . S
C2080 C2079 1.434 . S
C2081 C2082 1.369 1_565 S
C2081 C2083 1.419 1_564 S
C2081 H2085 0.930 . S
C2082 C2081 1.369 1_545 S
C2082 C2091 1.429 . S
C2083 C2081 1.419 1_546 S
C2083 C2084 1.363 . S
C2083 H2086 0.929 1_545 S
C2084 C2083 1.363 . S
C2084 C2090 1.428 1_556 S
H2085 C2081 0.930 . S
H2086 C2083 0.929 1_565 S
S2087 N2088 1.613 . S
S2087 N2089 1.610 . S
N2088 S2087 1.613 . S
N2088 C2091 1.350 . S
N2089 S2087 1.610 . S
N2089 C2090 1.351 . S
C2090 C2084 1.428 1_554 S
C2090 N2089 1.351 . S
C2090 C2091 1.434 . S
C2091 C2082 1.429 . S
C2091 N2088 1.350 . S
C2091 C2090 1.434 . S
C2092 C2093 1.369 . S
C2092 C2094 1.419 . S
C2092 H2096 0.930 . S
C2093 C2092 1.369 . S
C2093 C2102 1.429 . S
C2094 C2092 1.419 . S
C2094 C2095 1.363 . S
C2094 H2097 0.929 . S
C2095 C2094 1.363 . S
C2095 C2101 1.428 . S
H2096 C2092 0.930 . S
H2097 C2094 0.929 . S
S2098 N2099 1.613 . S
S2098 N2100 1.610 . S
N2099 S2098 1.613 . S
N2099 C2102 1.350 . S
N2100 S2098 1.610 . S
N2100 C2101 1.351 . S
C2101 C2095 1.428 . S
C2101 N2100 1.351 . S
C2101 C2102 1.434 . S
C2102 C2093 1.429 . S
C2102 N2099 1.350 . S
C2102 C2101 1.434 . S
C2103 C2104 1.365 1_545 S
C2103 C2105 1.417 1_545 S
C2103 H2107 0.936 . S
C2104 C2103 1.365 1_565 S
C2104 C2113 1.429 . S
C2105 C2103 1.417 1_565 S
C2105 C2106 1.363 . S
C2105 H2108 0.929 1_565 S
C2106 C2105 1.363 . S
C2106 C2112 1.428 . S
H2107 C2103 0.936 . S
H2108 C2105 0.929 1_545 S
S2109 N2110 1.613 . S
S2109 N2111 1.610 . S
N2110 S2109 1.613 . S
N2110 C2113 1.350 . S
N2111 S2109 1.610 . S
N2111 C2112 1.351 . S
C2112 C2106 1.428 . S
C2112 N2111 1.351 . S
C2112 C2113 1.434 . S
C2113 C2104 1.429 . S
C2113 N2110 1.350 . S
C2113 C2112 1.434 . S
C2114 C2115 1.369 . S
C2114 C2116 1.419 . S
C2114 H2118 0.930 . S
C2115 C2114 1.369 . S
C2115 C2124 1.429 . S
C2116 C2114 1.419 . S
C2116 C2117 1.363 . S
C2116 H2119 0.929 . S
C2117 C2116 1.363 . S
C2117 C2123 1.428 . S
H2118 C2114 0.930 . S
H2119 C2116 0.929 . S
S2120 N2121 1.613 . S
S2120 N2122 1.610 . S
N2121 S2120 1.613 . S
N2121 C2124 1.350 . S
N2122 S2120 1.610 . S
N2122 C2123 1.351 . S
C2123 C2117 1.428 . S
C2123 N2122 1.351 . S
C2123 C2124 1.434 . S
C2124 C2115 1.429 . S
C2124 N2121 1.350 . S
C2124 C2123 1.434 . S
C2125 C2126 1.369 . S
C2125 C2127 1.419 1_455 S
C2125 H2129 0.930 . S
C2126 C2125 1.369 . S
C2126 C2135 1.429 1_545 S
C2127 C2125 1.419 1_655 S
C2127 C2128 1.363 1_556 S
C2127 H2130 0.929 . S
C2128 C2127 1.363 1_554 S
C2128 C2134 1.428 1_655 S
H2129 C2125 0.930 . S
H2130 C2127 0.929 . S
S2131 N2132 1.654 . S
S2131 N2133 1.610 . S
N2132 S2131 1.654 . S
N2132 C2135 1.341 1_554 S
N2133 S2131 1.610 . S
N2133 C2134 1.351 1_565 S
C2134 C2128 1.428 1_455 S
C2134 N2133 1.351 1_545 S
C2134 C2135 1.434 1_544 S
C2135 C2126 1.429 1_565 S
C2135 N2132 1.341 1_556 S
C2135 C2134 1.434 1_566 S
C2136 C2137 1.369 . S
C2136 C2138 1.419 . S
C2136 H2140 0.930 . S
C2137 C2136 1.369 . S
C2137 C2146 1.429 . S
C2138 C2136 1.419 . S
C2138 C2139 1.363 . S
C2138 H2141 0.929 . S
C2139 C2138 1.363 . S
C2139 C2145 1.428 . S
H2140 C2136 0.930 . S
H2141 C2138 0.929 . S
S2142 N2143 1.613 . S
S2142 N2144 1.610 . S
N2143 S2142 1.613 . S
N2143 C2146 1.350 . S
N2144 S2142 1.610 . S
N2144 C2145 1.351 . S
C2145 C2139 1.428 . S
C2145 N2144 1.351 . S
C2145 C2146 1.434 . S
C2146 C2137 1.429 . S
C2146 N2143 1.350 . S
C2146 C2145 1.434 . S
C2147 C2148 1.369 . S
C2147 C2149 1.419 . S
C2147 H2151 0.930 . S
C2148 C2147 1.369 . S
C2148 C2157 1.429 . S
C2149 C2147 1.419 . S
C2149 C2150 1.363 . S
C2149 H2152 0.929 . S
C2150 C2149 1.363 . S
C2150 C2156 1.428 . S
H2151 C2147 0.930 . S
H2152 C2149 0.929 . S
S2153 N2154 1.613 . S
S2153 N2155 1.610 . S
N2154 S2153 1.613 . S
N2154 C2157 1.350 . S
N2155 S2153 1.610 . S
N2155 C2156 1.351 . S
C2156 C2150 1.428 . S
C2156 N2155 1.351 . S
C2156 C2157 1.434 . S
C2157 C2148 1.429 . S
C2157 N2154 1.350 . S
C2157 C2156 1.434 . S
C2158 C2159 1.369 . S
C2158 C2160 1.419 . S
C2158 H2162 0.930 . S
C2159 C2158 1.369 . S
C2159 C2168 1.429 . S
C2160 C2158 1.419 . S
C2160 C2161 1.363 . S
C2160 H2163 0.929 . S
C2161 C2160 1.363 . S
C2161 C2167 1.428 . S
H2162 C2158 0.930 . S
H2163 C2160 0.929 . S
S2164 N2165 1.613 . S
S2164 N2166 1.610 . S
N2165 S2164 1.613 . S
N2165 C2168 1.350 . S
N2166 S2164 1.610 . S
N2166 C2167 1.351 . S
C2167 C2161 1.428 . S
C2167 N2166 1.351 . S
C2167 C2168 1.434 . S
C2168 C2159 1.429 . S
C2168 N2165 1.350 . S
C2168 C2167 1.434 . S
C2169 C2170 1.369 . S
C2169 C2171 1.419 . S
C2169 H2173 0.930 . S
C2170 C2169 1.369 . S
C2170 C2179 1.429 . S
C2171 C2169 1.419 . S
C2171 C2172 1.363 . S
C2171 H2174 0.929 . S
C2172 C2171 1.363 . S
C2172 C2178 1.428 . S
H2173 C2169 0.930 . S
H2174 C2171 0.929 . S
S2175 N2176 1.613 . S
S2175 N2177 1.610 . S
N2176 S2175 1.613 . S
N2176 C2179 1.350 . S
N2177 S2175 1.610 . S
N2177 C2178 1.351 . S
C2178 C2172 1.428 . S
C2178 N2177 1.351 . S
C2178 C2179 1.434 . S
C2179 C2170 1.429 . S
C2179 N2176 1.350 . S
C2179 C2178 1.434 . S
C2180 C2181 1.369 . S
C2180 C2182 1.419 . S
C2180 H2184 0.930 . S
C2181 C2180 1.369 . S
C2181 C2190 1.429 . S
C2182 C2180 1.419 . S
C2182 C2183 1.363 1_554 S
C2182 H2185 0.929 . S
C2183 C2182 1.363 1_556 S
C2183 C2189 1.428 . S
H2184 C2180 0.930 . S
H2185 C2182 0.929 . S
S2186 N2187 1.613 . S
S2186 N2188 1.610 . S
N2187 S2186 1.613 . S
N2187 C2190 1.350 1_556 S
N2188 S2186 1.610 . S
N2188 C2189 1.351 . S
C2189 C2183 1.428 . S
C2189 N2188 1.351 . S
C2189 C2190 1.434 1_556 S
C2190 C2181 1.429 . S
C2190 N2187 1.350 1_554 S
C2190 C2189 1.434 1_554 S
C2191 C2192 1.369 . S
C2191 C2193 1.419 1_455 S
C2191 H2195 0.930 . S
C2192 C2191 1.369 . S
C2192 C2201 1.429 1_455 S
C2193 C2191 1.419 1_655 S
C2193 C2194 1.363 . S
C2193 H2196 0.929 . S
C2194 C2193 1.363 . S
C2194 C2200 1.428 . S
H2195 C2191 0.930 . S
H2196 C2193 0.929 . S
S2197 N2198 1.613 1_655 S
S2197 N2199 1.610 . S
N2198 S2197 1.613 1_455 S
N2198 C2201 1.350 1_455 S
N2199 S2197 1.610 . S
N2199 C2200 1.351 . S
C2200 C2194 1.428 . S
C2200 N2199 1.351 . S
C2200 C2201 1.434 . S
C2201 C2192 1.429 1_655 S
C2201 N2198 1.350 1_655 S
C2201 C2200 1.434 . S
C2202 C2203 1.369 1_556 S
C2202 C2204 1.419 1_455 S
C2202 H2206 0.930 . S
C2203 C2202 1.369 1_554 S
C2203 C2212 1.429 1_455 S
C2204 C2202 1.419 1_655 S
C2204 C2205 1.363 . S
C2204 H2207 0.929 . S
C2205 C2204 1.363 . S
C2205 C2211 1.428 . S
H2206 C2202 0.930 . S
H2207 C2204 0.929 . S
S2208 N2209 1.613 . S
S2208 N2210 1.610 1_554 S
N2209 S2208 1.613 . S
N2209 C2212 1.350 . S
N2210 S2208 1.610 1_556 S
N2210 C2211 1.351 . S
C2211 C2205 1.428 . S
C2211 N2210 1.351 . S
C2211 C2212 1.434 1_556 S
C2212 C2203 1.429 1_655 S
C2212 N2209 1.350 . S
C2212 C2211 1.434 1_554 S
C2213 C2214 1.369 . S
C2213 C2215 1.419 . S
C2213 H2217 0.930 . S
C2214 C2213 1.369 . S
C2214 C2223 1.429 . S
C2215 C2213 1.419 . S
C2215 C2216 1.363 . S
C2215 H2218 0.929 . S
C2216 C2215 1.363 . S
C2216 C2222 1.428 . S
H2217 C2213 0.930 . S
H2218 C2215 0.929 . S
S2219 N2220 1.613 . S
S2219 N2221 1.610 . S
N2220 S2219 1.613 . S
N2220 C2223 1.350 . S
N2221 S2219 1.610 . S
N2221 C2222 1.351 . S
C2222 C2216 1.428 . S
C2222 N2221 1.351 . S
C2222 C2223 1.434 . S
C2223 C2214 1.429 . S
C2223 N2220 1.350 . S
C2223 C2222 1.434 . S
C2224 C2225 1.369 1_565 S
C2224 C2226 1.419 . S
C2224 H2228 0.930 . S
C2225 C2224 1.369 1_545 S
C2225 C2234 1.429 . S
C2226 C2224 1.419 . S
C2226 C2227 1.363 . S
C2226 H2229 0.929 . S
C2227 C2226 1.363 . S
C2227 C2233 1.428 1_565 S
H2228 C2224 0.930 . S
H2229 C2226 0.929 . S
S2230 N2231 1.613 . S
S2230 N2232 1.610 . S
N2231 S2230 1.613 . S
N2231 C2234 1.350 . S
N2232 S2230 1.610 . S
N2232 C2233 1.351 . S
C2233 C2227 1.428 1_545 S
C2233 N2232 1.351 . S
C2233 C2234 1.434 . S
C2234 C2225 1.429 . S
C2234 N2231 1.350 . S
C2234 C2233 1.434 . S
C2235 C2236 1.369 . S
C2235 C2237 1.419 . S
C2235 H2239 0.930 . S
C2236 C2235 1.369 . S
C2236 C2245 1.429 . S
C2237 C2235 1.419 . S
C2237 C2238 1.363 . S
C2237 H2240 0.929 . S
C2238 C2237 1.363 . S
C2238 C2244 1.428 . S
H2239 C2235 0.930 . S
H2240 C2237 0.929 . S
S2241 N2242 1.613 . S
S2241 N2243 1.610 . S
N2242 S2241 1.613 . S
N2242 C2245 1.350 . S
N2243 S2241 1.610 . S
N2243 C2244 1.351 . S
C2244 C2238 1.428 . S
C2244 N2243 1.351 . S
C2244 C2245 1.434 . S
C2245 C2236 1.429 . S
C2245 N2242 1.350 . S
C2245 C2244 1.434 . S
C2246 C2247 1.369 . S
C2246 C2248 1.419 . S
C2246 H2250 0.930 . S
C2247 C2246 1.369 . S
C2247 C2256 1.429 1_545 S
C2248 C2246 1.419 . S
C2248 C2249 1.363 1_545 S
C2248 H2251 0.929 . S
C2249 C2248 1.363 1_565 S
C2249 C2255 1.428 . S
H2250 C2246 0.930 . S
H2251 C2248 0.929 . S
S2252 N2253 1.613 . S
S2252 N2254 1.610 . S
N2253 S2252 1.613 . S
N2253 C2256 1.350 . S
N2254 S2252 1.610 . S
N2254 C2255 1.351 . S
C2255 C2249 1.428 . S
C2255 N2254 1.351 . S
C2255 C2256 1.434 . S
C2256 C2247 1.429 1_565 S
C2256 N2253 1.350 . S
C2256 C2255 1.434 . S
C2257 C2258 1.369 . S
C2257 C2259 1.419 1_554 S
C2257 H2261 0.930 . S
C2258 C2257 1.369 . S
C2258 C2267 1.429 . S
C2259 C2257 1.419 1_556 S
C2259 C2260 1.363 . S
C2259 H2262 0.947 . S
C2260 C2259 1.363 . S
C2260 C2266 1.428 . S
H2261 C2257 0.930 . S
H2262 C2259 0.947 . S
S2263 N2264 1.613 . S
S2263 N2265 1.610 1_554 S
N2264 S2263 1.613 . S
N2264 C2267 1.350 . S
N2265 S2263 1.610 1_556 S
N2265 C2266 1.351 . S
C2266 C2260 1.428 . S
C2266 N2265 1.351 . S
C2266 C2267 1.434 1_556 S
C2267 C2258 1.429 . S
C2267 N2264 1.350 . S
C2267 C2266 1.434 1_554 S
C2268 C2269 1.369 . S
C2268 C2270 1.419 1_545 S
C2268 H2272 0.930 . S
C2269 C2268 1.369 . S
C2269 C2278 1.429 . S
C2270 C2268 1.419 1_565 S
C2270 C2271 1.363 . S
C2270 H2273 0.929 . S
C2271 C2270 1.363 . S
C2271 C2277 1.428 . S
H2272 C2268 0.930 . S
H2273 C2270 0.929 . S
S2274 N2275 1.613 1_565 S
S2274 N2276 1.610 . S
N2275 S2274 1.613 1_545 S
N2275 C2278 1.350 . S
N2276 S2274 1.610 . S
N2276 C2277 1.351 . S
C2277 C2271 1.428 . S
C2277 N2276 1.351 . S
C2277 C2278 1.434 1_565 S
C2278 C2269 1.429 . S
C2278 N2275 1.350 . S
C2278 C2277 1.434 1_545 S
C2279 C2280 1.369 . S
C2279 C2281 1.419 . S
C2279 H2283 0.930 . S
C2280 C2279 1.369 . S
C2280 C2289 1.429 1_565 S
C2281 C2279 1.419 . S
C2281 C2282 1.363 . S
C2281 H2284 0.929 . S
C2282 C2281 1.363 . S
C2282 C2288 1.428 1_565 S
H2283 C2279 0.930 . S
H2284 C2281 0.929 . S
S2285 N2286 1.613 . S
S2285 N2287 1.610 . S
N2286 S2285 1.613 . S
N2286 C2289 1.350 . S
N2287 S2285 1.610 . S
N2287 C2288 1.351 . S
C2288 C2282 1.428 1_545 S
C2288 N2287 1.351 . S
C2288 C2289 1.434 . S
C2289 C2280 1.429 1_545 S
C2289 N2286 1.350 . S
C2289 C2288 1.434 . S
C2290 C2291 1.369 . S
C2290 C2292 1.419 1_545 S
C2290 H2294 0.930 . S
C2291 C2290 1.369 . S
C2291 C2300 1.429 . S
C2292 C2290 1.419 1_565 S
C2292 C2293 1.363 . S
C2292 H2295 0.929 . S
C2293 C2292 1.363 . S
C2293 C2299 1.428 . S
H2294 C2290 0.930 . S
H2295 C2292 0.929 . S
S2296 N2297 1.613 1_565 S
S2296 N2298 1.610 . S
N2297 S2296 1.613 1_545 S
N2297 C2300 1.350 . S
N2298 S2296 1.610 . S
N2298 C2299 1.351 . S
C2299 C2293 1.428 . S
C2299 N2298 1.351 . S
C2299 C2300 1.434 1_565 S
C2300 C2291 1.429 . S
C2300 N2297 1.350 . S
C2300 C2299 1.434 1_545 S
C2301 C2302 1.369 1_554 S
C2301 C2303 1.419 . S
C2301 H2305 0.930 . S
C2302 C2301 1.369 1_556 S
C2302 C2311 1.429 . S
C2303 C2301 1.419 . S
C2303 C2304 1.363 . S
C2303 H2306 0.929 . S
C2304 C2303 1.363 . S
C2304 C2310 1.428 1_554 S
H2305 C2301 0.930 . S
H2306 C2303 0.929 . S
S2307 N2308 1.613 . S
S2307 N2309 1.610 . S
N2308 S2307 1.613 . S
N2308 C2311 1.350 . S
N2309 S2307 1.610 . S
N2309 C2310 1.351 . S
C2310 C2304 1.428 1_556 S
C2310 N2309 1.351 . S
C2310 C2311 1.434 . S
C2311 C2302 1.429 . S
C2311 N2308 1.350 . S
C2311 C2310 1.434 . S
C2312 C2313 1.369 . S
C2312 C2314 1.419 . S
C2312 H2316 0.930 . S
C2313 C2312 1.369 . S
C2313 C2322 1.429 . S
C2314 C2312 1.419 . S
C2314 C2315 1.363 . S
C2314 H2317 0.929 . S
C2315 C2314 1.363 . S
C2315 C2321 1.428 . S
H2316 C2312 0.930 . S
H2317 C2314 0.929 . S
S2318 N2319 1.613 . S
S2318 N2320 1.610 . S
N2319 S2318 1.613 . S
N2319 C2322 1.350 . S
N2320 S2318 1.610 . S
N2320 C2321 1.351 . S
C2321 C2315 1.428 . S
C2321 N2320 1.351 . S
C2321 C2322 1.434 . S
C2322 C2313 1.429 . S
C2322 N2319 1.350 . S
C2322 C2321 1.434 . S
C2323 C2324 1.424 . S
C2323 C2325 1.365 1_556 S
C2323 H2327 0.930 . S
C2324 C2323 1.424 . S
C2324 C2333 1.429 . S
C2325 C2323 1.365 1_554 S
C2325 C2326 1.363 . S
C2325 H2328 0.929 . S
C2326 C2325 1.363 . S
C2326 C2332 1.444 . S
H2327 C2323 0.930 . S
H2328 C2325 0.929 . S
S2329 N2330 1.613 . S
S2329 N2331 1.610 . S
N2330 S2329 1.613 . S
N2330 C2333 1.350 . S
N2331 S2329 1.610 . S
N2331 C2332 1.349 1_556 S
C2332 C2326 1.444 . S
C2332 N2331 1.349 1_554 S
C2332 C2333 1.419 1_554 S
C2333 C2324 1.429 . S
C2333 N2330 1.350 . S
C2333 C2332 1.419 1_556 S
C2334 C2335 1.369 . S
C2334 C2336 1.419 . S
C2334 H2338 0.930 . S
C2335 C2334 1.369 . S
C2335 C2344 1.429 . S
C2336 C2334 1.419 . S
C2336 C2337 1.363 . S
C2336 H2339 0.929 . S
C2337 C2336 1.363 . S
C2337 C2343 1.428 . S
H2338 C2334 0.930 . S
H2339 C2336 0.929 . S
S2340 N2341 1.613 . S
S2340 N2342 1.610 . S
N2341 S2340 1.613 . S
N2341 C2344 1.350 . S
N2342 S2340 1.610 . S
N2342 C2343 1.351 . S
C2343 C2337 1.428 . S
C2343 N2342 1.351 . S
C2343 C2344 1.434 . S
C2344 C2335 1.429 . S
C2344 N2341 1.350 . S
C2344 C2343 1.434 . S
C2345 C2346 1.369 . S
C2345 C2347 1.419 . S
C2345 H2349 0.930 . S
C2346 C2345 1.369 . S
C2346 C2355 1.429 . S
C2347 C2345 1.419 . S
C2347 C2348 1.363 . S
C2347 H2350 0.929 . S
C2348 C2347 1.363 . S
C2348 C2354 1.428 . S
H2349 C2345 0.930 . S
H2350 C2347 0.929 . S
S2351 N2352 1.613 . S
S2351 N2353 1.610 . S
N2352 S2351 1.613 . S
N2352 C2355 1.350 . S
N2353 S2351 1.610 . S
N2353 C2354 1.351 . S
C2354 C2348 1.428 . S
C2354 N2353 1.351 . S
C2354 C2355 1.434 . S
C2355 C2346 1.429 . S
C2355 N2352 1.350 . S
C2355 C2354 1.434 . S
C2356 C2357 1.369 . S
C2356 C2358 1.419 . S
C2356 H2360 0.930 . S
C2357 C2356 1.369 . S
C2357 C2366 1.429 . S
C2358 C2356 1.419 . S
C2358 C2359 1.363 . S
C2358 H2361 0.929 . S
C2359 C2358 1.363 . S
C2359 C2365 1.428 . S
H2360 C2356 0.930 . S
H2361 C2358 0.929 . S
S2362 N2363 1.613 . S
S2362 N2364 1.610 . S
N2363 S2362 1.613 . S
N2363 C2366 1.350 . S
N2364 S2362 1.610 . S
N2364 C2365 1.351 . S
C2365 C2359 1.428 . S
C2365 N2364 1.351 . S
C2365 C2366 1.434 . S
C2366 C2357 1.429 . S
C2366 N2363 1.350 . S
C2366 C2365 1.434 . S
C2367 C2368 1.369 . S
C2367 C2369 1.419 1_556 S
C2367 H2371 0.930 . S
C2368 C2367 1.369 . S
C2368 C2377 1.429 . S
C2369 C2367 1.419 1_554 S
C2369 C2370 1.363 . S
C2369 H2372 0.929 . S
C2370 C2369 1.363 . S
C2370 C2376 1.451 . S
H2371 C2367 0.930 . S
H2372 C2369 0.929 . S
S2373 N2374 1.613 . S
S2373 N2375 1.622 . S
N2374 S2373 1.613 . S
N2374 C2377 1.350 . S
N2375 S2373 1.622 . S
N2375 C2376 1.349 1_556 S
C2376 C2370 1.451 . S
C2376 N2375 1.349 1_554 S
C2376 C2377 1.410 1_554 S
C2377 C2368 1.429 . S
C2377 N2374 1.350 . S
C2377 C2376 1.410 1_556 S
C2378 C2379 1.369 . S
C2378 C2380 1.419 . S
C2378 H2382 0.930 . S
C2379 C2378 1.369 . S
C2379 C2388 1.429 . S
C2380 C2378 1.419 . S
C2380 C2381 1.363 . S
C2380 H2383 0.929 . S
C2381 C2380 1.363 . S
C2381 C2387 1.428 . S
H2382 C2378 0.930 . S
H2383 C2380 0.929 . S
S2384 N2385 1.613 . S
S2384 N2386 1.610 . S
N2385 S2384 1.613 . S
N2385 C2388 1.350 . S
N2386 S2384 1.610 . S
N2386 C2387 1.351 . S
C2387 C2381 1.428 . S
C2387 N2386 1.351 . S
C2387 C2388 1.434 . S
C2388 C2379 1.429 . S
C2388 N2385 1.350 . S
C2388 C2387 1.434 . S
C2389 C2390 1.369 . S
C2389 C2391 1.419 . S
C2389 H2393 0.930 . S
C2390 C2389 1.369 . S
C2390 C2399 1.429 . S
C2391 C2389 1.419 . S
C2391 C2392 1.363 . S
C2391 H2394 0.929 . S
C2392 C2391 1.363 . S
C2392 C2398 1.428 . S
H2393 C2389 0.930 . S
H2394 C2391 0.929 . S
S2395 N2396 1.613 . S
S2395 N2397 1.610 . S
N2396 S2395 1.613 . S
N2396 C2399 1.350 . S
N2397 S2395 1.610 . S
N2397 C2398 1.351 . S
C2398 C2392 1.428 . S
C2398 N2397 1.351 . S
C2398 C2399 1.434 . S
C2399 C2390 1.429 . S
C2399 N2396 1.350 . S
C2399 C2398 1.434 . S
C1697 C1469 1.665 . S
C1699 C29 1.702 . S
C1708 C82 1.317 1_655 S
C1710 C453 1.301 . S
C1719 C1363 1.673 . S
C1721 C135 1.698 . S
C1730 C188 1.319 . S
C1732 C559 1.300 . S
C1741 C241 1.704 . S
C1743 C1575 1.665 . S
C1752 C294 1.324 . S
C1754 C771 1.293 . S
C1763 C347 1.704 . S
C1765 C1681 1.667 . S
C1774 C400 1.324 1_655 S
C1776 C665 1.293 . S
C1785 C1045 2.001 . S
C1787 C462 2.038 . S
C1796 C38 1.442 . S
C1798 C506 1.440 . S
C1807 C939 2.003 . S
C1809 C568 2.038 . S
C1818 C612 1.442 . S
C1820 C144 1.438 . S
C1829 C1151 2.003 . S
C1831 C674 2.039 . S
C1840 C356 1.437 . S
C1842 C718 1.441 . S
C1851 C780 2.040 . S
C1853 C1257 1.998 . S
C1862 C250 1.438 . S
C1864 C824 1.442 . S
C1873 C877 1.703 . S
C1875 C621 1.665 . S
C1884 C930 1.324 . S
C1886 C1301 1.294 . S
C1895 C515 1.668 . S
C1897 C983 1.702 . S
C1906 C1407 1.301 . S
C1908 C1036 1.319 1_455 S
C1917 C727 1.664 . S
C1919 C1089 1.703 . S
C1928 C1619 1.302 . S
C1930 C1142 1.317 1_455 S
C1939 C833 1.667 . S
C1941 C1195 1.702 . S
C1950 C1248 1.316 . S
C1952 C1513 1.301 . S
C1961 C197 1.999 . S
C1963 C1310 2.040 . S
C1972 C1354 1.442 . S
C1974 C886 1.438 . S
C1983 C1416 2.040 . S
C1985 C91 1.998 . S
C1994 C1460 1.442 . S
C1996 C992 1.438 . S
C2005 C1522 2.040 . S
C2007 C303 2.001 . S
C2016 C1566 1.442 . S
C2018 C1204 1.438 . S
C2027 C1628 2.040 . S
C2029 C409 2.000 . S
C2038 C1672 1.443 . S
C2040 C1098 1.439 . S
C2049 C1294 1.632 . S
C2051 C39 1.659 . S
C2060 C92 2.371 . S
C2062 C516 2.331 . S
C2071 C1400 1.632 . S
C2073 C145 1.659 . S
C2082 C198 2.368 . S
C2084 C622 2.335 . S
C2093 C1506 1.634 . S
C2095 C251 1.658 . S
C2104 C304 2.371 . S
C2106 C728 2.332 . S
C2115 C1612 1.629 . S
C2117 C357 1.661 . S
C2126 C410 2.374 . S
C2128 C834 2.329 . S
C2137 C446 1.632 . S
C2139 C887 1.659 . S
C2148 C552 1.626 . S
C2150 C993 1.663 . S
C2159 C658 1.626 . S
C2161 C1099 1.663 . S
C2170 C764 1.631 . S
C2172 C1205 1.659 . S
C2181 C940 2.373 . S
C2183 C1364 2.330 . S
C2192 C1470 2.336 . S
C2194 C1046 2.368 . S
C2203 C1576 2.335 . S
C2205 C1152 2.369 . S
C2214 C1258 2.368 . S
C2216 C1682 2.334 . S
C2225 C22 1.577 . S
C2227 C234 1.583 . S
C2236 C75 1.752 . S
C2238 C287 1.749 . S
C2247 C340 1.583 . S
C2249 C128 1.580 . S
C2258 C181 1.751 . S
C2260 C393 1.749 . S
C2269 C675 1.942 . S
C2271 C463 1.942 . S
C2280 C711 1.859 . S
C2282 C499 1.856 . S
C2291 C569 1.941 . S
C2293 C781 1.941 . S
C2302 C605 1.855 . S
C2304 C817 1.858 . S
C2313 C1082 1.582 . S
C2315 C870 1.579 . S
C2324 C1135 1.752 . S
C2326 C923 1.749 . S
C2335 C976 1.584 . S
C2337 C1188 1.580 . S
C2346 C1241 1.750 . S
C2348 C1029 1.751 . S
C2357 C1523 1.941 . S
C2359 C1311 1.941 . S
C2368 C1347 1.857 . S
C2370 C1559 1.859 . S
C2379 C1629 1.941 . S
C2381 C1417 1.942 . S
C2390 C1453 1.859 . S
C2392 C1665 1.856 . S
