# Generated by pormake.
# Topology zfs, (5)-cn, num edge types: 1
# Building blocks:
#     Node 0, Type 0, BuildingBlock: XOMCOT_clean_sbu_0, # of connection points: 5
#     Node 1, Type 0, BuildingBlock: XOMCOT_clean_sbu_0, # of connection points: 5
#     Node 2, Type 0, BuildingBlock: XOMCOT_clean_sbu_0, # of connection points: 5
#     Node 3, Type 0, BuildingBlock: XOMCOT_clean_sbu_0, # of connection points: 5
#     Node 4, Type 0, BuildingBlock: XOMCOT_clean_sbu_0, # of connection points: 5
#     Node 5, Type 0, BuildingBlock: XOMCOT_clean_sbu_0, # of connection points: 5
#     Node 6, Type 0, BuildingBlock: XOMCOT_clean_sbu_0, # of connection points: 5
#     Node 7, Type 0, BuildingBlock: XOMCOT_clean_sbu_0, # of connection points: 5
#     Edge 8, Type (0, 0), BuildingBlock: OJICUG_clean_linker_0, # of connection points: 2
#     Edge 9, Type (0, 0), BuildingBlock: OJICUG_clean_linker_0, # of connection points: 2
#     Edge 10, Type (0, 0), BuildingBlock: OJICUG_clean_linker_0, # of connection points: 2
#     Edge 11, Type (0, 0), BuildingBlock: OJICUG_clean_linker_0, # of connection points: 2
#     Edge 12, Type (0, 0), BuildingBlock: OJICUG_clean_linker_0, # of connection points: 2
#     Edge 13, Type (0, 0), BuildingBlock: OJICUG_clean_linker_0, # of connection points: 2
#     Edge 14, Type (0, 0), BuildingBlock: OJICUG_clean_linker_0, # of connection points: 2
#     Edge 15, Type (0, 0), BuildingBlock: OJICUG_clean_linker_0, # of connection points: 2
#     Edge 16, Type (0, 0), BuildingBlock: OJICUG_clean_linker_0, # of connection points: 2
#     Edge 17, Type (0, 0), BuildingBlock: OJICUG_clean_linker_0, # of connection points: 2
#     Edge 18, Type (0, 0), BuildingBlock: OJICUG_clean_linker_0, # of connection points: 2
#     Edge 19, Type (0, 0), BuildingBlock: OJICUG_clean_linker_0, # of connection points: 2
#     Edge 20, Type (0, 0), BuildingBlock: OJICUG_clean_linker_0, # of connection points: 2
#     Edge 21, Type (0, 0), BuildingBlock: OJICUG_clean_linker_0, # of connection points: 2
#     Edge 22, Type (0, 0), BuildingBlock: OJICUG_clean_linker_0, # of connection points: 2
#     Edge 23, Type (0, 0), BuildingBlock: OJICUG_clean_linker_0, # of connection points: 2
#     Edge 24, Type (0, 0), BuildingBlock: OJICUG_clean_linker_0, # of connection points: 2
#     Edge 25, Type (0, 0), BuildingBlock: OJICUG_clean_linker_0, # of connection points: 2
#     Edge 26, Type (0, 0), BuildingBlock: OJICUG_clean_linker_0, # of connection points: 2
#     Edge 27, Type (0, 0), BuildingBlock: OJICUG_clean_linker_0, # of connection points: 2
# Relax obj value: 0.156
# Max RMSD: 0.167
# Mean RMSD: 0.167
data_MOF--net-zfs--node1-XOMCOT_clean_sbu_0--edge1-OJICUG_clean_linker_0
_symmetry_space_group_name_H-M    P1
_symmetry_Int_Tables_number       1
_symmetry_cell_setting            triclinic
loop_
_symmetry_equiv_pos_as_xyz
'x, y, z'
_cell_length_a     25.158153
_cell_length_b     25.181048
_cell_length_c     31.469895
_cell_angle_alpha  90.152979
_cell_angle_beta   89.867671
_cell_angle_gamma 89.949942
loop_
_atom_site_label
_atom_site_type_symbol
_atom_site_fract_x
_atom_site_fract_y
_atom_site_fract_z
_atom_type_partial_charge
Co0 Co 0.08937 0.24314 0.19113 0.0
C1 C 1.03013 0.25691 0.11329 0.0
C2 C 1.00253 0.19056 0.14912 0.0
C3 C 0.98849 0.18331 0.10735 0.0
N4 N 1.0301 0.23624 0.15272 0.0
N5 N 1.00663 0.22482 0.08481 0.0
H6 H 0.05627 0.28832 0.10352 0.0
H7 H 1.00138 0.16 0.1732 0.0
C8 C 0.99373 0.22891 0.24766 0.0
O9 O 0.96853 0.26196 0.2225 0.0
N10 N 0.14931 0.24923 0.22798 0.0
C11 C 0.18881 0.2851 0.22468 0.0
C12 C 0.22023 0.28147 0.26025 0.0
C13 C 0.15728 0.22377 0.26476 0.0
N14 N 0.20014 0.24294 0.2852 0.0
C15 C 0.08153 0.35553 0.17279 0.0
C16 C 0.05934 0.38783 0.25483 0.0
C17 C 0.06512 0.42689 0.22338 0.0
C18 C 0.07592 0.40969 0.18173 0.0
C19 C 0.06415 0.334 0.24429 0.0
N20 N 0.07362 0.31798 0.20337 0.0
H21 H 0.09545 0.34451 0.14172 0.0
H22 H 0.06321 0.30553 0.26983 0.0
H23 H 0.19295 0.31349 0.19916 0.0
H24 H 0.13062 0.19406 0.27747 0.0
O25 O 0.13707 0.25046 0.14242 0.0
O26 O 0.1143 0.17408 0.17141 0.0
O27 O 0.04276 0.21793 0.24042 0.0
C28 C 0.13986 0.19882 0.14143 0.0
H29 H 0.97372 0.14685 0.09385 0.0
H30 H 0.25414 0.30615 0.26779 0.0
H31 H 0.05351 0.39853 0.28784 0.0
H32 H 0.08142 0.43773 0.15611 0.0
Co33 Co 0.834 0.08643 0.44028 0.0
C34 C 0.8162 1.02817 0.3625 0.0
C35 C 0.8827 0.99784 0.39669 0.0
C36 C 0.88816 0.98399 0.35457 0.0
N37 N 0.83811 1.027 0.40149 0.0
N38 N 0.84673 1.00426 0.33307 0.0
H39 H 0.78535 0.05548 0.35366 0.0
H40 H 0.91384 0.99551 0.4202 0.0
C41 C 0.84801 0.99069 0.49665 0.0
O42 O 0.81425 0.96538 0.47209 0.0
N43 N 0.83022 0.14652 0.47738 0.0
C44 C 0.79574 0.18727 0.47399 0.0
C45 C 0.79959 0.21817 0.50992 0.0
C46 C 0.85507 0.15323 0.51465 0.0
N47 N 0.83681 0.19649 0.53526 0.0
C48 C 0.72096 0.08288 0.42332 0.0
C49 C 0.68943 0.05865 0.50506 0.0
C50 C 0.64996 0.06603 0.47412 0.0
C51 C 0.66679 0.078 0.43263 0.0
C52 C 0.74325 0.06273 0.49413 0.0
N53 N 0.75885 0.07299 0.45327 0.0
H54 H 0.73181 0.09762 0.39252 0.0
H55 H 0.77209 0.06039 0.51935 0.0
H56 H 0.76792 0.19256 0.44819 0.0
H57 H 0.88351 0.12543 0.52761 0.0
O58 O 0.82755 0.1343 0.39177 0.0
O59 O 0.90357 0.10901 0.42011 0.0
O60 O 0.85906 1.03947 0.4891 0.0
C61 C 0.87931 0.1354 0.39046 0.0
H62 H 0.92344 0.96765 0.34004 0.0
H63 H 0.7758 0.25279 0.51746 0.0
H64 H 0.67911 0.05194 0.53801 0.0
H65 H 0.6385 0.08481 0.40738 0.0
Co66 Co 0.99448 0.83421 0.68874 0.0
C67 C 0.05105 0.81355 0.6102 0.0
C68 C 0.09022 0.87322 0.64672 0.0
C69 C 0.1076 0.87651 0.60525 0.0
N70 N 0.05405 0.83395 0.64974 0.0
N71 N 0.08178 0.8396 0.58224 0.0
H72 H 1.01934 0.78799 0.59984 0.0
H73 H 0.09723 0.90251 0.67117 0.0
C74 C 0.08946 0.84486 0.74686 0.0
O75 O 0.1133 0.80784 0.72429 0.0
N76 N 0.93422 0.83448 0.72595 0.0
C77 C 0.89221 0.80151 0.72302 0.0
C78 C 0.86218 0.80653 0.75933 0.0
C79 C 0.92905 0.85969 0.76334 0.0
N80 N 0.88566 0.84293 0.7845 0.0
C81 C 0.99947 0.72062 0.67367 0.0
C82 C 1.01571 0.69223 0.75739 0.0
C83 C 1.01207 0.65213 0.72663 0.0
C84 C 1.00394 0.66688 0.68428 0.0
C85 C 1.01201 0.74549 0.74531 0.0
N86 N 1.00556 0.7595 0.70363 0.0
H87 H 0.98838 0.73033 0.64174 0.0
H88 H 1.01238 0.77535 0.76997 0.0
H89 H 0.88574 0.77344 0.69748 0.0
H90 H 0.95823 0.88681 0.7762 0.0
O91 O 0.94591 0.82721 0.64074 0.0
O92 O 0.97441 0.90348 0.66682 0.0
O93 O 0.0422 0.85941 0.73714 0.0
C94 C 0.94641 0.87885 0.63822 0.0
H95 H 0.13177 0.90775 0.592 0.0
H96 H 0.8272 0.78365 0.76742 0.0
H97 H 1.02077 0.68251 0.79065 0.0
H98 H 0.99865 0.63702 0.6598 0.0
Co99 Co 0.24522 0.99094 0.93973 0.0
C100 C 0.26347 0.04717 0.86082 0.0
C101 C 0.2034 0.08513 0.89802 0.0
C102 C 0.19922 0.10243 0.85669 0.0
N103 N 0.2436 0.0499 0.90056 0.0
N104 N 0.23636 0.07743 0.83326 0.0
H105 H 0.28947 1.01595 0.85008 0.0
H106 H 0.17402 0.09127 0.92264 0.0
C107 C 0.23457 0.08679 -0.00258 0.0
O108 O 0.27046 0.11081 0.97394 0.0
N109 N 0.24674 0.93134 0.97728 0.0
C110 C 0.28004 0.88961 0.97424 0.0
C111 C 0.2766 0.86068 0.0111 0.0
C112 C 0.22302 0.92717 0.01531 0.0
N113 N 0.24114 0.88477 0.03699 0.0
C114 C 0.35799 0.99563 0.92253 0.0
C115 C 0.38948 1.01477 0.00514 0.0
C116 C 0.42878 1.00962 0.97363 0.0
C117 C 0.41207 1.0002 0.93176 0.0
C118 C 0.3357 1.01089 0.99435 0.0
N119 N 0.3202 1.00296 0.95317 0.0
H120 H 0.34712 0.98358 0.89103 0.0
H121 H 0.30672 1.01198 0.01967 0.0
H122 H 0.30747 0.88275 0.94828 0.0
H123 H 0.19475 0.95575 0.02751 0.0
O124 O 0.25197 0.94199 0.89186 0.0
O125 O 0.17568 0.9697 0.91874 0.0
O126 O 0.22063 1.03912 0.98835 0.0
C127 C 0.20028 0.9419 0.88984 0.0
H128 H 0.16716 0.12567 0.84373 0.0
H129 H 0.3009 0.82674 0.01925 0.0
H130 H 0.39998 1.01975 0.03825 0.0
H131 H 0.44044 0.99537 0.90613 0.0
Co132 Co 0.08691 0.83373 0.30464 0.0
C133 C 1.02923 0.81661 0.38272 0.0
C134 C 1.00006 0.88392 0.34898 0.0
C135 C 0.98764 0.88996 0.39132 0.0
N136 N 1.0278 0.83853 0.34374 0.0
N137 N 1.00721 0.848 0.41253 0.0
H138 H 0.05578 0.78492 0.39111 0.0
H139 H 0.99827 0.91518 0.32555 0.0
C140 C 0.99094 0.84931 0.24883 0.0
O141 O 0.96537 0.81594 0.27354 0.0
N142 N 0.14672 0.82941 0.26725 0.0
C143 C 0.18688 0.79415 0.27004 0.0
C144 C 0.21747 0.79793 0.23393 0.0
C145 C 0.1535 0.85467 0.23019 0.0
N146 N 0.1962 0.83591 0.2091 0.0
C147 C 0.08127 0.72046 0.32079 0.0
C148 C 0.05721 0.69096 0.23845 0.0
C149 C 0.06386 0.65126 0.26901 0.0
C150 C 0.0758 0.66654 0.31071 0.0
C151 C 0.06192 0.74439 0.25006 0.0
N152 N 0.07217 0.75903 0.29118 0.0
H153 H 0.09625 0.73051 0.35171 0.0
H154 H 0.06006 0.77365 0.22516 0.0
H155 H 0.19188 0.76585 0.29552 0.0
H156 H 0.12604 0.88374 0.21767 0.0
O157 O 0.13501 0.82611 0.35292 0.0
O158 O 0.11066 0.90265 0.32501 0.0
O159 O 1.03992 0.85982 0.25619 0.0
C160 C 0.13673 0.87781 0.35453 0.0
H161 H 0.97297 0.92586 0.40604 0.0
H162 H 0.25152 0.77356 0.22589 0.0
H163 H 0.04949 0.68077 0.20557 0.0
H164 H 0.08372 0.63696 0.33481 0.0
Co165 Co 0.24244 0.08737 0.55437 0.0
C166 C 0.258 1.02982 0.63261 0.0
C167 C 0.19031 1.00204 0.59841 0.0
C168 C 0.18386 0.98951 0.64058 0.0
N169 N 0.23626 1.02892 0.59356 0.0
N170 N 0.2262 1.00788 0.66206 0.0
H171 H 0.29011 0.05572 0.64131 0.0
H172 H 0.15913 1.00058 0.57483 0.0
C173 C 0.22741 0.99056 0.49917 0.0
O174 O 0.26015 0.96539 0.52463 0.0
N175 N 0.24789 0.14647 0.51661 0.0
C176 C 0.28264 0.18692 0.51995 0.0
C177 C 0.28138 0.21561 0.48285 0.0
C178 C 0.22558 0.15113 0.47818 0.0
N179 N 0.24589 0.19257 0.45657 0.0
C180 C 0.35558 0.08084 0.57149 0.0
C181 C 0.38596 0.05662 0.48928 0.0
C182 C 0.4254 0.06364 0.52005 0.0
C183 C 0.40968 0.07551 0.56171 0.0
C184 C 0.33236 0.06114 0.50059 0.0
N185 N 0.31726 0.07166 0.54162 0.0
H186 H 0.3452 0.09588 0.60238 0.0
H187 H 0.30334 0.05908 0.47549 0.0
H188 H 0.30936 0.19307 0.54637 0.0
H189 H 0.19658 0.1236 0.46569 0.0
O190 O 0.25011 0.13594 0.6025 0.0
O191 O 0.17346 0.11238 0.57425 0.0
O192 O 0.21676 0.0397 0.50597 0.0
C193 C 0.19841 0.13845 0.60384 0.0
H194 H 0.14752 0.97559 0.65499 0.0
H195 H 0.30695 0.24868 0.47489 0.0
H196 H 0.39649 0.04891 0.45644 0.0
H197 H 0.43906 0.08361 0.58598 0.0
Co198 Co 0.99027 0.24482 0.80509 0.0
C199 C 0.04642 0.26044 0.88436 0.0
C200 C 0.0805 0.19773 0.84755 0.0
C201 C 0.0954 0.19137 0.88924 0.0
N202 N 0.04884 0.24075 0.84452 0.0
N203 N 0.07296 0.23033 0.91241 0.0
H204 H 1.01719 0.28895 0.89453 0.0
H205 H 0.08473 0.1679 0.823 0.0
C206 C 0.08679 0.23212 0.74849 0.0
O207 O 0.11154 0.26644 0.77295 0.0
N208 N 0.9311 0.24832 0.76719 0.0
C209 C 0.89033 0.28287 0.7697 0.0
C210 C 0.86169 0.27986 0.73263 0.0
C211 C 0.92661 0.2243 0.72931 0.0
N212 N 0.88502 0.24342 0.70718 0.0
C213 C 0.99644 0.35737 0.82296 0.0
C214 C 1.01755 0.38902 0.74071 0.0
C215 C 1.01161 0.42826 0.77216 0.0
C216 C 1.00131 0.41146 0.81387 0.0
C217 C 1.01332 0.33527 0.75135 0.0
N218 N 1.00428 0.31965 0.79235 0.0
H219 H 0.98347 0.34649 0.85424 0.0
H220 H 1.01467 0.30646 0.72593 0.0
H221 H 0.88396 0.31066 0.79549 0.0
H222 H 0.95442 0.19497 0.71758 0.0
O223 O 0.94115 0.25215 0.85285 0.0
O224 O 0.96702 0.17564 0.8253 0.0
O225 O 1.03838 0.21974 0.75659 0.0
C226 C 0.93991 0.2005 0.85448 0.0
H227 H 0.11444 0.15678 0.90231 0.0
H228 H 0.8285 0.30498 0.72405 0.0
H229 H 1.0232 0.39954 0.70768 0.0
H230 H 0.99583 0.43977 0.83945 0.0
Co231 Co 0.83513 0.99423 0.05593 0.0
C232 C 0.81378 0.04936 0.13498 0.0
C233 C 0.87397 0.08881 0.09921 0.0
C234 C 0.87733 0.10512 0.14096 0.0
N235 N 0.83443 0.05305 0.09556 0.0
N236 N 0.84007 0.07913 0.16345 0.0
H237 H 0.78791 1.01768 0.14482 0.0
H238 H 0.90344 0.09598 0.07492 0.0
C239 C 0.84558 0.0902 -0.00122 0.0
O240 O 0.80887 0.11393 0.02176 0.0
N241 N 0.83581 0.93472 0.018 0.0
C242 C 0.80303 0.89259 0.02021 0.0
C243 C 0.80762 0.86402 0.98315 0.0
C244 C 0.86045 0.93106 0.98026 0.0
N245 N 0.84332 0.88864 0.95792 0.0
C246 C 0.72158 0.99752 0.07103 0.0
C247 C 0.69279 1.01636 0.98776 0.0
C248 C 0.65283 1.01132 0.01852 0.0
C249 C 0.66775 1.00186 0.06063 0.0
C250 C 0.74616 1.01275 -0.00033 0.0
N251 N 0.76033 1.00507 0.04119 0.0
H252 H 0.73148 0.98526 0.10265 0.0
H253 H 0.77594 1.01411 0.97498 0.0
H254 H 0.77504 0.88532 0.04567 0.0
H255 H 0.8885 0.96012 0.96872 0.0
O256 O 0.82826 0.94497 0.10338 0.0
O257 O 0.90455 0.97422 0.07777 0.0
O258 O 0.86007 0.04282 0.00805 0.0
C259 C 0.87991 0.94583 0.10611 0.0
H260 H 0.90887 0.12852 0.15469 0.0
H261 H 0.78373 0.83002 0.97438 0.0
H262 H 0.68288 1.02238 0.95464 0.0
H263 H 0.63799 0.9954 0.085 0.0
C264 C 1.03152 0.55771 0.27942 0.0
C265 C 0.06268 0.59423 0.25676 0.0
H266 H 1.0059 0.47715 0.28577 0.0
C267 C 0.0939 0.57581 0.22276 0.0
H268 H 1.00683 0.57098 0.30563 0.0
C269 C 0.09465 0.52187 0.212 0.0
C270 C 0.0633 0.48488 0.23441 0.0
H271 H 0.11893 0.603 0.20515 0.0
H272 H 0.12096 0.50927 0.18666 0.0
C273 C 1.03136 0.50382 0.26811 0.0
C274 C 0.55482 0.09628 0.46386 0.0
C275 C 0.59198 0.06433 0.48551 0.0
H276 H 0.47351 0.12056 0.45754 0.0
C277 C 0.57317 1.03163 0.51864 0.0
H278 H 0.56728 0.1232 0.43904 0.0
C279 C 0.51924 1.03149 0.53002 0.0
C280 C 0.48255 0.06308 0.50798 0.0
H281 H 0.59993 1.00571 0.53572 0.0
H282 H 0.50605 1.00615 0.55573 0.0
C283 C 0.50086 0.09519 0.47465 0.0
C284 C 0.04552 0.55879 0.71685 0.0
C285 C 1.01333 0.59522 0.73893 0.0
H286 H 0.07188 0.47833 0.71083 0.0
C287 C 0.98125 0.57675 0.77231 0.0
H288 H 0.07093 0.57207 0.69116 0.0
C289 C 0.98073 0.52288 0.78303 0.0
C290 C 1.01305 0.48607 0.76113 0.0
H291 H 0.95542 0.60381 0.78946 0.0
H292 H 0.95392 0.51013 0.80791 0.0
C293 C 0.04575 0.50498 0.72804 0.0
C294 C 0.5236 0.97966 0.96226 0.0
C295 C 0.4866 1.01125 0.98462 0.0
H296 H 0.60481 0.95533 0.95525 0.0
C297 C 0.50535 0.04359 0.01798 0.0
H298 H 0.51095 0.95314 0.93713 0.0
C299 C 0.55926 0.04373 0.02896 0.0
C300 C 0.59587 1.01231 0.00638 0.0
H301 H 0.47851 0.06917 0.03554 0.0
H302 H 0.57247 0.06882 0.05488 0.0
C303 C 0.57755 0.98059 0.97276 0.0
C304 C 0.2444 0.25698 0.39776 0.0
C305 C 0.23655 0.20513 0.4128 0.0
H306 H 0.23886 0.30975 0.34477 0.0
C307 C 0.21976 0.16539 0.38441 0.0
H308 H 0.25706 0.28839 0.41897 0.0
C309 C 0.20928 0.17764 0.34223 0.0
C310 C 0.21582 0.22967 0.32751 0.0
H311 H 0.21487 0.12469 0.3946 0.0
H312 H 0.19582 0.14649 0.32106 0.0
C313 C 0.23424 0.26914 0.35536 0.0
C314 C 0.80978 0.23079 0.60528 0.0
C315 C 0.84943 0.21132 0.57794 0.0
H316 H 0.78978 0.25492 0.66848 0.0
C317 C 0.90098 0.20344 0.5934 0.0
H318 H 0.76949 0.23635 0.59413 0.0
C319 C 0.91269 0.21423 0.63569 0.0
C320 C 0.87284 0.23261 0.66348 0.0
H321 H 0.93225 0.18903 0.57266 0.0
H322 H 0.95314 0.20862 0.64632 0.0
C323 C 0.82135 0.24118 0.64778 0.0
C324 C 0.87241 0.91703 0.88656 0.0
C325 C 0.85434 0.87694 0.91408 0.0
H326 H 0.89597 0.93738 0.8233 0.0
C327 C 0.84546 0.82572 0.89779 0.0
H328 H 0.87849 0.95726 0.8976 0.0
C329 C 0.85443 0.81486 0.85495 0.0
C330 C 0.87297 0.85486 0.82779 0.0
H331 H 0.83219 0.79384 0.91819 0.0
H332 H 0.84829 0.77484 0.84332 0.0
C333 C 0.88195 0.90595 0.84389 0.0
C334 C 0.21372 0.91235 0.10897 0.0
C335 C 0.23066 0.8724 0.0807 0.0
H336 H 0.1902 0.9318 0.17244 0.0
C337 C 0.23832 0.82061 0.09597 0.0
H338 H 0.20882 0.95299 0.09867 0.0
C339 C 0.22855 0.80886 0.13852 0.0
C340 C 0.21056 0.84864 0.16635 0.0
H341 H 0.25092 0.78895 0.07491 0.0
H342 H 0.23339 0.76838 0.14933 0.0
C343 C 0.20352 0.90046 0.15132 0.0
C344 C 1.03313 0.1781 0.01902 0.0
C345 C 1.01972 0.22535 0.04038 0.0
H346 H 0.06136 0.14251 0.96166 0.0
C347 C 1.02651 0.27407 0.01953 0.0
H348 H 1.0297 0.13998 0.03454 0.0
C349 C 0.04675 0.27568 0.97837 0.0
C350 C 0.05984 0.22856 0.95684 0.0
H351 H 1.01684 0.31102 0.03544 0.0
H352 H 0.05156 0.31382 0.96304 0.0
C353 C 0.05286 0.17968 0.97761 0.0
C354 C 0.79515 0.05004 0.22853 0.0
C355 C 0.842 0.06555 0.20771 0.0
H356 H 0.76046 1.0157 0.28414 0.0
C357 C 0.89104 0.05865 0.22831 0.0
H358 H 0.75697 0.05456 0.21313 0.0
C359 C 0.89305 1.03608 0.26875 0.0
C360 C 0.84607 1.01986 0.28922 0.0
H361 H 0.92795 0.06912 0.21272 0.0
H362 H 0.93119 1.0325 0.28431 0.0
C363 C 0.7972 1.02716 0.2687 0.0
C364 C 0.0636 0.89091 0.51713 0.0
C365 C 0.06923 0.84179 0.53778 0.0
H366 H 1.03836 0.93161 0.46113 0.0
C367 C 0.05307 0.79531 0.51676 0.0
H368 H 0.07474 0.92756 0.53277 0.0
C369 C 1.03027 0.79786 0.47658 0.0
C370 C 1.02379 0.84687 0.45616 0.0
H371 H 0.05674 0.75705 0.53213 0.0
H372 H 1.01797 0.76141 0.46114 0.0
C373 C 0.04116 0.89341 0.47664 0.0
C374 C 0.2771 1.02845 0.72634 0.0
C375 C 0.22783 1.02295 0.70604 0.0
H376 H 0.3185 0.05293 0.78228 0.0
C377 C 0.18144 1.03949 0.72726 0.0
H378 H 0.31342 1.0166 0.71038 0.0
C379 C 0.18434 0.0604 0.76827 0.0
C380 C 0.23373 0.06534 0.78872 0.0
H381 H 0.14303 1.0373 0.71196 0.0
H382 H 0.14778 0.07102 0.78436 0.0
C383 C 0.28005 0.04976 0.7671 0.0
C384 C 0.15879 0.11462 0.10049 0.0
C385 C 0.16602 0.16971 0.10569 0.0
H386 H 0.17404 0.04541 0.06237 0.0
C387 C 0.19598 0.19709 0.07501 0.0
H388 H 0.13545 0.0923 0.12321 0.0
C389 C 0.21837 0.17011 0.0402 0.0
C390 C 0.21089 0.11508 0.03477 0.0
H391 H 0.20199 0.23955 0.07775 0.0
H392 H 0.24111 0.19266 0.01723 0.0
C393 C 0.1807 0.08772 0.0654 0.0
C394 C 0.9095 0.21141 0.28875 0.0
C395 C 0.96497 0.20534 0.28469 0.0
H396 H 0.83919 0.19437 0.32492 0.0
C397 C 0.9921 0.17669 0.31627 0.0
H398 H 0.88708 0.23287 0.26499 0.0
C399 C 0.96449 0.15493 0.35098 0.0
C400 C 0.909 0.16097 0.35489 0.0
H401 H 1.03472 0.17112 0.31427 0.0
H402 H 0.98663 0.13282 0.37452 0.0
C403 C 0.88191 0.18937 0.32324 0.0
C404 C 0.90348 0.98994 0.56357 0.0
C405 C 0.8726 0.9625 0.53343 0.0
H406 H 0.95043 0.98536 0.62031 0.0
C407 C 0.86564 0.90738 0.5386 0.0
H408 H 0.9098 1.03231 0.5607 0.0
C409 C 0.88908 0.88042 0.57274 0.0
C410 C 0.91982 0.90784 0.60289 0.0
H411 H 0.8424 0.88476 0.51599 0.0
H412 H 0.88327 0.83794 0.57536 0.0
C413 C 0.92665 0.96298 0.5979 0.0
C414 C 0.17193 0.85982 0.79061 0.0
C415 C 0.11739 0.86918 0.78395 0.0
H416 H 0.24069 0.87527 0.8289 0.0
C417 C 0.09015 0.90192 0.8131 0.0
H418 H 0.19437 0.83506 0.76882 0.0
C419 C 0.11673 0.92455 0.84793 0.0
C420 C 0.17134 0.91544 0.85433 0.0
H421 H 0.0482 0.91005 0.80911 0.0
H422 H 0.09457 0.94984 0.86951 0.0
C423 C 0.19858 0.88287 0.82517 0.0
C424 C 0.18869 0.87933 0.42284 0.0
C425 C 0.1619 0.90691 0.39054 0.0
H426 H 0.23012 0.88383 0.48215 0.0
C427 C 0.15662 0.96241 0.39435 0.0
H428 H 0.19296 0.83657 0.42126 0.0
C429 C 0.17752 0.9896 0.42956 0.0
C430 C 0.20454 0.96203 0.46179 0.0
H431 H 0.13572 0.98493 0.37033 0.0
H432 H 0.17259 1.03227 0.43141 0.0
C433 C 0.2099 0.90653 0.45788 0.0
C434 C 0.19712 0.1934 0.67089 0.0
C435 C 0.16946 0.1645 0.63971 0.0
H436 H 0.19302 0.2373 0.72927 0.0
C437 C 0.11418 0.15803 0.6446 0.0
H438 H 0.23973 0.19875 0.66844 0.0
C439 C 0.08735 0.17965 0.67983 0.0
C440 C 0.115 0.20873 0.71098 0.0
H441 H 0.09162 0.13551 0.62149 0.0
H442 H 0.04489 0.17361 0.68258 0.0
C443 C 0.17025 0.21544 0.7059 0.0
C444 C 0.88229 0.19919 0.92003 0.0
C445 C 0.91379 0.17175 0.89022 0.0
H446 H 0.83607 0.19523 0.97725 0.0
C447 C 0.92264 0.1171 0.89639 0.0
H448 H 0.87501 0.24135 0.91651 0.0
C449 C 0.90084 0.09069 0.9316 0.0
C450 C 0.86916 0.1181 0.96138 0.0
H451 H 0.94718 0.09479 0.87436 0.0
H452 H 0.90881 0.04873 0.93539 0.0
C453 C 0.86003 0.17268 0.95497 0.0
C454 C 0.99068 0.90384 0.18147 0.0
C455 C 0.96297 0.87356 0.21182 0.0
H456 H 0.9865 0.94982 0.12423 0.0
C457 C 0.90783 0.86663 0.20652 0.0
H458 H 1.03309 0.9101 0.18443 0.0
C459 C 0.8811 0.88948 0.17203 0.0
C460 C 0.90879 0.91962 0.14166 0.0
H461 H 0.88501 0.84384 0.22928 0.0
H462 H 0.83858 0.88373 0.16933 0.0
C463 C 0.96395 0.92646 0.14679 0.0
loop_
_geom_bond_atom_site_label_1
_geom_bond_atom_site_label_2
_geom_bond_distance
_geom_bond_site_symmetry_2
_ccdc_geom_bond_type
Co0 N4 2.148 . S
Co0 N10 2.128 . S
Co0 N20 2.194 . S
Co0 O25 2.351 . S
Co0 O26 2.155 . S
Co0 O27 2.096 . S
C1 N4 1.301 . S
C1 N5 1.328 1_455 S
C1 H6 0.930 . S
C2 C3 1.333 . S
C2 N4 1.317 1_655 S
C2 H7 0.930 . S
C3 C2 1.333 . S
C3 N5 1.350 . S
C3 H29 0.931 . S
N4 Co0 2.148 . S
N4 C1 1.301 . S
N4 C2 1.317 1_455 S
N5 C1 1.328 1_655 S
N5 C3 1.350 . S
H6 C1 0.930 . S
H7 C2 0.930 . S
C8 O9 1.224 . S
C8 O27 1.247 1_655 S
O9 C8 1.224 . S
N10 Co0 2.128 . S
N10 C11 1.355 . S
N10 C13 1.311 . S
C11 N10 1.355 . S
C11 C12 1.363 . S
C11 H23 0.929 . S
C12 C11 1.363 . S
C12 N14 1.375 . S
C12 H30 0.931 . S
C13 N10 1.311 . S
C13 N14 1.347 . S
C13 H24 0.929 . S
N14 C12 1.375 . S
N14 C13 1.347 . S
C15 C18 1.365 . S
C15 N20 1.328 . S
C15 H21 0.929 . S
C16 C17 1.362 . S
C16 C19 1.378 . S
C16 H31 0.929 . S
C17 C16 1.362 . S
C17 C18 1.366 . S
C18 C15 1.365 . S
C18 C17 1.366 . S
C18 H32 0.930 . S
C19 C16 1.378 . S
C19 N20 1.315 . S
C19 H22 0.930 . S
N20 Co0 2.194 . S
N20 C15 1.328 . S
N20 C19 1.315 . S
H21 C15 0.929 . S
H22 C19 0.930 . S
H23 C11 0.929 . S
H24 C13 0.929 . S
O25 Co0 2.351 . S
O25 C28 1.244 . S
O26 Co0 2.155 . S
O26 C28 1.240 . S
O27 Co0 2.096 . S
O27 C8 1.247 1_455 S
C28 O25 1.244 . S
C28 O26 1.240 . S
H29 C3 0.931 . S
H30 C12 0.931 . S
H31 C16 0.929 . S
H32 C18 0.930 . S
Co33 N37 2.148 . S
Co33 N43 2.128 . S
Co33 N53 2.194 . S
Co33 O58 2.351 . S
Co33 O59 2.155 . S
Co33 O60 2.096 . S
C34 N37 1.301 . S
C34 N38 1.328 1_545 S
C34 H39 0.930 . S
C35 C36 1.333 . S
C35 N37 1.317 1_565 S
C35 H40 0.930 . S
C36 C35 1.333 . S
C36 N38 1.350 . S
C36 H62 0.931 . S
N37 Co33 2.148 . S
N37 C34 1.301 . S
N37 C35 1.317 1_545 S
N38 C34 1.328 1_565 S
N38 C36 1.350 . S
H39 C34 0.930 . S
H40 C35 0.930 . S
C41 O42 1.224 . S
C41 O60 1.247 1_565 S
O42 C41 1.224 . S
N43 Co33 2.128 . S
N43 C44 1.355 . S
N43 C46 1.311 . S
C44 N43 1.355 . S
C44 C45 1.363 . S
C44 H56 0.929 . S
C45 C44 1.363 . S
C45 N47 1.375 . S
C45 H63 0.931 . S
C46 N43 1.311 . S
C46 N47 1.347 . S
C46 H57 0.929 . S
N47 C45 1.375 . S
N47 C46 1.347 . S
C48 C51 1.365 . S
C48 N53 1.328 . S
C48 H54 0.929 . S
C49 C50 1.362 . S
C49 C52 1.378 . S
C49 H64 0.929 . S
C50 C49 1.362 . S
C50 C51 1.366 . S
C51 C48 1.365 . S
C51 C50 1.366 . S
C51 H65 0.930 . S
C52 C49 1.378 . S
C52 N53 1.315 . S
C52 H55 0.930 . S
N53 Co33 2.194 . S
N53 C48 1.328 . S
N53 C52 1.315 . S
H54 C48 0.929 . S
H55 C52 0.930 . S
H56 C44 0.929 . S
H57 C46 0.929 . S
O58 Co33 2.351 . S
O58 C61 1.244 . S
O59 Co33 2.155 . S
O59 C61 1.240 . S
O60 Co33 2.096 . S
O60 C41 1.247 1_545 S
C61 O58 1.244 . S
C61 O59 1.240 . S
H62 C36 0.931 . S
H63 C45 0.931 . S
H64 C49 0.929 . S
H65 C51 0.930 . S
Co66 N70 2.148 . S
Co66 N76 2.128 . S
Co66 N86 2.194 . S
Co66 O91 2.351 . S
Co66 O92 2.155 . S
Co66 O93 2.096 . S
C67 N70 1.301 . S
C67 N71 1.328 1_655 S
C67 H72 0.930 . S
C68 C69 1.333 . S
C68 N70 1.317 1_455 S
C68 H73 0.930 . S
C69 C68 1.333 . S
C69 N71 1.350 . S
C69 H95 0.931 . S
N70 Co66 2.148 . S
N70 C67 1.301 . S
N70 C68 1.317 1_655 S
N71 C67 1.328 1_455 S
N71 C69 1.350 . S
H72 C67 0.930 . S
H73 C68 0.930 . S
C74 O75 1.224 . S
C74 O93 1.247 1_455 S
O75 C74 1.224 . S
N76 Co66 2.128 . S
N76 C77 1.355 . S
N76 C79 1.311 . S
C77 N76 1.355 . S
C77 C78 1.363 . S
C77 H89 0.929 . S
C78 C77 1.363 . S
C78 N80 1.375 . S
C78 H96 0.931 . S
C79 N76 1.311 . S
C79 N80 1.347 . S
C79 H90 0.929 . S
N80 C78 1.375 . S
N80 C79 1.347 . S
C81 C84 1.365 . S
C81 N86 1.328 . S
C81 H87 0.929 . S
C82 C83 1.362 . S
C82 C85 1.378 . S
C82 H97 0.929 . S
C83 C82 1.362 . S
C83 C84 1.366 . S
C84 C81 1.365 . S
C84 C83 1.366 . S
C84 H98 0.930 . S
C85 C82 1.378 . S
C85 N86 1.315 . S
C85 H88 0.930 . S
N86 Co66 2.194 . S
N86 C81 1.328 . S
N86 C85 1.315 . S
H87 C81 0.929 . S
H88 C85 0.930 . S
H89 C77 0.929 . S
H90 C79 0.929 . S
O91 Co66 2.351 . S
O91 C94 1.244 . S
O92 Co66 2.155 . S
O92 C94 1.240 . S
O93 Co66 2.096 . S
O93 C74 1.247 1_655 S
C94 O91 1.244 . S
C94 O92 1.240 . S
H95 C69 0.931 . S
H96 C78 0.931 . S
H97 C82 0.929 . S
H98 C84 0.930 . S
Co99 N103 2.148 . S
Co99 N109 2.128 1_556 S
Co99 N119 2.194 . S
Co99 O124 2.351 . S
Co99 O125 2.155 . S
Co99 O126 2.096 . S
C100 N103 1.301 . S
C100 N104 1.328 1_565 S
C100 H105 0.930 . S
C101 C102 1.333 . S
C101 N103 1.317 1_545 S
C101 H106 0.930 . S
C102 C101 1.333 . S
C102 N104 1.350 . S
C102 H128 0.931 . S
N103 Co99 2.148 . S
N103 C100 1.301 . S
N103 C101 1.317 1_565 S
N104 C100 1.328 1_545 S
N104 C102 1.350 . S
H105 C100 0.930 . S
H106 C101 0.930 . S
C107 O108 1.224 . S
C107 O126 1.247 1_544 S
O108 C107 1.224 . S
N109 Co99 2.128 1_554 S
N109 C110 1.355 . S
N109 C112 1.311 . S
C110 N109 1.355 . S
C110 C111 1.363 . S
C110 H122 0.929 1_554 S
C111 C110 1.363 . S
C111 N113 1.375 . S
C111 H129 0.931 . S
C112 N109 1.311 . S
C112 N113 1.347 . S
C112 H123 0.929 . S
N113 C111 1.375 . S
N113 C112 1.347 . S
C114 C117 1.365 . S
C114 N119 1.328 . S
C114 H120 0.929 . S
C115 C116 1.362 . S
C115 C118 1.378 . S
C115 H130 0.929 1_556 S
C116 C115 1.362 . S
C116 C117 1.366 . S
C117 C114 1.365 . S
C117 C116 1.366 . S
C117 H131 0.930 . S
C118 C115 1.378 . S
C118 N119 1.315 . S
C118 H121 0.930 . S
N119 Co99 2.194 . S
N119 C114 1.328 . S
N119 C118 1.315 . S
H120 C114 0.929 . S
H121 C118 0.930 . S
H122 C110 0.929 1_556 S
H123 C112 0.929 . S
O124 Co99 2.351 . S
O124 C127 1.244 . S
O125 Co99 2.155 . S
O125 C127 1.240 . S
O126 Co99 2.096 . S
O126 C107 1.247 1_566 S
C127 O124 1.244 . S
C127 O125 1.240 . S
H128 C102 0.931 . S
H129 C111 0.931 . S
H130 C115 0.929 1_554 S
H131 C117 0.930 . S
Co132 N136 2.148 . S
Co132 N142 2.128 . S
Co132 N152 2.194 . S
Co132 O157 2.351 . S
Co132 O158 2.155 . S
Co132 O159 2.096 . S
C133 N136 1.301 . S
C133 N137 1.328 1_455 S
C133 H138 0.930 . S
C134 C135 1.333 . S
C134 N136 1.317 1_655 S
C134 H139 0.930 . S
C135 C134 1.333 . S
C135 N137 1.350 . S
C135 H161 0.931 . S
N136 Co132 2.148 . S
N136 C133 1.301 . S
N136 C134 1.317 1_455 S
N137 C133 1.328 1_655 S
N137 C135 1.350 . S
H138 C133 0.930 . S
H139 C134 0.930 . S
C140 O141 1.224 . S
C140 O159 1.247 1_655 S
O141 C140 1.224 . S
N142 Co132 2.128 . S
N142 C143 1.355 . S
N142 C145 1.311 . S
C143 N142 1.355 . S
C143 C144 1.363 . S
C143 H155 0.929 . S
C144 C143 1.363 . S
C144 N146 1.375 . S
C144 H162 0.931 . S
C145 N142 1.311 . S
C145 N146 1.347 . S
C145 H156 0.929 . S
N146 C144 1.375 . S
N146 C145 1.347 . S
C147 C150 1.365 . S
C147 N152 1.328 . S
C147 H153 0.929 . S
C148 C149 1.362 . S
C148 C151 1.378 . S
C148 H163 0.929 . S
C149 C148 1.362 . S
C149 C150 1.366 . S
C150 C147 1.365 . S
C150 C149 1.366 . S
C150 H164 0.930 . S
C151 C148 1.378 . S
C151 N152 1.315 . S
C151 H154 0.930 . S
N152 Co132 2.194 . S
N152 C147 1.328 . S
N152 C151 1.315 . S
H153 C147 0.929 . S
H154 C151 0.930 . S
H155 C143 0.929 . S
H156 C145 0.929 . S
O157 Co132 2.351 . S
O157 C160 1.244 . S
O158 Co132 2.155 . S
O158 C160 1.240 . S
O159 Co132 2.096 . S
O159 C140 1.247 1_455 S
C160 O157 1.244 . S
C160 O158 1.240 . S
H161 C135 0.931 . S
H162 C144 0.931 . S
H163 C148 0.929 . S
H164 C150 0.930 . S
Co165 N169 2.148 . S
Co165 N175 2.128 . S
Co165 N185 2.194 . S
Co165 O190 2.351 . S
Co165 O191 2.155 . S
Co165 O192 2.096 . S
C166 N169 1.301 . S
C166 N170 1.328 1_545 S
C166 H171 0.930 . S
C167 C168 1.333 . S
C167 N169 1.317 1_565 S
C167 H172 0.930 . S
C168 C167 1.333 . S
C168 N170 1.350 . S
C168 H194 0.931 . S
N169 Co165 2.148 . S
N169 C166 1.301 . S
N169 C167 1.317 1_545 S
N170 C166 1.328 1_565 S
N170 C168 1.350 . S
H171 C166 0.930 . S
H172 C167 0.930 . S
C173 O174 1.224 . S
C173 O192 1.247 1_565 S
O174 C173 1.224 . S
N175 Co165 2.128 . S
N175 C176 1.355 . S
N175 C178 1.311 . S
C176 N175 1.355 . S
C176 C177 1.363 . S
C176 H188 0.929 . S
C177 C176 1.363 . S
C177 N179 1.375 . S
C177 H195 0.931 . S
C178 N175 1.311 . S
C178 N179 1.347 . S
C178 H189 0.929 . S
N179 C177 1.375 . S
N179 C178 1.347 . S
C180 C183 1.365 . S
C180 N185 1.328 . S
C180 H186 0.929 . S
C181 C182 1.362 . S
C181 C184 1.378 . S
C181 H196 0.929 . S
C182 C181 1.362 . S
C182 C183 1.366 . S
C183 C180 1.365 . S
C183 C182 1.366 . S
C183 H197 0.930 . S
C184 C181 1.378 . S
C184 N185 1.315 . S
C184 H187 0.930 . S
N185 Co165 2.194 . S
N185 C180 1.328 . S
N185 C184 1.315 . S
H186 C180 0.929 . S
H187 C184 0.930 . S
H188 C176 0.929 . S
H189 C178 0.929 . S
O190 Co165 2.351 . S
O190 C193 1.244 . S
O191 Co165 2.155 . S
O191 C193 1.240 . S
O192 Co165 2.096 . S
O192 C173 1.247 1_545 S
C193 O190 1.244 . S
C193 O191 1.240 . S
H194 C168 0.931 . S
H195 C177 0.931 . S
H196 C181 0.929 . S
H197 C183 0.930 . S
Co198 N202 2.148 . S
Co198 N208 2.128 . S
Co198 N218 2.194 . S
Co198 O223 2.351 . S
Co198 O224 2.155 . S
Co198 O225 2.096 . S
C199 N202 1.301 . S
C199 N203 1.328 1_655 S
C199 H204 0.930 . S
C200 C201 1.333 . S
C200 N202 1.317 1_455 S
C200 H205 0.930 . S
C201 C200 1.333 . S
C201 N203 1.350 . S
C201 H227 0.931 . S
N202 Co198 2.148 . S
N202 C199 1.301 . S
N202 C200 1.317 1_655 S
N203 C199 1.328 1_455 S
N203 C201 1.350 . S
H204 C199 0.930 . S
H205 C200 0.930 . S
C206 O207 1.224 . S
C206 O225 1.247 1_455 S
O207 C206 1.224 . S
N208 Co198 2.128 . S
N208 C209 1.355 . S
N208 C211 1.311 . S
C209 N208 1.355 . S
C209 C210 1.363 . S
C209 H221 0.929 . S
C210 C209 1.363 . S
C210 N212 1.375 . S
C210 H228 0.931 . S
C211 N208 1.311 . S
C211 N212 1.347 . S
C211 H222 0.929 . S
N212 C210 1.375 . S
N212 C211 1.347 . S
C213 C216 1.365 . S
C213 N218 1.328 . S
C213 H219 0.929 . S
C214 C215 1.362 . S
C214 C217 1.378 . S
C214 H229 0.929 . S
C215 C214 1.362 . S
C215 C216 1.366 . S
C216 C213 1.365 . S
C216 C215 1.366 . S
C216 H230 0.930 . S
C217 C214 1.378 . S
C217 N218 1.315 . S
C217 H220 0.930 . S
N218 Co198 2.194 . S
N218 C213 1.328 . S
N218 C217 1.315 . S
H219 C213 0.929 . S
H220 C217 0.930 . S
H221 C209 0.929 . S
H222 C211 0.929 . S
O223 Co198 2.351 . S
O223 C226 1.244 . S
O224 Co198 2.155 . S
O224 C226 1.240 . S
O225 Co198 2.096 . S
O225 C206 1.247 1_655 S
C226 O223 1.244 . S
C226 O224 1.240 . S
H227 C201 0.931 . S
H228 C210 0.931 . S
H229 C214 0.929 . S
H230 C216 0.930 . S
Co231 N235 2.148 . S
Co231 N241 2.128 1_554 S
Co231 N251 2.194 . S
Co231 O256 2.351 . S
Co231 O257 2.155 . S
Co231 O258 2.096 . S
C232 N235 1.301 . S
C232 N236 1.328 1_565 S
C232 H237 0.930 . S
C233 C234 1.333 . S
C233 N235 1.317 1_545 S
C233 H238 0.930 . S
C234 C233 1.333 . S
C234 N236 1.350 . S
C234 H260 0.931 . S
N235 Co231 2.148 . S
N235 C232 1.301 . S
N235 C233 1.317 1_565 S
N236 C232 1.328 1_545 S
N236 C234 1.350 . S
H237 C232 0.930 . S
H238 C233 0.930 . S
C239 O240 1.224 . S
C239 O258 1.247 1_546 S
O240 C239 1.224 . S
N241 Co231 2.128 1_556 S
N241 C242 1.355 . S
N241 C244 1.311 . S
C242 N241 1.355 . S
C242 C243 1.363 . S
C242 H254 0.929 1_556 S
C243 C242 1.363 . S
C243 N245 1.375 . S
C243 H261 0.931 . S
C244 N241 1.311 . S
C244 N245 1.347 . S
C244 H255 0.929 . S
N245 C243 1.375 . S
N245 C244 1.347 . S
C246 C249 1.365 . S
C246 N251 1.328 . S
C246 H252 0.929 . S
C247 C248 1.362 . S
C247 C250 1.378 . S
C247 H262 0.929 1_554 S
C248 C247 1.362 . S
C248 C249 1.366 . S
C249 C246 1.365 . S
C249 C248 1.366 . S
C249 H263 0.930 . S
C250 C247 1.378 . S
C250 N251 1.315 . S
C250 H253 0.930 . S
N251 Co231 2.194 . S
N251 C246 1.328 . S
N251 C250 1.315 . S
H252 C246 0.929 . S
H253 C250 0.930 . S
H254 C242 0.929 1_554 S
H255 C244 0.929 . S
O256 Co231 2.351 . S
O256 C259 1.244 . S
O257 Co231 2.155 . S
O257 C259 1.240 . S
O258 Co231 2.096 . S
O258 C239 1.247 1_564 S
C259 O256 1.244 . S
C259 O257 1.240 . S
H260 C234 0.931 . S
H261 C243 0.931 . S
H262 C247 0.929 1_556 S
H263 C249 0.930 . S
C264 C265 1.387 . S
C264 H268 0.950 . S
C264 C273 1.390 . S
C265 C264 1.387 . S
C265 C267 1.387 . S
H266 C273 0.950 . S
C267 C265 1.387 . S
C267 C269 1.390 . S
C267 H271 0.950 . S
H268 C264 0.950 . S
C269 C267 1.390 . S
C269 C270 1.387 . S
C269 H272 0.950 . S
C270 C269 1.387 . S
C270 C273 1.387 . S
H271 C267 0.950 . S
H272 C269 0.950 . S
C273 C264 1.390 . S
C273 H266 0.950 . S
C273 C270 1.387 . S
C274 C275 1.387 . S
C274 H278 0.950 . S
C274 C283 1.390 . S
C275 C274 1.387 . S
C275 C277 1.387 . S
H276 C283 0.950 . S
C277 C275 1.387 . S
C277 C279 1.390 . S
C277 H281 0.950 . S
H278 C274 0.950 . S
C279 C277 1.390 . S
C279 C280 1.387 . S
C279 H282 0.950 . S
C280 C279 1.387 . S
C280 C283 1.387 . S
H281 C277 0.950 . S
H282 C279 0.950 . S
C283 C274 1.390 . S
C283 H276 0.950 . S
C283 C280 1.387 . S
C284 C285 1.387 . S
C284 H288 0.950 . S
C284 C293 1.390 . S
C285 C284 1.387 . S
C285 C287 1.387 . S
H286 C293 0.950 . S
C287 C285 1.387 . S
C287 C289 1.390 . S
C287 H291 0.950 . S
H288 C284 0.950 . S
C289 C287 1.390 . S
C289 C290 1.387 . S
C289 H292 0.950 . S
C290 C289 1.387 . S
C290 C293 1.387 . S
H291 C287 0.950 . S
H292 C289 0.950 . S
C293 C284 1.390 . S
C293 H286 0.950 . S
C293 C290 1.387 . S
C294 C295 1.387 . S
C294 H298 0.950 . S
C294 C303 1.390 1_556 S
C295 C294 1.387 . S
C295 C297 1.387 . S
H296 C303 0.950 . S
C297 C295 1.387 . S
C297 C299 1.390 1_556 S
C297 H301 0.950 . S
H298 C294 0.950 . S
C299 C297 1.390 1_554 S
C299 C300 1.387 . S
C299 H302 0.950 . S
C300 C299 1.387 . S
C300 C303 1.387 . S
H301 C297 0.950 . S
H302 C299 0.950 . S
C303 C294 1.390 1_554 S
C303 H296 0.950 . S
C303 C300 1.387 . S
C304 C305 1.387 . S
C304 H308 0.950 . S
C304 C313 1.390 . S
C305 C304 1.387 . S
C305 C307 1.387 . S
H306 C313 0.950 . S
C307 C305 1.387 . S
C307 C309 1.390 . S
C307 H311 0.950 . S
H308 C304 0.950 . S
C309 C307 1.390 . S
C309 C310 1.387 . S
C309 H312 0.950 . S
C310 C309 1.387 . S
C310 C313 1.387 . S
H311 C307 0.950 . S
H312 C309 0.950 . S
C313 C304 1.390 . S
C313 H306 0.950 . S
C313 C310 1.387 . S
C314 C315 1.387 . S
C314 H318 0.950 . S
C314 C323 1.390 . S
C315 C314 1.387 . S
C315 C317 1.387 . S
H316 C323 0.950 . S
C317 C315 1.387 . S
C317 C319 1.390 . S
C317 H321 0.950 . S
H318 C314 0.950 . S
C319 C317 1.390 . S
C319 C320 1.387 . S
C319 H322 0.950 . S
C320 C319 1.387 . S
C320 C323 1.387 . S
H321 C317 0.950 . S
H322 C319 0.950 . S
C323 C314 1.390 . S
C323 H316 0.950 . S
C323 C320 1.387 . S
C324 C325 1.387 . S
C324 H328 0.950 . S
C324 C333 1.390 . S
C325 C324 1.387 . S
C325 C327 1.387 . S
H326 C333 0.950 . S
C327 C325 1.387 . S
C327 C329 1.390 . S
C327 H331 0.950 . S
H328 C324 0.950 . S
C329 C327 1.390 . S
C329 C330 1.387 . S
C329 H332 0.950 . S
C330 C329 1.387 . S
C330 C333 1.387 . S
H331 C327 0.950 . S
H332 C329 0.950 . S
C333 C324 1.390 . S
C333 H326 0.950 . S
C333 C330 1.387 . S
C334 C335 1.387 . S
C334 H338 0.950 . S
C334 C343 1.390 . S
C335 C334 1.387 . S
C335 C337 1.387 . S
H336 C343 0.950 . S
C337 C335 1.387 . S
C337 C339 1.390 . S
C337 H341 0.950 . S
H338 C334 0.950 . S
C339 C337 1.390 . S
C339 C340 1.387 . S
C339 H342 0.950 . S
C340 C339 1.387 . S
C340 C343 1.387 . S
H341 C337 0.950 . S
H342 C339 0.950 . S
C343 C334 1.390 . S
C343 H336 0.950 . S
C343 C340 1.387 . S
C344 C345 1.387 . S
C344 H348 0.950 . S
C344 C353 1.390 1_654 S
C345 C344 1.387 . S
C345 C347 1.387 . S
H346 C353 0.950 . S
C347 C345 1.387 . S
C347 C349 1.390 1_654 S
C347 H351 0.950 . S
H348 C344 0.950 . S
C349 C347 1.390 1_456 S
C349 C350 1.387 . S
C349 H352 0.950 . S
C350 C349 1.387 . S
C350 C353 1.387 . S
H351 C347 0.950 . S
H352 C349 0.950 . S
C353 C344 1.390 1_456 S
C353 H346 0.950 . S
C353 C350 1.387 . S
C354 C355 1.387 . S
C354 H358 0.950 . S
C354 C363 1.390 1_545 S
C355 C354 1.387 . S
C355 C357 1.387 . S
H356 C363 0.950 . S
C357 C355 1.387 . S
C357 C359 1.390 1_545 S
C357 H361 0.950 . S
H358 C354 0.950 . S
C359 C357 1.390 1_565 S
C359 C360 1.387 . S
C359 H362 0.950 . S
C360 C359 1.387 . S
C360 C363 1.387 . S
H361 C357 0.950 . S
H362 C359 0.950 . S
C363 C354 1.390 1_565 S
C363 H356 0.950 . S
C363 C360 1.387 . S
C364 C365 1.387 . S
C364 H368 0.950 . S
C364 C373 1.390 1_455 S
C365 C364 1.387 . S
C365 C367 1.387 . S
H366 C373 0.950 . S
C367 C365 1.387 . S
C367 C369 1.390 1_455 S
C367 H371 0.950 . S
H368 C364 0.950 . S
C369 C367 1.390 1_655 S
C369 C370 1.387 . S
C369 H372 0.950 . S
C370 C369 1.387 . S
C370 C373 1.387 . S
H371 C367 0.950 . S
H372 C369 0.950 . S
C373 C364 1.390 1_655 S
C373 H366 0.950 . S
C373 C370 1.387 . S
C374 C375 1.387 . S
C374 H378 0.950 . S
C374 C383 1.390 1_565 S
C375 C374 1.387 . S
C375 C377 1.387 . S
H376 C383 0.950 . S
C377 C375 1.387 . S
C377 C379 1.390 1_565 S
C377 H381 0.950 . S
H378 C374 0.950 . S
C379 C377 1.390 1_545 S
C379 C380 1.387 . S
C379 H382 0.950 . S
C380 C379 1.387 . S
C380 C383 1.387 . S
H381 C377 0.950 . S
H382 C379 0.950 . S
C383 C374 1.390 1_545 S
C383 H376 0.950 . S
C383 C380 1.387 . S
C384 C385 1.387 . S
C384 H388 0.950 . S
C384 C393 1.390 . S
C385 C384 1.387 . S
C385 C387 1.387 . S
H386 C393 0.950 . S
C387 C385 1.387 . S
C387 C389 1.390 . S
C387 H391 0.950 . S
H388 C384 0.950 . S
C389 C387 1.390 . S
C389 C390 1.387 . S
C389 H392 0.950 . S
C390 C389 1.387 . S
C390 C393 1.387 . S
H391 C387 0.950 . S
H392 C389 0.950 . S
C393 C384 1.390 . S
C393 H386 0.950 . S
C393 C390 1.387 . S
C394 C395 1.387 . S
C394 H398 0.950 . S
C394 C403 1.390 . S
C395 C394 1.387 . S
C395 C397 1.387 . S
H396 C403 0.950 . S
C397 C395 1.387 . S
C397 C399 1.390 . S
C397 H401 0.950 . S
H398 C394 0.950 . S
C399 C397 1.390 . S
C399 C400 1.387 . S
C399 H402 0.950 . S
C400 C399 1.387 . S
C400 C403 1.387 . S
H401 C397 0.950 . S
H402 C399 0.950 . S
C403 C394 1.390 . S
C403 H396 0.950 . S
C403 C400 1.387 . S
C404 C405 1.387 . S
C404 H408 0.950 . S
C404 C413 1.390 . S
C405 C404 1.387 . S
C405 C407 1.387 . S
H406 C413 0.950 . S
C407 C405 1.387 . S
C407 C409 1.390 . S
C407 H411 0.950 . S
H408 C404 0.950 . S
C409 C407 1.390 . S
C409 C410 1.387 . S
C409 H412 0.950 . S
C410 C409 1.387 . S
C410 C413 1.387 . S
H411 C407 0.950 . S
H412 C409 0.950 . S
C413 C404 1.390 . S
C413 H406 0.950 . S
C413 C410 1.387 . S
C414 C415 1.387 . S
C414 H418 0.950 . S
C414 C423 1.390 . S
C415 C414 1.387 . S
C415 C417 1.387 . S
H416 C423 0.950 . S
C417 C415 1.387 . S
C417 C419 1.390 . S
C417 H421 0.950 . S
H418 C414 0.950 . S
C419 C417 1.390 . S
C419 C420 1.387 . S
C419 H422 0.950 . S
C420 C419 1.387 . S
C420 C423 1.387 . S
H421 C417 0.950 . S
H422 C419 0.950 . S
C423 C414 1.390 . S
C423 H416 0.950 . S
C423 C420 1.387 . S
C424 C425 1.387 . S
C424 H428 0.950 . S
C424 C433 1.390 . S
C425 C424 1.387 . S
C425 C427 1.387 . S
H426 C433 0.950 . S
C427 C425 1.387 . S
C427 C429 1.390 . S
C427 H431 0.950 . S
H428 C424 0.950 . S
C429 C427 1.390 . S
C429 C430 1.387 . S
C429 H432 0.950 . S
C430 C429 1.387 . S
C430 C433 1.387 . S
H431 C427 0.950 . S
H432 C429 0.950 . S
C433 C424 1.390 . S
C433 H426 0.950 . S
C433 C430 1.387 . S
C434 C435 1.387 . S
C434 H438 0.950 . S
C434 C443 1.390 . S
C435 C434 1.387 . S
C435 C437 1.387 . S
H436 C443 0.950 . S
C437 C435 1.387 . S
C437 C439 1.390 . S
C437 H441 0.950 . S
H438 C434 0.950 . S
C439 C437 1.390 . S
C439 C440 1.387 . S
C439 H442 0.950 . S
C440 C439 1.387 . S
C440 C443 1.387 . S
H441 C437 0.950 . S
H442 C439 0.950 . S
C443 C434 1.390 . S
C443 H436 0.950 . S
C443 C440 1.387 . S
C444 C445 1.387 . S
C444 H448 0.950 . S
C444 C453 1.390 . S
C445 C444 1.387 . S
C445 C447 1.387 . S
H446 C453 0.950 . S
C447 C445 1.387 . S
C447 C449 1.390 . S
C447 H451 0.950 . S
H448 C444 0.950 . S
C449 C447 1.390 . S
C449 C450 1.387 . S
C449 H452 0.950 . S
C450 C449 1.387 . S
C450 C453 1.387 . S
H451 C447 0.950 . S
H452 C449 0.950 . S
C453 C444 1.390 . S
C453 H446 0.950 . S
C453 C450 1.387 . S
C454 C455 1.387 . S
C454 H458 0.950 . S
C454 C463 1.390 . S
C455 C454 1.387 . S
C455 C457 1.387 . S
H456 C463 0.950 . S
C457 C455 1.387 . S
C457 C459 1.390 . S
C457 H461 0.950 . S
H458 C454 0.950 . S
C459 C457 1.390 . S
C459 C460 1.387 . S
C459 H462 0.950 . S
C460 C459 1.387 . S
C460 C463 1.387 . S
H461 C457 0.950 . S
H462 C459 0.950 . S
C463 C454 1.390 . S
C463 H456 0.950 . S
C463 C460 1.387 . S
C265 C149 1.491 . S
C270 C17 1.491 . S
C275 C50 1.490 . S
C280 C182 1.490 . S
C285 C83 1.491 . S
C290 C215 1.491 . S
C295 C116 1.490 . S
C300 C248 1.490 . S
C305 N179 0.847 . S
C310 N14 0.845 . S
C315 N47 0.846 . S
C320 N212 0.848 . S
C325 N245 0.850 . S
C330 N80 0.850 . S
C335 N113 0.848 . S
C340 N146 0.850 . S
C345 N5 1.339 . S
C350 N203 1.339 . S
C355 N236 1.341 . S
C360 N38 1.341 . S
C365 N71 1.339 . S
C370 N137 1.339 . S
C375 N170 1.341 . S
C380 N104 1.341 . S
C385 C28 1.947 . S
C390 C107 1.956 . S
C395 C8 1.955 . S
C400 C61 1.948 . S
C405 C41 1.956 . S
C410 C94 1.948 . S
C415 C74 1.955 . S
C420 C127 1.948 . S
C425 C160 1.947 . S
C430 C173 1.955 . S
C435 C193 1.948 . S
C440 C206 1.956 . S
C445 C226 1.947 . S
C450 C239 1.955 . S
C455 C140 1.957 . S
C460 C259 1.948 . S
