# Generated by pormake.
# Topology uoh, (4)-cn, num edge types: 1
# Building blocks:
#     Node 0, Type 0, BuildingBlock: NAHDIM_clean_sbu_0, # of connection points: 4
#     Node 1, Type 0, BuildingBlock: NAHDIM_clean_sbu_0, # of connection points: 4
#     Node 2, Type 0, BuildingBlock: NAHDIM_clean_sbu_0, # of connection points: 4
#     Node 3, Type 0, BuildingBlock: NAHDIM_clean_sbu_0, # of connection points: 4
#     Node 4, Type 0, BuildingBlock: NAHDIM_clean_sbu_0, # of connection points: 4
#     Node 5, Type 0, BuildingBlock: NAHDIM_clean_sbu_0, # of connection points: 4
#     Node 6, Type 0, BuildingBlock: NAHDIM_clean_sbu_0, # of connection points: 4
#     Node 7, Type 0, BuildingBlock: NAHDIM_clean_sbu_0, # of connection points: 4
#     Node 8, Type 0, BuildingBlock: NAHDIM_clean_sbu_0, # of connection points: 4
#     Node 9, Type 0, BuildingBlock: NAHDIM_clean_sbu_0, # of connection points: 4
#     Node 10, Type 0, BuildingBlock: NAHDIM_clean_sbu_0, # of connection points: 4
#     Node 11, Type 0, BuildingBlock: NAHDIM_clean_sbu_0, # of connection points: 4
#     Node 12, Type 0, BuildingBlock: NAHDIM_clean_sbu_0, # of connection points: 4
#     Node 13, Type 0, BuildingBlock: NAHDIM_clean_sbu_0, # of connection points: 4
#     Node 14, Type 0, BuildingBlock: NAHDIM_clean_sbu_0, # of connection points: 4
#     Node 15, Type 0, BuildingBlock: NAHDIM_clean_sbu_0, # of connection points: 4
#     Node 16, Type 0, BuildingBlock: NAHDIM_clean_sbu_0, # of connection points: 4
#     Node 17, Type 0, BuildingBlock: NAHDIM_clean_sbu_0, # of connection points: 4
#     Node 18, Type 0, BuildingBlock: NAHDIM_clean_sbu_0, # of connection points: 4
#     Node 19, Type 0, BuildingBlock: NAHDIM_clean_sbu_0, # of connection points: 4
#     Node 20, Type 0, BuildingBlock: NAHDIM_clean_sbu_0, # of connection points: 4
#     Node 21, Type 0, BuildingBlock: NAHDIM_clean_sbu_0, # of connection points: 4
#     Node 22, Type 0, BuildingBlock: NAHDIM_clean_sbu_0, # of connection points: 4
#     Node 23, Type 0, BuildingBlock: NAHDIM_clean_sbu_0, # of connection points: 4
#     Node 24, Type 0, BuildingBlock: NAHDIM_clean_sbu_0, # of connection points: 4
#     Node 25, Type 0, BuildingBlock: NAHDIM_clean_sbu_0, # of connection points: 4
#     Node 26, Type 0, BuildingBlock: NAHDIM_clean_sbu_0, # of connection points: 4
#     Node 27, Type 0, BuildingBlock: NAHDIM_clean_sbu_0, # of connection points: 4
#     Node 28, Type 0, BuildingBlock: NAHDIM_clean_sbu_0, # of connection points: 4
#     Node 29, Type 0, BuildingBlock: NAHDIM_clean_sbu_0, # of connection points: 4
#     Node 30, Type 0, BuildingBlock: NAHDIM_clean_sbu_0, # of connection points: 4
#     Node 31, Type 0, BuildingBlock: NAHDIM_clean_sbu_0, # of connection points: 4
#     Node 32, Type 0, BuildingBlock: NAHDIM_clean_sbu_0, # of connection points: 4
#     Node 33, Type 0, BuildingBlock: NAHDIM_clean_sbu_0, # of connection points: 4
#     Node 34, Type 0, BuildingBlock: NAHDIM_clean_sbu_0, # of connection points: 4
#     Node 35, Type 0, BuildingBlock: NAHDIM_clean_sbu_0, # of connection points: 4
#     Edge 36, Type (0, 0), BuildingBlock: ZUJKAS_clean_linker_0, # of connection points: 2
#     Edge 37, Type (0, 0), BuildingBlock: ZUJKAS_clean_linker_0, # of connection points: 2
#     Edge 38, Type (0, 0), BuildingBlock: ZUJKAS_clean_linker_0, # of connection points: 2
#     Edge 39, Type (0, 0), BuildingBlock: ZUJKAS_clean_linker_0, # of connection points: 2
#     Edge 40, Type (0, 0), BuildingBlock: ZUJKAS_clean_linker_0, # of connection points: 2
#     Edge 41, Type (0, 0), BuildingBlock: ZUJKAS_clean_linker_0, # of connection points: 2
#     Edge 42, Type (0, 0), BuildingBlock: ZUJKAS_clean_linker_0, # of connection points: 2
#     Edge 43, Type (0, 0), BuildingBlock: ZUJKAS_clean_linker_0, # of connection points: 2
#     Edge 44, Type (0, 0), BuildingBlock: ZUJKAS_clean_linker_0, # of connection points: 2
#     Edge 45, Type (0, 0), BuildingBlock: ZUJKAS_clean_linker_0, # of connection points: 2
#     Edge 46, Type (0, 0), BuildingBlock: ZUJKAS_clean_linker_0, # of connection points: 2
#     Edge 47, Type (0, 0), BuildingBlock: ZUJKAS_clean_linker_0, # of connection points: 2
#     Edge 48, Type (0, 0), BuildingBlock: ZUJKAS_clean_linker_0, # of connection points: 2
#     Edge 49, Type (0, 0), BuildingBlock: ZUJKAS_clean_linker_0, # of connection points: 2
#     Edge 50, Type (0, 0), BuildingBlock: ZUJKAS_clean_linker_0, # of connection points: 2
#     Edge 51, Type (0, 0), BuildingBlock: ZUJKAS_clean_linker_0, # of connection points: 2
#     Edge 52, Type (0, 0), BuildingBlock: ZUJKAS_clean_linker_0, # of connection points: 2
#     Edge 53, Type (0, 0), BuildingBlock: ZUJKAS_clean_linker_0, # of connection points: 2
#     Edge 54, Type (0, 0), BuildingBlock: ZUJKAS_clean_linker_0, # of connection points: 2
#     Edge 55, Type (0, 0), BuildingBlock: ZUJKAS_clean_linker_0, # of connection points: 2
#     Edge 56, Type (0, 0), BuildingBlock: ZUJKAS_clean_linker_0, # of connection points: 2
#     Edge 57, Type (0, 0), BuildingBlock: ZUJKAS_clean_linker_0, # of connection points: 2
#     Edge 58, Type (0, 0), BuildingBlock: ZUJKAS_clean_linker_0, # of connection points: 2
#     Edge 59, Type (0, 0), BuildingBlock: ZUJKAS_clean_linker_0, # of connection points: 2
#     Edge 60, Type (0, 0), BuildingBlock: ZUJKAS_clean_linker_0, # of connection points: 2
#     Edge 61, Type (0, 0), BuildingBlock: ZUJKAS_clean_linker_0, # of connection points: 2
#     Edge 62, Type (0, 0), BuildingBlock: ZUJKAS_clean_linker_0, # of connection points: 2
#     Edge 63, Type (0, 0), BuildingBlock: ZUJKAS_clean_linker_0, # of connection points: 2
#     Edge 64, Type (0, 0), BuildingBlock: ZUJKAS_clean_linker_0, # of connection points: 2
#     Edge 65, Type (0, 0), BuildingBlock: ZUJKAS_clean_linker_0, # of connection points: 2
#     Edge 66, Type (0, 0), BuildingBlock: ZUJKAS_clean_linker_0, # of connection points: 2
#     Edge 67, Type (0, 0), BuildingBlock: ZUJKAS_clean_linker_0, # of connection points: 2
#     Edge 68, Type (0, 0), BuildingBlock: ZUJKAS_clean_linker_0, # of connection points: 2
#     Edge 69, Type (0, 0), BuildingBlock: ZUJKAS_clean_linker_0, # of connection points: 2
#     Edge 70, Type (0, 0), BuildingBlock: ZUJKAS_clean_linker_0, # of connection points: 2
#     Edge 71, Type (0, 0), BuildingBlock: ZUJKAS_clean_linker_0, # of connection points: 2
#     Edge 72, Type (0, 0), BuildingBlock: ZUJKAS_clean_linker_0, # of connection points: 2
#     Edge 73, Type (0, 0), BuildingBlock: ZUJKAS_clean_linker_0, # of connection points: 2
#     Edge 74, Type (0, 0), BuildingBlock: ZUJKAS_clean_linker_0, # of connection points: 2
#     Edge 75, Type (0, 0), BuildingBlock: ZUJKAS_clean_linker_0, # of connection points: 2
#     Edge 76, Type (0, 0), BuildingBlock: ZUJKAS_clean_linker_0, # of connection points: 2
#     Edge 77, Type (0, 0), BuildingBlock: ZUJKAS_clean_linker_0, # of connection points: 2
#     Edge 78, Type (0, 0), BuildingBlock: ZUJKAS_clean_linker_0, # of connection points: 2
#     Edge 79, Type (0, 0), BuildingBlock: ZUJKAS_clean_linker_0, # of connection points: 2
#     Edge 80, Type (0, 0), BuildingBlock: ZUJKAS_clean_linker_0, # of connection points: 2
#     Edge 81, Type (0, 0), BuildingBlock: ZUJKAS_clean_linker_0, # of connection points: 2
#     Edge 82, Type (0, 0), BuildingBlock: ZUJKAS_clean_linker_0, # of connection points: 2
#     Edge 83, Type (0, 0), BuildingBlock: ZUJKAS_clean_linker_0, # of connection points: 2
#     Edge 84, Type (0, 0), BuildingBlock: ZUJKAS_clean_linker_0, # of connection points: 2
#     Edge 85, Type (0, 0), BuildingBlock: ZUJKAS_clean_linker_0, # of connection points: 2
#     Edge 86, Type (0, 0), BuildingBlock: ZUJKAS_clean_linker_0, # of connection points: 2
#     Edge 87, Type (0, 0), BuildingBlock: ZUJKAS_clean_linker_0, # of connection points: 2
#     Edge 88, Type (0, 0), BuildingBlock: ZUJKAS_clean_linker_0, # of connection points: 2
#     Edge 89, Type (0, 0), BuildingBlock: ZUJKAS_clean_linker_0, # of connection points: 2
#     Edge 90, Type (0, 0), BuildingBlock: ZUJKAS_clean_linker_0, # of connection points: 2
#     Edge 91, Type (0, 0), BuildingBlock: ZUJKAS_clean_linker_0, # of connection points: 2
#     Edge 92, Type (0, 0), BuildingBlock: ZUJKAS_clean_linker_0, # of connection points: 2
#     Edge 93, Type (0, 0), BuildingBlock: ZUJKAS_clean_linker_0, # of connection points: 2
#     Edge 94, Type (0, 0), BuildingBlock: ZUJKAS_clean_linker_0, # of connection points: 2
#     Edge 95, Type (0, 0), BuildingBlock: ZUJKAS_clean_linker_0, # of connection points: 2
#     Edge 96, Type (0, 0), BuildingBlock: ZUJKAS_clean_linker_0, # of connection points: 2
#     Edge 97, Type (0, 0), BuildingBlock: ZUJKAS_clean_linker_0, # of connection points: 2
#     Edge 98, Type (0, 0), BuildingBlock: ZUJKAS_clean_linker_0, # of connection points: 2
#     Edge 99, Type (0, 0), BuildingBlock: ZUJKAS_clean_linker_0, # of connection points: 2
#     Edge 100, Type (0, 0), BuildingBlock: ZUJKAS_clean_linker_0, # of connection points: 2
#     Edge 101, Type (0, 0), BuildingBlock: ZUJKAS_clean_linker_0, # of connection points: 2
#     Edge 102, Type (0, 0), BuildingBlock: ZUJKAS_clean_linker_0, # of connection points: 2
#     Edge 103, Type (0, 0), BuildingBlock: ZUJKAS_clean_linker_0, # of connection points: 2
#     Edge 104, Type (0, 0), BuildingBlock: ZUJKAS_clean_linker_0, # of connection points: 2
#     Edge 105, Type (0, 0), BuildingBlock: ZUJKAS_clean_linker_0, # of connection points: 2
#     Edge 106, Type (0, 0), BuildingBlock: ZUJKAS_clean_linker_0, # of connection points: 2
#     Edge 107, Type (0, 0), BuildingBlock: ZUJKAS_clean_linker_0, # of connection points: 2
# Relax obj value: 0.231
# Max RMSD: 0.255
# Mean RMSD: 0.255
data_MOF--net-uoh--node1-NAHDIM_clean_sbu_0--edge1-ZUJKAS_clean_linker_0
_symmetry_space_group_name_H-M    P1
_symmetry_Int_Tables_number       1
_symmetry_cell_setting            triclinic
loop_
_symmetry_equiv_pos_as_xyz
'x, y, z'
_cell_length_a     115.63676
_cell_length_b     115.63239
_cell_length_c     33.685567
_cell_angle_alpha  90.012665
_cell_angle_beta   90.014676
_cell_angle_gamma 119.99887
loop_
_atom_site_label
_atom_site_type_symbol
_atom_site_fract_x
_atom_site_fract_y
_atom_site_fract_z
_atom_type_partial_charge
C0 C 0.22682 0.1534 0.19232 0.0
O1 O 0.23079 0.14721 0.21672 0.0
O2 O 0.22028 0.12971 0.08226 0.0
Zn3 Zn 0.22693 0.13453 0.13834 0.0
O4 O 0.21681 0.11938 0.17671 0.0
C5 C 0.25181 0.1361 0.1151 0.0
O6 O 0.24457 0.12869 0.08531 0.0
O7 O 0.22472 0.14984 0.15613 0.0
C8 C 0.2203 0.11072 0.18296 0.0
O9 O 0.22993 0.11103 0.16149 0.0
C10 C 0.21284 0.11786 0.06986 0.0
O11 O 0.20864 0.10786 0.09495 0.0
O12 O 0.24645 0.13995 0.14096 0.0
C13 C 0.81442 0.05693 0.19792 0.0
O14 O 0.81732 0.06741 0.22 0.0
O15 O 0.84361 0.07597 0.09905 0.0
Zn16 Zn 0.83667 0.07643 0.15341 0.0
O17 O 0.85048 0.08089 0.19605 0.0
C18 C 0.83664 0.10052 0.13204 0.0
O19 O 0.84554 0.10139 0.10618 0.0
O20 O 0.82115 0.05845 0.16659 0.0
C21 C 0.85959 0.09284 0.20279 0.0
O22 O 0.8606 0.10243 0.17959 0.0
C23 C 0.85533 0.07821 0.09172 0.0
O24 O 0.86366 0.08056 0.1212 0.0
O25 O 0.83111 0.09042 0.15488 0.0
C26 C 0.94022 0.76725 0.13511 0.0
O27 O 0.93775 0.77603 0.11816 0.0
O28 O 0.91186 0.75885 0.07405 0.0
Zn29 Zn 0.91216 0.75198 0.12867 0.0
O30 O 0.90717 0.76102 0.17076 0.0
C31 C 0.88683 0.72855 0.12338 0.0
O32 O 0.88363 0.73751 0.1127 0.0
O33 O 0.93057 0.75556 0.14163 0.0
C34 C 0.90775 0.75742 0.20598 0.0
O35 O 0.91143 0.74847 0.21148 0.0
C36 C 0.90679 0.76615 0.06662 0.0
O37 O 0.90157 0.76961 0.09571 0.0
O38 O 0.89895 0.73233 0.13141 0.0
C39 C 0.1628 0.22091 0.35122 0.0
O40 O 0.15144 0.21266 0.36862 0.0
O41 O 0.14606 0.23167 0.41647 0.0
Zn42 Zn 0.1514 0.23721 0.35974 0.0
O43 O 0.13626 0.22757 0.32112 0.0
C44 C 0.15419 0.26285 0.37704 0.0
O45 O 0.14608 0.25607 0.40623 0.0
O46 O 0.16552 0.23281 0.34447 0.0
C47 C 0.12704 0.23041 0.31691 0.0
O48 O 0.12663 0.23915 0.34096 0.0
C49 C 0.13449 0.22296 0.42826 0.0
O50 O 0.12489 0.21667 0.40218 0.0
O51 O 0.15821 0.25696 0.3537 0.0
C52 C 0.76861 0.92779 0.33769 0.0
O53 O 0.7611 0.92089 0.36776 0.0
O54 O 0.78339 0.90762 0.38595 0.0
Zn55 Zn 0.77508 0.90656 0.33269 0.0
O56 O 0.78447 0.90271 0.28909 0.0
C57 C 0.74905 0.88697 0.36423 0.0
O58 O 0.75436 0.89226 0.39875 0.0
O59 O 0.77541 0.92362 0.31932 0.0
C60 C 0.78168 0.89076 0.28273 0.0
O61 O 0.77368 0.88135 0.30745 0.0
C62 C 0.79008 0.91838 0.40549 0.0
O63 O 0.7925 0.92977 0.38975 0.0
O64 O 0.75597 0.89159 0.33288 0.0
C65 C 0.06759 0.82932 0.32044 0.0
O66 O 0.07836 0.83515 0.29824 0.0
O67 O 0.08341 0.85409 0.42948 0.0
Zn68 Zn 0.08555 0.84869 0.37436 0.0
O69 O 0.09057 0.86332 0.33409 0.0
C70 C 0.10937 0.84801 0.39794 0.0
O71 O 0.10992 0.85607 0.42628 0.0
O72 O 0.06822 0.83322 0.35606 0.0
C73 C 0.1026 0.87238 0.32821 0.0
O74 O 0.11201 0.87303 0.35153 0.0
C75 C 0.0873 0.86606 0.43978 0.0
O76 O 0.09285 0.87564 0.41331 0.0
O77 O 0.09974 0.84344 0.37337 0.0
C78 C 0.74353 0.82141 0.76749 0.0
O79 O 0.73916 0.827 0.74217 0.0
O80 O 0.75019 0.84717 0.87241 0.0
Zn81 Zn 0.74355 0.84113 0.81715 0.0
O82 O 0.75441 0.85551 0.77773 0.0
C83 C 0.72061 0.84425 0.82381 0.0
O84 O 0.72948 0.85579 0.83899 0.0
O85 O 0.74571 0.82551 0.80318 0.0
C86 C 0.76077 0.86803 0.78372 0.0
O87 O 0.76042 0.87274 0.81892 0.0
C88 C 0.76231 0.85135 0.88157 0.0
O89 O 0.7706 0.85179 0.85416 0.0
O90 O 0.72433 0.83614 0.81246 0.0
C91 C 0.17329 0.94112 0.85534 0.0
O92 O 0.16302 0.94086 0.87288 0.0
O93 O 0.15196 0.91289 0.92182 0.0
Zn94 Zn 0.157 0.91287 0.8647 0.0
O95 O 0.14224 0.90997 0.82737 0.0
C96 C 0.15462 0.88701 0.87498 0.0
O97 O 0.14597 0.88577 0.90231 0.0
O98 O 0.1732 0.93022 0.84973 0.0
C99 C 0.13045 0.90008 0.82962 0.0
O100 O 0.12728 0.89166 0.85931 0.0
C101 C 0.14335 0.91587 0.93381 0.0
O102 O 0.13735 0.9196 0.90796 0.0
O103 O 0.1608 0.89788 0.85568 0.0
C104 C 0.05864 0.23075 0.83103 0.0
O105 O 0.06229 0.22169 0.83326 0.0
O106 O 0.08519 0.24076 0.91447 0.0
Zn107 Zn 0.08507 0.24612 0.85781 0.0
O108 O 0.09008 0.23578 0.82066 0.0
C109 C 0.10529 0.27324 0.87871 0.0
O110 O 0.10232 0.26881 0.91532 0.0
O111 O 0.06684 0.24264 0.84171 0.0
C112 C 0.10166 0.23711 0.81978 0.0
O113 O 0.11062 0.24495 0.84584 0.0
C114 C 0.08223 0.22912 0.92571 0.0
O115 O 0.07853 0.21956 0.89926 0.0
O116 O 0.09887 0.26548 0.85013 0.0
C117 C 0.82413 0.77005 0.62575 0.0
O118 O 0.8346 0.77885 0.60572 0.0
O119 O 0.84735 0.76223 0.57664 0.0
Zn120 Zn 0.83968 0.75705 0.63156 0.0
O121 O 0.85332 0.76741 0.67341 0.0
C122 C 0.82971 0.7292 0.61278 0.0
O123 O 0.82824 0.7328 0.577 0.0
O124 O 0.82394 0.75968 0.63901 0.0
C125 C 0.86398 0.76681 0.67507 0.0
O126 O 0.86632 0.76031 0.64716 0.0
C127 C 0.85704 0.77355 0.56674 0.0
O128 O 0.86263 0.78305 0.5935 0.0
O129 O 0.8341 0.7378 0.64048 0.0
C130 C 0.25416 0.06658 0.67503 0.0
O131 O 0.25961 0.07683 0.69939 0.0
O132 O 0.24362 0.08582 0.57818 0.0
Zn133 Zn 0.25206 0.08591 0.63015 0.0
O134 O 0.24272 0.08905 0.67544 0.0
C135 C 0.27329 0.11259 0.62837 0.0
O136 O 0.26302 0.11449 0.62592 0.0
O137 O 0.25062 0.06818 0.6407 0.0
C138 C 0.23475 0.0936 0.67447 0.0
O139 O 0.23179 0.09698 0.64033 0.0
C140 C 0.23178 0.07712 0.56859 0.0
O141 O 0.22443 0.06751 0.59366 0.0
O142 O 0.27119 0.10071 0.63017 0.0
C143 C 0.93061 0.16653 0.66227 0.0
O144 O 0.92831 0.15472 0.65065 0.0
O145 O 0.90253 0.14539 0.60079 0.0
Zn146 Zn 0.90277 0.15265 0.65531 0.0
O147 O 0.8996 0.13914 0.69772 0.0
C148 C 0.87817 0.15225 0.63783 0.0
O149 O 0.87711 0.14355 0.61092 0.0
O150 O 0.92081 0.16853 0.6658 0.0
C151 C 0.88803 0.12954 0.70592 0.0
O152 O 0.87776 0.12799 0.68504 0.0
C153 C 0.90186 0.13423 0.59458 0.0
O154 O 0.90145 0.1269 0.62491 0.0
O155 O 0.88849 0.15772 0.65982 0.0
C156 C 0.89285 0.50056 0.50414 0.0
O157 O 0.88349 0.48792 0.50273 0.0
O158 O 0.90056 0.48222 0.42495 0.0
Zn159 Zn 0.90762 0.48858 0.47994 0.0
O160 O 0.89824 0.47409 0.5205 0.0
C161 C 0.93221 0.48937 0.45959 0.0
O162 O 0.9247 0.48098 0.43184 0.0
O163 O 0.90471 0.50374 0.49468 0.0
C164 C 0.89908 0.46355 0.52114 0.0
O165 O 0.90575 0.46156 0.49298 0.0
C166 C 0.8894 0.47188 0.41746 0.0
O167 O 0.88169 0.46474 0.4469 0.0
O168 O 0.92716 0.49432 0.48284 0.0
C169 C 0.49879 0.41052 0.52489 0.0
O170 O 0.50493 0.4201 0.55116 0.0
O171 O 0.52363 0.43031 0.41867 0.0
Zn172 Zn 0.51816 0.43054 0.47494 0.0
O173 O 0.53295 0.43403 0.51278 0.0
C174 C 0.50568 0.4465 0.45974 0.0
O175 O 0.49987 0.43805 0.43038 0.0
O176 O 0.50248 0.41279 0.48885 0.0
C177 C 0.5427 0.44577 0.51781 0.0
O178 O 0.54346 0.45553 0.4959 0.0
C179 C 0.53224 0.42702 0.40931 0.0
O180 O 0.53792 0.42368 0.43733 0.0
O181 O 0.51366 0.44507 0.48234 0.0
C182 C 0.59415 0.0974 0.51502 0.0
O183 O 0.58799 0.09099 0.48254 0.0
O184 O 0.57444 0.11186 0.4677 0.0
Zn185 Zn 0.57267 0.10354 0.52123 0.0
O186 O 0.5697 0.11412 0.563 0.0
C187 C 0.55297 0.07748 0.49083 0.0
O188 O 0.55899 0.08235 0.45678 0.0
O189 O 0.58937 0.10328 0.53536 0.0
C190 C 0.55803 0.11186 0.5711 0.0
O191 O 0.54787 0.10294 0.55022 0.0
C192 C 0.58563 0.11979 0.45175 0.0
O193 O 0.59672 0.12308 0.47106 0.0
O194 O 0.55714 0.08471 0.52179 0.0
C195 C 0.83706 0.57307 0.66831 0.0
O196 O 0.83453 0.57191 0.70657 0.0
O197 O 0.8076 0.56885 0.71685 0.0
Zn198 Zn 0.81268 0.57472 0.66041 0.0
O199 O 0.79814 0.56242 0.62318 0.0
C200 C 0.81914 0.60169 0.68089 0.0
O201 O 0.82157 0.59856 0.7162 0.0
O202 O 0.82936 0.57458 0.64465 0.0
C203 C 0.78857 0.56443 0.61488 0.0
O204 O 0.78782 0.57408 0.6331 0.0
C205 C 0.80424 0.55721 0.7293 0.0
O206 O 0.8039 0.54832 0.70433 0.0
O207 O 0.81548 0.59318 0.65301 0.0
C208 C 0.44408 0.27705 0.65669 0.0
O209 O 0.45336 0.27482 0.67097 0.0
O210 O 0.43679 0.24868 0.71554 0.0
Zn211 Zn 0.42971 0.24895 0.66137 0.0
O212 O 0.43881 0.24418 0.61889 0.0
C213 C 0.40735 0.223 0.65718 0.0
O214 O 0.41713 0.22032 0.65668 0.0
O215 O 0.43249 0.2672 0.65043 0.0
C216 C 0.43756 0.24708 0.58338 0.0
O217 O 0.43126 0.25371 0.5768 0.0
C218 C 0.44198 0.24156 0.72397 0.0
O219 O 0.44325 0.23434 0.69606 0.0
O220 O 0.41018 0.23511 0.65942 0.0
C221 C 0.72566 0.1535 0.64328 0.0
O222 O 0.73622 0.15646 0.62152 0.0
O223 O 0.74491 0.18326 0.74084 0.0
Zn224 Zn 0.74499 0.17606 0.68651 0.0
O225 O 0.74957 0.18977 0.64352 0.0
C226 C 0.76852 0.17481 0.70891 0.0
O227 O 0.76939 0.18319 0.73666 0.0
O228 O 0.72699 0.16047 0.67394 0.0
C229 C 0.76167 0.19839 0.63641 0.0
O230 O 0.77109 0.19887 0.65935 0.0
C231 C 0.74894 0.19548 0.74819 0.0
O232 O 0.75271 0.20405 0.71874 0.0
O233 O 0.75875 0.17021 0.68478 0.0
C234 C 0.42888 0.1577 0.14267 0.0
O235 O 0.43713 0.17063 0.14022 0.0
O236 O 0.42016 0.17832 0.20949 0.0
Zn237 Zn 0.41222 0.16805 0.15914 0.0
O238 O 0.42011 0.18036 0.11248 0.0
C239 C 0.3885 0.16929 0.16272 0.0
O240 O 0.39748 0.1819 0.16829 0.0
O241 O 0.41679 0.15354 0.15213 0.0
C242 C 0.42599 0.19302 0.11425 0.0
O243 O 0.42694 0.19889 0.14846 0.0
C244 C 0.42464 0.17436 0.23763 0.0
O245 O 0.42407 0.16275 0.23473 0.0
O246 O 0.39237 0.16082 0.15863 0.0
C247 C 0.84113 0.26928 0.18821 0.0
O248 O 0.83032 0.26761 0.20616 0.0
O249 O 0.81835 0.2411 0.24444 0.0
Zn250 Zn 0.82609 0.24109 0.19096 0.0
O251 O 0.81273 0.23714 0.1475 0.0
C252 C 0.82189 0.21503 0.20035 0.0
O253 O 0.81051 0.21339 0.21391 0.0
O254 O 0.84204 0.25906 0.17967 0.0
C255 C 0.81722 0.23915 0.11226 0.0
O256 O 0.83005 0.24379 0.10673 0.0
C257 C 0.807 0.24017 0.24867 0.0
O258 O 0.79994 0.23929 0.21707 0.0
O259 O 0.83082 0.22658 0.18911 0.0
C260 C 0.73722 0.57544 0.10756 0.0
O261 O 0.74816 0.58109 0.08605 0.0
O262 O 0.75219 0.56352 0.21276 0.0
Zn263 Zn 0.75418 0.57072 0.1574 0.0
O264 O 0.75785 0.56017 0.11704 0.0
C265 C 0.78026 0.5934 0.17339 0.0
O266 O 0.78168 0.58465 0.19456 0.0
O267 O 0.73735 0.57032 0.14081 0.0
C268 C 0.76679 0.55687 0.11925 0.0
O269 O 0.7742 0.55983 0.15134 0.0
C270 C 0.74913 0.55164 0.22169 0.0
O271 O 0.74699 0.54299 0.19334 0.0
O272 O 0.76928 0.58973 0.15555 0.0
C273 C 0.49327 0.08691 0.01828 0.0
O274 O 0.49624 0.08726 0.9805 0.0
O275 O 0.52419 0.09287 0.97793 0.0
Zn276 Zn 0.51721 0.08509 0.03165 0.0
O277 O 0.53068 0.09586 0.07329 0.0
C278 C 0.50899 0.05855 0.004 0.0
O279 O 0.50651 0.06305 0.97115 0.0
O280 O 0.50055 0.08568 0.04422 0.0
C281 C 0.54326 0.10223 0.06846 0.0
O282 O 0.54831 0.10195 0.03378 0.0
C283 C 0.52778 0.10488 0.96908 0.0
O284 O 0.52696 0.11266 0.99601 0.0
O285 O 0.51355 0.06623 0.03393 0.0
C286 C 0.89521 0.39303 -0.00207 0.0
O287 O 0.88518 0.39417 0.98422 0.0
O288 O 0.90159 0.4191 0.9272 0.0
Zn289 Zn 0.90816 0.4207 0.98336 0.0
O290 O 0.8972 0.42451 0.02209 0.0
C291 C 0.93243 0.44525 0.96371 0.0
O292 O 0.92512 0.44564 0.93445 0.0
O293 O 0.90671 0.40338 -0.00023 0.0
C294 C 0.90007 0.43639 0.03023 0.0
O295 O 0.90984 0.44636 0.01099 0.0
C296 C 0.89366 0.42307 0.916 0.0
O297 O 0.8892 0.42835 0.94209 0.0
O298 O 0.92735 0.43543 0.98761 0.0
C299 C 0.60582 0.51901 0.96778 0.0
O300 O 0.60155 0.51875 0.93146 0.0
O301 O 0.57986 0.48912 0.92249 0.0
Zn302 Zn 0.58023 0.49473 0.97889 0.0
O303 O 0.57663 0.47975 0.01621 0.0
C304 C 0.55574 0.49479 0.9654 0.0
O305 O 0.5544 0.48622 0.93768 0.0
O306 O 0.59832 0.51 0.99224 0.0
C307 C 0.56512 0.46957 0.02049 0.0
O308 O 0.55519 0.46837 -0.00147 0.0
C309 C 0.58589 0.48322 0.90971 0.0
O310 O 0.59302 0.48051 0.93437 0.0
O311 O 0.56619 0.50002 0.98683 0.0
C312 C 0.56403 0.8322 0.86157 0.0
O313 O 0.57315 0.83073 0.8805 0.0
O314 O 0.54877 0.7963 0.78303 0.0
Zn315 Zn 0.55866 0.8073 0.83056 0.0
O316 O 0.55257 0.79685 0.88117 0.0
C317 C 0.58223 0.8069 0.80421 0.0
O318 O 0.57345 0.79586 0.78633 0.0
O319 O 0.55646 0.8233 0.83689 0.0
C320 C 0.55319 0.78633 0.88722 0.0
O321 O 0.55702 0.78141 0.85824 0.0
C322 C 0.54125 0.79857 0.76077 0.0
O323 O 0.53888 0.80823 0.77002 0.0
O324 O 0.5782 0.81352 0.82419 0.0
C325 C 0.16329 0.73757 0.84929 0.0
O326 O 0.1679 0.74769 0.87407 0.0
O327 O 0.19002 0.75964 0.7476 0.0
Zn328 Zn 0.18325 0.75791 0.80318 0.0
O329 O 0.19777 0.762 0.84264 0.0
C330 C 0.17372 0.77628 0.78446 0.0
O331 O 0.17333 0.77218 0.74785 0.0
O332 O 0.1682 0.73948 0.81457 0.0
C333 C 0.2071 0.77397 0.84743 0.0
O334 O 0.20768 0.78329 0.82378 0.0
C335 C 0.19495 0.75294 0.73287 0.0
O336 O 0.19577 0.74398 0.75478 0.0
O337 O 0.1773 0.77132 0.81226 0.0
C338 C 0.26954 0.42995 0.80968 0.0
O339 O 0.26679 0.4276 0.77169 0.0
O340 O 0.24214 0.43121 0.76031 0.0
Zn341 Zn 0.24279 0.42663 0.81729 0.0
O342 O 0.23835 0.43774 0.85298 0.0
C343 C 0.22298 0.39917 0.79898 0.0
O344 O 0.22652 0.40299 0.76211 0.0
O345 O 0.26087 0.42984 0.83302 0.0
C346 C 0.22621 0.43442 0.85851 0.0
O347 O 0.21688 0.4244 0.83815 0.0
C348 C 0.24912 0.44264 0.74457 0.0
O349 O 0.2578 0.45267 0.76632 0.0
O350 O 0.2289 0.40741 0.827 0.0
C351 C 0.49921 0.89915 -0.00242 0.0
O352 O 0.50212 0.90818 0.02533 0.0
O353 O 0.46645 0.8903 0.05367 0.0
Zn354 Zn 0.47294 0.8967 -0.00147 0.0
O355 O 0.45803 0.88753 0.95929 0.0
C356 C 0.48399 0.92395 0.02584 0.0
O357 O 0.48445 0.91881 0.06019 0.0
O358 O 0.48753 0.8931 0.98292 0.0
C359 C 0.45019 0.89202 0.95269 0.0
O360 O 0.45143 0.90214 0.97381 0.0
C361 C 0.46846 0.88204 0.07308 0.0
O362 O 0.47488 0.87664 0.05626 0.0
O363 O 0.47969 0.91643 0.9955 0.0
C364 C 0.10269 0.60804 0.01997 0.0
O365 O 0.1115 0.60608 0.03888 0.0
O366 O 0.09415 0.58019 0.08456 0.0
Zn367 Zn 0.08772 0.57992 0.02882 0.0
O368 O 0.09718 0.57461 0.98914 0.0
C369 C 0.06257 0.55655 0.04784 0.0
O370 O 0.06966 0.55551 0.07663 0.0
O371 O 0.09119 0.59811 0.01308 0.0
C372 C 0.09555 0.56291 0.98791 0.0
O373 O 0.08814 0.55418 0.01507 0.0
C374 C 0.10478 0.58001 0.09285 0.0
O375 O 0.11238 0.57997 0.06394 0.0
O376 O 0.06809 0.56648 0.0244 0.0
C377 C 0.40246 0.49541 0.95681 0.0
O378 O 0.41249 0.49982 0.93178 0.0
O379 O 0.42166 0.52624 0.0518 0.0
Zn380 Zn 0.42189 0.51765 0.00026 0.0
O381 O 0.42513 0.53008 0.95485 0.0
C382 C 0.44772 0.52106 0.0168 0.0
O383 O 0.44935 0.53199 0.03393 0.0
O384 O 0.40423 0.50123 0.9901 0.0
C385 C 0.4318 0.54274 0.95627 0.0
O386 O 0.43717 0.54872 0.99002 0.0
C387 C 0.41105 0.5246 0.06818 0.0
O388 O 0.39947 0.51696 0.05095 0.0
O389 O 0.43657 0.51314 0.0007 0.0
C390 C 0.10114 0.49472 0.51854 0.0
O391 O 0.11027 0.50591 0.5349 0.0
O392 O 0.09292 0.51381 0.58351 0.0
Zn393 Zn 0.08678 0.50829 0.52723 0.0
O394 O 0.0972 0.5231 0.48809 0.0
C395 C 0.06187 0.50725 0.5454 0.0
O396 O 0.06894 0.51511 0.57471 0.0
O397 O 0.08956 0.49307 0.51252 0.0
C398 C 0.09399 0.5319 0.48055 0.0
O399 O 0.08428 0.53189 0.50076 0.0
C400 C 0.10114 0.52569 0.59419 0.0
O401 O 0.10629 0.5352 0.56739 0.0
O402 O 0.06731 0.50277 0.52186 0.0
C403 C 0.49995 0.59659 0.45989 0.0
O404 O 0.49596 0.58775 0.43108 0.0
O405 O 0.46731 0.57534 0.54856 0.0
Zn406 Zn 0.47585 0.5764 0.49583 0.0
O407 O 0.46394 0.57529 0.45099 0.0
C408 C 0.48719 0.55958 0.51263 0.0
O409 O 0.49357 0.5684 0.54071 0.0
O410 O 0.49304 0.59376 0.49141 0.0
C411 C 0.45128 0.56851 0.45216 0.0
O412 O 0.44534 0.5622 0.48498 0.0
C413 C 0.46935 0.58574 0.56727 0.0
O414 O 0.47699 0.59754 0.55133 0.0
O415 O 0.4792 0.56106 0.49015 0.0
C416 C 0.40241 0.90092 0.45178 0.0
O417 O 0.40616 0.89192 0.44993 0.0
O418 O 0.42423 0.90856 0.54808 0.0
Zn419 Zn 0.42737 0.91518 0.49192 0.0
O420 O 0.43397 0.90493 0.45993 0.0
C421 C 0.44393 0.94252 0.51953 0.0
O422 O 0.43762 0.93773 0.55326 0.0
O423 O 0.41 0.91202 0.46869 0.0
C424 C 0.44596 0.90987 0.44822 0.0
O425 O 0.45478 0.92221 0.45782 0.0
C426 C 0.42023 0.89639 0.55599 0.0
O427 O 0.41818 0.88803 0.52684 0.0
O428 O 0.44101 0.93479 0.48979 0.0
C429 C 0.15723 0.41924 0.36693 0.0
O430 O 0.16359 0.41571 0.39209 0.0
O431 O 0.18113 0.42517 0.25806 0.0
Zn432 Zn 0.17608 0.41866 0.31406 0.0
O433 O 0.19115 0.42971 0.35166 0.0
C434 C 0.17603 0.39423 0.29517 0.0
O435 O 0.18386 0.4015 0.26607 0.0
O436 O 0.16057 0.42073 0.33056 0.0
C437 C 0.2009 0.42774 0.35715 0.0
O438 O 0.20161 0.4185 0.33635 0.0
C439 C 0.19016 0.43703 0.24994 0.0
O440 O 0.19651 0.44543 0.27899 0.0
O441 O 0.17133 0.3994 0.31886 0.0
C442 C 0.57355 0.73257 0.35127 0.0
O443 O 0.56731 0.73508 0.32292 0.0
O444 O 0.58121 0.76168 0.30178 0.0
Zn445 Zn 0.58712 0.761 0.35742 0.0
O446 O 0.57735 0.76619 0.39631 0.0
C447 C 0.61471 0.77708 0.3337 0.0
O448 O 0.61001 0.77142 0.2991 0.0
O449 O 0.58286 0.74226 0.37022 0.0
C450 C 0.56471 0.76079 0.39698 0.0
O451 O 0.55754 0.75153 0.37075 0.0
C452 C 0.57791 0.77011 0.29054 0.0
O453 O 0.57855 0.77905 0.31589 0.0
O454 O 0.60679 0.77393 0.36303 0.0
C455 C 0.27176 0.8499 0.29877 0.0
O456 O 0.26964 0.84607 0.26149 0.0
O457 O 0.24314 0.823 0.25408 0.0
Zn458 Zn 0.24425 0.82858 0.31101 0.0
O459 O 0.24151 0.81357 0.347 0.0
C460 C 0.21928 0.82828 0.30244 0.0
O461 O 0.21789 0.82055 0.27209 0.0
O462 O 0.26233 0.84418 0.32376 0.0
C463 C 0.23024 0.80301 0.35066 0.0
O464 O 0.22014 0.80156 0.32907 0.0
C465 C 0.24798 0.8159 0.24186 0.0
O466 O 0.25414 0.81215 0.26708 0.0
O467 O 0.22991 0.83315 0.32302 0.0
H468 H 0.2379 0.08608 0.74831 0.0
H469 H 0.2306 0.09054 0.81134 0.0
H470 H 0.21237 0.1101 0.75002 0.0
H471 H 0.21962 0.10559 0.68616 0.0
H472 H 0.23861 0.11733 0.83679 0.0
H473 H 0.18342 0.08378 0.83159 0.0
H474 H 0.19465 0.08091 0.80137 0.0
H475 H 0.1915 0.09416 0.78905 0.0
C476 C 0.23224 0.09123 0.748 0.0
C477 C 0.22941 0.09556 0.71218 0.0
C478 C 0.22806 0.09374 0.7841 0.0
C479 C 0.22091 0.10058 0.78522 0.0
C480 C 0.21775 0.10465 0.7496 0.0
H481 H 0.2181 0.13611 0.01116 0.0
H482 H 0.21806 0.13257 0.93961 0.0
C483 C 0.22194 0.10213 0.71324 0.0
C484 C 0.21778 0.10422 0.82415 0.0
H485 H 0.19246 0.09654 0.88978 0.0
C486 C 0.22851 0.11293 0.84827 0.0
C487 C 0.20461 0.09834 0.83888 0.0
C488 C 0.19283 0.08871 0.81413 0.0
C489 C 0.22648 0.11565 0.88733 0.0
C490 C 0.21331 0.10967 0.90236 0.0
C491 C 0.20252 0.10118 0.87794 0.0
C492 C 0.2108 0.11138 0.94439 0.0
C493 C 0.2385 0.1244 0.91273 0.0
C494 C 0.20603 0.10049 0.97047 0.0
C495 C 0.20594 0.10245 0.01138 0.0
C496 C 0.21069 0.11535 0.02674 0.0
C497 C 0.21456 0.12608 0.00027 0.0
C498 C 0.21455 0.12408 0.9594 0.0
H499 H 0.24794 0.12595 0.8992 0.0
H500 H 0.23934 0.13433 0.91638 0.0
H501 H 0.23748 0.11998 0.94269 0.0
H502 H 0.20306 0.09059 0.95936 0.0
H503 H 0.20282 0.09398 0.03097 0.0
H504 H 0.86441 0.1112 0.73971 0.0
H505 H 0.86128 0.09954 0.80276 0.0
H506 H 0.90393 0.11696 0.81459 0.0
H507 H 0.90719 0.1289 0.75194 0.0
H508 H 0.86904 0.08168 0.8328 0.0
H509 H 0.89356 0.13023 0.91341 0.0
H510 H 0.88865 0.12887 0.86204 0.0
H511 H 0.90345 0.12842 0.87549 0.0
C512 C 0.87313 0.11244 0.75546 0.0
C513 C 0.88605 0.12114 0.74116 0.0
C514 C 0.87132 0.10574 0.79143 0.0
C515 C 0.88239 0.1076 0.81363 0.0
C516 C 0.89527 0.11562 0.79826 0.0
H517 H 0.88078 0.08729 0.06466 0.0
H518 H 0.8886 0.09249 0.99591 0.0
C519 C 0.8971 0.1224 0.76242 0.0
C520 C 0.88039 0.10192 0.85406 0.0
H521 H 0.88523 0.11081 0.95184 0.0
C522 C 0.87269 0.08802 0.85886 0.0
C523 C 0.88519 0.11023 0.88797 0.0
C524 C 0.89308 0.12527 0.88471 0.0
C525 C 0.8694 0.08223 0.89679 0.0
C526 C 0.8738 0.09059 0.9306 0.0
C527 C 0.88194 0.10443 0.9258 0.0
C528 C 0.86895 0.08548 0.97104 0.0
C529 C 0.86111 0.06725 0.90035 0.0
C530 C 0.8553 0.07969 0.97967 0.0
C531 C 0.85082 0.07677 0.0188 0.0
C532 C 0.85991 0.07967 0.0501 0.0
C533 C 0.87352 0.08494 0.04122 0.0
C534 C 0.87801 0.0879 0.00199 0.0
H535 H 0.86223 0.06221 0.87374 0.0
H536 H 0.86392 0.06361 0.92713 0.0
H537 H 0.85042 0.06432 0.90289 0.0
H538 H 0.84818 0.07801 0.95636 0.0
H539 H 0.84027 0.0727 0.02461 0.0
H540 H 0.91806 0.76208 0.00076 0.0
H541 H 0.91494 0.76629 0.93164 0.0
H542 H 0.89017 0.78239 0.96929 0.0
H543 H 0.89344 0.77844 0.03859 0.0
H544 H 0.89072 0.75441 0.89543 0.0
H545 H 0.9136 0.80939 0.88587 0.0
H546 H 0.91694 0.80125 0.92642 0.0
H547 H 0.90184 0.80213 0.92579 0.0
C548 C 0.91212 0.76671 0.99441 0.0
C549 C 0.90594 0.76986 0.02516 0.0
C550 C 0.91038 0.76914 0.95489 0.0
C551 C 0.90246 0.77479 0.94534 0.0
C552 C 0.89658 0.77831 0.97601 0.0
H553 H 0.86022 0.77805 0.74174 0.0
H554 H 0.8716 0.78162 0.8055 0.0
C555 C 0.89837 0.77594 0.01561 0.0
C556 C 0.89913 0.77559 0.90335 0.0
H557 H 0.89896 0.79667 0.8326 0.0
C558 C 0.8927 0.76368 0.88149 0.0
C559 C 0.90165 0.78769 0.88539 0.0
C560 C 0.909 0.80087 0.90695 0.0
C561 C 0.88832 0.76344 0.84258 0.0
C562 C 0.89065 0.77549 0.82478 0.0
C563 C 0.89726 0.78747 0.84634 0.0
C564 C 0.88548 0.77557 0.7847 0.0
C565 C 0.88075 0.75018 0.82142 0.0
C566 C 0.88991 0.77154 0.75153 0.0
C567 C 0.88339 0.76941 0.71507 0.0
C568 C 0.87236 0.77134 0.71121 0.0
C569 C 0.86861 0.77635 0.74378 0.0
C570 C 0.87512 0.77844 0.78024 0.0
H571 H 0.87743 0.74161 0.8421 0.0
H572 H 0.87185 0.74928 0.80601 0.0
H573 H 0.88732 0.74945 0.79875 0.0
H574 H 0.89805 0.76949 0.75432 0.0
H575 H 0.88662 0.76568 0.69046 0.0
H576 H 0.15261 0.23184 0.48868 0.0
H577 H 0.14811 0.2304 0.55983 0.0
H578 H 0.10577 0.20828 0.53645 0.0
H579 H 0.11019 0.20941 0.46516 0.0
H580 H 0.13505 0.2416 0.59388 0.0
H581 H 0.10877 0.1876 0.62919 0.0
H582 H 0.1181 0.19427 0.58381 0.0
H583 H 0.1014 0.19154 0.58829 0.0
C584 C 0.14234 0.22646 0.49867 0.0
C585 C 0.13175 0.2208 0.47128 0.0
C586 C 0.13979 0.22562 0.53936 0.0
C587 C 0.12662 0.21912 0.55349 0.0
C588 C 0.11602 0.21307 0.5263 0.0
H589 H 0.08566 0.22138 0.75971 0.0
H590 H 0.0927 0.21566 0.69805 0.0
C591 C 0.11856 0.21382 0.48552 0.0
C592 C 0.12399 0.22011 0.59603 0.0
H593 H 0.10678 0.20192 0.67713 0.0
C594 C 0.12906 0.23292 0.6123 0.0
C595 C 0.11611 0.20877 0.61987 0.0
C596 C 0.11089 0.19477 0.60453 0.0
C597 C 0.12605 0.23473 0.65126 0.0
C598 C 0.11792 0.22341 0.67485 0.0
C599 C 0.11307 0.21057 0.65897 0.0
C600 C 0.1135 0.22485 0.71482 0.0
C601 C 0.13109 0.24877 0.6662 0.0
C602 C 0.1228 0.23142 0.74531 0.0
C603 C 0.11883 0.2348 0.78059 0.0
C604 C 0.10549 0.23159 0.78589 0.0
C605 C 0.09604 0.22412 0.75642 0.0
C606 C 0.10003 0.22079 0.72119 0.0
H607 H 0.13497 0.25623 0.64179 0.0
H608 H 0.12302 0.24953 0.68175 0.0
H609 H 0.13932 0.25143 0.68765 0.0
H610 H 0.13322 0.23444 0.7411 0.0
H611 H 0.12632 0.24043 0.80286 0.0
H612 H 0.79888 0.93814 0.46166 0.0
H613 H 0.80097 0.93576 0.5332 0.0
H614 H 0.79053 0.89471 0.51554 0.0
H615 H 0.78853 0.89701 0.44443 0.0
H616 H 0.77953 0.91804 0.57791 0.0
H617 H 0.82063 0.90728 0.59595 0.0
H618 H 0.81873 0.91507 0.55182 0.0
H619 H 0.80941 0.89718 0.55745 0.0
C620 C 0.79737 0.92871 0.47293 0.0
C621 C 0.79345 0.91773 0.44744 0.0
C622 C 0.79857 0.92738 0.51378 0.0
C623 C 0.79608 0.91512 0.5296 0.0
C624 C 0.79281 0.90436 0.50391 0.0
H625 H 0.76452 0.86106 0.70974 0.0
H626 H 0.77585 0.87569 0.65377 0.0
C627 C 0.79154 0.90565 0.46324 0.0
C628 C 0.7949 0.91278 0.57297 0.0
H629 H 0.80289 0.89745 0.64563 0.0
C630 C 0.78492 0.91393 0.59325 0.0
C631 C 0.80199 0.90749 0.59287 0.0
C632 C 0.81339 0.90682 0.57345 0.0
C633 C 0.78094 0.90871 0.6316 0.0
C634 C 0.78727 0.90237 0.65015 0.0
C635 C 0.79801 0.90225 0.63118 0.0
C636 C 0.78148 0.89397 0.6858 0.0
C637 C 0.76928 0.90902 0.65064 0.0
C638 C 0.78106 0.89945 0.72258 0.0
C639 C 0.7745 0.89106 0.75486 0.0
C640 C 0.76829 0.87711 0.75066 0.0
C641 C 0.7691 0.87175 0.71399 0.0
C642 C 0.77564 0.8801 0.68197 0.0
H643 H 0.76458 0.91307 0.63038 0.0
H644 H 0.76157 0.89882 0.65993 0.0
H645 H 0.77275 0.91539 0.67759 0.0
H646 H 0.78563 0.91016 0.72615 0.0
H647 H 0.77411 0.89549 0.7828 0.0
H648 H 0.10599 0.87774 0.81838 0.0
H649 H 0.09285 0.87103 0.75705 0.0
H650 H 0.12096 0.90849 0.70289 0.0
H651 H 0.13406 0.91537 0.76398 0.0
H652 H 0.09297 0.89838 0.68189 0.0
H653 H 0.10998 0.86128 0.66369 0.0
H654 H 0.10131 0.86041 0.70886 0.0
H655 H 0.11744 0.87467 0.69945 0.0
C656 C 0.10922 0.88468 0.79373 0.0
C657 C 0.1212 0.89699 0.79578 0.0
C658 C 0.10171 0.88081 0.75872 0.0
C659 C 0.10608 0.88919 0.72536 0.0
C660 C 0.11746 0.90188 0.72834 0.0
H661 H 0.0997 0.89063 0.47512 0.0
H662 H 0.10136 0.89548 0.54606 0.0
C663 C 0.12496 0.90576 0.76324 0.0
C664 C 0.09989 0.88425 0.68604 0.0
H665 H 0.09802 0.8635 0.6113 0.0
C666 C 0.09388 0.89062 0.66655 0.0
C667 C 0.10114 0.87415 0.66621 0.0
C668 C 0.10788 0.86725 0.68534 0.0
C669 C 0.0893 0.88731 0.62728 0.0
C670 C 0.09108 0.87761 0.60688 0.0
C671 C 0.09663 0.87091 0.627 0.0
C672 C 0.08835 0.87494 0.56387 0.0
C673 C 0.08269 0.8943 0.608 0.0
C674 C 0.08053 0.86178 0.55018 0.0
C675 C 0.07977 0.85894 0.50966 0.0
C676 C 0.08681 0.86924 0.48203 0.0
C677 C 0.09412 0.88248 0.49562 0.0
C678 C 0.09498 0.88529 0.53621 0.0
H679 H 0.07792 0.8976 0.63049 0.0
H680 H 0.09037 0.90333 0.5923 0.0
H681 H 0.07501 0.88774 0.58612 0.0
H682 H 0.07539 0.85363 0.57101 0.0
H683 H 0.07398 0.84864 0.5001 0.0
H684 H 0.79915 0.90759 0.22682 0.0
H685 H 0.80091 0.90209 0.15776 0.0
H686 H 0.7731 0.86055 0.18134 0.0
H687 H 0.77156 0.86587 0.25056 0.0
H688 H 0.79273 0.86419 0.12656 0.0
H689 H 0.76886 0.89429 0.08851 0.0
H690 H 0.78459 0.90322 0.11386 0.0
H691 H 0.77039 0.89003 0.13895 0.0
C692 C 0.79365 0.89724 0.21752 0.0
C693 C 0.78501 0.88719 0.24392 0.0
C694 C 0.79463 0.89413 0.17804 0.0
C695 C 0.78685 0.88098 0.16428 0.0
C696 C 0.77912 0.87078 0.19135 0.0
H697 H 0.74727 0.85001 0.94553 0.0
H698 H 0.75486 0.8576 0.01304 0.0
C699 C 0.77823 0.87385 0.23092 0.0
C700 C 0.78545 0.87799 0.12125 0.0
H701 H 0.77286 0.88342 0.03614 0.0
C702 C 0.78853 0.86848 0.10659 0.0
C703 C 0.77978 0.88349 0.09551 0.0
C704 C 0.77559 0.89324 0.10992 0.0
C705 C 0.78582 0.86411 0.06699 0.0
C706 C 0.78005 0.86956 0.04146 0.0
C707 C 0.77733 0.87932 0.05585 0.0
C708 C 0.77568 0.86453 0.00066 0.0
C709 C 0.78857 0.8533 0.05327 0.0
C710 C 0.7849 0.86593 0.97129 0.0
C711 C 0.78056 0.86153 0.93253 0.0
C712 C 0.76697 0.85579 0.92257 0.0
C713 C 0.7578 0.85441 0.95216 0.0
C714 C 0.76212 0.85874 0.99078 0.0
H715 H 0.79056 0.84836 0.07853 0.0
H716 H 0.78 0.84559 0.03594 0.0
H717 H 0.79747 0.85774 0.03366 0.0
H718 H 0.79544 0.8706 0.97816 0.0
H719 H 0.78788 0.86279 0.91034 0.0
H720 H 0.08572 0.87211 0.27084 0.0
H721 H 0.09188 0.88259 0.20537 0.0
H722 H 0.13353 0.90136 0.23689 0.0
H723 H 0.12751 0.89101 0.30259 0.0
H724 H 0.12536 0.91764 0.18848 0.0
H725 H 0.10927 0.86686 0.1289 0.0
H726 H 0.09721 0.86856 0.15824 0.0
H727 H 0.1122 0.87074 0.18111 0.0
C728 C 0.09619 0.87869 0.26421 0.0
C729 C 0.10614 0.88057 0.29171 0.0
C730 C 0.09967 0.88465 0.22678 0.0
C731 C 0.11315 0.89256 0.21627 0.0
C732 C 0.12308 0.89524 0.24455 0.0
H733 H 0.15286 0.90692 0.99331 0.0
H734 H 0.14544 0.90256 0.06224 0.0
C735 C 0.11961 0.88929 0.28202 0.0
C736 C 0.11695 0.89678 0.17465 0.0
H737 H 0.1176 0.88452 0.08306 0.0
C738 C 0.12359 0.91043 0.16527 0.0
C739 C 0.11473 0.88731 0.14473 0.0
C740 C 0.10806 0.87255 0.15357 0.0
C741 C 0.12812 0.91486 0.12649 0.0
C742 C 0.12593 0.90537 0.0967 0.0
C743 C 0.11919 0.89174 0.10608 0.0
C744 C 0.13114 0.90929 0.05595 0.0
C745 C 0.13557 0.92963 0.11776 0.0
C746 C 0.12558 0.91461 0.02973 0.0
C747 C 0.12976 0.91708 0.99011 0.0
C748 C 0.13955 0.91423 0.97622 0.0
C749 C 0.1453 0.90922 0.00298 0.0
C750 C 0.14109 0.90672 0.0424 0.0
H751 H 0.13808 0.93573 0.14524 0.0
H752 H 0.14493 0.9324 0.10135 0.0
H753 H 0.1293 0.93212 0.09862 0.0
H754 H 0.11775 0.91649 0.03961 0.0
H755 H 0.12513 0.92095 0.97024 0.0
H756 H 0.07711 0.2056 0.96077 0.0
H757 H 0.08153 0.20228 0.02985 0.0
H758 H 0.0955 0.24377 0.05476 0.0
H759 H 0.09115 0.24722 0.98618 0.0
H760 H 0.11357 0.23346 0.07352 0.0
H761 H 0.06247 0.20328 0.13693 0.0
H762 H 0.06583 0.19843 0.08938 0.0
H763 H 0.06585 0.21388 0.094 0.0
C764 C 0.08097 0.21398 0.98109 0.0
C765 C 0.08384 0.22669 0.96793 0.0
C766 C 0.08342 0.21204 0.02053 0.0
C767 C 0.08875 0.22277 0.04728 0.0
C768 C 0.09132 0.23537 0.03449 0.0
H769 H 0.10857 0.23719 0.29306 0.0
H770 H 0.09773 0.23295 0.2281 0.0
C771 C 0.08884 0.23731 0.99525 0.0
C772 C 0.09274 0.22128 0.08775 0.0
H773 H 0.08065 0.20848 0.17966 0.0
C774 C 0.1064 0.22791 0.09669 0.0
C775 C 0.0833 0.21408 0.11772 0.0
C776 C 0.06851 0.20703 0.10938 0.0
C777 C 0.11092 0.22772 0.13511 0.0
C778 C 0.1015 0.22058 0.16525 0.0
C779 C 0.08781 0.21382 0.15629 0.0
C780 C 0.10585 0.22085 0.20664 0.0
C781 C 0.12573 0.23553 0.1435 0.0
C782 C 0.11353 0.21497 0.21649 0.0
C783 C 0.11978 0.2174 0.25349 0.0
C784 C 0.11843 0.22576 0.28121 0.0
C785 C 0.10989 0.23079 0.27229 0.0
C786 C 0.10365 0.22835 0.23525 0.0
H787 H 0.13142 0.24237 0.11875 0.0
H788 H 0.12776 0.2415 0.1711 0.0
H789 H 0.1295 0.22848 0.14782 0.0
H790 H 0.11522 0.20904 0.19483 0.0
H791 H 0.12618 0.21326 0.25955 0.0
H792 H 0.90025 0.77651 0.20605 0.0
H793 H 0.89362 0.78491 0.26351 0.0
H794 H 0.89997 0.75875 0.34032 0.0
H795 H 0.90682 0.75056 0.28365 0.0
H796 H 0.87282 0.77114 0.31303 0.0
H797 H 0.91943 0.79353 0.40018 0.0
H798 H 0.91888 0.78916 0.34846 0.0
H799 H 0.91456 0.77672 0.38657 0.0
C800 C 0.90037 0.77267 0.23528 0.0
C801 C 0.9041 0.7629 0.24033 0.0
C802 C 0.8966 0.77749 0.26803 0.0
C803 C 0.89658 0.77267 0.30629 0.0
C804 C 0.9003 0.76292 0.31127 0.0
H805 H 0.84864 0.75534 0.50668 0.0
H806 H 0.8584 0.75804 0.44103 0.0
C807 C 0.90409 0.75815 0.27871 0.0
C808 C 0.89173 0.77694 0.3409 0.0
H809 H 0.89899 0.78615 0.43794 0.0
C810 C 0.87864 0.77471 0.34011 0.0
C811 C 0.89942 0.78192 0.37594 0.0
C812 C 0.91391 0.78561 0.37769 0.0
C813 C 0.87268 0.77628 0.37438 0.0
C814 C 0.87991 0.77987 0.41049 0.0
C815 C 0.89335 0.78317 0.41044 0.0
C816 C 0.87336 0.77883 0.44918 0.0
C817 C 0.85858 0.77376 0.37175 0.0
C818 C 0.87869 0.78955 0.47606 0.0
C819 C 0.87322 0.78798 0.51408 0.0
C820 C 0.86237 0.77563 0.52585 0.0
C821 C 0.85694 0.76501 0.49856 0.0
C822 C 0.86244 0.76657 0.46078 0.0
H823 H 0.85644 0.77616 0.34164 0.0
H824 H 0.85149 0.76302 0.3773 0.0
H825 H 0.85672 0.77975 0.39392 0.0
H826 H 0.88722 0.79906 0.46784 0.0
H827 H 0.87764 0.79635 0.53443 0.0
H828 H 0.24456 0.09587 0.51129 0.0
H829 H 0.23601 0.09745 0.44676 0.0
H830 H 0.19835 0.06214 0.4723 0.0
H831 H 0.20693 0.06033 0.53734 0.0
H832 H 0.20825 0.06204 0.3964 0.0
H833 H 0.20891 0.10943 0.4239 0.0
H834 H 0.22463 0.11083 0.43647 0.0
H835 H 0.20983 0.09942 0.46357 0.0
C836 C 0.23443 0.08844 0.50342 0.0
C837 C 0.2264 0.078 0.52957 0.0
C838 C 0.22953 0.08942 0.46657 0.0
C839 C 0.21646 0.08007 0.45514 0.0
C840 C 0.20843 0.06952 0.48083 0.0
H841 H 0.19956 0.10654 0.23146 0.0
H842 H 0.19408 0.09551 0.29622 0.0
C843 C 0.21334 0.06852 0.51791 0.0
C844 C 0.21161 0.08126 0.41557 0.0
H845 H 0.21062 0.10435 0.35516 0.0
C846 C 0.20845 0.07115 0.38746 0.0
C847 C 0.21151 0.09297 0.40422 0.0
C848 C 0.21375 0.10371 0.4338 0.0
C849 C 0.20634 0.07298 0.34744 0.0
C850 C 0.20774 0.08533 0.33532 0.0
C851 C 0.20973 0.09493 0.36417 0.0
C852 C 0.20888 0.0893 0.29297 0.0
C853 C 0.20299 0.06178 0.3185 0.0
C854 C 0.21874 0.08913 0.26905 0.0
C855 C 0.2218 0.0953 0.23192 0.0
C856 C 0.21524 0.10201 0.2183 0.0
C857 C 0.20485 0.10153 0.24124 0.0
C858 C 0.20169 0.09521 0.27824 0.0
H859 H 0.19708 0.05192 0.3332 0.0
H860 H 0.19727 0.06223 0.29266 0.0
H861 H 0.21238 0.06249 0.30761 0.0
H862 H 0.22469 0.08499 0.28008 0.0
H863 H 0.22988 0.09552 0.21506 0.0
H864 H 0.89622 0.10932 0.57067 0.0
H865 H 0.89263 0.10069 0.50264 0.0
H866 H 0.9013 0.13916 0.45804 0.0
H867 H 0.90491 0.14787 0.52568 0.0
H868 H 0.87282 0.10055 0.45225 0.0
H869 H 0.92317 0.12852 0.38462 0.0
H870 H 0.92055 0.12661 0.43767 0.0
H871 H 0.91826 0.13884 0.41129 0.0
C872 C 0.89757 0.116 0.54633 0.0
C873 C 0.9008 0.12926 0.55355 0.0
C874 C 0.89553 0.11105 0.50754 0.0
C875 C 0.89689 0.11935 0.47539 0.0
C876 C 0.90047 0.13268 0.48243 0.0
H877 H 0.87586 0.11751 0.23447 0.0
H878 H 0.88615 0.12261 0.30016 0.0
C879 C 0.90242 0.1376 0.52114 0.0
C880 C 0.89318 0.1138 0.43486 0.0
H881 H 0.90464 0.11832 0.33958 0.0
C882 C 0.87981 0.10422 0.42765 0.0
C883 C 0.90234 0.1187 0.40299 0.0
C884 C 0.91692 0.12865 0.40947 0.0
C885 C 0.87514 0.09994 0.38898 0.0
C886 C 0.88422 0.10514 0.35683 0.0
C887 C 0.89772 0.11434 0.36427 0.0
C888 C 0.87959 0.10205 0.31516 0.0
C889 C 0.86039 0.09049 0.38278 0.0
C890 C 0.87295 0.08884 0.30122 0.0
C891 C 0.86691 0.08587 0.26382 0.0
C892 C 0.8676 0.09609 0.23956 0.0
C893 C 0.87508 0.1094 0.2525 0.0
C894 C 0.881 0.11234 0.29003 0.0
H895 H 0.85444 0.08982 0.40946 0.0
H896 H 0.85661 0.0937 0.35722 0.0
H897 H 0.8587 0.08035 0.37639 0.0
H898 H 0.87205 0.08079 0.31981 0.0
H899 H 0.86136 0.07553 0.25446 0.0
H900 H 0.90767 0.46035 0.06569 0.0
H901 H 0.89976 0.46414 0.12882 0.0
H902 H 0.87023 0.42229 0.13571 0.0
H903 H 0.87836 0.41832 0.07298 0.0
H904 H 0.87581 0.45992 0.15939 0.0
H905 H 0.89235 0.42777 0.23471 0.0
H906 H 0.89648 0.43295 0.18376 0.0
H907 H 0.88002 0.41976 0.19653 0.0
C908 C 0.89937 0.45197 0.0803 0.0
C909 C 0.8938 0.43899 0.06473 0.0
C910 C 0.89484 0.45416 0.11636 0.0
C911 C 0.88462 0.44344 0.13736 0.0
C912 C 0.87835 0.43064 0.12043 0.0
H913 H 0.86921 0.44785 0.39062 0.0
H914 H 0.86474 0.43994 0.32175 0.0
C915 C 0.88298 0.4284 0.08453 0.0
C916 C 0.88146 0.44563 0.17831 0.0
H917 H 0.88446 0.43878 0.27509 0.0
C918 C 0.87752 0.45517 0.1847 0.0
C919 C 0.88369 0.4394 0.21129 0.0
C920 C 0.88847 0.42948 0.20646 0.0
C921 C 0.87622 0.45899 0.22325 0.0
C922 C 0.87903 0.45318 0.25606 0.0
C923 C 0.88226 0.44315 0.24975 0.0
C924 C 0.88032 0.45845 0.2968 0.0
C925 C 0.87217 0.46943 0.22857 0.0
C926 C 0.89052 0.47146 0.3054 0.0
C927 C 0.89318 0.47596 0.34456 0.0
C928 C 0.88568 0.4675 0.3759 0.0
C929 C 0.87514 0.45461 0.36712 0.0
C930 C 0.87256 0.45008 0.32784 0.0
H931 H 0.86653 0.46985 0.20245 0.0
H932 H 0.86596 0.46746 0.2556 0.0
H933 H 0.88128 0.47937 0.23186 0.0
H934 H 0.89682 0.47798 0.28194 0.0
H935 H 0.90135 0.48595 0.35033 0.0
H936 H 0.58348 0.46679 0.06422 0.0
H937 H 0.57955 0.45434 0.12614 0.0
H938 H 0.53729 0.43982 0.11549 0.0
H939 H 0.54109 0.4518 0.05304 0.0
H940 H 0.57071 0.46014 0.18949 0.0
H941 H 0.53607 0.40702 0.15703 0.0
H942 H 0.54507 0.41899 0.11831 0.0
H943 H 0.52958 0.417 0.13721 0.0
C944 C 0.57331 0.46064 0.07456 0.0
C945 C 0.56259 0.46035 0.05395 0.0
C946 C 0.57108 0.45351 0.1099 0.0
C947 C 0.55811 0.44603 0.12536 0.0
C948 C 0.54734 0.4452 0.10372 0.0
H949 H 0.52002 0.43002 0.34416 0.0
H950 H 0.5274 0.4326 0.27519 0.0
C951 C 0.54954 0.45218 0.06812 0.0
C952 C 0.55604 0.44088 0.16661 0.0
H953 H 0.53503 0.41436 0.22449 0.0
C954 C 0.56317 0.45001 0.19705 0.0
C955 C 0.54622 0.42766 0.17659 0.0
C956 C 0.53892 0.4171 0.14543 0.0
C957 C 0.56011 0.44655 0.23707 0.0
C958 C 0.54965 0.43366 0.24684 0.0
C959 C 0.543 0.42427 0.2167 0.0
C960 C 0.54455 0.43042 0.2878 0.0
C961 C 0.56749 0.45694 0.26868 0.0
C962 C 0.55168 0.42813 0.31744 0.0
C963 C 0.54748 0.42663 0.35699 0.0
C964 C 0.53616 0.42752 0.36733 0.0
C965 C 0.52883 0.42939 0.33722 0.0
C966 C 0.53298 0.43078 0.29778 0.0
H967 H 0.57496 0.46674 0.25594 0.0
H968 H 0.5603 0.45836 0.28695 0.0
H969 H 0.57275 0.45346 0.28872 0.0
H970 H 0.56066 0.42786 0.31009 0.0
H971 H 0.55331 0.42517 0.37952 0.0
H972 H 0.60701 0.13094 0.40108 0.0
H973 H 0.60673 0.13568 0.3302 0.0
H974 H 0.56489 0.12327 0.33865 0.0
H975 H 0.56507 0.11852 0.40899 0.0
H976 H 0.59031 0.11562 0.27663 0.0
H977 H 0.57974 0.15714 0.2707 0.0
H978 H 0.58668 0.15366 0.31416 0.0
H979 H 0.56895 0.14451 0.30517 0.0
C980 C 0.59783 0.1295 0.38796 0.0
C981 C 0.58603 0.12428 0.4105 0.0
C982 C 0.59771 0.13224 0.34755 0.0
C983 C 0.58585 0.13003 0.3294 0.0
C984 C 0.57423 0.12535 0.35228 0.0
H985 H 0.53562 0.10516 0.14239 0.0
H986 H 0.54969 0.11529 0.20025 0.0
C987 C 0.57431 0.1225 0.39242 0.0
C988 C 0.58489 0.13072 0.28581 0.0
H989 H 0.57127 0.14143 0.21526 0.0
C990 C 0.58657 0.12157 0.26272 0.0
C991 C 0.58012 0.13857 0.26788 0.0
C992 C 0.5789 0.14913 0.29075 0.0
C993 C 0.5822 0.119 0.22317 0.0
C994 C 0.57623 0.12596 0.20637 0.0
C995 C 0.57577 0.13604 0.22834 0.0
C996 C 0.56826 0.12125 0.16951 0.0
C997 C 0.58288 0.10802 0.20093 0.0
C998 C 0.57409 0.12146 0.13277 0.0
C999 C 0.56601 0.11555 0.09942 0.0
C1000 C 0.55203 0.10939 0.10247 0.0
C1001 C 0.54634 0.10971 0.13902 0.0
C1002 C 0.55437 0.11558 0.17213 0.0
H1003 H 0.58652 0.10263 0.21989 0.0
H1004 H 0.57288 0.10069 0.18914 0.0
H1005 H 0.58978 0.11236 0.17536 0.0
H1006 H 0.58481 0.12595 0.1301 0.0
H1007 H 0.5707 0.11555 0.07158 0.0
H1008 H 0.8032 0.57317 0.78693 0.0
H1009 H 0.79813 0.56807 0.85699 0.0
H1010 H 0.79329 0.52897 0.83875 0.0
H1011 H 0.79818 0.53393 0.76787 0.0
H1012 H 0.7731 0.52817 0.88337 0.0
H1013 H 0.82166 0.56653 0.94352 0.0
H1014 H 0.81532 0.57387 0.90927 0.0
H1015 H 0.81942 0.5616 0.89193 0.0
C1016 C 0.80113 0.5635 0.7977 0.0
C1017 C 0.80115 0.55397 0.77182 0.0
C1018 C 0.79835 0.56064 0.8379 0.0
C1019 C 0.79566 0.54826 0.85325 0.0
C1020 C 0.7955 0.53864 0.82752 0.0
H1021 H 0.78631 0.55014 0.1106 0.0
H1022 H 0.79309 0.54394 0.04897 0.0
C1023 C 0.79827 0.54149 0.78708 0.0
C1024 C 0.79232 0.54534 0.89583 0.0
H1025 H 0.80251 0.55961 0.98705 0.0
C1026 C 0.77964 0.53483 0.90625 0.0
C1027 C 0.80099 0.55376 0.92586 0.0
C1028 C 0.81516 0.56447 0.91709 0.0
C1029 C 0.77495 0.53333 0.9454 0.0
C1030 C 0.78304 0.54277 0.97446 0.0
C1031 C 0.79618 0.55248 0.96472 0.0
C1032 C 0.77761 0.54403 0.01306 0.0
C1033 C 0.76121 0.52189 0.95487 0.0
C1034 C 0.76653 0.54592 0.01351 0.0
C1035 C 0.76261 0.54939 0.04856 0.0
C1036 C 0.76982 0.55126 0.08388 0.0
C1037 C 0.78057 0.54881 0.08386 0.0
C1038 C 0.78445 0.54525 0.04869 0.0
H1039 H 0.75884 0.51304 0.93623 0.0
H1040 H 0.76029 0.51897 0.98662 0.0
H1041 H 0.75368 0.52488 0.9481 0.0
H1042 H 0.76132 0.54544 0.9863 0.0
H1043 H 0.75429 0.55121 0.04745 0.0
H1044 H 0.4456 0.22196 0.75635 0.0
H1045 H 0.44708 0.21789 0.82684 0.0
H1046 H 0.44697 0.25414 0.85643 0.0
H1047 H 0.44502 0.25804 0.78602 0.0
H1048 H 0.46417 0.23141 0.88819 0.0
H1049 H 0.41428 0.22622 0.91444 0.0
H1050 H 0.42087 0.22725 0.86527 0.0
H1051 H 0.42658 0.24209 0.89478 0.0
C1052 C 0.44606 0.22916 0.77781 0.0
C1053 C 0.44495 0.24019 0.76575 0.0
C1054 C 0.44693 0.22683 0.81808 0.0
C1055 C 0.44681 0.23555 0.84687 0.0
C1056 C 0.4467 0.2471 0.83473 0.0
H1057 H 0.43401 0.21942 0.10262 0.0
H1058 H 0.44144 0.23194 0.04014 0.0
C1059 C 0.44564 0.24934 0.79451 0.0
C1060 C 0.44582 0.23196 0.88941 0.0
H1061 H 0.42491 0.22306 0.96925 0.0
C1062 C 0.45565 0.2297 0.90606 0.0
C1063 C 0.43467 0.22972 0.91262 0.0
C1064 C 0.42343 0.23132 0.89588 0.0
C1065 C 0.45446 0.22496 0.94503 0.0
C1066 C 0.44315 0.22238 0.9677 0.0
C1067 C 0.43361 0.22515 0.95171 0.0
C1068 C 0.4402 0.21546 0.00633 0.0
C1069 C 0.46517 0.22248 0.96148 0.0
C1070 C 0.43705 0.20208 0.00775 0.0
C1071 C 0.43267 0.19489 0.04307 0.0
C1072 C 0.4314 0.20096 0.07766 0.0
C1073 C 0.43492 0.21449 0.07645 0.0
C1074 C 0.43918 0.22165 0.04089 0.0
H1075 H 0.47471 0.22819 0.94496 0.0
H1076 H 0.46699 0.22524 0.99338 0.0
H1077 H 0.46184 0.2117 0.95882 0.0
H1078 H 0.43754 0.19707 0.98117 0.0
H1079 H 0.43009 0.1845 0.04308 0.0
H1080 H 0.74033 0.18041 0.81557 0.0
H1081 H 0.74773 0.18782 0.88348 0.0
H1082 H 0.77113 0.22847 0.84253 0.0
H1083 H 0.76352 0.2212 0.77472 0.0
H1084 H 0.77342 0.19855 0.90311 0.0
H1085 H 0.75622 0.23374 0.94515 0.0
H1086 H 0.74918 0.22235 0.90379 0.0
H1087 H 0.76464 0.23786 0.89816 0.0
C1088 C 0.74678 0.19098 0.82116 0.0
C1089 C 0.75144 0.20021 0.78974 0.0
C1090 C 0.75098 0.19519 0.86 0.0
C1091 C 0.75991 0.2087 0.86814 0.0
C1092 C 0.764 0.21804 0.83714 0.0
H1093 H 0.82389 0.24193 0.03389 0.0
H1094 H 0.80883 0.23446 0.97691 0.0
C1095 C 0.75971 0.21385 0.79829 0.0
C1096 C 0.76648 0.21269 0.90746 0.0
H1097 H 0.77482 0.23537 0.98253 0.0
C1098 C 0.77353 0.20646 0.92075 0.0
C1099 C 0.76658 0.22296 0.93058 0.0
C1100 C 0.75863 0.22952 0.91889 0.0
C1101 C 0.7811 0.21056 0.95565 0.0
C1102 C 0.78183 0.22134 0.97749 0.0
C1103 C 0.77435 0.22722 0.96531 0.0
C1104 C 0.79083 0.22691 0.01201 0.0
C1105 C 0.78844 0.20347 0.96859 0.0
C1106 C 0.78566 0.22548 0.05047 0.0
C1107 C 0.79425 0.22974 0.08324 0.0
C1108 C 0.80813 0.23554 0.07786 0.0
C1109 C 0.81325 0.23741 0.0391 0.0
C1110 C 0.80468 0.23314 0.00649 0.0
H1111 H 0.78425 0.19348 0.9545 0.0
H1112 H 0.79908 0.20951 0.95977 0.0
H1113 H 0.78803 0.20223 0.00134 0.0
H1114 H 0.77498 0.22072 0.05518 0.0
H1115 H 0.79001 0.22823 0.11273 0.0
H1116 H 0.436 0.25134 0.50449 0.0
H1117 H 0.43902 0.23958 0.44891 0.0
H1118 H 0.4508 0.21845 0.5299 0.0
H1119 H 0.44762 0.23007 0.58602 0.0
H1120 H 0.46081 0.23645 0.42173 0.0
H1121 H 0.4172 0.18881 0.47382 0.0
H1122 H 0.42089 0.20482 0.49337 0.0
H1123 H 0.43071 0.1975 0.50834 0.0
C1124 C 0.4394 0.24433 0.51055 0.0
C1125 C 0.44138 0.24149 0.54971 0.0
C1126 C 0.44117 0.23765 0.47871 0.0
C1127 C 0.44492 0.22801 0.48543 0.0
C1128 C 0.4477 0.22572 0.52424 0.0
H1129 H 0.43399 0.16855 0.30512 0.0
H1130 H 0.44168 0.18181 0.36615 0.0
C1131 C 0.44593 0.23241 0.5562 0.0
C1132 C 0.44477 0.21969 0.45192 0.0
H1133 H 0.4264 0.18849 0.4123 0.0
C1134 C 0.45343 0.22591 0.41984 0.0
C1135 C 0.43515 0.20594 0.44968 0.0
C1136 C 0.42537 0.19883 0.48293 0.0
C1137 C 0.45241 0.21884 0.38493 0.0
C1138 C 0.44231 0.20528 0.3819 0.0
C1139 C 0.43413 0.19889 0.41475 0.0
C1140 C 0.43908 0.19792 0.34384 0.0
C1141 C 0.46199 0.226 0.35137 0.0
C1142 C 0.43504 0.20256 0.3112 0.0
C1143 C 0.43062 0.19503 0.27645 0.0
C1144 C 0.43004 0.18262 0.27376 0.0
C1145 C 0.43431 0.17807 0.30626 0.0
C1146 C 0.43873 0.18563 0.3411 0.0
H1147 H 0.47155 0.23442 0.36258 0.0
H1148 H 0.46416 0.21911 0.33416 0.0
H1149 H 0.4575 0.23022 0.331 0.0
H1150 H 0.43489 0.21184 0.31303 0.0
H1151 H 0.42739 0.19882 0.25201 0.0
H1152 H 0.74481 0.20071 0.58408 0.0
H1153 H 0.75054 0.21155 0.51897 0.0
H1154 H 0.79211 0.22479 0.54032 0.0
H1155 H 0.78655 0.21432 0.6057 0.0
H1156 H 0.7883 0.24372 0.50071 0.0
H1157 H 0.75963 0.19363 0.42994 0.0
H1158 H 0.75024 0.19811 0.46263 0.0
H1159 H 0.76331 0.19568 0.48232 0.0
C1160 C 0.7552 0.20611 0.57515 0.0
C1161 C 0.76521 0.20648 0.59977 0.0
C1162 C 0.75844 0.21224 0.5379 0.0
C1163 C 0.7717 0.21869 0.52452 0.0
C1164 C 0.7818 0.21979 0.55003 0.0
H1165 H 0.81977 0.24368 0.31955 0.0
H1166 H 0.8102 0.24039 0.38594 0.0
C1167 C 0.77859 0.21377 0.58737 0.0
C1168 C 0.77506 0.22335 0.48299 0.0
H1169 H 0.77121 0.21197 0.38769 0.0
C1170 C 0.78445 0.23682 0.47591 0.0
C1171 C 0.77002 0.21431 0.45072 0.0
C1172 C 0.76033 0.1996 0.4566 0.0
C1173 C 0.78921 0.24142 0.43747 0.0
C1174 C 0.78454 0.23227 0.40554 0.0
C1175 C 0.77472 0.21895 0.41233 0.0
C1176 C 0.79062 0.23587 0.36562 0.0
C1177 C 0.79935 0.25597 0.43143 0.0
C1178 C 0.78275 0.23433 0.33217 0.0
C1179 C 0.78818 0.23615 0.29407 0.0
C1180 C 0.80152 0.23936 0.28887 0.0
C1181 C 0.80945 0.2412 0.32253 0.0
C1182 C 0.80404 0.23945 0.36054 0.0
H1183 H 0.79885 0.26227 0.45552 0.0
H1184 H 0.80952 0.25723 0.43169 0.0
H1185 H 0.79786 0.25961 0.40245 0.0
H1186 H 0.77232 0.23143 0.33555 0.0
H1187 H 0.78181 0.23466 0.26874 0.0
H1188 H 0.78514 0.54205 0.57657 0.0
H1189 H 0.77369 0.53311 0.51329 0.0
H1190 H 0.76151 0.56279 0.51132 0.0
H1191 H 0.77245 0.57144 0.57509 0.0
H1192 H 0.7423 0.5391 0.48056 0.0
H1193 H 0.79186 0.55371 0.41414 0.0
H1194 H 0.78664 0.54164 0.4534 0.0
H1195 H 0.79016 0.55834 0.46394 0.0
C1196 C 0.77981 0.54651 0.56297 0.0
C1197 C 0.77988 0.55759 0.58045 0.0
C1198 C 0.77334 0.54143 0.52674 0.0
C1199 C 0.76708 0.54753 0.50708 0.0
C1200 C 0.76635 0.55798 0.52586 0.0
H1201 H 0.74742 0.56482 0.2863 0.0
H1202 H 0.74921 0.56023 0.35601 0.0
C1203 C 0.77264 0.56294 0.56231 0.0
C1204 C 0.76236 0.544 0.46557 0.0
H1205 H 0.77369 0.54587 0.37085 0.0
C1206 C 0.74911 0.54038 0.45661 0.0
C1207 C 0.77128 0.54569 0.43429 0.0
C1208 C 0.7858 0.55016 0.44171 0.0
C1209 C 0.74469 0.53896 0.41715 0.0
C1210 C 0.75377 0.54124 0.38604 0.0
C1211 C 0.76677 0.54407 0.39495 0.0
C1212 C 0.75068 0.54261 0.34434 0.0
C1213 C 0.73049 0.53544 0.40894 0.0
C1214 C 0.75091 0.53419 0.31471 0.0
C1215 C 0.74984 0.53677 0.27469 0.0
C1216 C 0.74882 0.54797 0.26382 0.0
C1217 C 0.74825 0.55615 0.29372 0.0
C1218 C 0.74915 0.55347 0.3336 0.0
H1219 H 0.72389 0.53037 0.43475 0.0
H1220 H 0.73021 0.54474 0.40294 0.0
H1221 H 0.72647 0.52888 0.38247 0.0
H1222 H 0.75226 0.52586 0.32251 0.0
H1223 H 0.75035 0.53032 0.25227 0.0
H1224 H 0.53455 0.10324 0.61061 0.0
H1225 H 0.53173 0.10934 0.67757 0.0
H1226 H 0.57349 0.13937 0.68156 0.0
H1227 H 0.57649 0.13292 0.61489 0.0
H1228 H 0.5677 0.12336 0.74091 0.0
H1229 H 0.52904 0.1378 0.73579 0.0
H1230 H 0.52304 0.1222 0.71055 0.0
H1231 H 0.53743 0.13699 0.69154 0.0
C1232 C 0.54306 0.1114 0.62526 0.0
C1233 C 0.55577 0.11749 0.60771 0.0
C1234 C 0.54141 0.11498 0.66352 0.0
C1235 C 0.55237 0.12493 0.68457 0.0
C1236 C 0.56488 0.13169 0.66588 0.0
H1237 H 0.53552 0.1297 0.93839 0.0
H1238 H 0.54342 0.1376 0.87072 0.0
C1239 C 0.56659 0.12798 0.62782 0.0
C1240 C 0.55119 0.1265 0.72783 0.0
H1241 H 0.53012 0.12708 0.79773 0.0
C1242 C 0.55969 0.12456 0.75328 0.0
C1243 C 0.54092 0.12828 0.74429 0.0
C1244 C 0.53221 0.13159 0.71899 0.0
C1245 C 0.5575 0.1232 0.79429 0.0
C1246 C 0.54634 0.12348 0.81014 0.0
C1247 C 0.53853 0.12659 0.78533 0.0
C1248 C 0.54178 0.11902 0.85118 0.0
C1249 C 0.56686 0.12094 0.8201 0.0
C1250 C 0.53807 0.10593 0.86219 0.0
C1251 C 0.53358 0.1014 0.90051 0.0
C1252 C 0.53263 0.10987 0.92862 0.0
C1253 C 0.53622 0.12297 0.91745 0.0
C1254 C 0.54071 0.1275 0.87888 0.0
H1255 H 0.57696 0.1254 0.80661 0.0
H1256 H 0.56777 0.12524 0.85019 0.0
H1257 H 0.56293 0.11004 0.82319 0.0
H1258 H 0.53854 0.09914 0.84094 0.0
H1259 H 0.53082 0.09123 0.908 0.0
H1260 H 0.90266 0.44243 0.5384 0.0
H1261 H 0.89764 0.43018 0.60114 0.0
H1262 H 0.87981 0.4526 0.64601 0.0
H1263 H 0.88463 0.46476 0.58347 0.0
H1264 H 0.90887 0.44364 0.67088 0.0
H1265 H 0.85381 0.41493 0.68518 0.0
H1266 H 0.86212 0.42123 0.63814 0.0
H1267 H 0.86005 0.43208 0.67203 0.0
C1268 C 0.89737 0.44452 0.56125 0.0
C1269 C 0.89416 0.45465 0.55611 0.0
C1270 C 0.8945 0.4375 0.59704 0.0
C1271 C 0.88824 0.4404 0.62805 0.0
C1272 C 0.88439 0.45 0.6222 0.0
H1273 H 0.8816 0.43542 0.87964 0.0
H1274 H 0.87914 0.43745 0.80828 0.0
C1275 C 0.88728 0.45704 0.58651 0.0
C1276 C 0.88751 0.43491 0.66823 0.0
H1277 H 0.86638 0.41922 0.74576 0.0
C1278 C 0.89956 0.43807 0.68704 0.0
C1279 C 0.87536 0.42776 0.68926 0.0
C1280 C 0.86209 0.42369 0.66999 0.0
C1281 C 0.89988 0.43485 0.72695 0.0
C1282 C 0.88776 0.42799 0.74835 0.0
C1283 C 0.87564 0.42446 0.72922 0.0
C1284 C 0.88765 0.42523 0.79127 0.0
C1285 C 0.91326 0.43945 0.74637 0.0
C1286 C 0.89282 0.41731 0.80527 0.0
C1287 C 0.89438 0.41625 0.84597 0.0
C1288 C 0.89062 0.42295 0.87336 0.0
C1289 C 0.88466 0.43019 0.8593 0.0
C1290 C 0.88322 0.43134 0.81855 0.0
H1291 H 0.92163 0.44715 0.72841 0.0
H1292 H 0.91364 0.44363 0.77633 0.0
H1293 H 0.91486 0.4308 0.74974 0.0
H1294 H 0.89604 0.41229 0.78466 0.0
H1295 H 0.89883 0.41044 0.8559 0.0
H1296 H 0.54489 0.42792 0.56591 0.0
H1297 H 0.55618 0.43256 0.63023 0.0
H1298 H 0.57138 0.4747 0.61325 0.0
H1299 H 0.56041 0.47021 0.54856 0.0
H1300 H 0.58935 0.46883 0.65382 0.0
H1301 H 0.53811 0.44245 0.71806 0.0
H1302 H 0.54207 0.43281 0.6847 0.0
H1303 H 0.54113 0.44691 0.6663 0.0
C1304 C 0.55088 0.43821 0.57547 0.0
C1305 C 0.55155 0.44869 0.55253 0.0
C1306 C 0.5573 0.44083 0.61223 0.0
C1307 C 0.56434 0.45394 0.62679 0.0
C1308 C 0.56593 0.4645 0.60256 0.0
H1309 H 0.57247 0.48814 0.85193 0.0
H1310 H 0.56876 0.48035 0.78347 0.0
C1311 C 0.55962 0.46191 0.56564 0.0
C1312 C 0.56857 0.45658 0.66882 0.0
H1313 H 0.55598 0.45246 0.76264 0.0
C1314 C 0.58212 0.46511 0.67776 0.0
C1315 C 0.55903 0.45181 0.69983 0.0
C1316 C 0.54426 0.44307 0.69193 0.0
C1317 C 0.58633 0.4693 0.71692 0.0
C1318 C 0.57673 0.46474 0.74763 0.0
C1319 C 0.56329 0.45585 0.73887 0.0
C1320 C 0.58007 0.47013 0.78839 0.0
C1321 C 0.60086 0.47904 0.72504 0.0
C1322 C 0.58776 0.46702 0.81371 0.0
C1323 C 0.58993 0.47148 0.85313 0.0
C1324 C 0.58436 0.47904 0.86766 0.0
C1325 C 0.57687 0.48231 0.84181 0.0
C1326 C 0.57474 0.47787 0.80264 0.0
H1327 H 0.60678 0.48277 0.69728 0.0
H1328 H 0.60189 0.48769 0.74231 0.0
H1329 H 0.60514 0.47407 0.74316 0.0
H1330 H 0.59181 0.46091 0.80328 0.0
H1331 H 0.59572 0.4688 0.87234 0.0
H1332 H 0.52741 0.80268 0.7015 0.0
H1333 H 0.52377 0.7939 0.63367 0.0
H1334 H 0.5425 0.77085 0.66415 0.0
H1335 H 0.54583 0.77923 0.73172 0.0
H1336 H 0.54326 0.79896 0.58411 0.0
H1337 H 0.51264 0.74436 0.59654 0.0
H1338 H 0.5139 0.75534 0.63656 0.0
H1339 H 0.52621 0.75021 0.63101 0.0
C1340 C 0.53042 0.79546 0.69399 0.0
C1341 C 0.537 0.79173 0.72193 0.0
C1342 C 0.52832 0.79045 0.65522 0.0
C1343 C 0.5327 0.78158 0.64387 0.0
C1344 C 0.53869 0.77738 0.67233 0.0
H1345 H 0.57681 0.77906 0.45606 0.0
H1346 H 0.56626 0.78422 0.51033 0.0
C1347 C 0.54072 0.78232 0.71099 0.0
C1348 C 0.53295 0.77823 0.60151 0.0
H1349 H 0.52908 0.75263 0.54213 0.0
C1350 C 0.53981 0.78878 0.57462 0.0
C1351 C 0.52821 0.76496 0.58861 0.0
C1352 C 0.5197 0.75309 0.6147 0.0
C1353 C 0.54318 0.78652 0.53658 0.0
C1354 C 0.53989 0.77342 0.52557 0.0
C1355 C 0.53188 0.76273 0.5509 0.0
C1356 C 0.54603 0.77085 0.49058 0.0
C1357 C 0.55069 0.79828 0.50915 0.0
C1358 C 0.53816 0.76137 0.4618 0.0
C1359 C 0.5442 0.75827 0.43076 0.0
C1360 C 0.5582 0.76452 0.42826 0.0
C1361 C 0.56601 0.7741 0.45693 0.0
C1362 C 0.55999 0.77716 0.48785 0.0
H1363 H 0.54799 0.8061 0.51486 0.0
H1364 H 0.56157 0.8028 0.51462 0.0
H1365 H 0.54865 0.79524 0.47749 0.0
H1366 H 0.52737 0.75628 0.46363 0.0
H1367 H 0.5379 0.75082 0.40918 0.0
H1368 H 0.2492 0.80083 0.39305 0.0
H1369 H 0.24582 0.78783 0.45353 0.0
H1370 H 0.20324 0.77149 0.44317 0.0
H1371 H 0.20653 0.78404 0.38211 0.0
H1372 H 0.23653 0.79235 0.51785 0.0
H1373 H 0.20378 0.7392 0.48166 0.0
H1374 H 0.21241 0.75164 0.44374 0.0
H1375 H 0.19659 0.74868 0.46287 0.0
C1376 C 0.2391 0.79418 0.40311 0.0
C1377 C 0.22813 0.79354 0.38304 0.0
C1378 C 0.23718 0.78673 0.43763 0.0
C1379 C 0.22427 0.77857 0.45281 0.0
C1380 C 0.21327 0.7774 0.43159 0.0
H1381 H 0.19477 0.77098 0.68142 0.0
H1382 H 0.20354 0.776 0.61411 0.0
C1383 C 0.21517 0.78471 0.3968 0.0
C1384 C 0.22239 0.77309 0.49361 0.0
H1385 H 0.20198 0.74578 0.54968 0.0
C1386 C 0.22922 0.78206 0.52464 0.0
C1387 C 0.21301 0.75963 0.50273 0.0
C1388 C 0.20616 0.74923 0.47085 0.0
C1389 C 0.22618 0.77823 0.56439 0.0
C1390 C 0.21584 0.76517 0.57336 0.0
C1391 C 0.20975 0.75587 0.54262 0.0
C1392 C 0.21029 0.7616 0.61389 0.0
C1393 C 0.23372 0.78835 0.59648 0.0
C1394 C 0.21084 0.75154 0.63562 0.0
C1395 C 0.20578 0.74859 0.67437 0.0
C1396 C 0.20001 0.75561 0.69163 0.0
C1397 C 0.19923 0.76545 0.66922 0.0
C1398 C 0.20428 0.76838 0.63076 0.0
H1399 H 0.24376 0.7961 0.58604 0.0
H1400 H 0.22809 0.79344 0.60482 0.0
H1401 H 0.23491 0.78351 0.62341 0.0
H1402 H 0.21535 0.74614 0.62286 0.0
H1403 H 0.20647 0.74092 0.69082 0.0
H1404 H 0.20412 0.44922 0.39998 0.0
H1405 H 0.21687 0.45802 0.46129 0.0
H1406 H 0.23086 0.42983 0.452 0.0
H1407 H 0.21851 0.42128 0.39017 0.0
H1408 H 0.2112 0.44362 0.5257 0.0
H1409 H 0.26417 0.46193 0.49079 0.0
H1410 H 0.25195 0.45882 0.4527 0.0
H1411 H 0.25393 0.44536 0.47185 0.0
C1412 C 0.21019 0.44513 0.41048 0.0
C1413 C 0.21023 0.43448 0.39042 0.0
C1414 C 0.21749 0.45019 0.44548 0.0
C1415 C 0.22493 0.44469 0.46112 0.0
C1416 C 0.2255 0.4345 0.44006 0.0
H1417 H 0.23186 0.42377 0.69301 0.0
H1418 H 0.22733 0.4268 0.62441 0.0
C1419 C 0.21831 0.42952 0.40483 0.0
C1420 C 0.23033 0.44805 0.50207 0.0
H1421 H 0.25733 0.45438 0.55896 0.0
C1422 C 0.22139 0.44629 0.53281 0.0
C1423 C 0.24366 0.45169 0.51152 0.0
C1424 C 0.254 0.4547 0.47985 0.0
C1425 C 0.22515 0.44716 0.57269 0.0
C1426 C 0.23808 0.4496 0.58207 0.0
C1427 C 0.24734 0.45231 0.55155 0.0
C1428 C 0.24157 0.44798 0.62307 0.0
C1429 C 0.21507 0.44498 0.60451 0.0
C1430 C 0.25138 0.45885 0.64462 0.0
C1431 C 0.25403 0.45716 0.68413 0.0
C1432 C 0.24696 0.44454 0.70236 0.0
C1433 C 0.23743 0.43364 0.68008 0.0
C1434 C 0.23479 0.43535 0.64085 0.0
H1435 H 0.20729 0.44712 0.59335 0.0
H1436 H 0.21002 0.43439 0.61416 0.0
H1437 H 0.21998 0.45138 0.6308 0.0
H1438 H 0.25676 0.46866 0.63117 0.0
H1439 H 0.26147 0.46573 0.70047 0.0
H1440 H 0.47242 0.86626 0.12604 0.0
H1441 H 0.46714 0.86361 0.19722 0.0
H1442 H 0.45076 0.88979 0.1863 0.0
H1443 H 0.45568 0.89225 0.11578 0.0
H1444 H 0.47689 0.88277 0.25338 0.0
H1445 H 0.42225 0.85995 0.25072 0.0
H1446 H 0.43161 0.86022 0.20748 0.0
H1447 H 0.42945 0.87427 0.21889 0.0
C1448 C 0.46748 0.87125 0.13877 0.0
C1449 C 0.46444 0.87944 0.11525 0.0
C1450 C 0.46448 0.86973 0.17938 0.0
C1451 C 0.45831 0.87628 0.19688 0.0
C1452 C 0.45515 0.8843 0.17326 0.0
H1453 H 0.46715 0.9198 0.39762 0.0
H1454 H 0.47057 0.90814 0.34281 0.0
C1455 C 0.45809 0.8858 0.1329 0.0
C1456 C 0.4562 0.87593 0.2403 0.0
H1457 H 0.4336 0.87485 0.30703 0.0
C1458 C 0.46734 0.88068 0.26545 0.0
C1459 C 0.44368 0.87279 0.25641 0.0
C1460 C 0.43106 0.86637 0.23192 0.0
C1461 C 0.46656 0.88372 0.30536 0.0
C1462 C 0.45445 0.88234 0.31992 0.0
C1463 C 0.443 0.87623 0.29584 0.0
C1464 C 0.45376 0.88871 0.35742 0.0
C1465 C 0.47885 0.88877 0.33098 0.0
C1466 C 0.44312 0.88176 0.384 0.0
C1467 C 0.44092 0.88853 0.41479 0.0
C1468 C 0.4494 0.90235 0.41976 0.0
C1469 C 0.4605 0.90913 0.39471 0.0
C1470 C 0.46256 0.90241 0.36353 0.0
H1471 H 0.48469 0.88389 0.3226 0.0
H1472 H 0.48537 0.89966 0.32617 0.0
H1473 H 0.47628 0.88693 0.36299 0.0
H1474 H 0.43617 0.87121 0.37986 0.0
H1475 H 0.43232 0.88303 0.43385 0.0
H1476 H 0.09241 0.582 0.15932 0.0
H1477 H 0.09612 0.57785 0.22787 0.0
H1478 H 0.1279 0.57114 0.18988 0.0
H1479 H 0.12424 0.57525 0.12092 0.0
H1480 H 0.1077 0.55031 0.23485 0.0
H1481 H 0.12587 0.59907 0.30955 0.0
H1482 H 0.11127 0.59408 0.27963 0.0
H1483 H 0.12665 0.59748 0.25637 0.0
C1484 C 0.10034 0.57985 0.16554 0.0
C1485 C 0.10799 0.57888 0.13465 0.0
C1486 C 0.10252 0.5776 0.2048 0.0
C1487 C 0.1124 0.57438 0.21395 0.0
C1488 C 0.12031 0.57375 0.18338 0.0
H1489 H 0.11531 0.53576 0.43534 0.0
H1490 H 0.12267 0.54786 0.37238 0.0
C1491 C 0.11819 0.57609 0.14404 0.0
C1492 C 0.1133 0.57011 0.25467 0.0
H1493 H 0.11665 0.57972 0.35175 0.0
C1494 C 0.10992 0.55678 0.26044 0.0
C1495 C 0.11614 0.57861 0.28783 0.0
C1496 C 0.12031 0.59315 0.28311 0.0
C1497 C 0.10852 0.55146 0.29868 0.0
C1498 C 0.11091 0.55983 0.33201 0.0
C1499 C 0.11485 0.57333 0.32617 0.0
C1500 C 0.10811 0.5544 0.37288 0.0
C1501 C 0.10369 0.53674 0.30297 0.0
C1502 C 0.09804 0.55476 0.3951 0.0
C1503 C 0.09393 0.54803 0.43128 0.0
C1504 C 0.09979 0.54076 0.44577 0.0
C1505 C 0.11047 0.54112 0.42468 0.0
C1506 C 0.11466 0.54798 0.38864 0.0
H1507 H 0.09958 0.53122 0.27471 0.0
H1508 H 0.11217 0.53539 0.31194 0.0
H1509 H 0.09585 0.53218 0.32615 0.0
H1510 H 0.0929 0.55973 0.38355 0.0
H1511 H 0.08573 0.54801 0.44689 0.0
H1512 H 0.43339 0.54305 0.10703 0.0
H1513 H 0.43489 0.55177 0.17395 0.0
H1514 H 0.39205 0.5288 0.18525 0.0
H1515 H 0.3904 0.51995 0.11796 0.0
H1516 H 0.42099 0.56543 0.21048 0.0
H1517 H 0.40847 0.51632 0.27702 0.0
H1518 H 0.41422 0.52046 0.22642 0.0
H1519 H 0.39769 0.51682 0.23928 0.0
C1520 C 0.42425 0.53991 0.12352 0.0
C1521 C 0.41178 0.5307 0.10735 0.0
C1522 C 0.42514 0.54497 0.16167 0.0
C1523 C 0.41359 0.54085 0.18445 0.0
C1524 C 0.40106 0.53202 0.16805 0.0
H1525 H 0.42422 0.55295 0.44141 0.0
H1526 H 0.41207 0.54735 0.37828 0.0
C1527 C 0.40015 0.527 0.12967 0.0
C1528 C 0.41498 0.54515 0.22629 0.0
H1529 H 0.41652 0.53468 0.31967 0.0
C1530 C 0.41976 0.55868 0.23458 0.0
C1531 C 0.41323 0.53627 0.25755 0.0
C1532 C 0.40816 0.52165 0.24995 0.0
C1533 C 0.42351 0.56372 0.27322 0.0
C1534 C 0.42278 0.55504 0.30397 0.0
C1535 C 0.41712 0.54134 0.29608 0.0
C1536 C 0.42946 0.56009 0.34279 0.0
C1537 C 0.42854 0.57835 0.28046 0.0
C1538 C 0.44322 0.56925 0.34386 0.0
C1539 C 0.45016 0.57248 0.37974 0.0
C1540 C 0.44351 0.56648 0.41532 0.0
C1541 C 0.42963 0.55772 0.41451 0.0
C1542 C 0.42267 0.55452 0.37848 0.0
H1543 H 0.4237 0.58217 0.25991 0.0
H1544 H 0.42668 0.58024 0.31148 0.0
H1545 H 0.43945 0.58409 0.27474 0.0
H1546 H 0.44877 0.57339 0.31668 0.0
H1547 H 0.46084 0.57926 0.37925 0.0
H1548 H 0.09079 0.53781 0.97009 0.0
H1549 H 0.09556 0.53034 0.90741 0.0
H1550 H 0.11539 0.57084 0.8639 0.0
H1551 H 0.11083 0.57842 0.92644 0.0
H1552 H 0.08512 0.5336 0.83729 0.0
H1553 H 0.14012 0.55741 0.82555 0.0
H1554 H 0.1317 0.55565 0.87222 0.0
H1555 H 0.13458 0.5689 0.83857 0.0
C1556 C 0.09646 0.54518 0.94758 0.0
C1557 C 0.10032 0.55869 0.9531 0.0
C1558 C 0.09918 0.54089 0.91181 0.0
C1559 C 0.10592 0.55005 0.88117 0.0
C1560 C 0.11042 0.56364 0.88742 0.0
H1561 H 0.11389 0.55037 0.62899 0.0
H1562 H 0.11604 0.5554 0.70007 0.0
C1563 C 0.10769 0.56794 0.92312 0.0
C1564 C 0.10655 0.54525 0.84096 0.0
H1565 H 0.12775 0.54942 0.76472 0.0
C1566 C 0.09444 0.53686 0.82163 0.0
C1567 C 0.11873 0.54965 0.82056 0.0
C1568 C 0.13203 0.5583 0.8404 0.0
C1569 C 0.09413 0.53318 0.78186 0.0
C1570 C 0.1063 0.53777 0.76116 0.0
C1571 C 0.11844 0.54591 0.78074 0.0
C1572 C 0.10647 0.53473 0.71858 0.0
C1573 C 0.08074 0.52492 0.76187 0.0
C1574 C 0.10078 0.52147 0.70557 0.0
C1575 C 0.09941 0.51856 0.66505 0.0
C1576 C 0.10388 0.52887 0.63684 0.0
C1577 C 0.11029 0.5422 0.64998 0.0
C1578 C 0.11156 0.5451 0.69056 0.0
H1579 H 0.07253 0.5249 0.77903 0.0
H1580 H 0.08082 0.5287 0.73153 0.0
H1581 H 0.07852 0.51444 0.75931 0.0
H1582 H 0.09705 0.51336 0.72678 0.0
H1583 H 0.09459 0.5082 0.65587 0.0
H1584 H 0.44748 0.56982 0.94563 0.0
H1585 H 0.4525 0.58211 0.88275 0.0
H1586 H 0.42663 0.5454 0.82092 0.0
H1587 H 0.4214 0.53316 0.88313 0.0
H1588 H 0.46464 0.57806 0.8198 0.0
H1589 H 0.41564 0.57022 0.77164 0.0
H1590 H 0.41886 0.56741 0.82219 0.0
H1591 H 0.41445 0.55466 0.785 0.0
C1592 C 0.44268 0.56442 0.9187 0.0
C1593 C 0.43407 0.55051 0.91936 0.0
C1594 C 0.44555 0.57146 0.88287 0.0
C1595 C 0.43974 0.56471 0.84728 0.0
C1596 C 0.43093 0.55088 0.84812 0.0
H1597 H 0.45159 0.56295 0.60574 0.0
H1598 H 0.44434 0.56068 0.67475 0.0
C1599 C 0.42806 0.54387 0.88375 0.0
C1600 C 0.44395 0.57162 0.80853 0.0
H1601 H 0.43152 0.57381 0.71872 0.0
C1602 C 0.45747 0.5775 0.79799 0.0
C1603 C 0.43459 0.57092 0.7802 0.0
C1604 C 0.4201 0.56558 0.79053 0.0
C1605 C 0.46169 0.58168 0.75893 0.0
C1606 C 0.45214 0.58001 0.72995 0.0
C1607 C 0.43878 0.57498 0.74105 0.0
C1608 C 0.45556 0.58185 0.68733 0.0
C1609 C 0.47616 0.58697 0.74826 0.0
C1610 C 0.46403 0.59455 0.67146 0.0
C1611 C 0.46821 0.5959 0.63192 0.0
C1612 C 0.46399 0.58454 0.60783 0.0
C1613 C 0.45509 0.57188 0.62356 0.0
C1614 C 0.45089 0.57057 0.66292 0.0
H1615 H 0.48203 0.58639 0.7735 0.0
H1616 H 0.47694 0.58129 0.72283 0.0
H1617 H 0.48071 0.59758 0.73905 0.0
H1618 H 0.46764 0.60337 0.68989 0.0
H1619 H 0.47502 0.60579 0.62062 0.0
H1620 H 0.44241 0.86936 0.90908 0.0
H1621 H 0.43161 0.86416 0.8439 0.0
H1622 H 0.42829 0.89965 0.85007 0.0
H1623 H 0.43859 0.90464 0.91572 0.0
H1624 H 0.40684 0.87918 0.81238 0.0
H1625 H 0.45455 0.88575 0.7517 0.0
H1626 H 0.44642 0.87256 0.78734 0.0
H1627 H 0.45295 0.88963 0.80248 0.0
C1628 C 0.43913 0.8759 0.89686 0.0
C1629 C 0.44156 0.88754 0.91715 0.0
C1630 C 0.43302 0.87295 0.85958 0.0
C1631 C 0.42952 0.88173 0.84171 0.0
C1632 C 0.43101 0.89279 0.86323 0.0
H1633 H 0.42029 0.91007 0.62203 0.0
H1634 H 0.41968 0.90354 0.69125 0.0
C1635 C 0.43692 0.89564 0.90074 0.0
C1636 C 0.42562 0.88032 0.79935 0.0
H1637 H 0.43795 0.88237 0.70595 0.0
C1638 C 0.41355 0.8797 0.78908 0.0
C1639 C 0.43444 0.88104 0.76898 0.0
C1640 C 0.44786 0.8824 0.778 0.0
C1641 C 0.41027 0.88022 0.74925 0.0
C1642 C 0.41931 0.88143 0.71917 0.0
C1643 C 0.43103 0.88137 0.72925 0.0
C1644 C 0.41767 0.88434 0.67753 0.0
C1645 C 0.39732 0.87979 0.73965 0.0
C1646 C 0.41677 0.87569 0.64696 0.0
C1647 C 0.41712 0.87939 0.60729 0.0
C1648 C 0.41862 0.89191 0.59769 0.0
C1649 C 0.41918 0.90038 0.62846 0.0
C1650 C 0.4187 0.89662 0.66803 0.0
H1651 H 0.38995 0.87517 0.76407 0.0
H1652 H 0.39929 0.89014 0.73537 0.0
H1653 H 0.3929 0.87413 0.71181 0.0
H1654 H 0.41614 0.86624 0.65383 0.0
H1655 H 0.41669 0.87266 0.58424 0.0
H1656 H 0.21207 0.45953 0.22191 0.0
H1657 H 0.21903 0.4651 0.1525 0.0
H1658 H 0.18364 0.42926 0.11453 0.0
H1659 H 0.17664 0.42358 0.18352 0.0
H1660 H 0.22315 0.44719 0.10318 0.0
H1661 H 0.18601 0.45867 0.0381 0.0
H1662 H 0.18942 0.4597 0.09077 0.0
H1663 H 0.17884 0.44378 0.06782 0.0
C1664 C 0.20567 0.45295 0.19873 0.0
C1665 C 0.19385 0.44108 0.20816 0.0
C1666 C 0.20964 0.45617 0.15916 0.0
C1667 C 0.20174 0.44769 0.12849 0.0
C1668 C 0.18973 0.43607 0.13777 0.0
H1669 H 0.20181 0.42431 0.89364 0.0
H1670 H 0.19695 0.43077 0.95769 0.0
C1671 C 0.18582 0.43278 0.17724 0.0
C1672 C 0.2067 0.44997 0.08722 0.0
H1673 H 0.19805 0.45267 0.99228 0.0
C1674 C 0.21788 0.44869 0.07889 0.0
C1675 C 0.1997 0.45184 0.05583 0.0
C1676 C 0.18789 0.4537 0.0635 0.0
C1677 C 0.22174 0.44832 0.03969 0.0
C1678 C 0.21443 0.44969 0.00804 0.0
C1679 C 0.20365 0.45166 0.01654 0.0
C1680 C 0.21689 0.44752 0.96628 0.0
C1681 C 0.23301 0.44552 0.03266 0.0
C1682 C 0.22954 0.4552 0.94893 0.0
C1683 C 0.23241 0.45139 0.91255 0.0
C1684 C 0.22259 0.44 0.89263 0.0
C1685 C 0.20961 0.43309 0.90834 0.0
C1686 C 0.20681 0.43678 0.94496 0.0
H1687 H 0.23561 0.44189 0.05991 0.0
H1688 H 0.23038 0.43794 0.00894 0.0
H1689 H 0.24205 0.45485 0.02316 0.0
H1690 H 0.23735 0.46376 0.96439 0.0
H1691 H 0.24246 0.45704 0.90085 0.0
H1692 H 0.55635 0.7656 0.91282 0.0
H1693 H 0.55716 0.75926 0.98162 0.0
H1694 H 0.54801 0.78912 0.0226 0.0
H1695 H 0.54693 0.79535 0.95419 0.0
H1696 H 0.57536 0.77656 0.03472 0.0
H1697 H 0.52438 0.75786 0.09371 0.0
H1698 H 0.52796 0.75946 0.04116 0.0
H1699 H 0.53095 0.77381 0.06997 0.0
C1700 C 0.55419 0.7706 0.93644 0.0
C1701 C 0.55165 0.78104 0.92803 0.0
C1702 C 0.55467 0.76697 0.97572 0.0
C1703 C 0.55252 0.77363 0.0072 0.0
C1704 C 0.54941 0.78364 -0.0012 0.0
H1705 H 0.57004 0.78654 0.25631 0.0
H1706 H 0.56322 0.78628 0.18733 0.0
C1707 C 0.5489 0.78726 0.9596 0.0
C1708 C 0.55514 0.77132 0.04864 0.0
H1709 H 0.54191 0.76465 0.14205 0.0
C1710 C 0.56798 0.77374 0.0581 0.0
C1711 C 0.54552 0.76775 0.07909 0.0
C1712 C 0.53139 0.76445 0.07044 0.0
C1713 C 0.57163 0.77315 0.0974 0.0
C1714 C 0.56211 0.76989 0.12794 0.0
C1715 C 0.54918 0.7672 0.11849 0.0
C1716 C 0.56556 0.76954 0.16999 0.0
C1717 C 0.58578 0.77652 0.10614 0.0
C1718 C 0.56892 0.76009 0.18303 0.0
C1719 C 0.57285 0.76023 0.2223 0.0
C1720 C 0.57344 0.76981 0.24925 0.0
C1721 C 0.56976 0.77908 0.23625 0.0
C1722 C 0.56582 0.77892 0.19693 0.0
H1723 H 0.59256 0.78152 0.08062 0.0
H1724 H 0.58974 0.78312 0.13254 0.0
H1725 H 0.58592 0.76718 0.11267 0.0
H1726 H 0.5686 0.75267 0.16274 0.0
H1727 H 0.57552 0.75288 0.23141 0.0
H1728 H 0.25642 0.80018 0.20554 0.0
H1729 H 0.25248 0.79234 0.13657 0.0
H1730 H 0.23193 0.8142 0.11455 0.0
H1731 H 0.23569 0.82198 0.18315 0.0
H1732 H 0.21769 0.78673 0.0928 0.0
H1733 H 0.26934 0.81338 0.03168 0.0
H1734 H 0.26681 0.80433 0.07731 0.0
H1735 H 0.26476 0.81871 0.07651 0.0
C1736 C 0.25116 0.80341 0.1859 0.0
C1737 C 0.24632 0.81167 0.19985 0.0
C1738 C 0.24899 0.79898 0.14649 0.0
C1739 C 0.24202 0.80279 0.12051 0.0
C1740 C 0.23737 0.81119 0.1342 0.0
H1741 H 0.22483 0.79904 0.87419 0.0
H1742 H 0.23495 0.80505 0.94014 0.0
C1743 C 0.23953 0.81562 0.17343 0.0
C1744 C 0.23871 0.79743 0.0797 0.0
H1745 H 0.25207 0.79901 0.98809 0.0
C1746 C 0.2252 0.7893 0.06994 0.0
C1747 C 0.24857 0.8009 0.0501 0.0
C1748 C 0.2632 0.80988 0.05911 0.0
C1749 C 0.22121 0.78477 0.03106 0.0
C1750 C 0.23105 0.78829 0.0013 0.0
C1751 C 0.2446 0.79624 0.01114 0.0
C1752 C 0.22722 0.78464 0.95934 0.0
C1753 C 0.20647 0.77672 0.02185 0.0
C1754 C 0.22007 0.77119 0.94779 0.0
C1755 C 0.21419 0.76771 0.91024 0.0
C1756 C 0.21545 0.77765 0.88359 0.0
C1757 C 0.22358 0.79115 0.89411 0.0
C1758 C 0.22941 0.79461 0.93175 0.0
H1759 H 0.20026 0.77714 0.04635 0.0
H1760 H 0.2041 0.78037 0.99424 0.0
H1761 H 0.20361 0.76612 0.01726 0.0
H1762 H 0.21846 0.76337 0.96856 0.0
H1763 H 0.20812 0.75723 0.90288 0.0
H1764 H 0.18594 0.23458 0.3083 0.0
H1765 H 0.19938 0.22563 0.27983 0.0
H1766 H 0.17325 0.1874 0.33349 0.0
H1767 H 0.15972 0.19615 0.36172 0.0
H1768 H 0.2127 0.21279 0.3162 0.0
H1769 H 0.17216 0.17957 0.21303 0.0
H1770 H 0.17221 0.19329 0.23876 0.0
H1771 H 0.16708 0.17778 0.26409 0.0
C1772 C 0.18312 0.22429 0.31429 0.0
C1773 C 0.17168 0.21602 0.3369 0.0
C1774 C 0.19081 0.21922 0.29805 0.0
C1775 C 0.18714 0.20582 0.30408 0.0
C1776 C 0.17608 0.19772 0.32797 0.0
H1777 H 0.22622 0.16031 0.26955 0.0
H1778 H 0.21833 0.17495 0.29475 0.0
C1779 C 0.16839 0.20275 0.34416 0.0
C1780 C 0.19454 0.20007 0.28434 0.0
H1781 H 0.19036 0.1756 0.21968 0.0
C1782 C 0.2079 0.20474 0.29481 0.0
C1783 C 0.18828 0.18976 0.25594 0.0
C1784 C 0.17418 0.18487 0.24193 0.0
C1785 C 0.21503 0.19896 0.27869 0.0
C1786 C 0.20852 0.18813 0.25193 0.0
C1787 C 0.19532 0.18384 0.2404 0.0
C1788 C 0.21489 0.18066 0.23665 0.0
C1789 C 0.22943 0.20449 0.29043 0.0
C1790 C 0.21552 0.17895 0.19561 0.0
C1791 C 0.21985 0.17044 0.18112 0.0
C1792 C 0.22361 0.16346 0.20744 0.0
C1793 C 0.22344 0.16558 0.24849 0.0
C1794 C 0.21903 0.17403 0.26296 0.0
H1795 H 0.23403 0.21503 0.30044 0.0
H1796 H 0.22996 0.19854 0.31548 0.0
H1797 H 0.2354 0.20395 0.2654 0.0
H1798 H 0.21231 0.18393 0.17481 0.0
H1799 H 0.21992 0.16907 0.14932 0.0
H1800 H 0.78071 0.94257 0.2718 0.0
H1801 H 0.78301 0.96397 0.25277 0.0
H1802 H 0.76083 0.96325 0.3565 0.0
H1803 H 0.75842 0.94169 0.37598 0.0
H1804 H 0.76131 0.97106 0.24221 0.0
H1805 H 0.79859 -0.00108 0.36126 0.0
H1806 H 0.79522 0.98266 0.34483 0.0
H1807 H 0.78314 0.98417 0.37428 0.0
C1808 C 0.77626 0.9469 0.29057 0.0
C1809 C 0.76946 0.94048 0.32558 0.0
C1810 C 0.77753 0.9591 0.27952 0.0
C1811 C 0.77213 0.96516 0.30333 0.0
C1812 C 0.76511 0.9587 0.33789 0.0
H1813 H 0.79941 0.04989 0.26585 0.0
H1814 H 0.7857 0.02738 0.29285 0.0
C1815 C 0.76374 0.94641 0.34891 0.0
C1816 C 0.77456 0.97855 0.29246 0.0
H1817 H 0.79548 0.01151 0.31249 0.0
C1818 C 0.76859 0.97993 0.25792 0.0
C1819 C 0.78396 0.99004 0.31329 0.0
C1820 C 0.79069 0.989 0.35044 0.0
C1821 C 0.77225 0.99258 0.24257 0.0
C1822 C 0.78239 0.00408 0.26179 0.0
C1823 C 0.78774 0.00269 0.29772 0.0
C1824 C 0.78879 0.01744 0.24296 0.0
C1825 C 0.76544 0.99348 0.20547 0.0
C1826 C 0.79493 0.01931 0.20574 0.0
C1827 C 0.80272 0.03212 0.19021 0.0
C1828 C 0.80468 0.04335 0.21186 0.0
C1829 C 0.79811 0.04144 0.24846 0.0
C1830 C 0.79026 0.02859 0.26393 0.0
H1831 H 0.75508 0.98492 0.20336 0.0
H1832 H 0.76512 0.00292 0.20451 0.0
H1833 H 0.771 0.99311 0.17909 0.0
H1834 H 0.79424 0.0109 0.18948 0.0
H1835 H 0.80766 0.03322 0.162 0.0
H1836 H 0.94798 0.75269 0.18067 0.0
H1837 H 0.96968 0.76067 0.21275 0.0
H1838 H 0.9846 0.79904 0.15656 0.0
H1839 H 0.96295 0.79125 0.12476 0.0
H1840 H 0.99639 0.77215 0.1828 0.0
H1841 H 0.9889 0.80728 0.2768 0.0
H1842 H 0.9755 0.79392 0.24916 0.0
H1843 H 0.98719 0.80914 0.22456 0.0
C1844 C 0.95592 0.76278 0.17477 0.0
C1845 C 0.9537 0.7714 0.15057 0.0
C1846 C 0.9683 0.76731 0.1931 0.0
C1847 C 0.97861 0.7805 0.18754 0.0
C1848 C 0.97665 0.78889 0.16176 0.0
H1849 H 0.06209 0.82205 0.24256 0.0
H1850 H 0.04018 0.80822 0.21243 0.0
C1851 C 0.96429 0.7844 0.14353 0.0
C1852 C 0.9912 0.78577 0.21016 0.0
H1853 H 0.01061 0.80985 0.27707 0.0
C1854 C -0.0005 0.78033 0.20365 0.0
C1855 C 0.99504 0.79623 0.23794 0.0
C1856 C 0.98614 0.80192 0.24791 0.0
C1857 C 0.01184 0.78546 0.22318 0.0
C1858 C 0.01599 0.79641 0.24934 0.0
C1859 C 0.00745 0.80151 0.25683 0.0
C1860 C 0.02937 0.80323 0.26806 0.0
C1861 C 0.02027 0.77909 0.2157 0.0
C1862 C 0.03059 0.80506 0.30937 0.0
C1863 C 0.04309 0.81312 0.32666 0.0
C1864 C 0.05461 0.81952 0.3029 0.0
C1865 C 0.05342 0.81723 0.26172 0.0
C1866 C 0.0409 0.80923 0.24444 0.0
H1867 H 0.01407 0.76856 0.20574 0.0
H1868 H 0.02758 0.78466 0.19187 0.0
H1869 H 0.02586 0.7793 0.24276 0.0
H1870 H 0.0218 0.80056 0.32811 0.0
H1871 H 0.04368 0.81465 0.35849 0.0
H1872 H 0.82231 0.79201 0.6063 0.0
H1873 H 0.80572 0.79765 0.62958 0.0
H1874 H 0.78504 0.76018 0.69223 0.0
H1875 H 0.80155 0.75437 0.66895 0.0
H1876 H 0.76805 0.76838 0.64975 0.0
H1877 H 0.80576 0.80729 0.74937 0.0
H1878 H 0.8108 0.80854 0.69835 0.0
H1879 H 0.80804 0.79434 0.7273 0.0
C1880 C 0.81416 0.78489 0.62466 0.0
C1881 C 0.81334 0.77281 0.63618 0.0
C1882 C 0.80471 0.78814 0.63796 0.0
C1883 C 0.79431 0.7794 0.66301 0.0
C1884 C 0.79305 0.76706 0.673 0.0
H1885 H 0.75255 0.8078 0.81209 0.0
H1886 H 0.76282 0.7951 0.78796 0.0
C1887 C 0.80251 0.76379 0.65975 0.0
C1888 C 0.78528 0.78354 0.68074 0.0
H1889 H 0.78513 0.80678 0.74262 0.0
C1890 C 0.77172 0.77672 0.67025 0.0
C1891 C 0.79009 0.79425 0.70801 0.0
C1892 C 0.80444 0.80148 0.72179 0.0
C1893 C 0.7629 0.78066 0.68542 0.0
C1894 C 0.76787 0.79176 0.71132 0.0
C1895 C 0.78135 0.79829 0.72267 0.0
C1896 C 0.75955 0.79729 0.72583 0.0
C1897 C 0.74837 0.7729 0.67372 0.0
C1898 C 0.75403 0.80246 0.69891 0.0
C1899 C 0.74811 0.80968 0.7126 0.0
C1900 C 0.74777 0.812 0.75345 0.0
C1901 C 0.75272 0.80624 0.78043 0.0
C1902 C 0.75857 0.79897 0.76671 0.0
H1903 H 0.74543 0.7626 0.66413 0.0
H1904 H 0.74182 0.77234 0.69864 0.0
H1905 H 0.74664 0.778 0.64842 0.0
H1906 H 0.75492 0.80152 0.66722 0.0
H1907 H 0.74441 0.814 0.69104 0.0
H1908 H 0.2558 0.05925 0.75087 0.0
H1909 H 0.24514 0.03668 0.77764 0.0
H1910 H 0.2324 0.02056 0.65995 0.0
H1911 H 0.24275 0.04319 0.63295 0.0
H1912 H 0.21197 0.01134 0.70968 0.0
H1913 H 0.2521 0.00596 0.78074 0.0
H1914 H 0.25231 0.02081 0.79716 0.0
H1915 H 0.25552 0.01913 0.74577 0.0
C1916 C 0.25102 0.05092 0.73048 0.0
C1917 C 0.25001 0.05302 0.68982 0.0
C1918 C 0.24501 0.03799 0.74585 0.0
C1919 C 0.23808 0.02691 0.72078 0.0
C1920 C 0.23774 0.02897 0.67981 0.0
H1921 H 0.19452 0.94471 0.81009 0.0
H1922 H 0.2109 0.96519 0.77644 0.0
C1923 C 0.24366 0.04191 0.66444 0.0
C1924 C 0.22964 0.01343 0.738 0.0
H1925 H 0.22966 0.99114 0.80449 0.0
C1926 C 0.2159 0.00684 0.7299 0.0
C1927 C 0.23475 0.00749 0.76416 0.0
C1928 C 0.2495 0.01366 0.77213 0.0
C1929 C 0.20705 0.99476 0.74848 0.0
C1930 C 0.21204 0.98929 0.77662 0.0
C1931 C 0.22584 0.99551 0.78343 0.0
C1932 C 0.20296 0.97724 0.79969 0.0
C1933 C 0.19241 0.98802 0.738 0.0
C1934 C 0.19337 0.97738 0.82487 0.0
C1935 C 0.18399 0.96573 0.844 0.0
C1936 C 0.18409 0.95373 0.83851 0.0
C1937 C 0.19413 0.95378 0.81478 0.0
C1938 C 0.20351 0.96546 0.79555 0.0
H1939 H 0.19079 0.99137 0.70865 0.0
H1940 H 0.18787 0.97699 0.73741 0.0
H1941 H 0.1871 0.99059 0.76067 0.0
H1942 H 0.19297 0.98647 0.82904 0.0
H1943 H 0.17647 0.96607 0.86235 0.0
H1944 H 0.95323 0.16482 0.65988 0.0
H1945 H 0.9752 0.18076 0.68586 0.0
H1946 H 0.96096 0.20758 0.71787 0.0
H1947 H 0.93874 0.19151 0.69243 0.0
H1948 H 0.9931 0.20756 0.66706 0.0
H1949 H 0.975 0.20144 0.82329 0.0
H1950 H 0.96498 0.19018 0.78427 0.0
H1951 H 0.967 0.20659 0.78724 0.0
C1952 C 0.95475 0.17413 0.67217 0.0
C1953 C 0.9442 0.17683 0.67448 0.0
C1954 C 0.96734 0.18325 0.68692 0.0
C1955 C 0.96964 0.19525 0.70427 0.0
C1956 C 0.9593 0.19827 0.70519 0.0
H1957 H 0.04677 0.24622 0.82662 0.0
H1958 H 0.02533 0.24028 0.79496 0.0
C1959 C 0.94665 0.1891 0.69047 0.0
C1960 C 0.98276 0.20413 0.72279 0.0
H1961 H 0.99813 0.21369 0.8131 0.0
C1962 C 0.99421 0.20914 0.69891 0.0
C1963 C 0.98414 0.20619 0.76437 0.0
C1964 C 0.97217 0.20078 0.79149 0.0
C1965 C 0.007 0.21551 0.71573 0.0
C1966 C 0.00833 0.21683 0.75738 0.0
C1967 C 0.99698 0.21265 0.78112 0.0
C1968 C 0.02116 0.22062 0.77689 0.0
C1969 C 0.01902 0.22022 0.68912 0.0
C1970 C 0.02566 0.21141 0.77764 0.0
C1971 C 0.03773 0.21467 0.79587 0.0
C1972 C 0.04556 0.22726 0.81357 0.0
C1973 C 0.04095 0.23645 0.81316 0.0
C1974 C 0.02876 0.23311 0.79511 0.0
H1975 H 0.01664 0.22124 0.65781 0.0
H1976 H 0.02733 0.22997 0.69952 0.0
H1977 H 0.02251 0.21285 0.69009 0.0
H1978 H 0.01982 0.20167 0.76398 0.0
H1979 H 0.04097 0.20736 0.79559 0.0
H1980 H 0.84866 0.56018 0.70369 0.0
H1981 H 0.86274 0.5527 0.67199 0.0
H1982 H 0.86338 0.57329 0.56444 0.0
H1983 H 0.84882 0.58034 0.59554 0.0
H1984 H 0.85567 0.54867 0.54873 0.0
H1985 H 0.90083 0.56758 0.64148 0.0
H1986 H 0.8862 0.55891 0.6717 0.0
H1987 H 0.88942 0.5739 0.64593 0.0
C1988 C 0.85208 0.56339 0.67364 0.0
C1989 C 0.84755 0.57073 0.65195 0.0
C1990 C 0.86024 0.5592 0.6556 0.0
C1991 C 0.86426 0.56255 0.61591 0.0
C1992 C 0.86042 0.5706 0.59509 0.0
H1993 H 0.90933 0.52774 0.50701 0.0
H1994 H 0.90365 0.54442 0.53004 0.0
C1995 C 0.85209 0.5746 0.61287 0.0
C1996 C 0.87071 0.55603 0.5946 0.0
H1997 H 0.89486 0.54742 0.60335 0.0
C1998 C 0.86442 0.54865 0.56028 0.0
C1999 C 0.88225 0.55613 0.60914 0.0
C2000 C 0.89013 0.56469 0.64384 0.0
C2001 C 0.86882 0.54074 0.54158 0.0
C2002 C 0.87958 0.53988 0.55829 0.0
C2003 C 0.88644 0.54791 0.59103 0.0
C2004 C 0.88313 0.52996 0.54397 0.0
C2005 C 0.86174 0.5332 0.50447 0.0
C2006 C 0.87353 0.51633 0.54475 0.0
C2007 C 0.87669 0.50683 0.53147 0.0
C2008 C 0.88959 0.51076 0.5176 0.0
C2009 C 0.89929 0.52442 0.51738 0.0
C2010 C 0.89608 0.53395 0.53055 0.0
H2011 H 0.85713 0.53828 0.48841 0.0
H2012 H 0.86868 0.53213 0.484 0.0
H2013 H 0.85362 0.52308 0.51278 0.0
H2014 H 0.86357 0.51302 0.55596 0.0
H2015 H 0.86903 0.4964 0.53244 0.0
H2016 H 0.42779 0.2849 0.62126 0.0
H2017 H 0.43399 0.30732 0.59769 0.0
H2018 H 0.47386 0.3224 0.64309 0.0
H2019 H 0.46785 0.30009 0.66641 0.0
H2020 H 0.44508 0.33259 0.63871 0.0
H2021 H 0.47885 0.33174 0.52322 0.0
H2022 H 0.46657 0.31686 0.54847 0.0
H2023 H 0.48217 0.32802 0.57225 0.0
C2024 C 0.43786 0.29301 0.62647 0.0
C2025 C 0.44738 0.2907 0.64533 0.0
C2026 C 0.44136 0.30579 0.61305 0.0
C2027 C 0.45442 0.31641 0.61815 0.0
C2028 C 0.46378 0.31425 0.63832 0.0
H2029 H 0.49253 0.40113 0.60081 0.0
H2030 H 0.47931 0.37788 0.62169 0.0
C2031 C 0.46031 0.30151 0.65171 0.0
C2032 C 0.4585 0.32969 0.60123 0.0
H2033 H 0.48061 0.35277 0.53644 0.0
C2034 C 0.45275 0.33699 0.61606 0.0
C2035 C 0.4683 0.33525 0.57115 0.0
C2036 C 0.47425 0.32753 0.55251 0.0
C2037 C 0.457 0.35003 0.60274 0.0
C2038 C 0.46738 0.35587 0.57433 0.0
C2039 C 0.4727 0.34831 0.55838 0.0
C2040 C 0.4735 0.37003 0.56214 0.0
C2041 C 0.45038 0.3574 0.61925 0.0
C2042 C 0.47459 0.37336 0.52173 0.0
C2043 C 0.48231 0.38664 0.50964 0.0
C2044 C 0.48908 0.39681 0.53781 0.0
C2045 C 0.4874 0.39353 0.57838 0.0
C2046 C 0.47976 0.38024 0.59042 0.0
H2047 H 0.44011 0.35036 0.62986 0.0
H2048 H 0.45625 0.36353 0.64495 0.0
H2049 H 0.44988 0.36413 0.59669 0.0
H2050 H 0.46987 0.36562 0.49943 0.0
H2051 H 0.48335 0.38885 0.47817 0.0
H2052 H 0.60811 0.10818 0.58317 0.0
H2053 H 0.63028 0.11214 0.60022 0.0
H2054 H 0.63167 0.09343 0.49098 0.0
H2055 H 0.60939 0.08947 0.47333 0.0
H2056 H 0.64085 0.09403 0.60678 0.0
H2057 H 0.66439 0.13207 0.48681 0.0
H2058 H 0.64751 0.12624 0.50329 0.0
H2059 H 0.6512 0.11568 0.47323 0.0
C2060 C 0.61305 0.1048 0.56281 0.0
C2061 C 0.60705 0.09865 0.52666 0.0
C2062 C 0.6257 0.10701 0.57273 0.0
C2063 C 0.63262 0.10318 0.54668 0.0
C2064 C 0.6265 0.09656 0.51126 0.0
H2065 H 0.71904 0.13809 0.57623 0.0
H2066 H 0.69659 0.12271 0.55128 0.0
C2067 C 0.61378 0.0943 0.5013 0.0
C2068 C 0.64658 0.10704 0.55597 0.0
H2069 H 0.67861 0.13041 0.53284 0.0
C2070 C 0.64915 0.10181 0.59024 0.0
C2071 C 0.65734 0.11712 0.53414 0.0
C2072 C 0.65508 0.1232 0.4974 0.0
C2073 C 0.66222 0.10685 0.60436 0.0
C2074 C 0.67289 0.11757 0.58407 0.0
C2075 C 0.67039 0.1222 0.54839 0.0
C2076 C 0.68642 0.12524 0.60155 0.0
C2077 C 0.66442 0.10088 0.64141 0.0
C2078 C 0.68813 0.13167 0.63821 0.0
C2079 C 0.7009 0.14045 0.65252 0.0
C2080 C 0.71223 0.14308 0.63022 0.0
C2081 C 0.71052 0.13629 0.59411 0.0
C2082 C 0.6977 0.12749 0.57981 0.0
H2083 H 0.65655 0.09024 0.6448 0.0
H2084 H 0.67433 0.10155 0.64113 0.0
H2085 H 0.6639 0.10638 0.66771 0.0
H2086 H 0.67957 0.13036 0.65501 0.0
H2087 H 0.70187 0.14552 0.6804 0.0
H2088 H 0.45301 0.16374 0.11206 0.0
H2089 H 0.46076 0.14839 0.09367 0.0
H2090 H 0.42345 0.11506 0.13306 0.0
H2091 H 0.41541 0.13041 0.15076 0.0
H2092 H 0.46435 0.13141 0.14046 0.0
H2093 H 0.42726 0.10342 0.02193 0.0
H2094 H 0.4295 0.11883 0.04241 0.0
H2095 H 0.42035 0.1035 0.06963 0.0
C2096 C 0.44641 0.15315 0.11681 0.0
C2097 C 0.43357 0.14828 0.13276 0.0
C2098 C 0.45087 0.14439 0.10626 0.0
C2099 C 0.44262 0.13058 0.11152 0.0
C2100 C 0.42986 0.12566 0.12798 0.0
H2101 H 0.48139 0.08238 0.09098 0.0
H2102 H 0.46689 0.0906 0.11532 0.0
C2103 C 0.42533 0.13444 0.13832 0.0
C2104 C 0.44771 0.12155 0.10039 0.0
H2105 H 0.44311 0.09681 0.03591 0.0
C2106 C 0.45966 0.12376 0.11783 0.0
C2107 C 0.4416 0.11168 0.07061 0.0
C2108 C 0.42903 0.10924 0.04974 0.0
C2109 C 0.46592 0.11667 0.10553 0.0
C2110 C 0.45981 0.10677 0.07578 0.0
C2111 C 0.44768 0.10431 0.05897 0.0
C2112 C 0.4665 0.09971 0.0596 0.0
C2113 C 0.47934 0.12034 0.12317 0.0
C2114 C 0.47033 0.10135 0.01953 0.0
C2115 C 0.47842 0.09646 0.00534 0.0
C2116 C 0.48288 0.08995 0.03114 0.0
C2117 C 0.47828 0.08755 0.07058 0.0
C2118 C 0.47004 0.09228 0.08457 0.0
H2119 H 0.48402 0.1302 0.13832 0.0
H2120 H 0.47803 0.11273 0.14549 0.0
H2121 H 0.48631 0.12067 0.09994 0.0
H2122 H 0.46763 0.10699 -0.00029 0.0
H2123 H 0.48177 0.09842 0.97479 0.0
H2124 H 0.91346 0.3875 0.03182 0.0
H2125 H 0.90912 0.36645 0.06211 0.0
H2126 H 0.86747 0.34857 0.03106 0.0
H2127 H 0.87171 0.36941 0.00033 0.0
H2128 H 0.89254 0.3539 0.12502 0.0
H2129 H 0.87616 0.32027 0.995 0.0
H2130 H 0.88495 0.33823 0.99021 0.0
H2131 H 0.86719 0.32916 -0.00137 0.0
C2132 C 0.90341 0.37902 0.03094 0.0
C2133 C 0.89292 0.38012 0.01365 0.0
C2134 C 0.90097 0.36702 0.04826 0.0
C2135 C 0.88803 0.3559 0.04826 0.0
C2136 C 0.8776 0.35692 0.03052 0.0
H2137 H 0.84209 0.29295 0.20218 0.0
H2138 H 0.8566 0.31437 0.17056 0.0
C2139 C 0.88003 0.36889 0.01321 0.0
C2140 C 0.88507 0.34352 0.0695 0.0
H2141 H 0.8685 0.30966 0.05906 0.0
C2142 C 0.88753 0.34423 0.11049 0.0
C2143 C 0.87879 0.33094 0.05041 0.0
C2144 C 0.87676 0.32961 0.00605 0.0
C2145 C 0.88297 0.33262 0.13337 0.0
C2146 C 0.87559 0.32002 0.11479 0.0
C2147 C 0.87402 0.31934 0.07339 0.0
C2148 C 0.86818 0.30752 0.13789 0.0
C2149 C 0.88582 0.33396 0.17734 0.0
C2150 C 0.86984 0.29652 0.13 0.0
C2151 C 0.86145 0.28418 0.14787 0.0
C2152 C 0.85119 0.28263 0.17359 0.0
C2153 C 0.8499 0.2938 0.18255 0.0
C2154 C 0.85828 0.30611 0.16474 0.0
H2155 H 0.89515 0.34342 0.18424 0.0
H2156 H 0.87751 0.33417 0.1932 0.0
H2157 H 0.88673 0.32546 0.18889 0.0
H2158 H 0.87736 0.29739 0.10912 0.0
H2159 H 0.86269 0.27576 0.1403 0.0
H2160 H 0.73304 0.5834 0.0351 0.0
H2161 H 0.71175 0.57913 0.00693 0.0
H2162 H 0.69172 0.55983 0.11568 0.0
H2163 H 0.71291 0.56416 0.14421 0.0
H2164 H 0.69029 0.55389 0.99574 0.0
H2165 H 0.67559 0.58333 0.0911 0.0
H2166 H 0.69251 0.5864 0.08898 0.0
H2167 H 0.68024 0.57316 0.11947 0.0
C2168 C 0.72414 0.57845 0.05328 0.0
C2169 C 0.72465 0.57407 0.09186 0.0
C2170 C 0.712 0.57604 0.03714 0.0
C2171 C 0.70021 0.56934 0.05941 0.0
C2172 C 0.70076 0.5653 0.0983 0.0
H2173 H 0.61729 0.52215 0.04061 0.0
H2174 H 0.64062 0.53674 0.05844 0.0
C2175 C 0.71287 0.56768 0.11445 0.0
C2176 C 0.68711 0.56521 0.04082 0.0
H2177 H 0.65776 0.56487 0.05559 0.0
C2178 C 0.68326 0.55652 0.00818 0.0
C2179 C 0.678 0.56868 0.05718 0.0
C2180 C 0.68184 0.57852 0.09087 0.0
C2181 C 0.67021 0.55047 0.99314 0.0
C2182 C 0.66088 0.5534 0.01085 0.0
C2183 C 0.66494 0.56264 0.04215 0.0
C2184 C 0.64655 0.54582 0.00037 0.0
C2185 C 0.66629 0.54035 0.96012 0.0
C2186 C 0.6421 0.54636 0.96203 0.0
C2187 C 0.62872 0.53794 0.95159 0.0
C2188 C 0.61962 0.52891 0.97944 0.0
C2189 C 0.62404 0.5289 0.01833 0.0
C2190 C 0.63737 0.53728 0.02867 0.0
H2191 H 0.67408 0.53761 0.95434 0.0
H2192 H 0.65679 0.53113 0.96735 0.0
H2193 H 0.66474 0.54458 0.93239 0.0
H2194 H 0.64902 0.55304 0.93997 0.0
H2195 H 0.6256 0.53826 0.92148 0.0
H2196 H 0.49667 0.88241 0.93709 0.0
H2197 H 0.5129 0.87623 0.9149 0.0
H2198 H 0.54091 0.9022 0.00303 0.0
H2199 H 0.52463 0.90847 0.02583 0.0
H2200 H 0.54039 0.89332 0.88758 0.0
H2201 H 0.53583 0.86429 0.02473 0.0
H2202 H 0.52355 0.86893 0.01178 0.0
H2203 H 0.53959 0.88131 0.03014 0.0
C2204 C 0.50628 0.88686 0.95179 0.0
C2205 C 0.50932 0.89585 0.98347 0.0
C2206 C 0.51556 0.88336 0.9389 0.0
C2207 C 0.52803 0.88871 0.9575 0.0
C2208 C 0.53127 0.8979 0.98858 0.0
H2209 H 0.57731 0.85192 0.91654 0.0
H2210 H 0.57174 0.86871 0.93859 0.0
C2211 C 0.52197 0.90147 0.00148 0.0
C2212 C 0.53724 0.88404 0.94501 0.0
H2213 H 0.54786 0.86244 0.97168 0.0
C2214 C 0.54225 0.88675 0.90614 0.0
C2215 C 0.5397 0.87558 0.96948 0.0
C2216 C 0.53437 0.87224 0.01133 0.0
C2217 C 0.54915 0.8807 0.8904 0.0
C2218 C 0.5508 0.87152 0.91397 0.0
C2219 C 0.54653 0.86947 0.95365 0.0
C2220 C 0.55547 0.86276 0.897 0.0
C2221 C 0.55432 0.88395 0.84841 0.0
C2222 C 0.54823 0.85394 0.8661 0.0
C2223 C 0.55136 0.84435 0.85347 0.0
C2224 C 0.56172 0.84331 0.87179 0.0
C2225 C 0.56926 0.85245 0.90185 0.0
C2226 C 0.56611 0.86206 0.91447 0.0
H2227 H 0.55653 0.89414 0.83984 0.0
H2228 H 0.5635 0.88328 0.84457 0.0
H2229 H 0.54656 0.87676 0.82781 0.0
H2230 H 0.53976 0.85409 0.85288 0.0
H2231 H 0.54535 0.83745 0.8303 0.0
H2232 H 0.08815 0.61484 0.97077 0.0
H2233 H 0.09573 0.63638 0.93807 0.0
H2234 H 0.13346 0.65278 -0.00079 0.0
H2235 H 0.12609 0.63131 0.03155 0.0
H2236 H 0.10515 0.66243 0.96772 0.0
H2237 H 0.14391 0.65865 0.88131 0.0
H2238 H 0.13067 0.6446 0.90717 0.0
H2239 H 0.14515 0.65681 0.93379 0.0
C2240 C 0.09802 0.62307 0.9775 0.0
C2241 C 0.10659 0.62133 0.00339 0.0
C2242 C 0.10232 0.63534 0.95879 0.0
C2243 C 0.11523 0.64604 0.96565 0.0
C2244 C 0.12356 0.64453 0.99289 0.0
H2245 H 0.15361 0.72981 0.9243 0.0
H2246 H 0.1399 0.70709 0.94888 0.0
C2247 C 0.1193 0.63227 0.01147 0.0
C2248 C 0.12024 0.65871 0.9436 0.0
H2249 H 0.14548 0.68001 0.88267 0.0
C2250 C 0.11389 0.66625 0.94878 0.0
C2251 C 0.13143 0.66349 0.9182 0.0
C2252 C 0.13811 0.65541 0.9094 0.0
C2253 C 0.11886 0.67878 0.93063 0.0
C2254 C 0.13059 0.68394 0.90735 0.0
C2255 C 0.13655 0.6761 0.90078 0.0
C2256 C 0.13741 0.69772 0.89143 0.0
C2257 C 0.11152 0.68637 0.93665 0.0
C2258 C 0.14065 0.70004 0.85096 0.0
C2259 C 0.14868 0.71304 0.83686 0.0
C2260 C 0.15361 0.72395 0.86306 0.0
C2261 C 0.14993 0.72163 0.9033 0.0
C2262 C 0.14199 0.70864 0.91738 0.0
H2263 H 0.10078 0.6795 0.94313 0.0
H2264 H 0.1159 0.69318 0.96243 0.0
H2265 H 0.11234 0.69244 0.91014 0.0
H2266 H 0.13728 0.69174 0.83046 0.0
H2267 H 0.15131 0.7145 0.80568 0.0
H2268 H 0.27752 0.4335 0.88703 0.0
H2269 H 0.30005 0.44179 0.9126 0.0
H2270 H 0.3145 0.44334 0.79364 0.0
H2271 H 0.29187 0.43489 0.76756 0.0
H2272 H 0.32522 0.43314 0.85525 0.0
H2273 H 0.32878 0.48156 0.89362 0.0
H2274 H 0.31434 0.46708 0.91311 0.0
H2275 H 0.31622 0.46966 0.86036 0.0
C2276 C 0.28544 0.43548 0.86623 0.0
C2277 C 0.28294 0.4337 0.82517 0.0
C2278 C 0.29831 0.44022 0.88094 0.0
C2279 C 0.30892 0.44335 0.85492 0.0
C2280 C 0.3064 0.44101 0.81412 0.0
H2281 H 0.3947 0.48319 0.88443 0.0
H2282 H 0.37189 0.46892 0.86072 0.0
C2283 C 0.29349 0.43622 0.7993 0.0
C2284 C 0.32273 0.44986 0.87028 0.0
H2285 H 0.34632 0.4783 0.91568 0.0
C2286 C 0.32989 0.44302 0.86839 0.0
C2287 C 0.32874 0.46276 0.88724 0.0
C2288 C 0.3217 0.47078 0.88848 0.0
C2289 C 0.34288 0.44868 0.88394 0.0
C2290 C 0.34883 0.46155 0.90122 0.0
C2291 C 0.34167 0.46838 0.90278 0.0
C2292 C 0.36262 0.46842 0.91699 0.0
C2293 C 0.35003 0.44078 0.88247 0.0
C2294 C 0.36498 0.4728 0.95655 0.0
C2295 C 0.378 0.48106 0.97012 0.0
C2296 C 0.38889 0.48514 0.94425 0.0
C2297 C 0.38653 0.48022 0.90513 0.0
C2298 C 0.37349 0.47198 0.89157 0.0
H2299 H 0.34295 0.42995 0.87816 0.0
H2300 H 0.35712 0.44434 0.85717 0.0
H2301 H 0.35581 0.44217 0.91012 0.0
H2302 H 0.3567 0.4702 0.97657 0.0
H2303 H 0.37947 0.48464 0.00045 0.0
H2304 H 0.12501 0.49556 0.52644 0.0
H2305 H 0.13135 0.47994 0.49926 0.0
H2306 H 0.09166 0.45567 0.45196 0.0
H2307 H 0.08514 0.47122 0.47936 0.0
H2308 H 0.10299 0.44103 0.48946 0.0
H2309 H 0.13669 0.47784 0.37817 0.0
H2310 H 0.13978 0.48403 0.42823 0.0
H2311 H 0.12418 0.47976 0.40473 0.0
C2312 C 0.11758 0.48687 0.51049 0.0
C2313 C 0.10461 0.4847 0.50471 0.0
C2314 C 0.12124 0.47798 0.49489 0.0
C2315 C 0.11203 0.46681 0.47311 0.0
C2316 C 0.09892 0.4643 0.46854 0.0
H2317 H 0.14178 0.42616 0.3228 0.0
H2318 H 0.12825 0.43551 0.34698 0.0
C2319 C 0.09523 0.4732 0.48416 0.0
C2320 C 0.1163 0.45805 0.45408 0.0
H2321 H 0.13873 0.45855 0.38752 0.0
C2322 C 0.11071 0.44477 0.46687 0.0
C2323 C 0.12617 0.46292 0.42411 0.0
C2324 C 0.13198 0.47688 0.40766 0.0
C2325 C 0.11518 0.43639 0.45162 0.0
C2326 C 0.12562 0.44153 0.42332 0.0
C2327 C 0.13079 0.45464 0.40939 0.0
C2328 C 0.13193 0.43387 0.40914 0.0
C2329 C 0.10873 0.42215 0.46599 0.0
C2330 C 0.13828 0.4296 0.4361 0.0
C2331 C 0.14597 0.4242 0.4224 0.0
C2332 C 0.1476 0.42313 0.38144 0.0
C2333 C 0.14077 0.4269 0.35454 0.0
C2334 C 0.13303 0.43223 0.36828 0.0
H2335 H 0.09842 0.4186 0.47693 0.0
H2336 H 0.10834 0.41534 0.4421 0.0
H2337 H 0.11464 0.42156 0.49104 0.0
H2338 H 0.13783 0.43105 0.46771 0.0
H2339 H 0.15113 0.42143 0.4439 0.0
H2340 H 0.51439 0.60725 0.39204 0.0
H2341 H 0.5307 0.63067 0.37953 0.0
H2342 H 0.52749 0.64027 0.5013 0.0
H2343 H 0.51098 0.61691 0.51393 0.0
H2344 H 0.52269 0.65511 0.44897 0.0
H2345 H 0.56956 0.65614 0.40779 0.0
H2346 H 0.55539 0.64395 0.38023 0.0
H2347 H 0.55602 0.64215 0.43313 0.0
C2348 C 0.51736 0.61429 0.4164 0.0
C2349 C 0.5113 0.61025 0.45387 0.0
C2350 C 0.52678 0.62766 0.40926 0.0
C2351 C 0.53041 0.63719 0.43959 0.0
C2352 C 0.52487 0.63306 0.47754 0.0
H2353 H 0.58325 0.72363 0.41097 0.0
H2354 H 0.57394 0.70055 0.43419 0.0
C2355 C 0.51541 0.61971 0.48467 0.0
C2356 C 0.53851 0.6516 0.43033 0.0
H2357 H 0.56772 0.67521 0.38807 0.0
C2358 C 0.53262 0.65954 0.43623 0.0
C2359 C 0.55148 0.65737 0.41388 0.0
C2360 C 0.55855 0.64949 0.40874 0.0
C2361 C 0.53913 0.67295 0.42464 0.0
C2362 C 0.55176 0.67852 0.40625 0.0
C2363 C 0.55794 0.6708 0.40181 0.0
C2364 C 0.55831 0.69219 0.38996 0.0
C2365 C 0.53234 0.68104 0.43151 0.0
C2366 C 0.55276 0.69496 0.35688 0.0
C2367 C 0.55801 0.70806 0.34356 0.0
C2368 C 0.56892 0.71862 0.36315 0.0
C2369 C 0.57481 0.71572 0.39536 0.0
C2370 C 0.56954 0.70257 0.40862 0.0
H2371 H 0.52413 0.67625 0.45357 0.0
H2372 H 0.53962 0.69125 0.44199 0.0
H2373 H 0.52801 0.68199 0.40311 0.0
H2374 H 0.54413 0.68702 0.34198 0.0
H2375 H 0.55329 0.70992 0.31853 0.0
H2376 H 0.39091 0.91668 0.45365 0.0
H2377 H 0.36879 0.91111 0.4287 0.0
H2378 H 0.3625 0.8731 0.38728 0.0
H2379 H 0.38443 0.87847 0.41235 0.0
H2380 H 0.35761 0.90388 0.35066 0.0
H2381 H 0.33031 0.86343 0.46031 0.0
H2382 H 0.34776 0.87575 0.46576 0.0
H2383 H 0.34273 0.86172 0.43311 0.0
C2384 C 0.38482 0.90715 0.43917 0.0
C2385 C 0.38936 0.89796 0.43533 0.0
C2386 C 0.37222 0.90401 0.42489 0.0
C2387 C 0.36398 0.89162 0.40676 0.0
C2388 C 0.36864 0.88261 0.40187 0.0
H2389 H 0.29521 0.8594 0.25798 0.0
H2390 H 0.31779 0.87196 0.28502 0.0
C2391 C 0.38119 0.88572 0.41613 0.0
C2392 C 0.35038 0.88792 0.39339 0.0
H2393 H 0.31774 0.86403 0.40504 0.0
C2394 C 0.34885 0.89527 0.36278 0.0
C2395 C 0.33899 0.87684 0.40983 0.0
C2396 C 0.33997 0.86905 0.44435 0.0
C2397 C 0.3362 0.89143 0.34688 0.0
C2398 C 0.3249 0.87984 0.3617 0.0
C2399 C 0.32642 0.87287 0.39349 0.0
C2400 C 0.31148 0.87423 0.34361 0.0
C2401 C 0.33507 0.89977 0.31435 0.0
C2402 C 0.30042 0.87139 0.36747 0.0
C2403 C 0.2875 0.86404 0.35226 0.0
C2404 C 0.28539 0.85939 0.31288 0.0
C2405 C 0.2965 0.86288 0.28839 0.0
C2406 C 0.30943 0.87015 0.30374 0.0
H2407 H 0.34345 0.91025 0.31557 0.0
H2408 H 0.33549 0.89557 0.28512 0.0
H2409 H 0.3255 0.89979 0.31629 0.0
H2410 H 0.30178 0.87442 0.39835 0.0
H2411 H 0.27915 0.86159 0.37183 0.0
H2412 H 0.2663 0.12968 0.06484 0.0
H2413 H 0.28927 0.13442 0.07339 0.0
H2414 H 0.29208 0.15457 0.18375 0.0
H2415 H 0.26908 0.14979 0.17569 0.0
H2416 H 0.31267 0.15942 0.08121 0.0
H2417 H 0.30393 0.12743 0.21351 0.0
H2418 H 0.29052 0.1259 0.18234 0.0
H2419 H 0.29802 0.13908 0.21842 0.0
C2420 C 0.27178 0.1351 0.09097 0.0
C2421 C 0.26584 0.13931 0.11966 0.0
C2422 C 0.2849 0.1378 0.09579 0.0
C2423 C 0.29228 0.14465 0.12949 0.0
C2424 C 0.28646 0.14903 0.15792 0.0
H2425 H 0.37747 0.18533 0.16596 0.0
H2426 H 0.35403 0.17888 0.15744 0.0
C2427 C 0.27334 0.14637 0.15311 0.0
C2428 C 0.30619 0.14751 0.13438 0.0
H2429 H 0.32658 0.14206 0.19538 0.0
C2430 C 0.31571 0.15559 0.10606 0.0
C2431 C 0.31006 0.14234 0.16656 0.0
C2432 C 0.30009 0.1331 0.19679 0.0
C2433 C 0.32912 0.15891 0.1096 0.0
C2434 C 0.33308 0.15414 0.14257 0.0
C2435 C 0.3235 0.14579 0.17035 0.0
C2436 C 0.34719 0.15789 0.14891 0.0
C2437 C 0.33891 0.16742 0.07792 0.0
C2438 C 0.35103 0.14815 0.14802 0.0
C2439 C 0.36445 0.15179 0.15297 0.0
C2440 C 0.3742 0.16523 0.15921 0.0
C2441 C 0.37023 0.1749 0.16102 0.0
C2442 C 0.35685 0.17125 0.15597 0.0
H2443 H 0.33377 0.16748 0.05011 0.0
H2444 H 0.3448 0.17785 0.08876 0.0
H2445 H 0.34597 0.16382 0.07102 0.0
H2446 H 0.34368 0.13777 0.14284 0.0
H2447 H 0.36717 0.1441 0.15154 0.0
H2448 H 0.80588 0.18972 0.2281 0.0
H2449 H 0.8085 0.17023 0.21807 0.0
H2450 H 0.84458 0.19434 0.15134 0.0
H2451 H 0.84221 0.21397 0.16205 0.0
H2452 H 0.80869 0.15854 0.14848 0.0
H2453 H 0.85653 0.17547 0.22784 0.0
H2454 H 0.84697 0.18385 0.23281 0.0
H2455 H 0.85756 0.18696 0.19032 0.0
C2456 C 0.81446 0.19092 0.21165 0.0
C2457 C 0.82387 0.20341 0.196 0.0
C2458 C 0.81592 0.17976 0.2059 0.0
C2459 C 0.82682 0.18086 0.18442 0.0
C2460 C 0.83626 0.19332 0.16882 0.0
H2461 H 0.84952 0.12488 0.0958 0.0
H2462 H 0.84653 0.14407 0.10795 0.0
C2463 C 0.83486 0.20452 0.1748 0.0
C2464 C 0.82796 0.16885 0.17684 0.0
H2465 H 0.84871 0.156 0.18767 0.0
C2466 C 0.81739 0.15795 0.15731 0.0
C2467 C 0.83933 0.16809 0.18842 0.0
C2468 C 0.85069 0.17916 0.21135 0.0
C2469 C 0.81801 0.14641 0.14838 0.0
C2470 C 0.82945 0.14577 0.15944 0.0
C2471 C 0.83999 0.15661 0.17909 0.0
C2472 C 0.83069 0.13391 0.15087 0.0
C2473 C 0.80655 0.13508 0.12652 0.0
C2474 C 0.82273 0.12185 0.17096 0.0
C2475 C 0.82443 0.11087 0.16424 0.0
C2476 C 0.83413 0.11178 0.13725 0.0
C2477 C 0.84193 0.12383 0.11668 0.0
C2478 C 0.84027 0.13482 0.12362 0.0
H2479 H 0.79956 0.13808 0.11392 0.0
H2480 H 0.81034 0.13142 0.1021 0.0
H2481 H 0.8009 0.12666 0.14735 0.0
H2482 H 0.81538 0.12103 0.19242 0.0
H2483 H 0.81829 0.10174 0.18062 0.0
H2484 H 0.78011 0.61423 0.13561 0.0
H2485 H 0.79877 0.63693 0.127 0.0
H2486 H 0.82448 0.62658 0.19189 0.0
H2487 H 0.80578 0.60389 0.20136 0.0
H2488 H 0.82732 0.65069 0.21511 0.0
H2489 H 0.82996 0.64849 0.05112 0.0
H2490 H 0.81372 0.64437 0.06891 0.0
H2491 H 0.82047 0.63378 0.08117 0.0
C2492 C 0.78973 0.61677 0.14805 0.0
C2493 C 0.79148 0.60723 0.169 0.0
C2494 C 0.80041 0.62972 0.14285 0.0
C2495 C 0.81307 0.63335 0.15809 0.0
C2496 C 0.8148 0.62394 0.17963 0.0
H2497 H 0.88949 0.70792 0.15286 0.0
H2498 H 0.87191 0.68462 0.16153 0.0
C2499 C 0.80411 0.61099 0.18502 0.0
C2500 C 0.82444 0.64705 0.1522 0.0
H2501 H 0.84264 0.66999 0.08086 0.0
C2502 C 0.83076 0.65488 0.18578 0.0
C2503 C 0.82891 0.65246 0.11387 0.0
C2504 C 0.82301 0.64431 0.07671 0.0
C2505 C 0.8412 0.66812 0.18204 0.0
C2506 C 0.84547 0.67359 0.14373 0.0
C2507 C 0.83928 0.66574 0.11016 0.0
C2508 C 0.85618 0.68758 0.13789 0.0
C2509 C 0.84735 0.67629 0.21901 0.0
C2510 C 0.85316 0.69683 0.12099 0.0
C2511 C 0.86316 0.71013 0.116 0.0
C2512 C 0.87638 0.71436 0.12751 0.0
C2513 C 0.87941 0.70498 0.14376 0.0
C2514 C 0.86938 0.69169 0.14892 0.0
H2515 H 0.84127 0.67145 0.24588 0.0
H2516 H 0.85742 0.67754 0.22352 0.0
H2517 H 0.84853 0.68639 0.21588 0.0
H2518 H 0.84303 0.6938 0.11214 0.0
H2519 H 0.86049 0.71708 0.10328 0.0
H2520 H 0.18507 0.38043 0.25135 0.0
H2521 H 0.18138 0.358 0.26392 0.0
H2522 H 0.15775 0.35462 0.36691 0.0
H2523 H 0.16123 0.37696 0.35438 0.0
H2524 H 0.18841 0.34897 0.33191 0.0
H2525 H 0.13372 0.32016 0.30584 0.0
H2526 H 0.14397 0.33727 0.28997 0.0
H2527 H 0.13884 0.33354 0.34095 0.0
C2528 C 0.17899 0.37488 0.27649 0.0
C2529 C 0.17339 0.38047 0.30177 0.0
C2530 C 0.17692 0.36207 0.28365 0.0
C2531 C 0.16916 0.3546 0.31603 0.0
C2532 C 0.16356 0.36013 0.3413 0.0
H2533 H 0.14649 0.27791 0.41991 0.0
H2534 H 0.15088 0.30043 0.4051 0.0
C2535 C 0.16561 0.37292 0.33418 0.0
C2536 C 0.16731 0.34119 0.32422 0.0
H2537 H 0.14354 0.30839 0.33497 0.0
C2538 C 0.17862 0.34007 0.33233 0.0
C2539 C 0.15451 0.32962 0.32475 0.0
C2540 C 0.14207 0.33014 0.31456 0.0
C2541 C 0.17745 0.32771 0.34192 0.0
C2542 C 0.16464 0.31618 0.34283 0.0
C2543 C 0.15334 0.31728 0.3344 0.0
C2544 C 0.16267 0.30283 0.35267 0.0
C2545 C 0.18987 0.32716 0.35199 0.0
C2546 C 0.16789 0.29674 0.3281 0.0
C2547 C 0.16542 0.28386 0.3365 0.0
C2548 C 0.15762 0.27682 0.36951 0.0
C2549 C 0.15255 0.28304 0.3943 0.0
C2550 C 0.15503 0.29591 0.38586 0.0
H2551 H 0.19841 0.33719 0.35921 0.0
H2552 H 0.18807 0.3204 0.37756 0.0
H2553 H 0.19274 0.3232 0.3261 0.0
H2554 H 0.17362 0.30184 0.30194 0.0
H2555 H 0.1694 0.27933 0.31669 0.0
H2556 H 0.63385 0.7875 0.27587 0.0
H2557 H 0.65695 0.80568 0.28246 0.0
H2558 H 0.65067 0.80878 0.40727 0.0
H2559 H 0.62761 0.79056 0.40113 0.0
H2560 H 0.66496 0.83193 0.30933 0.0
H2561 H 0.68553 0.80719 0.40425 0.0
H2562 H 0.67012 0.79794 0.37688 0.0
H2563 H 0.67045 0.80622 0.42236 0.0
C2564 C 0.63741 0.79195 0.30483 0.0
C2565 C 0.62889 0.78757 0.33799 0.0
C2566 C 0.6506 0.80234 0.3085 0.0
C2567 C 0.65553 0.80846 0.34541 0.0
C2568 C 0.64711 0.80403 0.37866 0.0
H2569 H 0.73103 0.87525 0.42465 0.0
H2570 H 0.70819 0.85638 0.42003 0.0
C2571 C 0.63391 0.79366 0.37502 0.0
C2572 C 0.66928 0.81992 0.34871 0.0
H2573 H 0.69943 0.83043 0.39337 0.0
C2574 C 0.67253 0.8316 0.32754 0.0
C2575 C 0.67907 0.81945 0.37272 0.0
C2576 C 0.6762 0.807 0.39514 0.0
C2577 C 0.68529 0.84293 0.33012 0.0
C2578 C 0.69512 0.84244 0.35389 0.0
C2579 C 0.69186 0.83077 0.3752 0.0
C2580 C 0.70891 0.85389 0.35658 0.0
C2581 C 0.68803 0.85541 0.30804 0.0
C2582 C 0.71692 0.85862 0.32251 0.0
C2583 C 0.72992 0.86941 0.325 0.0
C2584 C 0.73523 0.8756 0.36172 0.0
C2585 C 0.72724 0.87073 0.39591 0.0
C2586 C 0.7142 0.85994 0.39335 0.0
H2587 H 0.67865 0.85536 0.30048 0.0
H2588 H 0.69448 0.8645 0.32577 0.0
H2589 H 0.69328 0.85601 0.27988 0.0
H2590 H 0.71313 0.85389 0.29399 0.0
H2591 H 0.73584 0.87283 0.29814 0.0
H2592 H 0.21854 0.84318 0.36461 0.0
H2593 H 0.19988 0.84621 0.38477 0.0
H2594 H 0.17655 0.82186 0.28636 0.0
H2595 H 0.19505 0.81866 0.26617 0.0
H2596 H 0.18675 0.85708 0.34094 0.0
H2597 H 0.15206 0.80435 0.38261 0.0
H2598 H 0.16975 0.81091 0.37584 0.0
H2599 H 0.15887 0.80643 0.33351 0.0
C2600 C 0.20944 0.83847 0.34724 0.0
C2601 C 0.20825 0.83062 0.31389 0.0
C2602 C 0.1988 0.84021 0.35883 0.0
C2603 C 0.18677 0.83406 0.33745 0.0
C2604 C 0.18565 0.82645 0.30374 0.0
H2605 H 0.11173 0.83256 0.34066 0.0
H2606 H 0.13074 0.8293 0.32858 0.0
C2607 C 0.19627 0.82471 0.29211 0.0
C2608 C 0.17547 0.83582 0.34987 0.0
H2609 H 0.14278 0.81862 0.37847 0.0
C2610 C 0.17717 0.84871 0.34951 0.0
C2611 C 0.163 0.82485 0.36104 0.0
C2612 C 0.1608 0.81086 0.36368 0.0
C2613 C 0.16657 0.85088 0.35879 0.0
C2614 C 0.15404 0.83988 0.36935 0.0
C2615 C 0.1524 0.82702 0.37031 0.0
C2616 C 0.14237 0.84147 0.37813 0.0
C2617 C 0.16875 0.86486 0.35593 0.0
C2618 C 0.1425 0.84915 0.41056 0.0
C2619 C 0.13165 0.85105 0.41757 0.0
C2620 C 0.12045 0.84524 0.39235 0.0
C2621 C 0.12021 0.83722 0.3606 0.0
C2622 C 0.13106 0.83533 0.35363 0.0
H2623 H 0.17793 0.8716 0.33899 0.0
H2624 H 0.16009 0.86481 0.34145 0.0
H2625 H 0.1698 0.86902 0.38625 0.0
H2626 H 0.15104 0.85376 0.43026 0.0
H2627 H 0.13213 0.85723 0.4424 0.0
H2628 H 0.70017 0.82184 0.79 0.0
H2629 H 0.67682 0.81604 0.78352 0.0
H2630 H 0.68566 0.85265 0.84267 0.0
H2631 H 0.70909 0.85866 0.84872 0.0
H2632 H 0.65903 0.81236 0.84343 0.0
H2633 H 0.66588 0.85346 0.74343 0.0
H2634 H 0.67881 0.84933 0.7517 0.0
H2635 H 0.67583 0.85902 0.78772 0.0
C2636 C 0.69717 0.8287 0.80147 0.0
C2637 C 0.70649 0.84074 0.81978 0.0
C2638 C 0.68383 0.82537 0.79771 0.0
C2639 C 0.67957 0.83401 0.81205 0.0
C2640 C 0.68882 0.84598 0.8306 0.0
H2641 H 0.60295 0.82933 0.83708 0.0
H2642 H 0.62658 0.83579 0.83781 0.0
C2643 C 0.70218 0.84935 0.83426 0.0
C2644 C 0.66534 0.83022 0.809 0.0
H2645 H 0.64429 0.84024 0.77173 0.0
C2646 C 0.65579 0.8184 0.82754 0.0
C2647 C 0.66117 0.83815 0.78827 0.0
C2648 C 0.67094 0.85064 0.76632 0.0
C2649 C 0.64217 0.81441 0.82656 0.0
C2650 C 0.63802 0.82238 0.80605 0.0
C2651 C 0.64755 0.83418 0.78743 0.0
C2652 C 0.62382 0.81867 0.80407 0.0
C2653 C 0.63236 0.80187 0.84822 0.0
C2654 C 0.61452 0.80704 0.78418 0.0
C2655 C 0.60102 0.80332 0.78364 0.0
C2656 C 0.59661 0.81119 0.80295 0.0
C2657 C 0.60602 0.82302 0.82205 0.0
C2658 C 0.61952 0.82674 0.82247 0.0
H2659 H 0.63742 0.79853 0.86957 0.0
H2660 H 0.62492 0.80344 0.86458 0.0
H2661 H 0.6269 0.79374 0.82635 0.0
H2662 H 0.61771 0.80081 0.76928 0.0
H2663 H 0.59404 0.79419 0.76852 0.0
H2664 H 0.16655 0.78971 0.7321 0.0
H2665 H 0.16322 0.80862 0.74633 0.0
H2666 H 0.17113 0.80635 0.87032 0.0
H2667 H 0.17459 0.78756 0.85648 0.0
H2668 H 0.14499 0.81039 0.79915 0.0
H2669 H 0.19781 0.84541 0.83985 0.0
H2670 H 0.19267 0.82994 0.81374 0.0
H2671 H 0.19025 0.82987 0.86647 0.0
C2672 C 0.16755 0.79321 0.76242 0.0
C2673 C 0.17093 0.78719 0.79311 0.0
C2674 C 0.16563 0.804 0.77047 0.0
C2675 C 0.16715 0.80899 0.80924 0.0
C2676 C 0.17017 0.80279 0.84008 0.0
H2677 H 0.14217 0.86211 0.90821 0.0
H2678 H 0.14513 0.8432 0.89114 0.0
C2679 C 0.17207 0.79201 0.8321 0.0
C2680 C 0.16558 0.82069 0.81754 0.0
H2681 H 0.18223 0.85266 0.85273 0.0
C2682 C 0.15313 0.81966 0.81073 0.0
C2683 C 0.17629 0.8328 0.83213 0.0
C2684 C 0.19005 0.83467 0.83817 0.0
C2685 C 0.15101 0.83035 0.819 0.0
C2686 C 0.16158 0.84229 0.83493 0.0
C2687 C 0.17411 0.84343 0.84089 0.0
C2688 C 0.15986 0.85376 0.84548 0.0
C2689 C 0.13752 0.82884 0.81024 0.0
C2690 C 0.16743 0.86606 0.82617 0.0
C2691 C 0.16582 0.87691 0.83597 0.0
C2692 C 0.15667 0.87567 0.86549 0.0
C2693 C 0.14927 0.86339 0.88524 0.0
C2694 C 0.15087 0.85254 0.87536 0.0
H2695 H 0.13167 0.82051 0.78922 0.0
H2696 H 0.13176 0.82666 0.83826 0.0
H2697 H 0.13858 0.83818 0.79755 0.0
H2698 H 0.17449 0.86721 0.8032 0.0
H2699 H 0.1717 0.88624 0.82025 0.0
H2700 H 0.20722 0.37963 0.74605 0.0
H2701 H 0.1871 0.35832 0.76034 0.0
H2702 H 0.19246 0.36718 0.88559 0.0
H2703 H 0.21248 0.38857 0.87165 0.0
H2704 H 0.18364 0.33683 0.80766 0.0
H2705 H 0.15421 0.35925 0.86494 0.0
H2706 H 0.16954 0.36876 0.83749 0.0
H2707 H 0.17001 0.36506 0.88909 0.0
C2708 C 0.20416 0.37703 0.77666 0.0
C2709 C 0.2114 0.38584 0.80769 0.0
C2710 C 0.19266 0.36486 0.78475 0.0
C2711 C 0.18817 0.36131 0.82394 0.0
C2712 C 0.1956 0.36988 0.85507 0.0
H2713 H 0.12132 0.29228 0.93253 0.0
H2714 H 0.14138 0.31373 0.91887 0.0
C2715 C 0.20709 0.38206 0.84704 0.0
C2716 C 0.17572 0.34863 0.83221 0.0
H2717 H 0.14447 0.33578 0.87167 0.0
C2718 C 0.17505 0.33659 0.8215 0.0
C2719 C 0.16455 0.34838 0.85027 0.0
C2720 C 0.16451 0.36105 0.86083 0.0
C2721 C 0.16356 0.32425 0.82898 0.0
C2722 C 0.15241 0.32401 0.84707 0.0
C2723 C 0.15307 0.33604 0.85783 0.0
C2724 C 0.13995 0.31132 0.85506 0.0
C2725 C 0.16354 0.31157 0.81816 0.0
C2726 C 0.13235 0.30306 0.82363 0.0
C2727 C 0.12088 0.29082 0.83128 0.0
C2728 C 0.11679 0.28666 0.87056 0.0
C2729 C 0.12422 0.29517 0.90196 0.0
C2730 C 0.13567 0.30742 0.89424 0.0
H2731 H 0.1738 0.31336 0.81328 0.0
H2732 H 0.15869 0.30392 0.84176 0.0
H2733 H 0.15779 0.30748 0.7903 0.0
H2734 H 0.13537 0.30602 0.79315 0.0
H2735 H 0.11537 0.28454 0.8064 0.0
H2736 H 0.82123 0.70853 0.55993 0.0
H2737 H 0.81837 0.68637 0.57195 0.0
H2738 H 0.83 0.69693 0.69415 0.0
H2739 H 0.83272 0.71899 0.68265 0.0
H2740 H 0.83824 0.68104 0.59755 0.0
H2741 H 0.79581 0.66067 0.70344 0.0
H2742 H 0.80018 0.67512 0.67292 0.0
H2743 H 0.80951 0.67669 0.71728 0.0
C2744 C 0.82303 0.70609 0.58948 0.0
C2745 C 0.82718 0.71552 0.62035 0.0
C2746 C 0.82141 0.69343 0.59626 0.0
C2747 C 0.82381 0.68997 0.63404 0.0
C2748 C 0.82783 0.69931 0.66499 0.0
H2749 H 0.82646 0.62221 0.73369 0.0
H2750 H 0.82783 0.64375 0.72166 0.0
C2751 C 0.82945 0.71195 0.65827 0.0
C2752 C 0.82287 0.67687 0.64059 0.0
H2753 H 0.80718 0.64841 0.69611 0.0
C2754 C 0.83138 0.67385 0.61887 0.0
C2755 C 0.81397 0.66758 0.6686 0.0
C2756 C 0.80425 0.67009 0.69167 0.0
C2757 C 0.83141 0.66187 0.62495 0.0
C2758 C 0.82253 0.65259 0.65304 0.0
C2759 C 0.814 0.65559 0.6747 0.0
C2760 C 0.82185 0.63964 0.66006 0.0
C2761 C 0.84115 0.65937 0.60193 0.0
C2762 C 0.81793 0.63018 0.62947 0.0
C2763 C 0.81716 0.61791 0.63618 0.0
C2764 C 0.82022 0.61482 0.67373 0.0
C2765 C 0.82408 0.62429 0.70441 0.0
C2766 C 0.82484 0.63658 0.69763 0.0
H2767 H 0.84946 0.66876 0.58946 0.0
H2768 H 0.84543 0.65461 0.62099 0.0
H2769 H 0.83585 0.65253 0.57684 0.0
H2770 H 0.81533 0.63226 0.60048 0.0
H2771 H 0.81406 0.6108 0.61198 0.0
H2772 H 0.28088 0.13907 0.62838 0.0
H2773 H 0.30356 0.15817 0.63185 0.0
H2774 H 0.31941 0.13145 0.63599 0.0
H2775 H 0.29677 0.11225 0.63223 0.0
H2776 H 0.32274 0.16395 0.69261 0.0
H2777 H 0.34057 0.15763 0.54548 0.0
H2778 H 0.32308 0.14952 0.55833 0.0
H2779 H 0.3333 0.14296 0.57617 0.0
C2780 C 0.28918 0.13724 0.6298 0.0
C2781 C 0.28702 0.12414 0.62986 0.0
C2782 C 0.30213 0.14817 0.63184 0.0
C2783 C 0.31314 0.14621 0.63367 0.0
C2784 C 0.31104 0.13316 0.63389 0.0
H2785 H 0.3984 0.19629 0.65361 0.0
H2786 H 0.37534 0.17807 0.64863 0.0
C2787 C 0.29809 0.12221 0.63192 0.0
C2788 C 0.32681 0.15782 0.63645 0.0
H2789 H 0.35687 0.17365 0.58892 0.0
C2790 C 0.3302 0.16614 0.66987 0.0
C2791 C 0.33647 0.16061 0.60668 0.0
C2792 C 0.33318 0.1523 0.56944 0.0
C2793 C 0.34315 0.17703 0.67483 0.0
C2794 C 0.35285 0.17976 0.64519 0.0
C2795 C 0.3494 0.17151 0.61159 0.0
C2796 C 0.36674 0.19093 0.64889 0.0
C2797 C 0.34645 0.18527 0.71225 0.0
C2798 C 0.36954 0.20422 0.65042 0.0
C2799 C 0.38274 0.21469 0.65339 0.0
C2800 C 0.39334 0.21202 0.65459 0.0
C2801 C 0.39047 0.1987 0.65282 0.0
C2802 C 0.3773 0.18826 0.64992 0.0
H2803 H 0.33893 0.18 0.73594 0.0
H2804 H 0.35645 0.18779 0.7237 0.0
H2805 H 0.3466 0.19474 0.7056 0.0
H2806 H 0.36154 0.2065 0.6489 0.0
H2807 H 0.38463 0.22485 0.65445 0.0
H2808 H 0.87649 0.16855 0.69368 0.0
H2809 H 0.85761 0.17201 0.70633 0.0
H2810 H 0.83598 0.14568 0.60927 0.0
H2811 H 0.85471 0.14201 0.59666 0.0
H2812 H 0.84534 0.18194 0.65559 0.0
H2813 H 0.80984 0.12993 0.70254 0.0
H2814 H 0.82759 0.13636 0.69886 0.0
H2815 H 0.8174 0.13129 0.65493 0.0
C2816 C 0.86773 0.1635 0.67497 0.0
C2817 C 0.86707 0.15493 0.64431 0.0
C2818 C 0.85695 0.16549 0.68226 0.0
C2819 C 0.84533 0.15891 0.65918 0.0
C2820 C 0.84476 0.15061 0.62796 0.0
H2821 H 0.77032 0.15864 0.65288 0.0
H2822 H 0.78905 0.15482 0.64147 0.0
C2823 C 0.85551 0.1486 0.62066 0.0
C2824 C 0.83385 0.16085 0.66751 0.0
H2825 H 0.80093 0.14434 0.69393 0.0
C2826 C 0.83565 0.17375 0.66416 0.0
C2827 C 0.82122 0.15012 0.67866 0.0
C2828 C 0.81887 0.13616 0.68435 0.0
C2829 C 0.82507 0.17616 0.67098 0.0
C2830 C 0.81244 0.16542 0.68203 0.0
C2831 C 0.81064 0.15253 0.68541 0.0
C2832 C 0.80096 0.16737 0.69003 0.0
C2833 C 0.82741 0.19012 0.66546 0.0
C2834 C 0.80136 0.17545 0.72169 0.0
C2835 C 0.79069 0.17764 0.72835 0.0
C2836 C 0.7794 0.17174 0.70352 0.0
C2837 C 0.77888 0.16335 0.67248 0.0
C2838 C 0.78956 0.16116 0.6659 0.0
H2839 H 0.8366 0.19647 0.64798 0.0
H2840 H 0.81879 0.18993 0.65025 0.0
H2841 H 0.82857 0.19485 0.69497 0.0
H2842 H 0.80998 0.18012 0.7411 0.0
H2843 H 0.79138 0.1841 0.75262 0.0
H2844 H 0.04489 0.49236 0.48556 0.0
H2845 H 0.02293 0.48953 0.47031 0.0
H2846 H 0.02595 0.51351 0.57209 0.0
H2847 H 0.04794 0.5165 0.58746 0.0
H2848 H -0.00045 0.47885 0.51822 0.0
H2849 H 0.01835 0.53198 0.47903 0.0
H2850 H 0.02916 0.52493 0.48257 0.0
H2851 H 0.02359 0.52938 0.52679 0.0
C2852 C 0.04087 0.497 0.50481 0.0
C2853 C 0.04821 0.50473 0.5376 0.0
C2854 C 0.02833 0.49537 0.49602 0.0
C2855 C 0.02295 0.50151 0.51968 0.0
C2856 C 0.03007 0.50892 0.55303 0.0
H2857 H 0.94985 0.50482 0.51738 0.0
H2858 H 0.97192 0.50771 0.53102 0.0
C2859 C 0.04259 0.51054 0.56188 0.0
C2860 C 0.00987 0.50013 0.50953 0.0
H2861 H 0.99485 0.51797 0.48285 0.0
C2862 C -0.0015 0.48737 0.51029 0.0
C2863 C 0.00859 0.5113 0.49924 0.0
C2864 C 0.02057 0.52517 0.49647 0.0
C2865 C 0.9858 0.4855 0.50181 0.0
C2866 C 0.98451 0.49668 0.49158 0.0
C2867 C 0.99589 0.50943 0.49071 0.0
C2868 C 0.97139 0.49533 0.4821 0.0
C2869 C 0.97382 0.47164 0.50484 0.0
C2870 C 0.96396 0.48769 0.44947 0.0
C2871 C 0.95134 0.48601 0.44159 0.0
C2872 C 0.94598 0.49201 0.46608 0.0
C2873 C 0.95366 0.50003 0.49799 0.0
C2874 C 0.96627 0.50169 0.50586 0.0
H2875 H 0.97607 0.46486 0.52236 0.0
H2876 H 0.96525 0.47189 0.51878 0.0
H2877 H 0.97077 0.46737 0.4746 0.0
H2878 H 0.96787 0.48294 0.43027 0.0
H2879 H 0.94573 0.47984 0.41663 0.0
H2880 H 0.50333 0.55317 0.55551 0.0
H2881 H 0.50645 0.5339 0.54616 0.0
H2882 H 0.47849 0.5204 0.44879 0.0
H2883 H 0.47541 0.53965 0.45755 0.0
H2884 H 0.48688 0.50651 0.54927 0.0
H2885 H 0.51133 0.52064 0.40148 0.0
H2886 H 0.50974 0.53235 0.43323 0.0
H2887 H 0.49573 0.52044 0.40444 0.0
C2888 C 0.49789 0.54614 0.53199 0.0
C2889 C 0.48917 0.54799 0.50716 0.0
C2890 C 0.49968 0.53513 0.52673 0.0
C2891 C 0.49285 0.52585 0.49643 0.0
C2892 C 0.48405 0.5276 0.47184 0.0
H2893 H 0.48932 0.45269 0.41712 0.0
H2894 H 0.48578 0.47167 0.42716 0.0
C2895 C 0.48226 0.53858 0.47706 0.0
C2896 C 0.49465 0.51415 0.49111 0.0
H2897 H 0.505 0.4989 0.42471 0.0
C2898 C 0.4909 0.50486 0.52214 0.0
C2899 C 0.49985 0.51203 0.45559 0.0
C2900 C 0.50451 0.52194 0.42187 0.0
C2901 C 0.49201 0.49337 0.51837 0.0
C2902 C 0.49722 0.49125 0.48287 0.0
C2903 C 0.50096 0.50054 0.45183 0.0
C2904 C 0.4991 0.47959 0.47755 0.0
C2905 C 0.48734 0.48346 0.55209 0.0
C2906 C 0.50785 0.47784 0.50236 0.0
C2907 C 0.50988 0.46702 0.49678 0.0
C2908 C 0.50327 0.45779 0.46604 0.0
C2909 C 0.49454 0.4596 0.44111 0.0
C2910 C 0.49251 0.47043 0.44677 0.0
H2911 H 0.48041 0.48468 0.57223 0.0
H2912 H 0.48222 0.47304 0.54075 0.0
H2913 H 0.49611 0.48505 0.56981 0.0
H2914 H 0.51325 0.48495 0.52576 0.0
H2915 H 0.51673 0.46598 0.51636 0.0
H2916 H 0.54215 0.05893 0.43136 0.0
H2917 H 0.52324 0.03615 0.43591 0.0
H2918 H 0.51875 0.04217 0.56004 0.0
H2919 H 0.53775 0.06488 0.55598 0.0
H2920 H 0.51826 0.01833 0.54455 0.0
H2921 H 0.48365 0.02459 0.44438 0.0
H2922 H 0.49965 0.02946 0.42289 0.0
H2923 H 0.49855 0.0386 0.46451 0.0
C2924 C 0.53711 0.05544 0.4596 0.0
C2925 C 0.54144 0.06374 0.49328 0.0
C2926 C 0.52626 0.04244 0.46208 0.0
C2927 C 0.51947 0.03756 0.49816 0.0
C2928 C 0.52381 0.04578 0.53186 0.0
H2929 H 0.45321 0.96161 0.57769 0.0
H2930 H 0.47145 0.98474 0.57282 0.0
C2931 C 0.53467 0.05876 0.52946 0.0
C2932 C 0.50811 0.02372 0.50117 0.0
H2933 H 0.47693 0.00247 0.46499 0.0
C2934 C 0.50919 0.01487 0.52734 0.0
C2935 C 0.49631 0.01926 0.47861 0.0
C2936 C 0.49437 0.02849 0.45126 0.0
C2937 C 0.49887 0.00157 0.53105 0.0
C2938 C 0.48708 0.99711 0.50843 0.0
C2939 C 0.48599 0.00595 0.48227 0.0
C2940 C 0.47582 0.98323 0.51121 0.0
C2941 C 0.50077 0.99234 0.55846 0.0
C2942 C 0.47203 0.97485 0.47789 0.0
C2943 C 0.46158 0.96165 0.48049 0.0
C2944 C 0.45469 0.95663 0.51647 0.0
C2945 C 0.45836 0.96514 0.54961 0.0
C2946 C 0.46882 0.97834 0.54696 0.0
H2947 H 0.51144 0.99637 0.56631 0.0
H2948 H 0.49514 0.99106 0.58634 0.0
H2949 H 0.4969 0.98234 0.54472 0.0
H2950 H 0.47728 0.97847 0.44998 0.0
H2951 H 0.459 0.95537 0.45437 0.0
H2952 H 0.5 0.03974 0.94508 0.0
H2953 H 0.4962 0.01695 0.94895 0.0
H2954 H 0.50911 0.02349 0.07108 0.0
H2955 H 0.51283 0.04622 0.0677 0.0
H2956 H 0.51503 0.00874 0.96894 0.0
H2957 H 0.47241 0.98894 0.0744 0.0
H2958 H 0.47803 0.0043 0.04723 0.0
H2959 H 0.48705 0.00397 0.09026 0.0
C2960 C 0.50198 0.03632 0.97282 0.0
C2961 C 0.50665 0.04477 0.00614 0.0
C2962 C 0.49983 0.02332 0.97493 0.0
C2963 C 0.50221 0.01852 0.01044 0.0
C2964 C 0.50699 0.02695 0.04362 0.0
H2965 H 0.49359 0.94279 0.08463 0.0
H2966 H 0.49883 0.96603 0.08014 0.0
C2967 C 0.50916 0.03995 0.04155 0.0
C2968 C 0.4999 0.00475 0.01264 0.0
H2969 H 0.48123 0.97485 0.05945 0.0
C2970 C 0.50761 0.00129 0.98859 0.0
C2971 C 0.49024 0.99512 0.03842 0.0
C2972 C 0.48136 0.99819 0.06384 0.0
C2973 C 0.50606 0.98847 0.99009 0.0
C2974 C 0.49638 0.97882 0.01581 0.0
C2975 C 0.48868 0.9823 0.03987 0.0
C2976 C 0.49388 0.96497 0.01781 0.0
C2977 C 0.51498 0.98543 0.96475 0.0
C2978 C 0.48932 0.95669 0.98425 0.0
C2979 C 0.48635 0.94342 0.98667 0.0
C2980 C 0.48777 0.93817 0.02283 0.0
C2981 C 0.49241 0.94653 0.05634 0.0
C2982 C 0.4954 0.9598 0.05385 0.0
H2983 H 0.52411 0.9947 0.95524 0.0
H2984 H 0.51801 0.979 0.98091 0.0
H2985 H 0.50946 0.98003 0.93766 0.0
H2986 H 0.48781 0.96041 0.95636 0.0
H2987 H 0.48272 0.93724 0.96036 0.0
H2988 H 0.94978 0.44802 0.02307 0.0
H2989 H 0.97175 0.46734 0.03664 0.0
H2990 H 0.96791 0.48744 0.934 0.0
H2991 H 0.94585 0.46823 0.92035 0.0
H2992 H 0.99461 0.47939 0.98778 0.0
H2993 H 0.97653 0.51452 0.02441 0.0
H2994 H 0.96554 0.49666 0.02213 0.0
H2995 H 0.97108 0.50629 0.97721 0.0
C2996 C 0.9536 0.45653 0.00331 0.0
C2997 C 0.94603 0.45662 0.97074 0.0
C2998 C 0.96616 0.46756 0.01113 0.0
C2999 C 0.97133 0.47888 0.98671 0.0
C3000 C 0.96395 0.47889 0.95366 0.0
H3001 H 0.0456 0.55479 0.9884 0.0
H3002 H 0.0234 0.53595 0.97366 0.0
C3003 C 0.95139 0.46787 0.94578 0.0
C3004 C 0.98452 0.49062 0.99569 0.0
H3005 H -4e-05 0.52363 0.02097 0.0
C3006 C 0.9958 0.48906 0.99515 0.0
C3007 C 0.986 0.50321 0.00521 0.0
C3008 C 0.97414 0.50531 0.00766 0.0
C3009 C 0.00857 0.49981 0.00343 0.0
C3010 C 0.01003 0.51237 0.01319 0.0
C3011 C -0.00123 0.51396 0.01351 0.0
C3012 C 0.0232 0.52398 0.02327 0.0
C3013 C 0.02041 0.4977 0.00095 0.0
C3014 C 0.03026 0.52359 0.05661 0.0
C3015 C 0.04293 0.53432 0.06514 0.0
C3016 C 0.04874 0.54567 0.04055 0.0
C3017 C 0.04143 0.54619 0.00787 0.0
C3018 C 0.02875 0.53544 -0.00062 0.0
H3019 H 0.01808 0.48861 0.98361 0.0
H3020 H 0.0291 0.50643 0.9871 0.0
H3021 H 0.02332 0.49645 0.03135 0.0
H3022 H 0.02601 0.51493 0.07587 0.0
H3023 H 0.04824 0.53362 0.09067 0.0
H3024 H 0.55584 0.51331 0.01645 0.0
H3025 H 0.53765 0.51793 0.02876 0.0
H3026 H 0.51311 0.48791 0.94304 0.0
H3027 H 0.53116 0.4832 0.93047 0.0
H3028 H 0.52409 0.52562 0.96951 0.0
H3029 H 0.49008 0.47799 0.04654 0.0
H3030 H 0.50777 0.4842 0.0413 0.0
H3031 H 0.49674 0.47632 5e-05 0.0
C3032 C 0.54657 0.50768 0.00024 0.0
C3033 C 0.54493 0.49786 0.97255 0.0
C3034 C 0.5362 0.51034 0.00732 0.0
C3035 C 0.52401 0.50313 0.98717 0.0
C3036 C 0.52239 0.49343 0.9593 0.0
H3037 H 0.44851 0.50085 0.97705 0.0
H3038 H 0.46736 0.49695 0.97139 0.0
C3039 C 0.53275 0.49081 0.95202 0.0
C3040 C 0.51304 0.50591 0.99455 0.0
H3041 H 0.48107 0.49176 0.02901 0.0
C3042 C 0.51472 0.51829 0.98281 0.0
C3043 C 0.50084 0.49627 0.01178 0.0
C3044 C 0.49872 0.48298 0.02599 0.0
C3045 C 0.50432 0.52115 0.98674 0.0
C3046 C 0.49206 0.51147 0.00373 0.0
C3047 C 0.49048 0.49916 0.01598 0.0
C3048 C 0.48062 0.51378 0.00812 0.0
C3049 C 0.50641 0.53433 0.9714 0.0
C3050 C 0.48176 0.52439 0.03124 0.0
C3051 C 0.47103 0.5267 0.03436 0.0
C3052 C 0.45891 0.51833 0.01476 0.0
C3053 C 0.45771 0.5075 0.99246 0.0
C3054 C 0.46847 0.50525 0.9892 0.0
H3055 H 0.51491 0.53905 0.95027 0.0
H3056 H 0.4973 0.53304 0.9563 0.0
H3057 H 0.50866 0.54128 0.99671 0.0
H3058 H 0.49095 0.53091 0.04685 0.0
H3059 H 0.47225 0.53506 0.05204 0.0
loop_
_geom_bond_atom_site_label_1
_geom_bond_atom_site_label_2
_geom_bond_distance
_geom_bond_site_symmetry_2
_ccdc_geom_bond_type
C0 O1 1.160 . S
C0 O7 1.185 . S
O1 C0 1.160 . S
O2 Zn3 1.899 . S
O2 C10 1.284 . S
Zn3 O2 1.899 . S
Zn3 O4 2.032 . S
Zn3 O7 2.086 . S
Zn3 O12 1.977 . S
O4 Zn3 2.032 . S
O4 C8 1.278 . S
C5 O6 1.203 . S
C5 O12 1.267 . S
O6 C5 1.203 . S
O7 C0 1.185 . S
O7 Zn3 2.086 . S
C8 O4 1.278 . S
C8 O9 1.211 . S
O9 C8 1.211 . S
C10 O2 1.284 . S
C10 O11 1.273 . S
O11 C10 1.273 . S
O12 Zn3 1.977 . S
O12 C5 1.267 . S
C13 O14 1.160 . S
C13 O20 1.185 . S
O14 C13 1.160 . S
O15 Zn16 1.899 . S
O15 C23 1.284 . S
Zn16 O15 1.899 . S
Zn16 O17 2.032 . S
Zn16 O20 2.086 . S
Zn16 O25 1.977 . S
O17 Zn16 2.032 . S
O17 C21 1.278 . S
C18 O19 1.203 . S
C18 O25 1.267 . S
O19 C18 1.203 . S
O20 C13 1.185 . S
O20 Zn16 2.086 . S
C21 O17 1.278 . S
C21 O22 1.211 . S
O22 C21 1.211 . S
C23 O15 1.284 . S
C23 O24 1.273 . S
O24 C23 1.273 . S
O25 Zn16 1.977 . S
O25 C18 1.267 . S
C26 O27 1.160 . S
C26 O33 1.185 . S
O27 C26 1.160 . S
O28 Zn29 1.899 . S
O28 C36 1.284 . S
Zn29 O28 1.899 . S
Zn29 O30 2.032 . S
Zn29 O33 2.086 . S
Zn29 O38 1.977 . S
O30 Zn29 2.032 . S
O30 C34 1.278 . S
C31 O32 1.203 . S
C31 O38 1.267 . S
O32 C31 1.203 . S
O33 C26 1.185 . S
O33 Zn29 2.086 . S
C34 O30 1.278 . S
C34 O35 1.211 . S
O35 C34 1.211 . S
C36 O28 1.284 . S
C36 O37 1.273 . S
O37 C36 1.273 . S
O38 Zn29 1.977 . S
O38 C31 1.267 . S
C39 O40 1.160 . S
C39 O46 1.185 . S
O40 C39 1.160 . S
O41 Zn42 1.899 . S
O41 C49 1.284 . S
Zn42 O41 1.899 . S
Zn42 O43 2.032 . S
Zn42 O46 2.086 . S
Zn42 O51 1.977 . S
O43 Zn42 2.032 . S
O43 C47 1.278 . S
C44 O45 1.203 . S
C44 O51 1.267 . S
O45 C44 1.203 . S
O46 C39 1.185 . S
O46 Zn42 2.086 . S
C47 O43 1.278 . S
C47 O48 1.211 . S
O48 C47 1.211 . S
C49 O41 1.284 . S
C49 O50 1.273 . S
O50 C49 1.273 . S
O51 Zn42 1.977 . S
O51 C44 1.267 . S
C52 O53 1.160 . S
C52 O59 1.185 . S
O53 C52 1.160 . S
O54 Zn55 1.899 . S
O54 C62 1.284 . S
Zn55 O54 1.899 . S
Zn55 O56 2.032 . S
Zn55 O59 2.086 . S
Zn55 O64 1.977 . S
O56 Zn55 2.032 . S
O56 C60 1.278 . S
C57 O58 1.203 . S
C57 O64 1.267 . S
O58 C57 1.203 . S
O59 C52 1.185 . S
O59 Zn55 2.086 . S
C60 O56 1.278 . S
C60 O61 1.211 . S
O61 C60 1.211 . S
C62 O54 1.284 . S
C62 O63 1.273 . S
O63 C62 1.273 . S
O64 Zn55 1.977 . S
O64 C57 1.267 . S
C65 O66 1.160 . S
C65 O72 1.185 . S
O66 C65 1.160 . S
O67 Zn68 1.899 . S
O67 C75 1.284 . S
Zn68 O67 1.899 . S
Zn68 O69 2.032 . S
Zn68 O72 2.086 . S
Zn68 O77 1.977 . S
O69 Zn68 2.032 . S
O69 C73 1.278 . S
C70 O71 1.203 . S
C70 O77 1.267 . S
O71 C70 1.203 . S
O72 C65 1.185 . S
O72 Zn68 2.086 . S
C73 O69 1.278 . S
C73 O74 1.211 . S
O74 C73 1.211 . S
C75 O67 1.284 . S
C75 O76 1.273 . S
O76 C75 1.273 . S
O77 Zn68 1.977 . S
O77 C70 1.267 . S
C78 O79 1.160 . S
C78 O85 1.185 . S
O79 C78 1.160 . S
O80 Zn81 1.899 . S
O80 C88 1.284 . S
Zn81 O80 1.899 . S
Zn81 O82 2.032 . S
Zn81 O85 2.086 . S
Zn81 O90 1.977 . S
O82 Zn81 2.032 . S
O82 C86 1.278 . S
C83 O84 1.203 . S
C83 O90 1.267 . S
O84 C83 1.203 . S
O85 C78 1.185 . S
O85 Zn81 2.086 . S
C86 O82 1.278 . S
C86 O87 1.211 . S
O87 C86 1.211 . S
C88 O80 1.284 . S
C88 O89 1.273 . S
O89 C88 1.273 . S
O90 Zn81 1.977 . S
O90 C83 1.267 . S
C91 O92 1.160 . S
C91 O98 1.185 . S
O92 C91 1.160 . S
O93 Zn94 1.899 . S
O93 C101 1.284 . S
Zn94 O93 1.899 . S
Zn94 O95 2.032 . S
Zn94 O98 2.086 . S
Zn94 O103 1.977 . S
O95 Zn94 2.032 . S
O95 C99 1.278 . S
C96 O97 1.203 . S
C96 O103 1.267 . S
O97 C96 1.203 . S
O98 C91 1.185 . S
O98 Zn94 2.086 . S
C99 O95 1.278 . S
C99 O100 1.211 . S
O100 C99 1.211 . S
C101 O93 1.284 . S
C101 O102 1.273 . S
O102 C101 1.273 . S
O103 Zn94 1.977 . S
O103 C96 1.267 . S
C104 O105 1.160 . S
C104 O111 1.185 . S
O105 C104 1.160 . S
O106 Zn107 1.899 . S
O106 C114 1.284 . S
Zn107 O106 1.899 . S
Zn107 O108 2.032 . S
Zn107 O111 2.086 . S
Zn107 O116 1.977 . S
O108 Zn107 2.032 . S
O108 C112 1.278 . S
C109 O110 1.203 . S
C109 O116 1.267 . S
O110 C109 1.203 . S
O111 C104 1.185 . S
O111 Zn107 2.086 . S
C112 O108 1.278 . S
C112 O113 1.211 . S
O113 C112 1.211 . S
C114 O106 1.284 . S
C114 O115 1.273 . S
O115 C114 1.273 . S
O116 Zn107 1.977 . S
O116 C109 1.267 . S
C117 O118 1.160 . S
C117 O124 1.185 . S
O118 C117 1.160 . S
O119 Zn120 1.899 . S
O119 C127 1.284 . S
Zn120 O119 1.899 . S
Zn120 O121 2.032 . S
Zn120 O124 2.086 . S
Zn120 O129 1.977 . S
O121 Zn120 2.032 . S
O121 C125 1.278 . S
C122 O123 1.203 . S
C122 O129 1.267 . S
O123 C122 1.203 . S
O124 C117 1.185 . S
O124 Zn120 2.086 . S
C125 O121 1.278 . S
C125 O126 1.211 . S
O126 C125 1.211 . S
C127 O119 1.284 . S
C127 O128 1.273 . S
O128 C127 1.273 . S
O129 Zn120 1.977 . S
O129 C122 1.267 . S
C130 O131 1.160 . S
C130 O137 1.185 . S
O131 C130 1.160 . S
O132 Zn133 1.899 . S
O132 C140 1.284 . S
Zn133 O132 1.899 . S
Zn133 O134 2.032 . S
Zn133 O137 2.086 . S
Zn133 O142 1.977 . S
O134 Zn133 2.032 . S
O134 C138 1.278 . S
C135 O136 1.203 . S
C135 O142 1.267 . S
O136 C135 1.203 . S
O137 C130 1.185 . S
O137 Zn133 2.086 . S
C138 O134 1.278 . S
C138 O139 1.211 . S
O139 C138 1.211 . S
C140 O132 1.284 . S
C140 O141 1.273 . S
O141 C140 1.273 . S
O142 Zn133 1.977 . S
O142 C135 1.267 . S
C143 O144 1.160 . S
C143 O150 1.185 . S
O144 C143 1.160 . S
O145 Zn146 1.899 . S
O145 C153 1.284 . S
Zn146 O145 1.899 . S
Zn146 O147 2.032 . S
Zn146 O150 2.086 . S
Zn146 O155 1.977 . S
O147 Zn146 2.032 . S
O147 C151 1.278 . S
C148 O149 1.203 . S
C148 O155 1.267 . S
O149 C148 1.203 . S
O150 C143 1.185 . S
O150 Zn146 2.086 . S
C151 O147 1.278 . S
C151 O152 1.211 . S
O152 C151 1.211 . S
C153 O145 1.284 . S
C153 O154 1.273 . S
O154 C153 1.273 . S
O155 Zn146 1.977 . S
O155 C148 1.267 . S
C156 O157 1.160 . S
C156 O163 1.185 . S
O157 C156 1.160 . S
O158 Zn159 1.899 . S
O158 C166 1.284 . S
Zn159 O158 1.899 . S
Zn159 O160 2.032 . S
Zn159 O163 2.086 . S
Zn159 O168 1.977 . S
O160 Zn159 2.032 . S
O160 C164 1.278 . S
C161 O162 1.203 . S
C161 O168 1.267 . S
O162 C161 1.203 . S
O163 C156 1.185 . S
O163 Zn159 2.086 . S
C164 O160 1.278 . S
C164 O165 1.211 . S
O165 C164 1.211 . S
C166 O158 1.284 . S
C166 O167 1.273 . S
O167 C166 1.273 . S
O168 Zn159 1.977 . S
O168 C161 1.267 . S
C169 O170 1.160 . S
C169 O176 1.185 . S
O170 C169 1.160 . S
O171 Zn172 1.899 . S
O171 C179 1.284 . S
Zn172 O171 1.899 . S
Zn172 O173 2.032 . S
Zn172 O176 2.086 . S
Zn172 O181 1.977 . S
O173 Zn172 2.032 . S
O173 C177 1.278 . S
C174 O175 1.203 . S
C174 O181 1.267 . S
O175 C174 1.203 . S
O176 C169 1.185 . S
O176 Zn172 2.086 . S
C177 O173 1.278 . S
C177 O178 1.211 . S
O178 C177 1.211 . S
C179 O171 1.284 . S
C179 O180 1.273 . S
O180 C179 1.273 . S
O181 Zn172 1.977 . S
O181 C174 1.267 . S
C182 O183 1.160 . S
C182 O189 1.185 . S
O183 C182 1.160 . S
O184 Zn185 1.899 . S
O184 C192 1.284 . S
Zn185 O184 1.899 . S
Zn185 O186 2.032 . S
Zn185 O189 2.086 . S
Zn185 O194 1.977 . S
O186 Zn185 2.032 . S
O186 C190 1.278 . S
C187 O188 1.203 . S
C187 O194 1.267 . S
O188 C187 1.203 . S
O189 C182 1.185 . S
O189 Zn185 2.086 . S
C190 O186 1.278 . S
C190 O191 1.211 . S
O191 C190 1.211 . S
C192 O184 1.284 . S
C192 O193 1.273 . S
O193 C192 1.273 . S
O194 Zn185 1.977 . S
O194 C187 1.267 . S
C195 O196 1.160 . S
C195 O202 1.185 . S
O196 C195 1.160 . S
O197 Zn198 1.899 . S
O197 C205 1.284 . S
Zn198 O197 1.899 . S
Zn198 O199 2.032 . S
Zn198 O202 2.086 . S
Zn198 O207 1.977 . S
O199 Zn198 2.032 . S
O199 C203 1.278 . S
C200 O201 1.203 . S
C200 O207 1.267 . S
O201 C200 1.203 . S
O202 C195 1.185 . S
O202 Zn198 2.086 . S
C203 O199 1.278 . S
C203 O204 1.211 . S
O204 C203 1.211 . S
C205 O197 1.284 . S
C205 O206 1.273 . S
O206 C205 1.273 . S
O207 Zn198 1.977 . S
O207 C200 1.267 . S
C208 O209 1.160 . S
C208 O215 1.185 . S
O209 C208 1.160 . S
O210 Zn211 1.899 . S
O210 C218 1.284 . S
Zn211 O210 1.899 . S
Zn211 O212 2.032 . S
Zn211 O215 2.086 . S
Zn211 O220 1.977 . S
O212 Zn211 2.032 . S
O212 C216 1.278 . S
C213 O214 1.203 . S
C213 O220 1.267 . S
O214 C213 1.203 . S
O215 C208 1.185 . S
O215 Zn211 2.086 . S
C216 O212 1.278 . S
C216 O217 1.211 . S
O217 C216 1.211 . S
C218 O210 1.284 . S
C218 O219 1.273 . S
O219 C218 1.273 . S
O220 Zn211 1.977 . S
O220 C213 1.267 . S
C221 O222 1.160 . S
C221 O228 1.185 . S
O222 C221 1.160 . S
O223 Zn224 1.899 . S
O223 C231 1.284 . S
Zn224 O223 1.899 . S
Zn224 O225 2.032 . S
Zn224 O228 2.086 . S
Zn224 O233 1.977 . S
O225 Zn224 2.032 . S
O225 C229 1.278 . S
C226 O227 1.203 . S
C226 O233 1.267 . S
O227 C226 1.203 . S
O228 C221 1.185 . S
O228 Zn224 2.086 . S
C229 O225 1.278 . S
C229 O230 1.211 . S
O230 C229 1.211 . S
C231 O223 1.284 . S
C231 O232 1.273 . S
O232 C231 1.273 . S
O233 Zn224 1.977 . S
O233 C226 1.267 . S
C234 O235 1.160 . S
C234 O241 1.185 . S
O235 C234 1.160 . S
O236 Zn237 1.899 . S
O236 C244 1.284 . S
Zn237 O236 1.899 . S
Zn237 O238 2.032 . S
Zn237 O241 2.086 . S
Zn237 O246 1.977 . S
O238 Zn237 2.032 . S
O238 C242 1.278 . S
C239 O240 1.203 . S
C239 O246 1.267 . S
O240 C239 1.203 . S
O241 C234 1.185 . S
O241 Zn237 2.086 . S
C242 O238 1.278 . S
C242 O243 1.211 . S
O243 C242 1.211 . S
C244 O236 1.284 . S
C244 O245 1.273 . S
O245 C244 1.273 . S
O246 Zn237 1.977 . S
O246 C239 1.267 . S
C247 O248 1.160 . S
C247 O254 1.185 . S
O248 C247 1.160 . S
O249 Zn250 1.899 . S
O249 C257 1.284 . S
Zn250 O249 1.899 . S
Zn250 O251 2.032 . S
Zn250 O254 2.086 . S
Zn250 O259 1.977 . S
O251 Zn250 2.032 . S
O251 C255 1.278 . S
C252 O253 1.203 . S
C252 O259 1.267 . S
O253 C252 1.203 . S
O254 C247 1.185 . S
O254 Zn250 2.086 . S
C255 O251 1.278 . S
C255 O256 1.211 . S
O256 C255 1.211 . S
C257 O249 1.284 . S
C257 O258 1.273 . S
O258 C257 1.273 . S
O259 Zn250 1.977 . S
O259 C252 1.267 . S
C260 O261 1.160 . S
C260 O267 1.185 . S
O261 C260 1.160 . S
O262 Zn263 1.899 . S
O262 C270 1.284 . S
Zn263 O262 1.899 . S
Zn263 O264 2.032 . S
Zn263 O267 2.086 . S
Zn263 O272 1.977 . S
O264 Zn263 2.032 . S
O264 C268 1.278 . S
C265 O266 1.203 . S
C265 O272 1.267 . S
O266 C265 1.203 . S
O267 C260 1.185 . S
O267 Zn263 2.086 . S
C268 O264 1.278 . S
C268 O269 1.211 . S
O269 C268 1.211 . S
C270 O262 1.284 . S
C270 O271 1.273 . S
O271 C270 1.273 . S
O272 Zn263 1.977 . S
O272 C265 1.267 . S
C273 O274 1.160 . S
C273 O280 1.185 . S
O274 C273 1.160 . S
O275 Zn276 1.899 1_556 S
O275 C283 1.284 . S
Zn276 O275 1.899 1_554 S
Zn276 O277 2.032 . S
Zn276 O280 2.086 . S
Zn276 O285 1.977 . S
O277 Zn276 2.032 . S
O277 C281 1.278 . S
C278 O279 1.203 . S
C278 O285 1.267 . S
O279 C278 1.203 . S
O280 C273 1.185 . S
O280 Zn276 2.086 . S
C281 O277 1.278 . S
C281 O282 1.211 . S
O282 C281 1.211 . S
C283 O275 1.284 . S
C283 O284 1.273 1_556 S
O284 C283 1.273 1_554 S
O285 Zn276 1.977 . S
O285 C278 1.267 . S
C286 O287 1.160 . S
C286 O293 1.185 . S
O287 C286 1.160 . S
O288 Zn289 1.899 1_556 S
O288 C296 1.284 . S
Zn289 O288 1.899 1_554 S
Zn289 O290 2.032 . S
Zn289 O293 2.086 . S
Zn289 O298 1.977 . S
O290 Zn289 2.032 . S
O290 C294 1.278 . S
C291 O292 1.203 . S
C291 O298 1.267 . S
O292 C291 1.203 . S
O293 C286 1.185 . S
O293 Zn289 2.086 . S
C294 O290 1.278 . S
C294 O295 1.211 . S
O295 C294 1.211 . S
C296 O288 1.284 . S
C296 O297 1.273 1_556 S
O297 C296 1.273 1_554 S
O298 Zn289 1.977 . S
O298 C291 1.267 . S
C299 O300 1.160 . S
C299 O306 1.185 . S
O300 C299 1.160 . S
O301 Zn302 1.899 1_556 S
O301 C309 1.284 . S
Zn302 O301 1.899 1_554 S
Zn302 O303 2.032 . S
Zn302 O306 2.086 . S
Zn302 O311 1.977 . S
O303 Zn302 2.032 . S
O303 C307 1.278 . S
C304 O305 1.203 . S
C304 O311 1.267 . S
O305 C304 1.203 . S
O306 C299 1.185 . S
O306 Zn302 2.086 . S
C307 O303 1.278 . S
C307 O308 1.211 . S
O308 C307 1.211 . S
C309 O301 1.284 . S
C309 O310 1.273 1_556 S
O310 C309 1.273 1_554 S
O311 Zn302 1.977 . S
O311 C304 1.267 . S
C312 O313 1.160 . S
C312 O319 1.185 . S
O313 C312 1.160 . S
O314 Zn315 1.899 . S
O314 C322 1.284 . S
Zn315 O314 1.899 . S
Zn315 O316 2.032 . S
Zn315 O319 2.086 . S
Zn315 O324 1.977 . S
O316 Zn315 2.032 . S
O316 C320 1.278 . S
C317 O318 1.203 . S
C317 O324 1.267 . S
O318 C317 1.203 . S
O319 C312 1.185 . S
O319 Zn315 2.086 . S
C320 O316 1.278 . S
C320 O321 1.211 . S
O321 C320 1.211 . S
C322 O314 1.284 . S
C322 O323 1.273 . S
O323 C322 1.273 . S
O324 Zn315 1.977 . S
O324 C317 1.267 . S
C325 O326 1.160 . S
C325 O332 1.185 . S
O326 C325 1.160 . S
O327 Zn328 1.899 . S
O327 C335 1.284 . S
Zn328 O327 1.899 . S
Zn328 O329 2.032 . S
Zn328 O332 2.086 . S
Zn328 O337 1.977 . S
O329 Zn328 2.032 . S
O329 C333 1.278 . S
C330 O331 1.203 . S
C330 O337 1.267 . S
O331 C330 1.203 . S
O332 C325 1.185 . S
O332 Zn328 2.086 . S
C333 O329 1.278 . S
C333 O334 1.211 . S
O334 C333 1.211 . S
C335 O327 1.284 . S
C335 O336 1.273 . S
O336 C335 1.273 . S
O337 Zn328 1.977 . S
O337 C330 1.267 . S
C338 O339 1.160 . S
C338 O345 1.185 . S
O339 C338 1.160 . S
O340 Zn341 1.899 . S
O340 C348 1.284 . S
Zn341 O340 1.899 . S
Zn341 O342 2.032 . S
Zn341 O345 2.086 . S
Zn341 O350 1.977 . S
O342 Zn341 2.032 . S
O342 C346 1.278 . S
C343 O344 1.203 . S
C343 O350 1.267 . S
O344 C343 1.203 . S
O345 C338 1.185 . S
O345 Zn341 2.086 . S
C346 O342 1.278 . S
C346 O347 1.211 . S
O347 C346 1.211 . S
C348 O340 1.284 . S
C348 O349 1.273 . S
O349 C348 1.273 . S
O350 Zn341 1.977 . S
O350 C343 1.267 . S
C351 O352 1.160 . S
C351 O358 1.185 . S
O352 C351 1.160 . S
O353 Zn354 1.899 1_554 S
O353 C361 1.284 . S
Zn354 O353 1.899 1_556 S
Zn354 O355 2.032 . S
Zn354 O358 2.086 . S
Zn354 O363 1.977 . S
O355 Zn354 2.032 . S
O355 C359 1.278 . S
C356 O357 1.203 . S
C356 O363 1.267 . S
O357 C356 1.203 . S
O358 C351 1.185 . S
O358 Zn354 2.086 . S
C359 O355 1.278 . S
C359 O360 1.211 . S
O360 C359 1.211 . S
C361 O353 1.284 . S
C361 O362 1.273 1_554 S
O362 C361 1.273 1_556 S
O363 Zn354 1.977 . S
O363 C356 1.267 . S
C364 O365 1.160 . S
C364 O371 1.185 . S
O365 C364 1.160 . S
O366 Zn367 1.899 1_554 S
O366 C374 1.284 . S
Zn367 O366 1.899 1_556 S
Zn367 O368 2.032 . S
Zn367 O371 2.086 . S
Zn367 O376 1.977 . S
O368 Zn367 2.032 . S
O368 C372 1.278 . S
C369 O370 1.203 . S
C369 O376 1.267 . S
O370 C369 1.203 . S
O371 C364 1.185 . S
O371 Zn367 2.086 . S
C372 O368 1.278 . S
C372 O373 1.211 . S
O373 C372 1.211 . S
C374 O366 1.284 . S
C374 O375 1.273 1_554 S
O375 C374 1.273 1_556 S
O376 Zn367 1.977 . S
O376 C369 1.267 . S
C377 O378 1.160 . S
C377 O384 1.185 . S
O378 C377 1.160 . S
O379 Zn380 1.899 1_554 S
O379 C387 1.284 . S
Zn380 O379 1.899 1_556 S
Zn380 O381 2.032 . S
Zn380 O384 2.086 . S
Zn380 O389 1.977 . S
O381 Zn380 2.032 . S
O381 C385 1.278 . S
C382 O383 1.203 . S
C382 O389 1.267 . S
O383 C382 1.203 . S
O384 C377 1.185 . S
O384 Zn380 2.086 . S
C385 O381 1.278 . S
C385 O386 1.211 . S
O386 C385 1.211 . S
C387 O379 1.284 . S
C387 O388 1.273 1_554 S
O388 C387 1.273 1_556 S
O389 Zn380 1.977 . S
O389 C382 1.267 . S
C390 O391 1.160 . S
C390 O397 1.185 . S
O391 C390 1.160 . S
O392 Zn393 1.899 . S
O392 C400 1.284 . S
Zn393 O392 1.899 . S
Zn393 O394 2.032 . S
Zn393 O397 2.086 . S
Zn393 O402 1.977 . S
O394 Zn393 2.032 . S
O394 C398 1.278 . S
C395 O396 1.203 . S
C395 O402 1.267 . S
O396 C395 1.203 . S
O397 C390 1.185 . S
O397 Zn393 2.086 . S
C398 O394 1.278 . S
C398 O399 1.211 . S
O399 C398 1.211 . S
C400 O392 1.284 . S
C400 O401 1.273 . S
O401 C400 1.273 . S
O402 Zn393 1.977 . S
O402 C395 1.267 . S
C403 O404 1.160 . S
C403 O410 1.185 . S
O404 C403 1.160 . S
O405 Zn406 1.899 . S
O405 C413 1.284 . S
Zn406 O405 1.899 . S
Zn406 O407 2.032 . S
Zn406 O410 2.086 . S
Zn406 O415 1.977 . S
O407 Zn406 2.032 . S
O407 C411 1.278 . S
C408 O409 1.203 . S
C408 O415 1.267 . S
O409 C408 1.203 . S
O410 C403 1.185 . S
O410 Zn406 2.086 . S
C411 O407 1.278 . S
C411 O412 1.211 . S
O412 C411 1.211 . S
C413 O405 1.284 . S
C413 O414 1.273 . S
O414 C413 1.273 . S
O415 Zn406 1.977 . S
O415 C408 1.267 . S
C416 O417 1.160 . S
C416 O423 1.185 . S
O417 C416 1.160 . S
O418 Zn419 1.899 . S
O418 C426 1.284 . S
Zn419 O418 1.899 . S
Zn419 O420 2.032 . S
Zn419 O423 2.086 . S
Zn419 O428 1.977 . S
O420 Zn419 2.032 . S
O420 C424 1.278 . S
C421 O422 1.203 . S
C421 O428 1.267 . S
O422 C421 1.203 . S
O423 C416 1.185 . S
O423 Zn419 2.086 . S
C424 O420 1.278 . S
C424 O425 1.211 . S
O425 C424 1.211 . S
C426 O418 1.284 . S
C426 O427 1.273 . S
O427 C426 1.273 . S
O428 Zn419 1.977 . S
O428 C421 1.267 . S
C429 O430 1.160 . S
C429 O436 1.185 . S
O430 C429 1.160 . S
O431 Zn432 1.899 . S
O431 C439 1.284 . S
Zn432 O431 1.899 . S
Zn432 O433 2.032 . S
Zn432 O436 2.086 . S
Zn432 O441 1.977 . S
O433 Zn432 2.032 . S
O433 C437 1.278 . S
C434 O435 1.203 . S
C434 O441 1.267 . S
O435 C434 1.203 . S
O436 C429 1.185 . S
O436 Zn432 2.086 . S
C437 O433 1.278 . S
C437 O438 1.211 . S
O438 C437 1.211 . S
C439 O431 1.284 . S
C439 O440 1.273 . S
O440 C439 1.273 . S
O441 Zn432 1.977 . S
O441 C434 1.267 . S
C442 O443 1.160 . S
C442 O449 1.185 . S
O443 C442 1.160 . S
O444 Zn445 1.899 . S
O444 C452 1.284 . S
Zn445 O444 1.899 . S
Zn445 O446 2.032 . S
Zn445 O449 2.086 . S
Zn445 O454 1.977 . S
O446 Zn445 2.032 . S
O446 C450 1.278 . S
C447 O448 1.203 . S
C447 O454 1.267 . S
O448 C447 1.203 . S
O449 C442 1.185 . S
O449 Zn445 2.086 . S
C450 O446 1.278 . S
C450 O451 1.211 . S
O451 C450 1.211 . S
C452 O444 1.284 . S
C452 O453 1.273 . S
O453 C452 1.273 . S
O454 Zn445 1.977 . S
O454 C447 1.267 . S
C455 O456 1.160 . S
C455 O462 1.185 . S
O456 C455 1.160 . S
O457 Zn458 1.899 . S
O457 C465 1.284 . S
Zn458 O457 1.899 . S
Zn458 O459 2.032 . S
Zn458 O462 2.086 . S
Zn458 O467 1.977 . S
O459 Zn458 2.032 . S
O459 C463 1.278 . S
C460 O461 1.203 . S
C460 O467 1.267 . S
O461 C460 1.203 . S
O462 C455 1.185 . S
O462 Zn458 2.086 . S
C463 O459 1.278 . S
C463 O464 1.211 . S
O464 C463 1.211 . S
C465 O457 1.284 . S
C465 O466 1.273 . S
O466 C465 1.273 . S
O467 Zn458 1.977 . S
O467 C460 1.267 . S
H468 C476 0.929 . S
H469 C478 0.930 . S
H470 C480 0.930 . S
H471 C483 0.929 . S
H472 C486 0.930 . S
H473 C488 0.960 . S
H474 C488 0.960 . S
H475 C488 0.960 . S
C476 H468 0.929 . S
C476 C477 1.377 . S
C476 C478 1.384 . S
C477 C476 1.377 . S
C477 C483 1.390 . S
C478 H469 0.930 . S
C478 C476 1.384 . S
C478 C479 1.372 . S
C479 C478 1.372 . S
C479 C480 1.400 . S
C479 C484 1.490 . S
C480 H470 0.930 . S
C480 C479 1.400 . S
C480 C483 1.386 . S
H481 C497 0.930 . S
H482 C498 0.931 . S
C483 H471 0.929 . S
C483 C477 1.390 . S
C483 C480 1.386 . S
C484 C479 1.490 . S
C484 C486 1.395 . S
C484 C487 1.403 . S
H485 C491 0.932 1_554 S
C486 H472 0.930 . S
C486 C484 1.395 . S
C486 C489 1.403 . S
C487 C484 1.403 . S
C487 C488 1.524 . S
C487 C491 1.400 . S
C488 H473 0.960 . S
C488 H474 0.960 . S
C488 H475 0.960 . S
C488 C487 1.524 . S
C489 C486 1.403 . S
C489 C490 1.392 . S
C489 C493 1.495 . S
C490 C489 1.392 . S
C490 C491 1.385 . S
C490 C492 1.478 1_556 S
C491 H485 0.932 1_556 S
C491 C487 1.400 . S
C491 C490 1.385 . S
C492 C490 1.478 1_554 S
C492 C494 1.381 . S
C492 C498 1.383 . S
C493 C489 1.495 . S
C493 H499 0.959 . S
C493 H500 0.961 . S
C493 H501 0.960 1_556 S
C494 C492 1.381 . S
C494 C495 1.394 . S
C494 H502 0.930 . S
C495 C494 1.394 . S
C495 C496 1.383 . S
C495 H503 0.929 . S
C496 C495 1.383 . S
C496 C497 1.377 . S
C497 H481 0.930 . S
C497 C496 1.377 . S
C497 C498 1.379 . S
C498 H482 0.931 . S
C498 C492 1.383 . S
C498 C497 1.379 . S
H499 C493 0.959 . S
H500 C493 0.961 . S
H501 C493 0.960 1_554 S
H502 C494 0.930 . S
H503 C495 0.929 . S
H504 C512 0.929 . S
H505 C514 0.930 . S
H506 C516 0.930 . S
H507 C519 0.929 . S
H508 C522 0.930 . S
H509 C524 0.960 . S
H510 C524 0.960 . S
H511 C524 0.960 . S
C512 H504 0.929 . S
C512 C513 1.377 . S
C512 C514 1.384 . S
C513 C512 1.377 . S
C513 C519 1.390 . S
C514 H505 0.930 . S
C514 C512 1.384 . S
C514 C515 1.372 . S
C515 C514 1.372 . S
C515 C516 1.400 . S
C515 C520 1.490 . S
C516 H506 0.930 . S
C516 C515 1.400 . S
C516 C519 1.386 . S
H517 C533 0.930 . S
H518 C534 0.931 . S
C519 H507 0.929 . S
C519 C513 1.390 . S
C519 C516 1.386 . S
C520 C515 1.490 . S
C520 C522 1.395 . S
C520 C523 1.403 . S
H521 C527 0.930 1_554 S
C522 H508 0.930 . S
C522 C520 1.395 . S
C522 C525 1.403 . S
C523 C520 1.403 . S
C523 C524 1.524 . S
C523 C527 1.400 . S
C524 H509 0.960 . S
C524 H510 0.960 . S
C524 H511 0.960 . S
C524 C523 1.524 . S
C525 C522 1.403 . S
C525 C526 1.392 . S
C525 C529 1.495 . S
C526 C525 1.392 . S
C526 C527 1.385 . S
C526 C528 1.478 1_556 S
C527 H521 0.930 1_556 S
C527 C523 1.400 . S
C527 C526 1.385 . S
C528 C526 1.478 1_554 S
C528 C530 1.381 . S
C528 C534 1.383 . S
C529 C525 1.495 . S
C529 H535 0.959 . S
C529 H536 0.961 . S
C529 H537 0.960 . S
C530 C528 1.381 . S
C530 C531 1.394 . S
C530 H538 0.930 . S
C531 C530 1.394 . S
C531 C532 1.383 . S
C531 H539 0.929 . S
C532 C531 1.383 . S
C532 C533 1.377 . S
C533 H517 0.930 . S
C533 C532 1.377 . S
C533 C534 1.379 . S
C534 H518 0.931 . S
C534 C528 1.383 . S
C534 C533 1.379 . S
H535 C529 0.959 . S
H536 C529 0.961 . S
H537 C529 0.960 . S
H538 C530 0.930 . S
H539 C531 0.929 . S
H540 C548 0.929 . S
H541 C550 0.930 . S
H542 C552 0.930 . S
H543 C555 0.929 . S
H544 C558 0.930 . S
H545 C560 0.960 . S
H546 C560 0.960 1_554 S
H547 C560 0.960 1_554 S
C548 H540 0.929 . S
C548 C549 1.377 . S
C548 C550 1.384 . S
C549 C548 1.377 . S
C549 C555 1.390 . S
C550 H541 0.930 . S
C550 C548 1.384 . S
C550 C551 1.372 . S
C551 C550 1.372 . S
C551 C552 1.400 . S
C551 C556 1.490 1_554 S
C552 H542 0.930 . S
C552 C551 1.400 . S
C552 C555 1.386 . S
H553 C569 0.930 . S
H554 C570 0.931 . S
C555 H543 0.929 . S
C555 C549 1.390 . S
C555 C552 1.386 . S
C556 C551 1.490 1_556 S
C556 C558 1.395 . S
C556 C559 1.403 . S
H557 C563 0.930 . S
C558 H544 0.930 . S
C558 C556 1.395 . S
C558 C561 1.403 . S
C559 C556 1.403 . S
C559 C560 1.524 . S
C559 C563 1.400 . S
C560 H545 0.960 . S
C560 H546 0.960 1_556 S
C560 H547 0.960 1_556 S
C560 C559 1.524 . S
C561 C558 1.403 . S
C561 C562 1.392 . S
C561 C565 1.495 . S
C562 C561 1.392 . S
C562 C563 1.385 . S
C562 C564 1.478 . S
C563 H557 0.930 . S
C563 C559 1.400 . S
C563 C562 1.385 . S
C564 C562 1.478 . S
C564 C566 1.381 . S
C564 C570 1.383 . S
C565 C561 1.495 . S
C565 H571 0.959 . S
C565 H572 0.961 . S
C565 H573 0.960 . S
C566 C564 1.381 . S
C566 C567 1.394 . S
C566 H574 0.930 . S
C567 C566 1.394 . S
C567 C568 1.383 . S
C567 H575 0.929 . S
C568 C567 1.383 . S
C568 C569 1.377 . S
C569 H553 0.930 . S
C569 C568 1.377 . S
C569 C570 1.379 . S
C570 H554 0.931 . S
C570 C564 1.383 . S
C570 C569 1.379 . S
H571 C565 0.959 . S
H572 C565 0.961 . S
H573 C565 0.960 . S
H574 C566 0.930 . S
H575 C567 0.929 . S
H576 C584 0.929 . S
H577 C586 0.930 . S
H578 C588 0.930 . S
H579 C591 0.929 . S
H580 C594 0.930 . S
H581 C596 0.960 . S
H582 C596 0.960 . S
H583 C596 0.960 . S
C584 H576 0.929 . S
C584 C585 1.377 . S
C584 C586 1.384 . S
C585 C584 1.377 . S
C585 C591 1.390 . S
C586 H577 0.930 . S
C586 C584 1.384 . S
C586 C587 1.372 . S
C587 C586 1.372 . S
C587 C588 1.400 . S
C587 C592 1.490 . S
C588 H578 0.930 . S
C588 C587 1.400 . S
C588 C591 1.386 . S
H589 C605 0.930 . S
H590 C606 0.931 . S
C591 H579 0.929 . S
C591 C585 1.390 . S
C591 C588 1.386 . S
C592 C587 1.490 . S
C592 C594 1.395 . S
C592 C595 1.403 . S
H593 C599 0.930 . S
C594 H580 0.930 . S
C594 C592 1.395 . S
C594 C597 1.403 . S
C595 C592 1.403 . S
C595 C596 1.524 . S
C595 C599 1.400 . S
C596 H581 0.960 . S
C596 H582 0.960 . S
C596 H583 0.960 . S
C596 C595 1.524 . S
C597 C594 1.403 . S
C597 C598 1.392 . S
C597 C601 1.495 . S
C598 C597 1.392 . S
C598 C599 1.385 . S
C598 C600 1.478 . S
C599 H593 0.930 . S
C599 C595 1.400 . S
C599 C598 1.385 . S
C600 C598 1.478 . S
C600 C602 1.381 . S
C600 C606 1.383 . S
C601 C597 1.495 . S
C601 H607 0.959 . S
C601 H608 0.961 . S
C601 H609 0.960 . S
C602 C600 1.381 . S
C602 C603 1.394 . S
C602 H610 0.930 . S
C603 C602 1.394 . S
C603 C604 1.383 . S
C603 H611 0.929 . S
C604 C603 1.383 . S
C604 C605 1.377 . S
C605 H589 0.930 . S
C605 C604 1.377 . S
C605 C606 1.379 . S
C606 H590 0.931 . S
C606 C600 1.383 . S
C606 C605 1.379 . S
H607 C601 0.959 . S
H608 C601 0.961 . S
H609 C601 0.960 . S
H610 C602 0.930 . S
H611 C603 0.929 . S
H612 C620 0.929 . S
H613 C622 0.930 . S
H614 C624 0.930 . S
H615 C627 0.929 . S
H616 C630 0.930 . S
H617 C632 0.960 . S
H618 C632 0.960 . S
H619 C632 0.960 . S
C620 H612 0.929 . S
C620 C621 1.377 . S
C620 C622 1.384 . S
C621 C620 1.377 . S
C621 C627 1.390 . S
C622 H613 0.930 . S
C622 C620 1.384 . S
C622 C623 1.372 . S
C623 C622 1.372 . S
C623 C624 1.400 . S
C623 C628 1.490 . S
C624 H614 0.930 . S
C624 C623 1.400 . S
C624 C627 1.386 . S
H625 C641 0.930 . S
H626 C642 0.931 . S
C627 H615 0.929 . S
C627 C621 1.390 . S
C627 C624 1.386 . S
C628 C623 1.490 . S
C628 C630 1.395 . S
C628 C631 1.403 . S
H629 C635 0.930 . S
C630 H616 0.930 . S
C630 C628 1.395 . S
C630 C633 1.403 . S
C631 C628 1.403 . S
C631 C632 1.524 . S
C631 C635 1.400 . S
C632 H617 0.960 . S
C632 H618 0.960 . S
C632 H619 0.960 . S
C632 C631 1.524 . S
C633 C630 1.403 . S
C633 C634 1.392 . S
C633 C637 1.495 . S
C634 C633 1.392 . S
C634 C635 1.385 . S
C634 C636 1.478 . S
C635 H629 0.930 . S
C635 C631 1.400 . S
C635 C634 1.385 . S
C636 C634 1.478 . S
C636 C638 1.381 . S
C636 C642 1.383 . S
C637 C633 1.495 . S
C637 H643 0.959 . S
C637 H644 0.961 . S
C637 H645 0.960 . S
C638 C636 1.381 . S
C638 C639 1.394 . S
C638 H646 0.930 . S
C639 C638 1.394 . S
C639 C640 1.383 . S
C639 H647 0.929 . S
C640 C639 1.383 . S
C640 C641 1.377 . S
C641 H625 0.930 . S
C641 C640 1.377 . S
C641 C642 1.379 . S
C642 H626 0.931 . S
C642 C636 1.383 . S
C642 C641 1.379 . S
H643 C637 0.959 . S
H644 C637 0.961 . S
H645 C637 0.960 . S
H646 C638 0.930 . S
H647 C639 0.929 . S
H648 C656 0.929 . S
H649 C658 0.930 . S
H650 C660 0.930 . S
H651 C663 0.929 . S
H652 C666 0.930 . S
H653 C668 0.960 . S
H654 C668 0.960 . S
H655 C668 0.960 . S
C656 H648 0.929 . S
C656 C657 1.377 . S
C656 C658 1.384 . S
C657 C656 1.377 . S
C657 C663 1.390 . S
C658 H649 0.930 . S
C658 C656 1.384 . S
C658 C659 1.372 . S
C659 C658 1.372 . S
C659 C660 1.400 . S
C659 C664 1.490 . S
C660 H650 0.930 . S
C660 C659 1.400 . S
C660 C663 1.386 . S
H661 C677 0.930 . S
H662 C678 0.931 . S
C663 H651 0.929 . S
C663 C657 1.390 . S
C663 C660 1.386 . S
C664 C659 1.490 . S
C664 C666 1.395 . S
C664 C667 1.403 . S
H665 C671 0.930 . S
C666 H652 0.930 . S
C666 C664 1.395 . S
C666 C669 1.403 . S
C667 C664 1.403 . S
C667 C668 1.524 . S
C667 C671 1.400 . S
C668 H653 0.960 . S
C668 H654 0.960 . S
C668 H655 0.960 . S
C668 C667 1.524 . S
C669 C666 1.403 . S
C669 C670 1.392 . S
C669 C673 1.495 . S
C670 C669 1.392 . S
C670 C671 1.385 . S
C670 C672 1.478 . S
C671 H665 0.930 . S
C671 C667 1.400 . S
C671 C670 1.385 . S
C672 C670 1.478 . S
C672 C674 1.381 . S
C672 C678 1.383 . S
C673 C669 1.495 . S
C673 H679 0.959 . S
C673 H680 0.961 . S
C673 H681 0.960 . S
C674 C672 1.381 . S
C674 C675 1.394 . S
C674 H682 0.930 . S
C675 C674 1.394 . S
C675 C676 1.383 . S
C675 H683 0.929 . S
C676 C675 1.383 . S
C676 C677 1.377 . S
C677 H661 0.930 . S
C677 C676 1.377 . S
C677 C678 1.379 . S
C678 H662 0.931 . S
C678 C672 1.383 . S
C678 C677 1.379 . S
H679 C673 0.959 . S
H680 C673 0.961 . S
H681 C673 0.960 . S
H682 C674 0.930 . S
H683 C675 0.929 . S
H684 C692 0.929 . S
H685 C694 0.930 . S
H686 C696 0.930 . S
H687 C699 0.929 . S
H688 C702 0.930 . S
H689 C704 0.960 . S
H690 C704 0.960 . S
H691 C704 0.960 . S
C692 H684 0.929 . S
C692 C693 1.377 . S
C692 C694 1.384 . S
C693 C692 1.377 . S
C693 C699 1.390 . S
C694 H685 0.930 . S
C694 C692 1.384 . S
C694 C695 1.372 . S
C695 C694 1.372 . S
C695 C696 1.400 . S
C695 C700 1.490 . S
C696 H686 0.930 . S
C696 C695 1.400 . S
C696 C699 1.386 . S
H697 C713 0.930 . S
H698 C714 0.931 . S
C699 H687 0.929 . S
C699 C693 1.390 . S
C699 C696 1.386 . S
C700 C695 1.490 . S
C700 C702 1.395 . S
C700 C703 1.403 . S
H701 C707 0.930 1_556 S
C702 H688 0.930 . S
C702 C700 1.395 . S
C702 C705 1.403 . S
C703 C700 1.403 . S
C703 C704 1.524 . S
C703 C707 1.400 . S
C704 H689 0.960 . S
C704 H690 0.960 . S
C704 H691 0.960 . S
C704 C703 1.524 . S
C705 C702 1.403 . S
C705 C706 1.392 . S
C705 C709 1.495 . S
C706 C705 1.392 . S
C706 C707 1.385 . S
C706 C708 1.478 1_554 S
C707 H701 0.930 1_554 S
C707 C703 1.400 . S
C707 C706 1.385 . S
C708 C706 1.478 1_556 S
C708 C710 1.381 . S
C708 C714 1.383 . S
C709 C705 1.495 . S
C709 H715 0.959 . S
C709 H716 0.961 . S
C709 H717 0.960 . S
C710 C708 1.381 . S
C710 C711 1.394 . S
C710 H718 0.930 . S
C711 C710 1.394 . S
C711 C712 1.383 . S
C711 H719 0.929 . S
C712 C711 1.383 . S
C712 C713 1.377 . S
C713 H697 0.930 . S
C713 C712 1.377 . S
C713 C714 1.379 . S
C714 H698 0.931 . S
C714 C708 1.383 . S
C714 C713 1.379 . S
H715 C709 0.959 . S
H716 C709 0.961 . S
H717 C709 0.960 . S
H718 C710 0.930 . S
H719 C711 0.929 . S
H720 C728 0.929 . S
H721 C730 0.930 . S
H722 C732 0.930 . S
H723 C735 0.929 . S
H724 C738 0.930 . S
H725 C740 0.960 . S
H726 C740 0.960 . S
H727 C740 0.960 . S
C728 H720 0.929 . S
C728 C729 1.377 . S
C728 C730 1.384 . S
C729 C728 1.377 . S
C729 C735 1.390 . S
C730 H721 0.930 . S
C730 C728 1.384 . S
C730 C731 1.372 . S
C731 C730 1.372 . S
C731 C732 1.400 . S
C731 C736 1.490 . S
C732 H722 0.930 . S
C732 C731 1.400 . S
C732 C735 1.386 . S
H733 C749 0.930 . S
H734 C750 0.931 . S
C735 H723 0.929 . S
C735 C729 1.390 . S
C735 C732 1.386 . S
C736 C731 1.490 . S
C736 C738 1.395 . S
C736 C739 1.403 . S
H737 C743 0.916 1_556 S
C738 H724 0.930 . S
C738 C736 1.395 . S
C738 C741 1.403 . S
C739 C736 1.403 . S
C739 C740 1.524 . S
C739 C743 1.400 . S
C740 H725 0.960 . S
C740 H726 0.960 . S
C740 H727 0.960 . S
C740 C739 1.524 . S
C741 C738 1.403 . S
C741 C742 1.392 . S
C741 C745 1.495 . S
C742 C741 1.392 . S
C742 C743 1.385 . S
C742 C744 1.478 1_554 S
C743 H737 0.916 1_554 S
C743 C739 1.400 . S
C743 C742 1.385 . S
C744 C742 1.478 1_556 S
C744 C746 1.381 . S
C744 C750 1.383 . S
C745 C741 1.495 . S
C745 H751 0.959 . S
C745 H752 0.961 . S
C745 H753 0.944 1_554 S
C746 C744 1.381 . S
C746 C747 1.394 . S
C746 H754 0.930 . S
C747 C746 1.394 . S
C747 C748 1.383 . S
C747 H755 0.929 . S
C748 C747 1.383 . S
C748 C749 1.377 . S
C749 H733 0.930 . S
C749 C748 1.377 . S
C749 C750 1.379 . S
C750 H734 0.931 . S
C750 C744 1.383 . S
C750 C749 1.379 . S
H751 C745 0.959 . S
H752 C745 0.961 . S
H753 C745 0.944 1_556 S
H754 C746 0.930 . S
H755 C747 0.929 . S
H756 C764 0.929 . S
H757 C766 0.930 . S
H758 C768 0.930 . S
H759 C771 0.929 . S
H760 C774 0.930 1_556 S
H761 C776 0.960 . S
H762 C776 0.960 . S
H763 C776 0.960 . S
C764 H756 0.929 . S
C764 C765 1.377 . S
C764 C766 1.384 . S
C765 C764 1.377 . S
C765 C771 1.390 . S
C766 H757 0.930 . S
C766 C764 1.384 . S
C766 C767 1.372 . S
C767 C766 1.372 . S
C767 C768 1.400 . S
C767 C772 1.490 1_556 S
C768 H758 0.930 . S
C768 C767 1.400 . S
C768 C771 1.386 . S
H769 C785 0.930 . S
H770 C786 0.931 . S
C771 H759 0.929 . S
C771 C765 1.390 . S
C771 C768 1.386 . S
C772 C767 1.490 1_554 S
C772 C774 1.395 . S
C772 C775 1.403 . S
H773 C779 0.930 . S
C774 H760 0.930 1_554 S
C774 C772 1.395 . S
C774 C777 1.403 . S
C775 C772 1.403 . S
C775 C776 1.524 . S
C775 C779 1.400 . S
C776 H761 0.960 . S
C776 H762 0.960 . S
C776 H763 0.960 . S
C776 C775 1.524 . S
C777 C774 1.403 . S
C777 C778 1.392 . S
C777 C781 1.495 . S
C778 C777 1.392 . S
C778 C779 1.385 . S
C778 C780 1.478 . S
C779 H773 0.930 . S
C779 C775 1.400 . S
C779 C778 1.385 . S
C780 C778 1.478 . S
C780 C782 1.381 . S
C780 C786 1.383 . S
C781 C777 1.495 . S
C781 H787 0.959 . S
C781 H788 0.961 . S
C781 H789 0.960 . S
C782 C780 1.381 . S
C782 C783 1.394 . S
C782 H790 0.930 . S
C783 C782 1.394 . S
C783 C784 1.383 . S
C783 H791 0.929 . S
C784 C783 1.383 . S
C784 C785 1.377 . S
C785 H769 0.930 . S
C785 C784 1.377 . S
C785 C786 1.379 . S
C786 H770 0.931 . S
C786 C780 1.383 . S
C786 C785 1.379 . S
H787 C781 0.959 . S
H788 C781 0.961 . S
H789 C781 0.960 . S
H790 C782 0.930 . S
H791 C783 0.929 . S
H792 C800 0.929 . S
H793 C802 0.930 . S
H794 C804 0.930 . S
H795 C807 0.929 . S
H796 C810 0.930 . S
H797 C812 0.960 . S
H798 C812 0.960 . S
H799 C812 0.960 . S
C800 H792 0.929 . S
C800 C801 1.377 . S
C800 C802 1.384 . S
C801 C800 1.377 . S
C801 C807 1.390 . S
C802 H793 0.930 . S
C802 C800 1.384 . S
C802 C803 1.372 . S
C803 C802 1.372 . S
C803 C804 1.400 . S
C803 C808 1.490 . S
C804 H794 0.930 . S
C804 C803 1.400 . S
C804 C807 1.386 . S
H805 C821 0.930 . S
H806 C822 0.931 . S
C807 H795 0.929 . S
C807 C801 1.390 . S
C807 C804 1.386 . S
C808 C803 1.490 . S
C808 C810 1.395 . S
C808 C811 1.403 . S
H809 C815 0.930 . S
C810 H796 0.930 . S
C810 C808 1.395 . S
C810 C813 1.403 . S
C811 C808 1.403 . S
C811 C812 1.524 . S
C811 C815 1.400 . S
C812 H797 0.960 . S
C812 H798 0.960 . S
C812 H799 0.960 . S
C812 C811 1.524 . S
C813 C810 1.403 . S
C813 C814 1.392 . S
C813 C817 1.495 . S
C814 C813 1.392 . S
C814 C815 1.385 . S
C814 C816 1.478 . S
C815 H809 0.930 . S
C815 C811 1.400 . S
C815 C814 1.385 . S
C816 C814 1.478 . S
C816 C818 1.381 . S
C816 C822 1.383 . S
C817 C813 1.495 . S
C817 H823 0.959 . S
C817 H824 0.961 . S
C817 H825 0.960 . S
C818 C816 1.381 . S
C818 C819 1.394 . S
C818 H826 0.930 . S
C819 C818 1.394 . S
C819 C820 1.383 . S
C819 H827 0.929 . S
C820 C819 1.383 . S
C820 C821 1.377 . S
C821 H805 0.930 . S
C821 C820 1.377 . S
C821 C822 1.379 . S
C822 H806 0.931 . S
C822 C816 1.383 . S
C822 C821 1.379 . S
H823 C817 0.959 . S
H824 C817 0.961 . S
H825 C817 0.960 . S
H826 C818 0.930 . S
H827 C819 0.929 . S
H828 C836 0.929 . S
H829 C838 0.930 . S
H830 C840 0.930 . S
H831 C843 0.929 . S
H832 C846 0.930 . S
H833 C848 0.960 . S
H834 C848 0.960 . S
H835 C848 0.960 . S
C836 H828 0.929 . S
C836 C837 1.377 . S
C836 C838 1.384 . S
C837 C836 1.377 . S
C837 C843 1.390 . S
C838 H829 0.930 . S
C838 C836 1.384 . S
C838 C839 1.372 . S
C839 C838 1.372 . S
C839 C840 1.400 . S
C839 C844 1.490 . S
C840 H830 0.930 . S
C840 C839 1.400 . S
C840 C843 1.386 . S
H841 C857 0.930 . S
H842 C858 0.931 . S
C843 H831 0.929 . S
C843 C837 1.390 . S
C843 C840 1.386 . S
C844 C839 1.490 . S
C844 C846 1.395 . S
C844 C847 1.403 . S
H845 C851 0.930 . S
C846 H832 0.930 . S
C846 C844 1.395 . S
C846 C849 1.403 . S
C847 C844 1.403 . S
C847 C848 1.524 . S
C847 C851 1.400 . S
C848 H833 0.960 . S
C848 H834 0.960 . S
C848 H835 0.960 . S
C848 C847 1.524 . S
C849 C846 1.403 . S
C849 C850 1.392 . S
C849 C853 1.495 . S
C850 C849 1.392 . S
C850 C851 1.385 . S
C850 C852 1.478 . S
C851 H845 0.930 . S
C851 C847 1.400 . S
C851 C850 1.385 . S
C852 C850 1.478 . S
C852 C854 1.381 . S
C852 C858 1.383 . S
C853 C849 1.495 . S
C853 H859 0.959 . S
C853 H860 0.961 . S
C853 H861 0.960 . S
C854 C852 1.381 . S
C854 C855 1.394 . S
C854 H862 0.930 . S
C855 C854 1.394 . S
C855 C856 1.383 . S
C855 H863 0.929 . S
C856 C855 1.383 . S
C856 C857 1.377 . S
C857 H841 0.930 . S
C857 C856 1.377 . S
C857 C858 1.379 . S
C858 H842 0.931 . S
C858 C852 1.383 . S
C858 C857 1.379 . S
H859 C853 0.959 . S
H860 C853 0.961 . S
H861 C853 0.960 . S
H862 C854 0.930 . S
H863 C855 0.929 . S
H864 C872 0.929 . S
H865 C874 0.930 . S
H866 C876 0.930 . S
H867 C879 0.929 . S
H868 C882 0.930 . S
H869 C884 0.960 . S
H870 C884 0.960 . S
H871 C884 0.960 . S
C872 H864 0.929 . S
C872 C873 1.377 . S
C872 C874 1.384 . S
C873 C872 1.377 . S
C873 C879 1.390 . S
C874 H865 0.930 . S
C874 C872 1.384 . S
C874 C875 1.372 . S
C875 C874 1.372 . S
C875 C876 1.400 . S
C875 C880 1.490 . S
C876 H866 0.930 . S
C876 C875 1.400 . S
C876 C879 1.386 . S
H877 C893 0.930 . S
H878 C894 0.931 . S
C879 H867 0.929 . S
C879 C873 1.390 . S
C879 C876 1.386 . S
C880 C875 1.490 . S
C880 C882 1.395 . S
C880 C883 1.403 . S
H881 C887 0.930 . S
C882 H868 0.930 . S
C882 C880 1.395 . S
C882 C885 1.403 . S
C883 C880 1.403 . S
C883 C884 1.524 . S
C883 C887 1.400 . S
C884 H869 0.960 . S
C884 H870 0.960 . S
C884 H871 0.960 . S
C884 C883 1.524 . S
C885 C882 1.403 . S
C885 C886 1.392 . S
C885 C889 1.495 . S
C886 C885 1.392 . S
C886 C887 1.385 . S
C886 C888 1.478 . S
C887 H881 0.930 . S
C887 C883 1.400 . S
C887 C886 1.385 . S
C888 C886 1.478 . S
C888 C890 1.381 . S
C888 C894 1.383 . S
C889 C885 1.495 . S
C889 H895 0.959 . S
C889 H896 0.961 . S
C889 H897 0.960 . S
C890 C888 1.381 . S
C890 C891 1.394 . S
C890 H898 0.930 . S
C891 C890 1.394 . S
C891 C892 1.383 . S
C891 H899 0.929 . S
C892 C891 1.383 . S
C892 C893 1.377 . S
C893 H877 0.930 . S
C893 C892 1.377 . S
C893 C894 1.379 . S
C894 H878 0.931 . S
C894 C888 1.383 . S
C894 C893 1.379 . S
H895 C889 0.959 . S
H896 C889 0.961 . S
H897 C889 0.960 . S
H898 C890 0.930 . S
H899 C891 0.929 . S
H900 C908 0.929 . S
H901 C910 0.930 . S
H902 C912 0.930 . S
H903 C915 0.929 . S
H904 C918 0.930 . S
H905 C920 0.960 . S
H906 C920 0.960 . S
H907 C920 0.960 . S
C908 H900 0.929 . S
C908 C909 1.377 . S
C908 C910 1.384 . S
C909 C908 1.377 . S
C909 C915 1.390 . S
C910 H901 0.930 . S
C910 C908 1.384 . S
C910 C911 1.372 . S
C911 C910 1.372 . S
C911 C912 1.400 . S
C911 C916 1.490 . S
C912 H902 0.930 . S
C912 C911 1.400 . S
C912 C915 1.386 . S
H913 C929 0.930 . S
H914 C930 0.931 . S
C915 H903 0.929 . S
C915 C909 1.390 . S
C915 C912 1.386 . S
C916 C911 1.490 . S
C916 C918 1.395 . S
C916 C919 1.403 . S
H917 C923 0.930 . S
C918 H904 0.930 . S
C918 C916 1.395 . S
C918 C921 1.403 . S
C919 C916 1.403 . S
C919 C920 1.524 . S
C919 C923 1.400 . S
C920 H905 0.960 . S
C920 H906 0.960 . S
C920 H907 0.960 . S
C920 C919 1.524 . S
C921 C918 1.403 . S
C921 C922 1.392 . S
C921 C925 1.495 . S
C922 C921 1.392 . S
C922 C923 1.385 . S
C922 C924 1.478 . S
C923 H917 0.930 . S
C923 C919 1.400 . S
C923 C922 1.385 . S
C924 C922 1.478 . S
C924 C926 1.381 . S
C924 C930 1.383 . S
C925 C921 1.495 . S
C925 H931 0.959 . S
C925 H932 0.961 . S
C925 H933 0.960 . S
C926 C924 1.381 . S
C926 C927 1.394 . S
C926 H934 0.930 . S
C927 C926 1.394 . S
C927 C928 1.383 . S
C927 H935 0.929 . S
C928 C927 1.383 . S
C928 C929 1.377 . S
C929 H913 0.930 . S
C929 C928 1.377 . S
C929 C930 1.379 . S
C930 H914 0.931 . S
C930 C924 1.383 . S
C930 C929 1.379 . S
H931 C925 0.959 . S
H932 C925 0.961 . S
H933 C925 0.960 . S
H934 C926 0.930 . S
H935 C927 0.929 . S
H936 C944 0.929 . S
H937 C946 0.930 . S
H938 C948 0.930 . S
H939 C951 0.929 . S
H940 C954 0.930 . S
H941 C956 0.960 . S
H942 C956 0.960 . S
H943 C956 0.960 . S
C944 H936 0.929 . S
C944 C945 1.377 . S
C944 C946 1.384 . S
C945 C944 1.377 . S
C945 C951 1.390 . S
C946 H937 0.930 . S
C946 C944 1.384 . S
C946 C947 1.372 . S
C947 C946 1.372 . S
C947 C948 1.400 . S
C947 C952 1.490 . S
C948 H938 0.930 . S
C948 C947 1.400 . S
C948 C951 1.386 . S
H949 C965 0.930 . S
H950 C966 0.931 . S
C951 H939 0.929 . S
C951 C945 1.390 . S
C951 C948 1.386 . S
C952 C947 1.490 . S
C952 C954 1.395 . S
C952 C955 1.403 . S
H953 C959 0.930 . S
C954 H940 0.930 . S
C954 C952 1.395 . S
C954 C957 1.403 . S
C955 C952 1.403 . S
C955 C956 1.524 . S
C955 C959 1.400 . S
C956 H941 0.960 . S
C956 H942 0.960 . S
C956 H943 0.960 . S
C956 C955 1.524 . S
C957 C954 1.403 . S
C957 C958 1.392 . S
C957 C961 1.495 . S
C958 C957 1.392 . S
C958 C959 1.385 . S
C958 C960 1.478 . S
C959 H953 0.930 . S
C959 C955 1.400 . S
C959 C958 1.385 . S
C960 C958 1.478 . S
C960 C962 1.381 . S
C960 C966 1.383 . S
C961 C957 1.495 . S
C961 H967 0.959 . S
C961 H968 0.961 . S
C961 H969 0.960 . S
C962 C960 1.381 . S
C962 C963 1.394 . S
C962 H970 0.930 . S
C963 C962 1.394 . S
C963 C964 1.383 . S
C963 H971 0.929 . S
C964 C963 1.383 . S
C964 C965 1.377 . S
C965 H949 0.930 . S
C965 C964 1.377 . S
C965 C966 1.379 . S
C966 H950 0.931 . S
C966 C960 1.383 . S
C966 C965 1.379 . S
H967 C961 0.959 . S
H968 C961 0.961 . S
H969 C961 0.960 . S
H970 C962 0.930 . S
H971 C963 0.929 . S
H972 C980 0.929 . S
H973 C982 0.930 . S
H974 C984 0.930 . S
H975 C987 0.929 . S
H976 C990 0.930 . S
H977 C992 0.960 . S
H978 C992 0.960 . S
H979 C992 0.960 . S
C980 H972 0.929 . S
C980 C981 1.377 . S
C980 C982 1.384 . S
C981 C980 1.377 . S
C981 C987 1.390 . S
C982 H973 0.930 . S
C982 C980 1.384 . S
C982 C983 1.372 . S
C983 C982 1.372 . S
C983 C984 1.400 . S
C983 C988 1.490 . S
C984 H974 0.930 . S
C984 C983 1.400 . S
C984 C987 1.386 . S
H985 C1001 0.930 . S
H986 C1002 0.931 . S
C987 H975 0.929 . S
C987 C981 1.390 . S
C987 C984 1.386 . S
C988 C983 1.490 . S
C988 C990 1.395 . S
C988 C991 1.403 . S
H989 C995 0.930 . S
C990 H976 0.930 . S
C990 C988 1.395 . S
C990 C993 1.403 . S
C991 C988 1.403 . S
C991 C992 1.524 . S
C991 C995 1.400 . S
C992 H977 0.960 . S
C992 H978 0.960 . S
C992 H979 0.960 . S
C992 C991 1.524 . S
C993 C990 1.403 . S
C993 C994 1.392 . S
C993 C997 1.495 . S
C994 C993 1.392 . S
C994 C995 1.385 . S
C994 C996 1.478 . S
C995 H989 0.930 . S
C995 C991 1.400 . S
C995 C994 1.385 . S
C996 C994 1.478 . S
C996 C998 1.381 . S
C996 C1002 1.383 . S
C997 C993 1.495 . S
C997 H1003 0.959 . S
C997 H1004 0.961 . S
C997 H1005 0.960 . S
C998 C996 1.381 . S
C998 C999 1.394 . S
C998 H1006 0.930 . S
C999 C998 1.394 . S
C999 C1000 1.383 . S
C999 H1007 0.929 . S
C1000 C999 1.383 . S
C1000 C1001 1.377 . S
C1001 H985 0.930 . S
C1001 C1000 1.377 . S
C1001 C1002 1.379 . S
C1002 H986 0.931 . S
C1002 C996 1.383 . S
C1002 C1001 1.379 . S
H1003 C997 0.959 . S
H1004 C997 0.961 . S
H1005 C997 0.960 . S
H1006 C998 0.930 . S
H1007 C999 0.929 . S
H1008 C1016 0.929 . S
H1009 C1018 0.930 . S
H1010 C1020 0.930 . S
H1011 C1023 0.929 . S
H1012 C1026 0.930 . S
H1013 C1028 0.960 . S
H1014 C1028 0.960 . S
H1015 C1028 0.960 . S
C1016 H1008 0.929 . S
C1016 C1017 1.377 . S
C1016 C1018 1.384 . S
C1017 C1016 1.377 . S
C1017 C1023 1.390 . S
C1018 H1009 0.930 . S
C1018 C1016 1.384 . S
C1018 C1019 1.372 . S
C1019 C1018 1.372 . S
C1019 C1020 1.400 . S
C1019 C1024 1.490 . S
C1020 H1010 0.930 . S
C1020 C1019 1.400 . S
C1020 C1023 1.386 . S
H1021 C1037 0.930 . S
H1022 C1038 0.931 . S
C1023 H1011 0.929 . S
C1023 C1017 1.390 . S
C1023 C1020 1.386 . S
C1024 C1019 1.490 . S
C1024 C1026 1.395 . S
C1024 C1027 1.403 . S
H1025 C1031 0.930 . S
C1026 H1012 0.930 . S
C1026 C1024 1.395 . S
C1026 C1029 1.403 . S
C1027 C1024 1.403 . S
C1027 C1028 1.524 . S
C1027 C1031 1.400 . S
C1028 H1013 0.960 . S
C1028 H1014 0.960 . S
C1028 H1015 0.960 . S
C1028 C1027 1.524 . S
C1029 C1026 1.403 . S
C1029 C1030 1.392 . S
C1029 C1033 1.495 . S
C1030 C1029 1.392 . S
C1030 C1031 1.385 . S
C1030 C1032 1.478 . S
C1031 H1025 0.930 . S
C1031 C1027 1.400 . S
C1031 C1030 1.385 . S
C1032 C1030 1.478 . S
C1032 C1034 1.381 . S
C1032 C1038 1.383 . S
C1033 C1029 1.495 . S
C1033 H1039 0.959 . S
C1033 H1040 0.961 . S
C1033 H1041 0.960 . S
C1034 C1032 1.381 . S
C1034 C1035 1.394 1_556 S
C1034 H1042 0.930 . S
C1035 C1034 1.394 1_554 S
C1035 C1036 1.383 . S
C1035 H1043 0.929 . S
C1036 C1035 1.383 . S
C1036 C1037 1.377 . S
C1037 H1021 0.930 . S
C1037 C1036 1.377 . S
C1037 C1038 1.379 1_554 S
C1038 H1022 0.931 . S
C1038 C1032 1.383 . S
C1038 C1037 1.379 1_556 S
H1039 C1033 0.959 . S
H1040 C1033 0.961 . S
H1041 C1033 0.960 . S
H1042 C1034 0.930 . S
H1043 C1035 0.929 . S
H1044 C1052 0.929 . S
H1045 C1054 0.930 . S
H1046 C1056 0.930 . S
H1047 C1059 0.929 . S
H1048 C1062 0.930 . S
H1049 C1064 0.960 . S
H1050 C1064 0.960 . S
H1051 C1064 0.960 . S
C1052 H1044 0.929 . S
C1052 C1053 1.377 . S
C1052 C1054 1.384 . S
C1053 C1052 1.377 . S
C1053 C1059 1.390 . S
C1054 H1045 0.930 . S
C1054 C1052 1.384 . S
C1054 C1055 1.372 . S
C1055 C1054 1.372 . S
C1055 C1056 1.400 . S
C1055 C1060 1.490 . S
C1056 H1046 0.930 . S
C1056 C1055 1.400 . S
C1056 C1059 1.386 . S
H1057 C1073 0.930 . S
H1058 C1074 0.931 . S
C1059 H1047 0.929 . S
C1059 C1053 1.390 . S
C1059 C1056 1.386 . S
C1060 C1055 1.490 . S
C1060 C1062 1.395 . S
C1060 C1063 1.403 . S
H1061 C1067 0.930 . S
C1062 H1048 0.930 . S
C1062 C1060 1.395 . S
C1062 C1065 1.403 . S
C1063 C1060 1.403 . S
C1063 C1064 1.524 . S
C1063 C1067 1.400 . S
C1064 H1049 0.960 . S
C1064 H1050 0.960 . S
C1064 H1051 0.960 . S
C1064 C1063 1.524 . S
C1065 C1062 1.403 . S
C1065 C1066 1.392 . S
C1065 C1069 1.495 . S
C1066 C1065 1.392 . S
C1066 C1067 1.385 . S
C1066 C1068 1.478 . S
C1067 H1061 0.930 . S
C1067 C1063 1.400 . S
C1067 C1066 1.385 . S
C1068 C1066 1.478 . S
C1068 C1070 1.381 . S
C1068 C1074 1.383 . S
C1069 C1065 1.495 . S
C1069 H1075 0.959 . S
C1069 H1076 0.961 . S
C1069 H1077 0.960 . S
C1070 C1068 1.381 . S
C1070 C1071 1.394 1_556 S
C1070 H1078 0.930 . S
C1071 C1070 1.394 1_554 S
C1071 C1072 1.383 . S
C1071 H1079 0.929 . S
C1072 C1071 1.383 . S
C1072 C1073 1.377 . S
C1073 H1057 0.930 . S
C1073 C1072 1.377 . S
C1073 C1074 1.379 1_554 S
C1074 H1058 0.931 . S
C1074 C1068 1.383 . S
C1074 C1073 1.379 1_556 S
H1075 C1069 0.959 . S
H1076 C1069 0.961 . S
H1077 C1069 0.960 . S
H1078 C1070 0.930 . S
H1079 C1071 0.929 . S
H1080 C1088 0.929 . S
H1081 C1090 0.930 . S
H1082 C1092 0.930 . S
H1083 C1095 0.929 . S
H1084 C1098 0.930 . S
H1085 C1100 0.960 . S
H1086 C1100 0.960 . S
H1087 C1100 0.960 . S
C1088 H1080 0.929 . S
C1088 C1089 1.377 . S
C1088 C1090 1.384 . S
C1089 C1088 1.377 . S
C1089 C1095 1.390 . S
C1090 H1081 0.930 . S
C1090 C1088 1.384 . S
C1090 C1091 1.372 . S
C1091 C1090 1.372 . S
C1091 C1092 1.400 . S
C1091 C1096 1.490 . S
C1092 H1082 0.930 . S
C1092 C1091 1.400 . S
C1092 C1095 1.386 . S
H1093 C1109 0.930 . S
H1094 C1110 0.931 . S
C1095 H1083 0.929 . S
C1095 C1089 1.390 . S
C1095 C1092 1.386 . S
C1096 C1091 1.490 . S
C1096 C1098 1.395 . S
C1096 C1099 1.403 . S
H1097 C1103 0.930 . S
C1098 H1084 0.930 . S
C1098 C1096 1.395 . S
C1098 C1101 1.403 . S
C1099 C1096 1.403 . S
C1099 C1100 1.524 . S
C1099 C1103 1.400 . S
C1100 H1085 0.960 . S
C1100 H1086 0.960 . S
C1100 H1087 0.960 . S
C1100 C1099 1.524 . S
C1101 C1098 1.403 . S
C1101 C1102 1.392 . S
C1101 C1105 1.495 . S
C1102 C1101 1.392 . S
C1102 C1103 1.385 . S
C1102 C1104 1.478 . S
C1103 H1097 0.930 . S
C1103 C1099 1.400 . S
C1103 C1102 1.385 . S
C1104 C1102 1.478 . S
C1104 C1106 1.381 . S
C1104 C1110 1.383 . S
C1105 C1101 1.495 . S
C1105 H1111 0.959 . S
C1105 H1112 0.961 . S
C1105 H1113 0.960 . S
C1106 C1104 1.381 . S
C1106 C1107 1.394 1_556 S
C1106 H1114 0.930 . S
C1107 C1106 1.394 1_554 S
C1107 C1108 1.383 . S
C1107 H1115 0.929 . S
C1108 C1107 1.383 . S
C1108 C1109 1.377 . S
C1109 H1093 0.930 . S
C1109 C1108 1.377 . S
C1109 C1110 1.379 1_554 S
C1110 H1094 0.931 . S
C1110 C1104 1.383 . S
C1110 C1109 1.379 1_556 S
H1111 C1105 0.959 . S
H1112 C1105 0.961 . S
H1113 C1105 0.960 . S
H1114 C1106 0.930 . S
H1115 C1107 0.929 . S
H1116 C1124 0.929 . S
H1117 C1126 0.930 . S
H1118 C1128 0.930 . S
H1119 C1131 0.929 . S
H1120 C1134 0.930 . S
H1121 C1136 0.960 . S
H1122 C1136 0.960 . S
H1123 C1136 0.960 . S
C1124 H1116 0.929 . S
C1124 C1125 1.377 . S
C1124 C1126 1.384 . S
C1125 C1124 1.377 . S
C1125 C1131 1.390 . S
C1126 H1117 0.930 . S
C1126 C1124 1.384 . S
C1126 C1127 1.372 . S
C1127 C1126 1.372 . S
C1127 C1128 1.400 . S
C1127 C1132 1.490 . S
C1128 H1118 0.930 . S
C1128 C1127 1.400 . S
C1128 C1131 1.386 . S
H1129 C1145 0.930 . S
H1130 C1146 0.931 . S
C1131 H1119 0.929 . S
C1131 C1125 1.390 . S
C1131 C1128 1.386 . S
C1132 C1127 1.490 . S
C1132 C1134 1.395 . S
C1132 C1135 1.403 . S
H1133 C1139 0.930 . S
C1134 H1120 0.930 . S
C1134 C1132 1.395 . S
C1134 C1137 1.403 . S
C1135 C1132 1.403 . S
C1135 C1136 1.524 . S
C1135 C1139 1.400 . S
C1136 H1121 0.960 . S
C1136 H1122 0.960 . S
C1136 H1123 0.960 . S
C1136 C1135 1.524 . S
C1137 C1134 1.403 . S
C1137 C1138 1.392 . S
C1137 C1141 1.495 . S
C1138 C1137 1.392 . S
C1138 C1139 1.385 . S
C1138 C1140 1.478 . S
C1139 H1133 0.930 . S
C1139 C1135 1.400 . S
C1139 C1138 1.385 . S
C1140 C1138 1.478 . S
C1140 C1142 1.381 . S
C1140 C1146 1.383 . S
C1141 C1137 1.495 . S
C1141 H1147 0.959 . S
C1141 H1148 0.961 . S
C1141 H1149 0.960 . S
C1142 C1140 1.381 . S
C1142 C1143 1.394 . S
C1142 H1150 0.930 . S
C1143 C1142 1.394 . S
C1143 C1144 1.383 . S
C1143 H1151 0.929 . S
C1144 C1143 1.383 . S
C1144 C1145 1.377 . S
C1145 H1129 0.930 . S
C1145 C1144 1.377 . S
C1145 C1146 1.379 . S
C1146 H1130 0.931 . S
C1146 C1140 1.383 . S
C1146 C1145 1.379 . S
H1147 C1141 0.959 . S
H1148 C1141 0.961 . S
H1149 C1141 0.960 . S
H1150 C1142 0.930 . S
H1151 C1143 0.929 . S
H1152 C1160 0.929 . S
H1153 C1162 0.930 . S
H1154 C1164 0.930 . S
H1155 C1167 0.929 . S
H1156 C1170 0.930 . S
H1157 C1172 0.960 . S
H1158 C1172 0.960 . S
H1159 C1172 0.960 . S
C1160 H1152 0.929 . S
C1160 C1161 1.377 . S
C1160 C1162 1.384 . S
C1161 C1160 1.377 . S
C1161 C1167 1.390 . S
C1162 H1153 0.930 . S
C1162 C1160 1.384 . S
C1162 C1163 1.372 . S
C1163 C1162 1.372 . S
C1163 C1164 1.400 . S
C1163 C1168 1.490 . S
C1164 H1154 0.930 . S
C1164 C1163 1.400 . S
C1164 C1167 1.386 . S
H1165 C1181 0.930 . S
H1166 C1182 0.931 . S
C1167 H1155 0.929 . S
C1167 C1161 1.390 . S
C1167 C1164 1.386 . S
C1168 C1163 1.490 . S
C1168 C1170 1.395 . S
C1168 C1171 1.403 . S
H1169 C1175 0.930 . S
C1170 H1156 0.930 . S
C1170 C1168 1.395 . S
C1170 C1173 1.403 . S
C1171 C1168 1.403 . S
C1171 C1172 1.524 . S
C1171 C1175 1.400 . S
C1172 H1157 0.960 . S
C1172 H1158 0.960 . S
C1172 H1159 0.960 . S
C1172 C1171 1.524 . S
C1173 C1170 1.403 . S
C1173 C1174 1.392 . S
C1173 C1177 1.495 . S
C1174 C1173 1.392 . S
C1174 C1175 1.385 . S
C1174 C1176 1.478 . S
C1175 H1169 0.930 . S
C1175 C1171 1.400 . S
C1175 C1174 1.385 . S
C1176 C1174 1.478 . S
C1176 C1178 1.381 . S
C1176 C1182 1.383 . S
C1177 C1173 1.495 . S
C1177 H1183 0.959 . S
C1177 H1184 0.961 . S
C1177 H1185 0.960 . S
C1178 C1176 1.381 . S
C1178 C1179 1.394 . S
C1178 H1186 0.930 . S
C1179 C1178 1.394 . S
C1179 C1180 1.383 . S
C1179 H1187 0.929 . S
C1180 C1179 1.383 . S
C1180 C1181 1.377 . S
C1181 H1165 0.930 . S
C1181 C1180 1.377 . S
C1181 C1182 1.379 . S
C1182 H1166 0.931 . S
C1182 C1176 1.383 . S
C1182 C1181 1.379 . S
H1183 C1177 0.959 . S
H1184 C1177 0.961 . S
H1185 C1177 0.960 . S
H1186 C1178 0.930 . S
H1187 C1179 0.929 . S
H1188 C1196 0.929 . S
H1189 C1198 0.930 . S
H1190 C1200 0.930 . S
H1191 C1203 0.929 . S
H1192 C1206 0.930 . S
H1193 C1208 0.960 . S
H1194 C1208 0.960 . S
H1195 C1208 0.960 . S
C1196 H1188 0.929 . S
C1196 C1197 1.377 . S
C1196 C1198 1.384 . S
C1197 C1196 1.377 . S
C1197 C1203 1.390 . S
C1198 H1189 0.930 . S
C1198 C1196 1.384 . S
C1198 C1199 1.372 . S
C1199 C1198 1.372 . S
C1199 C1200 1.400 . S
C1199 C1204 1.490 . S
C1200 H1190 0.930 . S
C1200 C1199 1.400 . S
C1200 C1203 1.386 . S
H1201 C1217 0.930 . S
H1202 C1218 0.931 . S
C1203 H1191 0.929 . S
C1203 C1197 1.390 . S
C1203 C1200 1.386 . S
C1204 C1199 1.490 . S
C1204 C1206 1.395 . S
C1204 C1207 1.403 . S
H1205 C1211 0.930 . S
C1206 H1192 0.930 . S
C1206 C1204 1.395 . S
C1206 C1209 1.403 . S
C1207 C1204 1.403 . S
C1207 C1208 1.524 . S
C1207 C1211 1.400 . S
C1208 H1193 0.960 . S
C1208 H1194 0.960 . S
C1208 H1195 0.960 . S
C1208 C1207 1.524 . S
C1209 C1206 1.403 . S
C1209 C1210 1.392 . S
C1209 C1213 1.495 . S
C1210 C1209 1.392 . S
C1210 C1211 1.385 . S
C1210 C1212 1.478 . S
C1211 H1205 0.930 . S
C1211 C1207 1.400 . S
C1211 C1210 1.385 . S
C1212 C1210 1.478 . S
C1212 C1214 1.381 . S
C1212 C1218 1.383 . S
C1213 C1209 1.495 . S
C1213 H1219 0.959 . S
C1213 H1220 0.961 . S
C1213 H1221 0.960 . S
C1214 C1212 1.381 . S
C1214 C1215 1.394 . S
C1214 H1222 0.930 . S
C1215 C1214 1.394 . S
C1215 C1216 1.383 . S
C1215 H1223 0.929 . S
C1216 C1215 1.383 . S
C1216 C1217 1.377 . S
C1217 H1201 0.930 . S
C1217 C1216 1.377 . S
C1217 C1218 1.379 . S
C1218 H1202 0.931 . S
C1218 C1212 1.383 . S
C1218 C1217 1.379 . S
H1219 C1213 0.959 . S
H1220 C1213 0.961 . S
H1221 C1213 0.960 . S
H1222 C1214 0.930 . S
H1223 C1215 0.929 . S
H1224 C1232 0.929 . S
H1225 C1234 0.930 . S
H1226 C1236 0.930 . S
H1227 C1239 0.929 . S
H1228 C1242 0.930 . S
H1229 C1244 0.960 . S
H1230 C1244 0.960 . S
H1231 C1244 0.960 . S
C1232 H1224 0.929 . S
C1232 C1233 1.377 . S
C1232 C1234 1.384 . S
C1233 C1232 1.377 . S
C1233 C1239 1.390 . S
C1234 H1225 0.930 . S
C1234 C1232 1.384 . S
C1234 C1235 1.372 . S
C1235 C1234 1.372 . S
C1235 C1236 1.400 . S
C1235 C1240 1.490 . S
C1236 H1226 0.930 . S
C1236 C1235 1.400 . S
C1236 C1239 1.386 . S
H1237 C1253 0.930 . S
H1238 C1254 0.931 . S
C1239 H1227 0.929 . S
C1239 C1233 1.390 . S
C1239 C1236 1.386 . S
C1240 C1235 1.490 . S
C1240 C1242 1.395 . S
C1240 C1243 1.403 . S
H1241 C1247 0.930 . S
C1242 H1228 0.930 . S
C1242 C1240 1.395 . S
C1242 C1245 1.403 . S
C1243 C1240 1.403 . S
C1243 C1244 1.524 . S
C1243 C1247 1.400 . S
C1244 H1229 0.960 . S
C1244 H1230 0.960 . S
C1244 H1231 0.960 . S
C1244 C1243 1.524 . S
C1245 C1242 1.403 . S
C1245 C1246 1.392 . S
C1245 C1249 1.495 . S
C1246 C1245 1.392 . S
C1246 C1247 1.385 . S
C1246 C1248 1.478 . S
C1247 H1241 0.930 . S
C1247 C1243 1.400 . S
C1247 C1246 1.385 . S
C1248 C1246 1.478 . S
C1248 C1250 1.381 . S
C1248 C1254 1.383 . S
C1249 C1245 1.495 . S
C1249 H1255 0.959 . S
C1249 H1256 0.961 . S
C1249 H1257 0.960 . S
C1250 C1248 1.381 . S
C1250 C1251 1.394 . S
C1250 H1258 0.930 . S
C1251 C1250 1.394 . S
C1251 C1252 1.383 . S
C1251 H1259 0.929 . S
C1252 C1251 1.383 . S
C1252 C1253 1.377 . S
C1253 H1237 0.930 . S
C1253 C1252 1.377 . S
C1253 C1254 1.379 . S
C1254 H1238 0.931 . S
C1254 C1248 1.383 . S
C1254 C1253 1.379 . S
H1255 C1249 0.959 . S
H1256 C1249 0.961 . S
H1257 C1249 0.960 . S
H1258 C1250 0.930 . S
H1259 C1251 0.929 . S
H1260 C1268 0.929 . S
H1261 C1270 0.930 . S
H1262 C1272 0.930 . S
H1263 C1275 0.929 . S
H1264 C1278 0.930 . S
H1265 C1280 0.960 . S
H1266 C1280 0.960 . S
H1267 C1280 0.960 . S
C1268 H1260 0.929 . S
C1268 C1269 1.377 . S
C1268 C1270 1.384 . S
C1269 C1268 1.377 . S
C1269 C1275 1.390 . S
C1270 H1261 0.930 . S
C1270 C1268 1.384 . S
C1270 C1271 1.372 . S
C1271 C1270 1.372 . S
C1271 C1272 1.400 . S
C1271 C1276 1.490 . S
C1272 H1262 0.930 . S
C1272 C1271 1.400 . S
C1272 C1275 1.386 . S
H1273 C1289 0.930 . S
H1274 C1290 0.931 . S
C1275 H1263 0.929 . S
C1275 C1269 1.390 . S
C1275 C1272 1.386 . S
C1276 C1271 1.490 . S
C1276 C1278 1.395 . S
C1276 C1279 1.403 . S
H1277 C1283 0.930 . S
C1278 H1264 0.930 . S
C1278 C1276 1.395 . S
C1278 C1281 1.403 . S
C1279 C1276 1.403 . S
C1279 C1280 1.524 . S
C1279 C1283 1.400 . S
C1280 H1265 0.960 . S
C1280 H1266 0.960 . S
C1280 H1267 0.960 . S
C1280 C1279 1.524 . S
C1281 C1278 1.403 . S
C1281 C1282 1.392 . S
C1281 C1285 1.495 . S
C1282 C1281 1.392 . S
C1282 C1283 1.385 . S
C1282 C1284 1.478 . S
C1283 H1277 0.930 . S
C1283 C1279 1.400 . S
C1283 C1282 1.385 . S
C1284 C1282 1.478 . S
C1284 C1286 1.381 . S
C1284 C1290 1.383 . S
C1285 C1281 1.495 . S
C1285 H1291 0.959 . S
C1285 H1292 0.961 . S
C1285 H1293 0.960 . S
C1286 C1284 1.381 . S
C1286 C1287 1.394 . S
C1286 H1294 0.930 . S
C1287 C1286 1.394 . S
C1287 C1288 1.383 . S
C1287 H1295 0.929 . S
C1288 C1287 1.383 . S
C1288 C1289 1.377 . S
C1289 H1273 0.930 . S
C1289 C1288 1.377 . S
C1289 C1290 1.379 . S
C1290 H1274 0.931 . S
C1290 C1284 1.383 . S
C1290 C1289 1.379 . S
H1291 C1285 0.959 . S
H1292 C1285 0.961 . S
H1293 C1285 0.960 . S
H1294 C1286 0.930 . S
H1295 C1287 0.929 . S
H1296 C1304 0.929 . S
H1297 C1306 0.930 . S
H1298 C1308 0.930 . S
H1299 C1311 0.929 . S
H1300 C1314 0.930 . S
H1301 C1316 0.960 . S
H1302 C1316 0.960 . S
H1303 C1316 0.960 . S
C1304 H1296 0.929 . S
C1304 C1305 1.377 . S
C1304 C1306 1.384 . S
C1305 C1304 1.377 . S
C1305 C1311 1.390 . S
C1306 H1297 0.930 . S
C1306 C1304 1.384 . S
C1306 C1307 1.372 . S
C1307 C1306 1.372 . S
C1307 C1308 1.400 . S
C1307 C1312 1.490 . S
C1308 H1298 0.930 . S
C1308 C1307 1.400 . S
C1308 C1311 1.386 . S
H1309 C1325 0.930 . S
H1310 C1326 0.931 . S
C1311 H1299 0.929 . S
C1311 C1305 1.390 . S
C1311 C1308 1.386 . S
C1312 C1307 1.490 . S
C1312 C1314 1.395 . S
C1312 C1315 1.403 . S
H1313 C1319 0.930 . S
C1314 H1300 0.930 . S
C1314 C1312 1.395 . S
C1314 C1317 1.403 . S
C1315 C1312 1.403 . S
C1315 C1316 1.524 . S
C1315 C1319 1.400 . S
C1316 H1301 0.960 . S
C1316 H1302 0.960 . S
C1316 H1303 0.960 . S
C1316 C1315 1.524 . S
C1317 C1314 1.403 . S
C1317 C1318 1.392 . S
C1317 C1321 1.495 . S
C1318 C1317 1.392 . S
C1318 C1319 1.385 . S
C1318 C1320 1.478 . S
C1319 H1313 0.930 . S
C1319 C1315 1.400 . S
C1319 C1318 1.385 . S
C1320 C1318 1.478 . S
C1320 C1322 1.381 . S
C1320 C1326 1.383 . S
C1321 C1317 1.495 . S
C1321 H1327 0.959 . S
C1321 H1328 0.961 . S
C1321 H1329 0.960 . S
C1322 C1320 1.381 . S
C1322 C1323 1.394 . S
C1322 H1330 0.930 . S
C1323 C1322 1.394 . S
C1323 C1324 1.383 . S
C1323 H1331 0.929 . S
C1324 C1323 1.383 . S
C1324 C1325 1.377 . S
C1325 H1309 0.930 . S
C1325 C1324 1.377 . S
C1325 C1326 1.379 . S
C1326 H1310 0.931 . S
C1326 C1320 1.383 . S
C1326 C1325 1.379 . S
H1327 C1321 0.959 . S
H1328 C1321 0.961 . S
H1329 C1321 0.960 . S
H1330 C1322 0.930 . S
H1331 C1323 0.929 . S
H1332 C1340 0.929 . S
H1333 C1342 0.930 . S
H1334 C1344 0.930 . S
H1335 C1347 0.929 . S
H1336 C1350 0.930 . S
H1337 C1352 0.960 . S
H1338 C1352 0.960 . S
H1339 C1352 0.960 . S
C1340 H1332 0.929 . S
C1340 C1341 1.377 . S
C1340 C1342 1.384 . S
C1341 C1340 1.377 . S
C1341 C1347 1.390 . S
C1342 H1333 0.930 . S
C1342 C1340 1.384 . S
C1342 C1343 1.372 . S
C1343 C1342 1.372 . S
C1343 C1344 1.400 . S
C1343 C1348 1.490 . S
C1344 H1334 0.930 . S
C1344 C1343 1.400 . S
C1344 C1347 1.386 . S
H1345 C1361 0.930 . S
H1346 C1362 0.931 . S
C1347 H1335 0.929 . S
C1347 C1341 1.390 . S
C1347 C1344 1.386 . S
C1348 C1343 1.490 . S
C1348 C1350 1.395 . S
C1348 C1351 1.403 . S
H1349 C1355 0.930 . S
C1350 H1336 0.930 . S
C1350 C1348 1.395 . S
C1350 C1353 1.403 . S
C1351 C1348 1.403 . S
C1351 C1352 1.524 . S
C1351 C1355 1.400 . S
C1352 H1337 0.960 . S
C1352 H1338 0.960 . S
C1352 H1339 0.960 . S
C1352 C1351 1.524 . S
C1353 C1350 1.403 . S
C1353 C1354 1.392 . S
C1353 C1357 1.495 . S
C1354 C1353 1.392 . S
C1354 C1355 1.385 . S
C1354 C1356 1.478 . S
C1355 H1349 0.930 . S
C1355 C1351 1.400 . S
C1355 C1354 1.385 . S
C1356 C1354 1.478 . S
C1356 C1358 1.381 . S
C1356 C1362 1.383 . S
C1357 C1353 1.495 . S
C1357 H1363 0.959 . S
C1357 H1364 0.961 . S
C1357 H1365 0.960 . S
C1358 C1356 1.381 . S
C1358 C1359 1.394 . S
C1358 H1366 0.930 . S
C1359 C1358 1.394 . S
C1359 C1360 1.383 . S
C1359 H1367 0.929 . S
C1360 C1359 1.383 . S
C1360 C1361 1.377 . S
C1361 H1345 0.930 . S
C1361 C1360 1.377 . S
C1361 C1362 1.379 . S
C1362 H1346 0.931 . S
C1362 C1356 1.383 . S
C1362 C1361 1.379 . S
H1363 C1357 0.959 . S
H1364 C1357 0.961 . S
H1365 C1357 0.960 . S
H1366 C1358 0.930 . S
H1367 C1359 0.929 . S
H1368 C1376 0.929 . S
H1369 C1378 0.930 . S
H1370 C1380 0.930 . S
H1371 C1383 0.929 . S
H1372 C1386 0.930 . S
H1373 C1388 0.960 . S
H1374 C1388 0.960 . S
H1375 C1388 0.960 . S
C1376 H1368 0.929 . S
C1376 C1377 1.377 . S
C1376 C1378 1.384 . S
C1377 C1376 1.377 . S
C1377 C1383 1.390 . S
C1378 H1369 0.930 . S
C1378 C1376 1.384 . S
C1378 C1379 1.372 . S
C1379 C1378 1.372 . S
C1379 C1380 1.400 . S
C1379 C1384 1.490 . S
C1380 H1370 0.930 . S
C1380 C1379 1.400 . S
C1380 C1383 1.386 . S
H1381 C1397 0.930 . S
H1382 C1398 0.931 . S
C1383 H1371 0.929 . S
C1383 C1377 1.390 . S
C1383 C1380 1.386 . S
C1384 C1379 1.490 . S
C1384 C1386 1.395 . S
C1384 C1387 1.403 . S
H1385 C1391 0.930 . S
C1386 H1372 0.930 . S
C1386 C1384 1.395 . S
C1386 C1389 1.403 . S
C1387 C1384 1.403 . S
C1387 C1388 1.524 . S
C1387 C1391 1.400 . S
C1388 H1373 0.960 . S
C1388 H1374 0.960 . S
C1388 H1375 0.960 . S
C1388 C1387 1.524 . S
C1389 C1386 1.403 . S
C1389 C1390 1.392 . S
C1389 C1393 1.495 . S
C1390 C1389 1.392 . S
C1390 C1391 1.385 . S
C1390 C1392 1.478 . S
C1391 H1385 0.930 . S
C1391 C1387 1.400 . S
C1391 C1390 1.385 . S
C1392 C1390 1.478 . S
C1392 C1394 1.381 . S
C1392 C1398 1.383 . S
C1393 C1389 1.495 . S
C1393 H1399 0.959 . S
C1393 H1400 0.961 . S
C1393 H1401 0.960 . S
C1394 C1392 1.381 . S
C1394 C1395 1.394 . S
C1394 H1402 0.930 . S
C1395 C1394 1.394 . S
C1395 C1396 1.383 . S
C1395 H1403 0.929 . S
C1396 C1395 1.383 . S
C1396 C1397 1.377 . S
C1397 H1381 0.930 . S
C1397 C1396 1.377 . S
C1397 C1398 1.379 . S
C1398 H1382 0.931 . S
C1398 C1392 1.383 . S
C1398 C1397 1.379 . S
H1399 C1393 0.959 . S
H1400 C1393 0.961 . S
H1401 C1393 0.960 . S
H1402 C1394 0.930 . S
H1403 C1395 0.929 . S
H1404 C1412 0.929 . S
H1405 C1414 0.930 . S
H1406 C1416 0.930 . S
H1407 C1419 0.929 . S
H1408 C1422 0.930 . S
H1409 C1424 0.960 . S
H1410 C1424 0.960 . S
H1411 C1424 0.960 . S
C1412 H1404 0.929 . S
C1412 C1413 1.377 . S
C1412 C1414 1.384 . S
C1413 C1412 1.377 . S
C1413 C1419 1.390 . S
C1414 H1405 0.930 . S
C1414 C1412 1.384 . S
C1414 C1415 1.372 . S
C1415 C1414 1.372 . S
C1415 C1416 1.400 . S
C1415 C1420 1.490 . S
C1416 H1406 0.930 . S
C1416 C1415 1.400 . S
C1416 C1419 1.386 . S
H1417 C1433 0.930 . S
H1418 C1434 0.931 . S
C1419 H1407 0.929 . S
C1419 C1413 1.390 . S
C1419 C1416 1.386 . S
C1420 C1415 1.490 . S
C1420 C1422 1.395 . S
C1420 C1423 1.403 . S
H1421 C1427 0.930 . S
C1422 H1408 0.930 . S
C1422 C1420 1.395 . S
C1422 C1425 1.403 . S
C1423 C1420 1.403 . S
C1423 C1424 1.524 . S
C1423 C1427 1.400 . S
C1424 H1409 0.960 . S
C1424 H1410 0.960 . S
C1424 H1411 0.960 . S
C1424 C1423 1.524 . S
C1425 C1422 1.403 . S
C1425 C1426 1.392 . S
C1425 C1429 1.495 . S
C1426 C1425 1.392 . S
C1426 C1427 1.385 . S
C1426 C1428 1.478 . S
C1427 H1421 0.930 . S
C1427 C1423 1.400 . S
C1427 C1426 1.385 . S
C1428 C1426 1.478 . S
C1428 C1430 1.381 . S
C1428 C1434 1.383 . S
C1429 C1425 1.495 . S
C1429 H1435 0.959 . S
C1429 H1436 0.961 . S
C1429 H1437 0.960 . S
C1430 C1428 1.381 . S
C1430 C1431 1.394 . S
C1430 H1438 0.930 . S
C1431 C1430 1.394 . S
C1431 C1432 1.383 . S
C1431 H1439 0.929 . S
C1432 C1431 1.383 . S
C1432 C1433 1.377 . S
C1433 H1417 0.930 . S
C1433 C1432 1.377 . S
C1433 C1434 1.379 . S
C1434 H1418 0.931 . S
C1434 C1428 1.383 . S
C1434 C1433 1.379 . S
H1435 C1429 0.959 . S
H1436 C1429 0.961 . S
H1437 C1429 0.960 . S
H1438 C1430 0.930 . S
H1439 C1431 0.929 . S
H1440 C1448 0.929 . S
H1441 C1450 0.930 . S
H1442 C1452 0.930 . S
H1443 C1455 0.929 . S
H1444 C1458 0.930 . S
H1445 C1460 0.960 . S
H1446 C1460 0.960 . S
H1447 C1460 0.960 . S
C1448 H1440 0.929 . S
C1448 C1449 1.377 . S
C1448 C1450 1.384 . S
C1449 C1448 1.377 . S
C1449 C1455 1.390 . S
C1450 H1441 0.930 . S
C1450 C1448 1.384 . S
C1450 C1451 1.372 . S
C1451 C1450 1.372 . S
C1451 C1452 1.400 . S
C1451 C1456 1.490 . S
C1452 H1442 0.930 . S
C1452 C1451 1.400 . S
C1452 C1455 1.386 . S
H1453 C1469 0.930 . S
H1454 C1470 0.931 . S
C1455 H1443 0.929 . S
C1455 C1449 1.390 . S
C1455 C1452 1.386 . S
C1456 C1451 1.490 . S
C1456 C1458 1.395 . S
C1456 C1459 1.403 . S
H1457 C1463 0.930 . S
C1458 H1444 0.930 . S
C1458 C1456 1.395 . S
C1458 C1461 1.403 . S
C1459 C1456 1.403 . S
C1459 C1460 1.524 . S
C1459 C1463 1.400 . S
C1460 H1445 0.960 . S
C1460 H1446 0.960 . S
C1460 H1447 0.960 . S
C1460 C1459 1.524 . S
C1461 C1458 1.403 . S
C1461 C1462 1.392 . S
C1461 C1465 1.495 . S
C1462 C1461 1.392 . S
C1462 C1463 1.385 . S
C1462 C1464 1.478 . S
C1463 H1457 0.930 . S
C1463 C1459 1.400 . S
C1463 C1462 1.385 . S
C1464 C1462 1.478 . S
C1464 C1466 1.381 . S
C1464 C1470 1.383 . S
C1465 C1461 1.495 . S
C1465 H1471 0.959 . S
C1465 H1472 0.961 . S
C1465 H1473 0.960 . S
C1466 C1464 1.381 . S
C1466 C1467 1.394 . S
C1466 H1474 0.930 . S
C1467 C1466 1.394 . S
C1467 C1468 1.383 . S
C1467 H1475 0.929 . S
C1468 C1467 1.383 . S
C1468 C1469 1.377 . S
C1469 H1453 0.930 . S
C1469 C1468 1.377 . S
C1469 C1470 1.379 . S
C1470 H1454 0.931 . S
C1470 C1464 1.383 . S
C1470 C1469 1.379 . S
H1471 C1465 0.959 . S
H1472 C1465 0.961 . S
H1473 C1465 0.960 . S
H1474 C1466 0.930 . S
H1475 C1467 0.929 . S
H1476 C1484 0.929 . S
H1477 C1486 0.930 . S
H1478 C1488 0.930 . S
H1479 C1491 0.929 . S
H1480 C1494 0.930 . S
H1481 C1496 0.960 . S
H1482 C1496 0.960 . S
H1483 C1496 0.960 . S
C1484 H1476 0.929 . S
C1484 C1485 1.377 . S
C1484 C1486 1.384 . S
C1485 C1484 1.377 . S
C1485 C1491 1.390 . S
C1486 H1477 0.930 . S
C1486 C1484 1.384 . S
C1486 C1487 1.372 . S
C1487 C1486 1.372 . S
C1487 C1488 1.400 . S
C1487 C1492 1.490 . S
C1488 H1478 0.930 . S
C1488 C1487 1.400 . S
C1488 C1491 1.386 . S
H1489 C1505 0.930 . S
H1490 C1506 0.931 . S
C1491 H1479 0.929 . S
C1491 C1485 1.390 . S
C1491 C1488 1.386 . S
C1492 C1487 1.490 . S
C1492 C1494 1.395 . S
C1492 C1495 1.403 . S
H1493 C1499 0.930 . S
C1494 H1480 0.930 . S
C1494 C1492 1.395 . S
C1494 C1497 1.403 . S
C1495 C1492 1.403 . S
C1495 C1496 1.524 . S
C1495 C1499 1.400 . S
C1496 H1481 0.960 . S
C1496 H1482 0.960 . S
C1496 H1483 0.960 . S
C1496 C1495 1.524 . S
C1497 C1494 1.403 . S
C1497 C1498 1.392 . S
C1497 C1501 1.495 . S
C1498 C1497 1.392 . S
C1498 C1499 1.385 . S
C1498 C1500 1.478 . S
C1499 H1493 0.930 . S
C1499 C1495 1.400 . S
C1499 C1498 1.385 . S
C1500 C1498 1.478 . S
C1500 C1502 1.381 . S
C1500 C1506 1.383 . S
C1501 C1497 1.495 . S
C1501 H1507 0.959 . S
C1501 H1508 0.961 . S
C1501 H1509 0.960 . S
C1502 C1500 1.381 . S
C1502 C1503 1.394 . S
C1502 H1510 0.930 . S
C1503 C1502 1.394 . S
C1503 C1504 1.383 . S
C1503 H1511 0.929 . S
C1504 C1503 1.383 . S
C1504 C1505 1.377 . S
C1505 H1489 0.930 . S
C1505 C1504 1.377 . S
C1505 C1506 1.379 . S
C1506 H1490 0.931 . S
C1506 C1500 1.383 . S
C1506 C1505 1.379 . S
H1507 C1501 0.959 . S
H1508 C1501 0.961 . S
H1509 C1501 0.960 . S
H1510 C1502 0.930 . S
H1511 C1503 0.929 . S
H1512 C1520 0.929 . S
H1513 C1522 0.930 . S
H1514 C1524 0.930 . S
H1515 C1527 0.929 . S
H1516 C1530 0.930 . S
H1517 C1532 0.960 . S
H1518 C1532 0.960 . S
H1519 C1532 0.960 . S
C1520 H1512 0.929 . S
C1520 C1521 1.377 . S
C1520 C1522 1.384 . S
C1521 C1520 1.377 . S
C1521 C1527 1.390 . S
C1522 H1513 0.930 . S
C1522 C1520 1.384 . S
C1522 C1523 1.372 . S
C1523 C1522 1.372 . S
C1523 C1524 1.400 . S
C1523 C1528 1.490 . S
C1524 H1514 0.930 . S
C1524 C1523 1.400 . S
C1524 C1527 1.386 . S
H1525 C1541 0.930 . S
H1526 C1542 0.931 . S
C1527 H1515 0.929 . S
C1527 C1521 1.390 . S
C1527 C1524 1.386 . S
C1528 C1523 1.490 . S
C1528 C1530 1.395 . S
C1528 C1531 1.403 . S
H1529 C1535 0.930 . S
C1530 H1516 0.930 . S
C1530 C1528 1.395 . S
C1530 C1533 1.403 . S
C1531 C1528 1.403 . S
C1531 C1532 1.524 . S
C1531 C1535 1.400 . S
C1532 H1517 0.960 . S
C1532 H1518 0.960 . S
C1532 H1519 0.960 . S
C1532 C1531 1.524 . S
C1533 C1530 1.403 . S
C1533 C1534 1.392 . S
C1533 C1537 1.495 . S
C1534 C1533 1.392 . S
C1534 C1535 1.385 . S
C1534 C1536 1.478 . S
C1535 H1529 0.930 . S
C1535 C1531 1.400 . S
C1535 C1534 1.385 . S
C1536 C1534 1.478 . S
C1536 C1538 1.381 . S
C1536 C1542 1.383 . S
C1537 C1533 1.495 . S
C1537 H1543 0.959 . S
C1537 H1544 0.961 . S
C1537 H1545 0.960 . S
C1538 C1536 1.381 . S
C1538 C1539 1.394 . S
C1538 H1546 0.930 . S
C1539 C1538 1.394 . S
C1539 C1540 1.383 . S
C1539 H1547 0.929 . S
C1540 C1539 1.383 . S
C1540 C1541 1.377 . S
C1541 H1525 0.930 . S
C1541 C1540 1.377 . S
C1541 C1542 1.379 . S
C1542 H1526 0.931 . S
C1542 C1536 1.383 . S
C1542 C1541 1.379 . S
H1543 C1537 0.959 . S
H1544 C1537 0.961 . S
H1545 C1537 0.960 . S
H1546 C1538 0.930 . S
H1547 C1539 0.929 . S
H1548 C1556 0.929 . S
H1549 C1558 0.930 . S
H1550 C1560 0.930 . S
H1551 C1563 0.929 . S
H1552 C1566 0.930 . S
H1553 C1568 0.960 . S
H1554 C1568 0.960 . S
H1555 C1568 0.960 . S
C1556 H1548 0.929 . S
C1556 C1557 1.377 . S
C1556 C1558 1.384 . S
C1557 C1556 1.377 . S
C1557 C1563 1.390 . S
C1558 H1549 0.930 . S
C1558 C1556 1.384 . S
C1558 C1559 1.372 . S
C1559 C1558 1.372 . S
C1559 C1560 1.400 . S
C1559 C1564 1.490 . S
C1560 H1550 0.930 . S
C1560 C1559 1.400 . S
C1560 C1563 1.386 . S
H1561 C1577 0.930 . S
H1562 C1578 0.931 . S
C1563 H1551 0.929 . S
C1563 C1557 1.390 . S
C1563 C1560 1.386 . S
C1564 C1559 1.490 . S
C1564 C1566 1.395 . S
C1564 C1567 1.403 . S
H1565 C1571 0.930 . S
C1566 H1552 0.930 . S
C1566 C1564 1.395 . S
C1566 C1569 1.403 . S
C1567 C1564 1.403 . S
C1567 C1568 1.524 . S
C1567 C1571 1.400 . S
C1568 H1553 0.960 . S
C1568 H1554 0.960 . S
C1568 H1555 0.960 . S
C1568 C1567 1.524 . S
C1569 C1566 1.403 . S
C1569 C1570 1.392 . S
C1569 C1573 1.495 . S
C1570 C1569 1.392 . S
C1570 C1571 1.385 . S
C1570 C1572 1.478 . S
C1571 H1565 0.930 . S
C1571 C1567 1.400 . S
C1571 C1570 1.385 . S
C1572 C1570 1.478 . S
C1572 C1574 1.381 . S
C1572 C1578 1.383 . S
C1573 C1569 1.495 . S
C1573 H1579 0.959 . S
C1573 H1580 0.961 . S
C1573 H1581 0.960 . S
C1574 C1572 1.381 . S
C1574 C1575 1.394 . S
C1574 H1582 0.930 . S
C1575 C1574 1.394 . S
C1575 C1576 1.383 . S
C1575 H1583 0.929 . S
C1576 C1575 1.383 . S
C1576 C1577 1.377 . S
C1577 H1561 0.930 . S
C1577 C1576 1.377 . S
C1577 C1578 1.379 . S
C1578 H1562 0.931 . S
C1578 C1572 1.383 . S
C1578 C1577 1.379 . S
H1579 C1573 0.959 . S
H1580 C1573 0.961 . S
H1581 C1573 0.960 . S
H1582 C1574 0.930 . S
H1583 C1575 0.929 . S
H1584 C1592 0.929 . S
H1585 C1594 0.930 . S
H1586 C1596 0.930 . S
H1587 C1599 0.929 . S
H1588 C1602 0.930 . S
H1589 C1604 0.960 . S
H1590 C1604 0.960 . S
H1591 C1604 0.960 . S
C1592 H1584 0.929 . S
C1592 C1593 1.377 . S
C1592 C1594 1.384 . S
C1593 C1592 1.377 . S
C1593 C1599 1.390 . S
C1594 H1585 0.930 . S
C1594 C1592 1.384 . S
C1594 C1595 1.372 . S
C1595 C1594 1.372 . S
C1595 C1596 1.400 . S
C1595 C1600 1.490 . S
C1596 H1586 0.930 . S
C1596 C1595 1.400 . S
C1596 C1599 1.386 . S
H1597 C1613 0.930 . S
H1598 C1614 0.931 . S
C1599 H1587 0.929 . S
C1599 C1593 1.390 . S
C1599 C1596 1.386 . S
C1600 C1595 1.490 . S
C1600 C1602 1.395 . S
C1600 C1603 1.403 . S
H1601 C1607 0.930 . S
C1602 H1588 0.930 . S
C1602 C1600 1.395 . S
C1602 C1605 1.403 . S
C1603 C1600 1.403 . S
C1603 C1604 1.524 . S
C1603 C1607 1.400 . S
C1604 H1589 0.960 . S
C1604 H1590 0.960 . S
C1604 H1591 0.960 . S
C1604 C1603 1.524 . S
C1605 C1602 1.403 . S
C1605 C1606 1.392 . S
C1605 C1609 1.495 . S
C1606 C1605 1.392 . S
C1606 C1607 1.385 . S
C1606 C1608 1.478 . S
C1607 H1601 0.930 . S
C1607 C1603 1.400 . S
C1607 C1606 1.385 . S
C1608 C1606 1.478 . S
C1608 C1610 1.381 . S
C1608 C1614 1.383 . S
C1609 C1605 1.495 . S
C1609 H1615 0.959 . S
C1609 H1616 0.961 . S
C1609 H1617 0.960 . S
C1610 C1608 1.381 . S
C1610 C1611 1.394 . S
C1610 H1618 0.930 . S
C1611 C1610 1.394 . S
C1611 C1612 1.383 . S
C1611 H1619 0.929 . S
C1612 C1611 1.383 . S
C1612 C1613 1.377 . S
C1613 H1597 0.930 . S
C1613 C1612 1.377 . S
C1613 C1614 1.379 . S
C1614 H1598 0.931 . S
C1614 C1608 1.383 . S
C1614 C1613 1.379 . S
H1615 C1609 0.959 . S
H1616 C1609 0.961 . S
H1617 C1609 0.960 . S
H1618 C1610 0.930 . S
H1619 C1611 0.929 . S
H1620 C1628 0.929 . S
H1621 C1630 0.930 . S
H1622 C1632 0.930 . S
H1623 C1635 0.929 . S
H1624 C1638 0.930 . S
H1625 C1640 0.960 . S
H1626 C1640 0.960 . S
H1627 C1640 0.960 . S
C1628 H1620 0.929 . S
C1628 C1629 1.377 . S
C1628 C1630 1.384 . S
C1629 C1628 1.377 . S
C1629 C1635 1.390 . S
C1630 H1621 0.930 . S
C1630 C1628 1.384 . S
C1630 C1631 1.372 . S
C1631 C1630 1.372 . S
C1631 C1632 1.400 . S
C1631 C1636 1.490 . S
C1632 H1622 0.930 . S
C1632 C1631 1.400 . S
C1632 C1635 1.386 . S
H1633 C1649 0.930 . S
H1634 C1650 0.931 . S
C1635 H1623 0.929 . S
C1635 C1629 1.390 . S
C1635 C1632 1.386 . S
C1636 C1631 1.490 . S
C1636 C1638 1.395 . S
C1636 C1639 1.403 . S
H1637 C1643 0.930 . S
C1638 H1624 0.930 . S
C1638 C1636 1.395 . S
C1638 C1641 1.403 . S
C1639 C1636 1.403 . S
C1639 C1640 1.524 . S
C1639 C1643 1.400 . S
C1640 H1625 0.960 . S
C1640 H1626 0.960 . S
C1640 H1627 0.960 . S
C1640 C1639 1.524 . S
C1641 C1638 1.403 . S
C1641 C1642 1.392 . S
C1641 C1645 1.495 . S
C1642 C1641 1.392 . S
C1642 C1643 1.385 . S
C1642 C1644 1.478 . S
C1643 H1637 0.930 . S
C1643 C1639 1.400 . S
C1643 C1642 1.385 . S
C1644 C1642 1.478 . S
C1644 C1646 1.381 . S
C1644 C1650 1.383 . S
C1645 C1641 1.495 . S
C1645 H1651 0.959 . S
C1645 H1652 0.961 . S
C1645 H1653 0.960 . S
C1646 C1644 1.381 . S
C1646 C1647 1.394 . S
C1646 H1654 0.930 . S
C1647 C1646 1.394 . S
C1647 C1648 1.383 . S
C1647 H1655 0.929 . S
C1648 C1647 1.383 . S
C1648 C1649 1.377 . S
C1649 H1633 0.930 . S
C1649 C1648 1.377 . S
C1649 C1650 1.379 . S
C1650 H1634 0.931 . S
C1650 C1644 1.383 . S
C1650 C1649 1.379 . S
H1651 C1645 0.959 . S
H1652 C1645 0.961 . S
H1653 C1645 0.960 . S
H1654 C1646 0.930 . S
H1655 C1647 0.929 . S
H1656 C1664 0.929 . S
H1657 C1666 0.930 . S
H1658 C1668 0.930 . S
H1659 C1671 0.929 . S
H1660 C1674 0.930 . S
H1661 C1676 0.960 . S
H1662 C1676 0.960 . S
H1663 C1676 0.960 . S
C1664 H1656 0.929 . S
C1664 C1665 1.377 . S
C1664 C1666 1.384 . S
C1665 C1664 1.377 . S
C1665 C1671 1.390 . S
C1666 H1657 0.930 . S
C1666 C1664 1.384 . S
C1666 C1667 1.372 . S
C1667 C1666 1.372 . S
C1667 C1668 1.400 . S
C1667 C1672 1.490 . S
C1668 H1658 0.930 . S
C1668 C1667 1.400 . S
C1668 C1671 1.386 . S
H1669 C1685 0.930 . S
H1670 C1686 0.931 . S
C1671 H1659 0.929 . S
C1671 C1665 1.390 . S
C1671 C1668 1.386 . S
C1672 C1667 1.490 . S
C1672 C1674 1.395 . S
C1672 C1675 1.403 . S
H1673 C1679 0.930 . S
C1674 H1660 0.930 . S
C1674 C1672 1.395 . S
C1674 C1677 1.403 . S
C1675 C1672 1.403 . S
C1675 C1676 1.524 . S
C1675 C1679 1.400 . S
C1676 H1661 0.960 . S
C1676 H1662 0.960 . S
C1676 H1663 0.960 . S
C1676 C1675 1.524 . S
C1677 C1674 1.403 . S
C1677 C1678 1.392 . S
C1677 C1681 1.495 . S
C1678 C1677 1.392 . S
C1678 C1679 1.385 . S
C1678 C1680 1.478 . S
C1679 H1673 0.930 . S
C1679 C1675 1.400 . S
C1679 C1678 1.385 . S
C1680 C1678 1.478 . S
C1680 C1682 1.381 . S
C1680 C1686 1.383 . S
C1681 C1677 1.495 . S
C1681 H1687 0.959 . S
C1681 H1688 0.961 . S
C1681 H1689 0.960 . S
C1682 C1680 1.381 . S
C1682 C1683 1.394 1_554 S
C1682 H1690 0.930 . S
C1683 C1682 1.394 1_556 S
C1683 C1684 1.383 . S
C1683 H1691 0.929 . S
C1684 C1683 1.383 . S
C1684 C1685 1.377 . S
C1685 H1669 0.930 . S
C1685 C1684 1.377 . S
C1685 C1686 1.379 1_556 S
C1686 H1670 0.931 . S
C1686 C1680 1.383 . S
C1686 C1685 1.379 1_554 S
H1687 C1681 0.959 . S
H1688 C1681 0.961 . S
H1689 C1681 0.960 . S
H1690 C1682 0.930 . S
H1691 C1683 0.929 . S
H1692 C1700 0.929 . S
H1693 C1702 0.930 . S
H1694 C1704 0.930 . S
H1695 C1707 0.929 . S
H1696 C1710 0.930 . S
H1697 C1712 0.960 . S
H1698 C1712 0.960 . S
H1699 C1712 0.960 . S
C1700 H1692 0.929 . S
C1700 C1701 1.377 . S
C1700 C1702 1.384 1_556 S
C1701 C1700 1.377 . S
C1701 C1707 1.390 . S
C1702 H1693 0.930 . S
C1702 C1700 1.384 1_554 S
C1702 C1703 1.372 . S
C1703 C1702 1.372 . S
C1703 C1704 1.400 . S
C1703 C1708 1.490 . S
C1704 H1694 0.930 . S
C1704 C1703 1.400 . S
C1704 C1707 1.386 1_554 S
H1705 C1721 0.930 . S
H1706 C1722 0.931 . S
C1707 H1695 0.929 . S
C1707 C1701 1.390 . S
C1707 C1704 1.386 1_556 S
C1708 C1703 1.490 . S
C1708 C1710 1.395 . S
C1708 C1711 1.403 . S
H1709 C1715 0.930 . S
C1710 H1696 0.930 . S
C1710 C1708 1.395 . S
C1710 C1713 1.403 . S
C1711 C1708 1.403 . S
C1711 C1712 1.524 . S
C1711 C1715 1.400 . S
C1712 H1697 0.960 . S
C1712 H1698 0.960 . S
C1712 H1699 0.960 . S
C1712 C1711 1.524 . S
C1713 C1710 1.403 . S
C1713 C1714 1.392 . S
C1713 C1717 1.495 . S
C1714 C1713 1.392 . S
C1714 C1715 1.385 . S
C1714 C1716 1.478 . S
C1715 H1709 0.930 . S
C1715 C1711 1.400 . S
C1715 C1714 1.385 . S
C1716 C1714 1.478 . S
C1716 C1718 1.381 . S
C1716 C1722 1.383 . S
C1717 C1713 1.495 . S
C1717 H1723 0.959 . S
C1717 H1724 0.961 . S
C1717 H1725 0.960 . S
C1718 C1716 1.381 . S
C1718 C1719 1.394 . S
C1718 H1726 0.930 . S
C1719 C1718 1.394 . S
C1719 C1720 1.383 . S
C1719 H1727 0.929 . S
C1720 C1719 1.383 . S
C1720 C1721 1.377 . S
C1721 H1705 0.930 . S
C1721 C1720 1.377 . S
C1721 C1722 1.379 . S
C1722 H1706 0.931 . S
C1722 C1716 1.383 . S
C1722 C1721 1.379 . S
H1723 C1717 0.959 . S
H1724 C1717 0.961 . S
H1725 C1717 0.960 . S
H1726 C1718 0.930 . S
H1727 C1719 0.929 . S
H1728 C1736 0.929 . S
H1729 C1738 0.930 . S
H1730 C1740 0.930 . S
H1731 C1743 0.929 . S
H1732 C1746 0.930 . S
H1733 C1748 0.960 . S
H1734 C1748 0.960 . S
H1735 C1748 0.960 . S
C1736 H1728 0.929 . S
C1736 C1737 1.377 . S
C1736 C1738 1.384 . S
C1737 C1736 1.377 . S
C1737 C1743 1.390 . S
C1738 H1729 0.930 . S
C1738 C1736 1.384 . S
C1738 C1739 1.372 . S
C1739 C1738 1.372 . S
C1739 C1740 1.400 . S
C1739 C1744 1.490 . S
C1740 H1730 0.930 . S
C1740 C1739 1.400 . S
C1740 C1743 1.386 . S
H1741 C1757 0.930 . S
H1742 C1758 0.931 . S
C1743 H1731 0.929 . S
C1743 C1737 1.390 . S
C1743 C1740 1.386 . S
C1744 C1739 1.490 . S
C1744 C1746 1.395 . S
C1744 C1747 1.403 . S
H1745 C1751 0.930 . S
C1746 H1732 0.930 . S
C1746 C1744 1.395 . S
C1746 C1749 1.403 . S
C1747 C1744 1.403 . S
C1747 C1748 1.524 . S
C1747 C1751 1.400 . S
C1748 H1733 0.960 . S
C1748 H1734 0.960 . S
C1748 H1735 0.960 . S
C1748 C1747 1.524 . S
C1749 C1746 1.403 . S
C1749 C1750 1.392 . S
C1749 C1753 1.495 . S
C1750 C1749 1.392 . S
C1750 C1751 1.385 . S
C1750 C1752 1.478 . S
C1751 H1745 0.930 . S
C1751 C1747 1.400 . S
C1751 C1750 1.385 . S
C1752 C1750 1.478 . S
C1752 C1754 1.381 . S
C1752 C1758 1.383 . S
C1753 C1749 1.495 . S
C1753 H1759 0.959 . S
C1753 H1760 0.961 . S
C1753 H1761 0.960 . S
C1754 C1752 1.381 . S
C1754 C1755 1.394 1_554 S
C1754 H1762 0.930 . S
C1755 C1754 1.394 1_556 S
C1755 C1756 1.383 . S
C1755 H1763 0.929 . S
C1756 C1755 1.383 . S
C1756 C1757 1.377 . S
C1757 H1741 0.930 . S
C1757 C1756 1.377 . S
C1757 C1758 1.379 1_556 S
C1758 H1742 0.931 . S
C1758 C1752 1.383 . S
C1758 C1757 1.379 1_554 S
H1759 C1753 0.959 . S
H1760 C1753 0.961 . S
H1761 C1753 0.960 . S
H1762 C1754 0.930 . S
H1763 C1755 0.929 . S
H1764 C1772 0.929 . S
H1765 C1774 0.930 . S
H1766 C1776 0.930 . S
H1767 C1779 0.929 . S
H1768 C1782 0.930 . S
H1769 C1784 0.960 . S
H1770 C1784 0.960 . S
H1771 C1784 0.960 . S
C1772 H1764 0.929 . S
C1772 C1773 1.377 . S
C1772 C1774 1.384 . S
C1773 C1772 1.377 . S
C1773 C1779 1.390 . S
C1774 H1765 0.930 . S
C1774 C1772 1.384 . S
C1774 C1775 1.372 . S
C1775 C1774 1.372 . S
C1775 C1776 1.400 . S
C1775 C1780 1.490 . S
C1776 H1766 0.930 . S
C1776 C1775 1.400 . S
C1776 C1779 1.386 . S
H1777 C1793 0.930 . S
H1778 C1794 0.931 . S
C1779 H1767 0.929 . S
C1779 C1773 1.390 . S
C1779 C1776 1.386 . S
C1780 C1775 1.490 . S
C1780 C1782 1.395 . S
C1780 C1783 1.403 . S
H1781 C1787 0.930 . S
C1782 H1768 0.930 . S
C1782 C1780 1.395 . S
C1782 C1785 1.403 . S
C1783 C1780 1.403 . S
C1783 C1784 1.524 . S
C1783 C1787 1.400 . S
C1784 H1769 0.960 . S
C1784 H1770 0.960 . S
C1784 H1771 0.960 . S
C1784 C1783 1.524 . S
C1785 C1782 1.403 . S
C1785 C1786 1.392 . S
C1785 C1789 1.495 . S
C1786 C1785 1.392 . S
C1786 C1787 1.385 . S
C1786 C1788 1.478 . S
C1787 H1781 0.930 . S
C1787 C1783 1.400 . S
C1787 C1786 1.385 . S
C1788 C1786 1.478 . S
C1788 C1790 1.381 . S
C1788 C1794 1.383 . S
C1789 C1785 1.495 . S
C1789 H1795 0.959 . S
C1789 H1796 0.961 . S
C1789 H1797 0.960 . S
C1790 C1788 1.381 . S
C1790 C1791 1.394 . S
C1790 H1798 0.930 . S
C1791 C1790 1.394 . S
C1791 C1792 1.383 . S
C1791 H1799 0.929 . S
C1792 C1791 1.383 . S
C1792 C1793 1.377 . S
C1793 H1777 0.930 . S
C1793 C1792 1.377 . S
C1793 C1794 1.379 . S
C1794 H1778 0.931 . S
C1794 C1788 1.383 . S
C1794 C1793 1.379 . S
H1795 C1789 0.959 . S
H1796 C1789 0.961 . S
H1797 C1789 0.960 . S
H1798 C1790 0.930 . S
H1799 C1791 0.929 . S
H1800 C1808 0.929 . S
H1801 C1810 0.930 . S
H1802 C1812 0.930 . S
H1803 C1815 0.929 . S
H1804 C1818 0.930 . S
H1805 C1820 0.960 . S
H1806 C1820 0.960 . S
H1807 C1820 0.960 . S
C1808 H1800 0.929 . S
C1808 C1809 1.377 . S
C1808 C1810 1.384 . S
C1809 C1808 1.377 . S
C1809 C1815 1.390 . S
C1810 H1801 0.930 . S
C1810 C1808 1.384 . S
C1810 C1811 1.372 . S
C1811 C1810 1.372 . S
C1811 C1812 1.400 . S
C1811 C1816 1.490 . S
C1812 H1802 0.930 . S
C1812 C1811 1.400 . S
C1812 C1815 1.386 . S
H1813 C1829 0.930 . S
H1814 C1830 0.931 . S
C1815 H1803 0.929 . S
C1815 C1809 1.390 . S
C1815 C1812 1.386 . S
C1816 C1811 1.490 . S
C1816 C1818 1.395 . S
C1816 C1819 1.403 . S
H1817 C1823 0.930 . S
C1818 H1804 0.930 . S
C1818 C1816 1.395 . S
C1818 C1821 1.403 1_565 S
C1819 C1816 1.403 . S
C1819 C1820 1.524 . S
C1819 C1823 1.400 1_565 S
C1820 H1805 0.960 . S
C1820 H1806 0.960 . S
C1820 H1807 0.960 . S
C1820 C1819 1.524 . S
C1821 C1818 1.403 1_545 S
C1821 C1822 1.392 . S
C1821 C1825 1.495 . S
C1822 C1821 1.392 . S
C1822 C1823 1.385 . S
C1822 C1824 1.478 . S
C1823 H1817 0.930 . S
C1823 C1819 1.400 1_545 S
C1823 C1822 1.385 . S
C1824 C1822 1.478 . S
C1824 C1826 1.381 . S
C1824 C1830 1.383 . S
C1825 C1821 1.495 . S
C1825 H1831 0.959 . S
C1825 H1832 0.961 . S
C1825 H1833 0.960 . S
C1826 C1824 1.381 . S
C1826 C1827 1.394 . S
C1826 H1834 0.930 . S
C1827 C1826 1.394 . S
C1827 C1828 1.383 . S
C1827 H1835 0.929 . S
C1828 C1827 1.383 . S
C1828 C1829 1.377 . S
C1829 H1813 0.930 . S
C1829 C1828 1.377 . S
C1829 C1830 1.379 . S
C1830 H1814 0.931 . S
C1830 C1824 1.383 . S
C1830 C1829 1.379 . S
H1831 C1825 0.959 . S
H1832 C1825 0.961 . S
H1833 C1825 0.960 . S
H1834 C1826 0.930 . S
H1835 C1827 0.929 . S
H1836 C1844 0.929 . S
H1837 C1846 0.930 . S
H1838 C1848 0.930 . S
H1839 C1851 0.929 . S
H1840 C1854 0.930 . S
H1841 C1856 0.960 . S
H1842 C1856 0.960 . S
H1843 C1856 0.960 . S
C1844 H1836 0.929 . S
C1844 C1845 1.377 . S
C1844 C1846 1.384 . S
C1845 C1844 1.377 . S
C1845 C1851 1.390 . S
C1846 H1837 0.930 . S
C1846 C1844 1.384 . S
C1846 C1847 1.372 . S
C1847 C1846 1.372 . S
C1847 C1848 1.400 . S
C1847 C1852 1.490 . S
C1848 H1838 0.930 . S
C1848 C1847 1.400 . S
C1848 C1851 1.386 . S
H1849 C1865 0.930 . S
H1850 C1866 0.931 . S
C1851 H1839 0.929 . S
C1851 C1845 1.390 . S
C1851 C1848 1.386 . S
C1852 C1847 1.490 . S
C1852 C1854 1.395 . S
C1852 C1855 1.403 . S
H1853 C1859 0.930 . S
C1854 H1840 0.930 . S
C1854 C1852 1.395 . S
C1854 C1857 1.403 1_655 S
C1855 C1852 1.403 . S
C1855 C1856 1.524 . S
C1855 C1859 1.400 1_655 S
C1856 H1841 0.960 . S
C1856 H1842 0.960 . S
C1856 H1843 0.960 . S
C1856 C1855 1.524 . S
C1857 C1854 1.403 1_455 S
C1857 C1858 1.392 . S
C1857 C1861 1.495 . S
C1858 C1857 1.392 . S
C1858 C1859 1.385 . S
C1858 C1860 1.478 . S
C1859 H1853 0.930 . S
C1859 C1855 1.400 1_455 S
C1859 C1858 1.385 . S
C1860 C1858 1.478 . S
C1860 C1862 1.381 . S
C1860 C1866 1.383 . S
C1861 C1857 1.495 . S
C1861 H1867 0.959 . S
C1861 H1868 0.961 . S
C1861 H1869 0.960 . S
C1862 C1860 1.381 . S
C1862 C1863 1.394 . S
C1862 H1870 0.930 . S
C1863 C1862 1.394 . S
C1863 C1864 1.383 . S
C1863 H1871 0.929 . S
C1864 C1863 1.383 . S
C1864 C1865 1.377 . S
C1865 H1849 0.930 . S
C1865 C1864 1.377 . S
C1865 C1866 1.379 . S
C1866 H1850 0.931 . S
C1866 C1860 1.383 . S
C1866 C1865 1.379 . S
H1867 C1861 0.959 . S
H1868 C1861 0.961 . S
H1869 C1861 0.960 . S
H1870 C1862 0.930 . S
H1871 C1863 0.929 . S
H1872 C1880 0.929 . S
H1873 C1882 0.930 . S
H1874 C1884 0.930 . S
H1875 C1887 0.929 . S
H1876 C1890 0.930 . S
H1877 C1892 0.960 . S
H1878 C1892 0.960 . S
H1879 C1892 0.960 . S
C1880 H1872 0.929 . S
C1880 C1881 1.377 . S
C1880 C1882 1.384 . S
C1881 C1880 1.377 . S
C1881 C1887 1.390 . S
C1882 H1873 0.930 . S
C1882 C1880 1.384 . S
C1882 C1883 1.372 . S
C1883 C1882 1.372 . S
C1883 C1884 1.400 . S
C1883 C1888 1.490 . S
C1884 H1874 0.930 . S
C1884 C1883 1.400 . S
C1884 C1887 1.386 . S
H1885 C1901 0.930 . S
H1886 C1902 0.931 . S
C1887 H1875 0.929 . S
C1887 C1881 1.390 . S
C1887 C1884 1.386 . S
C1888 C1883 1.490 . S
C1888 C1890 1.395 . S
C1888 C1891 1.403 . S
H1889 C1895 0.930 . S
C1890 H1876 0.930 . S
C1890 C1888 1.395 . S
C1890 C1893 1.403 . S
C1891 C1888 1.403 . S
C1891 C1892 1.524 . S
C1891 C1895 1.400 . S
C1892 H1877 0.960 . S
C1892 H1878 0.960 . S
C1892 H1879 0.960 . S
C1892 C1891 1.524 . S
C1893 C1890 1.403 . S
C1893 C1894 1.392 . S
C1893 C1897 1.495 . S
C1894 C1893 1.392 . S
C1894 C1895 1.385 . S
C1894 C1896 1.478 . S
C1895 H1889 0.930 . S
C1895 C1891 1.400 . S
C1895 C1894 1.385 . S
C1896 C1894 1.478 . S
C1896 C1898 1.381 . S
C1896 C1902 1.383 . S
C1897 C1893 1.495 . S
C1897 H1903 0.959 . S
C1897 H1904 0.961 . S
C1897 H1905 0.960 . S
C1898 C1896 1.381 . S
C1898 C1899 1.394 . S
C1898 H1906 0.930 . S
C1899 C1898 1.394 . S
C1899 C1900 1.383 . S
C1899 H1907 0.929 . S
C1900 C1899 1.383 . S
C1900 C1901 1.377 . S
C1901 H1885 0.930 . S
C1901 C1900 1.377 . S
C1901 C1902 1.379 . S
C1902 H1886 0.931 . S
C1902 C1896 1.383 . S
C1902 C1901 1.379 . S
H1903 C1897 0.959 . S
H1904 C1897 0.961 . S
H1905 C1897 0.960 . S
H1906 C1898 0.930 . S
H1907 C1899 0.929 . S
H1908 C1916 0.929 . S
H1909 C1918 0.930 . S
H1910 C1920 0.930 . S
H1911 C1923 0.929 . S
H1912 C1926 0.930 . S
H1913 C1928 0.960 . S
H1914 C1928 0.960 . S
H1915 C1928 0.960 . S
C1916 H1908 0.929 . S
C1916 C1917 1.377 . S
C1916 C1918 1.384 . S
C1917 C1916 1.377 . S
C1917 C1923 1.390 . S
C1918 H1909 0.930 . S
C1918 C1916 1.384 . S
C1918 C1919 1.372 . S
C1919 C1918 1.372 . S
C1919 C1920 1.400 . S
C1919 C1924 1.490 . S
C1920 H1910 0.930 . S
C1920 C1919 1.400 . S
C1920 C1923 1.386 . S
H1921 C1937 0.930 . S
H1922 C1938 0.931 . S
C1923 H1911 0.929 . S
C1923 C1917 1.390 . S
C1923 C1920 1.386 . S
C1924 C1919 1.490 . S
C1924 C1926 1.395 . S
C1924 C1927 1.403 . S
H1925 C1931 0.930 . S
C1926 H1912 0.930 . S
C1926 C1924 1.395 . S
C1926 C1929 1.403 1_545 S
C1927 C1924 1.403 . S
C1927 C1928 1.524 . S
C1927 C1931 1.400 1_545 S
C1928 H1913 0.960 . S
C1928 H1914 0.960 . S
C1928 H1915 0.960 . S
C1928 C1927 1.524 . S
C1929 C1926 1.403 1_565 S
C1929 C1930 1.392 . S
C1929 C1933 1.495 . S
C1930 C1929 1.392 . S
C1930 C1931 1.385 . S
C1930 C1932 1.478 . S
C1931 H1925 0.930 . S
C1931 C1927 1.400 1_565 S
C1931 C1930 1.385 . S
C1932 C1930 1.478 . S
C1932 C1934 1.381 . S
C1932 C1938 1.383 . S
C1933 C1929 1.495 . S
C1933 H1939 0.959 . S
C1933 H1940 0.961 . S
C1933 H1941 0.960 . S
C1934 C1932 1.381 . S
C1934 C1935 1.394 . S
C1934 H1942 0.930 . S
C1935 C1934 1.394 . S
C1935 C1936 1.383 . S
C1935 H1943 0.929 . S
C1936 C1935 1.383 . S
C1936 C1937 1.377 . S
C1937 H1921 0.930 . S
C1937 C1936 1.377 . S
C1937 C1938 1.379 . S
C1938 H1922 0.931 . S
C1938 C1932 1.383 . S
C1938 C1937 1.379 . S
H1939 C1933 0.959 . S
H1940 C1933 0.961 . S
H1941 C1933 0.960 . S
H1942 C1934 0.930 . S
H1943 C1935 0.929 . S
H1944 C1952 0.929 . S
H1945 C1954 0.930 . S
H1946 C1956 0.930 . S
H1947 C1959 0.929 . S
H1948 C1962 0.930 . S
H1949 C1964 0.960 . S
H1950 C1964 0.960 . S
H1951 C1964 0.960 . S
C1952 H1944 0.929 . S
C1952 C1953 1.377 . S
C1952 C1954 1.384 . S
C1953 C1952 1.377 . S
C1953 C1959 1.390 . S
C1954 H1945 0.930 . S
C1954 C1952 1.384 . S
C1954 C1955 1.372 . S
C1955 C1954 1.372 . S
C1955 C1956 1.400 . S
C1955 C1960 1.490 . S
C1956 H1946 0.930 . S
C1956 C1955 1.400 . S
C1956 C1959 1.386 . S
H1957 C1973 0.930 . S
H1958 C1974 0.931 . S
C1959 H1947 0.929 . S
C1959 C1953 1.390 . S
C1959 C1956 1.386 . S
C1960 C1955 1.490 . S
C1960 C1962 1.395 . S
C1960 C1963 1.403 . S
H1961 C1967 0.930 . S
C1962 H1948 0.930 . S
C1962 C1960 1.395 . S
C1962 C1965 1.403 1_655 S
C1963 C1960 1.403 . S
C1963 C1964 1.524 . S
C1963 C1967 1.400 1_655 S
C1964 H1949 0.960 . S
C1964 H1950 0.960 . S
C1964 H1951 0.960 . S
C1964 C1963 1.524 . S
C1965 C1962 1.403 1_455 S
C1965 C1966 1.392 . S
C1965 C1969 1.495 . S
C1966 C1965 1.392 . S
C1966 C1967 1.385 . S
C1966 C1968 1.478 . S
C1967 H1961 0.930 . S
C1967 C1963 1.400 1_455 S
C1967 C1966 1.385 . S
C1968 C1966 1.478 . S
C1968 C1970 1.381 . S
C1968 C1974 1.383 . S
C1969 C1965 1.495 . S
C1969 H1975 0.959 . S
C1969 H1976 0.961 . S
C1969 H1977 0.960 . S
C1970 C1968 1.381 . S
C1970 C1971 1.394 . S
C1970 H1978 0.930 . S
C1971 C1970 1.394 . S
C1971 C1972 1.383 . S
C1971 H1979 0.929 . S
C1972 C1971 1.383 . S
C1972 C1973 1.377 . S
C1973 H1957 0.930 . S
C1973 C1972 1.377 . S
C1973 C1974 1.379 . S
C1974 H1958 0.931 . S
C1974 C1968 1.383 . S
C1974 C1973 1.379 . S
H1975 C1969 0.959 . S
H1976 C1969 0.961 . S
H1977 C1969 0.960 . S
H1978 C1970 0.930 . S
H1979 C1971 0.929 . S
H1980 C1988 0.929 . S
H1981 C1990 0.930 . S
H1982 C1992 0.930 . S
H1983 C1995 0.929 . S
H1984 C1998 0.930 . S
H1985 C2000 0.960 . S
H1986 C2000 0.960 . S
H1987 C2000 0.960 . S
C1988 H1980 0.929 . S
C1988 C1989 1.377 . S
C1988 C1990 1.384 . S
C1989 C1988 1.377 . S
C1989 C1995 1.390 . S
C1990 H1981 0.930 . S
C1990 C1988 1.384 . S
C1990 C1991 1.372 . S
C1991 C1990 1.372 . S
C1991 C1992 1.400 . S
C1991 C1996 1.490 . S
C1992 H1982 0.930 . S
C1992 C1991 1.400 . S
C1992 C1995 1.386 . S
H1993 C2009 0.930 . S
H1994 C2010 0.931 . S
C1995 H1983 0.929 . S
C1995 C1989 1.390 . S
C1995 C1992 1.386 . S
C1996 C1991 1.490 . S
C1996 C1998 1.395 . S
C1996 C1999 1.403 . S
H1997 C2003 0.930 . S
C1998 H1984 0.930 . S
C1998 C1996 1.395 . S
C1998 C2001 1.403 . S
C1999 C1996 1.403 . S
C1999 C2000 1.524 . S
C1999 C2003 1.400 . S
C2000 H1985 0.960 . S
C2000 H1986 0.960 . S
C2000 H1987 0.960 . S
C2000 C1999 1.524 . S
C2001 C1998 1.403 . S
C2001 C2002 1.392 . S
C2001 C2005 1.495 . S
C2002 C2001 1.392 . S
C2002 C2003 1.385 . S
C2002 C2004 1.478 . S
C2003 H1997 0.930 . S
C2003 C1999 1.400 . S
C2003 C2002 1.385 . S
C2004 C2002 1.478 . S
C2004 C2006 1.381 . S
C2004 C2010 1.383 . S
C2005 C2001 1.495 . S
C2005 H2011 0.959 . S
C2005 H2012 0.961 . S
C2005 H2013 0.960 . S
C2006 C2004 1.381 . S
C2006 C2007 1.394 . S
C2006 H2014 0.930 . S
C2007 C2006 1.394 . S
C2007 C2008 1.383 . S
C2007 H2015 0.929 . S
C2008 C2007 1.383 . S
C2008 C2009 1.377 . S
C2009 H1993 0.930 . S
C2009 C2008 1.377 . S
C2009 C2010 1.379 . S
C2010 H1994 0.931 . S
C2010 C2004 1.383 . S
C2010 C2009 1.379 . S
H2011 C2005 0.959 . S
H2012 C2005 0.961 . S
H2013 C2005 0.960 . S
H2014 C2006 0.930 . S
H2015 C2007 0.929 . S
H2016 C2024 0.929 . S
H2017 C2026 0.930 . S
H2018 C2028 0.930 . S
H2019 C2031 0.929 . S
H2020 C2034 0.930 . S
H2021 C2036 0.960 . S
H2022 C2036 0.960 . S
H2023 C2036 0.960 . S
C2024 H2016 0.929 . S
C2024 C2025 1.377 . S
C2024 C2026 1.384 . S
C2025 C2024 1.377 . S
C2025 C2031 1.390 . S
C2026 H2017 0.930 . S
C2026 C2024 1.384 . S
C2026 C2027 1.372 . S
C2027 C2026 1.372 . S
C2027 C2028 1.400 . S
C2027 C2032 1.490 . S
C2028 H2018 0.930 . S
C2028 C2027 1.400 . S
C2028 C2031 1.386 . S
H2029 C2045 0.930 . S
H2030 C2046 0.931 . S
C2031 H2019 0.929 . S
C2031 C2025 1.390 . S
C2031 C2028 1.386 . S
C2032 C2027 1.490 . S
C2032 C2034 1.395 . S
C2032 C2035 1.403 . S
H2033 C2039 0.930 . S
C2034 H2020 0.930 . S
C2034 C2032 1.395 . S
C2034 C2037 1.403 . S
C2035 C2032 1.403 . S
C2035 C2036 1.524 . S
C2035 C2039 1.400 . S
C2036 H2021 0.960 . S
C2036 H2022 0.960 . S
C2036 H2023 0.960 . S
C2036 C2035 1.524 . S
C2037 C2034 1.403 . S
C2037 C2038 1.392 . S
C2037 C2041 1.495 . S
C2038 C2037 1.392 . S
C2038 C2039 1.385 . S
C2038 C2040 1.478 . S
C2039 H2033 0.930 . S
C2039 C2035 1.400 . S
C2039 C2038 1.385 . S
C2040 C2038 1.478 . S
C2040 C2042 1.381 . S
C2040 C2046 1.383 . S
C2041 C2037 1.495 . S
C2041 H2047 0.959 . S
C2041 H2048 0.961 . S
C2041 H2049 0.960 . S
C2042 C2040 1.381 . S
C2042 C2043 1.394 . S
C2042 H2050 0.930 . S
C2043 C2042 1.394 . S
C2043 C2044 1.383 . S
C2043 H2051 0.929 . S
C2044 C2043 1.383 . S
C2044 C2045 1.377 . S
C2045 H2029 0.930 . S
C2045 C2044 1.377 . S
C2045 C2046 1.379 . S
C2046 H2030 0.931 . S
C2046 C2040 1.383 . S
C2046 C2045 1.379 . S
H2047 C2041 0.959 . S
H2048 C2041 0.961 . S
H2049 C2041 0.960 . S
H2050 C2042 0.930 . S
H2051 C2043 0.929 . S
H2052 C2060 0.929 . S
H2053 C2062 0.930 . S
H2054 C2064 0.930 . S
H2055 C2067 0.929 . S
H2056 C2070 0.930 . S
H2057 C2072 0.960 . S
H2058 C2072 0.960 . S
H2059 C2072 0.960 . S
C2060 H2052 0.929 . S
C2060 C2061 1.377 . S
C2060 C2062 1.384 . S
C2061 C2060 1.377 . S
C2061 C2067 1.390 . S
C2062 H2053 0.930 . S
C2062 C2060 1.384 . S
C2062 C2063 1.372 . S
C2063 C2062 1.372 . S
C2063 C2064 1.400 . S
C2063 C2068 1.490 . S
C2064 H2054 0.930 . S
C2064 C2063 1.400 . S
C2064 C2067 1.386 . S
H2065 C2081 0.930 . S
H2066 C2082 0.931 . S
C2067 H2055 0.929 . S
C2067 C2061 1.390 . S
C2067 C2064 1.386 . S
C2068 C2063 1.490 . S
C2068 C2070 1.395 . S
C2068 C2071 1.403 . S
H2069 C2075 0.930 . S
C2070 H2056 0.930 . S
C2070 C2068 1.395 . S
C2070 C2073 1.403 . S
C2071 C2068 1.403 . S
C2071 C2072 1.524 . S
C2071 C2075 1.400 . S
C2072 H2057 0.960 . S
C2072 H2058 0.960 . S
C2072 H2059 0.960 . S
C2072 C2071 1.524 . S
C2073 C2070 1.403 . S
C2073 C2074 1.392 . S
C2073 C2077 1.495 . S
C2074 C2073 1.392 . S
C2074 C2075 1.385 . S
C2074 C2076 1.478 . S
C2075 H2069 0.930 . S
C2075 C2071 1.400 . S
C2075 C2074 1.385 . S
C2076 C2074 1.478 . S
C2076 C2078 1.381 . S
C2076 C2082 1.383 . S
C2077 C2073 1.495 . S
C2077 H2083 0.959 . S
C2077 H2084 0.961 . S
C2077 H2085 0.960 . S
C2078 C2076 1.381 . S
C2078 C2079 1.394 . S
C2078 H2086 0.930 . S
C2079 C2078 1.394 . S
C2079 C2080 1.383 . S
C2079 H2087 0.929 . S
C2080 C2079 1.383 . S
C2080 C2081 1.377 . S
C2081 H2065 0.930 . S
C2081 C2080 1.377 . S
C2081 C2082 1.379 . S
C2082 H2066 0.931 . S
C2082 C2076 1.383 . S
C2082 C2081 1.379 . S
H2083 C2077 0.959 . S
H2084 C2077 0.961 . S
H2085 C2077 0.960 . S
H2086 C2078 0.930 . S
H2087 C2079 0.929 . S
H2088 C2096 0.929 . S
H2089 C2098 0.930 . S
H2090 C2100 0.930 . S
H2091 C2103 0.929 . S
H2092 C2106 0.930 . S
H2093 C2108 0.960 . S
H2094 C2108 0.960 . S
H2095 C2108 0.960 . S
C2096 H2088 0.929 . S
C2096 C2097 1.377 . S
C2096 C2098 1.384 . S
C2097 C2096 1.377 . S
C2097 C2103 1.390 . S
C2098 H2089 0.930 . S
C2098 C2096 1.384 . S
C2098 C2099 1.372 . S
C2099 C2098 1.372 . S
C2099 C2100 1.400 . S
C2099 C2104 1.490 . S
C2100 H2090 0.930 . S
C2100 C2099 1.400 . S
C2100 C2103 1.386 . S
H2101 C2117 0.930 . S
H2102 C2118 0.931 . S
C2103 H2091 0.929 . S
C2103 C2097 1.390 . S
C2103 C2100 1.386 . S
C2104 C2099 1.490 . S
C2104 C2106 1.395 . S
C2104 C2107 1.403 . S
H2105 C2111 0.930 . S
C2106 H2092 0.930 . S
C2106 C2104 1.395 . S
C2106 C2109 1.403 . S
C2107 C2104 1.403 . S
C2107 C2108 1.524 . S
C2107 C2111 1.400 . S
C2108 H2093 0.960 . S
C2108 H2094 0.960 . S
C2108 H2095 0.960 . S
C2108 C2107 1.524 . S
C2109 C2106 1.403 . S
C2109 C2110 1.392 . S
C2109 C2113 1.495 . S
C2110 C2109 1.392 . S
C2110 C2111 1.385 . S
C2110 C2112 1.478 . S
C2111 H2105 0.930 . S
C2111 C2107 1.400 . S
C2111 C2110 1.385 . S
C2112 C2110 1.478 . S
C2112 C2114 1.381 . S
C2112 C2118 1.383 . S
C2113 C2109 1.495 . S
C2113 H2119 0.959 . S
C2113 H2120 0.961 . S
C2113 H2121 0.960 . S
C2114 C2112 1.381 . S
C2114 C2115 1.394 . S
C2114 H2122 0.930 . S
C2115 C2114 1.394 . S
C2115 C2116 1.383 . S
C2115 H2123 0.929 . S
C2116 C2115 1.383 . S
C2116 C2117 1.377 . S
C2117 H2101 0.930 . S
C2117 C2116 1.377 . S
C2117 C2118 1.379 . S
C2118 H2102 0.931 . S
C2118 C2112 1.383 . S
C2118 C2117 1.379 . S
H2119 C2113 0.959 . S
H2120 C2113 0.961 . S
H2121 C2113 0.960 . S
H2122 C2114 0.930 . S
H2123 C2115 0.929 . S
H2124 C2132 0.929 1_556 S
H2125 C2134 0.930 . S
H2126 C2136 0.930 . S
H2127 C2139 0.929 . S
H2128 C2142 0.930 . S
H2129 C2144 0.960 . S
H2130 C2144 0.960 . S
H2131 C2144 0.960 . S
C2132 H2124 0.929 1_554 S
C2132 C2133 1.377 . S
C2132 C2134 1.384 . S
C2133 C2132 1.377 . S
C2133 C2139 1.390 . S
C2134 H2125 0.930 . S
C2134 C2132 1.384 . S
C2134 C2135 1.372 . S
C2135 C2134 1.372 . S
C2135 C2136 1.400 . S
C2135 C2140 1.490 . S
C2136 H2126 0.930 . S
C2136 C2135 1.400 . S
C2136 C2139 1.386 . S
H2137 C2153 0.930 . S
H2138 C2154 0.931 . S
C2139 H2127 0.929 . S
C2139 C2133 1.390 . S
C2139 C2136 1.386 . S
C2140 C2135 1.490 . S
C2140 C2142 1.395 . S
C2140 C2143 1.403 . S
H2141 C2147 0.930 . S
C2142 H2128 0.930 . S
C2142 C2140 1.395 . S
C2142 C2145 1.403 . S
C2143 C2140 1.403 . S
C2143 C2144 1.524 . S
C2143 C2147 1.400 . S
C2144 H2129 0.960 . S
C2144 H2130 0.960 . S
C2144 H2131 0.960 . S
C2144 C2143 1.524 . S
C2145 C2142 1.403 . S
C2145 C2146 1.392 . S
C2145 C2149 1.495 . S
C2146 C2145 1.392 . S
C2146 C2147 1.385 . S
C2146 C2148 1.478 . S
C2147 H2141 0.930 . S
C2147 C2143 1.400 . S
C2147 C2146 1.385 . S
C2148 C2146 1.478 . S
C2148 C2150 1.381 . S
C2148 C2154 1.383 . S
C2149 C2145 1.495 . S
C2149 H2155 0.959 . S
C2149 H2156 0.961 . S
C2149 H2157 0.960 . S
C2150 C2148 1.381 . S
C2150 C2151 1.394 . S
C2150 H2158 0.930 . S
C2151 C2150 1.394 . S
C2151 C2152 1.383 . S
C2151 H2159 0.929 . S
C2152 C2151 1.383 . S
C2152 C2153 1.377 . S
C2153 H2137 0.930 . S
C2153 C2152 1.377 . S
C2153 C2154 1.379 . S
C2154 H2138 0.931 . S
C2154 C2148 1.383 . S
C2154 C2153 1.379 . S
H2155 C2149 0.959 . S
H2156 C2149 0.961 . S
H2157 C2149 0.960 . S
H2158 C2150 0.930 . S
H2159 C2151 0.929 . S
H2160 C2168 0.929 . S
H2161 C2170 0.930 . S
H2162 C2172 0.930 . S
H2163 C2175 0.929 . S
H2164 C2178 0.930 . S
H2165 C2180 0.960 . S
H2166 C2180 0.960 . S
H2167 C2180 0.960 . S
C2168 H2160 0.929 . S
C2168 C2169 1.377 . S
C2168 C2170 1.384 . S
C2169 C2168 1.377 . S
C2169 C2175 1.390 . S
C2170 H2161 0.930 . S
C2170 C2168 1.384 . S
C2170 C2171 1.372 . S
C2171 C2170 1.372 . S
C2171 C2172 1.400 . S
C2171 C2176 1.490 . S
C2172 H2162 0.930 . S
C2172 C2171 1.400 . S
C2172 C2175 1.386 . S
H2173 C2189 0.930 . S
H2174 C2190 0.931 . S
C2175 H2163 0.929 . S
C2175 C2169 1.390 . S
C2175 C2172 1.386 . S
C2176 C2171 1.490 . S
C2176 C2178 1.395 . S
C2176 C2179 1.403 . S
H2177 C2183 0.930 . S
C2178 H2164 0.930 . S
C2178 C2176 1.395 . S
C2178 C2181 1.403 . S
C2179 C2176 1.403 . S
C2179 C2180 1.524 . S
C2179 C2183 1.400 . S
C2180 H2165 0.960 . S
C2180 H2166 0.960 . S
C2180 H2167 0.960 . S
C2180 C2179 1.524 . S
C2181 C2178 1.403 . S
C2181 C2182 1.392 . S
C2181 C2185 1.495 . S
C2182 C2181 1.392 . S
C2182 C2183 1.385 . S
C2182 C2184 1.478 . S
C2183 H2177 0.930 . S
C2183 C2179 1.400 . S
C2183 C2182 1.385 . S
C2184 C2182 1.478 . S
C2184 C2186 1.381 . S
C2184 C2190 1.383 . S
C2185 C2181 1.495 . S
C2185 H2191 0.959 . S
C2185 H2192 0.961 . S
C2185 H2193 0.960 . S
C2186 C2184 1.381 . S
C2186 C2187 1.394 . S
C2186 H2194 0.930 . S
C2187 C2186 1.394 . S
C2187 C2188 1.383 . S
C2187 H2195 0.929 . S
C2188 C2187 1.383 . S
C2188 C2189 1.377 . S
C2189 H2173 0.930 . S
C2189 C2188 1.377 . S
C2189 C2190 1.379 . S
C2190 H2174 0.931 . S
C2190 C2184 1.383 . S
C2190 C2189 1.379 . S
H2191 C2185 0.959 . S
H2192 C2185 0.961 . S
H2193 C2185 0.960 . S
H2194 C2186 0.930 . S
H2195 C2187 0.929 . S
H2196 C2204 0.929 . S
H2197 C2206 0.930 . S
H2198 C2208 0.930 . S
H2199 C2211 0.929 . S
H2200 C2214 0.930 . S
H2201 C2216 0.960 . S
H2202 C2216 0.960 . S
H2203 C2216 0.960 . S
C2204 H2196 0.929 . S
C2204 C2205 1.377 . S
C2204 C2206 1.384 . S
C2205 C2204 1.377 . S
C2205 C2211 1.390 . S
C2206 H2197 0.930 . S
C2206 C2204 1.384 . S
C2206 C2207 1.372 . S
C2207 C2206 1.372 . S
C2207 C2208 1.400 . S
C2207 C2212 1.490 . S
C2208 H2198 0.930 . S
C2208 C2207 1.400 . S
C2208 C2211 1.386 . S
H2209 C2225 0.930 . S
H2210 C2226 0.931 . S
C2211 H2199 0.929 . S
C2211 C2205 1.390 . S
C2211 C2208 1.386 . S
C2212 C2207 1.490 . S
C2212 C2214 1.395 . S
C2212 C2215 1.403 . S
H2213 C2219 0.930 . S
C2214 H2200 0.930 . S
C2214 C2212 1.395 . S
C2214 C2217 1.403 . S
C2215 C2212 1.403 . S
C2215 C2216 1.524 . S
C2215 C2219 1.400 . S
C2216 H2201 0.960 . S
C2216 H2202 0.960 . S
C2216 H2203 0.960 . S
C2216 C2215 1.524 . S
C2217 C2214 1.403 . S
C2217 C2218 1.392 . S
C2217 C2221 1.495 . S
C2218 C2217 1.392 . S
C2218 C2219 1.385 . S
C2218 C2220 1.478 . S
C2219 H2213 0.930 . S
C2219 C2215 1.400 . S
C2219 C2218 1.385 . S
C2220 C2218 1.478 . S
C2220 C2222 1.381 . S
C2220 C2226 1.383 . S
C2221 C2217 1.495 . S
C2221 H2227 0.959 . S
C2221 H2228 0.961 . S
C2221 H2229 0.960 . S
C2222 C2220 1.381 . S
C2222 C2223 1.394 . S
C2222 H2230 0.930 . S
C2223 C2222 1.394 . S
C2223 C2224 1.383 . S
C2223 H2231 0.929 . S
C2224 C2223 1.383 . S
C2224 C2225 1.377 . S
C2225 H2209 0.930 . S
C2225 C2224 1.377 . S
C2225 C2226 1.379 . S
C2226 H2210 0.931 . S
C2226 C2220 1.383 . S
C2226 C2225 1.379 . S
H2227 C2221 0.959 . S
H2228 C2221 0.961 . S
H2229 C2221 0.960 . S
H2230 C2222 0.930 . S
H2231 C2223 0.929 . S
H2232 C2240 0.929 . S
H2233 C2242 0.930 . S
H2234 C2244 0.930 . S
H2235 C2247 0.929 . S
H2236 C2250 0.930 . S
H2237 C2252 0.960 . S
H2238 C2252 0.960 . S
H2239 C2252 0.960 . S
C2240 H2232 0.929 . S
C2240 C2241 1.377 . S
C2240 C2242 1.384 . S
C2241 C2240 1.377 . S
C2241 C2247 1.390 . S
C2242 H2233 0.930 . S
C2242 C2240 1.384 . S
C2242 C2243 1.372 . S
C2243 C2242 1.372 . S
C2243 C2244 1.400 . S
C2243 C2248 1.490 . S
C2244 H2234 0.930 . S
C2244 C2243 1.400 . S
C2244 C2247 1.386 . S
H2245 C2261 0.930 . S
H2246 C2262 0.931 . S
C2247 H2235 0.929 . S
C2247 C2241 1.390 . S
C2247 C2244 1.386 . S
C2248 C2243 1.490 . S
C2248 C2250 1.395 . S
C2248 C2251 1.403 . S
H2249 C2255 0.930 . S
C2250 H2236 0.930 . S
C2250 C2248 1.395 . S
C2250 C2253 1.403 . S
C2251 C2248 1.403 . S
C2251 C2252 1.524 . S
C2251 C2255 1.400 . S
C2252 H2237 0.960 . S
C2252 H2238 0.960 . S
C2252 H2239 0.960 . S
C2252 C2251 1.524 . S
C2253 C2250 1.403 . S
C2253 C2254 1.392 . S
C2253 C2257 1.495 . S
C2254 C2253 1.392 . S
C2254 C2255 1.385 . S
C2254 C2256 1.478 . S
C2255 H2249 0.930 . S
C2255 C2251 1.400 . S
C2255 C2254 1.385 . S
C2256 C2254 1.478 . S
C2256 C2258 1.381 . S
C2256 C2262 1.383 . S
C2257 C2253 1.495 . S
C2257 H2263 0.959 . S
C2257 H2264 0.961 . S
C2257 H2265 0.960 . S
C2258 C2256 1.381 . S
C2258 C2259 1.394 . S
C2258 H2266 0.930 . S
C2259 C2258 1.394 . S
C2259 C2260 1.383 . S
C2259 H2267 0.929 . S
C2260 C2259 1.383 . S
C2260 C2261 1.377 . S
C2261 H2245 0.930 . S
C2261 C2260 1.377 . S
C2261 C2262 1.379 . S
C2262 H2246 0.931 . S
C2262 C2256 1.383 . S
C2262 C2261 1.379 . S
H2263 C2257 0.959 . S
H2264 C2257 0.961 . S
H2265 C2257 0.960 . S
H2266 C2258 0.930 . S
H2267 C2259 0.929 . S
H2268 C2276 0.929 . S
H2269 C2278 0.930 . S
H2270 C2280 0.930 . S
H2271 C2283 0.929 . S
H2272 C2286 0.930 . S
H2273 C2288 0.960 . S
H2274 C2288 0.960 . S
H2275 C2288 0.960 . S
C2276 H2268 0.929 . S
C2276 C2277 1.377 . S
C2276 C2278 1.384 . S
C2277 C2276 1.377 . S
C2277 C2283 1.390 . S
C2278 H2269 0.930 . S
C2278 C2276 1.384 . S
C2278 C2279 1.372 . S
C2279 C2278 1.372 . S
C2279 C2280 1.400 . S
C2279 C2284 1.490 . S
C2280 H2270 0.930 . S
C2280 C2279 1.400 . S
C2280 C2283 1.386 . S
H2281 C2297 0.930 . S
H2282 C2298 0.931 . S
C2283 H2271 0.929 . S
C2283 C2277 1.390 . S
C2283 C2280 1.386 . S
C2284 C2279 1.490 . S
C2284 C2286 1.395 . S
C2284 C2287 1.403 . S
H2285 C2291 0.930 . S
C2286 H2272 0.930 . S
C2286 C2284 1.395 . S
C2286 C2289 1.403 . S
C2287 C2284 1.403 . S
C2287 C2288 1.524 . S
C2287 C2291 1.400 . S
C2288 H2273 0.960 . S
C2288 H2274 0.960 . S
C2288 H2275 0.960 . S
C2288 C2287 1.524 . S
C2289 C2286 1.403 . S
C2289 C2290 1.392 . S
C2289 C2293 1.495 . S
C2290 C2289 1.392 . S
C2290 C2291 1.385 . S
C2290 C2292 1.478 . S
C2291 H2285 0.930 . S
C2291 C2287 1.400 . S
C2291 C2290 1.385 . S
C2292 C2290 1.478 . S
C2292 C2294 1.381 . S
C2292 C2298 1.383 . S
C2293 C2289 1.495 . S
C2293 H2299 0.959 . S
C2293 H2300 0.961 . S
C2293 H2301 0.960 . S
C2294 C2292 1.381 . S
C2294 C2295 1.394 . S
C2294 H2302 0.930 . S
C2295 C2294 1.394 . S
C2295 C2296 1.383 . S
C2295 H2303 0.929 . S
C2296 C2295 1.383 . S
C2296 C2297 1.377 . S
C2297 H2281 0.930 . S
C2297 C2296 1.377 . S
C2297 C2298 1.379 . S
C2298 H2282 0.931 . S
C2298 C2292 1.383 . S
C2298 C2297 1.379 . S
H2299 C2293 0.959 . S
H2300 C2293 0.961 . S
H2301 C2293 0.960 . S
H2302 C2294 0.930 . S
H2303 C2295 0.929 . S
H2304 C2312 0.929 . S
H2305 C2314 0.930 . S
H2306 C2316 0.930 . S
H2307 C2319 0.929 . S
H2308 C2322 0.930 . S
H2309 C2324 0.960 . S
H2310 C2324 0.960 . S
H2311 C2324 0.960 . S
C2312 H2304 0.929 . S
C2312 C2313 1.377 . S
C2312 C2314 1.384 . S
C2313 C2312 1.377 . S
C2313 C2319 1.390 . S
C2314 H2305 0.930 . S
C2314 C2312 1.384 . S
C2314 C2315 1.372 . S
C2315 C2314 1.372 . S
C2315 C2316 1.400 . S
C2315 C2320 1.490 . S
C2316 H2306 0.930 . S
C2316 C2315 1.400 . S
C2316 C2319 1.386 . S
H2317 C2333 0.930 . S
H2318 C2334 0.931 . S
C2319 H2307 0.929 . S
C2319 C2313 1.390 . S
C2319 C2316 1.386 . S
C2320 C2315 1.490 . S
C2320 C2322 1.395 . S
C2320 C2323 1.403 . S
H2321 C2327 0.930 . S
C2322 H2308 0.930 . S
C2322 C2320 1.395 . S
C2322 C2325 1.403 . S
C2323 C2320 1.403 . S
C2323 C2324 1.524 . S
C2323 C2327 1.400 . S
C2324 H2309 0.960 . S
C2324 H2310 0.960 . S
C2324 H2311 0.960 . S
C2324 C2323 1.524 . S
C2325 C2322 1.403 . S
C2325 C2326 1.392 . S
C2325 C2329 1.495 . S
C2326 C2325 1.392 . S
C2326 C2327 1.385 . S
C2326 C2328 1.478 . S
C2327 H2321 0.930 . S
C2327 C2323 1.400 . S
C2327 C2326 1.385 . S
C2328 C2326 1.478 . S
C2328 C2330 1.381 . S
C2328 C2334 1.383 . S
C2329 C2325 1.495 . S
C2329 H2335 0.959 . S
C2329 H2336 0.961 . S
C2329 H2337 0.960 . S
C2330 C2328 1.381 . S
C2330 C2331 1.394 . S
C2330 H2338 0.930 . S
C2331 C2330 1.394 . S
C2331 C2332 1.383 . S
C2331 H2339 0.929 . S
C2332 C2331 1.383 . S
C2332 C2333 1.377 . S
C2333 H2317 0.930 . S
C2333 C2332 1.377 . S
C2333 C2334 1.379 . S
C2334 H2318 0.931 . S
C2334 C2328 1.383 . S
C2334 C2333 1.379 . S
H2335 C2329 0.959 . S
H2336 C2329 0.961 . S
H2337 C2329 0.960 . S
H2338 C2330 0.930 . S
H2339 C2331 0.929 . S
H2340 C2348 0.929 . S
H2341 C2350 0.930 . S
H2342 C2352 0.930 . S
H2343 C2355 0.929 . S
H2344 C2358 0.930 . S
H2345 C2360 0.960 . S
H2346 C2360 0.960 . S
H2347 C2360 0.960 . S
C2348 H2340 0.929 . S
C2348 C2349 1.377 . S
C2348 C2350 1.384 . S
C2349 C2348 1.377 . S
C2349 C2355 1.390 . S
C2350 H2341 0.930 . S
C2350 C2348 1.384 . S
C2350 C2351 1.372 . S
C2351 C2350 1.372 . S
C2351 C2352 1.400 . S
C2351 C2356 1.490 . S
C2352 H2342 0.930 . S
C2352 C2351 1.400 . S
C2352 C2355 1.386 . S
H2353 C2369 0.930 . S
H2354 C2370 0.931 . S
C2355 H2343 0.929 . S
C2355 C2349 1.390 . S
C2355 C2352 1.386 . S
C2356 C2351 1.490 . S
C2356 C2358 1.395 . S
C2356 C2359 1.403 . S
H2357 C2363 0.930 . S
C2358 H2344 0.930 . S
C2358 C2356 1.395 . S
C2358 C2361 1.403 . S
C2359 C2356 1.403 . S
C2359 C2360 1.524 . S
C2359 C2363 1.400 . S
C2360 H2345 0.960 . S
C2360 H2346 0.960 . S
C2360 H2347 0.960 . S
C2360 C2359 1.524 . S
C2361 C2358 1.403 . S
C2361 C2362 1.392 . S
C2361 C2365 1.495 . S
C2362 C2361 1.392 . S
C2362 C2363 1.385 . S
C2362 C2364 1.478 . S
C2363 H2357 0.930 . S
C2363 C2359 1.400 . S
C2363 C2362 1.385 . S
C2364 C2362 1.478 . S
C2364 C2366 1.381 . S
C2364 C2370 1.383 . S
C2365 C2361 1.495 . S
C2365 H2371 0.959 . S
C2365 H2372 0.961 . S
C2365 H2373 0.960 . S
C2366 C2364 1.381 . S
C2366 C2367 1.394 . S
C2366 H2374 0.930 . S
C2367 C2366 1.394 . S
C2367 C2368 1.383 . S
C2367 H2375 0.929 . S
C2368 C2367 1.383 . S
C2368 C2369 1.377 . S
C2369 H2353 0.930 . S
C2369 C2368 1.377 . S
C2369 C2370 1.379 . S
C2370 H2354 0.931 . S
C2370 C2364 1.383 . S
C2370 C2369 1.379 . S
H2371 C2365 0.959 . S
H2372 C2365 0.961 . S
H2373 C2365 0.960 . S
H2374 C2366 0.930 . S
H2375 C2367 0.929 . S
H2376 C2384 0.929 . S
H2377 C2386 0.930 . S
H2378 C2388 0.930 . S
H2379 C2391 0.929 . S
H2380 C2394 0.930 . S
H2381 C2396 0.960 . S
H2382 C2396 0.960 . S
H2383 C2396 0.960 . S
C2384 H2376 0.929 . S
C2384 C2385 1.377 . S
C2384 C2386 1.384 . S
C2385 C2384 1.377 . S
C2385 C2391 1.390 . S
C2386 H2377 0.930 . S
C2386 C2384 1.384 . S
C2386 C2387 1.372 . S
C2387 C2386 1.372 . S
C2387 C2388 1.400 . S
C2387 C2392 1.490 . S
C2388 H2378 0.930 . S
C2388 C2387 1.400 . S
C2388 C2391 1.386 . S
H2389 C2405 0.930 . S
H2390 C2406 0.931 . S
C2391 H2379 0.929 . S
C2391 C2385 1.390 . S
C2391 C2388 1.386 . S
C2392 C2387 1.490 . S
C2392 C2394 1.395 . S
C2392 C2395 1.403 . S
H2393 C2399 0.930 . S
C2394 H2380 0.930 . S
C2394 C2392 1.395 . S
C2394 C2397 1.403 . S
C2395 C2392 1.403 . S
C2395 C2396 1.524 . S
C2395 C2399 1.400 . S
C2396 H2381 0.960 . S
C2396 H2382 0.960 . S
C2396 H2383 0.960 . S
C2396 C2395 1.524 . S
C2397 C2394 1.403 . S
C2397 C2398 1.392 . S
C2397 C2401 1.495 . S
C2398 C2397 1.392 . S
C2398 C2399 1.385 . S
C2398 C2400 1.478 . S
C2399 H2393 0.930 . S
C2399 C2395 1.400 . S
C2399 C2398 1.385 . S
C2400 C2398 1.478 . S
C2400 C2402 1.381 . S
C2400 C2406 1.383 . S
C2401 C2397 1.495 . S
C2401 H2407 0.959 . S
C2401 H2408 0.961 . S
C2401 H2409 0.960 . S
C2402 C2400 1.381 . S
C2402 C2403 1.394 . S
C2402 H2410 0.930 . S
C2403 C2402 1.394 . S
C2403 C2404 1.383 . S
C2403 H2411 0.929 . S
C2404 C2403 1.383 . S
C2404 C2405 1.377 . S
C2405 H2389 0.930 . S
C2405 C2404 1.377 . S
C2405 C2406 1.379 . S
C2406 H2390 0.931 . S
C2406 C2400 1.383 . S
C2406 C2405 1.379 . S
H2407 C2401 0.959 . S
H2408 C2401 0.961 . S
H2409 C2401 0.960 . S
H2410 C2402 0.930 . S
H2411 C2403 0.929 . S
H2412 C2420 0.929 . S
H2413 C2422 0.930 . S
H2414 C2424 0.930 . S
H2415 C2427 0.929 . S
H2416 C2430 0.930 . S
H2417 C2432 0.960 . S
H2418 C2432 0.960 . S
H2419 C2432 0.960 . S
C2420 H2412 0.929 . S
C2420 C2421 1.377 . S
C2420 C2422 1.384 . S
C2421 C2420 1.377 . S
C2421 C2427 1.390 . S
C2422 H2413 0.930 . S
C2422 C2420 1.384 . S
C2422 C2423 1.372 . S
C2423 C2422 1.372 . S
C2423 C2424 1.400 . S
C2423 C2428 1.490 . S
C2424 H2414 0.930 . S
C2424 C2423 1.400 . S
C2424 C2427 1.386 . S
H2425 C2441 0.930 . S
H2426 C2442 0.931 . S
C2427 H2415 0.929 . S
C2427 C2421 1.390 . S
C2427 C2424 1.386 . S
C2428 C2423 1.490 . S
C2428 C2430 1.395 . S
C2428 C2431 1.403 . S
H2429 C2435 0.930 . S
C2430 H2416 0.930 . S
C2430 C2428 1.395 . S
C2430 C2433 1.403 . S
C2431 C2428 1.403 . S
C2431 C2432 1.524 . S
C2431 C2435 1.400 . S
C2432 H2417 0.960 . S
C2432 H2418 0.960 . S
C2432 H2419 0.960 . S
C2432 C2431 1.524 . S
C2433 C2430 1.403 . S
C2433 C2434 1.392 . S
C2433 C2437 1.495 . S
C2434 C2433 1.392 . S
C2434 C2435 1.385 . S
C2434 C2436 1.478 . S
C2435 H2429 0.930 . S
C2435 C2431 1.400 . S
C2435 C2434 1.385 . S
C2436 C2434 1.478 . S
C2436 C2438 1.381 . S
C2436 C2442 1.383 . S
C2437 C2433 1.495 . S
C2437 H2443 0.959 . S
C2437 H2444 0.961 . S
C2437 H2445 0.960 . S
C2438 C2436 1.381 . S
C2438 C2439 1.394 . S
C2438 H2446 0.930 . S
C2439 C2438 1.394 . S
C2439 C2440 1.383 . S
C2439 H2447 0.929 . S
C2440 C2439 1.383 . S
C2440 C2441 1.377 . S
C2441 H2425 0.930 . S
C2441 C2440 1.377 . S
C2441 C2442 1.379 . S
C2442 H2426 0.931 . S
C2442 C2436 1.383 . S
C2442 C2441 1.379 . S
H2443 C2437 0.959 . S
H2444 C2437 0.961 . S
H2445 C2437 0.960 . S
H2446 C2438 0.930 . S
H2447 C2439 0.929 . S
H2448 C2456 0.929 . S
H2449 C2458 0.930 . S
H2450 C2460 0.930 . S
H2451 C2463 0.929 . S
H2452 C2466 0.930 . S
H2453 C2468 0.960 . S
H2454 C2468 0.960 . S
H2455 C2468 0.960 . S
C2456 H2448 0.929 . S
C2456 C2457 1.377 . S
C2456 C2458 1.384 . S
C2457 C2456 1.377 . S
C2457 C2463 1.390 . S
C2458 H2449 0.930 . S
C2458 C2456 1.384 . S
C2458 C2459 1.372 . S
C2459 C2458 1.372 . S
C2459 C2460 1.400 . S
C2459 C2464 1.490 . S
C2460 H2450 0.930 . S
C2460 C2459 1.400 . S
C2460 C2463 1.386 . S
H2461 C2477 0.930 . S
H2462 C2478 0.931 . S
C2463 H2451 0.929 . S
C2463 C2457 1.390 . S
C2463 C2460 1.386 . S
C2464 C2459 1.490 . S
C2464 C2466 1.395 . S
C2464 C2467 1.403 . S
H2465 C2471 0.930 . S
C2466 H2452 0.930 . S
C2466 C2464 1.395 . S
C2466 C2469 1.403 . S
C2467 C2464 1.403 . S
C2467 C2468 1.524 . S
C2467 C2471 1.400 . S
C2468 H2453 0.960 . S
C2468 H2454 0.960 . S
C2468 H2455 0.960 . S
C2468 C2467 1.524 . S
C2469 C2466 1.403 . S
C2469 C2470 1.392 . S
C2469 C2473 1.495 . S
C2470 C2469 1.392 . S
C2470 C2471 1.385 . S
C2470 C2472 1.478 . S
C2471 H2465 0.930 . S
C2471 C2467 1.400 . S
C2471 C2470 1.385 . S
C2472 C2470 1.478 . S
C2472 C2474 1.381 . S
C2472 C2478 1.383 . S
C2473 C2469 1.495 . S
C2473 H2479 0.959 . S
C2473 H2480 0.961 . S
C2473 H2481 0.960 . S
C2474 C2472 1.381 . S
C2474 C2475 1.394 . S
C2474 H2482 0.930 . S
C2475 C2474 1.394 . S
C2475 C2476 1.383 . S
C2475 H2483 0.929 . S
C2476 C2475 1.383 . S
C2476 C2477 1.377 . S
C2477 H2461 0.930 . S
C2477 C2476 1.377 . S
C2477 C2478 1.379 . S
C2478 H2462 0.931 . S
C2478 C2472 1.383 . S
C2478 C2477 1.379 . S
H2479 C2473 0.959 . S
H2480 C2473 0.961 . S
H2481 C2473 0.960 . S
H2482 C2474 0.930 . S
H2483 C2475 0.929 . S
H2484 C2492 0.929 . S
H2485 C2494 0.930 . S
H2486 C2496 0.930 . S
H2487 C2499 0.929 . S
H2488 C2502 0.930 . S
H2489 C2504 0.960 . S
H2490 C2504 0.960 . S
H2491 C2504 0.960 . S
C2492 H2484 0.929 . S
C2492 C2493 1.377 . S
C2492 C2494 1.384 . S
C2493 C2492 1.377 . S
C2493 C2499 1.390 . S
C2494 H2485 0.930 . S
C2494 C2492 1.384 . S
C2494 C2495 1.372 . S
C2495 C2494 1.372 . S
C2495 C2496 1.400 . S
C2495 C2500 1.490 . S
C2496 H2486 0.930 . S
C2496 C2495 1.400 . S
C2496 C2499 1.386 . S
H2497 C2513 0.930 . S
H2498 C2514 0.931 . S
C2499 H2487 0.929 . S
C2499 C2493 1.390 . S
C2499 C2496 1.386 . S
C2500 C2495 1.490 . S
C2500 C2502 1.395 . S
C2500 C2503 1.403 . S
H2501 C2507 0.930 . S
C2502 H2488 0.930 . S
C2502 C2500 1.395 . S
C2502 C2505 1.403 . S
C2503 C2500 1.403 . S
C2503 C2504 1.524 . S
C2503 C2507 1.400 . S
C2504 H2489 0.960 . S
C2504 H2490 0.960 . S
C2504 H2491 0.960 . S
C2504 C2503 1.524 . S
C2505 C2502 1.403 . S
C2505 C2506 1.392 . S
C2505 C2509 1.495 . S
C2506 C2505 1.392 . S
C2506 C2507 1.385 . S
C2506 C2508 1.478 . S
C2507 H2501 0.930 . S
C2507 C2503 1.400 . S
C2507 C2506 1.385 . S
C2508 C2506 1.478 . S
C2508 C2510 1.381 . S
C2508 C2514 1.383 . S
C2509 C2505 1.495 . S
C2509 H2515 0.959 . S
C2509 H2516 0.961 . S
C2509 H2517 0.960 . S
C2510 C2508 1.381 . S
C2510 C2511 1.394 . S
C2510 H2518 0.930 . S
C2511 C2510 1.394 . S
C2511 C2512 1.383 . S
C2511 H2519 0.929 . S
C2512 C2511 1.383 . S
C2512 C2513 1.377 . S
C2513 H2497 0.930 . S
C2513 C2512 1.377 . S
C2513 C2514 1.379 . S
C2514 H2498 0.931 . S
C2514 C2508 1.383 . S
C2514 C2513 1.379 . S
H2515 C2509 0.959 . S
H2516 C2509 0.961 . S
H2517 C2509 0.960 . S
H2518 C2510 0.930 . S
H2519 C2511 0.929 . S
H2520 C2528 0.929 . S
H2521 C2530 0.930 . S
H2522 C2532 0.930 . S
H2523 C2535 0.929 . S
H2524 C2538 0.930 . S
H2525 C2540 0.960 . S
H2526 C2540 0.960 . S
H2527 C2540 0.960 . S
C2528 H2520 0.929 . S
C2528 C2529 1.377 . S
C2528 C2530 1.384 . S
C2529 C2528 1.377 . S
C2529 C2535 1.390 . S
C2530 H2521 0.930 . S
C2530 C2528 1.384 . S
C2530 C2531 1.372 . S
C2531 C2530 1.372 . S
C2531 C2532 1.400 . S
C2531 C2536 1.490 . S
C2532 H2522 0.930 . S
C2532 C2531 1.400 . S
C2532 C2535 1.386 . S
H2533 C2549 0.930 . S
H2534 C2550 0.931 . S
C2535 H2523 0.929 . S
C2535 C2529 1.390 . S
C2535 C2532 1.386 . S
C2536 C2531 1.490 . S
C2536 C2538 1.395 . S
C2536 C2539 1.403 . S
H2537 C2543 0.930 . S
C2538 H2524 0.930 . S
C2538 C2536 1.395 . S
C2538 C2541 1.403 . S
C2539 C2536 1.403 . S
C2539 C2540 1.524 . S
C2539 C2543 1.400 . S
C2540 H2525 0.960 . S
C2540 H2526 0.960 . S
C2540 H2527 0.960 . S
C2540 C2539 1.524 . S
C2541 C2538 1.403 . S
C2541 C2542 1.392 . S
C2541 C2545 1.495 . S
C2542 C2541 1.392 . S
C2542 C2543 1.385 . S
C2542 C2544 1.478 . S
C2543 H2537 0.930 . S
C2543 C2539 1.400 . S
C2543 C2542 1.385 . S
C2544 C2542 1.478 . S
C2544 C2546 1.381 . S
C2544 C2550 1.383 . S
C2545 C2541 1.495 . S
C2545 H2551 0.959 . S
C2545 H2552 0.961 . S
C2545 H2553 0.960 . S
C2546 C2544 1.381 . S
C2546 C2547 1.394 . S
C2546 H2554 0.930 . S
C2547 C2546 1.394 . S
C2547 C2548 1.383 . S
C2547 H2555 0.929 . S
C2548 C2547 1.383 . S
C2548 C2549 1.377 . S
C2549 H2533 0.930 . S
C2549 C2548 1.377 . S
C2549 C2550 1.379 . S
C2550 H2534 0.931 . S
C2550 C2544 1.383 . S
C2550 C2549 1.379 . S
H2551 C2545 0.959 . S
H2552 C2545 0.961 . S
H2553 C2545 0.960 . S
H2554 C2546 0.930 . S
H2555 C2547 0.929 . S
H2556 C2564 0.929 . S
H2557 C2566 0.930 . S
H2558 C2568 0.930 . S
H2559 C2571 0.929 . S
H2560 C2574 0.930 . S
H2561 C2576 0.960 . S
H2562 C2576 0.960 . S
H2563 C2576 0.960 . S
C2564 H2556 0.929 . S
C2564 C2565 1.377 . S
C2564 C2566 1.384 . S
C2565 C2564 1.377 . S
C2565 C2571 1.390 . S
C2566 H2557 0.930 . S
C2566 C2564 1.384 . S
C2566 C2567 1.372 . S
C2567 C2566 1.372 . S
C2567 C2568 1.400 . S
C2567 C2572 1.490 . S
C2568 H2558 0.930 . S
C2568 C2567 1.400 . S
C2568 C2571 1.386 . S
H2569 C2585 0.930 . S
H2570 C2586 0.931 . S
C2571 H2559 0.929 . S
C2571 C2565 1.390 . S
C2571 C2568 1.386 . S
C2572 C2567 1.490 . S
C2572 C2574 1.395 . S
C2572 C2575 1.403 . S
H2573 C2579 0.930 . S
C2574 H2560 0.930 . S
C2574 C2572 1.395 . S
C2574 C2577 1.403 . S
C2575 C2572 1.403 . S
C2575 C2576 1.524 . S
C2575 C2579 1.400 . S
C2576 H2561 0.960 . S
C2576 H2562 0.960 . S
C2576 H2563 0.960 . S
C2576 C2575 1.524 . S
C2577 C2574 1.403 . S
C2577 C2578 1.392 . S
C2577 C2581 1.495 . S
C2578 C2577 1.392 . S
C2578 C2579 1.385 . S
C2578 C2580 1.478 . S
C2579 H2573 0.930 . S
C2579 C2575 1.400 . S
C2579 C2578 1.385 . S
C2580 C2578 1.478 . S
C2580 C2582 1.381 . S
C2580 C2586 1.383 . S
C2581 C2577 1.495 . S
C2581 H2587 0.959 . S
C2581 H2588 0.961 . S
C2581 H2589 0.960 . S
C2582 C2580 1.381 . S
C2582 C2583 1.394 . S
C2582 H2590 0.930 . S
C2583 C2582 1.394 . S
C2583 C2584 1.383 . S
C2583 H2591 0.929 . S
C2584 C2583 1.383 . S
C2584 C2585 1.377 . S
C2585 H2569 0.930 . S
C2585 C2584 1.377 . S
C2585 C2586 1.379 . S
C2586 H2570 0.931 . S
C2586 C2580 1.383 . S
C2586 C2585 1.379 . S
H2587 C2581 0.959 . S
H2588 C2581 0.961 . S
H2589 C2581 0.960 . S
H2590 C2582 0.930 . S
H2591 C2583 0.929 . S
H2592 C2600 0.929 . S
H2593 C2602 0.930 . S
H2594 C2604 0.930 . S
H2595 C2607 0.929 . S
H2596 C2610 0.930 . S
H2597 C2612 0.960 . S
H2598 C2612 0.960 . S
H2599 C2612 0.960 . S
C2600 H2592 0.929 . S
C2600 C2601 1.377 . S
C2600 C2602 1.384 . S
C2601 C2600 1.377 . S
C2601 C2607 1.390 . S
C2602 H2593 0.930 . S
C2602 C2600 1.384 . S
C2602 C2603 1.372 . S
C2603 C2602 1.372 . S
C2603 C2604 1.400 . S
C2603 C2608 1.490 . S
C2604 H2594 0.930 . S
C2604 C2603 1.400 . S
C2604 C2607 1.386 . S
H2605 C2621 0.930 . S
H2606 C2622 0.931 . S
C2607 H2595 0.929 . S
C2607 C2601 1.390 . S
C2607 C2604 1.386 . S
C2608 C2603 1.490 . S
C2608 C2610 1.395 . S
C2608 C2611 1.403 . S
H2609 C2615 0.930 . S
C2610 H2596 0.930 . S
C2610 C2608 1.395 . S
C2610 C2613 1.403 . S
C2611 C2608 1.403 . S
C2611 C2612 1.524 . S
C2611 C2615 1.400 . S
C2612 H2597 0.960 . S
C2612 H2598 0.960 . S
C2612 H2599 0.960 . S
C2612 C2611 1.524 . S
C2613 C2610 1.403 . S
C2613 C2614 1.392 . S
C2613 C2617 1.495 . S
C2614 C2613 1.392 . S
C2614 C2615 1.385 . S
C2614 C2616 1.478 . S
C2615 H2609 0.930 . S
C2615 C2611 1.400 . S
C2615 C2614 1.385 . S
C2616 C2614 1.478 . S
C2616 C2618 1.381 . S
C2616 C2622 1.383 . S
C2617 C2613 1.495 . S
C2617 H2623 0.959 . S
C2617 H2624 0.961 . S
C2617 H2625 0.960 . S
C2618 C2616 1.381 . S
C2618 C2619 1.394 . S
C2618 H2626 0.930 . S
C2619 C2618 1.394 . S
C2619 C2620 1.383 . S
C2619 H2627 0.929 . S
C2620 C2619 1.383 . S
C2620 C2621 1.377 . S
C2621 H2605 0.930 . S
C2621 C2620 1.377 . S
C2621 C2622 1.379 . S
C2622 H2606 0.931 . S
C2622 C2616 1.383 . S
C2622 C2621 1.379 . S
H2623 C2617 0.959 . S
H2624 C2617 0.961 . S
H2625 C2617 0.960 . S
H2626 C2618 0.930 . S
H2627 C2619 0.929 . S
H2628 C2636 0.929 . S
H2629 C2638 0.930 . S
H2630 C2640 0.930 . S
H2631 C2643 0.929 . S
H2632 C2646 0.930 . S
H2633 C2648 0.960 . S
H2634 C2648 0.960 . S
H2635 C2648 0.960 . S
C2636 H2628 0.929 . S
C2636 C2637 1.377 . S
C2636 C2638 1.384 . S
C2637 C2636 1.377 . S
C2637 C2643 1.390 . S
C2638 H2629 0.930 . S
C2638 C2636 1.384 . S
C2638 C2639 1.372 . S
C2639 C2638 1.372 . S
C2639 C2640 1.400 . S
C2639 C2644 1.490 . S
C2640 H2630 0.930 . S
C2640 C2639 1.400 . S
C2640 C2643 1.386 . S
H2641 C2657 0.930 . S
H2642 C2658 0.931 . S
C2643 H2631 0.929 . S
C2643 C2637 1.390 . S
C2643 C2640 1.386 . S
C2644 C2639 1.490 . S
C2644 C2646 1.395 . S
C2644 C2647 1.403 . S
H2645 C2651 0.930 . S
C2646 H2632 0.930 . S
C2646 C2644 1.395 . S
C2646 C2649 1.403 . S
C2647 C2644 1.403 . S
C2647 C2648 1.524 . S
C2647 C2651 1.400 . S
C2648 H2633 0.960 . S
C2648 H2634 0.960 . S
C2648 H2635 0.960 . S
C2648 C2647 1.524 . S
C2649 C2646 1.403 . S
C2649 C2650 1.392 . S
C2649 C2653 1.495 . S
C2650 C2649 1.392 . S
C2650 C2651 1.385 . S
C2650 C2652 1.478 . S
C2651 H2645 0.930 . S
C2651 C2647 1.400 . S
C2651 C2650 1.385 . S
C2652 C2650 1.478 . S
C2652 C2654 1.381 . S
C2652 C2658 1.383 . S
C2653 C2649 1.495 . S
C2653 H2659 0.959 . S
C2653 H2660 0.961 . S
C2653 H2661 0.960 . S
C2654 C2652 1.381 . S
C2654 C2655 1.394 . S
C2654 H2662 0.930 . S
C2655 C2654 1.394 . S
C2655 C2656 1.383 . S
C2655 H2663 0.929 . S
C2656 C2655 1.383 . S
C2656 C2657 1.377 . S
C2657 H2641 0.930 . S
C2657 C2656 1.377 . S
C2657 C2658 1.379 . S
C2658 H2642 0.931 . S
C2658 C2652 1.383 . S
C2658 C2657 1.379 . S
H2659 C2653 0.959 . S
H2660 C2653 0.961 . S
H2661 C2653 0.960 . S
H2662 C2654 0.930 . S
H2663 C2655 0.929 . S
H2664 C2672 0.929 . S
H2665 C2674 0.930 . S
H2666 C2676 0.930 . S
H2667 C2679 0.929 . S
H2668 C2682 0.930 . S
H2669 C2684 0.960 . S
H2670 C2684 0.960 . S
H2671 C2684 0.960 . S
C2672 H2664 0.929 . S
C2672 C2673 1.377 . S
C2672 C2674 1.384 . S
C2673 C2672 1.377 . S
C2673 C2679 1.390 . S
C2674 H2665 0.930 . S
C2674 C2672 1.384 . S
C2674 C2675 1.372 . S
C2675 C2674 1.372 . S
C2675 C2676 1.400 . S
C2675 C2680 1.490 . S
C2676 H2666 0.930 . S
C2676 C2675 1.400 . S
C2676 C2679 1.386 . S
H2677 C2693 0.930 . S
H2678 C2694 0.931 . S
C2679 H2667 0.929 . S
C2679 C2673 1.390 . S
C2679 C2676 1.386 . S
C2680 C2675 1.490 . S
C2680 C2682 1.395 . S
C2680 C2683 1.403 . S
H2681 C2687 0.930 . S
C2682 H2668 0.930 . S
C2682 C2680 1.395 . S
C2682 C2685 1.403 . S
C2683 C2680 1.403 . S
C2683 C2684 1.524 . S
C2683 C2687 1.400 . S
C2684 H2669 0.960 . S
C2684 H2670 0.960 . S
C2684 H2671 0.960 . S
C2684 C2683 1.524 . S
C2685 C2682 1.403 . S
C2685 C2686 1.392 . S
C2685 C2689 1.495 . S
C2686 C2685 1.392 . S
C2686 C2687 1.385 . S
C2686 C2688 1.478 . S
C2687 H2681 0.930 . S
C2687 C2683 1.400 . S
C2687 C2686 1.385 . S
C2688 C2686 1.478 . S
C2688 C2690 1.381 . S
C2688 C2694 1.383 . S
C2689 C2685 1.495 . S
C2689 H2695 0.959 . S
C2689 H2696 0.961 . S
C2689 H2697 0.960 . S
C2690 C2688 1.381 . S
C2690 C2691 1.394 . S
C2690 H2698 0.930 . S
C2691 C2690 1.394 . S
C2691 C2692 1.383 . S
C2691 H2699 0.929 . S
C2692 C2691 1.383 . S
C2692 C2693 1.377 . S
C2693 H2677 0.930 . S
C2693 C2692 1.377 . S
C2693 C2694 1.379 . S
C2694 H2678 0.931 . S
C2694 C2688 1.383 . S
C2694 C2693 1.379 . S
H2695 C2689 0.959 . S
H2696 C2689 0.961 . S
H2697 C2689 0.960 . S
H2698 C2690 0.930 . S
H2699 C2691 0.929 . S
H2700 C2708 0.929 . S
H2701 C2710 0.930 . S
H2702 C2712 0.930 . S
H2703 C2715 0.929 . S
H2704 C2718 0.930 . S
H2705 C2720 0.960 . S
H2706 C2720 0.960 . S
H2707 C2720 0.960 . S
C2708 H2700 0.929 . S
C2708 C2709 1.377 . S
C2708 C2710 1.384 . S
C2709 C2708 1.377 . S
C2709 C2715 1.390 . S
C2710 H2701 0.930 . S
C2710 C2708 1.384 . S
C2710 C2711 1.372 . S
C2711 C2710 1.372 . S
C2711 C2712 1.400 . S
C2711 C2716 1.490 . S
C2712 H2702 0.930 . S
C2712 C2711 1.400 . S
C2712 C2715 1.386 . S
H2713 C2729 0.930 . S
H2714 C2730 0.931 . S
C2715 H2703 0.929 . S
C2715 C2709 1.390 . S
C2715 C2712 1.386 . S
C2716 C2711 1.490 . S
C2716 C2718 1.395 . S
C2716 C2719 1.403 . S
H2717 C2723 0.930 . S
C2718 H2704 0.930 . S
C2718 C2716 1.395 . S
C2718 C2721 1.403 . S
C2719 C2716 1.403 . S
C2719 C2720 1.524 . S
C2719 C2723 1.400 . S
C2720 H2705 0.960 . S
C2720 H2706 0.960 . S
C2720 H2707 0.960 . S
C2720 C2719 1.524 . S
C2721 C2718 1.403 . S
C2721 C2722 1.392 . S
C2721 C2725 1.495 . S
C2722 C2721 1.392 . S
C2722 C2723 1.385 . S
C2722 C2724 1.478 . S
C2723 H2717 0.930 . S
C2723 C2719 1.400 . S
C2723 C2722 1.385 . S
C2724 C2722 1.478 . S
C2724 C2726 1.381 . S
C2724 C2730 1.383 . S
C2725 C2721 1.495 . S
C2725 H2731 0.959 . S
C2725 H2732 0.961 . S
C2725 H2733 0.960 . S
C2726 C2724 1.381 . S
C2726 C2727 1.394 . S
C2726 H2734 0.930 . S
C2727 C2726 1.394 . S
C2727 C2728 1.383 . S
C2727 H2735 0.929 . S
C2728 C2727 1.383 . S
C2728 C2729 1.377 . S
C2729 H2713 0.930 . S
C2729 C2728 1.377 . S
C2729 C2730 1.379 . S
C2730 H2714 0.931 . S
C2730 C2724 1.383 . S
C2730 C2729 1.379 . S
H2731 C2725 0.959 . S
H2732 C2725 0.961 . S
H2733 C2725 0.960 . S
H2734 C2726 0.930 . S
H2735 C2727 0.929 . S
H2736 C2744 0.929 . S
H2737 C2746 0.930 . S
H2738 C2748 0.930 . S
H2739 C2751 0.929 . S
H2740 C2754 0.930 . S
H2741 C2756 0.960 . S
H2742 C2756 0.960 . S
H2743 C2756 0.960 . S
C2744 H2736 0.929 . S
C2744 C2745 1.377 . S
C2744 C2746 1.384 . S
C2745 C2744 1.377 . S
C2745 C2751 1.390 . S
C2746 H2737 0.930 . S
C2746 C2744 1.384 . S
C2746 C2747 1.372 . S
C2747 C2746 1.372 . S
C2747 C2748 1.400 . S
C2747 C2752 1.490 . S
C2748 H2738 0.930 . S
C2748 C2747 1.400 . S
C2748 C2751 1.386 . S
H2749 C2765 0.930 . S
H2750 C2766 0.931 . S
C2751 H2739 0.929 . S
C2751 C2745 1.390 . S
C2751 C2748 1.386 . S
C2752 C2747 1.490 . S
C2752 C2754 1.395 . S
C2752 C2755 1.403 . S
H2753 C2759 0.930 . S
C2754 H2740 0.930 . S
C2754 C2752 1.395 . S
C2754 C2757 1.403 . S
C2755 C2752 1.403 . S
C2755 C2756 1.524 . S
C2755 C2759 1.400 . S
C2756 H2741 0.960 . S
C2756 H2742 0.960 . S
C2756 H2743 0.960 . S
C2756 C2755 1.524 . S
C2757 C2754 1.403 . S
C2757 C2758 1.392 . S
C2757 C2761 1.495 . S
C2758 C2757 1.392 . S
C2758 C2759 1.385 . S
C2758 C2760 1.478 . S
C2759 H2753 0.930 . S
C2759 C2755 1.400 . S
C2759 C2758 1.385 . S
C2760 C2758 1.478 . S
C2760 C2762 1.381 . S
C2760 C2766 1.383 . S
C2761 C2757 1.495 . S
C2761 H2767 0.959 . S
C2761 H2768 0.961 . S
C2761 H2769 0.960 . S
C2762 C2760 1.381 . S
C2762 C2763 1.394 . S
C2762 H2770 0.930 . S
C2763 C2762 1.394 . S
C2763 C2764 1.383 . S
C2763 H2771 0.929 . S
C2764 C2763 1.383 . S
C2764 C2765 1.377 . S
C2765 H2749 0.930 . S
C2765 C2764 1.377 . S
C2765 C2766 1.379 . S
C2766 H2750 0.931 . S
C2766 C2760 1.383 . S
C2766 C2765 1.379 . S
H2767 C2761 0.959 . S
H2768 C2761 0.961 . S
H2769 C2761 0.960 . S
H2770 C2762 0.930 . S
H2771 C2763 0.929 . S
H2772 C2780 0.929 . S
H2773 C2782 0.930 . S
H2774 C2784 0.930 . S
H2775 C2787 0.929 . S
H2776 C2790 0.930 . S
H2777 C2792 0.960 . S
H2778 C2792 0.960 . S
H2779 C2792 0.960 . S
C2780 H2772 0.929 . S
C2780 C2781 1.377 . S
C2780 C2782 1.384 . S
C2781 C2780 1.377 . S
C2781 C2787 1.390 . S
C2782 H2773 0.930 . S
C2782 C2780 1.384 . S
C2782 C2783 1.372 . S
C2783 C2782 1.372 . S
C2783 C2784 1.400 . S
C2783 C2788 1.490 . S
C2784 H2774 0.930 . S
C2784 C2783 1.400 . S
C2784 C2787 1.386 . S
H2785 C2801 0.930 . S
H2786 C2802 0.931 . S
C2787 H2775 0.929 . S
C2787 C2781 1.390 . S
C2787 C2784 1.386 . S
C2788 C2783 1.490 . S
C2788 C2790 1.395 . S
C2788 C2791 1.403 . S
H2789 C2795 0.930 . S
C2790 H2776 0.930 . S
C2790 C2788 1.395 . S
C2790 C2793 1.403 . S
C2791 C2788 1.403 . S
C2791 C2792 1.524 . S
C2791 C2795 1.400 . S
C2792 H2777 0.960 . S
C2792 H2778 0.960 . S
C2792 H2779 0.960 . S
C2792 C2791 1.524 . S
C2793 C2790 1.403 . S
C2793 C2794 1.392 . S
C2793 C2797 1.495 . S
C2794 C2793 1.392 . S
C2794 C2795 1.385 . S
C2794 C2796 1.478 . S
C2795 H2789 0.930 . S
C2795 C2791 1.400 . S
C2795 C2794 1.385 . S
C2796 C2794 1.478 . S
C2796 C2798 1.381 . S
C2796 C2802 1.383 . S
C2797 C2793 1.495 . S
C2797 H2803 0.959 . S
C2797 H2804 0.961 . S
C2797 H2805 0.960 . S
C2798 C2796 1.381 . S
C2798 C2799 1.394 . S
C2798 H2806 0.930 . S
C2799 C2798 1.394 . S
C2799 C2800 1.383 . S
C2799 H2807 0.929 . S
C2800 C2799 1.383 . S
C2800 C2801 1.377 . S
C2801 H2785 0.930 . S
C2801 C2800 1.377 . S
C2801 C2802 1.379 . S
C2802 H2786 0.931 . S
C2802 C2796 1.383 . S
C2802 C2801 1.379 . S
H2803 C2797 0.959 . S
H2804 C2797 0.961 . S
H2805 C2797 0.960 . S
H2806 C2798 0.930 . S
H2807 C2799 0.929 . S
H2808 C2816 0.929 . S
H2809 C2818 0.930 . S
H2810 C2820 0.930 . S
H2811 C2823 0.929 . S
H2812 C2826 0.930 . S
H2813 C2828 0.960 . S
H2814 C2828 0.960 . S
H2815 C2828 0.960 . S
C2816 H2808 0.929 . S
C2816 C2817 1.377 . S
C2816 C2818 1.384 . S
C2817 C2816 1.377 . S
C2817 C2823 1.390 . S
C2818 H2809 0.930 . S
C2818 C2816 1.384 . S
C2818 C2819 1.372 . S
C2819 C2818 1.372 . S
C2819 C2820 1.400 . S
C2819 C2824 1.490 . S
C2820 H2810 0.930 . S
C2820 C2819 1.400 . S
C2820 C2823 1.386 . S
H2821 C2837 0.930 . S
H2822 C2838 0.931 . S
C2823 H2811 0.929 . S
C2823 C2817 1.390 . S
C2823 C2820 1.386 . S
C2824 C2819 1.490 . S
C2824 C2826 1.395 . S
C2824 C2827 1.403 . S
H2825 C2831 0.930 . S
C2826 H2812 0.930 . S
C2826 C2824 1.395 . S
C2826 C2829 1.403 . S
C2827 C2824 1.403 . S
C2827 C2828 1.524 . S
C2827 C2831 1.400 . S
C2828 H2813 0.960 . S
C2828 H2814 0.960 . S
C2828 H2815 0.960 . S
C2828 C2827 1.524 . S
C2829 C2826 1.403 . S
C2829 C2830 1.392 . S
C2829 C2833 1.495 . S
C2830 C2829 1.392 . S
C2830 C2831 1.385 . S
C2830 C2832 1.478 . S
C2831 H2825 0.930 . S
C2831 C2827 1.400 . S
C2831 C2830 1.385 . S
C2832 C2830 1.478 . S
C2832 C2834 1.381 . S
C2832 C2838 1.383 . S
C2833 C2829 1.495 . S
C2833 H2839 0.959 . S
C2833 H2840 0.961 . S
C2833 H2841 0.960 . S
C2834 C2832 1.381 . S
C2834 C2835 1.394 . S
C2834 H2842 0.930 . S
C2835 C2834 1.394 . S
C2835 C2836 1.383 . S
C2835 H2843 0.929 . S
C2836 C2835 1.383 . S
C2836 C2837 1.377 . S
C2837 H2821 0.930 . S
C2837 C2836 1.377 . S
C2837 C2838 1.379 . S
C2838 H2822 0.931 . S
C2838 C2832 1.383 . S
C2838 C2837 1.379 . S
H2839 C2833 0.959 . S
H2840 C2833 0.961 . S
H2841 C2833 0.960 . S
H2842 C2834 0.930 . S
H2843 C2835 0.929 . S
H2844 C2852 0.929 . S
H2845 C2854 0.930 . S
H2846 C2856 0.930 . S
H2847 C2859 0.929 . S
H2848 C2862 0.930 . S
H2849 C2864 0.960 . S
H2850 C2864 0.960 . S
H2851 C2864 0.960 . S
C2852 H2844 0.929 . S
C2852 C2853 1.377 . S
C2852 C2854 1.384 . S
C2853 C2852 1.377 . S
C2853 C2859 1.390 . S
C2854 H2845 0.930 . S
C2854 C2852 1.384 . S
C2854 C2855 1.372 . S
C2855 C2854 1.372 . S
C2855 C2856 1.400 . S
C2855 C2860 1.490 . S
C2856 H2846 0.930 . S
C2856 C2855 1.400 . S
C2856 C2859 1.386 . S
H2857 C2873 0.930 . S
H2858 C2874 0.931 . S
C2859 H2847 0.929 . S
C2859 C2853 1.390 . S
C2859 C2856 1.386 . S
C2860 C2855 1.490 . S
C2860 C2862 1.395 . S
C2860 C2863 1.403 . S
H2861 C2867 0.930 . S
C2862 H2848 0.930 . S
C2862 C2860 1.395 . S
C2862 C2865 1.403 1_455 S
C2863 C2860 1.403 . S
C2863 C2864 1.524 . S
C2863 C2867 1.400 1_455 S
C2864 H2849 0.960 . S
C2864 H2850 0.960 . S
C2864 H2851 0.960 . S
C2864 C2863 1.524 . S
C2865 C2862 1.403 1_655 S
C2865 C2866 1.392 . S
C2865 C2869 1.495 . S
C2866 C2865 1.392 . S
C2866 C2867 1.385 . S
C2866 C2868 1.478 . S
C2867 H2861 0.930 . S
C2867 C2863 1.400 1_655 S
C2867 C2866 1.385 . S
C2868 C2866 1.478 . S
C2868 C2870 1.381 . S
C2868 C2874 1.383 . S
C2869 C2865 1.495 . S
C2869 H2875 0.959 . S
C2869 H2876 0.961 . S
C2869 H2877 0.960 . S
C2870 C2868 1.381 . S
C2870 C2871 1.394 . S
C2870 H2878 0.930 . S
C2871 C2870 1.394 . S
C2871 C2872 1.383 . S
C2871 H2879 0.929 . S
C2872 C2871 1.383 . S
C2872 C2873 1.377 . S
C2873 H2857 0.930 . S
C2873 C2872 1.377 . S
C2873 C2874 1.379 . S
C2874 H2858 0.931 . S
C2874 C2868 1.383 . S
C2874 C2873 1.379 . S
H2875 C2869 0.959 . S
H2876 C2869 0.961 . S
H2877 C2869 0.960 . S
H2878 C2870 0.930 . S
H2879 C2871 0.929 . S
H2880 C2888 0.929 . S
H2881 C2890 0.930 . S
H2882 C2892 0.930 . S
H2883 C2895 0.929 . S
H2884 C2898 0.930 . S
H2885 C2900 0.960 . S
H2886 C2900 0.960 . S
H2887 C2900 0.960 . S
C2888 H2880 0.929 . S
C2888 C2889 1.377 . S
C2888 C2890 1.384 . S
C2889 C2888 1.377 . S
C2889 C2895 1.390 . S
C2890 H2881 0.930 . S
C2890 C2888 1.384 . S
C2890 C2891 1.372 . S
C2891 C2890 1.372 . S
C2891 C2892 1.400 . S
C2891 C2896 1.490 . S
C2892 H2882 0.930 . S
C2892 C2891 1.400 . S
C2892 C2895 1.386 . S
H2893 C2909 0.930 . S
H2894 C2910 0.931 . S
C2895 H2883 0.929 . S
C2895 C2889 1.390 . S
C2895 C2892 1.386 . S
C2896 C2891 1.490 . S
C2896 C2898 1.395 . S
C2896 C2899 1.403 . S
H2897 C2903 0.930 . S
C2898 H2884 0.930 . S
C2898 C2896 1.395 . S
C2898 C2901 1.403 . S
C2899 C2896 1.403 . S
C2899 C2900 1.524 . S
C2899 C2903 1.400 . S
C2900 H2885 0.960 . S
C2900 H2886 0.960 . S
C2900 H2887 0.960 . S
C2900 C2899 1.524 . S
C2901 C2898 1.403 . S
C2901 C2902 1.392 . S
C2901 C2905 1.495 . S
C2902 C2901 1.392 . S
C2902 C2903 1.385 . S
C2902 C2904 1.478 . S
C2903 H2897 0.930 . S
C2903 C2899 1.400 . S
C2903 C2902 1.385 . S
C2904 C2902 1.478 . S
C2904 C2906 1.381 . S
C2904 C2910 1.383 . S
C2905 C2901 1.495 . S
C2905 H2911 0.959 . S
C2905 H2912 0.961 . S
C2905 H2913 0.960 . S
C2906 C2904 1.381 . S
C2906 C2907 1.394 . S
C2906 H2914 0.930 . S
C2907 C2906 1.394 . S
C2907 C2908 1.383 . S
C2907 H2915 0.929 . S
C2908 C2907 1.383 . S
C2908 C2909 1.377 . S
C2909 H2893 0.930 . S
C2909 C2908 1.377 . S
C2909 C2910 1.379 . S
C2910 H2894 0.931 . S
C2910 C2904 1.383 . S
C2910 C2909 1.379 . S
H2911 C2905 0.959 . S
H2912 C2905 0.961 . S
H2913 C2905 0.960 . S
H2914 C2906 0.930 . S
H2915 C2907 0.929 . S
H2916 C2924 0.929 . S
H2917 C2926 0.930 . S
H2918 C2928 0.930 . S
H2919 C2931 0.929 . S
H2920 C2934 0.930 . S
H2921 C2936 0.960 . S
H2922 C2936 0.960 . S
H2923 C2936 0.960 . S
C2924 H2916 0.929 . S
C2924 C2925 1.377 . S
C2924 C2926 1.384 . S
C2925 C2924 1.377 . S
C2925 C2931 1.390 . S
C2926 H2917 0.930 . S
C2926 C2924 1.384 . S
C2926 C2927 1.372 . S
C2927 C2926 1.372 . S
C2927 C2928 1.400 . S
C2927 C2932 1.490 . S
C2928 H2918 0.930 . S
C2928 C2927 1.400 . S
C2928 C2931 1.386 . S
H2929 C2945 0.930 . S
H2930 C2946 0.931 . S
C2931 H2919 0.929 . S
C2931 C2925 1.390 . S
C2931 C2928 1.386 . S
C2932 C2927 1.490 . S
C2932 C2934 1.395 . S
C2932 C2935 1.403 . S
H2933 C2939 0.930 . S
C2934 H2920 0.930 . S
C2934 C2932 1.395 . S
C2934 C2937 1.403 1_545 S
C2935 C2932 1.403 . S
C2935 C2936 1.524 . S
C2935 C2939 1.400 1_545 S
C2936 H2921 0.960 . S
C2936 H2922 0.960 . S
C2936 H2923 0.960 . S
C2936 C2935 1.524 . S
C2937 C2934 1.403 1_565 S
C2937 C2938 1.392 . S
C2937 C2941 1.495 . S
C2938 C2937 1.392 . S
C2938 C2939 1.385 . S
C2938 C2940 1.478 . S
C2939 H2933 0.930 . S
C2939 C2935 1.400 1_565 S
C2939 C2938 1.385 . S
C2940 C2938 1.478 . S
C2940 C2942 1.381 . S
C2940 C2946 1.383 . S
C2941 C2937 1.495 . S
C2941 H2947 0.959 . S
C2941 H2948 0.961 . S
C2941 H2949 0.960 . S
C2942 C2940 1.381 . S
C2942 C2943 1.394 . S
C2942 H2950 0.930 . S
C2943 C2942 1.394 . S
C2943 C2944 1.383 . S
C2943 H2951 0.929 . S
C2944 C2943 1.383 . S
C2944 C2945 1.377 . S
C2945 H2929 0.930 . S
C2945 C2944 1.377 . S
C2945 C2946 1.379 . S
C2946 H2930 0.931 . S
C2946 C2940 1.383 . S
C2946 C2945 1.379 . S
H2947 C2941 0.959 . S
H2948 C2941 0.961 . S
H2949 C2941 0.960 . S
H2950 C2942 0.930 . S
H2951 C2943 0.929 . S
H2952 C2960 0.929 . S
H2953 C2962 0.930 . S
H2954 C2964 0.930 . S
H2955 C2967 0.929 . S
H2956 C2970 0.930 . S
H2957 C2972 0.960 1_565 S
H2958 C2972 0.960 1_556 S
H2959 C2972 0.960 . S
C2960 H2952 0.929 . S
C2960 C2961 1.377 1_556 S
C2960 C2962 1.384 . S
C2961 C2960 1.377 1_554 S
C2961 C2967 1.390 . S
C2962 H2953 0.930 . S
C2962 C2960 1.384 . S
C2962 C2963 1.372 1_556 S
C2963 C2962 1.372 1_554 S
C2963 C2964 1.400 . S
C2963 C2968 1.490 . S
C2964 H2954 0.930 . S
C2964 C2963 1.400 . S
C2964 C2967 1.386 . S
H2965 C2981 0.930 . S
H2966 C2982 0.931 . S
C2967 H2955 0.929 . S
C2967 C2961 1.390 . S
C2967 C2964 1.386 . S
C2968 C2963 1.490 . S
C2968 C2970 1.395 1_554 S
C2968 C2971 1.403 . S
H2969 C2975 0.930 1_554 S
C2970 H2956 0.930 . S
C2970 C2968 1.395 1_556 S
C2970 C2973 1.394 1_545 S
C2971 C2968 1.403 . S
C2971 C2972 1.524 . S
C2971 C2975 1.399 1_544 S
C2972 H2957 0.960 1_545 S
C2972 H2958 0.960 1_554 S
C2972 H2959 0.960 . S
C2972 C2971 1.524 . S
C2973 C2970 1.394 1_565 S
C2973 C2974 1.396 . S
C2973 C2977 1.480 . S
C2974 C2973 1.396 . S
C2974 C2975 1.386 . S
C2974 C2976 1.478 . S
C2975 H2969 0.930 1_556 S
C2975 C2971 1.399 1_566 S
C2975 C2974 1.386 . S
C2976 C2974 1.478 . S
C2976 C2978 1.381 . S
C2976 C2982 1.383 1_556 S
C2977 C2973 1.480 . S
C2977 H2983 0.935 1_565 S
C2977 H2984 1.003 . S
C2977 H2985 0.978 . S
C2978 C2976 1.381 . S
C2978 C2979 1.394 . S
C2978 H2986 0.930 . S
C2979 C2978 1.394 . S
C2979 C2980 1.383 . S
C2979 H2987 0.929 . S
C2980 C2979 1.383 . S
C2980 C2981 1.377 1_556 S
C2981 H2965 0.930 . S
C2981 C2980 1.377 1_554 S
C2981 C2982 1.379 . S
C2982 H2966 0.931 . S
C2982 C2976 1.383 1_554 S
C2982 C2981 1.379 . S
H2983 C2977 0.935 1_545 S
H2984 C2977 1.003 . S
H2985 C2977 0.978 . S
H2986 C2978 0.930 . S
H2987 C2979 0.929 . S
H2988 C2996 0.929 . S
H2989 C2998 0.930 . S
H2990 C3000 0.930 . S
H2991 C3003 0.929 . S
H2992 C3006 0.930 . S
H2993 C3008 0.954 1_556 S
H2994 C3008 0.985 . S
H2995 C3008 0.941 1_556 S
C2996 H2988 0.929 . S
C2996 C2997 1.377 . S
C2996 C2998 1.384 . S
C2997 C2996 1.377 . S
C2997 C3003 1.390 1_554 S
C2998 H2989 0.930 . S
C2998 C2996 1.384 . S
C2998 C2999 1.372 . S
C2999 C2998 1.372 . S
C2999 C3000 1.400 1_554 S
C2999 C3004 1.490 . S
C3000 H2990 0.930 . S
C3000 C2999 1.400 1_556 S
C3000 C3003 1.386 . S
H3001 C3017 0.930 . S
H3002 C3018 0.931 . S
C3003 H2991 0.929 . S
C3003 C2997 1.390 1_556 S
C3003 C3000 1.386 . S
C3004 C2999 1.490 . S
C3004 C3006 1.395 . S
C3004 C3007 1.403 . S
H3005 C3011 0.930 . S
C3006 H2992 0.930 . S
C3006 C3004 1.395 . S
C3006 C3009 1.403 1_655 S
C3007 C3004 1.403 . S
C3007 C3008 1.524 . S
C3007 C3011 1.400 1_654 S
C3008 H2993 0.954 1_554 S
C3008 H2994 0.985 . S
C3008 H2995 0.941 1_554 S
C3008 C3007 1.524 . S
C3009 C3006 1.403 1_455 S
C3009 C3010 1.392 1_554 S
C3009 C3013 1.495 . S
C3010 C3009 1.392 1_556 S
C3010 C3011 1.385 . S
C3010 C3012 1.478 . S
C3011 H3005 0.930 . S
C3011 C3007 1.400 1_456 S
C3011 C3010 1.385 . S
C3012 C3010 1.478 . S
C3012 C3014 1.381 1_556 S
C3012 C3018 1.383 . S
C3013 C3009 1.495 . S
C3013 H3019 0.959 . S
C3013 H3020 0.961 1_554 S
C3013 H3021 0.960 . S
C3014 C3012 1.381 1_554 S
C3014 C3015 1.394 . S
C3014 H3022 0.930 . S
C3015 C3014 1.394 . S
C3015 C3016 1.383 1_554 S
C3015 H3023 0.929 . S
C3016 C3015 1.383 1_556 S
C3016 C3017 1.377 . S
C3017 H3001 0.930 . S
C3017 C3016 1.377 . S
C3017 C3018 1.379 . S
C3018 H3002 0.931 . S
C3018 C3012 1.383 . S
C3018 C3017 1.379 . S
H3019 C3013 0.959 . S
H3020 C3013 0.961 1_556 S
H3021 C3013 0.960 . S
H3022 C3014 0.930 . S
H3023 C3015 0.929 . S
H3024 C3032 0.929 . S
H3025 C3034 0.930 . S
H3026 C3036 0.930 . S
H3027 C3039 0.929 . S
H3028 C3042 0.930 . S
H3029 C3044 0.960 . S
H3030 C3044 0.960 . S
H3031 C3044 0.960 . S
C3032 H3024 0.929 . S
C3032 C3033 1.377 . S
C3032 C3034 1.384 . S
C3033 C3032 1.377 . S
C3033 C3039 1.390 . S
C3034 H3025 0.930 . S
C3034 C3032 1.384 . S
C3034 C3035 1.372 . S
C3035 C3034 1.372 . S
C3035 C3036 1.400 . S
C3035 C3040 1.490 . S
C3036 H3026 0.930 . S
C3036 C3035 1.400 . S
C3036 C3039 1.386 . S
H3037 C3053 0.930 . S
H3038 C3054 0.931 . S
C3039 H3027 0.929 . S
C3039 C3033 1.390 . S
C3039 C3036 1.386 . S
C3040 C3035 1.490 . S
C3040 C3042 1.395 1_554 S
C3040 C3043 1.403 . S
H3041 C3047 0.930 . S
C3042 H3028 0.930 . S
C3042 C3040 1.395 1_556 S
C3042 C3045 1.403 . S
C3043 C3040 1.403 . S
C3043 C3044 1.524 . S
C3043 C3047 1.400 . S
C3044 H3029 0.960 . S
C3044 H3030 0.960 . S
C3044 H3031 0.960 . S
C3044 C3043 1.524 . S
C3045 C3042 1.403 . S
C3045 C3046 1.392 . S
C3045 C3049 1.495 . S
C3046 C3045 1.392 . S
C3046 C3047 1.385 1_556 S
C3046 C3048 1.478 . S
C3047 H3041 0.930 . S
C3047 C3043 1.400 . S
C3047 C3046 1.385 1_554 S
C3048 C3046 1.478 . S
C3048 C3050 1.381 . S
C3048 C3054 1.383 . S
C3049 C3045 1.495 . S
C3049 H3055 0.959 . S
C3049 H3056 0.961 . S
C3049 H3057 0.960 . S
C3050 C3048 1.381 . S
C3050 C3051 1.394 . S
C3050 H3058 0.930 . S
C3051 C3050 1.394 . S
C3051 C3052 1.383 . S
C3051 H3059 0.929 . S
C3052 C3051 1.383 . S
C3052 C3053 1.377 . S
C3053 H3037 0.930 . S
C3053 C3052 1.377 . S
C3053 C3054 1.379 . S
C3054 H3038 0.931 . S
C3054 C3048 1.383 . S
C3054 C3053 1.379 . S
H3055 C3049 0.959 . S
H3056 C3049 0.961 . S
H3057 C3049 0.960 . S
H3058 C3050 0.930 . S
H3059 C3051 0.929 . S
C477 C138 0.814 . S
C496 C10 0.815 . S
C513 C151 0.812 . S
C532 C23 0.843 . S
C549 C36 0.840 . S
C568 C125 0.792 . S
C585 C49 0.841 . S
C604 C112 0.805 . S
C621 C62 0.842 . S
C640 C86 0.821 . S
C657 C99 0.820 . S
C676 C75 0.858 . S
C693 C60 0.827 . S
C712 C88 0.836 . S
C729 C73 0.823 . S
C748 C101 0.845 . S
C765 C114 0.840 . S
C784 C47 0.796 . S
C801 C34 0.821 . S
C820 C127 0.848 . S
C837 C140 0.835 . S
C856 C8 0.825 . S
C873 C153 0.841 . S
C892 C21 0.767 . S
C909 C294 0.821 . S
C928 C166 0.859 . S
C945 C307 0.831 . S
C964 C179 0.822 . S
C981 C192 0.841 . S
C1000 C281 0.828 . S
C1017 C205 0.831 . S
C1036 C268 0.812 . S
C1053 C218 0.831 . S
C1072 C242 0.839 . S
C1089 C231 0.841 . S
C1108 C255 0.813 . S
C1125 C216 0.815 . S
C1144 C244 0.844 . S
C1161 C229 0.816 . S
C1180 C257 0.857 . S
C1197 C203 0.818 . S
C1216 C270 0.854 . S
C1233 C190 0.819 . S
C1252 C283 0.834 . S
C1269 C164 0.834 . S
C1288 C296 0.815 . S
C1305 C177 0.830 . S
C1324 C309 0.829 . S
C1341 C322 0.840 . S
C1360 C450 0.795 . S
C1377 C463 0.834 . S
C1396 C335 0.843 . S
C1413 C437 0.831 . S
C1432 C348 0.854 . S
C1449 C361 0.841 . S
C1468 C424 0.861 . S
C1485 C374 0.835 . S
C1504 C398 0.766 . S
C1521 C387 0.832 . S
C1540 C411 0.837 . S
C1557 C372 0.834 . S
C1576 C400 0.813 . S
C1593 C385 0.834 . S
C1612 C413 0.818 . S
C1629 C359 0.815 . S
C1648 C426 0.857 . S
C1665 C439 0.841 . S
C1684 C346 0.769 . S
C1701 C320 0.834 . S
C1720 C452 0.815 . S
C1737 C465 0.838 . S
C1756 C333 0.826 . S
C1773 C39 1.249 . S
C1792 C0 1.256 . S
C1809 C52 1.246 . S
C1828 C13 1.258 . S
C1845 C26 1.246 . S
C1864 C65 1.234 . S
C1881 C117 1.240 . S
C1900 C78 1.264 . S
C1917 C130 1.242 . S
C1936 C91 1.260 . S
C1953 C143 1.244 . S
C1972 C104 1.255 . S
C1989 C195 1.241 . S
C2008 C156 1.219 . S
C2025 C208 1.248 . S
C2044 C169 1.249 . S
C2061 C182 1.247 . S
C2080 C221 1.262 . S
C2097 C234 1.248 . S
C2116 C273 1.233 . S
C2133 C286 1.240 . S
C2152 C247 1.262 . S
C2169 C260 1.245 . S
C2188 C299 1.248 . S
C2205 C351 1.245 . S
C2224 C312 1.258 . S
C2241 C364 1.248 . S
C2260 C325 1.264 . S
C2277 C338 1.249 . S
C2296 C377 1.264 . S
C2313 C390 1.240 . S
C2332 C429 1.264 . S
C2349 C403 1.244 . S
C2368 C442 1.253 . S
C2385 C416 1.243 . S
C2404 C455 1.239 . S
C2421 C5 1.262 . S
C2440 C239 1.263 . S
C2457 C252 1.270 . S
C2476 C18 1.302 . S
C2493 C265 1.278 . S
C2512 C31 1.285 . S
C2529 C434 1.263 . S
C2548 C44 1.274 . S
C2565 C447 1.275 . S
C2584 C57 1.304 . S
C2601 C460 1.276 . S
C2620 C70 1.266 . S
C2637 C83 1.276 . S
C2656 C317 1.261 . S
C2673 C330 1.262 . S
C2692 C96 1.250 . S
C2709 C343 1.262 . S
C2728 C109 1.242 . S
C2745 C122 1.274 . S
C2764 C200 1.305 . S
C2781 C135 1.264 . S
C2800 C213 1.277 . S
C2817 C148 1.275 . S
C2836 C226 1.257 . S
C2853 C395 1.275 . S
C2872 C161 1.259 . S
C2889 C408 1.273 . S
C2908 C174 1.305 . S
C2925 C187 1.267 . S
C2944 C421 1.229 . S
C2961 C278 1.271 . S
C2980 C356 1.303 . S
C2997 C291 1.268 . S
C3016 C369 1.230 . S
C3033 C304 1.275 . S
C3052 C382 1.257 . S
