# Generated by pormake.
# Topology cha, (4)-cn, num edge types: 1
# Building blocks:
#     Node 0, Type 0, BuildingBlock: QUQFOY_clean_sbu_1, # of connection points: 4
#     Node 1, Type 0, BuildingBlock: QUQFOY_clean_sbu_1, # of connection points: 4
#     Node 2, Type 0, BuildingBlock: QUQFOY_clean_sbu_1, # of connection points: 4
#     Node 3, Type 0, BuildingBlock: QUQFOY_clean_sbu_1, # of connection points: 4
#     Node 4, Type 0, BuildingBlock: QUQFOY_clean_sbu_1, # of connection points: 4
#     Node 5, Type 0, BuildingBlock: QUQFOY_clean_sbu_1, # of connection points: 4
#     Node 6, Type 0, BuildingBlock: QUQFOY_clean_sbu_1, # of connection points: 4
#     Node 7, Type 0, BuildingBlock: QUQFOY_clean_sbu_1, # of connection points: 4
#     Node 8, Type 0, BuildingBlock: QUQFOY_clean_sbu_1, # of connection points: 4
#     Node 9, Type 0, BuildingBlock: QUQFOY_clean_sbu_1, # of connection points: 4
#     Node 10, Type 0, BuildingBlock: QUQFOY_clean_sbu_1, # of connection points: 4
#     Node 11, Type 0, BuildingBlock: QUQFOY_clean_sbu_1, # of connection points: 4
#     Node 12, Type 0, BuildingBlock: QUQFOY_clean_sbu_1, # of connection points: 4
#     Node 13, Type 0, BuildingBlock: QUQFOY_clean_sbu_1, # of connection points: 4
#     Node 14, Type 0, BuildingBlock: QUQFOY_clean_sbu_1, # of connection points: 4
#     Node 15, Type 0, BuildingBlock: QUQFOY_clean_sbu_1, # of connection points: 4
#     Node 16, Type 0, BuildingBlock: QUQFOY_clean_sbu_1, # of connection points: 4
#     Node 17, Type 0, BuildingBlock: QUQFOY_clean_sbu_1, # of connection points: 4
#     Node 18, Type 0, BuildingBlock: QUQFOY_clean_sbu_1, # of connection points: 4
#     Node 19, Type 0, BuildingBlock: QUQFOY_clean_sbu_1, # of connection points: 4
#     Node 20, Type 0, BuildingBlock: QUQFOY_clean_sbu_1, # of connection points: 4
#     Node 21, Type 0, BuildingBlock: QUQFOY_clean_sbu_1, # of connection points: 4
#     Node 22, Type 0, BuildingBlock: QUQFOY_clean_sbu_1, # of connection points: 4
#     Node 23, Type 0, BuildingBlock: QUQFOY_clean_sbu_1, # of connection points: 4
#     Node 24, Type 0, BuildingBlock: QUQFOY_clean_sbu_1, # of connection points: 4
#     Node 25, Type 0, BuildingBlock: QUQFOY_clean_sbu_1, # of connection points: 4
#     Node 26, Type 0, BuildingBlock: QUQFOY_clean_sbu_1, # of connection points: 4
#     Node 27, Type 0, BuildingBlock: QUQFOY_clean_sbu_1, # of connection points: 4
#     Node 28, Type 0, BuildingBlock: QUQFOY_clean_sbu_1, # of connection points: 4
#     Node 29, Type 0, BuildingBlock: QUQFOY_clean_sbu_1, # of connection points: 4
#     Node 30, Type 0, BuildingBlock: QUQFOY_clean_sbu_1, # of connection points: 4
#     Node 31, Type 0, BuildingBlock: QUQFOY_clean_sbu_1, # of connection points: 4
#     Node 32, Type 0, BuildingBlock: QUQFOY_clean_sbu_1, # of connection points: 4
#     Node 33, Type 0, BuildingBlock: QUQFOY_clean_sbu_1, # of connection points: 4
#     Node 34, Type 0, BuildingBlock: QUQFOY_clean_sbu_1, # of connection points: 4
#     Node 35, Type 0, BuildingBlock: QUQFOY_clean_sbu_1, # of connection points: 4
#     Edge 36, Type (0, 0), BuildingBlock: TEMPAE_clean_linker_10, # of connection points: 2
#     Edge 37, Type (0, 0), BuildingBlock: TEMPAE_clean_linker_10, # of connection points: 2
#     Edge 38, Type (0, 0), BuildingBlock: TEMPAE_clean_linker_10, # of connection points: 2
#     Edge 39, Type (0, 0), BuildingBlock: TEMPAE_clean_linker_10, # of connection points: 2
#     Edge 40, Type (0, 0), BuildingBlock: TEMPAE_clean_linker_10, # of connection points: 2
#     Edge 41, Type (0, 0), BuildingBlock: TEMPAE_clean_linker_10, # of connection points: 2
#     Edge 42, Type (0, 0), BuildingBlock: TEMPAE_clean_linker_10, # of connection points: 2
#     Edge 43, Type (0, 0), BuildingBlock: TEMPAE_clean_linker_10, # of connection points: 2
#     Edge 44, Type (0, 0), BuildingBlock: TEMPAE_clean_linker_10, # of connection points: 2
#     Edge 45, Type (0, 0), BuildingBlock: TEMPAE_clean_linker_10, # of connection points: 2
#     Edge 46, Type (0, 0), BuildingBlock: TEMPAE_clean_linker_10, # of connection points: 2
#     Edge 47, Type (0, 0), BuildingBlock: TEMPAE_clean_linker_10, # of connection points: 2
#     Edge 48, Type (0, 0), BuildingBlock: TEMPAE_clean_linker_10, # of connection points: 2
#     Edge 49, Type (0, 0), BuildingBlock: TEMPAE_clean_linker_10, # of connection points: 2
#     Edge 50, Type (0, 0), BuildingBlock: TEMPAE_clean_linker_10, # of connection points: 2
#     Edge 51, Type (0, 0), BuildingBlock: TEMPAE_clean_linker_10, # of connection points: 2
#     Edge 52, Type (0, 0), BuildingBlock: TEMPAE_clean_linker_10, # of connection points: 2
#     Edge 53, Type (0, 0), BuildingBlock: TEMPAE_clean_linker_10, # of connection points: 2
#     Edge 54, Type (0, 0), BuildingBlock: TEMPAE_clean_linker_10, # of connection points: 2
#     Edge 55, Type (0, 0), BuildingBlock: TEMPAE_clean_linker_10, # of connection points: 2
#     Edge 56, Type (0, 0), BuildingBlock: TEMPAE_clean_linker_10, # of connection points: 2
#     Edge 57, Type (0, 0), BuildingBlock: TEMPAE_clean_linker_10, # of connection points: 2
#     Edge 58, Type (0, 0), BuildingBlock: TEMPAE_clean_linker_10, # of connection points: 2
#     Edge 59, Type (0, 0), BuildingBlock: TEMPAE_clean_linker_10, # of connection points: 2
#     Edge 60, Type (0, 0), BuildingBlock: TEMPAE_clean_linker_10, # of connection points: 2
#     Edge 61, Type (0, 0), BuildingBlock: TEMPAE_clean_linker_10, # of connection points: 2
#     Edge 62, Type (0, 0), BuildingBlock: TEMPAE_clean_linker_10, # of connection points: 2
#     Edge 63, Type (0, 0), BuildingBlock: TEMPAE_clean_linker_10, # of connection points: 2
#     Edge 64, Type (0, 0), BuildingBlock: TEMPAE_clean_linker_10, # of connection points: 2
#     Edge 65, Type (0, 0), BuildingBlock: TEMPAE_clean_linker_10, # of connection points: 2
#     Edge 66, Type (0, 0), BuildingBlock: TEMPAE_clean_linker_10, # of connection points: 2
#     Edge 67, Type (0, 0), BuildingBlock: TEMPAE_clean_linker_10, # of connection points: 2
#     Edge 68, Type (0, 0), BuildingBlock: TEMPAE_clean_linker_10, # of connection points: 2
#     Edge 69, Type (0, 0), BuildingBlock: TEMPAE_clean_linker_10, # of connection points: 2
#     Edge 70, Type (0, 0), BuildingBlock: TEMPAE_clean_linker_10, # of connection points: 2
#     Edge 71, Type (0, 0), BuildingBlock: TEMPAE_clean_linker_10, # of connection points: 2
#     Edge 72, Type (0, 0), BuildingBlock: TEMPAE_clean_linker_10, # of connection points: 2
#     Edge 73, Type (0, 0), BuildingBlock: TEMPAE_clean_linker_10, # of connection points: 2
#     Edge 74, Type (0, 0), BuildingBlock: TEMPAE_clean_linker_10, # of connection points: 2
#     Edge 75, Type (0, 0), BuildingBlock: TEMPAE_clean_linker_10, # of connection points: 2
#     Edge 76, Type (0, 0), BuildingBlock: TEMPAE_clean_linker_10, # of connection points: 2
#     Edge 77, Type (0, 0), BuildingBlock: TEMPAE_clean_linker_10, # of connection points: 2
#     Edge 78, Type (0, 0), BuildingBlock: TEMPAE_clean_linker_10, # of connection points: 2
#     Edge 79, Type (0, 0), BuildingBlock: TEMPAE_clean_linker_10, # of connection points: 2
#     Edge 80, Type (0, 0), BuildingBlock: TEMPAE_clean_linker_10, # of connection points: 2
#     Edge 81, Type (0, 0), BuildingBlock: TEMPAE_clean_linker_10, # of connection points: 2
#     Edge 82, Type (0, 0), BuildingBlock: TEMPAE_clean_linker_10, # of connection points: 2
#     Edge 83, Type (0, 0), BuildingBlock: TEMPAE_clean_linker_10, # of connection points: 2
#     Edge 84, Type (0, 0), BuildingBlock: TEMPAE_clean_linker_10, # of connection points: 2
#     Edge 85, Type (0, 0), BuildingBlock: TEMPAE_clean_linker_10, # of connection points: 2
#     Edge 86, Type (0, 0), BuildingBlock: TEMPAE_clean_linker_10, # of connection points: 2
#     Edge 87, Type (0, 0), BuildingBlock: TEMPAE_clean_linker_10, # of connection points: 2
#     Edge 88, Type (0, 0), BuildingBlock: TEMPAE_clean_linker_10, # of connection points: 2
#     Edge 89, Type (0, 0), BuildingBlock: TEMPAE_clean_linker_10, # of connection points: 2
#     Edge 90, Type (0, 0), BuildingBlock: TEMPAE_clean_linker_10, # of connection points: 2
#     Edge 91, Type (0, 0), BuildingBlock: TEMPAE_clean_linker_10, # of connection points: 2
#     Edge 92, Type (0, 0), BuildingBlock: TEMPAE_clean_linker_10, # of connection points: 2
#     Edge 93, Type (0, 0), BuildingBlock: TEMPAE_clean_linker_10, # of connection points: 2
#     Edge 94, Type (0, 0), BuildingBlock: TEMPAE_clean_linker_10, # of connection points: 2
#     Edge 95, Type (0, 0), BuildingBlock: TEMPAE_clean_linker_10, # of connection points: 2
#     Edge 96, Type (0, 0), BuildingBlock: TEMPAE_clean_linker_10, # of connection points: 2
#     Edge 97, Type (0, 0), BuildingBlock: TEMPAE_clean_linker_10, # of connection points: 2
#     Edge 98, Type (0, 0), BuildingBlock: TEMPAE_clean_linker_10, # of connection points: 2
#     Edge 99, Type (0, 0), BuildingBlock: TEMPAE_clean_linker_10, # of connection points: 2
#     Edge 100, Type (0, 0), BuildingBlock: TEMPAE_clean_linker_10, # of connection points: 2
#     Edge 101, Type (0, 0), BuildingBlock: TEMPAE_clean_linker_10, # of connection points: 2
#     Edge 102, Type (0, 0), BuildingBlock: TEMPAE_clean_linker_10, # of connection points: 2
#     Edge 103, Type (0, 0), BuildingBlock: TEMPAE_clean_linker_10, # of connection points: 2
#     Edge 104, Type (0, 0), BuildingBlock: TEMPAE_clean_linker_10, # of connection points: 2
#     Edge 105, Type (0, 0), BuildingBlock: TEMPAE_clean_linker_10, # of connection points: 2
#     Edge 106, Type (0, 0), BuildingBlock: TEMPAE_clean_linker_10, # of connection points: 2
#     Edge 107, Type (0, 0), BuildingBlock: TEMPAE_clean_linker_10, # of connection points: 2
# Relax obj value: 0.045
# Max RMSD: 0.075
# Mean RMSD: 0.075
data_MOF--net-cha--node1-QUQFOY_clean_sbu_1--edge1-TEMPAE_clean_linker_10
_symmetry_space_group_name_H-M    P1
_symmetry_Int_Tables_number       1
_symmetry_cell_setting            triclinic
loop_
_symmetry_equiv_pos_as_xyz
'x, y, z'
_cell_length_a     63.825467
_cell_length_b     63.818375
_cell_length_c     85.124092
_cell_angle_alpha  89.990814
_cell_angle_beta   90.022046
_cell_angle_gamma 119.99337
loop_
_atom_site_label
_atom_site_type_symbol
_atom_site_fract_x
_atom_site_fract_y
_atom_site_fract_z
_atom_type_partial_charge
O0 O 0.03615 0.28352 0.06828 0.0
Cd1 Cd 0.03581 0.26838 0.08991 0.0
Cd2 Cd 0.00594 0.28722 0.0948 0.0
O3 O 0.01572 0.30235 0.07279 0.0
O4 O 0.05996 0.25809 0.08546 0.0
O5 O 0.06514 0.28402 0.1043 0.0
C6 C 0.07331 0.27232 0.09646 0.0
C7 C 0.00834 0.30881 0.11746 0.0
C8 C 0.02776 0.29677 0.06353 0.0
C9 C 0.98366 0.2333 0.0966 0.0
O10 O 0.98018 0.25114 0.09524 0.0
O11 O 0.00494 0.2364 0.09616 0.0
O12 O 0.99175 0.30364 0.10705 0.0
O13 O 0.02456 0.30282 0.11455 0.0
O14 O 0.7719 0.77668 0.06539 0.0
Cd15 Cd 0.78775 0.79043 0.08706 0.0
Cd16 Cd 0.76767 0.74147 0.09098 0.0
O17 O 0.75203 0.73723 0.06918 0.0
O18 O 0.79921 0.82525 0.08308 0.0
O19 O 0.77337 0.80473 0.10201 0.0
C20 C 0.78551 0.8247 0.09432 0.0
C21 C 0.74644 0.72339 0.11393 0.0
C22 C 0.75796 0.75537 0.06031 0.0
C23 C 0.8217 0.77155 0.09267 0.0
O24 O 0.80347 0.75054 0.09098 0.0
O25 O 0.8192 0.79011 0.0928 0.0
O26 O 0.75056 0.71118 0.10351 0.0
O27 O 0.75326 0.74576 0.11087 0.0
O28 O 0.27902 0.02467 0.06899 0.0
Cd29 Cd 0.26194 0.02588 0.08917 0.0
Cd30 Cd 0.3107 0.05484 0.09764 0.0
O31 O 0.31761 0.04804 0.0749 0.0
O32 O 0.22798 0.00166 0.08365 0.0
O33 O 0.24663 0.99743 0.10423 0.0
C34 C 0.22761 0.98891 0.09546 0.0
C35 C 0.33123 0.05202 0.11956 0.0
C36 C 0.30118 0.03482 0.06512 0.0
C37 C 0.27867 0.07741 0.09795 0.0
O38 O 0.29938 0.07974 0.10033 0.0
O39 O 0.26104 0.05736 0.09338 0.0
O40 O 0.34164 0.06952 0.10962 0.0
O41 O 0.30937 0.03511 0.11654 0.0
O42 O 0.28238 0.03674 0.94374 0.0
Cd43 Cd 0.26821 0.0343 0.92138 0.0
Cd44 Cd 0.29049 0.0082 0.91771 0.0
O45 O 0.30612 0.02147 0.9393 0.0
O46 O 0.25392 0.05577 0.92256 0.0
O47 O 0.28496 0.06373 0.90724 0.0
C48 C 0.26985 0.06986 0.91256 0.0
C49 C 0.31194 0.0119 0.89475 0.0
C50 C 0.29817 0.03157 0.94853 0.0
C51 C 0.23678 0.98124 0.91556 0.0
O52 O 0.25551 0.97962 0.91813 0.0
O53 O 0.23837 0.00185 0.91466 0.0
O54 O 0.30932 0.99656 0.90555 0.0
O55 O 0.30349 0.02624 0.89742 0.0
O56 O 0.02184 0.27185 0.94176 0.0
Cd57 Cd 0.02299 0.25969 0.9193 0.0
Cd58 Cd 0.04941 0.30779 0.91508 0.0
O59 O 0.0379 0.31089 0.93707 0.0
O60 O 1.00051 0.2241 0.92046 0.0
O61 O 0.99332 0.24814 0.90553 0.0
C62 C 0.98654 0.22668 0.91072 0.0
C63 C 0.04496 0.32607 0.89263 0.0
C64 C 0.02793 0.29308 0.94648 0.0
C65 C 0.07557 0.28021 0.91239 0.0
O66 O 0.07758 0.30081 0.91463 0.0
O67 O 0.05481 0.2613 0.91214 0.0
O68 O 0.06106 0.33842 0.90314 0.0
O69 O 0.03039 0.30333 0.8953 0.0
O70 O 0.78705 0.77949 0.94014 0.0
Cd71 Cd 0.80207 0.79655 0.91918 0.0
Cd72 Cd 0.75374 0.77544 0.91135 0.0
O73 O 0.74829 0.76122 0.93393 0.0
O74 O 0.83733 0.80888 0.92183 0.0
O75 O 0.81505 0.78097 0.9043 0.0
C76 C 0.83584 0.79434 0.91085 0.0
C77 C 0.73421 0.75188 0.88932 0.0
C78 C 0.76497 0.76593 0.94388 0.0
C79 C 0.7832 0.82989 0.91093 0.0
O80 O 0.76257 0.81114 0.90918 0.0
O81 O 0.80149 0.82802 0.91459 0.0
O82 O 0.72285 0.75756 0.89944 0.0
O83 O 0.75656 0.75843 0.89219 0.0
O84 O 0.02316 0.77257 0.94298 0.0
Cd85 Cd 0.02547 0.79136 0.92281 0.0
Cd86 Cd 0.05378 0.77082 0.91486 0.0
O87 O 0.04563 0.75626 0.93736 0.0
O88 O 1.00142 0.80155 0.92782 0.0
O89 O 0.99766 0.77882 0.90726 0.0
C90 C 0.98905 0.78945 0.91582 0.0
C91 C 0.05088 0.74813 0.89261 0.0
C92 C 0.03247 0.75982 0.94697 0.0
C93 C 0.07751 0.82551 0.91494 0.0
O94 O 0.0795 0.8069 0.91275 0.0
O95 O 0.05741 0.82346 0.91903 0.0
O96 O 0.06796 0.75421 0.90277 0.0
O97 O 0.03437 0.75366 0.8956 0.0
O98 O 0.28261 0.27578 0.94302 0.0
Cd99 Cd 0.26498 0.25882 0.92263 0.0
Cd100 Cd 0.28494 0.30745 0.91411 0.0
O101 O 0.29811 0.31435 0.93697 0.0
O102 O 0.25547 0.22481 0.92781 0.0
O103 O 0.27901 0.24429 0.90766 0.0
C104 C 0.26838 0.22497 0.91616 0.0
C105 C 0.30879 0.32831 0.89249 0.0
C106 C 0.2946 0.29797 0.94686 0.0
C107 C 0.23036 0.2754 0.91318 0.0
O108 O 0.24881 0.29611 0.91094 0.0
O109 O 0.23266 0.25777 0.91793 0.0
O110 O 0.30131 0.33851 0.90231 0.0
O111 O 0.30395 0.30648 0.89547 0.0
O112 O 0.78133 0.03749 0.94509 0.0
Cd113 Cd 0.79513 0.03624 0.92326 0.0
Cd114 Cd 0.74617 0.00707 0.91924 0.0
O115 O 0.74192 0.01802 0.94117 0.0
O116 O 0.8299 0.05985 0.92718 0.0
O117 O 0.8089 0.06529 0.90863 0.0
C118 C 0.829 0.07318 0.91618 0.0
C119 C 0.72675 0.0093 0.89667 0.0
C120 C 0.75997 0.02992 0.95015 0.0
C121 C 0.77676 0.9837 0.91701 0.0
O122 O 0.75569 0.98069 0.9189 0.0
O123 O 0.79519 0.00483 0.91698 0.0
O124 O 0.71529 0.99311 0.9073 0.0
O125 O 0.74912 0.02528 0.89932 0.0
O126 O 0.78108 0.01971 0.07041 0.0
Cd127 Cd 0.7972 0.02073 0.09159 0.0
Cd128 Cd 0.77652 0.04829 0.09947 0.0
O129 O 0.76299 0.04034 0.07672 0.0
O130 O 0.80872 0.99711 0.08914 0.0
O131 O 0.78037 0.99193 0.10618 0.0
C132 C 0.79355 0.9841 0.09986 0.0
C133 C 0.75253 0.04492 0.12109 0.0
C134 C 0.76785 0.02862 0.06666 0.0
C135 C 0.83091 0.07242 0.10064 0.0
O136 O 0.81229 0.07458 0.10219 0.0
O137 O 0.82887 0.05227 0.09678 0.0
O138 O 0.75893 0.06202 0.11091 0.0
O139 O 0.75855 0.02867 0.11847 0.0
O140 O 0.03856 0.7862 0.06686 0.0
Cd141 Cd 0.03558 0.80025 0.08798 0.0
Cd142 Cd 0.00979 0.75192 0.09531 0.0
O143 O 0.01945 0.74732 0.0728 0.0
O144 O 0.05802 0.83573 0.08604 0.0
O145 O 0.06367 0.81303 0.10322 0.0
C146 C 0.0709 0.83404 0.09706 0.0
C147 C 0.0144 0.73273 0.11729 0.0
C148 C 0.031 0.76433 0.06296 0.0
C149 C 0.9831 0.77975 0.09593 0.0
O150 O 0.98194 0.75939 0.09743 0.0
O151 O 0.00299 0.79853 0.09251 0.0
O152 O 0.99766 0.72101 0.10703 0.0
O153 O 0.02961 0.75529 0.11458 0.0
O154 O 0.27369 0.28258 0.0684 0.0
Cd155 Cd 0.26195 0.26889 0.09085 0.0
Cd156 Cd 0.31027 0.29044 0.09443 0.0
O157 O 0.31282 0.30574 0.07271 0.0
O158 O 0.22629 0.25538 0.08983 0.0
O159 O 0.25012 0.28648 0.10491 0.0
C160 C 0.22869 0.27166 0.09974 0.0
C161 C 0.32869 0.31222 0.11714 0.0
C162 C 0.29474 0.29797 0.06352 0.0
C163 C 0.28266 0.23674 0.09691 0.0
O164 O 0.30317 0.25523 0.09431 0.0
O165 O 0.26385 0.23871 0.09772 0.0
O166 O 0.341 0.30892 0.10637 0.0
O167 O 0.30596 0.30426 0.11458 0.0
O168 O 0.6999 0.60681 0.40008 0.0
Cd169 Cd 0.69839 0.59387 0.4227 0.0
Cd170 Cd 0.67255 0.61649 0.42635 0.0
O171 O 0.68392 0.63007 0.40411 0.0
O172 O 0.72024 0.58001 0.42174 0.0
O173 O 0.72815 0.61166 0.43644 0.0
C174 C 0.73448 0.59656 0.43138 0.0
C175 C 0.67716 0.63998 0.44844 0.0
C176 C 0.69387 0.62183 0.39499 0.0
C177 C 0.64565 0.56279 0.42963 0.0
O178 O 0.64409 0.58159 0.42722 0.0
O179 O 0.6662 0.56415 0.42994 0.0
O180 O 0.66115 0.63608 0.43784 0.0
O181 O 0.69164 0.63162 0.44603 0.0
O182 O 0.44672 0.12073 0.40297 0.0
Cd183 Cd 0.46238 0.13408 0.42451 0.0
Cd184 Cd 0.44082 0.08537 0.43071 0.0
O185 O 0.4277 0.08151 0.40787 0.0
O186 O 0.47469 0.16944 0.42277 0.0
O187 O 0.44575 0.14596 0.43935 0.0
C188 C 0.45935 0.16715 0.43339 0.0
C189 C 0.41655 0.06529 0.45235 0.0
C190 C 0.43321 0.09902 0.39845 0.0
C191 C 0.49518 0.11458 0.43261 0.0
O192 O 0.47633 0.09383 0.4334 0.0
O193 O 0.49358 0.13321 0.42956 0.0
O194 O 0.42211 0.05405 0.44205 0.0
O195 O 0.42351 0.08781 0.44981 0.0
O196 O 0.93665 0.35164 0.40193 0.0
Cd197 Cd 0.92486 0.35404 0.42426 0.0
Cd198 Cd 0.97302 0.37997 0.42815 0.0
O199 O 0.97558 0.36679 0.40658 0.0
O200 O 0.88919 0.3318 0.42337 0.0
O201 O 0.91319 0.32496 0.43859 0.0
C202 C 0.89171 0.31813 0.4334 0.0
C203 C 0.99101 0.37637 0.45103 0.0
C204 C 0.95765 0.35678 0.39726 0.0
C205 C 0.94623 0.40703 0.42993 0.0
O206 O 0.96659 0.40855 0.42764 0.0
O207 O 0.92714 0.38645 0.43074 0.0
O208 O 0.00358 0.39179 0.44024 0.0
O209 O 0.96822 0.36196 0.44842 0.0
O210 O 0.94767 0.36635 0.277 0.0
Cd211 Cd 0.92946 0.36532 0.25683 0.0
Cd212 Cd 0.94766 0.33566 0.24833 0.0
O213 O 0.96156 0.34191 0.27101 0.0
O214 O 0.92116 0.39074 0.2618 0.0
O215 O 0.94343 0.39313 0.24128 0.0
C216 C 0.93369 0.40269 0.24981 0.0
C217 C 0.97083 0.33902 0.22625 0.0
C218 C 0.95907 0.35554 0.28082 0.0
C219 C 0.89331 0.31414 0.24842 0.0
O220 O 0.91128 0.31126 0.24574 0.0
O221 O 0.89642 0.33442 0.25309 0.0
O222 O 0.96363 0.32114 0.2359 0.0
O223 O 0.966 0.35591 0.22962 0.0
O224 O 0.69226 0.604 0.27226 0.0
Cd225 Cd 0.69349 0.59298 0.24948 0.0
Cd226 Cd 0.71868 0.64122 0.24631 0.0
O227 O 0.70663 0.64304 0.2684 0.0
O228 O 0.6714 0.55725 0.25014 0.0
O229 O 0.66346 0.58158 0.2361 0.0
C230 C 0.65696 0.55999 0.24093 0.0
C231 C 0.71422 0.65933 0.2238 0.0
C232 C 0.69744 0.62475 0.27747 0.0
C233 C 0.7462 0.61521 0.24284 0.0
O234 O 0.74742 0.63524 0.24593 0.0
O235 O 0.72577 0.59596 0.24181 0.0
O236 O 0.72983 0.67191 0.23451 0.0
O237 O 0.69993 0.63651 0.22639 0.0
O238 O 0.45593 0.11712 0.27755 0.0
Cd239 Cd 0.46946 0.13293 0.25606 0.0
Cd240 Cd 0.42109 0.11132 0.24946 0.0
O241 O 0.41686 0.09771 0.27217 0.0
O242 O 0.50474 0.1446 0.25746 0.0
O243 O 0.48046 0.11576 0.24105 0.0
C244 C 0.50185 0.12904 0.24683 0.0
C245 C 0.40133 0.08734 0.22763 0.0
C246 C 0.43414 0.10328 0.2818 0.0
C247 C 0.45004 0.16575 0.24797 0.0
O248 O 0.42936 0.14683 0.247 0.0
O249 O 0.46869 0.16422 0.25109 0.0
O250 O 0.38993 0.09269 0.23794 0.0
O251 O 0.42385 0.09438 0.23026 0.0
O252 O 0.68609 0.10149 0.27872 0.0
Cd253 Cd 0.68734 0.11863 0.25773 0.0
Cd254 Cd 0.7174 0.09988 0.25188 0.0
O255 O 0.70719 0.08355 0.27354 0.0
O256 O 0.66344 0.12903 0.26275 0.0
O257 O 0.65866 0.10497 0.24278 0.0
C258 C 0.65053 0.11625 0.25112 0.0
C259 C 0.71557 0.07889 0.22902 0.0
C260 C 0.69459 0.08811 0.283 0.0
C261 C 0.73975 0.154 0.25164 0.0
O262 O 0.74316 0.13604 0.25203 0.0
O263 O 0.71852 0.15093 0.25258 0.0
O264 O 0.7321 0.08408 0.23948 0.0
O265 O 0.6992 0.08467 0.23191 0.0
O266 O 0.95057 0.60718 0.2747 0.0
Cd267 Cd 0.93487 0.59359 0.25317 0.0
Cd268 Cd 0.95727 0.64259 0.24669 0.0
O269 O 0.97033 0.64632 0.26951 0.0
O270 O 0.92133 0.55807 0.25532 0.0
O271 O 0.95069 0.58039 0.23865 0.0
C272 C 0.93633 0.55947 0.24472 0.0
C273 C 0.98173 0.66305 0.22524 0.0
C274 C 0.96446 0.62891 0.27908 0.0
C275 C 0.90292 0.61388 0.24439 0.0
O276 O 0.92191 0.63453 0.24375 0.0
O277 O 0.90422 0.59514 0.24761 0.0
O278 O 0.97609 0.6741 0.23564 0.0
O279 O 0.97479 0.64049 0.2276 0.0
O280 O 0.44684 0.37448 0.27644 0.0
Cd281 Cd 0.46212 0.37264 0.25531 0.0
Cd282 Cd 0.41325 0.34378 0.24981 0.0
O283 O 0.40778 0.35524 0.27123 0.0
O284 O 0.49676 0.39609 0.25987 0.0
O285 O 0.4771 0.40119 0.24027 0.0
C286 C 0.49677 0.40909 0.24832 0.0
C287 C 0.395 0.3459 0.22661 0.0
C288 C 0.42515 0.36715 0.2807 0.0
C289 C 0.44351 0.31985 0.24964 0.0
O290 O 0.42242 0.31711 0.25051 0.0
O291 O 0.46209 0.34087 0.25 0.0
O292 O 0.383 0.32976 0.23716 0.0
O293 O 0.41727 0.36179 0.2296 0.0
O294 O 0.43463 0.35344 0.40051 0.0
Cd295 Cd 0.45292 0.3544 0.42066 0.0
Cd296 Cd 0.43396 0.38354 0.42942 0.0
O297 O 0.42004 0.3772 0.40676 0.0
O298 O 0.46186 0.32948 0.4155 0.0
O299 O 0.43961 0.32655 0.43617 0.0
C300 C 0.44975 0.31744 0.4276 0.0
C301 C 0.41086 0.38064 0.45142 0.0
C302 C 0.42288 0.36394 0.39682 0.0
C303 C 0.48844 0.40553 0.42957 0.0
O304 O 0.47026 0.40812 0.43218 0.0
O305 O 0.48565 0.38547 0.42472 0.0
O306 O 0.41809 0.39834 0.44162 0.0
O307 O 0.41552 0.36359 0.4482 0.0
O308 O 0.70233 0.10955 0.40366 0.0
Cd309 Cd 0.70128 0.12527 0.42478 0.0
Cd310 Cd 0.67185 0.07647 0.43039 0.0
O311 O 0.68268 0.0705 0.40891 0.0
O312 O 0.72482 0.15967 0.41969 0.0
O313 O 0.73046 0.14043 0.43932 0.0
C314 C 0.73825 0.15983 0.431 0.0
C315 C 0.67381 0.05833 0.45367 0.0
C316 C 0.69462 0.08779 0.3994 0.0
C317 C 0.64876 0.10746 0.43071 0.0
O318 O 0.64567 0.08624 0.42974 0.0
O319 O 0.66991 0.12584 0.43037 0.0
O320 O 0.65756 0.04636 0.44317 0.0
O321 O 0.68993 0.08048 0.45055 0.0
O322 O 0.943 0.61612 0.39923 0.0
Cd323 Cd 0.92624 0.5976 0.41943 0.0
Cd324 Cd 0.97505 0.61806 0.42776 0.0
O325 O 0.98168 0.63237 0.40518 0.0
O326 O 0.89206 0.58758 0.41436 0.0
O327 O 0.91121 0.61068 0.43475 0.0
C328 C 0.89192 0.59999 0.42623 0.0
C329 C 0.99532 0.6411 0.4498 0.0
C330 C 0.96513 0.6288 0.3954 0.0
C331 C 0.94373 0.56334 0.42799 0.0
O332 O 0.96435 0.58192 0.43021 0.0
O333 O 0.92583 0.56545 0.4236 0.0
O334 O 0.00598 0.6345 0.43972 0.0
O335 O 0.97336 0.63587 0.44685 0.0
O336 O 0.37303 0.95602 0.73436 0.0
Cd337 Cd 0.37121 0.93675 0.75419 0.0
Cd338 Cd 0.34177 0.95559 0.76291 0.0
O339 O 0.3494 0.97079 0.74054 0.0
O340 O 0.39603 0.92769 0.74897 0.0
O341 O 0.39864 0.94912 0.77001 0.0
C342 C 0.40783 0.93921 0.7613 0.0
C343 C 0.3441 0.97768 0.78538 0.0
C344 C 0.36296 0.9682 0.7307 0.0
C345 C 0.31965 0.90101 0.76199 0.0
O346 O 0.317 0.9191 0.7648 0.0
O347 O 0.33991 0.90395 0.75746 0.0
O348 O 0.32672 0.97102 0.77539 0.0
O349 O 0.36114 0.973 0.78215 0.0
O350 O 0.10804 0.45066 0.73446 0.0
Cd351 Cd 0.12398 0.46482 0.75587 0.0
Cd352 Cd 0.10179 0.41593 0.76292 0.0
O353 O 0.08849 0.41168 0.74014 0.0
O354 O 0.137 0.50027 0.75371 0.0
O355 O 0.10792 0.47763 0.77048 0.0
C356 C 0.12201 0.49862 0.7644 0.0
C357 C 0.07763 0.39514 0.78441 0.0
C358 C 0.09416 0.42879 0.73035 0.0
C359 C 0.15623 0.44501 0.76488 0.0
O360 O 0.13727 0.42437 0.7658 0.0
O361 O 0.15485 0.46362 0.7614 0.0
O362 O 0.08358 0.38437 0.774 0.0
O363 O 0.08405 0.41757 0.78204 0.0
O364 O 0.61025 0.68426 0.73208 0.0
Cd365 Cd 0.59612 0.68551 0.75381 0.0
Cd366 Cd 0.6453 0.71439 0.75828 0.0
O367 O 0.64959 0.70345 0.73635 0.0
O368 O 0.56127 0.66227 0.74975 0.0
O369 O 0.58178 0.65646 0.76846 0.0
C370 C 0.56176 0.64887 0.76086 0.0
C371 C 0.66485 0.71235 0.78089 0.0
C372 C 0.63169 0.69176 0.7272 0.0
C373 C 0.61502 0.73815 0.76025 0.0
O374 O 0.63604 0.74097 0.75857 0.0
O375 O 0.59645 0.71711 0.76009 0.0
O376 O 0.67626 0.7284 0.77018 0.0
O377 O 0.64245 0.69637 0.77831 0.0
O378 O 0.61457 0.70379 0.60651 0.0
Cd379 Cd 0.59888 0.70315 0.58521 0.0
Cd380 Cd 0.6204 0.67577 0.57748 0.0
O381 O 0.63315 0.68352 0.60043 0.0
O382 O 0.58613 0.7257 0.58813 0.0
O383 O 0.61512 0.73271 0.57116 0.0
C384 C 0.60118 0.7395 0.57761 0.0
C385 C 0.64464 0.67865 0.5561 0.0
C386 C 0.6278 0.69495 0.61043 0.0
C387 C 0.56602 0.65148 0.57554 0.0
O388 O 0.58476 0.64948 0.57433 0.0
O389 O 0.56775 0.6715 0.57941 0.0
O390 O 0.63802 0.66172 0.56643 0.0
O391 O 0.63887 0.69514 0.5585 0.0
O392 O 0.35025 0.94347 0.6115 0.0
Cd393 Cd 0.35239 0.92626 0.59164 0.0
Cd394 Cd 0.38122 0.97475 0.58292 0.0
O395 O 0.37295 0.98197 0.60521 0.0
O396 O 0.32784 0.8922 0.59672 0.0
O397 O 0.32493 0.91114 0.57584 0.0
C398 C 0.3159 0.89194 0.58447 0.0
C399 C 0.37918 0.99475 0.56045 0.0
C400 C 0.35974 0.96571 0.61509 0.0
C401 C 0.40428 0.94309 0.58407 0.0
O402 O 0.40656 0.9637 0.58133 0.0
O403 O 0.38407 0.92544 0.58838 0.0
O404 O 0.39621 0.00547 0.57067 0.0
O405 O 0.36232 0.97286 0.56343 0.0
O406 O 0.11253 0.43606 0.61001 0.0
Cd407 Cd 0.12907 0.45411 0.58965 0.0
Cd408 Cd 0.08014 0.43389 0.58161 0.0
O409 O 0.07378 0.42017 0.60436 0.0
O410 O 0.16327 0.46416 0.59465 0.0
O411 O 0.14397 0.44081 0.57439 0.0
C412 C 0.16333 0.45164 0.58282 0.0
C413 C 0.05945 0.41058 0.55975 0.0
C414 C 0.09045 0.42374 0.61404 0.0
C415 C 0.11188 0.48854 0.58092 0.0
O416 O 0.09115 0.47004 0.57884 0.0
O417 O 0.1297 0.48631 0.58531 0.0
O418 O 0.04904 0.41749 0.56982 0.0
O419 O 0.08137 0.41561 0.56264 0.0
O420 O 0.35775 0.44976 0.60821 0.0
Cd421 Cd 0.35853 0.46145 0.58531 0.0
Cd422 Cd 0.38439 0.43909 0.5822 0.0
O423 O 0.37335 0.42611 0.60455 0.0
O424 O 0.33646 0.47507 0.58597 0.0
O425 O 0.32839 0.44266 0.57205 0.0
C426 C 0.32201 0.45789 0.57677 0.0
C427 C 0.37895 0.41531 0.56019 0.0
C428 C 0.36374 0.43485 0.61354 0.0
C429 C 0.41102 0.49239 0.57776 0.0
O430 O 0.41283 0.47392 0.58089 0.0
O431 O 0.39037 0.49077 0.57722 0.0
O432 O 0.39513 0.41906 0.57064 0.0
O433 O 0.36473 0.42394 0.56276 0.0
O434 O 0.61503 0.94317 0.61283 0.0
Cd435 Cd 0.59828 0.92892 0.59148 0.0
Cd436 Cd 0.6179 0.97755 0.58705 0.0
O437 O 0.6344 0.9825 0.6086 0.0
O438 O 0.58778 0.8943 0.59539 0.0
O439 O 0.61271 0.91519 0.57614 0.0
C440 C 0.60132 0.89522 0.58393 0.0
C441 C 0.63868 0.99505 0.56388 0.0
C442 C 0.62906 0.96465 0.6176 0.0
C443 C 0.56374 0.9472 0.58641 0.0
O444 O 0.58204 0.9683 0.58751 0.0
O445 O 0.56631 0.92868 0.58646 0.0
O446 O 0.6347 0.00751 0.57418 0.0
O447 O 0.63182 0.97273 0.56712 0.0
O448 O 0.11764 0.69904 0.60763 0.0
Cd449 Cd 0.12988 0.69725 0.58534 0.0
Cd450 Cd 0.08157 0.67091 0.58122 0.0
O451 O 0.07861 0.68321 0.60298 0.0
O452 O 0.16551 0.71932 0.58682 0.0
O453 O 0.14218 0.72689 0.57144 0.0
C454 C 0.16343 0.73344 0.57694 0.0
C455 C 0.06335 0.67473 0.55853 0.0
C456 C 0.09651 0.69335 0.61232 0.0
C457 C 0.1089 0.64442 0.57911 0.0
O458 O 0.08841 0.64265 0.58133 0.0
O459 O 0.12791 0.66508 0.57857 0.0
O460 O 0.05095 0.65897 0.5692 0.0
O461 O 0.08609 0.68935 0.56117 0.0
O462 O 0.11042 0.69071 0.73366 0.0
Cd463 Cd 0.12686 0.69228 0.75497 0.0
Cd464 Cd 0.10709 0.72107 0.76015 0.0
O465 O 0.09115 0.71065 0.73838 0.0
O466 O 0.13733 0.66828 0.75053 0.0
O467 O 0.11222 0.66351 0.76984 0.0
C468 C 0.12363 0.6552 0.76181 0.0
C469 C 0.08585 0.71761 0.78317 0.0
C470 C 0.09659 0.69852 0.7291 0.0
C471 C 0.1613 0.74482 0.7608 0.0
O472 O 0.14295 0.74758 0.76003 0.0
O473 O 0.15884 0.72379 0.7603 0.0
O474 O 0.09028 0.73428 0.77296 0.0
O475 O 0.09251 0.702 0.77992 0.0
O476 O 0.36644 0.45452 0.73644 0.0
Cd477 Cd 0.3653 0.46526 0.75931 0.0
Cd478 Cd 0.34011 0.41706 0.7624 0.0
O479 O 0.35192 0.41545 0.74021 0.0
O480 O 0.38758 0.50096 0.75893 0.0
O481 O 0.39525 0.47619 0.77269 0.0
C482 C 0.4019 0.4979 0.76806 0.0
C483 C 0.34464 0.39819 0.78449 0.0
C484 C 0.36113 0.43376 0.73118 0.0
C485 C 0.31265 0.44311 0.7662 0.0
O486 O 0.31137 0.42305 0.76313 0.0
O487 O 0.3331 0.46236 0.76708 0.0
O488 O 0.32895 0.38601 0.77373 0.0
O489 O 0.35891 0.4211 0.78221 0.0
O490 O 0.6052 0.94274 0.73789 0.0
Cd491 Cd 0.5909 0.92603 0.75904 0.0
Cd492 Cd 0.63912 0.94695 0.76611 0.0
O493 O 0.64414 0.96119 0.74358 0.0
O494 O 0.55566 0.9141 0.7569 0.0
O495 O 0.57879 0.94219 0.77409 0.0
C496 C 0.55776 0.929 0.7678 0.0
C497 C 0.65838 0.97057 0.78812 0.0
C498 C 0.62714 0.95634 0.73387 0.0
C499 C 0.60975 0.89256 0.76679 0.0
O500 O 0.63049 0.91129 0.76819 0.0
O501 O 0.59136 0.89447 0.76354 0.0
O502 O 0.66995 0.96514 0.778 0.0
O503 O 0.63595 0.96369 0.78526 0.0
C504 C 0.1107 0.27414 0.08658 0.0
C505 C 0.09756 0.27552 0.09931 0.0
C506 C 0.13326 0.27587 0.08877 0.0
C507 C 0.14262 0.27827 0.10416 0.0
C508 C 0.12962 0.28011 0.11709 0.0
C509 C 0.10732 0.27908 0.11447 0.0
C510 C 0.14676 0.27448 0.07459 0.0
C511 C 0.13872 0.28207 0.13368 0.0
C512 C 0.18479 0.25278 0.10547 0.0
C513 C 0.20744 0.27374 0.10411 0.0
C514 C 0.16363 0.25415 0.10697 0.0
C515 C 0.16512 0.27704 0.10652 0.0
C516 C 0.18812 0.29835 0.10601 0.0
C517 C 0.20911 0.29644 0.10503 0.0
C518 C 0.13957 0.231 0.10796 0.0
C519 C 0.1905 0.32307 0.10516 0.0
H520 H 0.10329 0.2717 0.07482 0.0
H521 H 0.09709 0.28006 0.12432 0.0
H522 H 0.16569 0.28971 0.07468 0.0
H523 H 0.14741 0.25744 0.07495 0.0
H524 H 0.13812 0.27499 0.06337 0.0
H525 H 0.12762 0.2854 0.14228 0.0
H526 H 0.1383 0.26502 0.13693 0.0
H527 H 0.15778 0.29687 0.13462 0.0
H528 H 0.18354 0.23521 0.10488 0.0
H529 H 0.22665 0.31265 0.10385 0.0
H530 H 0.12998 0.22762 0.09656 0.0
H531 H 0.12797 0.23248 0.11708 0.0
H532 H 0.14172 0.21515 0.1107 0.0
H533 H 0.18466 0.32558 0.09336 0.0
H534 H 0.20942 0.33777 0.10713 0.0
H535 H 0.17861 0.3248 0.11393 0.0
C536 C 0.76776 0.94001 0.10562 0.0
C537 C 0.79078 0.96039 0.10393 0.0
C538 C 0.76484 0.91667 0.10634 0.0
C539 C 0.78552 0.91389 0.10581 0.0
C540 C 0.80889 0.93467 0.10548 0.0
C541 C 0.8112 0.95764 0.10425 0.0
C542 C 0.73962 0.89502 0.10633 0.0
C543 C 0.83144 0.9326 0.10536 0.0
C544 C 0.78147 0.85294 0.11299 0.0
C545 C 0.78334 0.84624 0.09761 0.0
C546 C 0.78163 0.87475 0.11595 0.0
C547 C 0.78293 0.88962 0.10317 0.0
C548 C 0.78355 0.88214 0.0876 0.0
C549 C 0.78416 0.86078 0.08504 0.0
C550 C 0.78157 0.8824 0.1327 0.0
C551 C 0.78428 0.89705 0.0736 0.0
H552 H 0.75196 0.94217 0.10526 0.0
H553 H 0.82903 0.97347 0.10306 0.0
H554 H 0.73565 0.88642 0.09455 0.0
H555 H 0.73808 0.88129 0.11495 0.0
H556 H 0.72572 0.9001 0.10906 0.0
H557 H 0.848 0.95028 0.10761 0.0
H558 H 0.83021 0.91944 0.11435 0.0
H559 H 0.83335 0.92587 0.09374 0.0
H560 H 0.78093 0.8417 0.1227 0.0
H561 H 0.78531 0.85543 0.07313 0.0
H562 H 0.76752 0.88758 0.13437 0.0
H563 H 0.7993 0.89859 0.13542 0.0
H564 H 0.77833 0.8679 0.14123 0.0
H565 H 0.76967 0.90162 0.07447 0.0
H566 H 0.78223 0.8875 0.0623 0.0
H567 H 0.80177 0.91432 0.07339 0.0
C568 C 0.11467 0.85389 0.10422 0.0
C569 C 0.09387 0.85555 0.10167 0.0
C570 C 0.1375 0.87489 0.10552 0.0
C571 C 0.13931 0.89793 0.1047 0.0
C572 C 0.11801 0.8995 0.10347 0.0
C573 C 0.09559 0.87829 0.10168 0.0
C574 C 0.15977 0.8724 0.10646 0.0
C575 C 0.119 0.92364 0.103 0.0
C576 C 0.19842 0.95606 0.11344 0.0
C577 C 0.20619 0.9649 0.09822 0.0
C578 C 0.17684 0.93397 0.11585 0.0
C579 C 0.16329 0.92023 0.1027 0.0
C580 C 0.17183 0.92865 0.08733 0.0
C581 C 0.19293 0.95103 0.0853 0.0
C582 C 0.16801 0.92589 0.13239 0.0
C583 C 0.15836 0.91432 0.07297 0.0
H584 H 0.11332 0.83626 0.10409 0.0
H585 H 0.07943 0.87954 0.09984 0.0
H586 H 0.16929 0.87751 0.09498 0.0
H587 H 0.17253 0.88479 0.11545 0.0
H588 H 0.15524 0.8536 0.10928 0.0
H589 H 0.10083 0.92171 0.10452 0.0
H590 H 0.13118 0.93578 0.11232 0.0
H591 H 0.12641 0.93251 0.09153 0.0
H592 H 0.20866 0.96686 0.12344 0.0
H593 H 0.19911 0.95772 0.07351 0.0
H594 H 0.16356 0.90689 0.13419 0.0
H595 H 0.15114 0.92652 0.13435 0.0
H596 H 0.18156 0.9375 0.14132 0.0
H597 H 0.15451 0.89538 0.07396 0.0
H598 H 0.16864 0.92225 0.06195 0.0
H599 H 0.14073 0.91374 0.07206 0.0
C600 C 0.24999 0.09412 0.90727 0.0
C601 C 0.27126 0.09292 0.90825 0.0
C602 C 0.25083 0.11641 0.90582 0.0
C603 C 0.2735 0.13808 0.90593 0.0
C604 C 0.29509 0.13687 0.90606 0.0
C605 C 0.2937 0.1142 0.907 0.0
C606 C 0.22738 0.1168 0.90525 0.0
C607 C 0.3196 0.15951 0.90653 0.0
C608 C 0.27428 0.19732 0.898 0.0
C609 C 0.27136 0.2038 0.91324 0.0
C610 C 0.27542 0.17612 0.89535 0.0
C611 C 0.27433 0.16162 0.90829 0.0
C612 C 0.27246 0.16879 0.92373 0.0
C613 C 0.27063 0.18955 0.92597 0.0
C614 C 0.27681 0.16874 0.87872 0.0
C615 C 0.27184 0.15424 0.93791 0.0
H616 H 0.23263 0.07761 0.90811 0.0
H617 H 0.31015 0.11326 0.90788 0.0
H618 H 0.22429 0.12308 0.91672 0.0
H619 H 0.22822 0.12963 0.89613 0.0
H620 H 0.21165 0.09863 0.90275 0.0
H621 H 0.33449 0.15562 0.90436 0.0
H622 H 0.32074 0.17284 0.89772 0.0
H623 H 0.32238 0.16807 0.91827 0.0
H624 H 0.27476 0.20831 0.88815 0.0
H625 H 0.26869 0.19472 0.93778 0.0
H626 H 0.25987 0.15178 0.87582 0.0
H627 H 0.29191 0.16497 0.87749 0.0
H628 H 0.27933 0.18284 0.87005 0.0
H629 H 0.255 0.13638 0.93777 0.0
H630 H 0.27255 0.16347 0.94913 0.0
H631 H 0.28731 0.15089 0.93759 0.0
C632 C 0.94211 0.20773 0.90596 0.0
C633 C 0.96292 0.20563 0.90661 0.0
C634 C 0.919 0.18698 0.90527 0.0
C635 C 0.91685 0.16377 0.90477 0.0
C636 C 0.93798 0.16184 0.90402 0.0
C637 C 0.96075 0.18277 0.90524 0.0
C638 C 0.89697 0.18984 0.90643 0.0
C639 C 0.93657 0.13754 0.90303 0.0
C640 C 0.86545 0.11029 0.92549 0.0
C641 C 0.8503 0.09712 0.91299 0.0
C642 C 0.88648 0.13256 0.92298 0.0
C643 C 0.89301 0.14158 0.90749 0.0
C644 C 0.87757 0.12854 0.89479 0.0
C645 C 0.85612 0.10655 0.89773 0.0
C646 C 0.90203 0.14612 0.93693 0.0
C647 C 0.88422 0.13726 0.87809 0.0
H648 H 0.94381 0.22543 0.90714 0.0
H649 H 0.97689 0.18119 0.90561 0.0
H650 H 0.88296 0.17797 0.89786 0.0
H651 H 0.889 0.18432 0.91834 0.0
H652 H 0.90146 0.20884 0.9044 0.0
H653 H 0.95432 0.1393 0.9 0.0
H654 H 0.93066 0.12816 0.91452 0.0
H655 H 0.92305 0.12593 0.8941 0.0
H656 H 0.86079 0.10314 0.93733 0.0
H657 H 0.84442 0.09629 0.88806 0.0
H658 H 0.90609 0.16518 0.93679 0.0
H659 H 0.91952 0.1464 0.93628 0.0
H660 H 0.89323 0.13779 0.94829 0.0
H661 H 0.88879 0.15641 0.87707 0.0
H662 H 0.86941 0.12618 0.8697 0.0
H663 H 0.90055 0.13644 0.87461 0.0
C664 C 0.8553 0.76981 0.90438 0.0
C665 C 0.85728 0.79245 0.90673 0.0
C666 C 0.87611 0.76756 0.90357 0.0
C667 C 0.89929 0.78855 0.90469 0.0
C668 C 0.90124 0.8116 0.90572 0.0
C669 C 0.8802 0.81323 0.90702 0.0
C670 C 0.87321 0.74262 0.90283 0.0
C671 C 0.92555 0.8345 0.90649 0.0
C672 C 0.95112 0.78696 0.92521 0.0
C673 C 0.96534 0.78733 0.91258 0.0
C674 C 0.92901 0.7861 0.92271 0.0
C675 C 0.92126 0.78641 0.90717 0.0
C676 C 0.93537 0.78638 0.89432 0.0
C677 C 0.95715 0.78646 0.89718 0.0
C678 C 0.91427 0.78549 0.93678 0.0
C679 C 0.928 0.78732 0.87761 0.0
H680 H 0.83754 0.75373 0.90429 0.0
H681 H 0.88169 0.83077 0.90871 0.0
H682 H 0.8858 0.74202 0.89412 0.0
H683 H 0.87775 0.73806 0.91446 0.0
H684 H 0.85443 0.72858 0.89976 0.0
H685 H 0.92402 0.85094 0.90477 0.0
H686 H 0.93392 0.83577 0.91814 0.0
H687 H 0.93794 0.83425 0.89744 0.0
H688 H 0.9573 0.78731 0.93712 0.0
H689 H 0.96823 0.78683 0.88742 0.0
H690 H 0.89528 0.77062 0.93553 0.0
H691 H 0.91398 0.8027 0.93751 0.0
H692 H 0.92166 0.78294 0.94798 0.0
H693 H 0.909 0.77298 0.87554 0.0
H694 H 0.93982 0.78519 0.86894 0.0
H695 H 0.92899 0.80496 0.8755 0.0
C696 C 0.75988 0.57784 0.4364 0.0
C697 C 0.75794 0.59872 0.43549 0.0
C698 C 0.78252 0.57939 0.43763 0.0
C699 C 0.80379 0.60239 0.43741 0.0
C700 C 0.80186 0.62358 0.43739 0.0
C701 C 0.77885 0.62148 0.43664 0.0
C702 C 0.78369 0.55634 0.43808 0.0
C703 C 0.82405 0.64843 0.43684 0.0
C704 C 0.86402 0.60495 0.44472 0.0
C705 C 0.8704 0.6023 0.4294 0.0
C706 C 0.84254 0.60546 0.4476 0.0
C707 C 0.82762 0.60397 0.43481 0.0
C708 C 0.83468 0.60238 0.41929 0.0
C709 C 0.85576 0.60121 0.41681 0.0
C710 C 0.83533 0.6066 0.46432 0.0
C711 C 0.81967 0.60135 0.40526 0.0
H712 H 0.74367 0.56022 0.43565 0.0
H713 H 0.77736 0.63763 0.43583 0.0
H714 H 0.78998 0.55352 0.42653 0.0
H715 H 0.79684 0.55759 0.44708 0.0
H716 H 0.76578 0.54028 0.44066 0.0
H717 H 0.81965 0.66293 0.43916 0.0
H718 H 0.83772 0.64996 0.44551 0.0
H719 H 0.83242 0.65147 0.42502 0.0
H720 H 0.87532 0.60572 0.45446 0.0
H721 H 0.86084 0.59948 0.40493 0.0
H722 H 0.81871 0.58939 0.46731 0.0
H723 H 0.83103 0.62133 0.46567 0.0
H724 H 0.84974 0.60956 0.47284 0.0
H725 H 0.80204 0.58423 0.40549 0.0
H726 H 0.82879 0.60232 0.39394 0.0
H727 H 0.81582 0.61648 0.4057 0.0
C728 C 0.44651 0.279 0.41862 0.0
C729 C 0.44747 0.29374 0.43109 0.0
C730 C 0.44618 0.2572 0.42134 0.0
C731 C 0.44763 0.25031 0.43694 0.0
C732 C 0.44797 0.26484 0.44965 0.0
C733 C 0.44753 0.2863 0.44657 0.0
C734 C 0.44516 0.24198 0.40745 0.0
C735 C 0.45005 0.25838 0.46641 0.0
C736 C 0.43378 0.18527 0.44042 0.0
C737 C 0.45669 0.18812 0.43761 0.0
C738 C 0.43059 0.20553 0.44123 0.0
C739 C 0.45091 0.22906 0.43957 0.0
C740 C 0.47432 0.23195 0.43811 0.0
C741 C 0.47687 0.21144 0.4369 0.0
C742 C 0.40531 0.20162 0.44254 0.0
C743 C 0.49655 0.2567 0.43671 0.0
H744 H 0.44617 0.28462 0.40664 0.0
H745 H 0.44839 0.2978 0.45621 0.0
H746 H 0.46263 0.24229 0.40631 0.0
H747 H 0.43082 0.22288 0.40921 0.0
H748 H 0.44155 0.24857 0.39625 0.0
H749 H 0.44749 0.27003 0.47499 0.0
H750 H 0.43656 0.23919 0.46883 0.0
H751 H 0.46823 0.26053 0.46828 0.0
H752 H 0.41814 0.16722 0.44087 0.0
H753 H 0.49463 0.21364 0.43486 0.0
H754 H 0.39968 0.20516 0.43097 0.0
H755 H 0.40468 0.2144 0.4511 0.0
H756 H 0.39204 0.18284 0.44615 0.0
H757 H 0.49679 0.26445 0.425 0.0
H758 H 0.51351 0.256 0.43807 0.0
H759 H 0.49627 0.26914 0.4457 0.0
C760 C 0.84774 0.29261 0.43884 0.0
C761 C 0.87061 0.29472 0.43782 0.0
C762 C 0.8268 0.26992 0.44043 0.0
C763 C 0.82873 0.24875 0.44043 0.0
C764 C 0.85193 0.25089 0.44023 0.0
C765 C 0.87268 0.27395 0.43915 0.0
C766 C 0.8025 0.26855 0.44108 0.0
C767 C 0.85479 0.22881 0.43985 0.0
C768 C 0.77172 0.18844 0.44888 0.0
C769 C 0.76213 0.18149 0.43372 0.0
C770 C 0.79366 0.21017 0.45134 0.0
C771 C 0.80652 0.22472 0.43827 0.0
C772 C 0.79733 0.21707 0.42291 0.0
C773 C 0.7751 0.19578 0.42087 0.0
C774 C 0.80256 0.21803 0.4679 0.0
C775 C 0.81069 0.23165 0.4086 0.0
H776 H 0.84616 0.30872 0.43793 0.0
H777 H 0.89038 0.27558 0.43823 0.0
H778 H 0.79306 0.26184 0.42967 0.0
H779 H 0.79095 0.25565 0.4503 0.0
H780 H 0.80427 0.28648 0.44348 0.0
H781 H 0.87382 0.23343 0.44192 0.0
H782 H 0.84306 0.2154 0.44877 0.0
H783 H 0.84906 0.22001 0.42817 0.0
H784 H 0.76162 0.17742 0.45883 0.0
H785 H 0.76784 0.19026 0.40911 0.0
H786 H 0.80187 0.23466 0.47072 0.0
H787 H 0.82168 0.22257 0.46903 0.0
H788 H 0.79151 0.20388 0.47667 0.0
H789 H 0.81095 0.24915 0.40863 0.0
H790 H 0.80223 0.22206 0.39746 0.0
H791 H 0.82976 0.23576 0.40884 0.0
C792 C 0.93917 0.43551 0.23112 0.0
C793 C 0.9372 0.42695 0.24652 0.0
C794 C 0.94055 0.45789 0.22817 0.0
C795 C 0.94065 0.47216 0.24096 0.0
C796 C 0.93988 0.46401 0.25653 0.0
C797 C 0.9378 0.44138 0.25909 0.0
C798 C 0.94079 0.46572 0.21141 0.0
C799 C 0.94055 0.47888 0.27054 0.0
C800 C 0.95983 0.53881 0.23856 0.0
C801 C 0.9375 0.53768 0.24048 0.0
C802 C 0.96119 0.5175 0.2377 0.0
C803 C 0.93964 0.49471 0.23836 0.0
C804 C 0.91696 0.49368 0.2389 0.0
C805 C 0.9162 0.51517 0.24024 0.0
C806 C 0.98572 0.51941 0.23744 0.0
C807 C 0.89351 0.46982 0.23919 0.0
H808 H 0.93865 0.4243 0.22139 0.0
H809 H 0.93661 0.43492 0.27103 0.0
H810 H 0.92357 0.46539 0.20887 0.0
H811 H 0.95566 0.48457 0.20962 0.0
H812 H 0.94291 0.45376 0.20286 0.0
H813 H 0.94219 0.47105 0.28182 0.0
H814 H 0.95601 0.49762 0.26954 0.0
H815 H 0.92375 0.47998 0.27091 0.0
H816 H 0.97631 0.55625 0.23885 0.0
H817 H 0.89891 0.51435 0.24159 0.0
H818 H 0.98614 0.50662 0.2288 0.0
H819 H 0.98953 0.51448 0.24917 0.0
H820 H 1.00036 0.53802 0.23455 0.0
H821 H 0.89367 0.45736 0.23016 0.0
H822 H 0.8776 0.47213 0.23712 0.0
H823 H 0.89133 0.46108 0.25081 0.0
C824 C 0.63021 0.5159 0.23624 0.0
C825 C 0.633 0.53907 0.2372 0.0
C826 C 0.60716 0.49524 0.23542 0.0
C827 C 0.58637 0.49779 0.23611 0.0
C828 C 0.58912 0.52125 0.23623 0.0
C829 C 0.61248 0.54168 0.23655 0.0
C830 C 0.6051 0.47063 0.23484 0.0
C831 C 0.56749 0.52478 0.23731 0.0
C832 C 0.52471 0.44147 0.22957 0.0
C833 C 0.51865 0.43254 0.24494 0.0
C834 C 0.54658 0.46295 0.22643 0.0
C835 C 0.56225 0.47603 0.23903 0.0
C836 C 0.55556 0.46753 0.25461 0.0
C837 C 0.53406 0.44574 0.25733 0.0
C838 C 0.55336 0.4711 0.20964 0.0
C839 C 0.57137 0.48117 0.26844 0.0
H840 H 0.6461 0.51388 0.23662 0.0
H841 H 0.61463 0.5596 0.23742 0.0
H842 H 0.59909 0.46169 0.24646 0.0
H843 H 0.59138 0.45893 0.22605 0.0
H844 H 0.62262 0.47182 0.23189 0.0
H845 H 0.5724 0.54386 0.23511 0.0
H846 H 0.5533 0.51296 0.22881 0.0
H847 H 0.55953 0.51962 0.24925 0.0
H848 H 0.51283 0.43119 0.21998 0.0
H849 H 0.52926 0.43902 0.26925 0.0
H850 H 0.56954 0.46989 0.20634 0.0
H851 H 0.55823 0.4903 0.20834 0.0
H852 H 0.53851 0.45994 0.20131 0.0
H853 H 0.58862 0.48094 0.26785 0.0
H854 H 0.56255 0.47326 0.27987 0.0
H855 H 0.57592 0.50037 0.26809 0.0
C856 C 0.51899 0.10249 0.24019 0.0
C857 C 0.52236 0.12573 0.24241 0.0
C858 C 0.53895 0.09884 0.23924 0.0
C859 C 0.5627 0.11902 0.2401 0.0
C860 C 0.56605 0.14266 0.24096 0.0
C861 C 0.54584 0.14569 0.24238 0.0
C862 C 0.53456 0.07333 0.23865 0.0
C863 C 0.59101 0.16472 0.24147 0.0
C864 C 0.61318 0.11493 0.26058 0.0
C865 C 0.62697 0.11447 0.24793 0.0
C866 C 0.59155 0.11505 0.25811 0.0
C867 C 0.58385 0.11549 0.24257 0.0
C868 C 0.59741 0.11445 0.22971 0.0
C869 C 0.61871 0.11359 0.23256 0.0
C870 C 0.57737 0.11549 0.27219 0.0
C871 C 0.59009 0.11545 0.213 0.0
H872 H 0.50081 0.08702 0.24034 0.0
H873 H 0.54842 0.1637 0.24397 0.0
H874 H 0.54665 0.07179 0.22995 0.0
H875 H 0.53872 0.0685 0.25031 0.0
H876 H 0.5155 0.06002 0.23564 0.0
H877 H 0.59053 0.18172 0.23964 0.0
H878 H 0.5994 0.16576 0.25307 0.0
H879 H 0.60281 0.1635 0.23237 0.0
H880 H 0.61943 0.11533 0.27249 0.0
H881 H 0.62947 0.11335 0.22278 0.0
H882 H 0.55806 0.10132 0.27105 0.0
H883 H 0.57813 0.13323 0.27283 0.0
H884 H 0.58449 0.11259 0.2834 0.0
H885 H 0.57071 0.10202 0.21113 0.0
H886 H 0.60108 0.11204 0.20436 0.0
H887 H 0.5924 0.1336 0.21065 0.0
C888 C 0.43876 0.94124 0.7804 0.0
C889 C 0.43134 0.9411 0.76489 0.0
C890 C 0.46012 0.94066 0.7836 0.0
C891 C 0.47457 0.94064 0.77096 0.0
C892 C 0.46768 0.9418 0.75531 0.0
C893 C 0.446 0.94165 0.75248 0.0
C894 C 0.46659 0.9389 0.8004 0.0
C895 C 0.48282 0.94242 0.74148 0.0
C896 C 0.53963 0.95463 0.77458 0.0
C897 C 0.5368 0.93168 0.77197 0.0
C898 C 0.51936 0.9578 0.77528 0.0
C899 C 0.49584 0.93742 0.77374 0.0
C900 C 0.49297 0.914 0.7725 0.0
C901 C 0.5135 0.91146 0.77136 0.0
C902 C 0.52324 0.9831 0.77631 0.0
C903 C 0.46824 0.89172 0.77126 0.0
H904 H 0.42735 0.94072 0.79 0.0
H905 H 0.44042 0.94185 0.74047 0.0
H906 H 0.46453 0.92079 0.80244 0.0
H907 H 0.48576 0.9525 0.8028 0.0
H908 H 0.45491 0.94155 0.8089 0.0
H909 H 0.4762 0.94574 0.7302 0.0
H910 H 0.50194 0.95678 0.74315 0.0
H911 H 0.48248 0.9249 0.74059 0.0
H912 H 0.55768 0.97029 0.77493 0.0
H913 H 0.51133 0.89368 0.76947 0.0
H914 H 0.51051 0.98392 0.78481 0.0
H915 H 0.51963 0.98845 0.76466 0.0
H916 H 0.54205 0.99647 0.77984 0.0
H917 H 0.45581 0.89221 0.78017 0.0
H918 H 0.46896 0.87481 0.77285 0.0
H919 H 0.46045 0.89117 0.75951 0.0
C920 C 0.0982 0.51898 0.77049 0.0
C921 C 0.12063 0.52023 0.76882 0.0
C922 C 0.09676 0.54022 0.77163 0.0
C923 C 0.1183 0.56305 0.77155 0.0
C924 C 0.14101 0.56415 0.77123 0.0
C925 C 0.14188 0.54274 0.76957 0.0
C926 C 0.07219 0.53825 0.77158 0.0
C927 C 0.16443 0.58803 0.77158 0.0
C928 C 0.12074 0.61739 0.75183 0.0
C929 C 0.12046 0.63097 0.76466 0.0
C930 C 0.11879 0.59473 0.75395 0.0
C931 C 0.11732 0.58571 0.76936 0.0
C932 C 0.11665 0.59918 0.7824 0.0
C933 C 0.11783 0.62158 0.77987 0.0
C934 C 0.11891 0.58072 0.73967 0.0
C935 C 0.11573 0.59047 0.79899 0.0
H936 H 0.08176 0.50154 0.76979 0.0
H937 H 0.15924 0.54365 0.7684 0.0
H938 H 0.07132 0.5505 0.78047 0.0
H939 H 0.06896 0.54389 0.75992 0.0
H940 H 0.05744 0.51948 0.77393 0.0
H941 H 0.18027 0.58564 0.77379 0.0
H942 H 0.16713 0.59735 0.76014 0.0
H943 H 0.16384 0.6 0.78081 0.0
H944 H 0.12243 0.62452 0.74004 0.0
H945 H 0.11769 0.63215 0.78979 0.0
H946 H 0.10351 0.56189 0.74016 0.0
H947 H 0.13579 0.57977 0.73947 0.0
H948 H 0.11774 0.58915 0.72853 0.0
H949 H 0.10077 0.57155 0.80032 0.0
H950 H 0.1133 0.60198 0.80776 0.0
H951 H 0.13282 0.59061 0.80167 0.0
C952 C 0.42875 0.54178 0.77336 0.0
C953 C 0.42591 0.51864 0.77191 0.0
C954 C 0.45182 0.56238 0.77425 0.0
C955 C 0.47257 0.55983 0.77311 0.0
C956 C 0.46977 0.53636 0.77252 0.0
C957 C 0.44639 0.51597 0.77214 0.0
C958 C 0.45394 0.58698 0.77535 0.0
C959 C 0.49136 0.53282 0.77093 0.0
C960 C 0.52431 0.6124 0.75188 0.0
C961 C 0.54004 0.6253 0.76422 0.0
C962 C 0.50291 0.59053 0.7546 0.0
C963 C 0.49663 0.58164 0.77014 0.0
C964 C 0.51263 0.5944 0.78267 0.0
C965 C 0.5344 0.61598 0.77951 0.0
C966 C 0.48674 0.57723 0.74082 0.0
C967 C 0.50629 0.58582 0.79942 0.0
H968 H 0.41287 0.54384 0.7733 0.0
H969 H 0.4442 0.49807 0.77089 0.0
H970 H 0.46789 0.59843 0.78411 0.0
H971 H 0.45966 0.59625 0.76382 0.0
H972 H 0.43651 0.58572 0.77866 0.0
H973 H 0.48646 0.51369 0.77288 0.0
H974 H 0.49901 0.53822 0.75894 0.0
H975 H 0.50577 0.54445 0.77937 0.0
H976 H 0.52879 0.61944 0.74001 0.0
H977 H 0.54653 0.62602 0.78907 0.0
H978 H 0.46953 0.57748 0.74178 0.0
H979 H 0.48216 0.55802 0.74088 0.0
H980 H 0.49528 0.58542 0.72938 0.0
H981 H 0.49027 0.58706 0.80312 0.0
H982 H 0.5214 0.59672 0.80765 0.0
H983 H 0.50135 0.56656 0.80041 0.0
C984 C 0.6253 0.78388 0.57221 0.0
C985 C 0.60278 0.7628 0.5738 0.0
C986 C 0.627 0.80672 0.57162 0.0
C987 C 0.60562 0.80829 0.57218 0.0
C988 C 0.58279 0.78681 0.57244 0.0
C989 C 0.58167 0.76436 0.57354 0.0
C990 C 0.65169 0.82915 0.57172 0.0
C991 C 0.55952 0.78758 0.57259 0.0
C992 C 0.60416 0.85988 0.59309 0.0
C993 C 0.60431 0.87418 0.58056 0.0
C994 C 0.60586 0.83913 0.59047 0.0
C995 C 0.60693 0.83198 0.57488 0.0
C996 C 0.6075 0.84659 0.56215 0.0
C997 C 0.60657 0.86782 0.56516 0.0
C998 C 0.60588 0.82451 0.60444 0.0
C999 C 0.608 0.83923 0.54537 0.0
H1000 H 0.64163 0.78264 0.57253 0.0
H1001 H 0.56423 0.74799 0.57464 0.0
H1002 H 0.65257 0.84261 0.56311 0.0
H1003 H 0.65522 0.83767 0.58351 0.0
H1004 H 0.66626 0.825 0.569 0.0
H1005 H 0.5435 0.7695 0.57031 0.0
H1006 H 0.55719 0.79395 0.58424 0.0
H1007 H 0.56007 0.80048 0.56364 0.0
H1008 H 0.60274 0.865 0.60502 0.0
H1009 H 0.60661 0.87887 0.55548 0.0
H1010 H 0.62113 0.82089 0.60356 0.0
H1011 H 0.58889 0.80677 0.60459 0.0
H1012 H 0.6074 0.83382 0.61576 0.0
H1013 H 0.62279 0.83511 0.54367 0.0
H1014 H 0.61042 0.8535 0.53688 0.0
H1015 H 0.59075 0.82248 0.54265 0.0
C1016 C 0.20773 0.75935 0.57285 0.0
C1017 C 0.18473 0.75706 0.57311 0.0
C1018 C 0.22867 0.78216 0.57196 0.0
C1019 C 0.22658 0.80322 0.57186 0.0
C1020 C 0.20332 0.80094 0.57123 0.0
C1021 C 0.18261 0.77778 0.57166 0.0
C1022 C 0.25307 0.78371 0.5722 0.0
C1023 C 0.20026 0.8229 0.57143 0.0
C1024 C 0.27822 0.85556 0.59331 0.0
C1025 C 0.29232 0.87032 0.58092 0.0
C1026 C 0.25626 0.83431 0.59047 0.0
C1027 C 0.24847 0.82722 0.5748 0.0
C1028 C 0.26244 0.84226 0.56221 0.0
C1029 C 0.28411 0.86389 0.56544 0.0
C1030 C 0.24169 0.81915 0.60428 0.0
C1031 C 0.25501 0.83504 0.54536 0.0
H1032 H 0.20937 0.74329 0.57384 0.0
H1033 H 0.16481 0.77601 0.57197 0.0
H1034 H 0.26533 0.79698 0.56338 0.0
H1035 H 0.26152 0.79005 0.58392 0.0
H1036 H 0.25164 0.76593 0.56981 0.0
H1037 H 0.18142 0.81825 0.56862 0.0
H1038 H 0.20488 0.83124 0.58329 0.0
H1039 H 0.21272 0.8367 0.56295 0.0
H1040 H 0.28438 0.86066 0.60531 0.0
H1041 H 0.29506 0.87528 0.55585 0.0
H1042 H 0.24148 0.80166 0.60427 0.0
H1043 H 0.22266 0.81503 0.60333 0.0
H1044 H 0.24915 0.82829 0.6157 0.0
H1045 H 0.25605 0.81859 0.54259 0.0
H1046 H 0.26675 0.84956 0.53698 0.0
H1047 H 0.23598 0.83045 0.54352 0.0
C1048 C 0.29583 0.47576 0.57181 0.0
C1049 C 0.29826 0.45517 0.57281 0.0
C1050 C 0.27296 0.4737 0.57074 0.0
C1051 C 0.25197 0.4505 0.57117 0.0
C1052 C 0.25439 0.42959 0.57128 0.0
C1053 C 0.2776 0.43219 0.57189 0.0
C1054 C 0.27126 0.49646 0.57022 0.0
C1055 C 0.23251 0.40455 0.57205 0.0
C1056 C 0.19985 0.45096 0.59207 0.0
C1057 C 0.18491 0.44949 0.57956 0.0
C1058 C 0.22109 0.45013 0.58948 0.0
C1059 C 0.22797 0.44847 0.57392 0.0
C1060 C 0.21274 0.44654 0.56122 0.0
C1061 C 0.19113 0.44673 0.56422 0.0
C1062 C 0.23646 0.45165 0.60342 0.0
C1063 C 0.21974 0.44528 0.54447 0.0
H1064 H 0.31184 0.49355 0.57238 0.0
H1065 H 0.27948 0.41625 0.57276 0.0
H1066 H 0.25785 0.49481 0.56128 0.0
H1067 H 0.26503 0.49928 0.58178 0.0
H1068 H 0.28896 0.51271 0.56749 0.0
H1069 H 0.23723 0.39026 0.56974 0.0
H1070 H 0.22433 0.40154 0.58393 0.0
H1071 H 0.21857 0.4026 0.56347 0.0
H1072 H 0.19491 0.45278 0.60397 0.0
H1073 H 0.1796 0.44566 0.55454 0.0
H1074 H 0.25391 0.46895 0.60304 0.0
H1075 H 0.24064 0.43675 0.603 0.0
H1076 H 0.22746 0.45066 0.61479 0.0
H1077 H 0.23607 0.46262 0.5413 0.0
H1078 H 0.20506 0.44185 0.53604 0.0
H1079 H 0.22442 0.43082 0.54316 0.0
C1080 C 0.02641 0.32735 0.14361 0.0
C1081 C 0.00723 0.31907 0.13286 0.0
C1082 C 0.02411 0.33427 0.15892 0.0
C1083 C 0.00191 0.33228 0.16368 0.0
C1084 C 0.98287 0.32486 0.15265 0.0
C1085 C 0.98586 0.31862 0.13736 0.0
C1086 C 0.04505 0.34272 0.1702 0.0
C1087 C 0.95875 0.32209 0.15726 0.0
C1088 C 0.9807 0.31719 0.20589 0.0
C1089 C 0.9821 0.33872 0.21107 0.0
C1090 C 0.988 0.3152 0.19069 0.0
C1091 C 0.99745 0.3354 0.18048 0.0
C1092 C 1.00033 0.35766 0.18596 0.0
C1093 C 0.99234 0.35899 0.20115 0.0
C1094 C 0.98423 0.29101 0.18528 0.0
C1095 C 0.01092 0.37978 0.17557 0.0
H1096 H 0.04304 0.32792 0.14018 0.0
H1097 H 0.97092 0.31221 0.12915 0.0
H1098 H 0.04807 0.35923 0.17651 0.0
H1099 H 0.04083 0.32853 0.17915 0.0
H1100 H 0.06204 0.34667 0.16413 0.0
H1101 H 0.94628 0.31743 0.14709 0.0
H1102 H 0.95 0.30759 0.16621 0.0
H1103 H 0.96131 0.33905 0.16262 0.0
H1104 H 0.97278 0.30141 0.21345 0.0
H1105 H 0.99362 0.37573 0.20511 0.0
H1106 H 1.0013 0.29303 0.18049 0.0
H1107 H 0.97064 0.28389 0.17568 0.0
H1108 H 0.97786 0.27744 0.19491 0.0
H1109 H 0.02768 0.38244 0.16982 0.0
H1110 H 0.01517 0.3964 0.18224 0.0
H1111 H 0.99787 0.37725 0.16614 0.0
C1112 C 0.73826 0.69281 0.13477 0.0
C1113 C 0.73639 0.71263 0.12948 0.0
C1114 C 0.73193 0.68416 0.15018 0.0
C1115 C 0.72283 0.69514 0.16049 0.0
C1116 C 0.71955 0.71425 0.15495 0.0
C1117 C 0.72675 0.72305 0.13957 0.0
C1118 C 0.73626 0.66413 0.15568 0.0
C1119 C 0.7092 0.72592 0.16541 0.0
C1120 C 0.69528 0.65879 0.19781 0.0
C1121 C 0.71466 0.67029 0.20837 0.0
C1122 C 0.69703 0.66764 0.18243 0.0
C1123 C 0.71894 0.68795 0.17738 0.0
C1124 C 0.73821 0.70009 0.18819 0.0
C1125 C 0.7357 0.69131 0.20358 0.0
C1126 C 0.67581 0.65467 0.17142 0.0
C1127 C 0.76208 0.72147 0.18324 0.0
H1128 H 0.74584 0.68476 0.12708 0.0
H1129 H 0.72512 0.73827 0.13551 0.0
H1130 H 0.75003 0.67098 0.16517 0.0
H1131 H 0.71942 0.64899 0.16064 0.0
H1132 H 0.74267 0.65696 0.14606 0.0
H1133 H 0.7047 0.73813 0.15875 0.0
H1134 H 0.69263 0.71189 0.17138 0.0
H1135 H 0.72249 0.73665 0.17468 0.0
H1136 H 0.67892 0.64262 0.20147 0.0
H1137 H 0.75081 0.70022 0.21164 0.0
H1138 H 0.67993 0.64461 0.16248 0.0
H1139 H 0.67239 0.66787 0.16508 0.0
H1140 H 0.65906 0.64163 0.17773 0.0
H1141 H 0.77067 0.71564 0.17422 0.0
H1142 H 0.77484 0.72958 0.19324 0.0
H1143 H 0.75921 0.73564 0.17784 0.0
C1144 C 0.36323 0.07469 0.13959 0.0
C1145 C 0.34321 0.05287 0.13468 0.0
C1146 C 0.37283 0.07725 0.15475 0.0
C1147 C 0.36254 0.05733 0.1652 0.0
C1148 C 0.34331 0.03478 0.15998 0.0
C1149 C 0.33364 0.03289 0.14483 0.0
C1150 C 0.39305 0.10176 0.15987 0.0
C1151 C 0.33231 0.01293 0.17061 0.0
C1152 C 0.40055 0.06756 0.20191 0.0
C1153 C 0.38955 0.07592 0.21253 0.0
C1154 C 0.391 0.0598 0.18674 0.0
C1155 C 0.37038 0.06106 0.18197 0.0
C1156 C 0.35864 0.06848 0.19289 0.0
C1157 C 0.3682 0.07553 0.20806 0.0
C1158 C 0.40361 0.05132 0.1756 0.0
C1159 C 0.33687 0.07051 0.18826 0.0
H1160 H 0.37073 0.09026 0.13185 0.0
H1161 H 0.31827 0.01592 0.14109 0.0
H1162 H 0.38653 0.10891 0.16942 0.0
H1163 H 0.40838 0.1002 0.16464 0.0
H1164 H 0.39985 0.11508 0.1501 0.0
H1165 H 0.32017 0.99603 0.1641 0.0
H1166 H 0.3467 0.01081 0.17645 0.0
H1167 H 0.32165 0.01538 0.17997 0.0
H1168 H 0.41696 0.06764 0.20531 0.0
H1169 H 0.35958 0.08199 0.21616 0.0
H1170 H 0.41339 0.06534 0.16651 0.0
H1171 H 0.39024 0.03459 0.16945 0.0
H1172 H 0.41686 0.04775 0.18176 0.0
H1173 H 0.34216 0.0847 0.17913 0.0
H1174 H 0.32901 0.07522 0.19838 0.0
H1175 H 0.32264 0.05325 0.18313 0.0
C1176 C 0.32891 0.03009 0.86834 0.0
C1177 C 0.32215 0.01128 0.87923 0.0
C1178 C 0.3359 0.02814 0.85297 0.0
C1179 C 0.33545 0.00661 0.84829 0.0
C1180 C 0.32948 0.98797 0.85942 0.0
C1181 C 0.3232 0.99066 0.87478 0.0
C1182 C 0.34284 0.04871 0.84159 0.0
C1183 C 0.32828 0.9645 0.85489 0.0
C1184 C 0.32093 0.98511 0.80606 0.0
C1185 C 0.34307 0.98812 0.80073 0.0
C1186 C 0.31846 0.9918 0.82134 0.0
C1187 C 0.33878 0.00236 0.83148 0.0
C1188 C 0.36153 0.00676 0.82587 0.0
C1189 C 0.36334 0.99927 0.81062 0.0
C1190 C 0.29374 0.98631 0.82691 0.0
C1191 C 0.38375 0.01861 0.83615 0.0
H1192 H 0.32829 0.04614 0.87173 0.0
H1193 H 0.31792 0.97599 0.88309 0.0
H1194 H 0.35964 0.05283 0.83522 0.0
H1195 H 0.32834 0.04341 0.8327 0.0
H1196 H 0.34565 0.06539 0.84758 0.0
H1197 H 0.32451 0.9523 0.86511 0.0
H1198 H 0.31379 0.95493 0.84603 0.0
H1199 H 0.34555 0.96812 0.84943 0.0
H1200 H 0.30514 0.97641 0.79854 0.0
H1201 H 0.38054 0.00178 0.80653 0.0
H1202 H 0.29454 0.00288 0.83163 0.0
H1203 H 0.28764 0.97289 0.8366 0.0
H1204 H 0.28001 0.97894 0.81739 0.0
H1205 H 0.38544 0.03504 0.84181 0.0
H1206 H 0.40055 0.02373 0.82942 0.0
H1207 H 0.38213 0.006 0.84566 0.0
C1208 C 0.05574 0.39207 0.8096 0.0
C1209 C 0.06649 0.3829 0.79942 0.0
C1210 C 0.04811 0.38227 0.82473 0.0
C1211 C 0.05211 0.36345 0.82993 0.0
C1212 C 0.06211 0.35356 0.81945 0.0
C1213 C 0.06883 0.36316 0.80428 0.0
C1214 C 0.03674 0.39273 0.83536 0.0
C1215 C 0.06721 0.33387 0.82458 0.0
C1216 C 0.06547 0.35888 0.87278 0.0
C1217 C 0.04495 0.33724 0.87736 0.0
C1218 C 0.06756 0.36812 0.85756 0.0
C1219 C 0.0484 0.35575 0.84671 0.0
C1220 C 0.02695 0.33475 0.85158 0.0
C1221 C 0.02561 0.32552 0.8668 0.0
C1222 C 0.09095 0.3903 0.85281 0.0
C1223 C 0.00584 0.32147 0.84053 0.0
H1224 H 0.05374 0.40722 0.80588 0.0
H1225 H 0.07724 0.35605 0.79652 0.0
H1226 H 0.02057 0.37805 0.8413 0.0
H1227 H 0.04981 0.40383 0.84464 0.0
H1228 H 0.03134 0.40436 0.82883 0.0
H1229 H 0.07399 0.32736 0.81479 0.0
H1230 H 0.08098 0.34082 0.83407 0.0
H1231 H 0.05062 0.31826 0.82942 0.0
H1232 H 0.08053 0.36802 0.88085 0.0
H1233 H 0.00961 0.30888 0.87031 0.0
H1234 H 0.0873 0.40416 0.84774 0.0
H1235 H 0.10001 0.38537 0.84358 0.0
H1236 H 0.10362 0.39848 0.86284 0.0
H1237 H 0.00184 0.3344 0.83436 0.0
H1238 H 0.98928 0.30788 0.84676 0.0
H1239 H 0.01045 0.31197 0.83145 0.0
C1240 C 0.66607 0.69481 0.8071 0.0
C1241 C 0.6765 0.71389 0.79625 0.0
C1242 C 0.67559 0.69747 0.82236 0.0
C1243 C 0.69557 0.71994 0.82698 0.0
C1244 C 0.70666 0.73892 0.81588 0.0
C1245 C 0.69718 0.73556 0.80063 0.0
C1246 C 0.66371 0.67656 0.83371 0.0
C1247 C 0.72768 0.76334 0.82035 0.0
C1248 C 0.70197 0.74115 0.86923 0.0
C1249 C 0.72257 0.74043 0.8742 0.0
C1250 C 0.69249 0.73367 0.85409 0.0
C1251 C 0.70348 0.72466 0.84373 0.0
C1252 C 0.72336 0.72246 0.849 0.0
C1253 C 0.7329 0.7307 0.86412 0.0
C1254 C 0.67158 0.73679 0.84889 0.0
C1255 C 0.73512 0.71228 0.83847 0.0
H1256 H 0.65017 0.67796 0.80377 0.0
H1257 H 0.70531 0.75044 0.79235 0.0
H1258 H 0.67756 0.67397 0.83989 0.0
H1259 H 0.65368 0.68053 0.84276 0.0
H1260 H 0.65081 0.65941 0.82773 0.0
H1261 H 0.73498 0.77582 0.81015 0.0
H1262 H 0.72178 0.77181 0.82941 0.0
H1263 H 0.74249 0.76129 0.82553 0.0
H1264 H 0.69391 0.74872 0.87692 0.0
H1265 H 0.74872 0.72994 0.86792 0.0
H1266 H 0.65669 0.71951 0.84421 0.0
H1267 H 0.67756 0.75029 0.83925 0.0
H1268 H 0.66434 0.74297 0.85859 0.0
H1269 H 0.72119 0.69531 0.83283 0.0
H1270 H 0.74795 0.70851 0.84501 0.0
H1271 H 0.7452 0.72537 0.82896 0.0
C1272 C 0.07358 0.73902 0.87249 0.0
C1273 C 0.05188 0.7376 0.87729 0.0
C1274 C 0.07643 0.73275 0.85717 0.0
C1275 C 0.05691 0.72426 0.84644 0.0
C1276 C 0.03442 0.72125 0.85152 0.0
C1277 C 0.03226 0.72826 0.86684 0.0
C1278 C 0.10086 0.73667 0.85221 0.0
C1279 C 0.01298 0.71161 0.84058 0.0
C1280 C 0.07594 0.73899 0.80382 0.0
C1281 C 0.07542 0.71786 0.79868 0.0
C1282 C 0.06913 0.74096 0.81917 0.0
C1283 C 0.06104 0.72109 0.82959 0.0
C1284 C 0.05912 0.69919 0.82419 0.0
C1285 C 0.06666 0.69793 0.80885 0.0
C1286 C 0.07192 0.76481 0.82449 0.0
C1287 C 0.04994 0.67739 0.83479 0.0
H1288 H 0.08888 0.74628 0.88045 0.0
H1289 H 0.01538 0.72696 0.8705 0.0
H1290 H 0.09899 0.71995 0.8469 0.0
H1291 H 0.10872 0.75104 0.84312 0.0
H1292 H 0.11377 0.7421 0.86219 0.0
H1293 H 0.99598 0.70696 0.84692 0.0
H1294 H 0.01616 0.72542 0.83155 0.0
H1295 H 0.01057 0.69528 0.83435 0.0
H1296 H 0.08277 0.75451 0.79607 0.0
H1297 H 0.06605 0.68149 0.80492 0.0
H1298 H 0.08577 0.77262 0.83391 0.0
H1299 H 0.05468 0.76205 0.82949 0.0
H1300 H 0.07745 0.77815 0.81477 0.0
H1301 H 0.06353 0.68088 0.84406 0.0
H1302 H 0.04636 0.66087 0.82824 0.0
H1303 H 0.03305 0.67394 0.84076 0.0
C1304 C 0.36328 0.39826 0.81052 0.0
C1305 C 0.34432 0.38666 0.79967 0.0
C1306 C 0.36143 0.38882 0.82572 0.0
C1307 C 0.33985 0.36771 0.83029 0.0
C1308 C 0.32113 0.35541 0.81915 0.0
C1309 C 0.32373 0.36486 0.80394 0.0
C1310 C 0.3821 0.40204 0.8371 0.0
C1311 C 0.29761 0.33312 0.82357 0.0
C1312 C 0.33141 0.33143 0.8676 0.0
C1313 C 0.32016 0.34046 0.87748 0.0
C1314 C 0.33945 0.34119 0.85251 0.0
C1315 C 0.33548 0.35991 0.84705 0.0
C1316 C 0.32499 0.36967 0.85723 0.0
C1317 C 0.31776 0.36004 0.87235 0.0
C1318 C 0.35126 0.33083 0.8422 0.0
C1319 C 0.31999 0.38931 0.85182 0.0
H1320 H 0.37932 0.41503 0.80725 0.0
H1321 H 0.30896 0.3558 0.79566 0.0
H1322 H 0.37715 0.4115 0.846 0.0
H1323 H 0.38587 0.38908 0.84345 0.0
H1324 H 0.3989 0.41565 0.83109 0.0
H1325 H 0.28541 0.32491 0.81332 0.0
H1326 H 0.30114 0.31932 0.82888 0.0
H1327 H 0.28807 0.33794 0.83251 0.0
H1328 H 0.33348 0.3164 0.87153 0.0
H1329 H 0.30902 0.3671 0.87987 0.0
H1330 H 0.36765 0.34556 0.83649 0.0
H1331 H 0.33858 0.31979 0.83273 0.0
H1332 H 0.35642 0.31917 0.84892 0.0
H1333 H 0.33675 0.40501 0.84723 0.0
H1334 H 0.31273 0.3957 0.8614 0.0
H1335 H 0.30664 0.38238 0.84208 0.0
C1336 C 0.72547 0.02725 0.87065 0.0
C1337 C 0.71519 0.00791 0.88131 0.0
C1338 C 0.71606 0.02479 0.85537 0.0
C1339 C 0.69639 0.00225 0.85055 0.0
C1340 C 0.68544 0.98298 0.86147 0.0
C1341 C 0.69477 0.98616 0.87674 0.0
C1342 C 0.72776 0.04597 0.84423 0.0
C1343 C 0.66476 0.95849 0.85676 0.0
C1344 C 0.6592 0.99139 0.81337 0.0
C1345 C 0.6699 0.98209 0.80324 0.0
C1346 C 0.66859 0.99959 0.82851 0.0
C1347 C 0.6887 0.99778 0.83377 0.0
C1348 C 0.70009 0.98927 0.82335 0.0
C1349 C 0.69074 0.98183 0.80818 0.0
C1350 C 0.6564 0.00924 0.8391 0.0
C1351 C 0.72128 0.98659 0.82853 0.0
H1352 H 0.74115 0.04417 0.87414 0.0
H1353 H 0.68677 0.97108 0.88488 0.0
H1354 H 0.73813 0.04249 0.83517 0.0
H1355 H 0.71378 0.04836 0.83804 0.0
H1356 H 0.74032 0.06308 0.85038 0.0
H1357 H 0.65754 0.94575 0.86684 0.0
H1358 H 0.64981 0.96033 0.85161 0.0
H1359 H 0.67099 0.95044 0.84761 0.0
H1360 H 0.6432 0.99181 0.80958 0.0
H1361 H 0.69909 0.9746 0.80045 0.0
H1362 H 0.67007 0.02617 0.84492 0.0
H1363 H 0.64632 0.99587 0.84848 0.0
H1364 H 0.64349 0.01289 0.83257 0.0
H1365 H 0.73588 0.00391 0.83335 0.0
H1366 H 0.72885 0.98086 0.81877 0.0
H1367 H 0.71545 0.97291 0.83804 0.0
C1368 C 0.74152 0.06703 0.14053 0.0
C1369 C 0.741 0.04562 0.13605 0.0
C1370 C 0.73429 0.06969 0.15559 0.0
C1371 C 0.72578 0.05026 0.16639 0.0
C1372 C 0.72366 0.02801 0.1616 0.0
C1373 C 0.73159 0.02604 0.14654 0.0
C1374 C 0.73726 0.09388 0.16026 0.0
C1375 C 0.71403 0.00666 0.17262 0.0
C1376 C 0.73841 0.06974 0.20904 0.0
C1377 C 0.71677 0.06858 0.21367 0.0
C1378 C 0.74123 0.063 0.19386 0.0
C1379 C 0.72174 0.05433 0.18309 0.0
C1380 C 0.69936 0.05179 0.18797 0.0
C1381 C 0.69723 0.05925 0.20316 0.0
C1382 C 0.76556 0.06644 0.18908 0.0
C1383 C 0.67796 0.04201 0.17698 0.0
H1384 H 0.7488 0.08228 0.13252 0.0
H1385 H 0.73098 0.00938 0.14312 0.0
H1386 H 0.72014 0.09152 0.16519 0.0
H1387 H 0.75125 0.10215 0.16957 0.0
H1388 H 0.74274 0.10666 0.15021 0.0
H1389 H 0.71006 0.98975 0.16643 0.0
H1390 H 0.72756 0.01024 0.18194 0.0
H1391 H 0.69729 0.00386 0.17848 0.0
H1392 H 0.75364 0.07699 0.21707 0.0
H1393 H 0.68039 0.05816 0.2067 0.0
H1394 H 0.77344 0.08024 0.17964 0.0
H1395 H 0.76349 0.04935 0.1843 0.0
H1396 H 0.77853 0.07238 0.19905 0.0
H1397 H 0.68145 0.05544 0.16761 0.0
H1398 H 0.66104 0.038 0.18318 0.0
H1399 H 0.67522 0.02525 0.17118 0.0
C1400 C 0.99319 0.70038 0.13731 0.0
C1401 C 0.01434 0.72119 0.13242 0.0
C1402 C 0.99116 0.69103 0.15249 0.0
C1403 C 0.01102 0.70234 0.16295 0.0
C1404 C 0.03301 0.72239 0.15774 0.0
C1405 C 0.0343 0.73183 0.14259 0.0
C1406 C 0.96721 0.66993 0.15763 0.0
C1407 C 0.05483 0.73446 0.16836 0.0
C1408 C 0.99247 0.696 0.20574 0.0
C1409 C 0.99316 0.67521 0.21025 0.0
C1410 C 0.99929 0.70565 0.19058 0.0
C1411 C 0.00765 0.69464 0.17974 0.0
C1412 C 0.01008 0.67471 0.18458 0.0
C1413 C 0.00245 0.66498 0.19972 0.0
C1414 C 0.99592 0.72661 0.18586 0.0
C1415 C 0.01966 0.66298 0.17354 0.0
H1416 H 0.97764 0.69209 0.12956 0.0
H1417 H 0.05076 0.74781 0.13883 0.0
H1418 H 0.96978 0.65521 0.1624 0.0
H1419 H 0.95944 0.67581 0.16718 0.0
H1420 H 0.9539 0.66251 0.14786 0.0
H1421 H 0.07147 0.74715 0.16182 0.0
H1422 H 0.05168 0.74477 0.17764 0.0
H1423 H 0.05786 0.72071 0.17429 0.0
H1424 H 0.98525 0.704 0.21377 0.0
H1425 H 0.0032 0.64902 0.20317 0.0
H1426 H 0.9817 0.72059 0.17668 0.0
H1427 H 0.01285 0.74141 0.18074 0.0
H1428 H 0.99055 0.73397 0.19592 0.0
H1429 H 0.00582 0.65246 0.1645 0.0
H1430 H 0.02424 0.65052 0.17981 0.0
H1431 H 0.03601 0.67692 0.16734 0.0
C1432 C 0.36084 0.32236 0.13719 0.0
C1433 C 0.33987 0.32259 0.13256 0.0
C1434 C 0.36998 0.32881 0.1525 0.0
C1435 C 0.35824 0.33632 0.16337 0.0
C1436 C 0.33792 0.33803 0.15847 0.0
C1437 C 0.32874 0.33078 0.14317 0.0
C1438 C 0.39135 0.3262 0.1573 0.0
C1439 C 0.32535 0.34663 0.16955 0.0
C1440 C 0.36412 0.3229 0.20604 0.0
C1441 C 0.38405 0.34471 0.21105 0.0
C1442 C 0.35513 0.3202 0.19069 0.0
C1443 C 0.36591 0.34 0.18016 0.0
C1444 C 0.3852 0.3625 0.1854 0.0
C1445 C 0.3943 0.36449 0.20073 0.0
C1446 C 0.33489 0.29573 0.18552 0.0
C1447 C 0.39669 0.38422 0.17468 0.0
H1448 H 0.36948 0.31593 0.12909 0.0
H1449 H 0.31261 0.33115 0.13962 0.0
H1450 H 0.40576 0.34331 0.16248 0.0
H1451 H 0.38566 0.31198 0.16645 0.0
H1452 H 0.39912 0.32123 0.14726 0.0
H1453 H 0.3121 0.35017 0.16337 0.0
H1454 H 0.3156 0.33272 0.17871 0.0
H1455 H 0.33877 0.36342 0.17563 0.0
H1456 H 0.35618 0.30748 0.21391 0.0
H1457 H 0.40961 0.38144 0.20457 0.0
H1458 H 0.34145 0.28852 0.17604 0.0
H1459 H 0.31967 0.29739 0.18066 0.0
H1460 H 0.32793 0.28242 0.1953 0.0
H1461 H 0.40698 0.38125 0.16529 0.0
H1462 H 0.40925 0.40106 0.18109 0.0
H1463 H 0.38256 0.38679 0.16886 0.0
C1464 C 0.654 0.65533 0.53664 0.0
C1465 C 0.65583 0.67733 0.54115 0.0
C1466 C 0.6607 0.65215 0.52153 0.0
C1467 C 0.67012 0.67164 0.51074 0.0
C1468 C 0.67362 0.69442 0.51558 0.0
C1469 C 0.66609 0.69692 0.53067 0.0
C1470 C 0.65619 0.6274 0.51681 0.0
C1471 C 0.68432 0.71586 0.5046 0.0
C1472 C 0.69668 0.65986 0.47402 0.0
C1473 C 0.67712 0.65148 0.46356 0.0
C1474 C 0.69534 0.66809 0.48913 0.0
C1475 C 0.67369 0.66719 0.49402 0.0
C1476 C 0.65426 0.65958 0.48328 0.0
C1477 C 0.65635 0.65214 0.46814 0.0
C1478 C 0.71672 0.67681 0.50005 0.0
C1479 C 0.63065 0.65783 0.48807 0.0
H1480 H 0.64601 0.64007 0.54462 0.0
H1481 H 0.66771 0.71402 0.53412 0.0
H1482 H 0.64221 0.61989 0.50745 0.0
H1483 H 0.67289 0.62868 0.51192 0.0
H1484 H 0.64994 0.6145 0.52681 0.0
H1485 H 0.68943 0.73303 0.51086 0.0
H1486 H 0.70056 0.71757 0.49864 0.0
H1487 H 0.67095 0.71319 0.49536 0.0
H1488 H 0.71285 0.65956 0.47051 0.0
H1489 H 0.64111 0.6456 0.46017 0.0
H1490 H 0.71262 0.66313 0.50936 0.0
H1491 H 0.72042 0.69384 0.50594 0.0
H1492 H 0.73331 0.67996 0.49377 0.0
H1493 H 0.62206 0.64413 0.49751 0.0
H1494 H 0.61773 0.65265 0.47811 0.0
H1495 H 0.6339 0.67537 0.49286 0.0
C1496 C 0.39623 0.06406 0.47792 0.0
C1497 C 0.40496 0.05332 0.46737 0.0
C1498 C 0.38827 0.05435 0.49303 0.0
C1499 C 0.38969 0.03383 0.49782 0.0
C1500 C 0.39751 0.02235 0.48697 0.0
C1501 C 0.40476 0.03206 0.47185 0.0
C1502 C 0.37938 0.06669 0.5041 0.0
C1503 C 0.39974 1.0007 0.49162 0.0
C1504 C 0.40235 0.0266 0.54042 0.0
C1505 C 0.38046 0.00652 0.54516 0.0
C1506 C 0.40527 0.03618 0.52523 0.0
C1507 C 0.38562 0.0258 0.51456 0.0
C1508 C 0.36301 0.00643 0.51956 0.0
C1509 C 0.36077 0.9968 0.53475 0.0
C1510 C 0.42983 0.05654 0.52034 0.0
C1511 C 0.34145 0.99532 0.50868 0.0
H1512 H 0.39617 0.0804 0.47451 0.0
H1513 H 0.41153 0.02365 0.46381 0.0
H1514 H 0.36253 0.05315 0.51005 0.0
H1515 H 0.39314 0.0764 0.51334 0.0
H1516 H 0.37585 0.07996 0.49792 0.0
H1517 H 0.40476 0.99304 0.48155 0.0
H1518 H 0.41377 0.00606 0.50087 0.0
H1519 H 0.38246 0.98631 0.49663 0.0
H1520 H 0.4177 0.0342 0.54836 0.0
H1521 H 0.34375 0.98137 0.53837 0.0
H1522 H 0.42826 0.07186 0.51555 0.0
H1523 H 0.43726 0.05019 0.51087 0.0
H1524 H 0.44292 0.06331 0.53024 0.0
H1525 H 0.33923 0.00965 0.50286 0.0
H1526 H 0.32445 0.98287 0.51498 0.0
H1527 H 0.34438 0.98497 0.49932 0.0
C1528 C 0.02355 0.39766 0.47096 0.0
C1529 C 0.00203 0.37691 0.46646 0.0
C1530 C 0.03272 0.40019 0.48625 0.0
C1531 C 0.02042 0.38125 0.49725 0.0
C1532 C 0.9995 0.35962 0.4925 0.0
C1533 C 0.99034 0.35784 0.47721 0.0
C1534 C 0.05479 0.42376 0.49087 0.0
C1535 C 0.98629 0.33875 0.50374 0.0
C1536 C 0.05661 0.38885 0.5345 0.0
C1537 C 0.04743 0.39968 0.54461 0.0
C1538 C 0.04697 0.38127 0.51933 0.0
C1539 C 0.02821 0.38527 0.51403 0.0
C1540 C 0.01832 0.39539 0.52442 0.0
C1541 C 0.02783 0.40217 0.53961 0.0
C1542 C 0.05749 0.36987 0.50878 0.0
C1543 C 0.99864 0.40045 0.51919 0.0
H1544 H 0.03265 0.41253 0.46275 0.0
H1545 H 0.97379 0.34169 0.47377 0.0
H1546 H 0.04977 0.43292 0.49997 0.0
H1547 H 0.06874 0.42033 0.49606 0.0
H1548 H 0.0629 0.43625 0.48074 0.0
H1549 H 0.97257 0.32209 0.49766 0.0
H1550 H 0.99926 0.3348 0.5099 0.0
H1551 H 0.97698 0.34361 0.51281 0.0
H1552 H 0.07166 0.38673 0.53832 0.0
H1553 H 0.02068 0.41061 0.54731 0.0
H1554 H 0.06835 0.38278 0.49937 0.0
H1555 H 0.04284 0.35349 0.503 0.0
H1556 H 0.06934 0.36477 0.51532 0.0
H1557 H 0.00559 0.4141 0.50963 0.0
H1558 H 0.99214 0.40734 0.52891 0.0
H1559 H 0.98303 0.3838 0.5144 0.0
C1560 C 0.39907 0.40261 0.54032 0.0
C1561 C 0.37865 0.40387 0.54498 0.0
C1562 C 0.40109 0.39563 0.52504 0.0
C1563 C 0.38195 0.38913 0.51422 0.0
C1564 C 0.36055 0.38869 0.51918 0.0
C1565 C 0.35928 0.39641 0.53446 0.0
C1566 C 0.42443 0.39682 0.52018 0.0
C1567 C 0.33946 0.38116 0.50815 0.0
C1568 C 0.40255 0.40344 0.47188 0.0
C1569 C 0.39998 0.38144 0.46663 0.0
C1570 C 0.39584 0.40587 0.48715 0.0
C1571 C 0.38571 0.38564 0.49735 0.0
C1572 C 0.38156 0.36295 0.49179 0.0
C1573 C 0.38907 0.36119 0.47654 0.0
C1574 C 0.40102 0.43053 0.49265 0.0
C1575 C 0.37013 0.34081 0.50215 0.0
H1576 H 0.41415 0.4084 0.54835 0.0
H1577 H 0.34337 0.39717 0.53803 0.0
H1578 H 0.42071 0.37948 0.51479 0.0
H1579 H 0.43366 0.41117 0.51119 0.0
H1580 H 0.43698 0.40083 0.53023 0.0
H1581 H 0.32288 0.37797 0.51446 0.0
H1582 H 0.34406 0.39554 0.49928 0.0
H1583 H 0.33549 0.36443 0.50174 0.0
H1584 H 0.41102 0.41921 0.46432 0.0
H1585 H 0.38688 0.34409 0.47252 0.0
H1586 H 0.41471 0.43698 0.50219 0.0
H1587 H 0.38442 0.42947 0.49755 0.0
H1588 H 0.40792 0.44414 0.48305 0.0
H1589 H 0.38315 0.34248 0.51138 0.0
H1590 H 0.36472 0.32397 0.49539 0.0
H1591 H 0.35395 0.33916 0.50816 0.0
C1592 C 0.64809 0.02601 0.54306 0.0
C1593 C 0.64887 0.00557 0.54829 0.0
C1594 C 0.65474 0.03463 0.52767 0.0
C1595 C 0.66297 0.0229 0.51732 0.0
C1596 C 0.6651 0.00309 0.5228 0.0
C1597 C 0.6577 0.99443 0.53817 0.0
C1598 C 0.6517 0.0555 0.52224 0.0
C1599 C 0.67443 0.99053 0.51226 0.0
C1600 C 0.65069 0.02745 0.47421 0.0
C1601 C 0.67244 0.04758 0.46933 0.0
C1602 C 0.64768 0.01877 0.48966 0.0
C1603 C 0.6671 0.0301 0.50044 0.0
C1604 C 0.68959 0.04956 0.49534 0.0
C1605 C 0.69189 0.05831 0.47989 0.0
C1606 C 0.62325 0.99829 0.49466 0.0
C1607 C 0.71092 0.06168 0.50636 0.0
H1608 H 0.64119 0.03467 0.55078 0.0
H1609 H 0.6585 0.97872 0.54218 0.0
H1610 H 0.66886 0.07004 0.51719 0.0
H1611 H 0.63782 0.04926 0.51283 0.0
H1612 H 0.64607 0.06329 0.53192 0.0
H1613 H 0.67799 0.97761 0.51885 0.0
H1614 H 0.66094 0.98043 0.50295 0.0
H1615 H 0.69135 0.00401 0.50635 0.0
H1616 H 0.63552 0.01912 0.46616 0.0
H1617 H 0.7088 0.07378 0.47616 0.0
H1618 H 0.61539 0.00486 0.50371 0.0
H1619 H 0.62514 0.98349 0.50002 0.0
H1620 H 0.61034 0.99075 0.48468 0.0
H1621 H 0.7074 0.07208 0.51538 0.0
H1622 H 0.72789 0.07427 0.50009 0.0
H1623 H 0.71358 0.04792 0.51261 0.0
C1624 C 0.99768 0.66247 0.47512 0.0
C1625 C 0.00716 0.65195 0.46499 0.0
C1626 C 0.0072 0.67001 0.49032 0.0
C1627 C 0.02615 0.6663 0.49562 0.0
C1628 C 0.03634 0.65652 0.4852 0.0
C1629 C 0.02693 0.64977 0.46998 0.0
C1630 C 0.99636 0.68105 0.50091 0.0
C1631 C 0.05624 0.65179 0.49042 0.0
C1632 C 0.06374 0.69359 0.53254 0.0
C1633 C 0.05223 0.67432 0.54316 0.0
C1634 C 0.05456 0.69192 0.51727 0.0
C1635 C 0.03382 0.67022 0.51241 0.0
C1636 C 0.02167 0.65109 0.5233 0.0
C1637 C 0.03085 0.6535 0.53858 0.0
C1638 C 0.06759 0.71299 0.50615 0.0
C1639 C 0.99979 0.62744 0.51857 0.0
H1640 H 0.9825 0.66435 0.4713 0.0
H1641 H 0.03433 0.64159 0.46226 0.0
H1642 H 0.98552 0.66796 0.51025 0.0
H1643 H 0.01083 0.69745 0.50679 0.0
H1644 H 0.98441 0.68603 0.49437 0.0
H1645 H 0.06296 0.64515 0.48067 0.0
H1646 H 0.07168 0.66852 0.49526 0.0
H1647 H 0.04942 0.63805 0.49993 0.0
H1648 H 0.08018 0.7098 0.53605 0.0
H1649 H 0.02188 0.63848 0.54669 0.0
H1650 H 0.05448 0.71674 0.49998 0.0
H1651 H 0.07717 0.70849 0.49708 0.0
H1652 H 0.08106 0.72967 0.51234 0.0
H1653 H 0.98574 0.63071 0.51339 0.0
H1654 H 0.99174 0.6148 0.52863 0.0
H1655 H 0.00503 0.6185 0.50943 0.0
C1656 C 0.01317 0.30825 0.03941 0.0
C1657 C 0.0299 0.30317 0.04663 0.0
C1658 C 0.01229 0.30979 0.02296 0.0
C1659 C 0.02869 0.30639 0.01358 0.0
C1660 C 0.0467 0.30299 0.02089 0.0
C1661 C 0.04701 0.30132 0.0373 0.0
C1662 C 0.99285 0.31348 0.01561 0.0
C1663 C 0.06478 0.29966 0.01136 0.0
C1664 C 0.01163 0.27739 0.97329 0.0
C1665 C 0.02531 0.29715 0.96336 0.0
C1666 C 0.01154 0.28042 0.9896 0.0
C1667 C 0.02563 0.30377 0.99621 0.0
C1668 C 0.03847 0.32399 0.98621 0.0
C1669 C 0.0381 0.32045 0.96988 0.0
C1670 C 0.99732 0.25839 0.99983 0.0
C1671 C 0.05369 0.34916 0.99279 0.0
H1672 H 0.99985 0.30965 0.04654 0.0
H1673 H 0.06017 0.29764 0.04281 0.0
H1674 H 1.00051 0.32726 0.00616 0.0
H1675 H 0.97897 0.29629 0.01017 0.0
H1676 H 0.98381 0.31919 0.02439 0.0
H1677 H 0.07907 0.29965 0.01881 0.0
H1678 H 0.0553 0.2822 1.00494 0.0
H1679 H 0.07354 0.31424 1.00247 0.0
H1680 H 1.0015 0.25935 0.96835 0.0
H1681 H 0.04872 0.33585 0.96231 0.0
H1682 H 0.98583 0.26149 0.0082 0.0
H1683 H 0.00997 0.25499 0.00685 0.0
H1684 H 0.98557 0.24192 0.99283 0.0
H1685 H 0.04337 0.35302 1.00168 0.0
H1686 H 0.06 0.36323 0.98349 0.0
H1687 H 0.06977 0.35053 0.99878 0.0
C1688 C 0.77743 0.7601 0.97059 0.0
C1689 C 0.759 0.75752 0.9604 0.0
C1690 C 0.77331 0.75588 0.98675 0.0
C1691 C 0.75017 0.74892 0.99298 0.0
C1692 C 0.73104 0.74477 0.98266 0.0
C1693 C 0.73568 0.7491 0.96646 0.0
C1694 C 0.7942 0.76032 0.99729 0.0
C1695 C 0.70607 0.73714 0.98881 0.0
C1696 C 0.74346 0.72989 0.03586 0.0
C1697 C 0.7511 0.75208 0.04344 0.0
C1698 C 0.74143 0.72805 0.01939 0.0
C1699 C 0.74712 0.74887 0.01035 0.0
C1700 C 0.75302 0.77081 0.01804 0.0
C1701 C 0.75494 0.77214 0.03446 0.0
C1702 C 0.73483 0.70427 0.01164 0.0
C1703 C 0.75899 0.79342 0.0089 0.0
H1704 H 0.79544 0.76629 0.96601 0.0
H1705 H 0.72129 0.74699 0.95869 0.0
H1706 H 0.79922 0.77638 1.00478 0.0
H1707 H 0.78891 0.74466 1.00521 0.0
H1708 H 0.81042 0.76354 0.9905 0.0
H1709 H 0.69242 0.73094 0.97924 0.0
H1710 H 0.70035 0.72238 0.99756 0.0
H1711 H 0.70631 0.75266 0.99484 0.0
H1712 H 0.74038 0.71427 0.0427 0.0
H1713 H 0.76053 0.78929 0.04022 0.0
H1714 H 0.75129 0.70537 0.00643 0.0
H1715 H 0.7217 0.70028 1.00197 0.0
H1716 H 0.72697 0.68902 0.02014 0.0
H1717 H 0.77635 0.79987 1.00257 0.0
H1718 H 0.76072 0.80823 0.01662 0.0
H1719 H 0.74484 0.78951 0.99997 0.0
C1720 C 0.31838 0.02503 0.9719 0.0
C1721 C 0.30553 0.03546 0.96532 0.0
C1722 C 0.32228 0.0257 0.98821 0.0
C1723 C 0.31313 0.03706 0.99815 0.0
C1724 C 0.30152 0.04891 0.99145 0.0
C1725 C 0.29786 0.04795 0.97516 0.0
C1726 C 0.33492 0.01303 0.99487 0.0
C1727 C 0.29163 0.06141 1.00159 0.0
C1728 C 0.28974 0.01434 0.03907 0.0
C1729 C 0.30708 0.03298 0.04851 0.0
C1730 C 0.29238 0.01466 0.02272 0.0
C1731 C 0.31285 0.03416 0.01554 0.0
C1732 C 0.33133 0.0521 0.02507 0.0
C1733 C 0.32826 0.05128 0.04149 0.0
C1734 C 0.27235 0.99497 0.01306 0.0
C1735 C 0.35354 0.07305 0.01789 0.0
H1736 H 0.32448 0.01542 0.96441 0.0
H1737 H 0.28817 0.05632 0.97021 0.0
H1738 H 0.34835 0.02442 1.00389 0.0
H1739 H 0.32145 0.99601 1.00069 0.0
H1740 H 0.34425 0.00847 0.98561 0.0
H1741 H 0.28514 0.07167 0.99451 0.0
H1742 H 0.27629 0.04775 0.0087 0.0
H1743 H 0.30569 0.07407 0.00988 0.0
H1744 H 0.27346 0.99997 0.04442 0.0
H1745 H 0.34174 0.06575 0.0487 0.0
H1746 H 0.27989 0.98757 1.00437 0.0
H1747 H 0.26278 0.00265 0.00641 0.0
H1748 H 0.25891 0.97987 0.02045 0.0
H1749 H 0.36095 0.0667 0.00841 0.0
H1750 H 0.36791 0.08303 0.02677 0.0
H1751 H 0.34858 0.08582 0.01253 0.0
C1752 C 0.01212 0.75224 0.973 0.0
C1753 C 0.02986 0.75171 0.96355 0.0
C1754 C 0.01227 0.74989 0.98936 0.0
C1755 C 0.0306 0.74685 0.99652 0.0
C1756 C 0.04728 0.74414 0.98697 0.0
C1757 C 0.04674 0.74663 0.97055 0.0
C1758 C 0.99397 0.75268 0.99903 0.0
C1759 C 0.0668 0.74042 0.99413 0.0
C1760 C 0.04808 0.77794 0.03607 0.0
C1761 C 0.03401 0.75888 0.04642 0.0
C1762 C 0.04831 0.77393 0.01991 0.0
C1763 C 0.03419 0.75022 0.01384 0.0
C1764 C 0.02131 0.73062 0.02431 0.0
C1765 C 0.02132 0.73518 0.0405 0.0
C1766 C 0.06244 0.79539 0.00921 0.0
C1767 C 0.00636 0.70504 0.01834 0.0
H1768 H 0.99876 0.75578 0.96768 0.0
H1769 H 0.06046 0.74608 0.96335 0.0
H1770 H 0.98555 0.73807 0.00791 0.0
H1771 H 0.00321 0.77016 1.00544 0.0
H1772 H 0.97943 0.75235 0.99167 0.0
H1773 H 0.07511 0.73395 0.98531 0.0
H1774 H 0.08122 0.75782 0.99901 0.0
H1775 H 0.05949 0.72723 1.00394 0.0
H1776 H 0.05823 0.79629 0.04052 0.0
H1777 H 0.01051 0.72029 0.04839 0.0
H1778 H 0.0497 0.79831 1.00191 0.0
H1779 H 0.07397 0.79193 1.00111 0.0
H1780 H 0.07414 0.81228 0.01586 0.0
H1781 H 0.98956 0.70272 0.01286 0.0
H1782 H 1.00122 0.69156 0.02795 0.0
H1783 H 0.01635 0.70115 0.00921 0.0
C1784 C 0.32152 0.317 0.04002 0.0
C1785 C 0.29827 0.30495 0.04667 0.0
C1786 C 0.32471 0.32039 0.02368 0.0
C1787 C 0.30418 0.31154 0.01378 0.0
C1788 C 0.28079 0.30081 0.02053 0.0
C1789 C 0.27813 0.29763 0.03685 0.0
C1790 C 0.34995 0.33209 0.01696 0.0
C1791 C 0.25839 0.2913 0.01043 0.0
C1792 C 0.3056 0.32563 0.97021 0.0
C1793 C 0.30204 0.304 0.96351 0.0
C1794 C 0.30785 0.32913 0.9866 0.0
C1795 C 0.30661 0.3106 0.99642 0.0
C1796 C 0.30487 0.28957 0.98957 0.0
C1797 C 0.30258 0.28653 0.97325 0.0
C1798 C 0.30994 0.3519 0.99343 0.0
C1799 C 0.30376 0.26946 0.99956 0.0
H1800 H 0.33723 0.32283 0.0475 0.0
H1801 H 0.2601 0.28857 0.04187 0.0
H1802 H 0.35288 0.31806 0.01138 0.0
H1803 H 0.35238 0.34541 0.00774 0.0
H1804 H 0.36399 0.34137 0.02615 0.0
H1805 H 0.24179 0.2856 0.01752 0.0
H1806 H 0.26026 0.30529 1.00191 0.0
H1807 H 0.25607 0.27548 1.00358 0.0
H1808 H 0.3052 0.33922 0.96278 0.0
H1809 H 0.30016 0.26989 0.96815 0.0
H1810 H 0.32378 0.35925 1.00286 0.0
H1811 H 0.2924 0.34766 0.99878 0.0
H1812 H 0.31468 0.36609 0.98435 0.0
H1813 H 0.31877 0.27683 0.00821 0.0
H1814 H 0.30478 0.25545 0.9924 0.0
H1815 H 0.28655 0.26065 0.00626 0.0
C1816 C 0.73413 0.01811 0.97443 0.0
C1817 C 0.75649 0.03285 0.96708 0.0
C1818 C 0.73201 0.01764 0.9909 0.0
C1819 C 0.7527 0.03229 1.00017 0.0
C1820 C 0.77482 0.04851 0.99273 0.0
C1821 C 0.77644 0.04857 0.97631 0.0
C1822 C 0.70805 1.00028 0.99836 0.0
C1823 C 0.79729 0.06465 1.00215 0.0
C1824 C 0.7519 0.04223 0.0442 0.0
C1825 C 0.76 0.02695 0.05007 0.0
C1826 C 0.74806 0.04326 0.028 0.0
C1827 C 0.75237 0.02863 0.01748 0.0
C1828 C 0.75903 0.01208 0.02347 0.0
C1829 C 0.76278 0.01147 0.03965 0.0
C1830 C 0.74076 0.06099 0.02208 0.0
C1831 C 0.76361 0.99597 0.01271 0.0
H1832 H 0.71859 0.00594 0.96739 0.0
H1833 H 0.79372 0.06026 0.97074 0.0
H1834 H 0.70897 0.98471 1.00337 0.0
H1835 H 0.70393 0.00912 0.00815 0.0
H1836 H 0.69297 0.99326 0.98974 0.0
H1837 H 0.8123 0.07797 0.99464 0.0
H1838 H 0.79332 0.07462 0.01124 0.0
H1839 H 0.80351 0.0534 0.00829 0.0
H1840 H 0.74965 0.05422 0.05215 0.0
H1841 H 0.76874 0.99938 0.04408 0.0
H1842 H 0.72615 0.05236 0.0132 0.0
H1843 H 0.75647 0.07639 0.01627 0.0
H1844 H 0.7345 0.06822 0.03175 0.0
H1845 H 0.74812 0.986 1.00459 0.0
H1846 H 0.76657 0.98265 0.0193 0.0
H1847 H 0.77986 0.00723 1.00543 0.0
C1848 C 0.67944 0.60753 0.30366 0.0
C1849 C 0.69474 0.62772 0.29448 0.0
C1850 C 0.679 0.60921 0.32007 0.0
C1851 C 0.69455 0.63154 0.32755 0.0
C1852 C 0.70929 0.65225 0.31832 0.0
C1853 C 0.70907 0.65013 0.30187 0.0
C1854 C 0.66264 0.58679 0.32945 0.0
C1855 C 0.72627 0.67631 0.32585 0.0
C1856 C 0.68172 0.63548 0.37077 0.0
C1857 C 0.6965 0.62782 0.37802 0.0
C1858 C 0.68151 0.6377 0.35434 0.0
C1859 C 0.6967 0.63249 0.345 0.0
C1860 C 0.71268 0.62616 0.35235 0.0
C1861 C 0.71223 0.6237 0.36874 0.0
C1862 C 0.66407 0.64429 0.34695 0.0
C1863 C 0.72951 0.6209 0.34285 0.0
H1864 H 0.66816 0.5902 0.29802 0.0
H1865 H 0.72104 0.66579 0.29486 0.0
H1866 H 0.67374 0.58108 0.33628 0.0
H1867 H 0.65186 0.59066 0.33798 0.0
H1868 H 0.65004 0.57149 0.32185 0.0
H1869 H 0.73463 0.69116 0.31708 0.0
H1870 H 0.71659 0.68102 0.33473 0.0
H1871 H 0.74092 0.67509 0.33205 0.0
H1872 H 0.66943 0.63859 0.37785 0.0
H1873 H 0.72385 0.61798 0.37428 0.0
H1874 H 0.6497 0.62835 0.34065 0.0
H1875 H 0.67346 0.65892 0.33817 0.0
H1876 H 0.65538 0.65027 0.35582 0.0
H1877 H 0.71878 0.60412 0.33591 0.0
H1878 H 0.74239 0.61853 0.35037 0.0
H1879 H 0.73998 0.6358 0.33441 0.0
C1880 C 0.4186 0.07204 0.37463 0.0
C1881 C 0.4259 0.09455 0.38167 0.0
C1882 C 0.41576 0.06913 0.35823 0.0
C1883 C 0.42029 0.08918 0.3487 0.0
C1884 C 0.42594 0.11141 0.35588 0.0
C1885 C 0.42869 0.11381 0.37223 0.0
C1886 C 0.40944 0.04506 0.35104 0.0
C1887 C 0.43071 0.13322 0.34622 0.0
C1888 C 0.44842 0.09907 0.3083 0.0
C1889 C 0.42923 0.0955 0.29849 0.0
C1890 C 0.44527 0.09553 0.32457 0.0
C1891 C 0.42235 0.08824 0.33129 0.0
C1892 C 0.40248 0.08301 0.32138 0.0
C1893 C 0.40615 0.0867 0.30506 0.0
C1894 C 0.46694 0.10112 0.33466 0.0
C1895 C 0.37771 0.07495 0.32806 0.0
H1896 H 0.41633 0.05703 0.38183 0.0
H1897 H 0.43399 0.13119 0.37757 0.0
H1898 H 0.39569 0.04008 0.34165 0.0
H1899 H 0.42583 0.04638 0.34557 0.0
H1900 H 0.40248 0.03037 0.35995 0.0
H1901 H 0.43252 0.14838 0.35363 0.0
H1902 H 0.44769 0.13966 0.33944 0.0
H1903 H 0.41589 0.12837 0.33765 0.0
H1904 H 0.46625 0.10554 0.30333 0.0
H1905 H 0.39118 0.0838 0.29758 0.0
H1906 H 0.46251 0.08602 0.34292 0.0
H1907 H 0.47199 0.11753 0.3418 0.0
H1908 H 0.48288 0.10436 0.32755 0.0
H1909 H 0.37297 0.06082 0.33715 0.0
H1910 H 0.36351 0.06778 0.31882 0.0
H1911 H 0.37769 0.09055 0.33381 0.0
C1912 C 0.98473 0.36317 0.37412 0.0
C1913 C 0.96135 0.35305 0.38048 0.0
C1914 C 0.98826 0.36272 0.35783 0.0
C1915 C 0.96795 0.35192 0.34771 0.0
C1916 C 0.94434 0.34034 0.35418 0.0
C1917 C 0.94135 0.34105 0.37045 0.0
C1918 C 0.0137 0.37505 0.35142 0.0
C1919 C 0.92215 0.32845 0.34383 0.0
C1920 C 0.96849 0.37574 0.30696 0.0
C1921 C 0.96677 0.35703 0.29741 0.0
C1922 C 0.97061 0.37508 0.32331 0.0
C1923 C 0.97096 0.35517 0.33035 0.0
C1924 C 0.97116 0.33717 0.32071 0.0
C1925 C 0.9691 0.33832 0.3043 0.0
C1926 C 0.97063 0.39485 0.33309 0.0
C1927 C 0.97182 0.31581 0.32776 0.0
H1928 H 1.00032 0.37239 0.38177 0.0
H1929 H 0.92321 0.33292 0.37524 0.0
H1930 H 0.0156 0.36369 0.3423 0.0
H1931 H 0.01778 0.39236 0.34577 0.0
H1932 H 0.02731 0.37904 0.36079 0.0
H1933 H 0.90521 0.31835 0.35073 0.0
H1934 H 0.92099 0.34246 0.33677 0.0
H1935 H 0.9234 0.31576 0.33549 0.0
H1936 H 0.96703 0.39044 0.3017 0.0
H1937 H 0.96779 0.32379 0.29701 0.0
H1938 H 0.98543 0.40177 0.34189 0.0
H1939 H 0.95331 0.3874 0.33962 0.0
H1940 H 0.97281 0.41025 0.32581 0.0
H1941 H 0.98535 0.3217 0.33737 0.0
H1942 H 0.97615 0.30584 0.31884 0.0
H1943 H 0.95388 0.30315 0.33291 0.0
C1944 C 0.6827 0.05991 0.37611 0.0
C1945 C 0.69738 0.0829 0.38271 0.0
C1946 C 0.6821 0.05637 0.35976 0.0
C1947 C 0.69654 0.07628 0.34984 0.0
C1948 C 0.71267 0.09907 0.35656 0.0
C1949 C 0.71289 0.10209 0.37288 0.0
C1950 C 0.66486 0.03173 0.35308 0.0
C1951 C 0.72858 0.12075 0.34644 0.0
C1952 C 0.70712 0.07262 0.30624 0.0
C1953 C 0.69193 0.08033 0.29966 0.0
C1954 C 0.70776 0.06962 0.32257 0.0
C1955 C 0.69284 0.07441 0.3325 0.0
C1956 C 0.67622 0.08042 0.3258 0.0
C1957 C 0.67598 0.0833 0.30949 0.0
C1958 C 0.72553 0.06291 0.32925 0.0
C1959 C 0.6598 0.08545 0.33593 0.0
H1960 H 0.6707 0.04495 0.38361 0.0
H1961 H 0.72453 0.11985 0.37787 0.0
H1962 H 0.64913 0.03201 0.34776 0.0
H1963 H 0.67371 0.02692 0.34365 0.0
H1964 H 0.65808 0.01742 0.36224 0.0
H1965 H 0.74175 0.13651 0.35351 0.0
H1966 H 0.73872 0.11618 0.33783 0.0
H1967 H 0.71715 0.12614 0.3397 0.0
H1968 H 0.71947 0.0702 0.29874 0.0
H1969 H 0.66395 0.08895 0.30452 0.0
H1970 H 0.717 0.04915 0.33865 0.0
H1971 H 0.74097 0.07916 0.33458 0.0
H1972 H 0.7327 0.0558 0.32007 0.0
H1973 H 0.65003 0.07063 0.34453 0.0
H1974 H 0.6463 0.08753 0.32887 0.0
H1975 H 0.67081 0.10237 0.34269 0.0
C1976 C 0.99335 0.64286 0.37219 0.0
C1977 C 0.97098 0.63706 0.37885 0.0
C1978 C 0.99701 0.64594 0.35584 0.0
C1979 C 0.97784 0.64312 0.346 0.0
C1980 C 0.95596 0.63922 0.35284 0.0
C1981 C 0.95283 0.63627 0.36914 0.0
C1982 C 0.02075 0.65052 0.34903 0.0
C1983 C 0.93508 0.63627 0.34285 0.0
C1984 C 0.98214 0.65698 0.30225 0.0
C1985 C 0.97196 0.63363 0.29583 0.0
C1986 C 0.98577 0.66074 0.31856 0.0
C1987 C 0.97898 0.64069 0.32864 0.0
C1988 C 0.97023 0.61738 0.3221 0.0
C1989 C 0.96688 0.61416 0.30582 0.0
C1990 C 0.9955 0.68593 0.32505 0.0
C1991 C 0.96286 0.59547 0.33238 0.0
H1992 H 0.00753 0.64361 0.3796 0.0
H1993 H 0.93561 0.63218 0.3742 0.0
H1994 H 0.01838 0.63353 0.34382 0.0
H1995 H 0.02684 0.66421 0.33952 0.0
H1996 H 0.03514 0.65678 0.35812 0.0
H1997 H 0.92031 0.63581 0.35002 0.0
H1998 H 0.9413 0.65126 0.33425 0.0
H1999 H 0.92757 0.61913 0.33611 0.0
H2000 H 0.98627 0.67218 0.29463 0.0
H2001 H 0.95933 0.59609 0.301 0.0
H2002 H 0.00909 0.68971 0.33438 0.0
H2003 H 0.98051 0.68747 0.33044 0.0
H2004 H 0.00392 0.69994 0.31576 0.0
H2005 H 0.97755 0.59888 0.34075 0.0
H2006 H 0.95843 0.57904 0.32542 0.0
H2007 H 0.94671 0.59178 0.33939 0.0
C2008 C 0.41016 0.38001 0.37393 0.0
C2009 C 0.4151 0.36261 0.38023 0.0
C2010 C 0.40761 0.38158 0.3576 0.0
C2011 C 0.41014 0.36542 0.34742 0.0
C2012 C 0.41322 0.34668 0.35385 0.0
C2013 C 0.41561 0.34549 0.37013 0.0
C2014 C 0.40388 0.40153 0.35123 0.0
C2015 C 0.41584 0.32892 0.34347 0.0
C2016 C 0.39685 0.35762 0.30361 0.0
C2017 C 0.42034 0.37034 0.29736 0.0
C2018 C 0.3929 0.35723 0.3199 0.0
C2019 C 0.41289 0.36974 0.33014 0.0
C2020 C 0.43637 0.38403 0.32377 0.0
C2021 C 0.43979 0.38419 0.3075 0.0
C2022 C 0.36754 0.34214 0.3262 0.0
C2023 C 0.45823 0.39778 0.33422 0.0
H2024 H 0.40963 0.39327 0.38163 0.0
H2025 H 0.41906 0.33174 0.3749 0.0
H2026 H 0.42118 0.4161 0.34633 0.0
H2027 H 0.39041 0.39474 0.34156 0.0
H2028 H 0.39774 0.40951 0.36049 0.0
H2029 H 0.41586 0.3141 0.35032 0.0
H2030 H 0.40093 0.3208 0.33477 0.0
H2031 H 0.43308 0.33854 0.33683 0.0
H2032 H 0.38167 0.34698 0.29588 0.0
H2033 H 0.45797 0.39435 0.3028 0.0
H2034 H 0.36404 0.35184 0.33574 0.0
H2035 H 0.36537 0.32514 0.33125 0.0
H2036 H 0.35372 0.33735 0.31685 0.0
H2037 H 0.45503 0.4089 0.34285 0.0
H2038 H 0.47482 0.40984 0.32742 0.0
H2039 H 0.46151 0.38479 0.34094 0.0
C2040 C 0.38138 0.97478 0.70403 0.0
C2041 C 0.36519 0.9768 0.71422 0.0
C2042 C 0.38062 0.97784 0.68778 0.0
C2043 C 0.36342 0.98337 0.68148 0.0
C2044 C 0.34854 0.98766 0.69179 0.0
C2045 C 0.34949 0.98419 0.70808 0.0
C2046 C 0.39692 0.97312 0.67729 0.0
C2047 C 0.33046 0.99427 0.68559 0.0
C2048 C 0.37216 0.99541 0.63752 0.0
C2049 C 0.35728 0.97203 0.63154 0.0
C2050 C 0.37295 1.00004 0.65377 0.0
C2051 C 0.35876 0.98077 0.66421 0.0
C2052 C 0.34235 0.95764 0.65807 0.0
C2053 C 0.34171 0.95362 0.64185 0.0
C2054 C 0.39016 0.02512 0.6598 0.0
C2055 C 0.32681 0.93652 0.66871 0.0
H2056 H 0.39389 0.96949 0.70865 0.0
H2057 H 0.33705 0.98602 0.71584 0.0
H2058 H 0.38585 0.95622 0.67052 0.0
H2059 H 0.40632 0.98803 0.6687 0.0
H2060 H 0.41073 0.97118 0.68406 0.0
H2061 H 0.32427 0.0021 0.69492 0.0
H2062 H 0.33829 0.00742 0.67578 0.0
H2063 H 0.31443 0.97781 0.68096 0.0
H2064 H 0.38411 0.00983 0.62966 0.0
H2065 H 0.32983 0.93557 0.63736 0.0
H2066 H 0.40664 0.02567 0.66451 0.0
H2067 H 0.38184 0.03003 0.66952 0.0
H2068 H 0.39574 0.03891 0.65036 0.0
H2069 H 0.33851 0.93163 0.6756 0.0
H2070 H 0.31352 0.92031 0.66204 0.0
H2071 H 0.31682 0.94148 0.67718 0.0
C2072 C 0.09179 0.44263 0.70329 0.0
C2073 C 0.08639 0.42349 0.71366 0.0
C2074 C 0.08801 0.43871 0.68708 0.0
C2075 C 0.07849 0.41502 0.68099 0.0
C2076 C 0.07144 0.39536 0.69146 0.0
C2077 C 0.07553 0.39982 0.70769 0.0
C2078 C 0.0957 0.46024 0.67637 0.0
C2079 C 0.0609 0.3698 0.68547 0.0
C2080 C 0.06289 0.41123 0.63756 0.0
C2081 C 0.08487 0.41609 0.63071 0.0
C2082 C 0.05972 0.40897 0.65398 0.0
C2083 C 0.07897 0.41168 0.66368 0.0
C2084 C 0.10039 0.41459 0.65669 0.0
C2085 C 0.10304 0.41673 0.64033 0.0
C2086 C 0.03644 0.40543 0.66096 0.0
C2087 C 0.12134 0.41738 0.66653 0.0
H2088 H 0.0999 0.46096 0.70775 0.0
H2089 H 0.07114 0.38487 0.7156 0.0
H2090 H 0.11146 0.46308 0.66924 0.0
H2091 H 0.0809 0.45689 0.66812 0.0
H2092 H 0.10083 0.47712 0.68301 0.0
H2093 H 0.0525 0.35628 0.69505 0.0
H2094 H 0.04709 0.36594 0.67628 0.0
H2095 H 0.07543 0.36753 0.68003 0.0
H2096 H 0.04871 0.41062 0.63023 0.0
H2097 H 0.11996 0.4201 0.63513 0.0
H2098 H 0.0395 0.42285 0.66586 0.0
H2099 H 0.03031 0.39217 0.67073 0.0
H2100 H 0.02181 0.39914 0.65204 0.0
H2101 H 0.12951 0.43488 0.67291 0.0
H2102 H 0.13563 0.41699 0.6593 0.0
H2103 H 0.115 0.40279 0.67544 0.0
C2104 C 0.65815 0.70365 0.7032 0.0
C2105 C 0.63553 0.68907 0.71028 0.0
C2106 C 0.66074 0.70436 0.68676 0.0
C2107 C 0.64024 0.69011 0.67722 0.0
C2108 C 0.61781 0.67408 0.68438 0.0
C2109 C 0.61573 0.67378 0.70079 0.0
C2110 C 0.68501 0.72154 0.67959 0.0
C2111 C 0.59553 0.65836 0.67469 0.0
C2112 C 0.63209 0.71179 0.63748 0.0
C2113 C 0.63501 0.69629 0.62716 0.0
C2114 C 0.63514 0.71087 0.65373 0.0
C2115 C 0.6412 0.69397 0.65989 0.0
C2116 C 0.64562 0.67928 0.64949 0.0
C2117 C 0.64251 0.68064 0.63322 0.0
C2118 C 0.6305 0.72707 0.66436 0.0
C2119 C 0.65226 0.66115 0.65559 0.0
H2120 H 0.67358 0.7155 0.71042 0.0
H2121 H 0.59823 0.66223 0.70615 0.0
H2122 H 0.68928 0.71263 0.66992 0.0
H2123 H 0.68448 0.73727 0.67448 0.0
H2124 H 0.69981 0.72834 0.68841 0.0
H2125 H 0.58018 0.64513 0.68201 0.0
H2126 H 0.5898 0.66993 0.66844 0.0
H2127 H 0.59953 0.64832 0.66567 0.0
H2128 H 0.62658 0.72415 0.63291 0.0
H2129 H 0.64484 0.66861 0.62535 0.0
H2130 H 0.64572 0.73675 0.67271 0.0
H2131 H 0.61393 0.71592 0.67139 0.0
H2132 H 0.62805 0.74065 0.65767 0.0
H2133 H 0.66663 0.66949 0.66465 0.0
H2134 H 0.65858 0.65376 0.64606 0.0
H2135 H 0.63622 0.6459 0.66124 0.0
C2136 C 0.34935 0.40832 0.70682 0.0
C2137 C 0.36368 0.43079 0.71415 0.0
C2138 C 0.34905 0.40612 0.69037 0.0
C2139 C 0.36373 0.42678 0.6811 0.0
C2140 C 0.37925 0.44917 0.68851 0.0
C2141 C 0.37887 0.45095 0.70492 0.0
C2142 C 0.33209 0.38199 0.68291 0.0
C2143 C 0.39554 0.47154 0.67907 0.0
C2144 C 0.37633 0.42208 0.63795 0.0
C2145 C 0.36143 0.4295 0.6306 0.0
C2146 C 0.37673 0.42029 0.6544 0.0
C2147 C 0.36158 0.42566 0.66366 0.0
C2148 C 0.34553 0.43182 0.65622 0.0
C2149 C 0.34581 0.43387 0.6398 0.0
C2150 C 0.39426 0.41391 0.66188 0.0
C2151 C 0.32873 0.43721 0.66564 0.0
H2152 H 0.33746 0.39269 0.71387 0.0
H2153 H 0.39014 0.46831 0.71052 0.0
H2154 H 0.3175 0.38318 0.67661 0.0
H2155 H 0.34181 0.37719 0.67412 0.0
H2156 H 0.32366 0.36722 0.69173 0.0
H2157 H 0.40811 0.48692 0.68663 0.0
H2158 H 0.40634 0.46766 0.67057 0.0
H2159 H 0.38439 0.47715 0.6722 0.0
H2160 H 0.38855 0.41879 0.63091 0.0
H2161 H 0.33411 0.43942 0.63419 0.0
H2162 H 0.3849 0.39931 0.67068 0.0
H2163 H 0.40852 0.42994 0.66819 0.0
H2164 H 0.40309 0.408 0.65308 0.0
H2165 H 0.31826 0.42242 0.67415 0.0
H2166 H 0.31585 0.43952 0.65807 0.0
H2167 H 0.33948 0.45407 0.67251 0.0
C2168 C 0.65567 0.97313 0.71091 0.0
C2169 C 0.63254 0.96466 0.71731 0.0
C2170 C 0.65972 0.97732 0.69466 0.0
C2171 C 0.6402 0.97293 0.68465 0.0
C2172 C 0.61726 0.96597 0.69123 0.0
C2173 C 0.61373 0.96193 0.70744 0.0
C2174 C 0.6845 0.985 0.68812 0.0
C2175 C 0.59596 0.96128 0.68103 0.0
C2176 C 0.64476 0.99084 0.64167 0.0
C2177 C 0.63683 0.96844 0.63429 0.0
C2178 C 0.64768 0.99314 0.65809 0.0
C2179 C 0.64256 0.97259 0.66725 0.0
C2180 C 0.63643 0.95049 0.65971 0.0
C2181 C 0.63363 0.94869 0.64335 0.0
C2182 C 0.65455 0.0171 0.66567 0.0
C2183 C 0.63104 0.92816 0.66899 0.0
H2184 H 0.67034 0.97539 0.71845 0.0
H2185 H 0.59587 0.95572 0.71229 0.0
H2186 H 0.6842 0.96938 0.68219 0.0
H2187 H 0.68975 0.99948 0.67922 0.0
H2188 H 0.69851 0.99158 0.69747 0.0
H2189 H 0.57998 0.95811 0.68807 0.0
H2190 H 0.60091 0.9768 0.67305 0.0
H2191 H 0.59072 0.9451 0.67361 0.0
H2192 H 0.64738 0.00623 0.63477 0.0
H2193 H 0.62784 0.9314 0.63773 0.0
H2194 H 0.66803 0.02133 0.67515 0.0
H2195 H 0.63828 0.01612 0.6711 0.0
H2196 H 0.66209 0.03214 0.65701 0.0
H2197 H 0.64562 0.93238 0.67764 0.0
H2198 H 0.62907 0.91319 0.66132 0.0
H2199 H 0.61396 0.92175 0.67565 0.0
C2200 C 0.09086 0.67808 0.70322 0.0
C2201 C 0.08928 0.69552 0.71236 0.0
C2202 C 0.08845 0.67765 0.68684 0.0
C2203 C 0.08456 0.69524 0.67936 0.0
C2204 C 0.08134 0.71189 0.68858 0.0
C2205 C 0.08364 0.71177 0.70502 0.0
C2206 C 0.09163 0.65932 0.67748 0.0
C2207 C 0.07711 0.73087 0.68106 0.0
C2208 C 0.1126 0.71097 0.63879 0.0
C2209 C 0.09268 0.69669 0.62911 0.0
C2210 C 0.1099 0.71174 0.65509 0.0
C2211 C 0.08672 0.69773 0.66195 0.0
C2212 C 0.06632 0.68433 0.65218 0.0
C2213 C 0.06953 0.68403 0.63585 0.0
C2214 C 0.13211 0.72654 0.66506 0.0
C2215 C 0.04133 0.6692 0.65903 0.0
H2216 H 0.09494 0.66528 0.70882 0.0
H2217 H 0.08243 0.72533 0.712 0.0
H2218 H 0.0768 0.65017 0.6688 0.0
H2219 H 0.10888 0.66866 0.67084 0.0
H2220 H 0.09197 0.64535 0.68509 0.0
H2221 H 0.07137 0.73997 0.68977 0.0
H2222 H 0.09409 0.74479 0.67542 0.0
H2223 H 0.06315 0.72277 0.67173 0.0
H2224 H 0.13052 0.72103 0.63368 0.0
H2225 H 0.05402 0.67296 0.62846 0.0
H2226 H 0.13588 0.71427 0.67224 0.0
H2227 H 0.12903 0.73821 0.67328 0.0
H2228 H 0.14837 0.73817 0.65785 0.0
H2229 H 0.04018 0.65329 0.66513 0.0
H2230 H 0.02704 0.66261 0.64985 0.0
H2231 H 0.03761 0.67969 0.66787 0.0
C2232 C 0.85893 0.11257 0.11264 0.0
C2233 C 0.85512 0.09405 0.10218 0.0
C2234 C 0.88115 0.1343 0.11306 0.0
C2235 C 0.89963 0.13788 0.10235 0.0
C2236 C 0.8961 0.11893 0.09208 0.0
C2237 C 0.87398 0.09706 0.09229 0.0
C2238 C 0.88448 0.15377 0.12453 0.0
C2239 C 0.91506 0.12227 0.08017 0.0
C2240 C 0.94117 0.20295 0.09002 0.0
C2241 C 0.96255 0.20874 0.09805 0.0
C2242 C 0.92081 0.17978 0.09106 0.0
C2243 C 0.92156 0.1622 0.10082 0.0
C2244 C 0.94306 0.16802 0.10911 0.0
C2245 C 0.96351 0.19116 0.1074 0.0
C2246 C 0.8985 0.17411 0.08166 0.0
C2247 C 0.94429 0.14999 0.12 0.0
H2248 H 0.84439 0.11016 0.12038 0.0
H2249 H 0.87097 0.08281 0.0841 0.0
H2250 H 0.90207 0.16105 0.13072 0.0
H2251 H 0.88472 0.169 0.11809 0.0
H2252 H 0.86976 0.147 0.13341 0.0
H2253 H 0.91026 0.10523 0.07383 0.0
H2254 H 0.91718 0.13611 0.07143 0.0
H2255 H 0.93286 0.12896 0.08595 0.0
H2256 H 0.94052 0.21648 0.08265 0.0
H2257 H 0.98002 0.19573 0.11369 0.0
H2258 H 0.88321 0.16989 0.08969 0.0
H2259 H 0.89307 0.15789 0.07424 0.0
H2260 H 0.90136 0.18937 0.07395 0.0
H2261 H 0.93032 0.14454 0.12929 0.0
H2262 H 0.96229 0.1574 0.12568 0.0
H2263 H 0.94031 0.13339 0.11343 0.0
C2264 C 0.95746 0.79705 0.0875 0.0
C2265 C 0.96079 0.78121 0.0972 0.0
C2266 C 0.93536 0.79684 0.08732 0.0
C2267 C 0.91647 0.78096 0.09746 0.0
C2268 C 0.92023 0.76582 0.10787 0.0
C2269 C 0.94221 0.76581 0.10741 0.0
C2270 C 0.93184 0.81271 0.07571 0.0
C2271 C 0.90081 0.74919 0.11921 0.0
C2272 C 0.86382 0.79226 0.1035 0.0
C2273 C 0.846 0.77427 0.09397 0.0
C2274 C 0.88676 0.79443 0.10501 0.0
C2275 C 0.89219 0.7788 0.09632 0.0
C2276 C 0.87435 0.76094 0.08644 0.0
C2277 C 0.85135 0.75863 0.0856 0.0
C2278 C 0.90505 0.81317 0.11604 0.0
C2279 C 0.87961 0.74439 0.07661 0.0
H2280 H 0.97176 0.80883 0.0795 0.0
H2281 H 0.94486 0.75368 0.115 0.0
H2282 H 0.91753 0.8012 0.06716 0.0
H2283 H 0.92568 0.82401 0.08183 0.0
H2284 H 0.94866 0.82479 0.06912 0.0
H2285 H 0.90755 0.7407 0.12771 0.0
H2286 H 0.89374 0.75931 0.12585 0.0
H2287 H 0.88543 0.73462 0.11262 0.0
H2288 H 0.8596 0.80425 0.11007 0.0
H2289 H 0.83764 0.74485 0.07811 0.0
H2290 H 0.92148 0.82609 0.10945 0.0
H2291 H 0.91074 0.80425 0.12491 0.0
H2292 H 0.89779 0.8235 0.12225 0.0
H2293 H 0.89567 0.75526 0.06908 0.0
H2294 H 0.86413 0.73225 0.06898 0.0
H2295 H 0.88393 0.73307 0.08434 0.0
C2296 C 0.28962 0.11671 0.11077 0.0
C2297 C 0.27571 0.09881 0.09971 0.0
C2298 C 0.28889 0.13829 0.11156 0.0
C2299 C 0.27452 0.14238 0.10069 0.0
C2300 C 0.25991 0.12406 0.08978 0.0
C2301 C 0.26042 0.10231 0.08958 0.0
C2302 C 0.30417 0.15706 0.12367 0.0
C2303 C 0.24481 0.12796 0.07775 0.0
C2304 C 0.26203 0.19419 0.10705 0.0
C2305 C 0.2806 0.21268 0.09821 0.0
C2306 C 0.25996 0.17125 0.10817 0.0
C2307 C 0.27641 0.16656 0.09986 0.0
C2308 C 0.29498 0.18513 0.09075 0.0
C2309 C 0.29706 0.20805 0.09024 0.0
C2310 C 0.24038 0.15213 0.11836 0.0
C2311 C 0.31254 0.18072 0.08141 0.0
H2312 H 0.3013 0.11392 0.1187 0.0
H2313 H 0.2498 0.08855 0.08095 0.0
H2314 H 0.31923 0.17295 0.11776 0.0
H2315 H 0.29324 0.1635 0.12997 0.0
H2316 H 0.312 0.14996 0.13241 0.0
H2317 H 0.23333 0.1114 0.07075 0.0
H2318 H 0.23298 0.13374 0.08355 0.0
H2319 H 0.25687 0.14267 0.0696 0.0
H2320 H 0.24935 0.19778 0.11328 0.0
H2321 H 0.31129 0.22224 0.08325 0.0
H2322 H 0.2486 0.14594 0.12741 0.0
H2323 H 0.22819 0.13613 0.11115 0.0
H2324 H 0.22938 0.15882 0.12433 0.0
H2325 H 0.32321 0.17595 0.08943 0.0
H2326 H 0.32527 0.19676 0.07439 0.0
H2327 H 0.30248 0.1652 0.07332 0.0
C2328 C 0.2085 0.93821 0.92265 0.0
C2329 C 0.21289 0.95902 0.91439 0.0
C2330 C 0.18569 0.91721 0.92229 0.0
C2331 C 0.16701 0.91675 0.91304 0.0
C2332 C 0.17147 0.93757 0.90442 0.0
C2333 C 0.19429 0.95862 0.90541 0.0
C2334 C 0.18151 0.8956 0.93195 0.0
C2335 C 0.15225 0.93752 0.89407 0.0
C2336 C 0.11729 0.8534 0.90252 0.0
C2337 C 0.09922 0.84969 0.91335 0.0
C2338 C 0.13895 0.87564 0.90172 0.0
C2339 C 0.14293 0.89431 0.91237 0.0
C2340 C 0.1245 0.89083 0.92311 0.0
C2341 C 0.10267 0.86864 0.9233 0.0
C2342 C 0.15784 0.87888 0.88978 0.0
C2343 C 0.12829 0.91006 0.93493 0.0
H2344 H 0.22278 0.93855 0.92975 0.0
H2345 H 0.1977 0.97467 0.89895 0.0
H2346 H 0.16599 0.89026 0.94002 0.0
H2347 H 0.17685 0.87995 0.92416 0.0
H2348 H 0.19762 0.89926 0.93903 0.0
H2349 H 0.1588 0.95499 0.88782 0.0
H2350 H 0.14613 0.92282 0.88523 0.0
H2351 H 0.13624 0.93386 0.90121 0.0
H2352 H 0.11454 0.83881 0.89471 0.0
H2353 H 0.08877 0.86571 0.93177 0.0
H2354 H 0.17379 0.88011 0.89586 0.0
H2355 H 0.16414 0.89601 0.8832 0.0
H2356 H 0.15091 0.86367 0.88127 0.0
H2357 H 0.14316 0.91313 0.94306 0.0
H2358 H 0.11177 0.90499 0.94196 0.0
H2359 H 0.13379 0.92746 0.92891 0.0
C2360 C 0.20237 0.28614 0.89964 0.0
C2361 C 0.20609 0.27247 0.91104 0.0
C2362 C 0.18015 0.28554 0.8985 0.0
C2363 C 0.16151 0.27157 0.90936 0.0
C2364 C 0.16495 0.25719 0.9206 0.0
C2365 C 0.18712 0.25753 0.92115 0.0
C2366 C 0.17695 0.30055 0.88604 0.0
C2367 C 0.14577 0.24255 0.93265 0.0
C2368 C 0.11873 0.29486 0.91893 0.0
C2369 C 0.09757 0.27818 0.9111 0.0
C2370 C 0.1395 0.29266 0.91861 0.0
C2371 C 0.13936 0.27374 0.90985 0.0
C2372 C 0.1182 0.25712 0.90162 0.0
C2373 C 0.09738 0.2593 0.90256 0.0
C2374 C 0.16149 0.3104 0.92787 0.0
C2375 C 0.11763 0.23718 0.89176 0.0
H2376 H 0.21699 0.29755 0.89173 0.0
H2377 H 0.19006 0.24711 0.93004 0.0
H2378 H 0.15958 0.28957 0.87973 0.0
H2379 H 0.1763 0.31592 0.89162 0.0
H2380 H 0.19193 0.30793 0.87734 0.0
H2381 H 0.15064 0.23118 0.93995 0.0
H2382 H 0.14316 0.25492 0.94051 0.0
H2383 H 0.1282 0.23065 0.92682 0.0
H2384 H 0.11884 0.30931 0.92569 0.0
H2385 H 0.08105 0.24645 0.89644 0.0
H2386 H 0.177 0.32069 0.91983 0.0
H2387 H 0.16677 0.30052 0.93624 0.0
H2388 H 0.1583 0.32349 0.93458 0.0
H2389 H 0.13221 0.24504 0.88281 0.0
H2390 H 0.10001 0.22624 0.88568 0.0
H2391 H 0.12106 0.22499 0.89924 0.0
C2392 C 0.8016 0.87278 0.91971 0.0
C2393 C 0.78549 0.85404 0.90984 0.0
C2394 C 0.80187 0.8949 0.92026 0.0
C2395 C 0.78618 0.89858 0.91032 0.0
C2396 C 0.77088 0.88018 0.89968 0.0
C2397 C 0.77041 0.85794 0.89977 0.0
C2398 C 0.81792 0.91377 0.93209 0.0
C2399 C 0.75444 0.88367 0.88857 0.0
C2400 C 0.76405 0.94098 0.92344 0.0
C2401 C 0.77965 0.96227 0.91533 0.0
C2402 C 0.76636 0.92033 0.92214 0.0
C2403 C 0.78419 0.92072 0.91205 0.0
C2404 C 0.79984 0.94212 0.90367 0.0
C2405 C 0.79766 0.96283 0.90563 0.0
C2406 C 0.74978 0.89813 0.93164 0.0
C2407 C 0.81856 0.94298 0.89244 0.0
H2408 H 0.81313 0.86971 0.92761 0.0
H2409 H 0.75807 0.84351 0.89204 0.0
H2410 H 0.82914 0.9315 0.92626 0.0
H2411 H 0.80654 0.91618 0.94095 0.0
H2412 H 0.83008 0.90872 0.93829 0.0
H2413 H 0.74595 0.86888 0.87976 0.0
H2414 H 0.73985 0.88422 0.89531 0.0
H2415 H 0.76468 0.90118 0.88228 0.0
H2416 H 0.75027 0.94061 0.93107 0.0
H2417 H 0.80961 0.97926 0.89927 0.0
H2418 H 0.76061 0.89252 0.93887 0.0
H2419 H 0.73835 0.88287 0.92368 0.0
H2420 H 0.73774 0.90123 0.93955 0.0
H2421 H 0.8313 0.9389 0.89877 0.0
H2422 H 0.82908 0.96089 0.88664 0.0
H2423 H 0.80958 0.92892 0.88325 0.0
C2424 C 0.53167 0.42996 0.42135 0.0
C2425 C 0.51296 0.42657 0.43151 0.0
C2426 C 0.5542 0.45138 0.42182 0.0
C2427 C 0.55826 0.46944 0.43304 0.0
C2428 C 0.53986 0.4654 0.44393 0.0
C2429 C 0.51728 0.44418 0.44287 0.0
C2430 C 0.57313 0.45526 0.40974 0.0
C2431 C 0.54371 0.48389 0.45635 0.0
C2432 C 0.62302 0.52015 0.43959 0.0
C2433 C 0.62332 0.53905 0.431 0.0
C2434 C 0.60184 0.49744 0.44062 0.0
C2435 C 0.58081 0.49341 0.43243 0.0
C2436 C 0.58117 0.51239 0.42361 0.0
C2437 C 0.6023 0.53507 0.4232 0.0
C2438 C 0.60189 0.47785 0.45052 0.0
C2439 C 0.55933 0.50868 0.4144 0.0
H2440 H 0.52828 0.41641 0.41249 0.0
H2441 H 0.50288 0.44146 0.45084 0.0
H2442 H 0.57613 0.47033 0.40183 0.0
H2443 H 0.59063 0.4605 0.41554 0.0
H2444 H 0.56776 0.43886 0.4025 0.0
H2445 H 0.52878 0.47673 0.46509 0.0
H2446 H 0.56103 0.48981 0.46262 0.0
H2447 H 0.54487 0.50012 0.45074 0.0
H2448 H 0.63924 0.52324 0.44568 0.0
H2449 H 0.60257 0.54956 0.41639 0.0
H2450 H 0.5979 0.462 0.44309 0.0
H2451 H 0.58744 0.47158 0.45954 0.0
H2452 H 0.6195 0.48411 0.45652 0.0
H2453 H 0.55359 0.49337 0.40609 0.0
H2454 H 0.56292 0.52503 0.40763 0.0
H2455 H 0.54397 0.50394 0.42248 0.0
C2456 C 0.62759 0.12868 0.44104 0.0
C2457 C 0.62739 0.11054 0.43166 0.0
C2458 C 0.60686 0.13096 0.44236 0.0
C2459 C 0.58585 0.1153 0.43364 0.0
C2460 C 0.58587 0.09738 0.42383 0.0
C2461 C 0.60649 0.09495 0.4232 0.0
C2462 C 0.60724 0.14974 0.45332 0.0
C2463 C 0.56413 0.08082 0.41395 0.0
C2464 C 0.52257 0.10154 0.44447 0.0
C2465 C 0.51919 0.11672 0.43418 0.0
C2466 C 0.54477 0.10199 0.44511 0.0
C2467 C 0.56365 0.1173 0.43476 0.0
C2468 C 0.56045 0.13302 0.42456 0.0
C2469 C 0.53836 0.13283 0.42459 0.0
C2470 C 0.54774 0.08553 0.45651 0.0
C2471 C 0.57982 0.14904 0.41299 0.0
H2472 H 0.64373 0.14062 0.44767 0.0
H2473 H 0.60643 0.08107 0.41582 0.0
H2474 H 0.60341 0.16243 0.44671 0.0
H2475 H 0.59281 0.1408 0.46229 0.0
H2476 H 0.6249 0.16032 0.45941 0.0
H2477 H 0.56762 0.06883 0.40626 0.0
H2478 H 0.54852 0.06933 0.42165 0.0
H2479 H 0.55884 0.09166 0.40647 0.0
H2480 H 0.50778 0.08921 0.45198 0.0
H2481 H 0.53565 0.14441 0.41652 0.0
H2482 H 0.56496 0.09577 0.46311 0.0
H2483 H 0.54858 0.07094 0.44997 0.0
H2484 H 0.53256 0.07705 0.46504 0.0
H2485 H 0.59729 0.16028 0.41911 0.0
H2486 H 0.57504 0.16117 0.40649 0.0
H2487 H 0.58261 0.13763 0.40436 0.0
C2488 C 0.92631 0.42999 0.43943 0.0
C2489 C 0.94466 0.42934 0.43077 0.0
C2490 C 0.92466 0.45114 0.44006 0.0
C2491 C 0.94127 0.47179 0.4314 0.0
C2492 C 0.95963 0.47106 0.42248 0.0
C2493 C 0.96132 0.44999 0.42248 0.0
C2494 C 0.90532 0.45147 0.45008 0.0
C2495 C 0.97733 0.49247 0.41278 0.0
C2496 C 0.92569 0.52001 0.42004 0.0
C2497 C 0.94106 0.53912 0.42993 0.0
C2498 C 0.92513 0.49773 0.42061 0.0
C2499 C 0.93975 0.49432 0.43168 0.0
C2500 C 0.95432 0.51317 0.44226 0.0
C2501 C 0.95511 0.53549 0.44108 0.0
C2502 C 0.90985 0.47832 0.40886 0.0
C2503 C 0.96962 0.51003 0.45453 0.0
H2504 H 0.91348 0.41407 0.44591 0.0
H2505 H 0.97536 0.44945 0.41563 0.0
H2506 H 0.91378 0.46632 0.45882 0.0
H2507 H 0.89318 0.45509 0.44267 0.0
H2508 H 0.89422 0.43413 0.45641 0.0
H2509 H 0.98986 0.4886 0.40597 0.0
H2510 H 0.96739 0.49776 0.40446 0.0
H2511 H 0.98822 0.50823 0.42052 0.0
H2512 H 0.91495 0.52287 0.41133 0.0
H2513 H 0.96685 0.5502 0.44884 0.0
H2514 H 0.89776 0.46105 0.41495 0.0
H2515 H 0.92175 0.47502 0.40097 0.0
H2516 H 0.89861 0.48335 0.40155 0.0
H2517 H 0.95857 0.49303 0.4612 0.0
H2518 H 0.97778 0.52539 0.46295 0.0
H2519 H 0.98443 0.50861 0.44874 0.0
C2520 C 0.7594 0.19706 0.24257 0.0
C2521 C 0.76086 0.17866 0.25061 0.0
C2522 C 0.77977 0.22033 0.24121 0.0
C2523 C 0.80177 0.2254 0.24851 0.0
C2524 C 0.80306 0.20698 0.25699 0.0
C2525 C 0.7827 0.18375 0.25771 0.0
C2526 C 0.77793 0.23929 0.23168 0.0
C2527 C 0.82596 0.21178 0.2653 0.0
C2528 C 0.86363 0.27531 0.2357 0.0
C2529 C 0.86868 0.29309 0.24707 0.0
C2530 C 0.8412 0.25383 0.23538 0.0
C2531 C 0.82376 0.2497 0.24707 0.0
C2532 C 0.82848 0.26797 0.25826 0.0
C2533 C 0.8508 0.28965 0.25798 0.0
C2534 C 0.83659 0.23513 0.22295 0.0
C2535 C 0.81064 0.26402 0.27116 0.0
H2536 H 0.74253 0.19308 0.237 0.0
H2537 H 0.78377 0.16959 0.26408 0.0
H2538 H 0.78278 0.25545 0.23901 0.0
H2539 H 0.791 0.24527 0.22179 0.0
H2540 H 0.75948 0.23251 0.22682 0.0
H2541 H 0.82348 0.19593 0.27221 0.0
H2542 H 0.84058 0.21647 0.2566 0.0
H2543 H 0.83212 0.22746 0.27335 0.0
H2544 H 0.87741 0.27807 0.22718 0.0
H2545 H 0.85478 0.30333 0.26685 0.0
H2546 H 0.81855 0.22849 0.21752 0.0
H2547 H 0.83662 0.21936 0.22841 0.0
H2548 H 0.85054 0.24239 0.21356 0.0
H2549 H 0.79239 0.25777 0.26619 0.0
H2550 H 0.81614 0.28069 0.27814 0.0
H2551 H 0.80915 0.24964 0.2792 0.0
C2552 C 0.8591 0.59497 0.25092 0.0
C2553 C 0.87905 0.61187 0.24219 0.0
C2554 C 0.83686 0.59441 0.25014 0.0
C2555 C 0.83434 0.61061 0.24 0.0
C2556 C 0.85411 0.62686 0.23055 0.0
C2557 C 0.87638 0.6276 0.23198 0.0
C2558 C 0.81648 0.57734 0.26077 0.0
C2559 C 0.85191 0.64389 0.21924 0.0
C2560 C 0.77026 0.59746 0.2317 0.0
C2561 C 0.76876 0.61422 0.24159 0.0
C2562 C 0.79174 0.59646 0.23072 0.0
C2563 C 0.81175 0.61197 0.24028 0.0
C2564 C 0.81014 0.62871 0.25039 0.0
C2565 C 0.78881 0.6299 0.25072 0.0
C2566 C 0.79308 0.57892 0.21944 0.0
C2567 C 0.83078 0.64508 0.26112 0.0
H2568 H 0.86121 0.58292 0.25891 0.0
H2569 H 0.89176 0.64053 0.22511 0.0
H2570 H 0.81226 0.58793 0.26925 0.0
H2571 H 0.79985 0.56608 0.25382 0.0
H2572 H 0.82101 0.56519 0.26746 0.0
H2573 H 0.86796 0.65328 0.21145 0.0
H2574 H 0.83551 0.63386 0.21184 0.0
H2575 H 0.84993 0.65774 0.22588 0.0
H2576 H 0.75478 0.58542 0.22458 0.0
H2577 H 0.78757 0.64269 0.2585 0.0
H2578 H 0.79601 0.5656 0.226 0.0
H2579 H 0.80872 0.58878 0.21141 0.0
H2580 H 0.77636 0.56896 0.21229 0.0
H2581 H 0.83558 0.63407 0.26882 0.0
H2582 H 0.8263 0.65652 0.26865 0.0
H2583 H 0.84704 0.65709 0.25408 0.0
C2584 C 0.46437 0.29825 0.23943 0.0
C2585 C 0.44624 0.29825 0.24871 0.0
C2586 C 0.46644 0.27738 0.23818 0.0
C2587 C 0.45057 0.25643 0.24688 0.0
C2588 C 0.43262 0.25663 0.25655 0.0
C2589 C 0.4304 0.27739 0.25712 0.0
C2590 C 0.48525 0.27758 0.22734 0.0
C2591 C 0.41584 0.23496 0.26641 0.0
C2592 C 0.4369 0.1931 0.23611 0.0
C2593 C 0.45203 0.18972 0.24646 0.0
C2594 C 0.43727 0.21527 0.23548 0.0
C2595 C 0.45246 0.23414 0.24589 0.0
C2596 C 0.46808 0.23093 0.25617 0.0
C2597 C 0.46798 0.20887 0.25613 0.0
C2598 C 0.42093 0.21825 0.22398 0.0
C2599 C 0.48397 0.25028 0.26779 0.0
H2600 H 0.4765 0.31435 0.23284 0.0
H2601 H 0.41652 0.27748 0.26441 0.0
H2602 H 0.49788 0.27381 0.23407 0.0
H2603 H 0.47634 0.26304 0.21843 0.0
H2604 H 0.49588 0.29517 0.22117 0.0
H2605 H 0.40379 0.23855 0.27397 0.0
H2606 H 0.40442 0.21933 0.2587 0.0
H2607 H 0.42651 0.22962 0.27402 0.0
H2608 H 0.42469 0.17833 0.22854 0.0
H2609 H 0.47952 0.20617 0.26425 0.0
H2610 H 0.43126 0.23542 0.21736 0.0
H2611 H 0.40634 0.21921 0.23044 0.0
H2612 H 0.41245 0.20302 0.21548 0.0
H2613 H 0.49543 0.2677 0.26168 0.0
H2614 H 0.49589 0.24541 0.27446 0.0
H2615 H 0.47247 0.25322 0.27627 0.0
C2616 C 0.28066 0.87148 0.77465 0.0
C2617 C 0.29853 0.8764 0.76337 0.0
C2618 C 0.25947 0.84882 0.77527 0.0
C2619 C 0.25571 0.83095 0.76399 0.0
C2620 C 0.27401 0.83562 0.75283 0.0
C2621 C 0.2954 0.85821 0.75282 0.0
C2622 C 0.24073 0.84431 0.78765 0.0
C2623 C 0.27043 0.81732 0.74035 0.0
C2624 C 0.20451 0.76612 0.76976 0.0
C2625 C 0.18565 0.76647 0.76155 0.0
C2626 C 0.22747 0.78703 0.77078 0.0
C2627 C 0.23175 0.80842 0.76295 0.0
C2628 C 0.21287 0.80857 0.75431 0.0
C2629 C 0.18997 0.78772 0.75393 0.0
C2630 C 0.24694 0.7864 0.78048 0.0
C2631 C 0.21684 0.83077 0.74544 0.0
H2632 H 0.28318 0.88548 0.78292 0.0
H2633 H 0.30915 0.86206 0.74403 0.0
H2634 H 0.22459 0.84336 0.78205 0.0
H2635 H 0.23476 0.82671 0.79355 0.0
H2636 H 0.24767 0.85881 0.79669 0.0
H2637 H 0.28703 0.82302 0.73326 0.0
H2638 H 0.26495 0.79949 0.74574 0.0
H2639 H 0.25561 0.8148 0.73234 0.0
H2640 H 0.20113 0.74971 0.77572 0.0
H2641 H 0.17547 0.78793 0.74741 0.0
H2642 H 0.25272 0.8 0.79005 0.0
H2643 H 0.26309 0.7913 0.77313 0.0
H2644 H 0.24074 0.76833 0.78579 0.0
H2645 H 0.22121 0.84575 0.75379 0.0
H2646 H 0.2007 0.82742 0.7385 0.0
H2647 H 0.23245 0.83694 0.73733 0.0
C2648 C 0.28887 0.46118 0.77731 0.0
C2649 C 0.29014 0.44416 0.76756 0.0
C2650 C 0.26748 0.46233 0.77834 0.0
C2651 C 0.2473 0.44669 0.76895 0.0
C2652 C 0.24865 0.42966 0.75897 0.0
C2653 C 0.26991 0.42834 0.75861 0.0
C2654 C 0.26642 0.48018 0.78948 0.0
C2655 C 0.22782 0.41313 0.74843 0.0
C2656 C 0.18287 0.43157 0.77747 0.0
C2657 C 0.18013 0.44708 0.7671 0.0
C2658 C 0.20512 0.43225 0.77888 0.0
C2659 C 0.22478 0.44821 0.76925 0.0
C2660 C 0.22221 0.46423 0.75897 0.0
C2661 C 0.19999 0.46374 0.75821 0.0
C2662 C 0.20738 0.41542 0.79034 0.0
C2663 C 0.24248 0.481 0.74817 0.0
H2664 H 0.30448 0.47334 0.7843 0.0
H2665 H 0.27095 0.41535 0.75092 0.0
H2666 H 0.26351 0.49344 0.7828 0.0
H2667 H 0.25086 0.47058 0.7976 0.0
H2668 H 0.28323 0.49021 0.79652 0.0
H2669 H 0.23209 0.40144 0.74101 0.0
H2670 H 0.21162 0.40136 0.75561 0.0
H2671 H 0.223 0.42403 0.74064 0.0
H2672 H 0.16757 0.41883 0.78446 0.0
H2673 H 0.19783 0.47562 0.75009 0.0
H2674 H 0.22391 0.42555 0.79761 0.0
H2675 H 0.20915 0.40134 0.78382 0.0
H2676 H 0.19146 0.4063 0.79825 0.0
H2677 H 0.25923 0.49232 0.75499 0.0
H2678 H 0.23795 0.49308 0.74139 0.0
H2679 H 0.24648 0.47017 0.73976 0.0
C2680 C 0.59459 0.75936 0.7718 0.0
C2681 C 0.61234 0.7597 0.76196 0.0
C2682 C 0.59266 0.7802 0.77382 0.0
C2683 C 0.60828 0.80149 0.76534 0.0
C2684 C 0.62584 0.80165 0.75509 0.0
C2685 C 0.62792 0.78089 0.75375 0.0
C2686 C 0.57425 0.77959 0.78522 0.0
C2687 C 0.64235 0.82373 0.74547 0.0
C2688 C 0.59107 0.84965 0.75801 0.0
C2689 C 0.60743 0.8684 0.76778 0.0
C2690 C 0.59069 0.82749 0.75737 0.0
C2691 C 0.60652 0.82376 0.76712 0.0
C2692 C 0.62211 0.84218 0.77766 0.0
C2693 C 0.6227 0.86446 0.77765 0.0
C2694 C 0.57433 0.80861 0.74564 0.0
C2695 C 0.63872 0.83863 0.78859 0.0
H2696 H 0.58267 0.743 0.77824 0.0
H2697 H 0.64152 0.78107 0.74602 0.0
H2698 H 0.5835 0.79371 0.79435 0.0
H2699 H 0.56147 0.78374 0.77902 0.0
H2700 H 0.56374 0.76174 0.7911 0.0
H2701 H 0.65413 0.82044 0.73744 0.0
H2702 H 0.63148 0.82942 0.73836 0.0
H2703 H 0.65405 0.83901 0.75335 0.0
H2704 H 0.5794 0.85276 0.75027 0.0
H2705 H 0.63524 0.87891 0.7853 0.0
H2706 H 0.56309 0.79095 0.75154 0.0
H2707 H 0.58549 0.80603 0.73669 0.0
H2708 H 0.56218 0.81377 0.73954 0.0
H2709 H 0.62853 0.82118 0.79494 0.0
H2710 H 0.64749 0.85347 0.79733 0.0
H2711 H 0.65309 0.83791 0.78169 0.0
C2712 C 0.52255 0.6266 0.5829 0.0
C2713 C 0.54195 0.62983 0.5735 0.0
C2714 C 0.50042 0.60476 0.5826 0.0
C2715 C 0.49746 0.58607 0.57227 0.0
C2716 C 0.51656 0.58985 0.56206 0.0
C2717 C 0.53876 0.61155 0.563 0.0
C2718 C 0.48076 0.60119 0.59398 0.0
C2719 C 0.51384 0.57067 0.55054 0.0
C2720 C 0.45413 0.52115 0.58409 0.0
C2721 C 0.43317 0.5161 0.57578 0.0
C2722 C 0.47507 0.54392 0.58312 0.0
C2723 C 0.4753 0.56184 0.57319 0.0
C2724 C 0.45436 0.55664 0.56444 0.0
C2725 C 0.43335 0.53392 0.56605 0.0
C2726 C 0.49678 0.54894 0.59298 0.0
C2727 C 0.4542 0.57504 0.55337 0.0
H2728 H 0.52508 0.64067 0.59112 0.0
H2729 H 0.55372 0.61414 0.55563 0.0
H2730 H 0.46346 0.59511 0.58768 0.0
H2731 H 0.47774 0.58681 0.60253 0.0
H2732 H 0.48538 0.61797 0.60059 0.0
H2733 H 0.52914 0.57759 0.5421 0.0
H2734 H 0.51301 0.55517 0.55699 0.0
H2735 H 0.49671 0.56372 0.54385 0.0
H2736 H 0.45394 0.50747 0.59174 0.0
H2737 H 0.41717 0.52996 0.55956 0.0
H2738 H 0.50187 0.56481 0.60068 0.0
H2739 H 0.51251 0.55345 0.5853 0.0
H2740 H 0.49336 0.53328 0.60047 0.0
H2741 H 0.45727 0.59128 0.56002 0.0
H2742 H 0.43686 0.56776 0.54685 0.0
H2743 H 0.46919 0.58103 0.54477 0.0
C2744 C 0.42888 0.92498 0.59338 0.0
C2745 C 0.42577 0.94016 0.58291 0.0
C2746 C 0.45052 0.92423 0.59359 0.0
C2747 C 0.46911 0.93844 0.58274 0.0
C2748 C 0.46545 0.95275 0.57157 0.0
C2749 C 0.44398 0.95375 0.57197 0.0
C2750 C 0.45397 0.90925 0.60595 0.0
C2751 C 0.48451 0.96762 0.55952 0.0
C2752 C 0.5347 0.96097 0.5934 0.0
C2753 C 0.53934 0.94439 0.5856 0.0
C2754 C 0.51174 0.9588 0.59289 0.0
C2755 C 0.49314 0.94002 0.58392 0.0
C2756 C 0.49776 0.92329 0.5759 0.0
C2757 C 0.52075 0.92543 0.57706 0.0
C2758 C 0.50741 0.97663 0.60196 0.0
C2759 C 0.47862 0.90348 0.56585 0.0
H2760 H 0.41488 0.91459 0.60192 0.0
H2761 H 0.4415 0.96534 0.56377 0.0
H2762 H 0.45965 0.89713 0.60046 0.0
H2763 H 0.46859 0.92139 0.61412 0.0
H2764 H 0.43725 0.89809 0.61288 0.0
H2765 H 0.47775 0.97546 0.55055 0.0
H2766 H 0.50043 0.98264 0.56543 0.0
H2767 H 0.4908 0.95635 0.55347 0.0
H2768 H 0.54899 0.97549 0.60016 0.0
H2769 H 0.52437 0.91268 0.57094 0.0
H2770 H 0.49162 0.96682 0.60988 0.0
H2771 H 0.50314 0.98744 0.59372 0.0
H2772 H 0.52334 0.98923 0.60912 0.0
H2773 H 0.46233 0.89187 0.57299 0.0
H2774 H 0.48507 0.89192 0.5604 0.0
H2775 H 0.47297 0.91158 0.55638 0.0
C2776 C 0.09403 0.60144 0.58631 0.0
C2777 C 0.11068 0.62224 0.57816 0.0
C2778 C 0.09591 0.58048 0.58623 0.0
C2779 C 0.11446 0.58004 0.57736 0.0
C2780 C 0.13107 0.60086 0.56884 0.0
C2781 C 0.12923 0.62189 0.56955 0.0
C2782 C 0.0782 0.55889 0.5958 0.0
C2783 C 0.15061 0.60081 0.55888 0.0
C2784 C 0.13006 0.53188 0.58879 0.0
C2785 C 0.11474 0.5128 0.57886 0.0
C2786 C 0.13067 0.55418 0.58817 0.0
C2787 C 0.11616 0.55762 0.57702 0.0
C2788 C 0.10173 0.53882 0.56637 0.0
C2789 C 0.10087 0.51649 0.5676 0.0
C2790 C 0.14579 0.57354 0.6 0.0
C2791 C 0.08657 0.54201 0.55402 0.0
H2792 H 0.07984 0.60176 0.59313 0.0
H2793 H 0.14206 0.63794 0.56319 0.0
H2794 H 0.06747 0.54321 0.58796 0.0
H2795 H 0.08813 0.55359 0.60412 0.0
H2796 H 0.06551 0.56256 0.60259 0.0
H2797 H 0.16169 0.61826 0.55265 0.0
H2798 H 0.16274 0.59721 0.56632 0.0
H2799 H 0.14235 0.58607 0.55006 0.0
H2800 H 0.14065 0.52897 0.59757 0.0
H2801 H 0.08918 0.50179 0.55982 0.0
H2802 H 0.13376 0.57662 0.6079 0.0
H2803 H 0.1578 0.5909 0.59398 0.0
H2804 H 0.1571 0.56856 0.60728 0.0
H2805 H 0.07157 0.5432 0.55973 0.0
H2806 H 0.07866 0.52678 0.54551 0.0
H2807 H 0.09763 0.55914 0.54747 0.0
loop_
_geom_bond_atom_site_label_1
_geom_bond_atom_site_label_2
_geom_bond_distance
_geom_bond_site_symmetry_2
_ccdc_geom_bond_type
O0 Cd1 2.223 . S
O0 C8 1.315 . S
Cd1 O0 2.223 . S
Cd1 O4 2.297 . S
Cd1 O5 2.439 . S
Cd1 O11 2.240 1_455 S
Cd2 O3 2.240 . S
Cd2 O10 2.223 1_455 S
Cd2 O12 2.297 1_455 S
Cd2 O13 2.439 . S
O3 Cd2 2.240 . S
O3 C8 1.279 . S
O4 Cd1 2.297 . S
O4 C6 1.247 . S
O5 Cd1 2.439 . S
O5 C6 1.208 . S
C6 O4 1.247 . S
C6 O5 1.208 . S
C7 O12 1.247 1_455 S
C7 O13 1.208 . S
C8 O0 1.315 . S
C8 O3 1.279 . S
C9 O10 1.315 . S
C9 O11 1.279 . S
O10 Cd2 2.223 1_655 S
O10 C9 1.315 . S
O11 Cd1 2.240 1_655 S
O11 C9 1.279 . S
O12 Cd2 2.297 1_655 S
O12 C7 1.247 1_655 S
O13 Cd2 2.439 . S
O13 C7 1.208 . S
O14 Cd15 2.223 . S
O14 C22 1.315 . S
Cd15 O14 2.223 . S
Cd15 O18 2.297 . S
Cd15 O19 2.439 . S
Cd15 O25 2.240 . S
Cd16 O17 2.240 . S
Cd16 O24 2.223 . S
Cd16 O26 2.297 . S
Cd16 O27 2.439 . S
O17 Cd16 2.240 . S
O17 C22 1.279 . S
O18 Cd15 2.297 . S
O18 C20 1.247 . S
O19 Cd15 2.439 . S
O19 C20 1.208 . S
C20 O18 1.247 . S
C20 O19 1.208 . S
C21 O26 1.247 . S
C21 O27 1.208 . S
C22 O14 1.315 . S
C22 O17 1.279 . S
C23 O24 1.315 . S
C23 O25 1.279 . S
O24 Cd16 2.223 . S
O24 C23 1.315 . S
O25 Cd15 2.240 . S
O25 C23 1.279 . S
O26 Cd16 2.297 . S
O26 C21 1.247 . S
O27 Cd16 2.439 . S
O27 C21 1.208 . S
O28 Cd29 2.223 . S
O28 C36 1.315 . S
Cd29 O28 2.223 . S
Cd29 O32 2.297 1_545 S
Cd29 O33 2.439 1_545 S
Cd29 O39 2.240 . S
Cd30 O31 2.240 . S
Cd30 O38 2.223 . S
Cd30 O40 2.297 . S
Cd30 O41 2.439 . S
O31 Cd30 2.240 . S
O31 C36 1.279 . S
O32 Cd29 2.297 1_565 S
O32 C34 1.247 . S
O33 Cd29 2.439 1_565 S
O33 C34 1.208 . S
C34 O32 1.247 . S
C34 O33 1.208 . S
C35 O40 1.247 . S
C35 O41 1.208 . S
C36 O28 1.315 . S
C36 O31 1.279 . S
C37 O38 1.315 . S
C37 O39 1.279 . S
O38 Cd30 2.223 . S
O38 C37 1.315 . S
O39 Cd29 2.240 . S
O39 C37 1.279 . S
O40 Cd30 2.297 . S
O40 C35 1.247 . S
O41 Cd30 2.439 . S
O41 C35 1.208 . S
O42 Cd43 2.223 . S
O42 C50 1.315 . S
Cd43 O42 2.223 . S
Cd43 O46 2.297 . S
Cd43 O47 2.439 . S
Cd43 O53 2.240 1_545 S
Cd44 O45 2.240 . S
Cd44 O52 2.223 1_545 S
Cd44 O54 2.297 1_545 S
Cd44 O55 2.439 . S
O45 Cd44 2.240 . S
O45 C50 1.279 . S
O46 Cd43 2.297 . S
O46 C48 1.247 . S
O47 Cd43 2.439 . S
O47 C48 1.208 . S
C48 O46 1.247 . S
C48 O47 1.208 . S
C49 O54 1.247 1_545 S
C49 O55 1.208 . S
C50 O42 1.315 . S
C50 O45 1.279 . S
C51 O52 1.315 . S
C51 O53 1.279 . S
O52 Cd44 2.223 1_565 S
O52 C51 1.315 . S
O53 Cd43 2.240 1_565 S
O53 C51 1.279 . S
O54 Cd44 2.297 1_565 S
O54 C49 1.247 1_565 S
O55 Cd44 2.439 . S
O55 C49 1.208 . S
O56 Cd57 2.223 . S
O56 C64 1.315 . S
Cd57 O56 2.223 . S
Cd57 O60 2.297 1_455 S
Cd57 O61 2.439 1_455 S
Cd57 O67 2.240 . S
Cd58 O59 2.240 . S
Cd58 O66 2.223 . S
Cd58 O68 2.297 . S
Cd58 O69 2.439 . S
O59 Cd58 2.240 . S
O59 C64 1.279 . S
O60 Cd57 2.297 1_655 S
O60 C62 1.247 . S
O61 Cd57 2.439 1_655 S
O61 C62 1.208 . S
C62 O60 1.247 . S
C62 O61 1.208 . S
C63 O68 1.247 . S
C63 O69 1.208 . S
C64 O56 1.315 . S
C64 O59 1.279 . S
C65 O66 1.315 . S
C65 O67 1.279 . S
O66 Cd58 2.223 . S
O66 C65 1.315 . S
O67 Cd57 2.240 . S
O67 C65 1.279 . S
O68 Cd58 2.297 . S
O68 C63 1.247 . S
O69 Cd58 2.439 . S
O69 C63 1.208 . S
O70 Cd71 2.223 . S
O70 C78 1.315 . S
Cd71 O70 2.223 . S
Cd71 O74 2.297 . S
Cd71 O75 2.439 . S
Cd71 O81 2.240 . S
Cd72 O73 2.240 . S
Cd72 O80 2.223 . S
Cd72 O82 2.297 . S
Cd72 O83 2.439 . S
O73 Cd72 2.240 . S
O73 C78 1.279 . S
O74 Cd71 2.297 . S
O74 C76 1.247 . S
O75 Cd71 2.439 . S
O75 C76 1.208 . S
C76 O74 1.247 . S
C76 O75 1.208 . S
C77 O82 1.247 . S
C77 O83 1.208 . S
C78 O70 1.315 . S
C78 O73 1.279 . S
C79 O80 1.315 . S
C79 O81 1.279 . S
O80 Cd72 2.223 . S
O80 C79 1.315 . S
O81 Cd71 2.240 . S
O81 C79 1.279 . S
O82 Cd72 2.297 . S
O82 C77 1.247 . S
O83 Cd72 2.439 . S
O83 C77 1.208 . S
O84 Cd85 2.223 . S
O84 C92 1.315 . S
Cd85 O84 2.223 . S
Cd85 O88 2.297 1_455 S
Cd85 O89 2.439 1_455 S
Cd85 O95 2.240 . S
Cd86 O87 2.240 . S
Cd86 O94 2.223 . S
Cd86 O96 2.297 . S
Cd86 O97 2.439 . S
O87 Cd86 2.240 . S
O87 C92 1.279 . S
O88 Cd85 2.297 1_655 S
O88 C90 1.247 . S
O89 Cd85 2.439 1_655 S
O89 C90 1.208 . S
C90 O88 1.247 . S
C90 O89 1.208 . S
C91 O96 1.247 . S
C91 O97 1.208 . S
C92 O84 1.315 . S
C92 O87 1.279 . S
C93 O94 1.315 . S
C93 O95 1.279 . S
O94 Cd86 2.223 . S
O94 C93 1.315 . S
O95 Cd85 2.240 . S
O95 C93 1.279 . S
O96 Cd86 2.297 . S
O96 C91 1.247 . S
O97 Cd86 2.439 . S
O97 C91 1.208 . S
O98 Cd99 2.223 . S
O98 C106 1.315 . S
Cd99 O98 2.223 . S
Cd99 O102 2.297 . S
Cd99 O103 2.439 . S
Cd99 O109 2.240 . S
Cd100 O101 2.240 . S
Cd100 O108 2.223 . S
Cd100 O110 2.297 . S
Cd100 O111 2.439 . S
O101 Cd100 2.240 . S
O101 C106 1.279 . S
O102 Cd99 2.297 . S
O102 C104 1.247 . S
O103 Cd99 2.439 . S
O103 C104 1.208 . S
C104 O102 1.247 . S
C104 O103 1.208 . S
C105 O110 1.247 . S
C105 O111 1.208 . S
C106 O98 1.315 . S
C106 O101 1.279 . S
C107 O108 1.315 . S
C107 O109 1.279 . S
O108 Cd100 2.223 . S
O108 C107 1.315 . S
O109 Cd99 2.240 . S
O109 C107 1.279 . S
O110 Cd100 2.297 . S
O110 C105 1.247 . S
O111 Cd100 2.439 . S
O111 C105 1.208 . S
O112 Cd113 2.223 . S
O112 C120 1.315 . S
Cd113 O112 2.223 . S
Cd113 O116 2.297 . S
Cd113 O117 2.439 . S
Cd113 O123 2.240 1_545 S
Cd114 O115 2.240 . S
Cd114 O122 2.223 1_545 S
Cd114 O124 2.297 1_545 S
Cd114 O125 2.439 . S
O115 Cd114 2.240 . S
O115 C120 1.279 . S
O116 Cd113 2.297 . S
O116 C118 1.247 . S
O117 Cd113 2.439 . S
O117 C118 1.208 . S
C118 O116 1.247 . S
C118 O117 1.208 . S
C119 O124 1.247 1_545 S
C119 O125 1.208 . S
C120 O112 1.315 . S
C120 O115 1.279 . S
C121 O122 1.315 . S
C121 O123 1.279 . S
O122 Cd114 2.223 1_565 S
O122 C121 1.315 . S
O123 Cd113 2.240 1_565 S
O123 C121 1.279 . S
O124 Cd114 2.297 1_565 S
O124 C119 1.247 1_565 S
O125 Cd114 2.439 . S
O125 C119 1.208 . S
O126 Cd127 2.223 . S
O126 C134 1.315 . S
Cd127 O126 2.223 . S
Cd127 O130 2.297 1_545 S
Cd127 O131 2.439 1_545 S
Cd127 O137 2.240 . S
Cd128 O129 2.240 . S
Cd128 O136 2.223 . S
Cd128 O138 2.297 . S
Cd128 O139 2.439 . S
O129 Cd128 2.240 . S
O129 C134 1.279 . S
O130 Cd127 2.297 1_565 S
O130 C132 1.247 . S
O131 Cd127 2.439 1_565 S
O131 C132 1.208 . S
C132 O130 1.247 . S
C132 O131 1.208 . S
C133 O138 1.247 . S
C133 O139 1.208 . S
C134 O126 1.315 . S
C134 O129 1.279 . S
C135 O136 1.315 . S
C135 O137 1.279 . S
O136 Cd128 2.223 . S
O136 C135 1.315 . S
O137 Cd127 2.240 . S
O137 C135 1.279 . S
O138 Cd128 2.297 . S
O138 C133 1.247 . S
O139 Cd128 2.439 . S
O139 C133 1.208 . S
O140 Cd141 2.223 . S
O140 C148 1.315 . S
Cd141 O140 2.223 . S
Cd141 O144 2.297 . S
Cd141 O145 2.439 . S
Cd141 O151 2.240 1_455 S
Cd142 O143 2.240 . S
Cd142 O150 2.223 1_455 S
Cd142 O152 2.297 1_455 S
Cd142 O153 2.439 . S
O143 Cd142 2.240 . S
O143 C148 1.279 . S
O144 Cd141 2.297 . S
O144 C146 1.247 . S
O145 Cd141 2.439 . S
O145 C146 1.208 . S
C146 O144 1.247 . S
C146 O145 1.208 . S
C147 O152 1.247 1_455 S
C147 O153 1.208 . S
C148 O140 1.315 . S
C148 O143 1.279 . S
C149 O150 1.315 . S
C149 O151 1.279 . S
O150 Cd142 2.223 1_655 S
O150 C149 1.315 . S
O151 Cd141 2.240 1_655 S
O151 C149 1.279 . S
O152 Cd142 2.297 1_655 S
O152 C147 1.247 1_655 S
O153 Cd142 2.439 . S
O153 C147 1.208 . S
O154 Cd155 2.223 . S
O154 C162 1.315 . S
Cd155 O154 2.223 . S
Cd155 O158 2.297 . S
Cd155 O159 2.439 . S
Cd155 O165 2.240 . S
Cd156 O157 2.240 . S
Cd156 O164 2.223 . S
Cd156 O166 2.297 . S
Cd156 O167 2.439 . S
O157 Cd156 2.240 . S
O157 C162 1.279 . S
O158 Cd155 2.297 . S
O158 C160 1.247 . S
O159 Cd155 2.439 . S
O159 C160 1.208 . S
C160 O158 1.247 . S
C160 O159 1.208 . S
C161 O166 1.247 . S
C161 O167 1.208 . S
C162 O154 1.315 . S
C162 O157 1.279 . S
C163 O164 1.315 . S
C163 O165 1.279 . S
O164 Cd156 2.223 . S
O164 C163 1.315 . S
O165 Cd155 2.240 . S
O165 C163 1.279 . S
O166 Cd156 2.297 . S
O166 C161 1.247 . S
O167 Cd156 2.439 . S
O167 C161 1.208 . S
O168 Cd169 2.223 . S
O168 C176 1.315 . S
Cd169 O168 2.223 . S
Cd169 O172 2.297 . S
Cd169 O173 2.439 . S
Cd169 O179 2.240 . S
Cd170 O171 2.240 . S
Cd170 O178 2.223 . S
Cd170 O180 2.297 . S
Cd170 O181 2.439 . S
O171 Cd170 2.240 . S
O171 C176 1.279 . S
O172 Cd169 2.297 . S
O172 C174 1.247 . S
O173 Cd169 2.439 . S
O173 C174 1.208 . S
C174 O172 1.247 . S
C174 O173 1.208 . S
C175 O180 1.247 . S
C175 O181 1.208 . S
C176 O168 1.315 . S
C176 O171 1.279 . S
C177 O178 1.315 . S
C177 O179 1.279 . S
O178 Cd170 2.223 . S
O178 C177 1.315 . S
O179 Cd169 2.240 . S
O179 C177 1.279 . S
O180 Cd170 2.297 . S
O180 C175 1.247 . S
O181 Cd170 2.439 . S
O181 C175 1.208 . S
O182 Cd183 2.223 . S
O182 C190 1.315 . S
Cd183 O182 2.223 . S
Cd183 O186 2.297 . S
Cd183 O187 2.439 . S
Cd183 O193 2.240 . S
Cd184 O185 2.240 . S
Cd184 O192 2.223 . S
Cd184 O194 2.297 . S
Cd184 O195 2.439 . S
O185 Cd184 2.240 . S
O185 C190 1.279 . S
O186 Cd183 2.297 . S
O186 C188 1.247 . S
O187 Cd183 2.439 . S
O187 C188 1.208 . S
C188 O186 1.247 . S
C188 O187 1.208 . S
C189 O194 1.247 . S
C189 O195 1.208 . S
C190 O182 1.315 . S
C190 O185 1.279 . S
C191 O192 1.315 . S
C191 O193 1.279 . S
O192 Cd184 2.223 . S
O192 C191 1.315 . S
O193 Cd183 2.240 . S
O193 C191 1.279 . S
O194 Cd184 2.297 . S
O194 C189 1.247 . S
O195 Cd184 2.439 . S
O195 C189 1.208 . S
O196 Cd197 2.223 . S
O196 C204 1.315 . S
Cd197 O196 2.223 . S
Cd197 O200 2.297 . S
Cd197 O201 2.439 . S
Cd197 O207 2.240 . S
Cd198 O199 2.240 . S
Cd198 O206 2.223 . S
Cd198 O208 2.297 1_655 S
Cd198 O209 2.439 . S
O199 Cd198 2.240 . S
O199 C204 1.279 . S
O200 Cd197 2.297 . S
O200 C202 1.247 . S
O201 Cd197 2.439 . S
O201 C202 1.208 . S
C202 O200 1.247 . S
C202 O201 1.208 . S
C203 O208 1.247 1_655 S
C203 O209 1.208 . S
C204 O196 1.315 . S
C204 O199 1.279 . S
C205 O206 1.315 . S
C205 O207 1.279 . S
O206 Cd198 2.223 . S
O206 C205 1.315 . S
O207 Cd197 2.240 . S
O207 C205 1.279 . S
O208 Cd198 2.297 1_455 S
O208 C203 1.247 1_455 S
O209 Cd198 2.439 . S
O209 C203 1.208 . S
O210 Cd211 2.223 . S
O210 C218 1.315 . S
Cd211 O210 2.223 . S
Cd211 O214 2.297 . S
Cd211 O215 2.439 . S
Cd211 O221 2.240 . S
Cd212 O213 2.240 . S
Cd212 O220 2.223 . S
Cd212 O222 2.297 . S
Cd212 O223 2.439 . S
O213 Cd212 2.240 . S
O213 C218 1.279 . S
O214 Cd211 2.297 . S
O214 C216 1.247 . S
O215 Cd211 2.439 . S
O215 C216 1.208 . S
C216 O214 1.247 . S
C216 O215 1.208 . S
C217 O222 1.247 . S
C217 O223 1.208 . S
C218 O210 1.315 . S
C218 O213 1.279 . S
C219 O220 1.315 . S
C219 O221 1.279 . S
O220 Cd212 2.223 . S
O220 C219 1.315 . S
O221 Cd211 2.240 . S
O221 C219 1.279 . S
O222 Cd212 2.297 . S
O222 C217 1.247 . S
O223 Cd212 2.439 . S
O223 C217 1.208 . S
O224 Cd225 2.223 . S
O224 C232 1.315 . S
Cd225 O224 2.223 . S
Cd225 O228 2.297 . S
Cd225 O229 2.439 . S
Cd225 O235 2.240 . S
Cd226 O227 2.240 . S
Cd226 O234 2.223 . S
Cd226 O236 2.297 . S
Cd226 O237 2.439 . S
O227 Cd226 2.240 . S
O227 C232 1.279 . S
O228 Cd225 2.297 . S
O228 C230 1.247 . S
O229 Cd225 2.439 . S
O229 C230 1.208 . S
C230 O228 1.247 . S
C230 O229 1.208 . S
C231 O236 1.247 . S
C231 O237 1.208 . S
C232 O224 1.315 . S
C232 O227 1.279 . S
C233 O234 1.315 . S
C233 O235 1.279 . S
O234 Cd226 2.223 . S
O234 C233 1.315 . S
O235 Cd225 2.240 . S
O235 C233 1.279 . S
O236 Cd226 2.297 . S
O236 C231 1.247 . S
O237 Cd226 2.439 . S
O237 C231 1.208 . S
O238 Cd239 2.223 . S
O238 C246 1.315 . S
Cd239 O238 2.223 . S
Cd239 O242 2.297 . S
Cd239 O243 2.439 . S
Cd239 O249 2.240 . S
Cd240 O241 2.240 . S
Cd240 O248 2.223 . S
Cd240 O250 2.297 . S
Cd240 O251 2.439 . S
O241 Cd240 2.240 . S
O241 C246 1.279 . S
O242 Cd239 2.297 . S
O242 C244 1.247 . S
O243 Cd239 2.439 . S
O243 C244 1.208 . S
C244 O242 1.247 . S
C244 O243 1.208 . S
C245 O250 1.247 . S
C245 O251 1.208 . S
C246 O238 1.315 . S
C246 O241 1.279 . S
C247 O248 1.315 . S
C247 O249 1.279 . S
O248 Cd240 2.223 . S
O248 C247 1.315 . S
O249 Cd239 2.240 . S
O249 C247 1.279 . S
O250 Cd240 2.297 . S
O250 C245 1.247 . S
O251 Cd240 2.439 . S
O251 C245 1.208 . S
O252 Cd253 2.223 . S
O252 C260 1.315 . S
Cd253 O252 2.223 . S
Cd253 O256 2.297 . S
Cd253 O257 2.439 . S
Cd253 O263 2.240 . S
Cd254 O255 2.240 . S
Cd254 O262 2.223 . S
Cd254 O264 2.297 . S
Cd254 O265 2.439 . S
O255 Cd254 2.240 . S
O255 C260 1.279 . S
O256 Cd253 2.297 . S
O256 C258 1.247 . S
O257 Cd253 2.439 . S
O257 C258 1.208 . S
C258 O256 1.247 . S
C258 O257 1.208 . S
C259 O264 1.247 . S
C259 O265 1.208 . S
C260 O252 1.315 . S
C260 O255 1.279 . S
C261 O262 1.315 . S
C261 O263 1.279 . S
O262 Cd254 2.223 . S
O262 C261 1.315 . S
O263 Cd253 2.240 . S
O263 C261 1.279 . S
O264 Cd254 2.297 . S
O264 C259 1.247 . S
O265 Cd254 2.439 . S
O265 C259 1.208 . S
O266 Cd267 2.223 . S
O266 C274 1.315 . S
Cd267 O266 2.223 . S
Cd267 O270 2.297 . S
Cd267 O271 2.439 . S
Cd267 O277 2.240 . S
Cd268 O269 2.240 . S
Cd268 O276 2.223 . S
Cd268 O278 2.297 . S
Cd268 O279 2.439 . S
O269 Cd268 2.240 . S
O269 C274 1.279 . S
O270 Cd267 2.297 . S
O270 C272 1.247 . S
O271 Cd267 2.439 . S
O271 C272 1.208 . S
C272 O270 1.247 . S
C272 O271 1.208 . S
C273 O278 1.247 . S
C273 O279 1.208 . S
C274 O266 1.315 . S
C274 O269 1.279 . S
C275 O276 1.315 . S
C275 O277 1.279 . S
O276 Cd268 2.223 . S
O276 C275 1.315 . S
O277 Cd267 2.240 . S
O277 C275 1.279 . S
O278 Cd268 2.297 . S
O278 C273 1.247 . S
O279 Cd268 2.439 . S
O279 C273 1.208 . S
O280 Cd281 2.223 . S
O280 C288 1.315 . S
Cd281 O280 2.223 . S
Cd281 O284 2.297 . S
Cd281 O285 2.439 . S
Cd281 O291 2.240 . S
Cd282 O283 2.240 . S
Cd282 O290 2.223 . S
Cd282 O292 2.297 . S
Cd282 O293 2.439 . S
O283 Cd282 2.240 . S
O283 C288 1.279 . S
O284 Cd281 2.297 . S
O284 C286 1.247 . S
O285 Cd281 2.439 . S
O285 C286 1.208 . S
C286 O284 1.247 . S
C286 O285 1.208 . S
C287 O292 1.247 . S
C287 O293 1.208 . S
C288 O280 1.315 . S
C288 O283 1.279 . S
C289 O290 1.315 . S
C289 O291 1.279 . S
O290 Cd282 2.223 . S
O290 C289 1.315 . S
O291 Cd281 2.240 . S
O291 C289 1.279 . S
O292 Cd282 2.297 . S
O292 C287 1.247 . S
O293 Cd282 2.439 . S
O293 C287 1.208 . S
O294 Cd295 2.223 . S
O294 C302 1.315 . S
Cd295 O294 2.223 . S
Cd295 O298 2.297 . S
Cd295 O299 2.439 . S
Cd295 O305 2.240 . S
Cd296 O297 2.240 . S
Cd296 O304 2.223 . S
Cd296 O306 2.297 . S
Cd296 O307 2.439 . S
O297 Cd296 2.240 . S
O297 C302 1.279 . S
O298 Cd295 2.297 . S
O298 C300 1.247 . S
O299 Cd295 2.439 . S
O299 C300 1.208 . S
C300 O298 1.247 . S
C300 O299 1.208 . S
C301 O306 1.247 . S
C301 O307 1.208 . S
C302 O294 1.315 . S
C302 O297 1.279 . S
C303 O304 1.315 . S
C303 O305 1.279 . S
O304 Cd296 2.223 . S
O304 C303 1.315 . S
O305 Cd295 2.240 . S
O305 C303 1.279 . S
O306 Cd296 2.297 . S
O306 C301 1.247 . S
O307 Cd296 2.439 . S
O307 C301 1.208 . S
O308 Cd309 2.223 . S
O308 C316 1.315 . S
Cd309 O308 2.223 . S
Cd309 O312 2.297 . S
Cd309 O313 2.439 . S
Cd309 O319 2.240 . S
Cd310 O311 2.240 . S
Cd310 O318 2.223 . S
Cd310 O320 2.297 . S
Cd310 O321 2.439 . S
O311 Cd310 2.240 . S
O311 C316 1.279 . S
O312 Cd309 2.297 . S
O312 C314 1.247 . S
O313 Cd309 2.439 . S
O313 C314 1.208 . S
C314 O312 1.247 . S
C314 O313 1.208 . S
C315 O320 1.247 . S
C315 O321 1.208 . S
C316 O308 1.315 . S
C316 O311 1.279 . S
C317 O318 1.315 . S
C317 O319 1.279 . S
O318 Cd310 2.223 . S
O318 C317 1.315 . S
O319 Cd309 2.240 . S
O319 C317 1.279 . S
O320 Cd310 2.297 . S
O320 C315 1.247 . S
O321 Cd310 2.439 . S
O321 C315 1.208 . S
O322 Cd323 2.223 . S
O322 C330 1.315 . S
Cd323 O322 2.223 . S
Cd323 O326 2.297 . S
Cd323 O327 2.439 . S
Cd323 O333 2.240 . S
Cd324 O325 2.240 . S
Cd324 O332 2.223 . S
Cd324 O334 2.297 1_655 S
Cd324 O335 2.439 . S
O325 Cd324 2.240 . S
O325 C330 1.279 . S
O326 Cd323 2.297 . S
O326 C328 1.247 . S
O327 Cd323 2.439 . S
O327 C328 1.208 . S
C328 O326 1.247 . S
C328 O327 1.208 . S
C329 O334 1.247 1_655 S
C329 O335 1.208 . S
C330 O322 1.315 . S
C330 O325 1.279 . S
C331 O332 1.315 . S
C331 O333 1.279 . S
O332 Cd324 2.223 . S
O332 C331 1.315 . S
O333 Cd323 2.240 . S
O333 C331 1.279 . S
O334 Cd324 2.297 1_455 S
O334 C329 1.247 1_455 S
O335 Cd324 2.439 . S
O335 C329 1.208 . S
O336 Cd337 2.223 . S
O336 C344 1.315 . S
Cd337 O336 2.223 . S
Cd337 O340 2.297 . S
Cd337 O341 2.439 . S
Cd337 O347 2.240 . S
Cd338 O339 2.240 . S
Cd338 O346 2.223 . S
Cd338 O348 2.297 . S
Cd338 O349 2.439 . S
O339 Cd338 2.240 . S
O339 C344 1.279 . S
O340 Cd337 2.297 . S
O340 C342 1.247 . S
O341 Cd337 2.439 . S
O341 C342 1.208 . S
C342 O340 1.247 . S
C342 O341 1.208 . S
C343 O348 1.247 . S
C343 O349 1.208 . S
C344 O336 1.315 . S
C344 O339 1.279 . S
C345 O346 1.315 . S
C345 O347 1.279 . S
O346 Cd338 2.223 . S
O346 C345 1.315 . S
O347 Cd337 2.240 . S
O347 C345 1.279 . S
O348 Cd338 2.297 . S
O348 C343 1.247 . S
O349 Cd338 2.439 . S
O349 C343 1.208 . S
O350 Cd351 2.223 . S
O350 C358 1.315 . S
Cd351 O350 2.223 . S
Cd351 O354 2.297 . S
Cd351 O355 2.439 . S
Cd351 O361 2.240 . S
Cd352 O353 2.240 . S
Cd352 O360 2.223 . S
Cd352 O362 2.297 . S
Cd352 O363 2.439 . S
O353 Cd352 2.240 . S
O353 C358 1.279 . S
O354 Cd351 2.297 . S
O354 C356 1.247 . S
O355 Cd351 2.439 . S
O355 C356 1.208 . S
C356 O354 1.247 . S
C356 O355 1.208 . S
C357 O362 1.247 . S
C357 O363 1.208 . S
C358 O350 1.315 . S
C358 O353 1.279 . S
C359 O360 1.315 . S
C359 O361 1.279 . S
O360 Cd352 2.223 . S
O360 C359 1.315 . S
O361 Cd351 2.240 . S
O361 C359 1.279 . S
O362 Cd352 2.297 . S
O362 C357 1.247 . S
O363 Cd352 2.439 . S
O363 C357 1.208 . S
O364 Cd365 2.223 . S
O364 C372 1.315 . S
Cd365 O364 2.223 . S
Cd365 O368 2.297 . S
Cd365 O369 2.439 . S
Cd365 O375 2.240 . S
Cd366 O367 2.240 . S
Cd366 O374 2.223 . S
Cd366 O376 2.297 . S
Cd366 O377 2.439 . S
O367 Cd366 2.240 . S
O367 C372 1.279 . S
O368 Cd365 2.297 . S
O368 C370 1.247 . S
O369 Cd365 2.439 . S
O369 C370 1.208 . S
C370 O368 1.247 . S
C370 O369 1.208 . S
C371 O376 1.247 . S
C371 O377 1.208 . S
C372 O364 1.315 . S
C372 O367 1.279 . S
C373 O374 1.315 . S
C373 O375 1.279 . S
O374 Cd366 2.223 . S
O374 C373 1.315 . S
O375 Cd365 2.240 . S
O375 C373 1.279 . S
O376 Cd366 2.297 . S
O376 C371 1.247 . S
O377 Cd366 2.439 . S
O377 C371 1.208 . S
O378 Cd379 2.223 . S
O378 C386 1.315 . S
Cd379 O378 2.223 . S
Cd379 O382 2.297 . S
Cd379 O383 2.439 . S
Cd379 O389 2.240 . S
Cd380 O381 2.240 . S
Cd380 O388 2.223 . S
Cd380 O390 2.297 . S
Cd380 O391 2.439 . S
O381 Cd380 2.240 . S
O381 C386 1.279 . S
O382 Cd379 2.297 . S
O382 C384 1.247 . S
O383 Cd379 2.439 . S
O383 C384 1.208 . S
C384 O382 1.247 . S
C384 O383 1.208 . S
C385 O390 1.247 . S
C385 O391 1.208 . S
C386 O378 1.315 . S
C386 O381 1.279 . S
C387 O388 1.315 . S
C387 O389 1.279 . S
O388 Cd380 2.223 . S
O388 C387 1.315 . S
O389 Cd379 2.240 . S
O389 C387 1.279 . S
O390 Cd380 2.297 . S
O390 C385 1.247 . S
O391 Cd380 2.439 . S
O391 C385 1.208 . S
O392 Cd393 2.223 . S
O392 C400 1.315 . S
Cd393 O392 2.223 . S
Cd393 O396 2.297 . S
Cd393 O397 2.439 . S
Cd393 O403 2.240 . S
Cd394 O395 2.240 . S
Cd394 O402 2.223 . S
Cd394 O404 2.297 1_565 S
Cd394 O405 2.439 . S
O395 Cd394 2.240 . S
O395 C400 1.279 . S
O396 Cd393 2.297 . S
O396 C398 1.247 . S
O397 Cd393 2.439 . S
O397 C398 1.208 . S
C398 O396 1.247 . S
C398 O397 1.208 . S
C399 O404 1.247 1_565 S
C399 O405 1.208 . S
C400 O392 1.315 . S
C400 O395 1.279 . S
C401 O402 1.315 . S
C401 O403 1.279 . S
O402 Cd394 2.223 . S
O402 C401 1.315 . S
O403 Cd393 2.240 . S
O403 C401 1.279 . S
O404 Cd394 2.297 1_545 S
O404 C399 1.247 1_545 S
O405 Cd394 2.439 . S
O405 C399 1.208 . S
O406 Cd407 2.223 . S
O406 C414 1.315 . S
Cd407 O406 2.223 . S
Cd407 O410 2.297 . S
Cd407 O411 2.439 . S
Cd407 O417 2.240 . S
Cd408 O409 2.240 . S
Cd408 O416 2.223 . S
Cd408 O418 2.297 . S
Cd408 O419 2.439 . S
O409 Cd408 2.240 . S
O409 C414 1.279 . S
O410 Cd407 2.297 . S
O410 C412 1.247 . S
O411 Cd407 2.439 . S
O411 C412 1.208 . S
C412 O410 1.247 . S
C412 O411 1.208 . S
C413 O418 1.247 . S
C413 O419 1.208 . S
C414 O406 1.315 . S
C414 O409 1.279 . S
C415 O416 1.315 . S
C415 O417 1.279 . S
O416 Cd408 2.223 . S
O416 C415 1.315 . S
O417 Cd407 2.240 . S
O417 C415 1.279 . S
O418 Cd408 2.297 . S
O418 C413 1.247 . S
O419 Cd408 2.439 . S
O419 C413 1.208 . S
O420 Cd421 2.223 . S
O420 C428 1.315 . S
Cd421 O420 2.223 . S
Cd421 O424 2.297 . S
Cd421 O425 2.439 . S
Cd421 O431 2.240 . S
Cd422 O423 2.240 . S
Cd422 O430 2.223 . S
Cd422 O432 2.297 . S
Cd422 O433 2.439 . S
O423 Cd422 2.240 . S
O423 C428 1.279 . S
O424 Cd421 2.297 . S
O424 C426 1.247 . S
O425 Cd421 2.439 . S
O425 C426 1.208 . S
C426 O424 1.247 . S
C426 O425 1.208 . S
C427 O432 1.247 . S
C427 O433 1.208 . S
C428 O420 1.315 . S
C428 O423 1.279 . S
C429 O430 1.315 . S
C429 O431 1.279 . S
O430 Cd422 2.223 . S
O430 C429 1.315 . S
O431 Cd421 2.240 . S
O431 C429 1.279 . S
O432 Cd422 2.297 . S
O432 C427 1.247 . S
O433 Cd422 2.439 . S
O433 C427 1.208 . S
O434 Cd435 2.223 . S
O434 C442 1.315 . S
Cd435 O434 2.223 . S
Cd435 O438 2.297 . S
Cd435 O439 2.439 . S
Cd435 O445 2.240 . S
Cd436 O437 2.240 . S
Cd436 O444 2.223 . S
Cd436 O446 2.297 1_565 S
Cd436 O447 2.439 . S
O437 Cd436 2.240 . S
O437 C442 1.279 . S
O438 Cd435 2.297 . S
O438 C440 1.247 . S
O439 Cd435 2.439 . S
O439 C440 1.208 . S
C440 O438 1.247 . S
C440 O439 1.208 . S
C441 O446 1.247 1_565 S
C441 O447 1.208 . S
C442 O434 1.315 . S
C442 O437 1.279 . S
C443 O444 1.315 . S
C443 O445 1.279 . S
O444 Cd436 2.223 . S
O444 C443 1.315 . S
O445 Cd435 2.240 . S
O445 C443 1.279 . S
O446 Cd436 2.297 1_545 S
O446 C441 1.247 1_545 S
O447 Cd436 2.439 . S
O447 C441 1.208 . S
O448 Cd449 2.223 . S
O448 C456 1.315 . S
Cd449 O448 2.223 . S
Cd449 O452 2.297 . S
Cd449 O453 2.439 . S
Cd449 O459 2.240 . S
Cd450 O451 2.240 . S
Cd450 O458 2.223 . S
Cd450 O460 2.297 . S
Cd450 O461 2.439 . S
O451 Cd450 2.240 . S
O451 C456 1.279 . S
O452 Cd449 2.297 . S
O452 C454 1.247 . S
O453 Cd449 2.439 . S
O453 C454 1.208 . S
C454 O452 1.247 . S
C454 O453 1.208 . S
C455 O460 1.247 . S
C455 O461 1.208 . S
C456 O448 1.315 . S
C456 O451 1.279 . S
C457 O458 1.315 . S
C457 O459 1.279 . S
O458 Cd450 2.223 . S
O458 C457 1.315 . S
O459 Cd449 2.240 . S
O459 C457 1.279 . S
O460 Cd450 2.297 . S
O460 C455 1.247 . S
O461 Cd450 2.439 . S
O461 C455 1.208 . S
O462 Cd463 2.223 . S
O462 C470 1.315 . S
Cd463 O462 2.223 . S
Cd463 O466 2.297 . S
Cd463 O467 2.439 . S
Cd463 O473 2.240 . S
Cd464 O465 2.240 . S
Cd464 O472 2.223 . S
Cd464 O474 2.297 . S
Cd464 O475 2.439 . S
O465 Cd464 2.240 . S
O465 C470 1.279 . S
O466 Cd463 2.297 . S
O466 C468 1.247 . S
O467 Cd463 2.439 . S
O467 C468 1.208 . S
C468 O466 1.247 . S
C468 O467 1.208 . S
C469 O474 1.247 . S
C469 O475 1.208 . S
C470 O462 1.315 . S
C470 O465 1.279 . S
C471 O472 1.315 . S
C471 O473 1.279 . S
O472 Cd464 2.223 . S
O472 C471 1.315 . S
O473 Cd463 2.240 . S
O473 C471 1.279 . S
O474 Cd464 2.297 . S
O474 C469 1.247 . S
O475 Cd464 2.439 . S
O475 C469 1.208 . S
O476 Cd477 2.223 . S
O476 C484 1.315 . S
Cd477 O476 2.223 . S
Cd477 O480 2.297 . S
Cd477 O481 2.439 . S
Cd477 O487 2.240 . S
Cd478 O479 2.240 . S
Cd478 O486 2.223 . S
Cd478 O488 2.297 . S
Cd478 O489 2.439 . S
O479 Cd478 2.240 . S
O479 C484 1.279 . S
O480 Cd477 2.297 . S
O480 C482 1.247 . S
O481 Cd477 2.439 . S
O481 C482 1.208 . S
C482 O480 1.247 . S
C482 O481 1.208 . S
C483 O488 1.247 . S
C483 O489 1.208 . S
C484 O476 1.315 . S
C484 O479 1.279 . S
C485 O486 1.315 . S
C485 O487 1.279 . S
O486 Cd478 2.223 . S
O486 C485 1.315 . S
O487 Cd477 2.240 . S
O487 C485 1.279 . S
O488 Cd478 2.297 . S
O488 C483 1.247 . S
O489 Cd478 2.439 . S
O489 C483 1.208 . S
O490 Cd491 2.223 . S
O490 C498 1.315 . S
Cd491 O490 2.223 . S
Cd491 O494 2.297 . S
Cd491 O495 2.439 . S
Cd491 O501 2.240 . S
Cd492 O493 2.240 . S
Cd492 O500 2.223 . S
Cd492 O502 2.297 . S
Cd492 O503 2.439 . S
O493 Cd492 2.240 . S
O493 C498 1.279 . S
O494 Cd491 2.297 . S
O494 C496 1.247 . S
O495 Cd491 2.439 . S
O495 C496 1.208 . S
C496 O494 1.247 . S
C496 O495 1.208 . S
C497 O502 1.247 . S
C497 O503 1.208 . S
C498 O490 1.315 . S
C498 O493 1.279 . S
C499 O500 1.315 . S
C499 O501 1.279 . S
O500 Cd492 2.223 . S
O500 C499 1.315 . S
O501 Cd491 2.240 . S
O501 C499 1.279 . S
O502 Cd492 2.297 . S
O502 C497 1.247 . S
O503 Cd492 2.439 . S
O503 C497 1.208 . S
C504 C505 1.391 . S
C504 C506 1.394 . S
C504 H520 0.931 . S
C505 C504 1.391 . S
C505 C509 1.376 . S
C506 C504 1.394 . S
C506 C507 1.369 . S
C506 C510 1.531 . S
C507 C506 1.369 . S
C507 C508 1.410 . S
C507 C515 1.503 . S
C508 C507 1.410 . S
C508 C509 1.392 . S
C508 C511 1.511 . S
C509 C505 1.376 . S
C509 C508 1.392 . S
C509 H521 0.929 . S
C510 C506 1.531 . S
C510 H522 0.960 . S
C510 H523 0.962 . S
C510 H524 0.960 . S
C511 C508 1.511 . S
C511 H525 0.961 . S
C511 H526 0.961 . S
C511 H527 0.961 . S
C512 C513 1.370 . S
C512 C514 1.363 . S
C512 H528 0.931 . S
C513 C512 1.370 . S
C513 C517 1.408 . S
C514 C512 1.363 . S
C514 C515 1.370 . S
C514 C518 1.524 . S
C515 C507 1.503 . S
C515 C514 1.370 . S
C515 C516 1.403 . S
C516 C515 1.403 . S
C516 C517 1.404 . S
C516 C519 1.539 . S
C517 C513 1.408 . S
C517 C516 1.404 . S
C517 H529 0.930 . S
C518 C514 1.524 . S
C518 H530 0.956 . S
C518 H531 0.961 . S
C518 H532 0.961 . S
C519 C516 1.539 . S
C519 H533 0.958 . S
C519 H534 0.961 . S
C519 H535 0.960 . S
H520 C504 0.931 . S
H521 C509 0.929 . S
H522 C510 0.960 . S
H523 C510 0.962 . S
H524 C510 0.960 . S
H525 C511 0.961 . S
H526 C511 0.961 . S
H527 C511 0.961 . S
H528 C512 0.931 . S
H529 C517 0.930 . S
H530 C518 0.956 . S
H531 C518 0.961 . S
H532 C518 0.961 . S
H533 C519 0.958 . S
H534 C519 0.961 . S
H535 C519 0.960 . S
C536 C537 1.391 . S
C536 C538 1.394 . S
C536 H552 0.931 . S
C537 C536 1.391 . S
C537 C541 1.376 . S
C538 C536 1.394 . S
C538 C539 1.369 . S
C538 C542 1.531 . S
C539 C538 1.369 . S
C539 C540 1.410 . S
C539 C547 1.503 . S
C540 C539 1.410 . S
C540 C541 1.392 . S
C540 C543 1.511 . S
C541 C537 1.376 . S
C541 C540 1.392 . S
C541 H553 0.929 . S
C542 C538 1.531 . S
C542 H554 0.960 . S
C542 H555 0.962 . S
C542 H556 0.960 . S
C543 C540 1.511 . S
C543 H557 0.961 . S
C543 H558 0.961 . S
C543 H559 0.961 . S
C544 C545 1.370 . S
C544 C546 1.363 . S
C544 H560 0.931 . S
C545 C544 1.370 . S
C545 C549 1.408 . S
C546 C544 1.363 . S
C546 C547 1.370 . S
C546 C550 1.524 . S
C547 C539 1.503 . S
C547 C546 1.370 . S
C547 C548 1.403 . S
C548 C547 1.403 . S
C548 C549 1.404 . S
C548 C551 1.539 . S
C549 C545 1.408 . S
C549 C548 1.404 . S
C549 H561 0.930 . S
C550 C546 1.524 . S
C550 H562 0.956 . S
C550 H563 0.961 . S
C550 H564 0.961 . S
C551 C548 1.539 . S
C551 H565 0.958 . S
C551 H566 0.961 . S
C551 H567 0.960 . S
H552 C536 0.931 . S
H553 C541 0.929 . S
H554 C542 0.960 . S
H555 C542 0.962 . S
H556 C542 0.960 . S
H557 C543 0.961 . S
H558 C543 0.961 . S
H559 C543 0.961 . S
H560 C544 0.931 . S
H561 C549 0.930 . S
H562 C550 0.956 . S
H563 C550 0.961 . S
H564 C550 0.961 . S
H565 C551 0.958 . S
H566 C551 0.961 . S
H567 C551 0.960 . S
C568 C569 1.391 . S
C568 C570 1.394 . S
C568 H584 0.931 . S
C569 C568 1.391 . S
C569 C573 1.376 . S
C570 C568 1.394 . S
C570 C571 1.369 . S
C570 C574 1.531 . S
C571 C570 1.369 . S
C571 C572 1.410 . S
C571 C579 1.503 . S
C572 C571 1.410 . S
C572 C573 1.392 . S
C572 C575 1.511 . S
C573 C569 1.376 . S
C573 C572 1.392 . S
C573 H585 0.929 . S
C574 C570 1.531 . S
C574 H586 0.960 . S
C574 H587 0.962 . S
C574 H588 0.960 . S
C575 C572 1.511 . S
C575 H589 0.961 . S
C575 H590 0.961 . S
C575 H591 0.961 . S
C576 C577 1.370 . S
C576 C578 1.363 . S
C576 H592 0.931 . S
C577 C576 1.370 . S
C577 C581 1.408 . S
C578 C576 1.363 . S
C578 C579 1.370 . S
C578 C582 1.524 . S
C579 C571 1.503 . S
C579 C578 1.370 . S
C579 C580 1.403 . S
C580 C579 1.403 . S
C580 C581 1.404 . S
C580 C583 1.539 . S
C581 C577 1.408 . S
C581 C580 1.404 . S
C581 H593 0.930 . S
C582 C578 1.524 . S
C582 H594 0.956 . S
C582 H595 0.961 . S
C582 H596 0.961 . S
C583 C580 1.539 . S
C583 H597 0.958 . S
C583 H598 0.961 . S
C583 H599 0.960 . S
H584 C568 0.931 . S
H585 C573 0.929 . S
H586 C574 0.960 . S
H587 C574 0.962 . S
H588 C574 0.960 . S
H589 C575 0.961 . S
H590 C575 0.961 . S
H591 C575 0.961 . S
H592 C576 0.931 . S
H593 C581 0.930 . S
H594 C582 0.956 . S
H595 C582 0.961 . S
H596 C582 0.961 . S
H597 C583 0.958 . S
H598 C583 0.961 . S
H599 C583 0.960 . S
C600 C601 1.391 . S
C600 C602 1.394 . S
C600 H616 0.931 . S
C601 C600 1.391 . S
C601 C605 1.376 . S
C602 C600 1.394 . S
C602 C603 1.369 . S
C602 C606 1.531 . S
C603 C602 1.369 . S
C603 C604 1.410 . S
C603 C611 1.503 . S
C604 C603 1.410 . S
C604 C605 1.392 . S
C604 C607 1.511 . S
C605 C601 1.376 . S
C605 C604 1.392 . S
C605 H617 0.929 . S
C606 C602 1.531 . S
C606 H618 0.960 . S
C606 H619 0.962 . S
C606 H620 0.960 . S
C607 C604 1.511 . S
C607 H621 0.961 . S
C607 H622 0.961 . S
C607 H623 0.961 . S
C608 C609 1.370 . S
C608 C610 1.363 . S
C608 H624 0.931 . S
C609 C608 1.370 . S
C609 C613 1.408 . S
C610 C608 1.363 . S
C610 C611 1.370 . S
C610 C614 1.524 . S
C611 C603 1.503 . S
C611 C610 1.370 . S
C611 C612 1.403 . S
C612 C611 1.403 . S
C612 C613 1.404 . S
C612 C615 1.539 . S
C613 C609 1.408 . S
C613 C612 1.404 . S
C613 H625 0.930 . S
C614 C610 1.524 . S
C614 H626 0.956 . S
C614 H627 0.961 . S
C614 H628 0.961 . S
C615 C612 1.539 . S
C615 H629 0.958 . S
C615 H630 0.961 . S
C615 H631 0.960 . S
H616 C600 0.931 . S
H617 C605 0.929 . S
H618 C606 0.960 . S
H619 C606 0.962 . S
H620 C606 0.960 . S
H621 C607 0.961 . S
H622 C607 0.961 . S
H623 C607 0.961 . S
H624 C608 0.931 . S
H625 C613 0.930 . S
H626 C614 0.956 . S
H627 C614 0.961 . S
H628 C614 0.961 . S
H629 C615 0.958 . S
H630 C615 0.961 . S
H631 C615 0.960 . S
C632 C633 1.391 . S
C632 C634 1.394 . S
C632 H648 0.931 . S
C633 C632 1.391 . S
C633 C637 1.376 . S
C634 C632 1.394 . S
C634 C635 1.369 . S
C634 C638 1.531 . S
C635 C634 1.369 . S
C635 C636 1.410 . S
C635 C643 1.503 . S
C636 C635 1.410 . S
C636 C637 1.392 . S
C636 C639 1.511 . S
C637 C633 1.376 . S
C637 C636 1.392 . S
C637 H649 0.929 . S
C638 C634 1.531 . S
C638 H650 0.960 . S
C638 H651 0.962 . S
C638 H652 0.960 . S
C639 C636 1.511 . S
C639 H653 0.961 . S
C639 H654 0.961 . S
C639 H655 0.961 . S
C640 C641 1.370 . S
C640 C642 1.363 . S
C640 H656 0.931 . S
C641 C640 1.370 . S
C641 C645 1.408 . S
C642 C640 1.363 . S
C642 C643 1.370 . S
C642 C646 1.524 . S
C643 C635 1.503 . S
C643 C642 1.370 . S
C643 C644 1.403 . S
C644 C643 1.403 . S
C644 C645 1.404 . S
C644 C647 1.539 . S
C645 C641 1.408 . S
C645 C644 1.404 . S
C645 H657 0.930 . S
C646 C642 1.524 . S
C646 H658 0.956 . S
C646 H659 0.961 . S
C646 H660 0.961 . S
C647 C644 1.539 . S
C647 H661 0.958 . S
C647 H662 0.961 . S
C647 H663 0.960 . S
H648 C632 0.931 . S
H649 C637 0.929 . S
H650 C638 0.960 . S
H651 C638 0.962 . S
H652 C638 0.960 . S
H653 C639 0.961 . S
H654 C639 0.961 . S
H655 C639 0.961 . S
H656 C640 0.931 . S
H657 C645 0.930 . S
H658 C646 0.956 . S
H659 C646 0.961 . S
H660 C646 0.961 . S
H661 C647 0.958 . S
H662 C647 0.961 . S
H663 C647 0.960 . S
C664 C665 1.391 . S
C664 C666 1.394 . S
C664 H680 0.931 . S
C665 C664 1.391 . S
C665 C669 1.376 . S
C666 C664 1.394 . S
C666 C667 1.369 . S
C666 C670 1.531 . S
C667 C666 1.369 . S
C667 C668 1.410 . S
C667 C675 1.503 . S
C668 C667 1.410 . S
C668 C669 1.392 . S
C668 C671 1.511 . S
C669 C665 1.376 . S
C669 C668 1.392 . S
C669 H681 0.929 . S
C670 C666 1.531 . S
C670 H682 0.960 . S
C670 H683 0.962 . S
C670 H684 0.960 . S
C671 C668 1.511 . S
C671 H685 0.961 . S
C671 H686 0.961 . S
C671 H687 0.961 . S
C672 C673 1.370 . S
C672 C674 1.363 . S
C672 H688 0.931 . S
C673 C672 1.370 . S
C673 C677 1.408 . S
C674 C672 1.363 . S
C674 C675 1.370 . S
C674 C678 1.524 . S
C675 C667 1.503 . S
C675 C674 1.370 . S
C675 C676 1.403 . S
C676 C675 1.403 . S
C676 C677 1.404 . S
C676 C679 1.539 . S
C677 C673 1.408 . S
C677 C676 1.404 . S
C677 H689 0.930 . S
C678 C674 1.524 . S
C678 H690 0.956 . S
C678 H691 0.961 . S
C678 H692 0.961 . S
C679 C676 1.539 . S
C679 H693 0.958 . S
C679 H694 0.961 . S
C679 H695 0.960 . S
H680 C664 0.931 . S
H681 C669 0.929 . S
H682 C670 0.960 . S
H683 C670 0.962 . S
H684 C670 0.960 . S
H685 C671 0.961 . S
H686 C671 0.961 . S
H687 C671 0.961 . S
H688 C672 0.931 . S
H689 C677 0.930 . S
H690 C678 0.956 . S
H691 C678 0.961 . S
H692 C678 0.961 . S
H693 C679 0.958 . S
H694 C679 0.961 . S
H695 C679 0.960 . S
C696 C697 1.391 . S
C696 C698 1.394 . S
C696 H712 0.931 . S
C697 C696 1.391 . S
C697 C701 1.376 . S
C698 C696 1.394 . S
C698 C699 1.369 . S
C698 C702 1.531 . S
C699 C698 1.369 . S
C699 C700 1.410 . S
C699 C707 1.503 . S
C700 C699 1.410 . S
C700 C701 1.392 . S
C700 C703 1.511 . S
C701 C697 1.376 . S
C701 C700 1.392 . S
C701 H713 0.929 . S
C702 C698 1.531 . S
C702 H714 0.960 . S
C702 H715 0.962 . S
C702 H716 0.960 . S
C703 C700 1.511 . S
C703 H717 0.961 . S
C703 H718 0.961 . S
C703 H719 0.961 . S
C704 C705 1.370 . S
C704 C706 1.363 . S
C704 H720 0.931 . S
C705 C704 1.370 . S
C705 C709 1.408 . S
C706 C704 1.363 . S
C706 C707 1.370 . S
C706 C710 1.524 . S
C707 C699 1.503 . S
C707 C706 1.370 . S
C707 C708 1.403 . S
C708 C707 1.403 . S
C708 C709 1.404 . S
C708 C711 1.539 . S
C709 C705 1.408 . S
C709 C708 1.404 . S
C709 H721 0.930 . S
C710 C706 1.524 . S
C710 H722 0.956 . S
C710 H723 0.961 . S
C710 H724 0.961 . S
C711 C708 1.539 . S
C711 H725 0.958 . S
C711 H726 0.961 . S
C711 H727 0.960 . S
H712 C696 0.931 . S
H713 C701 0.929 . S
H714 C702 0.960 . S
H715 C702 0.962 . S
H716 C702 0.960 . S
H717 C703 0.961 . S
H718 C703 0.961 . S
H719 C703 0.961 . S
H720 C704 0.931 . S
H721 C709 0.930 . S
H722 C710 0.956 . S
H723 C710 0.961 . S
H724 C710 0.961 . S
H725 C711 0.958 . S
H726 C711 0.961 . S
H727 C711 0.960 . S
C728 C729 1.391 . S
C728 C730 1.394 . S
C728 H744 0.931 . S
C729 C728 1.391 . S
C729 C733 1.376 . S
C730 C728 1.394 . S
C730 C731 1.369 . S
C730 C734 1.531 . S
C731 C730 1.369 . S
C731 C732 1.410 . S
C731 C739 1.503 . S
C732 C731 1.410 . S
C732 C733 1.392 . S
C732 C735 1.511 . S
C733 C729 1.376 . S
C733 C732 1.392 . S
C733 H745 0.929 . S
C734 C730 1.531 . S
C734 H746 0.960 . S
C734 H747 0.962 . S
C734 H748 0.960 . S
C735 C732 1.511 . S
C735 H749 0.961 . S
C735 H750 0.961 . S
C735 H751 0.961 . S
C736 C737 1.370 . S
C736 C738 1.363 . S
C736 H752 0.931 . S
C737 C736 1.370 . S
C737 C741 1.408 . S
C738 C736 1.363 . S
C738 C739 1.370 . S
C738 C742 1.524 . S
C739 C731 1.503 . S
C739 C738 1.370 . S
C739 C740 1.403 . S
C740 C739 1.403 . S
C740 C741 1.404 . S
C740 C743 1.539 . S
C741 C737 1.408 . S
C741 C740 1.404 . S
C741 H753 0.930 . S
C742 C738 1.524 . S
C742 H754 0.956 . S
C742 H755 0.961 . S
C742 H756 0.961 . S
C743 C740 1.539 . S
C743 H757 0.958 . S
C743 H758 0.961 . S
C743 H759 0.960 . S
H744 C728 0.931 . S
H745 C733 0.929 . S
H746 C734 0.960 . S
H747 C734 0.962 . S
H748 C734 0.960 . S
H749 C735 0.961 . S
H750 C735 0.961 . S
H751 C735 0.961 . S
H752 C736 0.931 . S
H753 C741 0.930 . S
H754 C742 0.956 . S
H755 C742 0.961 . S
H756 C742 0.961 . S
H757 C743 0.958 . S
H758 C743 0.961 . S
H759 C743 0.960 . S
C760 C761 1.391 . S
C760 C762 1.394 . S
C760 H776 0.931 . S
C761 C760 1.391 . S
C761 C765 1.376 . S
C762 C760 1.394 . S
C762 C763 1.369 . S
C762 C766 1.531 . S
C763 C762 1.369 . S
C763 C764 1.410 . S
C763 C771 1.503 . S
C764 C763 1.410 . S
C764 C765 1.392 . S
C764 C767 1.511 . S
C765 C761 1.376 . S
C765 C764 1.392 . S
C765 H777 0.929 . S
C766 C762 1.531 . S
C766 H778 0.960 . S
C766 H779 0.962 . S
C766 H780 0.960 . S
C767 C764 1.511 . S
C767 H781 0.961 . S
C767 H782 0.961 . S
C767 H783 0.961 . S
C768 C769 1.370 . S
C768 C770 1.363 . S
C768 H784 0.931 . S
C769 C768 1.370 . S
C769 C773 1.408 . S
C770 C768 1.363 . S
C770 C771 1.370 . S
C770 C774 1.524 . S
C771 C763 1.503 . S
C771 C770 1.370 . S
C771 C772 1.403 . S
C772 C771 1.403 . S
C772 C773 1.404 . S
C772 C775 1.539 . S
C773 C769 1.408 . S
C773 C772 1.404 . S
C773 H785 0.930 . S
C774 C770 1.524 . S
C774 H786 0.956 . S
C774 H787 0.961 . S
C774 H788 0.961 . S
C775 C772 1.539 . S
C775 H789 0.958 . S
C775 H790 0.961 . S
C775 H791 0.960 . S
H776 C760 0.931 . S
H777 C765 0.929 . S
H778 C766 0.960 . S
H779 C766 0.962 . S
H780 C766 0.960 . S
H781 C767 0.961 . S
H782 C767 0.961 . S
H783 C767 0.961 . S
H784 C768 0.931 . S
H785 C773 0.930 . S
H786 C774 0.956 . S
H787 C774 0.961 . S
H788 C774 0.961 . S
H789 C775 0.958 . S
H790 C775 0.961 . S
H791 C775 0.960 . S
C792 C793 1.391 . S
C792 C794 1.394 . S
C792 H808 0.931 . S
C793 C792 1.391 . S
C793 C797 1.376 . S
C794 C792 1.394 . S
C794 C795 1.369 . S
C794 C798 1.531 . S
C795 C794 1.369 . S
C795 C796 1.410 . S
C795 C803 1.503 . S
C796 C795 1.410 . S
C796 C797 1.392 . S
C796 C799 1.511 . S
C797 C793 1.376 . S
C797 C796 1.392 . S
C797 H809 0.929 . S
C798 C794 1.531 . S
C798 H810 0.960 . S
C798 H811 0.962 . S
C798 H812 0.960 . S
C799 C796 1.511 . S
C799 H813 0.961 . S
C799 H814 0.961 . S
C799 H815 0.961 . S
C800 C801 1.370 . S
C800 C802 1.363 . S
C800 H816 0.931 . S
C801 C800 1.370 . S
C801 C805 1.408 . S
C802 C800 1.363 . S
C802 C803 1.370 . S
C802 C806 1.524 . S
C803 C795 1.503 . S
C803 C802 1.370 . S
C803 C804 1.403 . S
C804 C803 1.403 . S
C804 C805 1.404 . S
C804 C807 1.539 . S
C805 C801 1.408 . S
C805 C804 1.404 . S
C805 H817 0.930 . S
C806 C802 1.524 . S
C806 H818 0.956 1_655 S
C806 H819 0.961 . S
C806 H820 0.971 . S
C807 C804 1.539 . S
C807 H821 0.958 . S
C807 H822 0.961 . S
C807 H823 0.960 . S
H808 C792 0.931 . S
H809 C797 0.929 . S
H810 C798 0.960 . S
H811 C798 0.962 . S
H812 C798 0.960 . S
H813 C799 0.961 . S
H814 C799 0.961 . S
H815 C799 0.961 . S
H816 C800 0.931 . S
H817 C805 0.930 . S
H818 C806 0.956 1_455 S
H819 C806 0.961 . S
H820 C806 0.971 . S
H821 C807 0.958 . S
H822 C807 0.961 . S
H823 C807 0.960 . S
C824 C825 1.391 . S
C824 C826 1.394 . S
C824 H840 0.931 . S
C825 C824 1.391 . S
C825 C829 1.376 . S
C826 C824 1.394 . S
C826 C827 1.369 . S
C826 C830 1.531 . S
C827 C826 1.369 . S
C827 C828 1.410 . S
C827 C835 1.503 . S
C828 C827 1.410 . S
C828 C829 1.392 . S
C828 C831 1.511 . S
C829 C825 1.376 . S
C829 C828 1.392 . S
C829 H841 0.929 . S
C830 C826 1.531 . S
C830 H842 0.960 . S
C830 H843 0.962 . S
C830 H844 0.960 . S
C831 C828 1.511 . S
C831 H845 0.961 . S
C831 H846 0.961 . S
C831 H847 0.961 . S
C832 C833 1.370 . S
C832 C834 1.363 . S
C832 H848 0.931 . S
C833 C832 1.370 . S
C833 C837 1.408 . S
C834 C832 1.363 . S
C834 C835 1.370 . S
C834 C838 1.524 . S
C835 C827 1.503 . S
C835 C834 1.370 . S
C835 C836 1.403 . S
C836 C835 1.403 . S
C836 C837 1.404 . S
C836 C839 1.539 . S
C837 C833 1.408 . S
C837 C836 1.404 . S
C837 H849 0.930 . S
C838 C834 1.524 . S
C838 H850 0.956 . S
C838 H851 0.961 . S
C838 H852 0.961 . S
C839 C836 1.539 . S
C839 H853 0.958 . S
C839 H854 0.961 . S
C839 H855 0.960 . S
H840 C824 0.931 . S
H841 C829 0.929 . S
H842 C830 0.960 . S
H843 C830 0.962 . S
H844 C830 0.960 . S
H845 C831 0.961 . S
H846 C831 0.961 . S
H847 C831 0.961 . S
H848 C832 0.931 . S
H849 C837 0.930 . S
H850 C838 0.956 . S
H851 C838 0.961 . S
H852 C838 0.961 . S
H853 C839 0.958 . S
H854 C839 0.961 . S
H855 C839 0.960 . S
C856 C857 1.391 . S
C856 C858 1.394 . S
C856 H872 0.931 . S
C857 C856 1.391 . S
C857 C861 1.376 . S
C858 C856 1.394 . S
C858 C859 1.369 . S
C858 C862 1.531 . S
C859 C858 1.369 . S
C859 C860 1.410 . S
C859 C867 1.503 . S
C860 C859 1.410 . S
C860 C861 1.392 . S
C860 C863 1.511 . S
C861 C857 1.376 . S
C861 C860 1.392 . S
C861 H873 0.929 . S
C862 C858 1.531 . S
C862 H874 0.960 . S
C862 H875 0.962 . S
C862 H876 0.960 . S
C863 C860 1.511 . S
C863 H877 0.961 . S
C863 H878 0.961 . S
C863 H879 0.961 . S
C864 C865 1.370 . S
C864 C866 1.363 . S
C864 H880 0.931 . S
C865 C864 1.370 . S
C865 C869 1.408 . S
C866 C864 1.363 . S
C866 C867 1.370 . S
C866 C870 1.524 . S
C867 C859 1.503 . S
C867 C866 1.370 . S
C867 C868 1.403 . S
C868 C867 1.403 . S
C868 C869 1.404 . S
C868 C871 1.539 . S
C869 C865 1.408 . S
C869 C868 1.404 . S
C869 H881 0.930 . S
C870 C866 1.524 . S
C870 H882 0.956 . S
C870 H883 0.961 . S
C870 H884 0.961 . S
C871 C868 1.539 . S
C871 H885 0.958 . S
C871 H886 0.961 . S
C871 H887 0.960 . S
H872 C856 0.931 . S
H873 C861 0.929 . S
H874 C862 0.960 . S
H875 C862 0.962 . S
H876 C862 0.960 . S
H877 C863 0.961 . S
H878 C863 0.961 . S
H879 C863 0.961 . S
H880 C864 0.931 . S
H881 C869 0.930 . S
H882 C870 0.956 . S
H883 C870 0.961 . S
H884 C870 0.961 . S
H885 C871 0.958 . S
H886 C871 0.961 . S
H887 C871 0.960 . S
C888 C889 1.391 . S
C888 C890 1.394 . S
C888 H904 0.931 . S
C889 C888 1.391 . S
C889 C893 1.376 . S
C890 C888 1.394 . S
C890 C891 1.369 . S
C890 C894 1.531 . S
C891 C890 1.369 . S
C891 C892 1.410 . S
C891 C899 1.503 . S
C892 C891 1.410 . S
C892 C893 1.392 . S
C892 C895 1.511 . S
C893 C889 1.376 . S
C893 C892 1.392 . S
C893 H905 0.929 . S
C894 C890 1.531 . S
C894 H906 0.960 . S
C894 H907 0.962 . S
C894 H908 0.960 . S
C895 C892 1.511 . S
C895 H909 0.961 . S
C895 H910 0.961 . S
C895 H911 0.961 . S
C896 C897 1.370 . S
C896 C898 1.363 . S
C896 H912 0.931 . S
C897 C896 1.370 . S
C897 C901 1.408 . S
C898 C896 1.363 . S
C898 C899 1.370 . S
C898 C902 1.524 . S
C899 C891 1.503 . S
C899 C898 1.370 . S
C899 C900 1.403 . S
C900 C899 1.403 . S
C900 C901 1.404 . S
C900 C903 1.539 . S
C901 C897 1.408 . S
C901 C900 1.404 . S
C901 H913 0.930 . S
C902 C898 1.524 . S
C902 H914 0.942 1_565 S
C902 H915 0.961 . S
C902 H916 0.961 1_565 S
C903 C900 1.539 . S
C903 H917 0.958 . S
C903 H918 0.961 . S
C903 H919 0.960 . S
H904 C888 0.931 . S
H905 C893 0.929 . S
H906 C894 0.960 . S
H907 C894 0.962 . S
H908 C894 0.960 . S
H909 C895 0.961 . S
H910 C895 0.961 . S
H911 C895 0.961 . S
H912 C896 0.931 . S
H913 C901 0.930 . S
H914 C902 0.942 1_545 S
H915 C902 0.961 . S
H916 C902 0.961 1_545 S
H917 C903 0.958 . S
H918 C903 0.961 . S
H919 C903 0.960 . S
C920 C921 1.391 . S
C920 C922 1.394 . S
C920 H936 0.931 . S
C921 C920 1.391 . S
C921 C925 1.376 . S
C922 C920 1.394 . S
C922 C923 1.369 . S
C922 C926 1.531 . S
C923 C922 1.369 . S
C923 C924 1.410 . S
C923 C931 1.503 . S
C924 C923 1.410 . S
C924 C925 1.392 . S
C924 C927 1.511 . S
C925 C921 1.376 . S
C925 C924 1.392 . S
C925 H937 0.929 . S
C926 C922 1.531 . S
C926 H938 0.960 . S
C926 H939 0.962 . S
C926 H940 0.960 . S
C927 C924 1.511 . S
C927 H941 0.961 . S
C927 H942 0.961 . S
C927 H943 0.961 . S
C928 C929 1.370 . S
C928 C930 1.363 . S
C928 H944 0.931 . S
C929 C928 1.370 . S
C929 C933 1.408 . S
C930 C928 1.363 . S
C930 C931 1.370 . S
C930 C934 1.524 . S
C931 C923 1.503 . S
C931 C930 1.370 . S
C931 C932 1.403 . S
C932 C931 1.403 . S
C932 C933 1.404 . S
C932 C935 1.539 . S
C933 C929 1.408 . S
C933 C932 1.404 . S
C933 H945 0.930 . S
C934 C930 1.524 . S
C934 H946 0.956 . S
C934 H947 0.961 . S
C934 H948 0.961 . S
C935 C932 1.539 . S
C935 H949 0.958 . S
C935 H950 0.961 . S
C935 H951 0.960 . S
H936 C920 0.931 . S
H937 C925 0.929 . S
H938 C926 0.960 . S
H939 C926 0.962 . S
H940 C926 0.960 . S
H941 C927 0.961 . S
H942 C927 0.961 . S
H943 C927 0.961 . S
H944 C928 0.931 . S
H945 C933 0.930 . S
H946 C934 0.956 . S
H947 C934 0.961 . S
H948 C934 0.961 . S
H949 C935 0.958 . S
H950 C935 0.961 . S
H951 C935 0.960 . S
C952 C953 1.391 . S
C952 C954 1.394 . S
C952 H968 0.931 . S
C953 C952 1.391 . S
C953 C957 1.376 . S
C954 C952 1.394 . S
C954 C955 1.369 . S
C954 C958 1.531 . S
C955 C954 1.369 . S
C955 C956 1.410 . S
C955 C963 1.503 . S
C956 C955 1.410 . S
C956 C957 1.392 . S
C956 C959 1.511 . S
C957 C953 1.376 . S
C957 C956 1.392 . S
C957 H969 0.929 . S
C958 C954 1.531 . S
C958 H970 0.960 . S
C958 H971 0.962 . S
C958 H972 0.960 . S
C959 C956 1.511 . S
C959 H973 0.961 . S
C959 H974 0.961 . S
C959 H975 0.961 . S
C960 C961 1.370 . S
C960 C962 1.363 . S
C960 H976 0.931 . S
C961 C960 1.370 . S
C961 C965 1.408 . S
C962 C960 1.363 . S
C962 C963 1.370 . S
C962 C966 1.524 . S
C963 C955 1.503 . S
C963 C962 1.370 . S
C963 C964 1.403 . S
C964 C963 1.403 . S
C964 C965 1.404 . S
C964 C967 1.539 . S
C965 C961 1.408 . S
C965 C964 1.404 . S
C965 H977 0.930 . S
C966 C962 1.524 . S
C966 H978 0.956 . S
C966 H979 0.961 . S
C966 H980 0.961 . S
C967 C964 1.539 . S
C967 H981 0.958 . S
C967 H982 0.961 . S
C967 H983 0.960 . S
H968 C952 0.931 . S
H969 C957 0.929 . S
H970 C958 0.960 . S
H971 C958 0.962 . S
H972 C958 0.960 . S
H973 C959 0.961 . S
H974 C959 0.961 . S
H975 C959 0.961 . S
H976 C960 0.931 . S
H977 C965 0.930 . S
H978 C966 0.956 . S
H979 C966 0.961 . S
H980 C966 0.961 . S
H981 C967 0.958 . S
H982 C967 0.961 . S
H983 C967 0.960 . S
C984 C985 1.391 . S
C984 C986 1.394 . S
C984 H1000 0.931 . S
C985 C984 1.391 . S
C985 C989 1.376 . S
C986 C984 1.394 . S
C986 C987 1.369 . S
C986 C990 1.531 . S
C987 C986 1.369 . S
C987 C988 1.410 . S
C987 C995 1.503 . S
C988 C987 1.410 . S
C988 C989 1.392 . S
C988 C991 1.511 . S
C989 C985 1.376 . S
C989 C988 1.392 . S
C989 H1001 0.929 . S
C990 C986 1.531 . S
C990 H1002 0.960 . S
C990 H1003 0.962 . S
C990 H1004 0.960 . S
C991 C988 1.511 . S
C991 H1005 0.961 . S
C991 H1006 0.961 . S
C991 H1007 0.961 . S
C992 C993 1.370 . S
C992 C994 1.363 . S
C992 H1008 0.931 . S
C993 C992 1.370 . S
C993 C997 1.408 . S
C994 C992 1.363 . S
C994 C995 1.370 . S
C994 C998 1.524 . S
C995 C987 1.503 . S
C995 C994 1.370 . S
C995 C996 1.403 . S
C996 C995 1.403 . S
C996 C997 1.404 . S
C996 C999 1.539 . S
C997 C993 1.408 . S
C997 C996 1.404 . S
C997 H1009 0.930 . S
C998 C994 1.524 . S
C998 H1010 0.956 . S
C998 H1011 0.961 . S
C998 H1012 0.961 . S
C999 C996 1.539 . S
C999 H1013 0.958 . S
C999 H1014 0.961 . S
C999 H1015 0.960 . S
H1000 C984 0.931 . S
H1001 C989 0.929 . S
H1002 C990 0.960 . S
H1003 C990 0.962 . S
H1004 C990 0.960 . S
H1005 C991 0.961 . S
H1006 C991 0.961 . S
H1007 C991 0.961 . S
H1008 C992 0.931 . S
H1009 C997 0.930 . S
H1010 C998 0.956 . S
H1011 C998 0.961 . S
H1012 C998 0.961 . S
H1013 C999 0.958 . S
H1014 C999 0.961 . S
H1015 C999 0.960 . S
C1016 C1017 1.391 . S
C1016 C1018 1.394 . S
C1016 H1032 0.931 . S
C1017 C1016 1.391 . S
C1017 C1021 1.376 . S
C1018 C1016 1.394 . S
C1018 C1019 1.369 . S
C1018 C1022 1.531 . S
C1019 C1018 1.369 . S
C1019 C1020 1.410 . S
C1019 C1027 1.503 . S
C1020 C1019 1.410 . S
C1020 C1021 1.392 . S
C1020 C1023 1.511 . S
C1021 C1017 1.376 . S
C1021 C1020 1.392 . S
C1021 H1033 0.929 . S
C1022 C1018 1.531 . S
C1022 H1034 0.960 . S
C1022 H1035 0.962 . S
C1022 H1036 0.960 . S
C1023 C1020 1.511 . S
C1023 H1037 0.961 . S
C1023 H1038 0.961 . S
C1023 H1039 0.961 . S
C1024 C1025 1.370 . S
C1024 C1026 1.363 . S
C1024 H1040 0.931 . S
C1025 C1024 1.370 . S
C1025 C1029 1.408 . S
C1026 C1024 1.363 . S
C1026 C1027 1.370 . S
C1026 C1030 1.524 . S
C1027 C1019 1.503 . S
C1027 C1026 1.370 . S
C1027 C1028 1.403 . S
C1028 C1027 1.403 . S
C1028 C1029 1.404 . S
C1028 C1031 1.539 . S
C1029 C1025 1.408 . S
C1029 C1028 1.404 . S
C1029 H1041 0.930 . S
C1030 C1026 1.524 . S
C1030 H1042 0.956 . S
C1030 H1043 0.961 . S
C1030 H1044 0.961 . S
C1031 C1028 1.539 . S
C1031 H1045 0.958 . S
C1031 H1046 0.961 . S
C1031 H1047 0.960 . S
H1032 C1016 0.931 . S
H1033 C1021 0.929 . S
H1034 C1022 0.960 . S
H1035 C1022 0.962 . S
H1036 C1022 0.960 . S
H1037 C1023 0.961 . S
H1038 C1023 0.961 . S
H1039 C1023 0.961 . S
H1040 C1024 0.931 . S
H1041 C1029 0.930 . S
H1042 C1030 0.956 . S
H1043 C1030 0.961 . S
H1044 C1030 0.961 . S
H1045 C1031 0.958 . S
H1046 C1031 0.961 . S
H1047 C1031 0.960 . S
C1048 C1049 1.391 . S
C1048 C1050 1.394 . S
C1048 H1064 0.931 . S
C1049 C1048 1.391 . S
C1049 C1053 1.376 . S
C1050 C1048 1.394 . S
C1050 C1051 1.369 . S
C1050 C1054 1.531 . S
C1051 C1050 1.369 . S
C1051 C1052 1.410 . S
C1051 C1059 1.503 . S
C1052 C1051 1.410 . S
C1052 C1053 1.392 . S
C1052 C1055 1.511 . S
C1053 C1049 1.376 . S
C1053 C1052 1.392 . S
C1053 H1065 0.929 . S
C1054 C1050 1.531 . S
C1054 H1066 0.960 . S
C1054 H1067 0.962 . S
C1054 H1068 0.960 . S
C1055 C1052 1.511 . S
C1055 H1069 0.961 . S
C1055 H1070 0.961 . S
C1055 H1071 0.961 . S
C1056 C1057 1.370 . S
C1056 C1058 1.363 . S
C1056 H1072 0.931 . S
C1057 C1056 1.370 . S
C1057 C1061 1.408 . S
C1058 C1056 1.363 . S
C1058 C1059 1.370 . S
C1058 C1062 1.524 . S
C1059 C1051 1.503 . S
C1059 C1058 1.370 . S
C1059 C1060 1.403 . S
C1060 C1059 1.403 . S
C1060 C1061 1.404 . S
C1060 C1063 1.539 . S
C1061 C1057 1.408 . S
C1061 C1060 1.404 . S
C1061 H1073 0.930 . S
C1062 C1058 1.524 . S
C1062 H1074 0.956 . S
C1062 H1075 0.961 . S
C1062 H1076 0.961 . S
C1063 C1060 1.539 . S
C1063 H1077 0.958 . S
C1063 H1078 0.961 . S
C1063 H1079 0.960 . S
H1064 C1048 0.931 . S
H1065 C1053 0.929 . S
H1066 C1054 0.960 . S
H1067 C1054 0.962 . S
H1068 C1054 0.960 . S
H1069 C1055 0.961 . S
H1070 C1055 0.961 . S
H1071 C1055 0.961 . S
H1072 C1056 0.931 . S
H1073 C1061 0.930 . S
H1074 C1062 0.956 . S
H1075 C1062 0.961 . S
H1076 C1062 0.961 . S
H1077 C1063 0.958 . S
H1078 C1063 0.961 . S
H1079 C1063 0.960 . S
C1080 C1081 1.391 . S
C1080 C1082 1.394 . S
C1080 H1096 0.931 . S
C1081 C1080 1.391 . S
C1081 C1085 1.376 1_455 S
C1082 C1080 1.394 . S
C1082 C1083 1.369 1_455 S
C1082 C1086 1.531 . S
C1083 C1082 1.369 1_655 S
C1083 C1084 1.410 . S
C1083 C1091 1.503 . S
C1084 C1083 1.410 . S
C1084 C1085 1.392 . S
C1084 C1087 1.511 . S
C1085 C1081 1.376 1_655 S
C1085 C1084 1.392 . S
C1085 H1097 0.929 . S
C1086 C1082 1.531 . S
C1086 H1098 0.960 . S
C1086 H1099 0.962 . S
C1086 H1100 0.960 . S
C1087 C1084 1.511 . S
C1087 H1101 0.961 . S
C1087 H1102 0.961 . S
C1087 H1103 0.961 . S
C1088 C1089 1.370 . S
C1088 C1090 1.363 . S
C1088 H1104 0.931 . S
C1089 C1088 1.370 . S
C1089 C1093 1.408 . S
C1090 C1088 1.363 . S
C1090 C1091 1.370 . S
C1090 C1094 1.524 . S
C1091 C1083 1.503 . S
C1091 C1090 1.370 . S
C1091 C1092 1.403 . S
C1092 C1091 1.403 . S
C1092 C1093 1.404 . S
C1092 C1095 1.539 1_655 S
C1093 C1089 1.408 . S
C1093 C1092 1.404 . S
C1093 H1105 0.930 . S
C1094 C1090 1.524 . S
C1094 H1106 0.956 . S
C1094 H1107 0.961 . S
C1094 H1108 0.961 . S
C1095 C1092 1.539 1_455 S
C1095 H1109 0.958 . S
C1095 H1110 0.961 1_455 S
C1095 H1111 0.960 1_455 S
H1096 C1080 0.931 . S
H1097 C1085 0.929 . S
H1098 C1086 0.960 . S
H1099 C1086 0.962 . S
H1100 C1086 0.960 . S
H1101 C1087 0.961 . S
H1102 C1087 0.961 . S
H1103 C1087 0.961 . S
H1104 C1088 0.931 . S
H1105 C1093 0.930 . S
H1106 C1094 0.956 . S
H1107 C1094 0.961 . S
H1108 C1094 0.961 . S
H1109 C1095 0.958 . S
H1110 C1095 0.961 1_655 S
H1111 C1095 0.960 1_655 S
C1112 C1113 1.391 . S
C1112 C1114 1.394 . S
C1112 H1128 0.931 . S
C1113 C1112 1.391 . S
C1113 C1117 1.376 . S
C1114 C1112 1.394 . S
C1114 C1115 1.369 . S
C1114 C1118 1.531 . S
C1115 C1114 1.369 . S
C1115 C1116 1.410 . S
C1115 C1123 1.503 . S
C1116 C1115 1.410 . S
C1116 C1117 1.392 . S
C1116 C1119 1.511 . S
C1117 C1113 1.376 . S
C1117 C1116 1.392 . S
C1117 H1129 0.929 . S
C1118 C1114 1.531 . S
C1118 H1130 0.960 . S
C1118 H1131 0.962 . S
C1118 H1132 0.960 . S
C1119 C1116 1.511 . S
C1119 H1133 0.961 . S
C1119 H1134 0.961 . S
C1119 H1135 0.961 . S
C1120 C1121 1.370 . S
C1120 C1122 1.363 . S
C1120 H1136 0.931 . S
C1121 C1120 1.370 . S
C1121 C1125 1.408 . S
C1122 C1120 1.363 . S
C1122 C1123 1.370 . S
C1122 C1126 1.524 . S
C1123 C1115 1.503 . S
C1123 C1122 1.370 . S
C1123 C1124 1.403 . S
C1124 C1123 1.403 . S
C1124 C1125 1.404 . S
C1124 C1127 1.539 . S
C1125 C1121 1.408 . S
C1125 C1124 1.404 . S
C1125 H1137 0.930 . S
C1126 C1122 1.524 . S
C1126 H1138 0.956 . S
C1126 H1139 0.961 . S
C1126 H1140 0.961 . S
C1127 C1124 1.539 . S
C1127 H1141 0.958 . S
C1127 H1142 0.961 . S
C1127 H1143 0.960 . S
H1128 C1112 0.931 . S
H1129 C1117 0.929 . S
H1130 C1118 0.960 . S
H1131 C1118 0.962 . S
H1132 C1118 0.960 . S
H1133 C1119 0.961 . S
H1134 C1119 0.961 . S
H1135 C1119 0.961 . S
H1136 C1120 0.931 . S
H1137 C1125 0.930 . S
H1138 C1126 0.956 . S
H1139 C1126 0.961 . S
H1140 C1126 0.961 . S
H1141 C1127 0.958 . S
H1142 C1127 0.961 . S
H1143 C1127 0.960 . S
C1144 C1145 1.391 . S
C1144 C1146 1.394 . S
C1144 H1160 0.931 . S
C1145 C1144 1.391 . S
C1145 C1149 1.376 . S
C1146 C1144 1.394 . S
C1146 C1147 1.369 . S
C1146 C1150 1.531 . S
C1147 C1146 1.369 . S
C1147 C1148 1.410 . S
C1147 C1155 1.503 . S
C1148 C1147 1.410 . S
C1148 C1149 1.392 . S
C1148 C1151 1.511 . S
C1149 C1145 1.376 . S
C1149 C1148 1.392 . S
C1149 H1161 0.929 . S
C1150 C1146 1.531 . S
C1150 H1162 0.960 . S
C1150 H1163 0.962 . S
C1150 H1164 0.960 . S
C1151 C1148 1.511 . S
C1151 H1165 0.961 . S
C1151 H1166 0.961 . S
C1151 H1167 0.961 . S
C1152 C1153 1.370 . S
C1152 C1154 1.363 . S
C1152 H1168 0.931 . S
C1153 C1152 1.370 . S
C1153 C1157 1.408 . S
C1154 C1152 1.363 . S
C1154 C1155 1.370 . S
C1154 C1158 1.524 . S
C1155 C1147 1.503 . S
C1155 C1154 1.370 . S
C1155 C1156 1.403 . S
C1156 C1155 1.403 . S
C1156 C1157 1.404 . S
C1156 C1159 1.539 . S
C1157 C1153 1.408 . S
C1157 C1156 1.404 . S
C1157 H1169 0.930 . S
C1158 C1154 1.524 . S
C1158 H1170 0.956 . S
C1158 H1171 0.961 . S
C1158 H1172 0.961 . S
C1159 C1156 1.539 . S
C1159 H1173 0.958 . S
C1159 H1174 0.961 . S
C1159 H1175 0.960 . S
H1160 C1144 0.931 . S
H1161 C1149 0.929 . S
H1162 C1150 0.960 . S
H1163 C1150 0.962 . S
H1164 C1150 0.960 . S
H1165 C1151 0.961 . S
H1166 C1151 0.961 . S
H1167 C1151 0.961 . S
H1168 C1152 0.931 . S
H1169 C1157 0.930 . S
H1170 C1158 0.956 . S
H1171 C1158 0.961 . S
H1172 C1158 0.961 . S
H1173 C1159 0.958 . S
H1174 C1159 0.961 . S
H1175 C1159 0.960 . S
C1176 C1177 1.391 1_565 S
C1176 C1178 1.394 . S
C1176 H1192 0.931 . S
C1177 C1176 1.391 1_545 S
C1177 C1181 1.376 . S
C1178 C1176 1.394 . S
C1178 C1179 1.369 . S
C1178 C1182 1.531 . S
C1179 C1178 1.369 . S
C1179 C1180 1.410 1_565 S
C1179 C1187 1.503 . S
C1180 C1179 1.410 1_545 S
C1180 C1181 1.392 . S
C1180 C1183 1.511 . S
C1181 C1177 1.376 . S
C1181 C1180 1.392 . S
C1181 H1193 0.929 . S
C1182 C1178 1.531 . S
C1182 H1194 0.960 . S
C1182 H1195 0.962 . S
C1182 H1196 0.960 . S
C1183 C1180 1.511 . S
C1183 H1197 0.961 . S
C1183 H1198 0.961 . S
C1183 H1199 0.961 . S
C1184 C1185 1.370 . S
C1184 C1186 1.363 . S
C1184 H1200 0.931 . S
C1185 C1184 1.370 . S
C1185 C1189 1.370 1_565 S
C1186 C1184 1.363 . S
C1186 C1187 1.370 . S
C1186 C1190 1.524 . S
C1187 C1179 1.503 . S
C1187 C1186 1.370 . S
C1187 C1188 1.403 1_565 S
C1188 C1187 1.403 1_545 S
C1188 C1189 1.421 . S
C1188 C1191 1.539 . S
C1189 C1185 1.370 1_545 S
C1189 C1188 1.421 . S
C1189 H1201 0.951 . S
C1190 C1186 1.524 . S
C1190 H1202 0.956 . S
C1190 H1203 0.961 . S
C1190 H1204 0.961 . S
C1191 C1188 1.539 . S
C1191 H1205 0.958 . S
C1191 H1206 0.961 . S
C1191 H1207 0.960 . S
H1192 C1176 0.931 . S
H1193 C1181 0.929 . S
H1194 C1182 0.960 . S
H1195 C1182 0.962 . S
H1196 C1182 0.960 . S
H1197 C1183 0.961 . S
H1198 C1183 0.961 . S
H1199 C1183 0.961 . S
H1200 C1184 0.931 . S
H1201 C1189 0.951 . S
H1202 C1190 0.956 . S
H1203 C1190 0.961 . S
H1204 C1190 0.961 . S
H1205 C1191 0.958 . S
H1206 C1191 0.961 . S
H1207 C1191 0.960 . S
C1208 C1209 1.391 . S
C1208 C1210 1.394 . S
C1208 H1224 0.931 . S
C1209 C1208 1.391 . S
C1209 C1213 1.376 . S
C1210 C1208 1.394 . S
C1210 C1211 1.369 . S
C1210 C1214 1.531 . S
C1211 C1210 1.369 . S
C1211 C1212 1.410 . S
C1211 C1219 1.503 . S
C1212 C1211 1.410 . S
C1212 C1213 1.392 . S
C1212 C1215 1.511 . S
C1213 C1209 1.376 . S
C1213 C1212 1.392 . S
C1213 H1225 0.929 . S
C1214 C1210 1.531 . S
C1214 H1226 0.960 . S
C1214 H1227 0.962 . S
C1214 H1228 0.960 . S
C1215 C1212 1.511 . S
C1215 H1229 0.961 . S
C1215 H1230 0.961 . S
C1215 H1231 0.961 . S
C1216 C1217 1.370 . S
C1216 C1218 1.363 . S
C1216 H1232 0.931 . S
C1217 C1216 1.370 . S
C1217 C1221 1.408 . S
C1218 C1216 1.363 . S
C1218 C1219 1.370 . S
C1218 C1222 1.524 . S
C1219 C1211 1.503 . S
C1219 C1218 1.370 . S
C1219 C1220 1.403 . S
C1220 C1219 1.403 . S
C1220 C1221 1.404 . S
C1220 C1223 1.539 . S
C1221 C1217 1.408 . S
C1221 C1220 1.404 . S
C1221 H1233 0.930 . S
C1222 C1218 1.524 . S
C1222 H1234 0.956 . S
C1222 H1235 0.961 . S
C1222 H1236 0.961 . S
C1223 C1220 1.539 . S
C1223 H1237 0.958 . S
C1223 H1238 0.961 . S
C1223 H1239 0.960 . S
H1224 C1208 0.931 . S
H1225 C1213 0.929 . S
H1226 C1214 0.960 . S
H1227 C1214 0.962 . S
H1228 C1214 0.960 . S
H1229 C1215 0.961 . S
H1230 C1215 0.961 . S
H1231 C1215 0.961 . S
H1232 C1216 0.931 . S
H1233 C1221 0.930 . S
H1234 C1222 0.956 . S
H1235 C1222 0.961 . S
H1236 C1222 0.961 . S
H1237 C1223 0.958 . S
H1238 C1223 0.961 . S
H1239 C1223 0.960 . S
C1240 C1241 1.391 . S
C1240 C1242 1.394 . S
C1240 H1256 0.931 . S
C1241 C1240 1.391 . S
C1241 C1245 1.376 . S
C1242 C1240 1.394 . S
C1242 C1243 1.369 . S
C1242 C1246 1.531 . S
C1243 C1242 1.369 . S
C1243 C1244 1.410 . S
C1243 C1251 1.503 . S
C1244 C1243 1.410 . S
C1244 C1245 1.392 . S
C1244 C1247 1.511 . S
C1245 C1241 1.376 . S
C1245 C1244 1.392 . S
C1245 H1257 0.929 . S
C1246 C1242 1.531 . S
C1246 H1258 0.960 . S
C1246 H1259 0.962 . S
C1246 H1260 0.960 . S
C1247 C1244 1.511 . S
C1247 H1261 0.961 . S
C1247 H1262 0.961 . S
C1247 H1263 0.961 . S
C1248 C1249 1.370 . S
C1248 C1250 1.363 . S
C1248 H1264 0.931 . S
C1249 C1248 1.370 . S
C1249 C1253 1.408 . S
C1250 C1248 1.363 . S
C1250 C1251 1.370 . S
C1250 C1254 1.524 . S
C1251 C1243 1.503 . S
C1251 C1250 1.370 . S
C1251 C1252 1.403 . S
C1252 C1251 1.403 . S
C1252 C1253 1.404 . S
C1252 C1255 1.539 . S
C1253 C1249 1.408 . S
C1253 C1252 1.404 . S
C1253 H1265 0.930 . S
C1254 C1250 1.524 . S
C1254 H1266 0.956 . S
C1254 H1267 0.961 . S
C1254 H1268 0.961 . S
C1255 C1252 1.539 . S
C1255 H1269 0.958 . S
C1255 H1270 0.961 . S
C1255 H1271 0.960 . S
H1256 C1240 0.931 . S
H1257 C1245 0.929 . S
H1258 C1246 0.960 . S
H1259 C1246 0.962 . S
H1260 C1246 0.960 . S
H1261 C1247 0.961 . S
H1262 C1247 0.961 . S
H1263 C1247 0.961 . S
H1264 C1248 0.931 . S
H1265 C1253 0.930 . S
H1266 C1254 0.956 . S
H1267 C1254 0.961 . S
H1268 C1254 0.961 . S
H1269 C1255 0.958 . S
H1270 C1255 0.961 . S
H1271 C1255 0.960 . S
C1272 C1273 1.391 . S
C1272 C1274 1.394 . S
C1272 H1288 0.931 . S
C1273 C1272 1.391 . S
C1273 C1277 1.376 . S
C1274 C1272 1.394 . S
C1274 C1275 1.369 . S
C1274 C1278 1.531 . S
C1275 C1274 1.369 . S
C1275 C1276 1.410 . S
C1275 C1283 1.503 . S
C1276 C1275 1.410 . S
C1276 C1277 1.392 . S
C1276 C1279 1.511 . S
C1277 C1273 1.376 . S
C1277 C1276 1.392 . S
C1277 H1289 0.929 . S
C1278 C1274 1.531 . S
C1278 H1290 0.960 . S
C1278 H1291 0.962 . S
C1278 H1292 0.960 . S
C1279 C1276 1.511 . S
C1279 H1293 0.961 . S
C1279 H1294 0.961 . S
C1279 H1295 0.961 . S
C1280 C1281 1.370 . S
C1280 C1282 1.363 . S
C1280 H1296 0.931 . S
C1281 C1280 1.370 . S
C1281 C1285 1.408 . S
C1282 C1280 1.363 . S
C1282 C1283 1.370 . S
C1282 C1286 1.524 . S
C1283 C1275 1.503 . S
C1283 C1282 1.370 . S
C1283 C1284 1.403 . S
C1284 C1283 1.403 . S
C1284 C1285 1.404 . S
C1284 C1287 1.539 . S
C1285 C1281 1.408 . S
C1285 C1284 1.404 . S
C1285 H1297 0.930 . S
C1286 C1282 1.524 . S
C1286 H1298 0.956 . S
C1286 H1299 0.961 . S
C1286 H1300 0.961 . S
C1287 C1284 1.539 . S
C1287 H1301 0.958 . S
C1287 H1302 0.961 . S
C1287 H1303 0.960 . S
H1288 C1272 0.931 . S
H1289 C1277 0.929 . S
H1290 C1278 0.960 . S
H1291 C1278 0.962 . S
H1292 C1278 0.960 . S
H1293 C1279 0.961 . S
H1294 C1279 0.961 . S
H1295 C1279 0.961 . S
H1296 C1280 0.931 . S
H1297 C1285 0.930 . S
H1298 C1286 0.956 . S
H1299 C1286 0.961 . S
H1300 C1286 0.961 . S
H1301 C1287 0.958 . S
H1302 C1287 0.961 . S
H1303 C1287 0.960 . S
C1304 C1305 1.391 . S
C1304 C1306 1.394 . S
C1304 H1320 0.931 . S
C1305 C1304 1.391 . S
C1305 C1309 1.376 . S
C1306 C1304 1.394 . S
C1306 C1307 1.369 . S
C1306 C1310 1.531 . S
C1307 C1306 1.369 . S
C1307 C1308 1.410 . S
C1307 C1315 1.503 . S
C1308 C1307 1.410 . S
C1308 C1309 1.392 . S
C1308 C1311 1.511 . S
C1309 C1305 1.376 . S
C1309 C1308 1.392 . S
C1309 H1321 0.929 . S
C1310 C1306 1.531 . S
C1310 H1322 0.960 . S
C1310 H1323 0.962 . S
C1310 H1324 0.960 . S
C1311 C1308 1.511 . S
C1311 H1325 0.961 . S
C1311 H1326 0.961 . S
C1311 H1327 0.961 . S
C1312 C1313 1.370 . S
C1312 C1314 1.363 . S
C1312 H1328 0.931 . S
C1313 C1312 1.370 . S
C1313 C1317 1.408 . S
C1314 C1312 1.363 . S
C1314 C1315 1.370 . S
C1314 C1318 1.524 . S
C1315 C1307 1.503 . S
C1315 C1314 1.370 . S
C1315 C1316 1.403 . S
C1316 C1315 1.403 . S
C1316 C1317 1.404 . S
C1316 C1319 1.539 . S
C1317 C1313 1.408 . S
C1317 C1316 1.404 . S
C1317 H1329 0.930 . S
C1318 C1314 1.524 . S
C1318 H1330 0.956 . S
C1318 H1331 0.961 . S
C1318 H1332 0.961 . S
C1319 C1316 1.539 . S
C1319 H1333 0.958 . S
C1319 H1334 0.961 . S
C1319 H1335 0.960 . S
H1320 C1304 0.931 . S
H1321 C1309 0.929 . S
H1322 C1310 0.960 . S
H1323 C1310 0.962 . S
H1324 C1310 0.960 . S
H1325 C1311 0.961 . S
H1326 C1311 0.961 . S
H1327 C1311 0.961 . S
H1328 C1312 0.931 . S
H1329 C1317 0.930 . S
H1330 C1318 0.956 . S
H1331 C1318 0.961 . S
H1332 C1318 0.961 . S
H1333 C1319 0.958 . S
H1334 C1319 0.961 . S
H1335 C1319 0.960 . S
C1336 C1337 1.391 . S
C1336 C1338 1.394 . S
C1336 H1352 0.931 . S
C1337 C1336 1.391 . S
C1337 C1341 1.376 1_545 S
C1338 C1336 1.394 . S
C1338 C1339 1.369 1_545 S
C1338 C1342 1.531 . S
C1339 C1338 1.369 1_565 S
C1339 C1340 1.410 . S
C1339 C1347 1.503 . S
C1340 C1339 1.410 . S
C1340 C1341 1.392 . S
C1340 C1343 1.511 . S
C1341 C1337 1.376 1_565 S
C1341 C1340 1.392 . S
C1341 H1353 0.929 . S
C1342 C1338 1.531 . S
C1342 H1354 0.960 . S
C1342 H1355 0.962 . S
C1342 H1356 0.960 . S
C1343 C1340 1.511 . S
C1343 H1357 0.961 . S
C1343 H1358 0.961 . S
C1343 H1359 0.961 . S
C1344 C1345 1.370 . S
C1344 C1346 1.363 . S
C1344 H1360 0.931 . S
C1345 C1344 1.370 . S
C1345 C1349 1.387 1_565 S
C1346 C1344 1.363 . S
C1346 C1347 1.370 . S
C1346 C1350 1.524 . S
C1347 C1339 1.503 . S
C1347 C1346 1.370 . S
C1347 C1348 1.403 1_565 S
C1348 C1347 1.403 1_545 S
C1348 C1349 1.406 . S
C1348 C1351 1.539 . S
C1349 C1345 1.387 1_545 S
C1349 C1348 1.406 . S
C1349 H1361 0.949 . S
C1350 C1346 1.524 . S
C1350 H1362 0.956 . S
C1350 H1363 0.961 . S
C1350 H1364 0.961 . S
C1351 C1348 1.539 . S
C1351 H1365 0.958 . S
C1351 H1366 0.961 . S
C1351 H1367 0.960 . S
H1352 C1336 0.931 . S
H1353 C1341 0.929 . S
H1354 C1342 0.960 . S
H1355 C1342 0.962 . S
H1356 C1342 0.960 . S
H1357 C1343 0.961 . S
H1358 C1343 0.961 . S
H1359 C1343 0.961 . S
H1360 C1344 0.931 . S
H1361 C1349 0.949 . S
H1362 C1350 0.956 . S
H1363 C1350 0.961 . S
H1364 C1350 0.961 . S
H1365 C1351 0.958 . S
H1366 C1351 0.961 . S
H1367 C1351 0.960 . S
C1368 C1369 1.391 . S
C1368 C1370 1.394 . S
C1368 H1384 0.931 . S
C1369 C1368 1.391 . S
C1369 C1373 1.376 . S
C1370 C1368 1.394 . S
C1370 C1371 1.369 . S
C1370 C1374 1.531 . S
C1371 C1370 1.369 . S
C1371 C1372 1.410 . S
C1371 C1379 1.503 . S
C1372 C1371 1.410 . S
C1372 C1373 1.392 . S
C1372 C1375 1.511 . S
C1373 C1369 1.376 . S
C1373 C1372 1.392 . S
C1373 H1385 0.929 . S
C1374 C1370 1.531 . S
C1374 H1386 0.960 . S
C1374 H1387 0.962 . S
C1374 H1388 0.960 . S
C1375 C1372 1.511 . S
C1375 H1389 0.961 . S
C1375 H1390 0.961 . S
C1375 H1391 0.961 . S
C1376 C1377 1.370 . S
C1376 C1378 1.363 . S
C1376 H1392 0.931 . S
C1377 C1376 1.370 . S
C1377 C1381 1.408 . S
C1378 C1376 1.363 . S
C1378 C1379 1.370 . S
C1378 C1382 1.524 . S
C1379 C1371 1.503 . S
C1379 C1378 1.370 . S
C1379 C1380 1.403 . S
C1380 C1379 1.403 . S
C1380 C1381 1.404 . S
C1380 C1383 1.539 . S
C1381 C1377 1.408 . S
C1381 C1380 1.404 . S
C1381 H1393 0.930 . S
C1382 C1378 1.524 . S
C1382 H1394 0.956 . S
C1382 H1395 0.961 . S
C1382 H1396 0.961 . S
C1383 C1380 1.539 . S
C1383 H1397 0.958 . S
C1383 H1398 0.961 . S
C1383 H1399 0.960 . S
H1384 C1368 0.931 . S
H1385 C1373 0.929 . S
H1386 C1374 0.960 . S
H1387 C1374 0.962 . S
H1388 C1374 0.960 . S
H1389 C1375 0.961 . S
H1390 C1375 0.961 . S
H1391 C1375 0.961 . S
H1392 C1376 0.931 . S
H1393 C1381 0.930 . S
H1394 C1382 0.956 . S
H1395 C1382 0.961 . S
H1396 C1382 0.961 . S
H1397 C1383 0.958 . S
H1398 C1383 0.961 . S
H1399 C1383 0.960 . S
C1400 C1401 1.391 1_655 S
C1400 C1402 1.394 . S
C1400 H1416 0.931 . S
C1401 C1400 1.391 1_455 S
C1401 C1405 1.376 . S
C1402 C1400 1.394 . S
C1402 C1403 1.369 . S
C1402 C1406 1.531 . S
C1403 C1402 1.369 . S
C1403 C1404 1.410 1_655 S
C1403 C1411 1.503 . S
C1404 C1403 1.410 1_455 S
C1404 C1405 1.392 . S
C1404 C1407 1.511 . S
C1405 C1401 1.376 . S
C1405 C1404 1.392 . S
C1405 H1417 0.929 . S
C1406 C1402 1.531 . S
C1406 H1418 0.960 . S
C1406 H1419 0.962 . S
C1406 H1420 0.960 . S
C1407 C1404 1.511 . S
C1407 H1421 0.961 . S
C1407 H1422 0.961 . S
C1407 H1423 0.961 . S
C1408 C1409 1.370 . S
C1408 C1410 1.363 . S
C1408 H1424 0.931 . S
C1409 C1408 1.370 . S
C1409 C1413 1.408 . S
C1410 C1408 1.363 . S
C1410 C1411 1.370 . S
C1410 C1414 1.524 . S
C1411 C1403 1.503 . S
C1411 C1410 1.370 . S
C1411 C1412 1.403 . S
C1412 C1411 1.403 . S
C1412 C1413 1.404 . S
C1412 C1415 1.539 . S
C1413 C1409 1.408 . S
C1413 C1412 1.404 . S
C1413 H1425 0.930 . S
C1414 C1410 1.524 . S
C1414 H1426 0.956 . S
C1414 H1427 0.959 1_655 S
C1414 H1428 0.961 . S
C1415 C1412 1.539 . S
C1415 H1429 0.958 . S
C1415 H1430 0.966 . S
C1415 H1431 0.960 1_655 S
H1416 C1400 0.931 . S
H1417 C1405 0.929 . S
H1418 C1406 0.960 . S
H1419 C1406 0.962 . S
H1420 C1406 0.960 . S
H1421 C1407 0.961 . S
H1422 C1407 0.961 . S
H1423 C1407 0.961 . S
H1424 C1408 0.931 . S
H1425 C1413 0.930 . S
H1426 C1414 0.956 . S
H1427 C1414 0.959 1_455 S
H1428 C1414 0.961 . S
H1429 C1415 0.958 . S
H1430 C1415 0.966 . S
H1431 C1415 0.960 1_455 S
C1432 C1433 1.391 . S
C1432 C1434 1.394 . S
C1432 H1448 0.931 . S
C1433 C1432 1.391 . S
C1433 C1437 1.376 . S
C1434 C1432 1.394 . S
C1434 C1435 1.369 . S
C1434 C1438 1.531 . S
C1435 C1434 1.369 . S
C1435 C1436 1.410 . S
C1435 C1443 1.503 . S
C1436 C1435 1.410 . S
C1436 C1437 1.392 . S
C1436 C1439 1.511 . S
C1437 C1433 1.376 . S
C1437 C1436 1.392 . S
C1437 H1449 0.929 . S
C1438 C1434 1.531 . S
C1438 H1450 0.960 . S
C1438 H1451 0.962 . S
C1438 H1452 0.960 . S
C1439 C1436 1.511 . S
C1439 H1453 0.961 . S
C1439 H1454 0.961 . S
C1439 H1455 0.961 . S
C1440 C1441 1.370 . S
C1440 C1442 1.363 . S
C1440 H1456 0.931 . S
C1441 C1440 1.370 . S
C1441 C1445 1.408 . S
C1442 C1440 1.363 . S
C1442 C1443 1.370 . S
C1442 C1446 1.524 . S
C1443 C1435 1.503 . S
C1443 C1442 1.370 . S
C1443 C1444 1.403 . S
C1444 C1443 1.403 . S
C1444 C1445 1.404 . S
C1444 C1447 1.539 . S
C1445 C1441 1.408 . S
C1445 C1444 1.404 . S
C1445 H1457 0.930 . S
C1446 C1442 1.524 . S
C1446 H1458 0.956 . S
C1446 H1459 0.961 . S
C1446 H1460 0.961 . S
C1447 C1444 1.539 . S
C1447 H1461 0.958 . S
C1447 H1462 0.961 . S
C1447 H1463 0.960 . S
H1448 C1432 0.931 . S
H1449 C1437 0.929 . S
H1450 C1438 0.960 . S
H1451 C1438 0.962 . S
H1452 C1438 0.960 . S
H1453 C1439 0.961 . S
H1454 C1439 0.961 . S
H1455 C1439 0.961 . S
H1456 C1440 0.931 . S
H1457 C1445 0.930 . S
H1458 C1446 0.956 . S
H1459 C1446 0.961 . S
H1460 C1446 0.961 . S
H1461 C1447 0.958 . S
H1462 C1447 0.961 . S
H1463 C1447 0.960 . S
C1464 C1465 1.391 . S
C1464 C1466 1.394 . S
C1464 H1480 0.931 . S
C1465 C1464 1.391 . S
C1465 C1469 1.376 . S
C1466 C1464 1.394 . S
C1466 C1467 1.369 . S
C1466 C1470 1.531 . S
C1467 C1466 1.369 . S
C1467 C1468 1.410 . S
C1467 C1475 1.503 . S
C1468 C1467 1.410 . S
C1468 C1469 1.392 . S
C1468 C1471 1.511 . S
C1469 C1465 1.376 . S
C1469 C1468 1.392 . S
C1469 H1481 0.929 . S
C1470 C1466 1.531 . S
C1470 H1482 0.960 . S
C1470 H1483 0.962 . S
C1470 H1484 0.960 . S
C1471 C1468 1.511 . S
C1471 H1485 0.961 . S
C1471 H1486 0.961 . S
C1471 H1487 0.961 . S
C1472 C1473 1.370 . S
C1472 C1474 1.363 . S
C1472 H1488 0.931 . S
C1473 C1472 1.370 . S
C1473 C1477 1.408 . S
C1474 C1472 1.363 . S
C1474 C1475 1.370 . S
C1474 C1478 1.524 . S
C1475 C1467 1.503 . S
C1475 C1474 1.370 . S
C1475 C1476 1.403 . S
C1476 C1475 1.403 . S
C1476 C1477 1.404 . S
C1476 C1479 1.539 . S
C1477 C1473 1.408 . S
C1477 C1476 1.404 . S
C1477 H1489 0.930 . S
C1478 C1474 1.524 . S
C1478 H1490 0.956 . S
C1478 H1491 0.961 . S
C1478 H1492 0.961 . S
C1479 C1476 1.539 . S
C1479 H1493 0.958 . S
C1479 H1494 0.961 . S
C1479 H1495 0.960 . S
H1480 C1464 0.931 . S
H1481 C1469 0.929 . S
H1482 C1470 0.960 . S
H1483 C1470 0.962 . S
H1484 C1470 0.960 . S
H1485 C1471 0.961 . S
H1486 C1471 0.961 . S
H1487 C1471 0.961 . S
H1488 C1472 0.931 . S
H1489 C1477 0.930 . S
H1490 C1478 0.956 . S
H1491 C1478 0.961 . S
H1492 C1478 0.961 . S
H1493 C1479 0.958 . S
H1494 C1479 0.961 . S
H1495 C1479 0.960 . S
C1496 C1497 1.391 . S
C1496 C1498 1.394 . S
C1496 H1512 0.931 . S
C1497 C1496 1.391 . S
C1497 C1501 1.376 . S
C1498 C1496 1.394 . S
C1498 C1499 1.369 . S
C1498 C1502 1.531 . S
C1499 C1498 1.369 . S
C1499 C1500 1.410 . S
C1499 C1507 1.503 . S
C1500 C1499 1.410 . S
C1500 C1501 1.392 . S
C1500 C1503 1.511 1_545 S
C1501 C1497 1.376 . S
C1501 C1500 1.392 . S
C1501 H1513 0.929 . S
C1502 C1498 1.531 . S
C1502 H1514 0.960 . S
C1502 H1515 0.962 . S
C1502 H1516 0.960 . S
C1503 C1500 1.511 1_565 S
C1503 H1517 0.961 . S
C1503 H1518 0.961 . S
C1503 H1519 0.961 . S
C1504 C1505 1.372 1_545 S
C1504 C1506 1.363 . S
C1504 H1520 0.931 . S
C1505 C1504 1.372 1_565 S
C1505 C1509 1.397 1_565 S
C1506 C1504 1.363 . S
C1506 C1507 1.370 . S
C1506 C1510 1.524 . S
C1507 C1499 1.503 . S
C1507 C1506 1.370 . S
C1507 C1508 1.403 . S
C1508 C1507 1.403 . S
C1508 C1509 1.404 . S
C1508 C1511 1.539 . S
C1509 C1505 1.397 1_545 S
C1509 C1508 1.404 . S
C1509 H1521 0.930 1_545 S
C1510 C1506 1.524 . S
C1510 H1522 0.956 . S
C1510 H1523 0.961 . S
C1510 H1524 0.961 . S
C1511 C1508 1.539 . S
C1511 H1525 0.958 . S
C1511 H1526 0.958 1_545 S
C1511 H1527 0.960 . S
H1512 C1496 0.931 . S
H1513 C1501 0.929 . S
H1514 C1502 0.960 . S
H1515 C1502 0.962 . S
H1516 C1502 0.960 . S
H1517 C1503 0.961 . S
H1518 C1503 0.961 . S
H1519 C1503 0.961 . S
H1520 C1504 0.931 . S
H1521 C1509 0.930 1_565 S
H1522 C1510 0.956 . S
H1523 C1510 0.961 . S
H1524 C1510 0.961 . S
H1525 C1511 0.958 . S
H1526 C1511 0.958 1_565 S
H1527 C1511 0.960 . S
C1528 C1529 1.361 1_455 S
C1528 C1530 1.394 . S
C1528 H1544 0.931 . S
C1529 C1528 1.361 1_655 S
C1529 C1533 1.393 . S
C1530 C1528 1.394 . S
C1530 C1531 1.369 . S
C1530 C1534 1.531 . S
C1531 C1530 1.369 . S
C1531 C1532 1.410 1_455 S
C1531 C1539 1.503 . S
C1532 C1531 1.410 1_655 S
C1532 C1533 1.392 . S
C1532 C1535 1.511 . S
C1533 C1529 1.393 . S
C1533 C1532 1.392 . S
C1533 H1545 0.929 . S
C1534 C1530 1.531 . S
C1534 H1546 0.960 . S
C1534 H1547 0.962 . S
C1534 H1548 0.960 . S
C1535 C1532 1.511 . S
C1535 H1549 0.961 . S
C1535 H1550 0.961 . S
C1535 H1551 0.961 . S
C1536 C1537 1.370 . S
C1536 C1538 1.363 . S
C1536 H1552 0.931 . S
C1537 C1536 1.370 . S
C1537 C1541 1.408 . S
C1538 C1536 1.363 . S
C1538 C1539 1.370 . S
C1538 C1542 1.524 . S
C1539 C1531 1.503 . S
C1539 C1538 1.370 . S
C1539 C1540 1.403 . S
C1540 C1539 1.403 . S
C1540 C1541 1.404 . S
C1540 C1543 1.539 . S
C1541 C1537 1.408 . S
C1541 C1540 1.404 . S
C1541 H1553 0.930 . S
C1542 C1538 1.524 . S
C1542 H1554 0.956 . S
C1542 H1555 0.961 . S
C1542 H1556 0.961 . S
C1543 C1540 1.539 . S
C1543 H1557 0.958 . S
C1543 H1558 0.961 . S
C1543 H1559 0.960 . S
H1544 C1528 0.931 . S
H1545 C1533 0.929 . S
H1546 C1534 0.960 . S
H1547 C1534 0.962 . S
H1548 C1534 0.960 . S
H1549 C1535 0.961 . S
H1550 C1535 0.961 . S
H1551 C1535 0.961 . S
H1552 C1536 0.931 . S
H1553 C1541 0.930 . S
H1554 C1542 0.956 . S
H1555 C1542 0.961 . S
H1556 C1542 0.961 . S
H1557 C1543 0.958 . S
H1558 C1543 0.961 . S
H1559 C1543 0.960 . S
C1560 C1561 1.391 . S
C1560 C1562 1.394 . S
C1560 H1576 0.931 . S
C1561 C1560 1.391 . S
C1561 C1565 1.376 . S
C1562 C1560 1.394 . S
C1562 C1563 1.369 . S
C1562 C1566 1.531 . S
C1563 C1562 1.369 . S
C1563 C1564 1.410 . S
C1563 C1571 1.503 . S
C1564 C1563 1.410 . S
C1564 C1565 1.392 . S
C1564 C1567 1.511 . S
C1565 C1561 1.376 . S
C1565 C1564 1.392 . S
C1565 H1577 0.929 . S
C1566 C1562 1.531 . S
C1566 H1578 0.960 . S
C1566 H1579 0.962 . S
C1566 H1580 0.960 . S
C1567 C1564 1.511 . S
C1567 H1581 0.961 . S
C1567 H1582 0.961 . S
C1567 H1583 0.961 . S
C1568 C1569 1.370 . S
C1568 C1570 1.363 . S
C1568 H1584 0.931 . S
C1569 C1568 1.370 . S
C1569 C1573 1.408 . S
C1570 C1568 1.363 . S
C1570 C1571 1.370 . S
C1570 C1574 1.524 . S
C1571 C1563 1.503 . S
C1571 C1570 1.370 . S
C1571 C1572 1.403 . S
C1572 C1571 1.403 . S
C1572 C1573 1.404 . S
C1572 C1575 1.539 . S
C1573 C1569 1.408 . S
C1573 C1572 1.404 . S
C1573 H1585 0.930 . S
C1574 C1570 1.524 . S
C1574 H1586 0.956 . S
C1574 H1587 0.961 . S
C1574 H1588 0.961 . S
C1575 C1572 1.539 . S
C1575 H1589 0.958 . S
C1575 H1590 0.961 . S
C1575 H1591 0.960 . S
H1576 C1560 0.931 . S
H1577 C1565 0.929 . S
H1578 C1566 0.960 . S
H1579 C1566 0.962 . S
H1580 C1566 0.960 . S
H1581 C1567 0.961 . S
H1582 C1567 0.961 . S
H1583 C1567 0.961 . S
H1584 C1568 0.931 . S
H1585 C1573 0.930 . S
H1586 C1574 0.956 . S
H1587 C1574 0.961 . S
H1588 C1574 0.961 . S
H1589 C1575 0.958 . S
H1590 C1575 0.961 . S
H1591 C1575 0.960 . S
C1592 C1593 1.420 . S
C1592 C1594 1.394 . S
C1592 H1608 0.931 . S
C1593 C1592 1.420 . S
C1593 C1597 1.358 1_545 S
C1594 C1592 1.394 . S
C1594 C1595 1.369 . S
C1594 C1598 1.531 . S
C1595 C1594 1.369 . S
C1595 C1596 1.436 . S
C1595 C1603 1.503 . S
C1596 C1595 1.436 . S
C1596 C1597 1.383 1_545 S
C1596 C1599 1.494 1_545 S
C1597 C1593 1.358 1_565 S
C1597 C1596 1.383 1_565 S
C1597 H1609 0.929 . S
C1598 C1594 1.531 . S
C1598 H1610 0.960 . S
C1598 H1611 0.962 . S
C1598 H1612 0.960 . S
C1599 C1596 1.494 1_565 S
C1599 H1613 0.961 . S
C1599 H1614 0.961 . S
C1599 H1615 0.961 . S
C1600 C1601 1.370 . S
C1600 C1602 1.363 . S
C1600 H1616 0.931 . S
C1601 C1600 1.370 . S
C1601 C1605 1.408 . S
C1602 C1600 1.363 . S
C1602 C1603 1.370 . S
C1602 C1606 1.524 . S
C1603 C1595 1.503 . S
C1603 C1602 1.370 . S
C1603 C1604 1.403 . S
C1604 C1603 1.403 . S
C1604 C1605 1.404 . S
C1604 C1607 1.539 . S
C1605 C1601 1.408 . S
C1605 C1604 1.404 . S
C1605 H1617 0.930 . S
C1606 C1602 1.524 . S
C1606 H1618 0.956 . S
C1606 H1619 0.957 . S
C1606 H1620 0.961 . S
C1607 C1604 1.539 . S
C1607 H1621 0.958 . S
C1607 H1622 0.961 . S
C1607 H1623 0.960 . S
H1608 C1592 0.931 . S
H1609 C1597 0.929 . S
H1610 C1598 0.960 . S
H1611 C1598 0.962 . S
H1612 C1598 0.960 . S
H1613 C1599 0.961 . S
H1614 C1599 0.961 . S
H1615 C1599 0.961 . S
H1616 C1600 0.931 . S
H1617 C1605 0.930 . S
H1618 C1606 0.956 . S
H1619 C1606 0.957 . S
H1620 C1606 0.961 . S
H1621 C1607 0.958 . S
H1622 C1607 0.961 . S
H1623 C1607 0.960 . S
C1624 C1625 1.391 . S
C1624 C1626 1.376 1_655 S
C1624 H1640 0.931 . S
C1625 C1624 1.391 . S
C1625 C1629 1.376 1_655 S
C1626 C1624 1.376 1_455 S
C1626 C1627 1.416 . S
C1626 C1630 1.502 1_455 S
C1627 C1626 1.416 . S
C1627 C1628 1.410 . S
C1627 C1635 1.503 . S
C1628 C1627 1.410 . S
C1628 C1629 1.392 . S
C1628 C1631 1.511 . S
C1629 C1625 1.376 1_455 S
C1629 C1628 1.392 . S
C1629 H1641 0.929 . S
C1630 C1626 1.502 1_655 S
C1630 H1642 0.960 . S
C1630 H1643 0.962 1_655 S
C1630 H1644 0.960 . S
C1631 C1628 1.511 . S
C1631 H1645 0.961 . S
C1631 H1646 0.961 . S
C1631 H1647 0.961 . S
C1632 C1633 1.370 . S
C1632 C1634 1.363 . S
C1632 H1648 0.931 . S
C1633 C1632 1.370 . S
C1633 C1637 1.408 . S
C1634 C1632 1.363 . S
C1634 C1635 1.370 . S
C1634 C1638 1.524 . S
C1635 C1627 1.503 . S
C1635 C1634 1.370 . S
C1635 C1636 1.403 . S
C1636 C1635 1.403 . S
C1636 C1637 1.404 . S
C1636 C1639 1.539 1_455 S
C1637 C1633 1.408 . S
C1637 C1636 1.404 . S
C1637 H1649 0.930 . S
C1638 C1634 1.524 . S
C1638 H1650 0.956 . S
C1638 H1651 0.961 . S
C1638 H1652 0.961 . S
C1639 C1636 1.539 1_655 S
C1639 H1653 0.958 . S
C1639 H1654 0.964 . S
C1639 H1655 0.960 . S
H1640 C1624 0.931 . S
H1641 C1629 0.929 . S
H1642 C1630 0.960 . S
H1643 C1630 0.962 1_455 S
H1644 C1630 0.960 . S
H1645 C1631 0.961 . S
H1646 C1631 0.961 . S
H1647 C1631 0.961 . S
H1648 C1632 0.931 . S
H1649 C1637 0.930 . S
H1650 C1638 0.956 . S
H1651 C1638 0.961 . S
H1652 C1638 0.961 . S
H1653 C1639 0.958 . S
H1654 C1639 0.964 . S
H1655 C1639 0.960 . S
C1656 C1657 1.391 . S
C1656 C1658 1.394 . S
C1656 H1672 0.931 . S
C1657 C1656 1.391 . S
C1657 C1661 1.376 . S
C1658 C1656 1.394 . S
C1658 C1659 1.369 . S
C1658 C1662 1.531 . S
C1659 C1658 1.369 . S
C1659 C1660 1.410 . S
C1659 C1667 1.503 1_554 S
C1660 C1659 1.410 . S
C1660 C1661 1.392 . S
C1660 C1663 1.511 . S
C1661 C1657 1.376 . S
C1661 C1660 1.392 . S
C1661 H1673 0.929 . S
C1662 C1658 1.531 . S
C1662 H1674 0.960 1_554 S
C1662 H1675 0.962 1_455 S
C1662 H1676 0.960 . S
C1663 C1660 1.511 . S
C1663 H1677 0.961 . S
C1663 H1678 0.904 1_554 S
C1663 H1679 0.961 . S
C1664 C1665 1.370 . S
C1664 C1666 1.363 . S
C1664 H1680 0.930 1_455 S
C1665 C1664 1.370 . S
C1665 C1669 1.408 . S
C1666 C1664 1.363 . S
C1666 C1667 1.370 . S
C1666 C1670 1.524 1_455 S
C1667 C1659 1.503 1_556 S
C1667 C1666 1.370 . S
C1667 C1668 1.403 . S
C1668 C1667 1.403 . S
C1668 C1669 1.404 . S
C1668 C1671 1.539 . S
C1669 C1665 1.408 . S
C1669 C1668 1.404 . S
C1669 H1681 0.930 . S
C1670 C1666 1.524 1_655 S
C1670 H1682 0.956 . S
C1670 H1683 1.005 . S
C1670 H1684 0.961 . S
C1671 C1668 1.539 . S
C1671 H1685 0.958 . S
C1671 H1686 0.961 . S
C1671 H1687 0.960 1_556 S
H1672 C1656 0.931 . S
H1673 C1661 0.929 . S
H1674 C1662 0.960 1_556 S
H1675 C1662 0.962 1_655 S
H1676 C1662 0.960 . S
H1677 C1663 0.961 . S
H1678 C1663 0.904 1_556 S
H1679 C1663 0.961 . S
H1680 C1664 0.930 1_655 S
H1681 C1669 0.930 . S
H1682 C1670 0.956 . S
H1683 C1670 1.005 . S
H1684 C1670 0.961 . S
H1685 C1671 0.958 . S
H1686 C1671 0.961 . S
H1687 C1671 0.960 1_554 S
C1688 C1689 1.391 . S
C1688 C1690 1.394 . S
C1688 H1704 0.931 . S
C1689 C1688 1.391 . S
C1689 C1693 1.376 . S
C1690 C1688 1.394 . S
C1690 C1691 1.369 . S
C1690 C1694 1.531 . S
C1691 C1690 1.369 . S
C1691 C1692 1.410 . S
C1691 C1699 1.503 1_556 S
C1692 C1691 1.410 . S
C1692 C1693 1.392 . S
C1692 C1695 1.511 . S
C1693 C1689 1.376 . S
C1693 C1692 1.392 . S
C1693 H1705 0.929 . S
C1694 C1690 1.531 . S
C1694 H1706 0.987 . S
C1694 H1707 0.962 . S
C1694 H1708 0.960 . S
C1695 C1692 1.511 . S
C1695 H1709 0.961 . S
C1695 H1710 0.961 1_556 S
C1695 H1711 0.961 . S
C1696 C1697 1.370 . S
C1696 C1698 1.363 . S
C1696 H1712 0.931 . S
C1697 C1696 1.370 . S
C1697 C1701 1.408 . S
C1698 C1696 1.363 . S
C1698 C1699 1.370 . S
C1698 C1702 1.524 . S
C1699 C1691 1.503 1_554 S
C1699 C1698 1.370 . S
C1699 C1700 1.403 . S
C1700 C1699 1.403 . S
C1700 C1701 1.404 . S
C1700 C1703 1.539 . S
C1701 C1697 1.408 . S
C1701 C1700 1.404 . S
C1701 H1713 0.930 . S
C1702 C1698 1.524 . S
C1702 H1714 0.918 1_554 S
C1702 H1715 0.961 1_554 S
C1702 H1716 0.961 . S
C1703 C1700 1.539 . S
C1703 H1717 0.958 . S
C1703 H1718 0.961 . S
C1703 H1719 0.960 . S
H1704 C1688 0.931 . S
H1705 C1693 0.929 . S
H1706 C1694 0.987 . S
H1707 C1694 0.962 . S
H1708 C1694 0.960 . S
H1709 C1695 0.961 . S
H1710 C1695 0.961 1_554 S
H1711 C1695 0.961 . S
H1712 C1696 0.931 . S
H1713 C1701 0.930 . S
H1714 C1702 0.918 1_556 S
H1715 C1702 0.961 1_556 S
H1716 C1702 0.961 . S
H1717 C1703 0.958 . S
H1718 C1703 0.961 . S
H1719 C1703 0.960 . S
C1720 C1721 1.391 . S
C1720 C1722 1.394 . S
C1720 H1736 0.931 . S
C1721 C1720 1.391 . S
C1721 C1725 1.376 . S
C1722 C1720 1.394 . S
C1722 C1723 1.369 . S
C1722 C1726 1.531 . S
C1723 C1722 1.369 . S
C1723 C1724 1.410 . S
C1723 C1731 1.503 1_556 S
C1724 C1723 1.410 . S
C1724 C1725 1.392 . S
C1724 C1727 1.511 . S
C1725 C1721 1.376 . S
C1725 C1724 1.392 . S
C1725 H1737 0.929 . S
C1726 C1722 1.531 . S
C1726 H1738 0.982 . S
C1726 H1739 0.962 . S
C1726 H1740 0.960 . S
C1727 C1724 1.511 . S
C1727 H1741 0.961 1_545 S
C1727 H1742 0.961 1_556 S
C1727 H1743 0.961 . S
C1728 C1729 1.370 . S
C1728 C1730 1.363 . S
C1728 H1744 0.931 . S
C1729 C1728 1.370 . S
C1729 C1733 1.408 . S
C1730 C1728 1.363 . S
C1730 C1731 1.370 . S
C1730 C1734 1.524 1_545 S
C1731 C1723 1.503 1_554 S
C1731 C1730 1.370 . S
C1731 C1732 1.403 . S
C1732 C1731 1.403 . S
C1732 C1733 1.404 . S
C1732 C1735 1.539 . S
C1733 C1729 1.408 . S
C1733 C1732 1.404 . S
C1733 H1745 0.930 . S
C1734 C1730 1.524 1_565 S
C1734 H1746 0.956 . S
C1734 H1747 0.961 . S
C1734 H1748 0.961 . S
C1735 C1732 1.539 . S
C1735 H1749 0.958 . S
C1735 H1750 0.961 . S
C1735 H1751 0.960 1_554 S
H1736 C1720 0.931 . S
H1737 C1725 0.929 . S
H1738 C1726 0.982 . S
H1739 C1726 0.962 . S
H1740 C1726 0.960 . S
H1741 C1727 0.961 1_565 S
H1742 C1727 0.961 1_554 S
H1743 C1727 0.961 . S
H1744 C1728 0.931 . S
H1745 C1733 0.930 . S
H1746 C1734 0.956 . S
H1747 C1734 0.961 . S
H1748 C1734 0.961 . S
H1749 C1735 0.958 . S
H1750 C1735 0.961 . S
H1751 C1735 0.960 1_556 S
C1752 C1753 1.391 . S
C1752 C1754 1.394 . S
C1752 H1768 0.931 . S
C1753 C1752 1.391 . S
C1753 C1757 1.376 . S
C1754 C1752 1.394 . S
C1754 C1755 1.369 . S
C1754 C1758 1.531 1_455 S
C1755 C1754 1.369 . S
C1755 C1756 1.410 . S
C1755 C1763 1.503 1_556 S
C1756 C1755 1.410 . S
C1756 C1757 1.392 . S
C1756 C1759 1.511 . S
C1757 C1753 1.376 . S
C1757 C1756 1.392 . S
C1757 H1769 0.929 . S
C1758 C1754 1.531 1_655 S
C1758 H1770 0.993 . S
C1758 H1771 0.962 1_655 S
C1758 H1772 0.960 . S
C1759 C1756 1.511 . S
C1759 H1773 0.961 . S
C1759 H1774 0.961 1_556 S
C1759 H1775 0.961 . S
C1760 C1761 1.370 . S
C1760 C1762 1.363 . S
C1760 H1776 0.931 . S
C1761 C1760 1.370 . S
C1761 C1765 1.408 . S
C1762 C1760 1.363 . S
C1762 C1763 1.370 . S
C1762 C1766 1.524 . S
C1763 C1755 1.503 1_554 S
C1763 C1762 1.370 . S
C1763 C1764 1.403 . S
C1764 C1763 1.403 . S
C1764 C1765 1.404 . S
C1764 C1767 1.539 1_455 S
C1765 C1761 1.408 . S
C1765 C1764 1.404 . S
C1765 H1777 0.930 1_455 S
C1766 C1762 1.524 . S
C1766 H1778 0.956 . S
C1766 H1779 0.961 . S
C1766 H1780 0.961 . S
C1767 C1764 1.539 1_655 S
C1767 H1781 0.958 . S
C1767 H1782 0.961 . S
C1767 H1783 0.960 1_554 S
H1768 C1752 0.931 . S
H1769 C1757 0.929 . S
H1770 C1758 0.993 . S
H1771 C1758 0.962 1_455 S
H1772 C1758 0.960 . S
H1773 C1759 0.961 . S
H1774 C1759 0.961 1_554 S
H1775 C1759 0.961 . S
H1776 C1760 0.931 . S
H1777 C1765 0.930 1_655 S
H1778 C1766 0.956 . S
H1779 C1766 0.961 . S
H1780 C1766 0.961 . S
H1781 C1767 0.958 . S
H1782 C1767 0.961 . S
H1783 C1767 0.960 1_556 S
C1784 C1785 1.391 . S
C1784 C1786 1.394 . S
C1784 H1800 0.931 . S
C1785 C1784 1.391 . S
C1785 C1789 1.376 . S
C1786 C1784 1.394 . S
C1786 C1787 1.369 . S
C1786 C1790 1.531 . S
C1787 C1786 1.369 . S
C1787 C1788 1.410 . S
C1787 C1795 1.503 1_554 S
C1788 C1787 1.410 . S
C1788 C1789 1.392 . S
C1788 C1791 1.511 . S
C1789 C1785 1.376 . S
C1789 C1788 1.392 . S
C1789 H1801 0.929 . S
C1790 C1786 1.531 . S
C1790 H1802 0.960 1_554 S
C1790 H1803 0.962 . S
C1790 H1804 0.960 . S
C1791 C1788 1.511 . S
C1791 H1805 0.961 . S
C1791 H1806 1.007 . S
C1791 H1807 0.961 . S
C1792 C1793 1.370 . S
C1792 C1794 1.363 . S
C1792 H1808 0.931 . S
C1793 C1792 1.370 . S
C1793 C1797 1.408 . S
C1794 C1792 1.363 . S
C1794 C1795 1.370 . S
C1794 C1798 1.524 . S
C1795 C1787 1.503 1_556 S
C1795 C1794 1.370 . S
C1795 C1796 1.403 . S
C1796 C1795 1.403 . S
C1796 C1797 1.404 . S
C1796 C1799 1.539 . S
C1797 C1793 1.408 . S
C1797 C1796 1.404 . S
C1797 H1809 0.930 . S
C1798 C1794 1.524 . S
C1798 H1810 0.956 . S
C1798 H1811 0.961 1_556 S
C1798 H1812 0.961 . S
C1799 C1796 1.539 . S
C1799 H1813 0.958 . S
C1799 H1814 0.961 . S
C1799 H1815 0.967 . S
H1800 C1784 0.931 . S
H1801 C1789 0.929 . S
H1802 C1790 0.960 1_556 S
H1803 C1790 0.962 . S
H1804 C1790 0.960 . S
H1805 C1791 0.961 . S
H1806 C1791 1.007 . S
H1807 C1791 0.961 . S
H1808 C1792 0.931 . S
H1809 C1797 0.930 . S
H1810 C1798 0.956 . S
H1811 C1798 0.961 1_554 S
H1812 C1798 0.961 . S
H1813 C1799 0.958 . S
H1814 C1799 0.961 . S
H1815 C1799 0.967 . S
C1816 C1817 1.391 . S
C1816 C1818 1.394 . S
C1816 H1832 0.931 . S
C1817 C1816 1.391 . S
C1817 C1821 1.376 . S
C1818 C1816 1.394 . S
C1818 C1819 1.369 . S
C1818 C1822 1.531 . S
C1819 C1818 1.369 . S
C1819 C1820 1.410 . S
C1819 C1827 1.503 1_556 S
C1820 C1819 1.410 . S
C1820 C1821 1.392 . S
C1820 C1823 1.511 . S
C1821 C1817 1.376 . S
C1821 C1820 1.392 . S
C1821 H1833 0.929 . S
C1822 C1818 1.531 . S
C1822 H1834 0.960 1_556 S
C1822 H1835 0.962 . S
C1822 H1836 0.960 . S
C1823 C1820 1.511 . S
C1823 H1837 0.961 . S
C1823 H1838 0.961 1_556 S
C1823 H1839 0.961 1_545 S
C1824 C1825 1.370 . S
C1824 C1826 1.363 . S
C1824 H1840 0.931 . S
C1825 C1824 1.370 . S
C1825 C1829 1.408 . S
C1826 C1824 1.363 . S
C1826 C1827 1.370 . S
C1826 C1830 1.524 . S
C1827 C1819 1.503 1_554 S
C1827 C1826 1.370 . S
C1827 C1828 1.403 . S
C1828 C1827 1.403 . S
C1828 C1829 1.404 . S
C1828 C1831 1.539 1_545 S
C1829 C1825 1.408 . S
C1829 C1828 1.404 . S
C1829 H1841 0.930 1_545 S
C1830 C1826 1.524 . S
C1830 H1842 0.956 1_554 S
C1830 H1843 0.961 1_554 S
C1830 H1844 0.961 . S
C1831 C1828 1.539 1_565 S
C1831 H1845 0.958 . S
C1831 H1846 0.961 . S
C1831 H1847 0.960 . S
H1832 C1816 0.931 . S
H1833 C1821 0.929 . S
H1834 C1822 0.960 1_554 S
H1835 C1822 0.962 . S
H1836 C1822 0.960 . S
H1837 C1823 0.961 . S
H1838 C1823 0.961 1_554 S
H1839 C1823 0.961 1_565 S
H1840 C1824 0.931 . S
H1841 C1829 0.930 1_565 S
H1842 C1830 0.956 1_556 S
H1843 C1830 0.961 1_556 S
H1844 C1830 0.961 . S
H1845 C1831 0.958 . S
H1846 C1831 0.961 . S
H1847 C1831 0.960 . S
C1848 C1849 1.391 . S
C1848 C1850 1.394 . S
C1848 H1864 0.931 . S
C1849 C1848 1.391 . S
C1849 C1853 1.376 . S
C1850 C1848 1.394 . S
C1850 C1851 1.369 . S
C1850 C1854 1.531 . S
C1851 C1850 1.369 . S
C1851 C1852 1.410 . S
C1851 C1859 1.503 . S
C1852 C1851 1.410 . S
C1852 C1853 1.392 . S
C1852 C1855 1.511 . S
C1853 C1849 1.376 . S
C1853 C1852 1.392 . S
C1853 H1865 0.929 . S
C1854 C1850 1.531 . S
C1854 H1866 0.960 . S
C1854 H1867 0.962 . S
C1854 H1868 0.960 . S
C1855 C1852 1.511 . S
C1855 H1869 0.961 . S
C1855 H1870 0.961 . S
C1855 H1871 0.961 . S
C1856 C1857 1.370 . S
C1856 C1858 1.363 . S
C1856 H1872 0.931 . S
C1857 C1856 1.370 . S
C1857 C1861 1.408 . S
C1858 C1856 1.363 . S
C1858 C1859 1.370 . S
C1858 C1862 1.524 . S
C1859 C1851 1.503 . S
C1859 C1858 1.370 . S
C1859 C1860 1.403 . S
C1860 C1859 1.403 . S
C1860 C1861 1.404 . S
C1860 C1863 1.539 . S
C1861 C1857 1.408 . S
C1861 C1860 1.404 . S
C1861 H1873 0.930 . S
C1862 C1858 1.524 . S
C1862 H1874 0.956 . S
C1862 H1875 0.961 . S
C1862 H1876 0.961 . S
C1863 C1860 1.539 . S
C1863 H1877 0.958 . S
C1863 H1878 0.961 . S
C1863 H1879 0.960 . S
H1864 C1848 0.931 . S
H1865 C1853 0.929 . S
H1866 C1854 0.960 . S
H1867 C1854 0.962 . S
H1868 C1854 0.960 . S
H1869 C1855 0.961 . S
H1870 C1855 0.961 . S
H1871 C1855 0.961 . S
H1872 C1856 0.931 . S
H1873 C1861 0.930 . S
H1874 C1862 0.956 . S
H1875 C1862 0.961 . S
H1876 C1862 0.961 . S
H1877 C1863 0.958 . S
H1878 C1863 0.961 . S
H1879 C1863 0.960 . S
C1880 C1881 1.391 . S
C1880 C1882 1.394 . S
C1880 H1896 0.931 . S
C1881 C1880 1.391 . S
C1881 C1885 1.376 . S
C1882 C1880 1.394 . S
C1882 C1883 1.369 . S
C1882 C1886 1.531 . S
C1883 C1882 1.369 . S
C1883 C1884 1.410 . S
C1883 C1891 1.503 . S
C1884 C1883 1.410 . S
C1884 C1885 1.392 . S
C1884 C1887 1.511 . S
C1885 C1881 1.376 . S
C1885 C1884 1.392 . S
C1885 H1897 0.929 . S
C1886 C1882 1.531 . S
C1886 H1898 0.960 . S
C1886 H1899 0.962 . S
C1886 H1900 0.960 . S
C1887 C1884 1.511 . S
C1887 H1901 0.961 . S
C1887 H1902 0.961 . S
C1887 H1903 0.961 . S
C1888 C1889 1.370 . S
C1888 C1890 1.363 . S
C1888 H1904 0.931 . S
C1889 C1888 1.370 . S
C1889 C1893 1.408 . S
C1890 C1888 1.363 . S
C1890 C1891 1.370 . S
C1890 C1894 1.524 . S
C1891 C1883 1.503 . S
C1891 C1890 1.370 . S
C1891 C1892 1.403 . S
C1892 C1891 1.403 . S
C1892 C1893 1.404 . S
C1892 C1895 1.539 . S
C1893 C1889 1.408 . S
C1893 C1892 1.404 . S
C1893 H1905 0.930 . S
C1894 C1890 1.524 . S
C1894 H1906 0.956 . S
C1894 H1907 0.961 . S
C1894 H1908 0.961 . S
C1895 C1892 1.539 . S
C1895 H1909 0.958 . S
C1895 H1910 0.961 . S
C1895 H1911 0.960 . S
H1896 C1880 0.931 . S
H1897 C1885 0.929 . S
H1898 C1886 0.960 . S
H1899 C1886 0.962 . S
H1900 C1886 0.960 . S
H1901 C1887 0.961 . S
H1902 C1887 0.961 . S
H1903 C1887 0.961 . S
H1904 C1888 0.931 . S
H1905 C1893 0.930 . S
H1906 C1894 0.956 . S
H1907 C1894 0.961 . S
H1908 C1894 0.961 . S
H1909 C1895 0.958 . S
H1910 C1895 0.961 . S
H1911 C1895 0.960 . S
C1912 C1913 1.391 . S
C1912 C1914 1.394 . S
C1912 H1928 0.931 . S
C1913 C1912 1.391 . S
C1913 C1917 1.376 . S
C1914 C1912 1.394 . S
C1914 C1915 1.369 . S
C1914 C1918 1.531 . S
C1915 C1914 1.369 . S
C1915 C1916 1.410 . S
C1915 C1923 1.503 . S
C1916 C1915 1.410 . S
C1916 C1917 1.392 . S
C1916 C1919 1.511 . S
C1917 C1913 1.376 . S
C1917 C1916 1.392 . S
C1917 H1929 0.929 . S
C1918 C1914 1.531 . S
C1918 H1930 0.960 . S
C1918 H1931 0.962 . S
C1918 H1932 0.960 . S
C1919 C1916 1.511 . S
C1919 H1933 0.961 . S
C1919 H1934 0.961 . S
C1919 H1935 0.961 . S
C1920 C1921 1.370 . S
C1920 C1922 1.363 . S
C1920 H1936 0.931 . S
C1921 C1920 1.370 . S
C1921 C1925 1.408 . S
C1922 C1920 1.363 . S
C1922 C1923 1.370 . S
C1922 C1926 1.524 . S
C1923 C1915 1.503 . S
C1923 C1922 1.370 . S
C1923 C1924 1.403 . S
C1924 C1923 1.403 . S
C1924 C1925 1.404 . S
C1924 C1927 1.539 . S
C1925 C1921 1.408 . S
C1925 C1924 1.404 . S
C1925 H1937 0.930 . S
C1926 C1922 1.524 . S
C1926 H1938 0.960 . S
C1926 H1939 0.961 . S
C1926 H1940 0.961 1_655 S
C1927 C1924 1.539 . S
C1927 H1941 0.958 . S
C1927 H1942 0.961 . S
C1927 H1943 0.960 . S
H1928 C1912 0.931 . S
H1929 C1917 0.929 . S
H1930 C1918 0.960 . S
H1931 C1918 0.962 . S
H1932 C1918 0.960 . S
H1933 C1919 0.961 . S
H1934 C1919 0.961 . S
H1935 C1919 0.961 . S
H1936 C1920 0.931 . S
H1937 C1925 0.930 . S
H1938 C1926 0.960 . S
H1939 C1926 0.961 . S
H1940 C1926 0.961 1_455 S
H1941 C1927 0.958 . S
H1942 C1927 0.961 . S
H1943 C1927 0.960 . S
C1944 C1945 1.391 . S
C1944 C1946 1.394 . S
C1944 H1960 0.931 . S
C1945 C1944 1.391 . S
C1945 C1949 1.376 . S
C1946 C1944 1.394 . S
C1946 C1947 1.369 . S
C1946 C1950 1.531 . S
C1947 C1946 1.369 . S
C1947 C1948 1.410 . S
C1947 C1955 1.503 . S
C1948 C1947 1.410 . S
C1948 C1949 1.392 . S
C1948 C1951 1.511 . S
C1949 C1945 1.376 . S
C1949 C1948 1.392 . S
C1949 H1961 0.929 . S
C1950 C1946 1.531 . S
C1950 H1962 0.960 . S
C1950 H1963 0.962 . S
C1950 H1964 0.960 . S
C1951 C1948 1.511 . S
C1951 H1965 0.961 . S
C1951 H1966 0.961 . S
C1951 H1967 0.961 . S
C1952 C1953 1.370 . S
C1952 C1954 1.363 . S
C1952 H1968 0.931 . S
C1953 C1952 1.370 . S
C1953 C1957 1.408 . S
C1954 C1952 1.363 . S
C1954 C1955 1.370 . S
C1954 C1958 1.524 . S
C1955 C1947 1.503 . S
C1955 C1954 1.370 . S
C1955 C1956 1.403 . S
C1956 C1955 1.403 . S
C1956 C1957 1.404 . S
C1956 C1959 1.539 . S
C1957 C1953 1.408 . S
C1957 C1956 1.404 . S
C1957 H1969 0.930 . S
C1958 C1954 1.524 . S
C1958 H1970 0.956 . S
C1958 H1971 0.961 . S
C1958 H1972 0.961 . S
C1959 C1956 1.539 . S
C1959 H1973 0.958 . S
C1959 H1974 0.961 . S
C1959 H1975 0.960 . S
H1960 C1944 0.931 . S
H1961 C1949 0.929 . S
H1962 C1950 0.960 . S
H1963 C1950 0.962 . S
H1964 C1950 0.960 . S
H1965 C1951 0.961 . S
H1966 C1951 0.961 . S
H1967 C1951 0.961 . S
H1968 C1952 0.931 . S
H1969 C1957 0.930 . S
H1970 C1958 0.956 . S
H1971 C1958 0.961 . S
H1972 C1958 0.961 . S
H1973 C1959 0.958 . S
H1974 C1959 0.961 . S
H1975 C1959 0.960 . S
C1976 C1977 1.391 . S
C1976 C1978 1.394 . S
C1976 H1992 0.931 . S
C1977 C1976 1.391 . S
C1977 C1981 1.376 . S
C1978 C1976 1.394 . S
C1978 C1979 1.369 . S
C1978 C1982 1.531 . S
C1979 C1978 1.369 . S
C1979 C1980 1.410 . S
C1979 C1987 1.503 . S
C1980 C1979 1.410 . S
C1980 C1981 1.392 . S
C1980 C1983 1.511 . S
C1981 C1977 1.376 . S
C1981 C1980 1.392 . S
C1981 H1993 0.929 . S
C1982 C1978 1.531 . S
C1982 H1994 0.960 . S
C1982 H1995 0.962 . S
C1982 H1996 0.960 1_655 S
C1983 C1980 1.511 . S
C1983 H1997 0.961 . S
C1983 H1998 0.961 . S
C1983 H1999 0.961 . S
C1984 C1985 1.370 . S
C1984 C1986 1.363 . S
C1984 H2000 0.931 . S
C1985 C1984 1.370 . S
C1985 C1989 1.408 . S
C1986 C1984 1.363 . S
C1986 C1987 1.370 . S
C1986 C1990 1.524 . S
C1987 C1979 1.503 . S
C1987 C1986 1.370 . S
C1987 C1988 1.403 . S
C1988 C1987 1.403 . S
C1988 C1989 1.404 . S
C1988 C1991 1.539 . S
C1989 C1985 1.408 . S
C1989 C1988 1.404 . S
C1989 H2001 0.930 . S
C1990 C1986 1.524 . S
C1990 H2002 0.956 . S
C1990 H2003 0.961 . S
C1990 H2004 0.961 . S
C1991 C1988 1.539 . S
C1991 H2005 0.958 1_655 S
C1991 H2006 0.961 . S
C1991 H2007 0.960 . S
H1992 C1976 0.931 . S
H1993 C1981 0.929 . S
H1994 C1982 0.960 . S
H1995 C1982 0.962 . S
H1996 C1982 0.960 1_455 S
H1997 C1983 0.961 . S
H1998 C1983 0.961 . S
H1999 C1983 0.961 . S
H2000 C1984 0.931 . S
H2001 C1989 0.930 . S
H2002 C1990 0.956 . S
H2003 C1990 0.961 . S
H2004 C1990 0.961 . S
H2005 C1991 0.958 1_455 S
H2006 C1991 0.961 . S
H2007 C1991 0.960 . S
C2008 C2009 1.391 . S
C2008 C2010 1.394 . S
C2008 H2024 0.931 . S
C2009 C2008 1.391 . S
C2009 C2013 1.376 . S
C2010 C2008 1.394 . S
C2010 C2011 1.369 . S
C2010 C2014 1.531 . S
C2011 C2010 1.369 . S
C2011 C2012 1.410 . S
C2011 C2019 1.503 . S
C2012 C2011 1.410 . S
C2012 C2013 1.392 . S
C2012 C2015 1.511 . S
C2013 C2009 1.376 . S
C2013 C2012 1.392 . S
C2013 H2025 0.929 . S
C2014 C2010 1.531 . S
C2014 H2026 0.960 . S
C2014 H2027 0.962 . S
C2014 H2028 0.960 . S
C2015 C2012 1.511 . S
C2015 H2029 0.961 . S
C2015 H2030 0.961 . S
C2015 H2031 0.961 . S
C2016 C2017 1.370 . S
C2016 C2018 1.363 . S
C2016 H2032 0.931 . S
C2017 C2016 1.370 . S
C2017 C2021 1.408 . S
C2018 C2016 1.363 . S
C2018 C2019 1.370 . S
C2018 C2022 1.524 . S
C2019 C2011 1.503 . S
C2019 C2018 1.370 . S
C2019 C2020 1.403 . S
C2020 C2019 1.403 . S
C2020 C2021 1.404 . S
C2020 C2023 1.539 . S
C2021 C2017 1.408 . S
C2021 C2020 1.404 . S
C2021 H2033 0.930 . S
C2022 C2018 1.524 . S
C2022 H2034 0.956 . S
C2022 H2035 0.961 . S
C2022 H2036 0.961 . S
C2023 C2020 1.539 . S
C2023 H2037 0.958 . S
C2023 H2038 0.961 . S
C2023 H2039 0.960 . S
H2024 C2008 0.931 . S
H2025 C2013 0.929 . S
H2026 C2014 0.960 . S
H2027 C2014 0.962 . S
H2028 C2014 0.960 . S
H2029 C2015 0.961 . S
H2030 C2015 0.961 . S
H2031 C2015 0.961 . S
H2032 C2016 0.931 . S
H2033 C2021 0.930 . S
H2034 C2022 0.956 . S
H2035 C2022 0.961 . S
H2036 C2022 0.961 . S
H2037 C2023 0.958 . S
H2038 C2023 0.961 . S
H2039 C2023 0.960 . S
C2040 C2041 1.391 . S
C2040 C2042 1.394 . S
C2040 H2056 0.931 . S
C2041 C2040 1.391 . S
C2041 C2045 1.376 . S
C2042 C2040 1.394 . S
C2042 C2043 1.369 . S
C2042 C2046 1.531 . S
C2043 C2042 1.369 . S
C2043 C2044 1.410 . S
C2043 C2051 1.503 . S
C2044 C2043 1.410 . S
C2044 C2045 1.392 . S
C2044 C2047 1.511 . S
C2045 C2041 1.376 . S
C2045 C2044 1.392 . S
C2045 H2057 0.929 . S
C2046 C2042 1.531 . S
C2046 H2058 0.960 . S
C2046 H2059 0.962 . S
C2046 H2060 0.960 . S
C2047 C2044 1.511 . S
C2047 H2061 0.961 . S
C2047 H2062 0.961 . S
C2047 H2063 0.961 . S
C2048 C2049 1.370 . S
C2048 C2050 1.363 . S
C2048 H2064 0.931 . S
C2049 C2048 1.370 . S
C2049 C2053 1.408 . S
C2050 C2048 1.363 . S
C2050 C2051 1.370 . S
C2050 C2054 1.524 . S
C2051 C2043 1.503 . S
C2051 C2050 1.370 . S
C2051 C2052 1.403 . S
C2052 C2051 1.403 . S
C2052 C2053 1.404 . S
C2052 C2055 1.539 . S
C2053 C2049 1.408 . S
C2053 C2052 1.404 . S
C2053 H2065 0.930 . S
C2054 C2050 1.524 . S
C2054 H2066 0.956 . S
C2054 H2067 0.961 . S
C2054 H2068 0.961 1_565 S
C2055 C2052 1.539 . S
C2055 H2069 0.958 . S
C2055 H2070 0.961 . S
C2055 H2071 0.960 . S
H2056 C2040 0.931 . S
H2057 C2045 0.929 . S
H2058 C2046 0.960 . S
H2059 C2046 0.962 . S
H2060 C2046 0.960 . S
H2061 C2047 0.961 . S
H2062 C2047 0.961 . S
H2063 C2047 0.961 . S
H2064 C2048 0.931 . S
H2065 C2053 0.930 . S
H2066 C2054 0.956 . S
H2067 C2054 0.961 . S
H2068 C2054 0.961 1_545 S
H2069 C2055 0.958 . S
H2070 C2055 0.961 . S
H2071 C2055 0.960 . S
C2072 C2073 1.391 . S
C2072 C2074 1.394 . S
C2072 H2088 0.931 . S
C2073 C2072 1.391 . S
C2073 C2077 1.376 . S
C2074 C2072 1.394 . S
C2074 C2075 1.369 . S
C2074 C2078 1.531 . S
C2075 C2074 1.369 . S
C2075 C2076 1.410 . S
C2075 C2083 1.503 . S
C2076 C2075 1.410 . S
C2076 C2077 1.392 . S
C2076 C2079 1.511 . S
C2077 C2073 1.376 . S
C2077 C2076 1.392 . S
C2077 H2089 0.929 . S
C2078 C2074 1.531 . S
C2078 H2090 0.960 . S
C2078 H2091 0.962 . S
C2078 H2092 0.960 . S
C2079 C2076 1.511 . S
C2079 H2093 0.961 . S
C2079 H2094 0.961 . S
C2079 H2095 0.961 . S
C2080 C2081 1.370 . S
C2080 C2082 1.363 . S
C2080 H2096 0.931 . S
C2081 C2080 1.370 . S
C2081 C2085 1.408 . S
C2082 C2080 1.363 . S
C2082 C2083 1.370 . S
C2082 C2086 1.524 . S
C2083 C2075 1.503 . S
C2083 C2082 1.370 . S
C2083 C2084 1.403 . S
C2084 C2083 1.403 . S
C2084 C2085 1.404 . S
C2084 C2087 1.539 . S
C2085 C2081 1.408 . S
C2085 C2084 1.404 . S
C2085 H2097 0.930 . S
C2086 C2082 1.524 . S
C2086 H2098 0.956 . S
C2086 H2099 0.961 . S
C2086 H2100 0.961 . S
C2087 C2084 1.539 . S
C2087 H2101 0.958 . S
C2087 H2102 0.961 . S
C2087 H2103 0.960 . S
H2088 C2072 0.931 . S
H2089 C2077 0.929 . S
H2090 C2078 0.960 . S
H2091 C2078 0.962 . S
H2092 C2078 0.960 . S
H2093 C2079 0.961 . S
H2094 C2079 0.961 . S
H2095 C2079 0.961 . S
H2096 C2080 0.931 . S
H2097 C2085 0.930 . S
H2098 C2086 0.956 . S
H2099 C2086 0.961 . S
H2100 C2086 0.961 . S
H2101 C2087 0.958 . S
H2102 C2087 0.961 . S
H2103 C2087 0.960 . S
C2104 C2105 1.391 . S
C2104 C2106 1.394 . S
C2104 H2120 0.931 . S
C2105 C2104 1.391 . S
C2105 C2109 1.376 . S
C2106 C2104 1.394 . S
C2106 C2107 1.369 . S
C2106 C2110 1.531 . S
C2107 C2106 1.369 . S
C2107 C2108 1.410 . S
C2107 C2115 1.503 . S
C2108 C2107 1.410 . S
C2108 C2109 1.392 . S
C2108 C2111 1.511 . S
C2109 C2105 1.376 . S
C2109 C2108 1.392 . S
C2109 H2121 0.929 . S
C2110 C2106 1.531 . S
C2110 H2122 0.960 . S
C2110 H2123 0.962 . S
C2110 H2124 0.960 . S
C2111 C2108 1.511 . S
C2111 H2125 0.961 . S
C2111 H2126 0.961 . S
C2111 H2127 0.961 . S
C2112 C2113 1.370 . S
C2112 C2114 1.363 . S
C2112 H2128 0.931 . S
C2113 C2112 1.370 . S
C2113 C2117 1.408 . S
C2114 C2112 1.363 . S
C2114 C2115 1.370 . S
C2114 C2118 1.524 . S
C2115 C2107 1.503 . S
C2115 C2114 1.370 . S
C2115 C2116 1.403 . S
C2116 C2115 1.403 . S
C2116 C2117 1.404 . S
C2116 C2119 1.539 . S
C2117 C2113 1.408 . S
C2117 C2116 1.404 . S
C2117 H2129 0.930 . S
C2118 C2114 1.524 . S
C2118 H2130 0.956 . S
C2118 H2131 0.961 . S
C2118 H2132 0.961 . S
C2119 C2116 1.539 . S
C2119 H2133 0.958 . S
C2119 H2134 0.961 . S
C2119 H2135 0.960 . S
H2120 C2104 0.931 . S
H2121 C2109 0.929 . S
H2122 C2110 0.960 . S
H2123 C2110 0.962 . S
H2124 C2110 0.960 . S
H2125 C2111 0.961 . S
H2126 C2111 0.961 . S
H2127 C2111 0.961 . S
H2128 C2112 0.931 . S
H2129 C2117 0.930 . S
H2130 C2118 0.956 . S
H2131 C2118 0.961 . S
H2132 C2118 0.961 . S
H2133 C2119 0.958 . S
H2134 C2119 0.961 . S
H2135 C2119 0.960 . S
C2136 C2137 1.391 . S
C2136 C2138 1.394 . S
C2136 H2152 0.931 . S
C2137 C2136 1.391 . S
C2137 C2141 1.376 . S
C2138 C2136 1.394 . S
C2138 C2139 1.369 . S
C2138 C2142 1.531 . S
C2139 C2138 1.369 . S
C2139 C2140 1.410 . S
C2139 C2147 1.503 . S
C2140 C2139 1.410 . S
C2140 C2141 1.392 . S
C2140 C2143 1.511 . S
C2141 C2137 1.376 . S
C2141 C2140 1.392 . S
C2141 H2153 0.929 . S
C2142 C2138 1.531 . S
C2142 H2154 0.960 . S
C2142 H2155 0.962 . S
C2142 H2156 0.960 . S
C2143 C2140 1.511 . S
C2143 H2157 0.961 . S
C2143 H2158 0.961 . S
C2143 H2159 0.961 . S
C2144 C2145 1.370 . S
C2144 C2146 1.363 . S
C2144 H2160 0.931 . S
C2145 C2144 1.370 . S
C2145 C2149 1.408 . S
C2146 C2144 1.363 . S
C2146 C2147 1.370 . S
C2146 C2150 1.524 . S
C2147 C2139 1.503 . S
C2147 C2146 1.370 . S
C2147 C2148 1.403 . S
C2148 C2147 1.403 . S
C2148 C2149 1.404 . S
C2148 C2151 1.539 . S
C2149 C2145 1.408 . S
C2149 C2148 1.404 . S
C2149 H2161 0.930 . S
C2150 C2146 1.524 . S
C2150 H2162 0.956 . S
C2150 H2163 0.961 . S
C2150 H2164 0.961 . S
C2151 C2148 1.539 . S
C2151 H2165 0.958 . S
C2151 H2166 0.961 . S
C2151 H2167 0.960 . S
H2152 C2136 0.931 . S
H2153 C2141 0.929 . S
H2154 C2142 0.960 . S
H2155 C2142 0.962 . S
H2156 C2142 0.960 . S
H2157 C2143 0.961 . S
H2158 C2143 0.961 . S
H2159 C2143 0.961 . S
H2160 C2144 0.931 . S
H2161 C2149 0.930 . S
H2162 C2150 0.956 . S
H2163 C2150 0.961 . S
H2164 C2150 0.961 . S
H2165 C2151 0.958 . S
H2166 C2151 0.961 . S
H2167 C2151 0.960 . S
C2168 C2169 1.391 . S
C2168 C2170 1.394 . S
C2168 H2184 0.931 . S
C2169 C2168 1.391 . S
C2169 C2173 1.376 . S
C2170 C2168 1.394 . S
C2170 C2171 1.369 . S
C2170 C2174 1.531 . S
C2171 C2170 1.369 . S
C2171 C2172 1.410 . S
C2171 C2179 1.503 . S
C2172 C2171 1.410 . S
C2172 C2173 1.392 . S
C2172 C2175 1.511 . S
C2173 C2169 1.376 . S
C2173 C2172 1.392 . S
C2173 H2185 0.929 . S
C2174 C2170 1.531 . S
C2174 H2186 0.960 . S
C2174 H2187 0.962 . S
C2174 H2188 0.960 . S
C2175 C2172 1.511 . S
C2175 H2189 0.961 . S
C2175 H2190 0.961 . S
C2175 H2191 0.961 . S
C2176 C2177 1.370 . S
C2176 C2178 1.363 . S
C2176 H2192 0.931 . S
C2177 C2176 1.370 . S
C2177 C2181 1.408 . S
C2178 C2176 1.363 . S
C2178 C2179 1.370 . S
C2178 C2182 1.524 . S
C2179 C2171 1.503 . S
C2179 C2178 1.370 . S
C2179 C2180 1.403 . S
C2180 C2179 1.403 . S
C2180 C2181 1.404 . S
C2180 C2183 1.539 . S
C2181 C2177 1.408 . S
C2181 C2180 1.404 . S
C2181 H2193 0.930 . S
C2182 C2178 1.524 . S
C2182 H2194 0.956 . S
C2182 H2195 0.961 . S
C2182 H2196 0.961 1_565 S
C2183 C2180 1.539 . S
C2183 H2197 0.958 . S
C2183 H2198 0.961 . S
C2183 H2199 0.960 . S
H2184 C2168 0.931 . S
H2185 C2173 0.929 . S
H2186 C2174 0.960 . S
H2187 C2174 0.962 . S
H2188 C2174 0.960 . S
H2189 C2175 0.961 . S
H2190 C2175 0.961 . S
H2191 C2175 0.961 . S
H2192 C2176 0.931 . S
H2193 C2181 0.930 . S
H2194 C2182 0.956 . S
H2195 C2182 0.961 . S
H2196 C2182 0.961 1_545 S
H2197 C2183 0.958 . S
H2198 C2183 0.961 . S
H2199 C2183 0.960 . S
C2200 C2201 1.391 . S
C2200 C2202 1.394 . S
C2200 H2216 0.931 . S
C2201 C2200 1.391 . S
C2201 C2205 1.376 . S
C2202 C2200 1.394 . S
C2202 C2203 1.369 . S
C2202 C2206 1.531 . S
C2203 C2202 1.369 . S
C2203 C2204 1.410 . S
C2203 C2211 1.503 . S
C2204 C2203 1.410 . S
C2204 C2205 1.392 . S
C2204 C2207 1.511 . S
C2205 C2201 1.376 . S
C2205 C2204 1.392 . S
C2205 H2217 0.929 . S
C2206 C2202 1.531 . S
C2206 H2218 0.960 . S
C2206 H2219 0.962 . S
C2206 H2220 0.960 . S
C2207 C2204 1.511 . S
C2207 H2221 0.961 . S
C2207 H2222 0.961 . S
C2207 H2223 0.961 . S
C2208 C2209 1.370 . S
C2208 C2210 1.363 . S
C2208 H2224 0.931 . S
C2209 C2208 1.370 . S
C2209 C2213 1.408 . S
C2210 C2208 1.363 . S
C2210 C2211 1.370 . S
C2210 C2214 1.524 . S
C2211 C2203 1.503 . S
C2211 C2210 1.370 . S
C2211 C2212 1.403 . S
C2212 C2211 1.403 . S
C2212 C2213 1.404 . S
C2212 C2215 1.539 . S
C2213 C2209 1.408 . S
C2213 C2212 1.404 . S
C2213 H2225 0.930 . S
C2214 C2210 1.524 . S
C2214 H2226 0.956 . S
C2214 H2227 0.961 . S
C2214 H2228 0.961 . S
C2215 C2212 1.539 . S
C2215 H2229 0.958 . S
C2215 H2230 0.961 . S
C2215 H2231 0.960 . S
H2216 C2200 0.931 . S
H2217 C2205 0.929 . S
H2218 C2206 0.960 . S
H2219 C2206 0.962 . S
H2220 C2206 0.960 . S
H2221 C2207 0.961 . S
H2222 C2207 0.961 . S
H2223 C2207 0.961 . S
H2224 C2208 0.931 . S
H2225 C2213 0.930 . S
H2226 C2214 0.956 . S
H2227 C2214 0.961 . S
H2228 C2214 0.961 . S
H2229 C2215 0.958 . S
H2230 C2215 0.961 . S
H2231 C2215 0.960 . S
C2232 C2233 1.391 . S
C2232 C2234 1.394 . S
C2232 H2248 0.931 . S
C2233 C2232 1.391 . S
C2233 C2237 1.376 . S
C2234 C2232 1.394 . S
C2234 C2235 1.369 . S
C2234 C2238 1.531 . S
C2235 C2234 1.369 . S
C2235 C2236 1.410 . S
C2235 C2243 1.503 . S
C2236 C2235 1.410 . S
C2236 C2237 1.392 . S
C2236 C2239 1.511 . S
C2237 C2233 1.376 . S
C2237 C2236 1.392 . S
C2237 H2249 0.929 . S
C2238 C2234 1.531 . S
C2238 H2250 0.960 . S
C2238 H2251 0.962 . S
C2238 H2252 0.960 . S
C2239 C2236 1.511 . S
C2239 H2253 0.961 . S
C2239 H2254 0.961 . S
C2239 H2255 0.961 . S
C2240 C2241 1.370 . S
C2240 C2242 1.363 . S
C2240 H2256 0.931 . S
C2241 C2240 1.370 . S
C2241 C2245 1.408 . S
C2242 C2240 1.363 . S
C2242 C2243 1.370 . S
C2242 C2246 1.524 . S
C2243 C2235 1.503 . S
C2243 C2242 1.370 . S
C2243 C2244 1.403 . S
C2244 C2243 1.403 . S
C2244 C2245 1.404 . S
C2244 C2247 1.539 . S
C2245 C2241 1.408 . S
C2245 C2244 1.404 . S
C2245 H2257 0.930 . S
C2246 C2242 1.524 . S
C2246 H2258 0.956 . S
C2246 H2259 0.961 . S
C2246 H2260 0.961 . S
C2247 C2244 1.539 . S
C2247 H2261 0.958 . S
C2247 H2262 0.961 . S
C2247 H2263 0.960 . S
H2248 C2232 0.931 . S
H2249 C2237 0.929 . S
H2250 C2238 0.960 . S
H2251 C2238 0.962 . S
H2252 C2238 0.960 . S
H2253 C2239 0.961 . S
H2254 C2239 0.961 . S
H2255 C2239 0.961 . S
H2256 C2240 0.931 . S
H2257 C2245 0.930 . S
H2258 C2246 0.956 . S
H2259 C2246 0.961 . S
H2260 C2246 0.961 . S
H2261 C2247 0.958 . S
H2262 C2247 0.961 . S
H2263 C2247 0.960 . S
C2264 C2265 1.391 . S
C2264 C2266 1.394 . S
C2264 H2280 0.931 . S
C2265 C2264 1.391 . S
C2265 C2269 1.376 . S
C2266 C2264 1.394 . S
C2266 C2267 1.369 . S
C2266 C2270 1.531 . S
C2267 C2266 1.369 . S
C2267 C2268 1.410 . S
C2267 C2275 1.503 . S
C2268 C2267 1.410 . S
C2268 C2269 1.392 . S
C2268 C2271 1.511 . S
C2269 C2265 1.376 . S
C2269 C2268 1.392 . S
C2269 H2281 0.929 . S
C2270 C2266 1.531 . S
C2270 H2282 0.960 . S
C2270 H2283 0.962 . S
C2270 H2284 0.960 . S
C2271 C2268 1.511 . S
C2271 H2285 0.961 . S
C2271 H2286 0.961 . S
C2271 H2287 0.961 . S
C2272 C2273 1.370 . S
C2272 C2274 1.363 . S
C2272 H2288 0.931 . S
C2273 C2272 1.370 . S
C2273 C2277 1.408 . S
C2274 C2272 1.363 . S
C2274 C2275 1.370 . S
C2274 C2278 1.524 . S
C2275 C2267 1.503 . S
C2275 C2274 1.370 . S
C2275 C2276 1.403 . S
C2276 C2275 1.403 . S
C2276 C2277 1.404 . S
C2276 C2279 1.539 . S
C2277 C2273 1.408 . S
C2277 C2276 1.404 . S
C2277 H2289 0.930 . S
C2278 C2274 1.524 . S
C2278 H2290 0.956 . S
C2278 H2291 0.961 . S
C2278 H2292 0.961 . S
C2279 C2276 1.539 . S
C2279 H2293 0.958 . S
C2279 H2294 0.961 . S
C2279 H2295 0.960 . S
H2280 C2264 0.931 . S
H2281 C2269 0.929 . S
H2282 C2270 0.960 . S
H2283 C2270 0.962 . S
H2284 C2270 0.960 . S
H2285 C2271 0.961 . S
H2286 C2271 0.961 . S
H2287 C2271 0.961 . S
H2288 C2272 0.931 . S
H2289 C2277 0.930 . S
H2290 C2278 0.956 . S
H2291 C2278 0.961 . S
H2292 C2278 0.961 . S
H2293 C2279 0.958 . S
H2294 C2279 0.961 . S
H2295 C2279 0.960 . S
C2296 C2297 1.391 . S
C2296 C2298 1.394 . S
C2296 H2312 0.931 . S
C2297 C2296 1.391 . S
C2297 C2301 1.376 . S
C2298 C2296 1.394 . S
C2298 C2299 1.369 . S
C2298 C2302 1.531 . S
C2299 C2298 1.369 . S
C2299 C2300 1.410 . S
C2299 C2307 1.503 . S
C2300 C2299 1.410 . S
C2300 C2301 1.392 . S
C2300 C2303 1.511 . S
C2301 C2297 1.376 . S
C2301 C2300 1.392 . S
C2301 H2313 0.929 . S
C2302 C2298 1.531 . S
C2302 H2314 0.960 . S
C2302 H2315 0.962 . S
C2302 H2316 0.960 . S
C2303 C2300 1.511 . S
C2303 H2317 0.961 . S
C2303 H2318 0.961 . S
C2303 H2319 0.961 . S
C2304 C2305 1.370 . S
C2304 C2306 1.363 . S
C2304 H2320 0.931 . S
C2305 C2304 1.370 . S
C2305 C2309 1.408 . S
C2306 C2304 1.363 . S
C2306 C2307 1.370 . S
C2306 C2310 1.524 . S
C2307 C2299 1.503 . S
C2307 C2306 1.370 . S
C2307 C2308 1.403 . S
C2308 C2307 1.403 . S
C2308 C2309 1.404 . S
C2308 C2311 1.539 . S
C2309 C2305 1.408 . S
C2309 C2308 1.404 . S
C2309 H2321 0.930 . S
C2310 C2306 1.524 . S
C2310 H2322 0.956 . S
C2310 H2323 0.961 . S
C2310 H2324 0.961 . S
C2311 C2308 1.539 . S
C2311 H2325 0.958 . S
C2311 H2326 0.961 . S
C2311 H2327 0.960 . S
H2312 C2296 0.931 . S
H2313 C2301 0.929 . S
H2314 C2302 0.960 . S
H2315 C2302 0.962 . S
H2316 C2302 0.960 . S
H2317 C2303 0.961 . S
H2318 C2303 0.961 . S
H2319 C2303 0.961 . S
H2320 C2304 0.931 . S
H2321 C2309 0.930 . S
H2322 C2310 0.956 . S
H2323 C2310 0.961 . S
H2324 C2310 0.961 . S
H2325 C2311 0.958 . S
H2326 C2311 0.961 . S
H2327 C2311 0.960 . S
C2328 C2329 1.391 . S
C2328 C2330 1.394 . S
C2328 H2344 0.931 . S
C2329 C2328 1.391 . S
C2329 C2333 1.376 . S
C2330 C2328 1.394 . S
C2330 C2331 1.369 . S
C2330 C2334 1.531 . S
C2331 C2330 1.369 . S
C2331 C2332 1.410 . S
C2331 C2339 1.503 . S
C2332 C2331 1.410 . S
C2332 C2333 1.392 . S
C2332 C2335 1.511 . S
C2333 C2329 1.376 . S
C2333 C2332 1.392 . S
C2333 H2345 0.929 . S
C2334 C2330 1.531 . S
C2334 H2346 0.960 . S
C2334 H2347 0.962 . S
C2334 H2348 0.960 . S
C2335 C2332 1.511 . S
C2335 H2349 0.961 . S
C2335 H2350 0.961 . S
C2335 H2351 0.961 . S
C2336 C2337 1.370 . S
C2336 C2338 1.363 . S
C2336 H2352 0.931 . S
C2337 C2336 1.370 . S
C2337 C2341 1.408 . S
C2338 C2336 1.363 . S
C2338 C2339 1.370 . S
C2338 C2342 1.524 . S
C2339 C2331 1.503 . S
C2339 C2338 1.370 . S
C2339 C2340 1.403 . S
C2340 C2339 1.403 . S
C2340 C2341 1.404 . S
C2340 C2343 1.539 . S
C2341 C2337 1.408 . S
C2341 C2340 1.404 . S
C2341 H2353 0.930 . S
C2342 C2338 1.524 . S
C2342 H2354 0.956 . S
C2342 H2355 0.961 . S
C2342 H2356 0.961 . S
C2343 C2340 1.539 . S
C2343 H2357 0.958 . S
C2343 H2358 0.961 . S
C2343 H2359 0.960 . S
H2344 C2328 0.931 . S
H2345 C2333 0.929 . S
H2346 C2334 0.960 . S
H2347 C2334 0.962 . S
H2348 C2334 0.960 . S
H2349 C2335 0.961 . S
H2350 C2335 0.961 . S
H2351 C2335 0.961 . S
H2352 C2336 0.931 . S
H2353 C2341 0.930 . S
H2354 C2342 0.956 . S
H2355 C2342 0.961 . S
H2356 C2342 0.961 . S
H2357 C2343 0.958 . S
H2358 C2343 0.961 . S
H2359 C2343 0.960 . S
C2360 C2361 1.391 . S
C2360 C2362 1.394 . S
C2360 H2376 0.931 . S
C2361 C2360 1.391 . S
C2361 C2365 1.376 . S
C2362 C2360 1.394 . S
C2362 C2363 1.369 . S
C2362 C2366 1.531 . S
C2363 C2362 1.369 . S
C2363 C2364 1.410 . S
C2363 C2371 1.503 . S
C2364 C2363 1.410 . S
C2364 C2365 1.392 . S
C2364 C2367 1.511 . S
C2365 C2361 1.376 . S
C2365 C2364 1.392 . S
C2365 H2377 0.929 . S
C2366 C2362 1.531 . S
C2366 H2378 0.960 . S
C2366 H2379 0.962 . S
C2366 H2380 0.960 . S
C2367 C2364 1.511 . S
C2367 H2381 0.961 . S
C2367 H2382 0.961 . S
C2367 H2383 0.961 . S
C2368 C2369 1.370 . S
C2368 C2370 1.363 . S
C2368 H2384 0.931 . S
C2369 C2368 1.370 . S
C2369 C2373 1.408 . S
C2370 C2368 1.363 . S
C2370 C2371 1.370 . S
C2370 C2374 1.524 . S
C2371 C2363 1.503 . S
C2371 C2370 1.370 . S
C2371 C2372 1.403 . S
C2372 C2371 1.403 . S
C2372 C2373 1.404 . S
C2372 C2375 1.539 . S
C2373 C2369 1.408 . S
C2373 C2372 1.404 . S
C2373 H2385 0.930 . S
C2374 C2370 1.524 . S
C2374 H2386 0.956 . S
C2374 H2387 0.961 . S
C2374 H2388 0.961 . S
C2375 C2372 1.539 . S
C2375 H2389 0.958 . S
C2375 H2390 0.961 . S
C2375 H2391 0.960 . S
H2376 C2360 0.931 . S
H2377 C2365 0.929 . S
H2378 C2366 0.960 . S
H2379 C2366 0.962 . S
H2380 C2366 0.960 . S
H2381 C2367 0.961 . S
H2382 C2367 0.961 . S
H2383 C2367 0.961 . S
H2384 C2368 0.931 . S
H2385 C2373 0.930 . S
H2386 C2374 0.956 . S
H2387 C2374 0.961 . S
H2388 C2374 0.961 . S
H2389 C2375 0.958 . S
H2390 C2375 0.961 . S
H2391 C2375 0.960 . S
C2392 C2393 1.391 . S
C2392 C2394 1.394 . S
C2392 H2408 0.931 . S
C2393 C2392 1.391 . S
C2393 C2397 1.376 . S
C2394 C2392 1.394 . S
C2394 C2395 1.369 . S
C2394 C2398 1.531 . S
C2395 C2394 1.369 . S
C2395 C2396 1.410 . S
C2395 C2403 1.503 . S
C2396 C2395 1.410 . S
C2396 C2397 1.392 . S
C2396 C2399 1.511 . S
C2397 C2393 1.376 . S
C2397 C2396 1.392 . S
C2397 H2409 0.929 . S
C2398 C2394 1.531 . S
C2398 H2410 0.960 . S
C2398 H2411 0.962 . S
C2398 H2412 0.960 . S
C2399 C2396 1.511 . S
C2399 H2413 0.961 . S
C2399 H2414 0.961 . S
C2399 H2415 0.961 . S
C2400 C2401 1.370 . S
C2400 C2402 1.363 . S
C2400 H2416 0.931 . S
C2401 C2400 1.370 . S
C2401 C2405 1.408 . S
C2402 C2400 1.363 . S
C2402 C2403 1.370 . S
C2402 C2406 1.524 . S
C2403 C2395 1.503 . S
C2403 C2402 1.370 . S
C2403 C2404 1.403 . S
C2404 C2403 1.403 . S
C2404 C2405 1.404 . S
C2404 C2407 1.539 . S
C2405 C2401 1.408 . S
C2405 C2404 1.404 . S
C2405 H2417 0.930 . S
C2406 C2402 1.524 . S
C2406 H2418 0.956 . S
C2406 H2419 0.961 . S
C2406 H2420 0.961 . S
C2407 C2404 1.539 . S
C2407 H2421 0.958 . S
C2407 H2422 0.961 . S
C2407 H2423 0.960 . S
H2408 C2392 0.931 . S
H2409 C2397 0.929 . S
H2410 C2398 0.960 . S
H2411 C2398 0.962 . S
H2412 C2398 0.960 . S
H2413 C2399 0.961 . S
H2414 C2399 0.961 . S
H2415 C2399 0.961 . S
H2416 C2400 0.931 . S
H2417 C2405 0.930 . S
H2418 C2406 0.956 . S
H2419 C2406 0.961 . S
H2420 C2406 0.961 . S
H2421 C2407 0.958 . S
H2422 C2407 0.961 . S
H2423 C2407 0.960 . S
C2424 C2425 1.391 . S
C2424 C2426 1.394 . S
C2424 H2440 0.931 . S
C2425 C2424 1.391 . S
C2425 C2429 1.376 . S
C2426 C2424 1.394 . S
C2426 C2427 1.369 . S
C2426 C2430 1.531 . S
C2427 C2426 1.369 . S
C2427 C2428 1.410 . S
C2427 C2435 1.503 . S
C2428 C2427 1.410 . S
C2428 C2429 1.392 . S
C2428 C2431 1.511 . S
C2429 C2425 1.376 . S
C2429 C2428 1.392 . S
C2429 H2441 0.929 . S
C2430 C2426 1.531 . S
C2430 H2442 0.960 . S
C2430 H2443 0.962 . S
C2430 H2444 0.960 . S
C2431 C2428 1.511 . S
C2431 H2445 0.961 . S
C2431 H2446 0.961 . S
C2431 H2447 0.961 . S
C2432 C2433 1.370 . S
C2432 C2434 1.363 . S
C2432 H2448 0.931 . S
C2433 C2432 1.370 . S
C2433 C2437 1.408 . S
C2434 C2432 1.363 . S
C2434 C2435 1.370 . S
C2434 C2438 1.524 . S
C2435 C2427 1.503 . S
C2435 C2434 1.370 . S
C2435 C2436 1.403 . S
C2436 C2435 1.403 . S
C2436 C2437 1.404 . S
C2436 C2439 1.539 . S
C2437 C2433 1.408 . S
C2437 C2436 1.404 . S
C2437 H2449 0.930 . S
C2438 C2434 1.524 . S
C2438 H2450 0.956 . S
C2438 H2451 0.961 . S
C2438 H2452 0.961 . S
C2439 C2436 1.539 . S
C2439 H2453 0.958 . S
C2439 H2454 0.961 . S
C2439 H2455 0.960 . S
H2440 C2424 0.931 . S
H2441 C2429 0.929 . S
H2442 C2430 0.960 . S
H2443 C2430 0.962 . S
H2444 C2430 0.960 . S
H2445 C2431 0.961 . S
H2446 C2431 0.961 . S
H2447 C2431 0.961 . S
H2448 C2432 0.931 . S
H2449 C2437 0.930 . S
H2450 C2438 0.956 . S
H2451 C2438 0.961 . S
H2452 C2438 0.961 . S
H2453 C2439 0.958 . S
H2454 C2439 0.961 . S
H2455 C2439 0.960 . S
C2456 C2457 1.391 . S
C2456 C2458 1.394 . S
C2456 H2472 0.931 . S
C2457 C2456 1.391 . S
C2457 C2461 1.376 . S
C2458 C2456 1.394 . S
C2458 C2459 1.369 . S
C2458 C2462 1.531 . S
C2459 C2458 1.369 . S
C2459 C2460 1.410 . S
C2459 C2467 1.503 . S
C2460 C2459 1.410 . S
C2460 C2461 1.392 . S
C2460 C2463 1.511 . S
C2461 C2457 1.376 . S
C2461 C2460 1.392 . S
C2461 H2473 0.929 . S
C2462 C2458 1.531 . S
C2462 H2474 0.960 . S
C2462 H2475 0.962 . S
C2462 H2476 0.960 . S
C2463 C2460 1.511 . S
C2463 H2477 0.961 . S
C2463 H2478 0.961 . S
C2463 H2479 0.961 . S
C2464 C2465 1.370 . S
C2464 C2466 1.363 . S
C2464 H2480 0.931 . S
C2465 C2464 1.370 . S
C2465 C2469 1.408 . S
C2466 C2464 1.363 . S
C2466 C2467 1.370 . S
C2466 C2470 1.524 . S
C2467 C2459 1.503 . S
C2467 C2466 1.370 . S
C2467 C2468 1.403 . S
C2468 C2467 1.403 . S
C2468 C2469 1.404 . S
C2468 C2471 1.539 . S
C2469 C2465 1.408 . S
C2469 C2468 1.404 . S
C2469 H2481 0.930 . S
C2470 C2466 1.524 . S
C2470 H2482 0.956 . S
C2470 H2483 0.961 . S
C2470 H2484 0.961 . S
C2471 C2468 1.539 . S
C2471 H2485 0.958 . S
C2471 H2486 0.961 . S
C2471 H2487 0.960 . S
H2472 C2456 0.931 . S
H2473 C2461 0.929 . S
H2474 C2462 0.960 . S
H2475 C2462 0.962 . S
H2476 C2462 0.960 . S
H2477 C2463 0.961 . S
H2478 C2463 0.961 . S
H2479 C2463 0.961 . S
H2480 C2464 0.931 . S
H2481 C2469 0.930 . S
H2482 C2470 0.956 . S
H2483 C2470 0.961 . S
H2484 C2470 0.961 . S
H2485 C2471 0.958 . S
H2486 C2471 0.961 . S
H2487 C2471 0.960 . S
C2488 C2489 1.391 . S
C2488 C2490 1.394 . S
C2488 H2504 0.931 . S
C2489 C2488 1.391 . S
C2489 C2493 1.376 . S
C2490 C2488 1.394 . S
C2490 C2491 1.369 . S
C2490 C2494 1.531 . S
C2491 C2490 1.369 . S
C2491 C2492 1.410 . S
C2491 C2499 1.503 . S
C2492 C2491 1.410 . S
C2492 C2493 1.392 . S
C2492 C2495 1.511 . S
C2493 C2489 1.376 . S
C2493 C2492 1.392 . S
C2493 H2505 0.929 . S
C2494 C2490 1.531 . S
C2494 H2506 0.960 . S
C2494 H2507 0.962 . S
C2494 H2508 0.960 . S
C2495 C2492 1.511 . S
C2495 H2509 0.973 . S
C2495 H2510 0.961 . S
C2495 H2511 0.961 1_655 S
C2496 C2497 1.370 . S
C2496 C2498 1.363 . S
C2496 H2512 0.931 . S
C2497 C2496 1.370 . S
C2497 C2501 1.408 . S
C2498 C2496 1.363 . S
C2498 C2499 1.370 . S
C2498 C2502 1.524 . S
C2499 C2491 1.503 . S
C2499 C2498 1.370 . S
C2499 C2500 1.403 . S
C2500 C2499 1.403 . S
C2500 C2501 1.404 . S
C2500 C2503 1.539 . S
C2501 C2497 1.408 . S
C2501 C2500 1.404 . S
C2501 H2513 0.930 . S
C2502 C2498 1.524 . S
C2502 H2514 0.956 . S
C2502 H2515 0.961 . S
C2502 H2516 0.961 . S
C2503 C2500 1.539 . S
C2503 H2517 0.958 . S
C2503 H2518 0.961 1_655 S
C2503 H2519 0.935 1_655 S
H2504 C2488 0.931 . S
H2505 C2493 0.929 . S
H2506 C2494 0.960 . S
H2507 C2494 0.962 . S
H2508 C2494 0.960 . S
H2509 C2495 0.973 . S
H2510 C2495 0.961 . S
H2511 C2495 0.961 1_455 S
H2512 C2496 0.931 . S
H2513 C2501 0.930 . S
H2514 C2502 0.956 . S
H2515 C2502 0.961 . S
H2516 C2502 0.961 . S
H2517 C2503 0.958 . S
H2518 C2503 0.961 1_455 S
H2519 C2503 0.935 1_455 S
C2520 C2521 1.391 . S
C2520 C2522 1.394 . S
C2520 H2536 0.931 . S
C2521 C2520 1.391 . S
C2521 C2525 1.376 . S
C2522 C2520 1.394 . S
C2522 C2523 1.369 . S
C2522 C2526 1.531 . S
C2523 C2522 1.369 . S
C2523 C2524 1.410 . S
C2523 C2531 1.503 . S
C2524 C2523 1.410 . S
C2524 C2525 1.392 . S
C2524 C2527 1.511 . S
C2525 C2521 1.376 . S
C2525 C2524 1.392 . S
C2525 H2537 0.929 . S
C2526 C2522 1.531 . S
C2526 H2538 0.960 . S
C2526 H2539 0.962 . S
C2526 H2540 0.960 . S
C2527 C2524 1.511 . S
C2527 H2541 0.961 . S
C2527 H2542 0.961 . S
C2527 H2543 0.961 . S
C2528 C2529 1.370 . S
C2528 C2530 1.363 . S
C2528 H2544 0.931 . S
C2529 C2528 1.370 . S
C2529 C2533 1.408 . S
C2530 C2528 1.363 . S
C2530 C2531 1.370 . S
C2530 C2534 1.524 . S
C2531 C2523 1.503 . S
C2531 C2530 1.370 . S
C2531 C2532 1.403 . S
C2532 C2531 1.403 . S
C2532 C2533 1.404 . S
C2532 C2535 1.539 . S
C2533 C2529 1.408 . S
C2533 C2532 1.404 . S
C2533 H2545 0.930 . S
C2534 C2530 1.524 . S
C2534 H2546 0.956 . S
C2534 H2547 0.961 . S
C2534 H2548 0.961 . S
C2535 C2532 1.539 . S
C2535 H2549 0.958 . S
C2535 H2550 0.961 . S
C2535 H2551 0.960 . S
H2536 C2520 0.931 . S
H2537 C2525 0.929 . S
H2538 C2526 0.960 . S
H2539 C2526 0.962 . S
H2540 C2526 0.960 . S
H2541 C2527 0.961 . S
H2542 C2527 0.961 . S
H2543 C2527 0.961 . S
H2544 C2528 0.931 . S
H2545 C2533 0.930 . S
H2546 C2534 0.956 . S
H2547 C2534 0.961 . S
H2548 C2534 0.961 . S
H2549 C2535 0.958 . S
H2550 C2535 0.961 . S
H2551 C2535 0.960 . S
C2552 C2553 1.391 . S
C2552 C2554 1.394 . S
C2552 H2568 0.931 . S
C2553 C2552 1.391 . S
C2553 C2557 1.376 . S
C2554 C2552 1.394 . S
C2554 C2555 1.369 . S
C2554 C2558 1.531 . S
C2555 C2554 1.369 . S
C2555 C2556 1.410 . S
C2555 C2563 1.503 . S
C2556 C2555 1.410 . S
C2556 C2557 1.392 . S
C2556 C2559 1.511 . S
C2557 C2553 1.376 . S
C2557 C2556 1.392 . S
C2557 H2569 0.929 . S
C2558 C2554 1.531 . S
C2558 H2570 0.960 . S
C2558 H2571 0.962 . S
C2558 H2572 0.960 . S
C2559 C2556 1.511 . S
C2559 H2573 0.961 . S
C2559 H2574 0.961 . S
C2559 H2575 0.961 . S
C2560 C2561 1.370 . S
C2560 C2562 1.363 . S
C2560 H2576 0.931 . S
C2561 C2560 1.370 . S
C2561 C2565 1.408 . S
C2562 C2560 1.363 . S
C2562 C2563 1.370 . S
C2562 C2566 1.524 . S
C2563 C2555 1.503 . S
C2563 C2562 1.370 . S
C2563 C2564 1.403 . S
C2564 C2563 1.403 . S
C2564 C2565 1.404 . S
C2564 C2567 1.539 . S
C2565 C2561 1.408 . S
C2565 C2564 1.404 . S
C2565 H2577 0.930 . S
C2566 C2562 1.524 . S
C2566 H2578 0.956 . S
C2566 H2579 0.961 . S
C2566 H2580 0.961 . S
C2567 C2564 1.539 . S
C2567 H2581 0.958 . S
C2567 H2582 0.961 . S
C2567 H2583 0.960 . S
H2568 C2552 0.931 . S
H2569 C2557 0.929 . S
H2570 C2558 0.960 . S
H2571 C2558 0.962 . S
H2572 C2558 0.960 . S
H2573 C2559 0.961 . S
H2574 C2559 0.961 . S
H2575 C2559 0.961 . S
H2576 C2560 0.931 . S
H2577 C2565 0.930 . S
H2578 C2566 0.956 . S
H2579 C2566 0.961 . S
H2580 C2566 0.961 . S
H2581 C2567 0.958 . S
H2582 C2567 0.961 . S
H2583 C2567 0.960 . S
C2584 C2585 1.391 . S
C2584 C2586 1.394 . S
C2584 H2600 0.931 . S
C2585 C2584 1.391 . S
C2585 C2589 1.376 . S
C2586 C2584 1.394 . S
C2586 C2587 1.369 . S
C2586 C2590 1.531 . S
C2587 C2586 1.369 . S
C2587 C2588 1.410 . S
C2587 C2595 1.503 . S
C2588 C2587 1.410 . S
C2588 C2589 1.392 . S
C2588 C2591 1.511 . S
C2589 C2585 1.376 . S
C2589 C2588 1.392 . S
C2589 H2601 0.929 . S
C2590 C2586 1.531 . S
C2590 H2602 0.960 . S
C2590 H2603 0.962 . S
C2590 H2604 0.960 . S
C2591 C2588 1.511 . S
C2591 H2605 0.961 . S
C2591 H2606 0.961 . S
C2591 H2607 0.961 . S
C2592 C2593 1.370 . S
C2592 C2594 1.363 . S
C2592 H2608 0.931 . S
C2593 C2592 1.370 . S
C2593 C2597 1.408 . S
C2594 C2592 1.363 . S
C2594 C2595 1.370 . S
C2594 C2598 1.524 . S
C2595 C2587 1.503 . S
C2595 C2594 1.370 . S
C2595 C2596 1.403 . S
C2596 C2595 1.403 . S
C2596 C2597 1.404 . S
C2596 C2599 1.539 . S
C2597 C2593 1.408 . S
C2597 C2596 1.404 . S
C2597 H2609 0.930 . S
C2598 C2594 1.524 . S
C2598 H2610 0.956 . S
C2598 H2611 0.961 . S
C2598 H2612 0.961 . S
C2599 C2596 1.539 . S
C2599 H2613 0.958 . S
C2599 H2614 0.961 . S
C2599 H2615 0.960 . S
H2600 C2584 0.931 . S
H2601 C2589 0.929 . S
H2602 C2590 0.960 . S
H2603 C2590 0.962 . S
H2604 C2590 0.960 . S
H2605 C2591 0.961 . S
H2606 C2591 0.961 . S
H2607 C2591 0.961 . S
H2608 C2592 0.931 . S
H2609 C2597 0.930 . S
H2610 C2598 0.956 . S
H2611 C2598 0.961 . S
H2612 C2598 0.961 . S
H2613 C2599 0.958 . S
H2614 C2599 0.961 . S
H2615 C2599 0.960 . S
C2616 C2617 1.391 . S
C2616 C2618 1.394 . S
C2616 H2632 0.931 . S
C2617 C2616 1.391 . S
C2617 C2621 1.376 . S
C2618 C2616 1.394 . S
C2618 C2619 1.369 . S
C2618 C2622 1.531 . S
C2619 C2618 1.369 . S
C2619 C2620 1.410 . S
C2619 C2627 1.503 . S
C2620 C2619 1.410 . S
C2620 C2621 1.392 . S
C2620 C2623 1.511 . S
C2621 C2617 1.376 . S
C2621 C2620 1.392 . S
C2621 H2633 0.929 . S
C2622 C2618 1.531 . S
C2622 H2634 0.960 . S
C2622 H2635 0.962 . S
C2622 H2636 0.960 . S
C2623 C2620 1.511 . S
C2623 H2637 0.961 . S
C2623 H2638 0.961 . S
C2623 H2639 0.961 . S
C2624 C2625 1.370 . S
C2624 C2626 1.363 . S
C2624 H2640 0.931 . S
C2625 C2624 1.370 . S
C2625 C2629 1.408 . S
C2626 C2624 1.363 . S
C2626 C2627 1.370 . S
C2626 C2630 1.524 . S
C2627 C2619 1.503 . S
C2627 C2626 1.370 . S
C2627 C2628 1.403 . S
C2628 C2627 1.403 . S
C2628 C2629 1.404 . S
C2628 C2631 1.539 . S
C2629 C2625 1.408 . S
C2629 C2628 1.404 . S
C2629 H2641 0.930 . S
C2630 C2626 1.524 . S
C2630 H2642 0.956 . S
C2630 H2643 0.961 . S
C2630 H2644 0.961 . S
C2631 C2628 1.539 . S
C2631 H2645 0.958 . S
C2631 H2646 0.961 . S
C2631 H2647 0.960 . S
H2632 C2616 0.931 . S
H2633 C2621 0.929 . S
H2634 C2622 0.960 . S
H2635 C2622 0.962 . S
H2636 C2622 0.960 . S
H2637 C2623 0.961 . S
H2638 C2623 0.961 . S
H2639 C2623 0.961 . S
H2640 C2624 0.931 . S
H2641 C2629 0.930 . S
H2642 C2630 0.956 . S
H2643 C2630 0.961 . S
H2644 C2630 0.961 . S
H2645 C2631 0.958 . S
H2646 C2631 0.961 . S
H2647 C2631 0.960 . S
C2648 C2649 1.391 . S
C2648 C2650 1.394 . S
C2648 H2664 0.931 . S
C2649 C2648 1.391 . S
C2649 C2653 1.376 . S
C2650 C2648 1.394 . S
C2650 C2651 1.369 . S
C2650 C2654 1.531 . S
C2651 C2650 1.369 . S
C2651 C2652 1.410 . S
C2651 C2659 1.503 . S
C2652 C2651 1.410 . S
C2652 C2653 1.392 . S
C2652 C2655 1.511 . S
C2653 C2649 1.376 . S
C2653 C2652 1.392 . S
C2653 H2665 0.929 . S
C2654 C2650 1.531 . S
C2654 H2666 0.960 . S
C2654 H2667 0.962 . S
C2654 H2668 0.960 . S
C2655 C2652 1.511 . S
C2655 H2669 0.961 . S
C2655 H2670 0.961 . S
C2655 H2671 0.961 . S
C2656 C2657 1.370 . S
C2656 C2658 1.363 . S
C2656 H2672 0.931 . S
C2657 C2656 1.370 . S
C2657 C2661 1.408 . S
C2658 C2656 1.363 . S
C2658 C2659 1.370 . S
C2658 C2662 1.524 . S
C2659 C2651 1.503 . S
C2659 C2658 1.370 . S
C2659 C2660 1.403 . S
C2660 C2659 1.403 . S
C2660 C2661 1.404 . S
C2660 C2663 1.539 . S
C2661 C2657 1.408 . S
C2661 C2660 1.404 . S
C2661 H2673 0.930 . S
C2662 C2658 1.524 . S
C2662 H2674 0.956 . S
C2662 H2675 0.961 . S
C2662 H2676 0.961 . S
C2663 C2660 1.539 . S
C2663 H2677 0.958 . S
C2663 H2678 0.961 . S
C2663 H2679 0.960 . S
H2664 C2648 0.931 . S
H2665 C2653 0.929 . S
H2666 C2654 0.960 . S
H2667 C2654 0.962 . S
H2668 C2654 0.960 . S
H2669 C2655 0.961 . S
H2670 C2655 0.961 . S
H2671 C2655 0.961 . S
H2672 C2656 0.931 . S
H2673 C2661 0.930 . S
H2674 C2662 0.956 . S
H2675 C2662 0.961 . S
H2676 C2662 0.961 . S
H2677 C2663 0.958 . S
H2678 C2663 0.961 . S
H2679 C2663 0.960 . S
C2680 C2681 1.391 . S
C2680 C2682 1.394 . S
C2680 H2696 0.931 . S
C2681 C2680 1.391 . S
C2681 C2685 1.376 . S
C2682 C2680 1.394 . S
C2682 C2683 1.369 . S
C2682 C2686 1.531 . S
C2683 C2682 1.369 . S
C2683 C2684 1.410 . S
C2683 C2691 1.503 . S
C2684 C2683 1.410 . S
C2684 C2685 1.392 . S
C2684 C2687 1.511 . S
C2685 C2681 1.376 . S
C2685 C2684 1.392 . S
C2685 H2697 0.929 . S
C2686 C2682 1.531 . S
C2686 H2698 0.960 . S
C2686 H2699 0.962 . S
C2686 H2700 0.960 . S
C2687 C2684 1.511 . S
C2687 H2701 0.961 . S
C2687 H2702 0.961 . S
C2687 H2703 0.961 . S
C2688 C2689 1.370 . S
C2688 C2690 1.363 . S
C2688 H2704 0.931 . S
C2689 C2688 1.370 . S
C2689 C2693 1.408 . S
C2690 C2688 1.363 . S
C2690 C2691 1.370 . S
C2690 C2694 1.524 . S
C2691 C2683 1.503 . S
C2691 C2690 1.370 . S
C2691 C2692 1.403 . S
C2692 C2691 1.403 . S
C2692 C2693 1.404 . S
C2692 C2695 1.539 . S
C2693 C2689 1.408 . S
C2693 C2692 1.404 . S
C2693 H2705 0.930 . S
C2694 C2690 1.524 . S
C2694 H2706 0.956 . S
C2694 H2707 0.961 . S
C2694 H2708 0.961 . S
C2695 C2692 1.539 . S
C2695 H2709 0.958 . S
C2695 H2710 0.961 . S
C2695 H2711 0.960 . S
H2696 C2680 0.931 . S
H2697 C2685 0.929 . S
H2698 C2686 0.960 . S
H2699 C2686 0.962 . S
H2700 C2686 0.960 . S
H2701 C2687 0.961 . S
H2702 C2687 0.961 . S
H2703 C2687 0.961 . S
H2704 C2688 0.931 . S
H2705 C2693 0.930 . S
H2706 C2694 0.956 . S
H2707 C2694 0.961 . S
H2708 C2694 0.961 . S
H2709 C2695 0.958 . S
H2710 C2695 0.961 . S
H2711 C2695 0.960 . S
C2712 C2713 1.391 . S
C2712 C2714 1.394 . S
C2712 H2728 0.931 . S
C2713 C2712 1.391 . S
C2713 C2717 1.376 . S
C2714 C2712 1.394 . S
C2714 C2715 1.369 . S
C2714 C2718 1.531 . S
C2715 C2714 1.369 . S
C2715 C2716 1.410 . S
C2715 C2723 1.503 . S
C2716 C2715 1.410 . S
C2716 C2717 1.392 . S
C2716 C2719 1.511 . S
C2717 C2713 1.376 . S
C2717 C2716 1.392 . S
C2717 H2729 0.929 . S
C2718 C2714 1.531 . S
C2718 H2730 0.960 . S
C2718 H2731 0.962 . S
C2718 H2732 0.960 . S
C2719 C2716 1.511 . S
C2719 H2733 0.961 . S
C2719 H2734 0.961 . S
C2719 H2735 0.961 . S
C2720 C2721 1.370 . S
C2720 C2722 1.363 . S
C2720 H2736 0.931 . S
C2721 C2720 1.370 . S
C2721 C2725 1.408 . S
C2722 C2720 1.363 . S
C2722 C2723 1.370 . S
C2722 C2726 1.524 . S
C2723 C2715 1.503 . S
C2723 C2722 1.370 . S
C2723 C2724 1.403 . S
C2724 C2723 1.403 . S
C2724 C2725 1.404 . S
C2724 C2727 1.539 . S
C2725 C2721 1.408 . S
C2725 C2724 1.404 . S
C2725 H2737 0.930 . S
C2726 C2722 1.524 . S
C2726 H2738 0.956 . S
C2726 H2739 0.961 . S
C2726 H2740 0.961 . S
C2727 C2724 1.539 . S
C2727 H2741 0.958 . S
C2727 H2742 0.961 . S
C2727 H2743 0.960 . S
H2728 C2712 0.931 . S
H2729 C2717 0.929 . S
H2730 C2718 0.960 . S
H2731 C2718 0.962 . S
H2732 C2718 0.960 . S
H2733 C2719 0.961 . S
H2734 C2719 0.961 . S
H2735 C2719 0.961 . S
H2736 C2720 0.931 . S
H2737 C2725 0.930 . S
H2738 C2726 0.956 . S
H2739 C2726 0.961 . S
H2740 C2726 0.961 . S
H2741 C2727 0.958 . S
H2742 C2727 0.961 . S
H2743 C2727 0.960 . S
C2744 C2745 1.391 . S
C2744 C2746 1.394 . S
C2744 H2760 0.931 . S
C2745 C2744 1.391 . S
C2745 C2749 1.376 . S
C2746 C2744 1.394 . S
C2746 C2747 1.369 . S
C2746 C2750 1.531 . S
C2747 C2746 1.369 . S
C2747 C2748 1.410 . S
C2747 C2755 1.503 . S
C2748 C2747 1.410 . S
C2748 C2749 1.392 . S
C2748 C2751 1.511 1_565 S
C2749 C2745 1.376 . S
C2749 C2748 1.392 . S
C2749 H2761 0.929 . S
C2750 C2746 1.531 . S
C2750 H2762 0.960 . S
C2750 H2763 0.962 . S
C2750 H2764 0.960 . S
C2751 C2748 1.511 1_545 S
C2751 H2765 0.961 . S
C2751 H2766 0.961 . S
C2751 H2767 0.961 . S
C2752 C2753 1.370 . S
C2752 C2754 1.363 . S
C2752 H2768 0.931 . S
C2753 C2752 1.370 . S
C2753 C2757 1.408 . S
C2754 C2752 1.363 . S
C2754 C2755 1.370 . S
C2754 C2758 1.524 . S
C2755 C2747 1.503 . S
C2755 C2754 1.370 . S
C2755 C2756 1.403 . S
C2756 C2755 1.403 . S
C2756 C2757 1.404 . S
C2756 C2759 1.539 . S
C2757 C2753 1.408 . S
C2757 C2756 1.404 . S
C2757 H2769 0.930 . S
C2758 C2754 1.524 . S
C2758 H2770 0.956 . S
C2758 H2771 0.961 . S
C2758 H2772 0.961 . S
C2759 C2756 1.539 . S
C2759 H2773 0.958 . S
C2759 H2774 0.961 . S
C2759 H2775 0.960 . S
H2760 C2744 0.931 . S
H2761 C2749 0.929 . S
H2762 C2750 0.960 . S
H2763 C2750 0.962 . S
H2764 C2750 0.960 . S
H2765 C2751 0.961 . S
H2766 C2751 0.961 . S
H2767 C2751 0.961 . S
H2768 C2752 0.931 . S
H2769 C2757 0.930 . S
H2770 C2758 0.956 . S
H2771 C2758 0.961 . S
H2772 C2758 0.961 . S
H2773 C2759 0.958 . S
H2774 C2759 0.961 . S
H2775 C2759 0.960 . S
C2776 C2777 1.391 . S
C2776 C2778 1.394 . S
C2776 H2792 0.931 . S
C2777 C2776 1.391 . S
C2777 C2781 1.376 . S
C2778 C2776 1.394 . S
C2778 C2779 1.369 . S
C2778 C2782 1.531 . S
C2779 C2778 1.369 . S
C2779 C2780 1.410 . S
C2779 C2787 1.503 . S
C2780 C2779 1.410 . S
C2780 C2781 1.392 . S
C2780 C2783 1.511 . S
C2781 C2777 1.376 . S
C2781 C2780 1.392 . S
C2781 H2793 0.929 . S
C2782 C2778 1.531 . S
C2782 H2794 0.960 . S
C2782 H2795 0.962 . S
C2782 H2796 0.960 . S
C2783 C2780 1.511 . S
C2783 H2797 0.961 . S
C2783 H2798 0.961 . S
C2783 H2799 0.961 . S
C2784 C2785 1.370 . S
C2784 C2786 1.363 . S
C2784 H2800 0.931 . S
C2785 C2784 1.370 . S
C2785 C2789 1.408 . S
C2786 C2784 1.363 . S
C2786 C2787 1.370 . S
C2786 C2790 1.524 . S
C2787 C2779 1.503 . S
C2787 C2786 1.370 . S
C2787 C2788 1.403 . S
C2788 C2787 1.403 . S
C2788 C2789 1.404 . S
C2788 C2791 1.539 . S
C2789 C2785 1.408 . S
C2789 C2788 1.404 . S
C2789 H2801 0.930 . S
C2790 C2786 1.524 . S
C2790 H2802 0.956 . S
C2790 H2803 0.961 . S
C2790 H2804 0.961 . S
C2791 C2788 1.539 . S
C2791 H2805 0.958 . S
C2791 H2806 0.961 . S
C2791 H2807 0.960 . S
H2792 C2776 0.931 . S
H2793 C2781 0.929 . S
H2794 C2782 0.960 . S
H2795 C2782 0.962 . S
H2796 C2782 0.960 . S
H2797 C2783 0.961 . S
H2798 C2783 0.961 . S
H2799 C2783 0.961 . S
H2800 C2784 0.931 . S
H2801 C2789 0.930 . S
H2802 C2790 0.956 . S
H2803 C2790 0.961 . S
H2804 C2790 0.961 . S
H2805 C2791 0.958 . S
H2806 C2791 0.961 . S
H2807 C2791 0.960 . S
C505 C6 1.454 . S
C513 C160 1.440 . S
C537 C132 1.406 . S
C545 C20 1.418 . S
C569 C146 1.406 . S
C577 C34 1.419 . S
C601 C48 1.394 . S
C609 C104 1.416 . S
C633 C62 1.421 . S
C641 C118 1.424 . S
C665 C76 1.437 . S
C673 C90 1.431 . S
C697 C174 1.427 . S
C705 C328 1.431 . S
C729 C300 1.395 . S
C737 C188 1.415 . S
C761 C202 1.418 . S
C769 C314 1.428 . S
C793 C216 1.407 . S
C801 C272 1.419 . S
C825 C230 1.420 . S
C833 C286 1.429 . S
C857 C244 1.427 . S
C865 C258 1.427 . S
C889 C342 1.394 . S
C897 C496 1.415 . S
C921 C356 1.435 . S
C929 C468 1.430 . S
C953 C482 1.431 . S
C961 C370 1.433 . S
C985 C384 1.421 . S
C993 C440 1.424 . S
C1017 C454 1.454 . S
C1025 C398 1.441 . S
C1049 C426 1.418 . S
C1057 C412 1.427 . S
C1081 C7 1.345 . S
C1089 C217 1.358 . S
C1113 C21 1.356 . S
C1121 C231 1.345 . S
C1145 C35 1.335 . S
C1153 C245 1.349 . S
C1177 C49 1.364 . S
C1185 C343 1.351 . S
C1209 C357 1.332 . S
C1217 C63 1.353 . S
C1241 C371 1.338 . S
C1249 C77 1.358 . S
C1273 C91 1.359 . S
C1281 C469 1.353 . S
C1305 C483 1.336 . S
C1313 C105 1.350 . S
C1337 C119 1.365 . S
C1345 C497 1.349 . S
C1369 C133 1.340 . S
C1377 C259 1.358 . S
C1401 C147 1.342 . S
C1409 C273 1.359 . S
C1433 C161 1.340 . S
C1441 C287 1.359 . S
C1465 C385 1.340 . S
C1473 C175 1.346 . S
C1497 C189 1.356 . S
C1505 C399 1.365 . S
C1529 C203 1.356 . S
C1537 C413 1.346 . S
C1561 C427 1.353 . S
C1569 C301 1.356 . S
C1593 C441 1.345 1_545 S
C1601 C315 1.357 . S
C1625 C329 1.354 . S
C1633 C455 1.345 . S
C1657 C8 1.282 . S
C1665 C64 1.298 . S
C1689 C78 1.264 . S
C1697 C22 1.274 . S
C1721 C50 1.257 . S
C1729 C36 1.286 . S
C1753 C92 1.289 . S
C1761 C148 1.302 . S
C1785 C162 1.258 . S
C1793 C106 1.276 . S
C1817 C120 1.305 . S
C1825 C134 1.281 . S
C1849 C232 1.255 . S
C1857 C176 1.275 . S
C1881 C190 1.320 . S
C1889 C246 1.298 . S
C1913 C204 1.252 . S
C1921 C218 1.282 . S
C1945 C316 1.318 . S
C1953 C260 1.289 . S
C1977 C330 1.309 . S
C1985 C274 1.283 . S
C2009 C302 1.282 . S
C2017 C288 1.275 . S
C2041 C344 1.257 . S
C2049 C400 1.274 . S
C2073 C358 1.309 . S
C2081 C414 1.287 . S
C2105 C372 1.256 . S
C2113 C386 1.286 . S
C2137 C484 1.319 . S
C2145 C428 1.291 . S
C2169 C498 1.255 . S
C2177 C442 1.277 . S
C2201 C470 1.320 . S
C2209 C456 1.296 . S
C2233 C135 1.979 . S
C2241 C9 1.982 . S
C2265 C149 1.966 . S
C2273 C23 1.975 . S
C2297 C37 1.969 . S
C2305 C163 1.977 . S
C2329 C51 1.985 . S
C2337 C93 1.983 . S
C2361 C107 1.977 . S
C2369 C65 1.980 . S
C2393 C79 1.983 . S
C2401 C121 1.982 . S
C2425 C303 1.967 . S
C2433 C177 1.975 . S
C2457 C317 1.985 . S
C2465 C191 1.983 . S
C2489 C205 1.962 . S
C2497 C331 1.974 . S
C2521 C261 1.981 . S
C2529 C219 1.981 . S
C2553 C275 1.969 . S
C2561 C233 1.976 . S
C2585 C289 1.985 . S
C2593 C247 1.983 . S
C2617 C345 1.970 . S
C2625 C471 1.978 . S
C2649 C485 1.984 . S
C2657 C359 1.983 . S
C2681 C373 1.963 . S
C2689 C499 1.974 . S
C2713 C387 1.984 . S
C2721 C429 1.982 . S
C2745 C401 1.970 . S
C2753 C443 1.976 . S
C2777 C457 1.963 . S
C2785 C415 1.974 . S
