# Generated by pormake.
# Topology zfs, (5)-cn, num edge types: 1
# Building blocks:
#     Node 0, Type 0, BuildingBlock: BEQFEK_clean_sbu_0, # of connection points: 5
#     Node 1, Type 0, BuildingBlock: BEQFEK_clean_sbu_0, # of connection points: 5
#     Node 2, Type 0, BuildingBlock: BEQFEK_clean_sbu_0, # of connection points: 5
#     Node 3, Type 0, BuildingBlock: BEQFEK_clean_sbu_0, # of connection points: 5
#     Node 4, Type 0, BuildingBlock: BEQFEK_clean_sbu_0, # of connection points: 5
#     Node 5, Type 0, BuildingBlock: BEQFEK_clean_sbu_0, # of connection points: 5
#     Node 6, Type 0, BuildingBlock: BEQFEK_clean_sbu_0, # of connection points: 5
#     Node 7, Type 0, BuildingBlock: BEQFEK_clean_sbu_0, # of connection points: 5
#     Edge 8, Type (0, 0), BuildingBlock: CIFDUS_clean_linker_0, # of connection points: 2
#     Edge 9, Type (0, 0), BuildingBlock: CIFDUS_clean_linker_0, # of connection points: 2
#     Edge 10, Type (0, 0), BuildingBlock: CIFDUS_clean_linker_0, # of connection points: 2
#     Edge 11, Type (0, 0), BuildingBlock: CIFDUS_clean_linker_0, # of connection points: 2
#     Edge 12, Type (0, 0), BuildingBlock: CIFDUS_clean_linker_0, # of connection points: 2
#     Edge 13, Type (0, 0), BuildingBlock: CIFDUS_clean_linker_0, # of connection points: 2
#     Edge 14, Type (0, 0), BuildingBlock: CIFDUS_clean_linker_0, # of connection points: 2
#     Edge 15, Type (0, 0), BuildingBlock: CIFDUS_clean_linker_0, # of connection points: 2
#     Edge 16, Type (0, 0), BuildingBlock: CIFDUS_clean_linker_0, # of connection points: 2
#     Edge 17, Type (0, 0), BuildingBlock: CIFDUS_clean_linker_0, # of connection points: 2
#     Edge 18, Type (0, 0), BuildingBlock: CIFDUS_clean_linker_0, # of connection points: 2
#     Edge 19, Type (0, 0), BuildingBlock: CIFDUS_clean_linker_0, # of connection points: 2
#     Edge 20, Type (0, 0), BuildingBlock: CIFDUS_clean_linker_0, # of connection points: 2
#     Edge 21, Type (0, 0), BuildingBlock: CIFDUS_clean_linker_0, # of connection points: 2
#     Edge 22, Type (0, 0), BuildingBlock: CIFDUS_clean_linker_0, # of connection points: 2
#     Edge 23, Type (0, 0), BuildingBlock: CIFDUS_clean_linker_0, # of connection points: 2
#     Edge 24, Type (0, 0), BuildingBlock: CIFDUS_clean_linker_0, # of connection points: 2
#     Edge 25, Type (0, 0), BuildingBlock: CIFDUS_clean_linker_0, # of connection points: 2
#     Edge 26, Type (0, 0), BuildingBlock: CIFDUS_clean_linker_0, # of connection points: 2
#     Edge 27, Type (0, 0), BuildingBlock: CIFDUS_clean_linker_0, # of connection points: 2
# Relax obj value: 0.317
# Max RMSD: 0.159
# Mean RMSD: 0.159
data_MOF--net-zfs--node1-BEQFEK_clean_sbu_0--edge1-CIFDUS_clean_linker_0
_symmetry_space_group_name_H-M    P1
_symmetry_Int_Tables_number       1
_symmetry_cell_setting            triclinic
loop_
_symmetry_equiv_pos_as_xyz
'x, y, z'
_cell_length_a     28.202986
_cell_length_b     28.288129
_cell_length_c     37.634663
_cell_angle_alpha  89.995909
_cell_angle_beta   90.176937
_cell_angle_gamma 90.22809
loop_
_atom_site_label
_atom_site_type_symbol
_atom_site_fract_x
_atom_site_fract_y
_atom_site_fract_z
_atom_type_partial_charge
Co0 Co 0.05557 0.28413 0.25422 0.0
Co1 Co 0.97944 0.2872 0.19385 0.0
C2 C 0.01843 0.37576 0.23076 0.0
O3 O 0.04699 0.35303 0.25051 0.0
O4 O 0.99108 0.35431 0.20904 0.0
C5 C 0.12778 0.29961 0.30849 0.0
O6 O 0.11564 0.34438 0.30779 0.0
C7 C 0.97086 0.31127 0.12 0.0
C8 C 0.91122 0.26753 0.1008 0.0
C9 C 0.94848 0.29582 0.0892 0.0
N10 N 0.94943 0.29131 0.14819 0.0
N11 N 0.91287 0.26624 0.13664 0.0
C12 C 1.01369 0.34263 0.12276 0.0
H13 H 1.01058 0.36635 0.14592 0.0
H14 H 0.04586 0.3208 0.1266 0.0
H15 H 0.01792 0.36461 0.09854 0.0
C16 C 0.11031 0.23546 0.19691 0.0
N17 N 0.07124 0.25703 0.20974 0.0
N18 N 0.03706 0.25394 0.18607 0.0
C19 C 0.05248 0.22813 0.15831 0.0
C20 C 0.0997 0.21707 0.16353 0.0
C21 C 0.15659 0.23279 0.21625 0.0
H22 H 0.15403 0.2053 0.2372 0.0
H23 H 0.16424 0.26708 0.22944 0.0
H24 H 0.18594 0.2236 0.19796 0.0
O25 O 0.99648 0.25404 0.27362 0.0
O26 O 0.9416 0.25312 0.23094 0.0
H27 H 0.9843 0.20506 0.13898 0.0
H28 H 0.03388 0.17204 0.12216 0.0
C29 C 0.02143 0.20782 0.12977 0.0
H30 H 0.02347 0.23023 0.10576 0.0
H31 H 0.89141 0.24535 0.15289 0.0
O32 O 0.10692 0.27028 0.28812 0.0
C33 C 0.95489 0.24332 0.26263 0.0
Co34 Co 0.74781 0.06294 0.50845 0.0
Co35 Co 0.74439 0.9869 0.44904 0.0
C36 C 0.65517 0.02759 0.48473 0.0
O37 O 0.67808 0.05596 0.50473 0.0
O38 O 0.67685 0.99997 0.4635 0.0
C39 C 0.74038 0.13908 0.56194 0.0
O40 O 0.69458 0.13132 0.56461 0.0
C41 C 0.72162 0.97526 0.37522 0.0
C42 C 0.7662 0.91558 0.35825 0.0
C43 C 0.73804 0.95191 0.34527 0.0
N44 N 0.74092 0.95523 0.40422 0.0
N45 N 0.76651 0.91866 0.39404 0.0
C46 C 0.68985 0.01758 0.37649 0.0
H47 H 0.66544 0.01487 0.3993 0.0
H48 H 0.71148 0.05006 0.38008 0.0
H49 H 0.66844 0.02068 0.35182 0.0
C50 C 0.7978 0.11694 0.45118 0.0
N51 N 0.77543 0.07809 0.46379 0.0
N52 N 0.77862 0.04404 0.44026 0.0
C53 C 0.80527 0.05939 0.41273 0.0
C54 C 0.81717 0.10648 0.41814 0.0
C55 C 0.80007 0.16326 0.47027 0.0
H56 H 0.82981 0.1624 0.4896 0.0
H57 H 0.76666 0.16932 0.48502 0.0
H58 H 0.80614 0.19284 0.45143 0.0
O59 O 0.77676 1.00404 0.52923 0.0
O60 O 0.7775 0.94927 0.48689 0.0
H61 H 0.82774 0.99124 0.39399 0.0
H62 H 0.86157 0.04042 0.37699 0.0
C63 C 0.82551 0.02821 0.38452 0.0
H64 H 0.80304 0.03 0.36044 0.0
H65 H 0.78714 0.89822 0.41117 0.0
O66 O 0.76519 0.11425 0.541 0.0
C67 C 0.78708 0.96243 0.51864 0.0
Co68 Co 0.95264 0.74908 0.76766 0.0
Co69 Co 0.03002 0.73908 0.71126 0.0
C70 C 0.9834 0.65453 0.74722 0.0
O71 O 0.95379 0.68027 0.76331 0.0
O72 O 0.01582 0.6728 0.72817 0.0
C73 C 0.8967 0.73761 0.82788 0.0
O74 O 0.92879 0.70551 0.83528 0.0
C75 C 0.0421 0.70575 0.64156 0.0
C76 C 0.09532 0.75382 0.61842 0.0
C77 C 0.06056 0.72091 0.60953 0.0
N78 N 0.06264 0.73044 0.66784 0.0
N79 N 0.09596 0.75779 0.65415 0.0
C80 C 1.00323 0.67026 0.64734 0.0
H81 H 0.01575 0.64287 0.66616 0.0
H82 H 0.97199 0.68788 0.65924 0.0
H83 H 0.99296 0.65197 0.62241 0.0
C84 C 0.90337 0.80217 0.70983 0.0
N85 N 0.94001 0.77706 0.7231 0.0
N86 N 0.97439 0.7759 0.69971 0.0
C87 C 0.96156 0.8026 0.67142 0.0
C88 C 0.91561 0.81906 0.6763 0.0
C89 C 0.85754 0.80931 0.72897 0.0
H90 H 0.86223 0.83767 0.74906 0.0
H91 H 0.84738 0.77639 0.7431 0.0
H92 H 0.82875 0.81945 0.71035 0.0
O93 O 1.01291 0.77507 0.7898 0.0
O94 O 0.06811 0.77255 0.74773 0.0
H95 H 0.03129 0.82277 0.65453 0.0
H96 H 0.98415 0.85471 0.63307 0.0
C97 C 0.99503 0.81964 0.64344 0.0
H98 H 0.99492 0.7946 0.62096 0.0
H99 H 0.11532 0.7828 0.66859 0.0
O100 O 0.90062 0.76214 0.79981 0.0
C101 C 0.05519 0.78334 0.77917 0.0
Co102 Co 0.28677 0.94587 0.01979 0.0
Co103 Co 0.28167 0.02743 0.96488 0.0
C104 C 0.37404 0.99248 0.99843 0.0
O105 O 0.35459 0.95773 0.014 0.0
O106 O 0.34948 0.02159 0.98042 0.0
C107 C 0.30915 0.87911 0.07484 0.0
O108 O 0.34822 0.90387 0.07927 0.0
C109 C 0.30934 0.03965 0.89363 0.0
C110 C 0.25808 0.08989 0.87092 0.0
C111 C 0.29217 0.05681 0.86169 0.0
N112 N 0.28509 0.05953 0.92034 0.0
N113 N 0.25556 0.09095 0.90678 0.0
C114 C 0.34651 1.0025 0.89892 0.0
H115 H 0.37433 0.01631 0.91703 0.0
H116 H 0.33054 0.97074 0.91143 0.0
H117 H 0.364 0.99266 0.87365 0.0
C118 C 0.23276 0.89462 0.96364 0.0
N119 N 0.25641 0.93268 0.97632 0.0
N120 N 0.25071 0.96837 0.95447 0.0
C121 C 0.22161 0.95458 0.92778 0.0
C122 C 0.21018 0.90716 0.93213 0.0
C123 C 0.23112 0.84767 0.98186 0.0
H124 H 0.26635 0.83948 0.99346 0.0
H125 H 0.22048 0.81917 0.96317 0.0
H126 H 0.20504 0.84923 1.00385 0.0
O127 O 0.25655 1.00183 0.04319 0.0
O128 O 0.24747 0.06019 1.00396 0.0
H129 H 0.19407 0.02293 0.9144 0.0
H130 H 0.16261 0.97424 0.8943 0.0
C131 C 0.19818 0.9876 0.90218 0.0
H132 H 0.21985 0.99045 0.87784 0.0
H133 H 0.23046 0.10943 0.92155 0.0
O134 O 0.27922 0.89148 0.05135 0.0
C135 C 0.24239 0.04345 0.03533 0.0
Co136 Co 0.07222 0.74436 0.24421 0.0
Co137 Co 0.99957 0.74173 0.30536 0.0
C138 C 0.03522 0.65306 0.26834 0.0
O139 O 0.06287 0.67554 0.24786 0.0
O140 O 1.00932 0.67446 0.29068 0.0
C141 C 0.15753 0.72946 0.20421 0.0
O142 O 0.16843 0.69677 0.22756 0.0
C143 C 0.98993 0.71269 0.37665 0.0
C144 C 0.93969 0.76335 0.39997 0.0
C145 C 0.97297 0.72916 0.4087 0.0
N146 N 0.9698 0.7375 0.35034 0.0
N147 N 0.93833 0.76659 0.3642 0.0
C148 C 0.02637 0.6751 0.37078 0.0
H149 H 1.01069 0.64721 0.35373 0.0
H150 H 0.05749 0.69027 0.35679 0.0
H151 H 0.03765 0.65795 0.39588 0.0
C152 C 0.13007 0.79635 0.29955 0.0
N153 N 0.09117 0.77249 0.28819 0.0
N154 N 0.05836 0.77462 0.31285 0.0
C155 C 0.07462 0.80146 0.34001 0.0
C156 C 0.12103 0.81494 0.33318 0.0
C157 C 0.17468 0.8013 0.27846 0.0
H158 H 0.16662 0.81859 0.25269 0.0
H159 H 0.18895 0.76568 0.27277 0.0
H160 H 0.20215 0.82192 0.29288 0.0
O161 O 1.01326 0.77522 0.22583 0.0
O162 O 0.96063 0.77597 0.26967 0.0
H163 H 1.00758 0.82663 0.35875 0.0
H164 H 0.05804 0.85596 0.37818 0.0
C165 C 0.04412 0.8214 0.36875 0.0
H166 H 0.04372 0.797 0.39164 0.0
H167 H 0.91951 0.79177 0.34967 0.0
O168 O 0.12015 0.75384 0.20763 0.0
C169 C 0.97246 0.78613 0.23785 0.0
Co170 Co 0.28024 0.06722 0.49531 0.0
Co171 Co 0.29049 0.99338 0.55593 0.0
C172 C 0.37529 0.03963 0.51808 0.0
O173 O 0.35034 0.06601 0.49815 0.0
O174 O 0.3562 1.01106 0.53997 0.0
C175 C 0.27444 0.15262 0.44995 0.0
O176 O 0.3063 0.17422 0.46969 0.0
C177 C 0.32142 0.9878 0.62795 0.0
C178 C 0.27626 0.93234 0.65136 0.0
C179 C 0.30644 0.9695 0.66024 0.0
N180 N 0.29906 0.96471 0.60155 0.0
N181 N 0.27352 0.93023 0.61557 0.0
C182 C 0.35533 0.02787 0.62186 0.0
H183 H 0.33622 0.05834 0.6101 0.0
H184 H 0.37375 0.03869 0.64665 0.0
H185 H 0.38283 0.01645 0.60282 0.0
C186 C 0.22796 0.11978 0.55349 0.0
N187 N 0.25163 0.08224 0.53997 0.0
N188 N 0.25191 0.04819 0.56377 0.0
C189 C 0.22647 0.06214 0.5922 0.0
C190 C 0.21188 0.10831 0.5874 0.0
C191 C 0.22217 0.16598 0.53477 0.0
H192 H 0.20547 0.15991 0.50844 0.0
H193 H 0.25763 0.18194 0.53034 0.0
H194 H 0.20021 0.19088 0.55039 0.0
O195 O 0.25632 1.00477 0.47719 0.0
O196 O 0.25972 0.95092 0.52001 0.0
H197 H 0.1747 0.04145 0.63116 0.0
H198 H 0.23489 0.03339 0.64426 0.0
C199 C 0.21019 0.03047 0.62156 0.0
H200 H 0.20786 0.99347 0.6122 0.0
H201 H 0.25056 0.90849 0.60109 0.0
O202 O 0.26048 0.11123 0.45784 0.0
C203 C 0.24917 0.96268 0.48818 0.0
Co204 Co 0.95016 0.28505 0.74972 0.0
Co205 Co 0.03758 0.28229 0.7999 0.0
C206 C 0.99589 0.37361 0.76826 0.0
O207 O 0.95988 0.35354 0.75449 0.0
O208 O 0.02752 0.34969 0.78441 0.0
C209 C 0.85533 0.29169 0.71525 0.0
O210 O 0.84198 0.32507 0.73726 0.0
C211 C 0.05814 0.31036 0.87095 0.0
C212 C 0.11334 0.26092 0.88897 0.0
C213 C 0.08068 0.2937 0.90126 0.0
N214 N 0.07467 0.28688 0.84255 0.0
N215 N 0.10897 0.2585 0.85326 0.0
C216 C 0.01954 0.34656 0.86885 0.0
H217 H 0.0284 0.37295 0.84817 0.0
H218 H 0.98565 0.32925 0.86121 0.0
H219 H 0.01522 0.36574 0.89433 0.0
C220 C 0.90447 0.23497 0.8112 0.0
N221 N 0.94153 0.25553 0.79438 0.0
N222 N 0.97994 0.25049 0.81384 0.0
C223 C 0.96882 0.22467 0.84288 0.0
C224 C 0.92056 0.21524 0.84286 0.0
C225 C 0.85457 0.2358 0.79772 0.0
H226 H 0.85289 0.21825 0.77139 0.0
H227 H 0.84337 0.27302 0.7943 0.0
H228 H 0.82971 0.21802 0.81622 0.0
O229 O 1.00558 0.2564 0.72398 0.0
O230 O 0.06825 0.24834 0.75934 0.0
H231 H 0.03854 0.19823 0.85421 0.0
H232 H 0.99131 0.16826 0.87734 0.0
C233 C 1.00413 0.20314 0.86773 0.0
H234 H 1.00865 0.2261 0.89124 0.0
H235 H 0.12609 0.23425 0.83686 0.0
O236 O 0.89606 0.27302 0.71809 0.0
C237 C 0.04829 0.24298 0.72903 0.0
Co238 Co 0.7443 0.95025 0.99963 0.0
Co239 Co 0.74438 0.0338 0.05254 0.0
C240 C 0.65427 0.98593 0.02472 0.0
O241 O 0.67702 0.95402 0.00861 0.0
O242 O 0.67554 0.01964 0.04071 0.0
C243 C 0.72698 0.88633 0.94338 0.0
O244 O 0.69137 0.91457 0.93609 0.0
C245 C 0.72182 0.05256 0.1249 0.0
C246 C 0.77071 0.10986 0.14064 0.0
C247 C 0.73981 0.07615 0.15432 0.0
N248 N 0.7427 0.06974 0.09555 0.0
N249 N 0.77084 0.1051 0.10493 0.0
C250 C 0.68665 0.01266 0.12442 0.0
H251 H 0.6582 0.02053 0.10502 0.0
H252 H 0.70443 0.97963 0.11595 0.0
H253 H 0.66965 1.00748 0.15066 0.0
C254 C 0.80245 0.90518 0.05524 0.0
N255 N 0.77729 0.94167 0.04219 0.0
N256 N 0.7804 0.97787 0.0639 0.0
C257 C 0.80963 0.96594 0.09101 0.0
C258 C 0.8237 0.91926 0.08683 0.0
C259 C 0.80515 0.85765 0.03793 0.0
H260 H 0.82972 0.85968 0.015 0.0
H261 H 0.76965 0.84728 0.02775 0.0
H262 H 0.81796 0.8303 0.05674 0.0
O263 O 0.7682 1.00699 0.9735 0.0
O264 O 0.77433 0.06737 0.01115 0.0
H265 H 0.83243 0.03564 0.10591 0.0
H266 H 0.86509 0.98855 0.12685 0.0
C267 C 0.82946 0.9999 0.11768 0.0
H268 H 0.80598 1.001 0.14111 0.0
H269 H 0.79322 0.12309 0.08747 0.0
O270 O 0.75404 0.89556 0.96947 0.0
C271 C 0.77956 0.04986 0.98006 0.0
H272 H 1.00831 0.59805 0.21304 0.0
H273 H 0.06038 0.59234 0.32063 0.0
H274 H 0.06041 0.5058 0.31857 0.0
H275 H 0.04614 0.43178 0.28584 0.0
H276 H 0.98852 0.43739 0.17958 0.0
H277 H 0.98998 0.52367 0.18135 0.0
C278 C 0.01953 0.57762 0.23595 0.0
C279 C 0.03421 0.6011 0.26696 0.0
C280 C 0.01848 0.52793 0.23476 0.0
C281 C 0.04844 0.57472 0.29666 0.0
C282 C 0.04867 0.52534 0.29541 0.0
C283 C 0.03392 0.45189 0.26307 0.0
C284 C 0.01768 0.42811 0.2325 0.0
C285 C 0.0338 0.50155 0.26457 0.0
C286 C 1.00131 0.45472 0.20341 0.0
C287 C 1.00218 0.50412 0.20437 0.0
H288 H 0.59698 0.06044 0.53707 0.0
H289 H 0.59447 0.99325 0.43412 0.0
H290 H 0.50797 0.9934 0.43443 0.0
H291 H 0.43229 1.01174 0.46428 0.0
H292 H 0.43466 0.07336 0.56887 0.0
H293 H 0.52153 0.07643 0.56768 0.0
C294 C 0.57752 0.04592 0.51467 0.0
C295 C 0.60241 0.02715 0.48552 0.0
C296 C 0.52757 0.04514 0.51534 0.0
C297 C 0.57645 1.00798 0.45691 0.0
C298 C 0.52686 1.00809 0.45702 0.0
C299 C 0.45204 0.02603 0.48663 0.0
C300 C 0.42748 0.04258 0.51653 0.0
C301 C 0.50199 0.02651 0.48608 0.0
C302 C 0.45309 0.06042 0.54563 0.0
C303 C 0.50267 0.06219 0.54492 0.0
H304 H 0.05382 0.58904 0.75174 0.0
H305 H 0.90177 0.604 0.74931 0.0
H306 H 0.89205 0.51842 0.75456 0.0
H307 H 0.92662 0.43927 0.76052 0.0
H308 H 0.0784 0.42434 0.76842 0.0
H309 H 0.08845 0.50967 0.76068 0.0
C310 C 0.01866 0.57338 0.75221 0.0
C311 C 0.97857 0.60261 0.74992 0.0
C312 C 1.01329 0.52417 0.75644 0.0
C313 C 0.93314 0.58212 0.75111 0.0
C314 C 0.92755 0.53322 0.75408 0.0
C315 C 0.96189 0.45472 0.76051 0.0
C316 C 1.00169 0.42549 0.76481 0.0
C317 C 0.96734 0.5039 0.7569 0.0
C318 C 0.04715 0.4461 0.76524 0.0
C319 C 0.05294 0.49488 0.76068 0.0
H320 H 0.43906 0.92872 0.02082 0.0
H321 H 0.42533 0.07278 0.98462 0.0
H322 H 0.51058 0.08517 0.99269 0.0
H323 H 0.58984 0.05412 0.00878 0.0
H324 H 0.60303 0.90832 0.04037 0.0
H325 H 0.51721 0.8977 0.03597 0.0
C326 C 0.45464 0.96289 0.01474 0.0
C327 C 0.42583 0.99975 1.00219 0.0
C328 C 0.50363 0.96954 0.01892 0.0
C329 C 0.44674 0.04369 0.99416 0.0
C330 C 0.49546 0.05089 0.99892 0.0
C331 C 0.5736 0.02036 0.01515 0.0
C332 C 0.60227 0.98216 0.02525 0.0
C333 C 0.52432 0.01403 0.01124 0.0
C334 C 0.58133 0.93819 0.03272 0.0
C335 C 0.5324 0.93207 0.03008 0.0
H336 H 0.25868 0.2467 0.43892 0.0
H337 H 0.24314 0.10909 0.39063 0.0
H338 H 0.20035 0.1436 0.34082 0.0
H339 H 0.16165 0.21088 0.31364 0.0
H340 H 0.17202 0.3487 0.3623 0.0
H341 H 0.22298 0.31626 0.40907 0.0
C342 C 0.24648 0.22459 0.41717 0.0
C343 C 0.25365 0.17549 0.41847 0.0
C344 C 0.2207 0.24455 0.38888 0.0
C345 C 0.23752 0.14697 0.39033 0.0
C346 C 0.21309 0.16662 0.36184 0.0
C347 C 0.17524 0.23405 0.3343 0.0
C348 C 0.16256 0.28198 0.33473 0.0
C349 C 0.20349 0.21509 0.3613 0.0
C350 C 0.18103 0.31154 0.36149 0.0
C351 C 0.21007 0.293 0.38828 0.0
H352 H 0.7049 0.18865 0.61862 0.0
H353 H 0.8312 0.16904 0.55558 0.0
H354 H 0.87594 0.21934 0.59561 0.0
H355 H 0.88194 0.26163 0.65133 0.0
H356 H 0.75833 0.28181 0.71648 0.0
H357 H 0.70951 0.2393 0.67253 0.0
C358 C 0.74202 0.19596 0.61346 0.0
C359 C 0.76476 0.17443 0.58443 0.0
C360 C 0.76807 0.22479 0.637 0.0
C361 C 0.81283 0.18455 0.57791 0.0
C362 C 0.83859 0.21338 0.6008 0.0
C363 C 0.84415 0.25719 0.65571 0.0
C364 C 0.82369 0.274 0.6871 0.0
C365 C 0.81694 0.23248 0.63085 0.0
C366 C 0.77468 0.26897 0.69235 0.0
C367 C 0.74696 0.24442 0.6674 0.0
H368 H 0.78297 0.81173 0.95729 0.0
H369 H 0.70394 0.87908 0.87309 0.0
H370 H 0.74562 0.83152 0.829 0.0
H371 H 0.81466 0.78294 0.81452 0.0
H372 H 0.89581 0.71826 0.8988 0.0
H373 H 0.84268 0.75235 0.94295 0.0
C374 C 0.77418 0.81523 0.92931 0.0
C375 C 0.74159 0.84962 0.91821 0.0
C376 C 0.79911 0.78887 0.90424 0.0
C377 C 0.72941 0.85313 0.88213 0.0
C378 C 0.75347 0.82626 0.85694 0.0
C379 C 0.82016 0.77569 0.84255 0.0
C380 C 0.85964 0.74938 0.85362 0.0
C381 C 0.79007 0.79596 0.86767 0.0
C382 C 0.86589 0.739 0.88979 0.0
C383 C 0.83568 0.75859 0.91501 0.0
H384 H 0.23964 0.81467 0.06641 0.0
H385 H 0.34952 0.85869 0.13941 0.0
H386 H 0.31645 0.80699 0.1853 0.0
H387 H 0.24788 0.76083 0.20739 0.0
H388 H 0.1348 0.72432 0.1351 0.0
H389 H 0.17772 0.76086 0.08591 0.0
C390 C 0.25684 0.81243 0.09218 0.0
C391 C 0.29615 0.84124 0.09987 0.0
C392 C 0.23681 0.78406 0.11857 0.0
C393 C 0.31878 0.8372 0.13304 0.0
C394 C 0.29977 0.80783 0.15932 0.0
C395 C 0.23373 0.75964 0.18056 0.0
C396 C 0.1887 0.7401 0.17441 0.0
C397 C 0.2576 0.78273 0.15283 0.0
C398 C 0.16968 0.73923 0.13999 0.0
C399 C 0.194 0.76032 0.11204 0.0
H400 H 0.04061 0.29407 0.06589 0.0
H401 H 0.89586 0.29961 0.02861 0.0
H402 H 0.92393 0.29986 0.96713 0.0
H403 H 0.98914 0.29665 0.92472 0.0
H404 H 0.134 0.2941 0.96181 0.0
H405 H 0.10603 0.29465 0.02344 0.0
C406 C 0.01501 0.29709 0.0446 0.0
C407 C 0.96603 0.29862 0.05206 0.0
C408 C 0.03145 0.29753 0.00945 0.0
C409 C 0.93368 0.29926 0.02365 0.0
C410 C 0.94973 0.29937 0.98854 0.0
C411 C 0.01488 0.29803 0.94607 0.0
C412 C 0.06384 0.29726 0.93854 0.0
C413 C 0.99853 0.29863 0.98119 0.0
C414 C 0.09625 0.2957 0.96688 0.0
C415 C 0.08024 0.29596 1.00205 0.0
H416 H 0.74085 0.98585 0.1799 0.0
H417 H 0.73876 0.13167 0.21345 0.0
H418 H 0.73822 0.10622 0.27573 0.0
H419 H 0.73921 0.04279 0.31973 0.0
H420 H 0.73726 0.89694 0.28602 0.0
H421 H 0.73853 0.92246 0.22388 0.0
C422 C 0.73863 0.01226 0.20063 0.0
C423 C 0.73785 0.06074 0.19195 0.0
C424 C 0.73779 0.99735 0.23612 0.0
C425 C 0.73834 0.09422 0.21945 0.0
C426 C 0.73805 0.07966 0.25498 0.0
C427 C 0.73723 0.01634 0.29906 0.0
C428 C 0.73622 0.96782 0.3077 0.0
C429 C 0.73746 0.0313 0.26355 0.0
C430 C 0.73711 0.93443 0.28012 0.0
C431 C 0.73786 0.94901 0.24464 0.0
H432 H 0.1025 0.71844 0.54521 0.0
H433 H 0.96512 0.72231 0.59529 0.0
H434 H 0.92628 0.7223 0.53789 0.0
H435 H 0.93078 0.72397 0.47283 0.0
H436 H 0.06818 0.72804 0.42282 0.0
H437 H 0.10706 0.72241 0.48019 0.0
C438 C 0.06409 0.71857 0.54342 0.0
C439 C 0.037 0.71803 0.5745 0.0
C440 C 0.04171 0.72015 0.51014 0.0
C441 C 0.98715 0.71986 0.57191 0.0
C442 C 0.96466 0.72073 0.53897 0.0
C443 C 0.96918 0.72309 0.47463 0.0
C444 C 0.99631 0.7244 0.44361 0.0
C445 C 0.99156 0.72096 0.50788 0.0
C446 C 0.04617 0.72475 0.44618 0.0
C447 C 0.06864 0.72211 0.47907 0.0
H448 H 0.30534 0.92793 0.72503 0.0
H449 H 0.305 0.06491 0.67461 0.0
H450 H 0.30297 0.10355 0.73193 0.0
H451 H 0.29893 0.0991 0.79719 0.0
H452 H 0.29087 0.96217 0.84725 0.0
H453 H 0.29791 0.9234 0.78995 0.0
C454 C 0.30549 0.96622 0.72668 0.0
C455 C 0.30787 0.99317 0.69544 0.0
C456 C 0.30249 0.98853 0.75995 0.0
C457 C 0.30632 0.04288 0.69802 0.0
C458 C 0.30416 0.06528 0.73096 0.0
C459 C 0.29913 0.06082 0.79544 0.0
C460 C 0.29645 0.03374 0.82654 0.0
C461 C 0.30222 0.03851 0.76215 0.0
C462 C 0.29523 0.98406 0.82389 0.0
C463 C 0.29873 0.96169 0.79103 0.0
H464 H 0.15151 0.13676 0.17222 0.0
H465 H 0.1152 0.24402 0.09572 0.0
H466 H 0.15714 0.20093 0.04917 0.0
H467 H 0.20062 0.13045 0.02943 0.0
H468 H 0.23449 0.02158 0.10575 0.0
H469 H 0.19735 0.06728 0.15278 0.0
C470 C 0.15368 0.15092 0.14549 0.0
C471 C 0.13069 0.19345 0.13733 0.0
C472 C 0.17699 0.12535 0.11863 0.0
C473 C 0.13284 0.21125 0.1025 0.0
C474 C 0.15664 0.18657 0.07587 0.0
C475 C 0.20005 0.11676 0.05635 0.0
C476 C 0.22021 0.0724 0.06378 0.0
C477 C 0.17822 0.14314 0.08346 0.0
C478 C 0.21906 0.05541 0.09898 0.0
C479 C 0.19788 0.08161 0.12607 0.0
H480 H 0.963 0.23506 0.33455 0.0
H481 H 0.87326 0.19447 0.24649 0.0
H482 H 0.82239 0.14948 0.28689 0.0
H483 H 0.80457 0.11977 0.34723 0.0
H484 H 0.8937 0.16155 0.4351 0.0
H485 H 0.9433 0.20837 0.39491 0.0
C486 C 0.93225 0.2165 0.32411 0.0
C487 C 0.92227 0.21803 0.28736 0.0
C488 C 0.90294 0.19098 0.34756 0.0
C489 C 0.88189 0.19406 0.27455 0.0
C490 C 0.8528 0.16819 0.29767 0.0
C491 C 0.83486 0.13923 0.3575 0.0
C492 C 0.84553 0.13723 0.39409 0.0
C493 C 0.86318 0.1661 0.33418 0.0
C494 C 0.8845 0.16295 0.40716 0.0
C495 C 0.91302 0.18947 0.38413 0.0
H496 H 0.79792 0.97203 0.59053 0.0
H497 H 0.83108 0.8783 0.50367 0.0
H498 H 0.87314 0.82583 0.5446 0.0
H499 H 0.90179 0.80699 0.60519 0.0
H500 H 0.8675 0.90017 0.6919 0.0
H501 H 0.82435 0.95204 0.6511 0.0
C502 C 0.81425 0.94011 0.58045 0.0
C503 C 0.81133 0.92945 0.54383 0.0
C504 C 0.83813 0.90982 0.60424 0.0
C505 C 0.83254 0.88758 0.53157 0.0
C506 C 0.85674 0.85752 0.55501 0.0
C507 C 0.8848 0.83867 0.61509 0.0
C508 C 0.88771 0.84961 0.65161 0.0
C509 C 0.85997 0.86836 0.59138 0.0
C510 C 0.86527 0.89059 0.66408 0.0
C511 C 0.84084 0.92043 0.64068 0.0
H512 H 0.05156 0.78926 0.8517 0.0
H513 H 0.13662 0.83016 0.76154 0.0
H514 H 0.19231 0.87091 0.80091 0.0
H515 H 0.21615 0.89668 0.86088 0.0
H516 H 0.13306 0.85415 0.95133 0.0
H517 H 0.07769 0.81187 0.91213 0.0
C518 C 0.0823 0.80705 0.84066 0.0
C519 C 0.08963 0.80679 0.8036 0.0
C520 C 0.1147 0.82995 0.86357 0.0
C521 C 0.13002 0.82964 0.78988 0.0
C522 C 0.16191 0.85306 0.81239 0.0
C523 C 0.186 0.8779 0.87193 0.0
C524 C 0.17864 0.87839 0.90889 0.0
C525 C 0.15451 0.85365 0.84923 0.0
C526 C 0.13969 0.85378 0.923 0.0
C527 C 0.10789 0.82992 0.90056 0.0
H528 H 0.14058 0.8013 0.40301 0.0
H529 H 0.1679 0.89666 0.3161 0.0
H530 H 0.21133 0.94975 0.35616 0.0
H531 H 0.23799 0.97095 0.4164 0.0
H532 H 0.21062 0.87573 0.50367 0.0
H533 H 0.17067 0.82083 0.46307 0.0
C534 C 0.15653 0.83353 0.39286 0.0
C535 C 0.15153 0.84484 0.35656 0.0
C536 C 0.18104 0.86407 0.41619 0.0
C537 C 0.17209 0.88673 0.34372 0.0
C538 C 0.19652 0.91728 0.36672 0.0
C539 C 0.22349 0.93811 0.42663 0.0
C540 C 0.22718 0.92778 0.46326 0.0
C541 C 0.20073 0.90659 0.40308 0.0
C542 C 0.20842 0.88475 0.47575 0.0
C543 C 0.18546 0.85333 0.45251 0.0
H544 H 0.12607 0.15325 0.5857 0.0
H545 H 0.24788 0.12845 0.65224 0.0
H546 H 0.2092 0.16821 0.70198 0.0
H547 H 0.13898 0.20715 0.72761 0.0
H548 H 0.01612 0.23008 0.66114 0.0
H549 H 0.05662 0.19443 0.6109 0.0
C550 C 0.14432 0.15749 0.61091 0.0
C551 C 0.1899 0.13842 0.61524 0.0
C552 C 0.12139 0.17971 0.63972 0.0
C553 C 0.21285 0.14315 0.64828 0.0
C554 C 0.19066 0.16571 0.67678 0.0
C555 C 0.12107 0.20449 0.70215 0.0
C556 C 0.07431 0.2213 0.69855 0.0
C557 C 0.14459 0.1836 0.67303 0.0
C558 C 0.05195 0.21742 0.66508 0.0
C559 C 0.07515 0.19703 0.63611 0.0
H560 H 0.86126 0.13904 0.83824 0.0
H561 H 0.92029 0.23892 0.91266 0.0
H562 H 0.88042 0.19861 0.96183 0.0
H563 H 0.83079 0.13267 0.98406 0.0
H564 H 0.77415 0.03138 0.90918 0.0
H565 H 0.81028 0.07447 0.8602 0.0
C566 C 0.86471 0.15225 0.86518 0.0
C567 C 0.89333 0.19201 0.87184 0.0
C568 C 0.84213 0.12844 0.89339 0.0
C569 C 0.8984 0.2083 0.90695 0.0
C570 C 0.87557 0.18527 0.93506 0.0
C571 C 0.82601 0.12029 0.95701 0.0
C572 C 0.79976 0.07867 0.95053 0.0
C573 C 0.84763 0.14496 0.9287 0.0
C574 C 0.79433 0.06307 0.91519 0.0
C575 C 0.81499 0.08774 0.887 0.0
H576 H 0.97834 0.79763 0.16624 0.0
H577 H 0.89091 0.83248 0.25641 0.0
H578 H 0.83743 0.87701 0.2177 0.0
H579 H 0.81596 0.90689 0.15805 0.0
H580 H 0.90258 0.87024 0.06811 0.0
H581 H 0.95591 0.82546 0.10685 0.0
C582 C 0.9476 0.81491 0.17751 0.0
C583 C 0.93887 0.81179 0.21428 0.0
C584 C 0.91683 0.84013 0.15508 0.0
C585 C 0.89853 0.83415 0.22824 0.0
C586 C 0.86797 0.85975 0.20612 0.0
C587 C 0.8466 0.88907 0.14708 0.0
C588 C 0.85545 0.89164 0.11036 0.0
C589 C 0.87687 0.86313 0.16952 0.0
C590 C 0.89494 0.86827 0.09626 0.0
C591 C 0.92547 0.84287 0.11841 0.0
loop_
_geom_bond_atom_site_label_1
_geom_bond_atom_site_label_2
_geom_bond_distance
_geom_bond_site_symmetry_2
_ccdc_geom_bond_type
Co0 O3 1.970 . S
Co0 N17 1.989 . S
Co0 O25 1.967 . S
Co0 O32 1.920 . S
Co1 O4 1.966 . S
Co1 N10 2.022 . S
Co1 N18 1.993 . S
Co1 O26 1.941 . S
C2 O3 1.258 . S
C2 O4 1.263 . S
O3 Co0 1.970 . S
O3 C2 1.258 . S
O4 Co1 1.966 . S
O4 C2 1.263 . S
C5 O6 1.235 . S
C5 O32 1.289 . S
O6 C5 1.235 . S
C7 C9 1.400 . S
C7 N10 1.351 . S
C7 C12 1.501 . S
C8 C9 1.387 . S
C8 N11 1.341 . S
C9 C7 1.400 . S
C9 C8 1.387 . S
N10 Co1 2.022 . S
N10 C7 1.351 . S
N10 N11 1.365 . S
N11 C8 1.341 . S
N11 N10 1.365 . S
N11 H31 0.862 . S
C12 C7 1.501 . S
C12 H13 0.961 . S
C12 H14 0.961 . S
C12 H15 0.960 . S
H13 C12 0.961 . S
H14 C12 0.961 . S
H15 C12 0.960 . S
C16 N17 1.342 . S
C16 C20 1.401 . S
C16 C21 1.499 . S
N17 Co0 1.989 . S
N17 C16 1.342 . S
N17 N18 1.388 . S
N18 Co1 1.993 . S
N18 N17 1.388 . S
N18 C19 1.346 . S
C19 N18 1.346 . S
C19 C20 1.396 . S
C19 C29 1.510 . S
C20 C16 1.401 . S
C20 C19 1.396 . S
C21 C16 1.499 . S
C21 H22 0.959 . S
C21 H23 0.960 . S
C21 H24 0.961 . S
H22 C21 0.959 . S
H23 C21 0.960 . S
H24 C21 0.961 . S
O25 Co0 1.967 . S
O25 C33 1.258 . S
O26 Co1 1.941 . S
O26 C33 1.266 . S
H27 C29 0.959 . S
H28 C29 0.961 . S
C29 C19 1.510 . S
C29 H27 0.959 . S
C29 H28 0.961 . S
C29 H30 0.960 . S
H30 C29 0.960 . S
H31 N11 0.862 . S
O32 Co0 1.920 . S
O32 C5 1.289 . S
C33 O25 1.258 . S
C33 O26 1.266 . S
Co34 O37 1.970 . S
Co34 N51 1.989 . S
Co34 O59 1.967 . S
Co34 O66 1.920 . S
Co35 O38 1.966 . S
Co35 N44 2.022 . S
Co35 N52 1.993 . S
Co35 O60 1.941 . S
C36 O37 1.258 . S
C36 O38 1.263 . S
O37 Co34 1.970 . S
O37 C36 1.258 . S
O38 Co35 1.966 . S
O38 C36 1.263 . S
C39 O40 1.235 . S
C39 O66 1.289 . S
O40 C39 1.235 . S
C41 C43 1.400 . S
C41 N44 1.351 . S
C41 C46 1.501 . S
C42 C43 1.387 . S
C42 N45 1.341 . S
C43 C41 1.400 . S
C43 C42 1.387 . S
N44 Co35 2.022 . S
N44 C41 1.351 . S
N44 N45 1.365 . S
N45 C42 1.341 . S
N45 N44 1.365 . S
N45 H65 0.862 . S
C46 C41 1.501 . S
C46 H47 0.961 . S
C46 H48 0.961 . S
C46 H49 0.960 . S
H47 C46 0.961 . S
H48 C46 0.961 . S
H49 C46 0.960 . S
C50 N51 1.342 . S
C50 C54 1.401 . S
C50 C55 1.499 . S
N51 Co34 1.989 . S
N51 C50 1.342 . S
N51 N52 1.388 . S
N52 Co35 1.993 . S
N52 N51 1.388 . S
N52 C53 1.346 . S
C53 N52 1.346 . S
C53 C54 1.396 . S
C53 C63 1.510 . S
C54 C50 1.401 . S
C54 C53 1.396 . S
C55 C50 1.499 . S
C55 H56 0.959 . S
C55 H57 0.960 . S
C55 H58 0.961 . S
H56 C55 0.959 . S
H57 C55 0.960 . S
H58 C55 0.961 . S
O59 Co34 1.967 . S
O59 C67 1.258 . S
O60 Co35 1.941 . S
O60 C67 1.266 . S
H61 C63 0.959 . S
H62 C63 0.961 . S
C63 C53 1.510 . S
C63 H61 0.959 . S
C63 H62 0.961 . S
C63 H64 0.960 . S
H64 C63 0.960 . S
H65 N45 0.862 . S
O66 Co34 1.920 . S
O66 C39 1.289 . S
C67 O59 1.258 . S
C67 O60 1.266 . S
Co68 O71 1.970 . S
Co68 N85 1.989 . S
Co68 O93 1.967 . S
Co68 O100 1.920 . S
Co69 O72 1.966 . S
Co69 N78 2.022 . S
Co69 N86 1.993 . S
Co69 O94 1.941 . S
C70 O71 1.258 . S
C70 O72 1.263 . S
O71 Co68 1.970 . S
O71 C70 1.258 . S
O72 Co69 1.966 . S
O72 C70 1.263 . S
C73 O74 1.235 . S
C73 O100 1.289 . S
O74 C73 1.235 . S
C75 C77 1.400 . S
C75 N78 1.351 . S
C75 C80 1.501 . S
C76 C77 1.387 . S
C76 N79 1.341 . S
C77 C75 1.400 . S
C77 C76 1.387 . S
N78 Co69 2.022 . S
N78 C75 1.351 . S
N78 N79 1.365 . S
N79 C76 1.341 . S
N79 N78 1.365 . S
N79 H99 0.862 . S
C80 C75 1.501 . S
C80 H81 0.961 . S
C80 H82 0.961 . S
C80 H83 0.960 . S
H81 C80 0.961 . S
H82 C80 0.961 . S
H83 C80 0.960 . S
C84 N85 1.342 . S
C84 C88 1.401 . S
C84 C89 1.499 . S
N85 Co68 1.989 . S
N85 C84 1.342 . S
N85 N86 1.388 . S
N86 Co69 1.993 . S
N86 N85 1.388 . S
N86 C87 1.346 . S
C87 N86 1.346 . S
C87 C88 1.396 . S
C87 C97 1.510 . S
C88 C84 1.401 . S
C88 C87 1.396 . S
C89 C84 1.499 . S
C89 H90 0.959 . S
C89 H91 0.960 . S
C89 H92 0.961 . S
H90 C89 0.959 . S
H91 C89 0.960 . S
H92 C89 0.961 . S
O93 Co68 1.967 . S
O93 C101 1.258 . S
O94 Co69 1.941 . S
O94 C101 1.266 . S
H95 C97 0.959 . S
H96 C97 0.961 . S
C97 C87 1.510 . S
C97 H95 0.959 . S
C97 H96 0.961 . S
C97 H98 0.960 . S
H98 C97 0.960 . S
H99 N79 0.862 . S
O100 Co68 1.920 . S
O100 C73 1.289 . S
C101 O93 1.258 . S
C101 O94 1.266 . S
Co102 O105 1.969 1_554 S
Co102 N119 1.972 1_554 S
Co102 O127 1.972 . S
Co102 O134 1.937 . S
Co103 O106 1.966 . S
Co103 N112 2.022 . S
Co103 N120 1.993 . S
Co103 O128 1.941 . S
C104 O105 1.258 . S
C104 O106 1.263 . S
O105 Co102 1.969 1_556 S
O105 C104 1.258 . S
O106 Co103 1.966 . S
O106 C104 1.263 . S
C107 O108 1.235 . S
C107 O134 1.289 . S
O108 C107 1.235 . S
C109 C111 1.400 . S
C109 N112 1.351 . S
C109 C114 1.501 . S
C110 C111 1.387 . S
C110 N113 1.341 . S
C111 C109 1.400 . S
C111 C110 1.387 . S
N112 Co103 2.022 . S
N112 C109 1.351 . S
N112 N113 1.365 . S
N113 C110 1.341 . S
N113 N112 1.365 . S
N113 H133 0.862 . S
C114 C109 1.501 . S
C114 H115 0.961 . S
C114 H116 0.961 . S
C114 H117 0.960 . S
H115 C114 0.961 . S
H116 C114 0.961 . S
H117 C114 0.960 . S
C118 N119 1.342 . S
C118 C122 1.401 . S
C118 C123 1.499 . S
N119 Co102 1.972 1_556 S
N119 C118 1.342 . S
N119 N120 1.388 . S
N120 Co103 1.993 . S
N120 N119 1.388 . S
N120 C121 1.346 . S
C121 N120 1.346 . S
C121 C122 1.396 . S
C121 C131 1.510 . S
C122 C118 1.401 . S
C122 C121 1.396 . S
C123 C118 1.499 . S
C123 H124 0.959 . S
C123 H125 0.960 . S
C123 H126 0.961 . S
H124 C123 0.959 . S
H125 C123 0.960 . S
H126 C123 0.961 . S
O127 Co102 1.972 . S
O127 C135 1.258 1_554 S
O128 Co103 1.941 . S
O128 C135 1.266 . S
H129 C131 0.959 . S
H130 C131 0.961 . S
C131 C121 1.510 . S
C131 H129 0.959 . S
C131 H130 0.961 . S
C131 H132 0.960 . S
H132 C131 0.960 . S
H133 N113 0.862 . S
O134 Co102 1.937 . S
O134 C107 1.289 . S
C135 O127 1.258 1_556 S
C135 O128 1.266 . S
Co136 O139 1.970 . S
Co136 N153 1.989 . S
Co136 O161 1.967 . S
Co136 O168 1.920 . S
Co137 O140 1.966 . S
Co137 N146 2.022 . S
Co137 N154 1.993 . S
Co137 O162 1.941 . S
C138 O139 1.258 . S
C138 O140 1.263 . S
O139 Co136 1.970 . S
O139 C138 1.258 . S
O140 Co137 1.966 . S
O140 C138 1.263 . S
C141 O142 1.235 . S
C141 O168 1.289 . S
O142 C141 1.235 . S
C143 C145 1.400 . S
C143 N146 1.351 . S
C143 C148 1.501 . S
C144 C145 1.387 . S
C144 N147 1.341 . S
C145 C143 1.400 . S
C145 C144 1.387 . S
N146 Co137 2.022 . S
N146 C143 1.351 . S
N146 N147 1.365 . S
N147 C144 1.341 . S
N147 N146 1.365 . S
N147 H167 0.862 . S
C148 C143 1.501 . S
C148 H149 0.961 . S
C148 H150 0.961 . S
C148 H151 0.960 . S
H149 C148 0.961 . S
H150 C148 0.961 . S
H151 C148 0.960 . S
C152 N153 1.342 . S
C152 C156 1.401 . S
C152 C157 1.499 . S
N153 Co136 1.989 . S
N153 C152 1.342 . S
N153 N154 1.388 . S
N154 Co137 1.993 . S
N154 N153 1.388 . S
N154 C155 1.346 . S
C155 N154 1.346 . S
C155 C156 1.396 . S
C155 C165 1.510 . S
C156 C152 1.401 . S
C156 C155 1.396 . S
C157 C152 1.499 . S
C157 H158 0.959 . S
C157 H159 0.960 . S
C157 H160 0.961 . S
H158 C157 0.959 . S
H159 C157 0.960 . S
H160 C157 0.961 . S
O161 Co136 1.967 . S
O161 C169 1.258 . S
O162 Co137 1.941 . S
O162 C169 1.266 . S
H163 C165 0.959 . S
H164 C165 0.961 . S
C165 C155 1.510 . S
C165 H163 0.959 . S
C165 H164 0.961 . S
C165 H166 0.960 . S
H166 C165 0.960 . S
H167 N147 0.862 . S
O168 Co136 1.920 . S
O168 C141 1.289 . S
C169 O161 1.258 . S
C169 O162 1.266 . S
Co170 O173 1.970 . S
Co170 N187 1.989 . S
Co170 O195 1.967 . S
Co170 O202 1.920 . S
Co171 O174 1.966 . S
Co171 N180 2.022 . S
Co171 N188 1.993 . S
Co171 O196 1.941 . S
C172 O173 1.258 . S
C172 O174 1.263 . S
O173 Co170 1.970 . S
O173 C172 1.258 . S
O174 Co171 1.966 . S
O174 C172 1.263 . S
C175 O176 1.235 . S
C175 O202 1.289 . S
O176 C175 1.235 . S
C177 C179 1.400 . S
C177 N180 1.351 . S
C177 C182 1.501 . S
C178 C179 1.387 . S
C178 N181 1.341 . S
C179 C177 1.400 . S
C179 C178 1.387 . S
N180 Co171 2.022 . S
N180 C177 1.351 . S
N180 N181 1.365 . S
N181 C178 1.341 . S
N181 N180 1.365 . S
N181 H201 0.862 . S
C182 C177 1.501 . S
C182 H183 0.961 . S
C182 H184 0.961 . S
C182 H185 0.960 . S
H183 C182 0.961 . S
H184 C182 0.961 . S
H185 C182 0.960 . S
C186 N187 1.342 . S
C186 C190 1.401 . S
C186 C191 1.499 . S
N187 Co170 1.989 . S
N187 C186 1.342 . S
N187 N188 1.388 . S
N188 Co171 1.993 . S
N188 N187 1.388 . S
N188 C189 1.346 . S
C189 N188 1.346 . S
C189 C190 1.396 . S
C189 C199 1.510 . S
C190 C186 1.401 . S
C190 C189 1.396 . S
C191 C186 1.499 . S
C191 H192 0.959 . S
C191 H193 0.960 . S
C191 H194 0.961 . S
H192 C191 0.959 . S
H193 C191 0.960 . S
H194 C191 0.961 . S
O195 Co170 1.967 . S
O195 C203 1.258 . S
O196 Co171 1.941 . S
O196 C203 1.266 . S
H197 C199 0.959 . S
H198 C199 0.961 . S
C199 C189 1.510 . S
C199 H197 0.959 . S
C199 H198 0.961 . S
C199 H200 0.960 . S
H200 C199 0.960 . S
H201 N181 0.862 . S
O202 Co170 1.920 . S
O202 C175 1.289 . S
C203 O195 1.258 . S
C203 O196 1.266 . S
Co204 O207 1.970 . S
Co204 N221 1.989 . S
Co204 O229 1.967 . S
Co204 O236 1.920 . S
Co205 O208 1.966 . S
Co205 N214 2.022 . S
Co205 N222 1.993 . S
Co205 O230 1.941 . S
C206 O207 1.258 . S
C206 O208 1.263 . S
O207 Co204 1.970 . S
O207 C206 1.258 . S
O208 Co205 1.966 . S
O208 C206 1.263 . S
C209 O210 1.235 . S
C209 O236 1.289 . S
O210 C209 1.235 . S
C211 C213 1.400 . S
C211 N214 1.351 . S
C211 C216 1.501 . S
C212 C213 1.387 . S
C212 N215 1.341 . S
C213 C211 1.400 . S
C213 C212 1.387 . S
N214 Co205 2.022 . S
N214 C211 1.351 . S
N214 N215 1.365 . S
N215 C212 1.341 . S
N215 N214 1.365 . S
N215 H235 0.862 . S
C216 C211 1.501 . S
C216 H217 0.961 . S
C216 H218 0.961 . S
C216 H219 0.960 . S
H217 C216 0.961 . S
H218 C216 0.961 . S
H219 C216 0.960 . S
C220 N221 1.342 . S
C220 C224 1.401 . S
C220 C225 1.499 . S
N221 Co204 1.989 . S
N221 C220 1.342 . S
N221 N222 1.388 . S
N222 Co205 1.993 . S
N222 N221 1.388 . S
N222 C223 1.346 . S
C223 N222 1.346 . S
C223 C224 1.396 . S
C223 C233 1.510 . S
C224 C220 1.401 . S
C224 C223 1.396 . S
C225 C220 1.499 . S
C225 H226 0.959 . S
C225 H227 0.960 . S
C225 H228 0.961 . S
H226 C225 0.959 . S
H227 C225 0.960 . S
H228 C225 0.961 . S
O229 Co204 1.967 . S
O229 C237 1.258 . S
O230 Co205 1.941 . S
O230 C237 1.266 . S
H231 C233 0.959 . S
H232 C233 0.961 . S
C233 C223 1.510 . S
C233 H231 0.959 . S
C233 H232 0.961 . S
C233 H234 0.960 . S
H234 C233 0.960 . S
H235 N215 0.862 . S
O236 Co204 1.920 . S
O236 C209 1.289 . S
C237 O229 1.258 . S
C237 O230 1.266 . S
Co238 O241 1.969 1_556 S
Co238 N255 1.972 1_556 S
Co238 O263 1.972 . S
Co238 O270 1.937 . S
Co239 O242 1.966 . S
Co239 N248 2.022 . S
Co239 N256 1.993 . S
Co239 O264 1.941 . S
C240 O241 1.258 . S
C240 O242 1.263 . S
O241 Co238 1.969 1_554 S
O241 C240 1.258 . S
O242 Co239 1.966 . S
O242 C240 1.263 . S
C243 O244 1.235 . S
C243 O270 1.289 . S
O244 C243 1.235 . S
C245 C247 1.400 . S
C245 N248 1.351 . S
C245 C250 1.501 . S
C246 C247 1.387 . S
C246 N249 1.341 . S
C247 C245 1.400 . S
C247 C246 1.387 . S
N248 Co239 2.022 . S
N248 C245 1.351 . S
N248 N249 1.365 . S
N249 C246 1.341 . S
N249 N248 1.365 . S
N249 H269 0.862 . S
C250 C245 1.501 . S
C250 H251 0.961 . S
C250 H252 0.961 . S
C250 H253 0.960 . S
H251 C250 0.961 . S
H252 C250 0.961 . S
H253 C250 0.960 . S
C254 N255 1.342 . S
C254 C258 1.401 . S
C254 C259 1.499 . S
N255 Co238 1.972 1_554 S
N255 C254 1.342 . S
N255 N256 1.388 . S
N256 Co239 1.993 . S
N256 N255 1.388 . S
N256 C257 1.346 . S
C257 N256 1.346 . S
C257 C258 1.396 . S
C257 C267 1.510 . S
C258 C254 1.401 . S
C258 C257 1.396 . S
C259 C254 1.499 . S
C259 H260 0.959 . S
C259 H261 0.960 . S
C259 H262 0.961 . S
H260 C259 0.959 . S
H261 C259 0.960 . S
H262 C259 0.961 . S
O263 Co238 1.972 . S
O263 C271 1.258 1_556 S
O264 Co239 1.941 . S
O264 C271 1.266 . S
H265 C267 0.959 . S
H266 C267 0.961 . S
C267 C257 1.510 . S
C267 H265 0.959 . S
C267 H266 0.961 . S
C267 H268 0.960 . S
H268 C267 0.960 . S
H269 N249 0.862 . S
O270 Co238 1.937 . S
O270 C243 1.289 . S
C271 O263 1.258 1_554 S
C271 O264 1.266 . S
H272 C278 0.930 . S
H273 C281 0.930 . S
H274 C282 0.930 . S
H275 C283 0.930 . S
H276 C286 0.930 . S
H277 C287 0.930 . S
C278 H272 0.930 . S
C278 C279 1.355 . S
C278 C280 1.415 . S
C279 C278 1.355 . S
C279 C281 1.419 . S
C280 C278 1.415 . S
C280 C285 1.425 . S
C280 C287 1.409 . S
C281 H273 0.930 . S
C281 C279 1.419 . S
C281 C282 1.362 . S
C282 H274 0.930 . S
C282 C281 1.362 . S
C282 C285 1.409 . S
C283 H275 0.930 . S
C283 C284 1.355 . S
C283 C285 1.415 . S
C284 C283 1.355 . S
C284 C286 1.419 . S
C285 C280 1.425 . S
C285 C282 1.409 . S
C285 C283 1.415 . S
C286 H276 0.930 . S
C286 C284 1.419 . S
C286 C287 1.362 . S
C287 H277 0.930 . S
C287 C280 1.409 . S
C287 C286 1.362 . S
H288 C294 0.930 . S
H289 C297 0.930 . S
H290 C298 0.930 . S
H291 C299 0.930 . S
H292 C302 0.930 . S
H293 C303 0.930 . S
C294 H288 0.930 . S
C294 C295 1.355 . S
C294 C296 1.415 . S
C295 C294 1.355 . S
C295 C297 1.419 . S
C296 C294 1.415 . S
C296 C301 1.425 . S
C296 C303 1.409 . S
C297 H289 0.930 . S
C297 C295 1.419 . S
C297 C298 1.362 . S
C298 H290 0.930 . S
C298 C297 1.362 . S
C298 C301 1.409 . S
C299 H291 0.930 . S
C299 C300 1.355 . S
C299 C301 1.415 . S
C300 C299 1.355 . S
C300 C302 1.419 . S
C301 C296 1.425 . S
C301 C298 1.409 . S
C301 C299 1.415 . S
C302 H292 0.930 . S
C302 C300 1.419 . S
C302 C303 1.362 . S
C303 H293 0.930 . S
C303 C296 1.409 . S
C303 C302 1.362 . S
H304 C310 0.930 . S
H305 C313 0.930 . S
H306 C314 0.930 . S
H307 C315 0.930 . S
H308 C318 0.930 . S
H309 C319 0.930 . S
C310 H304 0.930 . S
C310 C311 1.355 . S
C310 C312 1.415 . S
C311 C310 1.355 . S
C311 C313 1.419 . S
C312 C310 1.415 . S
C312 C317 1.425 . S
C312 C319 1.409 . S
C313 H305 0.930 . S
C313 C311 1.419 . S
C313 C314 1.362 . S
C314 H306 0.930 . S
C314 C313 1.362 . S
C314 C317 1.409 . S
C315 H307 0.930 . S
C315 C316 1.355 . S
C315 C317 1.415 . S
C316 C315 1.355 . S
C316 C318 1.419 . S
C317 C312 1.425 . S
C317 C314 1.409 . S
C317 C315 1.415 . S
C318 H308 0.930 . S
C318 C316 1.419 . S
C318 C319 1.362 . S
C319 H309 0.930 . S
C319 C312 1.409 . S
C319 C318 1.362 . S
H320 C326 0.930 . S
H321 C329 0.930 . S
H322 C330 0.930 . S
H323 C331 0.930 . S
H324 C334 0.930 . S
H325 C335 0.930 . S
C326 H320 0.930 . S
C326 C327 1.355 . S
C326 C328 1.415 . S
C327 C326 1.355 . S
C327 C329 1.419 . S
C328 C326 1.415 . S
C328 C333 1.425 1_556 S
C328 C335 1.409 . S
C329 H321 0.930 . S
C329 C327 1.419 . S
C329 C330 1.362 1_556 S
C330 H322 0.930 . S
C330 C329 1.362 1_554 S
C330 C333 1.409 . S
C331 H323 0.930 . S
C331 C332 1.355 . S
C331 C333 1.415 . S
C332 C331 1.355 . S
C332 C334 1.419 . S
C333 C328 1.425 1_554 S
C333 C330 1.409 . S
C333 C331 1.415 . S
C334 H324 0.930 . S
C334 C332 1.419 . S
C334 C335 1.362 1_554 S
C335 H325 0.930 . S
C335 C328 1.409 . S
C335 C334 1.362 1_556 S
H336 C342 0.930 . S
H337 C345 0.930 . S
H338 C346 0.930 . S
H339 C347 0.930 . S
H340 C350 0.930 . S
H341 C351 0.930 . S
C342 H336 0.930 . S
C342 C343 1.355 . S
C342 C344 1.415 . S
C343 C342 1.355 . S
C343 C345 1.419 . S
C344 C342 1.415 . S
C344 C349 1.425 . S
C344 C351 1.409 . S
C345 H337 0.930 . S
C345 C343 1.419 . S
C345 C346 1.362 . S
C346 H338 0.930 . S
C346 C345 1.362 . S
C346 C349 1.409 . S
C347 H339 0.930 . S
C347 C348 1.355 . S
C347 C349 1.415 . S
C348 C347 1.355 . S
C348 C350 1.419 . S
C349 C344 1.425 . S
C349 C346 1.409 . S
C349 C347 1.415 . S
C350 H340 0.930 . S
C350 C348 1.419 . S
C350 C351 1.362 . S
C351 H341 0.930 . S
C351 C344 1.409 . S
C351 C350 1.362 . S
H352 C358 0.930 . S
H353 C361 0.930 . S
H354 C362 0.930 . S
H355 C363 0.930 . S
H356 C366 0.930 . S
H357 C367 0.930 . S
C358 H352 0.930 . S
C358 C359 1.355 . S
C358 C360 1.415 . S
C359 C358 1.355 . S
C359 C361 1.419 . S
C360 C358 1.415 . S
C360 C365 1.425 . S
C360 C367 1.409 . S
C361 H353 0.930 . S
C361 C359 1.419 . S
C361 C362 1.362 . S
C362 H354 0.930 . S
C362 C361 1.362 . S
C362 C365 1.409 . S
C363 H355 0.930 . S
C363 C364 1.355 . S
C363 C365 1.415 . S
C364 C363 1.355 . S
C364 C366 1.419 . S
C365 C360 1.425 . S
C365 C362 1.409 . S
C365 C363 1.415 . S
C366 H356 0.930 . S
C366 C364 1.419 . S
C366 C367 1.362 . S
C367 H357 0.930 . S
C367 C360 1.409 . S
C367 C366 1.362 . S
H368 C374 0.930 . S
H369 C377 0.930 . S
H370 C378 0.930 . S
H371 C379 0.930 . S
H372 C382 0.930 . S
H373 C383 0.930 . S
C374 H368 0.930 . S
C374 C375 1.355 . S
C374 C376 1.415 . S
C375 C374 1.355 . S
C375 C377 1.419 . S
C376 C374 1.415 . S
C376 C381 1.425 . S
C376 C383 1.409 . S
C377 H369 0.930 . S
C377 C375 1.419 . S
C377 C378 1.362 . S
C378 H370 0.930 . S
C378 C377 1.362 . S
C378 C381 1.409 . S
C379 H371 0.930 . S
C379 C380 1.355 . S
C379 C381 1.415 . S
C380 C379 1.355 . S
C380 C382 1.419 . S
C381 C376 1.425 . S
C381 C378 1.409 . S
C381 C379 1.415 . S
C382 H372 0.930 . S
C382 C380 1.419 . S
C382 C383 1.362 . S
C383 H373 0.930 . S
C383 C376 1.409 . S
C383 C382 1.362 . S
H384 C390 0.930 . S
H385 C393 0.930 . S
H386 C394 0.930 . S
H387 C395 0.930 . S
H388 C398 0.930 . S
H389 C399 0.930 . S
C390 H384 0.930 . S
C390 C391 1.355 . S
C390 C392 1.415 . S
C391 C390 1.355 . S
C391 C393 1.419 . S
C392 C390 1.415 . S
C392 C397 1.425 . S
C392 C399 1.409 . S
C393 H385 0.930 . S
C393 C391 1.419 . S
C393 C394 1.362 . S
C394 H386 0.930 . S
C394 C393 1.362 . S
C394 C397 1.409 . S
C395 H387 0.930 . S
C395 C396 1.355 . S
C395 C397 1.415 . S
C396 C395 1.355 . S
C396 C398 1.419 . S
C397 C392 1.425 . S
C397 C394 1.409 . S
C397 C395 1.415 . S
C398 H388 0.930 . S
C398 C396 1.419 . S
C398 C399 1.362 . S
C399 H389 0.930 . S
C399 C392 1.409 . S
C399 C398 1.362 . S
H400 C406 0.930 . S
H401 C409 0.930 . S
H402 C410 0.930 . S
H403 C411 0.930 . S
H404 C414 0.930 . S
H405 C415 0.930 . S
C406 H400 0.930 . S
C406 C407 1.355 . S
C406 C408 1.419 . S
C407 C406 1.355 . S
C407 C409 1.419 1_455 S
C408 C406 1.419 . S
C408 C413 1.425 1_454 S
C408 C415 1.405 1_554 S
C409 H401 0.930 . S
C409 C407 1.419 1_655 S
C409 C410 1.362 . S
C410 H402 0.930 . S
C410 C409 1.362 . S
C410 C413 1.405 1_554 S
C411 H403 0.930 . S
C411 C412 1.355 . S
C411 C413 1.419 . S
C412 C411 1.355 . S
C412 C414 1.419 1_655 S
C413 C408 1.425 1_656 S
C413 C410 1.405 1_556 S
C413 C411 1.419 . S
C414 H404 0.930 . S
C414 C412 1.419 1_455 S
C414 C415 1.362 . S
C415 H405 0.930 . S
C415 C408 1.405 1_556 S
C415 C414 1.362 . S
H416 C422 0.930 . S
H417 C425 0.930 . S
H418 C426 0.930 . S
H419 C427 0.930 . S
H420 C430 0.930 . S
H421 C431 0.930 . S
C422 H416 0.930 . S
C422 C423 1.355 . S
C422 C424 1.415 . S
C423 C422 1.355 . S
C423 C425 1.419 1_565 S
C424 C422 1.415 . S
C424 C429 1.425 1_565 S
C424 C431 1.409 . S
C425 H417 0.930 . S
C425 C423 1.419 1_545 S
C425 C426 1.362 . S
C426 H418 0.930 . S
C426 C425 1.362 . S
C426 C429 1.409 . S
C427 H419 0.930 . S
C427 C428 1.355 . S
C427 C429 1.415 . S
C428 C427 1.355 . S
C428 C430 1.419 1_545 S
C429 C424 1.425 1_545 S
C429 C426 1.409 . S
C429 C427 1.415 . S
C430 H420 0.930 . S
C430 C428 1.419 1_565 S
C430 C431 1.362 . S
C431 H421 0.930 . S
C431 C424 1.409 . S
C431 C430 1.362 . S
H432 C438 0.930 1_455 S
H433 C441 0.930 . S
H434 C442 0.930 . S
H435 C443 0.930 1_655 S
H436 C446 0.930 . S
H437 C447 0.930 . S
C438 H432 0.930 1_655 S
C438 C439 1.355 . S
C438 C440 1.415 1_655 S
C439 C438 1.355 . S
C439 C441 1.419 . S
C440 C438 1.415 1_455 S
C440 C445 1.425 1_455 S
C440 C447 1.409 . S
C441 H433 0.930 . S
C441 C439 1.419 . S
C441 C442 1.362 . S
C442 H434 0.930 . S
C442 C441 1.362 . S
C442 C445 1.409 . S
C443 H435 0.930 1_455 S
C443 C444 1.355 . S
C443 C445 1.415 1_455 S
C444 C443 1.355 . S
C444 C446 1.419 . S
C445 C440 1.425 1_655 S
C445 C442 1.409 . S
C445 C443 1.415 1_655 S
C446 H436 0.930 . S
C446 C444 1.419 . S
C446 C447 1.362 . S
C447 H437 0.930 . S
C447 C440 1.409 . S
C447 C446 1.362 . S
H448 C454 0.930 . S
H449 C457 0.930 . S
H450 C458 0.930 . S
H451 C459 0.930 . S
H452 C462 0.930 . S
H453 C463 0.930 . S
C454 H448 0.930 . S
C454 C455 1.355 1_565 S
C454 C456 1.415 . S
C455 C454 1.355 1_545 S
C455 C457 1.419 . S
C456 C454 1.415 . S
C456 C461 1.425 1_565 S
C456 C463 1.409 . S
C457 H449 0.930 . S
C457 C455 1.419 . S
C457 C458 1.362 . S
C458 H450 0.930 . S
C458 C457 1.362 . S
C458 C461 1.409 . S
C459 H451 0.930 . S
C459 C460 1.355 1_545 S
C459 C461 1.415 . S
C460 C459 1.355 1_565 S
C460 C462 1.419 . S
C461 C456 1.425 1_545 S
C461 C458 1.409 . S
C461 C459 1.415 . S
C462 H452 0.930 . S
C462 C460 1.419 . S
C462 C463 1.362 . S
C463 H453 0.930 . S
C463 C456 1.409 . S
C463 C462 1.362 . S
H464 C470 0.930 . S
H465 C473 0.930 . S
H466 C474 0.930 . S
H467 C475 0.930 . S
H468 C478 0.930 . S
H469 C479 0.930 . S
C470 H464 0.930 . S
C470 C471 1.355 . S
C470 C472 1.415 . S
C471 C470 1.355 . S
C471 C473 1.419 . S
C472 C470 1.415 . S
C472 C477 1.425 . S
C472 C479 1.409 . S
C473 H465 0.930 . S
C473 C471 1.419 . S
C473 C474 1.362 . S
C474 H466 0.930 . S
C474 C473 1.362 . S
C474 C477 1.409 . S
C475 H467 0.930 . S
C475 C476 1.355 . S
C475 C477 1.415 . S
C476 C475 1.355 . S
C476 C478 1.419 . S
C477 C472 1.425 . S
C477 C474 1.409 . S
C477 C475 1.415 . S
C478 H468 0.930 . S
C478 C476 1.419 . S
C478 C479 1.362 . S
C479 H469 0.930 . S
C479 C472 1.409 . S
C479 C478 1.362 . S
H480 C486 0.930 . S
H481 C489 0.930 . S
H482 C490 0.930 . S
H483 C491 0.930 . S
H484 C494 0.930 . S
H485 C495 0.930 . S
C486 H480 0.930 . S
C486 C487 1.355 . S
C486 C488 1.415 . S
C487 C486 1.355 . S
C487 C489 1.419 . S
C488 C486 1.415 . S
C488 C493 1.425 . S
C488 C495 1.409 . S
C489 H481 0.930 . S
C489 C487 1.419 . S
C489 C490 1.362 . S
C490 H482 0.930 . S
C490 C489 1.362 . S
C490 C493 1.409 . S
C491 H483 0.930 . S
C491 C492 1.355 . S
C491 C493 1.415 . S
C492 C491 1.355 . S
C492 C494 1.419 . S
C493 C488 1.425 . S
C493 C490 1.409 . S
C493 C491 1.415 . S
C494 H484 0.930 . S
C494 C492 1.419 . S
C494 C495 1.362 . S
C495 H485 0.930 . S
C495 C488 1.409 . S
C495 C494 1.362 . S
H496 C502 0.930 . S
H497 C505 0.940 . S
H498 C506 0.930 . S
H499 C507 0.930 . S
H500 C510 0.930 . S
H501 C511 0.930 . S
C502 H496 0.930 . S
C502 C503 1.355 . S
C502 C504 1.415 . S
C503 C502 1.355 . S
C503 C505 1.419 . S
C504 C502 1.415 . S
C504 C509 1.425 . S
C504 C511 1.409 . S
C505 H497 0.940 . S
C505 C503 1.419 . S
C505 C506 1.362 . S
C506 H498 0.930 . S
C506 C505 1.362 . S
C506 C509 1.409 . S
C507 H499 0.930 . S
C507 C508 1.355 . S
C507 C509 1.415 . S
C508 C507 1.355 . S
C508 C510 1.419 . S
C509 C504 1.425 . S
C509 C506 1.409 . S
C509 C507 1.415 . S
C510 H500 0.930 . S
C510 C508 1.419 . S
C510 C511 1.362 . S
C511 H501 0.930 . S
C511 C504 1.409 . S
C511 C510 1.362 . S
H512 C518 0.930 1_655 S
H513 C521 0.930 . S
H514 C522 0.930 . S
H515 C523 0.930 . S
H516 C526 0.930 . S
H517 C527 0.930 . S
C518 H512 0.930 1_455 S
C518 C519 1.355 . S
C518 C520 1.415 . S
C519 C518 1.355 . S
C519 C521 1.419 . S
C520 C518 1.415 . S
C520 C525 1.425 . S
C520 C527 1.409 . S
C521 H513 0.930 . S
C521 C519 1.419 . S
C521 C522 1.362 . S
C522 H514 0.930 . S
C522 C521 1.362 . S
C522 C525 1.409 . S
C523 H515 0.930 . S
C523 C524 1.355 . S
C523 C525 1.415 . S
C524 C523 1.355 . S
C524 C526 1.419 . S
C525 C520 1.425 . S
C525 C522 1.409 . S
C525 C523 1.415 . S
C526 H516 0.930 . S
C526 C524 1.419 . S
C526 C527 1.362 . S
C527 H517 0.930 . S
C527 C520 1.409 . S
C527 C526 1.362 . S
H528 C534 0.930 . S
H529 C537 0.930 . S
H530 C538 0.930 . S
H531 C539 0.930 . S
H532 C542 0.930 . S
H533 C543 0.930 . S
C534 H528 0.930 . S
C534 C535 1.355 . S
C534 C536 1.415 . S
C535 C534 1.355 . S
C535 C537 1.419 . S
C536 C534 1.415 . S
C536 C541 1.425 . S
C536 C543 1.409 . S
C537 H529 0.930 . S
C537 C535 1.419 . S
C537 C538 1.362 . S
C538 H530 0.930 . S
C538 C537 1.362 . S
C538 C541 1.409 . S
C539 H531 0.930 . S
C539 C540 1.355 . S
C539 C541 1.415 . S
C540 C539 1.355 . S
C540 C542 1.419 . S
C541 C536 1.425 . S
C541 C538 1.409 . S
C541 C539 1.415 . S
C542 H532 0.930 . S
C542 C540 1.419 . S
C542 C543 1.362 . S
C543 H533 0.930 . S
C543 C536 1.409 . S
C543 C542 1.362 . S
H544 C550 0.930 . S
H545 C553 0.930 . S
H546 C554 0.930 . S
H547 C555 0.930 . S
H548 C558 0.930 1_655 S
H549 C559 0.930 . S
C550 H544 0.930 . S
C550 C551 1.355 . S
C550 C552 1.415 . S
C551 C550 1.355 . S
C551 C553 1.419 . S
C552 C550 1.415 . S
C552 C557 1.425 . S
C552 C559 1.409 . S
C553 H545 0.930 . S
C553 C551 1.419 . S
C553 C554 1.362 . S
C554 H546 0.930 . S
C554 C553 1.362 . S
C554 C557 1.409 . S
C555 H547 0.930 . S
C555 C556 1.355 . S
C555 C557 1.415 . S
C556 C555 1.355 . S
C556 C558 1.419 . S
C557 C552 1.425 . S
C557 C554 1.409 . S
C557 C555 1.415 . S
C558 H548 0.930 1_455 S
C558 C556 1.419 . S
C558 C559 1.362 . S
C559 H549 0.930 . S
C559 C552 1.409 . S
C559 C558 1.362 . S
H560 C566 0.930 . S
H561 C569 0.930 . S
H562 C570 0.930 . S
H563 C571 0.930 . S
H564 C574 0.930 1_565 S
H565 C575 0.930 . S
C566 H560 0.930 . S
C566 C567 1.355 . S
C566 C568 1.415 . S
C567 C566 1.355 . S
C567 C569 1.419 . S
C568 C566 1.415 . S
C568 C573 1.425 . S
C568 C575 1.409 . S
C569 H561 0.930 . S
C569 C567 1.419 . S
C569 C570 1.362 . S
C570 H562 0.930 . S
C570 C569 1.362 . S
C570 C573 1.409 . S
C571 H563 0.930 . S
C571 C572 1.355 . S
C571 C573 1.415 . S
C572 C571 1.355 . S
C572 C574 1.419 . S
C573 C568 1.425 . S
C573 C570 1.409 . S
C573 C571 1.415 . S
C574 H564 0.930 1_545 S
C574 C572 1.419 . S
C574 C575 1.362 . S
C575 H565 0.930 . S
C575 C568 1.409 . S
C575 C574 1.362 . S
H576 C582 0.930 . S
H577 C585 0.930 . S
H578 C586 0.930 . S
H579 C587 0.930 . S
H580 C590 0.930 . S
H581 C591 0.930 . S
C582 H576 0.930 . S
C582 C583 1.355 . S
C582 C584 1.415 . S
C583 C582 1.355 . S
C583 C585 1.419 . S
C584 C582 1.415 . S
C584 C589 1.425 . S
C584 C591 1.409 . S
C585 H577 0.930 . S
C585 C583 1.419 . S
C585 C586 1.362 . S
C586 H578 0.930 . S
C586 C585 1.362 . S
C586 C589 1.409 . S
C587 H579 0.930 . S
C587 C588 1.355 . S
C587 C589 1.415 . S
C588 C587 1.355 . S
C588 C590 1.419 . S
C589 C584 1.425 . S
C589 C586 1.409 . S
C589 C587 1.415 . S
C590 H580 0.930 . S
C590 C588 1.419 . S
C590 C591 1.362 . S
C591 H581 0.930 . S
C591 C584 1.409 . S
C591 C590 1.362 . S
C279 C138 1.111 . S
C284 C2 1.111 . S
C295 C36 1.111 . S
C300 C172 1.111 . S
C311 C70 1.111 . S
C316 C206 1.111 . S
C327 C104 1.098 . S
C332 C240 1.101 . S
C343 C175 0.770 . S
C348 C5 0.781 . S
C359 C39 0.777 . S
C364 C209 0.786 . S
C375 C243 0.757 . S
C380 C73 0.762 . S
C391 C107 0.764 . S
C396 C141 0.758 . S
C407 C9 0.755 . S
C412 C213 0.789 . S
C423 C247 0.828 . S
C428 C43 0.737 . S
C439 C77 0.899 . S
C444 C145 0.825 . S
C455 C179 0.790 . S
C460 C111 0.902 . S
C471 C20 2.369 . S
C476 C135 2.368 1_544 S
C487 C33 2.372 1_655 S
C492 C54 2.367 . S
C503 C67 2.366 1_565 S
C508 C88 2.355 . S
C519 C101 2.371 1_455 S
C524 C122 2.370 . S
C535 C156 2.359 . S
C540 C203 2.369 1_565 S
C551 C190 2.356 . S
C556 C237 2.360 1_455 S
C567 C224 2.357 . S
C572 C271 2.361 1_546 S
C583 C169 2.372 1_655 S
C588 C258 2.367 . S
