# Generated by pormake.
# Topology sxb, (6)-cn, num edge types: 1
# Building blocks:
#     Node 0, Type 0, BuildingBlock: KUMBUR_clean_sbu_1, # of connection points: 6
#     Node 1, Type 0, BuildingBlock: KUMBUR_clean_sbu_1, # of connection points: 6
#     Node 2, Type 0, BuildingBlock: KUMBUR_clean_sbu_1, # of connection points: 6
#     Node 3, Type 0, BuildingBlock: KUMBUR_clean_sbu_1, # of connection points: 6
#     Edge 4, Type (0, 0), BuildingBlock: XUDNAN_clean_linker_2, # of connection points: 2
#     Edge 5, Type (0, 0), BuildingBlock: XUDNAN_clean_linker_2, # of connection points: 2
#     Edge 6, Type (0, 0), BuildingBlock: XUDNAN_clean_linker_2, # of connection points: 2
#     Edge 7, Type (0, 0), BuildingBlock: XUDNAN_clean_linker_2, # of connection points: 2
#     Edge 8, Type (0, 0), BuildingBlock: XUDNAN_clean_linker_2, # of connection points: 2
#     Edge 9, Type (0, 0), BuildingBlock: XUDNAN_clean_linker_2, # of connection points: 2
#     Edge 10, Type (0, 0), BuildingBlock: XUDNAN_clean_linker_2, # of connection points: 2
#     Edge 11, Type (0, 0), BuildingBlock: XUDNAN_clean_linker_2, # of connection points: 2
#     Edge 12, Type (0, 0), BuildingBlock: XUDNAN_clean_linker_2, # of connection points: 2
#     Edge 13, Type (0, 0), BuildingBlock: XUDNAN_clean_linker_2, # of connection points: 2
#     Edge 14, Type (0, 0), BuildingBlock: XUDNAN_clean_linker_2, # of connection points: 2
#     Edge 15, Type (0, 0), BuildingBlock: XUDNAN_clean_linker_2, # of connection points: 2
# Relax obj value: 0.014
# Max RMSD: 0.058
# Mean RMSD: 0.058
data_MOF--net-sxb--node1-KUMBUR_clean_sbu_1--edge1-XUDNAN_clean_linker_2
_symmetry_space_group_name_H-M    P1
_symmetry_Int_Tables_number       1
_symmetry_cell_setting            triclinic
loop_
_symmetry_equiv_pos_as_xyz
'x, y, z'
_cell_length_a     14.811165
_cell_length_b     47.566419
_cell_length_c     29.404437
_cell_angle_alpha  114.50897
_cell_angle_beta   90.155183
_cell_angle_gamma 90.009145
loop_
_atom_site_label
_atom_site_type_symbol
_atom_site_fract_x
_atom_site_fract_y
_atom_site_fract_z
_atom_type_partial_charge
Tb0 Tb 0.06686 0.96683 0.9661 0.0
C1 C 0.24146 0.09487 0.0856 0.0
N2 N 0.17185 0.08073 0.09787 0.0
C3 C 0.22964 0.09747 0.18118 0.0
C4 C 0.30901 0.11058 0.1208 0.0
C5 C 0.16389 0.0823 0.14508 0.0
C6 C 0.30259 0.11165 0.169 0.0
C7 C 0.31893 0.10631 0.02263 0.0
C8 C 0.24583 0.09286 0.03702 0.0
C9 C 0.38606 0.12223 0.05775 0.0
C10 C 0.38057 0.12464 0.1068 0.0
Tb11 Tb 0.06412 0.06052 0.03815 0.0
N12 N 0.17872 0.07769 0.00407 0.0
C13 C 0.32188 0.10371 0.97351 0.0
C14 C 0.17931 0.07652 0.95684 0.0
C15 C 0.25159 0.08887 0.94059 0.0
H16 H 0.10595 0.07254 0.15543 0.0
H17 H 0.25201 0.08752 0.90292 0.0
H18 H 0.09633 0.94933 0.84512 0.0
H19 H 0.83002 0.92193 0.0582 0.0
H20 H 0.12357 0.06716 0.9317 0.0
H21 H 0.37714 0.1136 0.96093 0.0
H22 H 0.96991 0.94833 0.05058 0.0
H23 H 0.22335 0.09859 0.21856 0.0
H24 H 0.44243 0.13285 0.0474 0.0
H25 H 0.43288 0.13701 0.13344 0.0
H26 H 1.00771 0.92548 0.76733 0.0
H27 H 0.35321 0.12351 0.19714 0.0
H28 H 0.72353 0.90062 0.98683 0.0
N29 N 0.99289 0.94392 0.89111 0.0
C30 C 0.91233 0.93059 0.89199 0.0
C31 C 0.9795 0.92708 0.80225 0.0
C32 C 0.86062 0.91569 0.84817 0.0
C33 C 1.02891 0.94108 0.84663 0.0
C34 C 0.89438 0.91467 0.8031 0.0
N35 N 0.93915 0.94343 0.977 0.0
C36 C 0.92297 0.93929 0.01961 0.0
C37 C 0.805 0.91462 0.93873 0.0
C38 C 0.88463 0.93014 0.93648 0.0
C39 C 0.78415 0.91239 0.98355 0.0
C40 C 0.84416 0.92437 0.02392 0.0
H41 H 0.85675 0.90346 0.76856 0.0
H42 H 0.73754 0.89011 0.81737 0.0
H43 H 0.68892 0.88909 0.89673 0.0
O44 O 0.14236 0.94145 0.99755 0.0
O45 O 0.93899 0.98916 1.00112 0.0
O46 O 0.9351 0.03889 0.00484 0.0
O47 O 0.13174 0.92597 0.91841 0.0
O48 O 0.10546 0.99005 0.04487 0.0
O49 O 1.02146 0.03481 0.08159 0.0
O50 O 1.0333 0.10408 0.03876 0.0
O51 O 0.1911 0.03464 0.03456 0.0
O52 O 0.17704 0.99469 0.95774 0.0
O53 O 0.99027 0.09199 0.09934 0.0
O54 O 1.01543 0.04088 0.9605 0.0
O55 O 0.09344 0.99498 0.92422 0.0
C56 C 0.89541 0.01317 1.00074 0.0
C57 C 0.13153 0.88748 0.94917 0.0
C58 C 0.16024 0.84121 0.96371 0.0
C59 C 0.07856 0.82854 0.93926 0.0
C60 C 0.05142 0.87381 0.92396 0.0
C61 C 1.02482 0.84475 0.91952 0.0
C62 C 0.18659 0.87089 0.96867 0.0
C63 C 0.06002 1.01014 0.08285 0.0
C64 C 0.1573 0.91875 0.95442 0.0
C65 C 0.77863 0.90148 0.85055 0.0
C66 C 0.75091 0.90091 0.89575 0.0
C67 C 0.22794 0.01314 0.99455 0.0
C68 C 0.94943 0.14349 0.10686 0.0
C69 C 0.89234 0.1917 0.10645 0.0
C70 C 0.86524 0.20105 0.1564 0.0
C71 C 0.9214 0.15342 0.15667 0.0
C72 C 0.93561 0.16292 0.08192 0.0
C73 C 0.87998 0.18208 0.18125 0.0
C74 C 1.03959 0.01606 0.92096 0.0
C75 C 0.99188 0.11281 0.08134 0.0
H76 H 0.05728 0.80564 0.9342 0.0
H77 H 1.00968 0.88533 0.90693 0.0
H78 H 0.96284 0.83456 0.90006 0.0
H79 H 0.24918 0.88099 0.98759 0.0
H80 H 0.83297 0.22322 0.17643 0.0
H81 H 0.93168 0.13905 0.17676 0.0
H82 H 0.95617 0.15538 0.0433 0.0
H83 H 0.8589 0.18959 0.21973 0.0
Tb84 Tb 1.02659 0.06117 0.5376 0.0
C85 C 0.17977 0.92917 0.39972 0.0
N86 N 0.09389 0.93842 0.39709 0.0
C87 C 0.09799 0.91281 0.3076 0.0
C88 C 0.22877 0.91158 0.3562 0.0
C89 C 0.05203 0.93024 0.35191 0.0
C90 C 0.18694 0.9036 0.30971 0.0
C91 C 0.30552 0.92701 0.45122 0.0
C92 C 0.21749 0.93664 0.44654 0.0
C93 C 0.35555 0.90999 0.40794 0.0
C94 C 0.31723 0.90226 0.36055 0.0
Tb95 Tb 1.02759 0.96776 0.47174 0.0
N96 N 0.16752 0.95369 0.48752 0.0
C97 C 0.34016 0.93466 0.49926 0.0
C98 C 0.19891 0.95973 0.53427 0.0
C99 C 0.28617 0.95078 0.54094 0.0
H100 H 0.98318 0.93724 0.35003 0.0
H101 H 0.3115 0.95613 0.57818 0.0
H102 H 0.08131 0.08417 0.65796 0.0
H103 H 0.73894 0.08358 0.44533 0.0
H104 H 0.15685 0.97126 0.56633 0.0
H105 H 0.40771 0.92777 0.50454 0.0
H106 H 0.88856 0.06162 0.44977 0.0
H107 H 0.06487 0.90656 0.27186 0.0
H108 H 0.42359 0.90247 0.4107 0.0
H109 H 0.35626 0.88884 0.32751 0.0
H110 H 1.00901 0.11364 0.73944 0.0
H111 H 0.22232 0.8901 0.27532 0.0
H112 H 0.65603 0.11434 0.52327 0.0
N113 N 0.9689 0.08814 0.6156 0.0
C114 C 0.8863 0.10089 0.61691 0.0
C115 C 0.97356 0.11008 0.70523 0.0
C116 C 0.84359 0.11863 0.66265 0.0
C117 C 1.01381 0.09301 0.65892 0.0
C118 C 0.88794 0.12284 0.70714 0.0
N119 N 0.88748 0.07854 0.52878 0.0
C120 C 0.85216 0.07469 0.48369 0.0
C121 C 0.76011 0.10965 0.57155 0.0
C122 C 0.84487 0.09642 0.57206 0.0
C123 C 0.7213 0.10464 0.52531 0.0
C124 C 0.76781 0.08722 0.4812 0.0
H125 H 0.85728 0.13625 0.74309 0.0
H126 H 0.72476 0.14553 0.69725 0.0
H127 H 0.65208 0.13788 0.61751 0.0
O128 O 0.06478 0.08832 0.49982 0.0
O129 O 0.89788 0.03641 0.5354 0.0
O130 O 0.90385 0.99003 0.46516 0.0
O131 O 0.08616 0.10465 0.57891 0.0
O132 O 0.04934 0.03813 0.45624 0.0
O133 O 0.97987 0.98976 0.42379 0.0
O134 O 0.98243 0.94184 0.51059 0.0
O135 O 0.14932 0.99302 0.46782 0.0
O136 O 0.15646 0.03905 0.53832 0.0
O137 O 0.96116 0.92551 0.43146 0.0
O138 O 0.99483 0.99322 0.55116 0.0
O139 O 0.08265 0.03699 0.58016 0.0
C140 C 0.85862 0.01251 0.49958 0.0
C141 C 0.1882 0.12141 0.5337 0.0
C142 C 0.28106 0.15725 0.51394 0.0
C143 C 0.35819 0.14042 0.5154 0.0
C144 C 0.26603 0.10515 0.53549 0.0
C145 C 0.35053 0.11462 0.5263 0.0
C146 C 0.19594 0.14769 0.52346 0.0
C147 C 1.01649 0.01364 0.41878 0.0
C148 C 0.09839 0.11026 0.53971 0.0
C149 C 0.75869 0.13179 0.66247 0.0
C150 C 0.71732 0.12746 0.61705 0.0
C151 C 0.19461 0.01678 0.49985 0.0
C152 C 0.98313 0.88782 0.46326 0.0
C153 C 0.95802 0.84106 0.47627 0.0
C154 C 1.03916 0.82883 0.45157 0.0
C155 C 0.06344 0.87492 0.43798 0.0
C156 C 0.92995 0.87062 0.48218 0.0
C157 C 0.09143 0.8457 0.43239 0.0
C158 C 1.0383 0.01532 0.58731 0.0
C159 C 0.95429 0.91899 0.47007 0.0
H160 H 0.42449 0.14732 0.50827 0.0
H161 H 0.26125 0.08506 0.5436 0.0
H162 H 0.41016 0.10176 0.52714 0.0
H163 H 0.13576 0.16013 0.52149 0.0
H164 H 0.06139 0.80604 0.44664 0.0
H165 H 0.10432 0.88718 0.42215 0.0
H166 H 0.8673 0.88014 0.50139 0.0
H167 H 0.15358 0.83604 0.41288 0.0
Tb168 Tb 0.56824 0.46549 0.97446 0.0
C169 C 0.73614 0.59701 0.10775 0.0
N170 N 0.65034 0.58785 0.11085 0.0
C171 C 0.65355 0.61601 0.20001 0.0
C172 C 0.78447 0.61594 0.15106 0.0
C173 C 0.60835 0.59724 0.15606 0.0
C174 C 0.74203 0.62539 0.19755 0.0
C175 C 0.86683 0.59478 0.05671 0.0
C176 C 0.77668 0.58664 0.06104 0.0
C177 C 0.91464 0.61403 0.09969 0.0
C178 C 0.87358 0.62458 0.14672 0.0
Tb179 Tb 0.58298 0.55859 0.03641 0.0
N180 N 0.72957 0.56705 0.02037 0.0
C181 C 0.90706 0.58269 0.00948 0.0
C182 C 0.76935 0.55484 0.97443 0.0
C183 C 0.85818 0.56253 0.96823 0.0
H184 H 0.53884 0.59127 0.15809 0.0
H185 H 0.88947 0.55239 0.93176 0.0
H186 H 0.63271 0.43455 0.85565 0.0
H187 H 0.27571 0.44494 0.06555 0.0
H188 H 0.7353 0.53783 0.94299 0.0
H189 H 0.97635 0.58822 0.00465 0.0
H190 H 0.42717 0.4652 0.06169 0.0
H191 H 0.61976 0.6235 0.23571 0.0
H192 H 0.98388 0.62054 0.09704 0.0
H193 H 0.91167 0.63917 0.17958 0.0
H194 H 0.56693 0.40052 0.77398 0.0
H195 H 0.77685 0.63998 0.23168 0.0
H196 H 0.19277 0.41417 0.98747 0.0
N197 N 0.51379 0.43513 0.89652 0.0
C198 C 0.42872 0.42401 0.89462 0.0
C199 C 0.52689 0.4073 0.80755 0.0
C200 C 0.38873 0.40438 0.84886 0.0
C201 C 0.56379 0.42665 0.85389 0.0
C202 C 0.43855 0.39647 0.80491 0.0
N203 N 0.42734 0.4484 0.98248 0.0
C204 C 0.39078 0.4527 0.02748 0.0
C205 C 0.2985 0.41782 0.93947 0.0
C206 C 0.38408 0.43063 0.93917 0.0
C207 C 0.25848 0.42363 0.98557 0.0
C208 C 0.30515 0.44096 0.02975 0.0
H209 H 0.41044 0.38133 0.76899 0.0
H210 H 0.27002 0.37728 0.81389 0.0
H211 H 0.19132 0.38886 0.8933 0.0
O212 O 0.61572 0.44209 0.01723 0.0
O213 O 0.43966 0.48996 0.9756 0.0
O214 O 0.44784 0.54039 0.03759 0.0
O215 O 0.63438 0.42281 0.93804 0.0
O216 O 0.57683 0.49002 0.05693 0.0
O217 O 0.51885 0.54 0.08455 0.0
O218 O 0.56825 0.58798 0.99977 0.0
O219 O 0.69231 0.53106 0.04823 0.0
O220 O 0.6968 0.48824 0.97446 0.0
O221 O 0.52362 0.60225 0.0755 0.0
O222 O 0.54228 0.53369 0.95832 0.0
O223 O 0.61838 0.48735 0.92658 0.0
C224 C 0.40207 0.5158 0.00756 0.0
C225 C 0.61503 0.38747 0.97453 0.0
C226 C 0.64481 0.34067 0.98741 0.0
C227 C 0.56043 0.32892 0.96581 0.0
C228 C 0.53193 0.37486 0.9526 0.0
C229 C 0.50461 0.34593 0.94854 0.0
C230 C 0.67201 0.37013 0.99165 0.0
C231 C 0.53791 0.51479 0.09108 0.0
C232 C 0.64328 0.41817 0.97828 0.0
C233 C 0.30202 0.39234 0.84869 0.0
C234 C 0.25723 0.39891 0.89392 0.0
C235 C 0.73606 0.50713 0.01588 0.0
C236 C 0.44241 0.62084 0.02483 0.0
C237 C 0.36019 0.66182 0.01282 0.0
C238 C 0.28266 0.64291 1.00017 0.0
C239 C 0.36439 0.60245 0.01211 0.0
C240 C 0.44022 0.65045 0.02509 0.0
C241 C 0.28492 0.61351 0.99997 0.0
C242 C 0.58017 0.5108 0.92111 0.0
C243 C 0.52665 0.60923 0.03723 0.0
H244 H 0.53819 0.30623 0.96137 0.0
H245 H 0.4885 0.38704 0.93782 0.0
H246 H 0.44026 0.33652 0.93144 0.0
H247 H 0.7367 0.37955 0.00836 0.0
H248 H 0.22044 0.65059 0.98958 0.0
H249 H 0.36494 0.57954 0.01135 0.0
H250 H 0.50056 0.66465 0.03526 0.0
H251 H 0.22496 0.59917 0.99002 0.0
Tb252 Tb 0.55231 0.55457 0.5277 0.0
C253 C 0.70138 0.41819 0.39665 0.0
N254 N 0.61764 0.42989 0.39676 0.0
C255 C 0.60672 0.40067 0.30792 0.0
C256 C 0.74165 0.39748 0.35189 0.0
C257 C 0.56889 0.42069 0.35339 0.0
C258 C 0.69377 0.38921 0.30707 0.0
C259 C 0.83032 0.41328 0.44393 0.0
C260 C 0.74548 0.42609 0.44195 0.0
C261 C 0.871 0.39278 0.3994 0.0
C262 C 0.82715 0.38511 0.35346 0.0
Tb263 Tb 0.56329 0.46157 0.47374 0.0
N264 N 0.70426 0.44608 0.48425 0.0
C265 C 0.87085 0.42105 0.49069 0.0
C266 C 0.74124 0.45252 0.5301 0.0
C267 C 0.82586 0.44063 0.53396 0.0
H268 H 0.50009 0.42833 0.35374 0.0
H269 H 0.85583 0.44629 0.57032 0.0
H270 H 0.63677 0.59482 0.64065 0.0
H271 H 0.2214 0.55442 0.44727 0.0
H272 H 0.70591 0.4669 0.56368 0.0
H273 H 0.93595 0.41163 0.49385 0.0
H274 H 0.37565 0.53574 0.4477 0.0
H275 H 0.5682 0.39375 0.27364 0.0
H276 H 0.93627 0.38268 0.40011 0.0
H277 H 0.8592 0.36916 0.31946 0.0
H278 H 0.58121 0.63253 0.72247 0.0
H279 H 0.72243 0.37341 0.27185 0.0
H280 H 0.15767 0.59474 0.52431 0.0
N281 N 0.5104 0.59049 0.60419 0.0
C282 C 0.42432 0.60096 0.60755 0.0
C283 C 0.53614 0.62366 0.69057 0.0
C284 C 0.39047 0.62323 0.65299 0.0
C285 C 0.56691 0.6018 0.64459 0.0
C286 C 0.44739 0.63435 0.69487 0.0
N287 N 0.40387 0.56701 0.52254 0.0
C288 C 0.3516 0.55477 0.48037 0.0
C289 C 0.28025 0.59982 0.56733 0.0
C290 C 0.36985 0.58932 0.56525 0.0
C291 C 0.22691 0.58737 0.52416 0.0
C292 C 0.26276 0.56472 0.48054 0.0
H293 H 0.42383 0.65142 0.73048 0.0
H294 H 0.2741 0.65083 0.68977 0.0
H295 H 0.17771 0.6304 0.61477 0.0
O296 O 0.5831 0.572 0.47481 0.0
O297 O 0.43612 0.52955 0.53945 0.0
O298 O 0.43052 0.48157 0.47308 0.0
O299 O 0.61217 0.59876 0.55261 0.0
O300 O 0.58376 0.52383 0.45058 0.0
O301 O 0.50271 0.47932 0.42222 0.0
O302 O 0.52911 0.43938 0.51991 0.0
O303 O 0.69022 0.48644 0.47213 0.0
O304 O 0.68383 0.5364 0.53531 0.0
O305 O 0.50674 0.41684 0.44069 0.0
O306 O 0.54724 0.48884 0.55519 0.0
O307 O 0.61186 0.53762 0.57943 0.0
C308 C 0.39287 0.50395 0.51143 0.0
C309 C 0.57337 0.62618 0.50449 0.0
C310 C 0.59769 0.67724 0.50572 0.0
C311 C 0.50599 0.67827 0.494 0.0
C312 C 0.48215 0.62765 0.49265 0.0
C313 C 0.44871 0.65363 0.48767 0.0
C314 C 0.63082 0.6511 0.51127 0.0
C315 C 0.52972 0.50433 0.41747 0.0
C316 C 0.61039 0.59856 0.50834 0.0
C317 C 0.30128 0.63372 0.65519 0.0
C318 C 0.24642 0.62211 0.61245 0.0
C319 C 0.72905 0.51187 0.50499 0.0
C320 C 0.41269 0.40231 0.49209 0.0
C321 C 0.33055 0.35884 0.49614 0.0
C322 C 0.25332 0.37761 0.51193 0.0
C323 C 0.33511 0.42064 0.50773 0.0
C324 C 0.41016 0.37155 0.4864 0.0
C325 C 0.25573 0.40828 0.51752 0.0
C326 C 0.58629 0.51388 0.58868 0.0
C327 C 0.49815 0.41484 0.48316 0.0
H328 H 0.47843 0.69824 0.49006 0.0
H329 H 0.4369 0.60867 0.48665 0.0
H330 H 0.37824 0.65459 0.47858 0.0
H331 H 0.70162 0.64979 0.51968 0.0
H332 H 0.19075 0.36846 0.51924 0.0
H333 H 0.33623 0.44445 0.51273 0.0
H334 H 0.47095 0.35768 0.47515 0.0
H335 H 0.19589 0.42252 0.52948 0.0
H336 H 0.22254 0.70401 0.04466 0.0
H337 H 0.48949 0.68993 0.97855 0.0
H338 H 0.47698 0.73959 0.97074 0.0
H339 H 0.12469 0.73087 0.96345 0.0
H340 H 0.05138 0.75835 0.00925 0.0
H341 H 0.08808 0.72456 0.0169 0.0
H342 H 0.1522 0.75925 0.10459 0.0
H343 H 0.11594 0.79325 0.09707 0.0
H344 H 0.23249 0.78917 0.11106 0.0
H345 H 0.42665 0.788 0.9609 0.0
H346 H 0.34094 0.82841 0.94664 0.0
H347 H 0.10738 0.80975 0.01822 0.0
C348 C 0.27893 0.71146 0.02901 0.0
C349 C 0.35704 0.69301 0.01229 0.0
C350 C 0.42944 0.70383 0.99235 0.0
C351 C 0.42287 0.73201 0.98768 0.0
C352 C 0.3438 0.74926 1.00348 0.0
C353 C 0.2733 0.73934 0.0239 0.0
C354 C 0.19225 0.76035 0.03372 0.0
C355 C 0.10926 0.74246 0.00405 0.0
C356 C 0.17207 0.77646 0.08996 0.0
C357 C 0.22671 0.78309 0.01405 0.0
C358 C 0.3148 0.77675 0.99753 0.0
C359 C 0.3582 0.79345 0.9745 0.0
C360 C 0.30929 0.81648 0.96679 0.0
C361 C 0.21777 0.82223 0.9815 0.0
C362 C 0.17744 0.80594 0.00684 0.0
H363 H 0.59411 0.30962 0.04293 0.0
H364 H 0.82598 0.3278 0.96953 0.0
H365 H 0.91612 0.2904 0.98965 0.0
H366 H 0.71528 0.30082 0.14294 0.0
H367 H 0.64157 0.27051 0.14237 0.0
H368 H 0.59914 0.29961 0.12369 0.0
H369 H 0.54721 0.25663 0.03909 0.0
H370 H 0.59093 0.22739 0.05708 0.0
H371 H 0.62839 0.22901 0.99995 0.0
H372 H 0.97738 0.24797 0.01466 0.0
H373 H 1.00778 0.20957 0.04983 0.0
H374 H 0.73329 0.22006 0.10515 0.0
C375 C 0.66406 0.3059 0.03132 0.0
C376 C 0.70305 0.32149 0.00451 0.0
C377 C 0.79506 0.31626 0.99048 0.0
C378 C 0.8464 0.29486 1.00136 0.0
C379 C 0.8047 0.27912 0.02652 0.0
C380 C 0.71581 0.28479 0.04183 0.0
C381 C 0.6858 0.26504 0.06811 0.0
C382 C 0.6589 0.2852 0.1225 0.0
C383 C 0.60852 0.24323 0.03933 0.0
C384 C 0.77165 0.24734 0.06558 0.0
C385 C 0.83956 0.25543 0.04111 0.0
C386 C 0.92471 0.24167 0.03413 0.0
C387 C 0.94124 0.21975 0.05389 0.0
C388 C 0.87314 0.21211 0.08062 0.0
C389 C 0.78705 0.22576 0.08553 0.0
H390 H 0.21724 0.21636 0.56563 0.0
H391 H 0.36693 0.15852 0.43322 0.0
H392 H 0.39159 0.20346 0.41309 0.0
H393 H 0.10962 0.26589 0.51364 0.0
H394 H 0.1209 0.30036 0.57073 0.0
H395 H 0.10991 0.26327 0.57308 0.0
H396 H 0.25847 0.27328 0.62415 0.0
H397 H 0.27025 0.31027 0.6216 0.0
H398 H 0.36008 0.28234 0.59932 0.0
H399 H 0.40485 0.25454 0.40873 0.0
H400 H 0.40526 0.30887 0.41996 0.0
H401 H 0.25107 0.33452 0.55672 0.0
C402 C 0.254 0.21318 0.53205 0.0
C403 C 0.29015 0.18403 0.50083 0.0
C404 C 0.33918 0.18073 0.45765 0.0
C405 C 0.35326 0.20607 0.44588 0.0
C406 C 0.31825 0.23462 0.47781 0.0
C407 C 0.26958 0.23839 0.52001 0.0
C408 C 0.24294 0.27194 0.54912 0.0
C409 C 0.1397 0.27556 0.55178 0.0
C410 C 0.2855 0.28523 0.60165 0.0
C411 C 0.28413 0.28633 0.51659 0.0
C412 C 0.32708 0.26434 0.47565 0.0
C413 C 0.37136 0.27199 0.44061 0.0
C414 C 0.37173 0.30296 0.44751 0.0
C415 C 0.32834 0.32603 0.48923 0.0
C416 C 0.28383 0.31742 0.5241 0.0
H417 H 0.81173 0.80616 0.4309 0.0
H418 H 0.98601 0.83201 0.56043 0.0
H419 H 0.90933 0.79374 0.58422 0.0
H420 H 0.60609 0.79066 0.48765 0.0
H421 H 0.57474 0.75804 0.43101 0.0
H422 H 0.63703 0.78968 0.42773 0.0
H423 H 0.7597 0.75123 0.37492 0.0
H424 H 0.69871 0.71957 0.37878 0.0
H425 H 0.81455 0.72657 0.39937 0.0
H426 H 0.82233 0.74965 0.58943 0.0
H427 H 0.72413 0.70527 0.57904 0.0
H428 H 0.60883 0.7078 0.44499 0.0
C429 C 0.83156 0.80427 0.46501 0.0
C430 C 0.90308 0.82218 0.49459 0.0
C431 C 0.93003 0.81866 0.53805 0.0
C432 C 0.88724 0.79697 0.5516 0.0
C433 C 0.81816 0.77899 0.52099 0.0
C434 C 0.78991 0.78259 0.47882 0.0
C435 C 0.71776 0.75923 0.45078 0.0
C436 C 0.62862 0.77538 0.44923 0.0
C437 C 0.74963 0.73789 0.39784 0.0
C438 C 0.71004 0.74187 0.48361 0.0
C439 C 0.7686 0.75353 0.52384 0.0
C440 C 0.77553 0.74052 0.55836 0.0
C441 C 0.72005 0.71522 0.55198 0.0
C442 C 0.65839 0.70331 0.5115 0.0
C443 C 0.65409 0.71679 0.47683 0.0
H444 H 0.36504 0.04061 0.06469 0.0
H445 H 0.31796 0.97986 0.90854 0.0
H446 H 0.48123 0.9739 0.89449 0.0
H447 H 0.55964 0.07894 0.04508 0.0
H448 H 0.62516 0.08029 0.09775 0.0
H449 H 0.50401 0.08046 0.10063 0.0
H450 H 0.49758 0.033 0.1196 0.0
H451 H 0.61921 0.03277 0.12102 0.0
H452 H 0.55846 0.99861 0.08069 0.0
H453 H 0.64835 0.97486 0.89519 0.0
H454 H 0.81193 0.98201 0.9124 0.0
H455 H 0.7577 0.03953 0.06819 0.0
C456 C 0.38918 0.02626 0.02753 0.0
C457 C 0.32783 1.01081 0.98773 0.0
C458 C 0.36272 0.99196 0.93979 0.0
C459 C 0.45576 0.98841 0.93127 0.0
C460 C 0.51418 1.00373 0.97099 0.0
C461 C 0.48281 0.02222 0.01827 0.0
C462 C 0.56165 0.03547 0.0543 0.0
C463 C 0.56269 0.07092 0.07561 0.0
C464 C 0.55906 0.02428 0.09638 0.0
C465 C 0.64146 0.02169 0.01967 0.0
C466 C 0.61202 1.00349 0.97177 0.0
C467 C 0.6722 0.98872 0.93272 0.0
C468 C 0.76498 0.99253 0.94286 0.0
C469 C 0.797 1.01031 0.99171 0.0
C470 C 0.73454 0.02541 0.03059 0.0
H471 H 0.33137 0.04278 0.57005 0.0
H472 H 0.28122 0.98921 0.41173 0.0
H473 H 0.4437 0.9844 0.39591 0.0
H474 H 0.53912 0.0842 0.55644 0.0
H475 H 0.58845 0.08167 0.61062 0.0
H476 H 0.46759 0.08327 0.60539 0.0
H477 H 0.46435 0.0325 0.62032 0.0
H478 H 0.58587 0.03075 0.62003 0.0
H479 H 0.52145 0.99863 0.5766 0.0
H480 H 0.60733 0.9833 0.39584 0.0
H481 H 0.77014 0.98546 0.41149 0.0
H482 H 0.72404 0.04005 0.56995 0.0
C483 C 0.35495 0.03066 0.53202 0.0
C484 C 0.29327 0.01666 0.49199 0.0
C485 C 0.32669 1.00028 0.44293 0.0
C486 C 0.41913 0.99745 0.43347 0.0
C487 C 0.47803 0.01128 0.47343 0.0
C488 C 0.44809 0.02763 0.52176 0.0
C489 C 0.52765 0.03864 0.55779 0.0
C490 C 0.53074 0.07407 0.58408 0.0
C491 C 0.52463 0.02426 0.59593 0.0
C492 C 0.6063 0.02602 0.52184 0.0
C493 C 0.57516 1.0103 0.47348 0.0
C494 C 0.6329 0.99565 0.43346 0.0
C495 C 0.72542 0.99691 0.44288 0.0
C496 C 0.75994 0.01279 0.49198 0.0
C497 C 0.69952 0.02787 0.53203 0.0
H498 H 0.871 0.48103 0.94455 0.0
H499 H 0.82667 0.5346 0.10331 0.0
H500 H 0.99005 0.54213 0.11679 0.0
H501 H 0.07883 0.44255 0.95661 0.0
H502 H 0.13089 0.44503 0.90291 0.0
H503 H 1.00997 0.44279 0.90617 0.0
H504 H 0.99752 0.49314 0.89246 0.0
H505 H 0.11882 0.49532 0.89033 0.0
H506 H 0.05581 0.52738 0.93451 0.0
H507 H 0.15458 0.54712 0.11377 0.0
H508 H 0.31652 0.54585 0.0956 0.0
H509 H 0.26356 0.48687 0.93944 0.0
C510 C 0.89602 0.49366 0.98224 0.0
C511 C 0.8356 0.50712 0.02292 0.0
C512 C 0.87117 0.52405 0.07153 0.0
C513 C 0.9641 0.52855 0.07964 0.0
C514 C 1.02159 0.51571 0.03888 0.0
C515 C 0.98962 0.49837 0.99118 0.0
C516 C 0.0675 0.48782 0.95418 0.0
C517 C 0.07211 0.45241 0.92849 0.0
C518 C 0.05938 0.50175 0.91559 0.0
C519 C 0.14791 0.50145 0.98886 0.0
C520 C 0.11886 0.51789 0.03736 0.0
C521 C 0.17844 0.53407 0.07606 0.0
C522 C 0.27047 0.53334 0.06522 0.0
C523 C 0.30309 0.51624 0.01615 0.0
C524 C 0.24075 0.49992 0.9774 0.0
H525 H 0.257 0.47497 0.44267 0.0
H526 H 0.30595 0.53465 0.5989 0.0
H527 H 0.1425 0.54146 0.61333 0.0
H528 H 0.07174 0.51879 0.42804 0.0
H529 H 1.00796 0.48576 0.38665 0.0
H530 H 0.12931 0.48379 0.38851 0.0
H531 H 0.11869 0.43572 0.40864 0.0
H532 H 0.99766 0.43758 0.4054 0.0
H533 H 0.05126 0.43762 0.46071 0.0
H534 H 0.97761 0.54486 0.61089 0.0
H535 H 0.8155 0.54328 0.59275 0.0
H536 H 0.86567 0.48061 0.43815 0.0
C537 C 0.23297 0.48879 0.4801 0.0
C538 C 0.29425 0.50405 0.51981 0.0
C539 C 0.26035 0.52262 0.568 0.0
C540 C 0.16756 0.52668 0.5766 0.0
C541 C 0.109 0.51192 0.53668 0.0
C542 C 0.13979 0.49326 0.48941 0.0
C543 C 0.06132 0.48135 0.45291 0.0
C544 C 0.06803 0.49313 0.41159 0.0
C545 C 0.05691 0.44594 0.43065 0.0
C546 C 0.98183 0.49599 0.48732 0.0
C547 C 1.01177 0.51372 0.53533 0.0
C548 C 0.95305 0.53088 0.57357 0.0
C549 C 0.86096 0.52998 0.56271 0.0
C550 C 0.82768 0.51192 0.51399 0.0
C551 C 0.88907 0.49446 0.4758 0.0
H552 H 0.9237 0.03865 0.36302 0.0
H553 H 0.15422 0.9821 0.36074 0.0
H554 H 0.1875 0.97406 0.27406 0.0
H555 H 0.85401 0.99658 0.23502 0.0
H556 H 0.82515 0.03051 0.22535 0.0
H557 H 0.81754 0.03118 0.28694 0.0
H558 H 0.92381 0.07876 0.32151 0.0
H559 H 0.93151 0.07828 0.26004 0.0
H560 H 1.03273 0.07673 0.29309 0.0
H561 H 0.19368 0.97101 0.18804 0.0
H562 H 0.18073 0.97597 0.10841 0.0
H563 H 0.9512 0.03734 0.16613 0.0
C564 C 0.98111 0.02467 0.34413 0.0
C565 C 1.03561 1.01032 0.36781 0.0
C566 C 0.11082 0.99256 0.34251 0.0
C567 C 0.13033 0.988 0.29344 0.0
C568 C 0.0748 1.002 0.27063 0.0
C569 C 1.00241 0.0203 0.29515 0.0
C570 C 0.9557 0.03343 0.26219 0.0
C571 C 0.85726 0.02225 0.25176 0.0
C572 C 0.9613 0.06891 0.28561 0.0
C573 C 1.01286 0.01943 0.2153 0.0
C574 C 0.08066 1.00122 0.22111 0.0
C575 C 0.14126 0.98533 0.18305 0.0
C576 C 0.13302 0.98824 0.13782 0.0
C577 C 0.06515 1.00715 0.13097 0.0
C578 C 1.00418 0.02291 0.17036 0.0
H579 H 0.15737 1.00286 0.84321 0.0
H580 H 0.88158 0.03033 0.88912 0.0
H581 H 0.85105 0.03335 0.80841 0.0
H582 H 0.19051 0.05403 0.7841 0.0
H583 H 0.25906 0.02755 0.7341 0.0
H584 H 0.25746 0.02532 0.79377 0.0
H585 H 0.21014 0.96773 0.75076 0.0
H586 H 0.21224 0.96964 0.69083 0.0
H587 H 0.11148 0.957 0.71117 0.0
H588 H 0.85009 0.03231 0.72231 0.0
H589 H 0.88065 0.02946 0.63768 0.0
H590 H 0.16101 1.00802 0.65139 0.0
C591 C 0.09032 1.00907 0.83577 0.0
C592 C 1.02124 0.01604 0.87175 0.0
C593 C 0.93493 0.02481 0.86164 0.0
C594 C 0.9171 0.02654 0.81603 0.0
C595 C 0.9869 0.01992 0.78144 0.0
C596 C 0.07194 0.01153 0.79084 0.0
C597 C 0.13605 1.00695 0.74827 0.0
C598 C 0.21545 0.02983 0.76614 0.0
C599 C 0.16943 0.97333 0.72381 0.0
C600 C 0.07389 0.0142 0.71353 0.0
C601 C 0.98778 0.02117 0.73309 0.0
C602 C 0.91735 0.02712 0.70678 0.0
C603 C 0.93516 0.02547 0.65894 0.0
C604 C 1.02296 0.01872 0.63863 0.0
C605 C 0.09345 0.01346 0.66647 0.0
H606 H 0.57243 0.46482 0.32009 0.0
H607 H 0.4649 0.55579 0.40957 0.0
H608 H 0.43846 0.56427 0.33462 0.0
H609 H 0.69869 0.49166 0.24441 0.0
H610 H 0.68741 0.45708 0.18749 0.0
H611 H 0.68295 0.45477 0.24703 0.0
H612 H 0.52737 0.42769 0.22393 0.0
H613 H 0.53137 0.42981 0.16416 0.0
H614 H 0.43668 0.44587 0.20515 0.0
H615 H 0.41816 0.56299 0.25109 0.0
H616 H 0.43778 0.55762 0.16528 0.0
H617 H 0.58633 0.47223 0.12895 0.0
C618 C 0.53938 0.48579 0.32358 0.0
C619 C 0.51306 0.5084 0.37083 0.0
C620 C 0.47916 0.53702 0.37411 0.0
C621 C 0.46446 0.54227 0.33144 0.0
C622 C 0.48839 0.51927 0.2855 0.0
C623 C 0.52793 0.49199 0.28114 0.0
C624 C 0.56056 0.47352 0.22798 0.0
C625 C 0.66352 0.46901 0.22668 0.0
C626 C 0.51102 0.44237 0.20388 0.0
C627 C 0.53309 0.49491 0.20369 0.0
C628 C 0.48922 0.52064 0.23754 0.0
C629 C 0.45442 0.54336 0.22439 0.0
C630 C 0.46713 0.54027 0.17557 0.0
C631 C 0.51766 0.51536 0.14082 0.0
C632 C 0.54914 0.49193 0.15485 0.0
H633 H 0.53002 0.47357 0.62941 0.0
H634 H 0.68083 0.55834 0.66409 0.0
H635 H 0.68961 0.56685 0.75183 0.0
H636 H 0.40739 0.49522 0.74279 0.0
H637 H 0.42269 0.45908 0.74803 0.0
H638 H 0.42268 0.45998 0.68739 0.0
H639 H 0.58 0.43387 0.66879 0.0
H640 H 0.57965 0.4327 0.72921 0.0
H641 H 0.67177 0.45097 0.71193 0.0
H642 H 0.6627 0.57032 0.83636 0.0
H643 H 0.63778 0.5625 0.9124 0.0
H644 H 0.53288 0.47079 0.82425 0.0
C645 C 0.56493 0.4939 0.65545 0.0
C646 C 0.59988 0.51635 0.64016 0.0
C647 C 0.64793 0.54196 0.67517 0.0
C648 C 0.65461 0.54679 0.72516 0.0
C649 C 0.61655 0.525 0.73936 0.0
C650 C 0.57544 0.49852 0.70553 0.0
C651 C 0.54646 0.47789 0.73085 0.0
C652 C 0.44369 0.47276 0.72703 0.0
C653 C 0.59756 0.44703 0.70889 0.0
C654 C 0.57571 0.49751 0.78436 0.0
C655 C 0.6142 0.52482 0.78811 0.0
C656 C 0.63696 0.54842 0.83381 0.0
C657 C 0.62295 0.54362 0.87692 0.0
C658 C 0.59106 0.51489 0.87417 0.0
C659 C 0.56479 0.49182 0.82723 0.0
loop_
_geom_bond_atom_site_label_1
_geom_bond_atom_site_label_2
_geom_bond_distance
_geom_bond_site_symmetry_2
_ccdc_geom_bond_type
Tb0 N29 2.617 . S
Tb0 N35 2.572 . S
Tb0 O44 2.465 1_655 S
Tb0 O45 2.387 . S
Tb0 O47 2.428 1_655 S
Tb0 O48 2.308 1_556 S
Tb0 O52 2.349 1_655 S
Tb0 O55 2.393 1_655 S
Tb0 C64 2.802 1_655 S
C1 N2 1.379 . S
C1 C4 1.416 . S
C1 C8 1.424 . S
N2 C1 1.379 . S
N2 C5 1.334 . S
N2 Tb11 2.617 . S
C3 C5 1.390 . S
C3 C6 1.339 . S
C3 H23 0.930 . S
C4 C1 1.416 . S
C4 C6 1.416 . S
C4 C10 1.448 . S
C5 N2 1.334 . S
C5 C3 1.390 . S
C5 H16 0.930 . S
C6 C3 1.339 . S
C6 C4 1.416 . S
C6 H27 0.930 . S
C7 C8 1.413 . S
C7 C9 1.427 . S
C7 C13 1.416 . S
C8 C1 1.424 . S
C8 C7 1.413 . S
C8 N12 1.361 . S
C9 C7 1.427 . S
C9 C10 1.328 . S
C9 H24 0.929 . S
C10 C4 1.448 . S
C10 C9 1.328 . S
C10 H25 0.930 . S
Tb11 N2 2.617 . S
Tb11 N12 2.572 . S
Tb11 O46 2.349 1_455 S
Tb11 O49 2.393 1_455 S
Tb11 O50 2.465 1_455 S
Tb11 O51 2.387 . S
Tb11 O53 2.428 1_455 S
Tb11 O54 2.308 1_554 S
Tb11 C75 2.802 1_455 S
N12 C8 1.361 . S
N12 Tb11 2.572 . S
N12 C14 1.340 1_554 S
C13 C7 1.416 . S
C13 C15 1.332 1_554 S
C13 H21 0.931 1_554 S
C14 N12 1.340 1_556 S
C14 C15 1.407 . S
C14 H20 0.930 . S
C15 C13 1.332 1_556 S
C15 C14 1.407 . S
C15 H17 0.929 . S
H16 C5 0.930 . S
H17 C15 0.929 . S
H18 C33 0.930 . S
H19 C40 0.929 . S
H20 C14 0.930 . S
H21 C13 0.931 1_556 S
H22 C36 0.930 . S
H23 C3 0.930 . S
H24 C9 0.929 . S
H25 C10 0.930 . S
H26 C31 0.930 . S
H27 C6 0.930 . S
H28 C39 0.923 1_554 S
N29 Tb0 2.617 . S
N29 C30 1.379 . S
N29 C33 1.334 . S
C30 N29 1.379 . S
C30 C32 1.416 . S
C30 C38 1.424 . S
C31 H26 0.930 . S
C31 C33 1.390 . S
C31 C34 1.339 . S
C32 C30 1.416 . S
C32 C34 1.416 . S
C32 C65 1.448 . S
C33 H18 0.930 . S
C33 N29 1.334 . S
C33 C31 1.390 . S
C34 C31 1.339 . S
C34 C32 1.416 . S
C34 H41 0.930 . S
N35 Tb0 2.572 . S
N35 C36 1.340 1_556 S
N35 C38 1.361 . S
C36 H22 0.930 . S
C36 N35 1.340 1_554 S
C36 C40 1.407 . S
C37 C38 1.413 . S
C37 C39 1.434 . S
C37 C66 1.427 . S
C38 C30 1.424 . S
C38 N35 1.361 . S
C38 C37 1.413 . S
C39 H28 0.923 1_556 S
C39 C37 1.434 . S
C39 C40 1.322 1_556 S
C40 H19 0.929 . S
C40 C36 1.407 . S
C40 C39 1.322 1_554 S
H41 C34 0.930 . S
H42 C65 0.930 . S
H43 C66 0.929 . S
O44 Tb0 2.465 1_455 S
O44 C64 1.264 . S
O45 Tb0 2.387 . S
O45 C56 1.264 1_565 S
O46 Tb11 2.349 1_655 S
O46 C56 1.243 1_554 S
O47 Tb0 2.428 1_455 S
O47 C64 1.256 . S
O48 Tb0 2.308 1_554 S
O48 C63 1.266 1_565 S
O49 Tb11 2.393 1_655 S
O49 C63 1.248 . S
O50 Tb11 2.465 1_655 S
O50 C75 1.264 . S
O51 Tb11 2.387 . S
O51 C67 1.264 1_545 S
O52 Tb0 2.349 1_455 S
O52 C67 1.243 1_556 S
O53 Tb11 2.428 1_655 S
O53 C75 1.256 . S
O54 Tb11 2.308 1_556 S
O54 C74 1.266 1_545 S
O55 Tb0 2.393 1_455 S
O55 C74 1.248 . S
C56 O45 1.264 1_545 S
C56 O46 1.243 1_556 S
C57 C60 1.399 . S
C57 C62 1.383 . S
C57 C64 1.496 . S
C58 C59 1.399 . S
C58 C62 1.389 . S
C59 C58 1.399 . S
C59 C61 1.380 . S
C59 H76 0.929 . S
C60 C57 1.399 . S
C60 C61 1.392 . S
C60 H77 0.929 . S
C61 C59 1.380 . S
C61 C60 1.392 . S
C61 H78 0.929 . S
C62 C57 1.383 . S
C62 C58 1.389 . S
C62 H79 0.931 1_556 S
C63 O48 1.266 1_545 S
C63 O49 1.248 . S
C64 Tb0 2.802 1_455 S
C64 O44 1.264 . S
C64 O47 1.256 . S
C64 C57 1.496 . S
C65 C32 1.448 . S
C65 H42 0.930 . S
C65 C66 1.328 . S
C66 C37 1.427 . S
C66 H43 0.929 . S
C66 C65 1.328 . S
C67 O51 1.264 1_565 S
C67 O52 1.243 1_554 S
C68 C71 1.399 . S
C68 C72 1.383 . S
C68 C75 1.496 . S
C69 C70 1.399 . S
C69 C72 1.389 . S
C70 C69 1.399 . S
C70 C73 1.380 . S
C70 H80 0.929 . S
C71 C68 1.399 . S
C71 C73 1.392 . S
C71 H81 0.929 . S
C72 C68 1.383 . S
C72 C69 1.389 . S
C72 H82 0.931 1_554 S
C73 C70 1.380 . S
C73 C71 1.392 . S
C73 H83 0.929 . S
C74 O54 1.266 1_565 S
C74 O55 1.248 . S
C75 Tb11 2.802 1_655 S
C75 O50 1.264 . S
C75 O53 1.256 . S
C75 C68 1.496 . S
H76 C59 0.929 . S
H77 C60 0.929 . S
H78 C61 0.929 . S
H79 C62 0.931 1_554 S
H80 C70 0.929 . S
H81 C71 0.929 . S
H82 C72 0.931 1_556 S
H83 C73 0.929 . S
Tb84 N113 2.617 . S
Tb84 N119 2.572 . S
Tb84 O128 2.465 1_655 S
Tb84 O129 2.387 . S
Tb84 O131 2.428 1_655 S
Tb84 O132 2.308 . S
Tb84 O136 2.349 1_655 S
Tb84 O139 2.393 1_655 S
Tb84 C148 2.802 1_655 S
C85 N86 1.379 . S
C85 C88 1.416 . S
C85 C92 1.424 . S
N86 C85 1.379 . S
N86 C89 1.334 . S
N86 Tb95 2.617 . S
C87 C89 1.390 . S
C87 C90 1.339 . S
C87 H107 0.930 . S
C88 C85 1.416 . S
C88 C90 1.416 . S
C88 C94 1.448 . S
C89 N86 1.334 . S
C89 C87 1.390 . S
C89 H100 0.930 . S
C90 C87 1.339 . S
C90 C88 1.416 . S
C90 H111 0.930 . S
C91 C92 1.413 . S
C91 C93 1.427 . S
C91 C97 1.416 . S
C92 C85 1.424 . S
C92 C91 1.413 . S
C92 N96 1.361 . S
C93 C91 1.427 . S
C93 C94 1.328 . S
C93 H108 0.929 . S
C94 C88 1.448 . S
C94 C93 1.328 . S
C94 H109 0.930 . S
Tb95 N86 2.617 . S
Tb95 N96 2.572 . S
Tb95 O130 2.349 1_455 S
Tb95 O133 2.393 1_455 S
Tb95 O134 2.465 1_455 S
Tb95 O135 2.387 . S
Tb95 O137 2.428 1_455 S
Tb95 O138 2.308 . S
Tb95 C159 2.802 1_455 S
N96 C92 1.361 . S
N96 Tb95 2.572 . S
N96 C98 1.340 . S
C97 C91 1.416 . S
C97 C99 1.332 . S
C97 H105 0.931 . S
C98 N96 1.340 . S
C98 C99 1.407 . S
C98 H104 0.930 . S
C99 C97 1.332 . S
C99 C98 1.407 . S
C99 H101 0.929 . S
H100 C89 0.930 . S
H101 C99 0.929 . S
H102 C117 0.930 . S
H103 C124 0.929 . S
H104 C98 0.930 . S
H105 C97 0.931 . S
H106 C120 0.930 . S
H107 C87 0.930 . S
H108 C93 0.929 . S
H109 C94 0.930 . S
H110 C115 0.930 . S
H111 C90 0.930 . S
H112 C123 0.931 . S
N113 Tb84 2.617 . S
N113 C114 1.379 . S
N113 C117 1.334 . S
C114 N113 1.379 . S
C114 C116 1.416 . S
C114 C122 1.424 . S
C115 H110 0.930 . S
C115 C117 1.390 . S
C115 C118 1.339 . S
C116 C114 1.416 . S
C116 C118 1.416 . S
C116 C149 1.448 . S
C117 H102 0.930 . S
C117 N113 1.334 . S
C117 C115 1.390 . S
C118 C115 1.339 . S
C118 C116 1.416 . S
C118 H125 0.930 . S
N119 Tb84 2.572 . S
N119 C120 1.340 . S
N119 C122 1.361 . S
C120 H106 0.930 . S
C120 N119 1.340 . S
C120 C124 1.407 . S
C121 C122 1.413 . S
C121 C123 1.416 . S
C121 C150 1.427 . S
C122 C114 1.424 . S
C122 N119 1.361 . S
C122 C121 1.413 . S
C123 H112 0.931 . S
C123 C121 1.416 . S
C123 C124 1.332 . S
C124 H103 0.929 . S
C124 C120 1.407 . S
C124 C123 1.332 . S
H125 C118 0.930 . S
H126 C149 0.930 . S
H127 C150 0.929 . S
O128 Tb84 2.465 1_455 S
O128 C148 1.264 . S
O129 Tb84 2.387 . S
O129 C140 1.264 1_545 S
O130 Tb95 2.349 1_655 S
O130 C140 1.243 . S
O131 Tb84 2.428 1_455 S
O131 C148 1.256 . S
O132 Tb84 2.308 . S
O132 C147 1.266 1_545 S
O133 Tb95 2.393 1_655 S
O133 C147 1.248 . S
O134 Tb95 2.465 1_655 S
O134 C159 1.264 . S
O135 Tb95 2.387 . S
O135 C151 1.264 1_565 S
O136 Tb84 2.349 1_455 S
O136 C151 1.243 . S
O137 Tb95 2.428 1_655 S
O137 C159 1.256 . S
O138 Tb95 2.308 . S
O138 C158 1.266 1_565 S
O139 Tb84 2.393 1_455 S
O139 C158 1.248 . S
C140 O129 1.264 1_565 S
C140 O130 1.243 . S
C141 C144 1.399 . S
C141 C146 1.383 . S
C141 C148 1.496 . S
C142 C143 1.399 . S
C142 C146 1.389 . S
C143 C142 1.399 . S
C143 C145 1.380 . S
C143 H160 0.929 . S
C144 C141 1.399 . S
C144 C145 1.392 . S
C144 H161 0.929 . S
C145 C143 1.380 . S
C145 C144 1.392 . S
C145 H162 0.929 . S
C146 C141 1.383 . S
C146 C142 1.389 . S
C146 H163 0.931 . S
C147 O132 1.266 1_565 S
C147 O133 1.248 . S
C148 Tb84 2.802 1_455 S
C148 O128 1.264 . S
C148 O131 1.256 . S
C148 C141 1.496 . S
C149 C116 1.448 . S
C149 H126 0.930 . S
C149 C150 1.328 . S
C150 C121 1.427 . S
C150 H127 0.929 . S
C150 C149 1.328 . S
C151 O135 1.264 1_545 S
C151 O136 1.243 . S
C152 C155 1.399 . S
C152 C156 1.383 . S
C152 C159 1.496 . S
C153 C154 1.399 . S
C153 C156 1.389 . S
C154 C153 1.399 . S
C154 C157 1.380 . S
C154 H164 0.929 . S
C155 C152 1.399 . S
C155 C157 1.392 . S
C155 H165 0.929 . S
C156 C152 1.383 . S
C156 C153 1.389 . S
C156 H166 0.931 . S
C157 C154 1.380 . S
C157 C155 1.392 . S
C157 H167 0.929 . S
C158 O138 1.266 1_545 S
C158 O139 1.248 . S
C159 Tb95 2.802 1_655 S
C159 O134 1.264 . S
C159 O137 1.256 . S
C159 C152 1.496 . S
H160 C143 0.929 . S
H161 C144 0.929 . S
H162 C145 0.929 . S
H163 C146 0.931 . S
H164 C154 0.929 . S
H165 C155 0.929 . S
H166 C156 0.931 . S
H167 C157 0.929 . S
Tb168 N197 2.617 . S
Tb168 N203 2.572 . S
Tb168 O212 2.465 . S
Tb168 O213 2.387 . S
Tb168 O215 2.428 . S
Tb168 O216 2.308 1_556 S
Tb168 O220 2.349 . S
Tb168 O223 2.393 . S
Tb168 C232 2.802 . S
C169 N170 1.379 . S
C169 C172 1.416 . S
C169 C176 1.424 . S
N170 C169 1.379 . S
N170 C173 1.334 . S
N170 Tb179 2.617 . S
C171 C173 1.390 . S
C171 C174 1.339 . S
C171 H191 0.930 . S
C172 C169 1.416 . S
C172 C174 1.416 . S
C172 C178 1.448 . S
C173 N170 1.334 . S
C173 C171 1.390 . S
C173 H184 0.930 . S
C174 C171 1.339 . S
C174 C172 1.416 . S
C174 H195 0.930 . S
C175 C176 1.413 . S
C175 C177 1.427 . S
C175 C181 1.416 . S
C176 C169 1.424 . S
C176 C175 1.413 . S
C176 N180 1.361 . S
C177 C175 1.427 . S
C177 C178 1.328 . S
C177 H192 0.929 . S
C178 C172 1.448 . S
C178 C177 1.328 . S
C178 H193 0.930 . S
Tb179 N170 2.617 . S
Tb179 N180 2.572 . S
Tb179 O214 2.349 . S
Tb179 O217 2.393 . S
Tb179 O218 2.465 . S
Tb179 O219 2.387 . S
Tb179 O221 2.428 . S
Tb179 O222 2.308 1_554 S
Tb179 C243 2.802 . S
N180 C176 1.361 . S
N180 Tb179 2.572 . S
N180 C182 1.340 1_554 S
C181 C175 1.416 . S
C181 C183 1.332 1_554 S
C181 H189 0.931 1_554 S
C182 N180 1.340 1_556 S
C182 C183 1.407 . S
C182 H188 0.930 . S
C183 C181 1.332 1_556 S
C183 C182 1.407 . S
C183 H185 0.929 . S
H184 C173 0.930 . S
H185 C183 0.929 . S
H186 C201 0.930 . S
H187 C208 0.929 . S
H188 C182 0.930 . S
H189 C181 0.931 1_556 S
H190 C204 0.930 . S
H191 C171 0.930 . S
H192 C177 0.929 . S
H193 C178 0.930 . S
H194 C199 0.930 . S
H195 C174 0.930 . S
H196 C207 0.924 1_554 S
N197 Tb168 2.617 . S
N197 C198 1.379 . S
N197 C201 1.334 . S
C198 N197 1.379 . S
C198 C200 1.416 . S
C198 C206 1.424 . S
C199 H194 0.930 . S
C199 C201 1.390 . S
C199 C202 1.339 . S
C200 C198 1.416 . S
C200 C202 1.416 . S
C200 C233 1.448 . S
C201 H186 0.930 . S
C201 N197 1.334 . S
C201 C199 1.390 . S
C202 C199 1.339 . S
C202 C200 1.416 . S
C202 H209 0.930 . S
N203 Tb168 2.572 . S
N203 C204 1.340 1_556 S
N203 C206 1.361 . S
C204 H190 0.930 . S
C204 N203 1.340 1_554 S
C204 C208 1.407 . S
C205 C206 1.413 . S
C205 C207 1.432 . S
C205 C234 1.427 . S
C206 C198 1.424 . S
C206 N203 1.361 . S
C206 C205 1.413 . S
C207 H196 0.924 1_556 S
C207 C205 1.432 . S
C207 C208 1.323 1_556 S
C208 H187 0.929 . S
C208 C204 1.407 . S
C208 C207 1.323 1_554 S
H209 C202 0.930 . S
H210 C233 0.930 . S
H211 C234 0.929 . S
O212 Tb168 2.465 . S
O212 C232 1.264 . S
O213 Tb168 2.387 . S
O213 C224 1.264 . S
O214 Tb179 2.349 . S
O214 C224 1.243 1_554 S
O215 Tb168 2.428 . S
O215 C232 1.256 . S
O216 Tb168 2.308 1_554 S
O216 C231 1.266 . S
O217 Tb179 2.393 . S
O217 C231 1.248 . S
O218 Tb179 2.465 . S
O218 C243 1.264 . S
O219 Tb179 2.387 . S
O219 C235 1.264 . S
O220 Tb168 2.349 . S
O220 C235 1.243 1_556 S
O221 Tb179 2.428 . S
O221 C243 1.256 . S
O222 Tb179 2.308 1_556 S
O222 C242 1.266 . S
O223 Tb168 2.393 . S
O223 C242 1.248 . S
C224 O213 1.264 . S
C224 O214 1.243 1_556 S
C225 C228 1.399 . S
C225 C230 1.383 . S
C225 C232 1.496 . S
C226 C227 1.399 . S
C226 C230 1.389 . S
C227 C226 1.399 . S
C227 C229 1.380 . S
C227 H244 0.929 . S
C228 C225 1.399 . S
C228 C229 1.392 . S
C228 H245 0.929 . S
C229 C227 1.380 . S
C229 C228 1.392 . S
C229 H246 0.929 . S
C230 C225 1.383 . S
C230 C226 1.389 . S
C230 H247 0.931 1_556 S
C231 O216 1.266 . S
C231 O217 1.248 . S
C232 Tb168 2.802 . S
C232 O212 1.264 . S
C232 O215 1.256 . S
C232 C225 1.496 . S
C233 C200 1.448 . S
C233 H210 0.930 . S
C233 C234 1.328 . S
C234 C205 1.427 . S
C234 H211 0.929 . S
C234 C233 1.328 . S
C235 O219 1.264 . S
C235 O220 1.243 1_554 S
C236 C239 1.399 . S
C236 C240 1.383 . S
C236 C243 1.496 . S
C237 C238 1.399 . S
C237 C240 1.389 . S
C238 C237 1.399 . S
C238 C241 1.380 . S
C238 H248 0.929 . S
C239 C236 1.399 . S
C239 C241 1.392 . S
C239 H249 0.929 . S
C240 C236 1.383 . S
C240 C237 1.389 . S
C240 H250 0.931 1_554 S
C241 C238 1.380 . S
C241 C239 1.392 . S
C241 H251 0.929 . S
C242 O222 1.266 . S
C242 O223 1.248 . S
C243 Tb179 2.802 . S
C243 O218 1.264 . S
C243 O221 1.256 . S
C243 C236 1.496 . S
H244 C227 0.929 . S
H245 C228 0.929 . S
H246 C229 0.929 . S
H247 C230 0.931 1_554 S
H248 C238 0.929 . S
H249 C239 0.929 . S
H250 C240 0.931 1_556 S
H251 C241 0.929 . S
Tb252 N281 2.617 . S
Tb252 N287 2.572 . S
Tb252 O296 2.465 . S
Tb252 O297 2.387 . S
Tb252 O299 2.428 . S
Tb252 O300 2.308 . S
Tb252 O304 2.349 . S
Tb252 O307 2.393 . S
Tb252 C316 2.802 . S
C253 N254 1.379 . S
C253 C256 1.416 . S
C253 C260 1.424 . S
N254 C253 1.379 . S
N254 C257 1.334 . S
N254 Tb263 2.617 . S
C255 C257 1.390 . S
C255 C258 1.339 . S
C255 H275 0.930 . S
C256 C253 1.416 . S
C256 C258 1.416 . S
C256 C262 1.448 . S
C257 N254 1.334 . S
C257 C255 1.390 . S
C257 H268 0.930 . S
C258 C255 1.339 . S
C258 C256 1.416 . S
C258 H279 0.930 . S
C259 C260 1.413 . S
C259 C261 1.427 . S
C259 C265 1.416 . S
C260 C253 1.424 . S
C260 C259 1.413 . S
C260 N264 1.361 . S
C261 C259 1.427 . S
C261 C262 1.328 . S
C261 H276 0.929 . S
C262 C256 1.448 . S
C262 C261 1.328 . S
C262 H277 0.930 . S
Tb263 N254 2.617 . S
Tb263 N264 2.572 . S
Tb263 O298 2.349 . S
Tb263 O301 2.393 . S
Tb263 O302 2.465 . S
Tb263 O303 2.387 . S
Tb263 O305 2.428 . S
Tb263 O306 2.308 . S
Tb263 C327 2.802 . S
N264 C260 1.361 . S
N264 Tb263 2.572 . S
N264 C266 1.340 . S
C265 C259 1.416 . S
C265 C267 1.332 . S
C265 H273 0.931 . S
C266 N264 1.340 . S
C266 C267 1.407 . S
C266 H272 0.930 . S
C267 C265 1.332 . S
C267 C266 1.407 . S
C267 H269 0.929 . S
H268 C257 0.930 . S
H269 C267 0.929 . S
H270 C285 0.930 . S
H271 C292 0.929 . S
H272 C266 0.930 . S
H273 C265 0.931 . S
H274 C288 0.930 . S
H275 C255 0.930 . S
H276 C261 0.929 . S
H277 C262 0.930 . S
H278 C283 0.930 . S
H279 C258 0.930 . S
H280 C291 0.931 . S
N281 Tb252 2.617 . S
N281 C282 1.379 . S
N281 C285 1.334 . S
C282 N281 1.379 . S
C282 C284 1.416 . S
C282 C290 1.424 . S
C283 H278 0.930 . S
C283 C285 1.390 . S
C283 C286 1.339 . S
C284 C282 1.416 . S
C284 C286 1.416 . S
C284 C317 1.448 . S
C285 H270 0.930 . S
C285 N281 1.334 . S
C285 C283 1.390 . S
C286 C283 1.339 . S
C286 C284 1.416 . S
C286 H293 0.930 . S
N287 Tb252 2.572 . S
N287 C288 1.340 . S
N287 C290 1.361 . S
C288 H274 0.930 . S
C288 N287 1.340 . S
C288 C292 1.407 . S
C289 C290 1.413 . S
C289 C291 1.416 . S
C289 C318 1.427 . S
C290 C282 1.424 . S
C290 N287 1.361 . S
C290 C289 1.413 . S
C291 H280 0.931 . S
C291 C289 1.416 . S
C291 C292 1.332 . S
C292 H271 0.929 . S
C292 C288 1.407 . S
C292 C291 1.332 . S
H293 C286 0.930 . S
H294 C317 0.930 . S
H295 C318 0.929 . S
O296 Tb252 2.465 . S
O296 C316 1.264 . S
O297 Tb252 2.387 . S
O297 C308 1.264 . S
O298 Tb263 2.349 . S
O298 C308 1.243 . S
O299 Tb252 2.428 . S
O299 C316 1.256 . S
O300 Tb252 2.308 . S
O300 C315 1.266 . S
O301 Tb263 2.393 . S
O301 C315 1.248 . S
O302 Tb263 2.465 . S
O302 C327 1.264 . S
O303 Tb263 2.387 . S
O303 C319 1.264 . S
O304 Tb252 2.349 . S
O304 C319 1.243 . S
O305 Tb263 2.428 . S
O305 C327 1.256 . S
O306 Tb263 2.308 . S
O306 C326 1.266 . S
O307 Tb252 2.393 . S
O307 C326 1.248 . S
C308 O297 1.264 . S
C308 O298 1.243 . S
C309 C312 1.399 . S
C309 C314 1.383 . S
C309 C316 1.496 . S
C310 C311 1.399 . S
C310 C314 1.389 . S
C311 C310 1.399 . S
C311 C313 1.380 . S
C311 H328 0.929 . S
C312 C309 1.399 . S
C312 C313 1.392 . S
C312 H329 0.929 . S
C313 C311 1.380 . S
C313 C312 1.392 . S
C313 H330 0.929 . S
C314 C309 1.383 . S
C314 C310 1.389 . S
C314 H331 0.931 . S
C315 O300 1.266 . S
C315 O301 1.248 . S
C316 Tb252 2.802 . S
C316 O296 1.264 . S
C316 O299 1.256 . S
C316 C309 1.496 . S
C317 C284 1.448 . S
C317 H294 0.930 . S
C317 C318 1.328 . S
C318 C289 1.427 . S
C318 H295 0.929 . S
C318 C317 1.328 . S
C319 O303 1.264 . S
C319 O304 1.243 . S
C320 C323 1.399 . S
C320 C324 1.383 . S
C320 C327 1.496 . S
C321 C322 1.399 . S
C321 C324 1.389 . S
C322 C321 1.399 . S
C322 C325 1.380 . S
C322 H332 0.929 . S
C323 C320 1.399 . S
C323 C325 1.392 . S
C323 H333 0.929 . S
C324 C320 1.383 . S
C324 C321 1.389 . S
C324 H334 0.931 . S
C325 C322 1.380 . S
C325 C323 1.392 . S
C325 H335 0.929 . S
C326 O306 1.266 . S
C326 O307 1.248 . S
C327 Tb263 2.802 . S
C327 O302 1.264 . S
C327 O305 1.256 . S
C327 C320 1.496 . S
H328 C311 0.929 . S
H329 C312 0.929 . S
H330 C313 0.929 . S
H331 C314 0.931 . S
H332 C322 0.929 . S
H333 C323 0.929 . S
H334 C324 0.931 . S
H335 C325 0.929 . S
H336 C348 0.930 . S
H337 C350 0.930 . S
H338 C351 0.930 . S
H339 C355 0.959 . S
H340 C355 0.959 . S
H341 C355 0.961 . S
H342 C356 0.960 . S
H343 C356 0.961 . S
H344 C356 0.959 . S
H345 C359 0.929 . S
H346 C360 0.931 . S
H347 C362 0.930 . S
C348 H336 0.930 . S
C348 C349 1.399 1_554 S
C348 C353 1.399 . S
C349 C348 1.399 1_556 S
C349 C350 1.376 . S
C350 H337 0.930 . S
C350 C349 1.376 . S
C350 C351 1.388 . S
C351 H338 0.930 . S
C351 C350 1.388 . S
C351 C352 1.390 . S
C352 C351 1.390 . S
C352 C353 1.394 1_556 S
C352 C358 1.465 . S
C353 C348 1.399 . S
C353 C352 1.394 1_554 S
C353 C354 1.516 . S
C354 C353 1.516 . S
C354 C355 1.502 . S
C354 C356 1.561 . S
C354 C357 1.526 . S
C355 H339 0.959 . S
C355 H340 0.959 . S
C355 H341 0.961 . S
C355 C354 1.502 . S
C356 H342 0.960 . S
C356 H343 0.961 . S
C356 H344 0.959 . S
C356 C354 1.561 . S
C357 C354 1.526 . S
C357 C358 1.396 1_554 S
C357 C362 1.390 . S
C358 C352 1.465 . S
C358 C357 1.396 1_556 S
C358 C359 1.399 . S
C359 H345 0.929 . S
C359 C358 1.399 . S
C359 C360 1.385 . S
C360 H346 0.931 . S
C360 C359 1.385 . S
C360 C361 1.389 . S
C361 C360 1.389 . S
C361 C362 1.387 1_556 S
C362 H347 0.930 . S
C362 C357 1.390 . S
C362 C361 1.387 1_554 S
H363 C375 0.930 . S
H364 C377 0.930 . S
H365 C378 0.930 . S
H366 C382 0.959 . S
H367 C382 0.959 . S
H368 C382 0.961 . S
H369 C383 0.960 . S
H370 C383 0.961 . S
H371 C383 0.959 1_556 S
H372 C386 0.929 . S
H373 C387 0.931 . S
H374 C389 0.930 . S
C375 H363 0.930 . S
C375 C376 1.399 1_554 S
C375 C380 1.399 . S
C376 C375 1.399 1_556 S
C376 C377 1.376 . S
C377 H364 0.930 . S
C377 C376 1.376 . S
C377 C378 1.388 . S
C378 H365 0.930 . S
C378 C377 1.388 . S
C378 C379 1.390 . S
C379 C378 1.390 . S
C379 C380 1.394 1_556 S
C379 C385 1.465 . S
C380 C375 1.399 . S
C380 C379 1.394 1_554 S
C380 C381 1.516 . S
C381 C380 1.516 . S
C381 C382 1.502 . S
C381 C383 1.561 . S
C381 C384 1.526 . S
C382 H366 0.959 . S
C382 H367 0.959 . S
C382 H368 0.961 . S
C382 C381 1.502 . S
C383 H369 0.960 . S
C383 H370 0.961 . S
C383 H371 0.959 1_554 S
C383 C381 1.561 . S
C384 C381 1.526 . S
C384 C385 1.396 1_554 S
C384 C389 1.390 . S
C385 C379 1.465 . S
C385 C384 1.396 1_556 S
C385 C386 1.399 . S
C386 H372 0.929 . S
C386 C385 1.399 . S
C386 C387 1.385 . S
C387 H373 0.931 . S
C387 C386 1.385 . S
C387 C388 1.389 . S
C388 C387 1.389 . S
C388 C389 1.387 1_556 S
C389 H374 0.930 . S
C389 C384 1.390 . S
C389 C388 1.387 1_554 S
H390 C402 0.930 . S
H391 C404 0.930 . S
H392 C405 0.930 . S
H393 C409 0.959 . S
H394 C409 0.959 . S
H395 C409 0.961 . S
H396 C410 0.960 . S
H397 C410 0.961 . S
H398 C410 0.959 . S
H399 C413 0.929 . S
H400 C414 0.931 . S
H401 C416 0.930 . S
C402 H390 0.930 . S
C402 C403 1.399 . S
C402 C407 1.399 . S
C403 C402 1.399 . S
C403 C404 1.376 . S
C404 H391 0.930 . S
C404 C403 1.376 . S
C404 C405 1.388 . S
C405 H392 0.930 . S
C405 C404 1.388 . S
C405 C406 1.390 . S
C406 C405 1.390 . S
C406 C407 1.394 . S
C406 C412 1.465 . S
C407 C402 1.399 . S
C407 C406 1.394 . S
C407 C408 1.516 . S
C408 C407 1.516 . S
C408 C409 1.502 . S
C408 C410 1.561 . S
C408 C411 1.526 . S
C409 H393 0.959 . S
C409 H394 0.959 . S
C409 H395 0.961 . S
C409 C408 1.502 . S
C410 H396 0.960 . S
C410 H397 0.961 . S
C410 H398 0.959 . S
C410 C408 1.561 . S
C411 C408 1.526 . S
C411 C412 1.396 . S
C411 C416 1.390 . S
C412 C406 1.465 . S
C412 C411 1.396 . S
C412 C413 1.399 . S
C413 H399 0.929 . S
C413 C412 1.399 . S
C413 C414 1.385 . S
C414 H400 0.931 . S
C414 C413 1.385 . S
C414 C415 1.389 . S
C415 C414 1.389 . S
C415 C416 1.387 . S
C416 H401 0.930 . S
C416 C411 1.390 . S
C416 C415 1.387 . S
H417 C429 0.930 . S
H418 C431 0.930 . S
H419 C432 0.930 . S
H420 C436 0.959 . S
H421 C436 0.959 . S
H422 C436 0.961 . S
H423 C437 0.960 . S
H424 C437 0.961 . S
H425 C437 0.959 . S
H426 C440 0.929 . S
H427 C441 0.931 . S
H428 C443 0.930 . S
C429 H417 0.930 . S
C429 C430 1.399 . S
C429 C434 1.399 . S
C430 C429 1.399 . S
C430 C431 1.376 . S
C431 H418 0.930 . S
C431 C430 1.376 . S
C431 C432 1.388 . S
C432 H419 0.930 . S
C432 C431 1.388 . S
C432 C433 1.390 . S
C433 C432 1.390 . S
C433 C434 1.394 . S
C433 C439 1.465 . S
C434 C429 1.399 . S
C434 C433 1.394 . S
C434 C435 1.516 . S
C435 C434 1.516 . S
C435 C436 1.502 . S
C435 C437 1.561 . S
C435 C438 1.526 . S
C436 H420 0.959 . S
C436 H421 0.959 . S
C436 H422 0.961 . S
C436 C435 1.502 . S
C437 H423 0.960 . S
C437 H424 0.961 . S
C437 H425 0.959 . S
C437 C435 1.561 . S
C438 C435 1.526 . S
C438 C439 1.396 . S
C438 C443 1.390 . S
C439 C433 1.465 . S
C439 C438 1.396 . S
C439 C440 1.399 . S
C440 H426 0.929 . S
C440 C439 1.399 . S
C440 C441 1.385 . S
C441 H427 0.931 . S
C441 C440 1.385 . S
C441 C442 1.389 . S
C442 C441 1.389 . S
C442 C443 1.387 . S
C443 H428 0.930 . S
C443 C438 1.390 . S
C443 C442 1.387 . S
H444 C456 0.930 . S
H445 C458 0.930 . S
H446 C459 0.930 . S
H447 C463 0.959 . S
H448 C463 0.959 . S
H449 C463 0.961 . S
H450 C464 0.960 . S
H451 C464 0.961 1_545 S
H452 C464 0.959 . S
H453 C467 0.929 . S
H454 C468 0.931 . S
H455 C470 0.930 . S
C456 H444 0.930 . S
C456 C457 1.399 1_544 S
C456 C461 1.399 . S
C457 C456 1.399 1_566 S
C457 C458 1.376 . S
C458 H445 0.930 . S
C458 C457 1.376 . S
C458 C459 1.388 . S
C459 H446 0.930 . S
C459 C458 1.388 . S
C459 C460 1.390 . S
C460 C459 1.390 . S
C460 C461 1.394 1_566 S
C460 C466 1.465 . S
C461 C456 1.399 . S
C461 C460 1.394 1_544 S
C461 C462 1.516 . S
C462 C461 1.516 . S
C462 C463 1.502 . S
C462 C464 1.561 1_545 S
C462 C465 1.526 . S
C463 H447 0.959 . S
C463 H448 0.959 . S
C463 H449 0.961 . S
C463 C462 1.502 . S
C464 H450 0.960 . S
C464 H451 0.961 1_565 S
C464 H452 0.959 . S
C464 C462 1.561 1_565 S
C465 C462 1.526 . S
C465 C466 1.396 1_544 S
C465 C470 1.390 . S
C466 C460 1.465 . S
C466 C465 1.396 1_566 S
C466 C467 1.399 . S
C467 H453 0.929 . S
C467 C466 1.399 . S
C467 C468 1.385 . S
C468 H454 0.931 . S
C468 C467 1.385 . S
C468 C469 1.389 1_565 S
C469 C468 1.389 1_545 S
C469 C470 1.387 1_556 S
C470 H455 0.930 . S
C470 C465 1.390 . S
C470 C469 1.387 1_554 S
H471 C483 0.930 . S
H472 C485 0.930 . S
H473 C486 0.930 . S
H474 C490 0.959 . S
H475 C490 0.959 . S
H476 C490 0.961 . S
H477 C491 0.960 . S
H478 C491 0.961 . S
H479 C491 0.959 1_565 S
H480 C494 0.929 . S
H481 C495 0.931 . S
H482 C497 0.930 . S
C483 H471 0.930 . S
C483 C484 1.399 . S
C483 C488 1.399 . S
C484 C483 1.399 . S
C484 C485 1.376 1_545 S
C485 H472 0.930 . S
C485 C484 1.376 1_565 S
C485 C486 1.388 . S
C486 H473 0.930 . S
C486 C485 1.388 . S
C486 C487 1.390 . S
C487 C486 1.390 . S
C487 C488 1.394 1_565 S
C487 C493 1.465 . S
C488 C483 1.399 . S
C488 C487 1.394 1_545 S
C488 C489 1.516 . S
C489 C488 1.516 . S
C489 C490 1.502 . S
C489 C491 1.561 . S
C489 C492 1.526 . S
C490 H474 0.959 . S
C490 H475 0.959 . S
C490 H476 0.961 . S
C490 C489 1.502 . S
C491 H477 0.960 . S
C491 H478 0.961 . S
C491 H479 0.959 1_545 S
C491 C489 1.561 . S
C492 C489 1.526 . S
C492 C493 1.396 1_545 S
C492 C497 1.390 . S
C493 C487 1.465 . S
C493 C492 1.396 1_565 S
C493 C494 1.399 . S
C494 H480 0.929 . S
C494 C493 1.399 . S
C494 C495 1.385 . S
C495 H481 0.931 . S
C495 C494 1.385 . S
C495 C496 1.389 . S
C496 C495 1.389 . S
C496 C497 1.387 1_565 S
C497 H482 0.930 . S
C497 C492 1.390 . S
C497 C496 1.387 1_545 S
H498 C510 0.930 . S
H499 C512 0.930 . S
H500 C513 0.930 . S
H501 C517 0.959 1_554 S
H502 C517 0.959 . S
H503 C517 0.961 1_655 S
H504 C518 0.960 1_655 S
H505 C518 0.961 . S
H506 C518 0.959 . S
H507 C521 0.929 . S
H508 C522 0.931 . S
H509 C524 0.930 . S
C510 H498 0.930 . S
C510 C511 1.398 1_556 S
C510 C515 1.399 . S
C511 C510 1.398 1_554 S
C511 C512 1.378 . S
C512 H499 0.930 . S
C512 C511 1.378 . S
C512 C513 1.388 . S
C513 H500 0.930 . S
C513 C512 1.388 . S
C513 C514 1.390 . S
C514 C513 1.390 . S
C514 C515 1.394 1_554 S
C514 C520 1.465 1_655 S
C515 C510 1.399 . S
C515 C514 1.394 1_556 S
C515 C516 1.516 1_655 S
C516 C515 1.516 1_455 S
C516 C517 1.502 . S
C516 C518 1.561 . S
C516 C519 1.526 . S
C517 H501 0.959 1_556 S
C517 H502 0.959 . S
C517 H503 0.961 1_455 S
C517 C516 1.502 . S
C518 H504 0.960 1_455 S
C518 H505 0.961 . S
C518 H506 0.959 . S
C518 C516 1.561 . S
C519 C516 1.526 . S
C519 C520 1.396 1_556 S
C519 C524 1.390 . S
C520 C514 1.465 1_455 S
C520 C519 1.396 1_554 S
C520 C521 1.399 . S
C521 H507 0.929 . S
C521 C520 1.399 . S
C521 C522 1.385 . S
C522 H508 0.931 . S
C522 C521 1.385 . S
C522 C523 1.389 . S
C523 C522 1.389 . S
C523 C524 1.387 1_554 S
C524 H509 0.930 . S
C524 C519 1.390 . S
C524 C523 1.387 1_556 S
H525 C537 0.930 . S
H526 C539 0.930 . S
H527 C540 0.930 . S
H528 C544 0.960 . S
H529 C544 0.959 1_655 S
H530 C544 0.961 . S
H531 C545 0.960 1_455 S
H532 C545 0.961 . S
H533 C545 0.959 . S
H534 C548 0.929 . S
H535 C549 0.931 . S
H536 C551 0.930 . S
C537 H525 0.930 . S
C537 C538 1.399 . S
C537 C542 1.399 . S
C538 C537 1.399 . S
C538 C539 1.376 . S
C539 H526 0.930 . S
C539 C538 1.376 . S
C539 C540 1.388 . S
C540 H527 0.930 . S
C540 C539 1.388 . S
C540 C541 1.390 . S
C541 C540 1.390 . S
C541 C542 1.394 . S
C541 C547 1.465 1_455 S
C542 C537 1.399 . S
C542 C541 1.394 . S
C542 C543 1.524 . S
C543 C542 1.524 . S
C543 C544 1.502 . S
C543 C545 1.561 1_455 S
C543 C546 1.518 1_455 S
C544 H528 0.960 . S
C544 H529 0.959 1_455 S
C544 H530 0.961 . S
C544 C543 1.502 . S
C545 H531 0.960 1_655 S
C545 H532 0.961 . S
C545 H533 0.959 . S
C545 C543 1.561 1_655 S
C546 C543 1.518 1_655 S
C546 C547 1.396 . S
C546 C551 1.390 . S
C547 C541 1.465 1_655 S
C547 C546 1.396 . S
C547 C548 1.399 . S
C548 H534 0.929 . S
C548 C547 1.399 . S
C548 C549 1.385 . S
C549 H535 0.931 . S
C549 C548 1.385 . S
C549 C550 1.389 . S
C550 C549 1.389 . S
C550 C551 1.387 . S
C551 H536 0.930 . S
C551 C546 1.390 . S
C551 C550 1.387 . S
H552 C564 0.930 . S
H553 C566 0.930 . S
H554 C567 0.930 . S
H555 C571 0.959 . S
H556 C571 0.959 . S
H557 C571 0.961 . S
H558 C572 0.960 . S
H559 C572 0.961 . S
H560 C572 0.959 . S
H561 C575 0.929 . S
H562 C576 0.931 . S
H563 C578 0.930 . S
C564 H552 0.930 . S
C564 C565 1.399 1_645 S
C564 C569 1.399 . S
C565 C564 1.399 1_465 S
C565 C566 1.376 . S
C566 H553 0.930 . S
C566 C565 1.376 . S
C566 C567 1.388 . S
C567 H554 0.930 . S
C567 C566 1.388 . S
C567 C568 1.390 . S
C568 C567 1.390 . S
C568 C569 1.394 1_465 S
C568 C574 1.465 . S
C569 C564 1.399 . S
C569 C568 1.394 1_645 S
C569 C570 1.516 . S
C570 C569 1.516 . S
C570 C571 1.502 . S
C570 C572 1.561 1_655 S
C570 C573 1.526 . S
C571 H555 0.959 . S
C571 H556 0.959 . S
C571 H557 0.961 . S
C571 C570 1.502 . S
C572 H558 0.960 . S
C572 H559 0.961 . S
C572 H560 0.959 . S
C572 C570 1.561 1_455 S
C573 C570 1.526 . S
C573 C574 1.396 1_645 S
C573 C578 1.390 . S
C574 C568 1.465 . S
C574 C573 1.396 1_465 S
C574 C575 1.399 . S
C575 H561 0.929 . S
C575 C574 1.399 . S
C575 C576 1.385 . S
C576 H562 0.931 . S
C576 C575 1.385 . S
C576 C577 1.389 . S
C577 C576 1.389 . S
C577 C578 1.387 1_465 S
C578 H563 0.930 . S
C578 C573 1.390 . S
C578 C577 1.387 1_645 S
H579 C591 0.930 . S
H580 C593 0.930 . S
H581 C594 0.930 . S
H582 C598 0.959 . S
H583 C598 0.959 . S
H584 C598 0.961 . S
H585 C599 0.960 . S
H586 C599 0.961 . S
H587 C599 0.959 . S
H588 C602 0.929 . S
H589 C603 0.931 . S
H590 C605 0.930 . S
C591 H579 0.930 . S
C591 C592 1.399 1_465 S
C591 C596 1.399 . S
C592 C591 1.399 1_645 S
C592 C593 1.376 . S
C593 H580 0.930 . S
C593 C592 1.376 . S
C593 C594 1.388 . S
C594 H581 0.930 . S
C594 C593 1.388 . S
C594 C595 1.390 . S
C595 C594 1.390 . S
C595 C596 1.394 1_645 S
C595 C601 1.465 . S
C596 C591 1.399 . S
C596 C595 1.394 1_465 S
C596 C597 1.516 . S
C597 C596 1.516 . S
C597 C598 1.502 . S
C597 C599 1.561 1_455 S
C597 C600 1.526 . S
C598 H582 0.959 . S
C598 H583 0.959 . S
C598 H584 0.961 . S
C598 C597 1.502 . S
C599 H585 0.960 . S
C599 H586 0.961 . S
C599 H587 0.959 . S
C599 C597 1.561 1_655 S
C600 C597 1.526 . S
C600 C601 1.396 1_465 S
C600 C605 1.390 . S
C601 C595 1.465 . S
C601 C600 1.396 1_645 S
C601 C602 1.399 . S
C602 H588 0.929 . S
C602 C601 1.399 . S
C602 C603 1.385 . S
C603 H589 0.931 . S
C603 C602 1.385 . S
C603 C604 1.389 . S
C604 C603 1.389 . S
C604 C605 1.387 1_645 S
C605 H590 0.930 . S
C605 C600 1.390 . S
C605 C604 1.387 1_465 S
H606 C618 0.930 . S
H607 C620 0.930 . S
H608 C621 0.930 . S
H609 C625 0.959 . S
H610 C625 0.959 . S
H611 C625 0.961 . S
H612 C626 0.960 . S
H613 C626 0.961 . S
H614 C626 0.959 . S
H615 C629 0.929 . S
H616 C630 0.931 . S
H617 C632 0.930 . S
C618 H606 0.930 . S
C618 C619 1.399 . S
C618 C623 1.399 . S
C619 C618 1.399 . S
C619 C620 1.376 . S
C620 H607 0.930 . S
C620 C619 1.376 . S
C620 C621 1.388 . S
C621 H608 0.930 . S
C621 C620 1.388 . S
C621 C622 1.390 . S
C622 C621 1.390 . S
C622 C623 1.394 . S
C622 C628 1.465 . S
C623 C618 1.399 . S
C623 C622 1.394 . S
C623 C624 1.516 . S
C624 C623 1.516 . S
C624 C625 1.502 . S
C624 C626 1.561 . S
C624 C627 1.526 . S
C625 H609 0.959 . S
C625 H610 0.959 . S
C625 H611 0.961 . S
C625 C624 1.502 . S
C626 H612 0.960 . S
C626 H613 0.961 . S
C626 H614 0.959 . S
C626 C624 1.561 . S
C627 C624 1.526 . S
C627 C628 1.396 . S
C627 C632 1.390 . S
C628 C622 1.465 . S
C628 C627 1.396 . S
C628 C629 1.399 . S
C629 H615 0.929 . S
C629 C628 1.399 . S
C629 C630 1.385 . S
C630 H616 0.931 . S
C630 C629 1.385 . S
C630 C631 1.389 . S
C631 C630 1.389 . S
C631 C632 1.387 . S
C632 H617 0.930 . S
C632 C627 1.390 . S
C632 C631 1.387 . S
H633 C645 0.930 . S
H634 C647 0.930 . S
H635 C648 0.930 . S
H636 C652 0.959 . S
H637 C652 0.959 . S
H638 C652 0.961 . S
H639 C653 0.960 . S
H640 C653 0.961 . S
H641 C653 0.959 . S
H642 C656 0.929 . S
H643 C657 0.931 . S
H644 C659 0.930 . S
C645 H633 0.930 . S
C645 C646 1.399 . S
C645 C650 1.399 . S
C646 C645 1.399 . S
C646 C647 1.376 . S
C647 H634 0.930 . S
C647 C646 1.376 . S
C647 C648 1.388 . S
C648 H635 0.930 . S
C648 C647 1.388 . S
C648 C649 1.390 . S
C649 C648 1.390 . S
C649 C650 1.394 . S
C649 C655 1.465 . S
C650 C645 1.399 . S
C650 C649 1.394 . S
C650 C651 1.516 . S
C651 C650 1.516 . S
C651 C652 1.502 . S
C651 C653 1.561 . S
C651 C654 1.526 . S
C652 H636 0.959 . S
C652 H637 0.959 . S
C652 H638 0.961 . S
C652 C651 1.502 . S
C653 H639 0.960 . S
C653 H640 0.961 . S
C653 H641 0.959 . S
C653 C651 1.561 . S
C654 C651 1.526 . S
C654 C655 1.396 . S
C654 C659 1.390 . S
C655 C649 1.465 . S
C655 C654 1.396 . S
C655 C656 1.399 . S
C656 H642 0.929 . S
C656 C655 1.399 . S
C656 C657 1.385 . S
C657 H643 0.931 . S
C657 C656 1.385 . S
C657 C658 1.389 . S
C658 C657 1.389 . S
C658 C659 1.387 . S
C659 H644 0.930 . S
C659 C654 1.390 . S
C659 C658 1.387 . S
C349 C237 1.442 1_556 S
C361 C58 1.350 . S
C376 C226 1.345 . S
C388 C69 1.446 1_556 S
C403 C142 1.455 . S
C415 C321 1.341 . S
C430 C153 1.437 . S
C442 C310 1.353 . S
C457 C67 1.969 1_556 S
C469 C56 1.953 . S
C484 C151 1.953 . S
C496 C140 1.969 . S
C511 C235 1.958 . S
C523 C224 1.967 1_554 S
C538 C308 1.957 . S
C550 C319 1.967 . S
C565 C147 1.466 1_455 S
C577 C63 1.495 1_465 S
C592 C74 1.496 1_645 S
C604 C158 1.464 1_655 S
C619 C315 1.477 . S
C631 C231 1.450 . S
C646 C326 1.448 . S
C658 C242 1.483 . S
