# Generated by pormake.
# Topology unp, (4)-cn, num edge types: 1
# Building blocks:
#     Node 0, Type 0, BuildingBlock: UXUYUI_clean_sbu_0, # of connection points: 4
#     Node 1, Type 0, BuildingBlock: UXUYUI_clean_sbu_0, # of connection points: 4
#     Node 2, Type 0, BuildingBlock: UXUYUI_clean_sbu_0, # of connection points: 4
#     Node 3, Type 0, BuildingBlock: UXUYUI_clean_sbu_0, # of connection points: 4
#     Node 4, Type 0, BuildingBlock: UXUYUI_clean_sbu_0, # of connection points: 4
#     Node 5, Type 0, BuildingBlock: UXUYUI_clean_sbu_0, # of connection points: 4
#     Node 6, Type 0, BuildingBlock: UXUYUI_clean_sbu_0, # of connection points: 4
#     Node 7, Type 0, BuildingBlock: UXUYUI_clean_sbu_0, # of connection points: 4
#     Node 8, Type 0, BuildingBlock: UXUYUI_clean_sbu_0, # of connection points: 4
#     Node 9, Type 0, BuildingBlock: UXUYUI_clean_sbu_0, # of connection points: 4
#     Node 10, Type 0, BuildingBlock: UXUYUI_clean_sbu_0, # of connection points: 4
#     Node 11, Type 0, BuildingBlock: UXUYUI_clean_sbu_0, # of connection points: 4
#     Node 12, Type 0, BuildingBlock: UXUYUI_clean_sbu_0, # of connection points: 4
#     Node 13, Type 0, BuildingBlock: UXUYUI_clean_sbu_0, # of connection points: 4
#     Node 14, Type 0, BuildingBlock: UXUYUI_clean_sbu_0, # of connection points: 4
#     Node 15, Type 0, BuildingBlock: UXUYUI_clean_sbu_0, # of connection points: 4
#     Node 16, Type 0, BuildingBlock: UXUYUI_clean_sbu_0, # of connection points: 4
#     Node 17, Type 0, BuildingBlock: UXUYUI_clean_sbu_0, # of connection points: 4
#     Edge 18, Type (0, 0), BuildingBlock: XIVTED_clean_linker_0, # of connection points: 2
#     Edge 19, Type (0, 0), BuildingBlock: XIVTED_clean_linker_0, # of connection points: 2
#     Edge 20, Type (0, 0), BuildingBlock: XIVTED_clean_linker_0, # of connection points: 2
#     Edge 21, Type (0, 0), BuildingBlock: XIVTED_clean_linker_0, # of connection points: 2
#     Edge 22, Type (0, 0), BuildingBlock: XIVTED_clean_linker_0, # of connection points: 2
#     Edge 23, Type (0, 0), BuildingBlock: XIVTED_clean_linker_0, # of connection points: 2
#     Edge 24, Type (0, 0), BuildingBlock: XIVTED_clean_linker_0, # of connection points: 2
#     Edge 25, Type (0, 0), BuildingBlock: XIVTED_clean_linker_0, # of connection points: 2
#     Edge 26, Type (0, 0), BuildingBlock: XIVTED_clean_linker_0, # of connection points: 2
#     Edge 27, Type (0, 0), BuildingBlock: XIVTED_clean_linker_0, # of connection points: 2
#     Edge 28, Type (0, 0), BuildingBlock: XIVTED_clean_linker_0, # of connection points: 2
#     Edge 29, Type (0, 0), BuildingBlock: XIVTED_clean_linker_0, # of connection points: 2
#     Edge 30, Type (0, 0), BuildingBlock: XIVTED_clean_linker_0, # of connection points: 2
#     Edge 31, Type (0, 0), BuildingBlock: XIVTED_clean_linker_0, # of connection points: 2
#     Edge 32, Type (0, 0), BuildingBlock: XIVTED_clean_linker_0, # of connection points: 2
#     Edge 33, Type (0, 0), BuildingBlock: XIVTED_clean_linker_0, # of connection points: 2
#     Edge 34, Type (0, 0), BuildingBlock: XIVTED_clean_linker_0, # of connection points: 2
#     Edge 35, Type (0, 0), BuildingBlock: XIVTED_clean_linker_0, # of connection points: 2
#     Edge 36, Type (0, 0), BuildingBlock: XIVTED_clean_linker_0, # of connection points: 2
#     Edge 37, Type (0, 0), BuildingBlock: XIVTED_clean_linker_0, # of connection points: 2
#     Edge 38, Type (0, 0), BuildingBlock: XIVTED_clean_linker_0, # of connection points: 2
#     Edge 39, Type (0, 0), BuildingBlock: XIVTED_clean_linker_0, # of connection points: 2
#     Edge 40, Type (0, 0), BuildingBlock: XIVTED_clean_linker_0, # of connection points: 2
#     Edge 41, Type (0, 0), BuildingBlock: XIVTED_clean_linker_0, # of connection points: 2
#     Edge 42, Type (0, 0), BuildingBlock: XIVTED_clean_linker_0, # of connection points: 2
#     Edge 43, Type (0, 0), BuildingBlock: XIVTED_clean_linker_0, # of connection points: 2
#     Edge 44, Type (0, 0), BuildingBlock: XIVTED_clean_linker_0, # of connection points: 2
#     Edge 45, Type (0, 0), BuildingBlock: XIVTED_clean_linker_0, # of connection points: 2
#     Edge 46, Type (0, 0), BuildingBlock: XIVTED_clean_linker_0, # of connection points: 2
#     Edge 47, Type (0, 0), BuildingBlock: XIVTED_clean_linker_0, # of connection points: 2
#     Edge 48, Type (0, 0), BuildingBlock: XIVTED_clean_linker_0, # of connection points: 2
#     Edge 49, Type (0, 0), BuildingBlock: XIVTED_clean_linker_0, # of connection points: 2
#     Edge 50, Type (0, 0), BuildingBlock: XIVTED_clean_linker_0, # of connection points: 2
#     Edge 51, Type (0, 0), BuildingBlock: XIVTED_clean_linker_0, # of connection points: 2
#     Edge 52, Type (0, 0), BuildingBlock: XIVTED_clean_linker_0, # of connection points: 2
#     Edge 53, Type (0, 0), BuildingBlock: XIVTED_clean_linker_0, # of connection points: 2
# Relax obj value: 0.501
# Max RMSD: 0.229
# Mean RMSD: 0.224
data_MOF--net-unp--node1-UXUYUI_clean_sbu_0--edge1-XIVTED_clean_linker_0
_symmetry_space_group_name_H-M    P1
_symmetry_Int_Tables_number       1
_symmetry_cell_setting            triclinic
loop_
_symmetry_equiv_pos_as_xyz
'x, y, z'
_cell_length_a     62.796474
_cell_length_b     62.783792
_cell_length_c     103.85927
_cell_angle_alpha  90.228003
_cell_angle_beta   89.780119
_cell_angle_gamma 120.51805
loop_
_atom_site_label
_atom_site_type_symbol
_atom_site_fract_x
_atom_site_fract_y
_atom_site_fract_z
_atom_type_partial_charge
Li0 Li 0.18351 0.21377 0.08989 0.0
Li1 Li 0.19781 0.2314 0.11126 0.0
Li2 Li 0.17337 0.18606 0.10793 0.0
Li3 Li 0.15355 0.21078 0.10629 0.0
C4 C 0.22691 0.21432 0.0945 0.0
N5 N 0.26811 0.22312 0.0805 0.0
C6 C 0.24856 0.23744 0.09508 0.0
C7 C 0.22635 0.19558 0.08693 0.0
C8 C 0.26917 0.24154 0.0879 0.0
C9 C 0.24732 0.20043 0.07987 0.0
C10 C 0.18023 0.26154 0.1026 0.0
C11 C 0.17524 0.28419 0.12002 0.0
N12 N 0.178 0.30188 0.11155 0.0
C13 C 0.18301 0.27994 0.09407 0.0
C14 C 0.1763 0.26366 0.11569 0.0
C15 C 0.18183 0.3002 0.09878 0.0
C16 C 0.17147 0.20185 0.06391 0.0
N17 N 0.19046 0.21685 0.07184 0.0
C18 C 0.21845 0.23196 0.05399 0.0
C19 C 0.21345 0.23245 0.06708 0.0
C20 C 0.19946 0.21553 0.04571 0.0
C21 C 0.17558 0.20082 0.05079 0.0
H22 H 0.15313 0.19033 0.06781 0.0
H23 H 0.22806 0.24489 0.07346 0.0
C24 C 0.22921 0.24703 0.13191 0.0
N25 N 0.22382 0.25593 0.12131 0.0
C26 C 0.24787 0.26301 0.14024 0.0
C27 C 0.25568 0.29714 0.1264 0.0
C28 C 0.23663 0.28042 0.11834 0.0
C29 C 0.26133 0.28843 0.13756 0.0
H30 H 0.21909 0.22738 0.1338 0.0
H31 H 0.23219 0.28694 0.10971 0.0
C32 C 0.1377 0.16108 0.09026 0.0
N33 N 0.11124 0.11233 0.08229 0.0
C34 C 0.11242 0.14671 0.09293 0.0
C35 C 0.14943 0.1507 0.08341 0.0
C36 C 0.09939 0.12209 0.08885 0.0
C37 C 0.13577 0.12601 0.0795 0.0
C38 C 0.15429 0.19175 0.13144 0.0
C39 C 0.12997 0.17331 0.12884 0.0
C40 C 0.16294 0.19564 0.14411 0.0
C41 C 0.11474 0.15889 0.13892 0.0
C42 C 0.14717 0.18082 0.15393 0.0
N43 N 0.12359 0.1629 0.15116 0.0
C44 C 0.1905 0.15331 0.11346 0.0
C45 C 0.14721 0.1354 0.11592 0.0
C46 C 0.18876 0.13071 0.11626 0.0
N47 N 0.16984 0.15516 0.11314 0.0
C48 C 0.14468 0.11264 0.11901 0.0
C49 C 0.16558 0.11005 0.11903 0.0
H50 H 0.20833 0.16928 0.11135 0.0
H51 H 0.13094 0.13698 0.11543 0.0
C52 C 0.10751 0.20224 0.09858 0.0
N53 N 0.12319 0.21011 0.10877 0.0
C54 C 0.08292 0.19584 0.10025 0.0
C55 C 0.0916 0.20758 0.12266 0.0
C56 C 0.11611 0.21394 0.12053 0.0
C57 C 0.07445 0.1975 0.11254 0.0
H58 H 0.11371 0.19936 0.08935 0.0
H59 H 0.12901 0.22035 0.12846 0.0
O60 O 0.20659 0.20991 0.10153 0.0
O61 O 0.18139 0.24166 0.09808 0.0
O62 O 0.15087 0.1852 0.09426 0.0
O63 O 0.16947 0.20628 0.12172 0.0
H64 H 0.24943 0.25214 0.10092 0.0
H65 H 0.20995 0.17745 0.08653 0.0
H66 H 0.28599 0.25939 0.08821 0.0
H67 H 0.24709 0.18612 0.07393 0.0
H68 H 0.17225 0.28607 0.13012 0.0
H69 H 0.18607 0.27858 0.08391 0.0
H70 H 0.17424 0.24972 0.12247 0.0
H71 H 0.18397 0.31458 0.09228 0.0
H72 H 0.23712 0.24374 0.05048 0.0
H73 H 0.16021 0.18846 0.04471 0.0
H74 H 0.25205 0.25545 0.14857 0.0
H75 H 0.26573 0.3166 0.12398 0.0
H76 H 0.10296 0.1544 0.09817 0.0
H77 H 0.16888 0.16162 0.08113 0.0
H78 H 0.07985 0.11073 0.09092 0.0
H79 H 0.14466 0.11774 0.07424 0.0
H80 H 0.1229 0.17014 0.11913 0.0
H81 H 0.18161 0.21001 0.14636 0.0
H82 H 0.09589 0.14453 0.137 0.0
H83 H 0.15365 0.18361 0.16377 0.0
H84 H 0.20528 0.12935 0.11621 0.0
H85 H 0.12643 0.09699 0.12089 0.0
H86 H 0.07031 0.18792 0.09221 0.0
H87 H 0.08585 0.20938 0.13225 0.0
Li88 Li 0.81943 0.00416 0.10469 0.0
Li89 Li 0.79459 0.95915 0.10444 0.0
Li90 Li 0.78883 0.98375 0.08779 0.0
Li91 Li 0.77458 0.98273 0.10978 0.0
C92 C 0.84029 0.99122 0.08482 0.0
N93 N 0.88505 0.01225 0.07198 0.0
C94 C 0.85603 0.98178 0.08647 0.0
C95 C 0.8472 0.01115 0.07652 0.0
C96 C 0.87862 0.99272 0.07993 0.0
C97 C 0.86992 0.02158 0.07015 0.0
C98 C 0.81778 0.98185 0.12823 0.0
C99 C 0.83305 0.98724 0.14998 0.0
N100 N 0.85069 0.98222 0.14596 0.0
C101 C 0.83601 0.97669 0.12433 0.0
C102 C 0.81622 0.98709 0.14117 0.0
C103 C 0.85248 0.97698 0.13342 0.0
C104 C 0.85245 0.05458 0.11064 0.0
N105 N 0.85095 0.03242 0.10865 0.0
C106 C 0.89439 0.05073 0.11208 0.0
C107 C 0.87135 0.03019 0.10937 0.0
C108 C 0.89657 0.07389 0.11393 0.0
C109 C 0.87528 0.07576 0.11316 0.0
H110 H 0.83594 0.05585 0.1102 0.0
H111 H 0.86989 0.01254 0.10776 0.0
C112 C 0.8033 0.92121 0.09757 0.0
N113 N 0.79575 0.92993 0.1075 0.0
C114 C 0.80944 0.90307 0.09973 0.0
C115 C 0.79824 0.90202 0.12212 0.0
C116 C 0.79226 0.92016 0.11951 0.0
C117 C 0.80779 0.89389 0.11224 0.0
H118 H 0.80593 0.9294 0.08813 0.0
H119 H 0.78624 0.92746 0.12725 0.0
C120 C 0.79188 0.0297 0.09279 0.0
N121 N 0.78674 0.06569 0.08038 0.0
C122 C 0.7701 0.03043 0.09417 0.0
C123 C 0.8112 0.04754 0.08528 0.0
C124 C 0.76782 0.04871 0.08777 0.0
C125 C 0.80819 0.0655 0.07903 0.0
C126 C 0.74356 0.93339 0.10255 0.0
C127 C 0.72488 0.91603 0.09457 0.0
C128 C 0.74251 0.92909 0.1158 0.0
C129 C 0.70542 0.89459 0.09999 0.0
C130 C 0.72274 0.90744 0.12085 0.0
N131 N 0.70476 0.89078 0.11291 0.0
C132 C 0.79183 0.97606 0.06135 0.0
C133 C 0.76797 0.9946 0.0662 0.0
C134 C 0.78884 0.97795 0.04818 0.0
N135 N 0.78196 0.98491 0.07004 0.0
C136 C 0.76482 0.99721 0.05312 0.0
C137 C 0.7756 0.98909 0.04395 0.0
H138 H 0.80242 0.96793 0.06466 0.0
H139 H 0.75939 0.00051 0.07325 0.0
C140 C 0.75853 0.99714 0.13124 0.0
N141 N 0.75056 0.98427 0.12005 0.0
C142 C 0.74195 0.99916 0.13936 0.0
C143 C 0.70924 0.9749 0.12418 0.0
C144 C 0.72651 0.97329 0.11635 0.0
C145 C 0.71692 0.98793 0.13588 0.0
H146 H 0.77787 0.00604 0.13376 0.0
H147 H 0.72078 0.9634 0.1073 0.0
O148 O 0.81819 0.98088 0.09124 0.0
O149 O 0.8013 0.98149 0.11951 0.0
O150 O 0.79443 0.01196 0.09902 0.0
O151 O 0.76268 0.95446 0.09734 0.0
H152 H 0.851 0.96631 0.09282 0.0
H153 H 0.83506 0.01836 0.07494 0.0
H154 H 0.89105 0.98571 0.08119 0.0
H155 H 0.87551 0.03705 0.06372 0.0
H156 H 0.83207 0.99129 0.16003 0.0
H157 H 0.8374 0.97243 0.11438 0.0
H158 H 0.80211 0.99094 0.1444 0.0
H159 H 0.86668 0.97302 0.13051 0.0
H160 H 0.91045 0.0486 0.11244 0.0
H161 H 0.87626 0.09334 0.1146 0.0
H162 H 0.81697 0.89756 0.09185 0.0
H163 H 0.79642 0.89522 0.13186 0.0
H164 H 0.75504 0.01692 0.10002 0.0
H165 H 0.82841 0.04769 0.08437 0.0
H166 H 0.751 0.04938 0.08867 0.0
H167 H 0.82296 0.07936 0.07316 0.0
H168 H 0.72544 0.91911 0.0843 0.0
H169 H 0.75671 0.94234 0.12214 0.0
H170 H 0.69083 0.88099 0.09393 0.0
H171 H 0.72169 0.90389 0.13108 0.0
H172 H 0.79745 0.9715 0.04138 0.0
H173 H 0.75411 0.00551 0.0502 0.0
H174 H 0.74878 0.00988 0.14814 0.0
H175 H 0.69012 0.96596 0.12115 0.0
Li176 Li 0.99308 0.82423 0.11038 0.0
Li177 Li 0.03985 0.84978 0.11197 0.0
Li178 Li 0.01797 0.81892 0.09348 0.0
Li179 Li 0.01718 0.80633 0.11499 0.0
C180 C 0.014 0.86793 0.09348 0.0
N181 N 0.00786 0.9057 0.08413 0.0
C182 C 0.02079 0.88898 0.10095 0.0
C183 C 0.00435 0.86631 0.08114 0.0
C184 C 0.01745 0.90781 0.0961 0.0
C185 C 0.00131 0.88552 0.07662 0.0
C186 C 0.01024 0.82217 0.13742 0.0
C187 C 0.02368 0.82148 0.15905 0.0
N188 N 0.00099 0.80175 0.16175 0.0
C189 C 0.98699 0.80203 0.14043 0.0
C190 C 0.02871 0.83212 0.1468 0.0
C191 C 0.98271 0.79191 0.15278 0.0
C192 C 0.94087 0.80581 0.11355 0.0
N193 N 0.96409 0.82589 0.1143 0.0
C194 C 0.94778 0.85159 0.12035 0.0
C195 C 0.96781 0.84827 0.11808 0.0
C196 C 0.9236 0.83155 0.11886 0.0
C197 C 0.92025 0.80832 0.11563 0.0
H198 H 0.93822 0.78785 0.11123 0.0
H199 H 0.98638 0.86362 0.11927 0.0
C200 C 0.08728 0.89201 0.10885 0.0
N201 N 0.06665 0.88131 0.11632 0.0
C202 C 0.10544 0.91672 0.11085 0.0
C203 C 0.08105 0.91848 0.12844 0.0
C204 C 0.06364 0.89366 0.12625 0.0
C205 C 0.10204 0.93062 0.12046 0.0
H206 H 0.08916 0.88161 0.10105 0.0
H207 H 0.0469 0.88465 0.13196 0.0
C208 C 0.96894 0.78274 0.09463 0.0
N209 N 0.93016 0.76289 0.07729 0.0
C210 C 0.95439 0.75711 0.09304 0.0
C211 C 0.96368 0.79818 0.08737 0.0
C212 C 0.9349 0.74745 0.08423 0.0
C213 C 0.94403 0.78785 0.07868 0.0
C214 C 0.05953 0.81328 0.10595 0.0
C215 C 0.05107 0.79007 0.10036 0.0
C216 C 0.0806 0.82377 0.1137 0.0
C217 C 0.06366 0.77749 0.10281 0.0
C218 C 0.09272 0.81062 0.11589 0.0
N219 N 0.08405 0.78794 0.11046 0.0
C220 C 0.0308 0.83302 0.06762 0.0
C221 C 0.00813 0.78975 0.07115 0.0
C222 C 0.02909 0.82938 0.05432 0.0
N223 N 0.01965 0.81333 0.07568 0.0
C224 C 0.00596 0.78523 0.05792 0.0
C225 C 0.01592 0.80523 0.04932 0.0
H226 H 0.04024 0.85157 0.07153 0.0
H227 H -0.00017 0.77442 0.0778 0.0
C228 C 0.99887 0.75751 0.12266 0.0
N229 N 0.01736 0.78097 0.12504 0.0
C230 C 0.99694 0.73787 0.12978 0.0
C231 C 0.0333 0.76682 0.14172 0.0
C232 C 0.03461 0.78594 0.13427 0.0
C233 C 0.01418 0.74242 0.13952 0.0
H234 H 0.98537 0.75409 0.11535 0.0
H235 H 0.04922 0.80477 0.13596 0.0
O236 O 0.01759 0.84947 0.09802 0.0
O237 O 0.01491 0.83203 0.12533 0.0
O238 O 0.98866 0.79249 0.10293 0.0
O239 O 0.04726 0.82571 0.10382 0.0
H240 H 0.02823 0.89068 0.11048 0.0
H241 H -0.00074 0.85044 0.07506 0.0
H242 H 0.02249 0.92409 0.10185 0.0
H243 H 0.9938 0.88441 0.06713 0.0
H244 H 0.03783 0.82886 0.16639 0.0
H245 H 0.97253 0.79413 0.13324 0.0
H246 H 0.04681 0.8477 0.1446 0.0
H247 H 0.96487 0.77619 0.15522 0.0
H248 H 0.95123 0.86983 0.12286 0.0
H249 H 0.9019 0.79228 0.11468 0.0
H250 H 0.12153 0.925 0.10464 0.0
H251 H 0.07723 0.92829 0.13583 0.0
H252 H 0.95821 0.74472 0.09842 0.0
H253 H 0.97436 0.81789 0.0886 0.0
H254 H 0.92358 0.72766 0.08289 0.0
H255 H 0.93977 0.79969 0.07306 0.0
H256 H 0.03475 0.78174 0.09435 0.0
H257 H 0.08738 0.84177 0.11807 0.0
H258 H 0.05721 0.75941 0.09865 0.0
H259 H 0.10898 0.81842 0.12193 0.0
H260 H 0.0375 0.84531 0.04802 0.0
H261 H 0.99559 0.76633 0.0545 0.0
H262 H 0.98164 0.71939 0.12793 0.0
H263 H 0.04701 0.77107 0.14912 0.0
Li264 Li 0.23254 0.1961 0.88565 0.0
Li265 Li 0.21557 0.1824 0.90719 0.0
Li266 Li 0.20784 0.15291 0.88962 0.0
Li267 Li 0.18784 0.17799 0.88967 0.0
C268 C 0.26454 0.18731 0.89753 0.0
N269 N 0.3155 0.21167 0.89631 0.0
C270 C 0.2787 0.20317 0.90749 0.0
C271 C 0.27624 0.18361 0.88702 0.0
C272 C 0.30446 0.21536 0.90668 0.0
C273 C 0.30205 0.19618 0.88655 0.0
C274 C 0.20894 0.22611 0.89606 0.0
C275 C 0.18355 0.24266 0.9031 0.0
N276 N 0.19408 0.26052 0.89394 0.0
C277 C 0.21953 0.24464 0.88673 0.0
C278 C 0.19084 0.22512 0.90434 0.0
C279 C 0.21177 0.26187 0.88581 0.0
C280 C 0.2589 0.22035 0.86329 0.0
N281 N 0.25957 0.22126 0.87635 0.0
C282 C 0.29655 0.2608 0.87599 0.0
C283 C 0.27796 0.24082 0.88278 0.0
C284 C 0.29585 0.2609 0.86246 0.0
C285 C 0.27691 0.24005 0.85612 0.0
H286 H 0.24378 0.2048 0.85843 0.0
H287 H 0.2777 0.24128 0.89318 0.0
C288 C 0.22208 0.17187 0.93296 0.0
N289 N 0.22059 0.18844 0.92519 0.0
C290 C 0.22296 0.17488 0.94632 0.0
C291 C 0.22223 0.21268 0.94334 0.0
C292 C 0.22128 0.20888 0.93007 0.0
C293 C 0.22259 0.1953 0.95167 0.0
H294 H 0.22195 0.156 0.92879 0.0
H295 H 0.22055 0.22199 0.92368 0.0
C296 C 0.19737 0.15542 0.86522 0.0
N297 N 0.18235 0.12068 0.84574 0.0
C298 C 0.17287 0.14328 0.86099 0.0
C299 C 0.21431 0.15011 0.85946 0.0
C300 C 0.16562 0.12573 0.85114 0.0
C301 C 0.20633 0.13242 0.84966 0.0
C302 C 0.17315 0.14171 0.91336 0.0
C303 C 0.17452 0.12138 0.91765 0.0
C304 C 0.16113 0.15095 0.92088 0.0
C305 C 0.164 0.11073 0.92951 0.0
C306 C 0.1509 0.13982 0.9327 0.0
N307 N 0.15254 0.12012 0.93673 0.0
C308 C 0.218 0.11339 0.88665 0.0
C309 C 0.17699 0.10421 0.88275 0.0
C310 C 0.21109 0.0887 0.8844 0.0
N311 N 0.2009 0.1205 0.88582 0.0
C312 C 0.16941 0.07959 0.88023 0.0
C313 C 0.18648 0.07151 0.88115 0.0
H314 H 0.23683 0.12675 0.88928 0.0
H315 H 0.16372 0.11034 0.88247 0.0
C316 C 0.15613 0.1947 0.87916 0.0
N317 N 0.15755 0.17664 0.88564 0.0
C318 C 0.13319 0.19282 0.87723 0.0
C319 C 0.11364 0.15307 0.88783 0.0
C320 C 0.13686 0.15588 0.88973 0.0
C321 C 0.11174 0.17183 0.88169 0.0
H322 H 0.17275 0.21066 0.87562 0.0
H323 H 0.13839 0.1415 0.89454 0.0
O324 O 0.23932 0.1754 0.89809 0.0
O325 O 0.21637 0.20914 0.89716 0.0
O326 O 0.20472 0.17236 0.87499 0.0
O327 O 0.18364 0.15262 0.90187 0.0
H328 H 0.26989 0.20619 0.91571 0.0
H329 H 0.26552 0.17132 0.87925 0.0
H330 H 0.31568 0.2278 0.91428 0.0
H331 H 0.31138 0.19364 0.87843 0.0
H332 H 0.16949 0.24203 0.9094 0.0
H333 H 0.2335 0.24569 0.88022 0.0
H334 H 0.18234 0.21082 0.91157 0.0
H335 H 0.21977 0.27629 0.87862 0.0
H336 H 0.31088 0.27628 0.88131 0.0
H337 H 0.2752 0.23942 0.84573 0.0
H338 H 0.22365 0.16125 0.95238 0.0
H339 H 0.22176 0.22859 0.94703 0.0
H340 H 0.15954 0.14722 0.86532 0.0
H341 H 0.23334 0.15938 0.86262 0.0
H342 H 0.14669 0.11608 0.84782 0.0
H343 H 0.21918 0.12799 0.84518 0.0
H344 H 0.18381 0.11404 0.91196 0.0
H345 H 0.15989 0.16665 0.91767 0.0
H346 H 0.16502 0.09506 0.933 0.0
H347 H 0.14168 0.14687 0.93866 0.0
H348 H 0.22472 0.08308 0.88527 0.0
H349 H 0.15015 0.06682 0.87804 0.0
H350 H 0.13218 0.20752 0.87238 0.0
H351 H 0.09732 0.13659 0.89131 0.0
Li352 Li 0.80732 0.02081 0.88415 0.0
Li353 Li 0.81763 0.0248 0.9071 0.0
Li354 Li 0.84905 0.0436 0.89029 0.0
Li355 Li 0.82561 0.99826 0.89275 0.0
C356 C 0.83436 0.07622 0.89625 0.0
N357 N 0.85866 0.12704 0.89916 0.0
C358 C 0.83796 0.08675 0.90852 0.0
C359 C 0.84271 0.09159 0.88545 0.0
C360 C 0.85038 0.11246 0.90979 0.0
C361 C 0.85508 0.11721 0.88712 0.0
C362 C 0.78122 0.97478 0.90561 0.0
C363 C 0.78079 0.95153 0.92415 0.0
N364 N 0.75642 0.9351 0.92209 0.0
C365 C 0.75618 0.95765 0.90368 0.0
C366 C 0.79366 0.9717 0.91592 0.0
C367 C 0.74396 0.93772 0.91212 0.0
C368 C 0.76455 0.99382 0.87005 0.0
N369 N 0.78275 0.01738 0.87251 0.0
C370 C 0.76339 0.03343 0.85909 0.0
C371 C 0.78272 0.0371 0.86718 0.0
C372 C 0.74393 0.00928 0.85674 0.0
C373 C 0.74479 0.98932 0.86219 0.0
H374 H 0.76533 0.97854 0.87431 0.0
H375 H 0.79748 0.05563 0.86933 0.0
C376 C 0.82576 0.03757 0.93331 0.0
N377 N 0.80789 0.02667 0.9242 0.0
C378 C 0.81935 0.03631 0.94627 0.0
C379 C 0.77623 0.01306 0.94021 0.0
C380 C 0.78348 0.0152 0.92733 0.0
C381 C 0.79432 0.02336 0.94985 0.0
H382 H 0.84498 0.0467 0.93051 0.0
H383 H 0.76966 0.00681 0.91987 0.0
C384 C 0.83078 0.01986 0.86383 0.0
N385 N 0.82084 0.02359 0.83828 0.0
C386 C 0.81743 0.99858 0.85633 0.0
C387 C 0.83929 0.04304 0.85827 0.0
C388 C 0.81254 0.00083 0.84346 0.0
C389 C 0.83403 0.04455 0.84536 0.0
C390 C 0.87112 0.02587 0.90645 0.0
C391 C 0.88142 0.02044 0.89587 0.0
C392 C 0.88443 0.03397 0.91794 0.0
C393 C 0.90486 0.02322 0.89698 0.0
C394 C 0.90781 0.03649 0.91867 0.0
N395 N 0.91747 0.03112 0.90826 0.0
C396 C 0.89327 0.08896 0.89581 0.0
C397 C 0.89432 0.06846 0.87684 0.0
C398 C 0.91827 0.10666 0.8944 0.0
N399 N 0.88182 0.07037 0.88706 0.0
C400 C 0.91944 0.08544 0.8752 0.0
C401 C 0.93194 0.10475 0.88416 0.0
H402 H 0.88329 0.08952 0.90416 0.0
H403 H 0.88512 0.05293 0.87033 0.0
C404 C 0.81116 0.95048 0.8834 0.0
N405 N 0.82519 0.96755 0.89245 0.0
C406 C 0.81081 0.92809 0.88257 0.0
C407 C 0.83784 0.94045 0.90103 0.0
C408 C 0.83778 0.96262 0.90144 0.0
C409 C 0.8246 0.92304 0.89135 0.0
H410 H 0.80011 0.95418 0.87688 0.0
H411 H 0.84786 0.97586 0.90895 0.0
O412 O 0.82219 0.05105 0.89483 0.0
O413 O 0.79341 0.99432 0.89736 0.0
O414 O 0.83527 0.01806 0.87658 0.0
O415 O 0.84843 0.02388 0.90547 0.0
H416 H 0.83129 0.07525 0.91698 0.0
H417 H 0.83973 0.08388 0.87587 0.0
H418 H 0.85342 0.12082 0.91924 0.0
H419 H 0.8618 0.12929 0.87884 0.0
H420 H 0.79019 0.94896 0.93217 0.0
H421 H 0.74625 0.95976 0.89576 0.0
H422 H 0.81302 0.98476 0.9176 0.0
H423 H 0.72458 0.92433 0.91075 0.0
H424 H 0.76326 0.04924 0.85505 0.0
H425 H 0.73028 0.97042 0.86041 0.0
H426 H 0.83382 0.04434 0.95346 0.0
H427 H 0.75674 0.00306 0.94263 0.0
H428 H 0.8108 0.98049 0.86037 0.0
H429 H 0.84983 0.05971 0.86385 0.0
H430 H 0.80212 0.98449 0.83758 0.0
H431 H 0.84042 0.0624 0.84097 0.0
H432 H 0.87147 0.01418 0.88688 0.0
H433 H 0.87683 0.03829 0.92623 0.0
H434 H 0.91305 0.01912 0.88886 0.0
H435 H 0.9183 0.04274 0.92751 0.0
H436 H 0.9269 0.12125 0.90151 0.0
H437 H 0.92913 0.0826 0.86736 0.0
H438 H 0.79991 0.9149 0.87514 0.0
H439 H 0.84874 0.93731 0.908 0.0
Li440 Li 0.00368 0.81862 0.89408 0.0
Li441 Li 0.95946 0.79972 0.89228 0.0
Li442 Li 0.97846 0.7884 0.91066 0.0
Li443 Li 0.97854 0.77573 0.88798 0.0
C444 C 0.98978 0.8435 0.91145 0.0
N445 N 0.00823 0.89067 0.92121 0.0
C446 C 0.99324 0.86275 0.90336 0.0
C447 C 0.99585 0.84829 0.9245 0.0
C448 C 0.00256 0.88645 0.90848 0.0
C449 C 0.00511 0.87224 0.92925 0.0
C450 C 0.97448 0.81145 0.86809 0.0
C451 C 0.94227 0.80145 0.85252 0.0
N452 N 0.95561 0.82466 0.8476 0.0
C453 C 0.98781 0.83526 0.8629 0.0
C454 C 0.95147 0.79444 0.86288 0.0
C455 C 0.97798 0.84155 0.85253 0.0
C456 C 0.04541 0.85198 0.87948 0.0
N457 N 0.03515 0.84809 0.89142 0.0
C458 C 0.06891 0.88647 0.89887 0.0
C459 C 0.04693 0.86437 0.90118 0.0
C460 C 0.07916 0.89174 0.88642 0.0
C461 C 0.06744 0.87383 0.87674 0.0
H462 H 0.03625 0.83823 0.87203 0.0
H463 H 0.0392 0.86039 0.91075 0.0
C464 C 0.9099 0.78924 0.89334 0.0
N465 N 0.93295 0.80557 0.88889 0.0
C466 C 0.89068 0.79423 0.89197 0.0
C467 C 0.91915 0.83226 0.88112 0.0
C468 C 0.9378 0.82678 0.88289 0.0
C469 C 0.89532 0.81607 0.88584 0.0
H470 H 0.9066 0.77268 0.89825 0.0
H471 H 0.95626 0.83977 0.87967 0.0
C472 C 0.0309 0.8007 0.90154 0.0
N473 N 0.08185 0.82437 0.90269 0.0
C474 C 0.04436 0.79973 0.89104 0.0
C475 C 0.04334 0.81373 0.91262 0.0
C476 C 0.07011 0.81181 0.89181 0.0
C477 C 0.0691 0.82556 0.91302 0.0
C478 C 0.93692 0.74169 0.89727 0.0
C479 C 0.94273 0.72647 0.90436 0.0
C480 C 0.91907 0.7315 0.88759 0.0
C481 C 0.93071 0.70121 0.90155 0.0
C482 C 0.90745 0.70616 0.88507 0.0
N483 N 0.91348 0.69167 0.89203 0.0
C484 C 0.95996 0.78388 0.93558 0.0
C485 C 0.99183 0.77432 0.93364 0.0
C486 C 0.96054 0.78262 0.94897 0.0
N487 N 0.97606 0.78059 0.92829 0.0
C488 C 0.99312 0.77297 0.947 0.0
C489 C 0.9779 0.77799 0.95486 0.0
H490 H 0.94757 0.78875 0.931 0.0
H491 H 0.00422 0.77152 0.92755 0.0
C492 C 0.967 0.7435 0.86637 0.0
N493 N 0.97819 0.75001 0.87806 0.0
C494 C 0.96893 0.72624 0.85873 0.0
C495 C 0.99335 0.72223 0.87543 0.0
C496 C 0.99071 0.73938 0.8828 0.0
C497 C 0.98282 0.71584 0.86308 0.0
H498 H 0.95703 0.75204 0.86283 0.0
H499 H -0.00065 0.74483 0.89216 0.0
O500 O 0.98074 0.82015 0.90665 0.0
O501 O 0.98381 0.80491 0.87825 0.0
O502 O 0.00573 0.7896 0.90083 0.0
O503 O 0.94915 0.76657 0.89958 0.0
H504 H 0.98936 0.85956 0.8932 0.0
H505 H 0.99368 0.83376 0.93087 0.0
H506 H 0.00542 0.90154 0.90232 0.0
H507 H 0.0099 0.87619 0.93932 0.0
H508 H 0.92442 0.7885 0.84846 0.0
H509 H 0.00534 0.84893 0.86694 0.0
H510 H 0.9405 0.77624 0.867 0.0
H511 H 0.98808 0.85992 0.84846 0.0
H512 H 0.07722 0.89967 0.90666 0.0
H513 H 0.075 0.87682 0.86708 0.0
H514 H 0.87255 0.78139 0.89582 0.0
H515 H 0.92363 0.84957 0.87659 0.0
H516 H 0.03503 0.79001 0.88232 0.0
H517 H 0.03326 0.81517 0.92073 0.0
H518 H 0.08078 0.8113 0.88374 0.0
H519 H 0.07898 0.83584 0.9215 0.0
H520 H 0.95663 0.73415 0.91184 0.0
H521 H 0.91436 0.74307 0.88203 0.0
H522 H 0.93513 0.68921 0.90689 0.0
H523 H 0.89369 0.69802 0.87756 0.0
H524 H 0.94812 0.78611 0.95465 0.0
H525 H 0.00685 0.76943 0.9511 0.0
H526 H 0.96008 0.72153 0.84939 0.0
H527 H 0.00447 0.71496 0.87915 0.0
Li528 Li 0.86037 0.55484 0.4483 0.0
Li529 Li 0.85032 0.54153 0.42537 0.0
Li530 Li 0.81828 0.5282 0.44249 0.0
Li531 Li 0.84529 0.51174 0.4423 0.0
C532 C 0.84895 0.58647 0.43658 0.0
N533 N 0.86671 0.63664 0.43841 0.0
C534 C 0.86598 0.60266 0.42755 0.0
C535 C 0.84062 0.59573 0.44641 0.0
C536 C 0.87483 0.62799 0.42867 0.0
C537 C 0.84992 0.62117 0.44721 0.0
C538 C 0.89267 0.53432 0.43771 0.0
C539 C 0.91245 0.51278 0.42936 0.0
N540 N 0.9244 0.51638 0.44077 0.0
C541 C 0.90513 0.53782 0.44935 0.0
C542 C 0.89634 0.52173 0.42762 0.0
C543 C 0.92111 0.52861 0.4507 0.0
C544 C 0.88286 0.57831 0.47171 0.0
N545 N 0.88353 0.58123 0.45874 0.0
C546 C 0.92094 0.62026 0.46027 0.0
C547 C 0.90201 0.60168 0.45294 0.0
C548 C 0.92122 0.61744 0.47367 0.0
C549 C 0.90156 0.59629 0.47941 0.0
H550 H 0.86845 0.56151 0.47605 0.0
H551 H 0.90256 0.60314 0.44257 0.0
C552 C 0.84169 0.54593 0.39913 0.0
N553 N 0.85924 0.55009 0.40799 0.0
C554 C 0.84778 0.54954 0.38606 0.0
C555 C 0.89006 0.56259 0.39161 0.0
C556 C 0.88317 0.55884 0.40456 0.0
C557 C 0.87213 0.55742 0.38216 0.0
H558 H 0.82285 0.53914 0.40219 0.0
H559 H 0.89679 0.56229 0.41186 0.0
C560 C 0.82125 0.51916 0.46786 0.0
N561 N 0.79053 0.50815 0.48898 0.0
C562 C 0.8106 0.49583 0.47358 0.0
C563 C 0.81647 0.53695 0.47295 0.0
C564 C 0.79507 0.4906 0.48423 0.0
C565 C 0.80084 0.53101 0.48361 0.0
C566 C 0.79967 0.48667 0.42706 0.0
C567 C 0.79047 0.46844 0.43658 0.0
C568 C 0.78594 0.48307 0.41587 0.0
C569 C 0.76763 0.44692 0.43476 0.0
C570 C 0.76317 0.46128 0.41441 0.0
N571 N 0.75456 0.44381 0.4238 0.0
C572 C 0.77711 0.53456 0.43948 0.0
C573 C 0.76908 0.49971 0.45193 0.0
C574 C 0.75227 0.52804 0.44029 0.0
N575 N 0.78493 0.52027 0.44516 0.0
C576 C 0.74427 0.49265 0.45308 0.0
C577 C 0.73549 0.50668 0.44708 0.0
H578 H 0.79003 0.55069 0.43403 0.0
H579 H 0.77542 0.48825 0.4561 0.0
C580 C 0.85312 0.47798 0.45686 0.0
N581 N 0.84818 0.48338 0.44499 0.0
C582 C 0.85208 0.45551 0.45901 0.0
C583 C 0.84239 0.44543 0.43649 0.0
C584 C 0.84359 0.46803 0.4348 0.0
C585 C 0.846 0.43861 0.4488 0.0
H586 H 0.85706 0.49076 0.46474 0.0
H587 H 0.83988 0.47293 0.42544 0.0
O588 O 0.84011 0.56164 0.43566 0.0
O589 O 0.87639 0.54252 0.43635 0.0
O590 O 0.83643 0.52458 0.45739 0.0
O591 O 0.82203 0.50791 0.42864 0.0
H592 H 0.87249 0.59578 0.41983 0.0
H593 H 0.82706 0.58341 0.45331 0.0
H594 H 0.88817 0.64076 0.42181 0.0
H595 H 0.84373 0.62861 0.4548 0.0
H596 H 0.91537 0.50288 0.42166 0.0
H597 H 0.90232 0.54735 0.45729 0.0
H598 H 0.88655 0.51856 0.41861 0.0
H599 H 0.93083 0.53111 0.45967 0.0
H600 H 0.93559 0.63628 0.45542 0.0
H601 H 0.90126 0.59294 0.48964 0.0
H602 H 0.83337 0.5452 0.37907 0.0
H603 H 0.9091 0.56904 0.38901 0.0
H604 H 0.814 0.48179 0.46975 0.0
H605 H 0.82476 0.55514 0.46872 0.0
H606 H 0.78657 0.47258 0.48871 0.0
H607 H 0.79691 0.54458 0.48762 0.0
H608 H 0.80063 0.47102 0.44539 0.0
H609 H 0.79278 0.49694 0.40839 0.0
H610 H 0.76025 0.43273 0.44209 0.0
H611 H 0.75235 0.45826 0.4058 0.0
H612 H 0.74621 0.53934 0.43551 0.0
H613 H 0.73189 0.47572 0.45815 0.0
H614 H 0.85533 0.45113 0.46861 0.0
H615 H 0.83737 0.43292 0.42837 0.0
Li616 Li 0.47938 0.3212 0.43782 0.0
Li617 Li 0.45603 0.27535 0.43988 0.0
Li618 Li 0.44533 0.29669 0.42293 0.0
Li619 Li 0.4379 0.29957 0.44507 0.0
C620 C 0.49726 0.29394 0.42413 0.0
N621 N 0.53845 0.28891 0.42259 0.0
C622 C 0.51244 0.29888 0.43488 0.0
C623 C 0.50309 0.2865 0.41259 0.0
C624 C 0.53315 0.2962 0.43391 0.0
C625 C 0.52399 0.28407 0.41201 0.0
C626 C 0.4582 0.29554 0.46598 0.0
C627 C 0.43214 0.26638 0.48219 0.0
N628 N 0.43978 0.28521 0.49082 0.0
C629 C 0.4658 0.31459 0.47502 0.0
C630 C 0.44121 0.27123 0.46959 0.0
C631 C 0.45627 0.30899 0.48752 0.0
C632 C 0.51437 0.36637 0.44921 0.0
N633 N 0.51069 0.35094 0.43917 0.0
C634 C 0.5512 0.3786 0.43105 0.0
C635 C 0.52837 0.35687 0.43002 0.0
C636 C 0.55585 0.39457 0.44154 0.0
C637 C 0.53698 0.38834 0.45064 0.0
H638 H 0.49969 0.36166 0.45607 0.0
H639 H 0.52482 0.34474 0.42189 0.0
C640 C 0.44976 0.22769 0.43557 0.0
N641 N 0.46022 0.24802 0.44328 0.0
C642 C 0.45611 0.20945 0.43699 0.0
C643 C 0.48329 0.23322 0.45444 0.0
C644 C 0.47625 0.25079 0.45277 0.0
C645 C 0.4736 0.21238 0.44633 0.0
H646 H 0.43719 0.2261 0.42803 0.0
H647 H 0.48456 0.26732 0.45865 0.0
C648 C 0.46216 0.34656 0.42419 0.0
N649 N 0.48111 0.38593 0.40725 0.0
C650 C 0.45579 0.36482 0.42543 0.0
C651 C 0.47814 0.34834 0.41428 0.0
C652 C 0.46558 0.38458 0.41679 0.0
C653 C 0.48752 0.36837 0.40583 0.0
C654 C 0.39848 0.25669 0.43635 0.0
C655 C 0.38447 0.26686 0.4321 0.0
C656 C 0.3869 0.2339 0.44266 0.0
C657 C 0.35902 0.25415 0.4344 0.0
C658 C 0.36139 0.22175 0.44475 0.0
N659 N 0.34811 0.23205 0.44063 0.0
C660 C 0.44178 0.28498 0.39651 0.0
C661 C 0.42289 0.30794 0.40271 0.0
C662 C 0.43835 0.28803 0.38352 0.0
N663 N 0.4347 0.2955 0.40574 0.0
C664 C 0.41936 0.3117 0.38986 0.0
C665 C 0.42774 0.30223 0.38008 0.0
H666 H 0.45109 0.27518 0.39922 0.0
H667 H 0.41741 0.31609 0.41026 0.0
C668 C 0.42268 0.32783 0.45785 0.0
N669 N 0.41656 0.30384 0.45662 0.0
C670 C 0.4083 0.33414 0.46534 0.0
C671 C 0.38213 0.29103 0.47086 0.0
C672 C 0.3971 0.28554 0.46319 0.0
C673 C 0.38743 0.31558 0.47176 0.0
H674 H 0.4388 0.34213 0.45295 0.0
H675 H 0.39302 0.26669 0.46245 0.0
O676 O 0.47664 0.29606 0.4249 0.0
O677 O 0.46689 0.30063 0.45361 0.0
O678 O 0.45252 0.32705 0.43259 0.0
O679 O 0.42338 0.26881 0.43421 0.0
H680 H 0.5083 0.30473 0.44388 0.0
H681 H 0.49162 0.28263 0.40417 0.0
H682 H 0.54501 0.29992 0.44216 0.0
H683 H 0.5287 0.27831 0.40314 0.0
H684 H 0.4189 0.24767 0.48508 0.0
H685 H 0.47885 0.3335 0.47243 0.0
H686 H 0.43477 0.2563 0.46267 0.0
H687 H 0.46196 0.32356 0.49461 0.0
H688 H 0.56524 0.38253 0.42386 0.0
H689 H 0.53963 0.40033 0.45875 0.0
H690 H 0.4479 0.19359 0.43061 0.0
H691 H 0.49721 0.23673 0.46159 0.0
H692 H 0.4433 0.36371 0.43295 0.0
H693 H 0.48313 0.33436 0.41301 0.0
H694 H 0.46079 0.39882 0.41766 0.0
H695 H 0.49986 0.36992 0.39812 0.0
H696 H 0.39322 0.28452 0.42723 0.0
H697 H 0.39754 0.22578 0.44595 0.0
H698 H 0.34795 0.26187 0.43126 0.0
H699 H 0.35217 0.20414 0.44967 0.0
H700 H 0.44519 0.28056 0.37625 0.0
H701 H 0.41086 0.32253 0.38758 0.0
H702 H 0.41349 0.35339 0.46609 0.0
H703 H 0.36631 0.27621 0.47575 0.0
Li704 Li 0.6612 0.1476 0.44002 0.0
Li705 Li 0.70658 0.17475 0.44 0.0
Li706 Li 0.68589 0.14394 0.42269 0.0
Li707 Li 0.6897 0.1321 0.4446 0.0
C708 C 0.68073 0.18298 0.4162 0.0
N709 N 0.67812 0.20334 0.39316 0.0
C710 C 0.70132 0.20452 0.4116 0.0
C711 C 0.65874 0.17192 0.40916 0.0
C712 C 0.69964 0.21451 0.39992 0.0
C713 C 0.65783 0.18245 0.3975 0.0
C714 C 0.69334 0.1728 0.46428 0.0
C715 C 0.72527 0.19749 0.47964 0.0
N716 N 0.71267 0.20898 0.48308 0.0
C717 C 0.6806 0.1847 0.46804 0.0
C718 C 0.71575 0.17907 0.47018 0.0
C719 C 0.69072 0.203 0.47754 0.0
C720 C 0.61048 0.12759 0.44864 0.0
N721 N 0.63115 0.14722 0.44358 0.0
C722 C 0.61079 0.17056 0.44226 0.0
C723 C 0.63172 0.16855 0.44056 0.0
C724 C 0.58901 0.1503 0.44697 0.0
C725 C 0.58886 0.12859 0.45021 0.0
H726 H 0.61064 0.11112 0.45139 0.0
H727 H 0.6485 0.18407 0.43681 0.0
C728 C 0.75588 0.2156 0.44345 0.0
N729 N 0.73135 0.20786 0.44353 0.0
C730 C 0.77331 0.24042 0.44592 0.0
C731 C 0.73975 0.24847 0.44864 0.0
C732 C 0.72309 0.2237 0.44595 0.0
C733 C 0.76522 0.25713 0.44861 0.0
H734 H 0.7619 0.20258 0.44138 0.0
H735 H 0.70347 0.21704 0.44572 0.0
C736 C 0.63633 0.09843 0.4336 0.0
N737 N 0.5877 0.06034 0.43445 0.0
C738 C 0.62862 0.08015 0.44304 0.0
C739 C 0.61933 0.09729 0.42456 0.0
C740 C 0.60395 0.06104 0.44331 0.0
C741 C 0.59482 0.07791 0.42517 0.0
C742 C 0.73158 0.14275 0.43272 0.0
C743 C 0.73128 0.12753 0.42278 0.0
C744 C 0.7468 0.14734 0.4434 0.0
C745 C 0.74604 0.11685 0.42378 0.0
C746 C 0.76125 0.13627 0.44405 0.0
N747 N 0.76056 0.12137 0.43431 0.0
C748 C 0.69973 0.15397 0.39625 0.0
C749 C 0.66715 0.11346 0.40098 0.0
C750 C 0.69626 0.1491 0.38305 0.0
N751 N 0.68466 0.13648 0.40486 0.0
C752 C 0.66303 0.10778 0.38791 0.0
C753 C 0.67725 0.12592 0.37875 0.0
H754 H 0.71392 0.17195 0.39961 0.0
H755 H 0.65598 0.09962 0.40803 0.0
C756 C 0.69168 0.10891 0.46729 0.0
N757 N 0.69256 0.10817 0.45425 0.0
C758 C 0.69074 0.08987 0.47461 0.0
C759 C 0.6927 0.07023 0.45493 0.0
C760 C 0.69318 0.08944 0.44799 0.0
C761 C 0.69081 0.06992 0.46844 0.0
H762 H 0.69066 0.12375 0.47199 0.0
H763 H 0.69325 0.08903 0.43759 0.0
O764 O 0.6821 0.17277 0.42753 0.0
O765 O 0.68401 0.15521 0.4548 0.0
O766 O 0.66043 0.11721 0.43313 0.0
O767 O 0.71714 0.15322 0.43195 0.0
H768 H 0.71847 0.21329 0.41694 0.0
H769 H 0.64262 0.15532 0.41263 0.0
H770 H 0.71546 0.2311 0.3962 0.0
H771 H 0.64098 0.17401 0.39191 0.0
H772 H 0.74269 0.20268 0.48421 0.0
H773 H 0.6632 0.18 0.4636 0.0
H774 H 0.7258 0.16999 0.4674 0.0
H775 H 0.68114 0.21247 0.4805 0.0
H776 H 0.61146 0.18761 0.43971 0.0
H777 H 0.57233 0.11275 0.454 0.0
H778 H 0.79282 0.24646 0.44579 0.0
H779 H 0.73278 0.26085 0.4504 0.0
H780 H 0.64149 0.08074 0.45012 0.0
H781 H 0.62498 0.11129 0.4172 0.0
H782 H 0.59771 0.0468 0.45057 0.0
H783 H 0.58145 0.07685 0.41827 0.0
H784 H 0.71965 0.12387 0.41443 0.0
H785 H 0.74729 0.15914 0.45114 0.0
H786 H 0.74591 0.10492 0.4162 0.0
H787 H 0.77299 0.13951 0.4523 0.0
H788 H 0.70765 0.16362 0.37631 0.0
H789 H 0.64861 0.08948 0.38501 0.0
H790 H 0.68874 0.09027 0.48495 0.0
H791 H 0.69312 0.05548 0.44973 0.0
Li792 Li 0.88771 0.532 0.2215 0.0
Li793 Li 0.87574 0.52032 0.24463 0.0
Li794 Li 0.86238 0.48837 0.22657 0.0
Li795 Li 0.84548 0.51511 0.22855 0.0
C796 C 0.92084 0.52006 0.23233 0.0
N797 N 0.97082 0.53678 0.23078 0.0
C798 C 0.93713 0.53718 0.2413 0.0
C799 C 0.92989 0.51109 0.22272 0.0
C800 C 0.96237 0.54551 0.24032 0.0
C801 C 0.95524 0.51987 0.22206 0.0
C802 C 0.86609 0.56192 0.23423 0.0
C803 C 0.84519 0.58051 0.24475 0.0
N804 N 0.84587 0.59201 0.23356 0.0
C805 C 0.86665 0.57397 0.22284 0.0
C806 C 0.85533 0.56522 0.24529 0.0
C807 C 0.8563 0.5891 0.22269 0.0
C808 C 0.90712 0.55793 0.19836 0.0
N809 N 0.91273 0.55654 0.21084 0.0
C810 C 0.95195 0.5936 0.20861 0.0
C811 C 0.93458 0.5739 0.21606 0.0
C812 C 0.94653 0.59566 0.19572 0.0
C813 C 0.92388 0.5773 0.19058 0.0
H814 H 0.88918 0.54463 0.19458 0.0
H815 H 0.93817 0.57304 0.22614 0.0
C816 C 0.87923 0.50988 0.27067 0.0
N817 N 0.88496 0.52819 0.26201 0.0
C818 C 0.88291 0.51536 0.2838 0.0
C819 C 0.89924 0.55851 0.27873 0.0
C820 C 0.89537 0.55221 0.26571 0.0
C821 C 0.89245 0.53987 0.28797 0.0
H822 H 0.87087 0.49093 0.2674 0.0
H823 H 0.89988 0.56637 0.25856 0.0
C824 C 0.85532 0.49499 0.20141 0.0
N825 N 0.85128 0.46986 0.1788 0.0
C826 C 0.83279 0.48272 0.19486 0.0
C827 C 0.8758 0.49455 0.19644 0.0
C828 C 0.83112 0.47009 0.18345 0.0
C829 C 0.87339 0.48174 0.185 0.0
C830 C 0.81912 0.47591 0.24498 0.0
C831 C 0.80092 0.46238 0.2358 0.0
C832 C 0.81248 0.47474 0.25793 0.0
C833 C 0.77633 0.44783 0.23973 0.0
C834 C 0.78769 0.45993 0.26148 0.0
N835 N 0.77029 0.4469 0.25239 0.0
C836 C 0.87058 0.4478 0.22721 0.0
C837 C 0.83465 0.4404 0.21601 0.0
C838 C 0.86472 0.42338 0.22511 0.0
N839 N 0.85546 0.45573 0.22273 0.0
C840 C 0.82819 0.41601 0.21363 0.0
C841 C 0.84314 0.40709 0.2183 0.0
H842 H 0.88693 0.46031 0.23263 0.0
H843 H 0.8227 0.44688 0.2127 0.0
C844 C 0.80985 0.51977 0.21429 0.0
N845 N 0.81637 0.51721 0.22639 0.0
C846 C 0.78759 0.51911 0.21216 0.0
C847 C 0.77982 0.51454 0.23508 0.0
C848 C 0.80234 0.51556 0.23676 0.0
C849 C 0.77184 0.51571 0.22261 0.0
H850 H 0.82177 0.5219 0.20626 0.0
H851 H 0.80828 0.51429 0.24633 0.0
O852 O 0.89606 0.51159 0.2332 0.0
O853 O 0.8755 0.5465 0.23445 0.0
O854 O 0.85723 0.50717 0.21269 0.0
O855 O 0.84327 0.49052 0.24132 0.0
H856 H 0.93041 0.54415 0.24887 0.0
H857 H 0.91747 0.49733 0.21591 0.0
H858 H 0.97522 0.55891 0.24713 0.0
H859 H 0.96252 0.51316 0.21464 0.0
H860 H 0.83667 0.58312 0.25321 0.0
H861 H 0.87477 0.57145 0.21417 0.0
H862 H 0.85447 0.55577 0.25414 0.0
H863 H 0.8565 0.59845 0.21393 0.0
H864 H 0.96914 0.60738 0.21298 0.0
H865 H 0.91857 0.57851 0.18082 0.0
H866 H 0.87721 0.50042 0.29063 0.0
H867 H 0.90694 0.57766 0.28155 0.0
H868 H 0.81667 0.48262 0.19863 0.0
H869 H 0.89338 0.50412 0.20133 0.0
H870 H 0.81377 0.4604 0.17832 0.0
H871 H 0.88911 0.48125 0.18105 0.0
H872 H 0.80562 0.4637 0.2257 0.0
H873 H 0.82629 0.48526 0.26515 0.0
H874 H 0.76204 0.43741 0.23271 0.0
H875 H 0.78229 0.45886 0.27147 0.0
H876 H 0.87678 0.41726 0.22886 0.0
H877 H 0.81109 0.40403 0.2086 0.0
H878 H 0.78255 0.52075 0.20241 0.0
H879 H 0.76836 0.51176 0.24344 0.0
Li880 Li 0.4659 0.36091 0.22104 0.0
Li881 Li 0.47525 0.35706 0.24404 0.0
Li882 Li 0.50806 0.37579 0.22669 0.0
Li883 Li 0.47928 0.33209 0.22699 0.0
C884 C 0.47788 0.40383 0.23289 0.0
N885 N 0.45965 0.43554 0.23101 0.0
C886 C 0.46132 0.40318 0.24213 0.0
C887 C 0.48547 0.42086 0.22282 0.0
C888 C 0.45224 0.41931 0.24098 0.0
C889 C 0.47595 0.43665 0.222 0.0
C890 C 0.43191 0.30785 0.23158 0.0
C891 C 0.41045 0.26643 0.24011 0.0
N892 N 0.39876 0.25792 0.22862 0.0
C893 C 0.41969 0.29873 0.21987 0.0
C894 C 0.42727 0.29162 0.2418 0.0
C895 C 0.40299 0.27341 0.21856 0.0
C896 C 0.444 0.36231 0.19762 0.0
N897 N 0.4432 0.36447 0.21061 0.0
C898 C 0.40584 0.36558 0.20908 0.0
C899 C 0.42471 0.3662 0.21641 0.0
C900 C 0.40563 0.36244 0.19566 0.0
C901 C 0.42536 0.36131 0.18992 0.0
H902 H 0.45841 0.36009 0.19328 0.0
H903 H 0.42405 0.36703 0.22679 0.0
C904 C 0.48393 0.36771 0.27066 0.0
N905 N 0.46632 0.35642 0.26146 0.0
C906 C 0.47732 0.36414 0.28367 0.0
C907 C 0.43455 0.33831 0.27739 0.0
C908 C 0.44196 0.34249 0.26453 0.0
C909 C 0.4524 0.34872 0.28715 0.0
H910 H 0.50316 0.37871 0.26789 0.0
H911 H 0.42836 0.33394 0.25698 0.0
C912 C 0.50511 0.36369 0.20169 0.0
N913 N 0.5378 0.3838 0.18132 0.0
C914 C 0.51607 0.35103 0.19641 0.0
C915 C 0.5106 0.38645 0.19652 0.0
C916 C 0.53259 0.36154 0.18613 0.0
C917 C 0.52723 0.39634 0.18625 0.0
C918 C 0.51981 0.34463 0.24353 0.0
C919 C 0.53067 0.33791 0.23378 0.0
C920 C 0.5252 0.34293 0.2564 0.0
C921 C 0.54702 0.3299 0.23705 0.0
C922 C 0.54166 0.33484 0.25928 0.0
N923 N 0.55215 0.32856 0.24963 0.0
C924 C 0.54973 0.42461 0.22761 0.0
C925 C 0.55731 0.39486 0.21794 0.0
C926 C 0.57443 0.44309 0.22578 0.0
N927 N 0.54171 0.401 0.22373 0.0
C928 C 0.58194 0.41268 0.21581 0.0
C929 C 0.59086 0.43715 0.21979 0.0
H930 H 0.537 0.42903 0.23225 0.0
H931 H 0.55079 0.37609 0.21501 0.0
C932 C 0.47074 0.29083 0.21183 0.0
N933 N 0.47489 0.3001 0.224 0.0
C934 C 0.47064 0.26894 0.20921 0.0
C935 C 0.47747 0.2658 0.23184 0.0
C936 C 0.47722 0.28759 0.23402 0.0
C937 C 0.4749 0.25655 0.21923 0.0
H938 H 0.46829 0.30087 0.2041 0.0
H939 H 0.47993 0.2951 0.24365 0.0
O940 O 0.48681 0.38806 0.2338 0.0
O941 O 0.44887 0.33245 0.23292 0.0
O942 O 0.48906 0.35384 0.21184 0.0
O943 O 0.50314 0.35179 0.24057 0.0
H944 H 0.45535 0.39021 0.25003 0.0
H945 H 0.49861 0.4219 0.21572 0.0
H946 H 0.43927 0.41889 0.248 0.0
H947 H 0.48157 0.44983 0.21421 0.0
H948 H 0.40677 0.25362 0.2479 0.0
H949 H 0.42324 0.31104 0.21184 0.0
H950 H 0.43685 0.29836 0.25087 0.0
H951 H 0.39345 0.26605 0.20954 0.0
H952 H 0.39115 0.3667 0.21393 0.0
H953 H 0.42574 0.35828 0.17968 0.0
H954 H 0.49167 0.37237 0.29091 0.0
H955 H 0.41512 0.3266 0.27968 0.0
H956 H 0.51216 0.33346 0.2003 0.0
H957 H 0.50215 0.39638 0.20042 0.0
H958 H 0.54134 0.35203 0.18202 0.0
H959 H 0.53172 0.414 0.18221 0.0
H960 H 0.52593 0.33814 0.22381 0.0
H961 H 0.51666 0.34765 0.26408 0.0
H962 H 0.55545 0.32453 0.22959 0.0
H963 H 0.54601 0.33346 0.2692 0.0
H964 H 0.58061 0.46177 0.229 0.0
H965 H 0.59405 0.40715 0.2114 0.0
H966 H 0.46798 0.26222 0.1994 0.0
H967 H 0.481 0.25711 0.23988 0.0
Li968 Li 0.61721 0.13799 0.22325 0.0
Li969 Li 0.66089 0.15401 0.22434 0.0
Li970 Li 0.63267 0.11138 0.21795 0.0
Li971 Li 0.63476 0.12419 0.24094 0.0
C972 C 0.63093 0.14819 0.19857 0.0
N973 N 0.61199 0.16116 0.17805 0.0
C974 C 0.644 0.1721 0.19352 0.0
C975 C 0.60837 0.13081 0.19309 0.0
C976 C 0.63408 0.17832 0.18316 0.0
C977 C 0.59907 0.13774 0.18275 0.0
C978 C 0.64587 0.18115 0.24021 0.0
C979 C 0.65186 0.21264 0.25557 0.0
N980 N 0.65904 0.22937 0.24585 0.0
C981 C 0.65349 0.1987 0.2304 0.0
C982 C 0.64521 0.18819 0.25292 0.0
C983 C 0.66 0.22296 0.23343 0.0
C984 C 0.56821 0.12914 0.22338 0.0
N985 N 0.59188 0.14564 0.21986 0.0
C986 C 0.5797 0.17364 0.21212 0.0
C987 C 0.5978 0.16752 0.21429 0.0
C988 C 0.55515 0.15719 0.2158 0.0
C989 C 0.54944 0.13459 0.22146 0.0
H990 H 0.56395 0.11187 0.22784 0.0
H991 H 0.61662 0.18044 0.2116 0.0
C992 C 0.70366 0.1879 0.21025 0.0
N993 N 0.69301 0.18221 0.2221 0.0
C994 C 0.72602 0.20993 0.20833 0.0
C995 C 0.7266 0.21905 0.231 0.0
C996 C 0.70438 0.1968 0.23248 0.0
C997 C 0.73745 0.22622 0.21873 0.0
H998 H 0.69445 0.17562 0.20222 0.0
H999 H 0.69571 0.19157 0.24186 0.0
C1000 C 0.58942 0.07918 0.22898 0.0
N1001 N 0.55898 0.02861 0.22655 0.0
C1002 C 0.58984 0.06338 0.23829 0.0
C1003 C 0.57327 0.06931 0.21855 0.0
C1004 C 0.57436 0.03785 0.23686 0.0
C1005 C 0.5581 0.04368 0.21746 0.0
C1006 C 0.6849 0.1311 0.22935 0.0
C1007 C 0.69453 0.12831 0.21774 0.0
C1008 C 0.70063 0.14261 0.2398 0.0
C1009 C 0.71987 0.13715 0.21677 0.0
C1010 C 0.72586 0.15121 0.23844 0.0
N1011 N 0.73488 0.14834 0.22705 0.0
C1012 C 0.6326 0.08837 0.19458 0.0
C1013 C 0.62894 0.06546 0.21338 0.0
C1014 C 0.63467 0.0712 0.18693 0.0
N1015 N 0.63012 0.08536 0.20755 0.0
C1016 C 0.63062 0.04766 0.20609 0.0
C1017 C 0.63425 0.05077 0.19271 0.0
H1018 H 0.63433 0.10477 0.19023 0.0
H1019 H 0.62779 0.06395 0.22375 0.0
C1020 C 0.6221 0.12202 0.26718 0.0
N1021 N 0.63421 0.11591 0.25841 0.0
C1022 C 0.62459 0.11915 0.28031 0.0
C1023 C 0.65101 0.10269 0.27502 0.0
C1024 C 0.64797 0.10584 0.26201 0.0
C1025 C 0.63971 0.10993 0.28437 0.0
H1026 H 0.61126 0.12996 0.26398 0.0
H1027 H 0.65721 0.10098 0.25477 0.0
O1028 O 0.64022 0.14179 0.20879 0.0
O1029 O 0.64027 0.15749 0.23753 0.0
O1030 O 0.60459 0.10421 0.23016 0.0
O1031 O 0.66028 0.12323 0.23037 0.0
H1032 H 0.66147 0.18583 0.19762 0.0
H1033 H 0.59814 0.1122 0.19681 0.0
H1034 H 0.64391 0.1968 0.17921 0.0
H1035 H 0.58156 0.1245 0.17846 0.0
H1036 H 0.65142 0.21833 0.26536 0.0
H1037 H 0.65495 0.19379 0.22059 0.0
H1038 H 0.63979 0.17498 0.26068 0.0
H1039 H 0.666 0.23673 0.22592 0.0
H1040 H 0.58509 0.19148 0.20797 0.0
H1041 H 0.53073 0.12135 0.22441 0.0
H1042 H 0.73394 0.2144 0.19875 0.0
H1043 H 0.73448 0.231 0.2393 0.0
H1044 H 0.60214 0.07071 0.24646 0.0
H1045 H 0.57242 0.08128 0.21138 0.0
H1046 H 0.57461 0.02539 0.24394 0.0
H1047 H 0.54561 0.03577 0.20939 0.0
H1048 H 0.68262 0.11963 0.20953 0.0
H1049 H 0.69349 0.14519 0.24881 0.0
H1050 H 0.72762 0.13521 0.20782 0.0
H1051 H 0.73829 0.16028 0.24642 0.0
H1052 H 0.63802 0.07475 0.17672 0.0
H1053 H 0.62999 0.03214 0.21096 0.0
H1054 H 0.6157 0.12513 0.28721 0.0
H1055 H 0.66249 0.09514 0.27774 0.0
Li1056 Li 0.51807 0.87377 0.75285 0.0
Li1057 Li 0.53146 0.88832 0.77479 0.0
Li1058 Li 0.50702 0.84343 0.77 0.0
Li1059 Li 0.4878 0.8688 0.76948 0.0
C1060 C 0.56042 0.86934 0.7584 0.0
N1061 N 0.60152 0.87195 0.747 0.0
C1062 C 0.58362 0.89069 0.7597 0.0
C1063 C 0.55821 0.84918 0.75147 0.0
C1064 C 0.60416 0.89169 0.75382 0.0
C1065 C 0.57918 0.8509 0.74573 0.0
C1066 C 0.51453 0.91985 0.76756 0.0
C1067 C 0.50999 0.94075 0.78598 0.0
N1068 N 0.51201 0.95897 0.77813 0.0
C1069 C 0.51657 0.93878 0.75968 0.0
C1070 C 0.51122 0.92082 0.78083 0.0
C1071 C 0.51524 0.95841 0.7652 0.0
C1072 C 0.50713 0.87086 0.72652 0.0
N1073 N 0.52617 0.87967 0.73503 0.0
C1074 C 0.55551 0.89312 0.71781 0.0
C1075 C 0.55006 0.89138 0.73094 0.0
C1076 C 0.53617 0.88328 0.70884 0.0
C1077 C 0.51173 0.87252 0.7133 0.0
H1078 H 0.4883 0.86197 0.73002 0.0
H1079 H 0.56493 0.89909 0.73783 0.0
C1080 C 0.56133 0.90212 0.79608 0.0
N1081 N 0.55753 0.91152 0.78517 0.0
C1082 C 0.58046 0.9173 0.80438 0.0
C1083 C 0.59173 0.95163 0.78997 0.0
C1084 C 0.57216 0.93573 0.78195 0.0
C1085 C 0.59599 0.94239 0.80136 0.0
H1086 H 0.54966 0.88267 0.7982 0.0
H1087 H 0.56881 0.94258 0.7731 0.0
C1088 C 0.4735 0.82277 0.74983 0.0
N1089 N 0.44973 0.77851 0.7365 0.0
C1090 C 0.448 0.80692 0.75122 0.0
C1091 C 0.48683 0.81621 0.74155 0.0
C1092 C 0.43635 0.78459 0.74443 0.0
C1093 C 0.4745 0.79374 0.73492 0.0
C1094 C 0.48609 0.84592 0.79334 0.0
C1095 C 0.46282 0.82715 0.78931 0.0
C1096 C 0.49204 0.84847 0.80643 0.0
C1097 C 0.44589 0.81114 0.79842 0.0
C1098 C 0.47463 0.83207 0.81525 0.0
N1099 N 0.4521 0.8139 0.8111 0.0
C1100 C 0.52382 0.81112 0.77715 0.0
C1101 C 0.48042 0.79142 0.77444 0.0
C1102 C 0.52202 0.7885 0.77992 0.0
N1103 N 0.50321 0.81212 0.77429 0.0
C1104 C 0.47773 0.76854 0.77735 0.0
C1105 C 0.49871 0.76687 0.78003 0.0
H1106 H 0.54169 0.82789 0.7772 0.0
H1107 H 0.46426 0.79253 0.77225 0.0
C1108 C 0.44069 0.85882 0.76278 0.0
N1109 N 0.45729 0.86742 0.77257 0.0
C1110 C 0.41592 0.851 0.76517 0.0
C1111 C 0.42627 0.86309 0.78745 0.0
C1112 C 0.45088 0.87074 0.78461 0.0
C1113 C 0.40826 0.85206 0.77778 0.0
H1114 H 0.44636 0.85633 0.75332 0.0
H1115 H 0.46445 0.87758 0.79224 0.0
O1116 O 0.54014 0.86805 0.76413 0.0
O1117 O 0.51583 0.90057 0.76224 0.0
O1118 O 0.48525 0.8446 0.75651 0.0
O1119 O 0.5029 0.86202 0.78461 0.0
H1120 H 0.58573 0.90641 0.7651 0.0
H1121 H 0.54056 0.83228 0.75062 0.0
H1122 H 0.62219 0.90816 0.75468 0.0
H1123 H 0.5777 0.83546 0.74031 0.0
H1124 H 0.50745 0.94173 0.79623 0.0
H1125 H 0.51915 0.9383 0.74939 0.0
H1126 H 0.50971 0.90643 0.78711 0.0
H1127 H 0.51679 0.97319 0.75921 0.0
H1128 H 0.57461 0.90196 0.71471 0.0
H1129 H 0.49632 0.86468 0.70666 0.0
H1130 H 0.58347 0.90929 0.81291 0.0
H1131 H 0.60335 0.97086 0.78731 0.0
H1132 H 0.43734 0.81164 0.75758 0.0
H1133 H 0.50645 0.82841 0.74019 0.0
H1134 H 0.41666 0.77208 0.74549 0.0
H1135 H 0.48463 0.78843 0.7285 0.0
H1136 H 0.45778 0.8251 0.77926 0.0
H1137 H 0.50989 0.86303 0.80975 0.0
H1138 H 0.4278 0.79657 0.79542 0.0
H1139 H 0.47901 0.83383 0.82541 0.0
H1140 H 0.5386 0.78792 0.78203 0.0
H1141 H 0.45945 0.75222 0.77722 0.0
H1142 H 0.40268 0.84243 0.75744 0.0
H1143 H 0.42118 0.86452 0.79725 0.0
Li1144 Li 0.15456 0.6524 0.77647 0.0
Li1145 Li 0.13072 0.60556 0.77825 0.0
Li1146 Li 0.12304 0.62812 0.75992 0.0
Li1147 Li 0.11177 0.62989 0.78171 0.0
C1148 C 0.1757 0.63223 0.75912 0.0
N1149 N 0.22051 0.64181 0.74895 0.0
C1150 C 0.18911 0.62277 0.76503 0.0
C1151 C 0.18497 0.64627 0.74789 0.0
C1152 C 0.21175 0.6279 0.75979 0.0
C1153 C 0.20768 0.65099 0.74294 0.0
C1154 C 0.13256 0.63245 0.80386 0.0
C1155 C 0.11133 0.61298 0.82358 0.0
N1156 N 0.11718 0.6355 0.82838 0.0
C1157 C 0.13855 0.65542 0.80901 0.0
C1158 C 0.11897 0.61105 0.8112 0.0
C1159 C 0.13052 0.65656 0.82142 0.0
C1160 C 0.18721 0.7037 0.78074 0.0
N1161 N 0.18571 0.68133 0.77996 0.0
C1162 C 0.2291 0.70015 0.78366 0.0
C1163 C 0.20593 0.67915 0.78175 0.0
C1164 C 0.23142 0.72361 0.78384 0.0
C1165 C 0.21005 0.72523 0.78252 0.0
H1166 H 0.17071 0.70489 0.77983 0.0
H1167 H 0.20413 0.66113 0.78165 0.0
C1168 C 0.12306 0.55764 0.77466 0.0
N1169 N 0.13406 0.57809 0.78226 0.0
C1170 C 0.12912 0.53921 0.77599 0.0
C1171 C 0.15689 0.56287 0.79329 0.0
C1172 C 0.14999 0.58061 0.79175 0.0
C1173 C 0.14705 0.54217 0.78506 0.0
H1174 H 0.11045 0.55621 0.76717 0.0
H1175 H 0.15863 0.59726 0.79754 0.0
C1176 C 0.13444 0.67659 0.76104 0.0
N1177 N 0.1463 0.71379 0.74333 0.0
C1178 C 0.11846 0.68566 0.75905 0.0
C1179 C 0.15642 0.68647 0.754 0.0
C1180 C 0.12479 0.70446 0.75006 0.0
C1181 C 0.16212 0.70527 0.74511 0.0
C1182 C 0.07433 0.58732 0.77276 0.0
C1183 C 0.06002 0.59672 0.76792 0.0
C1184 C 0.06306 0.56524 0.77971 0.0
C1185 C 0.0346 0.58399 0.77031 0.0
C1186 C 0.03757 0.55303 0.78186 0.0
N1187 N 0.02399 0.5626 0.77717 0.0
C1188 C 0.12658 0.61867 0.7337 0.0
C1189 C 0.10206 0.63674 0.73789 0.0
C1190 C 0.12539 0.62176 0.72048 0.0
N1191 N 0.11584 0.62706 0.74209 0.0
C1192 C 0.10048 0.64031 0.72475 0.0
C1193 C 0.11293 0.63351 0.71588 0.0
H1194 H 0.13691 0.61047 0.73731 0.0
H1195 H 0.09317 0.64268 0.74475 0.0
C1196 C 0.0909 0.65589 0.79181 0.0
N1197 N 0.08827 0.63306 0.79211 0.0
C1198 C 0.07511 0.66091 0.79888 0.0
C1199 C 0.05461 0.61908 0.80699 0.0
C1200 C 0.07081 0.6148 0.79966 0.0
C1201 C 0.05653 0.64235 0.80651 0.0
H1202 H 0.1056 0.67041 0.78625 0.0
H1203 H 0.06959 0.59704 0.8001 0.0
O1204 O 0.15331 0.6271 0.76407 0.0
O1205 O 0.13973 0.63088 0.79164 0.0
O1206 O 0.12817 0.65768 0.76956 0.0
O1207 O 0.09922 0.5995 0.77056 0.0
H1208 H 0.18232 0.61184 0.77367 0.0
H1209 H 0.17472 0.65328 0.74293 0.0
H1210 H 0.22237 0.62083 0.76435 0.0
H1211 H 0.21505 0.66187 0.73428 0.0
H1212 H 0.10066 0.59657 0.82935 0.0
H1213 H 0.14902 0.67213 0.80341 0.0
H1214 H 0.11413 0.59313 0.8073 0.0
H1215 H 0.13484 0.67419 0.82551 0.0
H1216 H 0.24512 0.69807 0.78465 0.0
H1217 H 0.21099 0.74293 0.78287 0.0
H1218 H 0.1206 0.52336 0.76962 0.0
H1219 H 0.17101 0.56628 0.80029 0.0
H1220 H 0.10113 0.67798 0.76422 0.0
H1221 H 0.16907 0.67987 0.75548 0.0
H1222 H 0.11253 0.71155 0.74839 0.0
H1223 H 0.17912 0.71308 0.73963 0.0
H1224 H 0.06852 0.61381 0.76253 0.0
H1225 H 0.07393 0.55772 0.78348 0.0
H1226 H 0.0233 0.59114 0.76672 0.0
H1227 H 0.02859 0.53598 0.78728 0.0
H1228 H 0.13471 0.61562 0.71396 0.0
H1229 H 0.09065 0.64943 0.72167 0.0
H1230 H 0.07775 0.67935 0.79856 0.0
H1231 H 0.04067 0.60436 0.81287 0.0
Li1232 Li 0.33805 0.48213 0.77178 0.0
Li1233 Li 0.38267 0.50739 0.77228 0.0
Li1234 Li 0.36144 0.47594 0.75499 0.0
Li1235 Li 0.3622 0.46393 0.77783 0.0
C1236 C 0.35294 0.51915 0.75137 0.0
N1237 N 0.33941 0.54631 0.73609 0.0
C1238 C 0.3601 0.5435 0.75469 0.0
C1239 C 0.33912 0.50877 0.74017 0.0
C1240 C 0.353 0.55688 0.74687 0.0
C1241 C 0.33239 0.52275 0.73261 0.0
C1242 C 0.35969 0.50708 0.79532 0.0
C1243 C 0.3646 0.52408 0.8167 0.0
N1244 N 0.36013 0.54165 0.81204 0.0
C1245 C 0.35513 0.52528 0.79075 0.0
C1246 C 0.36445 0.50643 0.8084 0.0
C1247 C 0.35542 0.54259 0.79934 0.0
C1248 C 0.29828 0.47818 0.78726 0.0
N1249 N 0.30724 0.48106 0.77504 0.0
C1250 C 0.27245 0.48246 0.76688 0.0
C1251 C 0.29448 0.48263 0.76492 0.0
C1252 C 0.26321 0.48049 0.77942 0.0
C1253 C 0.2763 0.47806 0.7897 0.0
H1254 H 0.30821 0.47605 0.79515 0.0
H1255 H 0.30118 0.48372 0.75526 0.0
C1256 C 0.41843 0.55553 0.76537 0.0
N1257 N 0.40977 0.53966 0.77548 0.0
C1258 C 0.43529 0.58057 0.76741 0.0
C1259 C 0.4354 0.5721 0.79009 0.0
C1260 C 0.41856 0.5472 0.7876 0.0
C1261 C 0.44333 0.58927 0.77997 0.0
H1262 H 0.41123 0.54894 0.75582 0.0
H1263 H 0.41178 0.53413 0.79544 0.0
C1264 C 0.30918 0.43561 0.76608 0.0
N1265 N 0.25826 0.40751 0.76755 0.0
C1266 C 0.29771 0.42379 0.77758 0.0
C1267 C 0.29478 0.43306 0.75531 0.0
C1268 C 0.27193 0.40969 0.77813 0.0
C1269 C 0.26905 0.41878 0.75625 0.0
C1270 C 0.41255 0.48671 0.77112 0.0
C1271 C 0.43107 0.48709 0.76346 0.0
C1272 C 0.41622 0.49071 0.78438 0.0
C1273 C 0.45303 0.49147 0.7692 0.0
C1274 C 0.43842 0.49503 0.78976 0.0
N1275 N 0.45622 0.49532 0.78213 0.0
C1276 C 0.3753 0.48769 0.72914 0.0
C1277 C 0.34558 0.44556 0.73293 0.0
C1278 C 0.37176 0.48415 0.71587 0.0
N1279 N 0.3616 0.4687 0.73732 0.0
C1280 C 0.34148 0.44117 0.71973 0.0
C1281 C 0.35402 0.46084 0.71105 0.0
H1282 H 0.38783 0.50592 0.73295 0.0
H1283 H 0.33496 0.43083 0.7397 0.0
C1284 C 0.35315 0.43752 0.80051 0.0
N1285 N 0.36326 0.44042 0.78861 0.0
C1286 C 0.35257 0.42005 0.80893 0.0
C1287 C 0.37325 0.40912 0.79277 0.0
C1288 C 0.37336 0.42683 0.78462 0.0
C1289 C 0.36258 0.40543 0.80509 0.0
H1290 H 0.34508 0.44849 0.80334 0.0
H1291 H 0.38132 0.42964 0.77508 0.0
O1292 O 0.36036 0.50599 0.75871 0.0
O1293 O 0.35998 0.49019 0.78705 0.0
O1294 O 0.33436 0.45007 0.76547 0.0
O1295 O 0.39097 0.48243 0.7656 0.0
H1296 H 0.37116 0.55211 0.76316 0.0
H1297 H 0.33319 0.48992 0.73747 0.0
H1298 H 0.35839 0.57571 0.74935 0.0
H1299 H 0.32155 0.51483 0.72399 0.0
H1300 H 0.36833 0.52384 0.82684 0.0
H1301 H 0.3512 0.52589 0.78071 0.0
H1302 H 0.3682 0.49256 0.81208 0.0
H1303 H 0.35188 0.55675 0.79593 0.0
H1304 H 0.26309 0.48448 0.75865 0.0
H1305 H 0.26962 0.47607 0.7995 0.0
H1306 H 0.44074 0.59316 0.75934 0.0
H1307 H 0.44145 0.57797 0.79988 0.0
H1308 H 0.30859 0.42572 0.78602 0.0
H1309 H 0.30333 0.44239 0.7464 0.0
H1310 H 0.2628 0.40055 0.78699 0.0
H1311 H 0.25766 0.41679 0.74803 0.0
H1312 H 0.4285 0.48403 0.75317 0.0
H1313 H 0.4021 0.49045 0.79047 0.0
H1314 H 0.46753 0.49182 0.76339 0.0
H1315 H 0.44151 0.49815 0.80001 0.0
H1316 H 0.3821 0.49972 0.70949 0.0
H1317 H 0.32754 0.42295 0.71645 0.0
H1318 H 0.34367 0.41751 0.81821 0.0
H1319 H 0.38132 0.39838 0.78946 0.0
Li1320 Li 0.55426 0.85857 0.54813 0.0
Li1321 Li 0.53938 0.847 0.57026 0.0
Li1322 Li 0.52929 0.81491 0.5529 0.0
Li1323 Li 0.50872 0.83921 0.55326 0.0
C1324 C 0.58675 0.8481 0.5601 0.0
N1325 N 0.63716 0.86675 0.55926 0.0
C1326 C 0.602 0.86414 0.56975 0.0
C1327 C 0.59708 0.8412 0.55016 0.0
C1328 C 0.62746 0.87345 0.56912 0.0
C1329 C 0.62263 0.85094 0.54986 0.0
C1330 C 0.53935 0.89165 0.56527 0.0
C1331 C 0.52322 0.91038 0.57964 0.0
N1332 N 0.54427 0.93261 0.57806 0.0
C1333 C 0.56073 0.91474 0.56369 0.0
C1334 C 0.52035 0.8895 0.57322 0.0
C1335 C 0.56291 0.9352 0.57027 0.0
C1336 C 0.57539 0.88362 0.52513 0.0
N1337 N 0.58022 0.88288 0.5378 0.0
C1338 C 0.62031 0.91879 0.53552 0.0
C1339 C 0.60216 0.89993 0.54308 0.0
C1340 C 0.61565 0.92036 0.52243 0.0
C1341 C 0.59289 0.90224 0.51724 0.0
H1342 H 0.55757 0.87024 0.52123 0.0
H1343 H 0.60529 0.89946 0.55325 0.0
C1344 C 0.53661 0.83563 0.59656 0.0
N1345 N 0.54648 0.85471 0.58806 0.0
C1346 C 0.53909 0.84028 0.60978 0.0
C1347 C 0.56266 0.88408 0.60526 0.0
C1348 C 0.56002 0.87856 0.59213 0.0
C1349 C 0.55175 0.8648 0.61424 0.0
H1350 H 0.52619 0.81682 0.59305 0.0
H1351 H 0.56853 0.89337 0.58523 0.0
C1352 C 0.52133 0.81932 0.5276 0.0
N1353 N 0.51369 0.79078 0.50588 0.0
C1354 C 0.49827 0.80755 0.52155 0.0
C1355 C 0.5406 0.81692 0.52248 0.0
C1356 C 0.49474 0.7931 0.51061 0.0
C1357 C 0.53635 0.80232 0.51152 0.0
C1358 C 0.48565 0.80511 0.57308 0.0
C1359 C 0.4677 0.78052 0.57055 0.0
C1360 C 0.48111 0.81831 0.58248 0.0
C1361 C 0.44528 0.76975 0.57724 0.0
C1362 C 0.45848 0.80689 0.58898 0.0
N1363 N 0.44116 0.78306 0.58623 0.0
C1364 C 0.53882 0.77488 0.55244 0.0
C1365 C 0.50062 0.76696 0.54373 0.0
C1366 C 0.53236 0.75028 0.55035 0.0
N1367 N 0.52283 0.78257 0.54922 0.0
C1368 C 0.49353 0.74241 0.54137 0.0
C1369 C 0.50933 0.73367 0.54483 0.0
H1370 H 0.55628 0.78768 0.55691 0.0
H1371 H 0.48807 0.77345 0.54153 0.0
C1372 C 0.47586 0.85774 0.54937 0.0
N1373 N 0.47819 0.83735 0.54951 0.0
C1374 C 0.45269 0.85531 0.54748 0.0
C1375 C 0.43515 0.81118 0.54519 0.0
C1376 C 0.45854 0.81444 0.54723 0.0
C1377 C 0.43193 0.83174 0.54549 0.0
H1378 H 0.49189 0.87584 0.55084 0.0
H1379 H 0.46102 0.79862 0.54713 0.0
O1380 O 0.56179 0.83882 0.56057 0.0
O1381 O 0.53704 0.87139 0.55896 0.0
O1382 O 0.52503 0.83326 0.53844 0.0
O1383 O 0.5077 0.81599 0.56657 0.0
H1384 H 0.5943 0.8695 0.57758 0.0
H1385 H 0.58552 0.82839 0.54278 0.0
H1386 H 0.6395 0.88603 0.57646 0.0
H1387 H 0.63089 0.84586 0.54218 0.0
H1388 H 0.50866 0.90894 0.58584 0.0
H1389 H 0.57555 0.91684 0.5575 0.0
H1390 H 0.50344 0.87197 0.57432 0.0
H1391 H 0.57941 0.95315 0.56919 0.0
H1392 H 0.63758 0.93227 0.53994 0.0
H1393 H 0.58815 0.90298 0.5073 0.0
H1394 H 0.53037 0.82492 0.61643 0.0
H1395 H 0.57295 0.9032 0.60836 0.0
H1396 H 0.48323 0.80945 0.52528 0.0
H1397 H 0.55864 0.82624 0.52691 0.0
H1398 H 0.47695 0.78375 0.50589 0.0
H1399 H 0.55108 0.80018 0.5075 0.0
H1400 H 0.47096 0.76986 0.56345 0.0
H1401 H 0.49498 0.83707 0.58485 0.0
H1402 H 0.43117 0.7508 0.57529 0.0
H1403 H 0.45473 0.81694 0.59626 0.0
H1404 H 0.54505 0.74426 0.55315 0.0
H1405 H 0.47538 0.73016 0.5374 0.0
H1406 H 0.45102 0.87165 0.54761 0.0
H1407 H 0.41961 0.79265 0.54379 0.0
Li1408 Li 0.14652 0.66446 0.56201 0.0
Li1409 Li 0.1714 0.70835 0.56115 0.0
Li1410 Li 0.14194 0.68891 0.5789 0.0
Li1411 Li 0.12805 0.68883 0.5557 0.0
C1412 C 0.18414 0.67844 0.58145 0.0
N1413 N 0.21093 0.66249 0.59531 0.0
C1414 C 0.20722 0.68328 0.577 0.0
C1415 C 0.17488 0.66578 0.59306 0.0
C1416 C 0.22042 0.67497 0.58411 0.0
C1417 C 0.18864 0.65779 0.59989 0.0
C1418 C 0.17009 0.68663 0.5376 0.0
C1419 C 0.18625 0.69505 0.51594 0.0
N1420 N 0.20365 0.68938 0.51943 0.0
C1421 C 0.18808 0.68085 0.54096 0.0
C1422 C 0.1691 0.69374 0.52498 0.0
C1423 C 0.20489 0.68235 0.53164 0.0
C1424 C 0.14062 0.62457 0.54631 0.0
N1425 N 0.1448 0.63344 0.55858 0.0
C1426 C 0.14776 0.59896 0.56583 0.0
C1427 C 0.14759 0.62069 0.56833 0.0
C1428 C 0.14478 0.59001 0.55316 0.0
C1429 C 0.14069 0.60287 0.54335 0.0
H1430 H 0.13756 0.63453 0.53877 0.0
H1431 H 0.1497 0.62731 0.57807 0.0
C1432 C 0.22062 0.74269 0.56704 0.0
N1433 N 0.2037 0.73521 0.55743 0.0
C1434 C 0.24541 0.75979 0.56458 0.0
C1435 C 0.23467 0.76239 0.54255 0.0
C1436 C 0.21002 0.74531 0.54547 0.0
C1437 C 0.25283 0.76931 0.5521 0.0
H1438 H 0.21499 0.73462 0.57652 0.0
H1439 H 0.19607 0.73957 0.53809 0.0
C1440 C 0.10036 0.63635 0.56847 0.0
N1441 N 0.07181 0.58539 0.56773 0.0
C1442 C 0.08693 0.62442 0.5574 0.0
C1443 C 0.09921 0.6224 0.57918 0.0
C1444 C 0.07262 0.59863 0.55721 0.0
C1445 C 0.08468 0.59664 0.57861 0.0
C1446 C 0.16032 0.74207 0.56572 0.0
C1447 C 0.17567 0.75785 0.5754 0.0
C1448 C 0.15964 0.75172 0.55373 0.0
C1449 C 0.19026 0.78314 0.57289 0.0
C1450 C 0.1745 0.77712 0.5516 0.0
N1451 N 0.18938 0.79216 0.56114 0.0
C1452 C 0.15522 0.70468 0.60435 0.0
C1453 C 0.11315 0.67382 0.60154 0.0
C1454 C 0.15268 0.70232 0.6177 0.0
N1455 N 0.13578 0.68998 0.59662 0.0
C1456 C 0.1098 0.67074 0.61484 0.0
C1457 C 0.12996 0.68452 0.6231 0.0
H1458 H 0.17306 0.7172 0.60012 0.0
H1459 H 0.09804 0.66235 0.59512 0.0
C1460 C 0.10081 0.67926 0.5333 0.0
N1461 N 0.10415 0.68956 0.54518 0.0
C1462 C 0.08284 0.67833 0.52513 0.0
C1463 C 0.07214 0.69875 0.54156 0.0
C1464 C 0.09047 0.69939 0.54942 0.0
C1465 C 0.0681 0.688 0.52925 0.0
H1466 H 0.11178 0.6713 0.5303 0.0
H1467 H 0.09363 0.70744 0.55895 0.0
O1468 O 0.1712 0.68699 0.57478 0.0
O1469 O 0.15366 0.68564 0.54661 0.0
O1470 O 0.11502 0.66154 0.56869 0.0
O1471 O 0.14649 0.71719 0.56784 0.0
H1472 H 0.21503 0.69354 0.56821 0.0
H1473 H 0.15701 0.66168 0.59664 0.0
H1474 H 0.23827 0.67855 0.58075 0.0
H1475 H 0.18157 0.64779 0.60882 0.0
H1476 H 0.18577 0.70062 0.50615 0.0
H1477 H 0.18894 0.6751 0.55062 0.0
H1478 H 0.15539 0.69845 0.52224 0.0
H1479 H 0.21891 0.67791 0.53412 0.0
H1480 H 0.15105 0.58977 0.57372 0.0
H1481 H 0.13784 0.59639 0.53348 0.0
H1482 H 0.25878 0.76446 0.57222 0.0
H1483 H 0.23955 0.76961 0.53286 0.0
H1484 H 0.08775 0.63496 0.549 0.0
H1485 H 0.1098 0.63131 0.58775 0.0
H1486 H 0.06222 0.58914 0.54869 0.0
H1487 H 0.08375 0.5856 0.5868 0.0
H1488 H 0.17648 0.7506 0.58471 0.0
H1489 H 0.14799 0.73969 0.5461 0.0
H1490 H 0.20233 0.79558 0.58027 0.0
H1491 H 0.17427 0.78485 0.54235 0.0
H1492 H 0.16859 0.71365 0.6237 0.0
H1493 H 0.09201 0.65667 0.61854 0.0
H1494 H 0.07999 0.6694 0.51584 0.0
H1495 H 0.06121 0.70647 0.54507 0.0
Li1496 Li 0.27768 0.46364 0.55706 0.0
Li1497 Li 0.3222 0.48268 0.55886 0.0
Li1498 Li 0.29649 0.43965 0.55234 0.0
Li1499 Li 0.29633 0.45147 0.57505 0.0
C1500 C 0.29295 0.47613 0.53297 0.0
N1501 N 0.27402 0.49011 0.51283 0.0
C1502 C 0.30609 0.50024 0.52815 0.0
C1503 C 0.27014 0.45918 0.52754 0.0
C1504 C 0.29622 0.50693 0.51796 0.0
C1505 C 0.26089 0.46659 0.51738 0.0
C1506 C 0.30785 0.50373 0.57966 0.0
C1507 C 0.32884 0.52483 0.59919 0.0
N1508 N 0.3242 0.54326 0.59648 0.0
C1509 C 0.30323 0.52287 0.57711 0.0
C1510 C 0.32071 0.5047 0.59083 0.0
C1511 C 0.31169 0.5427 0.58571 0.0
C1512 C 0.22801 0.45415 0.5551 0.0
N1513 N 0.25237 0.47088 0.55321 0.0
C1514 C 0.24281 0.50113 0.54605 0.0
C1515 C 0.25995 0.494 0.54881 0.0
C1516 C 0.21754 0.48446 0.54804 0.0
C1517 C 0.21013 0.46064 0.55263 0.0
H1518 H 0.22251 0.43593 0.55872 0.0
H1519 H 0.27943 0.50708 0.54759 0.0
C1520 C 0.36388 0.51531 0.54403 0.0
N1521 N 0.35375 0.51197 0.55599 0.0
C1522 C 0.38625 0.53673 0.54115 0.0
C1523 C 0.38809 0.55024 0.56312 0.0
C1524 C 0.36577 0.5286 0.56556 0.0
C1525 C 0.39843 0.5548 0.55071 0.0
H1526 H 0.3544 0.50141 0.53668 0.0
H1527 H 0.35812 0.52529 0.5751 0.0
C1528 C 0.25494 0.40523 0.56141 0.0
N1529 N 0.23203 0.35534 0.55588 0.0
C1530 C 0.26008 0.38982 0.56878 0.0
C1531 C 0.23802 0.39529 0.5513 0.0
C1532 C 0.24833 0.36464 0.56582 0.0
C1533 C 0.22666 0.37001 0.54863 0.0
C1534 C 0.34875 0.46315 0.56502 0.0
C1535 C 0.36067 0.46202 0.55387 0.0
C1536 C 0.36265 0.47524 0.57594 0.0
C1537 C 0.38638 0.47306 0.55383 0.0
C1538 C 0.38833 0.48606 0.57552 0.0
N1539 N 0.39957 0.48477 0.56456 0.0
C1540 C 0.28879 0.4107 0.52973 0.0
C1541 C 0.30717 0.40226 0.54737 0.0
C1542 C 0.29228 0.39464 0.52188 0.0
N1543 N 0.29669 0.41456 0.54213 0.0
C1544 C 0.31127 0.38623 0.53983 0.0
C1545 C 0.3044 0.38277 0.52679 0.0
H1546 H 0.28061 0.42071 0.52576 0.0
H1547 H 0.31338 0.40579 0.55726 0.0
C1548 C 0.28094 0.44722 0.60096 0.0
N1549 N 0.29459 0.44242 0.59253 0.0
C1550 C 0.28336 0.44517 0.61418 0.0
C1551 C 0.31244 0.43159 0.60969 0.0
C1552 C 0.30952 0.43398 0.59657 0.0
C1553 C 0.29988 0.438 0.6187 0.0
H1554 H 0.26929 0.45399 0.59743 0.0
H1555 H 0.32013 0.43031 0.58961 0.0
O1556 O 0.3022 0.46928 0.54304 0.0
O1557 O 0.29906 0.48381 0.57152 0.0
O1558 O 0.26687 0.43004 0.56392 0.0
O1559 O 0.32368 0.45314 0.5651 0.0
H1560 H 0.32351 0.51382 0.53234 0.0
H1561 H 0.2594 0.44067 0.53133 0.0
H1562 H 0.30617 0.52554 0.51418 0.0
H1563 H 0.24319 0.45369 0.51316 0.0
H1564 H 0.33894 0.52584 0.60781 0.0
H1565 H 0.29318 0.52246 0.56862 0.0
H1566 H 0.32497 0.49043 0.59288 0.0
H1567 H 0.30825 0.55763 0.58382 0.0
H1568 H 0.24937 0.51985 0.54281 0.0
H1569 H 0.1908 0.4473 0.55433 0.0
H1570 H 0.39376 0.53922 0.53151 0.0
H1571 H 0.39667 0.56363 0.57081 0.0
H1572 H 0.27324 0.39728 0.5766 0.0
H1573 H 0.23378 0.40696 0.54553 0.0
H1574 H 0.25224 0.3525 0.57138 0.0
H1575 H 0.21362 0.36207 0.54079 0.0
H1576 H 0.3502 0.45302 0.54527 0.0
H1577 H 0.35375 0.47653 0.5846 0.0
H1578 H 0.39587 0.47244 0.54525 0.0
H1579 H 0.39934 0.49559 0.58388 0.0
H1580 H 0.28627 0.3922 0.51195 0.0
H1581 H 0.32092 0.37775 0.54402 0.0
H1582 H 0.27308 0.44996 0.62081 0.0
H1583 H 0.3255 0.42619 0.61274 0.0
H1584 H 0.35679 0.33616 0.20263 0.0
H1585 H 0.30789 0.32576 0.13106 0.0
H1586 H 0.40442 0.37713 0.17081 0.0
H1587 H 0.26107 0.28936 0.16384 0.0
H1588 H 0.34272 0.34924 0.14569 0.0
H1589 H 0.32105 0.32367 0.18899 0.0
C1590 C 0.3598 0.343 0.19285 0.0
C1591 C 0.38379 0.3576 0.18787 0.0
C1592 C 0.32475 0.33635 0.14969 0.0
C1593 C 0.34265 0.34262 0.17199 0.0
C1594 C 0.30484 0.32304 0.14135 0.0
C1595 C 0.28167 0.30531 0.14625 0.0
C1596 C 0.3214 0.33183 0.163 0.0
C1597 C 0.27877 0.30245 0.15964 0.0
C1598 C 0.33929 0.33564 0.185 0.0
C1599 C 0.38632 0.36543 0.175 0.0
N1600 N 0.29844 0.31536 0.16753 0.0
N1601 N 0.36602 0.35759 0.16746 0.0
H1602 H 0.68036 0.99718 0.12871 0.0
H1603 H 0.662 0.03053 0.20011 0.0
H1604 H 0.71347 0.9851 0.16214 0.0
H1605 H 0.6213 0.03456 0.16769 0.0
H1606 H 0.67699 0.0092 0.18664 0.0
H1607 H 0.65493 0.00645 0.1429 0.0
C1608 C 0.68199 0.99608 0.13904 0.0
C1609 C 0.69933 0.99072 0.14426 0.0
C1610 C 0.66452 0.01445 0.18249 0.0
C1611 C 0.67055 0.00161 0.16054 0.0
C1612 C 0.65573 0.02649 0.19023 0.0
C1613 C 0.64048 0.03462 0.18503 0.0
C1614 C 0.65834 0.01074 0.16937 0.0
C1615 C 0.63346 0.02915 0.17205 0.0
C1616 C 0.66754 0.00147 0.14713 0.0
C1617 C 0.70077 0.98972 0.1577 0.0
N1618 N 0.64271 0.01784 0.16462 0.0
N1619 N 0.68677 0.99537 0.16537 0.0
H1620 H 0.97233 0.64399 0.20369 0.0
H1621 H 0.00267 0.69591 0.13207 0.0
H1622 H 0.95833 0.59805 0.17008 0.0
H1623 H 0.01831 0.74198 0.16573 0.0
H1624 H 0.99174 0.66057 0.14601 0.0
H1625 H 0.99489 0.6806 0.19024 0.0
C1626 C 0.9744 0.64156 0.19352 0.0
C1627 C 0.96316 0.61786 0.18799 0.0
C1628 C 0.99786 0.67846 0.15036 0.0
C1629 C 0.98856 0.6598 0.17247 0.0
C1630 C 0.00402 0.69861 0.14241 0.0
C1631 C 0.01109 0.72183 0.14776 0.0
C1632 C 0.99858 0.68147 0.16379 0.0
C1633 C 0.01298 0.72442 0.1612 0.0
C1634 C 0.98716 0.66252 0.18582 0.0
C1635 C 0.96624 0.61595 0.17472 0.0
N1636 N 0.00643 0.7044 0.16876 0.0
N1637 N 0.97841 0.63663 0.16739 0.0
H1638 H 0.35184 0.35864 0.79843 0.0
H1639 H 0.31439 0.30939 0.86937 0.0
H1640 H 0.36804 0.40672 0.83133 0.0
H1641 H 0.31624 0.26408 0.83847 0.0
H1642 H 0.33744 0.34572 0.85596 0.0
H1643 H 0.34223 0.32446 0.81298 0.0
C1644 C 0.35386 0.36216 0.8087 0.0
C1645 C 0.36035 0.38553 0.81366 0.0
C1646 C 0.33314 0.32789 0.85216 0.0
C1647 C 0.34888 0.34632 0.83038 0.0
C1648 C 0.32007 0.30704 0.85987 0.0
C1649 C 0.31302 0.28344 0.85503 0.0
C1650 C 0.33891 0.32519 0.83942 0.0
C1651 C 0.32067 0.28176 0.84252 0.0
C1652 C 0.34825 0.34258 0.81701 0.0
C1653 C 0.36245 0.38887 0.82707 0.0
N1654 N 0.33286 0.3023 0.83507 0.0
N1655 N 0.35638 0.36941 0.83496 0.0
H1656 H 0.74342 0.02766 0.83289 0.0
H1657 H 0.59623 0.94458 0.82761 0.0
H1658 H 0.69545 0.9804 0.86303 0.0
H1659 H 0.6438 0.97602 0.79451 0.0
H1660 H 0.63226 0.96559 0.8416 0.0
H1661 H 0.70687 0.01641 0.81958 0.0
C1662 C 0.72518 0.01518 0.83674 0.0
C1663 C 0.72234 0.00464 0.84897 0.0
C1664 C 0.63482 0.96811 0.83128 0.0
C1665 C 0.68076 0.99189 0.83395 0.0
C1666 C 0.61427 0.95609 0.8233 0.0
C1667 C 0.61711 0.95821 0.80988 0.0
C1668 C 0.65843 0.98231 0.82583 0.0
C1669 C 0.64082 0.97385 0.80482 0.0
C1670 C 0.7044 0.00872 0.82916 0.0
C1671 C 0.69839 0.98857 0.85355 0.0
N1672 N 0.66068 0.98509 0.8128 0.0
N1673 N 0.67854 0.98261 0.84602 0.0
H1674 H 0.03355 0.66702 0.79868 0.0
H1675 H 0.98679 0.67528 0.86922 0.0
H1676 H 0.04192 0.63043 0.8317 0.0
H1677 H 0.99147 0.721 0.83711 0.0
H1678 H 0.0003 0.65316 0.85502 0.0
H1679 H 0.0109 0.68094 0.81201 0.0
C1680 C 0.03047 0.66179 0.80874 0.0
C1681 C 0.03995 0.64789 0.81415 0.0
C1682 C 0.99808 0.66787 0.85109 0.0
C1683 C 0.014 0.66375 0.82949 0.0
C1684 C 0.99048 0.68059 0.85919 0.0
C1685 C 0.98813 0.7002 0.8544 0.0
C1686 C 0.0033 0.67477 0.8381 0.0
C1687 C 0.9927 0.70588 0.84125 0.0
C1688 C 0.01749 0.6697 0.81634 0.0
C1689 C 0.03493 0.64115 0.82716 0.0
N1690 N 0.00021 0.69336 0.83361 0.0
N1691 N 0.02252 0.6494 0.83444 0.0
H1692 H 0.92239 0.63357 0.49853 0.0
H1693 H 0.06896 0.69526 0.50325 0.0
H1694 H 0.97005 0.64085 0.46667 0.0
H1695 H 0.02079 0.67446 0.53636 0.0
H1696 H 0.03359 0.68427 0.48933 0.0
H1697 H 0.95896 0.657 0.51204 0.0
C1698 C 0.9405 0.64028 0.49432 0.0
C1699 C 0.94305 0.63489 0.48146 0.0
C1700 C 0.0308 0.68239 0.49965 0.0
C1701 C 0.98493 0.66194 0.49683 0.0
C1702 C 0.05096 0.68859 0.5076 0.0
C1703 C 0.04772 0.68534 0.52096 0.0
C1704 C 0.00718 0.67275 0.5051 0.0
C1705 C 0.02411 0.67722 0.52611 0.0
C1706 C 0.96136 0.65374 0.50203 0.0
C1707 C 0.96705 0.64461 0.47647 0.0
N1708 N 0.00465 0.67086 0.51815 0.0
N1709 N 0.987 0.65741 0.4842 0.0
H1710 H 0.30593 0.34042 0.5318 0.0
H1711 H 0.37162 0.34693 0.46459 0.0
H1712 H 0.3211 0.39414 0.502 0.0
H1713 H 0.36639 0.29902 0.49564 0.0
H1714 H 0.34796 0.36037 0.47734 0.0
H1715 H 0.32311 0.32117 0.5179 0.0
C1716 C 0.31269 0.34808 0.52232 0.0
C1717 C 0.31209 0.36901 0.5181 0.0
C1718 C 0.35186 0.34683 0.48138 0.0
C1719 C 0.33156 0.34697 0.50215 0.0
C1720 C 0.36548 0.33924 0.47412 0.0
C1721 C 0.37131 0.32212 0.47914 0.0
C1722 C 0.34398 0.33732 0.49382 0.0
C1723 C 0.3623 0.31227 0.49141 0.0
C1724 C 0.32241 0.33702 0.51439 0.0
C1725 C 0.32078 0.37786 0.50564 0.0
N1726 N 0.34925 0.32019 0.4984 0.0
N1727 N 0.33025 0.36689 0.49818 0.0
H1728 H 0.70686 0.0683 0.49292 0.0
H1729 H 0.62704 0.92093 0.49679 0.0
H1730 H 0.66453 0.02106 0.46122 0.0
H1731 H 0.64443 0.96889 0.52987 0.0
H1732 H 0.65093 0.95733 0.48327 0.0
H1733 H 0.6939 0.0315 0.5061 0.0
C1734 C 0.69504 0.05028 0.48867 0.0
C1735 C 0.68649 0.04792 0.47595 0.0
C1736 C 0.64974 0.95978 0.49353 0.0
C1737 C 0.67212 0.0058 0.49093 0.0
C1738 C 0.63602 0.93905 0.50125 0.0
C1739 C 0.63329 0.9418 0.51448 0.0
C1740 C 0.66099 0.98344 0.49907 0.0
C1741 C 0.64601 0.96576 0.51975 0.0
C1742 C 0.6878 0.0293 0.49619 0.0
C1743 C 0.6718 0.02396 0.4709 0.0
N1744 N 0.6591 0.98567 0.51201 0.0
N1745 N 0.66493 0.00388 0.47843 0.0
H1746 H 0.03886 0.19907 0.09792 0.0
H1747 H 0.93144 0.07896 0.13121 0.0
H1748 H 0.04863 0.16762 0.13269 0.0
H1749 H 0.91768 0.11869 0.10177 0.0
H1750 H 0.97389 0.11342 0.13302 0.0
H1751 H 0.99402 0.17243 0.10021 0.0
C1752 C 0.03154 0.18687 0.10615 0.0
C1753 C 0.04751 0.18542 0.11506 0.0
C1754 C 0.96154 0.11482 0.12628 0.0
C1755 C 0.99633 0.15473 0.11767 0.0
C1756 C 0.93736 0.0951 0.12522 0.0
C1757 C 0.92119 0.09594 0.11624 0.0
C1758 C 0.96978 0.13538 0.11814 0.0
C1759 C 0.92962 0.11737 0.10881 0.0
C1760 C 0.00596 0.17171 0.10747 0.0
C1761 C 0.03705 0.16948 0.12562 0.0
N1762 N 0.95349 0.13612 0.10978 0.0
N1763 N 0.01216 0.15449 0.12652 0.0
H1764 H 0.8052 0.85548 0.09811 0.0
H1765 H 0.91562 0.85831 0.13716 0.0
H1766 H 0.83637 0.89775 0.1329 0.0
H1767 H 0.88305 0.81364 0.10323 0.0
H1768 H 0.883 0.86863 0.13733 0.0
H1769 H 0.82959 0.83553 0.10138 0.0
C1770 C 0.81692 0.86033 0.10652 0.0
C1771 C 0.81891 0.87849 0.11517 0.0
C1772 C 0.88278 0.85633 0.12993 0.0
C1773 C 0.84696 0.85584 0.11895 0.0
C1774 C 0.90147 0.85053 0.1298 0.0
C1775 C 0.90222 0.83534 0.12008 0.0
C1776 C 0.86481 0.8471 0.12018 0.0
C1777 C 0.88316 0.82539 0.11092 0.0
C1778 C 0.8308 0.8489 0.10841 0.0
C1779 C 0.83411 0.88376 0.12601 0.0
N1780 N 0.86542 0.8317 0.1111 0.0
N1781 N 0.84777 0.87275 0.1275 0.0
H1782 H 0.14145 0.0779 0.13872 0.0
H1783 H 0.12641 0.96344 0.10077 0.0
H1784 H 0.18257 0.0862 0.10391 0.0
H1785 H 0.11533 0.96074 0.14197 0.0
H1786 H 0.14794 0.0083 0.10178 0.0
H1787 H 0.13188 0.03499 0.14033 0.0
C1788 C 0.14872 0.07072 0.13152 0.0
C1789 C 0.16268 0.08544 0.12113 0.0
C1790 C 0.14113 0.99788 0.11063 0.0
C1791 C 0.15154 0.03647 0.12279 0.0
C1792 C 0.12891 0.97214 0.11009 0.0
C1793 C 0.1186 0.95799 0.12129 0.0
C1794 C 0.14267 0.00967 0.12237 0.0
C1795 C 0.12224 0.97069 0.13302 0.0
C1796 C 0.14337 0.04632 0.13247 0.0
C1797 C 0.1718 0.0754 0.11208 0.0
N1798 N 0.13355 0.99576 0.13322 0.0
N1799 N 0.1657 0.05136 0.11299 0.0
H1800 H 0.0869 0.91952 0.86477 0.0
H1801 H 0.19562 0.04203 0.89676 0.0
H1802 H 0.12029 0.92077 0.90125 0.0
H1803 H 0.15715 0.0404 0.86212 0.0
H1804 H 0.17464 0.9968 0.8962 0.0
H1805 H 0.1188 0.96245 0.86135 0.0
C1806 C 0.10122 0.92863 0.87196 0.0
C1807 C 0.10065 0.91654 0.88341 0.0
C1808 C 0.1711 0.00636 0.8886 0.0
C1809 C 0.13702 0.96607 0.87966 0.0
C1810 C 0.1832 0.03216 0.88887 0.0
C1811 C 0.17779 0.04488 0.87958 0.0
C1812 C 0.15353 0.99328 0.87896 0.0
C1813 C 0.16146 0.03123 0.86961 0.0
C1814 C 0.11936 0.95327 0.87003 0.0
C1815 C 0.11963 0.92951 0.89242 0.0
N1816 N 0.14969 0.00616 0.86965 0.0
N1817 N 0.13686 0.95367 0.89042 0.0
H1818 H 0.09196 0.19261 0.8969 0.0
H1819 H 0.96503 0.12494 0.90415 0.0
H1820 H 0.07605 0.14465 0.86411 0.0
H1821 H 0.9618 0.1217 0.86257 0.0
H1822 H 0.00983 0.14758 0.90291 0.0
H1823 H 0.04857 0.18218 0.89726 0.0
C1824 C 0.07934 0.18027 0.88963 0.0
C1825 C 0.08728 0.16939 0.88047 0.0
C1826 C -0.00067 0.14247 0.89405 0.0
C1827 C 0.03793 0.15693 0.88099 0.0
C1828 C 0.9736 0.12949 0.89473 0.0
C1829 C 0.95933 0.12119 0.88344 0.0
C1830 C 0.01103 0.14696 0.88201 0.0
C1831 C 0.97187 0.12717 0.87155 0.0
C1832 C 0.05463 0.17411 0.88992 0.0
C1833 C 0.07042 0.15336 0.8713 0.0
N1834 N 0.99699 0.13927 0.87116 0.0
N1835 N 0.04641 0.14751 0.87181 0.0
H1836 H 0.88243 0.83414 0.86528 0.0
H1837 H 0.82284 0.89199 0.91037 0.0
H1838 H 0.86586 0.81554 0.90541 0.0
H1839 H 0.83117 0.90316 0.86928 0.0
H1840 H 0.83278 0.85921 0.90825 0.0
H1841 H 0.85783 0.85427 0.86586 0.0
C1842 C 0.87322 0.83394 0.87415 0.0
C1843 C 0.87642 0.8235 0.88536 0.0
C1844 C 0.83205 0.86854 0.89966 0.0
C1845 C 0.84858 0.8468 0.88618 0.0
C1846 C 0.8265 0.88734 0.90088 0.0
C1847 C 0.82657 0.90058 0.89001 0.0
C1848 C 0.83804 0.86316 0.8875 0.0
C1849 C 0.83094 0.89346 0.87792 0.0
C1850 C 0.85916 0.84541 0.87449 0.0
C1851 C 0.86387 0.82343 0.89657 0.0
N1852 N 0.83689 0.87551 0.87701 0.0
N1853 N 0.85086 0.83535 0.89676 0.0
H1854 H 0.70675 0.50475 0.42684 0.0
H1855 H 0.58218 0.41268 0.46388 0.0
H1856 H 0.70295 0.48744 0.46725 0.0
H1857 H 0.5862 0.42719 0.42308 0.0
H1858 H 0.62499 0.44607 0.46606 0.0
H1859 H 0.66162 0.48288 0.42613 0.0
C1860 C 0.69643 0.49683 0.43563 0.0
C1861 C 0.7086 0.49758 0.44708 0.0
C1862 C 0.61643 0.44216 0.45665 0.0
C1863 C 0.65697 0.47214 0.44629 0.0
C1864 C 0.59191 0.42317 0.45541 0.0
C1865 C 0.58068 0.41685 0.44324 0.0
C1866 C 0.6299 0.45488 0.44565 0.0
C1867 C 0.59431 0.43102 0.4326 0.0
C1868 C 0.67065 0.48417 0.4352 0.0
C1869 C 0.69428 0.48683 0.45816 0.0
N1870 N 0.61828 0.44917 0.43402 0.0
N1871 N 0.66922 0.47429 0.45745 0.0
H1872 H 0.48209 0.18881 0.42629 0.0
H1873 H 0.54669 0.12644 0.43286 0.0
H1874 H 0.48863 0.19746 0.46764 0.0
H1875 H 0.58124 0.17894 0.46373 0.0
H1876 H 0.51245 0.13488 0.43299 0.0
H1877 H 0.5049 0.16699 0.42705 0.0
C1878 C 0.48767 0.18557 0.43558 0.0
C1879 C 0.4836 0.19536 0.44691 0.0
C1880 C 0.52744 0.14439 0.43979 0.0
C1881 C 0.51012 0.17058 0.44778 0.0
C1882 C 0.54675 0.13941 0.4398 0.0
C1883 C 0.56666 0.15217 0.44826 0.0
C1884 C 0.52815 0.16211 0.44837 0.0
C1885 C 0.56616 0.16887 0.45704 0.0
C1886 C 0.50075 0.17307 0.43599 0.0
C1887 C 0.49185 0.1909 0.45861 0.0
N1888 N 0.54719 0.1734 0.45687 0.0
N1889 N 0.50517 0.17933 0.4587 0.0
H1890 H 0.82168 0.40854 0.46926 0.0
H1891 H 0.80685 0.2879 0.43473 0.0
H1892 H 0.85793 0.4102 0.43355 0.0
H1893 H 0.76374 0.2869 0.4674 0.0
H1894 H 0.83224 0.33298 0.43667 0.0
H1895 H 0.80735 0.36463 0.47126 0.0
C1896 C 0.82711 0.39982 0.46196 0.0
C1897 C 0.84081 0.41306 0.45113 0.0
C1898 C 0.81743 0.32285 0.44352 0.0
C1899 C 0.82392 0.36252 0.45324 0.0
C1900 C 0.80305 0.29714 0.44246 0.0
C1901 C 0.78298 0.28375 0.45081 0.0
C1902 C 0.81173 0.33518 0.45303 0.0
C1903 C 0.77876 0.29661 0.46061 0.0
C1904 C 0.8187 0.37465 0.46306 0.0
C1905 C 0.84697 0.4006 0.44193 0.0
N1906 N 0.79286 0.32161 0.46138 0.0
N1907 N 0.83825 0.37596 0.44311 0.0
H1908 H 0.74679 0.25695 0.19812 0.0
H1909 H 0.84493 0.37593 0.23616 0.0
H1910 H 0.77728 0.25348 0.23473 0.0
H1911 H 0.82236 0.37747 0.19714 0.0
H1912 H 0.82481 0.33095 0.23476 0.0
H1913 H 0.77848 0.30033 0.19641 0.0
C1914 C 0.76044 0.2651 0.20569 0.0
C1915 C 0.75905 0.25148 0.21668 0.0
C1916 C 0.82458 0.34115 0.22643 0.0
C1917 C 0.79514 0.30164 0.21493 0.0
C1918 C 0.83621 0.36688 0.2272 0.0
C1919 C 0.83495 0.38047 0.21683 0.0
C1920 C 0.81146 0.32892 0.21525 0.0
C1921 C 0.82324 0.36768 0.20549 0.0
C1922 C 0.77849 0.29003 0.20475 0.0
C1923 C 0.77718 0.26335 0.22623 0.0
N1924 N 0.81166 0.34262 0.20507 0.0
N1925 N 0.79424 0.28783 0.22523 0.0
H1926 H 0.74511 0.53028 0.23764 0.0
H1927 H 0.62036 0.44482 0.19883 0.0
H1928 H 0.74025 0.49034 0.20276 0.0
H1929 H 0.62207 0.47143 0.2374 0.0
H1930 H 0.66539 0.46988 0.19793 0.0
H1931 H 0.70126 0.51682 0.23554 0.0
C1932 C 0.73495 0.51888 0.22949 0.0
C1933 C 0.74643 0.51115 0.22048 0.0
C1934 C 0.65592 0.4705 0.20654 0.0
C1935 C 0.69631 0.49601 0.21794 0.0
C1936 C 0.63023 0.45617 0.20706 0.0
C1937 C 0.61751 0.45567 0.2183 0.0
C1938 C 0.66906 0.48438 0.21736 0.0
C1939 C 0.63116 0.47119 0.22856 0.0
C1940 C 0.70994 0.51133 0.22827 0.0
C1941 C 0.7324 0.49693 0.20993 0.0
N1942 N 0.65626 0.48465 0.22792 0.0
N1943 N 0.70807 0.48964 0.20904 0.0
H1944 H 0.49853 0.25091 0.19838 0.0
H1945 H 0.51916 0.15073 0.23307 0.0
H1946 H 0.46189 0.21506 0.23384 0.0
H1947 H 0.54828 0.18078 0.1955 0.0
H1948 H 0.49311 0.16925 0.23213 0.0
H1949 H 0.51161 0.2208 0.19567 0.0
C1950 C 0.49272 0.2364 0.20548 0.0
C1951 C 0.47932 0.23583 0.21647 0.0
C1952 C 0.50492 0.17149 0.224 0.0
C1953 C 0.49501 0.20154 0.21358 0.0
C1954 C 0.51971 0.16079 0.2245 0.0
C1955 C 0.53627 0.1646 0.21445 0.0
C1956 C 0.50682 0.18621 0.21341 0.0
C1957 C 0.53626 0.17791 0.20362 0.0
C1958 C 0.50041 0.21926 0.20396 0.0
C1959 C 0.47274 0.21667 0.22539 0.0
N1960 N 0.52205 0.18851 0.20347 0.0
N1961 N 0.48097 0.20053 0.22385 0.0
H1962 H 0.24985 0.7664 0.76996 0.0
H1963 H 0.38591 0.82248 0.7986 0.0
H1964 H 0.2693 0.73219 0.80005 0.0
H1965 H 0.36964 0.84994 0.76422 0.0
H1966 H 0.34178 0.79463 0.80198 0.0
H1967 H 0.29206 0.80185 0.77037 0.0
C1968 C 0.2629 0.76652 0.77679 0.0
C1969 C 0.25614 0.74622 0.7849 0.0
C1970 C 0.34783 0.80698 0.79379 0.0
C1971 C 0.30445 0.78659 0.78535 0.0
C1972 C 0.37305 0.82311 0.79192 0.0
C1973 C 0.38154 0.83849 0.78105 0.0
C1974 C 0.33089 0.80612 0.78472 0.0
C1975 C 0.36393 0.83813 0.77262 0.0
C1976 C 0.28701 0.78669 0.77697 0.0
C1977 C 0.27386 0.74727 0.79348 0.0
N1978 N 0.33944 0.82201 0.77456 0.0
N1979 N 0.29722 0.76704 0.79343 0.0
H1980 H 0.2204 0.45949 0.76531 0.0
H1981 H 0.1547 0.51991 0.76419 0.0
H1982 H 0.25482 0.50547 0.79864 0.0
H1983 H 0.16461 0.5273 0.80545 0.0
H1984 H 0.17771 0.49855 0.76348 0.0
H1985 H 0.18652 0.4678 0.76722 0.0
C1986 C 0.22082 0.47133 0.77303 0.0
C1987 C 0.24079 0.48228 0.78164 0.0
C1988 C 0.17427 0.50413 0.77276 0.0
C1989 C 0.20225 0.49219 0.78377 0.0
C1990 C 0.16101 0.51641 0.77319 0.0
C1991 C 0.15765 0.52562 0.7849 0.0
C1992 C 0.18453 0.50115 0.78411 0.0
C1993 C 0.1671 0.52103 0.79615 0.0
C1994 C 0.20152 0.47615 0.77409 0.0
C1995 C 0.2399 0.49675 0.79174 0.0
N1996 N 0.18048 0.50952 0.79544 0.0
N1997 N 0.22108 0.5015 0.79244 0.0
H1998 H 0.525 0.74741 0.76928 0.0
H1999 H 0.43626 0.61398 0.79967 0.0
H2000 H 0.4662 0.73078 0.79625 0.0
H2001 H 0.48189 0.62605 0.76616 0.0
H2002 H 0.45468 0.65856 0.80201 0.0
H2003 H 0.51653 0.70489 0.77144 0.0
C2004 C 0.51061 0.73492 0.77582 0.0
C2005 C 0.49606 0.74244 0.78249 0.0
C2006 C 0.46091 0.65148 0.79424 0.0
C2007 C 0.48627 0.69399 0.78497 0.0
C2008 C 0.45057 0.62601 0.79296 0.0
C2009 C 0.45738 0.61623 0.78262 0.0
C2010 C 0.47817 0.66735 0.78511 0.0
C2011 C 0.47579 0.63279 0.77414 0.0
C2012 C 0.50571 0.71067 0.777 0.0
C2013 C 0.47757 0.72555 0.79079 0.0
N2014 N 0.48539 0.65756 0.7755 0.0
N2015 N 0.4731 0.70207 0.79174 0.0
H2016 H 0.51401 0.70374 0.56233 0.0
H2017 H 0.40785 0.58248 0.52883 0.0
H2018 H 0.48422 0.70251 0.52478 0.0
H2019 H 0.4396 0.5827 0.56566 0.0
H2020 H 0.44092 0.62499 0.52545 0.0
H2021 H 0.49256 0.65861 0.56199 0.0
C2022 C 0.50343 0.69401 0.55388 0.0
C2023 C 0.50054 0.70689 0.54366 0.0
C2024 C 0.44088 0.61566 0.5342 0.0
C2025 C 0.47553 0.65522 0.54333 0.0
C2026 C 0.42205 0.59125 0.53611 0.0
C2027 C 0.42065 0.57906 0.54766 0.0
C2028 C 0.45835 0.6281 0.54397 0.0
C2029 C 0.43954 0.59157 0.55676 0.0
C2030 C 0.49103 0.66821 0.55373 0.0
C2031 C 0.48646 0.69328 0.533 0.0
N2032 N 0.45739 0.61551 0.55481 0.0
N2033 N 0.4742 0.66819 0.53319 0.0
H2034 H 0.27641 0.76553 0.5308 0.0
H2035 H 0.41117 0.85303 0.56001 0.0
H2036 H 0.2901 0.80678 0.56616 0.0
H2037 H 0.39542 0.80219 0.52849 0.0
H2038 H 0.36804 0.84288 0.55978 0.0
H2039 H 0.32092 0.78563 0.52721 0.0
C2040 C 0.28876 0.77921 0.53768 0.0
C2041 C 0.27951 0.78429 0.54887 0.0
C2042 C 0.3741 0.83416 0.55282 0.0
C2043 C 0.33054 0.80704 0.54493 0.0
C2044 C 0.39874 0.84006 0.55289 0.0
C2045 C 0.4068 0.82821 0.54436 0.0
C2046 C 0.35744 0.81635 0.54411 0.0
C2047 C 0.38985 0.81141 0.5354 0.0
C2048 C 0.3142 0.79052 0.53568 0.0
C2049 C 0.29645 0.80198 0.55752 0.0
N2050 N 0.36594 0.80585 0.53558 0.0
N2051 N 0.32116 0.81255 0.55544 0.0
H2052 H 0.21466 0.51076 0.52789 0.0
H2053 H 0.12836 0.5472 0.56703 0.0
H2054 H 0.17997 0.47781 0.56412 0.0
H2055 H 0.16868 0.5841 0.53256 0.0
H2056 H 0.13997 0.51581 0.56381 0.0
H2057 H 0.1906 0.53142 0.52707 0.0
C2058 C 0.20169 0.50762 0.53559 0.0
C2059 C 0.19961 0.49291 0.5462 0.0
C2060 C 0.14596 0.53058 0.55685 0.0
C2061 C 0.17215 0.51665 0.54539 0.0
C2062 C 0.13944 0.54857 0.55871 0.0
C2063 C 0.14792 0.56859 0.55018 0.0
C2064 C 0.16115 0.53265 0.5464 0.0
C2065 C 0.16169 0.56905 0.53939 0.0
C2066 C 0.18795 0.51939 0.53511 0.0
C2067 C 0.1822 0.48906 0.55578 0.0
N2068 N 0.16815 0.55156 0.53791 0.0
N2069 N 0.16942 0.5012 0.55526 0.0
H2070 H 0.22947 0.25222 0.0287 0.0
H2071 H 0.19556 0.15893 0.96924 0.0
H2072 H 0.18116 0.17314 0.03141 0.0
H2073 H 0.24626 0.23756 0.96636 0.0
H2074 H 0.1914 0.16379 0.99225 0.0
H2075 H 0.23701 0.24732 0.00604 0.0
C2076 C 0.22055 0.23383 0.02456 0.0
C2077 C 0.20451 0.21308 0.03196 0.0
C2078 C 0.20355 0.17999 0.98661 0.0
C2079 C 0.21292 0.20736 0.00602 0.0
C2080 C 0.20609 0.17719 0.97347 0.0
C2081 C 0.22128 0.19787 0.96583 0.0
C2082 C 0.21624 0.20365 0.9922 0.0
C2083 C 0.23409 0.22115 0.97184 0.0
C2084 C 0.22478 0.23105 0.01161 0.0
C2085 C 0.19328 0.18972 0.02604 0.0
N2086 N 0.23121 0.22342 0.98466 0.0
N2087 N 0.19766 0.18751 0.01344 0.0
H2088 H 0.81048 0.05716 0.96948 0.0
H2089 H 0.76323 0.95587 0.02423 0.0
H2090 H 0.76295 0.97946 0.96147 0.0
H2091 H 0.78478 0.0317 0.03214 0.0
H2092 H 0.76411 0.96411 0.00114 0.0
H2093 H 0.80237 0.04853 0.99253 0.0
C2094 C 0.79814 0.03833 0.9726 0.0
C2095 C 0.78738 0.01898 0.96362 0.0
C2096 C 0.76837 0.97887 0.00793 0.0
C2097 C 0.77833 0.00892 0.98987 0.0
C2098 C 0.76799 0.9742 0.02108 0.0
C2099 C 0.77402 0.99317 0.03005 0.0
C2100 C 0.77529 0.00278 0.00375 0.0
C2101 C 0.77989 0.01655 0.02551 0.0
C2102 C 0.79346 0.03342 0.98572 0.0
C2103 C 0.77146 0.99491 0.96811 0.0
N2104 N 0.78069 0.0208 0.01265 0.0
N2105 N 0.76767 0.99049 0.98095 0.0
H2106 H 0.97728 0.81268 0.97055 0.0
H2107 H 0.01628 0.76938 0.03414 0.0
H2108 H 0.98795 0.74996 0.97137 0.0
H2109 H 0.00399 0.83102 0.03261 0.0
H2110 H 0.00586 0.76158 0.01125 0.0
H2111 H 0.98624 0.81887 0.99346 0.0
C2112 C 0.98115 0.79995 0.97558 0.0
C2113 C 0.98172 0.78067 0.969 0.0
C2114 C 0.00552 0.77685 0.01593 0.0
C2115 C 0.99264 0.78806 0.9953 0.0
C2116 C 0.01142 0.78128 0.029 0.0
C2117 C 0.0111 0.80095 0.0353 0.0
C2118 C -0.00081 0.79214 0.00914 0.0
C2119 C 0.0049 0.81592 0.02812 0.0
C2120 C 0.98653 0.80366 0.98867 0.0
C2121 C 0.9875 0.76519 0.97602 0.0
N2122 N -0.00085 0.81117 0.01546 0.0
N2123 N 0.99279 0.76925 0.98879 0.0
H2124 H 0.90842 0.52286 0.30784 0.0
H2125 H 0.85809 0.57625 0.36229 0.0
H2126 H 0.87822 0.56965 0.29976 0.0
H2127 H 0.90008 0.54081 0.37051 0.0
H2128 H 0.86597 0.57474 0.33931 0.0
H2129 H 0.90633 0.52991 0.33089 0.0
C2130 C 0.90149 0.53472 0.31092 0.0
C2131 C 0.89344 0.54563 0.30189 0.0
C2132 C 0.87366 0.56751 0.34615 0.0
C2133 C 0.89087 0.55371 0.32819 0.0
C2134 C 0.86906 0.56827 0.35925 0.0
C2135 C 0.87838 0.55858 0.36831 0.0
C2136 C 0.88742 0.55672 0.34207 0.0
C2137 C 0.89273 0.5487 0.36386 0.0
C2138 C 0.90039 0.53883 0.32406 0.0
C2139 C 0.88484 0.56105 0.30639 0.0
N2140 N 0.89662 0.54782 0.35105 0.0
N2141 N 0.88358 0.56445 0.31923 0.0
H2142 H 0.42103 0.30289 0.29696 0.0
H2143 H 0.44179 0.34782 0.37034 0.0
H2144 H 0.46793 0.37904 0.3084 0.0
H2145 H 0.41365 0.27204 0.35886 0.0
H2146 H 0.44493 0.35944 0.34765 0.0
H2147 H 0.41171 0.29135 0.3196 0.0
C2148 C 0.4291 0.31724 0.30423 0.0
C2149 C 0.44531 0.34197 0.3008 0.0
C2150 C 0.4379 0.34025 0.35011 0.0
C2151 C 0.43489 0.32883 0.32672 0.0
C2152 C 0.4359 0.33357 0.36304 0.0
C2153 C 0.42747 0.30893 0.36646 0.0
C2154 C 0.43123 0.32213 0.34053 0.0
C2155 C 0.42044 0.29127 0.35661 0.0
C2156 C 0.42392 0.3106 0.31715 0.0
C2157 C 0.45553 0.35973 0.31064 0.0
N2158 N 0.42251 0.29822 0.34408 0.0
N2159 N 0.45017 0.35281 0.32317 0.0
H2160 H 0.63161 0.10231 0.36752 0.0
H2161 H 0.68421 0.12355 0.29555 0.0
H2162 H 0.70938 0.13875 0.35833 0.0
H2163 H 0.60745 0.09572 0.30478 0.0
H2164 H 0.69327 0.12524 0.31849 0.0
H2165 H 0.62205 0.09589 0.34459 0.0
C2166 C 0.64669 0.10873 0.36068 0.0
C2167 C 0.67136 0.12108 0.36485 0.0
C2168 C 0.67442 0.11865 0.3155 0.0
C2169 C 0.66051 0.11406 0.33855 0.0
C2170 C 0.66919 0.11749 0.3024 0.0
C2171 C 0.64501 0.10948 0.29824 0.0
C2172 C 0.65536 0.11172 0.32454 0.0
C2173 C 0.62638 0.10227 0.30757 0.0
C2174 C 0.6412 0.1052 0.34758 0.0
C2175 C 0.69013 0.12937 0.35554 0.0
N2176 N 0.63195 0.1036 0.32029 0.0
N2177 N 0.68431 0.12573 0.34282 0.0
H2178 H 0.54127 0.89747 0.62582 0.0
H2179 H 0.56617 0.86913 0.69732 0.0
H2180 H 0.5634 0.84425 0.63423 0.0
H2181 H 0.51769 0.89711 0.6888 0.0
H2182 H 0.57251 0.86673 0.67418 0.0
H2183 H 0.53978 0.90436 0.64895 0.0
C2184 C 0.5461 0.88746 0.63255 0.0
C2185 C 0.55241 0.87023 0.62816 0.0
C2186 C 0.56059 0.8735 0.67739 0.0
C2187 C 0.55073 0.878 0.65454 0.0
C2188 C 0.5571 0.87503 0.69056 0.0
C2189 C 0.54133 0.88327 0.69493 0.0
C2190 C 0.54849 0.88059 0.66856 0.0
C2191 C 0.52981 0.89046 0.6858 0.0
C2192 C 0.54508 0.89128 0.64572 0.0
C2193 C 0.55824 0.85754 0.63726 0.0
N2194 N 0.53365 0.889 0.67302 0.0
N2195 N 0.5573 0.86171 0.65005 0.0
H2196 H 0.16425 0.68267 0.63845 0.0
H2197 H 0.07668 0.63232 0.70049 0.0
H2198 H 0.09085 0.67238 0.63954 0.0
H2199 H 0.15294 0.65074 0.69985 0.0
H2200 H 0.08083 0.64589 0.67809 0.0
H2201 H 0.15997 0.67057 0.66095 0.0
C2202 C 0.14734 0.67824 0.64346 0.0
C2203 C 0.12793 0.67872 0.63707 0.0
C2204 C 0.09661 0.64689 0.68286 0.0
C2205 C 0.12266 0.66414 0.66287 0.0
C2206 C 0.09428 0.63919 0.69565 0.0
C2207 C 0.11445 0.64026 0.70207 0.0
C2208 C 0.11928 0.65573 0.67644 0.0
C2209 C 0.13673 0.6491 0.69526 0.0
C2210 C 0.14482 0.67107 0.65631 0.0
C2211 C 0.10621 0.67207 0.64403 0.0
N2212 N 0.13852 0.65649 0.68285 0.0
N2213 N 0.10413 0.665 0.65655 0.0
H2214 H 0.30722 0.40574 0.63324 0.0
H2215 H 0.34765 0.49245 0.69578 0.0
H2216 H 0.30686 0.4742 0.63575 0.0
H2217 H 0.34347 0.42168 0.695 0.0
H2218 H 0.3337 0.48623 0.67352 0.0
H2219 H 0.32072 0.411 0.65572 0.0
C2220 C 0.30986 0.4218 0.63853 0.0
C2221 C 0.30584 0.43952 0.63261 0.0
C2222 C 0.33588 0.47205 0.67818 0.0
C2223 C 0.32136 0.44571 0.65827 0.0
C2224 C 0.34412 0.47572 0.69087 0.0
C2225 C 0.34693 0.45764 0.69725 0.0
C2226 C 0.33038 0.45012 0.67175 0.0
C2227 C 0.34144 0.43604 0.69047 0.0
C2228 C 0.31752 0.42477 0.65136 0.0
C2229 C 0.30935 0.45987 0.63996 0.0
N2230 N 0.33345 0.43289 0.67807 0.0
N2231 N 0.31702 0.46245 0.65236 0.0
loop_
_geom_bond_atom_site_label_1
_geom_bond_atom_site_label_2
_geom_bond_distance
_geom_bond_site_symmetry_2
_ccdc_geom_bond_type
Li0 N17 1.990 . S
Li0 O60 1.956 . S
Li0 O61 1.970 . S
Li0 O62 1.961 . S
Li1 N25 1.990 . S
Li1 O60 1.970 . S
Li1 O61 1.956 . S
Li1 O63 1.961 . S
Li2 N47 1.990 . S
Li2 O60 1.961 . S
Li2 O62 1.956 . S
Li2 O63 1.970 . S
Li3 N53 1.990 . S
Li3 O61 1.961 . S
Li3 O62 1.970 . S
Li3 O63 1.956 . S
C4 C6 1.348 . S
C4 C7 1.356 . S
C4 O60 1.325 . S
N5 C8 1.314 . S
N5 C9 1.279 . S
C6 C4 1.348 . S
C6 C8 1.353 . S
C6 H64 0.929 . S
C7 C4 1.356 . S
C7 C9 1.358 . S
C7 H65 0.930 . S
C8 N5 1.314 . S
C8 C6 1.353 . S
C8 H66 0.930 . S
C9 N5 1.279 . S
C9 C7 1.358 . S
C9 H67 0.930 . S
C10 C13 1.348 . S
C10 C14 1.356 . S
C10 O61 1.325 . S
C11 N12 1.279 . S
C11 C14 1.358 . S
C11 H68 0.930 . S
N12 C11 1.279 . S
N12 C15 1.314 . S
C13 C10 1.348 . S
C13 C15 1.353 . S
C13 H69 0.929 . S
C14 C10 1.356 . S
C14 C11 1.358 . S
C14 H70 0.930 . S
C15 N12 1.314 . S
C15 C13 1.353 . S
C15 H71 0.930 . S
C16 N17 1.314 . S
C16 C21 1.353 . S
C16 H22 0.930 . S
N17 Li0 1.990 . S
N17 C16 1.314 . S
N17 C19 1.279 . S
C18 C19 1.358 . S
C18 C20 1.356 . S
C18 H72 0.930 . S
C19 N17 1.279 . S
C19 C18 1.358 . S
C19 H23 0.930 . S
C20 C18 1.356 . S
C20 C21 1.348 . S
C21 C16 1.353 . S
C21 C20 1.348 . S
C21 H73 0.929 . S
H22 C16 0.930 . S
H23 C19 0.930 . S
C24 N25 1.314 . S
C24 C26 1.353 . S
C24 H30 0.930 . S
N25 Li1 1.990 . S
N25 C24 1.314 . S
N25 C28 1.279 . S
C26 C24 1.353 . S
C26 C29 1.348 . S
C26 H74 0.929 . S
C27 C28 1.358 . S
C27 C29 1.356 . S
C27 H75 0.930 . S
C28 N25 1.279 . S
C28 C27 1.358 . S
C28 H31 0.930 . S
C29 C26 1.348 . S
C29 C27 1.356 . S
H30 C24 0.930 . S
H31 C28 0.930 . S
C32 C34 1.348 . S
C32 C35 1.356 . S
C32 O62 1.325 . S
N33 C36 1.314 . S
N33 C37 1.279 . S
C34 C32 1.348 . S
C34 C36 1.353 . S
C34 H76 0.929 . S
C35 C32 1.356 . S
C35 C37 1.358 . S
C35 H77 0.930 . S
C36 N33 1.314 . S
C36 C34 1.353 . S
C36 H78 0.930 . S
C37 N33 1.279 . S
C37 C35 1.358 . S
C37 H79 0.930 . S
C38 C39 1.348 . S
C38 C40 1.356 . S
C38 O63 1.325 . S
C39 C38 1.348 . S
C39 C41 1.353 . S
C39 H80 0.929 . S
C40 C38 1.356 . S
C40 C42 1.358 . S
C40 H81 0.930 . S
C41 C39 1.353 . S
C41 N43 1.314 . S
C41 H82 0.930 . S
C42 C40 1.358 . S
C42 N43 1.279 . S
C42 H83 0.930 . S
N43 C41 1.314 . S
N43 C42 1.279 . S
C44 C46 1.353 . S
C44 N47 1.314 . S
C44 H50 0.930 . S
C45 N47 1.279 . S
C45 C48 1.358 . S
C45 H51 0.930 . S
C46 C44 1.353 . S
C46 C49 1.348 . S
C46 H84 0.929 . S
N47 Li2 1.990 . S
N47 C44 1.314 . S
N47 C45 1.279 . S
C48 C45 1.358 . S
C48 C49 1.356 . S
C48 H85 0.930 . S
C49 C46 1.348 . S
C49 C48 1.356 . S
H50 C44 0.930 . S
H51 C45 0.930 . S
C52 N53 1.314 . S
C52 C54 1.353 . S
C52 H58 0.930 . S
N53 Li3 1.990 . S
N53 C52 1.314 . S
N53 C56 1.279 . S
C54 C52 1.353 . S
C54 C57 1.348 . S
C54 H86 0.929 . S
C55 C56 1.358 . S
C55 C57 1.356 . S
C55 H87 0.930 . S
C56 N53 1.279 . S
C56 C55 1.358 . S
C56 H59 0.930 . S
C57 C54 1.348 . S
C57 C55 1.356 . S
H58 C52 0.930 . S
H59 C56 0.930 . S
O60 Li0 1.956 . S
O60 Li1 1.970 . S
O60 Li2 1.961 . S
O60 C4 1.325 . S
O61 Li0 1.970 . S
O61 Li1 1.956 . S
O61 Li3 1.961 . S
O61 C10 1.325 . S
O62 Li0 1.961 . S
O62 Li2 1.956 . S
O62 Li3 1.970 . S
O62 C32 1.325 . S
O63 Li1 1.961 . S
O63 Li2 1.970 . S
O63 Li3 1.956 . S
O63 C38 1.325 . S
H64 C6 0.929 . S
H65 C7 0.930 . S
H66 C8 0.930 . S
H67 C9 0.930 . S
H68 C11 0.930 . S
H69 C13 0.929 . S
H70 C14 0.930 . S
H71 C15 0.930 . S
H72 C18 0.930 . S
H73 C21 0.929 . S
H74 C26 0.929 . S
H75 C27 0.930 . S
H76 C34 0.929 . S
H77 C35 0.930 . S
H78 C36 0.930 . S
H79 C37 0.930 . S
H80 C39 0.929 . S
H81 C40 0.930 . S
H82 C41 0.930 . S
H83 C42 0.930 . S
H84 C46 0.929 . S
H85 C48 0.930 . S
H86 C54 0.929 . S
H87 C55 0.930 . S
Li88 N105 1.990 . S
Li88 O148 1.956 1_545 S
Li88 O149 1.970 . S
Li88 O150 1.961 . S
Li89 N113 1.990 . S
Li89 O148 1.970 . S
Li89 O149 1.956 1_565 S
Li89 O151 1.961 . S
Li90 N135 1.991 . S
Li90 O148 1.968 . S
Li90 O150 1.948 1_565 S
Li90 O151 1.975 . S
Li91 N141 1.990 . S
Li91 O149 1.961 . S
Li91 O150 1.970 . S
Li91 O151 1.956 1_545 S
C92 C94 1.348 . S
C92 C95 1.356 1_565 S
C92 O148 1.325 . S
N93 C96 1.314 . S
N93 C97 1.279 1_565 S
C94 C92 1.348 . S
C94 C96 1.353 . S
C94 H152 0.929 . S
C95 C92 1.356 1_545 S
C95 C97 1.358 . S
C95 H153 0.930 . S
C96 N93 1.314 . S
C96 C94 1.353 . S
C96 H154 0.930 . S
C97 N93 1.279 1_545 S
C97 C95 1.358 . S
C97 H155 0.930 . S
C98 C101 1.348 . S
C98 C102 1.356 1_545 S
C98 O149 1.325 . S
C99 N100 1.279 1_565 S
C99 C102 1.358 . S
C99 H156 0.930 . S
N100 C99 1.279 1_545 S
N100 C103 1.314 . S
C101 C98 1.348 . S
C101 C103 1.353 . S
C101 H157 0.929 . S
C102 C98 1.356 1_565 S
C102 C99 1.358 . S
C102 H158 0.930 . S
C103 N100 1.314 . S
C103 C101 1.353 . S
C103 H159 0.930 . S
C104 N105 1.314 . S
C104 C109 1.353 . S
C104 H110 0.930 . S
N105 Li88 1.990 . S
N105 C104 1.314 . S
N105 C107 1.279 . S
C106 C107 1.358 . S
C106 C108 1.356 . S
C106 H160 0.930 . S
C107 N105 1.279 . S
C107 C106 1.358 . S
C107 H111 0.930 . S
C108 C106 1.356 . S
C108 C109 1.348 . S
C109 C104 1.353 . S
C109 C108 1.348 . S
C109 H161 0.929 . S
H110 C104 0.930 . S
H111 C107 0.930 . S
C112 N113 1.314 . S
C112 C114 1.353 . S
C112 H118 0.930 . S
N113 Li89 1.990 . S
N113 C112 1.314 . S
N113 C116 1.279 . S
C114 C112 1.353 . S
C114 C117 1.348 . S
C114 H162 0.929 . S
C115 C116 1.358 . S
C115 C117 1.356 . S
C115 H163 0.930 . S
C116 N113 1.279 . S
C116 C115 1.358 . S
C116 H119 0.930 . S
C117 C114 1.348 . S
C117 C115 1.356 . S
H118 C112 0.930 . S
H119 C116 0.930 . S
C120 C122 1.348 . S
C120 C123 1.356 . S
C120 O150 1.325 . S
N121 C124 1.314 . S
N121 C125 1.279 . S
C122 C120 1.348 . S
C122 C124 1.353 . S
C122 H164 0.929 . S
C123 C120 1.356 . S
C123 C125 1.358 . S
C123 H165 0.930 . S
C124 N121 1.314 . S
C124 C122 1.353 . S
C124 H166 0.930 . S
C125 N121 1.279 . S
C125 C123 1.358 . S
C125 H167 0.930 . S
C126 C127 1.348 . S
C126 C128 1.356 . S
C126 O151 1.325 . S
C127 C126 1.348 . S
C127 C129 1.353 . S
C127 H168 0.929 . S
C128 C126 1.356 . S
C128 C130 1.358 . S
C128 H169 0.930 . S
C129 C127 1.353 . S
C129 N131 1.314 . S
C129 H170 0.930 . S
C130 C128 1.358 . S
C130 N131 1.279 . S
C130 H171 0.930 . S
N131 C129 1.314 . S
N131 C130 1.279 . S
C132 C134 1.353 . S
C132 N135 1.326 . S
C132 H138 0.930 . S
C133 N135 1.266 1_545 S
C133 C136 1.358 . S
C133 H139 0.930 . S
C134 C132 1.353 . S
C134 C137 1.348 . S
C134 H172 0.929 . S
N135 Li90 1.991 . S
N135 C132 1.326 . S
N135 C133 1.266 1_565 S
C136 C133 1.358 . S
C136 C137 1.356 1_545 S
C136 H173 0.930 . S
C137 C134 1.348 . S
C137 C136 1.356 1_565 S
H138 C132 0.930 . S
H139 C133 0.930 . S
C140 N141 1.314 . S
C140 C142 1.353 . S
C140 H146 0.930 . S
N141 Li91 1.990 . S
N141 C140 1.314 . S
N141 C144 1.279 1_545 S
C142 C140 1.353 . S
C142 C145 1.348 . S
C142 H174 0.929 . S
C143 C144 1.371 . S
C143 C145 1.342 1_565 S
C143 H175 0.931 . S
C144 N141 1.279 1_565 S
C144 C143 1.371 . S
C144 H147 0.930 . S
C145 C142 1.348 . S
C145 C143 1.342 1_545 S
H146 C140 0.930 . S
H147 C144 0.930 . S
O148 Li88 1.956 1_565 S
O148 Li89 1.970 . S
O148 Li90 1.968 . S
O148 C92 1.325 . S
O149 Li88 1.970 . S
O149 Li89 1.956 1_545 S
O149 Li91 1.961 . S
O149 C98 1.325 . S
O150 Li88 1.961 . S
O150 Li90 1.948 1_545 S
O150 Li91 1.970 . S
O150 C120 1.325 . S
O151 Li89 1.961 . S
O151 Li90 1.975 . S
O151 Li91 1.956 1_565 S
O151 C126 1.325 . S
H152 C94 0.929 . S
H153 C95 0.930 . S
H154 C96 0.930 . S
H155 C97 0.930 . S
H156 C99 0.930 . S
H157 C101 0.929 . S
H158 C102 0.930 . S
H159 C103 0.930 . S
H160 C106 0.930 . S
H161 C109 0.929 . S
H162 C114 0.929 . S
H163 C115 0.930 . S
H164 C122 0.929 . S
H165 C123 0.930 . S
H166 C124 0.930 . S
H167 C125 0.930 . S
H168 C127 0.929 . S
H169 C128 0.930 . S
H170 C129 0.930 . S
H171 C130 0.930 . S
H172 C134 0.929 . S
H173 C136 0.930 . S
H174 C142 0.929 . S
H175 C143 0.931 . S
Li176 N193 1.990 . S
Li176 O236 1.956 1_655 S
Li176 O237 1.970 . S
Li176 O238 1.961 . S
Li177 N201 1.990 . S
Li177 O236 1.970 . S
Li177 O237 1.956 1_455 S
Li177 O239 1.961 . S
Li178 N223 1.990 . S
Li178 O236 1.958 . S
Li178 O238 1.951 1_455 S
Li178 O239 1.977 . S
Li179 N229 1.990 . S
Li179 O237 1.961 . S
Li179 O238 1.970 . S
Li179 O239 1.956 1_655 S
C180 C182 1.348 . S
C180 C183 1.356 1_455 S
C180 O236 1.325 . S
N181 C184 1.314 . S
N181 C185 1.279 1_455 S
C182 C180 1.348 . S
C182 C184 1.353 . S
C182 H240 0.929 . S
C183 C180 1.356 1_655 S
C183 C185 1.358 . S
C183 H241 0.930 . S
C184 N181 1.314 . S
C184 C182 1.353 . S
C184 H242 0.930 . S
C185 N181 1.279 1_655 S
C185 C183 1.358 . S
C185 H243 0.930 . S
C186 C189 1.348 . S
C186 C190 1.356 1_655 S
C186 O237 1.325 . S
C187 N188 1.279 1_455 S
C187 C190 1.358 . S
C187 H244 0.930 . S
N188 C187 1.279 1_655 S
N188 C191 1.314 . S
C189 C186 1.348 . S
C189 C191 1.353 . S
C189 H245 0.929 . S
C190 C186 1.356 1_455 S
C190 C187 1.358 . S
C190 H246 0.930 . S
C191 N188 1.314 . S
C191 C189 1.353 . S
C191 H247 0.930 . S
C192 N193 1.314 . S
C192 C197 1.353 . S
C192 H198 0.930 . S
N193 Li176 1.990 . S
N193 C192 1.314 . S
N193 C195 1.279 . S
C194 C195 1.358 . S
C194 C196 1.356 . S
C194 H248 0.930 . S
C195 N193 1.279 . S
C195 C194 1.358 . S
C195 H199 0.930 . S
C196 C194 1.356 . S
C196 C197 1.348 . S
C197 C192 1.353 . S
C197 C196 1.348 . S
C197 H249 0.929 . S
H198 C192 0.930 . S
H199 C195 0.930 . S
C200 N201 1.314 . S
C200 C202 1.353 . S
C200 H206 0.930 . S
N201 Li177 1.990 . S
N201 C200 1.314 . S
N201 C204 1.279 . S
C202 C200 1.353 . S
C202 C205 1.348 . S
C202 H250 0.929 . S
C203 C204 1.358 . S
C203 C205 1.356 . S
C203 H251 0.930 . S
C204 N201 1.279 . S
C204 C203 1.358 . S
C204 H207 0.930 . S
C205 C202 1.348 . S
C205 C203 1.356 . S
H206 C200 0.930 . S
H207 C204 0.930 . S
C208 C210 1.348 . S
C208 C211 1.356 . S
C208 O238 1.325 . S
N209 C212 1.314 . S
N209 C213 1.279 . S
C210 C208 1.348 . S
C210 C212 1.353 . S
C210 H252 0.929 . S
C211 C208 1.356 . S
C211 C213 1.358 . S
C211 H253 0.930 . S
C212 N209 1.314 . S
C212 C210 1.353 . S
C212 H254 0.930 . S
C213 N209 1.279 . S
C213 C211 1.358 . S
C213 H255 0.930 . S
C214 C215 1.348 . S
C214 C216 1.356 . S
C214 O239 1.325 . S
C215 C214 1.348 . S
C215 C217 1.353 . S
C215 H256 0.929 . S
C216 C214 1.356 . S
C216 C218 1.358 . S
C216 H257 0.930 . S
C217 C215 1.353 . S
C217 N219 1.314 . S
C217 H258 0.930 . S
C218 C216 1.358 . S
C218 N219 1.279 . S
C218 H259 0.930 . S
N219 C217 1.314 . S
N219 C218 1.279 . S
C220 C222 1.353 . S
C220 N223 1.319 . S
C220 H226 0.930 . S
C221 N223 1.277 1_655 S
C221 C224 1.358 . S
C221 H227 0.930 . S
C222 C220 1.353 . S
C222 C225 1.348 . S
C222 H260 0.929 . S
N223 Li178 1.990 . S
N223 C220 1.319 . S
N223 C221 1.277 1_455 S
C224 C221 1.358 . S
C224 C225 1.356 1_655 S
C224 H261 0.930 . S
C225 C222 1.348 . S
C225 C224 1.356 1_455 S
H226 C220 0.930 . S
H227 C221 0.930 . S
C228 N229 1.314 . S
C228 C230 1.353 . S
C228 H234 0.930 . S
N229 Li179 1.990 . S
N229 C228 1.314 . S
N229 C232 1.279 1_655 S
C230 C228 1.353 . S
C230 C233 1.348 . S
C230 H262 0.929 . S
C231 C232 1.363 1_655 S
C231 C233 1.367 . S
C231 H263 0.914 1_655 S
C232 N229 1.279 1_455 S
C232 C231 1.363 1_455 S
C232 H235 0.930 . S
C233 C230 1.348 . S
C233 C231 1.367 . S
H234 C228 0.930 . S
H235 C232 0.930 . S
O236 Li176 1.956 1_455 S
O236 Li177 1.970 . S
O236 Li178 1.958 . S
O236 C180 1.325 . S
O237 Li176 1.970 . S
O237 Li177 1.956 1_655 S
O237 Li179 1.961 . S
O237 C186 1.325 . S
O238 Li176 1.961 . S
O238 Li178 1.951 1_655 S
O238 Li179 1.970 . S
O238 C208 1.325 . S
O239 Li177 1.961 . S
O239 Li178 1.977 . S
O239 Li179 1.956 1_455 S
O239 C214 1.325 . S
H240 C182 0.929 . S
H241 C183 0.930 . S
H242 C184 0.930 . S
H243 C185 0.930 . S
H244 C187 0.930 . S
H245 C189 0.929 . S
H246 C190 0.930 . S
H247 C191 0.930 . S
H248 C194 0.930 . S
H249 C197 0.929 . S
H250 C202 0.929 . S
H251 C203 0.930 . S
H252 C210 0.929 . S
H253 C211 0.930 . S
H254 C212 0.930 . S
H255 C213 0.930 . S
H256 C215 0.929 . S
H257 C216 0.930 . S
H258 C217 0.930 . S
H259 C218 0.930 . S
H260 C222 0.929 . S
H261 C224 0.930 . S
H262 C230 0.929 . S
H263 C231 0.914 1_455 S
Li264 N281 1.990 . S
Li264 O324 1.956 . S
Li264 O325 1.970 . S
Li264 O326 1.961 . S
Li265 N289 1.990 . S
Li265 O324 1.970 . S
Li265 O325 1.956 . S
Li265 O327 1.961 . S
Li266 N311 1.990 . S
Li266 O324 1.961 . S
Li266 O326 1.956 . S
Li266 O327 1.970 . S
Li267 N317 1.990 . S
Li267 O325 1.961 . S
Li267 O326 1.970 . S
Li267 O327 1.956 . S
C268 C270 1.348 . S
C268 C271 1.356 . S
C268 O324 1.325 . S
N269 C272 1.314 . S
N269 C273 1.279 . S
C270 C268 1.348 . S
C270 C272 1.353 . S
C270 H328 0.929 . S
C271 C268 1.356 . S
C271 C273 1.358 . S
C271 H329 0.930 . S
C272 N269 1.314 . S
C272 C270 1.353 . S
C272 H330 0.930 . S
C273 N269 1.279 . S
C273 C271 1.358 . S
C273 H331 0.930 . S
C274 C277 1.348 . S
C274 C278 1.356 . S
C274 O325 1.325 . S
C275 N276 1.279 . S
C275 C278 1.358 . S
C275 H332 0.930 . S
N276 C275 1.279 . S
N276 C279 1.314 . S
C277 C274 1.348 . S
C277 C279 1.353 . S
C277 H333 0.929 . S
C278 C274 1.356 . S
C278 C275 1.358 . S
C278 H334 0.930 . S
C279 N276 1.314 . S
C279 C277 1.353 . S
C279 H335 0.930 . S
C280 N281 1.314 . S
C280 C285 1.353 . S
C280 H286 0.930 . S
N281 Li264 1.990 . S
N281 C280 1.314 . S
N281 C283 1.279 . S
C282 C283 1.358 . S
C282 C284 1.356 . S
C282 H336 0.930 . S
C283 N281 1.279 . S
C283 C282 1.358 . S
C283 H287 0.930 . S
C284 C282 1.356 . S
C284 C285 1.348 . S
C285 C280 1.353 . S
C285 C284 1.348 . S
C285 H337 0.929 . S
H286 C280 0.930 . S
H287 C283 0.930 . S
C288 N289 1.314 . S
C288 C290 1.353 . S
C288 H294 0.930 . S
N289 Li265 1.990 . S
N289 C288 1.314 . S
N289 C292 1.279 . S
C290 C288 1.353 . S
C290 C293 1.348 . S
C290 H338 0.929 . S
C291 C292 1.358 . S
C291 C293 1.356 . S
C291 H339 0.930 . S
C292 N289 1.279 . S
C292 C291 1.358 . S
C292 H295 0.930 . S
C293 C290 1.348 . S
C293 C291 1.356 . S
H294 C288 0.930 . S
H295 C292 0.930 . S
C296 C298 1.348 . S
C296 C299 1.356 . S
C296 O326 1.325 . S
N297 C300 1.314 . S
N297 C301 1.279 . S
C298 C296 1.348 . S
C298 C300 1.353 . S
C298 H340 0.929 . S
C299 C296 1.356 . S
C299 C301 1.358 . S
C299 H341 0.930 . S
C300 N297 1.314 . S
C300 C298 1.353 . S
C300 H342 0.930 . S
C301 N297 1.279 . S
C301 C299 1.358 . S
C301 H343 0.930 . S
C302 C303 1.348 . S
C302 C304 1.356 . S
C302 O327 1.325 . S
C303 C302 1.348 . S
C303 C305 1.353 . S
C303 H344 0.929 . S
C304 C302 1.356 . S
C304 C306 1.358 . S
C304 H345 0.930 . S
C305 C303 1.353 . S
C305 N307 1.314 . S
C305 H346 0.930 . S
C306 C304 1.358 . S
C306 N307 1.279 . S
C306 H347 0.930 . S
N307 C305 1.314 . S
N307 C306 1.279 . S
C308 C310 1.353 . S
C308 N311 1.314 . S
C308 H314 0.930 . S
C309 N311 1.279 . S
C309 C312 1.358 . S
C309 H315 0.930 . S
C310 C308 1.353 . S
C310 C313 1.348 . S
C310 H348 0.929 . S
N311 Li266 1.990 . S
N311 C308 1.314 . S
N311 C309 1.279 . S
C312 C309 1.358 . S
C312 C313 1.356 . S
C312 H349 0.930 . S
C313 C310 1.348 . S
C313 C312 1.356 . S
H314 C308 0.930 . S
H315 C309 0.930 . S
C316 N317 1.314 . S
C316 C318 1.353 . S
C316 H322 0.930 . S
N317 Li267 1.990 . S
N317 C316 1.314 . S
N317 C320 1.279 . S
C318 C316 1.353 . S
C318 C321 1.348 . S
C318 H350 0.929 . S
C319 C320 1.358 . S
C319 C321 1.356 . S
C319 H351 0.930 . S
C320 N317 1.279 . S
C320 C319 1.358 . S
C320 H323 0.930 . S
C321 C318 1.348 . S
C321 C319 1.356 . S
H322 C316 0.930 . S
H323 C320 0.930 . S
O324 Li264 1.956 . S
O324 Li265 1.970 . S
O324 Li266 1.961 . S
O324 C268 1.325 . S
O325 Li264 1.970 . S
O325 Li265 1.956 . S
O325 Li267 1.961 . S
O325 C274 1.325 . S
O326 Li264 1.961 . S
O326 Li266 1.956 . S
O326 Li267 1.970 . S
O326 C296 1.325 . S
O327 Li265 1.961 . S
O327 Li266 1.970 . S
O327 Li267 1.956 . S
O327 C302 1.325 . S
H328 C270 0.929 . S
H329 C271 0.930 . S
H330 C272 0.930 . S
H331 C273 0.930 . S
H332 C275 0.930 . S
H333 C277 0.929 . S
H334 C278 0.930 . S
H335 C279 0.930 . S
H336 C282 0.930 . S
H337 C285 0.929 . S
H338 C290 0.929 . S
H339 C291 0.930 . S
H340 C298 0.929 . S
H341 C299 0.930 . S
H342 C300 0.930 . S
H343 C301 0.930 . S
H344 C303 0.929 . S
H345 C304 0.930 . S
H346 C305 0.930 . S
H347 C306 0.930 . S
H348 C310 0.929 . S
H349 C312 0.930 . S
H350 C318 0.929 . S
H351 C319 0.930 . S
Li352 N369 1.990 . S
Li352 O412 1.956 1_565 S
Li352 O413 1.970 . S
Li352 O414 1.961 . S
Li353 N377 1.990 . S
Li353 O412 1.977 . S
Li353 O413 1.951 1_545 S
Li353 O415 1.958 . S
Li354 N399 1.990 . S
Li354 O412 1.961 . S
Li354 O414 1.956 1_545 S
Li354 O415 1.970 . S
Li355 N405 1.990 . S
Li355 O413 1.961 . S
Li355 O414 1.970 . S
Li355 O415 1.956 1_565 S
C356 C358 1.348 . S
C356 C359 1.356 . S
C356 O412 1.325 . S
N357 C360 1.314 . S
N357 C361 1.279 . S
C358 C356 1.348 . S
C358 C360 1.353 . S
C358 H416 0.929 . S
C359 C356 1.356 . S
C359 C361 1.358 . S
C359 H417 0.930 . S
C360 N357 1.314 . S
C360 C358 1.353 . S
C360 H418 0.930 . S
C361 N357 1.279 . S
C361 C359 1.358 . S
C361 H419 0.930 . S
C362 C365 1.348 . S
C362 C366 1.356 . S
C362 O413 1.325 . S
C363 N364 1.279 . S
C363 C366 1.358 . S
C363 H420 0.930 . S
N364 C363 1.279 . S
N364 C367 1.314 . S
C365 C362 1.348 . S
C365 C367 1.353 . S
C365 H421 0.929 . S
C366 C362 1.356 . S
C366 C363 1.358 . S
C366 H422 0.930 . S
C367 N364 1.314 . S
C367 C365 1.353 . S
C367 H423 0.930 . S
C368 N369 1.314 . S
C368 C373 1.353 . S
C368 H374 0.930 . S
N369 Li352 1.990 . S
N369 C368 1.314 . S
N369 C371 1.279 1_565 S
C370 C371 1.363 1_565 S
C370 C372 1.367 . S
C370 H424 0.914 1_565 S
C371 N369 1.279 1_545 S
C371 C370 1.363 1_545 S
C371 H375 0.930 . S
C372 C370 1.367 . S
C372 C373 1.348 . S
C373 C368 1.353 . S
C373 C372 1.348 . S
C373 H425 0.929 . S
H374 C368 0.930 . S
H375 C371 0.930 . S
C376 N377 1.319 . S
C376 C378 1.353 . S
C376 H382 0.930 . S
N377 Li353 1.990 . S
N377 C376 1.319 . S
N377 C380 1.277 1_545 S
C378 C376 1.353 . S
C378 C381 1.348 . S
C378 H426 0.929 . S
C379 C380 1.358 . S
C379 C381 1.356 1_565 S
C379 H427 0.930 . S
C380 N377 1.277 1_565 S
C380 C379 1.358 . S
C380 H383 0.930 . S
C381 C378 1.348 . S
C381 C379 1.356 1_545 S
H382 C376 0.930 . S
H383 C380 0.930 . S
C384 C386 1.348 . S
C384 C387 1.356 1_565 S
C384 O414 1.325 . S
N385 C388 1.314 . S
N385 C389 1.279 1_565 S
C386 C384 1.348 . S
C386 C388 1.353 . S
C386 H428 0.929 . S
C387 C384 1.356 1_545 S
C387 C389 1.358 . S
C387 H429 0.930 . S
C388 N385 1.314 . S
C388 C386 1.353 . S
C388 H430 0.930 . S
C389 N385 1.279 1_545 S
C389 C387 1.358 . S
C389 H431 0.930 . S
C390 C391 1.348 . S
C390 C392 1.356 1_545 S
C390 O415 1.325 . S
C391 C390 1.348 . S
C391 C393 1.353 . S
C391 H432 0.929 . S
C392 C390 1.356 1_565 S
C392 C394 1.358 . S
C392 H433 0.930 . S
C393 C391 1.353 . S
C393 N395 1.314 . S
C393 H434 0.930 . S
C394 C392 1.358 . S
C394 N395 1.279 1_565 S
C394 H435 0.930 . S
N395 C393 1.314 . S
N395 C394 1.279 1_545 S
C396 C398 1.353 . S
C396 N399 1.314 . S
C396 H402 0.930 . S
C397 N399 1.279 . S
C397 C400 1.358 . S
C397 H403 0.930 . S
C398 C396 1.353 . S
C398 C401 1.348 . S
C398 H436 0.929 . S
N399 Li354 1.990 . S
N399 C396 1.314 . S
N399 C397 1.279 . S
C400 C397 1.358 . S
C400 C401 1.356 . S
C400 H437 0.930 . S
C401 C398 1.348 . S
C401 C400 1.356 . S
H402 C396 0.930 . S
H403 C397 0.930 . S
C404 N405 1.314 . S
C404 C406 1.353 . S
C404 H410 0.930 . S
N405 Li355 1.990 . S
N405 C404 1.314 . S
N405 C408 1.279 . S
C406 C404 1.353 . S
C406 C409 1.348 . S
C406 H438 0.929 . S
C407 C408 1.358 . S
C407 C409 1.356 . S
C407 H439 0.930 . S
C408 N405 1.279 . S
C408 C407 1.358 . S
C408 H411 0.930 . S
C409 C406 1.348 . S
C409 C407 1.356 . S
H410 C404 0.930 . S
H411 C408 0.930 . S
O412 Li352 1.956 1_545 S
O412 Li353 1.977 . S
O412 Li354 1.961 . S
O412 C356 1.325 . S
O413 Li352 1.970 . S
O413 Li353 1.951 1_565 S
O413 Li355 1.961 . S
O413 C362 1.325 . S
O414 Li352 1.961 . S
O414 Li354 1.956 1_565 S
O414 Li355 1.970 . S
O414 C384 1.325 . S
O415 Li353 1.958 . S
O415 Li354 1.970 . S
O415 Li355 1.956 1_545 S
O415 C390 1.325 . S
H416 C358 0.929 . S
H417 C359 0.930 . S
H418 C360 0.930 . S
H419 C361 0.930 . S
H420 C363 0.930 . S
H421 C365 0.929 . S
H422 C366 0.930 . S
H423 C367 0.930 . S
H424 C370 0.914 1_545 S
H425 C373 0.929 . S
H426 C378 0.929 . S
H427 C379 0.930 . S
H428 C386 0.929 . S
H429 C387 0.930 . S
H430 C388 0.930 . S
H431 C389 0.930 . S
H432 C391 0.929 . S
H433 C392 0.930 . S
H434 C393 0.930 . S
H435 C394 0.930 . S
H436 C398 0.929 . S
H437 C400 0.930 . S
H438 C406 0.929 . S
H439 C407 0.930 . S
Li440 N457 1.990 . S
Li440 O500 1.956 1_455 S
Li440 O501 1.970 . S
Li440 O502 1.961 . S
Li441 N465 1.990 . S
Li441 O500 1.970 . S
Li441 O501 1.956 1_655 S
Li441 O503 1.961 . S
Li442 N487 1.991 . S
Li442 O500 1.968 . S
Li442 O502 1.948 1_655 S
Li442 O503 1.975 . S
Li443 N493 1.990 . S
Li443 O501 1.961 . S
Li443 O502 1.970 . S
Li443 O503 1.956 1_455 S
C444 C446 1.348 . S
C444 C447 1.356 1_655 S
C444 O500 1.325 . S
N445 C448 1.314 . S
N445 C449 1.279 1_655 S
C446 C444 1.348 . S
C446 C448 1.353 . S
C446 H504 0.929 . S
C447 C444 1.356 1_455 S
C447 C449 1.358 . S
C447 H505 0.930 . S
C448 N445 1.314 . S
C448 C446 1.353 . S
C448 H506 0.930 . S
C449 N445 1.279 1_455 S
C449 C447 1.358 . S
C449 H507 0.930 . S
C450 C453 1.348 . S
C450 C454 1.356 1_455 S
C450 O501 1.325 . S
C451 N452 1.279 1_655 S
C451 C454 1.358 . S
C451 H508 0.930 . S
N452 C451 1.279 1_455 S
N452 C455 1.314 . S
C453 C450 1.348 . S
C453 C455 1.353 . S
C453 H509 0.929 . S
C454 C450 1.356 1_655 S
C454 C451 1.358 . S
C454 H510 0.930 . S
C455 N452 1.314 . S
C455 C453 1.353 . S
C455 H511 0.930 . S
C456 N457 1.314 . S
C456 C461 1.353 . S
C456 H462 0.930 . S
N457 Li440 1.990 . S
N457 C456 1.314 . S
N457 C459 1.279 . S
C458 C459 1.358 . S
C458 C460 1.356 . S
C458 H512 0.930 . S
C459 N457 1.279 . S
C459 C458 1.358 . S
C459 H463 0.930 . S
C460 C458 1.356 . S
C460 C461 1.348 . S
C461 C456 1.353 . S
C461 C460 1.348 . S
C461 H513 0.929 . S
H462 C456 0.930 . S
H463 C459 0.930 . S
C464 N465 1.314 . S
C464 C466 1.353 . S
C464 H470 0.930 . S
N465 Li441 1.990 . S
N465 C464 1.314 . S
N465 C468 1.279 . S
C466 C464 1.353 . S
C466 C469 1.348 . S
C466 H514 0.929 . S
C467 C468 1.358 . S
C467 C469 1.356 . S
C467 H515 0.930 . S
C468 N465 1.279 . S
C468 C467 1.358 . S
C468 H471 0.930 . S
C469 C466 1.348 . S
C469 C467 1.356 . S
H470 C464 0.930 . S
H471 C468 0.930 . S
C472 C474 1.348 . S
C472 C475 1.356 . S
C472 O502 1.325 . S
N473 C476 1.314 . S
N473 C477 1.279 . S
C474 C472 1.348 . S
C474 C476 1.353 . S
C474 H516 0.929 . S
C475 C472 1.356 . S
C475 C477 1.358 . S
C475 H517 0.930 . S
C476 N473 1.314 . S
C476 C474 1.353 . S
C476 H518 0.930 . S
C477 N473 1.279 . S
C477 C475 1.358 . S
C477 H519 0.930 . S
C478 C479 1.348 . S
C478 C480 1.356 . S
C478 O503 1.325 . S
C479 C478 1.348 . S
C479 C481 1.353 . S
C479 H520 0.929 . S
C480 C478 1.356 . S
C480 C482 1.358 . S
C480 H521 0.930 . S
C481 C479 1.353 . S
C481 N483 1.314 . S
C481 H522 0.930 . S
C482 C480 1.358 . S
C482 N483 1.279 . S
C482 H523 0.930 . S
N483 C481 1.314 . S
N483 C482 1.279 . S
C484 C486 1.353 . S
C484 N487 1.326 . S
C484 H490 0.930 . S
C485 N487 1.266 1_455 S
C485 C488 1.358 . S
C485 H491 0.930 . S
C486 C484 1.353 . S
C486 C489 1.348 . S
C486 H524 0.929 . S
N487 Li442 1.991 . S
N487 C484 1.326 . S
N487 C485 1.266 1_655 S
C488 C485 1.358 . S
C488 C489 1.356 1_455 S
C488 H525 0.930 . S
C489 C486 1.348 . S
C489 C488 1.356 1_655 S
H490 C484 0.930 . S
H491 C485 0.930 . S
C492 N493 1.314 . S
C492 C494 1.353 . S
C492 H498 0.930 . S
N493 Li443 1.990 . S
N493 C492 1.314 . S
N493 C496 1.279 1_455 S
C494 C492 1.353 . S
C494 C497 1.348 . S
C494 H526 0.929 . S
C495 C496 1.371 . S
C495 C497 1.342 1_655 S
C495 H527 0.931 . S
C496 N493 1.279 1_655 S
C496 C495 1.371 . S
C496 H499 0.930 . S
C497 C494 1.348 . S
C497 C495 1.342 1_455 S
H498 C492 0.930 . S
H499 C496 0.930 . S
O500 Li440 1.956 1_655 S
O500 Li441 1.970 . S
O500 Li442 1.968 . S
O500 C444 1.325 . S
O501 Li440 1.970 . S
O501 Li441 1.956 1_455 S
O501 Li443 1.961 . S
O501 C450 1.325 . S
O502 Li440 1.961 . S
O502 Li442 1.948 1_455 S
O502 Li443 1.970 . S
O502 C472 1.325 . S
O503 Li441 1.961 . S
O503 Li442 1.975 . S
O503 Li443 1.956 1_655 S
O503 C478 1.325 . S
H504 C446 0.929 . S
H505 C447 0.930 . S
H506 C448 0.930 . S
H507 C449 0.930 . S
H508 C451 0.930 . S
H509 C453 0.929 . S
H510 C454 0.930 . S
H511 C455 0.930 . S
H512 C458 0.930 . S
H513 C461 0.929 . S
H514 C466 0.929 . S
H515 C467 0.930 . S
H516 C474 0.929 . S
H517 C475 0.930 . S
H518 C476 0.930 . S
H519 C477 0.930 . S
H520 C479 0.929 . S
H521 C480 0.930 . S
H522 C481 0.930 . S
H523 C482 0.930 . S
H524 C486 0.929 . S
H525 C488 0.930 . S
H526 C494 0.929 . S
H527 C495 0.931 . S
Li528 N545 1.990 . S
Li528 O588 1.956 . S
Li528 O589 1.970 . S
Li528 O590 1.961 . S
Li529 N553 1.990 . S
Li529 O588 1.970 . S
Li529 O589 1.956 . S
Li529 O591 1.961 . S
Li530 N575 1.990 . S
Li530 O588 1.961 . S
Li530 O590 1.956 . S
Li530 O591 1.970 . S
Li531 N581 1.990 . S
Li531 O589 1.961 . S
Li531 O590 1.970 . S
Li531 O591 1.956 . S
C532 C534 1.348 . S
C532 C535 1.356 . S
C532 O588 1.325 . S
N533 C536 1.314 . S
N533 C537 1.279 . S
C534 C532 1.348 . S
C534 C536 1.353 . S
C534 H592 0.929 . S
C535 C532 1.356 . S
C535 C537 1.358 . S
C535 H593 0.930 . S
C536 N533 1.314 . S
C536 C534 1.353 . S
C536 H594 0.930 . S
C537 N533 1.279 . S
C537 C535 1.358 . S
C537 H595 0.930 . S
C538 C541 1.348 . S
C538 C542 1.356 . S
C538 O589 1.325 . S
C539 N540 1.279 . S
C539 C542 1.358 . S
C539 H596 0.930 . S
N540 C539 1.279 . S
N540 C543 1.314 . S
C541 C538 1.348 . S
C541 C543 1.353 . S
C541 H597 0.929 . S
C542 C538 1.356 . S
C542 C539 1.358 . S
C542 H598 0.930 . S
C543 N540 1.314 . S
C543 C541 1.353 . S
C543 H599 0.930 . S
C544 N545 1.314 . S
C544 C549 1.353 . S
C544 H550 0.930 . S
N545 Li528 1.990 . S
N545 C544 1.314 . S
N545 C547 1.279 . S
C546 C547 1.358 . S
C546 C548 1.356 . S
C546 H600 0.930 . S
C547 N545 1.279 . S
C547 C546 1.358 . S
C547 H551 0.930 . S
C548 C546 1.356 . S
C548 C549 1.348 . S
C549 C544 1.353 . S
C549 C548 1.348 . S
C549 H601 0.929 . S
H550 C544 0.930 . S
H551 C547 0.930 . S
C552 N553 1.314 . S
C552 C554 1.353 . S
C552 H558 0.930 . S
N553 Li529 1.990 . S
N553 C552 1.314 . S
N553 C556 1.279 . S
C554 C552 1.353 . S
C554 C557 1.348 . S
C554 H602 0.929 . S
C555 C556 1.358 . S
C555 C557 1.356 . S
C555 H603 0.930 . S
C556 N553 1.279 . S
C556 C555 1.358 . S
C556 H559 0.930 . S
C557 C554 1.348 . S
C557 C555 1.356 . S
H558 C552 0.930 . S
H559 C556 0.930 . S
C560 C562 1.348 . S
C560 C563 1.356 . S
C560 O590 1.325 . S
N561 C564 1.314 . S
N561 C565 1.279 . S
C562 C560 1.348 . S
C562 C564 1.353 . S
C562 H604 0.929 . S
C563 C560 1.356 . S
C563 C565 1.358 . S
C563 H605 0.930 . S
C564 N561 1.314 . S
C564 C562 1.353 . S
C564 H606 0.930 . S
C565 N561 1.279 . S
C565 C563 1.358 . S
C565 H607 0.930 . S
C566 C567 1.348 . S
C566 C568 1.356 . S
C566 O591 1.325 . S
C567 C566 1.348 . S
C567 C569 1.353 . S
C567 H608 0.929 . S
C568 C566 1.356 . S
C568 C570 1.358 . S
C568 H609 0.930 . S
C569 C567 1.353 . S
C569 N571 1.314 . S
C569 H610 0.930 . S
C570 C568 1.358 . S
C570 N571 1.279 . S
C570 H611 0.930 . S
N571 C569 1.314 . S
N571 C570 1.279 . S
C572 C574 1.353 . S
C572 N575 1.314 . S
C572 H578 0.930 . S
C573 N575 1.279 . S
C573 C576 1.358 . S
C573 H579 0.930 . S
C574 C572 1.353 . S
C574 C577 1.348 . S
C574 H612 0.929 . S
N575 Li530 1.990 . S
N575 C572 1.314 . S
N575 C573 1.279 . S
C576 C573 1.358 . S
C576 C577 1.356 . S
C576 H613 0.930 . S
C577 C574 1.348 . S
C577 C576 1.356 . S
H578 C572 0.930 . S
H579 C573 0.930 . S
C580 N581 1.314 . S
C580 C582 1.353 . S
C580 H586 0.930 . S
N581 Li531 1.990 . S
N581 C580 1.314 . S
N581 C584 1.279 . S
C582 C580 1.353 . S
C582 C585 1.348 . S
C582 H614 0.929 . S
C583 C584 1.358 . S
C583 C585 1.356 . S
C583 H615 0.930 . S
C584 N581 1.279 . S
C584 C583 1.358 . S
C584 H587 0.930 . S
C585 C582 1.348 . S
C585 C583 1.356 . S
H586 C580 0.930 . S
H587 C584 0.930 . S
O588 Li528 1.956 . S
O588 Li529 1.970 . S
O588 Li530 1.961 . S
O588 C532 1.325 . S
O589 Li528 1.970 . S
O589 Li529 1.956 . S
O589 Li531 1.961 . S
O589 C538 1.325 . S
O590 Li528 1.961 . S
O590 Li530 1.956 . S
O590 Li531 1.970 . S
O590 C560 1.325 . S
O591 Li529 1.961 . S
O591 Li530 1.970 . S
O591 Li531 1.956 . S
O591 C566 1.325 . S
H592 C534 0.929 . S
H593 C535 0.930 . S
H594 C536 0.930 . S
H595 C537 0.930 . S
H596 C539 0.930 . S
H597 C541 0.929 . S
H598 C542 0.930 . S
H599 C543 0.930 . S
H600 C546 0.930 . S
H601 C549 0.929 . S
H602 C554 0.929 . S
H603 C555 0.930 . S
H604 C562 0.929 . S
H605 C563 0.930 . S
H606 C564 0.930 . S
H607 C565 0.930 . S
H608 C567 0.929 . S
H609 C568 0.930 . S
H610 C569 0.930 . S
H611 C570 0.930 . S
H612 C574 0.929 . S
H613 C576 0.930 . S
H614 C582 0.929 . S
H615 C583 0.930 . S
Li616 N633 1.990 . S
Li616 O676 1.956 . S
Li616 O677 1.970 . S
Li616 O678 1.961 . S
Li617 N641 1.990 . S
Li617 O676 1.970 . S
Li617 O677 1.956 . S
Li617 O679 1.961 . S
Li618 N663 1.990 . S
Li618 O676 1.961 . S
Li618 O678 1.956 . S
Li618 O679 1.970 . S
Li619 N669 1.990 . S
Li619 O677 1.961 . S
Li619 O678 1.970 . S
Li619 O679 1.956 . S
C620 C622 1.348 . S
C620 C623 1.356 . S
C620 O676 1.325 . S
N621 C624 1.314 . S
N621 C625 1.279 . S
C622 C620 1.348 . S
C622 C624 1.353 . S
C622 H680 0.929 . S
C623 C620 1.356 . S
C623 C625 1.358 . S
C623 H681 0.930 . S
C624 N621 1.314 . S
C624 C622 1.353 . S
C624 H682 0.930 . S
C625 N621 1.279 . S
C625 C623 1.358 . S
C625 H683 0.930 . S
C626 C629 1.348 . S
C626 C630 1.356 . S
C626 O677 1.325 . S
C627 N628 1.279 . S
C627 C630 1.358 . S
C627 H684 0.930 . S
N628 C627 1.279 . S
N628 C631 1.314 . S
C629 C626 1.348 . S
C629 C631 1.353 . S
C629 H685 0.929 . S
C630 C626 1.356 . S
C630 C627 1.358 . S
C630 H686 0.930 . S
C631 N628 1.314 . S
C631 C629 1.353 . S
C631 H687 0.930 . S
C632 N633 1.314 . S
C632 C637 1.353 . S
C632 H638 0.930 . S
N633 Li616 1.990 . S
N633 C632 1.314 . S
N633 C635 1.279 . S
C634 C635 1.358 . S
C634 C636 1.356 . S
C634 H688 0.930 . S
C635 N633 1.279 . S
C635 C634 1.358 . S
C635 H639 0.930 . S
C636 C634 1.356 . S
C636 C637 1.348 . S
C637 C632 1.353 . S
C637 C636 1.348 . S
C637 H689 0.929 . S
H638 C632 0.930 . S
H639 C635 0.930 . S
C640 N641 1.314 . S
C640 C642 1.353 . S
C640 H646 0.930 . S
N641 Li617 1.990 . S
N641 C640 1.314 . S
N641 C644 1.279 . S
C642 C640 1.353 . S
C642 C645 1.348 . S
C642 H690 0.929 . S
C643 C644 1.358 . S
C643 C645 1.356 . S
C643 H691 0.930 . S
C644 N641 1.279 . S
C644 C643 1.358 . S
C644 H647 0.930 . S
C645 C642 1.348 . S
C645 C643 1.356 . S
H646 C640 0.930 . S
H647 C644 0.930 . S
C648 C650 1.348 . S
C648 C651 1.356 . S
C648 O678 1.325 . S
N649 C652 1.314 . S
N649 C653 1.279 . S
C650 C648 1.348 . S
C650 C652 1.353 . S
C650 H692 0.929 . S
C651 C648 1.356 . S
C651 C653 1.358 . S
C651 H693 0.930 . S
C652 N649 1.314 . S
C652 C650 1.353 . S
C652 H694 0.930 . S
C653 N649 1.279 . S
C653 C651 1.358 . S
C653 H695 0.930 . S
C654 C655 1.348 . S
C654 C656 1.356 . S
C654 O679 1.325 . S
C655 C654 1.348 . S
C655 C657 1.353 . S
C655 H696 0.929 . S
C656 C654 1.356 . S
C656 C658 1.358 . S
C656 H697 0.930 . S
C657 C655 1.353 . S
C657 N659 1.314 . S
C657 H698 0.930 . S
C658 C656 1.358 . S
C658 N659 1.279 . S
C658 H699 0.930 . S
N659 C657 1.314 . S
N659 C658 1.279 . S
C660 C662 1.353 . S
C660 N663 1.314 . S
C660 H666 0.930 . S
C661 N663 1.279 . S
C661 C664 1.358 . S
C661 H667 0.930 . S
C662 C660 1.353 . S
C662 C665 1.348 . S
C662 H700 0.929 . S
N663 Li618 1.990 . S
N663 C660 1.314 . S
N663 C661 1.279 . S
C664 C661 1.358 . S
C664 C665 1.356 . S
C664 H701 0.930 . S
C665 C662 1.348 . S
C665 C664 1.356 . S
H666 C660 0.930 . S
H667 C661 0.930 . S
C668 N669 1.314 . S
C668 C670 1.353 . S
C668 H674 0.930 . S
N669 Li619 1.990 . S
N669 C668 1.314 . S
N669 C672 1.279 . S
C670 C668 1.353 . S
C670 C673 1.348 . S
C670 H702 0.929 . S
C671 C672 1.358 . S
C671 C673 1.356 . S
C671 H703 0.930 . S
C672 N669 1.279 . S
C672 C671 1.358 . S
C672 H675 0.930 . S
C673 C670 1.348 . S
C673 C671 1.356 . S
H674 C668 0.930 . S
H675 C672 0.930 . S
O676 Li616 1.956 . S
O676 Li617 1.970 . S
O676 Li618 1.961 . S
O676 C620 1.325 . S
O677 Li616 1.970 . S
O677 Li617 1.956 . S
O677 Li619 1.961 . S
O677 C626 1.325 . S
O678 Li616 1.961 . S
O678 Li618 1.956 . S
O678 Li619 1.970 . S
O678 C648 1.325 . S
O679 Li617 1.961 . S
O679 Li618 1.970 . S
O679 Li619 1.956 . S
O679 C654 1.325 . S
H680 C622 0.929 . S
H681 C623 0.930 . S
H682 C624 0.930 . S
H683 C625 0.930 . S
H684 C627 0.930 . S
H685 C629 0.929 . S
H686 C630 0.930 . S
H687 C631 0.930 . S
H688 C634 0.930 . S
H689 C637 0.929 . S
H690 C642 0.929 . S
H691 C643 0.930 . S
H692 C650 0.929 . S
H693 C651 0.930 . S
H694 C652 0.930 . S
H695 C653 0.930 . S
H696 C655 0.929 . S
H697 C656 0.930 . S
H698 C657 0.930 . S
H699 C658 0.930 . S
H700 C662 0.929 . S
H701 C664 0.930 . S
H702 C670 0.929 . S
H703 C671 0.930 . S
Li704 N721 1.990 . S
Li704 O764 1.956 . S
Li704 O765 1.970 . S
Li704 O766 1.961 . S
Li705 N729 1.990 . S
Li705 O764 1.970 . S
Li705 O765 1.956 . S
Li705 O767 1.961 . S
Li706 N751 1.990 . S
Li706 O764 1.961 . S
Li706 O766 1.956 . S
Li706 O767 1.970 . S
Li707 N757 1.990 . S
Li707 O765 1.961 . S
Li707 O766 1.970 . S
Li707 O767 1.956 . S
C708 C710 1.348 . S
C708 C711 1.356 . S
C708 O764 1.325 . S
N709 C712 1.314 . S
N709 C713 1.279 . S
C710 C708 1.348 . S
C710 C712 1.353 . S
C710 H768 0.929 . S
C711 C708 1.356 . S
C711 C713 1.358 . S
C711 H769 0.930 . S
C712 N709 1.314 . S
C712 C710 1.353 . S
C712 H770 0.930 . S
C713 N709 1.279 . S
C713 C711 1.358 . S
C713 H771 0.930 . S
C714 C717 1.348 . S
C714 C718 1.356 . S
C714 O765 1.325 . S
C715 N716 1.279 . S
C715 C718 1.358 . S
C715 H772 0.930 . S
N716 C715 1.279 . S
N716 C719 1.314 . S
C717 C714 1.348 . S
C717 C719 1.353 . S
C717 H773 0.929 . S
C718 C714 1.356 . S
C718 C715 1.358 . S
C718 H774 0.930 . S
C719 N716 1.314 . S
C719 C717 1.353 . S
C719 H775 0.930 . S
C720 N721 1.314 . S
C720 C725 1.353 . S
C720 H726 0.930 . S
N721 Li704 1.990 . S
N721 C720 1.314 . S
N721 C723 1.279 . S
C722 C723 1.358 . S
C722 C724 1.356 . S
C722 H776 0.930 . S
C723 N721 1.279 . S
C723 C722 1.358 . S
C723 H727 0.930 . S
C724 C722 1.356 . S
C724 C725 1.348 . S
C725 C720 1.353 . S
C725 C724 1.348 . S
C725 H777 0.929 . S
H726 C720 0.930 . S
H727 C723 0.930 . S
C728 N729 1.314 . S
C728 C730 1.353 . S
C728 H734 0.930 . S
N729 Li705 1.990 . S
N729 C728 1.314 . S
N729 C732 1.279 . S
C730 C728 1.353 . S
C730 C733 1.348 . S
C730 H778 0.929 . S
C731 C732 1.358 . S
C731 C733 1.356 . S
C731 H779 0.930 . S
C732 N729 1.279 . S
C732 C731 1.358 . S
C732 H735 0.930 . S
C733 C730 1.348 . S
C733 C731 1.356 . S
H734 C728 0.930 . S
H735 C732 0.930 . S
C736 C738 1.348 . S
C736 C739 1.356 . S
C736 O766 1.325 . S
N737 C740 1.314 . S
N737 C741 1.279 . S
C738 C736 1.348 . S
C738 C740 1.353 . S
C738 H780 0.929 . S
C739 C736 1.356 . S
C739 C741 1.358 . S
C739 H781 0.930 . S
C740 N737 1.314 . S
C740 C738 1.353 . S
C740 H782 0.930 . S
C741 N737 1.279 . S
C741 C739 1.358 . S
C741 H783 0.930 . S
C742 C743 1.348 . S
C742 C744 1.356 . S
C742 O767 1.325 . S
C743 C742 1.348 . S
C743 C745 1.353 . S
C743 H784 0.929 . S
C744 C742 1.356 . S
C744 C746 1.358 . S
C744 H785 0.930 . S
C745 C743 1.353 . S
C745 N747 1.314 . S
C745 H786 0.930 . S
C746 C744 1.358 . S
C746 N747 1.279 . S
C746 H787 0.930 . S
N747 C745 1.314 . S
N747 C746 1.279 . S
C748 C750 1.353 . S
C748 N751 1.314 . S
C748 H754 0.930 . S
C749 N751 1.279 . S
C749 C752 1.358 . S
C749 H755 0.930 . S
C750 C748 1.353 . S
C750 C753 1.348 . S
C750 H788 0.929 . S
N751 Li706 1.990 . S
N751 C748 1.314 . S
N751 C749 1.279 . S
C752 C749 1.358 . S
C752 C753 1.356 . S
C752 H789 0.930 . S
C753 C750 1.348 . S
C753 C752 1.356 . S
H754 C748 0.930 . S
H755 C749 0.930 . S
C756 N757 1.314 . S
C756 C758 1.353 . S
C756 H762 0.930 . S
N757 Li707 1.990 . S
N757 C756 1.314 . S
N757 C760 1.279 . S
C758 C756 1.353 . S
C758 C761 1.348 . S
C758 H790 0.929 . S
C759 C760 1.358 . S
C759 C761 1.356 . S
C759 H791 0.930 . S
C760 N757 1.279 . S
C760 C759 1.358 . S
C760 H763 0.930 . S
C761 C758 1.348 . S
C761 C759 1.356 . S
H762 C756 0.930 . S
H763 C760 0.930 . S
O764 Li704 1.956 . S
O764 Li705 1.970 . S
O764 Li706 1.961 . S
O764 C708 1.325 . S
O765 Li704 1.970 . S
O765 Li705 1.956 . S
O765 Li707 1.961 . S
O765 C714 1.325 . S
O766 Li704 1.961 . S
O766 Li706 1.956 . S
O766 Li707 1.970 . S
O766 C736 1.325 . S
O767 Li705 1.961 . S
O767 Li706 1.970 . S
O767 Li707 1.956 . S
O767 C742 1.325 . S
H768 C710 0.929 . S
H769 C711 0.930 . S
H770 C712 0.930 . S
H771 C713 0.930 . S
H772 C715 0.930 . S
H773 C717 0.929 . S
H774 C718 0.930 . S
H775 C719 0.930 . S
H776 C722 0.930 . S
H777 C725 0.929 . S
H778 C730 0.929 . S
H779 C731 0.930 . S
H780 C738 0.929 . S
H781 C739 0.930 . S
H782 C740 0.930 . S
H783 C741 0.930 . S
H784 C743 0.929 . S
H785 C744 0.930 . S
H786 C745 0.930 . S
H787 C746 0.930 . S
H788 C750 0.929 . S
H789 C752 0.930 . S
H790 C758 0.929 . S
H791 C759 0.930 . S
Li792 N809 1.990 . S
Li792 O852 1.956 . S
Li792 O853 1.970 . S
Li792 O854 1.961 . S
Li793 N817 1.990 . S
Li793 O852 1.970 . S
Li793 O853 1.956 . S
Li793 O855 1.961 . S
Li794 N839 1.990 . S
Li794 O852 1.961 . S
Li794 O854 1.956 . S
Li794 O855 1.970 . S
Li795 N845 1.990 . S
Li795 O853 1.961 . S
Li795 O854 1.970 . S
Li795 O855 1.956 . S
C796 C798 1.348 . S
C796 C799 1.356 . S
C796 O852 1.325 . S
N797 C800 1.314 . S
N797 C801 1.279 . S
C798 C796 1.348 . S
C798 C800 1.353 . S
C798 H856 0.929 . S
C799 C796 1.356 . S
C799 C801 1.358 . S
C799 H857 0.930 . S
C800 N797 1.314 . S
C800 C798 1.353 . S
C800 H858 0.930 . S
C801 N797 1.279 . S
C801 C799 1.358 . S
C801 H859 0.930 . S
C802 C805 1.348 . S
C802 C806 1.356 . S
C802 O853 1.325 . S
C803 N804 1.279 . S
C803 C806 1.358 . S
C803 H860 0.930 . S
N804 C803 1.279 . S
N804 C807 1.314 . S
C805 C802 1.348 . S
C805 C807 1.353 . S
C805 H861 0.929 . S
C806 C802 1.356 . S
C806 C803 1.358 . S
C806 H862 0.930 . S
C807 N804 1.314 . S
C807 C805 1.353 . S
C807 H863 0.930 . S
C808 N809 1.314 . S
C808 C813 1.353 . S
C808 H814 0.930 . S
N809 Li792 1.990 . S
N809 C808 1.314 . S
N809 C811 1.279 . S
C810 C811 1.358 . S
C810 C812 1.356 . S
C810 H864 0.930 . S
C811 N809 1.279 . S
C811 C810 1.358 . S
C811 H815 0.930 . S
C812 C810 1.356 . S
C812 C813 1.348 . S
C813 C808 1.353 . S
C813 C812 1.348 . S
C813 H865 0.929 . S
H814 C808 0.930 . S
H815 C811 0.930 . S
C816 N817 1.314 . S
C816 C818 1.353 . S
C816 H822 0.930 . S
N817 Li793 1.990 . S
N817 C816 1.314 . S
N817 C820 1.279 . S
C818 C816 1.353 . S
C818 C821 1.348 . S
C818 H866 0.929 . S
C819 C820 1.358 . S
C819 C821 1.356 . S
C819 H867 0.930 . S
C820 N817 1.279 . S
C820 C819 1.358 . S
C820 H823 0.930 . S
C821 C818 1.348 . S
C821 C819 1.356 . S
H822 C816 0.930 . S
H823 C820 0.930 . S
C824 C826 1.348 . S
C824 C827 1.356 . S
C824 O854 1.325 . S
N825 C828 1.314 . S
N825 C829 1.279 . S
C826 C824 1.348 . S
C826 C828 1.353 . S
C826 H868 0.929 . S
C827 C824 1.356 . S
C827 C829 1.358 . S
C827 H869 0.930 . S
C828 N825 1.314 . S
C828 C826 1.353 . S
C828 H870 0.930 . S
C829 N825 1.279 . S
C829 C827 1.358 . S
C829 H871 0.930 . S
C830 C831 1.348 . S
C830 C832 1.356 . S
C830 O855 1.325 . S
C831 C830 1.348 . S
C831 C833 1.353 . S
C831 H872 0.929 . S
C832 C830 1.356 . S
C832 C834 1.358 . S
C832 H873 0.930 . S
C833 C831 1.353 . S
C833 N835 1.314 . S
C833 H874 0.930 . S
C834 C832 1.358 . S
C834 N835 1.279 . S
C834 H875 0.930 . S
N835 C833 1.314 . S
N835 C834 1.279 . S
C836 C838 1.353 . S
C836 N839 1.314 . S
C836 H842 0.930 . S
C837 N839 1.279 . S
C837 C840 1.358 . S
C837 H843 0.930 . S
C838 C836 1.353 . S
C838 C841 1.348 . S
C838 H876 0.929 . S
N839 Li794 1.990 . S
N839 C836 1.314 . S
N839 C837 1.279 . S
C840 C837 1.358 . S
C840 C841 1.356 . S
C840 H877 0.930 . S
C841 C838 1.348 . S
C841 C840 1.356 . S
H842 C836 0.930 . S
H843 C837 0.930 . S
C844 N845 1.314 . S
C844 C846 1.353 . S
C844 H850 0.930 . S
N845 Li795 1.990 . S
N845 C844 1.314 . S
N845 C848 1.279 . S
C846 C844 1.353 . S
C846 C849 1.348 . S
C846 H878 0.929 . S
C847 C848 1.358 . S
C847 C849 1.356 . S
C847 H879 0.930 . S
C848 N845 1.279 . S
C848 C847 1.358 . S
C848 H851 0.930 . S
C849 C846 1.348 . S
C849 C847 1.356 . S
H850 C844 0.930 . S
H851 C848 0.930 . S
O852 Li792 1.956 . S
O852 Li793 1.970 . S
O852 Li794 1.961 . S
O852 C796 1.325 . S
O853 Li792 1.970 . S
O853 Li793 1.956 . S
O853 Li795 1.961 . S
O853 C802 1.325 . S
O854 Li792 1.961 . S
O854 Li794 1.956 . S
O854 Li795 1.970 . S
O854 C824 1.325 . S
O855 Li793 1.961 . S
O855 Li794 1.970 . S
O855 Li795 1.956 . S
O855 C830 1.325 . S
H856 C798 0.929 . S
H857 C799 0.930 . S
H858 C800 0.930 . S
H859 C801 0.930 . S
H860 C803 0.930 . S
H861 C805 0.929 . S
H862 C806 0.930 . S
H863 C807 0.930 . S
H864 C810 0.930 . S
H865 C813 0.929 . S
H866 C818 0.929 . S
H867 C819 0.930 . S
H868 C826 0.929 . S
H869 C827 0.930 . S
H870 C828 0.930 . S
H871 C829 0.930 . S
H872 C831 0.929 . S
H873 C832 0.930 . S
H874 C833 0.930 . S
H875 C834 0.930 . S
H876 C838 0.929 . S
H877 C840 0.930 . S
H878 C846 0.929 . S
H879 C847 0.930 . S
Li880 N897 1.990 . S
Li880 O940 1.956 . S
Li880 O941 1.970 . S
Li880 O942 1.961 . S
Li881 N905 1.990 . S
Li881 O940 1.970 . S
Li881 O941 1.956 . S
Li881 O943 1.961 . S
Li882 N927 1.990 . S
Li882 O940 1.961 . S
Li882 O942 1.956 . S
Li882 O943 1.970 . S
Li883 N933 1.990 . S
Li883 O941 1.961 . S
Li883 O942 1.970 . S
Li883 O943 1.956 . S
C884 C886 1.348 . S
C884 C887 1.356 . S
C884 O940 1.325 . S
N885 C888 1.314 . S
N885 C889 1.279 . S
C886 C884 1.348 . S
C886 C888 1.353 . S
C886 H944 0.929 . S
C887 C884 1.356 . S
C887 C889 1.358 . S
C887 H945 0.930 . S
C888 N885 1.314 . S
C888 C886 1.353 . S
C888 H946 0.930 . S
C889 N885 1.279 . S
C889 C887 1.358 . S
C889 H947 0.930 . S
C890 C893 1.348 . S
C890 C894 1.356 . S
C890 O941 1.325 . S
C891 N892 1.279 . S
C891 C894 1.358 . S
C891 H948 0.930 . S
N892 C891 1.279 . S
N892 C895 1.314 . S
C893 C890 1.348 . S
C893 C895 1.353 . S
C893 H949 0.929 . S
C894 C890 1.356 . S
C894 C891 1.358 . S
C894 H950 0.930 . S
C895 N892 1.314 . S
C895 C893 1.353 . S
C895 H951 0.930 . S
C896 N897 1.314 . S
C896 C901 1.353 . S
C896 H902 0.930 . S
N897 Li880 1.990 . S
N897 C896 1.314 . S
N897 C899 1.279 . S
C898 C899 1.358 . S
C898 C900 1.356 . S
C898 H952 0.930 . S
C899 N897 1.279 . S
C899 C898 1.358 . S
C899 H903 0.930 . S
C900 C898 1.356 . S
C900 C901 1.348 . S
C901 C896 1.353 . S
C901 C900 1.348 . S
C901 H953 0.929 . S
H902 C896 0.930 . S
H903 C899 0.930 . S
C904 N905 1.314 . S
C904 C906 1.353 . S
C904 H910 0.930 . S
N905 Li881 1.990 . S
N905 C904 1.314 . S
N905 C908 1.279 . S
C906 C904 1.353 . S
C906 C909 1.348 . S
C906 H954 0.929 . S
C907 C908 1.358 . S
C907 C909 1.356 . S
C907 H955 0.930 . S
C908 N905 1.279 . S
C908 C907 1.358 . S
C908 H911 0.930 . S
C909 C906 1.348 . S
C909 C907 1.356 . S
H910 C904 0.930 . S
H911 C908 0.930 . S
C912 C914 1.348 . S
C912 C915 1.356 . S
C912 O942 1.325 . S
N913 C916 1.314 . S
N913 C917 1.279 . S
C914 C912 1.348 . S
C914 C916 1.353 . S
C914 H956 0.929 . S
C915 C912 1.356 . S
C915 C917 1.358 . S
C915 H957 0.930 . S
C916 N913 1.314 . S
C916 C914 1.353 . S
C916 H958 0.930 . S
C917 N913 1.279 . S
C917 C915 1.358 . S
C917 H959 0.930 . S
C918 C919 1.348 . S
C918 C920 1.356 . S
C918 O943 1.325 . S
C919 C918 1.348 . S
C919 C921 1.353 . S
C919 H960 0.929 . S
C920 C918 1.356 . S
C920 C922 1.358 . S
C920 H961 0.930 . S
C921 C919 1.353 . S
C921 N923 1.314 . S
C921 H962 0.930 . S
C922 C920 1.358 . S
C922 N923 1.279 . S
C922 H963 0.930 . S
N923 C921 1.314 . S
N923 C922 1.279 . S
C924 C926 1.353 . S
C924 N927 1.314 . S
C924 H930 0.930 . S
C925 N927 1.279 . S
C925 C928 1.358 . S
C925 H931 0.930 . S
C926 C924 1.353 . S
C926 C929 1.348 . S
C926 H964 0.929 . S
N927 Li882 1.990 . S
N927 C924 1.314 . S
N927 C925 1.279 . S
C928 C925 1.358 . S
C928 C929 1.356 . S
C928 H965 0.930 . S
C929 C926 1.348 . S
C929 C928 1.356 . S
H930 C924 0.930 . S
H931 C925 0.930 . S
C932 N933 1.314 . S
C932 C934 1.353 . S
C932 H938 0.930 . S
N933 Li883 1.990 . S
N933 C932 1.314 . S
N933 C936 1.279 . S
C934 C932 1.353 . S
C934 C937 1.348 . S
C934 H966 0.929 . S
C935 C936 1.358 . S
C935 C937 1.356 . S
C935 H967 0.930 . S
C936 N933 1.279 . S
C936 C935 1.358 . S
C936 H939 0.930 . S
C937 C934 1.348 . S
C937 C935 1.356 . S
H938 C932 0.930 . S
H939 C936 0.930 . S
O940 Li880 1.956 . S
O940 Li881 1.970 . S
O940 Li882 1.961 . S
O940 C884 1.325 . S
O941 Li880 1.970 . S
O941 Li881 1.956 . S
O941 Li883 1.961 . S
O941 C890 1.325 . S
O942 Li880 1.961 . S
O942 Li882 1.956 . S
O942 Li883 1.970 . S
O942 C912 1.325 . S
O943 Li881 1.961 . S
O943 Li882 1.970 . S
O943 Li883 1.956 . S
O943 C918 1.325 . S
H944 C886 0.929 . S
H945 C887 0.930 . S
H946 C888 0.930 . S
H947 C889 0.930 . S
H948 C891 0.930 . S
H949 C893 0.929 . S
H950 C894 0.930 . S
H951 C895 0.930 . S
H952 C898 0.930 . S
H953 C901 0.929 . S
H954 C906 0.929 . S
H955 C907 0.930 . S
H956 C914 0.929 . S
H957 C915 0.930 . S
H958 C916 0.930 . S
H959 C917 0.930 . S
H960 C919 0.929 . S
H961 C920 0.930 . S
H962 C921 0.930 . S
H963 C922 0.930 . S
H964 C926 0.929 . S
H965 C928 0.930 . S
H966 C934 0.929 . S
H967 C935 0.930 . S
Li968 N985 1.990 . S
Li968 O1028 1.956 . S
Li968 O1029 1.970 . S
Li968 O1030 1.961 . S
Li969 N993 1.990 . S
Li969 O1028 1.970 . S
Li969 O1029 1.956 . S
Li969 O1031 1.961 . S
Li970 N1015 1.990 . S
Li970 O1028 1.961 . S
Li970 O1030 1.956 . S
Li970 O1031 1.970 . S
Li971 N1021 1.990 . S
Li971 O1029 1.961 . S
Li971 O1030 1.970 . S
Li971 O1031 1.956 . S
C972 C974 1.348 . S
C972 C975 1.356 . S
C972 O1028 1.325 . S
N973 C976 1.314 . S
N973 C977 1.279 . S
C974 C972 1.348 . S
C974 C976 1.353 . S
C974 H1032 0.929 . S
C975 C972 1.356 . S
C975 C977 1.358 . S
C975 H1033 0.930 . S
C976 N973 1.314 . S
C976 C974 1.353 . S
C976 H1034 0.930 . S
C977 N973 1.279 . S
C977 C975 1.358 . S
C977 H1035 0.930 . S
C978 C981 1.348 . S
C978 C982 1.356 . S
C978 O1029 1.325 . S
C979 N980 1.279 . S
C979 C982 1.358 . S
C979 H1036 0.930 . S
N980 C979 1.279 . S
N980 C983 1.314 . S
C981 C978 1.348 . S
C981 C983 1.353 . S
C981 H1037 0.929 . S
C982 C978 1.356 . S
C982 C979 1.358 . S
C982 H1038 0.930 . S
C983 N980 1.314 . S
C983 C981 1.353 . S
C983 H1039 0.930 . S
C984 N985 1.314 . S
C984 C989 1.353 . S
C984 H990 0.930 . S
N985 Li968 1.990 . S
N985 C984 1.314 . S
N985 C987 1.279 . S
C986 C987 1.358 . S
C986 C988 1.356 . S
C986 H1040 0.930 . S
C987 N985 1.279 . S
C987 C986 1.358 . S
C987 H991 0.930 . S
C988 C986 1.356 . S
C988 C989 1.348 . S
C989 C984 1.353 . S
C989 C988 1.348 . S
C989 H1041 0.929 . S
H990 C984 0.930 . S
H991 C987 0.930 . S
C992 N993 1.314 . S
C992 C994 1.353 . S
C992 H998 0.930 . S
N993 Li969 1.990 . S
N993 C992 1.314 . S
N993 C996 1.279 . S
C994 C992 1.353 . S
C994 C997 1.348 . S
C994 H1042 0.929 . S
C995 C996 1.358 . S
C995 C997 1.356 . S
C995 H1043 0.930 . S
C996 N993 1.279 . S
C996 C995 1.358 . S
C996 H999 0.930 . S
C997 C994 1.348 . S
C997 C995 1.356 . S
H998 C992 0.930 . S
H999 C996 0.930 . S
C1000 C1002 1.348 . S
C1000 C1003 1.356 . S
C1000 O1030 1.325 . S
N1001 C1004 1.314 . S
N1001 C1005 1.279 . S
C1002 C1000 1.348 . S
C1002 C1004 1.353 . S
C1002 H1044 0.929 . S
C1003 C1000 1.356 . S
C1003 C1005 1.358 . S
C1003 H1045 0.930 . S
C1004 N1001 1.314 . S
C1004 C1002 1.353 . S
C1004 H1046 0.930 . S
C1005 N1001 1.279 . S
C1005 C1003 1.358 . S
C1005 H1047 0.930 . S
C1006 C1007 1.348 . S
C1006 C1008 1.356 . S
C1006 O1031 1.325 . S
C1007 C1006 1.348 . S
C1007 C1009 1.353 . S
C1007 H1048 0.929 . S
C1008 C1006 1.356 . S
C1008 C1010 1.358 . S
C1008 H1049 0.930 . S
C1009 C1007 1.353 . S
C1009 N1011 1.314 . S
C1009 H1050 0.930 . S
C1010 C1008 1.358 . S
C1010 N1011 1.279 . S
C1010 H1051 0.930 . S
N1011 C1009 1.314 . S
N1011 C1010 1.279 . S
C1012 C1014 1.353 . S
C1012 N1015 1.314 . S
C1012 H1018 0.930 . S
C1013 N1015 1.279 . S
C1013 C1016 1.358 . S
C1013 H1019 0.930 . S
C1014 C1012 1.353 . S
C1014 C1017 1.348 . S
C1014 H1052 0.929 . S
N1015 Li970 1.990 . S
N1015 C1012 1.314 . S
N1015 C1013 1.279 . S
C1016 C1013 1.358 . S
C1016 C1017 1.356 . S
C1016 H1053 0.930 . S
C1017 C1014 1.348 . S
C1017 C1016 1.356 . S
H1018 C1012 0.930 . S
H1019 C1013 0.930 . S
C1020 N1021 1.314 . S
C1020 C1022 1.353 . S
C1020 H1026 0.930 . S
N1021 Li971 1.990 . S
N1021 C1020 1.314 . S
N1021 C1024 1.279 . S
C1022 C1020 1.353 . S
C1022 C1025 1.348 . S
C1022 H1054 0.929 . S
C1023 C1024 1.358 . S
C1023 C1025 1.356 . S
C1023 H1055 0.930 . S
C1024 N1021 1.279 . S
C1024 C1023 1.358 . S
C1024 H1027 0.930 . S
C1025 C1022 1.348 . S
C1025 C1023 1.356 . S
H1026 C1020 0.930 . S
H1027 C1024 0.930 . S
O1028 Li968 1.956 . S
O1028 Li969 1.970 . S
O1028 Li970 1.961 . S
O1028 C972 1.325 . S
O1029 Li968 1.970 . S
O1029 Li969 1.956 . S
O1029 Li971 1.961 . S
O1029 C978 1.325 . S
O1030 Li968 1.961 . S
O1030 Li970 1.956 . S
O1030 Li971 1.970 . S
O1030 C1000 1.325 . S
O1031 Li969 1.961 . S
O1031 Li970 1.970 . S
O1031 Li971 1.956 . S
O1031 C1006 1.325 . S
H1032 C974 0.929 . S
H1033 C975 0.930 . S
H1034 C976 0.930 . S
H1035 C977 0.930 . S
H1036 C979 0.930 . S
H1037 C981 0.929 . S
H1038 C982 0.930 . S
H1039 C983 0.930 . S
H1040 C986 0.930 . S
H1041 C989 0.929 . S
H1042 C994 0.929 . S
H1043 C995 0.930 . S
H1044 C1002 0.929 . S
H1045 C1003 0.930 . S
H1046 C1004 0.930 . S
H1047 C1005 0.930 . S
H1048 C1007 0.929 . S
H1049 C1008 0.930 . S
H1050 C1009 0.930 . S
H1051 C1010 0.930 . S
H1052 C1014 0.929 . S
H1053 C1016 0.930 . S
H1054 C1022 0.929 . S
H1055 C1023 0.930 . S
Li1056 N1073 1.990 . S
Li1056 O1116 1.956 . S
Li1056 O1117 1.970 . S
Li1056 O1118 1.961 . S
Li1057 N1081 1.990 . S
Li1057 O1116 1.970 . S
Li1057 O1117 1.956 . S
Li1057 O1119 1.961 . S
Li1058 N1103 1.990 . S
Li1058 O1116 1.961 . S
Li1058 O1118 1.956 . S
Li1058 O1119 1.970 . S
Li1059 N1109 1.990 . S
Li1059 O1117 1.961 . S
Li1059 O1118 1.970 . S
Li1059 O1119 1.956 . S
C1060 C1062 1.348 . S
C1060 C1063 1.356 . S
C1060 O1116 1.325 . S
N1061 C1064 1.314 . S
N1061 C1065 1.279 . S
C1062 C1060 1.348 . S
C1062 C1064 1.353 . S
C1062 H1120 0.929 . S
C1063 C1060 1.356 . S
C1063 C1065 1.358 . S
C1063 H1121 0.930 . S
C1064 N1061 1.314 . S
C1064 C1062 1.353 . S
C1064 H1122 0.930 . S
C1065 N1061 1.279 . S
C1065 C1063 1.358 . S
C1065 H1123 0.930 . S
C1066 C1069 1.348 . S
C1066 C1070 1.356 . S
C1066 O1117 1.325 . S
C1067 N1068 1.279 . S
C1067 C1070 1.358 . S
C1067 H1124 0.930 . S
N1068 C1067 1.279 . S
N1068 C1071 1.314 . S
C1069 C1066 1.348 . S
C1069 C1071 1.353 . S
C1069 H1125 0.929 . S
C1070 C1066 1.356 . S
C1070 C1067 1.358 . S
C1070 H1126 0.930 . S
C1071 N1068 1.314 . S
C1071 C1069 1.353 . S
C1071 H1127 0.930 . S
C1072 N1073 1.314 . S
C1072 C1077 1.353 . S
C1072 H1078 0.930 . S
N1073 Li1056 1.990 . S
N1073 C1072 1.314 . S
N1073 C1075 1.279 . S
C1074 C1075 1.358 . S
C1074 C1076 1.356 . S
C1074 H1128 0.930 . S
C1075 N1073 1.279 . S
C1075 C1074 1.358 . S
C1075 H1079 0.930 . S
C1076 C1074 1.356 . S
C1076 C1077 1.348 . S
C1077 C1072 1.353 . S
C1077 C1076 1.348 . S
C1077 H1129 0.929 . S
H1078 C1072 0.930 . S
H1079 C1075 0.930 . S
C1080 N1081 1.314 . S
C1080 C1082 1.353 . S
C1080 H1086 0.930 . S
N1081 Li1057 1.990 . S
N1081 C1080 1.314 . S
N1081 C1084 1.279 . S
C1082 C1080 1.353 . S
C1082 C1085 1.348 . S
C1082 H1130 0.929 . S
C1083 C1084 1.358 . S
C1083 C1085 1.356 . S
C1083 H1131 0.930 . S
C1084 N1081 1.279 . S
C1084 C1083 1.358 . S
C1084 H1087 0.930 . S
C1085 C1082 1.348 . S
C1085 C1083 1.356 . S
H1086 C1080 0.930 . S
H1087 C1084 0.930 . S
C1088 C1090 1.348 . S
C1088 C1091 1.356 . S
C1088 O1118 1.325 . S
N1089 C1092 1.314 . S
N1089 C1093 1.279 . S
C1090 C1088 1.348 . S
C1090 C1092 1.353 . S
C1090 H1132 0.929 . S
C1091 C1088 1.356 . S
C1091 C1093 1.358 . S
C1091 H1133 0.930 . S
C1092 N1089 1.314 . S
C1092 C1090 1.353 . S
C1092 H1134 0.930 . S
C1093 N1089 1.279 . S
C1093 C1091 1.358 . S
C1093 H1135 0.930 . S
C1094 C1095 1.348 . S
C1094 C1096 1.356 . S
C1094 O1119 1.325 . S
C1095 C1094 1.348 . S
C1095 C1097 1.353 . S
C1095 H1136 0.929 . S
C1096 C1094 1.356 . S
C1096 C1098 1.358 . S
C1096 H1137 0.930 . S
C1097 C1095 1.353 . S
C1097 N1099 1.314 . S
C1097 H1138 0.930 . S
C1098 C1096 1.358 . S
C1098 N1099 1.279 . S
C1098 H1139 0.930 . S
N1099 C1097 1.314 . S
N1099 C1098 1.279 . S
C1100 C1102 1.353 . S
C1100 N1103 1.314 . S
C1100 H1106 0.930 . S
C1101 N1103 1.279 . S
C1101 C1104 1.358 . S
C1101 H1107 0.930 . S
C1102 C1100 1.353 . S
C1102 C1105 1.348 . S
C1102 H1140 0.929 . S
N1103 Li1058 1.990 . S
N1103 C1100 1.314 . S
N1103 C1101 1.279 . S
C1104 C1101 1.358 . S
C1104 C1105 1.356 . S
C1104 H1141 0.930 . S
C1105 C1102 1.348 . S
C1105 C1104 1.356 . S
H1106 C1100 0.930 . S
H1107 C1101 0.930 . S
C1108 N1109 1.314 . S
C1108 C1110 1.353 . S
C1108 H1114 0.930 . S
N1109 Li1059 1.990 . S
N1109 C1108 1.314 . S
N1109 C1112 1.279 . S
C1110 C1108 1.353 . S
C1110 C1113 1.348 . S
C1110 H1142 0.929 . S
C1111 C1112 1.358 . S
C1111 C1113 1.356 . S
C1111 H1143 0.930 . S
C1112 N1109 1.279 . S
C1112 C1111 1.358 . S
C1112 H1115 0.930 . S
C1113 C1110 1.348 . S
C1113 C1111 1.356 . S
H1114 C1108 0.930 . S
H1115 C1112 0.930 . S
O1116 Li1056 1.956 . S
O1116 Li1057 1.970 . S
O1116 Li1058 1.961 . S
O1116 C1060 1.325 . S
O1117 Li1056 1.970 . S
O1117 Li1057 1.956 . S
O1117 Li1059 1.961 . S
O1117 C1066 1.325 . S
O1118 Li1056 1.961 . S
O1118 Li1058 1.956 . S
O1118 Li1059 1.970 . S
O1118 C1088 1.325 . S
O1119 Li1057 1.961 . S
O1119 Li1058 1.970 . S
O1119 Li1059 1.956 . S
O1119 C1094 1.325 . S
H1120 C1062 0.929 . S
H1121 C1063 0.930 . S
H1122 C1064 0.930 . S
H1123 C1065 0.930 . S
H1124 C1067 0.930 . S
H1125 C1069 0.929 . S
H1126 C1070 0.930 . S
H1127 C1071 0.930 . S
H1128 C1074 0.930 . S
H1129 C1077 0.929 . S
H1130 C1082 0.929 . S
H1131 C1083 0.930 . S
H1132 C1090 0.929 . S
H1133 C1091 0.930 . S
H1134 C1092 0.930 . S
H1135 C1093 0.930 . S
H1136 C1095 0.929 . S
H1137 C1096 0.930 . S
H1138 C1097 0.930 . S
H1139 C1098 0.930 . S
H1140 C1102 0.929 . S
H1141 C1104 0.930 . S
H1142 C1110 0.929 . S
H1143 C1111 0.930 . S
Li1144 N1161 1.990 . S
Li1144 O1204 1.956 . S
Li1144 O1205 1.970 . S
Li1144 O1206 1.961 . S
Li1145 N1169 1.990 . S
Li1145 O1204 1.970 . S
Li1145 O1205 1.956 . S
Li1145 O1207 1.961 . S
Li1146 N1191 1.990 . S
Li1146 O1204 1.961 . S
Li1146 O1206 1.956 . S
Li1146 O1207 1.970 . S
Li1147 N1197 1.990 . S
Li1147 O1205 1.961 . S
Li1147 O1206 1.970 . S
Li1147 O1207 1.956 . S
C1148 C1150 1.348 . S
C1148 C1151 1.356 . S
C1148 O1204 1.325 . S
N1149 C1152 1.314 . S
N1149 C1153 1.279 . S
C1150 C1148 1.348 . S
C1150 C1152 1.353 . S
C1150 H1208 0.929 . S
C1151 C1148 1.356 . S
C1151 C1153 1.358 . S
C1151 H1209 0.930 . S
C1152 N1149 1.314 . S
C1152 C1150 1.353 . S
C1152 H1210 0.930 . S
C1153 N1149 1.279 . S
C1153 C1151 1.358 . S
C1153 H1211 0.930 . S
C1154 C1157 1.348 . S
C1154 C1158 1.356 . S
C1154 O1205 1.325 . S
C1155 N1156 1.279 . S
C1155 C1158 1.358 . S
C1155 H1212 0.930 . S
N1156 C1155 1.279 . S
N1156 C1159 1.314 . S
C1157 C1154 1.348 . S
C1157 C1159 1.353 . S
C1157 H1213 0.929 . S
C1158 C1154 1.356 . S
C1158 C1155 1.358 . S
C1158 H1214 0.930 . S
C1159 N1156 1.314 . S
C1159 C1157 1.353 . S
C1159 H1215 0.930 . S
C1160 N1161 1.314 . S
C1160 C1165 1.353 . S
C1160 H1166 0.930 . S
N1161 Li1144 1.990 . S
N1161 C1160 1.314 . S
N1161 C1163 1.279 . S
C1162 C1163 1.358 . S
C1162 C1164 1.356 . S
C1162 H1216 0.930 . S
C1163 N1161 1.279 . S
C1163 C1162 1.358 . S
C1163 H1167 0.930 . S
C1164 C1162 1.356 . S
C1164 C1165 1.348 . S
C1165 C1160 1.353 . S
C1165 C1164 1.348 . S
C1165 H1217 0.929 . S
H1166 C1160 0.930 . S
H1167 C1163 0.930 . S
C1168 N1169 1.314 . S
C1168 C1170 1.353 . S
C1168 H1174 0.930 . S
N1169 Li1145 1.990 . S
N1169 C1168 1.314 . S
N1169 C1172 1.279 . S
C1170 C1168 1.353 . S
C1170 C1173 1.348 . S
C1170 H1218 0.929 . S
C1171 C1172 1.358 . S
C1171 C1173 1.356 . S
C1171 H1219 0.930 . S
C1172 N1169 1.279 . S
C1172 C1171 1.358 . S
C1172 H1175 0.930 . S
C1173 C1170 1.348 . S
C1173 C1171 1.356 . S
H1174 C1168 0.930 . S
H1175 C1172 0.930 . S
C1176 C1178 1.348 . S
C1176 C1179 1.356 . S
C1176 O1206 1.325 . S
N1177 C1180 1.314 . S
N1177 C1181 1.279 . S
C1178 C1176 1.348 . S
C1178 C1180 1.353 . S
C1178 H1220 0.929 . S
C1179 C1176 1.356 . S
C1179 C1181 1.358 . S
C1179 H1221 0.930 . S
C1180 N1177 1.314 . S
C1180 C1178 1.353 . S
C1180 H1222 0.930 . S
C1181 N1177 1.279 . S
C1181 C1179 1.358 . S
C1181 H1223 0.930 . S
C1182 C1183 1.348 . S
C1182 C1184 1.356 . S
C1182 O1207 1.325 . S
C1183 C1182 1.348 . S
C1183 C1185 1.353 . S
C1183 H1224 0.929 . S
C1184 C1182 1.356 . S
C1184 C1186 1.358 . S
C1184 H1225 0.930 . S
C1185 C1183 1.353 . S
C1185 N1187 1.314 . S
C1185 H1226 0.930 . S
C1186 C1184 1.358 . S
C1186 N1187 1.279 . S
C1186 H1227 0.930 . S
N1187 C1185 1.314 . S
N1187 C1186 1.279 . S
C1188 C1190 1.353 . S
C1188 N1191 1.314 . S
C1188 H1194 0.930 . S
C1189 N1191 1.279 . S
C1189 C1192 1.358 . S
C1189 H1195 0.930 . S
C1190 C1188 1.353 . S
C1190 C1193 1.348 . S
C1190 H1228 0.929 . S
N1191 Li1146 1.990 . S
N1191 C1188 1.314 . S
N1191 C1189 1.279 . S
C1192 C1189 1.358 . S
C1192 C1193 1.356 . S
C1192 H1229 0.930 . S
C1193 C1190 1.348 . S
C1193 C1192 1.356 . S
H1194 C1188 0.930 . S
H1195 C1189 0.930 . S
C1196 N1197 1.314 . S
C1196 C1198 1.353 . S
C1196 H1202 0.930 . S
N1197 Li1147 1.990 . S
N1197 C1196 1.314 . S
N1197 C1200 1.279 . S
C1198 C1196 1.353 . S
C1198 C1201 1.348 . S
C1198 H1230 0.929 . S
C1199 C1200 1.358 . S
C1199 C1201 1.356 . S
C1199 H1231 0.930 . S
C1200 N1197 1.279 . S
C1200 C1199 1.358 . S
C1200 H1203 0.930 . S
C1201 C1198 1.348 . S
C1201 C1199 1.356 . S
H1202 C1196 0.930 . S
H1203 C1200 0.930 . S
O1204 Li1144 1.956 . S
O1204 Li1145 1.970 . S
O1204 Li1146 1.961 . S
O1204 C1148 1.325 . S
O1205 Li1144 1.970 . S
O1205 Li1145 1.956 . S
O1205 Li1147 1.961 . S
O1205 C1154 1.325 . S
O1206 Li1144 1.961 . S
O1206 Li1146 1.956 . S
O1206 Li1147 1.970 . S
O1206 C1176 1.325 . S
O1207 Li1145 1.961 . S
O1207 Li1146 1.970 . S
O1207 Li1147 1.956 . S
O1207 C1182 1.325 . S
H1208 C1150 0.929 . S
H1209 C1151 0.930 . S
H1210 C1152 0.930 . S
H1211 C1153 0.930 . S
H1212 C1155 0.930 . S
H1213 C1157 0.929 . S
H1214 C1158 0.930 . S
H1215 C1159 0.930 . S
H1216 C1162 0.930 . S
H1217 C1165 0.929 . S
H1218 C1170 0.929 . S
H1219 C1171 0.930 . S
H1220 C1178 0.929 . S
H1221 C1179 0.930 . S
H1222 C1180 0.930 . S
H1223 C1181 0.930 . S
H1224 C1183 0.929 . S
H1225 C1184 0.930 . S
H1226 C1185 0.930 . S
H1227 C1186 0.930 . S
H1228 C1190 0.929 . S
H1229 C1192 0.930 . S
H1230 C1198 0.929 . S
H1231 C1199 0.930 . S
Li1232 N1249 1.990 . S
Li1232 O1292 1.956 . S
Li1232 O1293 1.970 . S
Li1232 O1294 1.961 . S
Li1233 N1257 1.990 . S
Li1233 O1292 1.970 . S
Li1233 O1293 1.956 . S
Li1233 O1295 1.961 . S
Li1234 N1279 1.990 . S
Li1234 O1292 1.961 . S
Li1234 O1294 1.956 . S
Li1234 O1295 1.970 . S
Li1235 N1285 1.990 . S
Li1235 O1293 1.961 . S
Li1235 O1294 1.970 . S
Li1235 O1295 1.956 . S
C1236 C1238 1.348 . S
C1236 C1239 1.356 . S
C1236 O1292 1.325 . S
N1237 C1240 1.314 . S
N1237 C1241 1.279 . S
C1238 C1236 1.348 . S
C1238 C1240 1.353 . S
C1238 H1296 0.929 . S
C1239 C1236 1.356 . S
C1239 C1241 1.358 . S
C1239 H1297 0.930 . S
C1240 N1237 1.314 . S
C1240 C1238 1.353 . S
C1240 H1298 0.930 . S
C1241 N1237 1.279 . S
C1241 C1239 1.358 . S
C1241 H1299 0.930 . S
C1242 C1245 1.348 . S
C1242 C1246 1.356 . S
C1242 O1293 1.325 . S
C1243 N1244 1.279 . S
C1243 C1246 1.358 . S
C1243 H1300 0.930 . S
N1244 C1243 1.279 . S
N1244 C1247 1.314 . S
C1245 C1242 1.348 . S
C1245 C1247 1.353 . S
C1245 H1301 0.929 . S
C1246 C1242 1.356 . S
C1246 C1243 1.358 . S
C1246 H1302 0.930 . S
C1247 N1244 1.314 . S
C1247 C1245 1.353 . S
C1247 H1303 0.930 . S
C1248 N1249 1.314 . S
C1248 C1253 1.353 . S
C1248 H1254 0.930 . S
N1249 Li1232 1.990 . S
N1249 C1248 1.314 . S
N1249 C1251 1.279 . S
C1250 C1251 1.358 . S
C1250 C1252 1.356 . S
C1250 H1304 0.930 . S
C1251 N1249 1.279 . S
C1251 C1250 1.358 . S
C1251 H1255 0.930 . S
C1252 C1250 1.356 . S
C1252 C1253 1.348 . S
C1253 C1248 1.353 . S
C1253 C1252 1.348 . S
C1253 H1305 0.929 . S
H1254 C1248 0.930 . S
H1255 C1251 0.930 . S
C1256 N1257 1.314 . S
C1256 C1258 1.353 . S
C1256 H1262 0.930 . S
N1257 Li1233 1.990 . S
N1257 C1256 1.314 . S
N1257 C1260 1.279 . S
C1258 C1256 1.353 . S
C1258 C1261 1.348 . S
C1258 H1306 0.929 . S
C1259 C1260 1.358 . S
C1259 C1261 1.356 . S
C1259 H1307 0.930 . S
C1260 N1257 1.279 . S
C1260 C1259 1.358 . S
C1260 H1263 0.930 . S
C1261 C1258 1.348 . S
C1261 C1259 1.356 . S
H1262 C1256 0.930 . S
H1263 C1260 0.930 . S
C1264 C1266 1.348 . S
C1264 C1267 1.356 . S
C1264 O1294 1.325 . S
N1265 C1268 1.314 . S
N1265 C1269 1.279 . S
C1266 C1264 1.348 . S
C1266 C1268 1.353 . S
C1266 H1308 0.929 . S
C1267 C1264 1.356 . S
C1267 C1269 1.358 . S
C1267 H1309 0.930 . S
C1268 N1265 1.314 . S
C1268 C1266 1.353 . S
C1268 H1310 0.930 . S
C1269 N1265 1.279 . S
C1269 C1267 1.358 . S
C1269 H1311 0.930 . S
C1270 C1271 1.348 . S
C1270 C1272 1.356 . S
C1270 O1295 1.325 . S
C1271 C1270 1.348 . S
C1271 C1273 1.353 . S
C1271 H1312 0.929 . S
C1272 C1270 1.356 . S
C1272 C1274 1.358 . S
C1272 H1313 0.930 . S
C1273 C1271 1.353 . S
C1273 N1275 1.314 . S
C1273 H1314 0.930 . S
C1274 C1272 1.358 . S
C1274 N1275 1.279 . S
C1274 H1315 0.930 . S
N1275 C1273 1.314 . S
N1275 C1274 1.279 . S
C1276 C1278 1.353 . S
C1276 N1279 1.314 . S
C1276 H1282 0.930 . S
C1277 N1279 1.279 . S
C1277 C1280 1.358 . S
C1277 H1283 0.930 . S
C1278 C1276 1.353 . S
C1278 C1281 1.348 . S
C1278 H1316 0.929 . S
N1279 Li1234 1.990 . S
N1279 C1276 1.314 . S
N1279 C1277 1.279 . S
C1280 C1277 1.358 . S
C1280 C1281 1.356 . S
C1280 H1317 0.930 . S
C1281 C1278 1.348 . S
C1281 C1280 1.356 . S
H1282 C1276 0.930 . S
H1283 C1277 0.930 . S
C1284 N1285 1.314 . S
C1284 C1286 1.353 . S
C1284 H1290 0.930 . S
N1285 Li1235 1.990 . S
N1285 C1284 1.314 . S
N1285 C1288 1.279 . S
C1286 C1284 1.353 . S
C1286 C1289 1.348 . S
C1286 H1318 0.929 . S
C1287 C1288 1.358 . S
C1287 C1289 1.356 . S
C1287 H1319 0.930 . S
C1288 N1285 1.279 . S
C1288 C1287 1.358 . S
C1288 H1291 0.930 . S
C1289 C1286 1.348 . S
C1289 C1287 1.356 . S
H1290 C1284 0.930 . S
H1291 C1288 0.930 . S
O1292 Li1232 1.956 . S
O1292 Li1233 1.970 . S
O1292 Li1234 1.961 . S
O1292 C1236 1.325 . S
O1293 Li1232 1.970 . S
O1293 Li1233 1.956 . S
O1293 Li1235 1.961 . S
O1293 C1242 1.325 . S
O1294 Li1232 1.961 . S
O1294 Li1234 1.956 . S
O1294 Li1235 1.970 . S
O1294 C1264 1.325 . S
O1295 Li1233 1.961 . S
O1295 Li1234 1.970 . S
O1295 Li1235 1.956 . S
O1295 C1270 1.325 . S
H1296 C1238 0.929 . S
H1297 C1239 0.930 . S
H1298 C1240 0.930 . S
H1299 C1241 0.930 . S
H1300 C1243 0.930 . S
H1301 C1245 0.929 . S
H1302 C1246 0.930 . S
H1303 C1247 0.930 . S
H1304 C1250 0.930 . S
H1305 C1253 0.929 . S
H1306 C1258 0.929 . S
H1307 C1259 0.930 . S
H1308 C1266 0.929 . S
H1309 C1267 0.930 . S
H1310 C1268 0.930 . S
H1311 C1269 0.930 . S
H1312 C1271 0.929 . S
H1313 C1272 0.930 . S
H1314 C1273 0.930 . S
H1315 C1274 0.930 . S
H1316 C1278 0.929 . S
H1317 C1280 0.930 . S
H1318 C1286 0.929 . S
H1319 C1287 0.930 . S
Li1320 N1337 1.990 . S
Li1320 O1380 1.956 . S
Li1320 O1381 1.970 . S
Li1320 O1382 1.961 . S
Li1321 N1345 1.990 . S
Li1321 O1380 1.970 . S
Li1321 O1381 1.956 . S
Li1321 O1383 1.961 . S
Li1322 N1367 1.990 . S
Li1322 O1380 1.961 . S
Li1322 O1382 1.956 . S
Li1322 O1383 1.970 . S
Li1323 N1373 1.990 . S
Li1323 O1381 1.961 . S
Li1323 O1382 1.970 . S
Li1323 O1383 1.956 . S
C1324 C1326 1.348 . S
C1324 C1327 1.356 . S
C1324 O1380 1.325 . S
N1325 C1328 1.314 . S
N1325 C1329 1.279 . S
C1326 C1324 1.348 . S
C1326 C1328 1.353 . S
C1326 H1384 0.929 . S
C1327 C1324 1.356 . S
C1327 C1329 1.358 . S
C1327 H1385 0.930 . S
C1328 N1325 1.314 . S
C1328 C1326 1.353 . S
C1328 H1386 0.930 . S
C1329 N1325 1.279 . S
C1329 C1327 1.358 . S
C1329 H1387 0.930 . S
C1330 C1333 1.348 . S
C1330 C1334 1.356 . S
C1330 O1381 1.325 . S
C1331 N1332 1.279 . S
C1331 C1334 1.358 . S
C1331 H1388 0.930 . S
N1332 C1331 1.279 . S
N1332 C1335 1.314 . S
C1333 C1330 1.348 . S
C1333 C1335 1.353 . S
C1333 H1389 0.929 . S
C1334 C1330 1.356 . S
C1334 C1331 1.358 . S
C1334 H1390 0.930 . S
C1335 N1332 1.314 . S
C1335 C1333 1.353 . S
C1335 H1391 0.930 . S
C1336 N1337 1.314 . S
C1336 C1341 1.353 . S
C1336 H1342 0.930 . S
N1337 Li1320 1.990 . S
N1337 C1336 1.314 . S
N1337 C1339 1.279 . S
C1338 C1339 1.358 . S
C1338 C1340 1.356 . S
C1338 H1392 0.930 . S
C1339 N1337 1.279 . S
C1339 C1338 1.358 . S
C1339 H1343 0.930 . S
C1340 C1338 1.356 . S
C1340 C1341 1.348 . S
C1341 C1336 1.353 . S
C1341 C1340 1.348 . S
C1341 H1393 0.929 . S
H1342 C1336 0.930 . S
H1343 C1339 0.930 . S
C1344 N1345 1.314 . S
C1344 C1346 1.353 . S
C1344 H1350 0.930 . S
N1345 Li1321 1.990 . S
N1345 C1344 1.314 . S
N1345 C1348 1.279 . S
C1346 C1344 1.353 . S
C1346 C1349 1.348 . S
C1346 H1394 0.929 . S
C1347 C1348 1.358 . S
C1347 C1349 1.356 . S
C1347 H1395 0.930 . S
C1348 N1345 1.279 . S
C1348 C1347 1.358 . S
C1348 H1351 0.930 . S
C1349 C1346 1.348 . S
C1349 C1347 1.356 . S
H1350 C1344 0.930 . S
H1351 C1348 0.930 . S
C1352 C1354 1.348 . S
C1352 C1355 1.356 . S
C1352 O1382 1.325 . S
N1353 C1356 1.314 . S
N1353 C1357 1.279 . S
C1354 C1352 1.348 . S
C1354 C1356 1.353 . S
C1354 H1396 0.929 . S
C1355 C1352 1.356 . S
C1355 C1357 1.358 . S
C1355 H1397 0.930 . S
C1356 N1353 1.314 . S
C1356 C1354 1.353 . S
C1356 H1398 0.930 . S
C1357 N1353 1.279 . S
C1357 C1355 1.358 . S
C1357 H1399 0.930 . S
C1358 C1359 1.348 . S
C1358 C1360 1.356 . S
C1358 O1383 1.325 . S
C1359 C1358 1.348 . S
C1359 C1361 1.353 . S
C1359 H1400 0.929 . S
C1360 C1358 1.356 . S
C1360 C1362 1.358 . S
C1360 H1401 0.930 . S
C1361 C1359 1.353 . S
C1361 N1363 1.314 . S
C1361 H1402 0.930 . S
C1362 C1360 1.358 . S
C1362 N1363 1.279 . S
C1362 H1403 0.930 . S
N1363 C1361 1.314 . S
N1363 C1362 1.279 . S
C1364 C1366 1.353 . S
C1364 N1367 1.314 . S
C1364 H1370 0.930 . S
C1365 N1367 1.279 . S
C1365 C1368 1.358 . S
C1365 H1371 0.930 . S
C1366 C1364 1.353 . S
C1366 C1369 1.348 . S
C1366 H1404 0.929 . S
N1367 Li1322 1.990 . S
N1367 C1364 1.314 . S
N1367 C1365 1.279 . S
C1368 C1365 1.358 . S
C1368 C1369 1.356 . S
C1368 H1405 0.930 . S
C1369 C1366 1.348 . S
C1369 C1368 1.356 . S
H1370 C1364 0.930 . S
H1371 C1365 0.930 . S
C1372 N1373 1.314 . S
C1372 C1374 1.353 . S
C1372 H1378 0.930 . S
N1373 Li1323 1.990 . S
N1373 C1372 1.314 . S
N1373 C1376 1.279 . S
C1374 C1372 1.353 . S
C1374 C1377 1.348 . S
C1374 H1406 0.929 . S
C1375 C1376 1.358 . S
C1375 C1377 1.356 . S
C1375 H1407 0.930 . S
C1376 N1373 1.279 . S
C1376 C1375 1.358 . S
C1376 H1379 0.930 . S
C1377 C1374 1.348 . S
C1377 C1375 1.356 . S
H1378 C1372 0.930 . S
H1379 C1376 0.930 . S
O1380 Li1320 1.956 . S
O1380 Li1321 1.970 . S
O1380 Li1322 1.961 . S
O1380 C1324 1.325 . S
O1381 Li1320 1.970 . S
O1381 Li1321 1.956 . S
O1381 Li1323 1.961 . S
O1381 C1330 1.325 . S
O1382 Li1320 1.961 . S
O1382 Li1322 1.956 . S
O1382 Li1323 1.970 . S
O1382 C1352 1.325 . S
O1383 Li1321 1.961 . S
O1383 Li1322 1.970 . S
O1383 Li1323 1.956 . S
O1383 C1358 1.325 . S
H1384 C1326 0.929 . S
H1385 C1327 0.930 . S
H1386 C1328 0.930 . S
H1387 C1329 0.930 . S
H1388 C1331 0.930 . S
H1389 C1333 0.929 . S
H1390 C1334 0.930 . S
H1391 C1335 0.930 . S
H1392 C1338 0.930 . S
H1393 C1341 0.929 . S
H1394 C1346 0.929 . S
H1395 C1347 0.930 . S
H1396 C1354 0.929 . S
H1397 C1355 0.930 . S
H1398 C1356 0.930 . S
H1399 C1357 0.930 . S
H1400 C1359 0.929 . S
H1401 C1360 0.930 . S
H1402 C1361 0.930 . S
H1403 C1362 0.930 . S
H1404 C1366 0.929 . S
H1405 C1368 0.930 . S
H1406 C1374 0.929 . S
H1407 C1375 0.930 . S
Li1408 N1425 1.990 . S
Li1408 O1468 1.956 . S
Li1408 O1469 1.970 . S
Li1408 O1470 1.961 . S
Li1409 N1433 1.990 . S
Li1409 O1468 1.970 . S
Li1409 O1469 1.956 . S
Li1409 O1471 1.961 . S
Li1410 N1455 1.990 . S
Li1410 O1468 1.961 . S
Li1410 O1470 1.956 . S
Li1410 O1471 1.970 . S
Li1411 N1461 1.990 . S
Li1411 O1469 1.961 . S
Li1411 O1470 1.970 . S
Li1411 O1471 1.956 . S
C1412 C1414 1.348 . S
C1412 C1415 1.356 . S
C1412 O1468 1.325 . S
N1413 C1416 1.314 . S
N1413 C1417 1.279 . S
C1414 C1412 1.348 . S
C1414 C1416 1.353 . S
C1414 H1472 0.929 . S
C1415 C1412 1.356 . S
C1415 C1417 1.358 . S
C1415 H1473 0.930 . S
C1416 N1413 1.314 . S
C1416 C1414 1.353 . S
C1416 H1474 0.930 . S
C1417 N1413 1.279 . S
C1417 C1415 1.358 . S
C1417 H1475 0.930 . S
C1418 C1421 1.348 . S
C1418 C1422 1.356 . S
C1418 O1469 1.325 . S
C1419 N1420 1.279 . S
C1419 C1422 1.358 . S
C1419 H1476 0.930 . S
N1420 C1419 1.279 . S
N1420 C1423 1.314 . S
C1421 C1418 1.348 . S
C1421 C1423 1.353 . S
C1421 H1477 0.929 . S
C1422 C1418 1.356 . S
C1422 C1419 1.358 . S
C1422 H1478 0.930 . S
C1423 N1420 1.314 . S
C1423 C1421 1.353 . S
C1423 H1479 0.930 . S
C1424 N1425 1.314 . S
C1424 C1429 1.353 . S
C1424 H1430 0.930 . S
N1425 Li1408 1.990 . S
N1425 C1424 1.314 . S
N1425 C1427 1.279 . S
C1426 C1427 1.358 . S
C1426 C1428 1.356 . S
C1426 H1480 0.930 . S
C1427 N1425 1.279 . S
C1427 C1426 1.358 . S
C1427 H1431 0.930 . S
C1428 C1426 1.356 . S
C1428 C1429 1.348 . S
C1429 C1424 1.353 . S
C1429 C1428 1.348 . S
C1429 H1481 0.929 . S
H1430 C1424 0.930 . S
H1431 C1427 0.930 . S
C1432 N1433 1.314 . S
C1432 C1434 1.353 . S
C1432 H1438 0.930 . S
N1433 Li1409 1.990 . S
N1433 C1432 1.314 . S
N1433 C1436 1.279 . S
C1434 C1432 1.353 . S
C1434 C1437 1.348 . S
C1434 H1482 0.929 . S
C1435 C1436 1.358 . S
C1435 C1437 1.356 . S
C1435 H1483 0.930 . S
C1436 N1433 1.279 . S
C1436 C1435 1.358 . S
C1436 H1439 0.930 . S
C1437 C1434 1.348 . S
C1437 C1435 1.356 . S
H1438 C1432 0.930 . S
H1439 C1436 0.930 . S
C1440 C1442 1.348 . S
C1440 C1443 1.356 . S
C1440 O1470 1.325 . S
N1441 C1444 1.314 . S
N1441 C1445 1.279 . S
C1442 C1440 1.348 . S
C1442 C1444 1.353 . S
C1442 H1484 0.929 . S
C1443 C1440 1.356 . S
C1443 C1445 1.358 . S
C1443 H1485 0.930 . S
C1444 N1441 1.314 . S
C1444 C1442 1.353 . S
C1444 H1486 0.930 . S
C1445 N1441 1.279 . S
C1445 C1443 1.358 . S
C1445 H1487 0.930 . S
C1446 C1447 1.348 . S
C1446 C1448 1.356 . S
C1446 O1471 1.325 . S
C1447 C1446 1.348 . S
C1447 C1449 1.353 . S
C1447 H1488 0.929 . S
C1448 C1446 1.356 . S
C1448 C1450 1.358 . S
C1448 H1489 0.930 . S
C1449 C1447 1.353 . S
C1449 N1451 1.314 . S
C1449 H1490 0.930 . S
C1450 C1448 1.358 . S
C1450 N1451 1.279 . S
C1450 H1491 0.930 . S
N1451 C1449 1.314 . S
N1451 C1450 1.279 . S
C1452 C1454 1.353 . S
C1452 N1455 1.314 . S
C1452 H1458 0.930 . S
C1453 N1455 1.279 . S
C1453 C1456 1.358 . S
C1453 H1459 0.930 . S
C1454 C1452 1.353 . S
C1454 C1457 1.348 . S
C1454 H1492 0.929 . S
N1455 Li1410 1.990 . S
N1455 C1452 1.314 . S
N1455 C1453 1.279 . S
C1456 C1453 1.358 . S
C1456 C1457 1.356 . S
C1456 H1493 0.930 . S
C1457 C1454 1.348 . S
C1457 C1456 1.356 . S
H1458 C1452 0.930 . S
H1459 C1453 0.930 . S
C1460 N1461 1.314 . S
C1460 C1462 1.353 . S
C1460 H1466 0.930 . S
N1461 Li1411 1.990 . S
N1461 C1460 1.314 . S
N1461 C1464 1.279 . S
C1462 C1460 1.353 . S
C1462 C1465 1.348 . S
C1462 H1494 0.929 . S
C1463 C1464 1.358 . S
C1463 C1465 1.356 . S
C1463 H1495 0.930 . S
C1464 N1461 1.279 . S
C1464 C1463 1.358 . S
C1464 H1467 0.930 . S
C1465 C1462 1.348 . S
C1465 C1463 1.356 . S
H1466 C1460 0.930 . S
H1467 C1464 0.930 . S
O1468 Li1408 1.956 . S
O1468 Li1409 1.970 . S
O1468 Li1410 1.961 . S
O1468 C1412 1.325 . S
O1469 Li1408 1.970 . S
O1469 Li1409 1.956 . S
O1469 Li1411 1.961 . S
O1469 C1418 1.325 . S
O1470 Li1408 1.961 . S
O1470 Li1410 1.956 . S
O1470 Li1411 1.970 . S
O1470 C1440 1.325 . S
O1471 Li1409 1.961 . S
O1471 Li1410 1.970 . S
O1471 Li1411 1.956 . S
O1471 C1446 1.325 . S
H1472 C1414 0.929 . S
H1473 C1415 0.930 . S
H1474 C1416 0.930 . S
H1475 C1417 0.930 . S
H1476 C1419 0.930 . S
H1477 C1421 0.929 . S
H1478 C1422 0.930 . S
H1479 C1423 0.930 . S
H1480 C1426 0.930 . S
H1481 C1429 0.929 . S
H1482 C1434 0.929 . S
H1483 C1435 0.930 . S
H1484 C1442 0.929 . S
H1485 C1443 0.930 . S
H1486 C1444 0.930 . S
H1487 C1445 0.930 . S
H1488 C1447 0.929 . S
H1489 C1448 0.930 . S
H1490 C1449 0.930 . S
H1491 C1450 0.930 . S
H1492 C1454 0.929 . S
H1493 C1456 0.930 . S
H1494 C1462 0.929 . S
H1495 C1463 0.930 . S
Li1496 N1513 1.990 . S
Li1496 O1556 1.956 . S
Li1496 O1557 1.970 . S
Li1496 O1558 1.961 . S
Li1497 N1521 1.990 . S
Li1497 O1556 1.970 . S
Li1497 O1557 1.956 . S
Li1497 O1559 1.961 . S
Li1498 N1543 1.990 . S
Li1498 O1556 1.961 . S
Li1498 O1558 1.956 . S
Li1498 O1559 1.970 . S
Li1499 N1549 1.990 . S
Li1499 O1557 1.961 . S
Li1499 O1558 1.970 . S
Li1499 O1559 1.956 . S
C1500 C1502 1.348 . S
C1500 C1503 1.356 . S
C1500 O1556 1.325 . S
N1501 C1504 1.314 . S
N1501 C1505 1.279 . S
C1502 C1500 1.348 . S
C1502 C1504 1.353 . S
C1502 H1560 0.929 . S
C1503 C1500 1.356 . S
C1503 C1505 1.358 . S
C1503 H1561 0.930 . S
C1504 N1501 1.314 . S
C1504 C1502 1.353 . S
C1504 H1562 0.930 . S
C1505 N1501 1.279 . S
C1505 C1503 1.358 . S
C1505 H1563 0.930 . S
C1506 C1509 1.348 . S
C1506 C1510 1.356 . S
C1506 O1557 1.325 . S
C1507 N1508 1.279 . S
C1507 C1510 1.358 . S
C1507 H1564 0.930 . S
N1508 C1507 1.279 . S
N1508 C1511 1.314 . S
C1509 C1506 1.348 . S
C1509 C1511 1.353 . S
C1509 H1565 0.929 . S
C1510 C1506 1.356 . S
C1510 C1507 1.358 . S
C1510 H1566 0.930 . S
C1511 N1508 1.314 . S
C1511 C1509 1.353 . S
C1511 H1567 0.930 . S
C1512 N1513 1.314 . S
C1512 C1517 1.353 . S
C1512 H1518 0.930 . S
N1513 Li1496 1.990 . S
N1513 C1512 1.314 . S
N1513 C1515 1.279 . S
C1514 C1515 1.358 . S
C1514 C1516 1.356 . S
C1514 H1568 0.930 . S
C1515 N1513 1.279 . S
C1515 C1514 1.358 . S
C1515 H1519 0.930 . S
C1516 C1514 1.356 . S
C1516 C1517 1.348 . S
C1517 C1512 1.353 . S
C1517 C1516 1.348 . S
C1517 H1569 0.929 . S
H1518 C1512 0.930 . S
H1519 C1515 0.930 . S
C1520 N1521 1.314 . S
C1520 C1522 1.353 . S
C1520 H1526 0.930 . S
N1521 Li1497 1.990 . S
N1521 C1520 1.314 . S
N1521 C1524 1.279 . S
C1522 C1520 1.353 . S
C1522 C1525 1.348 . S
C1522 H1570 0.929 . S
C1523 C1524 1.358 . S
C1523 C1525 1.356 . S
C1523 H1571 0.930 . S
C1524 N1521 1.279 . S
C1524 C1523 1.358 . S
C1524 H1527 0.930 . S
C1525 C1522 1.348 . S
C1525 C1523 1.356 . S
H1526 C1520 0.930 . S
H1527 C1524 0.930 . S
C1528 C1530 1.348 . S
C1528 C1531 1.356 . S
C1528 O1558 1.325 . S
N1529 C1532 1.314 . S
N1529 C1533 1.279 . S
C1530 C1528 1.348 . S
C1530 C1532 1.353 . S
C1530 H1572 0.929 . S
C1531 C1528 1.356 . S
C1531 C1533 1.358 . S
C1531 H1573 0.930 . S
C1532 N1529 1.314 . S
C1532 C1530 1.353 . S
C1532 H1574 0.930 . S
C1533 N1529 1.279 . S
C1533 C1531 1.358 . S
C1533 H1575 0.930 . S
C1534 C1535 1.348 . S
C1534 C1536 1.356 . S
C1534 O1559 1.325 . S
C1535 C1534 1.348 . S
C1535 C1537 1.353 . S
C1535 H1576 0.929 . S
C1536 C1534 1.356 . S
C1536 C1538 1.358 . S
C1536 H1577 0.930 . S
C1537 C1535 1.353 . S
C1537 N1539 1.314 . S
C1537 H1578 0.930 . S
C1538 C1536 1.358 . S
C1538 N1539 1.279 . S
C1538 H1579 0.930 . S
N1539 C1537 1.314 . S
N1539 C1538 1.279 . S
C1540 C1542 1.353 . S
C1540 N1543 1.314 . S
C1540 H1546 0.930 . S
C1541 N1543 1.279 . S
C1541 C1544 1.358 . S
C1541 H1547 0.930 . S
C1542 C1540 1.353 . S
C1542 C1545 1.348 . S
C1542 H1580 0.929 . S
N1543 Li1498 1.990 . S
N1543 C1540 1.314 . S
N1543 C1541 1.279 . S
C1544 C1541 1.358 . S
C1544 C1545 1.356 . S
C1544 H1581 0.930 . S
C1545 C1542 1.348 . S
C1545 C1544 1.356 . S
H1546 C1540 0.930 . S
H1547 C1541 0.930 . S
C1548 N1549 1.314 . S
C1548 C1550 1.353 . S
C1548 H1554 0.930 . S
N1549 Li1499 1.990 . S
N1549 C1548 1.314 . S
N1549 C1552 1.279 . S
C1550 C1548 1.353 . S
C1550 C1553 1.348 . S
C1550 H1582 0.929 . S
C1551 C1552 1.358 . S
C1551 C1553 1.356 . S
C1551 H1583 0.930 . S
C1552 N1549 1.279 . S
C1552 C1551 1.358 . S
C1552 H1555 0.930 . S
C1553 C1550 1.348 . S
C1553 C1551 1.356 . S
H1554 C1548 0.930 . S
H1555 C1552 0.930 . S
O1556 Li1496 1.956 . S
O1556 Li1497 1.970 . S
O1556 Li1498 1.961 . S
O1556 C1500 1.325 . S
O1557 Li1496 1.970 . S
O1557 Li1497 1.956 . S
O1557 Li1499 1.961 . S
O1557 C1506 1.325 . S
O1558 Li1496 1.961 . S
O1558 Li1498 1.956 . S
O1558 Li1499 1.970 . S
O1558 C1528 1.325 . S
O1559 Li1497 1.961 . S
O1559 Li1498 1.970 . S
O1559 Li1499 1.956 . S
O1559 C1534 1.325 . S
H1560 C1502 0.929 . S
H1561 C1503 0.930 . S
H1562 C1504 0.930 . S
H1563 C1505 0.930 . S
H1564 C1507 0.930 . S
H1565 C1509 0.929 . S
H1566 C1510 0.930 . S
H1567 C1511 0.930 . S
H1568 C1514 0.930 . S
H1569 C1517 0.929 . S
H1570 C1522 0.929 . S
H1571 C1523 0.930 . S
H1572 C1530 0.929 . S
H1573 C1531 0.930 . S
H1574 C1532 0.930 . S
H1575 C1533 0.930 . S
H1576 C1535 0.929 . S
H1577 C1536 0.930 . S
H1578 C1537 0.930 . S
H1579 C1538 0.930 . S
H1580 C1542 0.929 . S
H1581 C1544 0.930 . S
H1582 C1550 0.929 . S
H1583 C1551 0.930 . S
H1584 C1590 0.930 . S
H1585 C1594 0.930 . S
H1586 C1599 0.929 . S
H1587 C1597 0.929 . S
H1588 C1592 0.929 . S
H1589 C1598 0.929 . S
C1590 H1584 0.930 . S
C1590 C1591 1.367 . S
C1590 C1598 1.378 . S
C1591 C1590 1.367 . S
C1591 C1599 1.433 . S
C1592 H1588 0.929 . S
C1592 C1594 1.378 . S
C1592 C1596 1.350 . S
C1593 C1596 1.463 . S
C1593 C1598 1.350 . S
C1593 N1601 1.427 . S
C1594 H1585 0.930 . S
C1594 C1592 1.378 . S
C1594 C1595 1.367 . S
C1595 C1594 1.367 . S
C1595 C1597 1.433 . S
C1596 C1592 1.350 . S
C1596 C1593 1.463 . S
C1596 N1600 1.427 . S
C1597 H1587 0.929 . S
C1597 C1595 1.433 . S
C1597 N1600 1.384 . S
C1598 H1589 0.929 . S
C1598 C1590 1.378 . S
C1598 C1593 1.350 . S
C1599 H1586 0.929 . S
C1599 C1591 1.433 . S
C1599 N1601 1.384 . S
N1600 C1596 1.427 . S
N1600 C1597 1.384 . S
N1601 C1593 1.427 . S
N1601 C1599 1.384 . S
H1602 C1608 0.930 . S
H1603 C1612 0.930 . S
H1604 C1617 0.929 . S
H1605 C1615 0.929 . S
H1606 C1610 0.929 . S
H1607 C1616 0.929 . S
C1608 H1602 0.930 . S
C1608 C1609 1.367 . S
C1608 C1616 1.378 . S
C1609 C1608 1.367 . S
C1609 C1617 1.433 . S
C1610 H1606 0.929 . S
C1610 C1612 1.378 . S
C1610 C1614 1.350 . S
C1611 C1614 1.463 . S
C1611 C1616 1.350 . S
C1611 N1619 1.427 . S
C1612 H1603 0.930 . S
C1612 C1610 1.378 . S
C1612 C1613 1.367 . S
C1613 C1612 1.367 . S
C1613 C1615 1.433 . S
C1614 C1610 1.350 . S
C1614 C1611 1.463 . S
C1614 N1618 1.427 . S
C1615 H1605 0.929 . S
C1615 C1613 1.433 . S
C1615 N1618 1.384 . S
C1616 H1607 0.929 . S
C1616 C1608 1.378 . S
C1616 C1611 1.350 . S
C1617 H1604 0.929 . S
C1617 C1609 1.433 . S
C1617 N1619 1.384 . S
N1618 C1614 1.427 . S
N1618 C1615 1.384 . S
N1619 C1611 1.427 . S
N1619 C1617 1.384 . S
H1620 C1626 0.930 . S
H1621 C1630 0.930 . S
H1622 C1635 0.929 . S
H1623 C1633 0.929 1_455 S
H1624 C1628 0.929 . S
H1625 C1634 0.929 . S
C1626 H1620 0.930 . S
C1626 C1627 1.367 . S
C1626 C1634 1.378 . S
C1627 C1626 1.367 . S
C1627 C1635 1.433 . S
C1628 H1624 0.929 . S
C1628 C1630 1.378 . S
C1628 C1632 1.350 . S
C1629 C1632 1.463 . S
C1629 C1634 1.350 . S
C1629 N1637 1.427 . S
C1630 H1621 0.930 . S
C1630 C1628 1.378 . S
C1630 C1631 1.367 . S
C1631 C1630 1.367 . S
C1631 C1633 1.433 . S
C1632 C1628 1.350 . S
C1632 C1629 1.463 . S
C1632 N1636 1.427 . S
C1633 H1623 0.929 1_655 S
C1633 C1631 1.433 . S
C1633 N1636 1.384 . S
C1634 H1625 0.929 . S
C1634 C1626 1.378 . S
C1634 C1629 1.350 . S
C1635 H1622 0.929 . S
C1635 C1627 1.433 . S
C1635 N1637 1.384 . S
N1636 C1632 1.427 . S
N1636 C1633 1.384 . S
N1637 C1629 1.427 . S
N1637 C1635 1.384 . S
H1638 C1644 0.930 . S
H1639 C1648 0.930 . S
H1640 C1653 0.929 . S
H1641 C1651 0.929 . S
H1642 C1646 0.929 . S
H1643 C1652 0.929 . S
C1644 H1638 0.930 . S
C1644 C1645 1.367 . S
C1644 C1652 1.378 . S
C1645 C1644 1.367 . S
C1645 C1653 1.433 . S
C1646 H1642 0.929 . S
C1646 C1648 1.378 . S
C1646 C1650 1.350 . S
C1647 C1650 1.463 . S
C1647 C1652 1.350 . S
C1647 N1655 1.427 . S
C1648 H1639 0.930 . S
C1648 C1646 1.378 . S
C1648 C1649 1.367 . S
C1649 C1648 1.367 . S
C1649 C1651 1.433 . S
C1650 C1646 1.350 . S
C1650 C1647 1.463 . S
C1650 N1654 1.427 . S
C1651 H1641 0.929 . S
C1651 C1649 1.433 . S
C1651 N1654 1.384 . S
C1652 H1643 0.929 . S
C1652 C1644 1.378 . S
C1652 C1647 1.350 . S
C1653 H1640 0.929 . S
C1653 C1645 1.433 . S
C1653 N1655 1.384 . S
N1654 C1650 1.427 . S
N1654 C1651 1.384 . S
N1655 C1647 1.427 . S
N1655 C1653 1.384 . S
H1656 C1662 0.930 1_545 S
H1657 C1666 0.930 . S
H1658 C1671 0.929 . S
H1659 C1669 0.929 . S
H1660 C1664 0.929 . S
H1661 C1670 0.929 . S
C1662 H1656 0.930 1_565 S
C1662 C1663 1.367 . S
C1662 C1670 1.378 . S
C1663 C1662 1.367 . S
C1663 C1671 1.433 . S
C1664 H1660 0.929 . S
C1664 C1666 1.378 . S
C1664 C1668 1.350 . S
C1665 C1668 1.463 . S
C1665 C1670 1.350 . S
C1665 N1673 1.427 . S
C1666 H1657 0.930 . S
C1666 C1664 1.378 . S
C1666 C1667 1.367 . S
C1667 C1666 1.367 . S
C1667 C1669 1.433 . S
C1668 C1664 1.350 . S
C1668 C1665 1.463 . S
C1668 N1672 1.427 . S
C1669 H1659 0.929 . S
C1669 C1667 1.433 . S
C1669 N1672 1.384 . S
C1670 H1661 0.929 . S
C1670 C1662 1.378 . S
C1670 C1665 1.350 . S
C1671 H1658 0.929 . S
C1671 C1663 1.433 . S
C1671 N1673 1.384 . S
N1672 C1668 1.427 . S
N1672 C1669 1.384 . S
N1673 C1665 1.427 . S
N1673 C1671 1.384 . S
H1674 C1680 0.930 . S
H1675 C1684 0.930 1_655 S
H1676 C1689 0.929 . S
H1677 C1687 0.929 . S
H1678 C1682 0.929 . S
H1679 C1688 0.929 . S
C1680 H1674 0.930 . S
C1680 C1681 1.367 . S
C1680 C1688 1.378 . S
C1681 C1680 1.367 . S
C1681 C1689 1.433 . S
C1682 H1678 0.929 . S
C1682 C1684 1.378 . S
C1682 C1686 1.350 . S
C1683 C1686 1.463 . S
C1683 C1688 1.350 . S
C1683 N1691 1.427 . S
C1684 H1675 0.930 1_455 S
C1684 C1682 1.378 . S
C1684 C1685 1.367 . S
C1685 C1684 1.367 . S
C1685 C1687 1.433 . S
C1686 C1682 1.350 . S
C1686 C1683 1.463 . S
C1686 N1690 1.427 . S
C1687 H1677 0.929 . S
C1687 C1685 1.433 . S
C1687 N1690 1.384 . S
C1688 H1679 0.929 . S
C1688 C1680 1.378 . S
C1688 C1683 1.350 . S
C1689 H1676 0.929 . S
C1689 C1681 1.433 . S
C1689 N1691 1.384 . S
N1690 C1686 1.427 . S
N1690 C1687 1.384 . S
N1691 C1683 1.427 . S
N1691 C1689 1.384 . S
H1692 C1698 0.930 . S
H1693 C1702 0.930 . S
H1694 C1707 0.929 . S
H1695 C1705 0.929 . S
H1696 C1700 0.929 . S
H1697 C1706 0.929 . S
C1698 H1692 0.930 . S
C1698 C1699 1.367 . S
C1698 C1706 1.378 . S
C1699 C1698 1.367 . S
C1699 C1707 1.433 . S
C1700 H1696 0.929 . S
C1700 C1702 1.378 . S
C1700 C1704 1.350 . S
C1701 C1704 1.463 1_655 S
C1701 C1706 1.350 . S
C1701 N1709 1.427 . S
C1702 H1693 0.930 . S
C1702 C1700 1.378 . S
C1702 C1703 1.367 . S
C1703 C1702 1.367 . S
C1703 C1705 1.433 . S
C1704 C1700 1.350 . S
C1704 C1701 1.463 1_455 S
C1704 N1708 1.427 . S
C1705 H1695 0.929 . S
C1705 C1703 1.433 . S
C1705 N1708 1.384 . S
C1706 H1697 0.929 . S
C1706 C1698 1.378 . S
C1706 C1701 1.350 . S
C1707 H1694 0.929 . S
C1707 C1699 1.433 . S
C1707 N1709 1.384 . S
N1708 C1704 1.427 . S
N1708 C1705 1.384 . S
N1709 C1701 1.427 . S
N1709 C1707 1.384 . S
H1710 C1716 0.930 . S
H1711 C1720 0.930 . S
H1712 C1725 0.929 . S
H1713 C1723 0.929 . S
H1714 C1718 0.929 . S
H1715 C1724 0.929 . S
C1716 H1710 0.930 . S
C1716 C1717 1.367 . S
C1716 C1724 1.378 . S
C1717 C1716 1.367 . S
C1717 C1725 1.433 . S
C1718 H1714 0.929 . S
C1718 C1720 1.378 . S
C1718 C1722 1.350 . S
C1719 C1722 1.463 . S
C1719 C1724 1.350 . S
C1719 N1727 1.427 . S
C1720 H1711 0.930 . S
C1720 C1718 1.378 . S
C1720 C1721 1.367 . S
C1721 C1720 1.367 . S
C1721 C1723 1.433 . S
C1722 C1718 1.350 . S
C1722 C1719 1.463 . S
C1722 N1726 1.427 . S
C1723 H1713 0.929 . S
C1723 C1721 1.433 . S
C1723 N1726 1.384 . S
C1724 H1715 0.929 . S
C1724 C1716 1.378 . S
C1724 C1719 1.350 . S
C1725 H1712 0.929 . S
C1725 C1717 1.433 . S
C1725 N1727 1.384 . S
N1726 C1722 1.427 . S
N1726 C1723 1.384 . S
N1727 C1719 1.427 . S
N1727 C1725 1.384 . S
H1728 C1734 0.930 . S
H1729 C1738 0.930 . S
H1730 C1743 0.929 . S
H1731 C1741 0.929 . S
H1732 C1736 0.929 . S
H1733 C1742 0.929 . S
C1734 H1728 0.930 . S
C1734 C1735 1.367 . S
C1734 C1742 1.378 . S
C1735 C1734 1.367 . S
C1735 C1743 1.433 . S
C1736 H1732 0.929 . S
C1736 C1738 1.378 . S
C1736 C1740 1.350 . S
C1737 C1740 1.463 1_545 S
C1737 C1742 1.350 . S
C1737 N1745 1.427 . S
C1738 H1729 0.930 . S
C1738 C1736 1.378 . S
C1738 C1739 1.367 . S
C1739 C1738 1.367 . S
C1739 C1741 1.433 . S
C1740 C1736 1.350 . S
C1740 C1737 1.463 1_565 S
C1740 N1744 1.427 . S
C1741 H1731 0.929 . S
C1741 C1739 1.433 . S
C1741 N1744 1.384 . S
C1742 H1733 0.929 . S
C1742 C1734 1.378 . S
C1742 C1737 1.350 . S
C1743 H1730 0.929 . S
C1743 C1735 1.433 . S
C1743 N1745 1.384 . S
N1744 C1740 1.427 . S
N1744 C1741 1.384 . S
N1745 C1737 1.427 . S
N1745 C1743 1.384 . S
H1746 C1752 0.930 . S
H1747 C1756 0.930 . S
H1748 C1761 0.929 . S
H1749 C1759 0.929 . S
H1750 C1754 0.929 . S
H1751 C1760 0.929 . S
C1752 H1746 0.930 . S
C1752 C1753 1.367 . S
C1752 C1760 1.378 . S
C1753 C1752 1.367 . S
C1753 C1761 1.433 . S
C1754 H1750 0.929 . S
C1754 C1756 1.378 . S
C1754 C1758 1.350 . S
C1755 C1758 1.463 1_455 S
C1755 C1760 1.350 . S
C1755 N1763 1.427 . S
C1756 H1747 0.930 . S
C1756 C1754 1.378 . S
C1756 C1757 1.367 . S
C1757 C1756 1.367 . S
C1757 C1759 1.433 . S
C1758 C1754 1.350 . S
C1758 C1755 1.463 1_655 S
C1758 N1762 1.427 . S
C1759 H1749 0.929 . S
C1759 C1757 1.433 . S
C1759 N1762 1.384 . S
C1760 H1751 0.929 . S
C1760 C1752 1.378 . S
C1760 C1755 1.350 . S
C1761 H1748 0.929 . S
C1761 C1753 1.433 . S
C1761 N1763 1.384 . S
N1762 C1758 1.427 . S
N1762 C1759 1.384 . S
N1763 C1755 1.427 . S
N1763 C1761 1.384 . S
H1764 C1770 0.930 . S
H1765 C1774 0.930 . S
H1766 C1779 0.929 . S
H1767 C1777 0.929 . S
H1768 C1772 0.929 . S
H1769 C1778 0.929 . S
C1770 H1764 0.930 . S
C1770 C1771 1.367 . S
C1770 C1778 1.378 . S
C1771 C1770 1.367 . S
C1771 C1779 1.433 . S
C1772 H1768 0.929 . S
C1772 C1774 1.378 . S
C1772 C1776 1.350 . S
C1773 C1776 1.463 . S
C1773 C1778 1.350 . S
C1773 N1781 1.427 . S
C1774 H1765 0.930 . S
C1774 C1772 1.378 . S
C1774 C1775 1.367 . S
C1775 C1774 1.367 . S
C1775 C1777 1.433 . S
C1776 C1772 1.350 . S
C1776 C1773 1.463 . S
C1776 N1780 1.427 . S
C1777 H1767 0.929 . S
C1777 C1775 1.433 . S
C1777 N1780 1.384 . S
C1778 H1769 0.929 . S
C1778 C1770 1.378 . S
C1778 C1773 1.350 . S
C1779 H1766 0.929 . S
C1779 C1771 1.433 . S
C1779 N1781 1.384 . S
N1780 C1776 1.427 . S
N1780 C1777 1.384 . S
N1781 C1773 1.427 . S
N1781 C1779 1.384 . S
H1782 C1788 0.930 . S
H1783 C1792 0.930 . S
H1784 C1797 0.929 . S
H1785 C1795 0.929 . S
H1786 C1790 0.929 . S
H1787 C1796 0.929 . S
C1788 H1782 0.930 . S
C1788 C1789 1.367 . S
C1788 C1796 1.378 . S
C1789 C1788 1.367 . S
C1789 C1797 1.433 . S
C1790 H1786 0.929 . S
C1790 C1792 1.378 . S
C1790 C1794 1.350 . S
C1791 C1794 1.463 1_545 S
C1791 C1796 1.350 . S
C1791 N1799 1.427 . S
C1792 H1783 0.930 . S
C1792 C1790 1.378 . S
C1792 C1793 1.367 . S
C1793 C1792 1.367 . S
C1793 C1795 1.433 . S
C1794 C1790 1.350 . S
C1794 C1791 1.463 1_565 S
C1794 N1798 1.427 . S
C1795 H1785 0.929 . S
C1795 C1793 1.433 . S
C1795 N1798 1.384 . S
C1796 H1787 0.929 . S
C1796 C1788 1.378 . S
C1796 C1791 1.350 . S
C1797 H1784 0.929 . S
C1797 C1789 1.433 . S
C1797 N1799 1.384 . S
N1798 C1794 1.427 . S
N1798 C1795 1.384 . S
N1799 C1791 1.427 . S
N1799 C1797 1.384 . S
H1800 C1806 0.930 . S
H1801 C1810 0.930 . S
H1802 C1815 0.929 . S
H1803 C1813 0.929 . S
H1804 C1808 0.929 . S
H1805 C1814 0.929 . S
C1806 H1800 0.930 . S
C1806 C1807 1.367 . S
C1806 C1814 1.378 . S
C1807 C1806 1.367 . S
C1807 C1815 1.433 . S
C1808 H1804 0.929 . S
C1808 C1810 1.378 . S
C1808 C1812 1.350 . S
C1809 C1812 1.463 1_565 S
C1809 C1814 1.350 . S
C1809 N1817 1.427 . S
C1810 H1801 0.930 . S
C1810 C1808 1.378 . S
C1810 C1811 1.367 . S
C1811 C1810 1.367 . S
C1811 C1813 1.433 . S
C1812 C1808 1.350 . S
C1812 C1809 1.463 1_545 S
C1812 N1816 1.427 . S
C1813 H1803 0.929 . S
C1813 C1811 1.433 . S
C1813 N1816 1.384 . S
C1814 H1805 0.929 . S
C1814 C1806 1.378 . S
C1814 C1809 1.350 . S
C1815 H1802 0.929 . S
C1815 C1807 1.433 . S
C1815 N1817 1.384 . S
N1816 C1812 1.427 . S
N1816 C1813 1.384 . S
N1817 C1809 1.427 . S
N1817 C1815 1.384 . S
H1818 C1824 0.930 . S
H1819 C1828 0.930 . S
H1820 C1833 0.929 . S
H1821 C1831 0.929 . S
H1822 C1826 0.929 . S
H1823 C1832 0.929 . S
C1824 H1818 0.930 . S
C1824 C1825 1.367 . S
C1824 C1832 1.378 . S
C1825 C1824 1.367 . S
C1825 C1833 1.433 . S
C1826 H1822 0.929 . S
C1826 C1828 1.378 . S
C1826 C1830 1.350 . S
C1827 C1830 1.463 1_455 S
C1827 C1832 1.350 . S
C1827 N1835 1.427 . S
C1828 H1819 0.930 . S
C1828 C1826 1.378 . S
C1828 C1829 1.367 . S
C1829 C1828 1.367 . S
C1829 C1831 1.433 . S
C1830 C1826 1.350 . S
C1830 C1827 1.463 1_655 S
C1830 N1834 1.427 . S
C1831 H1821 0.929 . S
C1831 C1829 1.433 . S
C1831 N1834 1.384 . S
C1832 H1823 0.929 . S
C1832 C1824 1.378 . S
C1832 C1827 1.350 . S
C1833 H1820 0.929 . S
C1833 C1825 1.433 . S
C1833 N1835 1.384 . S
N1834 C1830 1.427 . S
N1834 C1831 1.384 . S
N1835 C1827 1.427 . S
N1835 C1833 1.384 . S
H1836 C1842 0.930 . S
H1837 C1846 0.930 . S
H1838 C1851 0.929 . S
H1839 C1849 0.929 . S
H1840 C1844 0.929 . S
H1841 C1850 0.929 . S
C1842 H1836 0.930 . S
C1842 C1843 1.367 . S
C1842 C1850 1.378 . S
C1843 C1842 1.367 . S
C1843 C1851 1.433 . S
C1844 H1840 0.929 . S
C1844 C1846 1.378 . S
C1844 C1848 1.350 . S
C1845 C1848 1.463 . S
C1845 C1850 1.350 . S
C1845 N1853 1.427 . S
C1846 H1837 0.930 . S
C1846 C1844 1.378 . S
C1846 C1847 1.367 . S
C1847 C1846 1.367 . S
C1847 C1849 1.433 . S
C1848 C1844 1.350 . S
C1848 C1845 1.463 . S
C1848 N1852 1.427 . S
C1849 H1839 0.929 . S
C1849 C1847 1.433 . S
C1849 N1852 1.384 . S
C1850 H1841 0.929 . S
C1850 C1842 1.378 . S
C1850 C1845 1.350 . S
C1851 H1838 0.929 . S
C1851 C1843 1.433 . S
C1851 N1853 1.384 . S
N1852 C1848 1.427 . S
N1852 C1849 1.384 . S
N1853 C1845 1.427 . S
N1853 C1851 1.384 . S
H1854 C1860 0.930 . S
H1855 C1864 0.930 . S
H1856 C1869 0.929 . S
H1857 C1867 0.929 . S
H1858 C1862 0.929 . S
H1859 C1868 0.929 . S
C1860 H1854 0.930 . S
C1860 C1861 1.367 . S
C1860 C1868 1.378 . S
C1861 C1860 1.367 . S
C1861 C1869 1.433 . S
C1862 H1858 0.929 . S
C1862 C1864 1.378 . S
C1862 C1866 1.350 . S
C1863 C1866 1.463 . S
C1863 C1868 1.350 . S
C1863 N1871 1.427 . S
C1864 H1855 0.930 . S
C1864 C1862 1.378 . S
C1864 C1865 1.367 . S
C1865 C1864 1.367 . S
C1865 C1867 1.433 . S
C1866 C1862 1.350 . S
C1866 C1863 1.463 . S
C1866 N1870 1.427 . S
C1867 H1857 0.929 . S
C1867 C1865 1.433 . S
C1867 N1870 1.384 . S
C1868 H1859 0.929 . S
C1868 C1860 1.378 . S
C1868 C1863 1.350 . S
C1869 H1856 0.929 . S
C1869 C1861 1.433 . S
C1869 N1871 1.384 . S
N1870 C1866 1.427 . S
N1870 C1867 1.384 . S
N1871 C1863 1.427 . S
N1871 C1869 1.384 . S
H1872 C1878 0.930 . S
H1873 C1882 0.930 . S
H1874 C1887 0.929 . S
H1875 C1885 0.929 . S
H1876 C1880 0.929 . S
H1877 C1886 0.929 . S
C1878 H1872 0.930 . S
C1878 C1879 1.367 . S
C1878 C1886 1.378 . S
C1879 C1878 1.367 . S
C1879 C1887 1.433 . S
C1880 H1876 0.929 . S
C1880 C1882 1.378 . S
C1880 C1884 1.350 . S
C1881 C1884 1.463 . S
C1881 C1886 1.350 . S
C1881 N1889 1.427 . S
C1882 H1873 0.930 . S
C1882 C1880 1.378 . S
C1882 C1883 1.367 . S
C1883 C1882 1.367 . S
C1883 C1885 1.433 . S
C1884 C1880 1.350 . S
C1884 C1881 1.463 . S
C1884 N1888 1.427 . S
C1885 H1875 0.929 . S
C1885 C1883 1.433 . S
C1885 N1888 1.384 . S
C1886 H1877 0.929 . S
C1886 C1878 1.378 . S
C1886 C1881 1.350 . S
C1887 H1874 0.929 . S
C1887 C1879 1.433 . S
C1887 N1889 1.384 . S
N1888 C1884 1.427 . S
N1888 C1885 1.384 . S
N1889 C1881 1.427 . S
N1889 C1887 1.384 . S
H1890 C1896 0.930 . S
H1891 C1900 0.930 . S
H1892 C1905 0.929 . S
H1893 C1903 0.929 . S
H1894 C1898 0.929 . S
H1895 C1904 0.929 . S
C1896 H1890 0.930 . S
C1896 C1897 1.367 . S
C1896 C1904 1.378 . S
C1897 C1896 1.367 . S
C1897 C1905 1.433 . S
C1898 H1894 0.929 . S
C1898 C1900 1.378 . S
C1898 C1902 1.350 . S
C1899 C1902 1.463 . S
C1899 C1904 1.350 . S
C1899 N1907 1.427 . S
C1900 H1891 0.930 . S
C1900 C1898 1.378 . S
C1900 C1901 1.367 . S
C1901 C1900 1.367 . S
C1901 C1903 1.433 . S
C1902 C1898 1.350 . S
C1902 C1899 1.463 . S
C1902 N1906 1.427 . S
C1903 H1893 0.929 . S
C1903 C1901 1.433 . S
C1903 N1906 1.384 . S
C1904 H1895 0.929 . S
C1904 C1896 1.378 . S
C1904 C1899 1.350 . S
C1905 H1892 0.929 . S
C1905 C1897 1.433 . S
C1905 N1907 1.384 . S
N1906 C1902 1.427 . S
N1906 C1903 1.384 . S
N1907 C1899 1.427 . S
N1907 C1905 1.384 . S
H1908 C1914 0.930 . S
H1909 C1918 0.930 . S
H1910 C1923 0.929 . S
H1911 C1921 0.929 . S
H1912 C1916 0.929 . S
H1913 C1922 0.929 . S
C1914 H1908 0.930 . S
C1914 C1915 1.367 . S
C1914 C1922 1.378 . S
C1915 C1914 1.367 . S
C1915 C1923 1.433 . S
C1916 H1912 0.929 . S
C1916 C1918 1.378 . S
C1916 C1920 1.350 . S
C1917 C1920 1.463 . S
C1917 C1922 1.350 . S
C1917 N1925 1.427 . S
C1918 H1909 0.930 . S
C1918 C1916 1.378 . S
C1918 C1919 1.367 . S
C1919 C1918 1.367 . S
C1919 C1921 1.433 . S
C1920 C1916 1.350 . S
C1920 C1917 1.463 . S
C1920 N1924 1.427 . S
C1921 H1911 0.929 . S
C1921 C1919 1.433 . S
C1921 N1924 1.384 . S
C1922 H1913 0.929 . S
C1922 C1914 1.378 . S
C1922 C1917 1.350 . S
C1923 H1910 0.929 . S
C1923 C1915 1.433 . S
C1923 N1925 1.384 . S
N1924 C1920 1.427 . S
N1924 C1921 1.384 . S
N1925 C1917 1.427 . S
N1925 C1923 1.384 . S
H1926 C1932 0.930 . S
H1927 C1936 0.930 . S
H1928 C1941 0.929 . S
H1929 C1939 0.929 . S
H1930 C1934 0.929 . S
H1931 C1940 0.929 . S
C1932 H1926 0.930 . S
C1932 C1933 1.367 . S
C1932 C1940 1.378 . S
C1933 C1932 1.367 . S
C1933 C1941 1.433 . S
C1934 H1930 0.929 . S
C1934 C1936 1.378 . S
C1934 C1938 1.350 . S
C1935 C1938 1.463 . S
C1935 C1940 1.350 . S
C1935 N1943 1.427 . S
C1936 H1927 0.930 . S
C1936 C1934 1.378 . S
C1936 C1937 1.367 . S
C1937 C1936 1.367 . S
C1937 C1939 1.433 . S
C1938 C1934 1.350 . S
C1938 C1935 1.463 . S
C1938 N1942 1.427 . S
C1939 H1929 0.929 . S
C1939 C1937 1.433 . S
C1939 N1942 1.384 . S
C1940 H1931 0.929 . S
C1940 C1932 1.378 . S
C1940 C1935 1.350 . S
C1941 H1928 0.929 . S
C1941 C1933 1.433 . S
C1941 N1943 1.384 . S
N1942 C1938 1.427 . S
N1942 C1939 1.384 . S
N1943 C1935 1.427 . S
N1943 C1941 1.384 . S
H1944 C1950 0.930 . S
H1945 C1954 0.930 . S
H1946 C1959 0.929 . S
H1947 C1957 0.929 . S
H1948 C1952 0.929 . S
H1949 C1958 0.929 . S
C1950 H1944 0.930 . S
C1950 C1951 1.367 . S
C1950 C1958 1.378 . S
C1951 C1950 1.367 . S
C1951 C1959 1.433 . S
C1952 H1948 0.929 . S
C1952 C1954 1.378 . S
C1952 C1956 1.350 . S
C1953 C1956 1.463 . S
C1953 C1958 1.350 . S
C1953 N1961 1.427 . S
C1954 H1945 0.930 . S
C1954 C1952 1.378 . S
C1954 C1955 1.367 . S
C1955 C1954 1.367 . S
C1955 C1957 1.433 . S
C1956 C1952 1.350 . S
C1956 C1953 1.463 . S
C1956 N1960 1.427 . S
C1957 H1947 0.929 . S
C1957 C1955 1.433 . S
C1957 N1960 1.384 . S
C1958 H1949 0.929 . S
C1958 C1950 1.378 . S
C1958 C1953 1.350 . S
C1959 H1946 0.929 . S
C1959 C1951 1.433 . S
C1959 N1961 1.384 . S
N1960 C1956 1.427 . S
N1960 C1957 1.384 . S
N1961 C1953 1.427 . S
N1961 C1959 1.384 . S
H1962 C1968 0.930 . S
H1963 C1972 0.930 . S
H1964 C1977 0.929 . S
H1965 C1975 0.929 . S
H1966 C1970 0.929 . S
H1967 C1976 0.929 . S
C1968 H1962 0.930 . S
C1968 C1969 1.367 . S
C1968 C1976 1.378 . S
C1969 C1968 1.367 . S
C1969 C1977 1.433 . S
C1970 H1966 0.929 . S
C1970 C1972 1.378 . S
C1970 C1974 1.350 . S
C1971 C1974 1.463 . S
C1971 C1976 1.350 . S
C1971 N1979 1.427 . S
C1972 H1963 0.930 . S
C1972 C1970 1.378 . S
C1972 C1973 1.367 . S
C1973 C1972 1.367 . S
C1973 C1975 1.433 . S
C1974 C1970 1.350 . S
C1974 C1971 1.463 . S
C1974 N1978 1.427 . S
C1975 H1965 0.929 . S
C1975 C1973 1.433 . S
C1975 N1978 1.384 . S
C1976 H1967 0.929 . S
C1976 C1968 1.378 . S
C1976 C1971 1.350 . S
C1977 H1964 0.929 . S
C1977 C1969 1.433 . S
C1977 N1979 1.384 . S
N1978 C1974 1.427 . S
N1978 C1975 1.384 . S
N1979 C1971 1.427 . S
N1979 C1977 1.384 . S
H1980 C1986 0.930 . S
H1981 C1990 0.930 . S
H1982 C1995 0.929 . S
H1983 C1993 0.929 . S
H1984 C1988 0.929 . S
H1985 C1994 0.929 . S
C1986 H1980 0.930 . S
C1986 C1987 1.367 . S
C1986 C1994 1.378 . S
C1987 C1986 1.367 . S
C1987 C1995 1.433 . S
C1988 H1984 0.929 . S
C1988 C1990 1.378 . S
C1988 C1992 1.350 . S
C1989 C1992 1.463 . S
C1989 C1994 1.350 . S
C1989 N1997 1.427 . S
C1990 H1981 0.930 . S
C1990 C1988 1.378 . S
C1990 C1991 1.367 . S
C1991 C1990 1.367 . S
C1991 C1993 1.433 . S
C1992 C1988 1.350 . S
C1992 C1989 1.463 . S
C1992 N1996 1.427 . S
C1993 H1983 0.929 . S
C1993 C1991 1.433 . S
C1993 N1996 1.384 . S
C1994 H1985 0.929 . S
C1994 C1986 1.378 . S
C1994 C1989 1.350 . S
C1995 H1982 0.929 . S
C1995 C1987 1.433 . S
C1995 N1997 1.384 . S
N1996 C1992 1.427 . S
N1996 C1993 1.384 . S
N1997 C1989 1.427 . S
N1997 C1995 1.384 . S
H1998 C2004 0.930 . S
H1999 C2008 0.930 . S
H2000 C2013 0.929 . S
H2001 C2011 0.929 . S
H2002 C2006 0.929 . S
H2003 C2012 0.929 . S
C2004 H1998 0.930 . S
C2004 C2005 1.367 . S
C2004 C2012 1.378 . S
C2005 C2004 1.367 . S
C2005 C2013 1.433 . S
C2006 H2002 0.929 . S
C2006 C2008 1.378 . S
C2006 C2010 1.350 . S
C2007 C2010 1.463 . S
C2007 C2012 1.350 . S
C2007 N2015 1.427 . S
C2008 H1999 0.930 . S
C2008 C2006 1.378 . S
C2008 C2009 1.367 . S
C2009 C2008 1.367 . S
C2009 C2011 1.433 . S
C2010 C2006 1.350 . S
C2010 C2007 1.463 . S
C2010 N2014 1.427 . S
C2011 H2001 0.929 . S
C2011 C2009 1.433 . S
C2011 N2014 1.384 . S
C2012 H2003 0.929 . S
C2012 C2004 1.378 . S
C2012 C2007 1.350 . S
C2013 H2000 0.929 . S
C2013 C2005 1.433 . S
C2013 N2015 1.384 . S
N2014 C2010 1.427 . S
N2014 C2011 1.384 . S
N2015 C2007 1.427 . S
N2015 C2013 1.384 . S
H2016 C2022 0.930 . S
H2017 C2026 0.930 . S
H2018 C2031 0.929 . S
H2019 C2029 0.929 . S
H2020 C2024 0.929 . S
H2021 C2030 0.929 . S
C2022 H2016 0.930 . S
C2022 C2023 1.367 . S
C2022 C2030 1.378 . S
C2023 C2022 1.367 . S
C2023 C2031 1.433 . S
C2024 H2020 0.929 . S
C2024 C2026 1.378 . S
C2024 C2028 1.350 . S
C2025 C2028 1.463 . S
C2025 C2030 1.350 . S
C2025 N2033 1.427 . S
C2026 H2017 0.930 . S
C2026 C2024 1.378 . S
C2026 C2027 1.367 . S
C2027 C2026 1.367 . S
C2027 C2029 1.433 . S
C2028 C2024 1.350 . S
C2028 C2025 1.463 . S
C2028 N2032 1.427 . S
C2029 H2019 0.929 . S
C2029 C2027 1.433 . S
C2029 N2032 1.384 . S
C2030 H2021 0.929 . S
C2030 C2022 1.378 . S
C2030 C2025 1.350 . S
C2031 H2018 0.929 . S
C2031 C2023 1.433 . S
C2031 N2033 1.384 . S
N2032 C2028 1.427 . S
N2032 C2029 1.384 . S
N2033 C2025 1.427 . S
N2033 C2031 1.384 . S
H2034 C2040 0.930 . S
H2035 C2044 0.930 . S
H2036 C2049 0.929 . S
H2037 C2047 0.929 . S
H2038 C2042 0.929 . S
H2039 C2048 0.929 . S
C2040 H2034 0.930 . S
C2040 C2041 1.367 . S
C2040 C2048 1.378 . S
C2041 C2040 1.367 . S
C2041 C2049 1.433 . S
C2042 H2038 0.929 . S
C2042 C2044 1.378 . S
C2042 C2046 1.350 . S
C2043 C2046 1.463 . S
C2043 C2048 1.350 . S
C2043 N2051 1.427 . S
C2044 H2035 0.930 . S
C2044 C2042 1.378 . S
C2044 C2045 1.367 . S
C2045 C2044 1.367 . S
C2045 C2047 1.433 . S
C2046 C2042 1.350 . S
C2046 C2043 1.463 . S
C2046 N2050 1.427 . S
C2047 H2037 0.929 . S
C2047 C2045 1.433 . S
C2047 N2050 1.384 . S
C2048 H2039 0.929 . S
C2048 C2040 1.378 . S
C2048 C2043 1.350 . S
C2049 H2036 0.929 . S
C2049 C2041 1.433 . S
C2049 N2051 1.384 . S
N2050 C2046 1.427 . S
N2050 C2047 1.384 . S
N2051 C2043 1.427 . S
N2051 C2049 1.384 . S
H2052 C2058 0.930 . S
H2053 C2062 0.930 . S
H2054 C2067 0.929 . S
H2055 C2065 0.929 . S
H2056 C2060 0.929 . S
H2057 C2066 0.929 . S
C2058 H2052 0.930 . S
C2058 C2059 1.367 . S
C2058 C2066 1.378 . S
C2059 C2058 1.367 . S
C2059 C2067 1.433 . S
C2060 H2056 0.929 . S
C2060 C2062 1.378 . S
C2060 C2064 1.350 . S
C2061 C2064 1.463 . S
C2061 C2066 1.350 . S
C2061 N2069 1.427 . S
C2062 H2053 0.930 . S
C2062 C2060 1.378 . S
C2062 C2063 1.367 . S
C2063 C2062 1.367 . S
C2063 C2065 1.433 . S
C2064 C2060 1.350 . S
C2064 C2061 1.463 . S
C2064 N2068 1.427 . S
C2065 H2055 0.929 . S
C2065 C2063 1.433 . S
C2065 N2068 1.384 . S
C2066 H2057 0.929 . S
C2066 C2058 1.378 . S
C2066 C2061 1.350 . S
C2067 H2054 0.929 . S
C2067 C2059 1.433 . S
C2067 N2069 1.384 . S
N2068 C2064 1.427 . S
N2068 C2065 1.384 . S
N2069 C2061 1.427 . S
N2069 C2067 1.384 . S
H2070 C2076 0.930 . S
H2071 C2080 0.930 . S
H2072 C2085 0.929 . S
H2073 C2083 0.929 . S
H2074 C2078 0.929 . S
H2075 C2084 0.929 . S
C2076 H2070 0.930 . S
C2076 C2077 1.367 . S
C2076 C2084 1.378 . S
C2077 C2076 1.367 . S
C2077 C2085 1.433 . S
C2078 H2074 0.929 . S
C2078 C2080 1.378 . S
C2078 C2082 1.350 . S
C2079 C2082 1.463 1_554 S
C2079 C2084 1.350 . S
C2079 N2087 1.427 . S
C2080 H2071 0.930 . S
C2080 C2078 1.378 . S
C2080 C2081 1.367 . S
C2081 C2080 1.367 . S
C2081 C2083 1.433 . S
C2082 C2078 1.350 . S
C2082 C2079 1.463 1_556 S
C2082 N2086 1.427 . S
C2083 H2073 0.929 . S
C2083 C2081 1.433 . S
C2083 N2086 1.384 . S
C2084 H2075 0.929 . S
C2084 C2076 1.378 . S
C2084 C2079 1.350 . S
C2085 H2072 0.929 . S
C2085 C2077 1.433 . S
C2085 N2087 1.384 . S
N2086 C2082 1.427 . S
N2086 C2083 1.384 . S
N2087 C2079 1.427 . S
N2087 C2085 1.384 . S
H2088 C2094 0.930 . S
H2089 C2098 0.930 . S
H2090 C2103 0.929 . S
H2091 C2101 0.929 . S
H2092 C2096 0.929 . S
H2093 C2102 0.929 . S
C2094 H2088 0.930 . S
C2094 C2095 1.367 . S
C2094 C2102 1.378 . S
C2095 C2094 1.367 . S
C2095 C2103 1.433 1_545 S
C2096 H2092 0.929 . S
C2096 C2098 1.378 . S
C2096 C2100 1.350 . S
C2097 C2100 1.463 1_546 S
C2097 C2102 1.350 . S
C2097 N2105 1.427 1_545 S
C2098 H2089 0.930 . S
C2098 C2096 1.378 . S
C2098 C2099 1.367 . S
C2099 C2098 1.367 . S
C2099 C2101 1.433 1_565 S
C2100 C2096 1.350 . S
C2100 C2097 1.463 1_564 S
C2100 N2104 1.427 1_565 S
C2101 H2091 0.929 . S
C2101 C2099 1.433 1_545 S
C2101 N2104 1.384 . S
C2102 H2093 0.929 . S
C2102 C2094 1.378 . S
C2102 C2097 1.350 . S
C2103 H2090 0.929 . S
C2103 C2095 1.433 1_565 S
C2103 N2105 1.384 . S
N2104 C2100 1.427 1_545 S
N2104 C2101 1.384 . S
N2105 C2097 1.427 1_565 S
N2105 C2103 1.384 . S
H2106 C2112 0.930 . S
H2107 C2116 0.930 . S
H2108 C2121 0.929 . S
H2109 C2119 0.929 . S
H2110 C2114 0.929 . S
H2111 C2120 0.929 . S
C2112 H2106 0.930 . S
C2112 C2113 1.367 1_455 S
C2112 C2120 1.378 . S
C2113 C2112 1.367 1_655 S
C2113 C2121 1.433 . S
C2114 H2110 0.929 . S
C2114 C2116 1.378 . S
C2114 C2118 1.358 1_655 S
C2115 C2118 1.460 1_656 S
C2115 C2120 1.358 1_655 S
C2115 N2123 1.424 . S
C2116 H2107 0.930 . S
C2116 C2114 1.378 . S
C2116 C2117 1.367 1_655 S
C2117 C2116 1.367 1_455 S
C2117 C2119 1.433 . S
C2118 C2114 1.358 1_455 S
C2118 C2115 1.460 1_454 S
C2118 N2122 1.424 . S
C2119 H2109 0.929 . S
C2119 C2117 1.433 . S
C2119 N2122 1.384 . S
C2120 H2111 0.929 . S
C2120 C2112 1.378 . S
C2120 C2115 1.358 1_455 S
C2121 H2108 0.929 . S
C2121 C2113 1.433 . S
C2121 N2123 1.384 . S
N2122 C2118 1.424 . S
N2122 C2119 1.384 . S
N2123 C2115 1.424 . S
N2123 C2121 1.384 . S
H2124 C2130 0.930 . S
H2125 C2134 0.930 . S
H2126 C2139 0.929 . S
H2127 C2137 0.929 . S
H2128 C2132 0.929 . S
H2129 C2138 0.929 . S
C2130 H2124 0.930 . S
C2130 C2131 1.367 . S
C2130 C2138 1.378 . S
C2131 C2130 1.367 . S
C2131 C2139 1.433 . S
C2132 H2128 0.929 . S
C2132 C2134 1.378 . S
C2132 C2136 1.350 . S
C2133 C2136 1.463 . S
C2133 C2138 1.350 . S
C2133 N2141 1.427 . S
C2134 H2125 0.930 . S
C2134 C2132 1.378 . S
C2134 C2135 1.367 . S
C2135 C2134 1.367 . S
C2135 C2137 1.433 . S
C2136 C2132 1.350 . S
C2136 C2133 1.463 . S
C2136 N2140 1.427 . S
C2137 H2127 0.929 . S
C2137 C2135 1.433 . S
C2137 N2140 1.384 . S
C2138 H2129 0.929 . S
C2138 C2130 1.378 . S
C2138 C2133 1.350 . S
C2139 H2126 0.929 . S
C2139 C2131 1.433 . S
C2139 N2141 1.384 . S
N2140 C2136 1.427 . S
N2140 C2137 1.384 . S
N2141 C2133 1.427 . S
N2141 C2139 1.384 . S
H2142 C2148 0.930 . S
H2143 C2152 0.930 . S
H2144 C2157 0.929 . S
H2145 C2155 0.929 . S
H2146 C2150 0.929 . S
H2147 C2156 0.929 . S
C2148 H2142 0.930 . S
C2148 C2149 1.367 . S
C2148 C2156 1.378 . S
C2149 C2148 1.367 . S
C2149 C2157 1.433 . S
C2150 H2146 0.929 . S
C2150 C2152 1.378 . S
C2150 C2154 1.350 . S
C2151 C2154 1.463 . S
C2151 C2156 1.350 . S
C2151 N2159 1.427 . S
C2152 H2143 0.930 . S
C2152 C2150 1.378 . S
C2152 C2153 1.367 . S
C2153 C2152 1.367 . S
C2153 C2155 1.433 . S
C2154 C2150 1.350 . S
C2154 C2151 1.463 . S
C2154 N2158 1.427 . S
C2155 H2145 0.929 . S
C2155 C2153 1.433 . S
C2155 N2158 1.384 . S
C2156 H2147 0.929 . S
C2156 C2148 1.378 . S
C2156 C2151 1.350 . S
C2157 H2144 0.929 . S
C2157 C2149 1.433 . S
C2157 N2159 1.384 . S
N2158 C2154 1.427 . S
N2158 C2155 1.384 . S
N2159 C2151 1.427 . S
N2159 C2157 1.384 . S
H2160 C2166 0.930 . S
H2161 C2170 0.930 . S
H2162 C2175 0.929 . S
H2163 C2173 0.929 . S
H2164 C2168 0.929 . S
H2165 C2174 0.929 . S
C2166 H2160 0.930 . S
C2166 C2167 1.367 . S
C2166 C2174 1.378 . S
C2167 C2166 1.367 . S
C2167 C2175 1.433 . S
C2168 H2164 0.929 . S
C2168 C2170 1.378 . S
C2168 C2172 1.350 . S
C2169 C2172 1.463 . S
C2169 C2174 1.350 . S
C2169 N2177 1.427 . S
C2170 H2161 0.930 . S
C2170 C2168 1.378 . S
C2170 C2171 1.367 . S
C2171 C2170 1.367 . S
C2171 C2173 1.433 . S
C2172 C2168 1.350 . S
C2172 C2169 1.463 . S
C2172 N2176 1.427 . S
C2173 H2163 0.929 . S
C2173 C2171 1.433 . S
C2173 N2176 1.384 . S
C2174 H2165 0.929 . S
C2174 C2166 1.378 . S
C2174 C2169 1.350 . S
C2175 H2162 0.929 . S
C2175 C2167 1.433 . S
C2175 N2177 1.384 . S
N2176 C2172 1.427 . S
N2176 C2173 1.384 . S
N2177 C2169 1.427 . S
N2177 C2175 1.384 . S
H2178 C2184 0.930 . S
H2179 C2188 0.930 . S
H2180 C2193 0.929 . S
H2181 C2191 0.929 . S
H2182 C2186 0.929 . S
H2183 C2192 0.929 . S
C2184 H2178 0.930 . S
C2184 C2185 1.367 . S
C2184 C2192 1.378 . S
C2185 C2184 1.367 . S
C2185 C2193 1.433 . S
C2186 H2182 0.929 . S
C2186 C2188 1.378 . S
C2186 C2190 1.350 . S
C2187 C2190 1.463 . S
C2187 C2192 1.350 . S
C2187 N2195 1.427 . S
C2188 H2179 0.930 . S
C2188 C2186 1.378 . S
C2188 C2189 1.367 . S
C2189 C2188 1.367 . S
C2189 C2191 1.433 . S
C2190 C2186 1.350 . S
C2190 C2187 1.463 . S
C2190 N2194 1.427 . S
C2191 H2181 0.929 . S
C2191 C2189 1.433 . S
C2191 N2194 1.384 . S
C2192 H2183 0.929 . S
C2192 C2184 1.378 . S
C2192 C2187 1.350 . S
C2193 H2180 0.929 . S
C2193 C2185 1.433 . S
C2193 N2195 1.384 . S
N2194 C2190 1.427 . S
N2194 C2191 1.384 . S
N2195 C2187 1.427 . S
N2195 C2193 1.384 . S
H2196 C2202 0.930 . S
H2197 C2206 0.930 . S
H2198 C2211 0.929 . S
H2199 C2209 0.929 . S
H2200 C2204 0.929 . S
H2201 C2210 0.929 . S
C2202 H2196 0.930 . S
C2202 C2203 1.367 . S
C2202 C2210 1.378 . S
C2203 C2202 1.367 . S
C2203 C2211 1.433 . S
C2204 H2200 0.929 . S
C2204 C2206 1.378 . S
C2204 C2208 1.350 . S
C2205 C2208 1.463 . S
C2205 C2210 1.350 . S
C2205 N2213 1.427 . S
C2206 H2197 0.930 . S
C2206 C2204 1.378 . S
C2206 C2207 1.367 . S
C2207 C2206 1.367 . S
C2207 C2209 1.433 . S
C2208 C2204 1.350 . S
C2208 C2205 1.463 . S
C2208 N2212 1.427 . S
C2209 H2199 0.929 . S
C2209 C2207 1.433 . S
C2209 N2212 1.384 . S
C2210 H2201 0.929 . S
C2210 C2202 1.378 . S
C2210 C2205 1.350 . S
C2211 H2198 0.929 . S
C2211 C2203 1.433 . S
C2211 N2213 1.384 . S
N2212 C2208 1.427 . S
N2212 C2209 1.384 . S
N2213 C2205 1.427 . S
N2213 C2211 1.384 . S
H2214 C2220 0.930 . S
H2215 C2224 0.930 . S
H2216 C2229 0.929 . S
H2217 C2227 0.929 . S
H2218 C2222 0.929 . S
H2219 C2228 0.929 . S
C2220 H2214 0.930 . S
C2220 C2221 1.367 . S
C2220 C2228 1.378 . S
C2221 C2220 1.367 . S
C2221 C2229 1.433 . S
C2222 H2218 0.929 . S
C2222 C2224 1.378 . S
C2222 C2226 1.350 . S
C2223 C2226 1.463 . S
C2223 C2228 1.350 . S
C2223 N2231 1.427 . S
C2224 H2215 0.930 . S
C2224 C2222 1.378 . S
C2224 C2225 1.367 . S
C2225 C2224 1.367 . S
C2225 C2227 1.433 . S
C2226 C2222 1.350 . S
C2226 C2223 1.463 . S
C2226 N2230 1.427 . S
C2227 H2217 0.929 . S
C2227 C2225 1.433 . S
C2227 N2230 1.384 . S
C2228 H2219 0.929 . S
C2228 C2220 1.378 . S
C2228 C2223 1.350 . S
C2229 H2216 0.929 . S
C2229 C2221 1.433 . S
C2229 N2231 1.384 . S
N2230 C2226 1.427 . S
N2230 C2227 1.384 . S
N2231 C2223 1.427 . S
N2231 C2229 1.384 . S
C1591 C900 0.778 . S
C1595 C29 0.781 . S
C1609 C145 0.753 . S
C1613 C1017 0.747 . S
C1627 C812 0.761 . S
C1631 C233 0.753 . S
C1645 C1289 0.782 . S
C1649 C284 0.777 . S
C1663 C372 0.763 . S
C1667 C1085 0.753 . S
C1681 C1201 0.747 . S
C1685 C497 0.755 . S
C1699 C548 0.813 . S
C1703 C1465 0.813 . S
C1717 C1545 0.801 . S
C1721 C673 0.788 . S
C1735 C761 0.810 . S
C1739 C1340 0.815 . S
C1753 C57 0.991 . S
C1757 C108 1.062 . S
C1771 C117 0.954 . S
C1775 C196 1.005 . S
C1789 C49 1.075 . S
C1793 C205 1.002 . S
C1807 C460 1.067 . S
C1811 C313 0.968 . S
C1825 C321 1.077 . S
C1829 C401 0.980 . S
C1843 C469 0.957 . S
C1847 C409 1.005 . S
C1861 C577 1.000 . S
C1865 C636 1.113 . S
C1879 C645 0.975 . S
C1883 C724 1.081 . S
C1897 C585 1.072 . S
C1901 C733 0.988 . S
C1915 C997 1.123 . S
C1919 C841 1.027 . S
C1933 C849 1.055 . S
C1937 C929 0.981 . S
C1951 C937 1.079 . S
C1955 C988 0.984 . S
C1969 C1164 1.123 . S
C1973 C1113 1.015 . S
C1987 C1252 1.079 . S
C1991 C1173 0.973 . S
C2005 C1105 1.056 . S
C2009 C1261 0.966 . S
C2023 C1369 1.005 . S
C2027 C1525 1.112 . S
C2041 C1437 0.974 . S
C2045 C1377 1.073 . S
C2059 C1516 1.000 . S
C2063 C1428 1.078 . S
C2077 C20 1.608 . S
C2081 C293 1.600 . S
C2095 C381 1.560 . S
C2099 C137 1.549 . S
C2113 C489 1.543 . S
C2117 C225 1.560 . S
C2131 C821 1.607 . S
C2135 C557 1.613 . S
C2149 C909 1.578 . S
C2153 C665 1.582 . S
C2167 C753 1.601 . S
C2171 C1025 1.606 . S
C2185 C1349 1.606 . S
C2189 C1076 1.603 . S
C2203 C1457 1.601 . S
C2207 C1193 1.609 . S
C2221 C1553 1.587 . S
C2225 C1281 1.578 . S
