# Generated by pormake.
# Topology umh, (4)-cn, num edge types: 1
# Building blocks:
#     Node 0, Type 0, BuildingBlock: ESEHIV_clean_sbu_0, # of connection points: 4
#     Node 1, Type 0, BuildingBlock: ESEHIV_clean_sbu_0, # of connection points: 4
#     Node 2, Type 0, BuildingBlock: ESEHIV_clean_sbu_0, # of connection points: 4
#     Node 3, Type 0, BuildingBlock: ESEHIV_clean_sbu_0, # of connection points: 4
#     Node 4, Type 0, BuildingBlock: ESEHIV_clean_sbu_0, # of connection points: 4
#     Node 5, Type 0, BuildingBlock: ESEHIV_clean_sbu_0, # of connection points: 4
#     Node 6, Type 0, BuildingBlock: ESEHIV_clean_sbu_0, # of connection points: 4
#     Node 7, Type 0, BuildingBlock: ESEHIV_clean_sbu_0, # of connection points: 4
#     Node 8, Type 0, BuildingBlock: ESEHIV_clean_sbu_0, # of connection points: 4
#     Node 9, Type 0, BuildingBlock: ESEHIV_clean_sbu_0, # of connection points: 4
#     Node 10, Type 0, BuildingBlock: ESEHIV_clean_sbu_0, # of connection points: 4
#     Node 11, Type 0, BuildingBlock: ESEHIV_clean_sbu_0, # of connection points: 4
#     Node 12, Type 0, BuildingBlock: ESEHIV_clean_sbu_0, # of connection points: 4
#     Node 13, Type 0, BuildingBlock: ESEHIV_clean_sbu_0, # of connection points: 4
#     Node 14, Type 0, BuildingBlock: ESEHIV_clean_sbu_0, # of connection points: 4
#     Node 15, Type 0, BuildingBlock: ESEHIV_clean_sbu_0, # of connection points: 4
#     Edge 16, Type (0, 0), BuildingBlock: ZUJKAS_clean_linker_0, # of connection points: 2
#     Edge 17, Type (0, 0), BuildingBlock: ZUJKAS_clean_linker_0, # of connection points: 2
#     Edge 18, Type (0, 0), BuildingBlock: ZUJKAS_clean_linker_0, # of connection points: 2
#     Edge 19, Type (0, 0), BuildingBlock: ZUJKAS_clean_linker_0, # of connection points: 2
#     Edge 20, Type (0, 0), BuildingBlock: ZUJKAS_clean_linker_0, # of connection points: 2
#     Edge 21, Type (0, 0), BuildingBlock: ZUJKAS_clean_linker_0, # of connection points: 2
#     Edge 22, Type (0, 0), BuildingBlock: ZUJKAS_clean_linker_0, # of connection points: 2
#     Edge 23, Type (0, 0), BuildingBlock: ZUJKAS_clean_linker_0, # of connection points: 2
#     Edge 24, Type (0, 0), BuildingBlock: ZUJKAS_clean_linker_0, # of connection points: 2
#     Edge 25, Type (0, 0), BuildingBlock: ZUJKAS_clean_linker_0, # of connection points: 2
#     Edge 26, Type (0, 0), BuildingBlock: ZUJKAS_clean_linker_0, # of connection points: 2
#     Edge 27, Type (0, 0), BuildingBlock: ZUJKAS_clean_linker_0, # of connection points: 2
#     Edge 28, Type (0, 0), BuildingBlock: ZUJKAS_clean_linker_0, # of connection points: 2
#     Edge 29, Type (0, 0), BuildingBlock: ZUJKAS_clean_linker_0, # of connection points: 2
#     Edge 30, Type (0, 0), BuildingBlock: ZUJKAS_clean_linker_0, # of connection points: 2
#     Edge 31, Type (0, 0), BuildingBlock: ZUJKAS_clean_linker_0, # of connection points: 2
#     Edge 32, Type (0, 0), BuildingBlock: ZUJKAS_clean_linker_0, # of connection points: 2
#     Edge 33, Type (0, 0), BuildingBlock: ZUJKAS_clean_linker_0, # of connection points: 2
#     Edge 34, Type (0, 0), BuildingBlock: ZUJKAS_clean_linker_0, # of connection points: 2
#     Edge 35, Type (0, 0), BuildingBlock: ZUJKAS_clean_linker_0, # of connection points: 2
#     Edge 36, Type (0, 0), BuildingBlock: ZUJKAS_clean_linker_0, # of connection points: 2
#     Edge 37, Type (0, 0), BuildingBlock: ZUJKAS_clean_linker_0, # of connection points: 2
#     Edge 38, Type (0, 0), BuildingBlock: ZUJKAS_clean_linker_0, # of connection points: 2
#     Edge 39, Type (0, 0), BuildingBlock: ZUJKAS_clean_linker_0, # of connection points: 2
#     Edge 40, Type (0, 0), BuildingBlock: ZUJKAS_clean_linker_0, # of connection points: 2
#     Edge 41, Type (0, 0), BuildingBlock: ZUJKAS_clean_linker_0, # of connection points: 2
#     Edge 42, Type (0, 0), BuildingBlock: ZUJKAS_clean_linker_0, # of connection points: 2
#     Edge 43, Type (0, 0), BuildingBlock: ZUJKAS_clean_linker_0, # of connection points: 2
#     Edge 44, Type (0, 0), BuildingBlock: ZUJKAS_clean_linker_0, # of connection points: 2
#     Edge 45, Type (0, 0), BuildingBlock: ZUJKAS_clean_linker_0, # of connection points: 2
#     Edge 46, Type (0, 0), BuildingBlock: ZUJKAS_clean_linker_0, # of connection points: 2
#     Edge 47, Type (0, 0), BuildingBlock: ZUJKAS_clean_linker_0, # of connection points: 2
# Relax obj value: 0.057
# Max RMSD: 0.083
# Mean RMSD: 0.083
data_MOF--net-umh--node1-ESEHIV_clean_sbu_0--edge1-ZUJKAS_clean_linker_0
_symmetry_space_group_name_H-M    P1
_symmetry_Int_Tables_number       1
_symmetry_cell_setting            triclinic
loop_
_symmetry_equiv_pos_as_xyz
'x, y, z'
_cell_length_a     59.670068
_cell_length_b     59.571764
_cell_length_c     67.928096
_cell_angle_alpha  90.331107
_cell_angle_beta   89.90284
_cell_angle_gamma 90.335
loop_
_atom_site_label
_atom_site_type_symbol
_atom_site_fract_x
_atom_site_fract_y
_atom_site_fract_z
_atom_type_partial_charge
Cu0 Cu 0.37242 0.12825 0.16277 0.0
N1 N 0.37912 0.1586 0.16643 0.0
N2 N 0.37454 0.19584 0.16619 0.0
C3 C 0.36455 0.17555 0.16414 0.0
C4 C 0.39629 0.1914 0.16994 0.0
C5 C 0.39906 0.16841 0.17006 0.0
O6 O 0.34546 0.12258 0.17836 0.0
C7 C 0.36382 0.10766 0.12419 0.0
O8 O 0.35951 0.08849 0.13292 0.0
H9 H 0.34713 0.17297 0.16031 0.0
H10 H 0.41459 0.15949 0.17221 0.0
N11 N 0.39622 0.11095 0.17216 0.0
N12 N 0.42188 0.08406 0.17604 0.0
C13 C 0.40629 0.09294 0.16394 0.0
C14 C 0.40583 0.1136 0.18991 0.0
C15 C 0.42162 0.09712 0.19235 0.0
C16 C 0.34269 0.10535 0.18914 0.0
O17 O 0.35709 0.08881 0.18789 0.0
H18 H 0.40186 0.08613 0.14966 0.0
H19 H 0.40136 0.12647 0.20048 0.0
O20 O 0.36872 0.12491 0.13447 0.0
H21 H 0.40932 0.20383 0.17233 0.0
H22 H 0.43213 0.09499 0.20516 0.0
Cu23 Cu 0.43505 0.33555 0.64512 0.0
N24 N 0.42084 0.31183 0.63178 0.0
N25 N 0.39146 0.2903 0.6232 0.0
C26 C 0.3987 0.30812 0.63382 0.0
C27 C 0.40994 0.28257 0.61388 0.0
C28 C 0.4281 0.2959 0.61923 0.0
O29 O 0.42734 0.33135 0.67293 0.0
C30 C 0.43012 0.3638 0.61439 0.0
O31 O 0.44512 0.34948 0.60789 0.0
H32 H 0.38811 0.31863 0.6429 0.0
H33 H 0.44528 0.29405 0.6144 0.0
N34 N 0.46651 0.33684 0.64311 0.0
N35 N 0.50093 0.35219 0.64288 0.0
C36 C 0.47867 0.35596 0.64174 0.0
C37 C 0.48164 0.32036 0.64524 0.0
C38 C 0.50288 0.32979 0.64514 0.0
C39 C 0.42933 0.31115 0.67887 0.0
O40 O 0.43684 0.29587 0.66656 0.0
H41 H 0.47127 0.37246 0.6407 0.0
H42 H 0.47751 0.30283 0.64728 0.0
O43 O 0.42302 0.36185 0.63203 0.0
H44 H 0.41044 0.26814 0.60414 0.0
H45 H 0.51853 0.32089 0.64677 0.0
Cu46 Cu 0.18839 0.41891 0.15207 0.0
N47 N 0.21785 0.41528 0.14361 0.0
N48 N 0.25065 0.39763 0.14051 0.0
C49 C 0.23111 0.39892 0.15044 0.0
C50 C 0.24964 0.41395 0.1268 0.0
C51 C 0.22933 0.42487 0.12878 0.0
O52 O 0.18877 0.40625 0.17855 0.0
C53 C 0.1656 0.41263 0.11683 0.0
O54 O 0.17319 0.43314 0.11422 0.0
H55 H 0.22586 0.38727 0.16173 0.0
H56 H 0.22303 0.43818 0.11959 0.0
N57 N 0.18014 0.44921 0.15295 0.0
N58 N 0.15857 0.47977 0.15456 0.0
C59 C 0.15905 0.45719 0.15266 0.0
C60 C 0.1935 0.46733 0.15506 0.0
C61 C 0.18024 0.48621 0.15611 0.0
C62 C 0.18527 0.4179 0.19404 0.0
O63 O 0.17597 0.43771 0.1924 0.0
H64 H 0.14435 0.44653 0.15162 0.0
H65 H 0.21158 0.46678 0.15607 0.0
O66 O 0.16967 0.40279 0.13306 0.0
H67 H 0.26236 0.41739 0.11584 0.0
H68 H 0.1861 0.50333 0.15784 0.0
Cu69 Cu 0.12507 0.16236 0.65113 0.0
N70 N 0.13616 0.18881 0.63983 0.0
N71 N 0.16363 0.21249 0.63082 0.0
C72 C 0.1578 0.19477 0.64206 0.0
C73 C 0.1447 0.21795 0.62108 0.0
C74 C 0.12776 0.20328 0.62666 0.0
O75 O 0.12935 0.16662 0.67955 0.0
C76 C 0.13731 0.13917 0.61894 0.0
O77 O 0.12149 0.15257 0.61266 0.0
H78 H 0.16934 0.18531 0.65101 0.0
H79 H 0.11089 0.20264 0.62088 0.0
N80 N 0.09457 0.15575 0.64668 0.0
N81 N 0.06323 0.13483 0.64496 0.0
C82 C 0.08563 0.13494 0.64787 0.0
C83 C 0.07722 0.16935 0.64278 0.0
C84 C 0.05786 0.15651 0.64178 0.0
C85 C 0.11843 0.18346 0.68614 0.0
O86 O 0.10593 0.19465 0.67373 0.0
H87 H 0.09539 0.12022 0.65132 0.0
H88 H 0.07846 0.18735 0.64104 0.0
O89 O 0.1422 0.13933 0.63724 0.0
H90 H 0.14326 0.23125 0.61039 0.0
H91 H 0.04117 0.16266 0.63888 0.0
Cu92 Cu 0.31576 0.45236 0.4021 0.0
N93 N 0.28632 0.44304 0.40696 0.0
N94 N 0.25783 0.41839 0.40746 0.0
C95 C 0.27867 0.42291 0.40079 0.0
C96 C 0.25211 0.43655 0.41835 0.0
C97 C 0.26975 0.45175 0.41801 0.0
O98 O 0.32189 0.43916 0.37629 0.0
C99 C 0.33005 0.45034 0.44026 0.0
O100 O 0.3153 0.46662 0.44109 0.0
H101 H 0.28878 0.41131 0.39233 0.0
H102 H 0.27066 0.46762 0.42579 0.0
N103 N 0.31979 0.48367 0.40177 0.0
N104 N 0.33767 0.51695 0.40226 0.0
C105 C 0.33979 0.49433 0.40175 0.0
C106 C 0.30436 0.50001 0.40228 0.0
C107 C 0.31529 0.5205 0.40258 0.0
C108 C 0.31762 0.45052 0.36091 0.0
O109 O 0.31422 0.47219 0.36274 0.0
H110 H 0.35555 0.48548 0.40135 0.0
H111 H 0.28644 0.49723 0.40259 0.0
O112 O 0.33371 0.44085 0.42369 0.0
H113 H 0.23649 0.43858 0.42627 0.0
H114 H 0.30723 0.53669 0.40337 0.0
Cu115 Cu 0.13206 0.35582 0.88207 0.0
N116 N 0.16289 0.36235 0.88269 0.0
N117 N 0.20007 0.35898 0.88625 0.0
C118 C 0.18024 0.34806 0.88433 0.0
C119 C 0.19494 0.38101 0.88557 0.0
C120 C 0.17209 0.38301 0.8834 0.0
O121 O 0.12637 0.33048 0.86398 0.0
C122 C 0.13246 0.33987 0.92166 0.0
O123 O 0.14936 0.32765 0.91563 0.0
H124 H 0.17831 0.33005 0.88492 0.0
H125 H 0.16273 0.39848 0.88289 0.0
N126 N 0.11731 0.38084 0.87162 0.0
N127 N 0.09358 0.40932 0.86647 0.0
C128 C 0.09958 0.39245 0.87868 0.0
C129 C 0.12272 0.39073 0.85452 0.0
C130 C 0.10824 0.40822 0.85131 0.0
C131 C 0.13339 0.31039 0.86564 0.0
O132 O 0.14414 0.30453 0.8816 0.0
H133 H 0.09107 0.38835 0.89228 0.0
H134 H 0.13634 0.38553 0.84503 0.0
O135 O 0.122 0.35192 0.90929 0.0
H136 H 0.20679 0.39477 0.88674 0.0
H137 H 0.10871 0.41941 0.83883 0.0
Cu138 Cu 0.16327 0.13116 0.38253 0.0
N139 N 0.15754 0.16187 0.37946 0.0
N140 N 0.16061 0.19933 0.3813 0.0
C141 C 0.16909 0.17941 0.38708 0.0
C142 C 0.14292 0.19404 0.36977 0.0
C143 C 0.1411 0.17099 0.36866 0.0
O144 O 0.18803 0.12252 0.36525 0.0
C145 C 0.16958 0.1065 0.41849 0.0
O146 O 0.16658 0.08836 0.40771 0.0
H147 H 0.18344 0.17758 0.39664 0.0
H148 H 0.1288 0.16154 0.36032 0.0
N149 N 0.13853 0.1147 0.37322 0.0
N150 N 0.10971 0.09084 0.3693 0.0
C151 C 0.12324 0.10153 0.38239 0.0
C152 C 0.13427 0.11239 0.35389 0.0
C153 C 0.1166 0.09779 0.35142 0.0
C154 C 0.20531 0.13441 0.36151 0.0
O155 O 0.2086 0.1532 0.37131 0.0
H156 H 0.12258 0.09915 0.39817 0.0
H157 H 0.14381 0.12045 0.34233 0.0
O158 O 0.16921 0.12568 0.41032 0.0
H159 H 0.13242 0.20594 0.36219 0.0
H160 H 0.10947 0.09254 0.33748 0.0
Cu161 Cu 0.44284 0.19344 0.90457 0.0
N162 N 0.43307 0.22057 0.91547 0.0
N163 N 0.40943 0.24923 0.91974 0.0
C164 C 0.41478 0.23113 0.90873 0.0
C165 C 0.42501 0.25006 0.93414 0.0
C166 C 0.43965 0.23233 0.93144 0.0
O167 O 0.43593 0.19643 0.87655 0.0
C168 C 0.43435 0.16754 0.93678 0.0
O169 O 0.45165 0.17967 0.94246 0.0
H170 H 0.40501 0.22498 0.89641 0.0
H171 H 0.45365 0.228 0.94074 0.0
N172 N 0.4738 0.18854 0.9071 0.0
N173 N 0.50647 0.17019 0.9074 0.0
C174 C 0.48401 0.16848 0.9053 0.0
C175 C 0.49037 0.20347 0.91058 0.0
C176 C 0.51054 0.19222 0.91067 0.0
C177 C 0.44568 0.21342 0.86888 0.0
O178 O 0.45979 0.22499 0.87981 0.0
H179 H 0.4751 0.15297 0.90225 0.0
H180 H 0.48795 0.22128 0.91282 0.0
O181 O 0.42701 0.17009 0.9193 0.0
H182 H 0.42564 0.26239 0.94589 0.0
H183 H 0.5269 0.19963 0.91321 0.0
Cu184 Cu 0.69267 0.93114 0.89128 0.0
N185 N 0.72241 0.92221 0.89491 0.0
N186 N 0.75201 0.8993 0.89406 0.0
C187 C 0.72955 0.90101 0.89224 0.0
C188 C 0.75927 0.92035 0.89806 0.0
C189 C 0.74099 0.93449 0.89842 0.0
O190 O 0.68857 0.9278 0.86293 0.0
C191 C 0.6807 0.90829 0.92515 0.0
O192 O 0.70026 0.91656 0.93041 0.0
H193 H 0.71837 0.88717 0.88882 0.0
H194 H 0.74134 0.95249 0.90046 0.0
N195 N 0.68759 0.96083 0.89949 0.0
N196 N 0.66966 0.99322 0.90507 0.0
C197 C 0.67066 0.97435 0.89393 0.0
C198 C 0.69759 0.97154 0.91463 0.0
C199 C 0.68664 0.99149 0.91806 0.0
C200 C 0.69906 0.94197 0.85227 0.0
O201 O 0.70863 0.9593 0.86093 0.0
H202 H 0.65856 0.96982 0.88271 0.0
H203 H 0.71118 0.96479 0.92323 0.0
O204 O 0.67354 0.91211 0.90779 0.0
H205 H 0.77661 0.92536 0.89988 0.0
H206 H 0.69054 1.00353 0.92957 0.0
Cu207 Cu 0.57461 0.70853 0.40379 0.0
N208 N 0.584 0.73837 0.40699 0.0
N209 N 0.60858 0.76692 0.40569 0.0
C210 C 0.60577 0.74445 0.40692 0.0
C211 C 0.5876 0.77532 0.40512 0.0
C212 C 0.57249 0.75766 0.40574 0.0
O213 O 0.58041 0.70288 0.3758 0.0
C214 C 0.5886 0.69789 0.44081 0.0
O215 O 0.57578 0.71544 0.44382 0.0
H216 H 0.61927 0.73241 0.40692 0.0
H217 H 0.55453 0.7588 0.40406 0.0
N218 N 0.54399 0.70369 0.409 0.0
N219 N 0.51084 0.68587 0.41071 0.0
C220 C 0.53245 0.68473 0.40476 0.0
C221 C 0.52924 0.71724 0.41812 0.0
C222 C 0.50877 0.70637 0.41909 0.0
C223 C 0.56688 0.7129 0.36428 0.0
O224 O 0.5496 0.72324 0.37208 0.0
H225 H 0.53981 0.6704 0.39738 0.0
H226 H 0.53314 0.73368 0.42404 0.0
O227 O 0.5912 0.69091 0.42313 0.0
H228 H 0.58345 0.79281 0.40313 0.0
H229 H 0.49372 0.71284 0.42592 0.0
Cu230 Cu 0.88081 0.62789 0.87873 0.0
N231 N 0.88484 0.65886 0.87507 0.0
N232 N 0.87706 0.69555 0.87322 0.0
C233 C 0.86878 0.67439 0.87238 0.0
C234 C 0.89929 0.69317 0.87615 0.0
C235 C 0.904 0.67058 0.87734 0.0
O236 O 0.85597 0.61782 0.86195 0.0
C237 C 0.86799 0.63693 0.91838 0.0
O238 O 0.85754 0.65401 0.91054 0.0
H239 H 0.85124 0.67026 0.87066 0.0
H240 H 0.9201 0.66322 0.8806 0.0
N241 N 0.90665 0.61293 0.87003 0.0
N242 N 0.93404 0.58763 0.86607 0.0
C243 C 0.91603 0.59393 0.87693 0.0
C244 C 0.91916 0.61886 0.85441 0.0
C245 C 0.93601 0.6034 0.85194 0.0
C246 C 0.83532 0.62272 0.86397 0.0
O247 O 0.82878 0.63379 0.87972 0.0
H248 H 0.90944 0.58463 0.88931 0.0
H249 H 0.91608 0.63336 0.84531 0.0
O250 O 0.87743 0.62265 0.90707 0.0
H251 H 0.91114 0.70677 0.87842 0.0
H252 H 0.94878 0.60382 0.84062 0.0
Cu253 Cu 0.88487 0.88517 0.37376 0.0
N254 N 0.85391 0.88987 0.37242 0.0
N255 N 0.8169 0.88351 0.37413 0.0
C256 C 0.83754 0.87422 0.37358 0.0
C257 C 0.82055 0.90588 0.37306 0.0
C258 C 0.84332 0.90972 0.37205 0.0
O259 O 0.89212 0.85929 0.35714 0.0
C260 C 0.88322 0.86634 0.41203 0.0
O261 O 0.87068 0.8509 0.40356 0.0
H262 H 0.8408 0.85644 0.37476 0.0
H263 H 0.85162 0.9259 0.37161 0.0
N264 N 0.90003 0.9107 0.36462 0.0
N265 N 0.92482 0.93898 0.36203 0.0
C266 C 0.91806 0.92099 0.37266 0.0
C267 C 0.89516 0.92251 0.34841 0.0
C268 C 0.91032 0.93993 0.34678 0.0
C269 C 0.91092 0.85709 0.34842 0.0
O270 O 0.92692 0.87181 0.35191 0.0
H271 H 0.92622 0.91509 0.38585 0.0
H272 H 0.88146 0.91871 0.3385 0.0
O273 O 0.89222 0.88147 0.40144 0.0
H274 H 0.80773 0.91865 0.3732 0.0
H275 H 0.9104 0.95245 0.33531 0.0
Cu276 Cu 0.69979 0.58387 0.64918 0.0
N277 N 0.7287 0.59346 0.64228 0.0
N278 N 0.75743 0.61781 0.64086 0.0
C279 C 0.73826 0.61198 0.65015 0.0
C280 C 0.76008 0.60221 0.62654 0.0
C281 C 0.74232 0.58721 0.62744 0.0
O282 O 0.6979 0.59154 0.67725 0.0
C283 C 0.68066 0.5923 0.61327 0.0
O284 O 0.69388 0.5753 0.60934 0.0
H285 H 0.73046 0.62182 0.66169 0.0
H286 H 0.73907 0.57349 0.61735 0.0
N287 N 0.69472 0.55277 0.64583 0.0
N288 N 0.67613 0.52006 0.64317 0.0
C289 C 0.67497 0.54196 0.64842 0.0
C290 C 0.70889 0.53708 0.6389 0.0
C291 C 0.69746 0.51695 0.63716 0.0
C292 C 0.70921 0.57882 0.68854 0.0
O293 O 0.71857 0.56087 0.68089 0.0
H294 H 0.65984 0.5502 0.65337 0.0
H295 H 0.72622 0.54012 0.63504 0.0
O296 O 0.67967 0.59948 0.63102 0.0
H297 H 0.77351 0.60198 0.61582 0.0
H298 H 0.70429 0.50125 0.63183 0.0
Cu299 Cu 0.91701 0.66321 0.16465 0.0
N300 N 0.88662 0.65949 0.17011 0.0
N301 N 0.85117 0.66966 0.17546 0.0
C302 C 0.87285 0.67617 0.17568 0.0
C303 C 0.85129 0.64798 0.16959 0.0
C304 C 0.87325 0.64171 0.16636 0.0
O305 O 0.92581 0.69052 0.17906 0.0
C306 C 0.91755 0.64756 0.12579 0.0
O307 O 0.91574 0.62829 0.13497 0.0
H308 H 0.87851 0.69318 0.17851 0.0
H309 H 0.87896 0.62571 0.16074 0.0
N310 N 0.93315 0.63823 0.17332 0.0
N311 N 0.96007 0.61253 0.1766 0.0
C312 C 0.9534 0.63118 0.16704 0.0
C313 C 0.92677 0.62353 0.18723 0.0
C314 C 0.94335 0.60772 0.18933 0.0
C315 C 0.93565 0.68968 0.1957 0.0
O316 O 0.94286 0.67027 0.20209 0.0
H317 H 0.96307 0.63967 0.1558 0.0
H318 H 0.91114 0.62431 0.19528 0.0
O319 O 0.91927 0.66556 0.13597 0.0
H320 H 0.83655 0.63766 0.16717 0.0
H321 H 0.94293 0.59356 0.19924 0.0
Cu322 Cu 0.86888 0.89786 0.66032 0.0
N323 N 0.87474 0.86722 0.66407 0.0
N324 N 0.86984 0.82987 0.66561 0.0
C325 C 0.85979 0.85018 0.66535 0.0
C326 C 0.89204 0.83446 0.66486 0.0
C327 C 0.89497 0.8574 0.66388 0.0
O328 O 0.84398 0.90665 0.67742 0.0
C329 C 0.85417 0.88898 0.62111 0.0
O330 O 0.84371 0.8719 0.62916 0.0
H331 H 0.84186 0.85262 0.66505 0.0
H332 H 0.91074 0.86629 0.66248 0.0
N333 N 0.89386 0.91487 0.66839 0.0
N334 N 0.91996 0.94201 0.67086 0.0
C335 C 0.90313 0.93316 0.65986 0.0
C336 C 0.90526 0.91203 0.68524 0.0
C337 C 0.92131 0.92865 0.68681 0.0
C338 C 0.82342 0.90109 0.67572 0.0
O339 O 0.81687 0.88954 0.66022 0.0
H340 H 0.89718 0.94023 0.6462 0.0
H341 H 0.90184 0.89893 0.69582 0.0
O342 O 0.86454 0.90293 0.63215 0.0
H343 H 0.9053 0.82216 0.66465 0.0
H344 H 0.93308 0.93071 0.69879 0.0
Cu345 Cu 0.6158 0.85096 0.15129 0.0
N346 N 0.64679 0.84914 0.15425 0.0
N347 N 0.6805 0.83398 0.159 0.0
C348 C 0.65828 0.83225 0.16256 0.0
C349 C 0.68305 0.85271 0.14811 0.0
C350 C 0.66224 0.86193 0.14513 0.0
O351 O 0.60298 0.82887 0.16938 0.0
C352 C 0.59598 0.85224 0.11212 0.0
O353 O 0.57895 0.86296 0.1199 0.0
H354 H 0.65035 0.81817 0.16985 0.0
H355 H 0.65847 0.87629 0.13606 0.0
N356 N 0.60645 0.88026 0.15764 0.0
N357 N 0.58564 0.91104 0.16258 0.0
C358 C 0.58556 0.8889 0.15791 0.0
C359 C 0.62008 0.89745 0.1626 0.0
C360 C 0.60739 0.91635 0.16559 0.0
C361 C 0.60322 0.83378 0.18768 0.0
O362 O 0.6102 0.85384 0.19309 0.0
H363 H 0.57062 0.87913 0.15484 0.0
H364 H 0.63809 0.89641 0.16383 0.0
O365 O 0.61134 0.84474 0.12326 0.0
H366 H 0.69874 0.85886 0.14214 0.0
H367 H 0.61384 0.93289 0.16918 0.0
H368 H 0.45223 0.15192 0.97052 0.0
H369 H 0.43315 0.13363 0.99765 0.0
H370 H 0.37176 0.132 0.96422 0.0
H371 H 0.39095 0.15099 0.93677 0.0
H372 H 0.36511 0.1493 1.00032 0.0
H373 H 0.41245 0.07112 1.00915 0.0
H374 H 0.43167 0.09427 1.008 0.0
H375 H 0.41426 0.08771 0.98702 0.0
C376 C 0.43476 0.14732 0.96869 0.0
C377 C 0.4231 0.15298 0.95147 0.0
C378 C 0.42389 0.1366 0.98422 0.0
C379 C 0.40107 0.13102 0.98295 0.0
C380 C 0.38944 0.13593 0.96548 0.0
H381 H 0.35654 0.07431 0.09654 0.0
H382 H 0.36033 0.07725 0.06063 0.0
C383 C 0.40042 0.14668 0.94978 0.0
C384 C 0.3893 0.12259 1.00082 0.0
H385 H 0.39666 0.08704 0.03952 0.0
C386 C 0.37163 0.13531 1.00866 0.0
C387 C 0.39732 0.10402 1.01162 0.0
C388 C 0.4148 0.08838 1.00335 0.0
C389 C 0.36322 0.13123 0.02766 0.0
C390 C 0.37313 0.11435 0.03935 0.0
C391 C 0.38934 0.10032 0.03082 0.0
C392 C 0.36878 0.11264 0.0609 0.0
C393 C 0.34421 0.14549 0.03518 0.0
C394 C 0.37238 0.13145 0.07305 0.0
C395 C 0.37015 0.12985 0.09346 0.0
C396 C 0.36456 0.10928 0.10235 0.0
C397 C 0.36078 0.09042 0.0902 0.0
C398 C 0.36295 0.09208 0.06966 0.0
H399 H 0.33318 0.15079 0.02291 0.0
H400 H 0.3339 0.13642 0.04624 0.0
H401 H 0.35115 0.16093 0.04213 0.0
H402 H 0.37758 0.14734 0.06681 0.0
H403 H 0.37335 0.14473 0.10228 0.0
H404 H 0.35729 0.41377 0.44617 0.0
H405 H 0.37411 0.40181 0.47739 0.0
H406 H 0.34479 0.4588 0.50692 0.0
H407 H 0.32819 0.47089 0.47604 0.0
H408 H 0.38994 0.45199 0.51655 0.0
H409 H 0.33913 0.37403 0.52408 0.0
H410 H 0.35402 0.37671 0.50118 0.0
H411 H 0.33197 0.39604 0.50707 0.0
C412 C 0.35452 0.42376 0.4593 0.0
C413 C 0.34129 0.4432 0.45862 0.0
C414 C 0.364 0.41685 0.47714 0.0
C415 C 0.36041 0.42927 0.49452 0.0
C416 C 0.34768 0.44892 0.49372 0.0
H417 H 0.38717 0.3802 0.61363 0.0
H418 H 0.36922 0.39926 0.58578 0.0
C419 C 0.33817 0.45576 0.47602 0.0
C420 C 0.36986 0.422 0.51363 0.0
H421 H 0.36807 0.37986 0.54747 0.0
C422 C 0.38513 0.43625 0.52335 0.0
C423 C 0.3632 0.40169 0.52265 0.0
C424 C 0.34603 0.38628 0.51335 0.0
C425 C 0.3944 0.43041 0.5416 0.0
C426 C 0.38837 0.4097 0.55027 0.0
C427 C 0.37265 0.39574 0.54081 0.0
C428 C 0.39951 0.40132 0.56827 0.0
C429 C 0.41056 0.44645 0.55146 0.0
C430 C 0.42249 0.39663 0.5678 0.0
C431 C 0.43266 0.3858 0.58355 0.0
C432 C 0.42008 0.37943 0.60014 0.0
C433 C 0.39731 0.38519 0.60114 0.0
C434 C 0.38703 0.39589 0.5852 0.0
H435 H 0.40836 0.46389 0.54612 0.0
H436 H 0.40841 0.4463 0.5677 0.0
H437 H 0.42797 0.44126 0.54802 0.0
H438 H 0.43236 0.40032 0.55481 0.0
H439 H 0.45023 0.38151 0.58236 0.0
H440 H 0.11265 0.37497 0.94116 0.0
H441 H 0.11279 0.38201 0.97672 0.0
H442 H 0.14283 0.31729 0.98622 0.0
H443 H 0.14357 0.31057 0.95068 0.0
H444 H 0.09625 0.3625 1.00974 0.0
H445 H 0.18918 0.35805 1.01024 0.0
H446 H 0.17323 0.35814 0.98774 0.0
H447 H 0.1759 0.33273 1.00174 0.0
C448 C 0.11895 0.36209 0.95085 0.0
C449 C 0.12841 0.34235 0.9431 0.0
C450 C 0.11906 0.36614 0.97119 0.0
C451 C 0.12843 0.35046 0.98414 0.0
C452 C 0.13619 0.32997 0.9765 0.0
H453 H 0.16404 0.36732 0.10905 0.0
H454 H 0.1518 0.34923 0.07821 0.0
C455 C 0.13644 0.32607 0.95618 0.0
C456 C 0.13143 0.3562 1.00535 0.0
H457 H 0.17143 0.36369 0.04081 0.0
C458 C 0.11267 0.36263 1.01655 0.0
C459 C 0.1529 0.3565 1.01428 0.0
C460 C 0.17398 0.35121 1.00286 0.0
C461 C 0.11486 0.36952 0.03631 0.0
C462 C 0.13632 0.37 0.04508 0.0
C463 C 0.15495 0.36302 0.0341 0.0
C464 C 0.14034 0.37998 0.06485 0.0
C465 C 0.09426 0.37646 0.04763 0.0
C466 C 0.1377 0.40315 0.06761 0.0
C467 C 0.14489 0.41349 0.08501 0.0
C468 C 0.15475 0.40085 0.10009 0.0
C469 C 0.15633 0.37745 0.09776 0.0
C470 C 0.1494 0.36712 0.08015 0.0
H471 H 0.07869 0.36981 0.04073 0.0
H472 H 0.09509 0.37056 0.06309 0.0
H473 H 0.09326 0.39506 0.0479 0.0
H474 H 0.1311 0.41345 0.0559 0.0
H475 H 0.14343 0.43155 0.08638 0.0
H476 H 0.16698 0.15932 0.59519 0.0
H477 H 0.17867 0.14575 0.5628 0.0
H478 H 0.14908 0.08109 0.57519 0.0
H479 H 0.13664 0.0951 0.60753 0.0
H480 H 0.20249 0.11272 0.54541 0.0
H481 H 0.11169 0.10127 0.52939 0.0
H482 H 0.12153 0.11424 0.55181 0.0
H483 H 0.1223 0.08422 0.54893 0.0
C484 C 0.16383 0.14191 0.5913 0.0
C485 C 0.1512 0.12814 0.60388 0.0
C486 C 0.17036 0.1342 0.57272 0.0
C487 C 0.16425 0.11258 0.56628 0.0
C488 C 0.15352 0.09802 0.57962 0.0
H489 H 0.16247 0.06969 0.44184 0.0
H490 H 0.16354 0.06799 0.47788 0.0
C491 C 0.14679 0.10585 0.59824 0.0
C492 C 0.16687 0.10666 0.54503 0.0
H493 H 0.13665 0.09599 0.5032 0.0
C494 C 0.18812 0.10877 0.53624 0.0
C495 C 0.14809 0.1017 0.53294 0.0
C496 C 0.12458 0.1004 0.54115 0.0
C497 C 0.191 0.1066 0.51575 0.0
C498 C 0.17214 0.1023 0.50369 0.0
C499 C 0.15108 0.09923 0.51251 0.0
C500 C 0.17347 0.10269 0.48183 0.0
C501 C 0.21414 0.10929 0.50709 0.0
C502 C 0.17864 0.12278 0.47207 0.0
C503 C 0.17783 0.12388 0.45151 0.0
C504 C 0.1719 0.10487 0.44023 0.0
C505 C 0.1672 0.08462 0.45004 0.0
C506 C 0.1678 0.0836 0.47065 0.0
H507 H 0.22738 0.10658 0.5183 0.0
H508 H 0.21674 0.09736 0.49468 0.0
H509 H 0.21608 0.12659 0.50134 0.0
H510 H 0.18266 0.13783 0.48041 0.0
H511 H 0.18153 0.13975 0.44447 0.0
H512 H 0.63322 0.8392 0.0915 0.0
H513 H 0.64083 0.84437 0.05651 0.0
H514 H 0.57406 0.86991 0.04824 0.0
H515 H 0.5665 0.86544 0.08346 0.0
H516 H 0.62283 0.82894 1.02242 0.0
H517 H 0.61125 0.92135 0.02773 0.0
H518 H 0.61235 0.90372 0.04918 0.0
H519 H 0.58721 0.90497 0.03468 0.0
C520 C 0.62001 0.84569 0.08225 0.0
C521 C 0.59931 0.85215 0.0904 0.0
C522 C 0.62441 0.84864 0.06219 0.0
C523 C 0.60823 0.85803 0.04976 0.0
C524 C 0.58706 0.86323 0.0576 0.0
H525 H 0.63472 0.90561 0.92852 0.0
H526 H 0.61339 0.89076 0.95675 0.0
C527 C 0.58269 0.86048 0.07774 0.0
C528 C 0.6141 0.86324 0.02892 0.0
H529 H 0.62158 0.90677 0.99688 0.0
C530 C 0.62232 0.84593 1.01679 0.0
C531 C 0.61344 0.88542 1.02147 0.0
C532 C 0.60578 0.90499 0.03395 0.0
C533 C 0.63046 0.8503 0.99774 0.0
C534 C 0.63051 0.87255 0.99061 0.0
C535 C 0.62137 0.88969 1.00233 0.0
C536 C 0.64261 0.87893 0.97231 0.0
C537 C 0.63944 0.83114 0.98551 0.0
C538 C 0.66601 0.87702 0.97163 0.0
C539 C 0.67812 0.88565 0.95576 0.0
C540 C 0.66714 0.89626 0.94009 0.0
C541 C 0.6436 0.89731 0.94028 0.0
C542 C 0.63143 0.88893 0.95642 0.0
H543 H 0.63247 0.81475 0.9904 0.0
H544 H 0.6355 0.83345 0.96968 0.0
H545 H 0.65793 0.83054 0.9871 0.0
H546 H 0.67503 0.86973 0.98383 0.0
H547 H 0.69624 0.8846 0.95605 0.0
H548 H 0.65819 0.63288 0.61256 0.0
H549 H 0.6411 0.65086 0.5837 0.0
H550 H 0.65956 0.59408 0.54767 0.0
H551 H 0.67614 0.57607 0.57608 0.0
H552 H 0.66242 0.66281 0.54841 0.0
H553 H 0.59418 0.60181 0.53316 0.0
H554 H 0.60901 0.6026 0.55629 0.0
H555 H 0.62109 0.58878 0.53521 0.0
C556 C 0.65825 0.62412 0.59855 0.0
C557 C 0.6685 0.603 0.5967 0.0
C558 C 0.64858 0.63443 0.58205 0.0
C559 C 0.64874 0.62368 0.56353 0.0
C560 C 0.65873 0.60253 0.56182 0.0
H561 H 0.61137 0.65755 0.44247 0.0
H562 H 0.62695 0.63958 0.47198 0.0
C563 C 0.66838 0.59231 0.57815 0.0
C564 C 0.63967 0.63481 0.54565 0.0
H565 H 0.60318 0.62737 0.50731 0.0
C566 C 0.64931 0.65518 0.53954 0.0
C567 C 0.62271 0.62474 0.53391 0.0
C568 C 0.61099 0.60339 0.54005 0.0
C569 C 0.64279 0.66549 0.52187 0.0
C570 C 0.62595 0.65534 0.51008 0.0
C571 C 0.61625 0.63502 0.51622 0.0
C572 C 0.61725 0.66625 0.49198 0.0
C573 C 0.65434 0.68695 0.51576 0.0
C574 C 0.6065 0.68704 0.49342 0.0
C575 C 0.59761 0.69721 0.47672 0.0
C576 C 0.59914 0.68686 0.45807 0.0
C577 C 0.61 0.66602 0.45656 0.0
C578 C 0.61885 0.65573 0.47342 0.0
H579 H 0.67075 0.68915 0.52325 0.0
H580 H 0.65708 0.68732 0.49959 0.0
H581 H 0.64363 0.70142 0.51984 0.0
H582 H 0.60466 0.69529 0.50758 0.0
H583 H 0.58934 0.71323 0.47854 0.0
H584 H 0.88991 0.60517 0.94039 0.0
H585 H 0.89817 0.60666 0.97575 0.0
H586 H 0.86332 0.66967 0.98045 0.0
H587 H 0.85445 0.66799 0.94551 0.0
H588 H 0.92259 0.63709 0.99586 0.0
H589 H 0.8364 0.63704 0.02608 0.0
H590 H 0.84225 0.6303 1.00067 0.0
H591 H 0.84069 0.65914 1.00865 0.0
C592 C 0.88365 0.61912 0.94904 0.0
C593 C 0.87136 0.63636 0.94008 0.0
C594 C 0.88848 0.62002 0.96925 0.0
C595 C 0.8811 0.63812 0.98091 0.0
C596 C 0.8687 0.65522 0.97198 0.0
H597 H 0.90604 0.68289 0.10197 0.0
H598 H 0.89847 0.6815 0.06638 0.0
C599 C 0.86373 0.65426 0.95188 0.0
C600 C 0.8873 0.63982 1.00214 0.0
H601 H 0.86562 0.64766 0.04833 0.0
C602 C 0.91009 0.63923 1.00732 0.0
C603 C 0.87104 0.64267 1.01719 0.0
C604 C 0.84623 0.64209 1.0129 0.0
C605 C 0.91704 0.64175 0.027 0.0
C606 C 0.9008 0.64494 0.04192 0.0
C607 C 0.87805 0.64551 0.03681 0.0
C608 C 0.907 0.64643 0.06306 0.0
C609 C 0.9417 0.64122 0.03176 0.0
C610 C 0.91444 0.62726 0.0729 0.0
C611 C 0.91858 0.62796 0.09314 0.0
C612 C 0.91551 0.64791 0.104 0.0
C613 C 0.90873 0.66733 0.09401 0.0
C614 C 0.9043 0.66653 0.07372 0.0
H615 H 0.95228 0.6428 1.01835 0.0
H616 H 0.94614 0.65496 0.04219 0.0
H617 H 0.9457 0.62506 0.03896 0.0
H618 H 0.91644 0.61154 0.065 0.0
H619 H 0.9238 0.6127 0.10037 0.0
H620 H 0.90475 0.89819 0.43455 0.0
H621 H 0.90262 0.90319 0.47031 0.0
H622 H 0.86073 0.84418 0.47453 0.0
H623 H 0.86303 0.83885 0.43894 0.0
H624 H 0.86451 0.91053 0.4923 0.0
H625 H 0.90644 0.83317 0.51745 0.0
H626 H 0.90852 0.84302 0.49243 0.0
H627 H 0.88417 0.82754 0.50038 0.0
C628 C 0.89541 0.88604 0.44312 0.0
C629 C 0.88412 0.86806 0.43384 0.0
C630 C 0.89413 0.88898 0.46356 0.0
C631 C 0.88171 0.87394 0.47516 0.0
C632 C 0.8708 0.85575 0.46598 0.0
H633 H 0.83461 0.86126 0.59395 0.0
H634 H 0.84169 0.8596 0.55859 0.0
C635 C 0.87207 0.85278 0.44557 0.0
C636 C 0.87901 0.87791 0.49667 0.0
H637 H 0.88465 0.85288 0.54149 0.0
C638 C 0.86917 0.89805 0.50309 0.0
C639 C 0.88511 0.86164 0.51075 0.0
C640 C 0.89685 0.84023 0.50494 0.0
C641 C 0.86447 0.90196 0.52312 0.0
C642 C 0.86998 0.8854 0.5371 0.0
C643 C 0.8803 0.8655 0.53073 0.0
C644 C 0.86454 0.8879 0.55834 0.0
C645 C 0.85293 0.92341 0.5291 0.0
C646 C 0.87481 0.90461 0.56996 0.0
C647 C 0.87076 0.90565 0.59029 0.0
C648 C 0.85645 0.88992 0.59935 0.0
C649 C 0.84573 0.87365 0.58752 0.0
C650 C 0.8498 0.87261 0.56728 0.0
H651 H 0.84579 0.93232 0.51625 0.0
H652 H 0.83927 0.91994 0.5398 0.0
H653 H 0.86524 0.93477 0.53636 0.0
H654 H 0.88648 0.9164 0.56341 0.0
H655 H 0.87941 0.9183 0.59896 0.0
H656 H 0.27831 0.3805 0.11237 0.0
H657 H 0.30338 0.34831 0.1158 0.0
H658 H 0.28539 0.34306 0.17711 0.0
H659 H 0.26094 0.37556 0.17396 0.0
H660 H 0.33081 0.33619 0.17043 0.0
H661 H 0.27834 0.28432 0.11994 0.0
H662 H 0.28878 0.31008 0.10968 0.0
H663 H 0.26908 0.31093 0.12971 0.0
C664 C 0.28001 0.37276 0.12666 0.0
C665 C 0.26736 0.38042 0.14283 0.0
C666 C 0.29417 0.35421 0.12855 0.0
C667 C 0.29587 0.34298 0.14661 0.0
C668 C 0.28418 0.35133 0.16299 0.0
H669 H 0.33091 0.20639 0.17218 0.0
H670 H 0.31319 0.24276 0.16714 0.0
C671 C 0.27008 0.36982 0.16112 0.0
C672 C 0.30896 0.32195 0.14842 0.0
H673 H 0.31064 0.26734 0.13289 0.0
C674 C 0.32652 0.32116 0.16213 0.0
C675 C 0.30309 0.30227 0.1378 0.0
C676 C 0.28369 0.30176 0.12357 0.0
C677 C 0.3383 0.3012 0.16559 0.0
C678 C 0.33255 0.28158 0.15484 0.0
C679 C 0.3151 0.28243 0.14103 0.0
C680 C 0.34371 0.25971 0.15826 0.0
C681 C 0.35627 0.30109 0.18119 0.0
C682 C 0.36676 0.25709 0.15487 0.0
C683 C 0.37696 0.23625 0.15773 0.0
C684 C 0.36425 0.21756 0.16385 0.0
C685 C 0.34116 0.2203 0.16723 0.0
C686 C 0.33101 0.24113 0.16443 0.0
H687 H 0.35497 0.31581 0.19124 0.0
H688 H 0.35531 0.28554 0.1901 0.0
H689 H 0.37297 0.30169 0.174 0.0
H690 H 0.37681 0.27106 0.1497 0.0
H691 H 0.39468 0.23468 0.15468 0.0
H692 H 0.35866 0.29576 0.65061 0.0
H693 H 0.31998 0.28273 0.64882 0.0
H694 H 0.3333 0.25163 0.59261 0.0
H695 H 0.37223 0.26504 0.59407 0.0
H696 H 0.28744 0.29218 0.61898 0.0
H697 H 0.30447 0.20087 0.62631 0.0
H698 H 0.32493 0.22211 0.63277 0.0
H699 H 0.31969 0.21549 0.60738 0.0
C700 C 0.35347 0.28636 0.63772 0.0
C701 C 0.36871 0.28165 0.62239 0.0
C702 C 0.33127 0.27881 0.63679 0.0
C703 C 0.32372 0.26614 0.62064 0.0
C704 C 0.33882 0.26117 0.60535 0.0
H705 H 0.18089 0.2352 0.59941 0.0
H706 H 0.21945 0.24893 0.59546 0.0
C707 C 0.36111 0.26882 0.60622 0.0
C708 C 0.29995 0.2584 0.61997 0.0
H709 H 0.26674 0.21157 0.62283 0.0
C710 C 0.28289 0.27455 0.61964 0.0
C711 C 0.29406 0.2354 0.62103 0.0
C712 C 0.31167 0.21738 0.62204 0.0
C713 C 0.26011 0.26834 0.62054 0.0
C714 C 0.25422 0.24535 0.6217 0.0
C715 C 0.27128 0.22919 0.62182 0.0
C716 C 0.23055 0.23776 0.62406 0.0
C717 C 0.24254 0.28644 0.62094 0.0
C718 C 0.22393 0.22693 0.64142 0.0
C719 C 0.20192 0.21922 0.64377 0.0
C720 C 0.18595 0.2219 0.62873 0.0
C721 C 0.19257 0.23304 0.6114 0.0
C722 C 0.21466 0.24085 0.60909 0.0
H723 H 0.24994 0.30335 0.62354 0.0
H724 H 0.23368 0.28664 0.6066 0.0
H725 H 0.22993 0.28302 0.63261 0.0
H726 H 0.23585 0.22447 0.65322 0.0
H727 H 0.19746 0.21112 0.65745 0.0
H728 H 0.2259 0.40047 0.43152 0.0
H729 H 0.20728 0.36396 0.42782 0.0
H730 H 0.24374 0.35216 0.37392 0.0
H731 H 0.26169 0.3889 0.37709 0.0
H732 H 0.20035 0.33941 0.37057 0.0
H733 H 0.2365 0.304 0.43882 0.0
H734 H 0.2208 0.32927 0.44267 0.0
H735 H 0.24619 0.3301 0.42839 0.0
C736 C 0.22976 0.39026 0.41875 0.0
C737 C 0.24556 0.39758 0.40475 0.0
C738 C 0.2193 0.36922 0.41678 0.0
C739 C 0.2245 0.35503 0.40084 0.0
C740 C 0.23962 0.36266 0.38648 0.0
H741 H 0.20374 0.21116 0.38912 0.0
H742 H 0.21856 0.24915 0.39426 0.0
C743 C 0.25002 0.38365 0.3884 0.0
C744 C 0.21435 0.3322 0.399 0.0
H745 H 0.2099 0.2814 0.42193 0.0
C746 C 0.2024 0.32674 0.38182 0.0
C747 C 0.21734 0.31553 0.41354 0.0
C748 C 0.23108 0.31987 0.43181 0.0
C749 C 0.1933 0.30518 0.37879 0.0
C750 C 0.19576 0.28868 0.39356 0.0
C751 C 0.20781 0.29409 0.4107 0.0
C752 C 0.18649 0.26554 0.39124 0.0
C753 C 0.18169 0.30011 0.35954 0.0
C754 C 0.16345 0.26199 0.38829 0.0
C755 C 0.15495 0.24029 0.38531 0.0
C756 C 0.16925 0.22158 0.38545 0.0
C757 C 0.19222 0.22512 0.38906 0.0
C758 C 0.20074 0.24686 0.39192 0.0
H759 H 0.18656 0.31226 0.34791 0.0
H760 H 0.18562 0.2829 0.35425 0.0
H761 H 0.16329 0.30128 0.36167 0.0
H762 H 0.15201 0.27603 0.38824 0.0
H763 H 0.13713 0.23815 0.38296 0.0
H764 H 0.38578 0.27134 0.94802 0.0
H765 H 0.35097 0.29242 0.94344 0.0
H766 H 0.35408 0.2796 0.88097 0.0
H767 H 0.38899 0.25904 0.88537 0.0
H768 H 0.34233 0.32397 0.89052 0.0
H769 H 0.2903 0.26181 0.93112 0.0
H770 H 0.31388 0.27304 0.94442 0.0
H771 H 0.31848 0.25585 0.923 0.0
C772 C 0.37921 0.27329 0.9333 0.0
C773 C 0.39004 0.26328 0.91709 0.0
C774 C 0.3592 0.28514 0.93072 0.0
C775 C 0.3497 0.28723 0.9119 0.0
C776 C 0.36098 0.27804 0.89564 0.0
H777 H 0.21385 0.31693 0.87642 0.0
H778 H 0.25041 0.30025 0.88298 0.0
C779 C 0.38087 0.26617 0.8982 0.0
C780 C 0.32781 0.29852 0.90901 0.0
H781 H 0.27188 0.29402 0.91934 0.0
C782 C 0.32693 0.31751 0.8969 0.0
C783 C 0.30769 0.28984 0.9171 0.0
C784 C 0.30746 0.26891 0.92951 0.0
C785 C 0.30651 0.32809 0.89269 0.0
C786 C 0.28643 0.3196 0.90099 0.0
C787 C 0.2873 0.30058 0.91308 0.0
C788 C 0.26428 0.32991 0.897 0.0
C789 C 0.30651 0.34791 0.87896 0.0
C790 C 0.25982 0.35206 0.90286 0.0
C791 C 0.23889 0.36163 0.8992 0.0
C792 C 0.22186 0.34921 0.88969 0.0
C793 C 0.2264 0.32695 0.88394 0.0
C794 C 0.24735 0.3174 0.88761 0.0
H795 H 0.32222 0.34894 0.8702 0.0
H796 H 0.29207 0.347 0.86868 0.0
H797 H 0.30502 0.36361 0.88772 0.0
H798 H 0.27246 0.36188 0.91049 0.0
H799 H 0.23595 0.37863 0.90421 0.0
H800 H 0.74187 0.86272 0.87167 0.0
H801 H 0.76396 0.82859 0.86781 0.0
H802 H 0.81497 0.85642 0.90577 0.0
H803 H 0.79267 0.8905 0.91012 0.0
H804 H 0.80785 0.82327 0.85317 0.0
H805 H 0.80052 0.79513 0.93078 0.0
H806 H 0.78274 0.81651 0.92055 0.0
H807 H 0.81098 0.82323 0.92767 0.0
C808 C 0.75765 0.86154 0.87941 0.0
C809 C 0.76535 0.87933 0.8914 0.0
C810 C 0.77035 0.84206 0.87704 0.0
C811 C 0.79097 0.83982 0.8867 0.0
C812 C 0.79894 0.85764 0.89842 0.0
H813 H 0.89192 0.73716 0.86328 0.0
H814 H 0.87134 0.77248 0.86603 0.0
C815 C 0.78626 0.8772 0.90075 0.0
C816 C 0.80406 0.8188 0.88443 0.0
H817 H 0.82423 0.77396 0.9099 0.0
C818 C 0.81148 0.81249 0.86557 0.0
C819 C 0.80853 0.80463 0.90058 0.0
C820 C 0.80014 0.81003 0.92103 0.0
C821 C 0.8234 0.79248 0.86246 0.0
C822 C 0.82821 0.77851 0.87867 0.0
C823 C 0.82066 0.78476 0.8975 0.0
C824 C 0.84062 0.75708 0.8764 0.0
C825 C 0.83029 0.78619 0.84178 0.0
C826 C 0.83033 0.7367 0.88155 0.0
C827 C 0.84209 0.71651 0.88011 0.0
C828 C 0.86452 0.71625 0.87363 0.0
C829 C 0.87475 0.73673 0.86841 0.0
C830 C 0.86293 0.75693 0.8698 0.0
H831 H 0.82083 0.79577 0.83058 0.0
H832 H 0.84839 0.78996 0.8398 0.0
H833 H 0.82767 0.76797 0.83904 0.0
H834 H 0.81317 0.73643 0.8868 0.0
H835 H 0.83374 0.7012 0.88461 0.0
H836 H 0.64765 0.75079 0.39069 0.0
H837 H 0.6827 0.77129 0.38594 0.0
H838 H 0.65216 0.8314 0.40889 0.0
H839 H 0.61707 0.81079 0.4143 0.0
H840 H 0.69049 0.80877 0.36262 0.0
H841 H 0.71002 0.82737 0.44096 0.0
H842 H 0.68931 0.80674 0.43368 0.0
H843 H 0.6827 0.83612 0.43315 0.0
C844 C 0.64839 0.76825 0.3951 0.0
C845 C 0.62947 0.77903 0.4031 0.0
C846 C 0.66846 0.78001 0.39219 0.0
C847 C 0.67019 0.80281 0.39729 0.0
C848 C 0.65136 0.81372 0.40517 0.0
H849 H 0.77846 0.90083 0.38937 0.0
H850 H 0.74273 0.88145 0.39409 0.0
C851 C 0.63122 0.80195 0.40807 0.0
C852 C 0.69155 0.81518 0.39382 0.0
H853 H 0.73347 0.8443 0.41704 0.0
C854 C 0.69992 0.81649 0.37452 0.0
C855 C 0.70384 0.82529 0.40936 0.0
C856 C 0.69617 0.8237 0.43049 0.0
C857 C 0.72007 0.82786 0.37029 0.0
C858 C 0.73242 0.83785 0.38584 0.0
C859 C 0.724 0.83664 0.40513 0.0
C860 C 0.75413 0.84964 0.38244 0.0
C861 C 0.72769 0.82945 0.34915 0.0
C862 C 0.77256 0.8382 0.37441 0.0
C863 C 0.79305 0.84931 0.37153 0.0
C864 C 0.79562 0.87209 0.37672 0.0
C865 C 0.77711 0.88343 0.38486 0.0
C866 C 0.75665 0.87231 0.38773 0.0
H867 H 0.71366 0.82639 0.33873 0.0
H868 H 0.73512 0.8462 0.34606 0.0
H869 H 0.74067 0.81656 0.34631 0.0
H870 H 0.77117 0.82058 0.37055 0.0
H871 H 0.80681 0.84003 0.36514 0.0
H872 H 0.82718 0.81905 0.67659 0.0
H873 H 0.80872 0.78242 0.67367 0.0
H874 H 0.86936 0.75414 0.64985 0.0
H875 H 0.88786 0.79062 0.65241 0.0
H876 H 0.80201 0.75665 0.63928 0.0
H877 H 0.85248 0.71012 0.69394 0.0
H878 H 0.85223 0.7404 0.69283 0.0
H879 H 0.86877 0.72451 0.67562 0.0
C880 C 0.83664 0.80511 0.6707 0.0
C881 C 0.85913 0.80798 0.6648 0.0
C882 C 0.82605 0.78411 0.66912 0.0
C883 C 0.83772 0.76544 0.66178 0.0
C884 C 0.86014 0.76817 0.65596 0.0
H885 H 0.78187 0.6412 0.61398 0.0
H886 H 0.80175 0.67679 0.61929 0.0
C887 C 0.87073 0.78914 0.65748 0.0
C888 C 0.82623 0.74333 0.65948 0.0
H889 H 0.82815 0.68836 0.67362 0.0
C890 C 0.80768 0.74174 0.64684 0.0
C891 C 0.8335 0.7239 0.66947 0.0
C892 C 0.85271 0.72476 0.68387 0.0
C893 C 0.79649 0.72119 0.64364 0.0
C894 C 0.80417 0.70164 0.65319 0.0
C895 C 0.82243 0.7033 0.66613 0.0
C896 C 0.79315 0.67941 0.65017 0.0
C897 C 0.77632 0.72063 0.63027 0.0
C898 C 0.7823 0.66867 0.66589 0.0
C899 C 0.77099 0.64827 0.66291 0.0
C900 C 0.77047 0.63803 0.64418 0.0
C901 C 0.78202 0.64849 0.6286 0.0
C902 C 0.79321 0.66897 0.63157 0.0
H903 H 0.76955 0.7377 0.62769 0.0
H904 H 0.78122 0.71337 0.61582 0.0
H905 H 0.76282 0.70994 0.63656 0.0
H906 H 0.78218 0.67632 0.68039 0.0
H907 H 0.76257 0.64054 0.67528 0.0
H908 H 0.84715 0.70398 0.20129 0.0
H909 H 0.81636 0.7309 0.20342 0.0
H910 H 0.78203 0.69573 0.15653 0.0
H911 H 0.8124 0.66842 0.15492 0.0
H912 H 0.80401 0.7593 0.17709 0.0
H913 H 0.73074 0.70533 0.19293 0.0
H914 H 0.7591 0.69523 0.19483 0.0
H915 H 0.74511 0.6957 0.17133 0.0
C916 C 0.83281 0.70184 0.19171 0.0
C917 C 0.83209 0.68408 0.17802 0.0
C918 C 0.81523 0.71719 0.19292 0.0
C919 C 0.79664 0.71523 0.18034 0.0
C920 C 0.79578 0.69727 0.16684 0.0
H921 H 0.71679 0.82348 0.13698 0.0
H922 H 0.74491 0.79511 0.14401 0.0
C923 C 0.8132 0.6817 0.16585 0.0
C924 C 0.77925 0.73303 0.1801 0.0
H925 H 0.72272 0.74171 0.17926 0.0
C926 C 0.78624 0.75543 0.17785 0.0
C927 C 0.75603 0.72817 0.18143 0.0
C928 C 0.74733 0.70482 0.18549 0.0
C929 C 0.77074 0.77293 0.17613 0.0
C930 C 0.74753 0.76784 0.17597 0.0
C931 C 0.7405 0.74559 0.17905 0.0
C932 C 0.73039 0.78521 0.1719 0.0
C933 C 0.77947 0.79669 0.17463 0.0
C934 C 0.71233 0.78861 0.18486 0.0
C935 C 0.69599 0.80467 0.1807 0.0
C936 C 0.69747 0.81769 0.16354 0.0
C937 C 0.71547 0.81413 0.15055 0.0
C938 C 0.73161 0.79793 0.15458 0.0
H939 H 0.79614 0.79849 0.18175 0.0
H940 H 0.7815 0.80111 0.15888 0.0
H941 H 0.7678 0.80884 0.18157 0.0
H942 H 0.71093 0.7789 0.19825 0.0
H943 H 0.68231 0.80708 0.19097 0.0
H944 H 0.20091 0.09914 0.3356 0.0
H945 H 0.22363 0.09129 0.30635 0.0
H946 H 0.26552 0.14859 0.3196 0.0
H947 H 0.24308 0.15646 0.34895 0.0
H948 H 0.23041 0.11918 0.27408 0.0
H949 H 0.3113 0.09896 0.30968 0.0
H950 H 0.28516 0.09966 0.32308 0.0
H951 H 0.29978 0.12533 0.3175 0.0
C952 C 0.21515 0.10991 0.33247 0.0
C953 C 0.2202 0.1284 0.34472 0.0
C954 C 0.22807 0.10543 0.31568 0.0
C955 C 0.24643 0.1192 0.31085 0.0
C956 C 0.2517 0.13748 0.32319 0.0
H957 H 0.31304 0.13876 0.19871 0.0
H958 H 0.28846 0.14073 0.2275 0.0
C959 C 0.23877 0.142 0.33996 0.0
C960 C 0.25945 0.1151 0.29247 0.0
H961 H 0.31227 0.10525 0.27507 0.0
C962 C 0.24829 0.11598 0.2743 0.0
C963 C 0.28272 0.11066 0.29274 0.0
C964 C 0.29544 0.10837 0.31179 0.0
C965 C 0.25986 0.11315 0.2564 0.0
C966 C 0.2833 0.10962 0.25665 0.0
C967 C 0.29434 0.10814 0.27485 0.0
C968 C 0.29681 0.1077 0.23826 0.0
C969 C 0.24685 0.11377 0.23739 0.0
C970 C 0.30976 0.0885 0.23467 0.0
C971 C 0.3239 0.08734 0.21823 0.0
C972 C 0.32555 0.10545 0.20507 0.0
C973 C 0.3121 0.12443 0.20843 0.0
C974 C 0.29795 0.12557 0.22488 0.0
H975 H 0.22875 0.11024 0.23982 0.0
H976 H 0.24838 0.13076 0.23089 0.0
H977 H 0.25349 0.10141 0.2266 0.0
H978 H 0.30921 0.07452 0.2448 0.0
H979 H 0.33403 0.07248 0.21618 0.0
H980 H 0.40818 0.27285 0.68886 0.0
H981 H 0.40417 0.25669 0.7216 0.0
H982 H 0.43478 0.31592 0.747 0.0
H983 H 0.43793 0.33256 0.71407 0.0
H984 H 0.43771 0.24521 0.74365 0.0
H985 H 0.38606 0.30503 0.78637 0.0
H986 H 0.38831 0.30627 0.7599 0.0
H987 H 0.40983 0.31845 0.77523 0.0
C988 C 0.41348 0.28269 0.7015 0.0
C989 C 0.42331 0.30397 0.69899 0.0
C990 C 0.41125 0.2734 0.72021 0.0
C991 C 0.41908 0.28502 0.73688 0.0
C992 C 0.42811 0.30676 0.73449 0.0
H993 H 0.462 0.25115 0.85176 0.0
H994 H 0.45275 0.26683 0.8199 0.0
C995 C 0.42997 0.31629 0.71567 0.0
C996 C 0.41996 0.27329 0.75621 0.0
H997 H 0.40722 0.27839 0.80511 0.0
C998 C 0.43068 0.25233 0.75701 0.0
C999 C 0.4108 0.28249 0.7737 0.0
C1000 C 0.3979 0.30419 0.77375 0.0
C1001 C 0.4332 0.24078 0.77483 0.0
C1002 C 0.42476 0.25036 0.79237 0.0
C1003 C 0.41361 0.27104 0.79159 0.0
C1004 C 0.42954 0.24038 0.81188 0.0
C1005 C 0.44571 0.21884 0.77497 0.0
C1006 C 0.41953 0.22014 0.818 0.0
C1007 C 0.42477 0.21098 0.83646 0.0
C1008 C 0.44018 0.22192 0.84895 0.0
C1009 C 0.45011 0.24214 0.84259 0.0
C1010 C 0.44478 0.25127 0.82436 0.0
H1011 H 0.45322 0.2148 0.7604 0.0
H1012 H 0.45925 0.21942 0.78616 0.0
H1013 H 0.43403 0.20506 0.77903 0.0
H1014 H 0.40763 0.21152 0.80856 0.0
H1015 H 0.41673 0.19549 0.84095 0.0
H1016 H 0.18253 0.43974 0.22938 0.0
H1017 H 0.20703 0.43532 0.25776 0.0
H1018 H 0.23846 0.37845 0.2298 0.0
H1019 H 0.21428 0.38306 0.20101 0.0
H1020 H 0.21669 0.40186 0.28415 0.0
H1021 H 0.29096 0.42157 0.23753 0.0
H1022 H 0.26266 0.42493 0.22881 0.0
H1023 H 0.27473 0.39743 0.23024 0.0
C1024 C 0.19436 0.42602 0.22934 0.0
C1025 C 0.1966 0.41196 0.21276 0.0
C1026 C 0.20839 0.42351 0.24563 0.0
C1027 C 0.22497 0.40689 0.24574 0.0
C1028 C 0.22615 0.39173 0.22986 0.0
H1029 H 0.30585 0.4062 0.35511 0.0
H1030 H 0.28597 0.3905 0.32654 0.0
C1031 C 0.21213 0.39426 0.21348 0.0
C1032 C 0.24184 0.40682 0.26186 0.0
H1033 H 0.29698 0.41832 0.27145 0.0
C1034 C 0.23432 0.40507 0.2814 0.0
C1035 C 0.26484 0.41121 0.25823 0.0
C1036 C 0.27386 0.41408 0.23761 0.0
C1037 C 0.24891 0.40858 0.29739 0.0
C1038 C 0.27179 0.41358 0.29374 0.0
C1039 C 0.2795 0.41431 0.27421 0.0
C1040 C 0.28709 0.42126 0.30973 0.0
C1041 C 0.23939 0.40828 0.31799 0.0
C1042 C 0.29559 0.44327 0.30928 0.0
C1043 C 0.30714 0.45216 0.32542 0.0
C1044 C 0.31053 0.43924 0.3424 0.0
C1045 C 0.30356 0.41661 0.34226 0.0
C1046 C 0.29194 0.40769 0.32603 0.0
H1047 H 0.22077 0.40808 0.31804 0.0
H1048 H 0.24522 0.39301 0.32569 0.0
H1049 H 0.24525 0.42315 0.32651 0.0
H1050 H 0.29222 0.45403 0.29683 0.0
H1051 H 0.31238 0.46959 0.32498 0.0
H1052 H 0.14727 0.17029 0.71594 0.0
H1053 H 0.15019 0.18669 0.74928 0.0
H1054 H 0.09646 0.23214 0.73582 0.0
H1055 H 0.09316 0.21586 0.70319 0.0
H1056 H 0.1599 0.23062 0.75994 0.0
H1057 H 0.07595 0.20822 0.7882 0.0
H1058 H 0.0877 0.19524 0.76646 0.0
H1059 H 0.07406 0.22209 0.76492 0.0
C1060 C 0.13588 0.18353 0.72026 0.0
C1061 C 0.11994 0.19164 0.70686 0.0
C1062 C 0.1376 0.19294 0.73927 0.0
C1063 C 0.12324 0.2104 0.74524 0.0
C1064 C 0.10733 0.21833 0.73186 0.0
H1065 H 0.10963 0.31521 0.8313 0.0
H1066 H 0.10787 0.28914 0.80325 0.0
C1067 C 0.10562 0.20903 0.71304 0.0
C1068 C 0.12538 0.22154 0.76489 0.0
H1069 H 0.09428 0.23965 0.80421 0.0
C1070 C 0.14569 0.23221 0.76981 0.0
C1071 C 0.10684 0.22368 0.77784 0.0
C1072 C 0.085 0.21148 0.77418 0.0
C1073 C 0.14757 0.24587 0.78674 0.0
C1074 C 0.1287 0.24887 0.7991 0.0
C1075 C 0.10866 0.23755 0.7946 0.0
C1076 C 0.12927 0.26423 0.81644 0.0
C1077 C 0.16944 0.25777 0.79092 0.0
C1078 C 0.14156 0.25869 0.83329 0.0
C1079 C 0.14244 0.27345 0.84941 0.0
C1080 C 0.13114 0.29415 0.84898 0.0
C1081 C 0.11855 0.29947 0.83215 0.0
C1082 C 0.11753 0.28459 0.8161 0.0
H1083 H 0.18156 0.25606 0.77857 0.0
H1084 H 0.16648 0.27589 0.79377 0.0
H1085 H 0.17712 0.2506 0.80434 0.0
H1086 H 0.15056 0.24298 0.83394 0.0
H1087 H 0.15232 0.26877 0.86208 0.0
H1088 H 0.69627 0.90169 0.83225 0.0
H1089 H 0.71249 0.89302 0.79985 0.0
H1090 H 0.73151 0.96246 0.793 0.0
H1091 H 0.71523 0.97127 0.82508 0.0
H1092 H 0.71566 0.9424 0.75783 0.0
H1093 H 0.78134 0.89123 0.79402 0.0
H1094 H 0.75285 0.88301 0.79889 0.0
H1095 H 0.76306 0.90963 0.80771 0.0
C1096 C 0.70342 0.91519 0.82363 0.0
C1097 C 0.7046 0.93715 0.83134 0.0
C1098 C 0.71288 0.91018 0.80519 0.0
C1099 C 0.72362 0.92702 0.79416 0.0
C1100 C 0.72345 0.94916 0.80127 0.0
H1101 H 0.83201 0.92249 0.71074 0.0
H1102 H 0.8064 0.92831 0.73839 0.0
C1103 C 0.71412 0.95416 0.81966 0.0
C1104 C 0.73648 0.92161 0.77594 0.0
H1105 H 0.78363 0.89493 0.75964 0.0
C1106 C 0.73039 0.93183 0.75816 0.0
C1107 C 0.75593 0.90812 0.77646 0.0
C1108 C 0.76389 0.89747 0.79529 0.0
C1109 C 0.74331 0.92907 0.74095 0.0
C1110 C 0.76275 0.91559 0.74149 0.0
C1111 C 0.76868 0.90518 0.75922 0.0
C1112 C 0.7778 0.91283 0.72413 0.0
C1113 C 0.7365 0.94125 0.72251 0.0
C1114 C 0.77025 0.90224 0.70682 0.0
C1115 C 0.78489 0.89888 0.69091 0.0
C1116 C 0.80741 0.90599 0.692 0.0
C1117 C 0.8148 0.91684 0.7093 0.0
C1118 C 0.80018 0.92013 0.72518 0.0
H1119 H 0.72407 0.95462 0.72561 0.0
H1120 H 0.75133 0.94891 0.71522 0.0
H1121 H 0.72883 0.92909 0.71204 0.0
H1122 H 0.75316 0.89613 0.70577 0.0
H1123 H 0.77863 0.89036 0.67789 0.0
H1124 H 0.60652 0.70616 0.34386 0.0
H1125 H 0.61529 0.71919 0.31041 0.0
H1126 H 0.54732 0.74222 0.30392 0.0
H1127 H 0.53834 0.72863 0.33666 0.0
H1128 H 0.56212 0.72561 0.26989 0.0
H1129 H 0.62558 0.78496 0.30048 0.0
H1130 H 0.63111 0.75578 0.30464 0.0
H1131 H 0.6072 0.76875 0.31603 0.0
C1132 C 0.59336 0.71351 0.33509 0.0
C1133 C 0.57181 0.7166 0.34307 0.0
C1134 C 0.59844 0.72121 0.31605 0.0
C1135 C 0.58212 0.73229 0.30477 0.0
C1136 C 0.56028 0.73392 0.31228 0.0
H1137 H 0.59167 0.84181 0.22573 0.0
H1138 H 0.58723 0.81483 0.2523 0.0
C1139 C 0.55519 0.72617 0.33112 0.0
C1140 C 0.58765 0.74374 0.28584 0.0
H1141 H 0.61794 0.78743 0.2668 0.0
C1142 C 0.57451 0.73897 0.26913 0.0
C1143 C 0.60365 0.76138 0.28487 0.0
C1144 C 0.61759 0.76822 0.30246 0.0
C1145 C 0.57628 0.75183 0.25184 0.0
C1146 C 0.59205 0.76966 0.25101 0.0
C1147 C 0.60584 0.77379 0.26741 0.0
C1148 C 0.59333 0.78555 0.23409 0.0
C1149 C 0.56041 0.74693 0.23507 0.0
C1150 C 0.59785 0.77818 0.21477 0.0
C1151 C 0.60003 0.7937 0.19935 0.0
C1152 C 0.59813 0.81687 0.20307 0.0
C1153 C 0.59327 0.82409 0.22234 0.0
C1154 C 0.59082 0.80865 0.2376 0.0
H1155 H 0.54596 0.73641 0.2398 0.0
H1156 H 0.55388 0.76272 0.2287 0.0
H1157 H 0.56948 0.73769 0.22332 0.0
H1158 H 0.60033 0.76052 0.21168 0.0
H1159 H 0.6041 0.78763 0.18473 0.0
H1160 H 0.79086 0.63417 0.86173 0.0
H1161 H 0.7654 0.62903 0.83381 0.0
H1162 H 0.81779 0.59588 0.80119 0.0
H1163 H 0.84344 0.6012 0.82888 0.0
H1164 H 0.79638 0.62835 0.77937 0.0
H1165 H 0.73392 0.572 0.81472 0.0
H1166 H 0.73913 0.5979 0.82763 0.0
H1167 H 0.76111 0.57756 0.82533 0.0
C1168 C 0.79693 0.62555 0.84871 0.0
C1169 C 0.81924 0.61803 0.84765 0.0
C1170 C 0.78229 0.62257 0.83275 0.0
C1171 C 0.78956 0.61186 0.81541 0.0
C1172 C 0.81175 0.60417 0.81439 0.0
H1173 H 0.72338 0.5512 0.71749 0.0
H1174 H 0.74023 0.56156 0.74892 0.0
C1175 C 0.82639 0.60715 0.83031 0.0
C1176 C 0.7744 0.60921 0.79807 0.0
H1177 H 0.72591 0.58396 0.78241 0.0
C1178 C 0.7809 0.61876 0.78006 0.0
C1179 C 0.75421 0.59662 0.79893 0.0
C1180 C 0.74669 0.58525 0.81762 0.0
C1181 C 0.76805 0.61577 0.76287 0.0
C1182 C 0.74788 0.60314 0.76371 0.0
C1183 C 0.74119 0.59388 0.7818 0.0
C1184 C 0.73494 0.59722 0.74559 0.0
C1185 C 0.7767 0.62534 0.74376 0.0
C1186 C 0.72547 0.61373 0.73346 0.0
C1187 C 0.71565 0.6078 0.71533 0.0
C1188 C 0.7152 0.58525 0.70906 0.0
C1189 C 0.72354 0.56874 0.7218 0.0
C1190 C 0.7332 0.57464 0.73983 0.0
H1191 H 0.79448 0.63083 0.74489 0.0
H1192 H 0.77526 0.61278 0.73168 0.0
H1193 H 0.76652 0.64014 0.73973 0.0
H1194 H 0.72625 0.63126 0.73773 0.0
H1195 H 0.70949 0.62092 0.70583 0.0
H1196 H 0.88015 0.82635 0.33461 0.0
H1197 H 0.88511 0.79882 0.30809 0.0
H1198 H 0.95386 0.82002 0.30114 0.0
H1199 H 0.94897 0.84783 0.32738 0.0
H1200 H 0.93219 0.81631 0.26567 0.0
H1201 H 0.91815 0.73946 0.30981 0.0
H1202 H 0.89567 0.75928 0.31145 0.0
H1203 H 0.92286 0.76664 0.32096 0.0
C1204 C 0.8964 0.82503 0.32758 0.0
C1205 C 0.91418 0.83928 0.33324 0.0
C1206 C 0.89923 0.8092 0.31244 0.0
C1207 C 0.91994 0.80712 0.30273 0.0
C1208 C 0.93773 0.82126 0.30841 0.0
H1209 H 0.96013 0.69482 0.22928 0.0
H1210 H 0.95712 0.72444 0.25411 0.0
C1211 C 0.93491 0.83711 0.3235 0.0
C1212 C 0.92299 0.7906 0.28637 0.0
H1213 H 0.92014 0.73467 0.27516 0.0
C1214 C 0.9296 0.79845 0.26775 0.0
C1215 C 0.91988 0.76725 0.28911 0.0
C1216 C 0.91396 0.75758 0.30894 0.0
C1217 C 0.93296 0.78365 0.25179 0.0
C1218 C 0.92926 0.76036 0.2544 0.0
C1219 C 0.92283 0.75252 0.27307 0.0
C1220 C 0.93246 0.74364 0.23821 0.0
C1221 C 0.94092 0.79306 0.23241 0.0
C1222 C 0.9199 0.74469 0.22073 0.0
C1223 C 0.92175 0.72779 0.20634 0.0
C1224 C 0.93601 0.70937 0.20926 0.0
C1225 C 0.94899 0.70874 0.22652 0.0
C1226 C 0.94723 0.72565 0.2408 0.0
H1227 H 0.94872 0.80992 0.23428 0.0
H1228 H 0.95328 0.78173 0.22529 0.0
H1229 H 0.92639 0.79478 0.22238 0.0
H1230 H 0.90805 0.75813 0.21851 0.0
H1231 H 0.9113 0.72866 0.19335 0.0
H1232 H 0.43648 0.06743 0.14095 0.0
H1233 H 0.46122 0.03515 0.13576 0.0
H1234 H 0.46365 0.02445 0.19843 0.0
H1235 H 0.43868 0.05619 0.20367 0.0
H1236 H 0.50464 0.0303 0.15024 0.0
H1237 H 0.45009 0.96147 0.17715 0.0
H1238 H 0.43937 0.98879 0.17084 0.0
H1239 H 0.45243 0.98436 0.19434 0.0
C1240 C 0.44199 0.05797 0.15358 0.0
C1241 C 0.43563 0.06449 0.17273 0.0
C1242 C 0.45621 0.03959 0.15061 0.0
C1243 C 0.46406 0.02717 0.16669 0.0
C1244 C 0.4575 0.03348 0.18577 0.0
H1245 H 0.58282 0.95 0.18329 0.0
H1246 H 0.55256 0.9773 0.18252 0.0
C1247 C 0.44343 0.05186 0.18875 0.0
C1248 C 0.48024 1.00854 0.1638 0.0
H1249 H 0.48937 0.95336 0.17469 0.0
C1250 C 0.50119 1.01341 0.15536 0.0
C1251 C 0.47568 0.98642 0.17027 0.0
C1252 C 0.45309 0.97984 0.17848 0.0
C1253 C 0.51801 0.99706 0.15403 0.0
C1254 C 0.51389 0.97531 0.16155 0.0
C1255 C 0.49261 0.97012 0.16915 0.0
C1256 C 0.53182 0.95813 0.1624 0.0
C1257 C 0.54015 1.00326 0.14473 0.0
C1258 C 0.52992 0.93786 0.15185 0.0
C1259 C 0.54733 0.92214 0.1522 0.0
C1260 C 0.56691 0.92635 0.16322 0.0
C1261 C 0.5683 0.94637 0.17428 0.0
C1262 C 0.55097 0.96203 0.17388 0.0
H1263 H 0.53861 1.01814 0.13504 0.0
H1264 H 0.55241 1.00744 0.15648 0.0
H1265 H 0.54693 0.98906 0.13593 0.0
H1266 H 0.5152 0.93444 0.14299 0.0
H1267 H 0.5457 0.90702 0.14341 0.0
H1268 H 0.66912 0.48699 0.61637 0.0
H1269 H 0.63878 0.45919 0.61605 0.0
H1270 H 0.6128 0.48723 0.67012 0.0
H1271 H 0.6426 0.51572 0.66987 0.0
H1272 H 0.62828 0.42676 0.63865 0.0
H1273 H 0.55629 0.4847 0.64014 0.0
H1274 H 0.58462 0.49447 0.63651 0.0
H1275 H 0.57421 0.48904 0.66097 0.0
C1276 C 0.65686 0.48727 0.62813 0.0
C1277 C 0.65818 0.50364 0.64308 0.0
C1278 C 0.63947 0.47136 0.62795 0.0
C1279 C 0.62306 0.47121 0.64285 0.0
C1280 C 0.62465 0.48732 0.65804 0.0
H1281 H 0.53918 0.35212 0.66431 0.0
H1282 H 0.5687 0.38084 0.66466 0.0
C1283 C 0.64181 0.50355 0.65799 0.0
C1284 C 0.60483 0.45376 0.6427 0.0
H1285 H 0.54809 0.44618 0.64645 0.0
C1286 C 0.61074 0.43109 0.64023 0.0
C1287 C 0.5818 0.45921 0.64442 0.0
C1288 C 0.57383 0.48319 0.64543 0.0
C1289 C 0.59448 0.41386 0.63957 0.0
C1290 C 0.57154 0.4192 0.64231 0.0
C1291 C 0.56561 0.44189 0.6446 0.0
C1292 C 0.5534 0.40168 0.64242 0.0
C1293 C 0.60216 0.39023 0.6353 0.0
C1294 C 0.53431 0.40407 0.63049 0.0
C1295 C 0.51712 0.38792 0.6307 0.0
C1296 C 0.51869 0.36882 0.64267 0.0
C1297 C 0.5377 0.36643 0.65465 0.0
C1298 C 0.55468 0.38282 0.65476 0.0
H1299 H 0.61834 0.39014 0.62719 0.0
H1300 H 0.60479 0.38132 0.6494 0.0
H1301 H 0.5896 0.38076 0.62647 0.0
H1302 H 0.53274 0.41841 0.62087 0.0
H1303 H 0.50271 0.39019 0.62127 0.0
H1304 H 0.11848 0.4723 0.13693 0.0
H1305 H 0.08503 0.49577 0.13902 0.0
H1306 H 0.12048 0.54234 0.17674 0.0
H1307 H 0.15404 0.51911 0.17444 0.0
H1308 H 0.0601 0.50687 0.17004 0.0
H1309 H 0.09433 0.5847 0.1372 0.0
H1310 H 0.10891 0.55828 0.13591 0.0
H1311 H 0.11051 0.5754 0.1578 0.0
C1312 C 0.11915 0.48756 0.14564 0.0
C1313 C 0.13897 0.49387 0.15545 0.0
C1314 C 0.10004 0.50101 0.14677 0.0
C1315 C 0.10028 0.52107 0.15776 0.0
C1316 C 0.12001 0.52732 0.16769 0.0
H1317 H 0.98253 0.5885 0.20385 0.0
H1318 H 1.01645 0.56641 0.19882 0.0
C1319 C 0.13919 0.51397 0.16642 0.0
C1320 C 0.07962 0.53487 0.15951 0.0
H1321 H 0.05921 0.58795 0.15389 0.0
C1322 C 0.05989 0.52457 0.16638 0.0
C1323 C 0.07918 0.5579 0.15445 0.0
C1324 C 0.0993 0.56967 0.14573 0.0
C1325 C 0.03994 0.53671 0.16874 0.0
C1326 C 0.03979 0.55999 0.16462 0.0
C1327 C 0.05937 0.57019 0.15731 0.0
C1328 C 0.01951 0.57401 0.1678 0.0
C1329 C 1.01912 0.52432 0.17532 0.0
C1330 C 1.01036 0.58642 0.15226 0.0
C1331 C 0.99106 0.59931 0.15518 0.0
C1332 C 0.98049 0.60002 0.1737 0.0
C1333 C 0.98997 0.58795 0.18932 0.0
C1334 C 1.00935 0.57525 0.18644 0.0
H1335 H 0.02021 0.50608 0.17199 0.0
H1336 H 1.01718 0.52627 0.19148 0.0
H1337 H 1.00391 0.53107 0.16811 0.0
H1338 H 1.01796 0.58585 0.13777 0.0
H1339 H 0.98411 0.60829 0.14282 0.0
H1340 H 0.93178 0.95912 0.63523 0.0
H1341 H 0.95606 0.99177 0.62904 0.0
H1342 H 0.96221 1.00293 0.69158 0.0
H1343 H 0.93838 0.97031 0.69779 0.0
H1344 H 0.95298 0.03588 0.63786 0.0
H1345 H 0.02707 1.00143 0.67575 0.0
H1346 H 1.00272 0.98452 0.67012 0.0
H1347 H 1.00301 1.00244 0.69157 0.0
C1348 C 0.93826 0.96859 0.64764 0.0
C1349 C 0.93337 0.96186 0.66701 0.0
C1350 C 0.9522 0.98723 0.64409 0.0
C1351 C 0.9615 0.99956 0.65984 0.0
C1352 C 0.95593 0.99333 0.67916 0.0
H1353 H 0.01952 0.13434 0.65621 0.0
H1354 H 0.99469 0.10164 0.65871 0.0
C1355 C 0.94221 0.97464 0.6827 0.0
C1356 C 0.97689 1.019 0.6562 0.0
H1357 H 0.02834 0.04052 0.66834 0.0
C1358 C 0.96952 0.03682 0.64442 0.0
C1359 C 0.9987 1.02017 0.66442 0.0
C1360 C 1.00845 1.00101 0.67599 0.0
C1361 C 0.98303 0.05591 0.6411 0.0
C1362 C 1.00436 0.05758 0.65019 0.0
C1363 C 1.01193 0.0395 0.66154 0.0
C1364 C 1.01921 0.07777 0.64811 0.0
C1365 C 0.97442 0.0739 0.62757 0.0
C1366 C 0.04155 0.07537 0.64184 0.0
C1367 C 0.05588 0.09405 0.64068 0.0
C1368 C 0.04824 0.11564 0.64572 0.0
C1369 C 0.02585 0.11805 0.6519 0.0
C1370 C 1.01158 0.09932 0.65325 0.0
H1371 H 0.96172 0.06709 0.61715 0.0
H1372 H 0.96626 0.08722 0.63648 0.0
H1373 H 0.98824 0.08164 0.61895 0.0
H1374 H 0.04794 0.05899 0.63782 0.0
H1375 H 0.07293 0.09159 0.63569 0.0
H1376 H 0.51671 0.64068 0.41012 0.0
H1377 H 0.48752 0.61164 0.40788 0.0
H1378 H 0.43688 0.66284 0.40556 0.0
H1379 H 0.46595 0.69195 0.40764 0.0
H1380 H 0.44886 0.60653 0.435 0.0
H1381 H 0.42399 0.62032 0.35719 0.0
H1382 H 0.45071 0.62953 0.36688 0.0
H1383 H 0.42575 0.64495 0.37257 0.0
C1384 C 0.4994 0.64578 0.40891 0.0
C1385 C 0.49371 0.66868 0.40902 0.0
C1386 C 0.48272 0.62915 0.40774 0.0
C1387 C 0.46004 0.63507 0.40637 0.0
C1388 C 0.45429 0.65788 0.4064 0.0
H1389 H 0.33431 0.56185 0.39493 0.0
H1390 H 0.36403 0.59001 0.3966 0.0
C1391 C 0.47092 0.67451 0.40775 0.0
C1392 C 0.44232 0.61741 0.40544 0.0
H1393 H 0.40183 0.59497 0.37561 0.0
C1394 C 0.43863 0.60389 0.422 0.0
C1395 C 0.42891 0.61413 0.38852 0.0
C1396 C 0.43254 0.62785 0.37018 0.0
C1397 C 0.42157 0.58748 0.42224 0.0
C1398 C 0.40821 0.58402 0.40523 0.0
C1399 C 0.41202 0.59755 0.38864 0.0
C1400 C 0.39011 0.56663 0.40437 0.0
C1401 C 0.4176 0.57452 0.44096 0.0
C1402 C 0.39478 0.54394 0.40793 0.0
C1403 C 0.37769 0.52772 0.40729 0.0
C1404 C 0.35546 0.53371 0.40277 0.0
C1405 C 0.35098 0.55645 0.3988 0.0
C1406 C 0.36807 0.57266 0.39959 0.0
H1407 H 0.42436 0.58361 0.45402 0.0
H1408 H 0.39946 0.57129 0.44338 0.0
H1409 H 0.42628 0.55814 0.43993 0.0
H1410 H 0.41172 0.53869 0.41115 0.0
H1411 H 0.38201 0.51055 0.41053 0.0
H1412 H 0.07364 0.42348 0.90051 0.0
H1413 H 0.04366 0.45134 0.90384 0.0
H1414 H 0.04284 0.45962 0.84085 0.0
H1415 H 0.07204 0.43154 0.83737 0.0
H1416 H 0.0436 0.4961 0.89281 0.0
H1417 H 0.97693 0.45026 0.85264 0.0
H1418 H 1.00213 0.43672 0.86101 0.0
H1419 H 1.00221 0.45244 0.83844 0.0
C1420 C 0.06684 0.43098 0.88735 0.0
C1421 C 0.07538 0.42518 0.86867 0.0
C1422 C 0.04977 0.44702 0.88929 0.0
C1423 C 0.04069 0.45739 0.87258 0.0
C1424 C 0.04918 0.45158 0.85396 0.0
H1425 H 0.95693 0.56548 0.8375 0.0
H1426 H 0.98178 0.53345 0.84139 0.0
C1427 C 0.06617 0.43566 0.85202 0.0
C1428 C 0.02302 0.47494 0.87439 0.0
H1429 H 0.97172 0.49001 0.85654 0.0
C1430 C 0.02772 0.49462 0.88516 0.0
C1431 C 1.00222 0.47304 0.86447 0.0
C1432 C 0.99545 0.45187 0.85366 0.0
C1433 C 1.01276 0.51285 0.8854 0.0
C1434 C 0.99241 0.51128 0.87477 0.0
C1435 C 0.98736 0.49129 0.8646 0.0
C1436 C 0.97688 0.53067 0.87282 0.0
C1437 C 1.01928 0.53405 0.89626 0.0
C1438 C 0.96551 0.53969 0.88918 0.0
C1439 C 0.9512 0.55817 0.887 0.0
C1440 C 0.94806 0.56805 0.86842 0.0
C1441 C 0.95922 0.55866 0.85208 0.0
C1442 C 0.97336 0.54019 0.85425 0.0
H1443 H 0.03717 0.53401 0.90079 0.0
H1444 H 1.01628 0.549 0.88695 0.0
H1445 H 1.00882 0.53571 0.9097 0.0
H1446 H 0.96769 0.53244 0.90363 0.0
H1447 H 0.94295 0.56497 0.89989 0.0
H1448 H 0.94617 0.9662 0.33588 0.0
H1449 H 0.97737 0.99172 0.34232 0.0
H1450 H 0.97818 0.97139 0.40308 0.0
H1451 H 0.94652 0.946 0.39692 0.0
H1452 H 0.97946 0.0281 0.37095 0.0
H1453 H 0.04397 0.96246 0.3831 0.0
H1454 H 1.01776 0.95648 0.37083 0.0
H1455 H 1.01838 0.96025 0.39704 0.0
C1456 C 0.9527 0.9672 0.35069 0.0
C1457 C 0.9436 0.95392 0.36586 0.0
C1458 C 0.97069 0.98179 0.35432 0.0
C1459 C 0.98021 0.98337 0.37313 0.0
C1460 C 0.97128 0.97023 0.38837 0.0
H1461 H 0.08062 0.08959 0.40016 0.0
H1462 H 0.04893 0.06331 0.4044 0.0
C1463 C 0.95317 0.95565 0.38478 0.0
C1464 C 0.99944 0.99889 0.37658 0.0
H1465 H 0.05599 1.00013 0.3846 0.0
C1466 C 0.99615 0.02204 0.37421 0.0
C1467 C 0.02121 0.99091 0.38071 0.0
C1468 C 0.02575 0.96617 0.38297 0.0
C1469 C 1.01413 0.03737 0.3754 0.0
C1470 C 0.03596 0.02934 0.37912 0.0
C1471 C 0.03919 1.00625 0.38194 0.0
C1472 C 0.05592 0.04432 0.37785 0.0
C1473 C 1.00986 0.06193 0.37177 0.0
C1474 C 0.0706 0.04201 0.36185 0.0
C1475 C 0.08849 0.05694 0.3594 0.0
C1476 C 0.09228 0.07447 0.37298 0.0
C1477 C 0.07811 0.07625 0.38949 0.0
C1478 C 0.05998 0.06135 0.39185 0.0
H1479 H 0.99243 0.06507 0.36681 0.0
H1480 H 1.01279 0.07156 0.38557 0.0
H1481 H 0.02165 0.06845 0.36047 0.0
H1482 H 0.06785 0.02895 0.35093 0.0
H1483 H 0.09931 0.05487 0.34672 0.0
H1484 H 0.65296 1.01645 0.9361 0.0
H1485 H 0.62461 0.04583 0.93548 0.0
H1486 H 0.62018 0.03934 0.87232 0.0
H1487 H 0.64814 1.00932 0.87301 0.0
H1488 H 0.62467 0.08555 0.9199 0.0
H1489 H 0.55522 0.03716 0.88586 0.0
H1490 H 0.58053 0.02398 0.89433 0.0
H1491 H 0.57988 0.03762 0.87074 0.0
C1492 C 0.64595 0.02127 0.92207 0.0
C1493 C 0.65279 1.01053 0.90459 0.0
C1494 C 0.62966 0.03806 0.92173 0.0
C1495 C 0.61988 0.04469 0.90389 0.0
C1496 C 0.6269 0.03416 0.88635 0.0
H1497 H 0.54912 0.17271 0.89381 0.0
H1498 H 0.57664 0.14244 0.89231 0.0
C1499 C 0.64299 1.01708 0.88673 0.0
C1500 C 0.60294 0.06309 0.90379 0.0
H1501 H 0.54999 0.07659 0.88887 0.0
C1502 C 0.60832 0.08352 0.91316 0.0
C1503 C 0.5814 0.06046 0.89527 0.0
C1504 C 0.5738 0.03855 0.88617 0.0
C1505 C 0.59295 0.1013 0.91421 0.0
C1506 C 0.57175 0.099 0.90502 0.0
C1507 C 0.5663 0.07853 0.89573 0.0
C1508 C 0.5548 0.11738 0.90528 0.0
C1509 C 0.59943 0.12208 0.92573 0.0
C1510 C 0.53297 0.11331 0.91229 0.0
C1511 C 0.51708 0.13053 0.91281 0.0
C1512 C 0.52269 0.15228 0.90644 0.0
C1513 C 0.54443 0.15627 0.89918 0.0
C1514 C 0.56021 0.13896 0.89839 0.0
H1515 H 0.61271 0.11849 0.9367 0.0
H1516 H 0.60613 0.1349 0.91547 0.0
H1517 H 0.58479 0.12928 0.9336 0.0
H1518 H 0.52829 0.09683 0.91763 0.0
H1519 H 0.50054 0.12695 0.91859 0.0
loop_
_geom_bond_atom_site_label_1
_geom_bond_atom_site_label_2
_geom_bond_distance
_geom_bond_site_symmetry_2
_ccdc_geom_bond_type
Cu0 N1 1.999 . S
Cu0 O6 1.974 . S
Cu0 N11 1.985 . S
Cu0 O20 1.959 . S
N1 Cu0 1.999 . S
N1 C3 1.263 . S
N1 C5 1.389 . S
N2 C3 1.358 . S
N2 C4 1.400 . S
C3 N1 1.263 . S
C3 N2 1.358 . S
C3 H9 0.930 . S
C4 N2 1.400 . S
C4 C5 1.351 . S
C4 H21 0.930 . S
C5 N1 1.389 . S
C5 C4 1.351 . S
C5 H10 0.930 . S
O6 Cu0 1.974 . S
O6 C16 1.282 . S
C7 O8 1.261 . S
C7 O20 1.251 . S
O8 C7 1.261 . S
H9 C3 0.930 . S
H10 C5 0.930 . S
N11 Cu0 1.985 . S
N11 C13 1.335 . S
N11 C14 1.390 . S
N12 C13 1.345 . S
N12 C15 1.336 . S
C13 N11 1.335 . S
C13 N12 1.345 . S
C13 H18 0.930 . S
C14 N11 1.390 . S
C14 C15 1.346 . S
C14 H19 0.930 . S
C15 N12 1.336 . S
C15 C14 1.346 . S
C15 H22 0.929 . S
C16 O6 1.282 . S
C16 O17 1.216 . S
O17 C16 1.216 . S
H18 C13 0.930 . S
H19 C14 0.930 . S
O20 Cu0 1.959 . S
O20 C7 1.251 . S
H21 C4 0.930 . S
H22 C15 0.929 . S
Cu23 N24 1.999 . S
Cu23 O29 1.974 . S
Cu23 N34 1.985 . S
Cu23 O43 1.959 . S
N24 Cu23 1.999 . S
N24 C26 1.263 . S
N24 C28 1.389 . S
N25 C26 1.358 . S
N25 C27 1.400 . S
C26 N24 1.263 . S
C26 N25 1.358 . S
C26 H32 0.930 . S
C27 N25 1.400 . S
C27 C28 1.351 . S
C27 H44 0.930 . S
C28 N24 1.389 . S
C28 C27 1.351 . S
C28 H33 0.930 . S
O29 Cu23 1.974 . S
O29 C39 1.282 . S
C30 O31 1.261 . S
C30 O43 1.251 . S
O31 C30 1.261 . S
H32 C26 0.930 . S
H33 C28 0.930 . S
N34 Cu23 1.985 . S
N34 C36 1.335 . S
N34 C37 1.390 . S
N35 C36 1.345 . S
N35 C38 1.336 . S
C36 N34 1.335 . S
C36 N35 1.345 . S
C36 H41 0.930 . S
C37 N34 1.390 . S
C37 C38 1.346 . S
C37 H42 0.930 . S
C38 N35 1.336 . S
C38 C37 1.346 . S
C38 H45 0.929 . S
C39 O29 1.282 . S
C39 O40 1.216 . S
O40 C39 1.216 . S
H41 C36 0.930 . S
H42 C37 0.930 . S
O43 Cu23 1.959 . S
O43 C30 1.251 . S
H44 C27 0.930 . S
H45 C38 0.929 . S
Cu46 N47 1.999 . S
Cu46 O52 1.974 . S
Cu46 N57 1.985 . S
Cu46 O66 1.959 . S
N47 Cu46 1.999 . S
N47 C49 1.263 . S
N47 C51 1.389 . S
N48 C49 1.358 . S
N48 C50 1.400 . S
C49 N47 1.263 . S
C49 N48 1.358 . S
C49 H55 0.930 . S
C50 N48 1.400 . S
C50 C51 1.351 . S
C50 H67 0.930 . S
C51 N47 1.389 . S
C51 C50 1.351 . S
C51 H56 0.930 . S
O52 Cu46 1.974 . S
O52 C62 1.282 . S
C53 O54 1.261 . S
C53 O66 1.251 . S
O54 C53 1.261 . S
H55 C49 0.930 . S
H56 C51 0.930 . S
N57 Cu46 1.985 . S
N57 C59 1.335 . S
N57 C60 1.390 . S
N58 C59 1.345 . S
N58 C61 1.336 . S
C59 N57 1.335 . S
C59 N58 1.345 . S
C59 H64 0.930 . S
C60 N57 1.390 . S
C60 C61 1.346 . S
C60 H65 0.930 . S
C61 N58 1.336 . S
C61 C60 1.346 . S
C61 H68 0.929 . S
C62 O52 1.282 . S
C62 O63 1.216 . S
O63 C62 1.216 . S
H64 C59 0.930 . S
H65 C60 0.930 . S
O66 Cu46 1.959 . S
O66 C53 1.251 . S
H67 C50 0.930 . S
H68 C61 0.929 . S
Cu69 N70 1.999 . S
Cu69 O75 1.974 . S
Cu69 N80 1.985 . S
Cu69 O89 1.959 . S
N70 Cu69 1.999 . S
N70 C72 1.263 . S
N70 C74 1.389 . S
N71 C72 1.358 . S
N71 C73 1.400 . S
C72 N70 1.263 . S
C72 N71 1.358 . S
C72 H78 0.930 . S
C73 N71 1.400 . S
C73 C74 1.351 . S
C73 H90 0.930 . S
C74 N70 1.389 . S
C74 C73 1.351 . S
C74 H79 0.930 . S
O75 Cu69 1.974 . S
O75 C85 1.282 . S
C76 O77 1.261 . S
C76 O89 1.251 . S
O77 C76 1.261 . S
H78 C72 0.930 . S
H79 C74 0.930 . S
N80 Cu69 1.985 . S
N80 C82 1.335 . S
N80 C83 1.390 . S
N81 C82 1.345 . S
N81 C84 1.336 . S
C82 N80 1.335 . S
C82 N81 1.345 . S
C82 H87 0.930 . S
C83 N80 1.390 . S
C83 C84 1.346 . S
C83 H88 0.930 . S
C84 N81 1.336 . S
C84 C83 1.346 . S
C84 H91 0.929 . S
C85 O75 1.282 . S
C85 O86 1.216 . S
O86 C85 1.216 . S
H87 C82 0.930 . S
H88 C83 0.930 . S
O89 Cu69 1.959 . S
O89 C76 1.251 . S
H90 C73 0.930 . S
H91 C84 0.929 . S
Cu92 N93 1.999 . S
Cu92 O98 1.974 . S
Cu92 N103 1.985 . S
Cu92 O112 1.959 . S
N93 Cu92 1.999 . S
N93 C95 1.263 . S
N93 C97 1.389 . S
N94 C95 1.358 . S
N94 C96 1.400 . S
C95 N93 1.263 . S
C95 N94 1.358 . S
C95 H101 0.930 . S
C96 N94 1.400 . S
C96 C97 1.351 . S
C96 H113 0.930 . S
C97 N93 1.389 . S
C97 C96 1.351 . S
C97 H102 0.930 . S
O98 Cu92 1.974 . S
O98 C108 1.282 . S
C99 O100 1.261 . S
C99 O112 1.251 . S
O100 C99 1.261 . S
H101 C95 0.930 . S
H102 C97 0.930 . S
N103 Cu92 1.985 . S
N103 C105 1.335 . S
N103 C106 1.390 . S
N104 C105 1.345 . S
N104 C107 1.336 . S
C105 N103 1.335 . S
C105 N104 1.345 . S
C105 H110 0.930 . S
C106 N103 1.390 . S
C106 C107 1.346 . S
C106 H111 0.930 . S
C107 N104 1.336 . S
C107 C106 1.346 . S
C107 H114 0.929 . S
C108 O98 1.282 . S
C108 O109 1.216 . S
O109 C108 1.216 . S
H110 C105 0.930 . S
H111 C106 0.930 . S
O112 Cu92 1.959 . S
O112 C99 1.251 . S
H113 C96 0.930 . S
H114 C107 0.929 . S
Cu115 N116 1.999 . S
Cu115 O121 1.974 . S
Cu115 N126 1.985 . S
Cu115 O135 1.959 . S
N116 Cu115 1.999 . S
N116 C118 1.263 . S
N116 C120 1.389 . S
N117 C118 1.358 . S
N117 C119 1.400 . S
C118 N116 1.263 . S
C118 N117 1.358 . S
C118 H124 0.930 . S
C119 N117 1.400 . S
C119 C120 1.351 . S
C119 H136 0.930 . S
C120 N116 1.389 . S
C120 C119 1.351 . S
C120 H125 0.930 . S
O121 Cu115 1.974 . S
O121 C131 1.282 . S
C122 O123 1.261 . S
C122 O135 1.251 . S
O123 C122 1.261 . S
H124 C118 0.930 . S
H125 C120 0.930 . S
N126 Cu115 1.985 . S
N126 C128 1.335 . S
N126 C129 1.390 . S
N127 C128 1.345 . S
N127 C130 1.336 . S
C128 N126 1.335 . S
C128 N127 1.345 . S
C128 H133 0.930 . S
C129 N126 1.390 . S
C129 C130 1.346 . S
C129 H134 0.930 . S
C130 N127 1.336 . S
C130 C129 1.346 . S
C130 H137 0.929 . S
C131 O121 1.282 . S
C131 O132 1.216 . S
O132 C131 1.216 . S
H133 C128 0.930 . S
H134 C129 0.930 . S
O135 Cu115 1.959 . S
O135 C122 1.251 . S
H136 C119 0.930 . S
H137 C130 0.929 . S
Cu138 N139 1.999 . S
Cu138 O144 1.974 . S
Cu138 N149 1.985 . S
Cu138 O158 1.959 . S
N139 Cu138 1.999 . S
N139 C141 1.263 . S
N139 C143 1.389 . S
N140 C141 1.358 . S
N140 C142 1.400 . S
C141 N139 1.263 . S
C141 N140 1.358 . S
C141 H147 0.930 . S
C142 N140 1.400 . S
C142 C143 1.351 . S
C142 H159 0.930 . S
C143 N139 1.389 . S
C143 C142 1.351 . S
C143 H148 0.930 . S
O144 Cu138 1.974 . S
O144 C154 1.282 . S
C145 O146 1.261 . S
C145 O158 1.251 . S
O146 C145 1.261 . S
H147 C141 0.930 . S
H148 C143 0.930 . S
N149 Cu138 1.985 . S
N149 C151 1.335 . S
N149 C152 1.390 . S
N150 C151 1.345 . S
N150 C153 1.336 . S
C151 N149 1.335 . S
C151 N150 1.345 . S
C151 H156 0.930 . S
C152 N149 1.390 . S
C152 C153 1.346 . S
C152 H157 0.930 . S
C153 N150 1.336 . S
C153 C152 1.346 . S
C153 H160 0.929 . S
C154 O144 1.282 . S
C154 O155 1.216 . S
O155 C154 1.216 . S
H156 C151 0.930 . S
H157 C152 0.930 . S
O158 Cu138 1.959 . S
O158 C145 1.251 . S
H159 C142 0.930 . S
H160 C153 0.929 . S
Cu161 N162 1.999 . S
Cu161 O167 1.974 . S
Cu161 N172 1.985 . S
Cu161 O181 1.959 . S
N162 Cu161 1.999 . S
N162 C164 1.263 . S
N162 C166 1.389 . S
N163 C164 1.358 . S
N163 C165 1.400 . S
C164 N162 1.263 . S
C164 N163 1.358 . S
C164 H170 0.930 . S
C165 N163 1.400 . S
C165 C166 1.351 . S
C165 H182 0.930 . S
C166 N162 1.389 . S
C166 C165 1.351 . S
C166 H171 0.930 . S
O167 Cu161 1.974 . S
O167 C177 1.282 . S
C168 O169 1.261 . S
C168 O181 1.251 . S
O169 C168 1.261 . S
H170 C164 0.930 . S
H171 C166 0.930 . S
N172 Cu161 1.985 . S
N172 C174 1.335 . S
N172 C175 1.390 . S
N173 C174 1.345 . S
N173 C176 1.336 . S
C174 N172 1.335 . S
C174 N173 1.345 . S
C174 H179 0.930 . S
C175 N172 1.390 . S
C175 C176 1.346 . S
C175 H180 0.930 . S
C176 N173 1.336 . S
C176 C175 1.346 . S
C176 H183 0.929 . S
C177 O167 1.282 . S
C177 O178 1.216 . S
O178 C177 1.216 . S
H179 C174 0.930 . S
H180 C175 0.930 . S
O181 Cu161 1.959 . S
O181 C168 1.251 . S
H182 C165 0.930 . S
H183 C176 0.929 . S
Cu184 N185 1.999 . S
Cu184 O190 1.974 . S
Cu184 N195 1.985 . S
Cu184 O204 1.959 . S
N185 Cu184 1.999 . S
N185 C187 1.263 . S
N185 C189 1.389 . S
N186 C187 1.358 . S
N186 C188 1.400 . S
C187 N185 1.263 . S
C187 N186 1.358 . S
C187 H193 0.930 . S
C188 N186 1.400 . S
C188 C189 1.351 . S
C188 H205 0.930 . S
C189 N185 1.389 . S
C189 C188 1.351 . S
C189 H194 0.930 . S
O190 Cu184 1.974 . S
O190 C200 1.282 . S
C191 O192 1.261 . S
C191 O204 1.251 . S
O192 C191 1.261 . S
H193 C187 0.930 . S
H194 C189 0.930 . S
N195 Cu184 1.985 . S
N195 C197 1.335 . S
N195 C198 1.390 . S
N196 C197 1.345 . S
N196 C199 1.336 . S
C197 N195 1.335 . S
C197 N196 1.345 . S
C197 H202 0.930 . S
C198 N195 1.390 . S
C198 C199 1.346 . S
C198 H203 0.930 . S
C199 N196 1.336 . S
C199 C198 1.346 . S
C199 H206 0.929 . S
C200 O190 1.282 . S
C200 O201 1.216 . S
O201 C200 1.216 . S
H202 C197 0.930 . S
H203 C198 0.930 . S
O204 Cu184 1.959 . S
O204 C191 1.251 . S
H205 C188 0.930 . S
H206 C199 0.929 . S
Cu207 N208 1.999 . S
Cu207 O213 1.974 . S
Cu207 N218 1.985 . S
Cu207 O227 1.959 . S
N208 Cu207 1.999 . S
N208 C210 1.263 . S
N208 C212 1.389 . S
N209 C210 1.358 . S
N209 C211 1.400 . S
C210 N208 1.263 . S
C210 N209 1.358 . S
C210 H216 0.930 . S
C211 N209 1.400 . S
C211 C212 1.351 . S
C211 H228 0.930 . S
C212 N208 1.389 . S
C212 C211 1.351 . S
C212 H217 0.930 . S
O213 Cu207 1.974 . S
O213 C223 1.282 . S
C214 O215 1.261 . S
C214 O227 1.251 . S
O215 C214 1.261 . S
H216 C210 0.930 . S
H217 C212 0.930 . S
N218 Cu207 1.985 . S
N218 C220 1.335 . S
N218 C221 1.390 . S
N219 C220 1.345 . S
N219 C222 1.336 . S
C220 N218 1.335 . S
C220 N219 1.345 . S
C220 H225 0.930 . S
C221 N218 1.390 . S
C221 C222 1.346 . S
C221 H226 0.930 . S
C222 N219 1.336 . S
C222 C221 1.346 . S
C222 H229 0.929 . S
C223 O213 1.282 . S
C223 O224 1.216 . S
O224 C223 1.216 . S
H225 C220 0.930 . S
H226 C221 0.930 . S
O227 Cu207 1.959 . S
O227 C214 1.251 . S
H228 C211 0.930 . S
H229 C222 0.929 . S
Cu230 N231 1.999 . S
Cu230 O236 1.974 . S
Cu230 N241 1.985 . S
Cu230 O250 1.959 . S
N231 Cu230 1.999 . S
N231 C233 1.263 . S
N231 C235 1.389 . S
N232 C233 1.358 . S
N232 C234 1.400 . S
C233 N231 1.263 . S
C233 N232 1.358 . S
C233 H239 0.930 . S
C234 N232 1.400 . S
C234 C235 1.351 . S
C234 H251 0.930 . S
C235 N231 1.389 . S
C235 C234 1.351 . S
C235 H240 0.930 . S
O236 Cu230 1.974 . S
O236 C246 1.282 . S
C237 O238 1.261 . S
C237 O250 1.251 . S
O238 C237 1.261 . S
H239 C233 0.930 . S
H240 C235 0.930 . S
N241 Cu230 1.985 . S
N241 C243 1.335 . S
N241 C244 1.390 . S
N242 C243 1.345 . S
N242 C245 1.336 . S
C243 N241 1.335 . S
C243 N242 1.345 . S
C243 H248 0.930 . S
C244 N241 1.390 . S
C244 C245 1.346 . S
C244 H249 0.930 . S
C245 N242 1.336 . S
C245 C244 1.346 . S
C245 H252 0.929 . S
C246 O236 1.282 . S
C246 O247 1.216 . S
O247 C246 1.216 . S
H248 C243 0.930 . S
H249 C244 0.930 . S
O250 Cu230 1.959 . S
O250 C237 1.251 . S
H251 C234 0.930 . S
H252 C245 0.929 . S
Cu253 N254 1.999 . S
Cu253 O259 1.974 . S
Cu253 N264 1.985 . S
Cu253 O273 1.959 . S
N254 Cu253 1.999 . S
N254 C256 1.263 . S
N254 C258 1.389 . S
N255 C256 1.358 . S
N255 C257 1.400 . S
C256 N254 1.263 . S
C256 N255 1.358 . S
C256 H262 0.930 . S
C257 N255 1.400 . S
C257 C258 1.351 . S
C257 H274 0.930 . S
C258 N254 1.389 . S
C258 C257 1.351 . S
C258 H263 0.930 . S
O259 Cu253 1.974 . S
O259 C269 1.282 . S
C260 O261 1.261 . S
C260 O273 1.251 . S
O261 C260 1.261 . S
H262 C256 0.930 . S
H263 C258 0.930 . S
N264 Cu253 1.985 . S
N264 C266 1.335 . S
N264 C267 1.390 . S
N265 C266 1.345 . S
N265 C268 1.336 . S
C266 N264 1.335 . S
C266 N265 1.345 . S
C266 H271 0.930 . S
C267 N264 1.390 . S
C267 C268 1.346 . S
C267 H272 0.930 . S
C268 N265 1.336 . S
C268 C267 1.346 . S
C268 H275 0.929 . S
C269 O259 1.282 . S
C269 O270 1.216 . S
O270 C269 1.216 . S
H271 C266 0.930 . S
H272 C267 0.930 . S
O273 Cu253 1.959 . S
O273 C260 1.251 . S
H274 C257 0.930 . S
H275 C268 0.929 . S
Cu276 N277 1.999 . S
Cu276 O282 1.974 . S
Cu276 N287 1.985 . S
Cu276 O296 1.959 . S
N277 Cu276 1.999 . S
N277 C279 1.263 . S
N277 C281 1.389 . S
N278 C279 1.358 . S
N278 C280 1.400 . S
C279 N277 1.263 . S
C279 N278 1.358 . S
C279 H285 0.930 . S
C280 N278 1.400 . S
C280 C281 1.351 . S
C280 H297 0.930 . S
C281 N277 1.389 . S
C281 C280 1.351 . S
C281 H286 0.930 . S
O282 Cu276 1.974 . S
O282 C292 1.282 . S
C283 O284 1.261 . S
C283 O296 1.251 . S
O284 C283 1.261 . S
H285 C279 0.930 . S
H286 C281 0.930 . S
N287 Cu276 1.985 . S
N287 C289 1.335 . S
N287 C290 1.390 . S
N288 C289 1.345 . S
N288 C291 1.336 . S
C289 N287 1.335 . S
C289 N288 1.345 . S
C289 H294 0.930 . S
C290 N287 1.390 . S
C290 C291 1.346 . S
C290 H295 0.930 . S
C291 N288 1.336 . S
C291 C290 1.346 . S
C291 H298 0.929 . S
C292 O282 1.282 . S
C292 O293 1.216 . S
O293 C292 1.216 . S
H294 C289 0.930 . S
H295 C290 0.930 . S
O296 Cu276 1.959 . S
O296 C283 1.251 . S
H297 C280 0.930 . S
H298 C291 0.929 . S
Cu299 N300 1.999 . S
Cu299 O305 1.974 . S
Cu299 N310 1.985 . S
Cu299 O319 1.959 . S
N300 Cu299 1.999 . S
N300 C302 1.263 . S
N300 C304 1.389 . S
N301 C302 1.358 . S
N301 C303 1.400 . S
C302 N300 1.263 . S
C302 N301 1.358 . S
C302 H308 0.930 . S
C303 N301 1.400 . S
C303 C304 1.351 . S
C303 H320 0.930 . S
C304 N300 1.389 . S
C304 C303 1.351 . S
C304 H309 0.930 . S
O305 Cu299 1.974 . S
O305 C315 1.282 . S
C306 O307 1.261 . S
C306 O319 1.251 . S
O307 C306 1.261 . S
H308 C302 0.930 . S
H309 C304 0.930 . S
N310 Cu299 1.985 . S
N310 C312 1.335 . S
N310 C313 1.390 . S
N311 C312 1.345 . S
N311 C314 1.336 . S
C312 N310 1.335 . S
C312 N311 1.345 . S
C312 H317 0.930 . S
C313 N310 1.390 . S
C313 C314 1.346 . S
C313 H318 0.930 . S
C314 N311 1.336 . S
C314 C313 1.346 . S
C314 H321 0.929 . S
C315 O305 1.282 . S
C315 O316 1.216 . S
O316 C315 1.216 . S
H317 C312 0.930 . S
H318 C313 0.930 . S
O319 Cu299 1.959 . S
O319 C306 1.251 . S
H320 C303 0.930 . S
H321 C314 0.929 . S
Cu322 N323 1.999 . S
Cu322 O328 1.974 . S
Cu322 N333 1.985 . S
Cu322 O342 1.959 . S
N323 Cu322 1.999 . S
N323 C325 1.263 . S
N323 C327 1.389 . S
N324 C325 1.358 . S
N324 C326 1.400 . S
C325 N323 1.263 . S
C325 N324 1.358 . S
C325 H331 0.930 . S
C326 N324 1.400 . S
C326 C327 1.351 . S
C326 H343 0.930 . S
C327 N323 1.389 . S
C327 C326 1.351 . S
C327 H332 0.930 . S
O328 Cu322 1.974 . S
O328 C338 1.282 . S
C329 O330 1.261 . S
C329 O342 1.251 . S
O330 C329 1.261 . S
H331 C325 0.930 . S
H332 C327 0.930 . S
N333 Cu322 1.985 . S
N333 C335 1.335 . S
N333 C336 1.390 . S
N334 C335 1.345 . S
N334 C337 1.336 . S
C335 N333 1.335 . S
C335 N334 1.345 . S
C335 H340 0.930 . S
C336 N333 1.390 . S
C336 C337 1.346 . S
C336 H341 0.930 . S
C337 N334 1.336 . S
C337 C336 1.346 . S
C337 H344 0.929 . S
C338 O328 1.282 . S
C338 O339 1.216 . S
O339 C338 1.216 . S
H340 C335 0.930 . S
H341 C336 0.930 . S
O342 Cu322 1.959 . S
O342 C329 1.251 . S
H343 C326 0.930 . S
H344 C337 0.929 . S
Cu345 N346 1.999 . S
Cu345 O351 1.974 . S
Cu345 N356 1.985 . S
Cu345 O365 1.959 . S
N346 Cu345 1.999 . S
N346 C348 1.263 . S
N346 C350 1.389 . S
N347 C348 1.358 . S
N347 C349 1.400 . S
C348 N346 1.263 . S
C348 N347 1.358 . S
C348 H354 0.930 . S
C349 N347 1.400 . S
C349 C350 1.351 . S
C349 H366 0.930 . S
C350 N346 1.389 . S
C350 C349 1.351 . S
C350 H355 0.930 . S
O351 Cu345 1.974 . S
O351 C361 1.282 . S
C352 O353 1.261 . S
C352 O365 1.251 . S
O353 C352 1.261 . S
H354 C348 0.930 . S
H355 C350 0.930 . S
N356 Cu345 1.985 . S
N356 C358 1.335 . S
N356 C359 1.390 . S
N357 C358 1.345 . S
N357 C360 1.336 . S
C358 N356 1.335 . S
C358 N357 1.345 . S
C358 H363 0.930 . S
C359 N356 1.390 . S
C359 C360 1.346 . S
C359 H364 0.930 . S
C360 N357 1.336 . S
C360 C359 1.346 . S
C360 H367 0.929 . S
C361 O351 1.282 . S
C361 O362 1.216 . S
O362 C361 1.216 . S
H363 C358 0.930 . S
H364 C359 0.930 . S
O365 Cu345 1.959 . S
O365 C352 1.251 . S
H366 C349 0.930 . S
H367 C360 0.929 . S
H368 C376 0.929 . S
H369 C378 0.930 . S
H370 C380 0.930 . S
H371 C383 0.929 . S
H372 C386 0.930 . S
H373 C388 0.960 . S
H374 C388 0.960 . S
H375 C388 0.960 . S
C376 H368 0.929 . S
C376 C377 1.377 . S
C376 C378 1.384 . S
C377 C376 1.377 . S
C377 C383 1.390 . S
C378 H369 0.930 . S
C378 C376 1.384 . S
C378 C379 1.372 . S
C379 C378 1.372 . S
C379 C380 1.400 . S
C379 C384 1.490 . S
C380 H370 0.930 . S
C380 C379 1.400 . S
C380 C383 1.386 . S
H381 C397 0.930 . S
H382 C398 0.931 . S
C383 H371 0.929 . S
C383 C377 1.390 . S
C383 C380 1.386 . S
C384 C379 1.490 . S
C384 C386 1.395 . S
C384 C387 1.403 . S
H385 C391 0.930 . S
C386 H372 0.930 . S
C386 C384 1.395 . S
C386 C389 1.403 1_556 S
C387 C384 1.403 . S
C387 C388 1.524 . S
C387 C391 1.400 1_556 S
C388 H373 0.960 . S
C388 H374 0.960 . S
C388 H375 0.960 . S
C388 C387 1.524 . S
C389 C386 1.403 1_554 S
C389 C390 1.392 . S
C389 C393 1.495 . S
C390 C389 1.392 . S
C390 C391 1.385 . S
C390 C392 1.478 . S
C391 H385 0.930 . S
C391 C387 1.400 1_554 S
C391 C390 1.385 . S
C392 C390 1.478 . S
C392 C394 1.381 . S
C392 C398 1.383 . S
C393 C389 1.495 . S
C393 H399 0.959 . S
C393 H400 0.961 . S
C393 H401 0.960 . S
C394 C392 1.381 . S
C394 C395 1.394 . S
C394 H402 0.930 . S
C395 C394 1.394 . S
C395 C396 1.383 . S
C395 H403 0.929 . S
C396 C395 1.383 . S
C396 C397 1.377 . S
C397 H381 0.930 . S
C397 C396 1.377 . S
C397 C398 1.379 . S
C398 H382 0.931 . S
C398 C392 1.383 . S
C398 C397 1.379 . S
H399 C393 0.959 . S
H400 C393 0.961 . S
H401 C393 0.960 . S
H402 C394 0.930 . S
H403 C395 0.929 . S
H404 C412 0.929 . S
H405 C414 0.930 . S
H406 C416 0.930 . S
H407 C419 0.929 . S
H408 C422 0.930 . S
H409 C424 0.960 . S
H410 C424 0.960 . S
H411 C424 0.960 . S
C412 H404 0.929 . S
C412 C413 1.377 . S
C412 C414 1.384 . S
C413 C412 1.377 . S
C413 C419 1.390 . S
C414 H405 0.930 . S
C414 C412 1.384 . S
C414 C415 1.372 . S
C415 C414 1.372 . S
C415 C416 1.400 . S
C415 C420 1.490 . S
C416 H406 0.930 . S
C416 C415 1.400 . S
C416 C419 1.386 . S
H417 C433 0.930 . S
H418 C434 0.931 . S
C419 H407 0.929 . S
C419 C413 1.390 . S
C419 C416 1.386 . S
C420 C415 1.490 . S
C420 C422 1.395 . S
C420 C423 1.403 . S
H421 C427 0.930 . S
C422 H408 0.930 . S
C422 C420 1.395 . S
C422 C425 1.403 . S
C423 C420 1.403 . S
C423 C424 1.524 . S
C423 C427 1.400 . S
C424 H409 0.960 . S
C424 H410 0.960 . S
C424 H411 0.960 . S
C424 C423 1.524 . S
C425 C422 1.403 . S
C425 C426 1.392 . S
C425 C429 1.495 . S
C426 C425 1.392 . S
C426 C427 1.385 . S
C426 C428 1.478 . S
C427 H421 0.930 . S
C427 C423 1.400 . S
C427 C426 1.385 . S
C428 C426 1.478 . S
C428 C430 1.381 . S
C428 C434 1.383 . S
C429 C425 1.495 . S
C429 H435 0.959 . S
C429 H436 0.961 . S
C429 H437 0.960 . S
C430 C428 1.381 . S
C430 C431 1.394 . S
C430 H438 0.930 . S
C431 C430 1.394 . S
C431 C432 1.383 . S
C431 H439 0.929 . S
C432 C431 1.383 . S
C432 C433 1.377 . S
C433 H417 0.930 . S
C433 C432 1.377 . S
C433 C434 1.379 . S
C434 H418 0.931 . S
C434 C428 1.383 . S
C434 C433 1.379 . S
H435 C429 0.959 . S
H436 C429 0.961 . S
H437 C429 0.960 . S
H438 C430 0.930 . S
H439 C431 0.929 . S
H440 C448 0.929 . S
H441 C450 0.930 . S
H442 C452 0.930 . S
H443 C455 0.929 . S
H444 C458 0.930 . S
H445 C460 0.960 . S
H446 C460 0.960 . S
H447 C460 0.960 . S
C448 H440 0.929 . S
C448 C449 1.377 . S
C448 C450 1.384 . S
C449 C448 1.377 . S
C449 C455 1.390 . S
C450 H441 0.930 . S
C450 C448 1.384 . S
C450 C451 1.372 . S
C451 C450 1.372 . S
C451 C452 1.400 . S
C451 C456 1.490 . S
C452 H442 0.930 . S
C452 C451 1.400 . S
C452 C455 1.386 . S
H453 C469 0.930 . S
H454 C470 0.931 . S
C455 H443 0.929 . S
C455 C449 1.390 . S
C455 C452 1.386 . S
C456 C451 1.490 . S
C456 C458 1.395 . S
C456 C459 1.403 . S
H457 C463 0.930 . S
C458 H444 0.930 . S
C458 C456 1.395 . S
C458 C461 1.403 1_556 S
C459 C456 1.403 . S
C459 C460 1.524 . S
C459 C463 1.400 1_556 S
C460 H445 0.960 . S
C460 H446 0.960 . S
C460 H447 0.960 . S
C460 C459 1.524 . S
C461 C458 1.403 1_554 S
C461 C462 1.392 . S
C461 C465 1.495 . S
C462 C461 1.392 . S
C462 C463 1.385 . S
C462 C464 1.478 . S
C463 H457 0.930 . S
C463 C459 1.400 1_554 S
C463 C462 1.385 . S
C464 C462 1.478 . S
C464 C466 1.381 . S
C464 C470 1.383 . S
C465 C461 1.495 . S
C465 H471 0.959 . S
C465 H472 0.961 . S
C465 H473 0.960 . S
C466 C464 1.381 . S
C466 C467 1.394 . S
C466 H474 0.930 . S
C467 C466 1.394 . S
C467 C468 1.383 . S
C467 H475 0.929 . S
C468 C467 1.383 . S
C468 C469 1.377 . S
C469 H453 0.930 . S
C469 C468 1.377 . S
C469 C470 1.379 . S
C470 H454 0.931 . S
C470 C464 1.383 . S
C470 C469 1.379 . S
H471 C465 0.959 . S
H472 C465 0.961 . S
H473 C465 0.960 . S
H474 C466 0.930 . S
H475 C467 0.929 . S
H476 C484 0.929 . S
H477 C486 0.930 . S
H478 C488 0.930 . S
H479 C491 0.929 . S
H480 C494 0.930 . S
H481 C496 0.960 . S
H482 C496 0.960 . S
H483 C496 0.960 . S
C484 H476 0.929 . S
C484 C485 1.377 . S
C484 C486 1.384 . S
C485 C484 1.377 . S
C485 C491 1.390 . S
C486 H477 0.930 . S
C486 C484 1.384 . S
C486 C487 1.372 . S
C487 C486 1.372 . S
C487 C488 1.400 . S
C487 C492 1.490 . S
C488 H478 0.930 . S
C488 C487 1.400 . S
C488 C491 1.386 . S
H489 C505 0.930 . S
H490 C506 0.931 . S
C491 H479 0.929 . S
C491 C485 1.390 . S
C491 C488 1.386 . S
C492 C487 1.490 . S
C492 C494 1.395 . S
C492 C495 1.403 . S
H493 C499 0.930 . S
C494 H480 0.930 . S
C494 C492 1.395 . S
C494 C497 1.403 . S
C495 C492 1.403 . S
C495 C496 1.524 . S
C495 C499 1.400 . S
C496 H481 0.960 . S
C496 H482 0.960 . S
C496 H483 0.960 . S
C496 C495 1.524 . S
C497 C494 1.403 . S
C497 C498 1.392 . S
C497 C501 1.495 . S
C498 C497 1.392 . S
C498 C499 1.385 . S
C498 C500 1.478 . S
C499 H493 0.930 . S
C499 C495 1.400 . S
C499 C498 1.385 . S
C500 C498 1.478 . S
C500 C502 1.381 . S
C500 C506 1.383 . S
C501 C497 1.495 . S
C501 H507 0.959 . S
C501 H508 0.961 . S
C501 H509 0.960 . S
C502 C500 1.381 . S
C502 C503 1.394 . S
C502 H510 0.930 . S
C503 C502 1.394 . S
C503 C504 1.383 . S
C503 H511 0.929 . S
C504 C503 1.383 . S
C504 C505 1.377 . S
C505 H489 0.930 . S
C505 C504 1.377 . S
C505 C506 1.379 . S
C506 H490 0.931 . S
C506 C500 1.383 . S
C506 C505 1.379 . S
H507 C501 0.959 . S
H508 C501 0.961 . S
H509 C501 0.960 . S
H510 C502 0.930 . S
H511 C503 0.929 . S
H512 C520 0.929 . S
H513 C522 0.930 . S
H514 C524 0.930 . S
H515 C527 0.929 . S
H516 C530 0.930 . S
H517 C532 0.960 . S
H518 C532 0.960 . S
H519 C532 0.960 . S
C520 H512 0.929 . S
C520 C521 1.377 . S
C520 C522 1.384 . S
C521 C520 1.377 . S
C521 C527 1.390 . S
C522 H513 0.930 . S
C522 C520 1.384 . S
C522 C523 1.372 . S
C523 C522 1.372 . S
C523 C524 1.400 . S
C523 C528 1.490 . S
C524 H514 0.930 . S
C524 C523 1.400 . S
C524 C527 1.386 . S
H525 C541 0.930 . S
H526 C542 0.931 . S
C527 H515 0.929 . S
C527 C521 1.390 . S
C527 C524 1.386 . S
C528 C523 1.490 . S
C528 C530 1.395 . S
C528 C531 1.403 . S
H529 C535 0.930 . S
C530 H516 0.930 . S
C530 C528 1.395 . S
C530 C533 1.403 1_554 S
C531 C528 1.403 . S
C531 C532 1.524 . S
C531 C535 1.400 1_554 S
C532 H517 0.960 . S
C532 H518 0.960 . S
C532 H519 0.960 . S
C532 C531 1.524 . S
C533 C530 1.403 1_556 S
C533 C534 1.392 . S
C533 C537 1.495 . S
C534 C533 1.392 . S
C534 C535 1.385 . S
C534 C536 1.478 . S
C535 H529 0.930 . S
C535 C531 1.400 1_556 S
C535 C534 1.385 . S
C536 C534 1.478 . S
C536 C538 1.381 . S
C536 C542 1.383 . S
C537 C533 1.495 . S
C537 H543 0.959 . S
C537 H544 0.961 . S
C537 H545 0.960 . S
C538 C536 1.381 . S
C538 C539 1.394 . S
C538 H546 0.930 . S
C539 C538 1.394 . S
C539 C540 1.383 . S
C539 H547 0.929 . S
C540 C539 1.383 . S
C540 C541 1.377 . S
C541 H525 0.930 . S
C541 C540 1.377 . S
C541 C542 1.379 . S
C542 H526 0.931 . S
C542 C536 1.383 . S
C542 C541 1.379 . S
H543 C537 0.959 . S
H544 C537 0.961 . S
H545 C537 0.960 . S
H546 C538 0.930 . S
H547 C539 0.929 . S
H548 C556 0.929 . S
H549 C558 0.930 . S
H550 C560 0.930 . S
H551 C563 0.929 . S
H552 C566 0.930 . S
H553 C568 0.960 . S
H554 C568 0.960 . S
H555 C568 0.960 . S
C556 H548 0.929 . S
C556 C557 1.377 . S
C556 C558 1.384 . S
C557 C556 1.377 . S
C557 C563 1.390 . S
C558 H549 0.930 . S
C558 C556 1.384 . S
C558 C559 1.372 . S
C559 C558 1.372 . S
C559 C560 1.400 . S
C559 C564 1.490 . S
C560 H550 0.930 . S
C560 C559 1.400 . S
C560 C563 1.386 . S
H561 C577 0.930 . S
H562 C578 0.931 . S
C563 H551 0.929 . S
C563 C557 1.390 . S
C563 C560 1.386 . S
C564 C559 1.490 . S
C564 C566 1.395 . S
C564 C567 1.403 . S
H565 C571 0.930 . S
C566 H552 0.930 . S
C566 C564 1.395 . S
C566 C569 1.403 . S
C567 C564 1.403 . S
C567 C568 1.524 . S
C567 C571 1.400 . S
C568 H553 0.960 . S
C568 H554 0.960 . S
C568 H555 0.960 . S
C568 C567 1.524 . S
C569 C566 1.403 . S
C569 C570 1.392 . S
C569 C573 1.495 . S
C570 C569 1.392 . S
C570 C571 1.385 . S
C570 C572 1.478 . S
C571 H565 0.930 . S
C571 C567 1.400 . S
C571 C570 1.385 . S
C572 C570 1.478 . S
C572 C574 1.381 . S
C572 C578 1.383 . S
C573 C569 1.495 . S
C573 H579 0.959 . S
C573 H580 0.961 . S
C573 H581 0.960 . S
C574 C572 1.381 . S
C574 C575 1.394 . S
C574 H582 0.930 . S
C575 C574 1.394 . S
C575 C576 1.383 . S
C575 H583 0.929 . S
C576 C575 1.383 . S
C576 C577 1.377 . S
C577 H561 0.930 . S
C577 C576 1.377 . S
C577 C578 1.379 . S
C578 H562 0.931 . S
C578 C572 1.383 . S
C578 C577 1.379 . S
H579 C573 0.959 . S
H580 C573 0.961 . S
H581 C573 0.960 . S
H582 C574 0.930 . S
H583 C575 0.929 . S
H584 C592 0.929 . S
H585 C594 0.930 . S
H586 C596 0.930 . S
H587 C599 0.929 . S
H588 C602 0.930 . S
H589 C604 0.960 1_554 S
H590 C604 0.960 . S
H591 C604 0.960 . S
C592 H584 0.929 . S
C592 C593 1.377 . S
C592 C594 1.384 . S
C593 C592 1.377 . S
C593 C599 1.390 . S
C594 H585 0.930 . S
C594 C592 1.384 . S
C594 C595 1.372 . S
C595 C594 1.372 . S
C595 C596 1.400 . S
C595 C600 1.490 . S
C596 H586 0.930 . S
C596 C595 1.400 . S
C596 C599 1.386 . S
H597 C613 0.930 . S
H598 C614 0.931 . S
C599 H587 0.929 . S
C599 C593 1.390 . S
C599 C596 1.386 . S
C600 C595 1.490 . S
C600 C602 1.395 . S
C600 C603 1.403 . S
H601 C607 0.930 . S
C602 H588 0.930 . S
C602 C600 1.395 . S
C602 C605 1.403 1_556 S
C603 C600 1.403 . S
C603 C604 1.524 . S
C603 C607 1.400 1_556 S
C604 H589 0.960 1_556 S
C604 H590 0.960 . S
C604 H591 0.960 . S
C604 C603 1.524 . S
C605 C602 1.403 1_554 S
C605 C606 1.392 . S
C605 C609 1.495 . S
C606 C605 1.392 . S
C606 C607 1.385 . S
C606 C608 1.478 . S
C607 H601 0.930 . S
C607 C603 1.400 1_554 S
C607 C606 1.385 . S
C608 C606 1.478 . S
C608 C610 1.381 . S
C608 C614 1.383 . S
C609 C605 1.495 . S
C609 H615 0.959 1_554 S
C609 H616 0.961 . S
C609 H617 0.960 . S
C610 C608 1.381 . S
C610 C611 1.394 . S
C610 H618 0.930 . S
C611 C610 1.394 . S
C611 C612 1.383 . S
C611 H619 0.929 . S
C612 C611 1.383 . S
C612 C613 1.377 . S
C613 H597 0.930 . S
C613 C612 1.377 . S
C613 C614 1.379 . S
C614 H598 0.931 . S
C614 C608 1.383 . S
C614 C613 1.379 . S
H615 C609 0.959 1_556 S
H616 C609 0.961 . S
H617 C609 0.960 . S
H618 C610 0.930 . S
H619 C611 0.929 . S
H620 C628 0.929 . S
H621 C630 0.930 . S
H622 C632 0.930 . S
H623 C635 0.929 . S
H624 C638 0.930 . S
H625 C640 0.960 . S
H626 C640 0.960 . S
H627 C640 0.960 . S
C628 H620 0.929 . S
C628 C629 1.377 . S
C628 C630 1.384 . S
C629 C628 1.377 . S
C629 C635 1.390 . S
C630 H621 0.930 . S
C630 C628 1.384 . S
C630 C631 1.372 . S
C631 C630 1.372 . S
C631 C632 1.400 . S
C631 C636 1.490 . S
C632 H622 0.930 . S
C632 C631 1.400 . S
C632 C635 1.386 . S
H633 C649 0.930 . S
H634 C650 0.931 . S
C635 H623 0.929 . S
C635 C629 1.390 . S
C635 C632 1.386 . S
C636 C631 1.490 . S
C636 C638 1.395 . S
C636 C639 1.403 . S
H637 C643 0.930 . S
C638 H624 0.930 . S
C638 C636 1.395 . S
C638 C641 1.403 . S
C639 C636 1.403 . S
C639 C640 1.524 . S
C639 C643 1.400 . S
C640 H625 0.960 . S
C640 H626 0.960 . S
C640 H627 0.960 . S
C640 C639 1.524 . S
C641 C638 1.403 . S
C641 C642 1.392 . S
C641 C645 1.495 . S
C642 C641 1.392 . S
C642 C643 1.385 . S
C642 C644 1.478 . S
C643 H637 0.930 . S
C643 C639 1.400 . S
C643 C642 1.385 . S
C644 C642 1.478 . S
C644 C646 1.381 . S
C644 C650 1.383 . S
C645 C641 1.495 . S
C645 H651 0.959 . S
C645 H652 0.961 . S
C645 H653 0.960 . S
C646 C644 1.381 . S
C646 C647 1.394 . S
C646 H654 0.930 . S
C647 C646 1.394 . S
C647 C648 1.383 . S
C647 H655 0.929 . S
C648 C647 1.383 . S
C648 C649 1.377 . S
C649 H633 0.930 . S
C649 C648 1.377 . S
C649 C650 1.379 . S
C650 H634 0.931 . S
C650 C644 1.383 . S
C650 C649 1.379 . S
H651 C645 0.959 . S
H652 C645 0.961 . S
H653 C645 0.960 . S
H654 C646 0.930 . S
H655 C647 0.929 . S
H656 C664 0.929 . S
H657 C666 0.930 . S
H658 C668 0.930 . S
H659 C671 0.929 . S
H660 C674 0.930 . S
H661 C676 0.960 . S
H662 C676 0.960 . S
H663 C676 0.960 . S
C664 H656 0.929 . S
C664 C665 1.377 . S
C664 C666 1.384 . S
C665 C664 1.377 . S
C665 C671 1.390 . S
C666 H657 0.930 . S
C666 C664 1.384 . S
C666 C667 1.372 . S
C667 C666 1.372 . S
C667 C668 1.400 . S
C667 C672 1.490 . S
C668 H658 0.930 . S
C668 C667 1.400 . S
C668 C671 1.386 . S
H669 C685 0.930 . S
H670 C686 0.931 . S
C671 H659 0.929 . S
C671 C665 1.390 . S
C671 C668 1.386 . S
C672 C667 1.490 . S
C672 C674 1.395 . S
C672 C675 1.403 . S
H673 C679 0.930 . S
C674 H660 0.930 . S
C674 C672 1.395 . S
C674 C677 1.403 . S
C675 C672 1.403 . S
C675 C676 1.524 . S
C675 C679 1.400 . S
C676 H661 0.960 . S
C676 H662 0.960 . S
C676 H663 0.960 . S
C676 C675 1.524 . S
C677 C674 1.403 . S
C677 C678 1.392 . S
C677 C681 1.495 . S
C678 C677 1.392 . S
C678 C679 1.385 . S
C678 C680 1.478 . S
C679 H673 0.930 . S
C679 C675 1.400 . S
C679 C678 1.385 . S
C680 C678 1.478 . S
C680 C682 1.381 . S
C680 C686 1.383 . S
C681 C677 1.495 . S
C681 H687 0.959 . S
C681 H688 0.961 . S
C681 H689 0.960 . S
C682 C680 1.381 . S
C682 C683 1.394 . S
C682 H690 0.930 . S
C683 C682 1.394 . S
C683 C684 1.383 . S
C683 H691 0.929 . S
C684 C683 1.383 . S
C684 C685 1.377 . S
C685 H669 0.930 . S
C685 C684 1.377 . S
C685 C686 1.379 . S
C686 H670 0.931 . S
C686 C680 1.383 . S
C686 C685 1.379 . S
H687 C681 0.959 . S
H688 C681 0.961 . S
H689 C681 0.960 . S
H690 C682 0.930 . S
H691 C683 0.929 . S
H692 C700 0.929 . S
H693 C702 0.930 . S
H694 C704 0.930 . S
H695 C707 0.929 . S
H696 C710 0.930 . S
H697 C712 0.960 . S
H698 C712 0.960 . S
H699 C712 0.960 . S
C700 H692 0.929 . S
C700 C701 1.377 . S
C700 C702 1.384 . S
C701 C700 1.377 . S
C701 C707 1.390 . S
C702 H693 0.930 . S
C702 C700 1.384 . S
C702 C703 1.372 . S
C703 C702 1.372 . S
C703 C704 1.400 . S
C703 C708 1.490 . S
C704 H694 0.930 . S
C704 C703 1.400 . S
C704 C707 1.386 . S
H705 C721 0.930 . S
H706 C722 0.931 . S
C707 H695 0.929 . S
C707 C701 1.390 . S
C707 C704 1.386 . S
C708 C703 1.490 . S
C708 C710 1.395 . S
C708 C711 1.403 . S
H709 C715 0.930 . S
C710 H696 0.930 . S
C710 C708 1.395 . S
C710 C713 1.403 . S
C711 C708 1.403 . S
C711 C712 1.524 . S
C711 C715 1.400 . S
C712 H697 0.960 . S
C712 H698 0.960 . S
C712 H699 0.960 . S
C712 C711 1.524 . S
C713 C710 1.403 . S
C713 C714 1.392 . S
C713 C717 1.495 . S
C714 C713 1.392 . S
C714 C715 1.385 . S
C714 C716 1.478 . S
C715 H709 0.930 . S
C715 C711 1.400 . S
C715 C714 1.385 . S
C716 C714 1.478 . S
C716 C718 1.381 . S
C716 C722 1.383 . S
C717 C713 1.495 . S
C717 H723 0.959 . S
C717 H724 0.961 . S
C717 H725 0.960 . S
C718 C716 1.381 . S
C718 C719 1.394 . S
C718 H726 0.930 . S
C719 C718 1.394 . S
C719 C720 1.383 . S
C719 H727 0.929 . S
C720 C719 1.383 . S
C720 C721 1.377 . S
C721 H705 0.930 . S
C721 C720 1.377 . S
C721 C722 1.379 . S
C722 H706 0.931 . S
C722 C716 1.383 . S
C722 C721 1.379 . S
H723 C717 0.959 . S
H724 C717 0.961 . S
H725 C717 0.960 . S
H726 C718 0.930 . S
H727 C719 0.929 . S
H728 C736 0.929 . S
H729 C738 0.930 . S
H730 C740 0.930 . S
H731 C743 0.929 . S
H732 C746 0.930 . S
H733 C748 0.960 . S
H734 C748 0.960 . S
H735 C748 0.960 . S
C736 H728 0.929 . S
C736 C737 1.377 . S
C736 C738 1.384 . S
C737 C736 1.377 . S
C737 C743 1.390 . S
C738 H729 0.930 . S
C738 C736 1.384 . S
C738 C739 1.372 . S
C739 C738 1.372 . S
C739 C740 1.400 . S
C739 C744 1.490 . S
C740 H730 0.930 . S
C740 C739 1.400 . S
C740 C743 1.386 . S
H741 C757 0.930 . S
H742 C758 0.931 . S
C743 H731 0.929 . S
C743 C737 1.390 . S
C743 C740 1.386 . S
C744 C739 1.490 . S
C744 C746 1.395 . S
C744 C747 1.403 . S
H745 C751 0.930 . S
C746 H732 0.930 . S
C746 C744 1.395 . S
C746 C749 1.403 . S
C747 C744 1.403 . S
C747 C748 1.524 . S
C747 C751 1.400 . S
C748 H733 0.960 . S
C748 H734 0.960 . S
C748 H735 0.960 . S
C748 C747 1.524 . S
C749 C746 1.403 . S
C749 C750 1.392 . S
C749 C753 1.495 . S
C750 C749 1.392 . S
C750 C751 1.385 . S
C750 C752 1.478 . S
C751 H745 0.930 . S
C751 C747 1.400 . S
C751 C750 1.385 . S
C752 C750 1.478 . S
C752 C754 1.381 . S
C752 C758 1.383 . S
C753 C749 1.495 . S
C753 H759 0.959 . S
C753 H760 0.961 . S
C753 H761 0.960 . S
C754 C752 1.381 . S
C754 C755 1.394 . S
C754 H762 0.930 . S
C755 C754 1.394 . S
C755 C756 1.383 . S
C755 H763 0.929 . S
C756 C755 1.383 . S
C756 C757 1.377 . S
C757 H741 0.930 . S
C757 C756 1.377 . S
C757 C758 1.379 . S
C758 H742 0.931 . S
C758 C752 1.383 . S
C758 C757 1.379 . S
H759 C753 0.959 . S
H760 C753 0.961 . S
H761 C753 0.960 . S
H762 C754 0.930 . S
H763 C755 0.929 . S
H764 C772 0.929 . S
H765 C774 0.930 . S
H766 C776 0.930 . S
H767 C779 0.929 . S
H768 C782 0.930 . S
H769 C784 0.960 . S
H770 C784 0.960 . S
H771 C784 0.960 . S
C772 H764 0.929 . S
C772 C773 1.377 . S
C772 C774 1.384 . S
C773 C772 1.377 . S
C773 C779 1.390 . S
C774 H765 0.930 . S
C774 C772 1.384 . S
C774 C775 1.372 . S
C775 C774 1.372 . S
C775 C776 1.400 . S
C775 C780 1.490 . S
C776 H766 0.930 . S
C776 C775 1.400 . S
C776 C779 1.386 . S
H777 C793 0.930 . S
H778 C794 0.931 . S
C779 H767 0.929 . S
C779 C773 1.390 . S
C779 C776 1.386 . S
C780 C775 1.490 . S
C780 C782 1.395 . S
C780 C783 1.403 . S
H781 C787 0.930 . S
C782 H768 0.930 . S
C782 C780 1.395 . S
C782 C785 1.403 . S
C783 C780 1.403 . S
C783 C784 1.524 . S
C783 C787 1.400 . S
C784 H769 0.960 . S
C784 H770 0.960 . S
C784 H771 0.960 . S
C784 C783 1.524 . S
C785 C782 1.403 . S
C785 C786 1.392 . S
C785 C789 1.495 . S
C786 C785 1.392 . S
C786 C787 1.385 . S
C786 C788 1.478 . S
C787 H781 0.930 . S
C787 C783 1.400 . S
C787 C786 1.385 . S
C788 C786 1.478 . S
C788 C790 1.381 . S
C788 C794 1.383 . S
C789 C785 1.495 . S
C789 H795 0.959 . S
C789 H796 0.961 . S
C789 H797 0.960 . S
C790 C788 1.381 . S
C790 C791 1.394 . S
C790 H798 0.930 . S
C791 C790 1.394 . S
C791 C792 1.383 . S
C791 H799 0.929 . S
C792 C791 1.383 . S
C792 C793 1.377 . S
C793 H777 0.930 . S
C793 C792 1.377 . S
C793 C794 1.379 . S
C794 H778 0.931 . S
C794 C788 1.383 . S
C794 C793 1.379 . S
H795 C789 0.959 . S
H796 C789 0.961 . S
H797 C789 0.960 . S
H798 C790 0.930 . S
H799 C791 0.929 . S
H800 C808 0.929 . S
H801 C810 0.930 . S
H802 C812 0.930 . S
H803 C815 0.929 . S
H804 C818 0.930 . S
H805 C820 0.960 . S
H806 C820 0.960 . S
H807 C820 0.960 . S
C808 H800 0.929 . S
C808 C809 1.377 . S
C808 C810 1.384 . S
C809 C808 1.377 . S
C809 C815 1.390 . S
C810 H801 0.930 . S
C810 C808 1.384 . S
C810 C811 1.372 . S
C811 C810 1.372 . S
C811 C812 1.400 . S
C811 C816 1.490 . S
C812 H802 0.930 . S
C812 C811 1.400 . S
C812 C815 1.386 . S
H813 C829 0.930 . S
H814 C830 0.931 . S
C815 H803 0.929 . S
C815 C809 1.390 . S
C815 C812 1.386 . S
C816 C811 1.490 . S
C816 C818 1.395 . S
C816 C819 1.403 . S
H817 C823 0.930 . S
C818 H804 0.930 . S
C818 C816 1.395 . S
C818 C821 1.403 . S
C819 C816 1.403 . S
C819 C820 1.524 . S
C819 C823 1.400 . S
C820 H805 0.960 . S
C820 H806 0.960 . S
C820 H807 0.960 . S
C820 C819 1.524 . S
C821 C818 1.403 . S
C821 C822 1.392 . S
C821 C825 1.495 . S
C822 C821 1.392 . S
C822 C823 1.385 . S
C822 C824 1.478 . S
C823 H817 0.930 . S
C823 C819 1.400 . S
C823 C822 1.385 . S
C824 C822 1.478 . S
C824 C826 1.381 . S
C824 C830 1.383 . S
C825 C821 1.495 . S
C825 H831 0.959 . S
C825 H832 0.961 . S
C825 H833 0.960 . S
C826 C824 1.381 . S
C826 C827 1.394 . S
C826 H834 0.930 . S
C827 C826 1.394 . S
C827 C828 1.383 . S
C827 H835 0.929 . S
C828 C827 1.383 . S
C828 C829 1.377 . S
C829 H813 0.930 . S
C829 C828 1.377 . S
C829 C830 1.379 . S
C830 H814 0.931 . S
C830 C824 1.383 . S
C830 C829 1.379 . S
H831 C825 0.959 . S
H832 C825 0.961 . S
H833 C825 0.960 . S
H834 C826 0.930 . S
H835 C827 0.929 . S
H836 C844 0.929 . S
H837 C846 0.930 . S
H838 C848 0.930 . S
H839 C851 0.929 . S
H840 C854 0.930 . S
H841 C856 0.960 . S
H842 C856 0.960 . S
H843 C856 0.960 . S
C844 H836 0.929 . S
C844 C845 1.377 . S
C844 C846 1.384 . S
C845 C844 1.377 . S
C845 C851 1.390 . S
C846 H837 0.930 . S
C846 C844 1.384 . S
C846 C847 1.372 . S
C847 C846 1.372 . S
C847 C848 1.400 . S
C847 C852 1.490 . S
C848 H838 0.930 . S
C848 C847 1.400 . S
C848 C851 1.386 . S
H849 C865 0.930 . S
H850 C866 0.931 . S
C851 H839 0.929 . S
C851 C845 1.390 . S
C851 C848 1.386 . S
C852 C847 1.490 . S
C852 C854 1.395 . S
C852 C855 1.403 . S
H853 C859 0.930 . S
C854 H840 0.930 . S
C854 C852 1.395 . S
C854 C857 1.403 . S
C855 C852 1.403 . S
C855 C856 1.524 . S
C855 C859 1.400 . S
C856 H841 0.960 . S
C856 H842 0.960 . S
C856 H843 0.960 . S
C856 C855 1.524 . S
C857 C854 1.403 . S
C857 C858 1.392 . S
C857 C861 1.495 . S
C858 C857 1.392 . S
C858 C859 1.385 . S
C858 C860 1.478 . S
C859 H853 0.930 . S
C859 C855 1.400 . S
C859 C858 1.385 . S
C860 C858 1.478 . S
C860 C862 1.381 . S
C860 C866 1.383 . S
C861 C857 1.495 . S
C861 H867 0.959 . S
C861 H868 0.961 . S
C861 H869 0.960 . S
C862 C860 1.381 . S
C862 C863 1.394 . S
C862 H870 0.930 . S
C863 C862 1.394 . S
C863 C864 1.383 . S
C863 H871 0.929 . S
C864 C863 1.383 . S
C864 C865 1.377 . S
C865 H849 0.930 . S
C865 C864 1.377 . S
C865 C866 1.379 . S
C866 H850 0.931 . S
C866 C860 1.383 . S
C866 C865 1.379 . S
H867 C861 0.959 . S
H868 C861 0.961 . S
H869 C861 0.960 . S
H870 C862 0.930 . S
H871 C863 0.929 . S
H872 C880 0.929 . S
H873 C882 0.930 . S
H874 C884 0.930 . S
H875 C887 0.929 . S
H876 C890 0.930 . S
H877 C892 0.960 . S
H878 C892 0.960 . S
H879 C892 0.960 . S
C880 H872 0.929 . S
C880 C881 1.377 . S
C880 C882 1.384 . S
C881 C880 1.377 . S
C881 C887 1.390 . S
C882 H873 0.930 . S
C882 C880 1.384 . S
C882 C883 1.372 . S
C883 C882 1.372 . S
C883 C884 1.400 . S
C883 C888 1.490 . S
C884 H874 0.930 . S
C884 C883 1.400 . S
C884 C887 1.386 . S
H885 C901 0.930 . S
H886 C902 0.931 . S
C887 H875 0.929 . S
C887 C881 1.390 . S
C887 C884 1.386 . S
C888 C883 1.490 . S
C888 C890 1.395 . S
C888 C891 1.403 . S
H889 C895 0.930 . S
C890 H876 0.930 . S
C890 C888 1.395 . S
C890 C893 1.403 . S
C891 C888 1.403 . S
C891 C892 1.524 . S
C891 C895 1.400 . S
C892 H877 0.960 . S
C892 H878 0.960 . S
C892 H879 0.960 . S
C892 C891 1.524 . S
C893 C890 1.403 . S
C893 C894 1.392 . S
C893 C897 1.495 . S
C894 C893 1.392 . S
C894 C895 1.385 . S
C894 C896 1.478 . S
C895 H889 0.930 . S
C895 C891 1.400 . S
C895 C894 1.385 . S
C896 C894 1.478 . S
C896 C898 1.381 . S
C896 C902 1.383 . S
C897 C893 1.495 . S
C897 H903 0.959 . S
C897 H904 0.961 . S
C897 H905 0.960 . S
C898 C896 1.381 . S
C898 C899 1.394 . S
C898 H906 0.930 . S
C899 C898 1.394 . S
C899 C900 1.383 . S
C899 H907 0.929 . S
C900 C899 1.383 . S
C900 C901 1.377 . S
C901 H885 0.930 . S
C901 C900 1.377 . S
C901 C902 1.379 . S
C902 H886 0.931 . S
C902 C896 1.383 . S
C902 C901 1.379 . S
H903 C897 0.959 . S
H904 C897 0.961 . S
H905 C897 0.960 . S
H906 C898 0.930 . S
H907 C899 0.929 . S
H908 C916 0.929 . S
H909 C918 0.930 . S
H910 C920 0.930 . S
H911 C923 0.929 . S
H912 C926 0.930 . S
H913 C928 0.960 . S
H914 C928 0.960 . S
H915 C928 0.960 . S
C916 H908 0.929 . S
C916 C917 1.377 . S
C916 C918 1.384 . S
C917 C916 1.377 . S
C917 C923 1.390 . S
C918 H909 0.930 . S
C918 C916 1.384 . S
C918 C919 1.372 . S
C919 C918 1.372 . S
C919 C920 1.400 . S
C919 C924 1.490 . S
C920 H910 0.930 . S
C920 C919 1.400 . S
C920 C923 1.386 . S
H921 C937 0.930 . S
H922 C938 0.931 . S
C923 H911 0.929 . S
C923 C917 1.390 . S
C923 C920 1.386 . S
C924 C919 1.490 . S
C924 C926 1.395 . S
C924 C927 1.403 . S
H925 C931 0.930 . S
C926 H912 0.930 . S
C926 C924 1.395 . S
C926 C929 1.403 . S
C927 C924 1.403 . S
C927 C928 1.524 . S
C927 C931 1.400 . S
C928 H913 0.960 . S
C928 H914 0.960 . S
C928 H915 0.960 . S
C928 C927 1.524 . S
C929 C926 1.403 . S
C929 C930 1.392 . S
C929 C933 1.495 . S
C930 C929 1.392 . S
C930 C931 1.385 . S
C930 C932 1.478 . S
C931 H925 0.930 . S
C931 C927 1.400 . S
C931 C930 1.385 . S
C932 C930 1.478 . S
C932 C934 1.381 . S
C932 C938 1.383 . S
C933 C929 1.495 . S
C933 H939 0.959 . S
C933 H940 0.961 . S
C933 H941 0.960 . S
C934 C932 1.381 . S
C934 C935 1.394 . S
C934 H942 0.930 . S
C935 C934 1.394 . S
C935 C936 1.383 . S
C935 H943 0.929 . S
C936 C935 1.383 . S
C936 C937 1.377 . S
C937 H921 0.930 . S
C937 C936 1.377 . S
C937 C938 1.379 . S
C938 H922 0.931 . S
C938 C932 1.383 . S
C938 C937 1.379 . S
H939 C933 0.959 . S
H940 C933 0.961 . S
H941 C933 0.960 . S
H942 C934 0.930 . S
H943 C935 0.929 . S
H944 C952 0.929 . S
H945 C954 0.930 . S
H946 C956 0.930 . S
H947 C959 0.929 . S
H948 C962 0.930 . S
H949 C964 0.960 . S
H950 C964 0.960 . S
H951 C964 0.960 . S
C952 H944 0.929 . S
C952 C953 1.377 . S
C952 C954 1.384 . S
C953 C952 1.377 . S
C953 C959 1.390 . S
C954 H945 0.930 . S
C954 C952 1.384 . S
C954 C955 1.372 . S
C955 C954 1.372 . S
C955 C956 1.400 . S
C955 C960 1.490 . S
C956 H946 0.930 . S
C956 C955 1.400 . S
C956 C959 1.386 . S
H957 C973 0.930 . S
H958 C974 0.931 . S
C959 H947 0.929 . S
C959 C953 1.390 . S
C959 C956 1.386 . S
C960 C955 1.490 . S
C960 C962 1.395 . S
C960 C963 1.403 . S
H961 C967 0.930 . S
C962 H948 0.930 . S
C962 C960 1.395 . S
C962 C965 1.403 . S
C963 C960 1.403 . S
C963 C964 1.524 . S
C963 C967 1.400 . S
C964 H949 0.960 . S
C964 H950 0.960 . S
C964 H951 0.960 . S
C964 C963 1.524 . S
C965 C962 1.403 . S
C965 C966 1.392 . S
C965 C969 1.495 . S
C966 C965 1.392 . S
C966 C967 1.385 . S
C966 C968 1.478 . S
C967 H961 0.930 . S
C967 C963 1.400 . S
C967 C966 1.385 . S
C968 C966 1.478 . S
C968 C970 1.381 . S
C968 C974 1.383 . S
C969 C965 1.495 . S
C969 H975 0.959 . S
C969 H976 0.961 . S
C969 H977 0.960 . S
C970 C968 1.381 . S
C970 C971 1.394 . S
C970 H978 0.930 . S
C971 C970 1.394 . S
C971 C972 1.383 . S
C971 H979 0.929 . S
C972 C971 1.383 . S
C972 C973 1.377 . S
C973 H957 0.930 . S
C973 C972 1.377 . S
C973 C974 1.379 . S
C974 H958 0.931 . S
C974 C968 1.383 . S
C974 C973 1.379 . S
H975 C969 0.959 . S
H976 C969 0.961 . S
H977 C969 0.960 . S
H978 C970 0.930 . S
H979 C971 0.929 . S
H980 C988 0.929 . S
H981 C990 0.930 . S
H982 C992 0.930 . S
H983 C995 0.929 . S
H984 C998 0.930 . S
H985 C1000 0.960 . S
H986 C1000 0.960 . S
H987 C1000 0.960 . S
C988 H980 0.929 . S
C988 C989 1.377 . S
C988 C990 1.384 . S
C989 C988 1.377 . S
C989 C995 1.390 . S
C990 H981 0.930 . S
C990 C988 1.384 . S
C990 C991 1.372 . S
C991 C990 1.372 . S
C991 C992 1.400 . S
C991 C996 1.490 . S
C992 H982 0.930 . S
C992 C991 1.400 . S
C992 C995 1.386 . S
H993 C1009 0.930 . S
H994 C1010 0.931 . S
C995 H983 0.929 . S
C995 C989 1.390 . S
C995 C992 1.386 . S
C996 C991 1.490 . S
C996 C998 1.395 . S
C996 C999 1.403 . S
H997 C1003 0.930 . S
C998 H984 0.930 . S
C998 C996 1.395 . S
C998 C1001 1.403 . S
C999 C996 1.403 . S
C999 C1000 1.524 . S
C999 C1003 1.400 . S
C1000 H985 0.960 . S
C1000 H986 0.960 . S
C1000 H987 0.960 . S
C1000 C999 1.524 . S
C1001 C998 1.403 . S
C1001 C1002 1.392 . S
C1001 C1005 1.495 . S
C1002 C1001 1.392 . S
C1002 C1003 1.385 . S
C1002 C1004 1.478 . S
C1003 H997 0.930 . S
C1003 C999 1.400 . S
C1003 C1002 1.385 . S
C1004 C1002 1.478 . S
C1004 C1006 1.381 . S
C1004 C1010 1.383 . S
C1005 C1001 1.495 . S
C1005 H1011 0.959 . S
C1005 H1012 0.961 . S
C1005 H1013 0.960 . S
C1006 C1004 1.381 . S
C1006 C1007 1.394 . S
C1006 H1014 0.930 . S
C1007 C1006 1.394 . S
C1007 C1008 1.383 . S
C1007 H1015 0.929 . S
C1008 C1007 1.383 . S
C1008 C1009 1.377 . S
C1009 H993 0.930 . S
C1009 C1008 1.377 . S
C1009 C1010 1.379 . S
C1010 H994 0.931 . S
C1010 C1004 1.383 . S
C1010 C1009 1.379 . S
H1011 C1005 0.959 . S
H1012 C1005 0.961 . S
H1013 C1005 0.960 . S
H1014 C1006 0.930 . S
H1015 C1007 0.929 . S
H1016 C1024 0.929 . S
H1017 C1026 0.930 . S
H1018 C1028 0.930 . S
H1019 C1031 0.929 . S
H1020 C1034 0.930 . S
H1021 C1036 0.960 . S
H1022 C1036 0.960 . S
H1023 C1036 0.960 . S
C1024 H1016 0.929 . S
C1024 C1025 1.377 . S
C1024 C1026 1.384 . S
C1025 C1024 1.377 . S
C1025 C1031 1.390 . S
C1026 H1017 0.930 . S
C1026 C1024 1.384 . S
C1026 C1027 1.372 . S
C1027 C1026 1.372 . S
C1027 C1028 1.400 . S
C1027 C1032 1.490 . S
C1028 H1018 0.930 . S
C1028 C1027 1.400 . S
C1028 C1031 1.386 . S
H1029 C1045 0.930 . S
H1030 C1046 0.931 . S
C1031 H1019 0.929 . S
C1031 C1025 1.390 . S
C1031 C1028 1.386 . S
C1032 C1027 1.490 . S
C1032 C1034 1.395 . S
C1032 C1035 1.403 . S
H1033 C1039 0.930 . S
C1034 H1020 0.930 . S
C1034 C1032 1.395 . S
C1034 C1037 1.403 . S
C1035 C1032 1.403 . S
C1035 C1036 1.524 . S
C1035 C1039 1.400 . S
C1036 H1021 0.960 . S
C1036 H1022 0.960 . S
C1036 H1023 0.960 . S
C1036 C1035 1.524 . S
C1037 C1034 1.403 . S
C1037 C1038 1.392 . S
C1037 C1041 1.495 . S
C1038 C1037 1.392 . S
C1038 C1039 1.385 . S
C1038 C1040 1.478 . S
C1039 H1033 0.930 . S
C1039 C1035 1.400 . S
C1039 C1038 1.385 . S
C1040 C1038 1.478 . S
C1040 C1042 1.381 . S
C1040 C1046 1.383 . S
C1041 C1037 1.495 . S
C1041 H1047 0.959 . S
C1041 H1048 0.961 . S
C1041 H1049 0.960 . S
C1042 C1040 1.381 . S
C1042 C1043 1.394 . S
C1042 H1050 0.930 . S
C1043 C1042 1.394 . S
C1043 C1044 1.383 . S
C1043 H1051 0.929 . S
C1044 C1043 1.383 . S
C1044 C1045 1.377 . S
C1045 H1029 0.930 . S
C1045 C1044 1.377 . S
C1045 C1046 1.379 . S
C1046 H1030 0.931 . S
C1046 C1040 1.383 . S
C1046 C1045 1.379 . S
H1047 C1041 0.959 . S
H1048 C1041 0.961 . S
H1049 C1041 0.960 . S
H1050 C1042 0.930 . S
H1051 C1043 0.929 . S
H1052 C1060 0.929 . S
H1053 C1062 0.930 . S
H1054 C1064 0.930 . S
H1055 C1067 0.929 . S
H1056 C1070 0.930 . S
H1057 C1072 0.960 . S
H1058 C1072 0.960 . S
H1059 C1072 0.960 . S
C1060 H1052 0.929 . S
C1060 C1061 1.377 . S
C1060 C1062 1.384 . S
C1061 C1060 1.377 . S
C1061 C1067 1.390 . S
C1062 H1053 0.930 . S
C1062 C1060 1.384 . S
C1062 C1063 1.372 . S
C1063 C1062 1.372 . S
C1063 C1064 1.400 . S
C1063 C1068 1.490 . S
C1064 H1054 0.930 . S
C1064 C1063 1.400 . S
C1064 C1067 1.386 . S
H1065 C1081 0.930 . S
H1066 C1082 0.931 . S
C1067 H1055 0.929 . S
C1067 C1061 1.390 . S
C1067 C1064 1.386 . S
C1068 C1063 1.490 . S
C1068 C1070 1.395 . S
C1068 C1071 1.403 . S
H1069 C1075 0.930 . S
C1070 H1056 0.930 . S
C1070 C1068 1.395 . S
C1070 C1073 1.403 . S
C1071 C1068 1.403 . S
C1071 C1072 1.524 . S
C1071 C1075 1.400 . S
C1072 H1057 0.960 . S
C1072 H1058 0.960 . S
C1072 H1059 0.960 . S
C1072 C1071 1.524 . S
C1073 C1070 1.403 . S
C1073 C1074 1.392 . S
C1073 C1077 1.495 . S
C1074 C1073 1.392 . S
C1074 C1075 1.385 . S
C1074 C1076 1.478 . S
C1075 H1069 0.930 . S
C1075 C1071 1.400 . S
C1075 C1074 1.385 . S
C1076 C1074 1.478 . S
C1076 C1078 1.381 . S
C1076 C1082 1.383 . S
C1077 C1073 1.495 . S
C1077 H1083 0.959 . S
C1077 H1084 0.961 . S
C1077 H1085 0.960 . S
C1078 C1076 1.381 . S
C1078 C1079 1.394 . S
C1078 H1086 0.930 . S
C1079 C1078 1.394 . S
C1079 C1080 1.383 . S
C1079 H1087 0.929 . S
C1080 C1079 1.383 . S
C1080 C1081 1.377 . S
C1081 H1065 0.930 . S
C1081 C1080 1.377 . S
C1081 C1082 1.379 . S
C1082 H1066 0.931 . S
C1082 C1076 1.383 . S
C1082 C1081 1.379 . S
H1083 C1077 0.959 . S
H1084 C1077 0.961 . S
H1085 C1077 0.960 . S
H1086 C1078 0.930 . S
H1087 C1079 0.929 . S
H1088 C1096 0.929 . S
H1089 C1098 0.930 . S
H1090 C1100 0.930 . S
H1091 C1103 0.929 . S
H1092 C1106 0.930 . S
H1093 C1108 0.960 . S
H1094 C1108 0.960 . S
H1095 C1108 0.960 . S
C1096 H1088 0.929 . S
C1096 C1097 1.377 . S
C1096 C1098 1.384 . S
C1097 C1096 1.377 . S
C1097 C1103 1.390 . S
C1098 H1089 0.930 . S
C1098 C1096 1.384 . S
C1098 C1099 1.372 . S
C1099 C1098 1.372 . S
C1099 C1100 1.400 . S
C1099 C1104 1.490 . S
C1100 H1090 0.930 . S
C1100 C1099 1.400 . S
C1100 C1103 1.386 . S
H1101 C1117 0.930 . S
H1102 C1118 0.931 . S
C1103 H1091 0.929 . S
C1103 C1097 1.390 . S
C1103 C1100 1.386 . S
C1104 C1099 1.490 . S
C1104 C1106 1.395 . S
C1104 C1107 1.403 . S
H1105 C1111 0.930 . S
C1106 H1092 0.930 . S
C1106 C1104 1.395 . S
C1106 C1109 1.403 . S
C1107 C1104 1.403 . S
C1107 C1108 1.524 . S
C1107 C1111 1.400 . S
C1108 H1093 0.960 . S
C1108 H1094 0.960 . S
C1108 H1095 0.960 . S
C1108 C1107 1.524 . S
C1109 C1106 1.403 . S
C1109 C1110 1.392 . S
C1109 C1113 1.495 . S
C1110 C1109 1.392 . S
C1110 C1111 1.385 . S
C1110 C1112 1.478 . S
C1111 H1105 0.930 . S
C1111 C1107 1.400 . S
C1111 C1110 1.385 . S
C1112 C1110 1.478 . S
C1112 C1114 1.381 . S
C1112 C1118 1.383 . S
C1113 C1109 1.495 . S
C1113 H1119 0.959 . S
C1113 H1120 0.961 . S
C1113 H1121 0.960 . S
C1114 C1112 1.381 . S
C1114 C1115 1.394 . S
C1114 H1122 0.930 . S
C1115 C1114 1.394 . S
C1115 C1116 1.383 . S
C1115 H1123 0.929 . S
C1116 C1115 1.383 . S
C1116 C1117 1.377 . S
C1117 H1101 0.930 . S
C1117 C1116 1.377 . S
C1117 C1118 1.379 . S
C1118 H1102 0.931 . S
C1118 C1112 1.383 . S
C1118 C1117 1.379 . S
H1119 C1113 0.959 . S
H1120 C1113 0.961 . S
H1121 C1113 0.960 . S
H1122 C1114 0.930 . S
H1123 C1115 0.929 . S
H1124 C1132 0.929 . S
H1125 C1134 0.930 . S
H1126 C1136 0.930 . S
H1127 C1139 0.929 . S
H1128 C1142 0.930 . S
H1129 C1144 0.960 . S
H1130 C1144 0.960 . S
H1131 C1144 0.960 . S
C1132 H1124 0.929 . S
C1132 C1133 1.377 . S
C1132 C1134 1.384 . S
C1133 C1132 1.377 . S
C1133 C1139 1.390 . S
C1134 H1125 0.930 . S
C1134 C1132 1.384 . S
C1134 C1135 1.372 . S
C1135 C1134 1.372 . S
C1135 C1136 1.400 . S
C1135 C1140 1.490 . S
C1136 H1126 0.930 . S
C1136 C1135 1.400 . S
C1136 C1139 1.386 . S
H1137 C1153 0.930 . S
H1138 C1154 0.931 . S
C1139 H1127 0.929 . S
C1139 C1133 1.390 . S
C1139 C1136 1.386 . S
C1140 C1135 1.490 . S
C1140 C1142 1.395 . S
C1140 C1143 1.403 . S
H1141 C1147 0.930 . S
C1142 H1128 0.930 . S
C1142 C1140 1.395 . S
C1142 C1145 1.403 . S
C1143 C1140 1.403 . S
C1143 C1144 1.524 . S
C1143 C1147 1.400 . S
C1144 H1129 0.960 . S
C1144 H1130 0.960 . S
C1144 H1131 0.960 . S
C1144 C1143 1.524 . S
C1145 C1142 1.403 . S
C1145 C1146 1.392 . S
C1145 C1149 1.495 . S
C1146 C1145 1.392 . S
C1146 C1147 1.385 . S
C1146 C1148 1.478 . S
C1147 H1141 0.930 . S
C1147 C1143 1.400 . S
C1147 C1146 1.385 . S
C1148 C1146 1.478 . S
C1148 C1150 1.381 . S
C1148 C1154 1.383 . S
C1149 C1145 1.495 . S
C1149 H1155 0.959 . S
C1149 H1156 0.961 . S
C1149 H1157 0.960 . S
C1150 C1148 1.381 . S
C1150 C1151 1.394 . S
C1150 H1158 0.930 . S
C1151 C1150 1.394 . S
C1151 C1152 1.383 . S
C1151 H1159 0.929 . S
C1152 C1151 1.383 . S
C1152 C1153 1.377 . S
C1153 H1137 0.930 . S
C1153 C1152 1.377 . S
C1153 C1154 1.379 . S
C1154 H1138 0.931 . S
C1154 C1148 1.383 . S
C1154 C1153 1.379 . S
H1155 C1149 0.959 . S
H1156 C1149 0.961 . S
H1157 C1149 0.960 . S
H1158 C1150 0.930 . S
H1159 C1151 0.929 . S
H1160 C1168 0.929 . S
H1161 C1170 0.930 . S
H1162 C1172 0.930 . S
H1163 C1175 0.929 . S
H1164 C1178 0.930 . S
H1165 C1180 0.960 . S
H1166 C1180 0.960 . S
H1167 C1180 0.960 . S
C1168 H1160 0.929 . S
C1168 C1169 1.377 . S
C1168 C1170 1.384 . S
C1169 C1168 1.377 . S
C1169 C1175 1.390 . S
C1170 H1161 0.930 . S
C1170 C1168 1.384 . S
C1170 C1171 1.372 . S
C1171 C1170 1.372 . S
C1171 C1172 1.400 . S
C1171 C1176 1.490 . S
C1172 H1162 0.930 . S
C1172 C1171 1.400 . S
C1172 C1175 1.386 . S
H1173 C1189 0.930 . S
H1174 C1190 0.931 . S
C1175 H1163 0.929 . S
C1175 C1169 1.390 . S
C1175 C1172 1.386 . S
C1176 C1171 1.490 . S
C1176 C1178 1.395 . S
C1176 C1179 1.403 . S
H1177 C1183 0.930 . S
C1178 H1164 0.930 . S
C1178 C1176 1.395 . S
C1178 C1181 1.403 . S
C1179 C1176 1.403 . S
C1179 C1180 1.524 . S
C1179 C1183 1.400 . S
C1180 H1165 0.960 . S
C1180 H1166 0.960 . S
C1180 H1167 0.960 . S
C1180 C1179 1.524 . S
C1181 C1178 1.403 . S
C1181 C1182 1.392 . S
C1181 C1185 1.495 . S
C1182 C1181 1.392 . S
C1182 C1183 1.385 . S
C1182 C1184 1.478 . S
C1183 H1177 0.930 . S
C1183 C1179 1.400 . S
C1183 C1182 1.385 . S
C1184 C1182 1.478 . S
C1184 C1186 1.381 . S
C1184 C1190 1.383 . S
C1185 C1181 1.495 . S
C1185 H1191 0.959 . S
C1185 H1192 0.961 . S
C1185 H1193 0.960 . S
C1186 C1184 1.381 . S
C1186 C1187 1.394 . S
C1186 H1194 0.930 . S
C1187 C1186 1.394 . S
C1187 C1188 1.383 . S
C1187 H1195 0.929 . S
C1188 C1187 1.383 . S
C1188 C1189 1.377 . S
C1189 H1173 0.930 . S
C1189 C1188 1.377 . S
C1189 C1190 1.379 . S
C1190 H1174 0.931 . S
C1190 C1184 1.383 . S
C1190 C1189 1.379 . S
H1191 C1185 0.959 . S
H1192 C1185 0.961 . S
H1193 C1185 0.960 . S
H1194 C1186 0.930 . S
H1195 C1187 0.929 . S
H1196 C1204 0.929 . S
H1197 C1206 0.930 . S
H1198 C1208 0.930 . S
H1199 C1211 0.929 . S
H1200 C1214 0.930 . S
H1201 C1216 0.960 . S
H1202 C1216 0.960 . S
H1203 C1216 0.960 . S
C1204 H1196 0.929 . S
C1204 C1205 1.377 . S
C1204 C1206 1.384 . S
C1205 C1204 1.377 . S
C1205 C1211 1.390 . S
C1206 H1197 0.930 . S
C1206 C1204 1.384 . S
C1206 C1207 1.372 . S
C1207 C1206 1.372 . S
C1207 C1208 1.400 . S
C1207 C1212 1.490 . S
C1208 H1198 0.930 . S
C1208 C1207 1.400 . S
C1208 C1211 1.386 . S
H1209 C1225 0.930 . S
H1210 C1226 0.931 . S
C1211 H1199 0.929 . S
C1211 C1205 1.390 . S
C1211 C1208 1.386 . S
C1212 C1207 1.490 . S
C1212 C1214 1.395 . S
C1212 C1215 1.403 . S
H1213 C1219 0.930 . S
C1214 H1200 0.930 . S
C1214 C1212 1.395 . S
C1214 C1217 1.403 . S
C1215 C1212 1.403 . S
C1215 C1216 1.524 . S
C1215 C1219 1.400 . S
C1216 H1201 0.960 . S
C1216 H1202 0.960 . S
C1216 H1203 0.960 . S
C1216 C1215 1.524 . S
C1217 C1214 1.403 . S
C1217 C1218 1.392 . S
C1217 C1221 1.495 . S
C1218 C1217 1.392 . S
C1218 C1219 1.385 . S
C1218 C1220 1.478 . S
C1219 H1213 0.930 . S
C1219 C1215 1.400 . S
C1219 C1218 1.385 . S
C1220 C1218 1.478 . S
C1220 C1222 1.381 . S
C1220 C1226 1.383 . S
C1221 C1217 1.495 . S
C1221 H1227 0.959 . S
C1221 H1228 0.961 . S
C1221 H1229 0.960 . S
C1222 C1220 1.381 . S
C1222 C1223 1.394 . S
C1222 H1230 0.930 . S
C1223 C1222 1.394 . S
C1223 C1224 1.383 . S
C1223 H1231 0.929 . S
C1224 C1223 1.383 . S
C1224 C1225 1.377 . S
C1225 H1209 0.930 . S
C1225 C1224 1.377 . S
C1225 C1226 1.379 . S
C1226 H1210 0.931 . S
C1226 C1220 1.383 . S
C1226 C1225 1.379 . S
H1227 C1221 0.959 . S
H1228 C1221 0.961 . S
H1229 C1221 0.960 . S
H1230 C1222 0.930 . S
H1231 C1223 0.929 . S
H1232 C1240 0.929 . S
H1233 C1242 0.930 . S
H1234 C1244 0.930 . S
H1235 C1247 0.929 . S
H1236 C1250 0.930 1_545 S
H1237 C1252 0.960 . S
H1238 C1252 0.960 . S
H1239 C1252 0.960 . S
C1240 H1232 0.929 . S
C1240 C1241 1.377 . S
C1240 C1242 1.384 . S
C1241 C1240 1.377 . S
C1241 C1247 1.390 . S
C1242 H1233 0.930 . S
C1242 C1240 1.384 . S
C1242 C1243 1.404 . S
C1243 C1242 1.404 . S
C1243 C1244 1.396 1_545 S
C1243 C1248 1.463 1_545 S
C1244 H1234 0.930 . S
C1244 C1243 1.396 1_565 S
C1244 C1247 1.386 1_565 S
H1245 C1261 0.930 . S
H1246 C1262 0.931 . S
C1247 H1235 0.929 . S
C1247 C1241 1.390 . S
C1247 C1244 1.386 1_545 S
C1248 C1243 1.463 1_565 S
C1248 C1250 1.395 . S
C1248 C1251 1.403 . S
H1249 C1255 0.930 . S
C1250 H1236 0.930 1_565 S
C1250 C1248 1.395 . S
C1250 C1253 1.403 . S
C1251 C1248 1.403 . S
C1251 C1252 1.524 . S
C1251 C1255 1.400 . S
C1252 H1237 0.960 . S
C1252 H1238 0.960 . S
C1252 H1239 0.960 . S
C1252 C1251 1.524 . S
C1253 C1250 1.403 . S
C1253 C1254 1.392 . S
C1253 C1257 1.495 . S
C1254 C1253 1.392 . S
C1254 C1255 1.385 . S
C1254 C1256 1.478 . S
C1255 H1249 0.930 . S
C1255 C1251 1.400 . S
C1255 C1254 1.385 . S
C1256 C1254 1.478 . S
C1256 C1258 1.381 . S
C1256 C1262 1.383 . S
C1257 C1253 1.495 . S
C1257 H1263 0.959 . S
C1257 H1264 0.961 . S
C1257 H1265 0.960 . S
C1258 C1256 1.381 . S
C1258 C1259 1.394 . S
C1258 H1266 0.930 . S
C1259 C1258 1.394 . S
C1259 C1260 1.383 . S
C1259 H1267 0.929 . S
C1260 C1259 1.383 . S
C1260 C1261 1.377 . S
C1261 H1245 0.930 . S
C1261 C1260 1.377 . S
C1261 C1262 1.379 . S
C1262 H1246 0.931 . S
C1262 C1256 1.383 . S
C1262 C1261 1.379 . S
H1263 C1257 0.959 . S
H1264 C1257 0.961 . S
H1265 C1257 0.960 . S
H1266 C1258 0.930 . S
H1267 C1259 0.929 . S
H1268 C1276 0.929 . S
H1269 C1278 0.930 . S
H1270 C1280 0.930 . S
H1271 C1283 0.929 . S
H1272 C1286 0.930 . S
H1273 C1288 0.960 . S
H1274 C1288 0.960 . S
H1275 C1288 0.960 . S
C1276 H1268 0.929 . S
C1276 C1277 1.377 . S
C1276 C1278 1.384 . S
C1277 C1276 1.377 . S
C1277 C1283 1.390 . S
C1278 H1269 0.930 . S
C1278 C1276 1.384 . S
C1278 C1279 1.372 . S
C1279 C1278 1.372 . S
C1279 C1280 1.400 . S
C1279 C1284 1.490 . S
C1280 H1270 0.930 . S
C1280 C1279 1.400 . S
C1280 C1283 1.386 . S
H1281 C1297 0.930 . S
H1282 C1298 0.931 . S
C1283 H1271 0.929 . S
C1283 C1277 1.390 . S
C1283 C1280 1.386 . S
C1284 C1279 1.490 . S
C1284 C1286 1.395 . S
C1284 C1287 1.403 . S
H1285 C1291 0.930 . S
C1286 H1272 0.930 . S
C1286 C1284 1.395 . S
C1286 C1289 1.403 . S
C1287 C1284 1.403 . S
C1287 C1288 1.524 . S
C1287 C1291 1.400 . S
C1288 H1273 0.960 . S
C1288 H1274 0.960 . S
C1288 H1275 0.960 . S
C1288 C1287 1.524 . S
C1289 C1286 1.403 . S
C1289 C1290 1.392 . S
C1289 C1293 1.495 . S
C1290 C1289 1.392 . S
C1290 C1291 1.385 . S
C1290 C1292 1.478 . S
C1291 H1285 0.930 . S
C1291 C1287 1.400 . S
C1291 C1290 1.385 . S
C1292 C1290 1.478 . S
C1292 C1294 1.381 . S
C1292 C1298 1.383 . S
C1293 C1289 1.495 . S
C1293 H1299 0.959 . S
C1293 H1300 0.961 . S
C1293 H1301 0.960 . S
C1294 C1292 1.381 . S
C1294 C1295 1.394 . S
C1294 H1302 0.930 . S
C1295 C1294 1.394 . S
C1295 C1296 1.383 . S
C1295 H1303 0.929 . S
C1296 C1295 1.383 . S
C1296 C1297 1.377 . S
C1297 H1281 0.930 . S
C1297 C1296 1.377 . S
C1297 C1298 1.379 . S
C1298 H1282 0.931 . S
C1298 C1292 1.383 . S
C1298 C1297 1.379 . S
H1299 C1293 0.959 . S
H1300 C1293 0.961 . S
H1301 C1293 0.960 . S
H1302 C1294 0.930 . S
H1303 C1295 0.929 . S
H1304 C1312 0.929 . S
H1305 C1314 0.930 . S
H1306 C1316 0.930 . S
H1307 C1319 0.929 . S
H1308 C1322 0.930 . S
H1309 C1324 0.960 . S
H1310 C1324 0.960 . S
H1311 C1324 0.960 . S
C1312 H1304 0.929 . S
C1312 C1313 1.377 . S
C1312 C1314 1.384 . S
C1313 C1312 1.377 . S
C1313 C1319 1.390 . S
C1314 H1305 0.930 . S
C1314 C1312 1.384 . S
C1314 C1315 1.372 . S
C1315 C1314 1.372 . S
C1315 C1316 1.400 . S
C1315 C1320 1.490 . S
C1316 H1306 0.930 . S
C1316 C1315 1.400 . S
C1316 C1319 1.386 . S
H1317 C1333 0.930 . S
H1318 C1334 0.931 . S
C1319 H1307 0.929 . S
C1319 C1313 1.390 . S
C1319 C1316 1.386 . S
C1320 C1315 1.490 . S
C1320 C1322 1.395 . S
C1320 C1323 1.403 . S
H1321 C1327 0.930 . S
C1322 H1308 0.930 . S
C1322 C1320 1.395 . S
C1322 C1325 1.403 . S
C1323 C1320 1.403 . S
C1323 C1324 1.524 . S
C1323 C1327 1.400 . S
C1324 H1309 0.960 . S
C1324 H1310 0.960 . S
C1324 H1311 0.960 . S
C1324 C1323 1.524 . S
C1325 C1322 1.403 . S
C1325 C1326 1.392 . S
C1325 C1329 1.495 1_455 S
C1326 C1325 1.392 . S
C1326 C1327 1.385 . S
C1326 C1328 1.478 1_455 S
C1327 H1321 0.930 . S
C1327 C1323 1.400 . S
C1327 C1326 1.385 . S
C1328 C1326 1.478 1_655 S
C1328 C1330 1.381 . S
C1328 C1334 1.383 . S
C1329 C1325 1.495 1_655 S
C1329 H1335 0.959 . S
C1329 H1336 0.961 . S
C1329 H1337 0.960 . S
C1330 C1328 1.381 . S
C1330 C1331 1.394 . S
C1330 H1338 0.930 . S
C1331 C1330 1.394 . S
C1331 C1332 1.383 . S
C1331 H1339 0.929 . S
C1332 C1331 1.383 . S
C1332 C1333 1.377 . S
C1333 H1317 0.930 . S
C1333 C1332 1.377 . S
C1333 C1334 1.379 . S
C1334 H1318 0.931 . S
C1334 C1328 1.383 . S
C1334 C1333 1.379 . S
H1335 C1329 0.959 . S
H1336 C1329 0.961 . S
H1337 C1329 0.960 . S
H1338 C1330 0.930 . S
H1339 C1331 0.929 . S
H1340 C1348 0.929 . S
H1341 C1350 0.930 . S
H1342 C1352 0.930 . S
H1343 C1355 0.929 . S
H1344 C1358 0.930 . S
H1345 C1360 0.960 . S
H1346 C1360 0.960 1_565 S
H1347 C1360 0.960 . S
C1348 H1340 0.929 . S
C1348 C1349 1.377 . S
C1348 C1350 1.384 . S
C1349 C1348 1.377 . S
C1349 C1355 1.390 . S
C1350 H1341 0.930 . S
C1350 C1348 1.384 . S
C1350 C1351 1.417 . S
C1351 C1350 1.417 . S
C1351 C1352 1.395 1_565 S
C1351 C1356 1.452 1_565 S
C1352 H1342 0.930 . S
C1352 C1351 1.395 1_545 S
C1352 C1355 1.386 1_545 S
H1353 C1369 0.930 . S
H1354 C1370 0.931 . S
C1355 H1343 0.929 . S
C1355 C1349 1.390 . S
C1355 C1352 1.386 1_565 S
C1356 C1351 1.452 1_545 S
C1356 C1358 1.395 . S
C1356 C1359 1.403 . S
H1357 C1363 0.930 . S
C1358 H1344 0.930 . S
C1358 C1356 1.395 . S
C1358 C1361 1.403 . S
C1359 C1356 1.403 . S
C1359 C1360 1.524 . S
C1359 C1363 1.400 . S
C1360 H1345 0.960 . S
C1360 H1346 0.960 1_545 S
C1360 H1347 0.960 . S
C1360 C1359 1.524 . S
C1361 C1358 1.403 . S
C1361 C1362 1.392 . S
C1361 C1365 1.495 . S
C1362 C1361 1.392 . S
C1362 C1363 1.385 . S
C1362 C1364 1.481 . S
C1363 H1357 0.930 . S
C1363 C1359 1.400 . S
C1363 C1362 1.385 . S
C1364 C1362 1.481 . S
C1364 C1366 1.377 1_655 S
C1364 C1370 1.383 . S
C1365 C1361 1.495 . S
C1365 H1371 0.959 . S
C1365 H1372 0.961 . S
C1365 H1373 0.960 . S
C1366 C1364 1.377 1_455 S
C1366 C1367 1.394 . S
C1366 H1374 0.930 . S
C1367 C1366 1.394 . S
C1367 C1368 1.383 . S
C1367 H1375 0.929 . S
C1368 C1367 1.383 . S
C1368 C1369 1.377 . S
C1369 H1353 0.930 . S
C1369 C1368 1.377 . S
C1369 C1370 1.379 1_455 S
C1370 H1354 0.931 . S
C1370 C1364 1.383 . S
C1370 C1369 1.379 1_655 S
H1371 C1365 0.959 . S
H1372 C1365 0.961 . S
H1373 C1365 0.960 . S
H1374 C1366 0.930 . S
H1375 C1367 0.929 . S
H1376 C1384 0.929 . S
H1377 C1386 0.930 . S
H1378 C1388 0.930 . S
H1379 C1391 0.929 . S
H1380 C1394 0.930 . S
H1381 C1396 0.960 . S
H1382 C1396 0.960 . S
H1383 C1396 0.960 . S
C1384 H1376 0.929 . S
C1384 C1385 1.377 . S
C1384 C1386 1.384 . S
C1385 C1384 1.377 . S
C1385 C1391 1.390 . S
C1386 H1377 0.930 . S
C1386 C1384 1.384 . S
C1386 C1387 1.372 . S
C1387 C1386 1.372 . S
C1387 C1388 1.400 . S
C1387 C1392 1.490 . S
C1388 H1378 0.930 . S
C1388 C1387 1.400 . S
C1388 C1391 1.386 . S
H1389 C1405 0.930 . S
H1390 C1406 0.931 . S
C1391 H1379 0.929 . S
C1391 C1385 1.390 . S
C1391 C1388 1.386 . S
C1392 C1387 1.490 . S
C1392 C1394 1.395 . S
C1392 C1395 1.403 . S
H1393 C1399 0.930 . S
C1394 H1380 0.930 . S
C1394 C1392 1.395 . S
C1394 C1397 1.403 . S
C1395 C1392 1.403 . S
C1395 C1396 1.524 . S
C1395 C1399 1.400 . S
C1396 H1381 0.960 . S
C1396 H1382 0.960 . S
C1396 H1383 0.960 . S
C1396 C1395 1.524 . S
C1397 C1394 1.403 . S
C1397 C1398 1.392 . S
C1397 C1401 1.495 . S
C1398 C1397 1.392 . S
C1398 C1399 1.385 . S
C1398 C1400 1.478 . S
C1399 H1393 0.930 . S
C1399 C1395 1.400 . S
C1399 C1398 1.385 . S
C1400 C1398 1.478 . S
C1400 C1402 1.381 . S
C1400 C1406 1.383 . S
C1401 C1397 1.495 . S
C1401 H1407 0.959 . S
C1401 H1408 0.961 . S
C1401 H1409 0.960 . S
C1402 C1400 1.381 . S
C1402 C1403 1.394 . S
C1402 H1410 0.930 . S
C1403 C1402 1.394 . S
C1403 C1404 1.383 . S
C1403 H1411 0.929 . S
C1404 C1403 1.383 . S
C1404 C1405 1.377 . S
C1405 H1389 0.930 . S
C1405 C1404 1.377 . S
C1405 C1406 1.379 . S
C1406 H1390 0.931 . S
C1406 C1400 1.383 . S
C1406 C1405 1.379 . S
H1407 C1401 0.959 . S
H1408 C1401 0.961 . S
H1409 C1401 0.960 . S
H1410 C1402 0.930 . S
H1411 C1403 0.929 . S
H1412 C1420 0.929 . S
H1413 C1422 0.930 . S
H1414 C1424 0.944 . S
H1415 C1427 0.929 . S
H1416 C1430 0.930 1_455 S
H1417 C1432 0.960 . S
H1418 C1432 0.960 . S
H1419 C1432 0.960 . S
C1420 H1412 0.929 . S
C1420 C1421 1.377 . S
C1420 C1422 1.384 . S
C1421 C1420 1.377 . S
C1421 C1427 1.390 . S
C1422 H1413 0.930 . S
C1422 C1420 1.384 . S
C1422 C1423 1.398 . S
C1423 C1422 1.398 . S
C1423 C1424 1.398 1_455 S
C1423 C1428 1.467 1_455 S
C1424 H1414 0.944 . S
C1424 C1423 1.398 1_655 S
C1424 C1427 1.373 1_655 S
H1425 C1441 0.930 . S
H1426 C1442 0.931 . S
C1427 H1415 0.929 . S
C1427 C1421 1.390 . S
C1427 C1424 1.373 1_455 S
C1428 C1423 1.467 1_655 S
C1428 C1430 1.395 . S
C1428 C1431 1.403 . S
H1429 C1435 0.930 . S
C1430 H1416 0.930 1_655 S
C1430 C1428 1.395 . S
C1430 C1433 1.403 . S
C1431 C1428 1.403 . S
C1431 C1432 1.524 . S
C1431 C1435 1.400 . S
C1432 H1417 0.960 . S
C1432 H1418 0.960 . S
C1432 H1419 0.960 . S
C1432 C1431 1.524 . S
C1433 C1430 1.403 . S
C1433 C1434 1.392 . S
C1433 C1437 1.495 . S
C1434 C1433 1.392 . S
C1434 C1435 1.385 . S
C1434 C1436 1.478 . S
C1435 H1429 0.930 . S
C1435 C1431 1.400 . S
C1435 C1434 1.385 . S
C1436 C1434 1.478 . S
C1436 C1438 1.381 . S
C1436 C1442 1.383 . S
C1437 C1433 1.495 . S
C1437 H1443 0.963 . S
C1437 H1444 0.961 . S
C1437 H1445 0.960 . S
C1438 C1436 1.381 . S
C1438 C1439 1.394 . S
C1438 H1446 0.930 . S
C1439 C1438 1.394 . S
C1439 C1440 1.383 . S
C1439 H1447 0.929 . S
C1440 C1439 1.383 . S
C1440 C1441 1.377 . S
C1441 H1425 0.930 . S
C1441 C1440 1.377 . S
C1441 C1442 1.379 . S
C1442 H1426 0.931 . S
C1442 C1436 1.383 . S
C1442 C1441 1.379 . S
H1443 C1437 0.963 . S
H1444 C1437 0.961 . S
H1445 C1437 0.960 . S
H1446 C1438 0.930 . S
H1447 C1439 0.929 . S
H1448 C1456 0.929 . S
H1449 C1458 0.930 . S
H1450 C1460 0.930 . S
H1451 C1463 0.929 . S
H1452 C1466 0.930 . S
H1453 C1468 0.960 . S
H1454 C1468 0.960 . S
H1455 C1468 0.947 1_655 S
C1456 H1448 0.929 . S
C1456 C1457 1.377 . S
C1456 C1458 1.384 1_655 S
C1457 C1456 1.377 . S
C1457 C1463 1.390 . S
C1458 H1449 0.930 . S
C1458 C1456 1.384 1_455 S
C1458 C1459 1.378 . S
C1459 C1458 1.378 . S
C1459 C1460 1.371 1_455 S
C1459 C1464 1.512 . S
C1460 H1450 0.930 . S
C1460 C1459 1.371 1_655 S
C1460 C1463 1.386 . S
H1461 C1477 0.930 . S
H1462 C1478 0.931 . S
C1463 H1451 0.929 . S
C1463 C1457 1.390 . S
C1463 C1460 1.386 . S
C1464 C1459 1.512 . S
C1464 C1466 1.395 . S
C1464 C1467 1.403 . S
H1465 C1471 0.930 . S
C1466 H1452 0.930 . S
C1466 C1464 1.395 . S
C1466 C1469 1.403 . S
C1467 C1464 1.403 . S
C1467 C1468 1.524 . S
C1467 C1471 1.400 . S
C1468 H1453 0.960 . S
C1468 H1454 0.960 . S
C1468 H1455 0.947 1_455 S
C1468 C1467 1.524 . S
C1469 C1466 1.403 . S
C1469 C1470 1.392 . S
C1469 C1473 1.495 . S
C1470 C1469 1.392 . S
C1470 C1471 1.385 . S
C1470 C1472 1.479 . S
C1471 H1465 0.930 . S
C1471 C1467 1.400 . S
C1471 C1470 1.385 . S
C1472 C1470 1.479 . S
C1472 C1474 1.382 . S
C1472 C1478 1.381 1_565 S
C1473 C1469 1.495 . S
C1473 H1479 0.959 . S
C1473 H1480 0.961 . S
C1473 H1481 0.960 . S
C1474 C1472 1.382 . S
C1474 C1475 1.394 1_565 S
C1474 H1482 0.930 . S
C1475 C1474 1.394 1_545 S
C1475 C1476 1.383 . S
C1475 H1483 0.929 . S
C1476 C1475 1.383 . S
C1476 C1477 1.377 . S
C1477 H1461 0.930 . S
C1477 C1476 1.377 . S
C1477 C1478 1.379 . S
C1478 H1462 0.931 . S
C1478 C1472 1.381 1_545 S
C1478 C1477 1.379 . S
H1479 C1473 0.959 . S
H1480 C1473 0.961 . S
H1481 C1473 0.960 . S
H1482 C1474 0.930 . S
H1483 C1475 0.929 . S
H1484 C1492 0.929 . S
H1485 C1494 0.930 1_545 S
H1486 C1496 0.930 . S
H1487 C1499 0.929 . S
H1488 C1502 0.930 . S
H1489 C1504 0.960 . S
H1490 C1504 0.960 . S
H1491 C1504 0.960 . S
C1492 H1484 0.929 . S
C1492 C1493 1.377 . S
C1492 C1494 1.384 . S
C1493 C1492 1.377 . S
C1493 C1499 1.390 . S
C1494 H1485 0.930 1_565 S
C1494 C1492 1.384 . S
C1494 C1495 1.372 . S
C1495 C1494 1.372 . S
C1495 C1496 1.401 . S
C1495 C1500 1.488 1_565 S
C1496 H1486 0.930 . S
C1496 C1495 1.401 . S
C1496 C1499 1.386 . S
H1497 C1513 0.930 . S
H1498 C1514 0.931 . S
C1499 H1487 0.929 . S
C1499 C1493 1.390 . S
C1499 C1496 1.386 . S
C1500 C1495 1.488 1_545 S
C1500 C1502 1.395 . S
C1500 C1503 1.403 . S
H1501 C1507 0.930 . S
C1502 H1488 0.930 . S
C1502 C1500 1.395 . S
C1502 C1505 1.403 . S
C1503 C1500 1.403 . S
C1503 C1504 1.524 1_545 S
C1503 C1507 1.400 . S
C1504 H1489 0.960 . S
C1504 H1490 0.960 . S
C1504 H1491 0.960 . S
C1504 C1503 1.524 1_565 S
C1505 C1502 1.403 . S
C1505 C1506 1.392 . S
C1505 C1509 1.495 . S
C1506 C1505 1.392 . S
C1506 C1507 1.385 . S
C1506 C1508 1.478 . S
C1507 H1501 0.930 . S
C1507 C1503 1.400 . S
C1507 C1506 1.385 . S
C1508 C1506 1.478 . S
C1508 C1510 1.381 . S
C1508 C1514 1.383 . S
C1509 C1505 1.495 . S
C1509 H1515 0.959 . S
C1509 H1516 0.961 . S
C1509 H1517 0.960 . S
C1510 C1508 1.381 . S
C1510 C1511 1.394 . S
C1510 H1518 0.930 . S
C1511 C1510 1.394 . S
C1511 C1512 1.383 . S
C1511 H1519 0.929 . S
C1512 C1511 1.383 . S
C1512 C1513 1.377 . S
C1513 H1497 0.930 . S
C1513 C1512 1.377 . S
C1513 C1514 1.379 . S
C1514 H1498 0.931 . S
C1514 C1508 1.383 . S
C1514 C1513 1.379 . S
H1515 C1509 0.959 . S
H1516 C1509 0.961 . S
H1517 C1509 0.960 . S
H1518 C1510 0.930 . S
H1519 C1511 0.929 . S
C377 C168 1.678 . S
C396 C7 1.659 . S
C413 C99 1.677 . S
C432 C30 1.688 . S
C449 C122 1.679 . S
C468 C53 1.683 . S
C485 C76 1.679 . S
C504 C145 1.660 . S
C521 C352 1.678 . S
C540 C191 1.661 . S
C557 C283 1.677 . S
C576 C214 1.664 . S
C593 C237 1.680 . S
C612 C306 1.671 . S
C629 C260 1.679 . S
C648 C329 1.676 . S
C665 N48 1.256 . S
C684 N2 1.228 . S
C701 N25 1.265 . S
C720 N71 1.280 . S
C737 N94 1.256 . S
C756 N140 1.227 . S
C773 N163 1.259 . S
C792 N117 1.231 . S
C809 N186 1.259 . S
C828 N232 1.239 . S
C845 N209 1.258 . S
C864 N255 1.249 . S
C881 N324 1.264 . S
C900 N278 1.227 . S
C917 N301 1.260 . S
C936 N347 1.235 . S
C953 C154 1.661 . S
C972 C16 1.648 . S
C989 C39 1.661 . S
C1008 C177 1.657 . S
C1025 C62 1.662 . S
C1044 C108 1.654 . S
C1061 C85 1.663 . S
C1080 C131 1.660 . S
C1097 C200 1.665 . S
C1116 C338 1.646 . S
C1133 C223 1.662 . S
C1152 C361 1.645 . S
C1169 C246 1.661 . S
C1188 C292 1.674 . S
C1205 C269 1.661 . S
C1224 C315 1.648 . S
C1241 N12 1.460 . S
C1260 N357 1.453 . S
C1277 N288 1.460 . S
C1296 N35 1.446 . S
C1313 N58 1.458 . S
C1332 N311 1.465 . S
C1349 N334 1.457 . S
C1368 N81 1.468 . S
C1385 N219 1.457 . S
C1404 N104 1.466 . S
C1421 N127 1.459 . S
C1440 N242 1.456 . S
C1457 N265 1.457 . S
C1476 N150 1.433 . S
C1493 N196 1.460 . S
C1512 N173 1.446 . S
