# Generated by pormake.
# Topology yfh, (5)-cn, num edge types: 1
# Building blocks:
#     Node 0, Type 0, BuildingBlock: XOMCOT_clean_sbu_0, # of connection points: 5
#     Node 1, Type 0, BuildingBlock: XOMCOT_clean_sbu_0, # of connection points: 5
#     Node 2, Type 0, BuildingBlock: XOMCOT_clean_sbu_0, # of connection points: 5
#     Node 3, Type 0, BuildingBlock: XOMCOT_clean_sbu_0, # of connection points: 5
#     Node 4, Type 0, BuildingBlock: XOMCOT_clean_sbu_0, # of connection points: 5
#     Node 5, Type 0, BuildingBlock: XOMCOT_clean_sbu_0, # of connection points: 5
#     Node 6, Type 0, BuildingBlock: XOMCOT_clean_sbu_0, # of connection points: 5
#     Node 7, Type 0, BuildingBlock: XOMCOT_clean_sbu_0, # of connection points: 5
#     Edge 8, Type (0, 0), BuildingBlock: AJUNOK_clean_linker_0, # of connection points: 2
#     Edge 9, Type (0, 0), BuildingBlock: AJUNOK_clean_linker_0, # of connection points: 2
#     Edge 10, Type (0, 0), BuildingBlock: AJUNOK_clean_linker_0, # of connection points: 2
#     Edge 11, Type (0, 0), BuildingBlock: AJUNOK_clean_linker_0, # of connection points: 2
#     Edge 12, Type (0, 0), BuildingBlock: AJUNOK_clean_linker_0, # of connection points: 2
#     Edge 13, Type (0, 0), BuildingBlock: AJUNOK_clean_linker_0, # of connection points: 2
#     Edge 14, Type (0, 0), BuildingBlock: AJUNOK_clean_linker_0, # of connection points: 2
#     Edge 15, Type (0, 0), BuildingBlock: AJUNOK_clean_linker_0, # of connection points: 2
#     Edge 16, Type (0, 0), BuildingBlock: AJUNOK_clean_linker_0, # of connection points: 2
#     Edge 17, Type (0, 0), BuildingBlock: AJUNOK_clean_linker_0, # of connection points: 2
#     Edge 18, Type (0, 0), BuildingBlock: AJUNOK_clean_linker_0, # of connection points: 2
#     Edge 19, Type (0, 0), BuildingBlock: AJUNOK_clean_linker_0, # of connection points: 2
#     Edge 20, Type (0, 0), BuildingBlock: AJUNOK_clean_linker_0, # of connection points: 2
#     Edge 21, Type (0, 0), BuildingBlock: AJUNOK_clean_linker_0, # of connection points: 2
#     Edge 22, Type (0, 0), BuildingBlock: AJUNOK_clean_linker_0, # of connection points: 2
#     Edge 23, Type (0, 0), BuildingBlock: AJUNOK_clean_linker_0, # of connection points: 2
#     Edge 24, Type (0, 0), BuildingBlock: AJUNOK_clean_linker_0, # of connection points: 2
#     Edge 25, Type (0, 0), BuildingBlock: AJUNOK_clean_linker_0, # of connection points: 2
#     Edge 26, Type (0, 0), BuildingBlock: AJUNOK_clean_linker_0, # of connection points: 2
#     Edge 27, Type (0, 0), BuildingBlock: AJUNOK_clean_linker_0, # of connection points: 2
# Relax obj value: 0.410
# Max RMSD: 0.270
# Mean RMSD: 0.270
data_MOF--net-yfh--node1-XOMCOT_clean_sbu_0--edge1-AJUNOK_clean_linker_0
_symmetry_space_group_name_H-M    P1
_symmetry_Int_Tables_number       1
_symmetry_cell_setting            triclinic
loop_
_symmetry_equiv_pos_as_xyz
'x, y, z'
_cell_length_a     20.594421
_cell_length_b     20.619053
_cell_length_c     47.354359
_cell_angle_alpha  90.757502
_cell_angle_beta   89.96245
_cell_angle_gamma 90.185937
loop_
_atom_site_label
_atom_site_type_symbol
_atom_site_fract_x
_atom_site_fract_y
_atom_site_fract_z
_atom_type_partial_charge
Co0 Co 0.33998 0.03999 0.08197 0.0
C1 C 0.23903 0.07752 0.04156 0.0
C2 C 0.21036 0.99166 0.0634 0.0
C3 C 0.16301 1.0062 0.0439 0.0
N4 N 0.25923 0.03508 0.06104 0.0
N5 N 0.18219 0.05935 0.0299 0.0
H6 H 0.26736 0.11877 0.03479 0.0
H7 H 0.20908 0.95178 0.07796 0.0
C8 C 0.32952 0.89341 0.07791 0.0
O9 O 0.33505 0.89857 0.05054 0.0
N10 N 0.417 0.04743 0.10547 0.0
C11 C 0.45765 0.09885 0.10806 0.0
C12 C 0.49972 0.08824 0.13015 0.0
C13 C 0.43447 1.007 0.12625 0.0
N14 N 0.48524 0.03025 0.14132 0.0
C15 C 0.45973 1.01561 0.04882 0.0
C16 C 0.39987 1.00863 -0.00313 0.0
C17 C 0.4669 1.01688 -0.00219 0.0
C18 C 0.49732 1.01753 0.02416 0.0
C19 C 0.36421 1.00793 0.02182 0.0
N20 N 0.39295 1.01601 0.04786 0.0
H21 H 0.4861 1.015 0.06832 0.0
H22 H 0.31342 0.99845 0.01935 0.0
H23 H 0.45602 0.14187 0.09529 0.0
H24 H 0.40805 0.96346 0.13157 0.0
O25 O 0.34098 0.13275 0.07662 0.0
O26 O 0.2919 0.08438 0.11216 0.0
O27 O 0.32926 0.94485 0.09358 0.0
C28 C 0.30595 0.13838 0.09929 0.0
H29 H 0.11923 0.9786 0.0396 0.0
H30 H 0.53673 0.12129 0.13795 0.0
H31 H 0.37447 1.00538 0.97686 0.0
H32 H 0.5497 1.02101 0.02574 0.0
Co33 Co 0.48937 0.8121 0.3353 0.0
C34 C 0.48575 0.70491 0.29143 0.0
C35 C 0.50606 0.67163 0.3331 0.0
C36 C 0.50405 0.6186 0.31516 0.0
N37 N 0.49387 0.72588 0.31831 0.0
N38 N 0.49229 0.64021 0.28903 0.0
H39 H 0.47397 0.7347 0.27375 0.0
H40 H 0.51501 0.67058 0.35559 0.0
C41 C 0.63011 0.78255 0.3287 0.0
O42 O 0.61549 0.76572 0.30262 0.0
N43 N 0.48572 0.89586 0.35376 0.0
C44 C 0.44354 0.94459 0.34934 0.0
C45 C 0.45274 0.99155 0.37011 0.0
C46 C 0.51998 0.91362 0.37677 0.0
N47 N 0.50101 0.97172 0.38713 0.0
C48 C 0.46081 0.85364 0.27973 0.0
C49 C 0.57156 0.926 0.27028 0.0
C50 C 0.52598 0.91793 0.24854 0.0
C51 C 0.46939 0.88284 0.25382 0.0
C52 C 0.56118 0.89492 0.29613 0.0
N53 N 0.50829 0.85547 0.29983 0.0
H54 H 0.41626 0.82724 0.28306 0.0
H55 H 0.59545 0.90286 0.31309 0.0
H56 H 0.40714 0.94485 0.33289 0.0
H57 H 0.55574 0.88309 0.38671 0.0
O58 O 0.39643 0.81126 0.33141 0.0
O59 O 0.4477 0.77342 0.36855 0.0
O60 O 0.58532 0.80374 0.34532 0.0
C61 C 0.39276 0.78282 0.35546 0.0
H62 H 0.50978 0.56824 0.32081 0.0
H63 H 0.42538 0.03592 0.37285 0.0
H64 H 0.61456 0.95548 0.26726 0.0
H65 H 0.43167 0.87816 0.23795 0.0
Co66 Co 0.71011 0.99056 0.58335 0.0
C67 C 0.81151 0.97715 0.53823 0.0
C68 C 0.84965 1.0109 0.57785 0.0
C69 C 0.90043 1.00464 0.5591 0.0
N70 N 0.79385 0.99351 0.56477 0.0
N71 N 0.87574 0.98437 0.53425 0.0
H72 H 0.77976 0.95802 0.52215 0.0
H73 H 0.85321 0.02616 0.59973 0.0
C74 C 0.74279 0.13167 0.57698 0.0
O75 O 0.75986 0.1172 0.55092 0.0
N76 N 0.62875 0.98857 0.60335 0.0
C77 C 0.57844 0.94702 0.60034 0.0
C78 C 0.53449 0.95886 0.62194 0.0
C79 C 0.61499 0.02482 0.62636 0.0
N80 N 0.55785 1.00805 0.63803 0.0
C81 C 0.65943 0.95728 0.52923 0.0
C82 C 0.59732 0.0721 0.51733 0.0
C83 C 0.60053 0.0231 0.49655 0.0
C84 C 0.63015 0.9646 0.50317 0.0
C85 C 0.62808 0.06268 0.54351 0.0
N86 N 0.6629 1.00739 0.54833 0.0
H87 H 0.68209 0.91135 0.53326 0.0
H88 H 0.62386 0.09983 0.55966 0.0
H89 H 0.57503 0.90945 0.58424 0.0
H90 H 0.64775 0.06055 0.63538 0.0
O91 O 0.71002 0.89733 0.58018 0.0
O92 O 0.75299 0.95109 0.61611 0.0
O93 O 0.72019 0.08695 0.59294 0.0
C94 C 0.7418 0.89532 0.6036 0.0
H95 H 0.95137 1.01329 0.5634 0.0
H96 H 0.48967 0.93286 0.62579 0.0
H97 H 0.57228 0.11711 0.51328 0.0
H98 H 0.63125 0.92461 0.48808 0.0
Co99 Co 0.55697 0.23846 0.83248 0.0
C100 C 0.55987 0.33762 0.78672 0.0
C101 C 0.53148 0.37681 0.82692 0.0
C102 C 0.53171 0.42635 0.80769 0.0
N103 N 0.54939 0.32112 0.81377 0.0
N104 N 0.54857 0.40093 0.78247 0.0
H105 H 0.57731 0.30574 0.77031 0.0
H106 H 0.51953 0.38113 0.84911 0.0
C107 C 0.41429 0.26393 0.82734 0.0
O108 O 0.42575 0.27899 0.80093 0.0
N109 N 0.56358 0.15854 0.85268 0.0
C110 C 0.59042 0.10161 0.8447 0.0
C111 C 0.58787 0.05997 0.86733 0.0
C112 C 0.54601 0.15137 0.87978 0.0
N113 N 0.56081 0.09203 0.88935 0.0
C114 C 0.58718 0.18712 0.77798 0.0
C115 C 0.4745 0.11759 0.76817 0.0
C116 C 0.52122 0.12176 0.7467 0.0
C117 C 0.57878 0.1554 0.75225 0.0
C118 C 0.4849 0.15089 0.79391 0.0
N119 N 0.53884 0.18909 0.79772 0.0
H120 H 0.6323 0.21265 0.78134 0.0
H121 H 0.44969 0.14563 0.81062 0.0
H122 H 0.61119 0.09139 0.82415 0.0
H123 H 0.52294 0.18913 0.89229 0.0
O124 O 0.65029 0.24162 0.82872 0.0
O125 O 0.59711 0.28396 0.86483 0.0
O126 O 0.46117 0.24476 0.84306 0.0
C127 C 0.65281 0.27307 0.85248 0.0
H128 H 0.52117 0.47697 0.81188 0.0
H129 H 0.60564 1.01064 0.86781 0.0
H130 H 0.43039 0.08972 0.765 0.0
H131 H 0.61726 0.15747 0.73665 0.0
Co132 Co 0.82649 0.49292 0.63722 0.0
C133 C 0.71854 0.48913 0.68007 0.0
C134 C 0.68685 0.5143 0.6386 0.0
C135 C 0.63328 0.51226 0.65595 0.0
N136 N 0.74037 0.49931 0.65365 0.0
N137 N 0.6539 0.49703 0.68192 0.0
H138 H 0.74758 0.47468 0.69772 0.0
H139 H 0.68675 0.5252 0.61632 0.0
C140 C 0.79761 0.63433 0.64275 0.0
O141 O 0.78012 0.62145 0.66877 0.0
N142 N 0.91016 0.48737 0.61923 0.0
C143 C 0.95835 0.44458 0.62372 0.0
C144 C 1.00495 0.45226 0.60295 0.0
C145 C 0.92788 0.52045 0.59619 0.0
N146 N 0.98542 0.50025 0.5859 0.0
C147 C 0.8686 0.46727 0.69318 0.0
C148 C 0.94194 0.57798 0.70216 0.0
C149 C 0.93477 0.53345 0.72407 0.0
C150 C 0.89885 0.47697 0.71904 0.0
C151 C 0.90996 0.56644 0.67636 0.0
N152 N 0.87022 0.51353 0.67283 0.0
H153 H 0.84234 0.42249 0.68991 0.0
H154 H 0.91765 0.59976 0.65927 0.0
H155 H 0.95832 0.40865 0.64016 0.0
H156 H 0.8975 0.55603 0.58609 0.0
O157 O 0.82434 0.40008 0.64144 0.0
O158 O 0.78722 0.45011 0.60392 0.0
O159 O 0.81933 0.5884 0.62674 0.0
C160 C 0.79599 0.39566 0.61718 0.0
H161 H 0.58325 0.52035 0.64999 0.0
H162 H 0.04872 0.42396 0.60018 0.0
H163 H 0.9715 0.62111 0.70498 0.0
H164 H 0.89454 0.44003 0.73502 0.0
Co165 Co 0.05649 0.35149 0.88846 0.0
C166 C 0.08486 0.24768 0.9301 0.0
C167 C 1.01333 0.21855 0.89969 0.0
C168 C 1.02317 0.16772 0.91772 0.0
N169 N 0.05027 0.26965 0.90808 0.0
N170 N 0.06824 0.18656 0.93658 0.0
H171 H 0.12319 0.27382 0.94073 0.0
H172 H 0.9821 0.21775 0.88134 0.0
C173 C 0.91311 0.33002 0.89566 0.0
O174 O 0.9257 0.31945 0.9224 0.0
N175 N 0.06185 0.43083 0.86759 0.0
C176 C 0.10521 0.47973 0.87016 0.0
C177 C 0.09535 0.52254 0.84832 0.0
C178 C 0.02636 0.44437 0.84462 0.0
N179 N 0.04551 0.49998 0.83254 0.0
C180 C 0.08665 0.40223 0.94294 0.0
C181 C 0.97959 0.48071 0.95073 0.0
C182 C 0.02656 0.47712 0.97205 0.0
C183 C 0.08073 0.43799 0.96771 0.0
C184 C 0.98796 0.44404 0.92572 0.0
N185 N 0.03925 0.40223 0.92281 0.0
H186 H 0.13123 0.37638 0.93982 0.0
H187 H 0.95364 0.44989 0.90871 0.0
H188 H 0.14255 0.48294 0.88618 0.0
H189 H 0.98922 0.41257 0.83601 0.0
O190 O 0.14946 0.35013 0.89207 0.0
O191 O 0.09694 0.30451 0.85648 0.0
O192 O 0.95991 0.34386 0.87875 0.0
C193 C 0.15243 0.31648 0.86897 0.0
H194 H 1.00098 0.12009 0.91651 0.0
H195 H 0.12306 0.56605 0.8441 0.0
H196 H 0.93803 0.51235 0.95311 0.0
H197 H 0.11896 0.43549 0.98339 0.0
Co198 Co 0.22356 0.54155 0.14019 0.0
C199 C 0.32656 0.54494 0.18502 0.0
C200 C 0.36163 0.51287 0.14463 0.0
C201 C 0.41313 0.51444 0.16315 0.0
N202 N 0.30731 0.53221 0.15832 0.0
N203 N 0.39046 0.53423 0.18844 0.0
H204 H 0.29626 0.56374 0.20168 0.0
H205 H 0.36371 0.49936 0.1225 0.0
C206 C 0.24883 0.39893 0.14283 0.0
O207 O 0.26395 0.40925 0.16947 0.0
N208 N 0.14209 0.55041 0.12063 0.0
C209 C 0.08516 0.57487 0.13001 0.0
C210 C 0.04192 0.57609 0.10768 0.0
C211 C 0.13327 0.53816 0.09295 0.0
N212 N 0.07286 0.55348 0.08452 0.0
C213 C 0.17455 0.56909 0.19521 0.0
C214 C 0.09823 0.4599 0.20177 0.0
C215 C 0.09945 0.50744 0.22316 0.0
C216 C 0.13795 0.56243 0.2196 0.0
C217 C 0.13583 0.46873 0.17731 0.0
N218 N 0.17581 0.52165 0.17481 0.0
H219 H 0.20179 0.61338 0.19283 0.0
H220 H 0.13089 0.43413 0.16015 0.0
H221 H 0.07602 0.59204 0.15131 0.0
H222 H 0.17079 0.51931 0.0791 0.0
O223 O 0.22788 0.63484 0.14532 0.0
O224 O 0.26802 0.58265 0.10846 0.0
O225 O 0.22883 0.44638 0.12782 0.0
C226 C 0.25853 0.63795 0.12153 0.0
H227 H 0.46324 0.50293 0.15839 0.0
H228 H 0.99259 0.59403 0.10817 0.0
H229 H 0.06706 0.41775 0.20352 0.0
H230 H 0.13889 0.60081 0.23547 0.0
Co231 Co 0.98874 0.69881 0.38898 0.0
C232 C 0.97494 0.80442 0.43309 0.0
C233 C 1.01001 0.83786 0.39323 0.0
C234 C 1.00374 0.89064 0.41105 0.0
N235 N 0.99184 0.78372 0.40698 0.0
N236 N 0.98218 0.86901 0.436 0.0
H237 H 0.9556 0.77467 0.44957 0.0
H238 H 0.02594 0.83885 0.37147 0.0
C239 C 0.12946 0.73205 0.39493 0.0
O240 O 0.11559 0.75005 0.42096 0.0
N241 N 0.98688 0.61686 0.36902 0.0
C242 C 0.96779 0.5574 0.37731 0.0
C243 C 0.97376 0.51487 0.35453 0.0
C244 C 1.00326 0.61012 0.34169 0.0
N245 N 0.99516 0.54883 0.33223 0.0
C246 C 0.96019 0.65285 0.44394 0.0
C247 C 0.07523 0.58936 0.45461 0.0
C248 C 0.02835 0.59453 0.47599 0.0
C249 C 0.96967 0.62494 0.47005 0.0
C250 C 0.06371 0.61881 0.42845 0.0
N251 N 1.00839 0.65411 0.42416 0.0
H252 H 0.91398 0.67547 0.44018 0.0
H253 H 0.09917 0.61301 0.41182 0.0
H254 H 0.95034 0.54579 0.39819 0.0
H255 H 1.02083 0.64961 0.32887 0.0
O256 O 0.89549 0.69723 0.39247 0.0
O257 O 0.94713 0.73955 0.35634 0.0
O258 O 0.08437 0.70898 0.37893 0.0
C259 C 0.89192 0.72735 0.36879 0.0
H260 H 1.01332 0.94086 0.40607 0.0
H261 H 0.96219 0.46363 0.3542 0.0
H262 H 0.12023 0.56371 0.45816 0.0
H263 H 0.93117 0.62744 0.48565 0.0
C264 C 0.08551 0.09526 0.00382 0.0
C265 C 0.15309 0.08656 0.00526 0.0
C266 C 0.05731 0.12603 0.98063 0.0
C267 C 0.0961 0.14877 0.95846 0.0
H268 H 0.0548 0.08013 0.02111 0.0
H269 H 1.00542 0.13429 0.98043 0.0
S270 S 0.27331 0.12834 0.94994 0.0
N271 N 0.25664 0.09582 0.98079 0.0
N272 N 0.2034 0.1551 0.9377 0.0
C273 C 0.16298 0.13766 0.95901 0.0
C274 C 0.1916 0.10606 0.98233 0.0
C275 C 0.40287 0.52999 0.23982 0.0
C276 C 0.42655 0.54973 0.21344 0.0
C277 C 0.42868 0.55569 0.2649 0.0
C278 C 0.478 0.60272 0.26419 0.0
H279 H 0.36194 0.49699 0.2409 0.0
H280 H 0.40677 0.54251 0.28483 0.0
S281 S 0.56042 0.66603 0.20076 0.0
N282 N 0.50539 0.61485 0.18816 0.0
N283 N 0.55339 0.66397 0.23549 0.0
C284 C 0.50475 0.61979 0.23808 0.0
C285 C 0.47916 0.59298 0.21259 0.0
C286 C 0.98626 0.89007 0.48698 0.0
C287 C 0.9632 0.90663 0.46013 0.0
C288 C 0.96068 0.91941 0.51135 0.0
C289 C 0.91036 0.96487 0.50942 0.0
H290 H 1.0226 0.85259 0.48906 0.0
H291 H 0.97729 0.9036 0.53182 0.0
S292 S 0.83522 0.02611 0.44401 0.0
N293 N 0.88982 0.97306 0.43287 0.0
N294 N 0.84065 0.0275 0.47883 0.0
C295 C 0.88877 0.98357 0.48266 0.0
C296 C 0.91553 0.95457 0.4579 0.0
C297 C 0.63182 0.51113 0.7324 0.0
C298 C 0.6156 0.48273 0.70621 0.0
C299 C 0.60499 0.48779 0.75745 0.0
C300 C 0.56242 0.43451 0.75692 0.0
H301 H 0.66801 0.54932 0.73349 0.0
H302 H 0.62139 0.5081 0.77742 0.0
S303 S 0.50142 0.34654 0.69358 0.0
N304 N 0.5513 0.40203 0.68097 0.0
N305 N 0.50127 0.35738 0.72821 0.0
C306 C 0.54294 0.40834 0.73075 0.0
C307 C 0.5695 0.43269 0.70528 0.0
C308 C 0.5162 1.00861 0.92073 0.0
C309 C 0.54793 0.06834 0.91719 0.0
C310 C 0.49345 0.99001 0.94737 0.0
C311 C 0.50277 0.03008 0.97136 0.0
H312 H 0.50562 0.97803 0.90254 0.0
H313 H 0.46605 0.94528 0.94904 0.0
S314 S 0.58987 0.18778 0.97347 0.0
N315 N 0.59285 0.16459 0.93998 0.0
N316 N 0.55021 0.12987 -0.00993 0.0
C317 C 0.53824 0.08789 0.9683 0.0
C318 C 0.56072 0.10703 0.94118 0.0
C319 C 0.53152 1.01476 0.21751 0.0
C320 C 0.53382 0.94709 0.22044 0.0
C321 C 0.52012 0.04239 0.19101 0.0
C322 C 0.51037 1.003 0.16685 0.0
H323 H 0.53365 0.04614 0.23602 0.0
H324 H 0.5142 0.09443 0.1898 0.0
S325 S 0.52302 0.82397 0.16291 0.0
N326 N 0.53387 0.842 0.19667 0.0
N327 N 0.51278 0.89394 0.14696 0.0
C328 C 0.51815 0.93574 0.16926 0.0
C329 C 0.52985 0.90776 0.19606 0.0
C330 C 0.59145 1.00446 0.41777 0.0
C331 C 0.52432 1.00121 0.41286 0.0
C332 C 0.61591 1.01892 0.44467 0.0
C333 C 0.57403 0.0299 0.46772 0.0
H334 H 0.62511 0.99208 0.40097 0.0
H335 H 0.66795 1.01673 0.44794 0.0
S336 S 0.39436 0.03196 0.46544 0.0
N337 N 0.41629 1.01501 0.43258 0.0
N338 N 0.46246 0.04126 0.48352 0.0
C339 C 0.50689 0.03145 0.46271 0.0
C340 C 0.48192 1.01721 0.43514 0.0
C341 C 0.52289 0.13059 0.69449 0.0
C342 C 0.51276 0.09183 0.71834 0.0
C343 C 0.53285 0.10269 0.66778 0.0
C344 C 0.53236 0.0351 0.66384 0.0
H345 H 0.52736 0.18278 0.69685 0.0
H346 H 0.54461 0.13397 0.65029 0.0
S347 S 0.5023 0.91247 0.71884 0.0
N348 N 0.49829 0.98267 0.736 0.0
N349 N 0.51626 0.93011 0.68543 0.0
C350 C 0.51737 0.99589 0.68702 0.0
C351 C 0.50764 0.02436 0.7144 0.0
C352 C 0.95238 0.52744 0.803 0.0
C353 C 1.01994 0.52479 0.80665 0.0
C354 C 0.92522 0.53659 0.77631 0.0
C355 C 0.96471 0.54279 0.75224 0.0
H356 H 0.92042 0.51873 0.82073 0.0
H357 H 0.87285 0.53457 0.77419 0.0
S358 S 0.14455 0.5442 0.75095 0.0
N359 N 0.12591 0.53386 0.78455 0.0
N360 N 0.07473 0.55035 0.73402 0.0
C361 C 0.03238 0.54487 0.75587 0.0
C362 C 0.0601 0.53594 0.78321 0.0
C363 C 0.07372 0.5565 0.00589 0.0
C364 C 1.02267 0.51369 -0.00101 0.0
C365 C 0.08695 0.57333 0.03401 0.0
C366 C 0.04914 0.54861 0.05609 0.0
H367 H 0.1071 0.57236 -0.01034 0.0
H368 H 0.12948 0.60256 0.03872 0.0
S369 S 0.90551 0.44137 0.04894 0.0
N370 N 0.93066 0.45177 0.01615 0.0
N371 N 0.95493 0.48481 0.06921 0.0
C372 C 0.99438 0.51085 0.04934 0.0
C373 C 0.98119 0.4931 0.02065 0.0
C374 C 0.07911 0.4659 0.2717 0.0
C375 C 0.059 0.50381 0.24884 0.0
C376 C 0.05374 0.47688 0.29895 0.0
C377 C 1.00829 0.52646 0.30396 0.0
H378 H 0.11806 0.4312 0.26893 0.0
H379 H 0.07343 0.4502 0.31651 0.0
S380 S 0.93385 0.63235 0.25047 0.0
N381 N 0.98604 0.58742 0.23241 0.0
N382 N 0.9388 0.60812 0.28351 0.0
C383 C 0.98427 0.56084 0.28086 0.0
C384 C 1.00957 0.54948 0.25329 0.0
C385 C 0.02984 0.61191 0.52782 0.0
C386 C 0.03763 0.56903 0.50472 0.0
C387 C 1.01788 0.58871 0.55494 0.0
C388 C 1.01394 0.52191 0.55999 0.0
H389 H 0.0281 0.66378 0.52448 0.0
H390 H 1.00758 0.62314 0.57182 0.0
S391 S 0.03694 0.38965 0.50728 0.0
N392 N 0.04555 0.45683 0.48896 0.0
N393 N 0.02382 0.41305 0.5403 0.0
C394 C 0.02695 0.47846 0.5376 0.0
C395 C 0.03871 0.50214 0.50982 0.0
C396 C 0.27143 0.75896 0.12675 0.0
C397 C 0.28064 0.70183 0.11044 0.0
C398 C 0.2893 0.82042 0.11665 0.0
C399 C 0.31683 0.82757 0.08969 0.0
H400 H 0.2494 0.75648 0.14749 0.0
H401 H 0.27981 0.86271 0.12981 0.0
S402 S 0.3558 0.693 0.03932 0.0
N403 N 0.32241 0.65645 0.06653 0.0
N404 N 0.35613 0.77106 0.04749 0.0
C405 C 0.32814 0.77054 0.0735 0.0
C406 C 0.31004 0.70803 0.08385 0.0
C407 C 0.77468 0.75292 0.37678 0.0
C408 C 0.82739 0.74725 0.35784 0.0
C409 C 0.71167 0.76698 0.36739 0.0
C410 C 0.69836 0.77491 0.33855 0.0
H411 H 0.78193 0.74571 0.39918 0.0
H412 H 0.67277 0.76944 0.38277 0.0
S413 S 0.81985 0.76905 0.28039 0.0
N414 N 0.86258 0.75418 0.30907 0.0
N415 N 0.74428 0.77967 0.29116 0.0
C416 C 0.75102 0.77127 0.31942 0.0
C417 C 0.81544 0.75779 0.32911 0.0
C418 C 0.77004 0.24926 0.56852 0.0
C419 C 0.75004 0.20026 0.58732 0.0
C420 C 0.78165 0.31346 0.57783 0.0
C421 C 0.77452 0.33105 0.60638 0.0
H422 H 0.77808 0.23785 0.54641 0.0
H423 H 0.79895 0.34873 0.5628 0.0
S424 S 0.71656 0.22433 0.66382 0.0
N425 N 0.71862 0.17643 0.63563 0.0
N426 N 0.7411 0.29618 0.65304 0.0
C427 C 0.7521 0.28352 0.62519 0.0
C428 C 0.73966 0.21845 0.61571 0.0
C429 C 0.29378 0.27669 0.81964 0.0
C430 C 0.34662 0.27003 0.83846 0.0
C431 C 0.23011 0.28813 0.82945 0.0
C432 C 0.21696 0.29433 0.85845 0.0
H433 H 0.30174 0.27427 0.79704 0.0
H434 H 0.19164 0.29499 0.8142 0.0
S435 S 0.33656 0.27666 0.91666 0.0
N436 N 0.37992 0.26681 0.88761 0.0
N437 N 0.26135 0.28886 0.90601 0.0
C438 C 0.26883 0.28536 0.8775 0.0
C439 C 0.33329 0.27305 0.86754 0.0
C440 C 0.77372 0.75263 0.65178 0.0
C441 C 0.79085 0.70233 0.63257 0.0
C442 C 0.76139 0.8162 0.64271 0.0
C443 C 0.76491 0.83179 0.61401 0.0
H444 H 0.7683 0.74268 0.67406 0.0
H445 H 0.74616 0.85247 0.65807 0.0
S446 S 0.81469 0.72108 0.5554 0.0
N447 N 0.81603 0.67508 0.58367 0.0
N448 N 0.79214 0.79372 0.56665 0.0
C449 C 0.78476 0.78299 0.59475 0.0
C450 C 0.79797 0.71857 0.60399 0.0
C451 C 0.77084 0.298 0.84589 0.0
C452 C 0.71685 0.29385 0.86415 0.0
C453 C 0.83346 0.31203 0.85607 0.0
C454 C 0.8452 0.32159 0.88508 0.0
H455 H 0.76492 0.28951 0.82341 0.0
H456 H 0.87325 0.31338 0.84111 0.0
S457 S 0.71994 0.31929 0.94175 0.0
N458 N 0.67885 0.30334 0.91253 0.0
N459 N 0.79627 0.32902 0.93191 0.0
C460 C 0.79125 0.31935 0.90355 0.0
C461 C 0.72724 0.30576 0.89305 0.0
C462 C 0.2621 0.27861 0.14898 0.0
C463 C 0.2567 0.33204 0.13074 0.0
C464 C 0.2753 0.21566 0.13866 0.0
C465 C 0.28488 0.20358 0.10969 0.0
H466 H 0.25701 0.28551 0.17158 0.0
H467 H 0.2804 0.17668 0.15361 0.0
S468 S 0.27147 0.32493 0.05265 0.0
N469 N 0.25816 0.36714 0.08195 0.0
N470 N 0.28408 0.24959 0.06264 0.0
C471 C 0.27769 0.25602 0.09111 0.0
C472 C 0.26325 0.31993 0.10158 0.0
C473 C 0.31178 0.76789 0.39468 0.0
C474 C 0.32836 0.76162 0.36604 0.0
C475 C 0.24765 0.75693 0.40383 0.0
C476 C 0.19782 0.73849 0.38476 0.0
H477 H 0.3478 0.78407 0.4099 0.0
H478 H 0.23694 0.76425 0.42604 0.0
S479 S 0.21887 0.70806 0.30786 0.0
N480 N 0.29154 0.73082 0.31894 0.0
N481 N 0.17184 0.70953 0.3361 0.0
C482 C 0.21493 0.72891 0.35626 0.0
C483 C 0.27991 0.74069 0.34694 0.0
loop_
_geom_bond_atom_site_label_1
_geom_bond_atom_site_label_2
_geom_bond_distance
_geom_bond_site_symmetry_2
_ccdc_geom_bond_type
Co0 N4 2.148 . S
Co0 N10 2.128 . S
Co0 N20 2.194 . S
Co0 O25 2.351 . S
Co0 O26 2.155 . S
Co0 O27 2.096 . S
C1 N4 1.301 . S
C1 N5 1.328 . S
C1 H6 0.930 . S
C2 C3 1.333 . S
C2 N4 1.317 . S
C2 H7 0.930 . S
C3 C2 1.333 . S
C3 N5 1.350 . S
C3 H29 0.931 . S
N4 Co0 2.148 . S
N4 C1 1.301 . S
N4 C2 1.317 . S
N5 C1 1.328 . S
N5 C3 1.350 . S
H6 C1 0.930 . S
H7 C2 0.930 . S
C8 O9 1.224 . S
C8 O27 1.247 . S
O9 C8 1.224 . S
N10 Co0 2.128 . S
N10 C11 1.355 . S
N10 C13 1.311 . S
C11 N10 1.355 . S
C11 C12 1.363 . S
C11 H23 0.929 . S
C12 C11 1.363 . S
C12 N14 1.375 . S
C12 H30 0.931 . S
C13 N10 1.311 . S
C13 N14 1.347 . S
C13 H24 0.929 . S
N14 C12 1.375 . S
N14 C13 1.347 . S
C15 C18 1.365 . S
C15 N20 1.328 . S
C15 H21 0.929 . S
C16 C17 1.362 . S
C16 C19 1.378 . S
C16 H31 0.929 . S
C17 C16 1.362 . S
C17 C18 1.366 . S
C18 C15 1.365 . S
C18 C17 1.366 . S
C18 H32 0.930 . S
C19 C16 1.378 . S
C19 N20 1.315 . S
C19 H22 0.930 . S
N20 Co0 2.194 . S
N20 C15 1.328 . S
N20 C19 1.315 . S
H21 C15 0.929 . S
H22 C19 0.930 . S
H23 C11 0.929 . S
H24 C13 0.929 . S
O25 Co0 2.351 . S
O25 C28 1.244 . S
O26 Co0 2.155 . S
O26 C28 1.240 . S
O27 Co0 2.096 . S
O27 C8 1.247 . S
C28 O25 1.244 . S
C28 O26 1.240 . S
H29 C3 0.931 . S
H30 C12 0.931 . S
H31 C16 0.929 . S
H32 C18 0.930 . S
Co33 N37 2.148 . S
Co33 N43 2.128 . S
Co33 N53 2.194 . S
Co33 O58 2.351 . S
Co33 O59 2.155 . S
Co33 O60 2.096 . S
C34 N37 1.301 . S
C34 N38 1.328 . S
C34 H39 0.930 . S
C35 C36 1.333 . S
C35 N37 1.317 . S
C35 H40 0.930 . S
C36 C35 1.333 . S
C36 N38 1.350 . S
C36 H62 0.931 . S
N37 Co33 2.148 . S
N37 C34 1.301 . S
N37 C35 1.317 . S
N38 C34 1.328 . S
N38 C36 1.350 . S
H39 C34 0.930 . S
H40 C35 0.930 . S
C41 O42 1.224 . S
C41 O60 1.247 . S
O42 C41 1.224 . S
N43 Co33 2.128 . S
N43 C44 1.355 . S
N43 C46 1.311 . S
C44 N43 1.355 . S
C44 C45 1.363 1_565 S
C44 H56 0.929 1_565 S
C45 C44 1.363 1_545 S
C45 N47 1.375 1_545 S
C45 H63 0.931 . S
C46 N43 1.311 . S
C46 N47 1.347 . S
C46 H57 0.929 . S
N47 C45 1.375 1_565 S
N47 C46 1.347 . S
C48 C51 1.365 1_565 S
C48 N53 1.328 . S
C48 H54 0.929 . S
C49 C50 1.362 . S
C49 C52 1.378 1_545 S
C49 H64 0.929 . S
C50 C49 1.362 . S
C50 C51 1.366 . S
C51 C48 1.365 1_545 S
C51 C50 1.366 . S
C51 H65 0.930 . S
C52 C49 1.378 1_565 S
C52 N53 1.315 . S
C52 H55 0.930 . S
N53 Co33 2.194 . S
N53 C48 1.328 . S
N53 C52 1.315 . S
H54 C48 0.929 . S
H55 C52 0.930 . S
H56 C44 0.929 1_545 S
H57 C46 0.929 . S
O58 Co33 2.351 . S
O58 C61 1.244 . S
O59 Co33 2.155 . S
O59 C61 1.240 . S
O60 Co33 2.096 . S
O60 C41 1.247 . S
C61 O58 1.244 . S
C61 O59 1.240 . S
H62 C36 0.931 . S
H63 C45 0.931 . S
H64 C49 0.929 . S
H65 C51 0.930 . S
Co66 N70 2.148 . S
Co66 N76 2.128 . S
Co66 N86 2.194 . S
Co66 O91 2.351 . S
Co66 O92 2.155 . S
Co66 O93 2.096 . S
C67 N70 1.301 . S
C67 N71 1.328 . S
C67 H72 0.930 . S
C68 C69 1.333 . S
C68 N70 1.317 . S
C68 H73 0.930 . S
C69 C68 1.333 . S
C69 N71 1.350 . S
C69 H95 0.931 . S
N70 Co66 2.148 . S
N70 C67 1.301 . S
N70 C68 1.317 . S
N71 C67 1.328 . S
N71 C69 1.350 . S
H72 C67 0.930 . S
H73 C68 0.930 . S
C74 O75 1.224 . S
C74 O93 1.247 . S
O75 C74 1.224 . S
N76 Co66 2.128 . S
N76 C77 1.355 . S
N76 C79 1.311 . S
C77 N76 1.355 . S
C77 C78 1.363 . S
C77 H89 0.929 . S
C78 C77 1.363 . S
C78 N80 1.375 . S
C78 H96 0.931 . S
C79 N76 1.311 . S
C79 N80 1.347 . S
C79 H90 0.929 . S
N80 C78 1.375 . S
N80 C79 1.347 . S
C81 C84 1.365 . S
C81 N86 1.328 . S
C81 H87 0.929 . S
C82 C83 1.362 . S
C82 C85 1.378 . S
C82 H97 0.929 . S
C83 C82 1.362 . S
C83 C84 1.366 . S
C84 C81 1.365 . S
C84 C83 1.366 . S
C84 H98 0.930 . S
C85 C82 1.378 . S
C85 N86 1.315 . S
C85 H88 0.930 . S
N86 Co66 2.194 . S
N86 C81 1.328 . S
N86 C85 1.315 . S
H87 C81 0.929 . S
H88 C85 0.930 . S
H89 C77 0.929 . S
H90 C79 0.929 . S
O91 Co66 2.351 . S
O91 C94 1.244 . S
O92 Co66 2.155 . S
O92 C94 1.240 . S
O93 Co66 2.096 . S
O93 C74 1.247 . S
C94 O91 1.244 . S
C94 O92 1.240 . S
H95 C69 0.931 . S
H96 C78 0.931 . S
H97 C82 0.929 . S
H98 C84 0.930 . S
Co99 N103 2.148 . S
Co99 N109 2.128 . S
Co99 N119 2.194 . S
Co99 O124 2.351 . S
Co99 O125 2.155 . S
Co99 O126 2.096 . S
C100 N103 1.301 . S
C100 N104 1.328 . S
C100 H105 0.930 . S
C101 C102 1.333 . S
C101 N103 1.317 . S
C101 H106 0.930 . S
C102 C101 1.333 . S
C102 N104 1.350 . S
C102 H128 0.931 . S
N103 Co99 2.148 . S
N103 C100 1.301 . S
N103 C101 1.317 . S
N104 C100 1.328 . S
N104 C102 1.350 . S
H105 C100 0.930 . S
H106 C101 0.930 . S
C107 O108 1.224 . S
C107 O126 1.247 . S
O108 C107 1.224 . S
N109 Co99 2.128 . S
N109 C110 1.355 . S
N109 C112 1.311 . S
C110 N109 1.355 . S
C110 C111 1.363 1_545 S
C110 H122 0.929 1_545 S
C111 C110 1.363 1_565 S
C111 N113 1.375 1_565 S
C111 H129 0.931 . S
C112 N109 1.311 . S
C112 N113 1.347 . S
C112 H123 0.929 . S
N113 C111 1.375 1_545 S
N113 C112 1.347 . S
C114 C117 1.365 1_545 S
C114 N119 1.328 . S
C114 H120 0.929 . S
C115 C116 1.362 . S
C115 C118 1.378 1_565 S
C115 H130 0.929 . S
C116 C115 1.362 . S
C116 C117 1.366 . S
C117 C114 1.365 1_565 S
C117 C116 1.366 . S
C117 H131 0.930 . S
C118 C115 1.378 1_545 S
C118 N119 1.315 . S
C118 H121 0.930 . S
N119 Co99 2.194 . S
N119 C114 1.328 . S
N119 C118 1.315 . S
H120 C114 0.929 . S
H121 C118 0.930 . S
H122 C110 0.929 1_565 S
H123 C112 0.929 . S
O124 Co99 2.351 . S
O124 C127 1.244 . S
O125 Co99 2.155 . S
O125 C127 1.240 . S
O126 Co99 2.096 . S
O126 C107 1.247 . S
C127 O124 1.244 . S
C127 O125 1.240 . S
H128 C102 0.931 . S
H129 C111 0.931 . S
H130 C115 0.929 . S
H131 C117 0.930 . S
Co132 N136 2.148 . S
Co132 N142 2.128 . S
Co132 N152 2.194 . S
Co132 O157 2.351 . S
Co132 O158 2.155 . S
Co132 O159 2.096 . S
C133 N136 1.301 . S
C133 N137 1.328 . S
C133 H138 0.930 . S
C134 C135 1.333 . S
C134 N136 1.317 . S
C134 H139 0.930 . S
C135 C134 1.333 . S
C135 N137 1.350 . S
C135 H161 0.931 . S
N136 Co132 2.148 . S
N136 C133 1.301 . S
N136 C134 1.317 . S
N137 C133 1.328 . S
N137 C135 1.350 . S
H138 C133 0.930 . S
H139 C134 0.930 . S
C140 O141 1.224 . S
C140 O159 1.247 . S
O141 C140 1.224 . S
N142 Co132 2.128 . S
N142 C143 1.355 . S
N142 C145 1.311 . S
C143 N142 1.355 . S
C143 C144 1.363 1_655 S
C143 H155 0.929 1_655 S
C144 C143 1.363 1_455 S
C144 N146 1.375 1_455 S
C144 H162 0.931 . S
C145 N142 1.311 . S
C145 N146 1.347 . S
C145 H156 0.929 . S
N146 C144 1.375 1_655 S
N146 C145 1.347 . S
C147 C150 1.365 1_655 S
C147 N152 1.328 . S
C147 H153 0.929 . S
C148 C149 1.362 . S
C148 C151 1.378 1_455 S
C148 H163 0.929 . S
C149 C148 1.362 . S
C149 C150 1.366 . S
C150 C147 1.365 1_455 S
C150 C149 1.366 . S
C150 H164 0.930 . S
C151 C148 1.378 1_655 S
C151 N152 1.315 . S
C151 H154 0.930 . S
N152 Co132 2.194 . S
N152 C147 1.328 . S
N152 C151 1.315 . S
H153 C147 0.929 . S
H154 C151 0.930 . S
H155 C143 0.929 1_455 S
H156 C145 0.929 . S
O157 Co132 2.351 . S
O157 C160 1.244 . S
O158 Co132 2.155 . S
O158 C160 1.240 . S
O159 Co132 2.096 . S
O159 C140 1.247 . S
C160 O157 1.244 . S
C160 O158 1.240 . S
H161 C135 0.931 . S
H162 C144 0.931 . S
H163 C148 0.929 . S
H164 C150 0.930 . S
Co165 N169 2.148 . S
Co165 N175 2.128 . S
Co165 N185 2.194 . S
Co165 O190 2.351 . S
Co165 O191 2.155 . S
Co165 O192 2.096 . S
C166 N169 1.301 . S
C166 N170 1.328 . S
C166 H171 0.930 . S
C167 C168 1.333 . S
C167 N169 1.317 . S
C167 H172 0.930 . S
C168 C167 1.333 . S
C168 N170 1.350 . S
C168 H194 0.931 . S
N169 Co165 2.148 . S
N169 C166 1.301 . S
N169 C167 1.317 . S
N170 C166 1.328 . S
N170 C168 1.350 . S
H171 C166 0.930 . S
H172 C167 0.930 . S
C173 O174 1.224 . S
C173 O192 1.247 . S
O174 C173 1.224 . S
N175 Co165 2.128 . S
N175 C176 1.355 . S
N175 C178 1.311 . S
C176 N175 1.355 . S
C176 C177 1.363 . S
C176 H188 0.929 . S
C177 C176 1.363 . S
C177 N179 1.375 . S
C177 H195 0.931 . S
C178 N175 1.311 . S
C178 N179 1.347 . S
C178 H189 0.929 . S
N179 C177 1.375 . S
N179 C178 1.347 . S
C180 C183 1.365 . S
C180 N185 1.328 . S
C180 H186 0.929 . S
C181 C182 1.362 . S
C181 C184 1.378 . S
C181 H196 0.929 . S
C182 C181 1.362 . S
C182 C183 1.366 . S
C183 C180 1.365 . S
C183 C182 1.366 . S
C183 H197 0.930 . S
C184 C181 1.378 . S
C184 N185 1.315 . S
C184 H187 0.930 . S
N185 Co165 2.194 . S
N185 C180 1.328 . S
N185 C184 1.315 . S
H186 C180 0.929 . S
H187 C184 0.930 . S
H188 C176 0.929 . S
H189 C178 0.929 . S
O190 Co165 2.351 . S
O190 C193 1.244 . S
O191 Co165 2.155 . S
O191 C193 1.240 . S
O192 Co165 2.096 . S
O192 C173 1.247 . S
C193 O190 1.244 . S
C193 O191 1.240 . S
H194 C168 0.931 . S
H195 C177 0.931 . S
H196 C181 0.929 . S
H197 C183 0.930 . S
Co198 N202 2.148 . S
Co198 N208 2.128 . S
Co198 N218 2.194 . S
Co198 O223 2.351 . S
Co198 O224 2.155 . S
Co198 O225 2.096 . S
C199 N202 1.301 . S
C199 N203 1.328 . S
C199 H204 0.930 . S
C200 C201 1.333 . S
C200 N202 1.317 . S
C200 H205 0.930 . S
C201 C200 1.333 . S
C201 N203 1.350 . S
C201 H227 0.931 . S
N202 Co198 2.148 . S
N202 C199 1.301 . S
N202 C200 1.317 . S
N203 C199 1.328 . S
N203 C201 1.350 . S
H204 C199 0.930 . S
H205 C200 0.930 . S
C206 O207 1.224 . S
C206 O225 1.247 . S
O207 C206 1.224 . S
N208 Co198 2.128 . S
N208 C209 1.355 . S
N208 C211 1.311 . S
C209 N208 1.355 . S
C209 C210 1.363 1_455 S
C209 H221 0.929 1_455 S
C210 C209 1.363 1_655 S
C210 N212 1.375 1_655 S
C210 H228 0.931 . S
C211 N208 1.311 . S
C211 N212 1.347 . S
C211 H222 0.929 . S
N212 C210 1.375 1_455 S
N212 C211 1.347 . S
C213 C216 1.365 1_455 S
C213 N218 1.328 . S
C213 H219 0.929 . S
C214 C215 1.362 . S
C214 C217 1.378 1_655 S
C214 H229 0.929 . S
C215 C214 1.362 . S
C215 C216 1.366 . S
C216 C213 1.365 1_655 S
C216 C215 1.366 . S
C216 H230 0.930 . S
C217 C214 1.378 1_455 S
C217 N218 1.315 . S
C217 H220 0.930 . S
N218 Co198 2.194 . S
N218 C213 1.328 . S
N218 C217 1.315 . S
H219 C213 0.929 . S
H220 C217 0.930 . S
H221 C209 0.929 1_655 S
H222 C211 0.929 . S
O223 Co198 2.351 . S
O223 C226 1.244 . S
O224 Co198 2.155 . S
O224 C226 1.240 . S
O225 Co198 2.096 . S
O225 C206 1.247 . S
C226 O223 1.244 . S
C226 O224 1.240 . S
H227 C201 0.931 . S
H228 C210 0.931 . S
H229 C214 0.929 . S
H230 C216 0.930 . S
Co231 N235 2.148 . S
Co231 N241 2.128 . S
Co231 N251 2.194 . S
Co231 O256 2.351 . S
Co231 O257 2.155 . S
Co231 O258 2.096 . S
C232 N235 1.301 . S
C232 N236 1.328 . S
C232 H237 0.930 . S
C233 C234 1.333 . S
C233 N235 1.317 . S
C233 H238 0.930 . S
C234 C233 1.333 . S
C234 N236 1.350 . S
C234 H260 0.931 . S
N235 Co231 2.148 . S
N235 C232 1.301 . S
N235 C233 1.317 . S
N236 C232 1.328 . S
N236 C234 1.350 . S
H237 C232 0.930 . S
H238 C233 0.930 . S
C239 O240 1.224 . S
C239 O258 1.247 . S
O240 C239 1.224 . S
N241 Co231 2.128 . S
N241 C242 1.355 . S
N241 C244 1.311 . S
C242 N241 1.355 . S
C242 C243 1.363 . S
C242 H254 0.929 . S
C243 C242 1.363 . S
C243 N245 1.375 . S
C243 H261 0.931 . S
C244 N241 1.311 . S
C244 N245 1.347 . S
C244 H255 0.929 . S
N245 C243 1.375 . S
N245 C244 1.347 . S
C246 C249 1.365 . S
C246 N251 1.328 . S
C246 H252 0.929 . S
C247 C248 1.362 . S
C247 C250 1.378 . S
C247 H262 0.929 . S
C248 C247 1.362 . S
C248 C249 1.366 . S
C249 C246 1.365 . S
C249 C248 1.366 . S
C249 H263 0.930 . S
C250 C247 1.378 . S
C250 N251 1.315 . S
C250 H253 0.930 . S
N251 Co231 2.194 . S
N251 C246 1.328 . S
N251 C250 1.315 . S
H252 C246 0.929 . S
H253 C250 0.930 . S
H254 C242 0.929 . S
H255 C244 0.929 . S
O256 Co231 2.351 . S
O256 C259 1.244 . S
O257 Co231 2.155 . S
O257 C259 1.240 . S
O258 Co231 2.096 . S
O258 C239 1.247 . S
C259 O256 1.244 . S
C259 O257 1.240 . S
H260 C234 0.931 . S
H261 C243 0.931 . S
H262 C247 0.929 . S
H263 C249 0.930 . S
C264 C265 1.369 . S
C264 C266 1.419 1_554 S
C264 H268 0.930 . S
C265 C264 1.369 . S
C265 C274 1.429 . S
C266 C264 1.419 1_556 S
C266 C267 1.363 . S
C266 H269 0.929 . S
C267 C266 1.363 . S
C267 C273 1.428 . S
H268 C264 0.930 . S
H269 C266 0.929 . S
S270 N271 1.613 1_556 S
S270 N272 1.610 . S
N271 S270 1.613 1_554 S
N271 C274 1.350 . S
N272 S270 1.610 . S
N272 C273 1.351 . S
C273 C267 1.428 . S
C273 N272 1.351 . S
C273 C274 1.434 1_556 S
C274 C265 1.429 . S
C274 N271 1.350 . S
C274 C273 1.434 1_554 S
C275 C276 1.369 . S
C275 C277 1.419 . S
C275 H279 0.930 . S
C276 C275 1.369 . S
C276 C285 1.429 . S
C277 C275 1.419 . S
C277 C278 1.363 . S
C277 H280 0.929 . S
C278 C277 1.363 . S
C278 C284 1.428 . S
H279 C275 0.930 . S
H280 C277 0.929 . S
S281 N282 1.613 . S
S281 N283 1.610 . S
N282 S281 1.613 . S
N282 C285 1.350 . S
N283 S281 1.610 . S
N283 C284 1.351 . S
C284 C278 1.428 . S
C284 N283 1.351 . S
C284 C285 1.434 . S
C285 C276 1.429 . S
C285 N282 1.350 . S
C285 C284 1.434 . S
C286 C287 1.369 . S
C286 C288 1.419 . S
C286 H290 0.930 . S
C287 C286 1.369 . S
C287 C296 1.429 . S
C288 C286 1.419 . S
C288 C289 1.363 . S
C288 H291 0.929 . S
C289 C288 1.363 . S
C289 C295 1.428 . S
H290 C286 0.930 . S
H291 C288 0.929 . S
S292 N293 1.613 . S
S292 N294 1.610 . S
N293 S292 1.613 . S
N293 C296 1.350 . S
N294 S292 1.610 . S
N294 C295 1.351 . S
C295 C289 1.428 . S
C295 N294 1.351 . S
C295 C296 1.434 . S
C296 C287 1.429 . S
C296 N293 1.350 . S
C296 C295 1.434 . S
C297 C298 1.369 . S
C297 C299 1.419 . S
C297 H301 0.930 . S
C298 C297 1.369 . S
C298 C307 1.429 . S
C299 C297 1.419 . S
C299 C300 1.363 . S
C299 H302 0.929 . S
C300 C299 1.363 . S
C300 C306 1.428 . S
H301 C297 0.930 . S
H302 C299 0.929 . S
S303 N304 1.613 . S
S303 N305 1.610 . S
N304 S303 1.613 . S
N304 C307 1.350 . S
N305 S303 1.610 . S
N305 C306 1.351 . S
C306 C300 1.428 . S
C306 N305 1.351 . S
C306 C307 1.434 . S
C307 C298 1.429 . S
C307 N304 1.350 . S
C307 C306 1.434 . S
C308 C309 1.369 1_554 S
C308 C310 1.419 . S
C308 H312 0.930 1_545 S
C309 C308 1.369 1_556 S
C309 C318 1.429 . S
C310 C308 1.419 . S
C310 C311 1.363 . S
C310 H313 0.929 . S
C311 C310 1.363 . S
C311 C317 1.428 . S
H312 C308 0.930 1_565 S
H313 C310 0.929 . S
S314 N315 1.613 . S
S314 N316 1.610 1_556 S
N315 S314 1.613 . S
N315 C318 1.350 . S
N316 S314 1.610 1_554 S
N316 C317 1.351 . S
C317 C311 1.428 . S
C317 N316 1.351 . S
C317 C318 1.434 1_554 S
C318 C309 1.429 . S
C318 N315 1.350 . S
C318 C317 1.434 1_556 S
C319 C320 1.369 . S
C319 C321 1.419 . S
C319 H323 0.930 . S
C320 C319 1.369 . S
C320 C329 1.429 . S
C321 C319 1.419 . S
C321 C322 1.363 . S
C321 H324 0.929 . S
C322 C321 1.363 . S
C322 C328 1.428 . S
H323 C319 0.930 . S
H324 C321 0.929 . S
S325 N326 1.613 . S
S325 N327 1.610 . S
N326 S325 1.613 . S
N326 C329 1.350 1_565 S
N327 S325 1.610 . S
N327 C328 1.351 1_565 S
C328 C322 1.428 . S
C328 N327 1.351 1_545 S
C328 C329 1.434 . S
C329 C320 1.429 . S
C329 N326 1.350 1_545 S
C329 C328 1.434 . S
C330 C331 1.369 . S
C330 C332 1.419 . S
C330 H334 0.930 . S
C331 C330 1.369 . S
C331 C340 1.429 . S
C332 C330 1.419 . S
C332 C333 1.363 . S
C332 H335 0.929 . S
C333 C332 1.363 . S
C333 C339 1.428 . S
H334 C330 0.930 . S
H335 C332 0.929 . S
S336 N337 1.613 . S
S336 N338 1.610 1_545 S
N337 S336 1.613 . S
N337 C340 1.350 1_545 S
N338 S336 1.610 1_565 S
N338 C339 1.351 . S
C339 C333 1.428 . S
C339 N338 1.351 . S
C339 C340 1.434 . S
C340 C331 1.429 . S
C340 N337 1.350 1_565 S
C340 C339 1.434 . S
C341 C342 1.369 . S
C341 C343 1.419 . S
C341 H345 0.930 . S
C342 C341 1.369 . S
C342 C351 1.429 . S
C343 C341 1.419 . S
C343 C344 1.363 . S
C343 H346 0.929 . S
C344 C343 1.363 . S
C344 C350 1.428 . S
H345 C341 0.930 . S
H346 C343 0.929 . S
S347 N348 1.613 . S
S347 N349 1.610 . S
N348 S347 1.613 . S
N348 C351 1.350 . S
N349 S347 1.610 . S
N349 C350 1.351 . S
C350 C344 1.428 . S
C350 N349 1.351 . S
C350 C351 1.434 . S
C351 C342 1.429 . S
C351 N348 1.350 . S
C351 C350 1.434 . S
C352 C353 1.369 . S
C352 C354 1.419 . S
C352 H356 0.938 . S
C353 C352 1.369 . S
C353 C362 1.429 . S
C354 C352 1.419 . S
C354 C355 1.363 . S
C354 H357 0.929 . S
C355 C354 1.363 . S
C355 C361 1.428 . S
H356 C352 0.938 . S
H357 C354 0.929 . S
S358 N359 1.613 . S
S358 N360 1.610 . S
N359 S358 1.613 . S
N359 C362 1.350 . S
N360 S358 1.610 . S
N360 C361 1.351 . S
C361 C355 1.428 . S
C361 N360 1.351 . S
C361 C362 1.434 . S
C362 C353 1.429 . S
C362 N359 1.350 . S
C362 C361 1.434 . S
C363 C364 1.369 . S
C363 C365 1.419 1_556 S
C363 H367 0.930 . S
C364 C363 1.369 . S
C364 C373 1.429 . S
C365 C363 1.419 1_554 S
C365 C366 1.363 . S
C365 H368 0.929 . S
C366 C365 1.363 . S
C366 C372 1.428 1_554 S
H367 C363 0.930 . S
H368 C365 0.929 . S
S369 N370 1.613 1_655 S
S369 N371 1.610 . S
N370 S369 1.613 1_455 S
N370 C373 1.350 . S
N371 S369 1.610 . S
N371 C372 1.351 1_655 S
C372 C366 1.428 1_556 S
C372 N371 1.351 1_455 S
C372 C373 1.434 . S
C373 C364 1.429 . S
C373 N370 1.350 . S
C373 C372 1.434 . S
C374 C375 1.369 . S
C374 C376 1.419 . S
C374 H378 0.930 . S
C375 C374 1.369 . S
C375 C384 1.429 . S
C376 C374 1.419 . S
C376 C377 1.363 . S
C376 H379 0.929 . S
C377 C376 1.363 . S
C377 C383 1.428 . S
H378 C374 0.930 . S
H379 C376 0.929 . S
S380 N381 1.613 . S
S380 N382 1.610 . S
N381 S380 1.613 . S
N381 C384 1.350 . S
N382 S380 1.610 . S
N382 C383 1.351 . S
C383 C377 1.428 . S
C383 N382 1.351 . S
C383 C384 1.434 . S
C384 C375 1.429 . S
C384 N381 1.350 . S
C384 C383 1.434 . S
C385 C386 1.369 . S
C385 C387 1.419 . S
C385 H389 0.930 . S
C386 C385 1.369 . S
C386 C395 1.429 . S
C387 C385 1.419 . S
C387 C388 1.363 . S
C387 H390 0.929 . S
C388 C387 1.363 . S
C388 C394 1.428 . S
H389 C385 0.930 . S
H390 C387 0.929 . S
S391 N392 1.613 1_455 S
S391 N393 1.610 . S
N392 S391 1.613 1_655 S
N392 C395 1.350 . S
N393 S391 1.610 . S
N393 C394 1.351 1_455 S
C394 C388 1.428 . S
C394 N393 1.351 1_655 S
C394 C395 1.434 . S
C395 C386 1.429 . S
C395 N392 1.350 . S
C395 C394 1.434 . S
C396 C397 1.369 . S
C396 C398 1.419 . S
C396 H400 0.930 . S
C397 C396 1.369 . S
C397 C406 1.429 . S
C398 C396 1.419 . S
C398 C399 1.363 . S
C398 H401 0.929 1_565 S
C399 C398 1.363 . S
C399 C405 1.428 . S
H400 C396 0.930 . S
H401 C398 0.929 1_545 S
S402 N403 1.613 . S
S402 N404 1.610 . S
N403 S402 1.613 . S
N403 C406 1.350 . S
N404 S402 1.610 . S
N404 C405 1.351 . S
C405 C399 1.428 . S
C405 N404 1.351 . S
C405 C406 1.434 . S
C406 C397 1.429 . S
C406 N403 1.350 . S
C406 C405 1.434 . S
C407 C408 1.369 . S
C407 C409 1.419 . S
C407 H411 0.930 . S
C408 C407 1.369 . S
C408 C417 1.429 . S
C409 C407 1.419 . S
C409 C410 1.363 . S
C409 H412 0.929 . S
C410 C409 1.363 . S
C410 C416 1.428 . S
H411 C407 0.930 . S
H412 C409 0.929 . S
S413 N414 1.613 . S
S413 N415 1.610 . S
N414 S413 1.613 . S
N414 C417 1.350 . S
N415 S413 1.610 . S
N415 C416 1.351 . S
C416 C410 1.428 . S
C416 N415 1.351 . S
C416 C417 1.434 . S
C417 C408 1.429 . S
C417 N414 1.350 . S
C417 C416 1.434 . S
C418 C419 1.369 . S
C418 C420 1.419 . S
C418 H422 0.930 . S
C419 C418 1.369 . S
C419 C428 1.429 . S
C420 C418 1.419 . S
C420 C421 1.363 . S
C420 H423 0.929 . S
C421 C420 1.363 . S
C421 C427 1.428 . S
H422 C418 0.930 . S
H423 C420 0.929 . S
S424 N425 1.613 . S
S424 N426 1.610 1_565 S
N425 S424 1.613 . S
N425 C428 1.350 1_565 S
N426 S424 1.610 1_545 S
N426 C427 1.351 . S
C427 C421 1.428 . S
C427 N426 1.351 . S
C427 C428 1.434 . S
C428 C419 1.429 . S
C428 N425 1.350 1_545 S
C428 C427 1.434 . S
C429 C430 1.369 . S
C429 C431 1.419 . S
C429 H433 0.930 . S
C430 C429 1.369 . S
C430 C439 1.429 . S
C431 C429 1.419 . S
C431 C432 1.363 . S
C431 H434 0.929 . S
C432 C431 1.363 . S
C432 C438 1.428 . S
H433 C429 0.930 . S
H434 C431 0.929 . S
S435 N436 1.613 . S
S435 N437 1.610 . S
N436 S435 1.613 . S
N436 C439 1.350 . S
N437 S435 1.610 . S
N437 C438 1.351 . S
C438 C432 1.428 . S
C438 N437 1.351 . S
C438 C439 1.434 . S
C439 C430 1.429 . S
C439 N436 1.350 . S
C439 C438 1.434 . S
C440 C441 1.369 . S
C440 C442 1.419 . S
C440 H444 0.930 . S
C441 C440 1.369 . S
C441 C450 1.429 . S
C442 C440 1.419 . S
C442 C443 1.363 . S
C442 H445 0.929 . S
C443 C442 1.363 . S
C443 C449 1.428 . S
H444 C440 0.930 . S
H445 C442 0.929 . S
S446 N447 1.613 . S
S446 N448 1.610 . S
N447 S446 1.613 . S
N447 C450 1.350 . S
N448 S446 1.610 . S
N448 C449 1.351 . S
C449 C443 1.428 . S
C449 N448 1.351 . S
C449 C450 1.434 . S
C450 C441 1.429 . S
C450 N447 1.350 . S
C450 C449 1.434 . S
C451 C452 1.369 . S
C451 C453 1.419 . S
C451 H455 0.930 . S
C452 C451 1.369 . S
C452 C461 1.429 . S
C453 C451 1.419 . S
C453 C454 1.363 . S
C453 H456 0.929 . S
C454 C453 1.363 . S
C454 C460 1.428 . S
H455 C451 0.930 . S
H456 C453 0.929 . S
S457 N458 1.613 . S
S457 N459 1.610 . S
N458 S457 1.613 . S
N458 C461 1.350 . S
N459 S457 1.610 . S
N459 C460 1.351 . S
C460 C454 1.428 . S
C460 N459 1.351 . S
C460 C461 1.434 . S
C461 C452 1.429 . S
C461 N458 1.350 . S
C461 C460 1.434 . S
C462 C463 1.369 . S
C462 C464 1.419 . S
C462 H466 0.930 . S
C463 C462 1.369 . S
C463 C472 1.429 . S
C464 C462 1.419 . S
C464 C465 1.363 . S
C464 H467 0.929 . S
C465 C464 1.363 . S
C465 C471 1.428 . S
H466 C462 0.930 . S
H467 C464 0.929 . S
S468 N469 1.613 . S
S468 N470 1.610 . S
N469 S468 1.613 . S
N469 C472 1.350 . S
N470 S468 1.610 . S
N470 C471 1.351 . S
C471 C465 1.428 . S
C471 N470 1.351 . S
C471 C472 1.434 . S
C472 C463 1.429 . S
C472 N469 1.350 . S
C472 C471 1.434 . S
C473 C474 1.369 . S
C473 C475 1.419 . S
C473 H477 0.930 . S
C474 C473 1.369 . S
C474 C483 1.429 . S
C475 C473 1.419 . S
C475 C476 1.363 . S
C475 H478 0.929 1_455 S
C476 C475 1.363 . S
C476 C482 1.428 . S
H477 C473 0.930 . S
H478 C475 0.929 1_655 S
S479 N480 1.613 . S
S479 N481 1.610 . S
N480 S479 1.613 . S
N480 C483 1.350 . S
N481 S479 1.610 . S
N481 C482 1.351 . S
C482 C476 1.428 . S
C482 N481 1.351 . S
C482 C483 1.434 . S
C483 C474 1.429 . S
C483 N480 1.350 . S
C483 C482 1.434 . S
C265 N5 0.517 . S
C267 N170 0.528 . S
C276 N203 0.534 . S
C278 N38 0.524 . S
C287 N236 0.522 . S
C289 N71 0.517 . S
C298 N137 0.536 . S
C300 N104 0.527 . S
C309 N113 1.708 . S
C311 C17 1.581 . S
C320 C50 1.571 . S
C322 N14 1.718 . S
C331 N47 1.718 . S
C333 C83 1.577 . S
C342 C116 1.582 . S
C344 N80 1.709 . S
C353 N179 1.709 . S
C355 C149 1.584 . S
C364 C182 1.575 . S
C366 N212 1.717 . S
C375 C215 1.584 . S
C377 N245 1.709 . S
C386 C248 1.584 . S
C388 N146 1.713 . S
C397 C226 1.951 . S
C399 C8 1.989 1_565 S
C408 C259 1.951 . S
C410 C41 1.988 . S
C419 C74 1.989 1_545 S
C421 C160 1.955 . S
C430 C107 1.988 . S
C432 C193 1.956 . S
C441 C140 1.989 . S
C443 C94 1.955 . S
C452 C127 1.955 . S
C454 C173 1.987 1_655 S
C463 C206 1.989 . S
C465 C28 1.952 . S
C474 C61 1.951 . S
C476 C239 1.989 1_455 S
