# Generated by pormake.
# Topology ung, (4)-cn, num edge types: 1
# Building blocks:
#     Node 0, Type 0, BuildingBlock: QUQFOY_clean_sbu_3, # of connection points: 4
#     Node 1, Type 0, BuildingBlock: QUQFOY_clean_sbu_3, # of connection points: 4
#     Node 2, Type 0, BuildingBlock: QUQFOY_clean_sbu_3, # of connection points: 4
#     Node 3, Type 0, BuildingBlock: QUQFOY_clean_sbu_3, # of connection points: 4
#     Node 4, Type 0, BuildingBlock: QUQFOY_clean_sbu_3, # of connection points: 4
#     Node 5, Type 0, BuildingBlock: QUQFOY_clean_sbu_3, # of connection points: 4
#     Node 6, Type 0, BuildingBlock: QUQFOY_clean_sbu_3, # of connection points: 4
#     Node 7, Type 0, BuildingBlock: QUQFOY_clean_sbu_3, # of connection points: 4
#     Node 8, Type 0, BuildingBlock: QUQFOY_clean_sbu_3, # of connection points: 4
#     Node 9, Type 0, BuildingBlock: QUQFOY_clean_sbu_3, # of connection points: 4
#     Node 10, Type 0, BuildingBlock: QUQFOY_clean_sbu_3, # of connection points: 4
#     Node 11, Type 0, BuildingBlock: QUQFOY_clean_sbu_3, # of connection points: 4
#     Node 12, Type 0, BuildingBlock: QUQFOY_clean_sbu_3, # of connection points: 4
#     Node 13, Type 0, BuildingBlock: QUQFOY_clean_sbu_3, # of connection points: 4
#     Node 14, Type 0, BuildingBlock: QUQFOY_clean_sbu_3, # of connection points: 4
#     Node 15, Type 0, BuildingBlock: QUQFOY_clean_sbu_3, # of connection points: 4
#     Node 16, Type 0, BuildingBlock: QUQFOY_clean_sbu_3, # of connection points: 4
#     Node 17, Type 0, BuildingBlock: QUQFOY_clean_sbu_3, # of connection points: 4
#     Edge 18, Type (0, 0), BuildingBlock: AJUNOK_clean_linker_0, # of connection points: 2
#     Edge 19, Type (0, 0), BuildingBlock: AJUNOK_clean_linker_0, # of connection points: 2
#     Edge 20, Type (0, 0), BuildingBlock: AJUNOK_clean_linker_0, # of connection points: 2
#     Edge 21, Type (0, 0), BuildingBlock: AJUNOK_clean_linker_0, # of connection points: 2
#     Edge 22, Type (0, 0), BuildingBlock: AJUNOK_clean_linker_0, # of connection points: 2
#     Edge 23, Type (0, 0), BuildingBlock: AJUNOK_clean_linker_0, # of connection points: 2
#     Edge 24, Type (0, 0), BuildingBlock: AJUNOK_clean_linker_0, # of connection points: 2
#     Edge 25, Type (0, 0), BuildingBlock: AJUNOK_clean_linker_0, # of connection points: 2
#     Edge 26, Type (0, 0), BuildingBlock: AJUNOK_clean_linker_0, # of connection points: 2
#     Edge 27, Type (0, 0), BuildingBlock: AJUNOK_clean_linker_0, # of connection points: 2
#     Edge 28, Type (0, 0), BuildingBlock: AJUNOK_clean_linker_0, # of connection points: 2
#     Edge 29, Type (0, 0), BuildingBlock: AJUNOK_clean_linker_0, # of connection points: 2
#     Edge 30, Type (0, 0), BuildingBlock: AJUNOK_clean_linker_0, # of connection points: 2
#     Edge 31, Type (0, 0), BuildingBlock: AJUNOK_clean_linker_0, # of connection points: 2
#     Edge 32, Type (0, 0), BuildingBlock: AJUNOK_clean_linker_0, # of connection points: 2
#     Edge 33, Type (0, 0), BuildingBlock: AJUNOK_clean_linker_0, # of connection points: 2
#     Edge 34, Type (0, 0), BuildingBlock: AJUNOK_clean_linker_0, # of connection points: 2
#     Edge 35, Type (0, 0), BuildingBlock: AJUNOK_clean_linker_0, # of connection points: 2
#     Edge 36, Type (0, 0), BuildingBlock: AJUNOK_clean_linker_0, # of connection points: 2
#     Edge 37, Type (0, 0), BuildingBlock: AJUNOK_clean_linker_0, # of connection points: 2
#     Edge 38, Type (0, 0), BuildingBlock: AJUNOK_clean_linker_0, # of connection points: 2
#     Edge 39, Type (0, 0), BuildingBlock: AJUNOK_clean_linker_0, # of connection points: 2
#     Edge 40, Type (0, 0), BuildingBlock: AJUNOK_clean_linker_0, # of connection points: 2
#     Edge 41, Type (0, 0), BuildingBlock: AJUNOK_clean_linker_0, # of connection points: 2
#     Edge 42, Type (0, 0), BuildingBlock: AJUNOK_clean_linker_0, # of connection points: 2
#     Edge 43, Type (0, 0), BuildingBlock: AJUNOK_clean_linker_0, # of connection points: 2
#     Edge 44, Type (0, 0), BuildingBlock: AJUNOK_clean_linker_0, # of connection points: 2
#     Edge 45, Type (0, 0), BuildingBlock: AJUNOK_clean_linker_0, # of connection points: 2
#     Edge 46, Type (0, 0), BuildingBlock: AJUNOK_clean_linker_0, # of connection points: 2
#     Edge 47, Type (0, 0), BuildingBlock: AJUNOK_clean_linker_0, # of connection points: 2
#     Edge 48, Type (0, 0), BuildingBlock: AJUNOK_clean_linker_0, # of connection points: 2
#     Edge 49, Type (0, 0), BuildingBlock: AJUNOK_clean_linker_0, # of connection points: 2
#     Edge 50, Type (0, 0), BuildingBlock: AJUNOK_clean_linker_0, # of connection points: 2
#     Edge 51, Type (0, 0), BuildingBlock: AJUNOK_clean_linker_0, # of connection points: 2
#     Edge 52, Type (0, 0), BuildingBlock: AJUNOK_clean_linker_0, # of connection points: 2
#     Edge 53, Type (0, 0), BuildingBlock: AJUNOK_clean_linker_0, # of connection points: 2
# Relax obj value: 0.078
# Max RMSD: 0.195
# Mean RMSD: 0.192
data_MOF--net-ung--node1-QUQFOY_clean_sbu_3--edge1-AJUNOK_clean_linker_0
_symmetry_space_group_name_H-M    P1
_symmetry_Int_Tables_number       1
_symmetry_cell_setting            triclinic
loop_
_symmetry_equiv_pos_as_xyz
'x, y, z'
_cell_length_a     57.47242
_cell_length_b     57.626982
_cell_length_c     17.902888
_cell_angle_alpha  88.01679
_cell_angle_beta   92.358189
_cell_angle_gamma 121.90462
loop_
_atom_site_label
_atom_site_type_symbol
_atom_site_fract_x
_atom_site_fract_y
_atom_site_fract_z
_atom_type_partial_charge
C0 C 0.06937 0.67292 0.27089 0.0
O1 O 0.07865 0.67493 0.20636 0.0
Cd2 Cd 0.05028 0.63995 0.1156 0.0
O3 O 0.04671 0.65186 0.28894 0.0
Cd4 Cd 0.01139 0.60694 0.24173 0.0
C5 C -0.0111 0.6369 0.1236 0.0
O6 O 0.03414 0.59354 0.1556 0.0
O7 O -0.01037 0.57055 0.15427 0.0
O8 O 0.02741 0.59312 0.34724 0.0
C9 C 0.01151 0.5734 0.13072 0.0
O10 O 0.01089 0.64406 0.09018 0.0
C11 C 0.0047 0.57932 0.37952 0.0
O12 O -0.0169 0.62342 0.18512 0.0
O13 O -0.01603 0.57825 0.34718 0.0
C14 C 0.43312 0.41534 0.15971 0.0
O15 O 0.44066 0.4127 0.22536 0.0
Cd16 Cd 0.44705 0.44537 0.31885 0.0
O17 O 0.43141 0.43595 0.14282 0.0
Cd18 Cd 0.4441 0.47989 0.19527 0.0
C19 C 0.38951 0.44928 0.30379 0.0
O20 O 0.48018 0.49293 0.29225 0.0
O21 O 0.45879 0.51483 0.28482 0.0
O22 O 0.47853 0.49515 0.10603 0.0
C23 C 0.47784 0.51241 0.31451 0.0
O24 O 0.40348 0.44093 0.33893 0.0
C25 C 0.47141 0.50868 0.06449 0.0
O26 O 0.3981 0.46357 0.24373 0.0
O27 O 0.4506 0.50929 0.08413 0.0
C28 C 0.57324 -0.01338 0.2605 0.0
O29 O 0.56088 0.97447 0.2006 0.0
Cd30 Cd 0.55559 0.00185 0.10216 0.0
O31 O 0.57706 0.0098 0.27461 0.0
Cd32 Cd 0.56289 0.04049 0.22878 0.0
C33 C 0.61705 0.06379 0.12262 0.0
O34 O 0.5284 0.02031 0.12913 0.0
O35 O 0.55482 0.06466 0.13243 0.0
O36 O 0.52731 0.02008 0.31721 0.0
C37 C 0.53489 0.04366 0.10163 0.0
O38 O 0.60074 0.04254 0.08498 0.0
C39 C 0.5349 0.04162 0.35329 0.0
O40 O 0.61012 0.0683 0.18488 0.0
O41 O 0.55693 0.06334 0.33292 0.0
C42 C 0.06247 0.47737 0.77742 0.0
O43 O 0.07113 0.48514 0.7116 0.0
Cd44 Cd 0.0433 0.49285 0.61896 0.0
O45 O 0.04011 0.47464 0.79585 0.0
Cd46 Cd 0.00391 0.48183 0.75379 0.0
C47 C -0.01815 0.43104 0.6309 0.0
O48 O 0.02593 0.5192 0.66463 0.0
O49 O -0.01853 0.49681 0.66745 0.0
O50 O 0.02522 0.51277 0.85261 0.0
C51 C 0.0034 0.51615 0.63953 0.0
O52 O 0.00266 0.44858 0.59432 0.0
C53 C 0.00417 0.50454 0.89103 0.0
O54 O -0.02212 0.43591 0.69684 0.0
O55 O -0.01847 0.48443 0.86568 0.0
C56 C 0.63628 0.62247 0.67274 0.0
O57 O 0.63789 0.61345 0.73731 0.0
Cd58 Cd 0.60259 0.60036 0.82963 0.0
O59 O 0.61509 0.62286 0.65281 0.0
Cd60 Cd 0.56949 0.60727 0.69596 0.0
C61 C 0.5995 0.65831 0.82037 0.0
O62 O 0.55645 0.57022 0.78617 0.0
O63 O 0.5328 0.58978 0.78126 0.0
O64 O 0.55878 0.57688 0.59713 0.0
C65 C 0.53661 0.57158 0.81025 0.0
O66 O 0.60475 0.64223 0.8572 0.0
C67 C 0.54375 0.58307 0.55872 0.0
O68 O 0.58884 0.65255 0.75426 0.0
O69 O 0.54053 0.60163 0.58415 0.0
C70 C 0.43591 0.10467 0.67988 0.0
O71 O 0.44257 0.11331 0.74632 0.0
Cd72 Cd 0.45143 0.08855 0.84487 0.0
O73 O 0.43482 0.08302 0.66183 0.0
Cd74 Cd 0.44462 0.04963 0.71518 0.0
C75 C 0.39331 0.02379 0.83649 0.0
O76 O 0.48076 0.07344 0.81001 0.0
O77 O 0.45756 0.02902 0.81072 0.0
O78 O 0.4793 0.06621 0.62461 0.0
C79 C 0.47689 0.05112 0.83853 0.0
O80 O 0.40943 0.04581 0.87133 0.0
C81 C 0.46993 0.04393 0.59065 0.0
O82 O 0.39876 0.01992 0.77115 0.0
O83 O 0.44742 0.02346 0.61347 0.0
C84 C 0.61721 0.9453 0.48796 0.0
O85 O 0.60207 0.92836 0.5375 0.0
Cd86 Cd 0.62931 0.92831 0.6446 0.0
O87 O 0.64251 0.95364 0.48869 0.0
Cd88 Cd 0.66888 0.93558 0.54773 0.0
C89 C 0.69107 -0.01081 0.65135 0.0
O90 O 0.64761 0.89942 0.64479 0.0
O91 O 0.69184 0.92829 0.64818 0.0
O92 O 0.65174 0.90058 0.45628 0.0
C93 C 0.67116 0.90691 0.6743 0.0
O94 O 0.66692 0.97419 0.67579 0.0
C95 C 0.67431 0.90973 0.42414 0.0
O96 O 0.69925 -0.01877 0.59841 0.0
O97 O 0.69499 0.93179 0.44927 0.0
C98 C 0.1114 0.75798 0.49081 0.0
O99 O 0.12235 0.7582 0.55398 0.0
Cd100 Cd 0.12815 0.79173 0.64473 0.0
O101 O 0.10568 0.77601 0.47438 0.0
Cd102 Cd 0.11136 0.81827 0.5169 0.0
C103 C 0.06295 0.78074 0.64253 0.0
O104 O 0.15165 0.83857 0.60048 0.0
O105 O 0.12555 0.85542 0.59942 0.0
O106 O 0.14017 0.83167 0.41397 0.0
C107 C 0.1471 0.85644 0.62397 0.0
O108 O 0.08219 0.77905 0.67462 0.0
C109 C 0.12967 0.84279 0.375 0.0
O110 O 0.06652 0.79302 0.57926 0.0
O111 O 0.10936 0.84261 0.4023 0.0
C112 C 0.29803 0.42116 0.48926 0.0
O113 O 0.2987 0.43743 0.53638 0.0
Cd114 Cd 0.26712 0.41285 0.63843 0.0
O115 O 0.27809 0.39659 0.48935 0.0
Cd116 Cd 0.23251 0.37392 0.54165 0.0
C117 C 0.26161 0.35118 0.65646 0.0
O118 O 0.21922 0.39734 0.62859 0.0
O119 O 0.1994 0.35299 0.63553 0.0
O120 O 0.22127 0.39314 0.43775 0.0
C121 C 0.20056 0.37444 0.65627 0.0
O122 O 0.27055 0.37453 0.68439 0.0
C123 C 0.2044 0.37064 0.40647 0.0
O124 O 0.24743 0.34434 0.59561 0.0
O125 O 0.20058 0.3488 0.43859 0.0
C126 C 0.73817 0.81259 0.09866 0.0
O127 O 0.74693 0.81872 0.03254 0.0
Cd128 Cd 0.72071 0.82477 0.93184 0.0
O129 O 0.71624 0.8113 0.11476 0.0
Cd130 Cd 0.6822 0.81981 0.05937 0.0
C131 C 0.65778 0.7651 0.94998 0.0
O132 O 0.70435 0.85371 0.96035 0.0
O133 O 0.6598 0.82956 0.96043 0.0
O134 O 0.70011 0.85607 0.14571 0.0
C135 C 0.68155 0.84868 0.9312 0.0
O136 O 0.67907 0.78083 0.9125 0.0
C137 C 0.67833 0.84752 0.18114 0.0
O138 O 0.65404 0.77242 0.01281 0.0
O139 O 0.65736 0.82473 0.1609 0.0
C140 C 0.29626 0.95605 0.00736 0.0
O141 O 0.29575 0.94544 0.07112 0.0
Cd142 Cd 0.25775 0.93179 0.15471 0.0
O143 O 0.27621 0.95802 -0.0155 0.0
Cd144 Cd 0.23013 0.94451 0.01701 0.0
C145 C 0.25877 -0.00798 0.15165 0.0
O146 O 0.21267 0.90459 0.09933 0.0
O147 O 0.19058 0.92572 0.09239 0.0
O148 O 0.22277 0.91816 0.91082 0.0
C149 C 0.19249 0.90614 0.11961 0.0
O150 O 0.26178 0.9742 0.18713 0.0
C151 C 0.20913 0.92593 0.87188 0.0
O152 O 0.24991 -0.01164 0.08365 0.0
O153 O 0.20505 0.94346 0.90057 0.0
C154 C 0.10554 0.43374 -0.00029 0.0
O155 O 0.11349 0.44223 0.06591 0.0
Cd156 Cd 0.12035 0.4145 0.15943 0.0
O157 O 0.10282 0.41148 -0.01987 0.0
Cd158 Cd 0.11064 0.37585 0.02572 0.0
C159 C 0.05875 0.3531 0.14408 0.0
O160 O 0.14769 0.39734 0.11947 0.0
O161 O 0.12374 0.35302 0.11513 0.0
O162 O 0.14195 0.39381 0.92607 0.0
C163 C 0.14347 0.37446 0.14462 0.0
O164 O 0.07564 0.37421 0.18122 0.0
C165 C 0.13267 0.37155 0.89206 0.0
O166 O 0.06444 0.34864 0.07986 0.0
O167 O 0.11187 0.35032 0.91959 0.0
C168 C 0.39071 0.33036 0.93849 0.0
O169 O 0.39921 0.33183 0.87315 0.0
Cd170 Cd 0.36984 0.29467 0.7868 0.0
O171 O 0.36837 0.30945 0.95861 0.0
Cd172 Cd 0.33175 0.26477 0.91861 0.0
C173 C 0.31076 0.29527 0.79544 0.0
O174 O 0.35275 0.24888 0.83482 0.0
O175 O 0.30828 0.2264 0.83757 0.0
O176 O 0.34998 0.25514 0.02678 0.0
C177 C 0.32972 0.22851 0.81297 0.0
O178 O 0.33065 0.29883 0.75732 0.0
C179 C 0.32788 0.24195 0.0621 0.0
O180 O 0.30698 0.28513 0.86155 0.0
O181 O 0.30619 0.23877 0.02966 0.0
C182 C 0.75521 0.08373 0.83801 0.0
O183 O 0.76976 0.08387 0.8935 0.0
Cd184 Cd 0.78232 0.11821 -0.01066 0.0
O185 O 0.7524 0.10391 0.82572 0.0
Cd186 Cd 0.7726 0.15064 0.86553 0.0
C187 C 0.72332 0.12005 -0.0091 0.0
O188 O 0.81157 0.16495 0.95174 0.0
O189 O 0.79029 0.18695 0.95191 0.0
O190 O 0.80062 0.15932 0.76226 0.0
C191 C 0.80958 0.18416 -0.02203 0.0
O192 O 0.73984 0.11427 0.02321 0.0
C193 C 0.79439 0.17464 0.72576 0.0
O194 O 0.72844 0.13191 0.9267 0.0
O195 O 0.77696 0.17888 0.75437 0.0
C196 C 0.91917 0.66103 0.94025 0.0
O197 O 0.90236 0.64309 0.89461 0.0
Cd198 Cd 0.89648 0.66424 0.78147 0.0
O199 O 0.92352 0.68499 0.93596 0.0
Cd200 Cd 0.90142 0.70686 0.87461 0.0
C201 C 0.95711 0.72682 0.78058 0.0
O202 O 0.86677 0.68163 0.77728 0.0
O203 O 0.89259 0.7261 0.76768 0.0
O204 O 0.86611 0.68547 0.96374 0.0
C205 C 0.87266 0.70376 0.74244 0.0
O206 O 0.94212 0.70261 0.7562 0.0
C207 C 0.87057 0.70729 -0.00719 0.0
O208 O 0.94856 0.73589 0.82985 0.0
O209 O 0.89073 0.72984 -0.03188 0.0
C210 C 0.39144 0.14488 0.45211 0.0
O211 O 0.40013 0.15304 0.38652 0.0
Cd212 Cd 0.3712 0.15964 0.29538 0.0
O213 O 0.36848 0.14082 0.47013 0.0
Cd214 Cd 0.33006 0.14464 0.42978 0.0
C215 C 0.31172 0.09578 0.30174 0.0
O216 O 0.35227 0.18388 0.34683 0.0
O217 O 0.30777 0.16063 0.3458 0.0
O218 O 0.34805 0.17238 0.53638 0.0
C219 C 0.32984 0.18098 0.32162 0.0
O220 O 0.33239 0.1144 0.26674 0.0
C221 C 0.32585 0.16248 0.57076 0.0
O222 O 0.30663 0.09982 0.36733 0.0
O223 O 0.30433 0.14271 0.53986 0.0
C224 C -0.0361 0.29317 0.32839 0.0
O225 O -0.03604 0.27849 0.38276 0.0
Cd226 Cd 0.93115 0.26859 0.48049 0.0
O227 O 0.94414 0.29693 0.32033 0.0
Cd228 Cd 0.89836 0.27513 0.36981 0.0
C229 C 0.9292 0.32653 0.48798 0.0
O230 O 0.883 0.23655 0.4589 0.0
O231 O 0.86353 0.26041 0.45829 0.0
O232 O 0.8877 0.2438 0.27355 0.0
C233 C 0.86427 0.23985 0.48282 0.0
O234 O 0.93598 0.31079 0.5199 0.0
C235 C 0.87227 0.24935 0.23464 0.0
O236 O 0.91616 0.32021 0.42513 0.0
O237 O 0.86896 0.26807 0.25855 0.0
C238 C 0.77658 0.76828 0.33186 0.0
O239 O 0.78373 0.77702 0.39809 0.0
Cd240 Cd 0.79111 0.75026 0.49428 0.0
O241 O 0.77369 0.74578 0.31428 0.0
Cd242 Cd 0.78002 0.70974 0.36167 0.0
C243 C 0.73033 0.68736 0.48752 0.0
O244 O 0.81698 0.73152 0.45493 0.0
O245 O 0.79273 0.68714 0.45125 0.0
O246 O 0.8132 0.72752 0.26701 0.0
C247 C 0.81228 0.70858 0.48118 0.0
O248 O 0.74791 0.7091 0.52133 0.0
C249 C 0.80367 0.70565 0.23088 0.0
O250 O 0.73437 0.68264 0.42137 0.0
O251 O 0.78172 0.68466 0.2547 0.0
C252 C -0.01742 0.51679 -0.01177 0.0
C253 C 0.0062 0.51962 0.95867 0.0
C254 C -0.01544 0.53385 0.04524 0.0
C255 C 0.01023 0.55436 0.07489 0.0
H256 H -0.03753 0.50205 0.96529 0.0
H257 H -0.03424 0.53137 0.06468 0.0
S258 S 0.07818 0.56787 0.02283 0.0
N259 N 0.05603 0.54282 0.96798 0.0
N260 N 0.05963 0.5749 0.07458 0.0
C261 C 0.03393 0.55648 0.04837 0.0
C262 C 0.03194 0.53909 -0.00954 0.0
C263 C 0.49664 0.55517 0.89293 0.0
C264 C 0.51941 0.554 0.87228 0.0
C265 C 0.48089 0.54012 0.95424 0.0
C266 C 0.48733 0.52336 -0.00256 0.0
H267 H 0.49105 0.5681 0.86204 0.0
H268 H 0.46382 0.54199 -0.03154 0.0
S269 S 0.54434 0.51231 0.96522 0.0
N270 N 0.54713 0.53411 0.89871 0.0
N271 N 0.51765 0.50574 0.01364 0.0
C272 C 0.50972 0.52153 -0.02362 0.0
C273 C 0.52572 0.53684 0.9139 0.0
C274 C 0.49804 0.02294 0.0032 0.0
C275 C 0.52061 0.04638 0.03472 0.0
C276 C 0.48426 0.02482 0.93952 0.0
C277 C 0.4925 0.05024 0.90483 0.0
H278 H 0.49084 0.0029 0.02784 0.0
H279 H 0.46687 0.00609 0.91773 0.0
S280 S 0.5509 0.11786 0.96417 0.0
N281 N 0.55102 0.09595 0.02579 0.0
N282 N 0.52492 0.09936 0.90582 0.0
C283 C 0.51512 0.07389 0.93541 0.0
C284 C 0.52924 0.07201 0.00043 0.0
C285 C 0.52691 0.06527 0.45434 0.0
C286 C 0.51808 0.04135 0.4143 0.0
C287 C 0.51101 0.06579 0.51059 0.0
C288 C 0.48558 0.04242 0.52923 0.0
H289 H 0.54624 0.08382 0.44215 0.0
H290 H 0.51889 0.08478 0.53982 0.0
S291 S 0.45289 0.97458 0.44066 0.0
N292 N 0.48199 -0.00644 0.39687 0.0
N293 N 0.45222 -0.00529 0.50278 0.0
C294 C 0.47643 0.01835 0.48965 0.0
C295 C 0.49264 0.01777 0.43224 0.0
C296 C 0.02763 0.56999 0.48638 0.0
C297 C 0.00309 0.56452 0.44993 0.0
C298 C 0.02743 0.5547 0.54873 0.0
C299 C 0.00268 0.53329 0.57732 0.0
H300 H 0.04734 0.58593 0.46578 0.0
H301 H 0.04692 0.55941 0.57367 0.0
S302 S 0.9326 0.51175 0.50529 0.0
N303 N 0.95328 0.5371 0.44897 0.0
N304 N 0.95275 0.5082 0.56681 0.0
C305 C -0.02214 0.5282 0.54323 0.0
C306 C -0.02189 0.54387 0.47943 0.0
C307 C 0.50586 0.56709 0.46239 0.0
C308 C 0.52919 0.56748 0.49073 0.0
C309 C 0.48971 0.54954 0.40442 0.0
C310 C 0.4963 0.53172 0.37265 0.0
H311 H 0.49942 0.57967 0.48685 0.0
H312 H 0.4715 0.54947 0.38582 0.0
S313 S 0.55728 0.52737 0.4208 0.0
N314 N 0.55957 0.55036 0.47809 0.0
N315 N 0.52907 0.51729 0.36965 0.0
C316 C 0.52026 0.5328 0.39824 0.0
C317 C 0.53676 0.55072 0.45706 0.0
C318 C 0.65442 0.85324 0.2861 0.0
C319 C 0.67777 0.86383 0.24248 0.0
C320 C 0.65355 0.86835 0.34435 0.0
C321 C 0.67601 0.89466 0.36138 0.0
H322 H 0.63667 0.83306 0.27551 0.0
H323 H 0.6351 0.85915 0.37659 0.0
S324 S 0.74171 0.93227 0.26207 0.0
N325 N 0.72377 0.90274 0.21904 0.0
N326 N 0.72199 0.93095 0.32862 0.0
C327 C 0.69941 0.90562 0.31787 0.0
C328 C 0.70032 0.89027 0.25843 0.0
C329 C 0.16321 0.85346 0.27601 0.0
C330 C 0.14233 0.85649 0.30349 0.0
C331 C 0.17854 0.86877 0.21467 0.0
C332 C 0.17362 0.88774 0.178 0.0
H333 H 0.16846 0.83971 0.30349 0.0
H334 H 0.19497 0.86632 0.19761 0.0
S335 S 0.11893 0.90093 0.2216 0.0
N336 N 0.11585 0.87806 0.28508 0.0
N337 N 0.1445 0.90684 0.16898 0.0
C338 C 0.15169 0.88982 0.20194 0.0
C339 C 0.13605 0.87418 0.26478 0.0
C340 C 0.19611 0.39563 0.30298 0.0
C341 C 0.18952 0.37052 0.33702 0.0
C342 C 0.18145 0.39666 0.24007 0.0
C343 C 0.15961 0.37265 0.20851 0.0
H344 H 0.21254 0.4148 0.32561 0.0
H345 H 0.1871 0.41651 0.21672 0.0
S346 S 0.13465 0.30156 0.27467 0.0
N347 N 0.16015 0.321 0.33329 0.0
N348 N 0.13252 0.32281 0.21473 0.0
C349 C 0.15315 0.34731 0.24087 0.0
C350 C 0.16813 0.34628 0.30515 0.0
C351 C 0.1662 0.3957 0.79096 0.0
C352 C 0.14708 0.3709 0.82632 0.0
C353 C 0.18287 0.39656 0.73475 0.0
C354 C 0.18117 0.37266 0.71171 0.0
H355 H 0.16881 0.41482 0.80792 0.0
H356 H 0.19761 0.41625 0.71048 0.0
S357 S 0.13345 0.30219 0.78413 0.0
N358 N 0.12661 0.32169 0.8323 0.0
N359 N 0.15785 0.3231 0.72663 0.0
C360 C 0.16144 0.34751 0.74484 0.0
C361 C 0.14439 0.34668 0.80203 0.0
C362 C 0.65396 0.85578 0.8328 0.0
C363 C 0.67987 0.86366 0.8648 0.0
C364 C 0.65136 0.8696 0.77052 0.0
C365 C 0.67455 0.89186 0.73789 0.0
H366 H 0.6354 0.83884 0.85612 0.0
H367 H 0.63096 0.86292 0.74844 0.0
S368 S 0.74719 0.92027 0.79924 0.0
N369 N 0.72923 0.89482 0.85844 0.0
N370 N 0.72448 0.92093 0.74125 0.0
C371 C 0.70068 0.8998 0.76873 0.0
C372 C 0.70329 0.88566 0.83221 0.0
C373 C 0.17165 0.90978 0.77456 0.0
C374 C 0.19635 0.91249 0.80016 0.0
C375 C 0.15636 0.89231 0.71556 0.0
C376 C 0.16526 0.87697 0.68011 0.0
H377 H 0.16328 0.92 0.80284 0.0
H378 H 0.13685 0.89001 0.69981 0.0
S379 S 0.23107 0.88067 0.7181 0.0
N380 N 0.23087 0.90124 0.77963 0.0
N381 N 0.20208 0.86835 0.66904 0.0
C382 C 0.19089 0.88101 0.70186 0.0
C383 C 0.20647 0.89882 0.76176 0.0
C384 C 0.35193 0.21263 0.72903 0.0
C385 C 0.32784 0.20891 0.75799 0.0
C386 C 0.35086 0.19633 0.67141 0.0
C387 C 0.32567 0.17568 0.64001 0.0
H388 H 0.37186 0.22881 0.7493 0.0
H389 H 0.37012 0.2007 0.64959 0.0
S390 S 0.25654 0.1553 0.70211 0.0
N391 N 0.27786 0.18117 0.75598 0.0
N392 N 0.27602 0.15071 0.64682 0.0
C393 C 0.30138 0.17058 0.67136 0.0
C394 C 0.30244 0.1872 0.73044 0.0
C395 C 0.81047 0.21274 0.63168 0.0
C396 C 0.80902 0.18867 0.65671 0.0
C397 C 0.82782 0.22868 0.57383 0.0
C398 C 0.84436 0.22115 0.53882 0.0
H399 H 0.79907 0.21999 0.65905 0.0
H400 H 0.8289 0.24756 0.55831 0.0
S401 S 0.84491 0.15773 0.57627 0.0
N402 N 0.82326 0.1564 0.6366 0.0
N403 N 0.85594 0.18648 0.52819 0.0
C404 C 0.8419 0.19631 0.56043 0.0
C405 C 0.82419 0.18003 0.61922 0.0
C406 C 0.86335 0.72931 0.64309 0.0
C407 C 0.85686 0.70405 0.6758 0.0
C408 C 0.84899 0.73058 0.57983 0.0
C409 C 0.82764 0.70666 0.54666 0.0
H410 H 0.87962 0.74839 0.66656 0.0
H411 H 0.85466 0.75051 0.55706 0.0
S412 S 0.80276 0.63529 0.61002 0.0
N413 N 0.82779 0.65453 0.66999 0.0
N414 N 0.80073 0.65678 0.55082 0.0
C415 C 0.82099 0.68118 0.57847 0.0
C416 C 0.83562 0.67993 0.64312 0.0
C417 C 0.84133 0.72996 0.13996 0.0
C418 C 0.81888 0.70517 0.16667 0.0
C419 C 0.85782 0.73047 0.08374 0.0
C420 C 0.8526 0.70619 0.05181 0.0
H421 H 0.84653 0.74929 0.16325 0.0
H422 H 0.87492 0.75006 0.06572 0.0
S423 S 0.79565 0.63583 0.09976 0.0
N424 N 0.79182 0.65576 0.15537 0.0
N425 N 0.82267 0.65651 0.04954 0.0
C426 C 0.82984 0.68123 0.07689 0.0
C427 C 0.81299 0.68075 0.13419 0.0
C428 C 0.30439 0.19086 0.22222 0.0
C429 C 0.32917 0.19888 0.2618 0.0
C430 C 0.30368 0.20582 0.15984 0.0
C431 C 0.32773 0.22929 0.13508 0.0
H432 H 0.28556 0.17226 0.23756 0.0
H433 H 0.28448 0.1982 0.12879 0.0
S434 S 0.39686 0.2615 0.22668 0.0
N435 N 0.3776 0.23361 0.27707 0.0
N436 N 0.37629 0.26186 0.16017 0.0
C437 C 0.35224 0.23857 0.1772 0.0
C438 C 0.35297 0.22332 0.24049 0.0
C439 C 0.84124 0.24001 0.1226 0.0
C440 C 0.85809 0.23369 0.16622 0.0
C441 C 0.82629 0.22431 0.06054 0.0
C442 C 0.82761 0.20168 0.03961 0.0
H443 H 0.83917 0.25692 0.1371 0.0
H444 H 0.81322 0.22975 0.0295 0.0
S445 S 0.86944 0.17699 0.13366 0.0
N446 N 0.8759 0.2036 0.18264 0.0
N447 N 0.84771 0.1742 0.06619 0.0
C448 C 0.84494 0.19555 0.08145 0.0
C449 C 0.86017 0.21151 0.14471 0.0
C450 C 0.08223 0.68882 0.4027 0.0
C451 C 0.08398 0.69517 0.32557 0.0
C452 C 0.0928 0.70941 0.45645 0.0
C453 C 0.10483 0.73698 0.43478 0.0
H454 H 0.072 0.6677 0.42171 0.0
H455 H 0.09019 0.70359 0.51512 0.0
S456 S 0.11602 0.76458 0.24031 0.0
N457 N 0.10031 0.73115 0.23055 0.0
N458 N 0.11949 0.76978 0.3313 0.0
C459 C 0.10765 0.74367 0.35794 0.0
C460 C 0.09743 0.72279 0.30332 0.0
C461 C 0.34366 0.41598 0.35225 0.0
C462 C 0.36402 0.4433 0.33786 0.0
C463 C 0.32204 0.40928 0.39923 0.0
C464 C 0.32029 0.42965 0.43545 0.0
H465 H 0.345 0.39961 0.32908 0.0
H466 H 0.30718 0.38782 0.40947 0.0
S467 S 0.36854 0.50453 0.41418 0.0
N468 N 0.38099 0.491 0.36084 0.0
N469 N 0.34054 0.47854 0.45072 0.0
C470 C 0.34025 0.45719 0.41981 0.0
C471 C 0.36206 0.46397 0.37061 0.0
C472 C 0.57883 0.93913 0.40172 0.0
C473 C 0.60603 0.9556 0.42905 0.0
C474 C 0.56842 0.94866 0.34418 0.0
C475 C 0.58477 0.97511 0.31375 0.0
H476 H 0.56561 0.91873 0.42448 0.0
H477 H 0.5473 0.93566 0.32509 0.0
S478 S 0.65712 0.02616 0.36531 0.0
N479 N 0.64906 -0.00052 0.4202 0.0
N480 N 0.62927 0.01741 0.31378 0.0
C481 C 0.61192 -0.00836 0.34034 0.0
C482 C 0.62262 -0.01812 0.39761 0.0
C483 C 0.64717 0.08705 0.01463 0.0
C484 C 0.64445 0.08265 0.0925 0.0
C485 C 0.67299 0.10101 -0.01771 0.0
C486 C 0.69695 0.1105 0.02664 0.0
H487 H 0.62911 0.0788 -0.02188 0.0
H488 H 0.67404 0.10287 0.92191 0.0
S489 S 0.70101 0.10644 0.23388 0.0
N490 N 0.66785 0.09083 0.21359 0.0
N491 N 0.71652 0.11667 0.15302 0.0
C492 C 0.69458 0.10754 0.10498 0.0
C493 C 0.66827 0.09374 0.13791 0.0
C494 C 0.92588 0.62904 0.02411 0.0
C495 C 0.93597 0.6554 -0.00645 0.0
C496 C 0.94256 0.62345 0.07125 0.0
C497 C -0.03005 0.64392 0.08753 0.0
H498 H 0.90514 0.61261 0.01073 0.0
H499 H 0.93447 0.60274 0.09185 0.0
S500 S 0.00605 0.71619 0.02297 0.0
N501 N -0.02511 0.7023 -0.01467 0.0
N502 N 0.00619 0.69144 0.07173 0.0
C503 C -0.01997 0.67038 0.05874 0.0
C504 C -0.03696 0.67622 0.01227 0.0
C505 C 0.40416 0.34645 0.06958 0.0
C506 C 0.40566 0.35281 -0.0075 0.0
C507 C 0.41432 0.36691 0.12344 0.0
C508 C 0.42579 0.39446 0.10224 0.0
H509 H 0.39437 0.32534 0.08856 0.0
H510 H 0.41199 0.36094 0.18201 0.0
S511 S 0.43655 0.42215 0.9077 0.0
N512 N 0.42129 0.38877 0.89773 0.0
N513 N 0.43996 0.42731 -0.00127 0.0
C514 C 0.42846 0.40123 0.02531 0.0
C515 C 0.41856 0.3804 -0.02955 0.0
C516 C 0.94218 0.35476 0.60254 0.0
C517 C 0.93794 0.3527 0.52426 0.0
C518 C 0.9545 0.38006 0.63801 0.0
C519 C -0.03653 0.40422 0.59614 0.0
H520 H 0.9368 0.33676 0.63654 0.0
H521 H 0.9586 0.38088 0.69778 0.0
S522 S 0.95441 0.40975 0.39114 0.0
N523 N 0.9413 0.37677 0.40715 0.0
N524 N -0.03504 0.42442 0.4735 0.0
C525 C 0.95787 0.40229 0.51852 0.0
C526 C 0.94493 0.37649 0.48258 0.0
C527 C 0.68666 0.64834 0.65278 0.0
C528 C 0.65988 0.63494 0.62229 0.0
C529 C 0.70926 0.66433 0.60762 0.0
C530 C 0.70604 0.66717 0.52997 0.0
H531 H 0.69019 0.6477 0.71255 0.0
H532 H 0.72947 0.67519 0.6342 0.0
S533 S 0.64042 0.63334 0.42113 0.0
N534 N 0.63144 0.62351 0.5085 0.0
N535 N 0.6742 0.65327 0.42354 0.0
C536 C 0.67955 0.6524 0.49787 0.0
C537 C 0.65639 0.63641 0.54408 0.0
C538 C 0.41975 0.12508 0.49018 0.0
C539 C 0.40716 0.13923 0.50907 0.0
C540 C 0.42998 0.11488 0.54605 0.0
C541 C 0.4284 0.11892 0.62253 0.0
H542 H 0.42027 0.12047 0.43234 0.0
H543 H 0.43848 0.10304 0.52915 0.0
S544 S 0.40046 0.15792 0.69986 0.0
N545 N 0.39584 0.15903 0.60849 0.0
N546 N 0.4155 0.14031 0.71333 0.0
C547 C 0.41756 0.13472 0.64164 0.0
C548 C 0.40679 0.14472 0.58486 0.0
C549 C 0.34707 -0.01701 -0.00391 0.0
C550 C 0.32097 0.96869 0.96132 0.0
C551 C 0.37043 -0.00016 0.95424 0.0
C552 C 0.36868 0.0026 0.87597 0.0
H553 H 0.3493 -0.01747 0.05641 0.0
H554 H 0.39001 0.0115 -0.01615 0.0
S555 S 0.30551 0.96636 0.75726 0.0
N556 N 0.29489 0.95622 0.8434 0.0
N557 N 0.33909 -0.01252 0.7647 0.0
C558 C 0.343 -0.01319 0.83989 0.0
C559 C 0.31907 0.97 0.88267 0.0
C560 C 0.09027 0.45672 0.81301 0.0
C561 C 0.07752 0.47053 0.83381 0.0
C562 C 0.10029 0.44583 0.86739 0.0
C563 C 0.0984 0.44885 0.94439 0.0
H564 H 0.09115 0.45299 0.7546 0.0
H565 H 0.1089 0.43429 0.84894 0.0
S566 S 0.06974 0.48628 0.02726 0.0
N567 N 0.06556 0.48871 0.93613 0.0
N568 N 0.08486 0.46867 0.03815 0.0
C569 C 0.08733 0.46419 0.96566 0.0
C570 C 0.07673 0.47489 0.91039 0.0
C571 C 0.62086 0.70877 0.8085 0.0
C572 C 0.60878 0.68507 0.85358 0.0
C573 C 0.63544 0.7347 0.84064 0.0
C574 C 0.63805 0.73786 0.9189 0.0
H575 H 0.62067 0.70731 0.74828 0.0
H576 H 0.6457 0.75243 0.80383 0.0
S577 S 0.60647 0.68215 0.06088 0.0
N578 N 0.59768 0.66628 -0.01994 0.0
N579 N 0.62477 0.71515 0.04022 0.0
C580 C 0.62411 0.71439 0.96435 0.0
C581 C 0.60959 0.68794 0.9317 0.0
C582 C 0.70107 0.03289 0.70324 0.0
C583 C 0.70984 0.01488 0.69023 0.0
C584 C 0.71628 0.05529 0.75004 0.0
C585 C 0.74047 0.0601 0.78745 0.0
H586 H 0.68199 0.02932 0.6781 0.0
H587 H 0.7085 0.06847 0.75871 0.0
S588 S 0.77199 0.01858 0.77193 0.0
N589 N 0.74425 0.00321 0.71703 0.0
N590 N 0.77269 0.04509 0.80706 0.0
C591 C 0.7496 0.0423 0.77442 0.0
C592 C 0.73434 0.01977 0.72515 0.0
C593 C 0.0186 0.77763 0.66843 0.0
C594 C 0.0363 0.76778 0.68029 0.0
C595 C -0.00652 0.76549 0.70511 0.0
C596 C -0.01471 0.74303 0.754 0.0
H597 H 0.02414 0.79474 0.63054 0.0
H598 H -0.02004 0.773 0.69299 0.0
S599 S 0.02363 0.70924 0.80401 0.0
N600 N 0.04353 0.73413 0.74543 0.0
N601 N -0.00365 0.71138 0.81254 0.0
C602 C 0.00279 0.7332 0.76681 0.0
C603 C 0.02831 0.74557 0.73047 0.0
C604 C 0.27718 0.31836 0.65072 0.0
C605 C 0.26937 0.33294 0.6936 0.0
C606 C 0.28934 0.30495 0.68482 0.0
C607 C 0.29348 0.30515 0.76296 0.0
H608 H 0.27544 0.31869 0.59025 0.0
H609 H 0.29643 0.29514 0.64949 0.0
S610 S 0.27306 0.33735 0.90042 0.0
N611 N 0.26418 0.34476 0.81832 0.0
N612 N 0.28646 0.31895 0.88255 0.0
C613 C 0.28386 0.31793 0.80675 0.0
C614 C 0.27198 0.33204 0.77195 0.0
C615 C 0.0082 0.30139 0.28 0.0
C616 C -0.0134 0.30625 0.27436 0.0
C617 C 0.03077 0.31518 0.23309 0.0
C618 C 0.03236 0.334 0.17838 0.0
H619 H 0.00815 0.28751 0.32246 0.0
H620 H 0.04767 0.31201 0.24187 0.0
S621 S -0.01859 0.35371 0.13793 0.0
N622 N -0.03178 0.33095 0.20672 0.0
N623 N 0.01077 0.35662 0.11963 0.0
C624 C 0.0107 0.33842 0.17013 0.0
C625 C -0.01225 0.32455 0.21773 0.0
C626 C 0.75708 0.79655 0.29055 0.0
C627 C 0.77112 0.78365 0.27354 0.0
C628 C 0.74758 0.80701 0.23345 0.0
C629 C 0.75221 0.80535 0.15755 0.0
H630 H 0.75208 0.79722 0.34781 0.0
H631 H 0.73574 0.8157 0.24883 0.0
S632 S 0.79136 0.77678 0.08521 0.0
N633 N 0.7916 0.77207 0.17666 0.0
N634 N 0.77412 0.79211 0.06951 0.0
C635 C 0.76794 0.79422 0.14045 0.0
C636 C 0.77726 0.78323 0.19845 0.0
C637 C 0.28068 0.04276 0.14924 0.0
C638 C 0.26789 0.01798 0.18971 0.0
C639 C 0.29386 0.06782 0.18615 0.0
C640 C 0.29436 0.06904 0.26486 0.0
H641 H 0.28184 0.04286 0.08895 0.0
H642 H 0.30443 0.08642 0.15272 0.0
S643 S 0.26068 0.00975 0.39577 0.0
N644 N 0.25425 -0.00398 0.31222 0.0
N645 N 0.27874 0.04317 0.38138 0.0
C646 C 0.28003 0.04439 0.30559 0.0
C647 C 0.26691 0.01885 0.2681 0.0
loop_
_geom_bond_atom_site_label_1
_geom_bond_atom_site_label_2
_geom_bond_distance
_geom_bond_site_symmetry_2
_ccdc_geom_bond_type
C0 O1 1.306 . S
C0 O3 1.160 . S
O1 C0 1.306 . S
O1 Cd2 2.228 . S
Cd2 O1 2.228 . S
Cd2 O6 2.273 . S
Cd2 O10 2.277 . S
O3 C0 1.160 . S
O3 Cd4 2.203 . S
Cd4 O3 2.203 . S
Cd4 O6 2.411 . S
Cd4 O7 2.333 . S
Cd4 O8 2.352 . S
Cd4 O12 2.277 . S
Cd4 O13 2.356 . S
C5 O10 1.209 . S
C5 O12 1.226 . S
O6 Cd2 2.273 . S
O6 Cd4 2.411 . S
O6 C9 1.320 . S
O7 Cd4 2.333 . S
O7 C9 1.214 . S
O8 Cd4 2.352 . S
O8 C11 1.258 . S
C9 O6 1.320 . S
C9 O7 1.214 . S
O10 Cd2 2.277 . S
O10 C5 1.209 . S
C11 O8 1.258 . S
C11 O13 1.282 . S
O12 Cd4 2.277 . S
O12 C5 1.226 . S
O13 Cd4 2.356 . S
O13 C11 1.282 . S
C14 O15 1.306 . S
C14 O17 1.160 . S
O15 C14 1.306 . S
O15 Cd16 2.228 . S
Cd16 O15 2.228 . S
Cd16 O20 2.273 . S
Cd16 O24 2.277 . S
O17 C14 1.160 . S
O17 Cd18 2.203 . S
Cd18 O17 2.203 . S
Cd18 O20 2.411 . S
Cd18 O21 2.333 . S
Cd18 O22 2.352 . S
Cd18 O26 2.277 . S
Cd18 O27 2.356 . S
C19 O24 1.209 . S
C19 O26 1.226 . S
O20 Cd16 2.273 . S
O20 Cd18 2.411 . S
O20 C23 1.320 . S
O21 Cd18 2.333 . S
O21 C23 1.214 . S
O22 Cd18 2.352 . S
O22 C25 1.258 . S
C23 O20 1.320 . S
C23 O21 1.214 . S
O24 Cd16 2.277 . S
O24 C19 1.209 . S
C25 O22 1.258 . S
C25 O27 1.282 . S
O26 Cd18 2.277 . S
O26 C19 1.226 . S
O27 Cd18 2.356 . S
O27 C25 1.282 . S
C28 O29 1.306 . S
C28 O31 1.160 . S
O29 C28 1.306 . S
O29 Cd30 2.228 . S
Cd30 O29 2.228 . S
Cd30 O34 2.273 . S
Cd30 O38 2.277 . S
O31 C28 1.160 . S
O31 Cd32 2.203 . S
Cd32 O31 2.203 . S
Cd32 O34 2.411 . S
Cd32 O35 2.333 . S
Cd32 O36 2.352 . S
Cd32 O40 2.277 . S
Cd32 O41 2.356 . S
C33 O38 1.209 . S
C33 O40 1.226 . S
O34 Cd30 2.273 . S
O34 Cd32 2.411 . S
O34 C37 1.320 . S
O35 Cd32 2.333 . S
O35 C37 1.214 . S
O36 Cd32 2.352 . S
O36 C39 1.258 . S
C37 O34 1.320 . S
C37 O35 1.214 . S
O38 Cd30 2.277 . S
O38 C33 1.209 . S
C39 O36 1.258 . S
C39 O41 1.282 . S
O40 Cd32 2.277 . S
O40 C33 1.226 . S
O41 Cd32 2.356 . S
O41 C39 1.282 . S
C42 O43 1.306 . S
C42 O45 1.160 . S
O43 C42 1.306 . S
O43 Cd44 2.228 . S
Cd44 O43 2.228 . S
Cd44 O48 2.273 . S
Cd44 O52 2.277 . S
O45 C42 1.160 . S
O45 Cd46 2.203 . S
Cd46 O45 2.203 . S
Cd46 O48 2.411 . S
Cd46 O49 2.333 . S
Cd46 O50 2.352 . S
Cd46 O54 2.277 . S
Cd46 O55 2.356 . S
C47 O52 1.209 . S
C47 O54 1.226 . S
O48 Cd44 2.273 . S
O48 Cd46 2.411 . S
O48 C51 1.320 . S
O49 Cd46 2.333 . S
O49 C51 1.214 . S
O50 Cd46 2.352 . S
O50 C53 1.258 . S
C51 O48 1.320 . S
C51 O49 1.214 . S
O52 Cd44 2.277 . S
O52 C47 1.209 . S
C53 O50 1.258 . S
C53 O55 1.282 . S
O54 Cd46 2.277 . S
O54 C47 1.226 . S
O55 Cd46 2.356 . S
O55 C53 1.282 . S
C56 O57 1.306 . S
C56 O59 1.160 . S
O57 C56 1.306 . S
O57 Cd58 2.228 . S
Cd58 O57 2.228 . S
Cd58 O62 2.273 . S
Cd58 O66 2.277 . S
O59 C56 1.160 . S
O59 Cd60 2.203 . S
Cd60 O59 2.203 . S
Cd60 O62 2.411 . S
Cd60 O63 2.333 . S
Cd60 O64 2.352 . S
Cd60 O68 2.277 . S
Cd60 O69 2.356 . S
C61 O66 1.209 . S
C61 O68 1.226 . S
O62 Cd58 2.273 . S
O62 Cd60 2.411 . S
O62 C65 1.320 . S
O63 Cd60 2.333 . S
O63 C65 1.214 . S
O64 Cd60 2.352 . S
O64 C67 1.258 . S
C65 O62 1.320 . S
C65 O63 1.214 . S
O66 Cd58 2.277 . S
O66 C61 1.209 . S
C67 O64 1.258 . S
C67 O69 1.282 . S
O68 Cd60 2.277 . S
O68 C61 1.226 . S
O69 Cd60 2.356 . S
O69 C67 1.282 . S
C70 O71 1.306 . S
C70 O73 1.160 . S
O71 C70 1.306 . S
O71 Cd72 2.228 . S
Cd72 O71 2.228 . S
Cd72 O76 2.273 . S
Cd72 O80 2.277 . S
O73 C70 1.160 . S
O73 Cd74 2.203 . S
Cd74 O73 2.203 . S
Cd74 O76 2.411 . S
Cd74 O77 2.333 . S
Cd74 O78 2.352 . S
Cd74 O82 2.277 . S
Cd74 O83 2.356 . S
C75 O80 1.209 . S
C75 O82 1.226 . S
O76 Cd72 2.273 . S
O76 Cd74 2.411 . S
O76 C79 1.320 . S
O77 Cd74 2.333 . S
O77 C79 1.214 . S
O78 Cd74 2.352 . S
O78 C81 1.258 . S
C79 O76 1.320 . S
C79 O77 1.214 . S
O80 Cd72 2.277 . S
O80 C75 1.209 . S
C81 O78 1.258 . S
C81 O83 1.282 . S
O82 Cd74 2.277 . S
O82 C75 1.226 . S
O83 Cd74 2.356 . S
O83 C81 1.282 . S
C84 O85 1.306 . S
C84 O87 1.160 . S
O85 C84 1.306 . S
O85 Cd86 2.228 . S
Cd86 O85 2.228 . S
Cd86 O90 2.273 . S
Cd86 O94 2.283 . S
O87 C84 1.160 . S
O87 Cd88 2.203 . S
Cd88 O87 2.203 . S
Cd88 O90 2.411 . S
Cd88 O91 2.333 . S
Cd88 O92 2.352 . S
Cd88 O96 2.277 1_565 S
Cd88 O97 2.356 . S
C89 O94 1.205 1_545 S
C89 O96 1.226 . S
O90 Cd86 2.273 . S
O90 Cd88 2.411 . S
O90 C93 1.320 . S
O91 Cd88 2.333 . S
O91 C93 1.214 . S
O92 Cd88 2.352 . S
O92 C95 1.258 . S
C93 O90 1.320 . S
C93 O91 1.214 . S
O94 Cd86 2.283 . S
O94 C89 1.205 1_565 S
C95 O92 1.258 . S
C95 O97 1.282 . S
O96 Cd88 2.277 1_545 S
O96 C89 1.226 . S
O97 Cd88 2.356 . S
O97 C95 1.282 . S
C98 O99 1.306 . S
C98 O101 1.160 . S
O99 C98 1.306 . S
O99 Cd100 2.228 . S
Cd100 O99 2.228 . S
Cd100 O104 2.273 . S
Cd100 O108 2.277 . S
O101 C98 1.160 . S
O101 Cd102 2.203 . S
Cd102 O101 2.203 . S
Cd102 O104 2.411 . S
Cd102 O105 2.333 . S
Cd102 O106 2.352 . S
Cd102 O110 2.277 . S
Cd102 O111 2.356 . S
C103 O108 1.209 . S
C103 O110 1.226 . S
O104 Cd100 2.273 . S
O104 Cd102 2.411 . S
O104 C107 1.320 . S
O105 Cd102 2.333 . S
O105 C107 1.214 . S
O106 Cd102 2.352 . S
O106 C109 1.258 . S
C107 O104 1.320 . S
C107 O105 1.214 . S
O108 Cd100 2.277 . S
O108 C103 1.209 . S
C109 O106 1.258 . S
C109 O111 1.282 . S
O110 Cd102 2.277 . S
O110 C103 1.226 . S
O111 Cd102 2.356 . S
O111 C109 1.282 . S
C112 O113 1.306 . S
C112 O115 1.160 . S
O113 C112 1.306 . S
O113 Cd114 2.228 . S
Cd114 O113 2.228 . S
Cd114 O118 2.273 . S
Cd114 O122 2.277 . S
O115 C112 1.160 . S
O115 Cd116 2.203 . S
Cd116 O115 2.203 . S
Cd116 O118 2.411 . S
Cd116 O119 2.333 . S
Cd116 O120 2.352 . S
Cd116 O124 2.277 . S
Cd116 O125 2.356 . S
C117 O122 1.209 . S
C117 O124 1.226 . S
O118 Cd114 2.273 . S
O118 Cd116 2.411 . S
O118 C121 1.320 . S
O119 Cd116 2.333 . S
O119 C121 1.214 . S
O120 Cd116 2.352 . S
O120 C123 1.258 . S
C121 O118 1.320 . S
C121 O119 1.214 . S
O122 Cd114 2.277 . S
O122 C117 1.209 . S
C123 O120 1.258 . S
C123 O125 1.282 . S
O124 Cd116 2.277 . S
O124 C117 1.226 . S
O125 Cd116 2.356 . S
O125 C123 1.282 . S
C126 O127 1.306 . S
C126 O129 1.160 . S
O127 C126 1.306 . S
O127 Cd128 2.228 1_554 S
Cd128 O127 2.228 1_556 S
Cd128 O132 2.273 . S
Cd128 O136 2.277 . S
O129 C126 1.160 . S
O129 Cd130 2.203 . S
Cd130 O129 2.203 . S
Cd130 O132 2.411 1_554 S
Cd130 O133 2.333 1_554 S
Cd130 O134 2.352 . S
Cd130 O138 2.277 . S
Cd130 O139 2.356 . S
C131 O136 1.209 1_554 S
C131 O138 1.225 . S
O132 Cd128 2.273 . S
O132 Cd130 2.411 1_556 S
O132 C135 1.320 . S
O133 Cd130 2.333 1_556 S
O133 C135 1.214 . S
O134 Cd130 2.352 . S
O134 C137 1.258 . S
C135 O132 1.320 . S
C135 O133 1.214 . S
O136 Cd128 2.277 . S
O136 C131 1.209 1_556 S
C137 O134 1.258 . S
C137 O139 1.282 . S
O138 Cd130 2.277 . S
O138 C131 1.225 . S
O139 Cd130 2.356 . S
O139 C137 1.282 . S
C140 O141 1.306 . S
C140 O143 1.160 . S
O141 C140 1.306 . S
O141 Cd142 2.228 . S
Cd142 O141 2.228 . S
Cd142 O146 2.273 . S
Cd142 O150 2.277 1_565 S
O143 C140 1.160 . S
O143 Cd144 2.203 . S
Cd144 O143 2.203 . S
Cd144 O146 2.411 . S
Cd144 O147 2.333 . S
Cd144 O148 2.352 1_554 S
Cd144 O152 2.277 1_565 S
Cd144 O153 2.356 1_554 S
C145 O150 1.209 . S
C145 O152 1.226 . S
O146 Cd142 2.273 . S
O146 Cd144 2.411 . S
O146 C149 1.320 . S
O147 Cd144 2.333 . S
O147 C149 1.214 . S
O148 Cd144 2.352 1_556 S
O148 C151 1.258 . S
C149 O146 1.320 . S
C149 O147 1.214 . S
O150 Cd142 2.277 1_545 S
O150 C145 1.209 . S
C151 O148 1.258 . S
C151 O153 1.282 . S
O152 Cd144 2.277 1_545 S
O152 C145 1.226 . S
O153 Cd144 2.356 1_556 S
O153 C151 1.282 . S
C154 O155 1.306 . S
C154 O157 1.160 1_554 S
O155 C154 1.306 . S
O155 Cd156 2.228 . S
Cd156 O155 2.228 . S
Cd156 O160 2.273 . S
Cd156 O164 2.277 . S
O157 C154 1.160 1_556 S
O157 Cd158 2.203 1_556 S
Cd158 O157 2.203 1_554 S
Cd158 O160 2.411 . S
Cd158 O161 2.333 . S
Cd158 O162 2.352 1_554 S
Cd158 O166 2.277 . S
Cd158 O167 2.356 1_554 S
C159 O164 1.209 . S
C159 O166 1.226 . S
O160 Cd156 2.273 . S
O160 Cd158 2.411 . S
O160 C163 1.320 . S
O161 Cd158 2.333 . S
O161 C163 1.214 . S
O162 Cd158 2.352 1_556 S
O162 C165 1.258 . S
C163 O160 1.320 . S
C163 O161 1.214 . S
O164 Cd156 2.277 . S
O164 C159 1.209 . S
C165 O162 1.258 . S
C165 O167 1.282 . S
O166 Cd158 2.277 . S
O166 C159 1.226 . S
O167 Cd158 2.356 1_556 S
O167 C165 1.282 . S
C168 O169 1.306 . S
C168 O171 1.160 1_556 S
O169 C168 1.306 . S
O169 Cd170 2.228 . S
Cd170 O169 2.228 . S
Cd170 O174 2.273 . S
Cd170 O178 2.277 . S
O171 C168 1.160 1_554 S
O171 Cd172 2.203 1_554 S
Cd172 O171 2.203 1_556 S
Cd172 O174 2.411 . S
Cd172 O175 2.333 . S
Cd172 O176 2.352 1_556 S
Cd172 O180 2.277 . S
Cd172 O181 2.356 1_556 S
C173 O178 1.209 . S
C173 O180 1.226 . S
O174 Cd170 2.273 . S
O174 Cd172 2.411 . S
O174 C177 1.320 . S
O175 Cd172 2.333 . S
O175 C177 1.214 . S
O176 Cd172 2.352 1_554 S
O176 C179 1.258 . S
C177 O174 1.320 . S
C177 O175 1.214 . S
O178 Cd170 2.277 . S
O178 C173 1.209 . S
C179 O176 1.258 . S
C179 O181 1.282 . S
O180 Cd172 2.277 . S
O180 C173 1.226 . S
O181 Cd172 2.356 1_554 S
O181 C179 1.282 . S
C182 O183 1.306 . S
C182 O185 1.160 . S
O183 C182 1.306 . S
O183 Cd184 2.228 1_556 S
Cd184 O183 2.228 1_554 S
Cd184 O188 2.272 1_554 S
Cd184 O192 2.277 . S
O185 C182 1.160 . S
O185 Cd186 2.203 . S
Cd186 O185 2.203 . S
Cd186 O188 2.413 . S
Cd186 O189 2.333 . S
Cd186 O190 2.352 . S
Cd186 O194 2.277 . S
Cd186 O195 2.356 . S
C187 O192 1.209 1_556 S
C187 O194 1.226 . S
O188 Cd184 2.272 1_556 S
O188 Cd186 2.413 . S
O188 C191 1.319 1_556 S
O189 Cd186 2.333 . S
O189 C191 1.214 1_556 S
O190 Cd186 2.352 . S
O190 C193 1.258 . S
C191 O188 1.319 1_554 S
C191 O189 1.214 1_554 S
O192 Cd184 2.277 . S
O192 C187 1.209 1_554 S
C193 O190 1.258 . S
C193 O195 1.282 . S
O194 Cd186 2.277 . S
O194 C187 1.226 . S
O195 Cd186 2.356 . S
O195 C193 1.282 . S
C196 O197 1.306 . S
C196 O199 1.160 . S
O197 C196 1.306 . S
O197 Cd198 2.228 . S
Cd198 O197 2.228 . S
Cd198 O202 2.273 . S
Cd198 O206 2.277 . S
O199 C196 1.160 . S
O199 Cd200 2.203 . S
Cd200 O199 2.203 . S
Cd200 O202 2.411 . S
Cd200 O203 2.333 . S
Cd200 O204 2.352 1_556 S
Cd200 O208 2.277 . S
Cd200 O209 2.356 1_556 S
C201 O206 1.209 . S
C201 O208 1.226 . S
O202 Cd198 2.273 . S
O202 Cd200 2.411 . S
O202 C205 1.320 . S
O203 Cd200 2.333 . S
O203 C205 1.214 . S
O204 Cd200 2.352 1_554 S
O204 C207 1.258 . S
C205 O202 1.320 . S
C205 O203 1.214 . S
O206 Cd198 2.277 . S
O206 C201 1.209 . S
C207 O204 1.258 . S
C207 O209 1.282 . S
O208 Cd200 2.277 . S
O208 C201 1.226 . S
O209 Cd200 2.356 1_554 S
O209 C207 1.282 . S
C210 O211 1.306 . S
C210 O213 1.160 . S
O211 C210 1.306 . S
O211 Cd212 2.228 . S
Cd212 O211 2.228 . S
Cd212 O216 2.273 . S
Cd212 O220 2.277 . S
O213 C210 1.160 . S
O213 Cd214 2.203 . S
Cd214 O213 2.203 . S
Cd214 O216 2.411 . S
Cd214 O217 2.333 . S
Cd214 O218 2.352 . S
Cd214 O222 2.277 . S
Cd214 O223 2.356 . S
C215 O220 1.209 . S
C215 O222 1.226 . S
O216 Cd212 2.273 . S
O216 Cd214 2.411 . S
O216 C219 1.320 . S
O217 Cd214 2.333 . S
O217 C219 1.214 . S
O218 Cd214 2.352 . S
O218 C221 1.258 . S
C219 O216 1.320 . S
C219 O217 1.214 . S
O220 Cd212 2.277 . S
O220 C215 1.209 . S
C221 O218 1.258 . S
C221 O223 1.282 . S
O222 Cd214 2.277 . S
O222 C215 1.226 . S
O223 Cd214 2.356 . S
O223 C221 1.282 . S
C224 O225 1.306 . S
C224 O227 1.160 1_455 S
O225 C224 1.306 . S
O225 Cd226 2.228 1_455 S
Cd226 O225 2.228 1_655 S
Cd226 O230 2.273 . S
Cd226 O234 2.277 . S
O227 C224 1.160 1_655 S
O227 Cd228 2.203 . S
Cd228 O227 2.203 . S
Cd228 O230 2.411 . S
Cd228 O231 2.333 . S
Cd228 O232 2.352 . S
Cd228 O236 2.277 . S
Cd228 O237 2.356 . S
C229 O234 1.209 . S
C229 O236 1.226 . S
O230 Cd226 2.273 . S
O230 Cd228 2.411 . S
O230 C233 1.320 . S
O231 Cd228 2.333 . S
O231 C233 1.214 . S
O232 Cd228 2.352 . S
O232 C235 1.258 . S
C233 O230 1.320 . S
C233 O231 1.214 . S
O234 Cd226 2.277 . S
O234 C229 1.209 . S
C235 O232 1.258 . S
C235 O237 1.282 . S
O236 Cd228 2.277 . S
O236 C229 1.226 . S
O237 Cd228 2.356 . S
O237 C235 1.282 . S
C238 O239 1.306 . S
C238 O241 1.160 . S
O239 C238 1.306 . S
O239 Cd240 2.228 . S
Cd240 O239 2.228 . S
Cd240 O244 2.273 . S
Cd240 O248 2.277 . S
O241 C238 1.160 . S
O241 Cd242 2.203 . S
Cd242 O241 2.203 . S
Cd242 O244 2.411 . S
Cd242 O245 2.333 . S
Cd242 O246 2.352 . S
Cd242 O250 2.277 . S
Cd242 O251 2.356 . S
C243 O248 1.209 . S
C243 O250 1.226 . S
O244 Cd240 2.273 . S
O244 Cd242 2.411 . S
O244 C247 1.320 . S
O245 Cd242 2.333 . S
O245 C247 1.214 . S
O246 Cd242 2.352 . S
O246 C249 1.258 . S
C247 O244 1.320 . S
C247 O245 1.214 . S
O248 Cd240 2.277 . S
O248 C243 1.209 . S
C249 O246 1.258 . S
C249 O251 1.282 . S
O250 Cd242 2.277 . S
O250 C243 1.226 . S
O251 Cd242 2.356 . S
O251 C249 1.282 . S
C252 C253 1.369 1_554 S
C252 C254 1.419 . S
C252 H256 0.930 . S
C253 C252 1.369 1_556 S
C253 C262 1.429 . S
C254 C252 1.419 . S
C254 C255 1.363 . S
C254 H257 0.929 . S
C255 C254 1.363 . S
C255 C261 1.428 1_554 S
H256 C252 0.930 . S
H257 C254 0.929 . S
S258 N259 1.613 . S
S258 N260 1.610 . S
N259 S258 1.613 . S
N259 C262 1.350 . S
N260 S258 1.610 . S
N260 C261 1.351 . S
C261 C255 1.428 1_556 S
C261 N260 1.351 . S
C261 C262 1.434 . S
C262 C253 1.429 . S
C262 N259 1.350 . S
C262 C261 1.434 . S
C263 C264 1.369 . S
C263 C265 1.419 . S
C263 H267 0.930 . S
C264 C263 1.369 . S
C264 C273 1.429 1_556 S
C265 C263 1.419 . S
C265 C266 1.363 1_556 S
C265 H268 0.929 . S
C266 C265 1.363 1_554 S
C266 C272 1.428 . S
H267 C263 0.930 . S
H268 C265 0.929 . S
S269 N270 1.613 . S
S269 N271 1.610 . S
N270 S269 1.613 . S
N270 C273 1.350 . S
N271 S269 1.610 . S
N271 C272 1.351 . S
C272 C266 1.428 . S
C272 N271 1.351 . S
C272 C273 1.434 . S
C273 C264 1.429 1_554 S
C273 N270 1.350 . S
C273 C272 1.434 . S
C274 C275 1.369 . S
C274 C276 1.419 . S
C274 H278 0.930 . S
C275 C274 1.369 . S
C275 C284 1.429 . S
C276 C274 1.419 . S
C276 C277 1.363 1_554 S
C276 H279 0.929 . S
C277 C276 1.363 1_556 S
C277 C283 1.428 . S
H278 C274 0.930 . S
H279 C276 0.929 . S
S280 N281 1.613 1_556 S
S280 N282 1.610 . S
N281 S280 1.613 1_554 S
N281 C284 1.350 . S
N282 S280 1.610 . S
N282 C283 1.351 . S
C283 C277 1.428 . S
C283 N282 1.351 . S
C283 C284 1.434 1_556 S
C284 C275 1.429 . S
C284 N281 1.350 . S
C284 C283 1.434 1_554 S
C285 C286 1.369 . S
C285 C287 1.419 . S
C285 H289 0.930 . S
C286 C285 1.369 . S
C286 C295 1.429 . S
C287 C285 1.419 . S
C287 C288 1.363 . S
C287 H290 0.929 . S
C288 C287 1.363 . S
C288 C294 1.428 . S
H289 C285 0.930 . S
H290 C287 0.929 . S
S291 N292 1.613 . S
S291 N293 1.610 . S
N292 S291 1.613 . S
N292 C295 1.350 . S
N293 S291 1.610 . S
N293 C294 1.351 . S
C294 C288 1.428 . S
C294 N293 1.351 . S
C294 C295 1.434 . S
C295 C286 1.429 . S
C295 N292 1.350 . S
C295 C294 1.434 . S
C296 C297 1.369 . S
C296 C298 1.419 . S
C296 H300 0.930 . S
C297 C296 1.369 . S
C297 C306 1.429 . S
C298 C296 1.419 . S
C298 C299 1.363 . S
C298 H301 0.929 . S
C299 C298 1.363 . S
C299 C305 1.428 . S
H300 C296 0.930 . S
H301 C298 0.929 . S
S302 N303 1.613 . S
S302 N304 1.610 1_655 S
N303 S302 1.613 . S
N303 C306 1.350 1_655 S
N304 S302 1.610 1_455 S
N304 C305 1.351 . S
C305 C299 1.428 . S
C305 N304 1.351 . S
C305 C306 1.434 . S
C306 C297 1.429 . S
C306 N303 1.350 1_455 S
C306 C305 1.434 . S
C307 C308 1.369 . S
C307 C309 1.419 . S
C307 H311 0.930 . S
C308 C307 1.369 . S
C308 C317 1.429 . S
C309 C307 1.419 . S
C309 C310 1.363 . S
C309 H312 0.929 . S
C310 C309 1.363 . S
C310 C316 1.428 . S
H311 C307 0.930 . S
H312 C309 0.929 . S
S313 N314 1.613 . S
S313 N315 1.610 . S
N314 S313 1.613 . S
N314 C317 1.350 . S
N315 S313 1.610 . S
N315 C316 1.351 . S
C316 C310 1.428 . S
C316 N315 1.351 . S
C316 C317 1.434 . S
C317 C308 1.429 . S
C317 N314 1.350 . S
C317 C316 1.434 . S
C318 C319 1.369 . S
C318 C320 1.419 . S
C318 H322 0.930 . S
C319 C318 1.369 . S
C319 C328 1.429 . S
C320 C318 1.419 . S
C320 C321 1.363 . S
C320 H323 0.929 . S
C321 C320 1.363 . S
C321 C327 1.428 . S
H322 C318 0.930 . S
H323 C320 0.929 . S
S324 N325 1.613 . S
S324 N326 1.610 . S
N325 S324 1.613 . S
N325 C328 1.350 . S
N326 S324 1.610 . S
N326 C327 1.351 . S
C327 C321 1.428 . S
C327 N326 1.351 . S
C327 C328 1.434 . S
C328 C319 1.429 . S
C328 N325 1.350 . S
C328 C327 1.434 . S
C329 C330 1.369 . S
C329 C331 1.419 . S
C329 H333 0.930 . S
C330 C329 1.369 . S
C330 C339 1.429 . S
C331 C329 1.419 . S
C331 C332 1.363 . S
C331 H334 0.929 . S
C332 C331 1.363 . S
C332 C338 1.428 . S
H333 C329 0.930 . S
H334 C331 0.929 . S
S335 N336 1.613 . S
S335 N337 1.610 . S
N336 S335 1.613 . S
N336 C339 1.350 . S
N337 S335 1.610 . S
N337 C338 1.351 . S
C338 C332 1.428 . S
C338 N337 1.351 . S
C338 C339 1.434 . S
C339 C330 1.429 . S
C339 N336 1.350 . S
C339 C338 1.434 . S
C340 C341 1.369 . S
C340 C342 1.419 . S
C340 H344 0.930 . S
C341 C340 1.369 . S
C341 C350 1.429 . S
C342 C340 1.419 . S
C342 C343 1.363 . S
C342 H345 0.929 . S
C343 C342 1.363 . S
C343 C349 1.428 . S
H344 C340 0.930 . S
H345 C342 0.929 . S
S346 N347 1.613 . S
S346 N348 1.610 . S
N347 S346 1.613 . S
N347 C350 1.350 . S
N348 S346 1.610 . S
N348 C349 1.351 . S
C349 C343 1.428 . S
C349 N348 1.351 . S
C349 C350 1.434 . S
C350 C341 1.429 . S
C350 N347 1.350 . S
C350 C349 1.434 . S
C351 C352 1.369 . S
C351 C353 1.419 . S
C351 H355 0.930 . S
C352 C351 1.369 . S
C352 C361 1.429 . S
C353 C351 1.419 . S
C353 C354 1.363 . S
C353 H356 0.929 . S
C354 C353 1.363 . S
C354 C360 1.428 . S
H355 C351 0.930 . S
H356 C353 0.929 . S
S357 N358 1.613 . S
S357 N359 1.610 . S
N358 S357 1.613 . S
N358 C361 1.350 . S
N359 S357 1.610 . S
N359 C360 1.351 . S
C360 C354 1.428 . S
C360 N359 1.351 . S
C360 C361 1.434 . S
C361 C352 1.429 . S
C361 N358 1.350 . S
C361 C360 1.434 . S
C362 C363 1.369 . S
C362 C364 1.419 . S
C362 H366 0.930 . S
C363 C362 1.369 . S
C363 C372 1.429 . S
C364 C362 1.419 . S
C364 C365 1.363 . S
C364 H367 0.929 . S
C365 C364 1.363 . S
C365 C371 1.428 . S
H366 C362 0.930 . S
H367 C364 0.929 . S
S368 N369 1.613 . S
S368 N370 1.610 . S
N369 S368 1.613 . S
N369 C372 1.350 . S
N370 S368 1.610 . S
N370 C371 1.351 . S
C371 C365 1.428 . S
C371 N370 1.351 . S
C371 C372 1.434 . S
C372 C363 1.429 . S
C372 N369 1.350 . S
C372 C371 1.434 . S
C373 C374 1.369 . S
C373 C375 1.419 . S
C373 H377 0.930 . S
C374 C373 1.369 . S
C374 C383 1.429 . S
C375 C373 1.419 . S
C375 C376 1.363 . S
C375 H378 0.929 . S
C376 C375 1.363 . S
C376 C382 1.428 . S
H377 C373 0.930 . S
H378 C375 0.929 . S
S379 N380 1.613 . S
S379 N381 1.610 . S
N380 S379 1.613 . S
N380 C383 1.350 . S
N381 S379 1.610 . S
N381 C382 1.351 . S
C382 C376 1.428 . S
C382 N381 1.351 . S
C382 C383 1.434 . S
C383 C374 1.429 . S
C383 N380 1.350 . S
C383 C382 1.434 . S
C384 C385 1.369 . S
C384 C386 1.419 . S
C384 H388 0.930 . S
C385 C384 1.369 . S
C385 C394 1.429 . S
C386 C384 1.419 . S
C386 C387 1.363 . S
C386 H389 0.929 . S
C387 C386 1.363 . S
C387 C393 1.428 . S
H388 C384 0.930 . S
H389 C386 0.929 . S
S390 N391 1.613 . S
S390 N392 1.610 . S
N391 S390 1.613 . S
N391 C394 1.350 . S
N392 S390 1.610 . S
N392 C393 1.351 . S
C393 C387 1.428 . S
C393 N392 1.351 . S
C393 C394 1.434 . S
C394 C385 1.429 . S
C394 N391 1.350 . S
C394 C393 1.434 . S
C395 C396 1.369 . S
C395 C397 1.419 . S
C395 H399 0.930 . S
C396 C395 1.369 . S
C396 C405 1.429 . S
C397 C395 1.419 . S
C397 C398 1.363 . S
C397 H400 0.929 . S
C398 C397 1.363 . S
C398 C404 1.428 . S
H399 C395 0.930 . S
H400 C397 0.929 . S
S401 N402 1.613 . S
S401 N403 1.610 . S
N402 S401 1.613 . S
N402 C405 1.350 . S
N403 S401 1.610 . S
N403 C404 1.351 . S
C404 C398 1.428 . S
C404 N403 1.351 . S
C404 C405 1.434 . S
C405 C396 1.429 . S
C405 N402 1.350 . S
C405 C404 1.434 . S
C406 C407 1.369 . S
C406 C408 1.419 . S
C406 H410 0.930 . S
C407 C406 1.369 . S
C407 C416 1.429 . S
C408 C406 1.419 . S
C408 C409 1.363 . S
C408 H411 0.929 . S
C409 C408 1.363 . S
C409 C415 1.428 . S
H410 C406 0.930 . S
H411 C408 0.929 . S
S412 N413 1.613 . S
S412 N414 1.610 . S
N413 S412 1.613 . S
N413 C416 1.350 . S
N414 S412 1.610 . S
N414 C415 1.351 . S
C415 C409 1.428 . S
C415 N414 1.351 . S
C415 C416 1.434 . S
C416 C407 1.429 . S
C416 N413 1.350 . S
C416 C415 1.434 . S
C417 C418 1.369 . S
C417 C419 1.419 . S
C417 H421 0.930 . S
C418 C417 1.369 . S
C418 C427 1.429 . S
C419 C417 1.419 . S
C419 C420 1.363 . S
C419 H422 0.929 . S
C420 C419 1.363 . S
C420 C426 1.428 . S
H421 C417 0.930 . S
H422 C419 0.929 . S
S423 N424 1.613 . S
S423 N425 1.610 . S
N424 S423 1.613 . S
N424 C427 1.350 . S
N425 S423 1.610 . S
N425 C426 1.351 . S
C426 C420 1.428 . S
C426 N425 1.351 . S
C426 C427 1.434 . S
C427 C418 1.429 . S
C427 N424 1.350 . S
C427 C426 1.434 . S
C428 C429 1.369 . S
C428 C430 1.419 . S
C428 H432 0.930 . S
C429 C428 1.369 . S
C429 C438 1.429 . S
C430 C428 1.419 . S
C430 C431 1.363 . S
C430 H433 0.929 . S
C431 C430 1.363 . S
C431 C437 1.428 . S
H432 C428 0.930 . S
H433 C430 0.929 . S
S434 N435 1.613 . S
S434 N436 1.610 . S
N435 S434 1.613 . S
N435 C438 1.350 . S
N436 S434 1.610 . S
N436 C437 1.351 . S
C437 C431 1.428 . S
C437 N436 1.351 . S
C437 C438 1.434 . S
C438 C429 1.429 . S
C438 N435 1.350 . S
C438 C437 1.434 . S
C439 C440 1.369 . S
C439 C441 1.419 . S
C439 H443 0.930 . S
C440 C439 1.369 . S
C440 C449 1.429 . S
C441 C439 1.419 . S
C441 C442 1.363 . S
C441 H444 0.929 . S
C442 C441 1.363 . S
C442 C448 1.428 . S
H443 C439 0.930 . S
H444 C441 0.929 . S
S445 N446 1.613 . S
S445 N447 1.610 . S
N446 S445 1.613 . S
N446 C449 1.350 . S
N447 S445 1.610 . S
N447 C448 1.351 . S
C448 C442 1.428 . S
C448 N447 1.351 . S
C448 C449 1.434 . S
C449 C440 1.429 . S
C449 N446 1.350 . S
C449 C448 1.434 . S
C450 C451 1.369 . S
C450 C452 1.419 . S
C450 H454 0.930 . S
C451 C450 1.369 . S
C451 C460 1.429 . S
C452 C450 1.419 . S
C452 C453 1.363 . S
C452 H455 0.929 . S
C453 C452 1.363 . S
C453 C459 1.428 . S
H454 C450 0.930 . S
H455 C452 0.929 . S
S456 N457 1.613 . S
S456 N458 1.610 . S
N457 S456 1.613 . S
N457 C460 1.350 . S
N458 S456 1.610 . S
N458 C459 1.351 . S
C459 C453 1.428 . S
C459 N458 1.351 . S
C459 C460 1.434 . S
C460 C451 1.429 . S
C460 N457 1.350 . S
C460 C459 1.434 . S
C461 C462 1.369 . S
C461 C463 1.419 . S
C461 H465 0.930 . S
C462 C461 1.369 . S
C462 C471 1.429 . S
C463 C461 1.419 . S
C463 C464 1.363 . S
C463 H466 0.929 . S
C464 C463 1.363 . S
C464 C470 1.428 . S
H465 C461 0.930 . S
H466 C463 0.929 . S
S467 N468 1.613 . S
S467 N469 1.610 . S
N468 S467 1.613 . S
N468 C471 1.350 . S
N469 S467 1.610 . S
N469 C470 1.351 . S
C470 C464 1.428 . S
C470 N469 1.351 . S
C470 C471 1.434 . S
C471 C462 1.429 . S
C471 N468 1.350 . S
C471 C470 1.434 . S
C472 C473 1.369 . S
C472 C474 1.419 . S
C472 H476 0.930 . S
C473 C472 1.369 . S
C473 C482 1.429 1_565 S
C474 C472 1.419 . S
C474 C475 1.363 1_565 S
C474 H477 0.929 . S
C475 C474 1.363 1_545 S
C475 C481 1.428 . S
H476 C472 0.930 . S
H477 C474 0.929 . S
S478 N479 1.613 . S
S478 N480 1.610 . S
N479 S478 1.613 . S
N479 C482 1.350 . S
N480 S478 1.610 . S
N480 C481 1.351 . S
C481 C475 1.428 . S
C481 N480 1.351 . S
C481 C482 1.434 . S
C482 C473 1.429 1_545 S
C482 N479 1.350 . S
C482 C481 1.434 . S
C483 C484 1.369 . S
C483 C485 1.419 . S
C483 H487 0.930 . S
C484 C483 1.369 . S
C484 C493 1.429 . S
C485 C483 1.419 . S
C485 C486 1.363 . S
C485 H488 0.929 1_554 S
C486 C485 1.363 . S
C486 C492 1.428 . S
H487 C483 0.930 . S
H488 C485 0.929 1_556 S
S489 N490 1.613 . S
S489 N491 1.610 . S
N490 S489 1.613 . S
N490 C493 1.350 . S
N491 S489 1.610 . S
N491 C492 1.351 . S
C492 C486 1.428 . S
C492 N491 1.351 . S
C492 C493 1.434 . S
C493 C484 1.429 . S
C493 N490 1.350 . S
C493 C492 1.434 . S
C494 C495 1.369 . S
C494 C496 1.419 . S
C494 H498 0.930 . S
C495 C494 1.369 . S
C495 C504 1.429 1_655 S
C496 C494 1.419 . S
C496 C497 1.363 . S
C496 H499 0.929 . S
C497 C496 1.363 . S
C497 C503 1.428 1_655 S
H498 C494 0.930 . S
H499 C496 0.929 . S
S500 N501 1.613 1_554 S
S500 N502 1.610 . S
N501 S500 1.613 1_556 S
N501 C504 1.350 1_556 S
N502 S500 1.610 . S
N502 C503 1.351 . S
C503 C497 1.428 1_455 S
C503 N502 1.351 . S
C503 C504 1.434 . S
C504 C495 1.429 1_455 S
C504 N501 1.350 1_554 S
C504 C503 1.434 . S
C505 C506 1.369 . S
C505 C507 1.419 . S
C505 H509 0.930 . S
C506 C505 1.369 . S
C506 C515 1.429 . S
C507 C505 1.419 . S
C507 C508 1.363 . S
C507 H510 0.929 . S
C508 C507 1.363 . S
C508 C514 1.428 . S
H509 C505 0.930 . S
H510 C507 0.929 . S
S511 N512 1.613 . S
S511 N513 1.610 1_556 S
N512 S511 1.613 . S
N512 C515 1.350 1_556 S
N513 S511 1.610 1_554 S
N513 C514 1.351 . S
C514 C508 1.428 . S
C514 N513 1.351 . S
C514 C515 1.434 . S
C515 C506 1.429 . S
C515 N512 1.350 1_554 S
C515 C514 1.434 . S
C516 C517 1.369 . S
C516 C518 1.419 . S
C516 H520 0.930 . S
C517 C516 1.369 . S
C517 C526 1.429 . S
C518 C516 1.419 . S
C518 C519 1.359 . S
C518 H521 0.929 . S
C519 C518 1.359 . S
C519 C525 1.432 . S
H520 C516 0.930 . S
H521 C518 0.929 . S
S522 N523 1.613 . S
S522 N524 1.610 1_655 S
N523 S522 1.613 . S
N523 C526 1.350 . S
N524 S522 1.610 1_455 S
N524 C525 1.351 1_455 S
C525 C519 1.432 . S
C525 N524 1.351 1_655 S
C525 C526 1.434 . S
C526 C517 1.429 . S
C526 N523 1.350 . S
C526 C525 1.434 . S
C527 C528 1.369 . S
C527 C529 1.419 . S
C527 H531 0.930 . S
C528 C527 1.369 . S
C528 C537 1.429 . S
C529 C527 1.419 . S
C529 C530 1.363 . S
C529 H532 0.929 . S
C530 C529 1.363 . S
C530 C536 1.428 . S
H531 C527 0.930 . S
H532 C529 0.929 . S
S533 N534 1.613 . S
S533 N535 1.610 . S
N534 S533 1.613 . S
N534 C537 1.350 . S
N535 S533 1.610 . S
N535 C536 1.351 . S
C536 C530 1.428 . S
C536 N535 1.351 . S
C536 C537 1.434 . S
C537 C528 1.429 . S
C537 N534 1.350 . S
C537 C536 1.434 . S
C538 C539 1.369 . S
C538 C540 1.419 . S
C538 H542 0.930 . S
C539 C538 1.369 . S
C539 C548 1.429 . S
C540 C538 1.419 . S
C540 C541 1.363 . S
C540 H543 0.929 . S
C541 C540 1.363 . S
C541 C547 1.428 . S
H542 C538 0.930 . S
H543 C540 0.929 . S
S544 N545 1.613 . S
S544 N546 1.610 . S
N545 S544 1.613 . S
N545 C548 1.350 . S
N546 S544 1.610 . S
N546 C547 1.351 . S
C547 C541 1.428 . S
C547 N546 1.351 . S
C547 C548 1.434 . S
C548 C539 1.429 . S
C548 N545 1.350 . S
C548 C547 1.434 . S
C549 C550 1.370 1_545 S
C549 C551 1.421 . S
C549 H553 0.927 1_556 S
C550 C549 1.370 1_565 S
C550 C559 1.429 . S
C551 C549 1.421 . S
C551 C552 1.363 . S
C551 H554 0.929 . S
C552 C551 1.363 . S
C552 C558 1.428 1_545 S
H553 C549 0.927 1_554 S
H554 C551 0.929 . S
S555 N556 1.613 . S
S555 N557 1.610 . S
N556 S555 1.613 . S
N556 C559 1.350 . S
N557 S555 1.610 . S
N557 C558 1.351 . S
C558 C552 1.428 1_565 S
C558 N557 1.351 . S
C558 C559 1.434 . S
C559 C550 1.429 . S
C559 N556 1.350 . S
C559 C558 1.434 . S
C560 C561 1.369 . S
C560 C562 1.419 . S
C560 H564 0.930 . S
C561 C560 1.369 . S
C561 C570 1.429 . S
C562 C560 1.419 . S
C562 C563 1.363 . S
C562 H565 0.929 . S
C563 C562 1.363 . S
C563 C569 1.428 . S
H564 C560 0.930 . S
H565 C562 0.929 . S
S566 N567 1.613 1_554 S
S566 N568 1.610 . S
N567 S566 1.613 1_556 S
N567 C570 1.350 . S
N568 S566 1.610 . S
N568 C569 1.351 1_554 S
C569 C563 1.428 . S
C569 N568 1.351 1_556 S
C569 C570 1.434 . S
C570 C561 1.429 . S
C570 N567 1.350 . S
C570 C569 1.434 . S
C571 C572 1.369 . S
C571 C573 1.419 . S
C571 H575 0.930 . S
C572 C571 1.369 . S
C572 C581 1.429 . S
C573 C571 1.419 . S
C573 C574 1.363 . S
C573 H576 0.929 . S
C574 C573 1.363 . S
C574 C580 1.428 . S
H575 C571 0.930 . S
H576 C573 0.929 . S
S577 N578 1.613 1_554 S
S577 N579 1.610 . S
N578 S577 1.613 1_556 S
N578 C581 1.350 . S
N579 S577 1.610 . S
N579 C580 1.351 1_554 S
C580 C574 1.428 . S
C580 N579 1.351 1_556 S
C580 C581 1.434 . S
C581 C572 1.429 . S
C581 N578 1.350 . S
C581 C580 1.434 . S
C582 C583 1.369 . S
C582 C584 1.419 . S
C582 H586 0.930 . S
C583 C582 1.369 . S
C583 C592 1.429 . S
C584 C582 1.419 . S
C584 C585 1.363 . S
C584 H587 0.929 . S
C585 C584 1.363 . S
C585 C591 1.428 . S
H586 C582 0.930 . S
H587 C584 0.929 . S
S588 N589 1.613 . S
S588 N590 1.610 . S
N589 S588 1.613 . S
N589 C592 1.350 . S
N590 S588 1.610 . S
N590 C591 1.351 . S
C591 C585 1.428 . S
C591 N590 1.351 . S
C591 C592 1.434 . S
C592 C583 1.429 . S
C592 N589 1.350 . S
C592 C591 1.434 . S
C593 C594 1.369 . S
C593 C595 1.419 . S
C593 H597 0.930 . S
C594 C593 1.369 . S
C594 C603 1.429 . S
C595 C593 1.419 . S
C595 C596 1.363 . S
C595 H598 0.929 . S
C596 C595 1.363 . S
C596 C602 1.428 . S
H597 C593 0.930 . S
H598 C595 0.929 . S
S599 N600 1.613 . S
S599 N601 1.610 . S
N600 S599 1.613 . S
N600 C603 1.350 . S
N601 S599 1.610 . S
N601 C602 1.351 . S
C602 C596 1.428 . S
C602 N601 1.351 . S
C602 C603 1.434 . S
C603 C594 1.429 . S
C603 N600 1.350 . S
C603 C602 1.434 . S
C604 C605 1.369 . S
C604 C606 1.419 . S
C604 H608 0.930 . S
C605 C604 1.369 . S
C605 C614 1.429 . S
C606 C604 1.419 . S
C606 C607 1.363 . S
C606 H609 0.929 . S
C607 C606 1.363 . S
C607 C613 1.428 . S
H608 C604 0.930 . S
H609 C606 0.929 . S
S610 N611 1.613 . S
S610 N612 1.610 . S
N611 S610 1.613 . S
N611 C614 1.350 . S
N612 S610 1.610 . S
N612 C613 1.351 . S
C613 C607 1.428 . S
C613 N612 1.351 . S
C613 C614 1.434 . S
C614 C605 1.429 . S
C614 N611 1.350 . S
C614 C613 1.434 . S
C615 C616 1.369 . S
C615 C617 1.419 . S
C615 H619 0.930 . S
C616 C615 1.369 . S
C616 C625 1.429 . S
C617 C615 1.419 . S
C617 C618 1.363 . S
C617 H620 0.929 . S
C618 C617 1.363 . S
C618 C624 1.428 . S
H619 C615 0.930 . S
H620 C617 0.929 . S
S621 N622 1.613 . S
S621 N623 1.610 . S
N622 S621 1.613 . S
N622 C625 1.350 . S
N623 S621 1.610 . S
N623 C624 1.351 . S
C624 C618 1.428 . S
C624 N623 1.351 . S
C624 C625 1.434 . S
C625 C616 1.429 . S
C625 N622 1.350 . S
C625 C624 1.434 . S
C626 C627 1.369 . S
C626 C628 1.419 . S
C626 H630 0.930 . S
C627 C626 1.369 . S
C627 C636 1.429 . S
C628 C626 1.419 . S
C628 C629 1.363 . S
C628 H631 0.929 . S
C629 C628 1.363 . S
C629 C635 1.428 . S
H630 C626 0.930 . S
H631 C628 0.929 . S
S632 N633 1.613 . S
S632 N634 1.610 . S
N633 S632 1.613 . S
N633 C636 1.350 . S
N634 S632 1.610 . S
N634 C635 1.351 . S
C635 C629 1.428 . S
C635 N634 1.351 . S
C635 C636 1.434 . S
C636 C627 1.429 . S
C636 N633 1.350 . S
C636 C635 1.434 . S
C637 C638 1.369 . S
C637 C639 1.419 . S
C637 H641 0.930 . S
C638 C637 1.369 . S
C638 C647 1.429 . S
C639 C637 1.419 . S
C639 C640 1.363 . S
C639 H642 0.929 . S
C640 C639 1.363 . S
C640 C646 1.428 . S
H641 C637 0.930 . S
H642 C639 0.929 . S
S643 N644 1.613 . S
S643 N645 1.610 . S
N644 S643 1.613 . S
N644 C647 1.350 . S
N645 S643 1.610 . S
N645 C646 1.351 . S
C646 C640 1.428 . S
C646 N645 1.351 . S
C646 C647 1.434 . S
C647 C638 1.429 . S
C647 N644 1.350 . S
C647 C646 1.434 . S
C253 C53 1.454 . S
C255 C9 1.421 . S
C264 C65 1.425 . S
C266 C25 1.460 . S
C275 C37 1.431 . S
C277 C79 1.436 . S
C286 C39 1.379 . S
C288 C81 1.382 . S
C297 C11 1.399 . S
C299 C51 1.354 . S
C308 C67 1.402 . S
C310 C23 1.369 . S
C319 C137 1.348 . S
C321 C95 1.352 . S
C330 C109 1.387 . S
C332 C149 1.341 . S
C341 C123 1.382 . S
C343 C163 1.335 . S
C352 C165 1.490 . S
C354 C121 1.452 . S
C363 C135 1.466 . S
C365 C93 1.457 . S
C374 C151 1.497 . S
C376 C107 1.456 . S
C385 C177 1.424 . S
C387 C221 1.463 . S
C396 C193 1.475 . S
C398 C233 1.435 . S
C407 C205 1.447 . S
C409 C247 1.440 . S
C418 C249 1.388 . S
C420 C207 1.384 . S
C429 C219 1.371 . S
C431 C179 1.403 . S
C440 C235 1.418 . S
C442 C191 1.380 . S
C451 C0 1.357 . S
C453 C98 1.358 . S
C462 C19 1.375 . S
C464 C112 1.386 . S
C473 C84 1.359 . S
C475 C28 1.364 . S
C484 C33 1.376 . S
C486 C187 1.370 1_554 S
C495 C196 1.352 1_554 S
C497 C5 1.352 1_655 S
C506 C168 1.324 1_554 S
C508 C14 1.320 . S
C517 C229 1.375 . S
C519 C47 1.367 1_655 S
C528 C56 1.352 . S
C530 C243 1.353 . S
C539 C210 1.339 . S
C541 C70 1.328 . S
C550 C140 1.325 1_556 S
C552 C75 1.325 . S
C561 C42 1.294 . S
C563 C154 1.292 1_556 S
C572 C61 1.339 . S
C574 C131 1.346 1_556 S
C583 C89 1.322 . S
C585 C182 1.323 . S
C594 C103 1.338 . S
C596 C201 1.348 1_455 S
C605 C117 1.344 . S
C607 C173 1.343 . S
C616 C224 1.383 . S
C618 C159 1.375 . S
C627 C238 1.364 . S
C629 C126 1.366 . S
C638 C145 1.400 . S
C640 C215 1.400 . S
