# Generated by pormake.
# Topology unc, (4)-cn, num edge types: 1
# Building blocks:
#     Node 0, Type 0, BuildingBlock: UXUYUI_clean_sbu_0, # of connection points: 4
#     Node 1, Type 0, BuildingBlock: UXUYUI_clean_sbu_0, # of connection points: 4
#     Node 2, Type 0, BuildingBlock: UXUYUI_clean_sbu_0, # of connection points: 4
#     Node 3, Type 0, BuildingBlock: UXUYUI_clean_sbu_0, # of connection points: 4
#     Edge 4, Type (0, 0), BuildingBlock: EZIPEK_clean_linker_0, # of connection points: 2
#     Edge 5, Type (0, 0), BuildingBlock: EZIPEK_clean_linker_0, # of connection points: 2
#     Edge 6, Type (0, 0), BuildingBlock: EZIPEK_clean_linker_0, # of connection points: 2
#     Edge 7, Type (0, 0), BuildingBlock: EZIPEK_clean_linker_0, # of connection points: 2
#     Edge 8, Type (0, 0), BuildingBlock: EZIPEK_clean_linker_0, # of connection points: 2
#     Edge 9, Type (0, 0), BuildingBlock: EZIPEK_clean_linker_0, # of connection points: 2
#     Edge 10, Type (0, 0), BuildingBlock: EZIPEK_clean_linker_0, # of connection points: 2
#     Edge 11, Type (0, 0), BuildingBlock: EZIPEK_clean_linker_0, # of connection points: 2
# Relax obj value: 0.184
# Max RMSD: 0.213
# Mean RMSD: 0.213
data_MOF--net-unc--node1-UXUYUI_clean_sbu_0--edge1-EZIPEK_clean_linker_0
_symmetry_space_group_name_H-M    P1
_symmetry_Int_Tables_number       1
_symmetry_cell_setting            triclinic
loop_
_symmetry_equiv_pos_as_xyz
'x, y, z'
_cell_length_a     35.405603
_cell_length_b     35.39935
_cell_length_c     26.739148
_cell_angle_alpha  89.95843
_cell_angle_beta   90.004806
_cell_angle_gamma 90.032403
loop_
_atom_site_label
_atom_site_type_symbol
_atom_site_fract_x
_atom_site_fract_y
_atom_site_fract_z
_atom_type_partial_charge
Li0 Li 0.03353 0.68815 0.01496 0.0
Li1 Li 0.98367 0.64182 0.04283 0.0
Li2 Li 0.01018 0.63794 0.96011 0.0
Li3 Li 0.96763 0.68683 0.97938 0.0
C4 C 0.05941 0.60261 0.01936 0.0
N5 N 0.10362 0.5394 0.00445 0.0
C6 C 0.04351 0.56658 0.02306 0.0
C7 C 0.0978 0.60656 0.00846 0.0
C8 C 0.06634 0.53495 0.01528 0.0
C9 C 0.11968 0.57422 0.00096 0.0
C10 C 0.9743 0.70259 0.09831 0.0
C11 C 0.92924 0.69643 0.16552 0.0
N12 N 0.95558 0.70949 0.19826 0.0
C13 C 0.00082 0.71623 0.13258 0.0
C14 C 0.93811 0.69292 0.11484 0.0
C15 C 0.99084 0.71944 0.18295 0.0
C16 C 0.0762 0.75501 0.01994 0.0
N17 N 0.07389 0.719 0.03735 0.0
C18 C 0.1253 0.72969 0.09351 0.0
C19 C 0.09791 0.70585 0.07303 0.0
C20 C 0.12802 0.76711 0.07656 0.0
C21 C 0.10352 0.77962 0.0388 0.0
H22 H 0.05636 0.76474 0.99198 0.0
H23 H 0.09493 0.67723 0.0867 0.0
C24 C 0.94245 0.5854 0.09609 0.0
N25 N 0.97057 0.61152 0.09901 0.0
C26 C 0.93704 0.55953 0.13497 0.0
C27 C 0.98938 0.58819 0.17907 0.0
C28 C 0.99376 0.61347 0.13946 0.0
C29 C 0.96113 0.56055 0.17654 0.0
H30 H 0.92539 0.58348 0.0627 0.0
H31 H 0.01663 0.63373 0.13999 0.0
C32 C 0.0382 0.6909 0.901 0.0
N33 N 0.08105 0.68751 0.81463 0.0
C34 C 0.02173 0.67961 0.85585 0.0
C35 C 0.07653 0.70044 0.9021 0.0
C36 C 0.04386 0.67805 0.81265 0.0
C37 C 0.09768 0.69859 0.85806 0.0
C38 C 0.92128 0.63453 0.95994 0.0
C39 C 0.91635 0.63512 0.90805 0.0
C40 C 0.88985 0.63834 0.99119 0.0
C41 C 0.8801 0.63975 0.88832 0.0
C42 C 0.85407 0.64294 0.97001 0.0
N43 N 0.84998 0.64357 0.91945 0.0
C44 C 0.99926 0.57537 0.89776 0.0
C45 C 0.06113 0.60056 0.89127 0.0
C46 C 0.00702 0.54898 0.86055 0.0
N47 N 0.02576 0.60123 0.91132 0.0
C48 C 0.07019 0.5745 0.8539 0.0
C49 C 0.04259 0.54888 0.83778 0.0
H50 H 0.97188 0.57544 0.91549 0.0
H51 H 0.08213 0.62064 0.90358 0.0
C52 C 0.90316 0.73519 0.98553 0.0
N53 N 0.92918 0.71984 0.9541 0.0
C54 C 0.87547 0.75962 0.96701 0.0
C55 C 0.90177 0.75187 0.88421 0.0
C56 C 0.92905 0.72786 0.90434 0.0
C57 C 0.87479 0.76808 0.9158 0.0
H58 H 0.90401 0.72864 0.02495 0.0
H59 H 0.95014 0.71567 0.88025 0.0
O60 O 0.03737 0.6339 0.02572 0.0
O61 O 0.98374 0.6987 0.04891 0.0
O62 O 0.017 0.6928 0.9438 0.0
O63 O 0.95674 0.63123 0.97997 0.0
H64 H 0.01377 0.5631 0.03127 0.0
H65 H 0.11042 0.63432 0.00521 0.0
H66 H 0.0544 0.50687 0.01772 0.0
H67 H 0.14939 0.57682 0.99218 0.0
H68 H 0.90144 0.68871 0.17885 0.0
H69 H 0.0288 0.72429 0.12055 0.0
H70 H 0.91723 0.68229 0.08897 0.0
H71 H 0.01114 0.72982 0.20987 0.0
H72 H 0.14368 0.71936 0.12287 0.0
H73 H 0.10488 0.80841 0.02515 0.0
H74 H 0.91539 0.53804 0.13179 0.0
H75 H 0.00868 0.58923 0.21047 0.0
H76 H 0.99242 0.67126 0.85425 0.0
H77 H 0.08998 0.70882 0.9366 0.0
H78 H 0.0315 0.66908 0.7776 0.0
H79 H 0.12737 0.70582 0.85846 0.0
H80 H 0.94029 0.63261 0.8832 0.0
H81 H 0.89302 0.63816 0.03136 0.0
H82 H 0.87596 0.64051 0.84826 0.0
H83 H 0.82957 0.64615 0.99379 0.0
H84 H 0.98534 0.5292 0.84908 0.0
H85 H 0.09799 0.57481 0.83704 0.0
H86 H 0.855 0.77198 0.99225 0.0
H87 H 0.90199 0.75814 0.84455 0.0
Li88 Li 0.35784 0.98841 0.29121 0.0
Li89 Li 0.31016 0.03509 0.26438 0.0
Li90 Li 0.31077 0.96944 0.22865 0.0
Li91 Li 0.35831 0.01491 0.20332 0.0
C92 C 0.29206 0.97103 0.3441 0.0
N93 N 0.27304 0.94122 0.4363 0.0
C94 C 0.27345 0.99332 0.37949 0.0
C95 C 0.30066 0.93346 0.35548 0.0
C96 C 0.26415 0.97776 0.42592 0.0
C97 C 0.29091 0.91894 0.40232 0.0
C98 C 0.37736 0.0752 0.28717 0.0
C99 C 0.3912 0.14151 0.27676 0.0
N100 N 0.40104 0.14368 0.32584 0.0
C101 C 0.3881 0.07803 0.33735 0.0
C102 C 0.37937 0.10713 0.25647 0.0
C103 C 0.39979 0.1129 0.35626 0.0
C104 C 0.42602 0.96393 0.33248 0.0
N105 N 0.39038 0.97468 0.34506 0.0
C106 C 0.40655 0.97473 0.43185 0.0
C107 C 0.38019 0.97982 0.39366 0.0
C108 C 0.4438 0.96502 0.41967 0.0
C109 C 0.45341 0.95891 0.36949 0.0
H110 H 0.43353 0.96079 0.2935 0.0
H111 H 0.35231 0.98991 0.4028 0.0
C112 C 0.24631 0.08329 0.26357 0.0
N113 N 0.27871 0.07489 0.28858 0.0
C114 C 0.2216 0.11061 0.28223 0.0
C115 C 0.26381 0.11985 0.35228 0.0
C116 C 0.28771 0.09243 0.33224 0.0
C117 C 0.23029 0.12894 0.32723 0.0
H118 H 0.23932 0.06827 0.22961 0.0
H119 H 0.31269 0.08417 0.35254 0.0
C120 C 0.3708 0.92481 0.21432 0.0
N121 N 0.37805 0.84939 0.18948 0.0
C122 C 0.37276 0.91389 0.16418 0.0
C123 C 0.37332 0.89743 0.25184 0.0
C124 C 0.37617 0.87561 0.15236 0.0
C125 C 0.37679 0.85944 0.23854 0.0
C126 C 0.29733 0.04279 0.15394 0.0
C127 C 0.28614 0.02895 0.10727 0.0
C128 C 0.30306 0.08155 0.16015 0.0
C129 C 0.28156 0.05407 0.0674 0.0
C130 C 0.29816 0.10578 0.11942 0.0
N131 N 0.28765 0.09164 0.07423 0.0
C132 C 0.25713 0.90916 0.23489 0.0
C133 C 0.28023 0.92281 0.15367 0.0
C134 C 0.23348 0.88106 0.21576 0.0
N135 N 0.27988 0.92935 0.20378 0.0
C136 C 0.25666 0.89539 0.13284 0.0
C137 C 0.23281 0.87435 0.16408 0.0
H138 H 0.25671 0.91528 0.27438 0.0
H139 H 0.29861 0.93919 0.12979 0.0
C140 C 0.42194 0.05018 0.15897 0.0
N141 N 0.39076 0.02882 0.14976 0.0
C142 C 0.44838 0.05665 0.12115 0.0
C143 C 0.41018 0.01891 0.06521 0.0
C144 C 0.38421 0.01366 0.10386 0.0
C145 C 0.44293 0.04009 0.0741 0.0
H146 H 0.42707 0.06094 0.19615 0.0
H147 H 0.35955 0.99625 0.09782 0.0
O148 O 0.30169 0.98598 0.29862 0.0
O149 O 0.36609 0.04113 0.26798 0.0
O150 O 0.36675 0.96211 0.22663 0.0
O151 O 0.30258 0.01856 0.1933 0.0
H152 H 0.26617 0.0223 0.37124 0.0
H153 H 0.31463 0.91568 0.32842 0.0
H154 H 0.24983 0.99474 0.45369 0.0
H155 H 0.29752 0.88994 0.41163 0.0
H156 H 0.39276 0.16643 0.25341 0.0
H157 H 0.38708 0.05369 0.36165 0.0
H158 H 0.37238 0.10538 0.21721 0.0
H159 H 0.40789 0.11548 0.39512 0.0
H160 H 0.39851 0.98012 0.47027 0.0
H161 H 0.48207 0.95175 0.35901 0.0
H162 H 0.19565 0.11685 0.26243 0.0
H163 H 0.27089 0.13319 0.38751 0.0
H164 H 0.37129 0.93469 0.13465 0.0
H165 H 0.37282 0.90542 0.29083 0.0
H166 H 0.37732 0.86675 0.11368 0.0
H167 H 0.37858 0.83795 0.26722 0.0
H168 H 0.28115 0.99914 0.10173 0.0
H169 H 0.31093 0.09286 0.19614 0.0
H170 H 0.27313 0.04368 0.03103 0.0
H171 H 0.30262 0.13583 0.12377 0.0
H172 H 0.21523 0.86536 0.24078 0.0
H173 H 0.25671 0.89088 0.09278 0.0
H174 H 0.47365 0.07283 0.12909 0.0
H175 H 0.40541 0.00563 0.02927 0.0
Li176 Li 0.01682 0.36034 0.54588 0.0
Li177 Li 0.97004 0.31401 0.51904 0.0
Li178 Li 0.0337 0.31393 0.48446 0.0
Li179 Li 0.9888 0.36354 0.46267 0.0
C180 C 0.02913 0.30212 0.60289 0.0
N181 N 0.04989 0.30073 0.7025 0.0
C182 C 0.00227 0.29423 0.63978 0.0
C183 C 0.06657 0.30913 0.61665 0.0
C184 C 0.01334 0.29365 0.68993 0.0
C185 C 0.07648 0.30839 0.66721 0.0
C186 C 0.94142 0.39967 0.51952 0.0
C187 C 0.88764 0.42923 0.48033 0.0
N188 N 0.89957 0.4634 0.49742 0.0
C189 C 0.9531 0.43506 0.5368 0.0
C190 C 0.90835 0.39667 0.49122 0.0
C191 C 0.93154 0.46694 0.52523 0.0
C192 C 0.06333 0.41263 0.59894 0.0
N193 N 0.03193 0.39052 0.601 0.0
C194 C 0.01474 0.41644 0.68017 0.0
C195 C 0.00794 0.39172 0.64065 0.0
C196 C 0.04627 0.44028 0.67835 0.0
C197 C 0.07117 0.43793 0.6377 0.0
H198 H 0.08148 0.4116 0.56648 0.0
H199 H 0.98276 0.37442 0.64063 0.0
C200 C 0.93971 0.24478 0.54964 0.0
N201 N 0.93074 0.2817 0.54208 0.0
C202 C 0.91295 0.21984 0.56907 0.0
C203 C 0.86815 0.27136 0.57265 0.0
C204 C 0.89582 0.29536 0.55304 0.0
C205 C 0.87688 0.23325 0.58107 0.0
H206 H 0.96792 0.23491 0.54133 0.0
H207 H 0.88966 0.32494 0.54738 0.0
C208 C 0.07564 0.37025 0.45623 0.0
N209 N 0.14235 0.36812 0.40269 0.0
C210 C 0.07548 0.37694 0.4047 0.0
C211 C 0.10975 0.36269 0.48058 0.0
C212 C 0.10951 0.37575 0.3783 0.0
C213 C 0.14316 0.36163 0.45282 0.0
C214 C 0.96299 0.27986 0.43364 0.0
C215 C 0.97781 0.24329 0.43212 0.0
C216 C 0.92477 0.28571 0.42308 0.0
C217 C 0.95401 0.21308 0.42036 0.0
C218 C 0.90188 0.25474 0.41163 0.0
N219 N 0.91685 0.21938 0.41053 0.0
C220 C 0.09505 0.26196 0.48815 0.0
C221 C 0.07494 0.28026 0.40701 0.0
C222 C 0.12208 0.23775 0.46772 0.0
N223 N 0.07221 0.28252 0.45765 0.0
C224 C 0.10157 0.25647 0.38501 0.0
C225 C 0.12525 0.23479 0.41561 0.0
H226 H 0.09188 0.26391 0.52824 0.0
H227 H 0.05601 0.29659 0.38376 0.0
C228 C 0.98773 0.43418 0.41666 0.0
N229 N 0.97494 0.39816 0.41146 0.0
C230 C 0.98189 0.46059 0.37876 0.0
C231 C 0.94948 0.41248 0.33089 0.0
C232 C 0.95585 0.38694 0.36991 0.0
C233 C 0.96308 0.44957 0.33509 0.0
H234 H 0.00346 0.44202 0.44974 0.0
H235 H 0.94659 0.35797 0.36643 0.0
O236 O 0.01871 0.30362 0.55365 0.0
O237 O 0.96259 0.36822 0.5294 0.0
O238 O 0.04251 0.37022 0.48253 0.0
O239 O 0.98556 0.30969 0.44646 0.0
H240 H 0.9731 0.28907 0.62995 0.0
H241 H 0.08764 0.31565 0.58866 0.0
H242 H 0.99282 0.28775 0.71888 0.0
H243 H 0.1053 0.31404 0.67841 0.0
H244 H 0.86216 0.42736 0.45816 0.0
H245 H 0.97876 0.43804 0.55836 0.0
H246 H 0.89907 0.36956 0.4772 0.0
H247 H 0.94034 0.49453 0.53817 0.0
H248 H 0.99488 0.418 0.71092 0.0
H249 H 0.09553 0.45637 0.63526 0.0
H250 H 0.92044 0.19056 0.57542 0.0
H251 H 0.84049 0.28242 0.58182 0.0
H252 H 0.04934 0.38249 0.38511 0.0
H253 H 0.11035 0.35718 0.52036 0.0
H254 H 0.10978 0.38068 0.33838 0.0
H255 H 0.16972 0.35551 0.47111 0.0
H256 H 0.00724 0.23818 0.4406 0.0
H257 H 0.9128 0.31379 0.42442 0.0
H258 H 0.96505 0.1846 0.41931 0.0
H259 H 0.87219 0.25881 0.40379 0.0
H260 H 0.13992 0.22109 0.49215 0.0
H261 H 0.10331 0.2545 0.34465 0.0
H262 H 0.99297 0.48896 0.38272 0.0
H263 H 0.93515 0.40321 0.29727 0.0
Li264 Li 0.64162 0.01311 0.78913 0.0
Li265 Li 0.6885 0.96765 0.76747 0.0
Li266 Li 0.69166 0.03483 0.7335 0.0
Li267 Li 0.64254 0.98797 0.70503 0.0
C268 C 0.70125 0.03503 0.84748 0.0
N269 N 0.71082 0.07283 0.93696 0.0
C270 C 0.69489 0.01638 0.8928 0.0
C271 C 0.71268 0.07284 0.84765 0.0
C272 C 0.69979 0.03602 0.93765 0.0
C273 C 0.71734 0.09146 0.8933 0.0
C274 C 0.6281 0.92355 0.77977 0.0
C275 C 0.62778 0.85772 0.75665 0.0
N276 N 0.61936 0.84829 0.8047 0.0
C277 C 0.61911 0.91325 0.82882 0.0
C278 C 0.63219 0.89562 0.74329 0.0
C279 C 0.61493 0.87504 0.84072 0.0
C280 C 0.57458 0.00553 0.8419 0.0
N281 N 0.60623 0.0273 0.84037 0.0
C282 C 0.58526 0.06243 0.91157 0.0
C283 C 0.61132 0.05628 0.87317 0.0
C284 C 0.55333 0.03917 0.91502 0.0
C285 C 0.54759 0.01101 0.8791 0.0
H286 H 0.57052 0.98347 0.81451 0.0
H287 H 0.63568 0.07441 0.87005 0.0
C288 C 0.74778 0.91376 0.76266 0.0
N289 N 0.71931 0.92735 0.79168 0.0
C290 C 0.77238 0.88632 0.78144 0.0
C291 C 0.7376 0.88704 0.85927 0.0
C292 C 0.71386 0.91457 0.83913 0.0
C293 C 0.76742 0.87302 0.83039 0.0
H294 H 0.75198 0.9249 0.72544 0.0
H295 H 0.69156 0.92627 0.86178 0.0
C296 C 0.60919 0.06633 0.73816 0.0
N297 N 0.55272 0.11453 0.76962 0.0
C298 C 0.57132 0.05673 0.7307 0.0
C299 C 0.61841 0.10049 0.76132 0.0
C300 C 0.54317 0.08148 0.74697 0.0
C301 C 0.58942 0.12447 0.777 0.0
C302 C 0.70695 0.9745 0.65032 0.0
C303 C 0.71881 0.00131 0.61525 0.0
C304 C 0.70367 0.93664 0.63621 0.0
C305 C 0.72657 0.98985 0.56633 0.0
C306 C 0.71165 0.92631 0.58692 0.0
N307 N 0.7228 0.95291 0.55328 0.0
C308 C 0.76164 0.07106 0.71925 0.0
C309 C 0.70906 0.10291 0.68381 0.0
C310 C 0.78635 0.09794 0.69941 0.0
N311 N 0.72388 0.07398 0.71094 0.0
C312 C 0.73274 0.13043 0.66332 0.0
C313 C 0.77183 0.12778 0.67077 0.0
H314 H 0.77254 0.04744 0.7405 0.0
H315 H 0.67896 0.10411 0.67718 0.0
C316 C 0.57941 0.95455 0.65831 0.0
N317 N 0.6111 0.97534 0.64986 0.0
C318 C 0.55278 0.9496 0.62032 0.0
C319 C 0.59236 0.98676 0.56535 0.0
C320 C 0.61795 0.9914 0.60454 0.0
C321 C 0.55902 0.96629 0.57349 0.0
H322 H 0.57396 0.94326 0.69518 0.0
H323 H 0.64238 0.00923 0.59942 0.0
O324 O 0.69709 0.01623 0.80318 0.0
O325 O 0.63269 0.96081 0.76752 0.0
O326 O 0.63709 0.0419 0.72414 0.0
O327 O 0.69922 0.98519 0.6984 0.0
H328 H 0.68577 0.98726 0.89339 0.0
H329 H 0.71771 0.08773 0.81296 0.0
H330 H 0.69472 0.02202 0.97299 0.0
H331 H 0.72607 0.12074 0.894 0.0
H332 H 0.631 0.8358 0.7288 0.0
H333 H 0.61593 0.9345 0.85759 0.0
H334 H 0.63855 0.90314 0.70503 0.0
H335 H 0.60827 0.86664 0.87861 0.0
H336 H 0.59016 0.08463 0.93865 0.0
H337 H 0.52304 0.99277 0.88078 0.0
H338 H 0.79544 0.87613 0.75851 0.0
H339 H 0.73338 0.87747 0.89735 0.0
H340 H 0.56379 0.03026 0.71307 0.0
H341 H 0.64762 0.1081 0.76778 0.0
H342 H 0.51372 0.07434 0.74174 0.0
H343 H 0.59609 0.15089 0.79529 0.0
H344 H 0.72171 0.0307 0.6255 0.0
H345 H 0.69525 0.91541 0.66306 0.0
H346 H 0.73555 0.01034 0.53874 0.0
H347 H 0.70909 0.89712 0.57544 0.0
H348 H 0.81647 0.09521 0.70558 0.0
H349 H 0.72085 0.15314 0.64119 0.0
H350 H 0.527 0.93411 0.62784 0.0
H351 H 0.5976 0.00044 0.52977 0.0
C352 C 0.98485 0.49981 0.21256 0.0
C353 C 0.9593 0.53059 0.21529 0.0
C354 C 0.93217 0.50472 0.29247 0.0
C355 C 0.96037 0.47626 0.29245 0.0
N356 N 0.01647 0.44886 0.2563 0.0
N357 N 0.91073 0.56484 0.2591 0.0
C358 C 0.98742 0.47424 0.25337 0.0
C359 C 0.93334 0.53366 0.2555 0.0
N360 N 0.00618 0.49465 0.17044 0.0
N361 N 0.90397 0.50359 0.32739 0.0
H362 H 0.91032 0.58612 0.23208 0.0
H363 H 0.8942 0.57096 0.29023 0.0
H364 H 0.90261 0.48299 0.35527 0.0
H365 H 0.88042 0.52116 0.3266 0.0
H366 H 0.02224 0.47054 0.16381 0.0
H367 H 0.00547 0.51306 0.13998 0.0
H368 H 0.03957 0.44904 0.23222 0.0
H369 H 0.01907 0.42919 0.28515 0.0
C370 C 0.49022 0.93037 0.47439 0.0
C371 C 0.47343 0.96486 0.45897 0.0
C372 C 0.50947 0.9991 0.52259 0.0
C373 C 0.52919 0.96537 0.53445 0.0
N374 N 0.54261 0.89994 0.51677 0.0
N375 N 0.47262 0.03307 0.46114 0.0
C376 C 0.52074 0.93121 0.50902 0.0
C377 C 0.48463 0.99955 0.48101 0.0
N378 N 0.47628 0.89682 0.4571 0.0
N379 N 0.51343 0.03038 0.55213 0.0
H380 H 0.45485 0.03477 0.43009 0.0
H381 H 0.48315 0.0592 0.47239 0.0
H382 H 0.53082 0.03107 0.58361 0.0
H383 H 0.4967 0.0544 0.54831 0.0
H384 H 0.48467 0.87065 0.47099 0.0
H385 H 0.45396 0.89518 0.43173 0.0
H386 H 0.54037 0.87542 0.49549 0.0
H387 H 0.56522 0.89956 0.54179 0.0
C388 C 0.03827 0.53407 0.74673 0.0
C389 C 0.04971 0.52296 0.79536 0.0
C390 C 0.06708 0.46028 0.76394 0.0
C391 C 0.05093 0.46983 0.71708 0.0
N392 N 0.01868 0.51447 0.66386 0.0
N393 N 0.07392 0.47587 0.85196 0.0
C394 C 0.03623 0.50653 0.70823 0.0
C395 C 0.06422 0.48623 0.80439 0.0
N396 N 0.02952 0.57105 0.73744 0.0
N397 N 0.08537 0.42652 0.76941 0.0
H398 H 0.07344 0.49464 0.88202 0.0
H399 H 0.08056 0.44832 0.86234 0.0
H400 H 0.08756 0.40685 0.74049 0.0
H401 H 0.10085 0.41913 0.80101 0.0
H402 H 0.02478 0.58184 0.70177 0.0
H403 H 0.0301 0.59185 0.76505 0.0
H404 H 0.00329 0.53903 0.65736 0.0
H405 H 0.01729 0.49537 0.63423 0.0
C406 C 0.46905 0.06801 0.99484 0.0
C407 C 0.47282 0.04224 0.03526 0.0
C408 C 0.53076 0.01633 0.99838 0.0
C409 C 0.52705 0.04218 0.95804 0.0
N410 N 0.49645 0.09561 0.91978 0.0
N411 N 0.50862 0.99479 0.07947 0.0
C412 C 0.49732 0.06903 0.95694 0.0
C413 C 0.5042 0.01734 0.03825 0.0
N414 N 0.43791 0.0908 0.99232 0.0
N415 N 0.55917 0.99011 0.99765 0.0
H416 H 0.48869 0.99292 0.10804 0.0
H417 H 0.53287 0.97926 0.08711 0.0
H418 H 0.58053 0.98996 0.97078 0.0
H419 H 0.56101 0.96736 0.02215 0.0
H420 H 0.43097 0.10734 0.96151 0.0
H421 H 0.41765 0.09202 0.0206 0.0
H422 H 0.4779 0.11837 0.91901 0.0
H423 H 0.516 0.09631 0.89061 0.0
C424 C 0.16663 0.85311 0.1448 0.0
C425 C 0.2061 0.84633 0.14243 0.0
C426 C 0.19461 0.78899 0.09326 0.0
C427 C 0.15515 0.79386 0.10001 0.0
N428 N 0.10395 0.82598 0.14178 0.0
N429 N 0.25753 0.80416 0.12281 0.0
C430 C 0.14124 0.8246 0.12862 0.0
C431 C 0.2201 0.81317 0.11905 0.0
N432 N 0.15335 0.88733 0.1606 0.0
N433 N 0.20774 0.76221 0.06085 0.0
H434 H 0.27698 0.82091 0.14198 0.0
H435 H 0.26862 0.77843 0.11095 0.0
H436 H 0.18995 0.74423 0.04085 0.0
H437 H 0.23601 0.76006 0.05043 0.0
H438 H 0.12504 0.89513 0.15803 0.0
H439 H 0.17099 0.90938 0.17173 0.0
H440 H 0.09312 0.84568 0.1669 0.0
H441 H 0.0845 0.80521 0.13161 0.0
C442 C 0.21084 0.19555 0.34677 0.0
C443 C 0.20337 0.15621 0.3496 0.0
C444 C 0.14332 0.16872 0.39203 0.0
C445 C 0.15229 0.20778 0.39298 0.0
N446 N 0.19652 0.25832 0.37792 0.0
N447 N 0.16603 0.10463 0.38187 0.0
C448 C 0.18663 0.22122 0.37217 0.0
C449 C 0.17055 0.14257 0.37416 0.0
N450 N 0.24045 0.20835 0.31865 0.0
N451 N 0.10831 0.15676 0.40678 0.0
H452 H 0.18527 0.08451 0.36917 0.0
H453 H 0.1449 0.09324 0.4044 0.0
H454 H 0.08763 0.17503 0.42044 0.0
H455 H 0.09858 0.12927 0.40165 0.0
H456 H 0.24504 0.23677 0.31064 0.0
H457 H 0.25893 0.19031 0.29987 0.0
H458 H 0.22295 0.26904 0.36842 0.0
H459 H 0.1793 0.27799 0.3959 0.0
C460 C 0.81428 0.18437 0.67731 0.0
C461 C 0.79774 0.15567 0.64746 0.0
C462 C 0.82936 0.18103 0.57302 0.0
C463 C 0.84867 0.20738 0.60373 0.0
N464 N 0.8639 0.23115 0.68582 0.0
N465 N 0.79313 0.12298 0.56856 0.0
C466 C 0.84227 0.20832 0.65612 0.0
C467 C 0.80618 0.15302 0.59567 0.0
N468 N 0.80249 0.18929 0.72557 0.0
N469 N 0.83256 0.18338 0.52214 0.0
H470 H 0.77591 0.10198 0.58373 0.0
H471 H 0.80172 0.11716 0.53214 0.0
H472 H 0.84955 0.20336 0.5043 0.0
H473 H 0.81611 0.16767 0.49748 0.0
H474 H 0.81041 0.21222 0.74758 0.0
H475 H 0.78223 0.17209 0.74245 0.0
H476 H 0.86362 0.22997 0.72472 0.0
H477 H 0.88444 0.2494 0.67167 0.0
C478 C 0.82837 0.85997 0.87471 0.0
C479 C 0.79472 0.84601 0.85257 0.0
C480 C 0.81179 0.78131 0.87652 0.0
C481 C 0.84672 0.795 0.89523 0.0
N482 N 0.89075 0.84615 0.90749 0.0
N483 N 0.75555 0.79378 0.82714 0.0
C484 C 0.8557 0.83404 0.89308 0.0
C485 C 0.78669 0.80674 0.85209 0.0
N486 N 0.83369 0.8981 0.87937 0.0
N487 N 0.80244 0.74413 0.88299 0.0
H488 H 0.73619 0.81171 0.80975 0.0
H489 H 0.75008 0.76533 0.82063 0.0
H490 H 0.82057 0.72458 0.89963 0.0
H491 H 0.77588 0.73304 0.87514 0.0
H492 H 0.8554 0.91014 0.90021 0.0
H493 H 0.81475 0.91802 0.86534 0.0
H494 H 0.90076 0.87341 0.90128 0.0
H495 H 0.91107 0.82823 0.92281 0.0
loop_
_geom_bond_atom_site_label_1
_geom_bond_atom_site_label_2
_geom_bond_distance
_geom_bond_site_symmetry_2
_ccdc_geom_bond_type
Li0 N17 1.990 . S
Li0 O60 1.956 . S
Li0 O61 1.970 1_455 S
Li0 O62 1.961 1_554 S
Li1 N25 1.990 . S
Li1 O60 1.970 1_655 S
Li1 O61 1.956 . S
Li1 O63 1.961 1_554 S
Li2 N47 1.990 . S
Li2 O60 1.961 1_556 S
Li2 O62 1.956 . S
Li2 O63 1.970 1_455 S
Li3 N53 1.990 . S
Li3 O61 1.961 1_556 S
Li3 O62 1.970 1_655 S
Li3 O63 1.956 . S
C4 C6 1.348 . S
C4 C7 1.356 1_554 S
C4 O60 1.325 . S
N5 C8 1.314 . S
N5 C9 1.279 . S
C6 C4 1.348 . S
C6 C8 1.353 . S
C6 H64 0.929 . S
C7 C4 1.356 1_556 S
C7 C9 1.358 1_556 S
C7 H65 0.930 . S
C8 N5 1.314 . S
C8 C6 1.353 . S
C8 H66 0.930 . S
C9 N5 1.279 . S
C9 C7 1.358 1_554 S
C9 H67 0.930 1_554 S
C10 C13 1.348 1_655 S
C10 C14 1.356 . S
C10 O61 1.325 . S
C11 N12 1.279 . S
C11 C14 1.358 . S
C11 H68 0.930 . S
N12 C11 1.279 . S
N12 C15 1.314 . S
C13 C10 1.348 1_455 S
C13 C15 1.353 1_455 S
C13 H69 0.929 . S
C14 C10 1.356 . S
C14 C11 1.358 . S
C14 H70 0.930 . S
C15 N12 1.314 . S
C15 C13 1.353 1_655 S
C15 H71 0.930 1_655 S
C16 N17 1.314 . S
C16 C21 1.353 . S
C16 H22 0.930 1_554 S
N17 Li0 1.990 . S
N17 C16 1.314 . S
N17 C19 1.279 . S
C18 C19 1.358 . S
C18 C20 1.356 . S
C18 H72 0.930 . S
C19 N17 1.279 . S
C19 C18 1.358 . S
C19 H23 0.930 . S
C20 C18 1.356 . S
C20 C21 1.348 . S
C21 C16 1.353 . S
C21 C20 1.348 . S
C21 H73 0.929 . S
H22 C16 0.930 1_556 S
H23 C19 0.930 . S
C24 N25 1.314 . S
C24 C26 1.353 . S
C24 H30 0.930 . S
N25 Li1 1.990 . S
N25 C24 1.314 . S
N25 C28 1.279 . S
C26 C24 1.353 . S
C26 C29 1.348 . S
C26 H74 0.929 . S
C27 C28 1.358 . S
C27 C29 1.356 . S
C27 H75 0.930 . S
C28 N25 1.279 . S
C28 C27 1.358 . S
C28 H31 0.930 . S
C29 C26 1.348 . S
C29 C27 1.356 . S
H30 C24 0.930 . S
H31 C28 0.930 . S
C32 C34 1.348 1_455 S
C32 C35 1.356 . S
C32 O62 1.325 . S
N33 C36 1.314 . S
N33 C37 1.279 . S
C34 C32 1.348 1_655 S
C34 C36 1.353 1_655 S
C34 H76 0.929 . S
C35 C32 1.356 . S
C35 C37 1.358 . S
C35 H77 0.930 . S
C36 N33 1.314 . S
C36 C34 1.353 1_455 S
C36 H78 0.930 1_455 S
C37 N33 1.279 . S
C37 C35 1.358 . S
C37 H79 0.930 . S
C38 C39 1.348 . S
C38 C40 1.356 1_556 S
C38 O63 1.325 . S
C39 C38 1.348 . S
C39 C41 1.353 . S
C39 H80 0.929 . S
C40 C38 1.356 1_554 S
C40 C42 1.358 1_554 S
C40 H81 0.930 . S
C41 C39 1.353 . S
C41 N43 1.314 . S
C41 H82 0.930 . S
C42 C40 1.358 1_556 S
C42 N43 1.279 . S
C42 H83 0.930 1_556 S
N43 C41 1.314 . S
N43 C42 1.279 . S
C44 C46 1.353 . S
C44 N47 1.314 . S
C44 H50 0.930 . S
C45 N47 1.279 . S
C45 C48 1.358 . S
C45 H51 0.930 . S
C46 C44 1.353 . S
C46 C49 1.348 . S
C46 H84 0.929 . S
N47 Li2 1.990 . S
N47 C44 1.314 . S
N47 C45 1.279 . S
C48 C45 1.358 . S
C48 C49 1.356 . S
C48 H85 0.930 . S
C49 C46 1.348 . S
C49 C48 1.356 . S
H50 C44 0.930 . S
H51 C45 0.930 . S
C52 N53 1.314 . S
C52 C54 1.353 . S
C52 H58 0.930 1_556 S
N53 Li3 1.990 . S
N53 C52 1.314 . S
N53 C56 1.279 . S
C54 C52 1.353 . S
C54 C57 1.348 . S
C54 H86 0.929 . S
C55 C56 1.358 . S
C55 C57 1.356 . S
C55 H87 0.930 . S
C56 N53 1.279 . S
C56 C55 1.358 . S
C56 H59 0.930 . S
C57 C54 1.348 . S
C57 C55 1.356 . S
H58 C52 0.930 1_554 S
H59 C56 0.930 . S
O60 Li0 1.956 . S
O60 Li1 1.970 1_455 S
O60 Li2 1.961 1_554 S
O60 C4 1.325 . S
O61 Li0 1.970 1_655 S
O61 Li1 1.956 . S
O61 Li3 1.961 1_554 S
O61 C10 1.325 . S
O62 Li0 1.961 1_556 S
O62 Li2 1.956 . S
O62 Li3 1.970 1_455 S
O62 C32 1.325 . S
O63 Li1 1.961 1_556 S
O63 Li2 1.970 1_655 S
O63 Li3 1.956 . S
O63 C38 1.325 . S
H64 C6 0.929 . S
H65 C7 0.930 . S
H66 C8 0.930 . S
H67 C9 0.930 1_556 S
H68 C11 0.930 . S
H69 C13 0.929 . S
H70 C14 0.930 . S
H71 C15 0.930 1_455 S
H72 C18 0.930 . S
H73 C21 0.929 . S
H74 C26 0.929 . S
H75 C27 0.930 . S
H76 C34 0.929 . S
H77 C35 0.930 . S
H78 C36 0.930 1_655 S
H79 C37 0.930 . S
H80 C39 0.929 . S
H81 C40 0.930 . S
H82 C41 0.930 . S
H83 C42 0.930 1_554 S
H84 C46 0.929 . S
H85 C48 0.930 . S
H86 C54 0.929 . S
H87 C55 0.930 . S
Li88 N105 1.990 . S
Li88 O148 1.956 . S
Li88 O149 1.970 1_565 S
Li88 O150 1.961 . S
Li89 N113 1.990 . S
Li89 O148 1.970 1_545 S
Li89 O149 1.956 . S
Li89 O151 1.961 . S
Li90 N135 1.990 . S
Li90 O148 1.961 . S
Li90 O150 1.956 . S
Li90 O151 1.970 1_565 S
Li91 N141 1.990 . S
Li91 O149 1.961 . S
Li91 O150 1.970 1_545 S
Li91 O151 1.956 . S
C92 C94 1.348 1_565 S
C92 C95 1.356 . S
C92 O148 1.325 . S
N93 C96 1.314 . S
N93 C97 1.279 . S
C94 C92 1.348 1_545 S
C94 C96 1.353 1_545 S
C94 H152 0.929 . S
C95 C92 1.356 . S
C95 C97 1.358 . S
C95 H153 0.930 . S
C96 N93 1.314 . S
C96 C94 1.353 1_565 S
C96 H154 0.930 1_565 S
C97 N93 1.279 . S
C97 C95 1.358 . S
C97 H155 0.930 . S
C98 C101 1.348 . S
C98 C102 1.356 . S
C98 O149 1.325 . S
C99 N100 1.279 . S
C99 C102 1.358 . S
C99 H156 0.930 . S
N100 C99 1.279 . S
N100 C103 1.314 . S
C101 C98 1.348 . S
C101 C103 1.353 . S
C101 H157 0.929 . S
C102 C98 1.356 . S
C102 C99 1.358 . S
C102 H158 0.930 . S
C103 N100 1.314 . S
C103 C101 1.353 . S
C103 H159 0.930 . S
C104 N105 1.314 . S
C104 C109 1.353 . S
C104 H110 0.930 . S
N105 Li88 1.990 . S
N105 C104 1.314 . S
N105 C107 1.279 . S
C106 C107 1.358 . S
C106 C108 1.356 . S
C106 H160 0.930 . S
C107 N105 1.279 . S
C107 C106 1.358 . S
C107 H111 0.930 . S
C108 C106 1.356 . S
C108 C109 1.348 . S
C109 C104 1.353 . S
C109 C108 1.348 . S
C109 H161 0.929 . S
H110 C104 0.930 . S
H111 C107 0.930 . S
C112 N113 1.314 . S
C112 C114 1.353 . S
C112 H118 0.930 . S
N113 Li89 1.990 . S
N113 C112 1.314 . S
N113 C116 1.279 . S
C114 C112 1.353 . S
C114 C117 1.348 . S
C114 H162 0.929 . S
C115 C116 1.358 . S
C115 C117 1.356 . S
C115 H163 0.930 . S
C116 N113 1.279 . S
C116 C115 1.358 . S
C116 H119 0.930 . S
C117 C114 1.348 . S
C117 C115 1.356 . S
H118 C112 0.930 . S
H119 C116 0.930 . S
C120 C122 1.348 . S
C120 C123 1.356 . S
C120 O150 1.325 . S
N121 C124 1.314 . S
N121 C125 1.279 . S
C122 C120 1.348 . S
C122 C124 1.353 . S
C122 H164 0.929 . S
C123 C120 1.356 . S
C123 C125 1.358 . S
C123 H165 0.930 . S
C124 N121 1.314 . S
C124 C122 1.353 . S
C124 H166 0.930 . S
C125 N121 1.279 . S
C125 C123 1.358 . S
C125 H167 0.930 . S
C126 C127 1.348 1_545 S
C126 C128 1.356 . S
C126 O151 1.325 . S
C127 C126 1.348 1_565 S
C127 C129 1.353 1_565 S
C127 H168 0.929 . S
C128 C126 1.356 . S
C128 C130 1.358 . S
C128 H169 0.930 . S
C129 C127 1.353 1_545 S
C129 N131 1.314 . S
C129 H170 0.930 1_545 S
C130 C128 1.358 . S
C130 N131 1.279 . S
C130 H171 0.930 . S
N131 C129 1.314 . S
N131 C130 1.279 . S
C132 C134 1.353 . S
C132 N135 1.314 . S
C132 H138 0.930 . S
C133 N135 1.279 . S
C133 C136 1.358 . S
C133 H139 0.930 . S
C134 C132 1.353 . S
C134 C137 1.348 . S
C134 H172 0.929 . S
N135 Li90 1.990 . S
N135 C132 1.314 . S
N135 C133 1.279 . S
C136 C133 1.358 . S
C136 C137 1.356 . S
C136 H173 0.930 . S
C137 C134 1.348 . S
C137 C136 1.356 . S
H138 C132 0.930 . S
H139 C133 0.930 . S
C140 N141 1.314 . S
C140 C142 1.353 . S
C140 H146 0.930 . S
N141 Li91 1.990 . S
N141 C140 1.314 . S
N141 C144 1.279 . S
C142 C140 1.353 . S
C142 C145 1.348 . S
C142 H174 0.929 . S
C143 C144 1.358 . S
C143 C145 1.356 . S
C143 H175 0.930 . S
C144 N141 1.279 . S
C144 C143 1.358 . S
C144 H147 0.930 . S
C145 C142 1.348 . S
C145 C143 1.356 . S
H146 C140 0.930 . S
H147 C144 0.930 . S
O148 Li88 1.956 . S
O148 Li89 1.970 1_565 S
O148 Li90 1.961 . S
O148 C92 1.325 . S
O149 Li88 1.970 1_545 S
O149 Li89 1.956 . S
O149 Li91 1.961 . S
O149 C98 1.325 . S
O150 Li88 1.961 . S
O150 Li90 1.956 . S
O150 Li91 1.970 1_565 S
O150 C120 1.325 . S
O151 Li89 1.961 . S
O151 Li90 1.970 1_545 S
O151 Li91 1.956 . S
O151 C126 1.325 . S
H152 C94 0.929 . S
H153 C95 0.930 . S
H154 C96 0.930 1_545 S
H155 C97 0.930 . S
H156 C99 0.930 . S
H157 C101 0.929 . S
H158 C102 0.930 . S
H159 C103 0.930 . S
H160 C106 0.930 . S
H161 C109 0.929 . S
H162 C114 0.929 . S
H163 C115 0.930 . S
H164 C122 0.929 . S
H165 C123 0.930 . S
H166 C124 0.930 . S
H167 C125 0.930 . S
H168 C127 0.929 . S
H169 C128 0.930 . S
H170 C129 0.930 1_565 S
H171 C130 0.930 . S
H172 C134 0.929 . S
H173 C136 0.930 . S
H174 C142 0.929 . S
H175 C143 0.930 . S
Li176 N193 1.990 . S
Li176 O236 1.956 . S
Li176 O237 1.970 1_455 S
Li176 O238 1.961 . S
Li177 N201 1.990 . S
Li177 O236 1.970 1_655 S
Li177 O237 1.956 . S
Li177 O239 1.961 . S
Li178 N223 1.990 . S
Li178 O236 1.961 . S
Li178 O238 1.956 . S
Li178 O239 1.970 1_455 S
Li179 N229 1.990 . S
Li179 O237 1.961 . S
Li179 O238 1.970 1_655 S
Li179 O239 1.956 . S
C180 C182 1.348 1_455 S
C180 C183 1.356 . S
C180 O236 1.325 . S
N181 C184 1.314 . S
N181 C185 1.279 . S
C182 C180 1.348 1_655 S
C182 C184 1.353 1_655 S
C182 H240 0.929 . S
C183 C180 1.356 . S
C183 C185 1.358 . S
C183 H241 0.930 . S
C184 N181 1.314 . S
C184 C182 1.353 1_455 S
C184 H242 0.930 1_455 S
C185 N181 1.279 . S
C185 C183 1.358 . S
C185 H243 0.930 . S
C186 C189 1.348 . S
C186 C190 1.356 . S
C186 O237 1.325 . S
C187 N188 1.279 . S
C187 C190 1.358 . S
C187 H244 0.930 . S
N188 C187 1.279 . S
N188 C191 1.314 . S
C189 C186 1.348 . S
C189 C191 1.353 . S
C189 H245 0.929 . S
C190 C186 1.356 . S
C190 C187 1.358 . S
C190 H246 0.930 . S
C191 N188 1.314 . S
C191 C189 1.353 . S
C191 H247 0.930 . S
C192 N193 1.314 . S
C192 C197 1.353 . S
C192 H198 0.930 . S
N193 Li176 1.990 . S
N193 C192 1.314 . S
N193 C195 1.279 . S
C194 C195 1.358 . S
C194 C196 1.356 . S
C194 H248 0.930 . S
C195 N193 1.279 . S
C195 C194 1.358 . S
C195 H199 0.930 . S
C196 C194 1.356 . S
C196 C197 1.348 . S
C197 C192 1.353 . S
C197 C196 1.348 . S
C197 H249 0.929 . S
H198 C192 0.930 . S
H199 C195 0.930 . S
C200 N201 1.314 . S
C200 C202 1.353 . S
C200 H206 0.930 . S
N201 Li177 1.990 . S
N201 C200 1.314 . S
N201 C204 1.279 . S
C202 C200 1.353 . S
C202 C205 1.348 . S
C202 H250 0.929 . S
C203 C204 1.358 . S
C203 C205 1.356 . S
C203 H251 0.930 . S
C204 N201 1.279 . S
C204 C203 1.358 . S
C204 H207 0.930 . S
C205 C202 1.348 . S
C205 C203 1.356 . S
H206 C200 0.930 . S
H207 C204 0.930 . S
C208 C210 1.348 . S
C208 C211 1.356 . S
C208 O238 1.325 . S
N209 C212 1.314 . S
N209 C213 1.279 . S
C210 C208 1.348 . S
C210 C212 1.353 . S
C210 H252 0.929 . S
C211 C208 1.356 . S
C211 C213 1.358 . S
C211 H253 0.930 . S
C212 N209 1.314 . S
C212 C210 1.353 . S
C212 H254 0.930 . S
C213 N209 1.279 . S
C213 C211 1.358 . S
C213 H255 0.930 . S
C214 C215 1.348 1_655 S
C214 C216 1.356 . S
C214 O239 1.325 . S
C215 C214 1.348 1_455 S
C215 C217 1.353 1_455 S
C215 H256 0.929 . S
C216 C214 1.356 . S
C216 C218 1.358 . S
C216 H257 0.930 . S
C217 C215 1.353 1_655 S
C217 N219 1.314 . S
C217 H258 0.930 1_655 S
C218 C216 1.358 . S
C218 N219 1.279 . S
C218 H259 0.930 . S
N219 C217 1.314 . S
N219 C218 1.279 . S
C220 C222 1.353 . S
C220 N223 1.314 . S
C220 H226 0.930 . S
C221 N223 1.279 . S
C221 C224 1.358 . S
C221 H227 0.930 . S
C222 C220 1.353 . S
C222 C225 1.348 . S
C222 H260 0.929 . S
N223 Li178 1.990 . S
N223 C220 1.314 . S
N223 C221 1.279 . S
C224 C221 1.358 . S
C224 C225 1.356 . S
C224 H261 0.930 . S
C225 C222 1.348 . S
C225 C224 1.356 . S
H226 C220 0.930 . S
H227 C221 0.930 . S
C228 N229 1.314 . S
C228 C230 1.353 . S
C228 H234 0.930 . S
N229 Li179 1.990 . S
N229 C228 1.314 . S
N229 C232 1.279 . S
C230 C228 1.353 . S
C230 C233 1.348 . S
C230 H262 0.929 . S
C231 C232 1.358 . S
C231 C233 1.356 . S
C231 H263 0.930 . S
C232 N229 1.279 . S
C232 C231 1.358 . S
C232 H235 0.930 . S
C233 C230 1.348 . S
C233 C231 1.356 . S
H234 C228 0.930 . S
H235 C232 0.930 . S
O236 Li176 1.956 . S
O236 Li177 1.970 1_455 S
O236 Li178 1.961 . S
O236 C180 1.325 . S
O237 Li176 1.970 1_655 S
O237 Li177 1.956 . S
O237 Li179 1.961 . S
O237 C186 1.325 . S
O238 Li176 1.961 . S
O238 Li178 1.956 . S
O238 Li179 1.970 1_455 S
O238 C208 1.325 . S
O239 Li177 1.961 . S
O239 Li178 1.970 1_655 S
O239 Li179 1.956 . S
O239 C214 1.325 . S
H240 C182 0.929 . S
H241 C183 0.930 . S
H242 C184 0.930 1_655 S
H243 C185 0.930 . S
H244 C187 0.930 . S
H245 C189 0.929 . S
H246 C190 0.930 . S
H247 C191 0.930 . S
H248 C194 0.930 . S
H249 C197 0.929 . S
H250 C202 0.929 . S
H251 C203 0.930 . S
H252 C210 0.929 . S
H253 C211 0.930 . S
H254 C212 0.930 . S
H255 C213 0.930 . S
H256 C215 0.929 . S
H257 C216 0.930 . S
H258 C217 0.930 1_455 S
H259 C218 0.930 . S
H260 C222 0.929 . S
H261 C224 0.930 . S
H262 C230 0.929 . S
H263 C231 0.930 . S
Li264 N281 1.990 . S
Li264 O324 1.956 . S
Li264 O325 1.970 1_545 S
Li264 O326 1.961 . S
Li265 N289 1.990 . S
Li265 O324 1.970 1_565 S
Li265 O325 1.956 . S
Li265 O327 1.961 . S
Li266 N311 1.990 . S
Li266 O324 1.961 . S
Li266 O326 1.956 . S
Li266 O327 1.970 1_545 S
Li267 N317 1.990 . S
Li267 O325 1.961 . S
Li267 O326 1.970 1_565 S
Li267 O327 1.956 . S
C268 C270 1.348 1_545 S
C268 C271 1.356 . S
C268 O324 1.325 . S
N269 C272 1.314 . S
N269 C273 1.279 . S
C270 C268 1.348 1_565 S
C270 C272 1.353 1_565 S
C270 H328 0.929 . S
C271 C268 1.356 . S
C271 C273 1.358 . S
C271 H329 0.930 . S
C272 N269 1.314 . S
C272 C270 1.353 1_545 S
C272 H330 0.930 1_545 S
C273 N269 1.279 . S
C273 C271 1.358 . S
C273 H331 0.930 . S
C274 C277 1.348 . S
C274 C278 1.356 . S
C274 O325 1.325 . S
C275 N276 1.279 . S
C275 C278 1.358 . S
C275 H332 0.930 . S
N276 C275 1.279 . S
N276 C279 1.314 . S
C277 C274 1.348 . S
C277 C279 1.353 . S
C277 H333 0.929 . S
C278 C274 1.356 . S
C278 C275 1.358 . S
C278 H334 0.930 . S
C279 N276 1.314 . S
C279 C277 1.353 . S
C279 H335 0.930 . S
C280 N281 1.314 . S
C280 C285 1.353 . S
C280 H286 0.930 . S
N281 Li264 1.990 . S
N281 C280 1.314 . S
N281 C283 1.279 . S
C282 C283 1.358 . S
C282 C284 1.356 . S
C282 H336 0.930 . S
C283 N281 1.279 . S
C283 C282 1.358 . S
C283 H287 0.930 . S
C284 C282 1.356 . S
C284 C285 1.348 . S
C285 C280 1.353 . S
C285 C284 1.348 . S
C285 H337 0.929 . S
H286 C280 0.930 . S
H287 C283 0.930 . S
C288 N289 1.314 . S
C288 C290 1.353 . S
C288 H294 0.930 . S
N289 Li265 1.990 . S
N289 C288 1.314 . S
N289 C292 1.279 . S
C290 C288 1.353 . S
C290 C293 1.348 . S
C290 H338 0.929 . S
C291 C292 1.358 . S
C291 C293 1.356 . S
C291 H339 0.930 . S
C292 N289 1.279 . S
C292 C291 1.358 . S
C292 H295 0.930 . S
C293 C290 1.348 . S
C293 C291 1.356 . S
H294 C288 0.930 . S
H295 C292 0.930 . S
C296 C298 1.348 . S
C296 C299 1.356 . S
C296 O326 1.325 . S
N297 C300 1.314 . S
N297 C301 1.279 . S
C298 C296 1.348 . S
C298 C300 1.353 . S
C298 H340 0.929 . S
C299 C296 1.356 . S
C299 C301 1.358 . S
C299 H341 0.930 . S
C300 N297 1.314 . S
C300 C298 1.353 . S
C300 H342 0.930 . S
C301 N297 1.279 . S
C301 C299 1.358 . S
C301 H343 0.930 . S
C302 C303 1.348 1_565 S
C302 C304 1.356 . S
C302 O327 1.325 . S
C303 C302 1.348 1_545 S
C303 C305 1.353 1_545 S
C303 H344 0.929 . S
C304 C302 1.356 . S
C304 C306 1.358 . S
C304 H345 0.930 . S
C305 C303 1.353 1_565 S
C305 N307 1.314 . S
C305 H346 0.930 1_565 S
C306 C304 1.358 . S
C306 N307 1.279 . S
C306 H347 0.930 . S
N307 C305 1.314 . S
N307 C306 1.279 . S
C308 C310 1.353 . S
C308 N311 1.314 . S
C308 H314 0.930 . S
C309 N311 1.279 . S
C309 C312 1.358 . S
C309 H315 0.930 . S
C310 C308 1.353 . S
C310 C313 1.348 . S
C310 H348 0.929 . S
N311 Li266 1.990 . S
N311 C308 1.314 . S
N311 C309 1.279 . S
C312 C309 1.358 . S
C312 C313 1.356 . S
C312 H349 0.930 . S
C313 C310 1.348 . S
C313 C312 1.356 . S
H314 C308 0.930 . S
H315 C309 0.930 . S
C316 N317 1.314 . S
C316 C318 1.353 . S
C316 H322 0.930 . S
N317 Li267 1.990 . S
N317 C316 1.314 . S
N317 C320 1.279 . S
C318 C316 1.353 . S
C318 C321 1.348 . S
C318 H350 0.929 . S
C319 C320 1.358 . S
C319 C321 1.356 . S
C319 H351 0.930 . S
C320 N317 1.279 . S
C320 C319 1.358 . S
C320 H323 0.930 . S
C321 C318 1.348 . S
C321 C319 1.356 . S
H322 C316 0.930 . S
H323 C320 0.930 . S
O324 Li264 1.956 . S
O324 Li265 1.970 1_545 S
O324 Li266 1.961 . S
O324 C268 1.325 . S
O325 Li264 1.970 1_565 S
O325 Li265 1.956 . S
O325 Li267 1.961 . S
O325 C274 1.325 . S
O326 Li264 1.961 . S
O326 Li266 1.956 . S
O326 Li267 1.970 1_545 S
O326 C296 1.325 . S
O327 Li265 1.961 . S
O327 Li266 1.970 1_565 S
O327 Li267 1.956 . S
O327 C302 1.325 . S
H328 C270 0.929 . S
H329 C271 0.930 . S
H330 C272 0.930 1_565 S
H331 C273 0.930 . S
H332 C275 0.930 . S
H333 C277 0.929 . S
H334 C278 0.930 . S
H335 C279 0.930 . S
H336 C282 0.930 . S
H337 C285 0.929 . S
H338 C290 0.929 . S
H339 C291 0.930 . S
H340 C298 0.929 . S
H341 C299 0.930 . S
H342 C300 0.930 . S
H343 C301 0.930 . S
H344 C303 0.929 . S
H345 C304 0.930 . S
H346 C305 0.930 1_545 S
H347 C306 0.930 . S
H348 C310 0.929 . S
H349 C312 0.930 . S
H350 C318 0.929 . S
H351 C319 0.930 . S
C352 C353 1.363 . S
C352 C358 1.379 . S
C352 N360 1.356 1_655 S
C353 C352 1.363 . S
C353 C359 1.363 . S
C354 C355 1.363 . S
C354 C359 1.379 . S
C354 N361 1.356 . S
C355 C354 1.363 . S
C355 C358 1.363 . S
N356 C358 1.356 1_455 S
N356 H368 0.984 . S
N356 H369 0.985 . S
N357 C359 1.356 . S
N357 H362 0.984 . S
N357 H363 0.985 . S
C358 C352 1.379 . S
C358 C355 1.363 . S
C358 N356 1.356 1_655 S
C359 C353 1.363 . S
C359 C354 1.379 . S
C359 N357 1.356 . S
N360 C352 1.356 1_455 S
N360 H366 0.984 . S
N360 H367 0.984 . S
N361 C354 1.356 . S
N361 H364 0.984 . S
N361 H365 0.985 . S
H362 N357 0.984 . S
H363 N357 0.985 . S
H364 N361 0.984 . S
H365 N361 0.985 . S
H366 N360 0.984 . S
H367 N360 0.984 . S
H368 N356 0.984 . S
H369 N356 0.985 . S
C370 C371 1.363 . S
C370 C376 1.379 . S
C370 N378 1.356 . S
C371 C370 1.363 . S
C371 C377 1.363 . S
C372 C373 1.363 . S
C372 C377 1.379 . S
C372 N379 1.356 1_565 S
C373 C372 1.363 . S
C373 C376 1.363 . S
N374 C376 1.356 . S
N374 H386 0.984 . S
N374 H387 0.985 . S
N375 C377 1.356 1_545 S
N375 H380 0.986 . S
N375 H381 0.985 . S
C376 C370 1.379 . S
C376 C373 1.363 . S
C376 N374 1.356 . S
C377 C371 1.363 . S
C377 C372 1.379 . S
C377 N375 1.356 1_565 S
N378 C370 1.356 . S
N378 H384 0.984 . S
N378 H385 0.984 . S
N379 C372 1.356 1_545 S
N379 H382 0.986 . S
N379 H383 0.985 . S
H380 N375 0.986 . S
H381 N375 0.985 . S
H382 N379 0.986 . S
H383 N379 0.985 . S
H384 N378 0.984 . S
H385 N378 0.984 . S
H386 N374 0.984 . S
H387 N374 0.985 . S
C388 C389 1.363 . S
C388 C394 1.379 . S
C388 N396 1.356 . S
C389 C388 1.363 . S
C389 C395 1.363 . S
C390 C391 1.363 . S
C390 C395 1.379 . S
C390 N397 1.356 . S
C391 C390 1.363 . S
C391 C394 1.363 . S
N392 C394 1.356 . S
N392 H404 0.984 . S
N392 H405 0.985 . S
N393 C395 1.356 . S
N393 H398 0.984 . S
N393 H399 0.985 . S
C394 C388 1.379 . S
C394 C391 1.363 . S
C394 N392 1.356 . S
C395 C389 1.363 . S
C395 C390 1.379 . S
C395 N393 1.356 . S
N396 C388 1.356 . S
N396 H402 0.984 . S
N396 H403 0.984 . S
N397 C390 1.356 . S
N397 H400 0.984 . S
N397 H401 0.985 . S
H398 N393 0.984 . S
H399 N393 0.985 . S
H400 N397 0.984 . S
H401 N397 0.985 . S
H402 N396 0.984 . S
H403 N396 0.984 . S
H404 N392 0.984 . S
H405 N392 0.985 . S
C406 C407 1.363 1_556 S
C406 C412 1.379 . S
C406 N414 1.356 1_556 S
C407 C406 1.363 1_554 S
C407 C413 1.363 . S
C408 C409 1.363 1_554 S
C408 C413 1.379 . S
C408 N415 1.356 1_544 S
C409 C408 1.363 1_556 S
C409 C412 1.363 . S
N410 C412 1.356 . S
N410 H422 0.984 . S
N410 H423 0.985 . S
N411 C413 1.356 1_565 S
N411 H416 0.985 . S
N411 H417 0.985 . S
C412 C406 1.379 . S
C412 C409 1.363 . S
C412 N410 1.356 . S
C413 C407 1.363 . S
C413 C408 1.379 . S
C413 N411 1.356 1_545 S
N414 C406 1.356 1_554 S
N414 H420 0.984 1_554 S
N414 H421 0.984 . S
N415 C408 1.356 1_566 S
N415 H418 0.985 . S
N415 H419 0.985 1_556 S
H416 N411 0.985 . S
H417 N411 0.985 . S
H418 N415 0.985 . S
H419 N415 0.985 1_554 S
H420 N414 0.984 1_556 S
H421 N414 0.984 . S
H422 N410 0.984 . S
H423 N410 0.985 . S
C424 C425 1.363 . S
C424 C430 1.379 . S
C424 N432 1.356 . S
C425 C424 1.363 . S
C425 C431 1.363 . S
C426 C427 1.363 . S
C426 C431 1.379 . S
C426 N433 1.356 . S
C427 C426 1.363 . S
C427 C430 1.363 . S
N428 C430 1.356 . S
N428 H440 0.984 . S
N428 H441 0.985 . S
N429 C431 1.356 . S
N429 H434 0.984 . S
N429 H435 0.985 . S
C430 C424 1.379 . S
C430 C427 1.363 . S
C430 N428 1.356 . S
C431 C425 1.363 . S
C431 C426 1.379 . S
C431 N429 1.356 . S
N432 C424 1.356 . S
N432 H438 0.984 . S
N432 H439 0.984 . S
N433 C426 1.356 . S
N433 H436 0.984 . S
N433 H437 0.985 . S
H434 N429 0.984 . S
H435 N429 0.985 . S
H436 N433 0.984 . S
H437 N433 0.985 . S
H438 N432 0.984 . S
H439 N432 0.984 . S
H440 N428 0.984 . S
H441 N428 0.985 . S
C442 C443 1.363 . S
C442 C448 1.379 . S
C442 N450 1.356 . S
C443 C442 1.363 . S
C443 C449 1.363 . S
C444 C445 1.363 . S
C444 C449 1.379 . S
C444 N451 1.356 . S
C445 C444 1.363 . S
C445 C448 1.363 . S
N446 C448 1.356 . S
N446 H458 0.984 . S
N446 H459 0.985 . S
N447 C449 1.356 . S
N447 H452 0.984 . S
N447 H453 0.985 . S
C448 C442 1.379 . S
C448 C445 1.363 . S
C448 N446 1.356 . S
C449 C443 1.363 . S
C449 C444 1.379 . S
C449 N447 1.356 . S
N450 C442 1.356 . S
N450 H456 0.984 . S
N450 H457 0.984 . S
N451 C444 1.356 . S
N451 H454 0.984 . S
N451 H455 0.985 . S
H452 N447 0.984 . S
H453 N447 0.985 . S
H454 N451 0.984 . S
H455 N451 0.985 . S
H456 N450 0.984 . S
H457 N450 0.984 . S
H458 N446 0.984 . S
H459 N446 0.985 . S
C460 C461 1.363 . S
C460 C466 1.379 . S
C460 N468 1.356 . S
C461 C460 1.363 . S
C461 C467 1.363 . S
C462 C463 1.363 . S
C462 C467 1.379 . S
C462 N469 1.356 . S
C463 C462 1.363 . S
C463 C466 1.363 . S
N464 C466 1.356 . S
N464 H476 0.984 . S
N464 H477 0.985 . S
N465 C467 1.356 . S
N465 H470 0.984 . S
N465 H471 0.985 . S
C466 C460 1.379 . S
C466 C463 1.363 . S
C466 N464 1.356 . S
C467 C461 1.363 . S
C467 C462 1.379 . S
C467 N465 1.356 . S
N468 C460 1.356 . S
N468 H474 0.984 . S
N468 H475 0.984 . S
N469 C462 1.356 . S
N469 H472 0.984 . S
N469 H473 0.985 . S
H470 N465 0.984 . S
H471 N465 0.985 . S
H472 N469 0.984 . S
H473 N469 0.985 . S
H474 N468 0.984 . S
H475 N468 0.984 . S
H476 N464 0.984 . S
H477 N464 0.985 . S
C478 C479 1.363 . S
C478 C484 1.379 . S
C478 N486 1.356 . S
C479 C478 1.363 . S
C479 C485 1.363 . S
C480 C481 1.363 . S
C480 C485 1.379 . S
C480 N487 1.356 . S
C481 C480 1.363 . S
C481 C484 1.363 . S
N482 C484 1.356 . S
N482 H494 0.984 . S
N482 H495 0.985 . S
N483 C485 1.356 . S
N483 H488 0.984 . S
N483 H489 0.985 . S
C484 C478 1.379 . S
C484 C481 1.363 . S
C484 N482 1.356 . S
C485 C479 1.363 . S
C485 C480 1.379 . S
C485 N483 1.356 . S
N486 C478 1.356 . S
N486 H492 0.984 . S
N486 H493 0.984 . S
N487 C480 1.356 . S
N487 H490 0.984 . S
N487 H491 0.985 . S
H488 N483 0.984 . S
H489 N483 0.985 . S
H490 N487 0.984 . S
H491 N487 0.985 . S
H492 N486 0.984 . S
H493 N486 0.984 . S
H494 N482 0.984 . S
H495 N482 0.985 . S
C353 C29 1.031 . S
C355 C233 1.029 . S
C371 C108 1.031 . S
C373 C321 1.031 . S
C389 C49 1.031 . S
C391 C196 1.033 . S
C407 C145 1.031 . S
C409 C284 1.031 . S
C425 C137 1.748 . S
C427 C20 1.746 . S
C443 C117 1.748 . S
C445 C225 1.744 . S
C461 C313 1.748 . S
C463 C205 1.748 . S
C479 C293 1.748 . S
C481 C57 1.754 . S
