# Generated by pormake.
# Topology hjm, (4)-cn, num edge types: 1
# Building blocks:
#     Node 0, Type 0, BuildingBlock: KUFVIS_clean_sbu_0, # of connection points: 4
#     Node 1, Type 0, BuildingBlock: KUFVIS_clean_sbu_0, # of connection points: 4
#     Node 2, Type 0, BuildingBlock: KUFVIS_clean_sbu_0, # of connection points: 4
#     Node 3, Type 0, BuildingBlock: KUFVIS_clean_sbu_0, # of connection points: 4
#     Node 4, Type 0, BuildingBlock: KUFVIS_clean_sbu_0, # of connection points: 4
#     Node 5, Type 0, BuildingBlock: KUFVIS_clean_sbu_0, # of connection points: 4
#     Node 6, Type 0, BuildingBlock: KUFVIS_clean_sbu_0, # of connection points: 4
#     Node 7, Type 0, BuildingBlock: KUFVIS_clean_sbu_0, # of connection points: 4
#     Edge 8, Type (0, 0), BuildingBlock: MIFKUJ_clean_linker_0, # of connection points: 2
#     Edge 9, Type (0, 0), BuildingBlock: MIFKUJ_clean_linker_0, # of connection points: 2
#     Edge 10, Type (0, 0), BuildingBlock: MIFKUJ_clean_linker_0, # of connection points: 2
#     Edge 11, Type (0, 0), BuildingBlock: MIFKUJ_clean_linker_0, # of connection points: 2
#     Edge 12, Type (0, 0), BuildingBlock: MIFKUJ_clean_linker_0, # of connection points: 2
#     Edge 13, Type (0, 0), BuildingBlock: MIFKUJ_clean_linker_0, # of connection points: 2
#     Edge 14, Type (0, 0), BuildingBlock: MIFKUJ_clean_linker_0, # of connection points: 2
#     Edge 15, Type (0, 0), BuildingBlock: MIFKUJ_clean_linker_0, # of connection points: 2
#     Edge 16, Type (0, 0), BuildingBlock: MIFKUJ_clean_linker_0, # of connection points: 2
#     Edge 17, Type (0, 0), BuildingBlock: MIFKUJ_clean_linker_0, # of connection points: 2
#     Edge 18, Type (0, 0), BuildingBlock: MIFKUJ_clean_linker_0, # of connection points: 2
#     Edge 19, Type (0, 0), BuildingBlock: MIFKUJ_clean_linker_0, # of connection points: 2
#     Edge 20, Type (0, 0), BuildingBlock: MIFKUJ_clean_linker_0, # of connection points: 2
#     Edge 21, Type (0, 0), BuildingBlock: MIFKUJ_clean_linker_0, # of connection points: 2
#     Edge 22, Type (0, 0), BuildingBlock: MIFKUJ_clean_linker_0, # of connection points: 2
#     Edge 23, Type (0, 0), BuildingBlock: MIFKUJ_clean_linker_0, # of connection points: 2
# Relax obj value: 0.063
# Max RMSD: 0.110
# Mean RMSD: 0.110
data_MOF--net-hjm--node1-KUFVIS_clean_sbu_0--edge1-MIFKUJ_clean_linker_0
_symmetry_space_group_name_H-M    P1
_symmetry_Int_Tables_number       1
_symmetry_cell_setting            triclinic
loop_
_symmetry_equiv_pos_as_xyz
'x, y, z'
_cell_length_a     34.613303
_cell_length_b     29.916153
_cell_length_c     33.4984
_cell_angle_alpha  90.112409
_cell_angle_beta   57.572481
_cell_angle_gamma 90.194221
loop_
_atom_site_label
_atom_site_type_symbol
_atom_site_fract_x
_atom_site_fract_y
_atom_site_fract_z
_atom_type_partial_charge
Mn0 Mn 0.20232 0.26029 0.31904 0.0
Mn1 Mn 0.22743 0.36241 0.26765 0.0
C2 C 0.16974 0.32492 0.36431 0.0
C3 C 0.15994 0.19373 0.34734 0.0
C4 C 0.29348 0.30944 0.28205 0.0
O5 O 0.22666 0.24521 0.2493 0.0
O6 O 0.23747 0.31571 0.22159 0.0
C7 C 0.1559 0.36946 0.24507 0.0
N8 N 0.17632 0.38578 0.26733 0.0
C9 C 0.13255 0.45356 0.28819 0.0
C10 C 0.11147 0.43776 0.26495 0.0
C11 C 0.1227 0.39524 0.24391 0.0
C12 C 0.16441 0.42584 0.28935 0.0
H13 H 0.16529 0.3373 0.22777 0.0
C14 C 0.23672 0.27343 0.21628 0.0
O15 O 0.20199 0.19667 0.33593 0.0
O16 O 0.14259 0.22915 0.34041 0.0
N17 N 0.21828 0.4111 0.30891 0.0
C18 C 0.24355 0.42254 0.32761 0.0
C19 C 0.2353 0.46347 0.35146 0.0
C20 C 0.20223 0.49283 0.35451 0.0
C21 C 0.17772 0.48098 0.33365 0.0
C22 C 0.1866 0.43926 0.31139 0.0
H23 H 0.26982 0.40065 0.32436 0.0
O24 O 0.17331 0.28876 0.38347 0.0
O25 O 0.1857 0.32234 0.31953 0.0
O26 O 0.26645 0.27681 0.30332 0.0
O27 O 0.28271 0.34262 0.26617 0.0
C28 C 0.14607 0.5096 0.33256 0.0
C29 C 0.12419 0.49619 0.30908 0.0
H30 H 0.08683 0.45804 0.26276 0.0
H31 H 0.1065 0.38278 0.226 0.0
H32 H 0.25482 0.47263 0.36687 0.0
H33 H 0.19647 0.52467 0.37228 0.0
H34 H 0.13903 0.54237 0.34879 0.0
H35 H 0.10128 0.51914 0.30689 0.0
Mn36 Mn 0.83272 0.26898 0.18515 0.0
Mn37 Mn 0.80381 0.37166 0.23561 0.0
C38 C 0.86274 0.3326 0.13786 0.0
C39 C 0.87787 0.20431 0.15827 0.0
C40 C 0.73892 0.31225 0.22472 0.0
O41 O 0.80971 0.25638 0.25487 0.0
O42 O 0.79878 0.32743 0.28174 0.0
C43 C 0.87847 0.38843 0.25218 0.0
N44 N 0.85485 0.40067 0.23201 0.0
C45 C 0.89604 0.47027 0.20509 0.0
C46 C 0.92037 0.45868 0.2261 0.0
C47 C 0.91201 0.41735 0.24912 0.0
C48 C 0.8635 0.43988 0.20866 0.0
H49 H 0.87147 0.35706 0.2708 0.0
C50 C 0.79978 0.28525 0.2873 0.0
O51 O 0.83546 0.20429 0.17058 0.0
O52 O 0.89397 0.24171 0.16347 0.0
N53 N 0.80689 0.41832 0.19504 0.0
C54 C 0.77775 0.4263 0.1802 0.0
C55 C 0.78168 0.46631 0.15639 0.0
C56 C 0.81476 0.49818 0.14906 0.0
C57 C 0.84322 0.48999 0.16616 0.0
C58 C 0.83785 0.44942 0.18947 0.0
H59 H 0.75166 0.40239 0.18644 0.0
O60 O 0.85997 0.2949 0.12027 0.0
O61 O 0.8468 0.33217 0.18289 0.0
O62 O 0.76774 0.28161 0.20112 0.0
O63 O 0.74831 0.34603 0.24128 0.0
C64 C 0.87639 0.5207 0.16139 0.0
C65 C 0.90278 0.51085 0.18086 0.0
H66 H 0.94603 0.481 0.22417 0.0
H67 H 0.93146 0.40804 0.26443 0.0
H68 H 0.7591 0.47267 0.14396 0.0
H69 H 0.81764 0.52902 0.13076 0.0
H70 H 0.88162 0.55215 0.14315 0.0
H71 H 0.92801 0.53481 0.17722 0.0
Mn72 Mn 0.81916 0.75878 0.69469 0.0
Mn73 Mn 0.91053 0.75051 0.70587 0.0
C74 C 0.81353 0.77826 0.76492 0.0
C75 C 0.75138 0.73271 0.70255 0.0
C76 C 0.90281 0.82158 0.64608 0.0
O77 O 0.85984 0.71305 0.64351 0.0
O78 O 0.91811 0.70927 0.65581 0.0
C79 C 0.89858 0.65761 0.74137 0.0
N80 N 0.90263 0.70216 0.74692 0.0
C81 C 0.89844 0.68932 0.8201 0.0
C82 C 0.89434 0.64334 0.81508 0.0
C83 C 0.89411 0.62748 0.77572 0.0
C84 C 0.9027 0.71781 0.78481 0.0
H85 H 0.89846 0.64521 0.71113 0.0
C86 C 0.89806 0.69705 0.63457 0.0
O87 O 0.77629 0.76352 0.67238 0.0
O88 O 0.76677 0.71531 0.72688 0.0
N89 N 0.90575 0.78852 0.7544 0.0
C90 C 0.9054 0.83401 0.75634 0.0
C91 C 0.90293 0.85538 0.79502 0.0
C92 C 0.90098 0.82979 0.83118 0.0
C93 C 0.9014 0.78301 0.82839 0.0
C94 C 0.9041 0.76357 0.78889 0.0
H95 H 0.90678 0.85383 0.72869 0.0
O96 O 0.78648 0.79658 0.75387 0.0
O97 O 0.84432 0.75182 0.7334 0.0
O98 O 0.86339 0.80972 0.65547 0.0
O99 O 0.92325 0.80173 0.66327 0.0
C100 C 0.89828 0.75492 0.86372 0.0
C101 C 0.89681 0.70811 0.85959 0.0
H102 H 0.89056 0.61998 0.84163 0.0
H103 H 0.89015 0.59212 0.77214 0.0
H104 H 0.90244 0.8915 0.79702 0.0
H105 H 0.89875 0.84639 0.86113 0.0
H106 H 0.89621 0.76899 0.89461 0.0
H107 H 0.89347 0.68691 0.88747 0.0
Mn108 Mn 0.21941 0.76528 0.82361 0.0
Mn109 Mn 0.12227 0.74432 0.82573 0.0
C110 C 0.21586 0.77815 0.7568 0.0
C111 C 0.29031 0.74387 0.81119 0.0
C112 C 0.1329 0.82321 0.876 0.0
O113 O 0.18426 0.72244 0.87991 0.0
O114 O 0.12342 0.70785 0.8739 0.0
C115 C 0.14021 0.65046 0.793 0.0
N116 N 0.13044 0.69329 0.7878 0.0
C117 C 0.11918 0.67204 0.72553 0.0
C118 C 0.12787 0.62744 0.73106 0.0
C119 C 0.1394 0.61676 0.76423 0.0
C120 C 0.12181 0.70431 0.75425 0.0
H121 H 0.14756 0.64198 0.81959 0.0
C122 C 0.14664 0.70222 0.89295 0.0
O123 O 0.26685 0.77669 0.83894 0.0
O124 O 0.27227 0.72269 0.79114 0.0
N125 N 0.1166 0.77746 0.78038 0.0
C126 C 0.10792 0.82187 0.78046 0.0
C127 C 0.09805 0.83849 0.74771 0.0
C128 C 0.09595 0.80911 0.71615 0.0
C129 C 0.10378 0.76336 0.71763 0.0
C130 C 0.11436 0.74888 0.75038 0.0
H131 H 0.10832 0.84442 0.80545 0.0
O132 O 0.24581 0.79894 0.76215 0.0
O133 O 0.18881 0.75143 0.79088 0.0
O134 O 0.17487 0.81651 0.86126 0.0
O135 O 0.10999 0.79771 0.86553 0.0
C136 C 0.10014 0.73137 0.68889 0.0
C137 C 0.10716 0.6857 0.69337 0.0
H138 H 0.12571 0.60107 0.71019 0.0
H139 H 0.14641 0.58247 0.7685 0.0
H140 H 0.09145 0.87376 0.74723 0.0
H141 H 0.08769 0.82195 0.69139 0.0
H142 H 0.09126 0.74142 0.66375 0.0
H143 H 0.10288 0.66134 0.67211 0.0
Mn144 Mn 0.68684 0.74669 0.3316 0.0
Mn145 Mn 0.72036 0.84162 0.26633 0.0
C146 C 0.65654 0.81568 0.36707 0.0
C147 C 0.6405 0.68292 0.36502 0.0
C148 C 0.77991 0.79236 0.29261 0.0
O149 O 0.71427 0.72355 0.26386 0.0
O150 O 0.7305 0.78975 0.22545 0.0
C151 C 0.65322 0.84466 0.2375 0.0
N152 N 0.67223 0.86375 0.26001 0.0
C153 C 0.63034 0.9318 0.27284 0.0
C154 C 0.61038 0.91292 0.2497 0.0
C155 C 0.62153 0.86899 0.23238 0.0
C156 C 0.66078 0.90552 0.27796 0.0
H157 H 0.66261 0.81134 0.22305 0.0
C158 C 0.72856 0.74707 0.22656 0.0
O159 O 0.68162 0.68526 0.35654 0.0
O160 O 0.62627 0.71743 0.35292 0.0
N161 N 0.712 0.89478 0.30188 0.0
C162 C 0.73643 0.9091 0.32062 0.0
C163 C 0.7289 0.95222 0.34006 0.0
C164 C 0.69728 0.98058 0.33886 0.0
C165 C 0.67362 0.9656 0.31804 0.0
C166 C 0.68193 0.92202 0.30001 0.0
H167 H 0.76151 0.88784 0.32073 0.0
O168 O 0.65636 0.78229 0.39191 0.0
O169 O 0.6747 0.80778 0.32244 0.0
O170 O 0.7504 0.76271 0.31808 0.0
O171 O 0.77263 0.82256 0.27064 0.0
C172 C 0.64325 0.99272 0.31311 0.0
C173 C 0.62217 0.97602 0.28993 0.0
H174 H 0.58674 0.93192 0.24467 0.0
H175 H 0.60635 0.85423 0.21439 0.0
H176 H 0.74777 0.96373 0.35546 0.0
H177 H 0.69194 0.01399 0.35339 0.0
H178 H 0.63653 0.02675 0.3262 0.0
H179 H 0.60013 0.9977 0.28495 0.0
Mn180 Mn 0.31714 0.7748 0.19668 0.0
Mn181 Mn 0.2835 0.87261 0.25696 0.0
C182 C 0.33996 0.84285 0.15641 0.0
C183 C 0.36602 0.71327 0.16194 0.0
C184 C 0.22019 0.81346 0.24348 0.0
O185 O 0.29847 0.75616 0.26377 0.0
O186 O 0.28054 0.82424 0.29843 0.0
C187 C 0.36048 0.88533 0.27092 0.0
N188 N 0.33352 0.90112 0.25591 0.0
C189 C 0.37275 0.97197 0.23449 0.0
C190 C 0.40077 0.95662 0.24999 0.0
C191 C 0.39499 0.91294 0.2677 0.0
C192 C 0.33953 0.94271 0.23775 0.0
H193 H 0.35587 0.85185 0.28485 0.0
C194 C 0.28545 0.78195 0.29932 0.0
O195 O 0.32314 0.71159 0.17608 0.0
O196 O 0.38076 0.75065 0.16905 0.0
N197 N 0.28471 0.92258 0.221 0.0
C198 C 0.25778 0.93061 0.20353 0.0
C199 C 0.2597 0.97256 0.18392 0.0
C200 C 0.28909 1.00571 0.18272 0.0
C201 C 0.31732 0.99632 0.19979 0.0
C202 C 0.31332 0.95421 0.21968 0.0
H203 H 0.23448 0.90547 0.20525 0.0
O204 O 0.33863 0.80685 0.13541 0.0
O205 O 0.32725 0.83813 0.20033 0.0
O206 O 0.25009 0.78418 0.21821 0.0
O207 O 0.22895 0.84738 0.26042 0.0
C208 C 0.34919 0.02706 0.19792 0.0
C209 C 0.37726 0.01471 0.21479 0.0
H210 H 0.42733 0.97779 0.24772 0.0
H211 H 0.41727 0.90064 0.27863 0.0
H212 H 0.23804 0.97961 0.1705 0.0
H213 H 0.28921 0.03839 0.16924 0.0
H214 H 0.3529 0.06001 0.18295 0.0
H215 H 0.40244 0.0382 0.21208 0.0
Mn216 Mn 0.29447 0.24311 0.69817 0.0
Mn217 Mn 0.38723 0.22826 0.70568 0.0
C218 C 0.29046 0.25632 0.76897 0.0
C219 C 0.22625 0.22 0.70515 0.0
C220 C 0.37846 0.30511 0.65213 0.0
O221 O 0.33463 0.20053 0.6427 0.0
O222 O 0.39266 0.19047 0.65449 0.0
C223 C 0.3728 0.13403 0.7379 0.0
N224 N 0.37995 0.17766 0.74382 0.0
C225 C 0.38499 0.15965 0.81087 0.0
C226 C 0.37779 0.1145 0.80548 0.0
C227 C 0.37083 0.10178 0.76939 0.0
C228 C 0.38495 0.19048 0.77953 0.0
H229 H 0.36831 0.12409 0.7096 0.0
C230 C 0.3725 0.18248 0.63242 0.0
O231 O 0.25076 0.25251 0.67755 0.0
O232 O 0.24223 0.19935 0.72739 0.0
N233 N 0.38549 0.26305 0.75456 0.0
C234 C 0.38635 0.30833 0.75841 0.0
C235 C 0.3897 0.32696 0.79496 0.0
C236 C 0.3929 0.29884 0.82662 0.0
C237 C 0.39206 0.25234 0.82183 0.0
C238 C 0.38794 0.23574 0.78519 0.0
H239 H 0.3847 0.33003 0.73364 0.0
O240 O 0.26275 0.27671 0.76013 0.0
O241 O 0.32068 0.23099 0.7354 0.0
O242 O 0.33801 0.29582 0.66296 0.0
O243 O 0.39985 0.28155 0.66579 0.0
C244 C 0.39501 0.22177 0.85201 0.0
C245 C 0.39127 0.17543 0.84667 0.0
H246 H 0.37676 0.08943 0.82932 0.0
H247 H 0.36407 0.06715 0.76588 0.0
H248 H 0.39031 0.36289 0.79842 0.0
H249 H 0.39581 0.31331 0.85457 0.0
H250 H 0.39882 0.23355 0.88033 0.0
H251 H 0.39212 0.15232 0.87104 0.0
Mn252 Mn 0.70184 0.27369 0.82069 0.0
Mn253 Mn 0.61419 0.27706 0.80356 0.0
C254 C 0.71315 0.30115 0.74958 0.0
C255 C 0.76594 0.23966 0.81444 0.0
C256 C 0.62183 0.33904 0.87092 0.0
O257 O 0.65593 0.22788 0.86918 0.0
O258 O 0.60432 0.22825 0.84754 0.0
C259 C 0.62388 0.1906 0.75609 0.0
N260 N 0.62287 0.23608 0.75564 0.0
C261 C 0.62219 0.23617 0.68422 0.0
C262 C 0.62114 0.18936 0.68516 0.0
C263 C 0.62296 0.16644 0.72066 0.0
C264 C 0.62271 0.25843 0.7207 0.0
H265 H 0.62451 0.17289 0.78376 0.0
C266 C 0.62021 0.21232 0.87136 0.0
O267 O 0.74263 0.27018 0.84579 0.0
O268 O 0.75057 0.22694 0.78837 0.0
N269 N 0.62052 0.32296 0.7607 0.0
C270 C 0.61808 0.36814 0.76692 0.0
C271 C 0.61757 0.39593 0.73344 0.0
C272 C 0.61879 0.37699 0.69437 0.0
C273 C 0.62053 0.33039 0.68913 0.0
C274 C 0.62141 0.30441 0.72339 0.0
H275 H 0.61627 0.3829 0.7973 0.0
O276 O 0.73985 0.31327 0.76389 0.0
O277 O 0.67991 0.27503 0.77836 0.0
O278 O 0.66136 0.3264 0.86022 0.0
O279 O 0.60068 0.32123 0.85335 0.0
C280 C 0.62101 0.30869 0.6515 0.0
C281 C 0.62159 0.26159 0.64919 0.0
H282 H 0.61866 0.17069 0.65892 0.0
H283 H 0.62282 0.13027 0.72117 0.0
H284 H 0.61584 0.43185 0.73795 0.0
H285 H 0.61808 0.39852 0.6688 0.0
H286 H 0.62044 0.32789 0.62444 0.0
H287 H 0.62132 0.24525 0.62045 0.0
H288 H 0.07891 0.16605 0.35779 0.0
H289 H 0.03367 0.09954 0.3999 0.0
H290 H 0.13288 0.06476 0.43511 0.0
H291 H 0.17923 0.12904 0.39072 0.0
H292 H 0.10695 0.99259 0.41649 0.0
H293 H 0.01743 0.12056 0.52043 0.0
H294 H 0.97767 0.19248 0.53238 0.0
H295 H 0.8964 0.13334 0.48424 0.0
H296 H 0.93463 0.06108 0.47353 0.0
H297 H 0.98505 0.8599 0.62069 0.0
H298 H 0.02586 0.91983 0.56394 0.0
H299 H 0.91704 0.92898 0.5377 0.0
H300 H 0.87544 0.86924 0.59514 0.0
H301 H 0.94362 0.01015 0.54413 0.0
H302 H 0.02071 0.88034 0.4547 0.0
H303 H 0.06002 0.80771 0.43779 0.0
H304 H 0.166 0.86789 0.45012 0.0
H305 H 0.1272 0.94087 0.46729 0.0
C306 C 0.0911 0.14394 0.37427 0.0
C307 C 0.13259 0.15291 0.37099 0.0
C308 C 0.06499 0.10609 0.39881 0.0
C309 C 0.07905 0.07735 0.42198 0.0
C310 C 0.12098 0.08609 0.41778 0.0
C311 C 0.14751 0.12309 0.39237 0.0
C312 C 0.05042 0.03858 0.45135 0.0
C313 C 0.07137 0.99668 0.44469 0.0
C314 C 1.00339 0.04285 0.48705 0.0
C315 C 0.97882 0.08564 0.49615 0.0
C316 C 0.99073 0.12296 0.5129 0.0
C317 C 0.96836 0.16373 0.5196 0.0
C318 C 0.93426 0.1675 0.50942 0.0
C319 C 0.92227 0.1304 0.49283 0.0
C320 C 0.94405 0.08947 0.48672 0.0
C321 C 0.96961 0.87453 0.60296 0.0
C322 C 0.92686 0.85937 0.61256 0.0
C323 C 0.99325 0.90874 0.57016 0.0
C324 C 0.97505 0.92854 0.54572 0.0
C325 C 0.93199 0.91416 0.55583 0.0
C326 C 0.90821 0.87992 0.58877 0.0
C327 C 1.00073 0.96476 0.51044 0.0
C328 C 0.97918 1.00602 0.51587 0.0
C329 C 0.04714 0.95973 0.4733 0.0
C330 C 0.07081 0.91598 0.46271 0.0
C331 C 0.05226 0.87803 0.45408 0.0
C332 C 0.0745 0.83682 0.44433 0.0
C333 C 0.11538 0.83315 0.44304 0.0
C334 C 0.1343 0.87076 0.45116 0.0
C335 C 0.11226 0.91209 0.46078 0.0
H336 H 0.13237 0.80114 0.43575 0.0
H337 H 0.91724 0.19917 0.51423 0.0
H338 H 0.04135 0.83229 0.94033 0.0
H339 H 1.00109 0.89632 0.99076 0.0
H340 H 0.12923 0.96716 0.93188 0.0
H341 H 0.17007 0.90199 0.88281 0.0
H342 H 0.07863 0.98354 0.02232 0.0
H343 H 0.04962 0.98159 0.89701 0.0
H344 H 0.02342 0.94847 0.84799 0.0
H345 H 0.88688 0.93774 0.96988 0.0
H346 H 0.91253 0.96884 0.02011 0.0
H347 H 0.97186 0.19887 0.10512 0.0
H348 H 0.01823 0.13456 0.05884 0.0
H349 H 0.8955 0.05536 0.11335 0.0
H350 H 0.84926 0.11951 0.15847 0.0
H351 H 0.94624 0.04593 0.02204 0.0
H352 H 0.97376 0.0386 0.14808 0.0
H353 H 0.99729 0.06723 0.20101 0.0
H354 H 0.13201 0.09476 0.08117 0.0
H355 H 0.10915 0.06642 0.02749 0.0
C356 C 0.06105 0.86147 0.93809 0.0
C357 C 0.10894 0.86217 0.90714 0.0
C358 C 0.0379 0.89823 0.96689 0.0
C359 C 0.06185 0.93724 0.96443 0.0
C360 C 0.10984 0.93765 0.93433 0.0
C361 C 0.13318 0.90041 0.90617 0.0
C362 C 0.03676 0.97763 0.99277 0.0
C363 C 0.0501 0.99753 0.02166 0.0
C364 C 0.99872 0.99551 0.99295 0.0
C365 C 0.98317 0.9773 0.96246 0.0
C366 C 0.0141 0.97177 0.9135 0.0
C367 C 0.99935 0.95327 0.8855 0.0
C368 C 0.95355 0.94104 0.9058 0.0
C369 C 0.92239 0.94717 0.9542 0.0
C370 C 0.93705 0.96507 0.98249 0.0
C371 C 0.9549 0.1675 0.10783 0.0
C372 C 0.90686 0.16432 0.13546 0.0
C373 C 0.98144 0.13069 0.08134 0.0
C374 C 0.96045 0.08988 0.08252 0.0
C375 C 0.91259 0.08643 0.11146 0.0
C376 C 0.88615 0.12315 0.13749 0.0
C377 C 0.98765 0.05131 0.05206 0.0
C378 C 0.97485 0.03194 0.02255 0.0
C379 C 0.02579 0.03369 0.05164 0.0
C380 C 0.03962 0.05078 0.08377 0.0
C381 C 0.0083 0.05107 0.133 0.0
C382 C 0.02154 0.06714 0.16314 0.0
C383 C 0.06608 0.08293 0.14446 0.0
C384 C 0.09751 0.08253 0.09559 0.0
C385 C 0.08446 0.06637 0.0653 0.0
H386 H 0.07627 0.09539 0.16785 0.0
H387 H 0.9422 0.92684 0.88403 0.0
H388 H 0.47025 0.32256 0.60164 0.0
H389 H 0.51034 0.38699 0.55201 0.0
H390 H 0.38185 0.44284 0.58448 0.0
H391 H 0.34142 0.37713 0.63303 0.0
H392 H 0.44401 0.45645 0.49461 0.0
H393 H 0.44053 0.48129 0.63816 0.0
H394 H 0.45179 0.46129 0.70264 0.0
H395 H 0.59583 0.44476 0.60228 0.0
H396 H 0.58536 0.4642 0.53712 0.0
H397 H 0.54759 0.67334 0.40481 0.0
H398 H 0.49904 0.6104 0.45248 0.0
H399 H 0.61847 0.54052 0.42868 0.0
H400 H 0.66664 0.6033 0.38224 0.0
H401 H 0.55507 0.53808 0.51841 0.0
H402 H 0.55825 0.50982 0.37471 0.0
H403 H 0.54718 0.52831 0.30976 0.0
H404 H 0.40413 0.5509 0.41005 0.0
H405 H 0.41444 0.53306 0.47568 0.0
C406 C 0.45034 0.34852 0.59842 0.0
C407 C 0.40245 0.34473 0.62181 0.0
C408 C 0.4734 0.38559 0.57006 0.0
C409 C 0.44918 0.42054 0.56521 0.0
C410 C 0.4014 0.41654 0.58778 0.0
C411 C 0.37828 0.37897 0.61567 0.0
C412 C 0.47395 0.46106 0.53668 0.0
C413 C 0.46775 0.47474 0.50034 0.0
C414 C 0.50556 0.48473 0.54345 0.0
C415 C 0.51208 0.47393 0.58272 0.0
C416 C 0.47458 0.47323 0.62982 0.0
C417 C 0.48083 0.46201 0.6665 0.0
C418 C 0.52449 0.45169 0.65655 0.0
C419 C 0.56203 0.45277 0.60993 0.0
C420 C 0.55597 0.46397 0.57312 0.0
C421 C 0.56348 0.64429 0.4093 0.0
C422 C 0.611 0.64346 0.38981 0.0
C423 C 0.5357 0.60823 0.4365 0.0
C424 C 0.55498 0.57044 0.44425 0.0
C425 C 0.60258 0.56924 0.42361 0.0
C426 C 0.63018 0.60523 0.39684 0.0
C427 C 0.52593 0.53296 0.47563 0.0
C428 C 0.53117 0.51998 0.51278 0.0
C429 C 0.49351 0.51006 0.46954 0.0
C430 C 0.48726 0.5207 0.43013 0.0
C431 C 0.52451 0.51911 0.38294 0.0
C432 C 0.51836 0.52939 0.34601 0.0
C433 C 0.47505 0.54107 0.35582 0.0
C434 C 0.4377 0.54206 0.40255 0.0
C435 C 0.44367 0.53183 0.43961 0.0
H436 H 0.47042 0.54929 0.32721 0.0
H437 H 0.52925 0.44292 0.68497 0.0
H438 H 0.46021 0.71132 0.1075 0.0
H439 H 0.50896 0.6484 0.06013 0.0
H440 H 0.38903 0.56566 0.11155 0.0
H441 H 0.34049 0.628 0.15851 0.0
H442 H 0.45575 0.51965 0.11047 0.0
H443 H 0.43886 0.61386 1.00699 0.0
H444 H 0.4426 0.68241 0.96449 0.0
H445 H 0.58907 0.6838 0.89356 0.0
H446 H 0.58603 0.61584 0.93667 0.0
H447 H 0.53033 0.3561 0.92708 0.0
H448 H 0.49284 0.41989 0.97974 0.0
H449 H 0.62426 0.47241 0.94229 0.0
H450 H 0.6622 0.40787 0.89017 0.0
H451 H 0.55793 0.53457 0.93631 0.0
H452 H 0.56962 0.43592 0.04415 0.0
H453 H 0.56009 0.36369 0.08393 0.0
H454 H 0.41561 0.36672 0.14075 0.0
H455 H 0.42428 0.43898 0.10135 0.0
C456 C 0.44437 0.67954 0.10908 0.0
C457 C 0.39647 0.67471 0.13666 0.0
C458 C 0.47221 0.64369 0.0818 0.0
C459 C 0.45265 0.60233 0.08193 0.0
C460 C 0.40498 0.59714 0.1108 0.0
C461 C 0.37723 0.63294 0.13757 0.0
C462 C 0.48128 0.5646 0.05124 0.0
C463 C 0.47802 0.52306 0.07239 0.0
C464 C 0.51047 0.56884 1.00142 0.0
C465 C 0.5122 0.61029 0.97608 0.0
C466 C 0.47183 0.62922 0.98308 0.0
C467 C 0.47381 0.66794 0.95875 0.0
C468 C 0.51602 0.68765 0.92658 0.0
C469 C 0.55635 0.66869 0.91873 0.0
C470 C 0.5545 0.63015 0.94325 0.0
C471 C 0.55133 0.38103 0.93021 0.0
C472 C 0.5993 0.37684 0.90444 0.0
C473 C 0.52982 0.41743 0.96039 0.0
C474 C 0.55577 0.45083 0.96492 0.0
C475 C 0.60364 0.44692 0.93929 0.0
C476 C 0.62521 0.40995 0.90974 0.0
C477 C 0.53253 0.49018 0.99571 0.0
C478 C 0.53641 0.53176 0.97451 0.0
C479 C 0.50307 0.48583 0.04528 0.0
C480 C 0.49767 0.44267 0.06951 0.0
C481 C 0.53586 0.42106 0.06495 0.0
C482 C 0.53058 0.38019 0.08756 0.0
C483 C 0.48727 0.36061 0.11482 0.0
C484 C 0.44911 0.38198 0.11974 0.0
C485 C 0.45417 0.42295 0.0974 0.0
H486 H 0.48328 0.32892 0.1322 0.0
H487 H 0.51749 0.71742 0.90749 0.0
H488 H 0.95367 0.32552 0.10143 0.0
H489 H 0.0138 0.37902 0.05122 0.0
H490 H 0.91045 0.46736 0.06019 0.0
H491 H 0.85451 0.40821 0.09782 0.0
H492 H 0.97031 0.48921 0.99237 0.0
H493 H 0.98516 0.45456 0.12957 0.0
H494 H 1.00707 0.41035 0.17696 0.0
H495 H 0.14207 0.39336 0.05446 0.0
H496 H 0.12041 0.4358 1.00642 0.0
H497 H 0.0637 0.69868 0.97374 0.0
H498 H 0.02381 0.63002 0.01488 0.0
H499 H 0.14866 0.55548 0.92967 0.0
H500 H 0.18895 0.62465 0.88909 0.0
H501 H 0.09328 0.522 0.02162 0.0
H502 H 0.07483 0.56532 0.89126 0.0
H503 H 0.05175 0.61624 0.84961 0.0
H504 H 0.91739 0.6273 0.97438 0.0
H505 H 0.93911 0.57602 0.01668 0.0
C506 C 0.94446 0.35639 0.09171 0.0
C507 C 0.89876 0.36464 0.10647 0.0
C508 C 0.97877 0.38776 0.06403 0.0
C509 C 0.96744 0.42973 0.05402 0.0
C510 C 0.92161 0.43621 0.06708 0.0
C511 C 0.88852 0.40301 0.09054 0.0
C512 C 1.00195 0.46695 0.02984 0.0
C513 C 0.99578 0.49642 1.0009 0.0
C514 C 0.03899 0.47591 0.03613 0.0
C515 C 0.05071 0.44772 0.0645 0.0
C516 C 0.01914 0.44079 0.11293 0.0
C517 C 0.03151 0.41601 0.13976 0.0
C518 C 0.07575 0.39884 0.11869 0.0
C519 C 0.10768 0.40631 0.07072 0.0
C520 C 0.09523 0.4304 0.04362 0.0
C521 C 0.08309 0.66798 0.96554 0.0
C522 C 0.12938 0.66681 0.92874 0.0
C523 C 0.06017 0.62871 0.98847 0.0
C524 C 0.08301 0.58756 0.97426 0.0
C525 C 0.13039 0.58691 0.94084 0.0
C526 C 0.15352 0.62645 0.91813 0.0
C527 C 0.05653 0.54529 0.99078 0.0
C528 C 0.06593 0.51456 0.01583 0.0
C529 C 0.02121 0.53585 0.98283 0.0
C530 C 0.0087 0.56706 0.95718 0.0
C531 C 0.04046 0.5788 0.90986 0.0
C532 C 0.02763 0.60767 0.88614 0.0
C533 C 0.98341 0.62524 0.90938 0.0
C534 C 0.95168 0.61375 0.9564 0.0
C535 C 0.96413 0.58463 0.9802 0.0
H536 H 0.97368 0.6476 0.89088 0.0
H537 H 0.08533 0.37995 0.13959 0.0
H538 H 0.08493 0.33248 0.38101 0.0
H539 H 0.0256 0.38435 0.4331 0.0
H540 H 0.12051 0.45015 0.46063 0.0
H541 H 0.17606 0.39142 0.41671 0.0
H542 H 0.05243 0.45597 0.53222 0.0
H543 H 0.03671 0.51783 0.38537 0.0
H544 H 0.0186 0.49941 0.32508 0.0
H545 H 0.92685 0.39608 0.41519 0.0
H546 H 0.94405 0.41485 0.47578 0.0
H547 H 0.98848 0.67772 0.58017 0.0
H548 H 0.02317 0.60812 0.53854 0.0
H549 H 0.89082 0.55948 0.5743 0.0
H550 H 0.85576 0.63 0.61563 0.0
H551 H 0.95534 0.53429 0.48733 0.0
H552 H 0.9353 0.52134 0.63825 0.0
H553 H 0.93857 0.54486 0.70687 0.0
H554 H 0.08497 0.55502 0.61889 0.0
H555 H 0.08261 0.53111 0.54966 0.0
C556 C 0.09272 0.35817 0.39854 0.0
C557 C 0.13545 0.35896 0.39383 0.0
C558 C 0.05887 0.38915 0.42749 0.0
C559 C 0.06785 0.42377 0.45 0.0
C560 C 0.11136 0.42422 0.44455 0.0
C561 C 0.14389 0.39112 0.41852 0.0
C562 C 0.03265 0.45838 0.48095 0.0
C563 C 0.03232 0.47337 0.5211 0.0
C564 C 1.00182 0.47937 0.47082 0.0
C565 C 0.99468 0.4652 0.43304 0.0
C566 C 0.01429 0.48998 0.39108 0.0
C567 C 1.00351 0.48004 0.35733 0.0
C568 C 0.97266 0.44565 0.36557 0.0
C569 C 0.9515 0.42207 0.40822 0.0
C570 C 0.9616 0.43252 0.44233 0.0
C571 C 0.96681 0.65254 0.5785 0.0
C572 C 0.91935 0.65919 0.60138 0.0
C573 C 0.98662 0.61257 0.5551 0.0
C574 C 0.95939 0.57801 0.55464 0.0
C575 C 0.91238 0.58553 0.57476 0.0
C576 C 0.89246 0.62593 0.59798 0.0
C577 C 0.98049 0.53412 0.53355 0.0
C578 C 0.97676 0.51702 0.49693 0.0
C579 C 1.00698 0.51076 0.54722 0.0
C580 C 0.00872 0.52469 0.58877 0.0
C581 C 0.96817 0.52877 0.6335 0.0
C582 C 0.96987 0.54216 0.67252 0.0
C583 C 0.0119 0.55178 0.66725 0.0
C584 C 0.05241 0.54762 0.62294 0.0
C585 C 0.05094 0.53393 0.58383 0.0
H586 H 0.01309 0.5623 0.69751 0.0
H587 H 0.96452 0.43788 0.33931 0.0
H588 H 0.62367 0.17422 0.94515 0.0
H589 H 0.57814 0.1101 0.99438 0.0
H590 H 0.51825 0.09564 0.91048 0.0
H591 H 0.56106 0.15921 0.86349 0.0
H592 H 0.45476 0.09619 0.99739 0.0
H593 H 0.59992 0.02169 0.9044 0.0
H594 H 0.68168 0.00882 0.87318 0.0
H595 H 0.65126 0.99082 0.01439 0.0
H596 H 0.56935 1.00417 0.0465 0.0
H597 H 0.33916 0.88217 0.08306 0.0
H598 H 0.38752 0.94382 0.03338 0.0
H599 H 0.44666 0.955 0.11819 0.0
H600 H 0.40346 0.88931 0.16289 0.0
H601 H 0.50994 0.95851 0.03229 0.0
H602 H 0.37821 0.08861 0.10252 0.0
H603 H 0.30293 0.11562 0.1213 0.0
H604 H 0.31092 0.02996 0.01422 0.0
H605 H 0.38762 1.00514 0.99266 0.0
C606 C 0.60091 0.15711 0.93726 0.0
C607 C 0.59586 0.17235 0.90058 0.0
C608 C 0.57513 0.12034 0.96517 0.0
C609 C 0.54467 0.09799 0.95614 0.0
C610 C 0.5411 0.1124 0.91853 0.0
C611 C 0.56591 0.14906 0.8915 0.0
C612 C 0.51372 0.06153 0.98697 0.0
C613 C 0.4669 0.06595 1.00481 0.0
C614 C 0.52937 0.02226 0.99713 0.0
C615 C 0.5786 0.01446 0.97787 0.0
C616 C 0.61073 0.01541 0.92882 0.0
C617 C 0.65708 0.00793 0.91096 0.0
C618 C 0.67168 0.99915 0.94179 0.0
C619 C 0.63992 0.99772 0.99055 0.0
C620 C 0.59353 1.00521 0.0086 0.0
C621 C 0.36208 0.89838 0.09132 0.0
C622 C 0.3657 0.88264 0.12859 0.0
C623 C 0.38896 0.93457 0.06361 0.0
C624 C 0.41905 0.95645 0.07344 0.0
C625 C 0.42301 0.93984 0.11031 0.0
C626 C 0.39766 0.90269 0.13655 0.0
C627 C 0.45045 0.99302 0.04269 0.0
C628 C 0.49757 0.98879 0.02508 0.0
C629 C 0.43521 0.03246 0.03188 0.0
C630 C 0.38691 0.04207 0.04875 0.0
C631 C 0.3632 0.07453 0.08404 0.0
C632 C 0.32082 0.09036 0.09432 0.0
C633 C 0.30147 0.07347 0.06999 0.0
C634 C 0.32524 0.04193 0.03413 0.0
C635 C 0.36828 0.02712 0.02274 0.0
H636 H 0.26854 0.08552 0.07819 0.0
H637 H 0.70758 0.99334 0.92789 0.0
H638 H 0.57345 0.82269 0.37925 0.0
H639 H 0.51496 0.87783 0.4251 0.0
H640 H 0.60981 0.94997 0.44831 0.0
H641 H 0.66402 0.88875 0.41154 0.0
H642 H 0.54188 0.95827 0.51915 0.0
H643 H 0.53463 1.00367 0.36681 0.0
H644 H 0.52149 0.98009 0.30406 0.0
H645 H 0.42002 0.88595 0.39959 0.0
H646 H 0.4313 0.91052 0.46294 0.0
H647 H 0.46272 0.17455 0.56751 0.0
H648 H 0.50228 0.10864 0.52037 0.0
H649 H 0.37249 0.04522 0.56786 0.0
H650 H 0.33239 0.11204 0.61509 0.0
H651 H 0.44043 0.02483 0.47307 0.0
H652 H 0.42254 0.01458 0.62501 0.0
H653 H 0.42534 0.04103 0.69302 0.0
H654 H 0.56897 0.06856 0.60193 0.0
H655 H 0.56726 0.04121 0.53328 0.0
C656 C 0.58148 0.8506 0.39428 0.0
C657 C 0.6237 0.85242 0.39068 0.0
C658 C 0.54817 0.88326 0.41958 0.0
C659 C 0.55735 0.92033 0.43924 0.0
C660 C 0.60058 0.92212 0.43434 0.0
C661 C 0.63238 0.88758 0.4123 0.0
C662 C 0.522 0.95559 0.46795 0.0
C663 C 0.52096 0.97313 0.50759 0.0
C664 C 0.4906 0.97358 0.45698 0.0
C665 C 0.4858 0.95699 0.4184 0.0
C666 C 0.51044 0.97717 0.37373 0.0
C667 C 0.50279 0.96415 0.33838 0.0
C668 C 0.47058 0.93092 0.34747 0.0
C669 C 0.44516 0.91145 0.39231 0.0
C670 C 0.45191 0.92517 0.42802 0.0
C671 C 0.44257 0.14708 0.56685 0.0
C672 C 0.39453 0.14827 0.59498 0.0
C673 C 0.4652 0.10931 0.54021 0.0
C674 C 0.44033 0.07162 0.5416 0.0
C675 C 0.39228 0.0739 0.56662 0.0
C676 C 0.36943 0.11213 0.59323 0.0
C677 C 0.46503 0.02929 0.51969 0.0
C678 C 0.46283 0.01012 0.48287 0.0
C679 C 0.4934 0.00959 0.53312 0.0
C680 C 0.49466 0.02621 0.57409 0.0
C681 C 0.45465 0.0265 0.61948 0.0
C682 C 0.45606 0.04162 0.65815 0.0
C683 C 0.49714 0.05699 0.65185 0.0
C684 C 0.53712 0.05678 0.60679 0.0
C685 C 0.53602 0.0412 0.56802 0.0
H686 H 0.49803 0.06884 0.6819 0.0
H687 H 0.46491 0.92066 0.32 0.0
H688 H 0.21826 0.80762 0.38615 0.0
H689 H 0.21304 0.79414 0.46055 0.0
H690 H 0.32846 0.70487 0.38971 0.0
H691 H 0.33346 0.71807 0.31438 0.0
H692 H 0.25751 0.6789 0.48569 0.0
H693 H 0.3539 0.80252 0.40279 0.0
H694 H 0.37519 0.87143 0.35581 0.0
H695 H 0.25884 0.93875 0.47017 0.0
H696 H 0.23649 0.86975 0.51795 0.0
H697 H 0.25663 0.70681 0.701 0.0
H698 H 0.27834 0.69599 0.61976 0.0
H699 H 0.21177 0.82012 0.62584 0.0
H700 H 0.19841 0.83457 0.70402 0.0
H701 H 0.27822 0.82008 0.54989 0.0
H702 H 0.17119 0.67205 0.59283 0.0
H703 H 0.15107 0.5953 0.62517 0.0
H704 H 0.2909 0.57165 0.58054 0.0
H705 H 0.3118 0.64759 0.54642 0.0
C706 C 0.24169 0.78408 0.38665 0.0
C707 C 0.27638 0.76406 0.34459 0.0
C708 C 0.23884 0.77659 0.42911 0.0
C709 C 0.271 0.74933 0.43036 0.0
C710 C 0.3035 0.72624 0.38927 0.0
C711 C 0.30618 0.73357 0.34643 0.0
C712 C 0.27253 0.74896 0.47374 0.0
C713 C 0.26226 0.70961 0.49991 0.0
C714 C 0.27951 0.78886 0.49164 0.0
C715 C 0.29342 0.83089 0.46381 0.0
C716 C 0.33267 0.83192 0.41785 0.0
C717 C 0.34483 0.871 0.39099 0.0
C718 C 0.31827 0.90949 0.40976 0.0
C719 C 0.27943 0.90893 0.45563 0.0
C720 C 0.26701 0.86983 0.48267 0.0
C721 C 0.2467 0.73165 0.68465 0.0
C722 C 0.22489 0.77107 0.70897 0.0
C723 C 0.25801 0.72478 0.63826 0.0
C724 C 0.2453 0.75593 0.61594 0.0
C725 C 0.2225 0.79515 0.64127 0.0
C726 C 0.21403 0.80335 0.68647 0.0
C727 C 0.25836 0.75054 0.56548 0.0
C728 C 0.27265 0.78909 0.53683 0.0
C729 C 0.25527 0.70964 0.54533 0.0
C730 C 0.24228 0.66633 0.57022 0.0
C731 C 0.19716 0.65084 0.59147 0.0
C732 C 0.18582 0.60731 0.6093 0.0
C733 C 0.2194 0.57905 0.60617 0.0
C734 C 0.26469 0.59385 0.5839 0.0
C735 C 0.27632 0.637 0.56504 0.0
H736 H 0.21048 0.54546 0.62024 0.0
H737 H 0.32789 0.93974 0.38882 0.0
H738 H 0.80708 0.70096 0.80835 0.0
H739 H 0.79188 0.68943 0.88692 0.0
H740 H 0.76412 0.83041 0.9164 0.0
H741 H 0.78501 0.84256 0.83442 0.0
H742 H 0.80712 0.80836 0.95223 0.0
H743 H 0.67732 0.73505 0.96344 0.0
H744 H 0.6382 0.68287 0.93916 0.0
H745 H 0.70832 0.57221 0.95391 0.0
H746 H 0.74821 0.6237 0.9777 0.0
H747 H 0.6663 0.71896 0.20758 0.0
H748 H 0.67851 0.718 0.1287 0.0
H749 H 0.82419 0.73074 0.06668 0.0
H750 H 0.81137 0.73459 0.14599 0.0
H751 H 0.71787 0.67797 0.05007 0.0
H752 H 0.87136 0.80005 0.97448 0.0
H753 H 0.90342 0.856 1.0032 0.0
H754 H 0.76971 0.87865 0.12651 0.0
H755 H 0.73685 0.82304 0.09833 0.0
C756 C 0.79833 0.72966 0.83139 0.0
C757 C 0.79899 0.77287 0.81485 0.0
C758 C 0.78839 0.72286 0.87701 0.0
C759 C 0.77573 0.75875 0.90863 0.0
C760 C 0.77399 0.80199 0.89284 0.0
C761 C 0.78555 0.80902 0.84621 0.0
C762 C 0.76677 0.75112 0.95699 0.0
C763 C 0.78719 0.78003 0.97364 0.0
C764 C 0.74066 0.71424 0.9856 0.0
C765 C 0.7159 0.68329 0.97213 0.0
C766 C 0.68445 0.69961 0.96139 0.0
C767 C 0.66216 0.67013 0.9477 0.0
C768 C 0.67088 0.62426 0.9449 0.0
C769 C 0.70163 0.60774 0.95607 0.0
C770 C 0.72401 0.63703 0.96974 0.0
C771 C 0.70105 0.71941 0.177 0.0
C772 C 0.73798 0.72624 0.18261 0.0
C773 C 0.70804 0.71941 0.13186 0.0
C774 C 0.75216 0.72581 0.09165 0.0
C775 C 0.78967 0.72718 0.09717 0.0
C776 C 0.78252 0.72834 0.1424 0.0
C777 C 0.75811 0.73514 0.04498 0.0
C778 C 0.73735 0.7065 0.02867 0.0
C779 C 0.78245 0.7731 0.01752 0.0
C780 C 0.80176 0.80712 0.03442 0.0
C781 C 0.84879 0.81713 1.00758 0.0
C782 C 0.86711 0.84873 0.02381 0.0
C783 C 0.83863 0.87088 0.06663 0.0
C784 C 0.79176 0.86145 0.09335 0.0
C785 C 0.77328 0.82984 0.0773 0.0
H786 H 0.8529 0.89538 0.07908 0.0
H787 H 0.65395 0.6014 0.93403 0.0
H788 H 0.73911 0.32197 0.37182 0.0
H789 H 0.73673 0.31374 0.44537 0.0
H790 H 0.83948 0.21077 0.38199 0.0
H791 H 0.84201 0.21893 0.30734 0.0
H792 H 0.77183 0.19496 0.47888 0.0
H793 H 0.87859 0.30516 0.38641 0.0
H794 H 0.9111 0.36927 0.33259 0.0
H795 H 0.80466 0.45387 0.43734 0.0
H796 H 0.77144 0.38981 0.49213 0.0
H797 H 0.76585 0.23364 0.69492 0.0
H798 H 0.79729 0.22166 0.61141 0.0
H799 H 0.73162 0.34234 0.60686 0.0
H800 H 0.70829 0.3585 0.68836 0.0
H801 H 0.80339 0.33797 0.53146 0.0
H802 H 0.69084 0.18641 0.58285 0.0
H803 H 0.6743 0.11115 0.61947 0.0
H804 H 0.81426 0.09872 0.57895 0.0
H805 H 0.83127 0.17331 0.54155 0.0
C806 C 0.76049 0.29679 0.37376 0.0
C807 C 0.791 0.2713 0.33377 0.0
C808 C 0.75925 0.29231 0.41576 0.0
C809 C 0.78869 0.26244 0.41876 0.0
C810 C 0.81672 0.23426 0.38019 0.0
C811 C 0.81791 0.2387 0.33776 0.0
C812 C 0.7916 0.26369 0.46136 0.0
C813 C 0.77884 0.22611 0.49051 0.0
C814 C 0.80273 0.30372 0.47548 0.0
C815 C 0.82232 0.34261 0.44315 0.0
C816 C 0.86184 0.33733 0.39783 0.0
C817 C 0.88035 0.3737 0.36709 0.0
C818 C 0.85969 0.41566 0.38121 0.0
C819 C 0.82056 0.42132 0.42636 0.0
C820 C 0.80195 0.385 0.45736 0.0
C821 C 0.7585 0.25767 0.67571 0.0
C822 C 0.73291 0.29611 0.69844 0.0
C823 C 0.77522 0.2499 0.62799 0.0
C824 C 0.76435 0.27895 0.60251 0.0
C825 C 0.74012 0.31848 0.62525 0.0
C826 C 0.72597 0.32762 0.67221 0.0
C827 C 0.779 0.27024 0.55212 0.0
C828 C 0.7958 0.30667 0.52063 0.0
C829 C 0.77326 0.22849 0.53526 0.0
C830 C 0.76166 0.18623 0.56204 0.0
C831 C 0.71756 0.16802 0.58317 0.0
C832 C 0.70823 0.12537 0.60349 0.0
C833 C 0.74288 0.10067 0.60259 0.0
C834 C 0.78718 0.11812 0.58042 0.0
C835 C 0.7967 0.16036 0.55944 0.0
H836 H 0.73555 0.06775 0.61843 0.0
H837 H 0.87418 0.44384 0.35733 0.0
H838 H 0.24046 0.18729 0.18228 0.0
H839 H 0.24289 0.16736 0.1093 0.0
H840 H 0.24628 0.30709 0.07666 0.0
H841 H 0.24587 0.32725 0.14652 0.0
H842 H 0.17454 0.24899 0.07662 0.0
H843 H 0.33567 0.26526 0.02158 0.0
H844 H 0.40891 0.24697 0.0133 0.0
H845 H 0.40386 0.11495 0.96579 0.0
H846 H 0.32964 0.13202 0.97537 0.0
H847 H 0.26273 0.31885 0.83944 0.0
H848 H 0.24258 0.30527 0.92102 0.0
H849 H 0.2684 0.16451 0.89058 0.0
H850 H 0.28647 0.17774 0.81038 0.0
H851 H 0.3144 0.19963 0.92886 0.0
H852 H 0.16595 0.19083 0.9633 0.0
H853 H 0.09468 0.20855 0.96701 0.0
H854 H 0.07742 0.32632 0.04814 0.0
H855 H 0.14936 0.30999 0.04406 0.0
C856 C 0.2424 0.21362 0.15913 0.0
C857 C 0.24285 0.25886 0.17069 0.0
C858 C 0.24351 0.20221 0.11771 0.0
C859 C 0.24413 0.23591 0.08814 0.0
C860 C 0.24527 0.28066 0.09932 0.0
C861 C 0.24531 0.29199 0.13946 0.0
C862 C 0.24391 0.22612 0.04498 0.0
C863 C 0.2052 0.23838 0.04406 0.0
C864 C 0.28341 0.21082 1.0031 0.0
C865 C 0.32632 0.19948 1.00065 0.0
C866 C 0.3494 0.23189 0.01077 0.0
C867 C 0.39128 0.22184 1.00554 0.0
C868 C 0.41085 0.17971 0.98944 0.0
C869 C 0.38847 0.14745 0.97871 0.0
C870 C 0.34638 0.15724 0.98423 0.0
C871 C 0.26377 0.2851 0.85047 0.0
C872 C 0.27795 0.24959 0.81821 0.0
C873 C 0.252 0.27727 0.897 0.0
C874 C 0.25397 0.2338 0.91186 0.0
C875 C 0.26674 0.19826 0.87993 0.0
C876 C 0.27779 0.20601 0.8339 0.0
C877 C 0.24682 0.22609 0.95917 0.0
C878 C 0.28378 0.21005 0.96108 0.0
C879 C 0.20599 0.23828 1.00161 0.0
C880 C 0.16361 0.24953 1.00271 0.0
C881 C 0.14751 0.221 0.98121 0.0
C882 C 0.10687 0.23072 0.98353 0.0
C883 C 0.08174 0.26875 1.00753 0.0
C884 C 0.09719 0.29712 0.02929 0.0
C885 C 0.13791 0.28763 0.02698 0.0
H886 H 0.05017 0.27613 0.0095 0.0
H887 H 0.4436 0.17235 0.9848 0.0
H888 H 0.32563 0.25092 0.32053 0.0
H889 H 0.39984 0.25153 0.31271 0.0
H890 H 0.44018 0.36684 0.2215 0.0
H891 H 0.36528 0.36753 0.23073 0.0
H892 H 0.48143 0.23915 0.246 0.0
H893 H 0.51634 0.43025 0.22734 0.0
H894 H 0.47322 0.50093 0.25528 0.0
H895 H 0.3634 0.43351 0.37654 0.0
H896 H 0.40602 0.36254 0.34953 0.0
H897 H 0.7144 0.27216 0.16799 0.0
H898 H 0.6391 0.27152 0.17795 0.0
H899 H 0.58318 0.34421 0.30907 0.0
H900 H 0.65906 0.34719 0.29763 0.0
H901 H 0.54812 0.37696 0.26774 0.0
H902 H 0.56528 0.22539 0.30015 0.0
H903 H 0.60198 0.15157 0.28607 0.0
H904 H 0.5972 0.13469 0.16146 0.0
H905 H 0.56094 0.20865 0.17451 0.0
C906 C 0.3502 0.27651 0.29882 0.0
C907 C 0.33927 0.30919 0.27627 0.0
C908 C 0.39284 0.27673 0.29425 0.0
C909 C 0.4258 0.30944 0.26682 0.0
C910 C 0.41525 0.34169 0.24362 0.0
C911 C 0.37237 0.34185 0.24865 0.0
C912 C 0.47116 0.30945 0.26236 0.0
C913 C 0.49594 0.26933 0.25081 0.0
C914 C 0.49001 0.34847 0.26956 0.0
C915 C 0.46419 0.39103 0.28613 0.0
C916 C 0.48303 0.43055 0.26001 0.0
C917 C 0.45865 0.47063 0.27564 0.0
C918 C 0.41551 0.47166 0.31755 0.0
C919 C 0.39672 0.43263 0.34398 0.0
C920 C 0.42093 0.39245 0.32847 0.0
C921 C 0.68595 0.28774 0.1991 0.0
C922 C 0.69266 0.30953 0.23215 0.0
C923 C 0.64273 0.28718 0.20493 0.0
C924 C 0.60485 0.30713 0.24476 0.0
C925 C 0.6116 0.32863 0.27795 0.0
C926 C 0.65503 0.33015 0.27152 0.0
C927 C 0.55851 0.30659 0.25138 0.0
C928 C 0.53364 0.34671 0.26303 0.0
C929 C 0.53875 0.26714 0.24619 0.0
C930 C 0.5608 0.22275 0.23807 0.0
C931 C 0.57237 0.20608 0.26956 0.0
C932 C 0.59303 0.16418 0.2618 0.0
C933 C 0.60202 0.13851 0.22284 0.0
C934 C 0.59027 0.15464 0.1916 0.0
C935 C 0.56963 0.19652 0.19918 0.0
H936 H 0.61798 0.10607 0.21691 0.0
H937 H 0.39674 0.50275 0.32965 0.0
H938 H 0.72431 0.73315 0.63976 0.0
H939 H 0.64662 0.72483 0.65673 0.0
H940 H 0.59616 0.70397 0.80441 0.0
H941 H 0.67454 0.70898 0.78662 0.0
H942 H 0.5467 0.65742 0.78744 0.0
H943 H 0.59254 0.81022 0.75289 0.0
H944 H 0.64063 0.87469 0.70738 0.0
H945 H 0.62116 0.84362 0.59411 0.0
H946 H 0.57342 0.77859 0.63871 0.0
H947 H 0.32547 0.7642 0.86506 0.0
H948 H 0.4036 0.75159 0.84596 0.0
H949 H 0.43845 0.68844 0.71506 0.0
H950 H 0.35982 0.69964 0.73461 0.0
H951 H 0.49398 0.77487 0.72311 0.0
H952 H 0.44206 0.62028 0.76845 0.0
H953 H 0.38941 0.56281 0.82381 0.0
H954 H 0.41534 0.60794 0.92914 0.0
H955 H 0.46752 0.66622 0.87452 0.0
C956 C 0.69669 0.72596 0.67567 0.0
C957 C 0.70544 0.72184 0.71187 0.0
C958 C 0.65209 0.72173 0.68554 0.0
C959 C 0.61484 0.7153 0.73223 0.0
C960 C 0.62394 0.70921 0.76811 0.0
C961 C 0.66883 0.71204 0.75794 0.0
C962 C 0.56658 0.7165 0.74379 0.0
C963 C 0.53538 0.68336 0.77344 0.0
C964 C 0.55102 0.75027 0.72592 0.0
C965 C 0.57983 0.78925 0.69892 0.0
C966 C 0.5988 0.81695 0.71813 0.0
C967 C 0.62595 0.85362 0.69252 0.0
C968 C 0.63406 0.86317 0.64782 0.0
C969 C 0.61493 0.83613 0.62869 0.0
C970 C 0.5878 0.79938 0.65413 0.0
C971 C 0.34956 0.74704 0.83252 0.0
C972 C 0.33646 0.73289 0.80134 0.0
C973 C 0.39413 0.73979 0.82173 0.0
C974 C 0.42669 0.71893 0.77923 0.0
C975 C 0.41368 0.7043 0.74822 0.0
C976 C 0.36876 0.71066 0.75947 0.0
C977 C 0.47505 0.71562 0.76581 0.0
C978 C 0.5059 0.74874 0.73634 0.0
C979 C 0.48982 0.68276 0.78495 0.0
C980 C 0.45822 0.64793 0.81768 0.0
C981 C 0.43606 0.61833 0.80362 0.0
C982 C 0.40642 0.58551 0.8348 0.0
C983 C 0.3989 0.58182 0.88003 0.0
C984 C 0.4211 0.61088 0.89414 0.0
C985 C 0.45071 0.64377 0.8631 0.0
H986 H 0.37598 0.55637 0.9041 0.0
H987 H 0.65507 0.89158 0.62806 0.0
H988 H 0.14421 0.86378 0.30249 0.0
H989 H 0.06794 0.85735 0.31549 0.0
H990 H 0.11338 0.74659 0.21797 0.0
H991 H 0.18956 0.75219 0.20538 0.0
H992 H 0.04123 0.86872 0.25646 0.0
H993 H 0.0231 0.67623 0.2485 0.0
H994 H 0.04691 0.60716 0.2696 0.0
H995 H 0.05894 0.67916 0.37345 0.0
H996 H 0.03458 0.74849 0.35349 0.0
H997 H 0.86169 0.8249 0.22026 0.0
H998 H 0.93523 0.82566 0.21419 0.0
H999 H 0.87252 0.76245 0.35103 0.0
H1000 H 0.79943 0.75943 0.356 0.0
H1001 H 0.95118 0.72821 0.29843 0.0
H1002 H 0.89867 0.88086 0.3297 0.0
H1003 H 0.87137 0.95163 0.31565 0.0
H1004 H 0.99504 0.96259 0.1785 0.0
H1005 H 0.02278 0.89175 0.19152 0.0
C1006 C 0.13803 0.83784 0.28395 0.0
C1007 C 0.17325 0.80855 0.25277 0.0
C1008 C 0.09431 0.83425 0.29141 0.0
C1009 C 0.0847 0.80132 0.26796 0.0
C1010 C 0.11965 0.77182 0.2371 0.0
C1011 C 0.16334 0.77523 0.22977 0.0
C1012 C 0.03876 0.79918 0.27419 0.0
C1013 C 0.0215 0.83799 0.26578 0.0
C1014 C 0.01267 0.75924 0.28684 0.0
C1015 C 0.02747 0.71769 0.29909 0.0
C1016 C 0.03072 0.67731 0.27591 0.0
C1017 C 0.04432 0.63811 0.28768 0.0
C1018 C 0.05458 0.6388 0.32273 0.0
C1019 C 0.05117 0.6787 0.34616 0.0
C1020 C 0.03755 0.71798 0.33457 0.0
C1021 C 0.8636 0.8111 0.24903 0.0
C1022 C 0.82466 0.79232 0.28874 0.0
C1023 C 0.90567 0.81179 0.24567 0.0
C1024 C 0.90947 0.79505 0.28263 0.0
C1025 C 0.87067 0.77569 0.32202 0.0
C1026 C 0.82881 0.77406 0.3249 0.0
C1027 C 0.95371 0.79774 0.28035 0.0
C1028 C 0.97079 0.75899 0.28929 0.0
C1029 C 0.97928 0.83799 0.26911 0.0
C1030 C 0.96264 0.88082 0.26147 0.0
C1031 C 0.91991 0.89828 0.29647 0.0
C1032 C 0.90438 0.93845 0.28869 0.0
C1033 C 0.93143 0.96162 0.2462 0.0
C1034 C 0.9741 0.94471 0.21142 0.0
C1035 C 0.98977 0.90457 0.21899 0.0
H1036 H 0.91937 0.9927 0.24022 0.0
H1037 H 0.06506 0.6084 0.3318 0.0
H1038 H 0.15062 0.18972 0.78663 0.0
H1039 H 0.07231 0.1849 0.80468 0.0
H1040 H 0.11997 0.2226 0.66099 0.0
H1041 H 0.19768 0.23061 0.64416 0.0
H1042 H 0.04957 0.26579 0.71145 0.0
H1043 H 0.07924 0.11061 0.71193 0.0
H1044 H 0.10574 0.04393 0.73359 0.0
H1045 H 1.00055 0.06303 0.87975 0.0
H1046 H 0.97373 0.1302 0.85902 0.0
H1047 H 0.83822 0.20627 0.73211 0.0
H1048 H 0.9164 0.19357 0.71301 0.0
H1049 H 0.87379 0.22666 0.85619 0.0
H1050 H 0.79589 0.24088 0.87517 0.0
H1051 H 0.94028 0.14384 0.80418 0.0
H1052 H 0.91691 0.30471 0.79684 0.0
H1053 H 0.89415 0.36965 0.76884 0.0
H1054 H 0.99191 0.33288 0.62478 0.0
H1055 H 0.01469 0.26726 0.65201 0.0
C1056 C 0.14441 0.19623 0.75874 0.0
C1057 C 0.18028 0.21029 0.71392 0.0
C1058 C 0.09952 0.19329 0.76899 0.0
C1059 C 0.08973 0.20272 0.73411 0.0
C1060 C 0.12612 0.21529 0.68878 0.0
C1061 C 0.17071 0.21955 0.67899 0.0
C1062 C 0.0415 0.20212 0.7454 0.0
C1063 C 0.0262 0.23856 0.73102 0.0
C1064 C 0.01013 0.16708 0.77145 0.0
C1065 C 0.02478 0.12569 0.78396 0.0
C1066 C 0.06182 0.10064 0.74871 0.0
C1067 C 0.0769 0.06278 0.76081 0.0
C1068 C 0.05501 0.04942 0.80802 0.0
C1069 C 0.01756 0.07351 0.84319 0.0
C1070 C 1.00233 0.11145 0.83128 0.0
C1071 C 0.84525 0.20993 0.75981 0.0
C1072 C 0.81087 0.22458 0.80518 0.0
C1073 C 0.88996 0.20277 0.74879 0.0
C1074 C 0.90086 0.20919 0.78319 0.0
C1075 C 0.86604 0.22133 0.82921 0.0
C1076 C 0.82159 0.22952 0.83996 0.0
C1077 C 0.94924 0.20726 0.77008 0.0
C1078 C 0.96424 0.17056 0.78423 0.0
C1079 C 0.98077 0.24141 0.74276 0.0
C1080 C 0.96704 0.28079 0.72645 0.0
C1081 C 0.93315 0.31019 0.7592 0.0
C1082 C 0.92035 0.34718 0.74347 0.0
C1083 C 0.94147 0.35531 0.69505 0.0
C1084 C 0.97551 0.32649 0.66227 0.0
C1085 C 0.98838 0.28941 0.67783 0.0
H1086 H 0.93156 0.384 0.68294 0.0
H1087 H 0.06721 0.02044 0.81724 0.0
loop_
_geom_bond_atom_site_label_1
_geom_bond_atom_site_label_2
_geom_bond_distance
_geom_bond_site_symmetry_2
_ccdc_geom_bond_type
Mn0 O5 2.095 . S
Mn0 O15 2.162 . S
Mn0 O16 2.297 . S
Mn0 O24 2.385 . S
Mn0 O25 2.209 . S
Mn0 O26 2.094 . S
Mn1 O6 2.121 . S
Mn1 N8 2.257 . S
Mn1 N17 2.282 . S
Mn1 O25 2.215 . S
Mn1 O27 2.117 . S
C2 O24 1.234 . S
C2 O25 1.283 . S
C3 O15 1.281 . S
C3 O16 1.236 . S
C4 O26 1.240 . S
C4 O27 1.264 . S
O5 Mn0 2.095 . S
O5 C14 1.250 . S
O6 Mn1 2.121 . S
O6 C14 1.258 . S
C7 N8 1.326 . S
C7 C11 1.460 . S
C7 H13 0.929 . S
N8 Mn1 2.257 . S
N8 C7 1.326 . S
N8 C12 1.362 . S
C9 C10 1.258 . S
C9 C12 1.431 . S
C9 C29 1.449 . S
C10 C9 1.258 . S
C10 C11 1.477 . S
C10 H30 0.931 . S
C11 C7 1.460 . S
C11 C10 1.477 . S
C11 H31 0.930 . S
C12 N8 1.362 . S
C12 C9 1.431 . S
C12 C22 1.476 . S
H13 C7 0.929 . S
C14 O5 1.250 . S
C14 O6 1.258 . S
O15 Mn0 2.162 . S
O15 C3 1.281 . S
O16 Mn0 2.297 . S
O16 C3 1.236 . S
N17 Mn1 2.282 . S
N17 C18 1.328 . S
N17 C22 1.318 . S
C18 N17 1.328 . S
C18 C19 1.457 . S
C18 H23 0.929 . S
C19 C18 1.457 . S
C19 C20 1.291 . S
C19 H32 0.931 . S
C20 C19 1.291 . S
C20 C21 1.373 . S
C20 H33 0.929 . S
C21 C20 1.373 . S
C21 C22 1.396 . S
C21 C28 1.403 . S
C22 C12 1.476 . S
C22 N17 1.318 . S
C22 C21 1.396 . S
H23 C18 0.929 . S
O24 Mn0 2.385 . S
O24 C2 1.234 . S
O25 Mn0 2.209 . S
O25 Mn1 2.215 . S
O25 C2 1.283 . S
O26 Mn0 2.094 . S
O26 C4 1.240 . S
O27 Mn1 2.117 . S
O27 C4 1.264 . S
C28 C21 1.403 . S
C28 C29 1.399 . S
C28 H34 0.929 . S
C29 C9 1.449 . S
C29 C28 1.399 . S
C29 H35 0.930 . S
H30 C10 0.931 . S
H31 C11 0.930 . S
H32 C19 0.931 . S
H33 C20 0.929 . S
H34 C28 0.929 . S
H35 C29 0.930 . S
Mn36 O41 2.095 . S
Mn36 O51 2.162 . S
Mn36 O52 2.297 . S
Mn36 O60 2.385 . S
Mn36 O61 2.209 . S
Mn36 O62 2.094 . S
Mn37 O42 2.121 . S
Mn37 N44 2.257 . S
Mn37 N53 2.282 . S
Mn37 O61 2.215 . S
Mn37 O63 2.117 . S
C38 O60 1.234 . S
C38 O61 1.283 . S
C39 O51 1.281 . S
C39 O52 1.236 . S
C40 O62 1.240 . S
C40 O63 1.264 . S
O41 Mn36 2.095 . S
O41 C50 1.250 . S
O42 Mn37 2.121 . S
O42 C50 1.258 . S
C43 N44 1.326 . S
C43 C47 1.460 . S
C43 H49 0.929 . S
N44 Mn37 2.257 . S
N44 C43 1.326 . S
N44 C48 1.362 . S
C45 C46 1.258 . S
C45 C48 1.431 . S
C45 C65 1.449 . S
C46 C45 1.258 . S
C46 C47 1.477 . S
C46 H66 0.931 . S
C47 C43 1.460 . S
C47 C46 1.477 . S
C47 H67 0.930 . S
C48 N44 1.362 . S
C48 C45 1.431 . S
C48 C58 1.476 . S
H49 C43 0.929 . S
C50 O41 1.250 . S
C50 O42 1.258 . S
O51 Mn36 2.162 . S
O51 C39 1.281 . S
O52 Mn36 2.297 . S
O52 C39 1.236 . S
N53 Mn37 2.282 . S
N53 C54 1.328 . S
N53 C58 1.318 . S
C54 N53 1.328 . S
C54 C55 1.457 . S
C54 H59 0.929 . S
C55 C54 1.457 . S
C55 C56 1.291 . S
C55 H68 0.931 . S
C56 C55 1.291 . S
C56 C57 1.373 . S
C56 H69 0.929 . S
C57 C56 1.373 . S
C57 C58 1.396 . S
C57 C64 1.403 . S
C58 C48 1.476 . S
C58 N53 1.318 . S
C58 C57 1.396 . S
H59 C54 0.929 . S
O60 Mn36 2.385 . S
O60 C38 1.234 . S
O61 Mn36 2.209 . S
O61 Mn37 2.215 . S
O61 C38 1.283 . S
O62 Mn36 2.094 . S
O62 C40 1.240 . S
O63 Mn37 2.117 . S
O63 C40 1.264 . S
C64 C57 1.403 . S
C64 C65 1.399 . S
C64 H70 0.929 . S
C65 C45 1.449 . S
C65 C64 1.399 . S
C65 H71 0.930 . S
H66 C46 0.931 . S
H67 C47 0.930 . S
H68 C55 0.931 . S
H69 C56 0.929 . S
H70 C64 0.929 . S
H71 C65 0.930 . S
Mn72 O77 2.095 . S
Mn72 O87 2.162 . S
Mn72 O88 2.297 . S
Mn72 O96 2.385 . S
Mn72 O97 2.209 . S
Mn72 O98 2.094 . S
Mn73 O78 2.121 . S
Mn73 N80 2.257 . S
Mn73 N89 2.282 . S
Mn73 O97 2.215 . S
Mn73 O99 2.117 . S
C74 O96 1.234 . S
C74 O97 1.283 . S
C75 O87 1.281 . S
C75 O88 1.236 . S
C76 O98 1.240 . S
C76 O99 1.264 . S
O77 Mn72 2.095 . S
O77 C86 1.250 . S
O78 Mn73 2.121 . S
O78 C86 1.258 . S
C79 N80 1.326 . S
C79 C83 1.460 . S
C79 H85 0.929 . S
N80 Mn73 2.257 . S
N80 C79 1.326 . S
N80 C84 1.362 . S
C81 C82 1.258 . S
C81 C84 1.431 . S
C81 C101 1.449 . S
C82 C81 1.258 . S
C82 C83 1.477 . S
C82 H102 0.931 . S
C83 C79 1.460 . S
C83 C82 1.477 . S
C83 H103 0.930 . S
C84 N80 1.362 . S
C84 C81 1.431 . S
C84 C94 1.476 . S
H85 C79 0.929 . S
C86 O77 1.250 . S
C86 O78 1.258 . S
O87 Mn72 2.162 . S
O87 C75 1.281 . S
O88 Mn72 2.297 . S
O88 C75 1.236 . S
N89 Mn73 2.282 . S
N89 C90 1.328 . S
N89 C94 1.318 . S
C90 N89 1.328 . S
C90 C91 1.457 . S
C90 H95 0.929 . S
C91 C90 1.457 . S
C91 C92 1.291 . S
C91 H104 0.931 . S
C92 C91 1.291 . S
C92 C93 1.373 . S
C92 H105 0.929 . S
C93 C92 1.373 . S
C93 C94 1.396 . S
C93 C100 1.403 . S
C94 C84 1.476 . S
C94 N89 1.318 . S
C94 C93 1.396 . S
H95 C90 0.929 . S
O96 Mn72 2.385 . S
O96 C74 1.234 . S
O97 Mn72 2.209 . S
O97 Mn73 2.215 . S
O97 C74 1.283 . S
O98 Mn72 2.094 . S
O98 C76 1.240 . S
O99 Mn73 2.117 . S
O99 C76 1.264 . S
C100 C93 1.403 . S
C100 C101 1.399 . S
C100 H106 0.929 . S
C101 C81 1.449 . S
C101 C100 1.399 . S
C101 H107 0.930 . S
H102 C82 0.931 . S
H103 C83 0.930 . S
H104 C91 0.931 . S
H105 C92 0.929 . S
H106 C100 0.929 . S
H107 C101 0.930 . S
Mn108 O113 2.095 . S
Mn108 O123 2.162 . S
Mn108 O124 2.297 . S
Mn108 O132 2.385 . S
Mn108 O133 2.209 . S
Mn108 O134 2.094 . S
Mn109 O114 2.121 . S
Mn109 N116 2.257 . S
Mn109 N125 2.282 . S
Mn109 O133 2.215 . S
Mn109 O135 2.117 . S
C110 O132 1.234 . S
C110 O133 1.283 . S
C111 O123 1.281 . S
C111 O124 1.236 . S
C112 O134 1.240 . S
C112 O135 1.264 . S
O113 Mn108 2.095 . S
O113 C122 1.250 . S
O114 Mn109 2.121 . S
O114 C122 1.258 . S
C115 N116 1.326 . S
C115 C119 1.460 . S
C115 H121 0.929 . S
N116 Mn109 2.257 . S
N116 C115 1.326 . S
N116 C120 1.362 . S
C117 C118 1.258 . S
C117 C120 1.431 . S
C117 C137 1.449 . S
C118 C117 1.258 . S
C118 C119 1.477 . S
C118 H138 0.931 . S
C119 C115 1.460 . S
C119 C118 1.477 . S
C119 H139 0.930 . S
C120 N116 1.362 . S
C120 C117 1.431 . S
C120 C130 1.476 . S
H121 C115 0.929 . S
C122 O113 1.250 . S
C122 O114 1.258 . S
O123 Mn108 2.162 . S
O123 C111 1.281 . S
O124 Mn108 2.297 . S
O124 C111 1.236 . S
N125 Mn109 2.282 . S
N125 C126 1.328 . S
N125 C130 1.318 . S
C126 N125 1.328 . S
C126 C127 1.457 . S
C126 H131 0.929 . S
C127 C126 1.457 . S
C127 C128 1.291 . S
C127 H140 0.931 . S
C128 C127 1.291 . S
C128 C129 1.373 . S
C128 H141 0.929 . S
C129 C128 1.373 . S
C129 C130 1.396 . S
C129 C136 1.403 . S
C130 C120 1.476 . S
C130 N125 1.318 . S
C130 C129 1.396 . S
H131 C126 0.929 . S
O132 Mn108 2.385 . S
O132 C110 1.234 . S
O133 Mn108 2.209 . S
O133 Mn109 2.215 . S
O133 C110 1.283 . S
O134 Mn108 2.094 . S
O134 C112 1.240 . S
O135 Mn109 2.117 . S
O135 C112 1.264 . S
C136 C129 1.403 . S
C136 C137 1.399 . S
C136 H142 0.929 . S
C137 C117 1.449 . S
C137 C136 1.399 . S
C137 H143 0.930 . S
H138 C118 0.931 . S
H139 C119 0.930 . S
H140 C127 0.931 . S
H141 C128 0.929 . S
H142 C136 0.929 . S
H143 C137 0.930 . S
Mn144 O149 2.095 . S
Mn144 O159 2.162 . S
Mn144 O160 2.297 . S
Mn144 O168 2.385 . S
Mn144 O169 2.209 . S
Mn144 O170 2.094 . S
Mn145 O150 2.121 . S
Mn145 N152 2.257 . S
Mn145 N161 2.282 . S
Mn145 O169 2.215 . S
Mn145 O171 2.117 . S
C146 O168 1.234 . S
C146 O169 1.283 . S
C147 O159 1.281 . S
C147 O160 1.236 . S
C148 O170 1.240 . S
C148 O171 1.264 . S
O149 Mn144 2.095 . S
O149 C158 1.250 . S
O150 Mn145 2.121 . S
O150 C158 1.258 . S
C151 N152 1.326 . S
C151 C155 1.460 . S
C151 H157 0.929 . S
N152 Mn145 2.257 . S
N152 C151 1.326 . S
N152 C156 1.362 . S
C153 C154 1.258 . S
C153 C156 1.431 . S
C153 C173 1.449 1_565 S
C154 C153 1.258 . S
C154 C155 1.477 . S
C154 H174 0.931 1_565 S
C155 C151 1.460 . S
C155 C154 1.477 . S
C155 H175 0.930 . S
C156 N152 1.362 . S
C156 C153 1.431 . S
C156 C166 1.476 . S
H157 C151 0.929 . S
C158 O149 1.250 . S
C158 O150 1.258 . S
O159 Mn144 2.162 . S
O159 C147 1.281 . S
O160 Mn144 2.297 . S
O160 C147 1.236 . S
N161 Mn145 2.282 . S
N161 C162 1.328 . S
N161 C166 1.318 . S
C162 N161 1.328 . S
C162 C163 1.457 . S
C162 H167 0.929 . S
C163 C162 1.457 . S
C163 C164 1.291 . S
C163 H176 0.931 . S
C164 C163 1.291 . S
C164 C165 1.373 . S
C164 H177 0.929 1_565 S
C165 C164 1.373 . S
C165 C166 1.396 . S
C165 C172 1.403 1_565 S
C166 C156 1.476 . S
C166 N161 1.318 . S
C166 C165 1.396 . S
H167 C162 0.929 . S
O168 Mn144 2.385 . S
O168 C146 1.234 . S
O169 Mn144 2.209 . S
O169 Mn145 2.215 . S
O169 C146 1.283 . S
O170 Mn144 2.094 . S
O170 C148 1.240 . S
O171 Mn145 2.117 . S
O171 C148 1.264 . S
C172 C165 1.403 1_545 S
C172 C173 1.399 . S
C172 H178 0.929 . S
C173 C153 1.449 1_545 S
C173 C172 1.399 . S
C173 H179 0.930 . S
H174 C154 0.931 1_545 S
H175 C155 0.930 . S
H176 C163 0.931 . S
H177 C164 0.929 1_545 S
H178 C172 0.929 . S
H179 C173 0.930 . S
Mn180 O185 2.095 . S
Mn180 O195 2.162 . S
Mn180 O196 2.297 . S
Mn180 O204 2.385 . S
Mn180 O205 2.209 . S
Mn180 O206 2.094 . S
Mn181 O186 2.121 . S
Mn181 N188 2.257 . S
Mn181 N197 2.282 . S
Mn181 O205 2.215 . S
Mn181 O207 2.117 . S
C182 O204 1.234 . S
C182 O205 1.283 . S
C183 O195 1.281 . S
C183 O196 1.236 . S
C184 O206 1.240 . S
C184 O207 1.264 . S
O185 Mn180 2.095 . S
O185 C194 1.250 . S
O186 Mn181 2.121 . S
O186 C194 1.258 . S
C187 N188 1.326 . S
C187 C191 1.460 . S
C187 H193 0.929 . S
N188 Mn181 2.257 . S
N188 C187 1.326 . S
N188 C192 1.362 . S
C189 C190 1.258 . S
C189 C192 1.431 . S
C189 C209 1.449 1_565 S
C190 C189 1.258 . S
C190 C191 1.477 . S
C190 H210 0.931 1_565 S
C191 C187 1.460 . S
C191 C190 1.477 . S
C191 H211 0.930 . S
C192 N188 1.362 . S
C192 C189 1.431 . S
C192 C202 1.476 . S
H193 C187 0.929 . S
C194 O185 1.250 . S
C194 O186 1.258 . S
O195 Mn180 2.162 . S
O195 C183 1.281 . S
O196 Mn180 2.297 . S
O196 C183 1.236 . S
N197 Mn181 2.282 . S
N197 C198 1.328 . S
N197 C202 1.318 . S
C198 N197 1.328 . S
C198 C199 1.457 . S
C198 H203 0.929 . S
C199 C198 1.457 . S
C199 C200 1.291 . S
C199 H212 0.931 . S
C200 C199 1.291 . S
C200 C201 1.373 . S
C200 H213 0.929 1_565 S
C201 C200 1.373 . S
C201 C202 1.396 . S
C201 C208 1.403 1_565 S
C202 C192 1.476 . S
C202 N197 1.318 . S
C202 C201 1.396 . S
H203 C198 0.929 . S
O204 Mn180 2.385 . S
O204 C182 1.234 . S
O205 Mn180 2.209 . S
O205 Mn181 2.215 . S
O205 C182 1.283 . S
O206 Mn180 2.094 . S
O206 C184 1.240 . S
O207 Mn181 2.117 . S
O207 C184 1.264 . S
C208 C201 1.403 1_545 S
C208 C209 1.399 . S
C208 H214 0.929 . S
C209 C189 1.449 1_545 S
C209 C208 1.399 . S
C209 H215 0.930 . S
H210 C190 0.931 1_545 S
H211 C191 0.930 . S
H212 C199 0.931 . S
H213 C200 0.929 1_545 S
H214 C208 0.929 . S
H215 C209 0.930 . S
Mn216 O221 2.095 . S
Mn216 O231 2.162 . S
Mn216 O232 2.297 . S
Mn216 O240 2.385 . S
Mn216 O241 2.209 . S
Mn216 O242 2.094 . S
Mn217 O222 2.121 . S
Mn217 N224 2.257 . S
Mn217 N233 2.282 . S
Mn217 O241 2.215 . S
Mn217 O243 2.117 . S
C218 O240 1.234 . S
C218 O241 1.283 . S
C219 O231 1.281 . S
C219 O232 1.236 . S
C220 O242 1.240 . S
C220 O243 1.264 . S
O221 Mn216 2.095 . S
O221 C230 1.250 . S
O222 Mn217 2.121 . S
O222 C230 1.258 . S
C223 N224 1.326 . S
C223 C227 1.460 . S
C223 H229 0.929 . S
N224 Mn217 2.257 . S
N224 C223 1.326 . S
N224 C228 1.362 . S
C225 C226 1.258 . S
C225 C228 1.431 . S
C225 C245 1.449 . S
C226 C225 1.258 . S
C226 C227 1.477 . S
C226 H246 0.931 . S
C227 C223 1.460 . S
C227 C226 1.477 . S
C227 H247 0.930 . S
C228 N224 1.362 . S
C228 C225 1.431 . S
C228 C238 1.476 . S
H229 C223 0.929 . S
C230 O221 1.250 . S
C230 O222 1.258 . S
O231 Mn216 2.162 . S
O231 C219 1.281 . S
O232 Mn216 2.297 . S
O232 C219 1.236 . S
N233 Mn217 2.282 . S
N233 C234 1.328 . S
N233 C238 1.318 . S
C234 N233 1.328 . S
C234 C235 1.457 . S
C234 H239 0.929 . S
C235 C234 1.457 . S
C235 C236 1.291 . S
C235 H248 0.931 . S
C236 C235 1.291 . S
C236 C237 1.373 . S
C236 H249 0.929 . S
C237 C236 1.373 . S
C237 C238 1.396 . S
C237 C244 1.403 . S
C238 C228 1.476 . S
C238 N233 1.318 . S
C238 C237 1.396 . S
H239 C234 0.929 . S
O240 Mn216 2.385 . S
O240 C218 1.234 . S
O241 Mn216 2.209 . S
O241 Mn217 2.215 . S
O241 C218 1.283 . S
O242 Mn216 2.094 . S
O242 C220 1.240 . S
O243 Mn217 2.117 . S
O243 C220 1.264 . S
C244 C237 1.403 . S
C244 C245 1.399 . S
C244 H250 0.929 . S
C245 C225 1.449 . S
C245 C244 1.399 . S
C245 H251 0.930 . S
H246 C226 0.931 . S
H247 C227 0.930 . S
H248 C235 0.931 . S
H249 C236 0.929 . S
H250 C244 0.929 . S
H251 C245 0.930 . S
Mn252 O257 2.095 . S
Mn252 O267 2.162 . S
Mn252 O268 2.297 . S
Mn252 O276 2.385 . S
Mn252 O277 2.209 . S
Mn252 O278 2.094 . S
Mn253 O258 2.121 . S
Mn253 N260 2.257 . S
Mn253 N269 2.282 . S
Mn253 O277 2.215 . S
Mn253 O279 2.117 . S
C254 O276 1.234 . S
C254 O277 1.283 . S
C255 O267 1.281 . S
C255 O268 1.236 . S
C256 O278 1.240 . S
C256 O279 1.264 . S
O257 Mn252 2.095 . S
O257 C266 1.250 . S
O258 Mn253 2.121 . S
O258 C266 1.258 . S
C259 N260 1.326 . S
C259 C263 1.460 . S
C259 H265 0.929 . S
N260 Mn253 2.257 . S
N260 C259 1.326 . S
N260 C264 1.362 . S
C261 C262 1.258 . S
C261 C264 1.431 . S
C261 C281 1.449 . S
C262 C261 1.258 . S
C262 C263 1.477 . S
C262 H282 0.931 . S
C263 C259 1.460 . S
C263 C262 1.477 . S
C263 H283 0.930 . S
C264 N260 1.362 . S
C264 C261 1.431 . S
C264 C274 1.476 . S
H265 C259 0.929 . S
C266 O257 1.250 . S
C266 O258 1.258 . S
O267 Mn252 2.162 . S
O267 C255 1.281 . S
O268 Mn252 2.297 . S
O268 C255 1.236 . S
N269 Mn253 2.282 . S
N269 C270 1.328 . S
N269 C274 1.318 . S
C270 N269 1.328 . S
C270 C271 1.457 . S
C270 H275 0.929 . S
C271 C270 1.457 . S
C271 C272 1.291 . S
C271 H284 0.931 . S
C272 C271 1.291 . S
C272 C273 1.373 . S
C272 H285 0.929 . S
C273 C272 1.373 . S
C273 C274 1.396 . S
C273 C280 1.403 . S
C274 C264 1.476 . S
C274 N269 1.318 . S
C274 C273 1.396 . S
H275 C270 0.929 . S
O276 Mn252 2.385 . S
O276 C254 1.234 . S
O277 Mn252 2.209 . S
O277 Mn253 2.215 . S
O277 C254 1.283 . S
O278 Mn252 2.094 . S
O278 C256 1.240 . S
O279 Mn253 2.117 . S
O279 C256 1.264 . S
C280 C273 1.403 . S
C280 C281 1.399 . S
C280 H286 0.929 . S
C281 C261 1.449 . S
C281 C280 1.399 . S
C281 H287 0.930 . S
H282 C262 0.931 . S
H283 C263 0.930 . S
H284 C271 0.931 . S
H285 C272 0.929 . S
H286 C280 0.929 . S
H287 C281 0.930 . S
H288 C306 0.951 . S
H289 C308 0.951 . S
H290 C310 0.950 . S
H291 C311 0.950 . S
H292 C313 0.950 . S
H293 C316 0.950 . S
H294 C317 0.950 . S
H295 C319 0.950 . S
H296 C320 0.950 1_565 S
H297 C321 0.951 . S
H298 C323 0.951 . S
H299 C325 0.950 . S
H300 C326 0.950 . S
H301 C328 0.950 . S
H302 C331 0.950 . S
H303 C332 0.950 . S
H304 C334 0.950 . S
H305 C335 0.950 1_545 S
C306 H288 0.951 . S
C306 C307 1.366 . S
C306 C308 1.388 . S
C307 C306 1.366 . S
C307 C311 1.385 . S
C308 H289 0.951 . S
C308 C306 1.388 . S
C308 C309 1.366 . S
C309 C308 1.366 . S
C309 C310 1.414 . S
C309 C312 1.499 . S
C310 H290 0.950 . S
C310 C309 1.414 . S
C310 C311 1.374 . S
C311 H291 0.950 . S
C311 C307 1.385 . S
C311 C310 1.374 . S
C312 C309 1.499 . S
C312 C313 1.373 . S
C312 C314 1.389 1_455 S
C313 H292 0.950 . S
C313 C312 1.373 . S
C313 C329 1.377 1_545 S
C314 C312 1.389 1_655 S
C314 C315 1.524 . S
C314 C328 1.377 1_545 S
C315 C314 1.524 . S
C315 C316 1.397 . S
C315 C320 1.363 . S
C316 H293 0.950 . S
C316 C315 1.397 . S
C316 C317 1.334 . S
C317 H294 0.950 . S
C317 C316 1.334 . S
C317 C318 1.287 . S
C318 C317 1.287 . S
C318 C319 1.524 . S
C318 H337 0.913 . S
C319 H295 0.950 . S
C319 C318 1.524 . S
C319 C320 1.415 . S
C320 H296 0.950 1_545 S
C320 C315 1.363 . S
C320 C319 1.415 . S
C321 H297 0.951 . S
C321 C322 1.366 . S
C321 C323 1.388 . S
C322 C321 1.366 . S
C322 C326 1.385 . S
C323 H298 0.951 . S
C323 C321 1.388 . S
C323 C324 1.366 . S
C324 C323 1.366 . S
C324 C325 1.414 . S
C324 C327 1.499 . S
C325 H299 0.950 . S
C325 C324 1.414 . S
C325 C326 1.374 . S
C326 H300 0.950 . S
C326 C322 1.385 . S
C326 C325 1.374 . S
C327 C324 1.499 . S
C327 C328 1.373 . S
C327 C329 1.389 1_655 S
C328 H301 0.950 . S
C328 C314 1.377 1_565 S
C328 C327 1.373 . S
C329 C313 1.377 1_565 S
C329 C327 1.389 1_455 S
C329 C330 1.524 . S
C330 C329 1.524 . S
C330 C331 1.397 . S
C330 C335 1.363 . S
C331 H302 0.950 . S
C331 C330 1.397 . S
C331 C332 1.334 . S
C332 H303 0.950 . S
C332 C331 1.334 . S
C332 C333 1.287 . S
C333 C332 1.287 . S
C333 C334 1.524 . S
C333 H336 0.999 . S
C334 H304 0.950 . S
C334 C333 1.524 . S
C334 C335 1.415 . S
C335 H305 0.950 1_565 S
C335 C330 1.363 . S
C335 C334 1.415 . S
H336 C333 0.999 . S
H337 C318 0.913 . S
H338 C356 0.951 . S
H339 C358 0.951 1_655 S
H340 C360 0.950 . S
H341 C361 0.950 . S
H342 C363 0.950 . S
H343 C366 0.950 1_455 S
H344 C367 0.950 . S
H345 C369 0.950 . S
H346 C370 0.950 1_554 S
H347 C371 0.951 . S
H348 C373 0.952 . S
H349 C375 0.950 . S
H350 C376 0.950 . S
H351 C378 0.950 . S
H352 C381 0.950 1_655 S
H353 C382 0.950 . S
H354 C384 0.950 . S
H355 C385 0.950 1_556 S
C356 H338 0.951 . S
C356 C357 1.366 . S
C356 C358 1.388 . S
C357 C356 1.366 . S
C357 C361 1.385 . S
C358 H339 0.951 1_455 S
C358 C356 1.388 . S
C358 C359 1.366 . S
C359 C358 1.366 . S
C359 C360 1.414 . S
C359 C362 1.499 . S
C360 H340 0.950 . S
C360 C359 1.414 . S
C360 C361 1.374 . S
C361 H341 0.950 . S
C361 C357 1.385 . S
C361 C360 1.374 . S
C362 C359 1.499 . S
C362 C363 1.373 . S
C362 C364 1.389 1_455 S
C363 H342 0.950 . S
C363 C362 1.373 . S
C363 C379 1.377 1_566 S
C364 C362 1.389 1_655 S
C364 C365 1.524 . S
C364 C378 1.377 1_566 S
C365 C364 1.524 . S
C365 C366 1.397 . S
C365 C370 1.363 . S
C366 H343 0.950 1_655 S
C366 C365 1.397 . S
C366 C367 1.334 . S
C367 H344 0.950 . S
C367 C366 1.334 . S
C367 C368 1.287 . S
C368 C367 1.287 . S
C368 C369 1.524 . S
C368 H387 0.913 . S
C369 H345 0.950 . S
C369 C368 1.524 . S
C369 C370 1.415 . S
C370 H346 0.950 1_556 S
C370 C365 1.363 . S
C370 C369 1.415 . S
C371 H347 0.951 . S
C371 C372 1.366 . S
C371 C373 1.388 . S
C372 C371 1.366 . S
C372 C376 1.385 . S
C373 H348 0.952 . S
C373 C371 1.388 . S
C373 C374 1.366 . S
C374 C373 1.366 . S
C374 C375 1.414 . S
C374 C377 1.499 . S
C375 H349 0.950 . S
C375 C374 1.414 . S
C375 C376 1.374 . S
C376 H350 0.950 . S
C376 C372 1.385 . S
C376 C375 1.374 . S
C377 C374 1.499 . S
C377 C378 1.373 . S
C377 C379 1.389 1_655 S
C378 H351 0.950 . S
C378 C364 1.377 1_544 S
C378 C377 1.373 . S
C379 C363 1.377 1_544 S
C379 C377 1.389 1_455 S
C379 C380 1.524 . S
C380 C379 1.524 . S
C380 C381 1.397 . S
C380 C385 1.363 . S
C381 H352 0.950 1_455 S
C381 C380 1.397 . S
C381 C382 1.334 . S
C382 H353 0.950 . S
C382 C381 1.334 . S
C382 C383 1.287 . S
C383 C382 1.287 . S
C383 C384 1.524 . S
C383 H386 0.999 . S
C384 H354 0.950 . S
C384 C383 1.524 . S
C384 C385 1.415 . S
C385 H355 0.950 1_554 S
C385 C380 1.363 . S
C385 C384 1.415 . S
H386 C383 0.999 . S
H387 C368 0.913 . S
H388 C406 0.951 . S
H389 C408 0.951 . S
H390 C410 0.950 . S
H391 C411 0.950 . S
H392 C413 0.950 . S
H393 C416 0.950 . S
H394 C417 0.950 . S
H395 C419 0.950 . S
H396 C420 0.950 . S
H397 C421 0.951 . S
H398 C423 0.951 . S
H399 C425 0.950 . S
H400 C426 0.950 . S
H401 C428 0.950 . S
H402 C431 0.950 . S
H403 C432 0.950 . S
H404 C434 0.950 . S
H405 C435 0.950 . S
C406 H388 0.951 . S
C406 C407 1.366 . S
C406 C408 1.388 . S
C407 C406 1.366 . S
C407 C411 1.385 . S
C408 H389 0.951 . S
C408 C406 1.388 . S
C408 C409 1.366 . S
C409 C408 1.366 . S
C409 C410 1.414 . S
C409 C412 1.499 . S
C410 H390 0.950 . S
C410 C409 1.414 . S
C410 C411 1.374 . S
C411 H391 0.950 . S
C411 C407 1.385 . S
C411 C410 1.374 . S
C412 C409 1.499 . S
C412 C413 1.373 . S
C412 C414 1.389 . S
C413 H392 0.950 . S
C413 C412 1.373 . S
C413 C429 1.377 . S
C414 C412 1.389 . S
C414 C415 1.524 . S
C414 C428 1.377 . S
C415 C414 1.524 . S
C415 C416 1.397 . S
C415 C420 1.363 . S
C416 H393 0.950 . S
C416 C415 1.397 . S
C416 C417 1.334 . S
C417 H394 0.950 . S
C417 C416 1.334 . S
C417 C418 1.287 . S
C418 C417 1.287 . S
C418 C419 1.524 . S
C418 H437 0.913 . S
C419 H395 0.950 . S
C419 C418 1.524 . S
C419 C420 1.415 . S
C420 H396 0.950 . S
C420 C415 1.363 . S
C420 C419 1.415 . S
C421 H397 0.951 . S
C421 C422 1.366 . S
C421 C423 1.388 . S
C422 C421 1.366 . S
C422 C426 1.385 . S
C423 H398 0.951 . S
C423 C421 1.388 . S
C423 C424 1.366 . S
C424 C423 1.366 . S
C424 C425 1.414 . S
C424 C427 1.499 . S
C425 H399 0.950 . S
C425 C424 1.414 . S
C425 C426 1.374 . S
C426 H400 0.950 . S
C426 C422 1.385 . S
C426 C425 1.374 . S
C427 C424 1.499 . S
C427 C428 1.373 . S
C427 C429 1.389 . S
C428 H401 0.950 . S
C428 C414 1.377 . S
C428 C427 1.373 . S
C429 C413 1.377 . S
C429 C427 1.389 . S
C429 C430 1.524 . S
C430 C429 1.524 . S
C430 C431 1.397 . S
C430 C435 1.363 . S
C431 H402 0.950 . S
C431 C430 1.397 . S
C431 C432 1.334 . S
C432 H403 0.950 . S
C432 C431 1.334 . S
C432 C433 1.287 . S
C433 C432 1.287 . S
C433 C434 1.524 . S
C433 H436 0.999 . S
C434 H404 0.950 . S
C434 C433 1.524 . S
C434 C435 1.415 . S
C435 H405 0.950 . S
C435 C430 1.363 . S
C435 C434 1.415 . S
H436 C433 0.999 . S
H437 C418 0.913 . S
H438 C456 0.951 . S
H439 C458 0.951 . S
H440 C460 0.950 . S
H441 C461 0.950 . S
H442 C463 0.950 . S
H443 C466 0.950 . S
H444 C467 0.950 . S
H445 C469 0.950 . S
H446 C470 0.950 . S
H447 C471 0.951 . S
H448 C473 0.951 . S
H449 C475 0.950 . S
H450 C476 0.950 . S
H451 C478 0.950 . S
H452 C481 0.950 . S
H453 C482 0.950 . S
H454 C484 0.950 . S
H455 C485 0.950 . S
C456 H438 0.951 . S
C456 C457 1.366 . S
C456 C458 1.388 . S
C457 C456 1.366 . S
C457 C461 1.385 . S
C458 H439 0.951 . S
C458 C456 1.388 . S
C458 C459 1.366 . S
C459 C458 1.366 . S
C459 C460 1.414 . S
C459 C462 1.499 . S
C460 H440 0.950 . S
C460 C459 1.414 . S
C460 C461 1.374 . S
C461 H441 0.950 . S
C461 C457 1.385 . S
C461 C460 1.374 . S
C462 C459 1.499 . S
C462 C463 1.373 . S
C462 C464 1.389 1_554 S
C463 H442 0.950 . S
C463 C462 1.373 . S
C463 C479 1.377 . S
C464 C462 1.389 1_556 S
C464 C465 1.524 . S
C464 C478 1.377 . S
C465 C464 1.524 . S
C465 C466 1.397 . S
C465 C470 1.363 . S
C466 H443 0.950 . S
C466 C465 1.397 . S
C466 C467 1.334 . S
C467 H444 0.950 . S
C467 C466 1.334 . S
C467 C468 1.287 . S
C468 C467 1.287 . S
C468 C469 1.524 . S
C468 H487 0.913 . S
C469 H445 0.950 . S
C469 C468 1.524 . S
C469 C470 1.415 . S
C470 H446 0.950 . S
C470 C465 1.363 . S
C470 C469 1.415 . S
C471 H447 0.951 . S
C471 C472 1.366 . S
C471 C473 1.388 . S
C472 C471 1.366 . S
C472 C476 1.385 . S
C473 H448 0.951 . S
C473 C471 1.388 . S
C473 C474 1.366 . S
C474 C473 1.366 . S
C474 C475 1.414 . S
C474 C477 1.499 . S
C475 H449 0.950 . S
C475 C474 1.414 . S
C475 C476 1.374 . S
C476 H450 0.950 . S
C476 C472 1.385 . S
C476 C475 1.374 . S
C477 C474 1.499 . S
C477 C478 1.373 . S
C477 C479 1.389 1_556 S
C478 H451 0.950 . S
C478 C464 1.377 . S
C478 C477 1.373 . S
C479 C463 1.377 . S
C479 C477 1.389 1_554 S
C479 C480 1.524 . S
C480 C479 1.524 . S
C480 C481 1.397 . S
C480 C485 1.363 . S
C481 H452 0.950 . S
C481 C480 1.397 . S
C481 C482 1.334 . S
C482 H453 0.950 . S
C482 C481 1.334 . S
C482 C483 1.287 . S
C483 C482 1.287 . S
C483 C484 1.524 . S
C483 H486 0.999 . S
C484 H454 0.950 . S
C484 C483 1.524 . S
C484 C485 1.415 . S
C485 H455 0.950 . S
C485 C480 1.363 . S
C485 C484 1.415 . S
H486 C483 0.999 . S
H487 C468 0.913 . S
H488 C506 0.951 . S
H489 C508 0.951 . S
H490 C510 0.950 . S
H491 C511 0.950 . S
H492 C513 0.950 . S
H493 C516 0.950 . S
H494 C517 0.946 1_655 S
H495 C519 0.950 . S
H496 C520 0.950 . S
H497 C521 0.951 . S
H498 C523 0.951 . S
H499 C525 0.950 . S
H500 C526 0.950 . S
H501 C528 0.952 . S
H502 C531 0.950 . S
H503 C532 0.950 1_455 S
H504 C534 0.950 . S
H505 C535 0.950 1_554 S
C506 H488 0.951 . S
C506 C507 1.366 . S
C506 C508 1.388 . S
C507 C506 1.366 . S
C507 C511 1.385 . S
C508 H489 0.951 . S
C508 C506 1.388 . S
C508 C509 1.366 . S
C509 C508 1.366 . S
C509 C510 1.414 . S
C509 C512 1.499 . S
C510 H490 0.950 . S
C510 C509 1.414 . S
C510 C511 1.374 . S
C511 H491 0.950 . S
C511 C507 1.385 . S
C511 C510 1.374 . S
C512 C509 1.499 . S
C512 C513 1.373 . S
C512 C514 1.389 1_655 S
C513 H492 0.950 . S
C513 C512 1.373 . S
C513 C529 1.377 1_554 S
C514 C512 1.389 1_455 S
C514 C515 1.524 . S
C514 C528 1.377 . S
C515 C514 1.524 . S
C515 C516 1.397 1_455 S
C515 C520 1.363 . S
C516 H493 0.950 . S
C516 C515 1.397 1_655 S
C516 C517 1.316 1_655 S
C517 H494 0.946 1_455 S
C517 C516 1.316 1_455 S
C517 C518 1.310 . S
C518 C517 1.310 . S
C518 C519 1.524 . S
C518 H537 0.913 . S
C519 H495 0.950 . S
C519 C518 1.524 . S
C519 C520 1.415 . S
C520 H496 0.950 . S
C520 C515 1.363 . S
C520 C519 1.415 . S
C521 H497 0.951 . S
C521 C522 1.366 . S
C521 C523 1.388 . S
C522 C521 1.366 . S
C522 C526 1.385 . S
C523 H498 0.951 . S
C523 C521 1.388 . S
C523 C524 1.366 . S
C524 C523 1.366 . S
C524 C525 1.414 . S
C524 C527 1.499 . S
C525 H499 0.950 . S
C525 C524 1.414 . S
C525 C526 1.374 . S
C526 H500 0.950 . S
C526 C522 1.385 . S
C526 C525 1.374 . S
C527 C524 1.499 . S
C527 C528 1.373 1_556 S
C527 C529 1.389 1_455 S
C528 H501 0.952 . S
C528 C514 1.377 . S
C528 C527 1.373 1_554 S
C529 C513 1.377 1_556 S
C529 C527 1.389 1_655 S
C529 C530 1.524 . S
C530 C529 1.524 . S
C530 C531 1.397 1_655 S
C530 C535 1.363 . S
C531 H502 0.950 . S
C531 C530 1.397 1_455 S
C531 C532 1.334 1_455 S
C532 H503 0.950 1_655 S
C532 C531 1.334 1_655 S
C532 C533 1.287 . S
C533 C532 1.287 . S
C533 C534 1.524 . S
C533 H536 0.999 . S
C534 H504 0.950 . S
C534 C533 1.524 . S
C534 C535 1.415 . S
C535 H505 0.950 1_556 S
C535 C530 1.363 . S
C535 C534 1.415 . S
H536 C533 0.999 . S
H537 C518 0.913 . S
H538 C556 0.951 . S
H539 C558 0.951 . S
H540 C560 0.950 . S
H541 C561 0.950 . S
H542 C563 0.950 . S
H543 C566 0.950 . S
H544 C567 0.950 . S
H545 C569 0.950 1_655 S
H546 C570 0.950 . S
H547 C571 0.951 . S
H548 C573 0.951 . S
H549 C575 0.950 . S
H550 C576 0.950 . S
H551 C578 0.950 . S
H552 C581 0.950 . S
H553 C582 0.950 . S
H554 C584 0.950 1_455 S
H555 C585 0.950 . S
C556 H538 0.951 . S
C556 C557 1.366 . S
C556 C558 1.388 . S
C557 C556 1.366 . S
C557 C561 1.385 . S
C558 H539 0.951 . S
C558 C556 1.388 . S
C558 C559 1.366 . S
C559 C558 1.366 . S
C559 C560 1.414 . S
C559 C562 1.499 . S
C560 H540 0.950 . S
C560 C559 1.414 . S
C560 C561 1.374 . S
C561 H541 0.950 . S
C561 C557 1.385 . S
C561 C560 1.374 . S
C562 C559 1.499 . S
C562 C563 1.373 . S
C562 C564 1.389 . S
C563 H542 0.950 . S
C563 C562 1.373 . S
C563 C579 1.377 1_455 S
C564 C562 1.389 . S
C564 C565 1.524 . S
C564 C578 1.377 1_455 S
C565 C564 1.524 . S
C565 C566 1.397 . S
C565 C570 1.363 1_455 S
C566 H543 0.950 . S
C566 C565 1.397 . S
C566 C567 1.334 . S
C567 H544 0.950 . S
C567 C566 1.334 . S
C567 C568 1.287 . S
C568 C567 1.287 . S
C568 C569 1.524 . S
C568 H587 0.913 . S
C569 H545 0.950 1_455 S
C569 C568 1.524 . S
C569 C570 1.415 1_455 S
C570 H546 0.950 . S
C570 C565 1.363 1_655 S
C570 C569 1.415 1_655 S
C571 H547 0.951 . S
C571 C572 1.366 . S
C571 C573 1.388 . S
C572 C571 1.366 . S
C572 C576 1.385 . S
C573 H548 0.951 . S
C573 C571 1.388 . S
C573 C574 1.366 . S
C574 C573 1.366 . S
C574 C575 1.414 . S
C574 C577 1.499 . S
C575 H549 0.950 . S
C575 C574 1.414 . S
C575 C576 1.374 . S
C576 H550 0.950 . S
C576 C572 1.385 . S
C576 C575 1.374 . S
C577 C574 1.499 . S
C577 C578 1.373 . S
C577 C579 1.389 . S
C578 H551 0.950 . S
C578 C564 1.377 1_655 S
C578 C577 1.373 . S
C579 C563 1.377 1_655 S
C579 C577 1.389 . S
C579 C580 1.524 . S
C580 C579 1.524 . S
C580 C581 1.397 . S
C580 C585 1.363 1_655 S
C581 H552 0.950 . S
C581 C580 1.397 . S
C581 C582 1.334 . S
C582 H553 0.950 . S
C582 C581 1.334 . S
C582 C583 1.287 . S
C583 C582 1.287 . S
C583 C584 1.524 . S
C583 H586 0.999 . S
C584 H554 0.950 1_655 S
C584 C583 1.524 . S
C584 C585 1.415 1_655 S
C585 H555 0.950 . S
C585 C580 1.363 1_455 S
C585 C584 1.415 1_455 S
H586 C583 0.999 . S
H587 C568 0.913 . S
H588 C606 0.951 . S
H589 C608 0.951 . S
H590 C610 0.950 . S
H591 C611 0.950 . S
H592 C613 0.950 . S
H593 C616 0.950 . S
H594 C617 0.950 . S
H595 C619 0.960 . S
H596 C620 0.943 1_554 S
H597 C621 0.951 . S
H598 C623 0.951 . S
H599 C625 0.950 . S
H600 C626 0.950 . S
H601 C628 0.950 . S
H602 C631 0.950 . S
H603 C632 0.950 . S
H604 C634 0.950 . S
H605 C635 0.950 1_556 S
C606 H588 0.951 . S
C606 C607 1.366 . S
C606 C608 1.388 . S
C607 C606 1.366 . S
C607 C611 1.385 . S
C608 H589 0.951 . S
C608 C606 1.388 . S
C608 C609 1.366 . S
C609 C608 1.366 . S
C609 C610 1.414 . S
C609 C612 1.499 . S
C610 H590 0.950 . S
C610 C609 1.414 . S
C610 C611 1.374 . S
C611 H591 0.950 . S
C611 C607 1.385 . S
C611 C610 1.374 . S
C612 C609 1.499 . S
C612 C613 1.373 . S
C612 C614 1.389 1_545 S
C613 H592 0.950 . S
C613 C612 1.373 . S
C613 C629 1.377 1_556 S
C614 C612 1.389 1_565 S
C614 C615 1.524 . S
C614 C628 1.377 1_556 S
C615 C614 1.524 . S
C615 C616 1.397 . S
C615 C620 1.372 . S
C616 H593 0.950 . S
C616 C615 1.397 . S
C616 C617 1.334 . S
C617 H594 0.950 . S
C617 C616 1.334 . S
C617 C618 1.287 . S
C618 C617 1.287 . S
C618 C619 1.524 . S
C618 H637 0.913 . S
C619 H595 0.960 . S
C619 C618 1.524 . S
C619 C620 1.413 . S
C620 H596 0.943 1_556 S
C620 C615 1.372 . S
C620 C619 1.413 . S
C621 H597 0.951 . S
C621 C622 1.366 . S
C621 C623 1.388 . S
C622 C621 1.366 . S
C622 C626 1.385 . S
C623 H598 0.951 . S
C623 C621 1.388 . S
C623 C624 1.366 . S
C624 C623 1.366 . S
C624 C625 1.414 . S
C624 C627 1.499 . S
C625 H599 0.950 . S
C625 C624 1.414 . S
C625 C626 1.374 . S
C626 H600 0.950 . S
C626 C622 1.385 . S
C626 C625 1.374 . S
C627 C624 1.499 . S
C627 C628 1.373 . S
C627 C629 1.389 1_565 S
C628 H601 0.950 . S
C628 C614 1.377 1_554 S
C628 C627 1.373 . S
C629 C613 1.377 1_554 S
C629 C627 1.389 1_545 S
C629 C630 1.524 . S
C630 C629 1.524 . S
C630 C631 1.397 . S
C630 C635 1.363 . S
C631 H602 0.950 . S
C631 C630 1.397 . S
C631 C632 1.334 . S
C632 H603 0.950 . S
C632 C631 1.334 . S
C632 C633 1.287 . S
C633 C632 1.287 . S
C633 C634 1.524 . S
C633 H636 0.999 . S
C634 H604 0.950 . S
C634 C633 1.524 . S
C634 C635 1.415 . S
C635 H605 0.950 1_554 S
C635 C630 1.363 . S
C635 C634 1.415 . S
H636 C633 0.999 . S
H637 C618 0.913 . S
H638 C656 0.951 . S
H639 C658 0.951 . S
H640 C660 0.950 . S
H641 C661 0.950 . S
H642 C663 0.950 . S
H643 C666 0.950 . S
H644 C667 0.950 . S
H645 C669 0.950 . S
H646 C670 0.950 . S
H647 C671 0.951 . S
H648 C673 0.951 . S
H649 C675 0.950 . S
H650 C676 0.950 . S
H651 C678 0.950 . S
H652 C681 0.950 1_565 S
H653 C682 0.950 . S
H654 C684 0.950 . S
H655 C685 0.950 . S
C656 H638 0.951 . S
C656 C657 1.366 . S
C656 C658 1.388 . S
C657 C656 1.366 . S
C657 C661 1.385 . S
C658 H639 0.951 . S
C658 C656 1.388 . S
C658 C659 1.366 . S
C659 C658 1.366 . S
C659 C660 1.414 . S
C659 C662 1.499 . S
C660 H640 0.950 . S
C660 C659 1.414 . S
C660 C661 1.374 . S
C661 H641 0.950 . S
C661 C657 1.385 . S
C661 C660 1.374 . S
C662 C659 1.499 . S
C662 C663 1.373 . S
C662 C664 1.389 . S
C663 H642 0.950 . S
C663 C662 1.373 . S
C663 C679 1.377 1_565 S
C664 C662 1.389 . S
C664 C665 1.524 . S
C664 C678 1.377 1_565 S
C665 C664 1.524 . S
C665 C666 1.397 . S
C665 C670 1.363 . S
C666 H643 0.950 . S
C666 C665 1.397 . S
C666 C667 1.334 . S
C667 H644 0.950 . S
C667 C666 1.334 . S
C667 C668 1.287 . S
C668 C667 1.287 . S
C668 C669 1.524 . S
C668 H687 0.913 . S
C669 H645 0.950 . S
C669 C668 1.524 . S
C669 C670 1.415 . S
C670 H646 0.950 . S
C670 C665 1.363 . S
C670 C669 1.415 . S
C671 H647 0.951 . S
C671 C672 1.366 . S
C671 C673 1.388 . S
C672 C671 1.366 . S
C672 C676 1.385 . S
C673 H648 0.951 . S
C673 C671 1.388 . S
C673 C674 1.366 . S
C674 C673 1.366 . S
C674 C675 1.414 . S
C674 C677 1.499 . S
C675 H649 0.950 . S
C675 C674 1.414 . S
C675 C676 1.374 . S
C676 H650 0.950 . S
C676 C672 1.385 . S
C676 C675 1.374 . S
C677 C674 1.499 . S
C677 C678 1.373 . S
C677 C679 1.389 . S
C678 H651 0.950 . S
C678 C664 1.377 1_545 S
C678 C677 1.373 . S
C679 C663 1.377 1_545 S
C679 C677 1.389 . S
C679 C680 1.524 . S
C680 C679 1.524 . S
C680 C681 1.397 . S
C680 C685 1.363 . S
C681 H652 0.950 1_545 S
C681 C680 1.397 . S
C681 C682 1.334 . S
C682 H653 0.950 . S
C682 C681 1.334 . S
C682 C683 1.287 . S
C683 C682 1.287 . S
C683 C684 1.524 . S
C683 H686 0.999 . S
C684 H654 0.950 . S
C684 C683 1.524 . S
C684 C685 1.415 . S
C685 H655 0.950 . S
C685 C680 1.363 . S
C685 C684 1.415 . S
H686 C683 0.999 . S
H687 C668 0.913 . S
H688 C706 0.951 . S
H689 C708 0.951 . S
H690 C710 0.950 . S
H691 C711 0.950 . S
H692 C713 0.950 . S
H693 C716 0.950 . S
H694 C717 0.950 . S
H695 C719 0.950 . S
H696 C720 0.950 . S
H697 C721 0.951 . S
H698 C723 0.951 . S
H699 C725 0.950 . S
H700 C726 0.950 . S
H701 C728 0.950 . S
H702 C731 0.950 . S
H703 C732 0.950 . S
H704 C734 0.950 . S
H705 C735 0.950 . S
C706 H688 0.951 . S
C706 C707 1.366 . S
C706 C708 1.388 . S
C707 C706 1.366 . S
C707 C711 1.385 . S
C708 H689 0.951 . S
C708 C706 1.388 . S
C708 C709 1.366 . S
C709 C708 1.366 . S
C709 C710 1.414 . S
C709 C712 1.499 . S
C710 H690 0.950 . S
C710 C709 1.414 . S
C710 C711 1.374 . S
C711 H691 0.950 . S
C711 C707 1.385 . S
C711 C710 1.374 . S
C712 C709 1.499 . S
C712 C713 1.373 . S
C712 C714 1.389 . S
C713 H692 0.950 . S
C713 C712 1.373 . S
C713 C729 1.377 . S
C714 C712 1.389 . S
C714 C715 1.524 . S
C714 C728 1.377 . S
C715 C714 1.524 . S
C715 C716 1.397 . S
C715 C720 1.363 . S
C716 H693 0.950 . S
C716 C715 1.397 . S
C716 C717 1.334 . S
C717 H694 0.950 . S
C717 C716 1.334 . S
C717 C718 1.287 . S
C718 C717 1.287 . S
C718 C719 1.524 . S
C718 H737 0.913 . S
C719 H695 0.950 . S
C719 C718 1.524 . S
C719 C720 1.415 . S
C720 H696 0.950 . S
C720 C715 1.363 . S
C720 C719 1.415 . S
C721 H697 0.951 . S
C721 C722 1.366 . S
C721 C723 1.388 . S
C722 C721 1.366 . S
C722 C726 1.385 . S
C723 H698 0.951 . S
C723 C721 1.388 . S
C723 C724 1.366 . S
C724 C723 1.366 . S
C724 C725 1.414 . S
C724 C727 1.499 . S
C725 H699 0.950 . S
C725 C724 1.414 . S
C725 C726 1.374 . S
C726 H700 0.950 . S
C726 C722 1.385 . S
C726 C725 1.374 . S
C727 C724 1.499 . S
C727 C728 1.373 . S
C727 C729 1.389 . S
C728 H701 0.950 . S
C728 C714 1.377 . S
C728 C727 1.373 . S
C729 C713 1.377 . S
C729 C727 1.389 . S
C729 C730 1.524 . S
C730 C729 1.524 . S
C730 C731 1.397 . S
C730 C735 1.363 . S
C731 H702 0.950 . S
C731 C730 1.397 . S
C731 C732 1.334 . S
C732 H703 0.950 . S
C732 C731 1.334 . S
C732 C733 1.287 . S
C733 C732 1.287 . S
C733 C734 1.524 . S
C733 H736 0.999 . S
C734 H704 0.950 . S
C734 C733 1.524 . S
C734 C735 1.415 . S
C735 H705 0.950 . S
C735 C730 1.363 . S
C735 C734 1.415 . S
H736 C733 0.999 . S
H737 C718 0.913 . S
H738 C756 0.951 . S
H739 C758 0.951 . S
H740 C760 0.950 . S
H741 C761 0.950 . S
H742 C763 0.950 . S
H743 C766 0.950 . S
H744 C767 0.950 . S
H745 C769 0.950 . S
H746 C770 0.950 . S
H747 C771 0.951 . S
H748 C773 0.951 . S
H749 C775 0.950 . S
H750 C776 0.950 . S
H751 C778 0.950 . S
H752 C781 0.950 . S
H753 C782 0.950 . S
H754 C784 0.950 . S
H755 C785 0.950 . S
C756 H738 0.951 . S
C756 C757 1.366 . S
C756 C758 1.388 . S
C757 C756 1.366 . S
C757 C761 1.385 . S
C758 H739 0.951 . S
C758 C756 1.388 . S
C758 C759 1.366 . S
C759 C758 1.366 . S
C759 C760 1.414 . S
C759 C762 1.499 . S
C760 H740 0.950 . S
C760 C759 1.414 . S
C760 C761 1.374 . S
C761 H741 0.950 . S
C761 C757 1.385 . S
C761 C760 1.374 . S
C762 C759 1.499 . S
C762 C763 1.373 . S
C762 C764 1.389 . S
C763 H742 0.950 . S
C763 C762 1.373 . S
C763 C779 1.377 1_556 S
C764 C762 1.389 . S
C764 C765 1.524 . S
C764 C778 1.377 1_556 S
C765 C764 1.524 . S
C765 C766 1.397 . S
C765 C770 1.363 . S
C766 H743 0.950 . S
C766 C765 1.397 . S
C766 C767 1.334 . S
C767 H744 0.950 . S
C767 C766 1.334 . S
C767 C768 1.287 . S
C768 C767 1.287 . S
C768 C769 1.524 . S
C768 H787 0.913 . S
C769 H745 0.950 . S
C769 C768 1.524 . S
C769 C770 1.415 . S
C770 H746 0.950 . S
C770 C765 1.363 . S
C770 C769 1.415 . S
C771 H747 0.951 . S
C771 C772 1.366 . S
C771 C773 1.388 . S
C772 C771 1.366 . S
C772 C776 1.385 . S
C773 H748 0.951 . S
C773 C771 1.388 . S
C773 C774 1.366 . S
C774 C773 1.366 . S
C774 C775 1.414 . S
C774 C777 1.499 . S
C775 H749 0.950 . S
C775 C774 1.414 . S
C775 C776 1.374 . S
C776 H750 0.950 . S
C776 C772 1.385 . S
C776 C775 1.374 . S
C777 C774 1.499 . S
C777 C778 1.373 . S
C777 C779 1.389 . S
C778 H751 0.950 . S
C778 C764 1.377 1_554 S
C778 C777 1.373 . S
C779 C763 1.377 1_554 S
C779 C777 1.389 . S
C779 C780 1.524 . S
C780 C779 1.524 . S
C780 C781 1.397 . S
C780 C785 1.363 . S
C781 H752 0.950 . S
C781 C780 1.397 . S
C781 C782 1.334 . S
C782 H753 0.950 . S
C782 C781 1.334 . S
C782 C783 1.287 . S
C783 C782 1.287 . S
C783 C784 1.524 . S
C783 H786 0.999 . S
C784 H754 0.950 . S
C784 C783 1.524 . S
C784 C785 1.415 . S
C785 H755 0.950 . S
C785 C780 1.363 . S
C785 C784 1.415 . S
H786 C783 0.999 . S
H787 C768 0.913 . S
H788 C806 0.951 . S
H789 C808 0.951 . S
H790 C810 0.950 . S
H791 C811 0.950 . S
H792 C813 0.950 . S
H793 C816 0.950 . S
H794 C817 0.950 . S
H795 C819 0.950 . S
H796 C820 0.950 . S
H797 C821 0.951 . S
H798 C823 0.951 . S
H799 C825 0.950 . S
H800 C826 0.950 . S
H801 C828 0.950 . S
H802 C831 0.950 . S
H803 C832 0.950 . S
H804 C834 0.950 . S
H805 C835 0.950 . S
C806 H788 0.951 . S
C806 C807 1.366 . S
C806 C808 1.388 . S
C807 C806 1.366 . S
C807 C811 1.385 . S
C808 H789 0.951 . S
C808 C806 1.388 . S
C808 C809 1.366 . S
C809 C808 1.366 . S
C809 C810 1.414 . S
C809 C812 1.499 . S
C810 H790 0.950 . S
C810 C809 1.414 . S
C810 C811 1.374 . S
C811 H791 0.950 . S
C811 C807 1.385 . S
C811 C810 1.374 . S
C812 C809 1.499 . S
C812 C813 1.373 . S
C812 C814 1.389 . S
C813 H792 0.950 . S
C813 C812 1.373 . S
C813 C829 1.377 . S
C814 C812 1.389 . S
C814 C815 1.524 . S
C814 C828 1.377 . S
C815 C814 1.524 . S
C815 C816 1.397 . S
C815 C820 1.363 . S
C816 H793 0.950 . S
C816 C815 1.397 . S
C816 C817 1.334 . S
C817 H794 0.950 . S
C817 C816 1.334 . S
C817 C818 1.287 . S
C818 C817 1.287 . S
C818 C819 1.524 . S
C818 H837 0.913 . S
C819 H795 0.950 . S
C819 C818 1.524 . S
C819 C820 1.415 . S
C820 H796 0.950 . S
C820 C815 1.363 . S
C820 C819 1.415 . S
C821 H797 0.951 . S
C821 C822 1.366 . S
C821 C823 1.388 . S
C822 C821 1.366 . S
C822 C826 1.385 . S
C823 H798 0.951 . S
C823 C821 1.388 . S
C823 C824 1.366 . S
C824 C823 1.366 . S
C824 C825 1.414 . S
C824 C827 1.499 . S
C825 H799 0.950 . S
C825 C824 1.414 . S
C825 C826 1.374 . S
C826 H800 0.950 . S
C826 C822 1.385 . S
C826 C825 1.374 . S
C827 C824 1.499 . S
C827 C828 1.373 . S
C827 C829 1.389 . S
C828 H801 0.950 . S
C828 C814 1.377 . S
C828 C827 1.373 . S
C829 C813 1.377 . S
C829 C827 1.389 . S
C829 C830 1.524 . S
C830 C829 1.524 . S
C830 C831 1.397 . S
C830 C835 1.363 . S
C831 H802 0.950 . S
C831 C830 1.397 . S
C831 C832 1.334 . S
C832 H803 0.950 . S
C832 C831 1.334 . S
C832 C833 1.287 . S
C833 C832 1.287 . S
C833 C834 1.524 . S
C833 H836 0.999 . S
C834 H804 0.950 . S
C834 C833 1.524 . S
C834 C835 1.415 . S
C835 H805 0.950 . S
C835 C830 1.363 . S
C835 C834 1.415 . S
H836 C833 0.999 . S
H837 C818 0.913 . S
H838 C856 0.951 . S
H839 C858 0.951 . S
H840 C860 0.950 . S
H841 C861 0.950 . S
H842 C863 0.950 . S
H843 C866 0.950 . S
H844 C867 0.950 . S
H845 C869 0.950 . S
H846 C870 0.950 . S
H847 C871 0.951 . S
H848 C873 0.951 . S
H849 C875 0.950 . S
H850 C876 0.950 . S
H851 C878 0.950 . S
H852 C881 0.950 . S
H853 C882 0.950 . S
H854 C884 0.950 1_554 S
H855 C885 0.939 1_554 S
C856 H838 0.951 . S
C856 C857 1.366 . S
C856 C858 1.388 . S
C857 C856 1.366 . S
C857 C861 1.385 . S
C858 H839 0.951 . S
C858 C856 1.388 . S
C858 C859 1.366 . S
C859 C858 1.366 . S
C859 C860 1.414 . S
C859 C862 1.499 . S
C860 H840 0.950 . S
C860 C859 1.414 . S
C860 C861 1.374 . S
C861 H841 0.950 . S
C861 C857 1.385 . S
C861 C860 1.374 . S
C862 C859 1.499 . S
C862 C863 1.373 . S
C862 C864 1.389 1_554 S
C863 H842 0.950 . S
C863 C862 1.373 . S
C863 C879 1.377 1_554 S
C864 C862 1.389 1_556 S
C864 C865 1.524 1_556 S
C864 C878 1.377 . S
C865 C864 1.524 1_554 S
C865 C866 1.397 . S
C865 C870 1.363 1_554 S
C866 H843 0.950 . S
C866 C865 1.397 . S
C866 C867 1.334 . S
C867 H844 0.950 . S
C867 C866 1.334 . S
C867 C868 1.287 . S
C868 C867 1.287 . S
C868 C869 1.524 1_554 S
C868 H887 0.913 . S
C869 H845 0.950 . S
C869 C868 1.524 1_556 S
C869 C870 1.415 . S
C870 H846 0.950 . S
C870 C865 1.363 1_556 S
C870 C869 1.415 . S
C871 H847 0.951 . S
C871 C872 1.366 . S
C871 C873 1.388 . S
C872 C871 1.366 . S
C872 C876 1.385 . S
C873 H848 0.951 . S
C873 C871 1.388 . S
C873 C874 1.366 . S
C874 C873 1.366 . S
C874 C875 1.414 . S
C874 C877 1.499 . S
C875 H849 0.950 . S
C875 C874 1.414 . S
C875 C876 1.374 . S
C876 H850 0.950 . S
C876 C872 1.385 . S
C876 C875 1.374 . S
C877 C874 1.499 . S
C877 C878 1.373 . S
C877 C879 1.389 . S
C878 H851 0.950 . S
C878 C864 1.377 . S
C878 C877 1.373 . S
C879 C863 1.377 1_556 S
C879 C877 1.389 . S
C879 C880 1.524 . S
C880 C879 1.524 . S
C880 C881 1.397 . S
C880 C885 1.365 . S
C881 H852 0.950 . S
C881 C880 1.397 . S
C881 C882 1.334 . S
C882 H853 0.950 . S
C882 C881 1.334 . S
C882 C883 1.287 . S
C883 C882 1.287 . S
C883 C884 1.524 . S
C883 H886 0.999 . S
C884 H854 0.950 1_556 S
C884 C883 1.524 . S
C884 C885 1.425 . S
C885 H855 0.939 1_556 S
C885 C880 1.365 . S
C885 C884 1.425 . S
H886 C883 0.999 . S
H887 C868 0.913 . S
H888 C906 0.951 . S
H889 C908 0.951 . S
H890 C910 0.950 . S
H891 C911 0.950 . S
H892 C913 0.950 . S
H893 C916 0.950 . S
H894 C917 0.950 . S
H895 C919 0.950 . S
H896 C920 0.950 . S
H897 C921 0.951 . S
H898 C923 0.951 . S
H899 C925 0.950 . S
H900 C926 0.950 . S
H901 C928 0.950 . S
H902 C931 0.950 . S
H903 C932 0.950 . S
H904 C934 0.950 . S
H905 C935 0.950 . S
C906 H888 0.951 . S
C906 C907 1.366 . S
C906 C908 1.388 . S
C907 C906 1.366 . S
C907 C911 1.385 . S
C908 H889 0.951 . S
C908 C906 1.388 . S
C908 C909 1.366 . S
C909 C908 1.366 . S
C909 C910 1.414 . S
C909 C912 1.499 . S
C910 H890 0.950 . S
C910 C909 1.414 . S
C910 C911 1.374 . S
C911 H891 0.950 . S
C911 C907 1.385 . S
C911 C910 1.374 . S
C912 C909 1.499 . S
C912 C913 1.373 . S
C912 C914 1.389 . S
C913 H892 0.950 . S
C913 C912 1.373 . S
C913 C929 1.377 . S
C914 C912 1.389 . S
C914 C915 1.524 . S
C914 C928 1.377 . S
C915 C914 1.524 . S
C915 C916 1.397 . S
C915 C920 1.363 . S
C916 H893 0.950 . S
C916 C915 1.397 . S
C916 C917 1.334 . S
C917 H894 0.950 . S
C917 C916 1.334 . S
C917 C918 1.287 . S
C918 C917 1.287 . S
C918 C919 1.524 . S
C918 H937 0.913 . S
C919 H895 0.950 . S
C919 C918 1.524 . S
C919 C920 1.415 . S
C920 H896 0.950 . S
C920 C915 1.363 . S
C920 C919 1.415 . S
C921 H897 0.951 . S
C921 C922 1.366 . S
C921 C923 1.388 . S
C922 C921 1.366 . S
C922 C926 1.385 . S
C923 H898 0.951 . S
C923 C921 1.388 . S
C923 C924 1.366 . S
C924 C923 1.366 . S
C924 C925 1.414 . S
C924 C927 1.499 . S
C925 H899 0.950 . S
C925 C924 1.414 . S
C925 C926 1.374 . S
C926 H900 0.950 . S
C926 C922 1.385 . S
C926 C925 1.374 . S
C927 C924 1.499 . S
C927 C928 1.373 . S
C927 C929 1.389 . S
C928 H901 0.950 . S
C928 C914 1.377 . S
C928 C927 1.373 . S
C929 C913 1.377 . S
C929 C927 1.389 . S
C929 C930 1.524 . S
C930 C929 1.524 . S
C930 C931 1.397 . S
C930 C935 1.363 . S
C931 H902 0.950 . S
C931 C930 1.397 . S
C931 C932 1.334 . S
C932 H903 0.950 . S
C932 C931 1.334 . S
C932 C933 1.287 . S
C933 C932 1.287 . S
C933 C934 1.524 . S
C933 H936 0.999 . S
C934 H904 0.950 . S
C934 C933 1.524 . S
C934 C935 1.415 . S
C935 H905 0.950 . S
C935 C930 1.363 . S
C935 C934 1.415 . S
H936 C933 0.999 . S
H937 C918 0.913 . S
H938 C956 0.951 . S
H939 C958 0.951 . S
H940 C960 0.950 . S
H941 C961 0.950 . S
H942 C963 0.950 . S
H943 C966 0.950 . S
H944 C967 0.950 . S
H945 C969 0.950 . S
H946 C970 0.950 . S
H947 C971 0.951 . S
H948 C973 0.951 . S
H949 C975 0.950 . S
H950 C976 0.950 . S
H951 C978 0.950 . S
H952 C981 0.950 . S
H953 C982 0.950 . S
H954 C984 0.950 . S
H955 C985 0.950 . S
C956 H938 0.951 . S
C956 C957 1.366 . S
C956 C958 1.388 . S
C957 C956 1.366 . S
C957 C961 1.385 . S
C958 H939 0.951 . S
C958 C956 1.388 . S
C958 C959 1.366 . S
C959 C958 1.366 . S
C959 C960 1.414 . S
C959 C962 1.499 . S
C960 H940 0.950 . S
C960 C959 1.414 . S
C960 C961 1.374 . S
C961 H941 0.950 . S
C961 C957 1.385 . S
C961 C960 1.374 . S
C962 C959 1.499 . S
C962 C963 1.373 . S
C962 C964 1.389 . S
C963 H942 0.950 . S
C963 C962 1.373 . S
C963 C979 1.377 . S
C964 C962 1.389 . S
C964 C965 1.524 . S
C964 C978 1.377 . S
C965 C964 1.524 . S
C965 C966 1.397 . S
C965 C970 1.363 . S
C966 H943 0.950 . S
C966 C965 1.397 . S
C966 C967 1.334 . S
C967 H944 0.950 . S
C967 C966 1.334 . S
C967 C968 1.287 . S
C968 C967 1.287 . S
C968 C969 1.524 . S
C968 H987 0.913 . S
C969 H945 0.950 . S
C969 C968 1.524 . S
C969 C970 1.415 . S
C970 H946 0.950 . S
C970 C965 1.363 . S
C970 C969 1.415 . S
C971 H947 0.951 . S
C971 C972 1.366 . S
C971 C973 1.388 . S
C972 C971 1.366 . S
C972 C976 1.385 . S
C973 H948 0.951 . S
C973 C971 1.388 . S
C973 C974 1.366 . S
C974 C973 1.366 . S
C974 C975 1.414 . S
C974 C977 1.499 . S
C975 H949 0.950 . S
C975 C974 1.414 . S
C975 C976 1.374 . S
C976 H950 0.950 . S
C976 C972 1.385 . S
C976 C975 1.374 . S
C977 C974 1.499 . S
C977 C978 1.373 . S
C977 C979 1.389 . S
C978 H951 0.950 . S
C978 C964 1.377 . S
C978 C977 1.373 . S
C979 C963 1.377 . S
C979 C977 1.389 . S
C979 C980 1.524 . S
C980 C979 1.524 . S
C980 C981 1.397 . S
C980 C985 1.363 . S
C981 H952 0.950 . S
C981 C980 1.397 . S
C981 C982 1.334 . S
C982 H953 0.950 . S
C982 C981 1.334 . S
C982 C983 1.287 . S
C983 C982 1.287 . S
C983 C984 1.524 . S
C983 H986 0.999 . S
C984 H954 0.950 . S
C984 C983 1.524 . S
C984 C985 1.415 . S
C985 H955 0.950 . S
C985 C980 1.363 . S
C985 C984 1.415 . S
H986 C983 0.999 . S
H987 C968 0.913 . S
H988 C1006 0.951 . S
H989 C1008 0.951 . S
H990 C1010 0.950 . S
H991 C1011 0.950 . S
H992 C1013 0.950 . S
H993 C1016 0.950 . S
H994 C1017 0.950 . S
H995 C1019 0.950 . S
H996 C1020 0.950 1_655 S
H997 C1021 0.951 . S
H998 C1023 0.951 . S
H999 C1025 0.950 . S
H1000 C1026 0.950 . S
H1001 C1028 0.950 . S
H1002 C1031 0.950 . S
H1003 C1032 0.950 . S
H1004 C1034 0.950 . S
H1005 C1035 0.950 1_455 S
C1006 H988 0.951 . S
C1006 C1007 1.366 . S
C1006 C1008 1.388 . S
C1007 C1006 1.366 . S
C1007 C1011 1.385 . S
C1008 H989 0.951 . S
C1008 C1006 1.388 . S
C1008 C1009 1.366 . S
C1009 C1008 1.366 . S
C1009 C1010 1.414 . S
C1009 C1012 1.499 . S
C1010 H990 0.950 . S
C1010 C1009 1.414 . S
C1010 C1011 1.374 . S
C1011 H991 0.950 . S
C1011 C1007 1.385 . S
C1011 C1010 1.374 . S
C1012 C1009 1.499 . S
C1012 C1013 1.373 . S
C1012 C1014 1.389 . S
C1013 H992 0.950 . S
C1013 C1012 1.373 . S
C1013 C1029 1.377 1_455 S
C1014 C1012 1.389 . S
C1014 C1015 1.524 . S
C1014 C1028 1.377 1_455 S
C1015 C1014 1.524 . S
C1015 C1016 1.397 . S
C1015 C1020 1.363 . S
C1016 H993 0.950 . S
C1016 C1015 1.397 . S
C1016 C1017 1.334 . S
C1017 H994 0.950 . S
C1017 C1016 1.334 . S
C1017 C1018 1.287 . S
C1018 C1017 1.287 . S
C1018 C1019 1.524 . S
C1018 H1037 0.913 . S
C1019 H995 0.950 . S
C1019 C1018 1.524 . S
C1019 C1020 1.415 . S
C1020 H996 0.950 1_455 S
C1020 C1015 1.363 . S
C1020 C1019 1.415 . S
C1021 H997 0.951 . S
C1021 C1022 1.366 . S
C1021 C1023 1.388 . S
C1022 C1021 1.366 . S
C1022 C1026 1.385 . S
C1023 H998 0.951 . S
C1023 C1021 1.388 . S
C1023 C1024 1.366 . S
C1024 C1023 1.366 . S
C1024 C1025 1.414 . S
C1024 C1027 1.499 . S
C1025 H999 0.950 . S
C1025 C1024 1.414 . S
C1025 C1026 1.374 . S
C1026 H1000 0.950 . S
C1026 C1022 1.385 . S
C1026 C1025 1.374 . S
C1027 C1024 1.499 . S
C1027 C1028 1.373 . S
C1027 C1029 1.389 . S
C1028 H1001 0.950 . S
C1028 C1014 1.377 1_655 S
C1028 C1027 1.373 . S
C1029 C1013 1.377 1_655 S
C1029 C1027 1.389 . S
C1029 C1030 1.524 . S
C1030 C1029 1.524 . S
C1030 C1031 1.397 . S
C1030 C1035 1.363 . S
C1031 H1002 0.950 . S
C1031 C1030 1.397 . S
C1031 C1032 1.334 . S
C1032 H1003 0.950 . S
C1032 C1031 1.334 . S
C1032 C1033 1.287 . S
C1033 C1032 1.287 . S
C1033 C1034 1.524 . S
C1033 H1036 0.999 . S
C1034 H1004 0.950 . S
C1034 C1033 1.524 . S
C1034 C1035 1.415 . S
C1035 H1005 0.950 1_655 S
C1035 C1030 1.363 . S
C1035 C1034 1.415 . S
H1036 C1033 0.999 . S
H1037 C1018 0.913 . S
H1038 C1056 0.951 . S
H1039 C1058 0.951 . S
H1040 C1060 0.950 . S
H1041 C1061 0.950 . S
H1042 C1063 0.950 . S
H1043 C1066 0.950 . S
H1044 C1067 0.950 . S
H1045 C1069 0.950 . S
H1046 C1070 0.950 1_655 S
H1047 C1071 0.951 . S
H1048 C1073 0.951 . S
H1049 C1075 0.950 . S
H1050 C1076 0.950 . S
H1051 C1078 0.950 . S
H1052 C1081 0.950 . S
H1053 C1082 0.950 . S
H1054 C1084 0.950 . S
H1055 C1085 0.950 1_455 S
C1056 H1038 0.951 . S
C1056 C1057 1.366 . S
C1056 C1058 1.388 . S
C1057 C1056 1.366 . S
C1057 C1061 1.385 . S
C1058 H1039 0.951 . S
C1058 C1056 1.388 . S
C1058 C1059 1.366 . S
C1059 C1058 1.366 . S
C1059 C1060 1.414 . S
C1059 C1062 1.499 . S
C1060 H1040 0.950 . S
C1060 C1059 1.414 . S
C1060 C1061 1.374 . S
C1061 H1041 0.950 . S
C1061 C1057 1.385 . S
C1061 C1060 1.374 . S
C1062 C1059 1.499 . S
C1062 C1063 1.373 . S
C1062 C1064 1.389 . S
C1063 H1042 0.950 . S
C1063 C1062 1.373 . S
C1063 C1079 1.377 1_455 S
C1064 C1062 1.389 . S
C1064 C1065 1.524 . S
C1064 C1078 1.377 1_455 S
C1065 C1064 1.524 . S
C1065 C1066 1.397 . S
C1065 C1070 1.363 . S
C1066 H1043 0.950 . S
C1066 C1065 1.397 . S
C1066 C1067 1.334 . S
C1067 H1044 0.950 . S
C1067 C1066 1.334 . S
C1067 C1068 1.287 . S
C1068 C1067 1.287 . S
C1068 C1069 1.524 . S
C1068 H1087 0.913 . S
C1069 H1045 0.950 . S
C1069 C1068 1.524 . S
C1069 C1070 1.415 . S
C1070 H1046 0.950 1_455 S
C1070 C1065 1.363 . S
C1070 C1069 1.415 . S
C1071 H1047 0.951 . S
C1071 C1072 1.366 . S
C1071 C1073 1.388 . S
C1072 C1071 1.366 . S
C1072 C1076 1.385 . S
C1073 H1048 0.951 . S
C1073 C1071 1.388 . S
C1073 C1074 1.366 . S
C1074 C1073 1.366 . S
C1074 C1075 1.414 . S
C1074 C1077 1.499 . S
C1075 H1049 0.950 . S
C1075 C1074 1.414 . S
C1075 C1076 1.374 . S
C1076 H1050 0.950 . S
C1076 C1072 1.385 . S
C1076 C1075 1.374 . S
C1077 C1074 1.499 . S
C1077 C1078 1.373 . S
C1077 C1079 1.389 . S
C1078 H1051 0.950 . S
C1078 C1064 1.377 1_655 S
C1078 C1077 1.373 . S
C1079 C1063 1.377 1_655 S
C1079 C1077 1.389 . S
C1079 C1080 1.524 . S
C1080 C1079 1.524 . S
C1080 C1081 1.397 . S
C1080 C1085 1.363 . S
C1081 H1052 0.950 . S
C1081 C1080 1.397 . S
C1081 C1082 1.334 . S
C1082 H1053 0.950 . S
C1082 C1081 1.334 . S
C1082 C1083 1.287 . S
C1083 C1082 1.287 . S
C1083 C1084 1.524 . S
C1083 H1086 0.999 . S
C1084 H1054 0.950 . S
C1084 C1083 1.524 . S
C1084 C1085 1.415 . S
C1085 H1055 0.950 1_655 S
C1085 C1080 1.363 . S
C1085 C1084 1.415 . S
H1086 C1083 0.999 . S
H1087 C1068 0.913 . S
C307 C3 1.782 . S
C322 C76 1.794 . S
C357 C112 1.794 . S
C372 C39 1.782 . S
C407 C220 1.794 . S
C422 C147 1.782 . S
C457 C183 1.782 . S
C472 C256 1.794 . S
C507 C38 1.267 . S
C522 C122 1.201 . S
C557 C2 1.266 . S
C572 C86 1.201 . S
C607 C266 1.200 . S
C622 C182 1.266 . S
C657 C146 1.266 . S
C672 C230 1.201 . S
C707 C194 1.452 . S
C722 C110 1.504 . S
C757 C74 1.505 . S
C772 C158 1.452 . S
C807 C50 1.452 . S
C822 C254 1.504 . S
C857 C14 1.452 . S
C872 C218 1.505 . S
C907 C4 1.562 . S
C922 C40 1.562 . S
C957 C75 1.546 . S
C972 C111 1.546 . S
C1007 C184 1.562 . S
C1022 C148 1.562 . S
C1057 C219 1.546 . S
C1072 C255 1.546 . S
