# Generated by pormake.
# Topology wft, (7)-cn, num edge types: 1
# Building blocks:
#     Node 0, Type 0, BuildingBlock: HICVOG_clean_sbu_0, # of connection points: 7
#     Node 1, Type 0, BuildingBlock: HICVOG_clean_sbu_0, # of connection points: 7
#     Node 2, Type 0, BuildingBlock: HICVOG_clean_sbu_0, # of connection points: 7
#     Node 3, Type 0, BuildingBlock: HICVOG_clean_sbu_0, # of connection points: 7
#     Node 4, Type 0, BuildingBlock: HICVOG_clean_sbu_0, # of connection points: 7
#     Node 5, Type 0, BuildingBlock: HICVOG_clean_sbu_0, # of connection points: 7
#     Node 6, Type 0, BuildingBlock: HICVOG_clean_sbu_0, # of connection points: 7
#     Node 7, Type 0, BuildingBlock: HICVOG_clean_sbu_0, # of connection points: 7
#     Edge 8, Type (0, 0), BuildingBlock: KIFKEQ_clean_linker_1, # of connection points: 2
#     Edge 9, Type (0, 0), BuildingBlock: KIFKEQ_clean_linker_1, # of connection points: 2
#     Edge 10, Type (0, 0), BuildingBlock: KIFKEQ_clean_linker_1, # of connection points: 2
#     Edge 11, Type (0, 0), BuildingBlock: KIFKEQ_clean_linker_1, # of connection points: 2
#     Edge 12, Type (0, 0), BuildingBlock: KIFKEQ_clean_linker_1, # of connection points: 2
#     Edge 13, Type (0, 0), BuildingBlock: KIFKEQ_clean_linker_1, # of connection points: 2
#     Edge 14, Type (0, 0), BuildingBlock: KIFKEQ_clean_linker_1, # of connection points: 2
#     Edge 15, Type (0, 0), BuildingBlock: KIFKEQ_clean_linker_1, # of connection points: 2
#     Edge 16, Type (0, 0), BuildingBlock: KIFKEQ_clean_linker_1, # of connection points: 2
#     Edge 17, Type (0, 0), BuildingBlock: KIFKEQ_clean_linker_1, # of connection points: 2
#     Edge 18, Type (0, 0), BuildingBlock: KIFKEQ_clean_linker_1, # of connection points: 2
#     Edge 19, Type (0, 0), BuildingBlock: KIFKEQ_clean_linker_1, # of connection points: 2
#     Edge 20, Type (0, 0), BuildingBlock: KIFKEQ_clean_linker_1, # of connection points: 2
#     Edge 21, Type (0, 0), BuildingBlock: KIFKEQ_clean_linker_1, # of connection points: 2
#     Edge 22, Type (0, 0), BuildingBlock: KIFKEQ_clean_linker_1, # of connection points: 2
#     Edge 23, Type (0, 0), BuildingBlock: KIFKEQ_clean_linker_1, # of connection points: 2
#     Edge 24, Type (0, 0), BuildingBlock: KIFKEQ_clean_linker_1, # of connection points: 2
#     Edge 25, Type (0, 0), BuildingBlock: KIFKEQ_clean_linker_1, # of connection points: 2
#     Edge 26, Type (0, 0), BuildingBlock: KIFKEQ_clean_linker_1, # of connection points: 2
#     Edge 27, Type (0, 0), BuildingBlock: KIFKEQ_clean_linker_1, # of connection points: 2
#     Edge 28, Type (0, 0), BuildingBlock: KIFKEQ_clean_linker_1, # of connection points: 2
#     Edge 29, Type (0, 0), BuildingBlock: KIFKEQ_clean_linker_1, # of connection points: 2
#     Edge 30, Type (0, 0), BuildingBlock: KIFKEQ_clean_linker_1, # of connection points: 2
#     Edge 31, Type (0, 0), BuildingBlock: KIFKEQ_clean_linker_1, # of connection points: 2
#     Edge 32, Type (0, 0), BuildingBlock: KIFKEQ_clean_linker_1, # of connection points: 2
#     Edge 33, Type (0, 0), BuildingBlock: KIFKEQ_clean_linker_1, # of connection points: 2
#     Edge 34, Type (0, 0), BuildingBlock: KIFKEQ_clean_linker_1, # of connection points: 2
#     Edge 35, Type (0, 0), BuildingBlock: KIFKEQ_clean_linker_1, # of connection points: 2
# Relax obj value: 0.197
# Max RMSD: 0.212
# Mean RMSD: 0.212
data_MOF--net-wft--node1-HICVOG_clean_sbu_0--edge1-KIFKEQ_clean_linker_1
_symmetry_space_group_name_H-M    P1
_symmetry_Int_Tables_number       1
_symmetry_cell_setting            triclinic
loop_
_symmetry_equiv_pos_as_xyz
'x, y, z'
_cell_length_a     32.507197
_cell_length_b     32.439237
_cell_length_c     30.668287
_cell_angle_alpha  89.826646
_cell_angle_beta   89.772238
_cell_angle_gamma 89.931176
loop_
_atom_site_label
_atom_site_type_symbol
_atom_site_fract_x
_atom_site_fract_y
_atom_site_fract_z
_atom_type_partial_charge
Zn0 Zn 0.32738 0.31043 0.35602 0.0
C1 C 0.33016 0.27756 0.22876 0.0
N2 N 0.28903 0.27693 0.23303 0.0
C3 C 0.28332 0.28516 0.27553 0.0
N4 N 0.31969 0.29068 0.29637 0.0
N5 N 0.34936 0.28499 0.26685 0.0
C6 C 0.47846 0.29429 0.23826 0.0
O7 O 0.47158 0.32471 0.26553 0.0
O8 O 0.29512 0.27811 0.40147 0.0
Zn9 Zn 0.40404 0.26172 0.27926 0.0
N10 N 0.31316 0.36853 0.3573 0.0
C11 C 0.30331 0.43082 0.31765 0.0
C12 C 0.31132 0.38873 0.31845 0.0
C13 C 0.30853 0.38907 0.39571 0.0
N14 N 0.29878 0.45134 0.3558 0.0
C15 C 0.30147 0.43202 0.39521 0.0
O16 O 0.431 0.28066 0.33439 0.0
C17 C 0.42188 0.29764 0.37033 0.0
O18 O 0.38526 0.30855 0.3791 0.0
H19 H 0.31603 0.37229 0.28826 0.0
H20 H 0.31064 0.37196 0.42592 0.0
C21 C 0.42675 0.17733 0.2789 0.0
C22 C 0.42047 0.13461 0.28182 0.0
C23 C 0.35017 0.14647 0.29879 0.0
C24 C 0.35667 0.18883 0.29621 0.0
N25 N 0.39473 0.20339 0.28599 0.0
N26 N 0.38209 0.12039 0.29147 0.0
H27 H 0.4565 0.18994 0.27035 0.0
C28 C 0.31227 0.24538 0.41564 0.0
O29 O 0.34521 0.23164 0.39538 0.0
O30 O 0.45057 0.26699 0.23347 0.0
H31 H 0.33144 0.20976 0.30203 0.0
H32 H 0.3013 0.44724 0.28698 0.0
H33 H 0.32001 0.13438 0.30657 0.0
Zn34 Zn 0.25942 0.6516 0.73753 0.0
C35 C 0.28968 0.77118 0.74208 0.0
N36 N 0.2812 0.76614 0.78465 0.0
C37 C 0.27892 0.72496 0.78892 0.0
N38 N 0.28481 0.70524 0.75065 0.0
N39 N 0.29256 0.73449 0.72117 0.0
C40 C 0.24775 0.74346 0.60318 0.0
O41 O 0.23307 0.71156 0.62462 0.0
O42 O 0.26227 0.60482 0.78304 0.0
Zn43 Zn 0.31242 0.72616 0.66154 0.0
N44 N 0.20182 0.6633 0.72907 0.0
C45 C 0.147 0.70998 0.71485 0.0
C46 C 0.18872 0.70243 0.72116 0.0
C47 C 0.17493 0.63136 0.73079 0.0
N48 N 0.12013 0.67804 0.71627 0.0
C49 C 0.1328 0.63863 0.72384 0.0
O50 O 0.30845 0.66843 0.63857 0.0
C51 C 0.29613 0.63214 0.64683 0.0
O52 O 0.27829 0.6235 0.68254 0.0
H53 H 0.21031 0.72762 0.71962 0.0
H54 H 0.18661 0.60088 0.73794 0.0
C55 C 0.39255 0.73739 0.6219 0.0
C56 C 0.43584 0.73855 0.62275 0.0
C57 C 0.43371 0.74085 0.70008 0.0
C58 C 0.39099 0.73853 0.69916 0.0
N59 N 0.37113 0.73717 0.66022 0.0
N60 N 0.45508 0.74032 0.66204 0.0
H61 H 0.37616 0.73443 0.59141 0.0
C62 C 0.29039 0.57747 0.77984 0.0
O63 O 0.32226 0.58514 0.75463 0.0
O64 O 0.28138 0.75947 0.61605 0.0
H65 H 0.37386 0.73704 0.72937 0.0
H66 H 0.13605 0.74094 0.70864 0.0
H67 H 0.44986 0.742 0.73082 0.0
Zn68 Zn 0.65155 0.78992 0.28066 0.0
C69 C 0.77119 0.75834 0.26962 0.0
N70 N 0.76399 0.76257 0.22676 0.0
C71 C 0.72291 0.76721 0.22523 0.0
N72 N 0.70533 0.76587 0.26523 0.0
N73 N 0.73589 0.7593 0.29326 0.0
C74 C 0.74148 0.80736 0.414 0.0
O75 O 0.70592 0.81725 0.39669 0.0
O76 O 0.60264 0.78354 0.23712 0.0
Zn77 Zn 0.7314 0.74078 0.35423 0.0
N78 N 0.66274 0.84828 0.28813 0.0
C79 C 0.70851 0.90181 0.30942 0.0
C80 C 0.70002 0.86006 0.30375 0.0
C81 C 0.63386 0.87681 0.27747 0.0
N82 N 0.6791 0.93017 0.30002 0.0
C83 C 0.64163 0.91879 0.28453 0.0
O84 O 0.67419 0.73809 0.37905 0.0
C85 C 0.63741 0.74917 0.37182 0.0
O86 O 0.6277 0.76823 0.33717 0.0
H87 H 0.72305 0.83734 0.31178 0.0
H88 H 0.60523 0.86701 0.26335 0.0
C89 C 0.74839 0.66336 0.39662 0.0
C90 C 0.75868 0.62104 0.39844 0.0
C91 C 0.7754 0.6234 0.32286 0.0
C92 C 0.76386 0.66459 0.32107 0.0
N93 N 0.75121 0.68409 0.35796 0.0
N94 N 0.77229 0.60272 0.36114 0.0
H95 H 0.73762 0.67986 0.42498 0.0
C96 C 0.5678 0.79304 0.25409 0.0
O97 O 0.56663 0.80557 0.29471 0.0
O98 O 0.76132 0.77689 0.39818 0.0
H99 H 0.76412 0.6803 0.29013 0.0
H100 H 0.73806 0.91158 0.32175 0.0
H101 H 0.7858 0.60761 0.29381 0.0
Zn102 Zn 0.79127 0.40367 0.73417 0.0
C103 C 0.7604 0.28387 0.74676 0.0
N104 N 0.76447 0.29139 0.78958 0.0
C105 C 0.76918 0.33255 0.79083 0.0
N106 N 0.76802 0.34987 0.75077 0.0
N107 N 0.76131 0.31918 0.72295 0.0
C108 C 0.80861 0.32294 0.59805 0.0
O109 O 0.81199 0.36119 0.6114 0.0
O110 O 0.79272 0.45129 0.77904 0.0
Zn111 Zn 0.74371 0.32484 0.66187 0.0
N112 N 0.84754 0.39273 0.71747 0.0
C113 C 0.89889 0.34818 0.68836 0.0
C114 C 0.85834 0.35533 0.70107 0.0
C115 C 0.87576 0.42322 0.72198 0.0
N116 N 0.9271 0.37864 0.69282 0.0
C117 C 0.91681 0.41609 0.7096 0.0
O118 O 0.73612 0.38332 0.64029 0.0
C119 C 0.74464 0.42065 0.64872 0.0
O120 O 0.76476 0.43032 0.6825 0.0
H121 H 0.83572 0.33134 0.6973 0.0
H122 H 0.8659 0.45288 0.73423 0.0
C123 C 0.66869 0.30431 0.61735 0.0
C124 C 0.62668 0.29422 0.61517 0.0
C125 C 0.62725 0.27694 0.69028 0.0
C126 C 0.66839 0.28844 0.69277 0.0
N127 N 0.68862 0.30153 0.65632 0.0
N128 N 0.60721 0.28069 0.65182 0.0
H129 H 0.68469 0.31661 0.58915 0.0
C130 C 0.76424 0.47849 0.77889 0.0
O131 O 0.7301 0.47041 0.7578 0.0
O132 O 0.78314 0.29908 0.61735 0.0
H133 H 0.68319 0.28849 0.72406 0.0
H134 H 0.90787 0.3187 0.67491 0.0
H135 H 0.6109 0.26657 0.71907 0.0
Zn136 Zn 0.89945 0.29261 0.23758 0.0
C137 C 0.78039 0.25628 0.24241 0.0
N138 N 0.78626 0.25577 0.28562 0.0
C139 C 0.82702 0.26195 0.28939 0.0
N140 N 0.84576 0.26613 0.25007 0.0
N141 N 0.81626 0.26115 0.22042 0.0
C142 C 0.80774 0.31059 0.10201 0.0
O143 O 0.84128 0.3233 0.12155 0.0
O144 O 0.94946 0.28327 0.2795 0.0
Zn145 Zn 0.82281 0.24363 0.15952 0.0
N146 N 0.88735 0.35146 0.23378 0.0
C147 C 0.84153 0.40532 0.21273 0.0
C148 C 0.85013 0.36347 0.21804 0.0
C149 C 0.91594 0.37996 0.24517 0.0
N150 N 0.871 0.43356 0.22199 0.0
C151 C 0.90842 0.42198 0.23758 0.0
O152 O 0.88007 0.24578 0.13491 0.0
C153 C 0.91596 0.25848 0.14365 0.0
O154 O 0.92388 0.2757 0.1797 0.0
H155 H 0.82734 0.34084 0.20928 0.0
H156 H 0.9444 0.37021 0.25974 0.0
C157 C 0.81105 0.16526 0.11688 0.0
C158 C 0.80652 0.12213 0.11586 0.0
C159 C 0.79388 0.12189 0.19203 0.0
C160 C 0.79962 0.16436 0.1932 0.0
N161 N 0.80789 0.18544 0.15572 0.0
N162 N 0.79797 0.10175 0.15364 0.0
H163 H 0.81916 0.1823 0.08768 0.0
C164 C 0.98323 0.29682 0.26306 0.0
O165 O 0.98236 0.3139 0.22422 0.0
O166 O 0.79043 0.27779 0.11584 0.0
H167 H 0.79892 0.17983 0.22419 0.0
H168 H 0.81204 0.41523 0.20027 0.0
H169 H 0.78743 0.10485 0.22165 0.0
Zn170 Zn 0.29567 0.15509 0.78415 0.0
C171 C 0.26064 0.27371 0.77257 0.0
N172 N 0.26572 0.26661 0.72976 0.0
C173 C 0.27162 0.22561 0.72833 0.0
N174 N 0.27018 0.208 0.76827 0.0
N175 N 0.26217 0.23836 0.79619 0.0
C176 C 0.30753 0.2412 0.91637 0.0
O177 O 0.31725 0.20622 0.89749 0.0
O178 O 0.2896 0.10503 0.74172 0.0
Zn179 Zn 0.24143 0.23318 0.8563 0.0
N180 N 0.35393 0.16735 0.792 0.0
C181 C 0.40617 0.21387 0.81509 0.0
C182 C 0.36479 0.20493 0.80779 0.0
C183 C 0.38316 0.1388 0.78231 0.0
N184 N 0.43508 0.18451 0.80731 0.0
C185 C 0.42463 0.1468 0.79154 0.0
O186 O 0.2365 0.17533 0.88016 0.0
C187 C 0.25101 0.13952 0.87351 0.0
O188 O 0.2734 0.13184 0.84051 0.0
H189 H 0.34158 0.2278 0.81488 0.0
H190 H 0.37446 0.11011 0.76749 0.0
C191 C 0.16448 0.25653 0.89691 0.0
C192 C 0.12273 0.26871 0.8973 0.0
C193 C 0.1259 0.27789 0.8204 0.0
C194 C 0.16649 0.26446 0.82012 0.0
N195 N 0.1854 0.25481 0.8583 0.0
N196 N 0.10507 0.27943 0.85868 0.0
H197 H 0.18028 0.24797 0.92653 0.0
C198 C 0.30187 0.07131 0.75932 0.0
O199 O 0.31593 0.07247 0.79935 0.0
O200 O 0.27713 0.26169 0.90156 0.0
H201 H 0.18226 0.26097 0.78941 0.0
H202 H 0.41516 0.24364 0.82765 0.0
H203 H 0.11066 0.28604 0.79028 0.0
Zn204 Zn 0.22505 0.81557 0.16343 0.0
C205 C 0.22104 0.78297 0.2909 0.0
N206 N 0.26193 0.78847 0.2883 0.0
C207 C 0.26814 0.79467 0.24547 0.0
N208 N 0.2323 0.79427 0.22295 0.0
N209 N 0.20257 0.786 0.25167 0.0
C210 C 0.07412 0.79376 0.27892 0.0
O211 O 0.08172 0.82554 0.2535 0.0
O212 O 0.25443 0.78161 0.11692 0.0
Zn213 Zn 0.14874 0.76221 0.23756 0.0
N214 N 0.24387 0.87263 0.16163 0.0
C215 C 0.2681 0.93212 0.19872 0.0
C216 C 0.25673 0.89085 0.19905 0.0
C217 C 0.24035 0.89482 0.12398 0.0
N218 N 0.26465 0.95417 0.16134 0.0
C219 C 0.25074 0.93708 0.12367 0.0
O220 O 0.12266 0.7837 0.18296 0.0
C221 C 0.13055 0.80492 0.14915 0.0
O222 O 0.16662 0.81808 0.14128 0.0
H223 H 0.25719 0.87402 0.22934 0.0
H224 H 0.22803 0.87985 0.09544 0.0
C225 C 0.12624 0.67806 0.23481 0.0
C226 C 0.13254 0.63543 0.23077 0.0
C227 C 0.20301 0.64774 0.21481 0.0
C228 C 0.19651 0.69003 0.21876 0.0
N229 N 0.15832 0.70427 0.22893 0.0
N230 N 0.17103 0.62147 0.22106 0.0
H231 H 0.09642 0.69047 0.2435 0.0
C232 C 0.23537 0.75027 0.10226 0.0
O233 O 0.20156 0.73833 0.1222 0.0
O234 O 0.10162 0.76584 0.28264 0.0
H235 H 0.22177 0.7112 0.21411 0.0
H236 H 0.27867 0.94686 0.22822 0.0
H237 H 0.23324 0.63584 0.207 0.0
Zn238 Zn 0.76489 0.90402 0.77912 0.0
C239 C 0.79519 0.78337 0.76914 0.0
N240 N 0.79075 0.79066 0.72629 0.0
C241 C 0.78613 0.83181 0.72452 0.0
N242 N 0.78771 0.84942 0.76432 0.0
N243 N 0.79441 0.81883 0.79256 0.0
C244 C 0.74646 0.81477 0.91377 0.0
O245 O 0.73581 0.8499 0.8956 0.0
O246 O 0.76814 0.95182 0.73436 0.0
Zn247 Zn 0.81311 0.82453 0.85325 0.0
N248 N 0.70701 0.89523 0.78914 0.0
C249 C 0.65035 0.85091 0.80377 0.0
C250 C 0.69252 0.85694 0.7987 0.0
C251 C 0.68111 0.92788 0.78493 0.0
N252 N 0.62441 0.88344 0.79916 0.0
C253 C 0.63858 0.92202 0.79004 0.0
O254 O 0.81577 0.88264 0.87633 0.0
C255 C 0.80582 0.91976 0.86829 0.0
O256 O 0.78725 0.92963 0.83351 0.0
H257 H 0.71337 0.83121 0.80207 0.0
H258 H 0.69365 0.95779 0.77672 0.0
C259 C 0.89066 0.80895 0.89546 0.0
C260 C 0.93246 0.79722 0.89761 0.0
C261 C 0.92933 0.77613 0.82354 0.0
C262 C 0.88855 0.78882 0.82134 0.0
N263 N 0.86961 0.80427 0.8574 0.0
N264 N 0.95023 0.78081 0.86129 0.0
H265 H 0.87524 0.82312 0.92289 0.0
C266 C 0.79576 0.97959 0.73796 0.0
O267 O 0.82765 0.97206 0.76293 0.0
O268 O 0.77718 0.7952 0.89816 0.0
H269 H 0.87278 0.78725 0.79065 0.0
H270 H 0.63828 0.82061 0.81115 0.0
H271 H 0.94461 0.76354 0.79514 0.0
H272 H 0.36593 0.33457 0.17663 0.0
H273 H 0.33369 0.206 0.18418 0.0
H274 H 0.3726 0.32913 0.09714 0.0
H275 H 0.3409 0.20009 0.10513 0.0
H276 H 0.29256 0.30869 0.96808 0.0
H277 H 0.31374 0.31825 0.04375 0.0
H278 H 0.38513 0.20614 0.03755 0.0
H279 H 0.3643 0.1966 0.96199 0.0
C280 C 0.36244 0.30468 0.16142 0.0
C281 C 0.34996 0.27052 0.1863 0.0
C282 C 0.36563 0.30169 0.11595 0.0
C283 C 0.35685 0.26431 0.09481 0.0
C284 C 0.3482 0.22924 0.12037 0.0
C285 C 0.34433 0.23246 0.16567 0.0
C286 C 0.31357 0.28662 0.98248 0.0
C287 C 0.32625 0.25162 0.95907 0.0
C288 C 0.32591 0.2922 0.02581 0.0
C289 C 0.3509 0.26274 0.04673 0.0
C290 C 0.3656 0.22915 0.02245 0.0
C291 C 0.35366 0.2238 0.97907 0.0
H292 H 0.19152 0.69412 0.05521 0.0
H293 H 0.30272 0.76685 0.05066 0.0
H294 H 0.20241 0.67366 0.97959 0.0
H295 H 0.31365 0.74605 0.97496 0.0
H296 H 0.33467 0.69158 0.8436 0.0
H297 H 0.32691 0.68691 0.923 0.0
H298 H 0.1978 0.71593 0.91064 0.0
H299 H 0.20601 0.72102 0.83152 0.0
C300 C 0.21878 0.70512 0.03844 0.0
C301 C 0.24608 0.73251 0.059 0.0
C302 C 0.22488 0.69343 0.99498 0.0
C303 C 0.25875 0.70833 0.97116 0.0
C304 C 0.28743 0.73368 0.99251 0.0
C305 C 0.28107 0.74579 0.03587 0.0
C306 C 0.30429 0.69486 0.85784 0.0
C307 C 0.27073 0.70584 0.83159 0.0
C308 C 0.29996 0.69288 0.90329 0.0
C309 C 0.26186 0.70152 0.92319 0.0
C310 C 0.2275 0.70878 0.8964 0.0
C311 C 0.23203 0.71136 0.85105 0.0
H312 H 0.76422 0.74699 0.9641 0.0
H313 H 0.68813 0.85623 0.96105 0.0
H314 H 0.74334 0.73444 0.03938 0.0
H315 H 0.66703 0.84346 0.03629 0.0
H316 H 0.69479 0.70921 0.17033 0.0
H317 H 0.68846 0.71762 0.09136 0.0
H318 H 0.70408 0.8491 0.10574 0.0
H319 H 0.70989 0.8403 0.18466 0.0
C320 C 0.74232 0.76782 0.97911 0.0
C321 C 0.72825 0.80284 0.95655 0.0
C322 C 0.73012 0.76052 0.02231 0.0
C323 C 0.70363 0.78811 0.0441 0.0
C324 C 0.6878 0.82186 0.02071 0.0
C325 C 0.69981 0.82904 0.97744 0.0
C326 C 0.6946 0.74006 0.15667 0.0
C327 C 0.70201 0.77421 0.18346 0.0
C328 C 0.69175 0.74485 0.1114 0.0
C329 C 0.6965 0.78394 0.09205 0.0
C330 C 0.69999 0.81857 0.11944 0.0
C331 C 0.70299 0.81367 0.16473 0.0
H332 H 0.70903 0.36091 0.84322 0.0
H333 H 0.84046 0.34674 0.83357 0.0
H334 H 0.71442 0.36809 0.92239 0.0
H335 H 0.84625 0.35377 0.91265 0.0
H336 H 0.84743 0.37171 0.05706 0.0
H337 H 0.8363 0.3929 0.98166 0.0
H338 H 0.73134 0.31181 0.97444 0.0
H339 H 0.74238 0.29056 0.04985 0.0
C340 C 0.73928 0.36156 0.85793 0.0
C341 C 0.77442 0.35404 0.83247 0.0
C342 C 0.74233 0.36497 0.90327 0.0
C343 C 0.78066 0.36084 0.92392 0.0
C344 C 0.81627 0.3574 0.89783 0.0
C345 C 0.8131 0.3537 0.85248 0.0
C346 C 0.8214 0.35901 0.03976 0.0
C347 C 0.79603 0.32902 0.05943 0.0
C348 C 0.81517 0.37111 0.99644 0.0
C349 C 0.78314 0.3539 0.9719 0.0
C350 C 0.75609 0.32602 0.99251 0.0
C351 C 0.76253 0.31363 0.03573 0.0
H352 H 0.81413 0.20818 0.35368 0.0
H353 H 0.87985 0.32009 0.32389 0.0
H354 H 0.8226 0.21997 0.43047 0.0
H355 H 0.89124 0.33126 0.40199 0.0
H356 H 0.83164 0.37371 0.53183 0.0
H357 H 0.85158 0.35499 0.45849 0.0
H358 H 0.85226 0.22629 0.49628 0.0
H359 H 0.82877 0.24542 0.56913 0.0
C360 C 0.83217 0.23454 0.3638 0.0
C361 C 0.84609 0.26334 0.33292 0.0
C362 C 0.83732 0.24133 0.40824 0.0
C363 C 0.85697 0.27715 0.42331 0.0
C364 C 0.87485 0.30389 0.39196 0.0
C365 C 0.86916 0.2972 0.34706 0.0
C366 C 0.83657 0.3414 0.52465 0.0
C367 C 0.82786 0.31095 0.55607 0.0
C368 C 0.84852 0.33056 0.48237 0.0
C369 C 0.85302 0.28889 0.47048 0.0
C370 C 0.84776 0.25864 0.50332 0.0
C371 C 0.83459 0.2695 0.54535 0.0
H372 H 0.34373 0.21272 0.68583 0.0
H373 H 0.21265 0.19676 0.6754 0.0
H374 H 0.3506 0.20588 0.60671 0.0
H375 H 0.21914 0.1898 0.59626 0.0
H376 H 0.24707 0.26638 0.46821 0.0
H377 H 0.23607 0.24634 0.54409 0.0
H378 H 0.34178 0.16586 0.53775 0.0
H379 H 0.35283 0.18578 0.46184 0.0
C380 C 0.31671 0.20545 0.66675 0.0
C381 C 0.2778 0.20447 0.68655 0.0
C382 C 0.3205 0.20187 0.62138 0.0
C383 C 0.28528 0.19794 0.5951 0.0
C384 C 0.24676 0.19331 0.61553 0.0
C385 C 0.24309 0.19658 0.66086 0.0
C386 C 0.26743 0.24373 0.48265 0.0
C387 C 0.301 0.22802 0.45895 0.0
C388 C 0.26102 0.23204 0.52615 0.0
C389 C 0.28821 0.2046 0.54708 0.0
C390 C 0.32052 0.18729 0.5227 0.0
C391 C 0.32668 0.19864 0.47909 0.0
H392 H 0.19318 0.84227 0.34447 0.0
H393 H 0.2093 0.71089 0.33405 0.0
H394 H 0.18862 0.83616 0.42389 0.0
H395 H 0.20457 0.70439 0.41343 0.0
H396 H 0.26911 0.80766 0.5491 0.0
H397 H 0.24745 0.81849 0.47377 0.0
H398 H 0.16534 0.71439 0.48384 0.0
H399 H 0.18668 0.70364 0.55919 0.0
C400 C 0.19347 0.81183 0.35914 0.0
C401 C 0.20078 0.77694 0.33331 0.0
C402 C 0.19158 0.80839 0.4046 0.0
C403 C 0.19685 0.7699 0.425 0.0
C404 C 0.20012 0.73447 0.39875 0.0
C405 C 0.20245 0.73804 0.35326 0.0
C406 C 0.24579 0.78764 0.53561 0.0
C407 C 0.22993 0.75463 0.56018 0.0
C408 C 0.23319 0.79394 0.49245 0.0
C409 C 0.20475 0.76715 0.47275 0.0
C410 C 0.18747 0.73536 0.49798 0.0
C411 C 0.19967 0.72936 0.54126 0.0
H412 H 0.84488 0.86001 0.67006 0.0
H413 H 0.71383 0.84516 0.68334 0.0
H414 H 0.83763 0.86639 0.59095 0.0
H415 H 0.70618 0.85115 0.60434 0.0
H416 H 0.80883 0.78943 0.46445 0.0
H417 H 0.82104 0.81094 0.5394 0.0
H418 H 0.7132 0.88867 0.53477 0.0
H419 H 0.70081 0.86702 0.45992 0.0
C420 C 0.8143 0.8603 0.65612 0.0
C421 C 0.77981 0.85289 0.68263 0.0
C422 C 0.81018 0.8632 0.6108 0.0
C423 C 0.77143 0.85857 0.59117 0.0
C424 C 0.73647 0.85516 0.61827 0.0
C425 C 0.7407 0.85205 0.6636 0.0
C426 C 0.78824 0.81181 0.47903 0.0
C427 C 0.75359 0.82605 0.45624 0.0
C428 C 0.79533 0.82436 0.52202 0.0
C429 C 0.76788 0.85136 0.5433 0.0
C430 C 0.73464 0.86749 0.51957 0.0
C431 C 0.72768 0.85514 0.47654 0.0
H432 H 0.50178 0.1431 0.30397 0.0
H433 H 0.41554 0.05856 0.24555 0.0
H434 H 0.55572 0.09143 0.29839 0.0
H435 H 0.46981 1.00704 0.23908 0.0
H436 H 0.55833 0.91089 0.29594 0.0
H437 H 0.50633 0.9639 0.28896 0.0
H438 H 0.59969 0.05191 0.251 0.0
H439 H 0.65227 0.99852 0.25858 0.0
C440 C 0.49456 0.11385 0.28894 0.0
C441 C 0.45438 0.10489 0.27512 0.0
C442 C 0.52555 0.08419 0.28569 0.0
C443 C 0.51705 0.04503 0.26845 0.0
C444 C 0.47719 0.03666 0.25323 0.0
C445 C 0.44614 0.06618 0.25682 0.0
C446 C 0.56783 0.94122 0.28508 0.0
C447 C 0.60948 0.95037 0.27727 0.0
C448 C 0.53788 0.97173 0.28111 0.0
C449 C 0.54879 1.01215 0.26924 0.0
C450 C 0.59035 1.02117 0.26067 0.0
C451 C 0.62042 0.99061 0.26487 0.0
H452 H 0.98304 0.42766 0.65682 0.0
H453 H 0.92331 0.4769 0.77163 0.0
H454 H 0.03559 0.48081 0.6617 0.0
H455 H 0.97615 0.52971 0.77679 0.0
H456 H 0.05095 0.64492 0.74151 0.0
H457 H 0.99908 0.59104 0.739 0.0
H458 H 0.09282 0.5019 0.70556 0.0
H459 H 0.14429 0.55585 0.70569 0.0
C460 C 0.98125 0.44971 0.68323 0.0
C461 C 0.94867 0.44839 0.7134 0.0
C462 C 1.01147 0.48005 0.68615 0.0
C463 C 1.01002 0.50954 0.7196 0.0
C464 C 0.97772 0.50791 0.75016 0.0
C465 C 0.94735 0.47767 0.74711 0.0
C466 C 0.06056 0.61384 0.73359 0.0
C467 C 0.10201 0.60488 0.72432 0.0
C468 C 0.03084 0.58287 0.73256 0.0
C469 C 0.04183 0.54216 0.72219 0.0
C470 C 0.08328 0.53305 0.71329 0.0
C471 C 0.113 0.56404 0.71411 0.0
H472 H 0.99116 0.41246 0.22375 0.0
H473 H 0.89974 0.50251 0.26155 0.0
H474 H 0.04411 0.46467 0.22699 0.0
H475 H 0.95333 0.55515 0.26548 0.0
H476 H 0.05098 0.64443 0.20935 0.0
H477 H 0.99664 0.59338 0.21641 0.0
H478 H 0.08304 0.50779 0.27384 0.0
H479 H 0.13765 0.55863 0.26581 0.0
C480 C 0.98246 0.44317 0.23401 0.0
C481 C 0.94121 0.45317 0.24311 0.0
C482 C 1.01296 0.47325 0.23578 0.0
C483 C 1.00308 0.51413 0.2467 0.0
C484 C 0.96192 0.52405 0.25648 0.0
C485 C 0.93126 0.4939 0.25446 0.0
C486 C 0.05827 0.61499 0.22415 0.0
C487 C 0.09865 0.60558 0.23716 0.0
C488 C 1.02704 0.58569 0.22827 0.0
C489 C 0.03544 0.54642 0.24563 0.0
C490 C 0.07563 0.53747 0.25964 0.0
C491 C 0.10692 0.56662 0.25515 0.0
H492 H 0.41614 0.06391 0.80554 0.0
H493 H 0.50534 0.15645 0.76863 0.0
H494 H 0.46866 1.01114 0.80114 0.0
H495 H 0.5583 0.10307 0.76345 0.0
H496 H 0.64845 1.00317 0.81352 0.0
H497 H 0.59747 0.05807 0.80977 0.0
H498 H 0.5108 0.97352 0.75195 0.0
H499 H 0.56148 0.91841 0.75676 0.0
C500 C 0.44679 0.0729 0.79538 0.0
C501 C 0.45641 0.11437 0.78665 0.0
C502 C 0.47703 0.04253 0.7929 0.0
C503 C 0.5177 0.05273 0.78158 0.0
C504 C 0.52735 0.0942 0.77265 0.0
C505 C 0.49703 0.12474 0.77542 0.0
C506 C 0.61874 0.99645 0.79939 0.0
C507 C 0.60897 0.95642 0.78538 0.0
C508 C 0.58949 1.02799 0.79717 0.0
C509 C 0.54993 1.02021 0.78075 0.0
C510 C 0.54068 0.98042 0.76559 0.0
C511 C 0.56975 0.94885 0.76821 0.0
H512 H 0.54047 0.35069 0.23064 0.0
H513 H 0.51446 0.22159 0.21157 0.0
H514 H 0.61354 0.33753 0.21906 0.0
H515 H 0.58787 0.20834 0.19997 0.0
H516 H 0.72065 0.20147 0.2631 0.0
H517 H 0.64701 0.20865 0.25014 0.0
H518 H 0.67023 0.31589 0.17008 0.0
H519 H 0.74431 0.30847 0.18343 0.0
C520 C 0.5502 0.3196 0.2229 0.0
C521 C 0.52138 0.28725 0.22215 0.0
C522 C 0.59226 0.31205 0.21606 0.0
C523 C 0.60693 0.27179 0.20879 0.0
C524 C 0.57784 0.2397 0.20582 0.0
C525 C 0.53561 0.24736 0.21211 0.0
C526 C 0.71013 0.22564 0.24135 0.0
C527 C 0.73837 0.25394 0.22364 0.0
C528 C 0.6678 0.22984 0.23393 0.0
C529 C 0.65235 0.26305 0.20927 0.0
C530 C 0.6809 0.29008 0.18947 0.0
C531 C 0.72346 0.28546 0.19643 0.0
H532 H 0.30515 0.31132 0.83683 0.0
H533 H 0.20876 0.33294 0.74353 0.0
H534 H 0.30959 0.38579 0.85045 0.0
H535 H 0.21282 0.40693 0.75699 0.0
H536 H 0.21684 0.53951 0.79919 0.0
H537 H 0.20468 0.46555 0.80895 0.0
H538 H 0.33546 0.44319 0.80266 0.0
H539 H 0.34756 0.51685 0.79266 0.0
C540 C 0.28369 0.33181 0.82069 0.0
C541 C 0.25609 0.31626 0.78971 0.0
C542 C 0.28664 0.37455 0.82793 0.0
C543 C 0.26167 0.40257 0.8047 0.0
C544 C 0.23223 0.38648 0.77586 0.0
C545 C 0.22986 0.344 0.76812 0.0
C546 C 0.24308 0.51898 0.8011 0.0
C547 C 0.28322 0.53427 0.79506 0.0
C548 C 0.23607 0.47646 0.80634 0.0
C549 C 0.26905 0.4482 0.80638 0.0
C550 C 0.3093 0.4639 0.80322 0.0
C551 C 0.31625 0.50625 0.79731 0.0
H552 H 0.51917 0.72855 0.22902 0.0
H553 H 0.52644 0.86108 0.22886 0.0
H554 H 0.44531 0.73273 0.21336 0.0
H555 H 0.45317 0.86559 0.21236 0.0
H556 H 0.32265 0.85069 0.274 0.0
H557 H 0.39643 0.85193 0.26135 0.0
H558 H 0.38442 0.75308 0.16825 0.0
H559 H 0.30955 0.75228 0.18116 0.0
C560 C 0.50539 0.75851 0.22337 0.0
C561 C 0.52871 0.79447 0.22939 0.0
C562 C 0.46294 0.761 0.21464 0.0
C563 C 0.44291 0.79955 0.21217 0.0
C564 C 0.46723 0.83537 0.21466 0.0
C565 C 0.50942 0.83284 0.22351 0.0
C566 C 0.33552 0.83029 0.24956 0.0
C567 C 0.31016 0.80203 0.22792 0.0
C568 C 0.378 0.83091 0.24227 0.0
C569 C 0.39677 0.80259 0.2137 0.0
C570 C 0.37114 0.77529 0.19053 0.0
C571 C 0.32818 0.77522 0.19736 0.0
H572 H 0.75092 0.74519 0.83437 0.0
H573 H 0.84593 0.72385 0.7388 0.0
H574 H 0.74661 0.67063 0.84818 0.0
H575 H 0.84184 0.64988 0.75217 0.0
H576 H 0.83871 0.51687 0.7928 0.0
H577 H 0.85109 0.59084 0.80167 0.0
H578 H 0.72012 0.61276 0.80403 0.0
H579 H 0.70782 0.53913 0.79525 0.0
C580 C 0.77208 0.72476 0.81771 0.0
C581 C 0.79934 0.7405 0.78615 0.0
C582 C 0.76918 0.68192 0.82501 0.0
C583 C 0.79378 0.65391 0.80119 0.0
C584 C 0.82273 0.67018 0.77159 0.0
C585 C 0.82511 0.71273 0.76387 0.0
C586 C 0.81254 0.53731 0.79637 0.0
C587 C 0.77221 0.52184 0.79318 0.0
C588 C 0.81964 0.57988 0.80108 0.0
C589 C 0.78663 0.60811 0.80329 0.0
C590 C 0.74637 0.5922 0.80287 0.0
C591 C 0.73929 0.5498 0.79763 0.0
H592 H 1.02056 0.23203 0.30644 0.0
H593 H 0.03821 0.35862 0.2678 0.0
H594 H 0.09394 0.22714 0.32521 0.0
H595 H 0.11071 0.35403 0.28596 0.0
H596 H 0.24101 0.3438 0.32384 0.0
H597 H 0.16675 0.34579 0.33661 0.0
H598 H 0.15554 0.22459 0.28009 0.0
H599 H 0.22956 0.2227 0.26814 0.0
C600 C 0.03974 0.25917 0.30345 0.0
C601 C 1.02359 0.29571 0.28574 0.0
C602 C 0.08193 0.25633 0.31367 0.0
C603 C 0.10868 0.29011 0.30683 0.0
C604 C 0.09143 0.32745 0.29224 0.0
C605 C 0.04968 0.33008 0.28163 0.0
C606 C 0.22304 0.31698 0.31588 0.0
C607 C 0.24142 0.28302 0.29523 0.0
C608 C 0.18017 0.31825 0.32262 0.0
C609 C 0.15469 0.28551 0.30896 0.0
C610 C 0.17378 0.25027 0.2915 0.0
C611 C 0.21639 0.24921 0.28451 0.0
H612 H 0.2422 0.03513 0.70792 0.0
H613 H 0.36258 1.0149 0.76243 0.0
H614 H 0.23875 0.96185 0.68763 0.0
H615 H 0.35931 0.94259 0.7429 0.0
H616 H 0.35358 0.81327 0.70255 0.0
H617 H 0.35723 0.88772 0.69082 0.0
H618 H 0.23004 0.89913 0.73023 0.0
H619 H 0.22654 0.82476 0.74085 0.0
C620 C 0.26841 1.01539 0.71424 0.0
C621 C 0.30263 0.03078 0.73677 0.0
C622 C 0.26633 0.97327 0.70311 0.0
C623 C 0.29865 0.94588 0.71383 0.0
C624 C 0.33398 0.96237 0.7335 0.0
C625 C 0.3358 1.00402 0.74497 0.0
C626 C 0.32596 0.83136 0.70669 0.0
C627 C 0.28964 0.81294 0.72206 0.0
C628 C 0.32814 0.87432 0.70066 0.0
C629 C 0.29406 0.8999 0.71009 0.0
C630 C 0.25685 0.88081 0.72216 0.0
C631 C 0.25481 0.83802 0.72831 0.0
H632 H 0.80764 0.80577 0.33232 0.0
H633 H 0.8316 0.70707 0.24207 0.0
H634 H 0.88173 0.81188 0.34638 0.0
H635 H 0.90526 0.71286 0.25587 0.0
H636 H 0.03702 0.71991 0.29939 0.0
H637 H 0.96329 0.70685 0.30843 0.0
H638 H 0.93919 0.83742 0.29894 0.0
H639 H 1.01264 0.85041 0.28968 0.0
C640 C 0.82857 0.7842 0.31698 0.0
C641 C 0.81376 0.75536 0.28681 0.0
C642 C 0.8711 0.7881 0.32443 0.0
C643 C 0.89968 0.76293 0.30218 0.0
C644 C 0.88437 0.73244 0.27403 0.0
C645 C 0.84208 0.72908 0.26609 0.0
C646 C 1.01614 0.74594 0.30041 0.0
C647 C 0.03091 0.78626 0.29371 0.0
C648 C 0.97376 0.73841 0.30524 0.0
C649 C 0.94509 0.77104 0.30418 0.0
C650 C 0.96022 0.81153 0.30034 0.0
C651 C 1.00245 0.81899 0.29486 0.0
H652 H 0.71055 0.22334 0.77683 0.0
H653 H 0.80596 0.24679 0.68214 0.0
H654 H 0.71617 0.14945 0.76342 0.0
H655 H 0.8121 0.17232 0.66871 0.0
H656 H 0.85208 0.04107 0.7254 0.0
H657 H 0.83903 0.11472 0.71619 0.0
H658 H 0.70857 0.09101 0.71094 0.0
H659 H 0.72168 1.01708 0.71978 0.0
C660 C 0.73184 0.21269 0.75202 0.0
C661 C 0.75728 0.24098 0.72998 0.0
C662 C 0.73511 0.17024 0.74431 0.0
C663 C 0.7647 0.15465 0.71506 0.0
C664 C 0.78903 0.18316 0.69154 0.0
C665 C 0.78513 0.22589 0.69869 0.0
C666 C 0.82064 0.05138 0.72114 0.0
C667 C 0.78799 1.02294 0.72336 0.0
C668 C 0.81315 0.09373 0.71571 0.0
C669 C 0.77271 0.10906 0.71304 0.0
C670 C 0.7401 0.08042 0.71316 0.0
C671 C 0.74765 0.03791 0.71788 0.0
H672 H 0.33128 0.41582 0.47874 0.0
H673 H 0.26509 0.50708 0.40324 0.0
H674 H 0.33032 0.46204 0.54134 0.0
H675 H 0.26509 0.55308 0.46548 0.0
H676 H 0.3203 0.64272 0.5622 0.0
H677 H 0.32091 0.59192 0.50404 0.0
H678 H 0.28053 0.49815 0.59468 0.0
H679 H 0.27985 0.54915 0.65343 0.0
C680 C 0.31582 0.44519 0.47546 0.0
C681 C 0.29817 0.45747 0.43553 0.0
C682 C 0.31554 0.4718 0.51144 0.0
C683 C 0.2981 0.51135 0.50811 0.0
C684 C 0.27946 0.52308 0.46879 0.0
C685 C 0.27941 0.49654 0.4331 0.0
C686 C 0.31186 0.61125 0.57001 0.0
C687 C 0.29979 0.60014 0.61253 0.0
C688 C 0.31195 0.58219 0.53654 0.0
C689 C 0.30031 0.54117 0.54471 0.0
C690 C 0.28969 0.52954 0.58747 0.0
C691 C 0.28919 0.55879 0.62103 0.0
H692 H 0.55327 0.7505 0.36393 0.0
H693 H 0.65041 0.73457 0.45817 0.0
H694 H 0.50208 0.74398 0.42199 0.0
H695 H 0.59983 0.73002 0.5162 0.0
H696 H 0.50391 0.6919 0.61136 0.0
H697 H 0.54985 0.68971 0.54875 0.0
H698 H 0.47285 0.77839 0.48203 0.0
H699 H 0.4256 0.77858 0.5443 0.0
C700 C 0.56369 0.74567 0.39705 0.0
C701 C 0.60593 0.74292 0.40637 0.0
C702 C 0.53433 0.7422 0.43045 0.0
C703 C 0.54655 0.73641 0.47406 0.0
C704 C 0.58891 0.73346 0.48309 0.0
C705 C 0.61812 0.7363 0.44971 0.0
C706 C 0.49664 0.71061 0.58309 0.0
C707 C 0.46131 0.73551 0.58274 0.0
C708 C 0.52317 0.70966 0.54722 0.0
C709 C 0.5157 0.73443 0.51033 0.0
C710 C 0.47956 0.75854 0.50954 0.0
C711 C 0.45247 0.75882 0.54526 0.0
H712 H 0.71896 0.40954 0.5648 0.0
H713 H 0.75349 0.50447 0.6563 0.0
H714 H 0.71846 0.46044 0.50624 0.0
H715 H 0.75287 0.55538 0.59733 0.0
H716 H 0.71626 0.63731 0.47653 0.0
H717 H 0.70726 0.59098 0.53848 0.0
H718 H 0.77958 0.49823 0.47299 0.0
H719 H 0.78984 0.54416 0.41167 0.0
C720 C 0.72561 0.44137 0.57268 0.0
C721 C 0.73674 0.45278 0.61522 0.0
C722 C 0.72557 0.47047 0.53902 0.0
C723 C 0.73623 0.51171 0.54716 0.0
C724 C 0.74453 0.5238 0.59015 0.0
C725 C 0.74498 0.49458 0.62386 0.0
C726 C 0.73099 0.60747 0.47524 0.0
C727 C 0.75406 0.59494 0.43847 0.0
C728 C 0.72546 0.58077 0.51088 0.0
C729 C 0.74221 0.54083 0.51025 0.0
C730 C 0.76557 0.52854 0.47403 0.0
C731 C 0.77156 0.55518 0.43885 0.0
H732 H 0.50566 0.29705 0.35928 0.0
H733 H 0.41088 0.30772 0.45771 0.0
H734 H 0.5583 0.30159 0.41563 0.0
H735 H 0.4629 0.31004 0.51397 0.0
H736 H 0.55977 0.34261 0.60821 0.0
H737 H 0.51318 0.34907 0.54669 0.0
H738 H 0.58947 0.26488 0.47272 0.0
H739 H 0.63748 0.26089 0.53395 0.0
C740 C 0.49609 0.30034 0.39297 0.0
C741 C 0.45409 0.30226 0.404 0.0
C742 C 0.52627 0.30265 0.42536 0.0
C743 C 0.51514 0.30632 0.46961 0.0
C744 C 0.47299 0.30833 0.48035 0.0
C745 C 0.44296 0.30672 0.448 0.0
C746 C 0.56681 0.32612 0.57841 0.0
C747 C 0.60198 0.30125 0.57563 0.0
C748 C 0.5399 0.32938 0.54325 0.0
C749 C 0.54685 0.30681 0.50478 0.0
C750 C 0.58311 0.28303 0.50153 0.0
C751 C 0.61062 0.28055 0.53658 0.0
H752 H 0.8199 0.90774 0.95492 0.0
H753 H 0.80576 1.00382 0.85832 0.0
H754 H 0.82359 0.95919 0.01182 0.0
H755 H 0.81169 0.0559 0.91521 0.0
H756 H 0.77182 0.13312 0.03525 0.0
H757 H 0.7757 0.08585 0.97335 0.0
H758 H 0.86188 1.00982 0.04478 0.0
H759 H 0.85564 0.05564 0.10704 0.0
C760 C 0.81853 0.93998 0.9457 0.0
C761 C 0.81252 0.95163 0.90206 0.0
C762 C 0.8209 0.96971 0.97842 0.0
C763 C 0.81811 1.01205 0.9684 0.0
C764 C 0.81329 1.0237 0.92444 0.0
C765 C 0.81023 0.99384 0.89171 0.0
C766 C 0.7919 0.1065 0.03723 0.0
C767 C 0.81318 0.09773 0.07586 0.0
C768 C 0.79432 0.0794 1.00175 0.0
C769 C 0.81866 0.0434 1.00405 0.0
C770 C 0.84178 0.03632 0.04206 0.0
C771 C 0.83858 0.0628 0.07767 0.0
H772 H 0.99955 0.26606 0.15368 0.0
H773 H 0.90592 0.24588 0.05642 0.0
H774 H 0.05203 0.26831 0.09626 0.0
H775 H 0.95829 0.24806 0.9994 0.0
H776 H 0.05124 0.31064 0.90976 0.0
H777 H 1.00322 0.30579 0.97029 0.0
H778 H 0.08513 0.2221 0.03673 0.0
H779 H 0.13326 0.22583 0.9756 0.0
C780 C 0.99017 0.26191 0.12016 0.0
C781 C 0.94846 0.25615 0.10964 0.0
C782 C 1.02028 0.26295 0.08735 0.0
C783 C 1.00918 0.2588 0.04336 0.0
C784 C 0.96767 0.25191 0.033 0.0
C785 C 0.93771 0.25038 0.06573 0.0
C786 C 0.05938 0.29119 0.93718 0.0
C787 C 0.09645 0.26869 0.93733 0.0
C788 C 0.03165 0.28838 0.97186 0.0
C789 C 0.04021 0.26322 1.00798 0.0
C790 C 0.07784 0.24187 0.0093 0.0
C791 C 0.10559 0.24432 0.97422 0.0
H792 H 0.2423 1.02043 0.12299 0.0
H793 H 0.24811 0.91603 0.03567 0.0
H794 H 0.23771 0.0666 0.06111 0.0
H795 H 0.24146 0.96253 0.97363 0.0
H796 H 0.28725 0.06333 0.87767 0.0
H797 H 0.28248 1.01278 0.93589 0.0
H798 H 0.19481 0.09024 1.00325 0.0
H799 H 0.20043 0.14154 0.9453 0.0
C800 C 0.24217 1.00712 0.09064 0.0
C801 C 0.24553 0.96422 0.08474 0.0
C802 C 0.23898 0.03376 0.05502 0.0
C803 C 0.23895 1.0184 0.01227 0.0
C804 C 0.24165 0.97547 1.00614 0.0
C805 C 0.24497 0.94868 0.04191 0.0
C806 C 0.26651 0.06948 0.9045 0.0
C807 C 0.24447 0.10677 0.90678 0.0
C808 C 0.26362 0.04025 0.93794 0.0
C809 C 0.23847 0.04745 0.97452 0.0
C810 C 0.21508 0.08399 0.97595 0.0
C811 C 0.21813 0.11334 0.94257 0.0
H812 H 0.90919 0.80465 0.98489 0.0
H813 H 1.01568 0.80364 0.8998 0.0
H814 H 0.95422 0.81337 0.04758 0.0
H815 H 0.06022 0.81036 0.96225 0.0
H816 H 0.13351 0.85259 0.07533 0.0
H817 H 0.08279 0.85652 0.01727 0.0
H818 H 1.00327 0.77394 0.0893 0.0
H819 H 0.05335 0.77109 0.14803 0.0
C820 C 0.94199 0.80671 0.97927 0.0
C821 C 0.95857 0.80367 0.93688 0.0
C822 C 0.96791 0.81124 0.01542 0.0
C823 C 1.01093 0.8128 0.01007 0.0
C824 C 0.02729 0.81013 0.96772 0.0
C825 C 1.00157 0.80571 0.93178 0.0
C826 C 0.10498 0.8357 0.07909 0.0
C827 C 0.09779 0.81115 0.11617 0.0
C828 C 0.07595 0.83775 0.04564 0.0
C829 C 0.03913 0.81504 0.04821 0.0
C830 C 0.03109 0.79207 0.08626 0.0
C831 C 0.06001 0.79025 0.11989 0.0
loop_
_geom_bond_atom_site_label_1
_geom_bond_atom_site_label_2
_geom_bond_distance
_geom_bond_site_symmetry_2
_ccdc_geom_bond_type
Zn0 N4 2.020 . S
Zn0 O8 2.019 . S
Zn0 N10 2.119 . S
Zn0 O18 1.975 . S
C1 N2 1.334 . S
C1 N5 1.336 . S
N2 C1 1.334 . S
N2 C3 1.334 . S
C3 N2 1.334 . S
C3 N4 1.336 . S
N4 Zn0 2.020 . S
N4 C3 1.336 . S
N4 N5 1.354 . S
N5 C1 1.336 . S
N5 N4 1.354 . S
N5 Zn9 2.020 . S
C6 O7 1.244 . S
C6 O30 1.257 . S
O7 C6 1.244 . S
O8 Zn0 2.019 . S
O8 C28 1.257 . S
Zn9 N5 2.020 . S
Zn9 O16 1.975 . S
Zn9 N25 2.119 . S
Zn9 O30 2.019 . S
N10 Zn0 2.119 . S
N10 C12 1.334 . S
N10 C13 1.328 . S
C11 C12 1.391 . S
C11 N14 1.329 . S
C11 H32 0.930 . S
C12 N10 1.334 . S
C12 C11 1.391 . S
C12 H19 0.930 . S
C13 N10 1.328 . S
C13 C15 1.392 . S
C13 H20 0.930 . S
N14 C11 1.329 . S
N14 C15 1.331 . S
C15 C13 1.392 . S
C15 N14 1.331 . S
O16 Zn9 1.975 . S
O16 C17 1.252 . S
C17 O16 1.252 . S
C17 O18 1.252 . S
O18 Zn0 1.975 . S
O18 C17 1.252 . S
H19 C12 0.930 . S
H20 C13 0.930 . S
C21 C22 1.392 . S
C21 N25 1.328 . S
C21 H27 0.930 . S
C22 C21 1.392 . S
C22 N26 1.331 . S
C23 C24 1.391 . S
C23 N26 1.329 . S
C23 H33 0.930 . S
C24 C23 1.391 . S
C24 N25 1.334 . S
C24 H31 0.930 . S
N25 Zn9 2.119 . S
N25 C21 1.328 . S
N25 C24 1.334 . S
N26 C22 1.331 . S
N26 C23 1.329 . S
H27 C21 0.930 . S
C28 O8 1.257 . S
C28 O29 1.244 . S
O29 C28 1.244 . S
O30 C6 1.257 . S
O30 Zn9 2.019 . S
H31 C24 0.930 . S
H32 C11 0.930 . S
H33 C23 0.930 . S
Zn34 N38 2.020 . S
Zn34 O42 2.019 . S
Zn34 N44 2.119 . S
Zn34 O52 1.975 . S
C35 N36 1.334 . S
C35 N39 1.336 . S
N36 C35 1.334 . S
N36 C37 1.334 . S
C37 N36 1.334 . S
C37 N38 1.336 . S
N38 Zn34 2.020 . S
N38 C37 1.336 . S
N38 N39 1.354 . S
N39 C35 1.336 . S
N39 N38 1.354 . S
N39 Zn43 2.020 . S
C40 O41 1.244 . S
C40 O64 1.257 . S
O41 C40 1.244 . S
O42 Zn34 2.019 . S
O42 C62 1.257 . S
Zn43 N39 2.020 . S
Zn43 O50 1.975 . S
Zn43 N59 2.119 . S
Zn43 O64 2.019 . S
N44 Zn34 2.119 . S
N44 C46 1.334 . S
N44 C47 1.328 . S
C45 C46 1.391 . S
C45 N48 1.329 . S
C45 H66 0.930 . S
C46 N44 1.334 . S
C46 C45 1.391 . S
C46 H53 0.930 . S
C47 N44 1.328 . S
C47 C49 1.392 . S
C47 H54 0.930 . S
N48 C45 1.329 . S
N48 C49 1.331 . S
C49 C47 1.392 . S
C49 N48 1.331 . S
O50 Zn43 1.975 . S
O50 C51 1.252 . S
C51 O50 1.252 . S
C51 O52 1.252 . S
O52 Zn34 1.975 . S
O52 C51 1.252 . S
H53 C46 0.930 . S
H54 C47 0.930 . S
C55 C56 1.392 . S
C55 N59 1.328 . S
C55 H61 0.930 . S
C56 C55 1.392 . S
C56 N60 1.331 . S
C57 C58 1.391 . S
C57 N60 1.329 . S
C57 H67 0.930 . S
C58 C57 1.391 . S
C58 N59 1.334 . S
C58 H65 0.930 . S
N59 Zn43 2.119 . S
N59 C55 1.328 . S
N59 C58 1.334 . S
N60 C56 1.331 . S
N60 C57 1.329 . S
H61 C55 0.930 . S
C62 O42 1.257 . S
C62 O63 1.244 . S
O63 C62 1.244 . S
O64 C40 1.257 . S
O64 Zn43 2.019 . S
H65 C58 0.930 . S
H66 C45 0.930 . S
H67 C57 0.930 . S
Zn68 N72 2.020 . S
Zn68 O76 2.019 . S
Zn68 N78 2.119 . S
Zn68 O86 1.975 . S
C69 N70 1.334 . S
C69 N73 1.336 . S
N70 C69 1.334 . S
N70 C71 1.334 . S
C71 N70 1.334 . S
C71 N72 1.336 . S
N72 Zn68 2.020 . S
N72 C71 1.336 . S
N72 N73 1.354 . S
N73 C69 1.336 . S
N73 N72 1.354 . S
N73 Zn77 2.020 . S
C74 O75 1.244 . S
C74 O98 1.257 . S
O75 C74 1.244 . S
O76 Zn68 2.019 . S
O76 C96 1.257 . S
Zn77 N73 2.020 . S
Zn77 O84 1.975 . S
Zn77 N93 2.119 . S
Zn77 O98 2.019 . S
N78 Zn68 2.119 . S
N78 C80 1.334 . S
N78 C81 1.328 . S
C79 C80 1.391 . S
C79 N82 1.329 . S
C79 H100 0.930 . S
C80 N78 1.334 . S
C80 C79 1.391 . S
C80 H87 0.930 . S
C81 N78 1.328 . S
C81 C83 1.392 . S
C81 H88 0.930 . S
N82 C79 1.329 . S
N82 C83 1.331 . S
C83 C81 1.392 . S
C83 N82 1.331 . S
O84 Zn77 1.975 . S
O84 C85 1.252 . S
C85 O84 1.252 . S
C85 O86 1.252 . S
O86 Zn68 1.975 . S
O86 C85 1.252 . S
H87 C80 0.930 . S
H88 C81 0.930 . S
C89 C90 1.392 . S
C89 N93 1.328 . S
C89 H95 0.930 . S
C90 C89 1.392 . S
C90 N94 1.331 . S
C91 C92 1.391 . S
C91 N94 1.329 . S
C91 H101 0.930 . S
C92 C91 1.391 . S
C92 N93 1.334 . S
C92 H99 0.930 . S
N93 Zn77 2.119 . S
N93 C89 1.328 . S
N93 C92 1.334 . S
N94 C90 1.331 . S
N94 C91 1.329 . S
H95 C89 0.930 . S
C96 O76 1.257 . S
C96 O97 1.244 . S
O97 C96 1.244 . S
O98 C74 1.257 . S
O98 Zn77 2.019 . S
H99 C92 0.930 . S
H100 C79 0.930 . S
H101 C91 0.930 . S
Zn102 N106 2.020 . S
Zn102 O110 2.019 . S
Zn102 N112 2.119 . S
Zn102 O120 1.975 . S
C103 N104 1.334 . S
C103 N107 1.336 . S
N104 C103 1.334 . S
N104 C105 1.334 . S
C105 N104 1.334 . S
C105 N106 1.336 . S
N106 Zn102 2.020 . S
N106 C105 1.336 . S
N106 N107 1.354 . S
N107 C103 1.336 . S
N107 N106 1.354 . S
N107 Zn111 2.020 . S
C108 O109 1.244 . S
C108 O132 1.257 . S
O109 C108 1.244 . S
O110 Zn102 2.019 . S
O110 C130 1.257 . S
Zn111 N107 2.020 . S
Zn111 O118 1.975 . S
Zn111 N127 2.119 . S
Zn111 O132 2.019 . S
N112 Zn102 2.119 . S
N112 C114 1.334 . S
N112 C115 1.328 . S
C113 C114 1.391 . S
C113 N116 1.329 . S
C113 H134 0.930 . S
C114 N112 1.334 . S
C114 C113 1.391 . S
C114 H121 0.930 . S
C115 N112 1.328 . S
C115 C117 1.392 . S
C115 H122 0.930 . S
N116 C113 1.329 . S
N116 C117 1.331 . S
C117 C115 1.392 . S
C117 N116 1.331 . S
O118 Zn111 1.975 . S
O118 C119 1.252 . S
C119 O118 1.252 . S
C119 O120 1.252 . S
O120 Zn102 1.975 . S
O120 C119 1.252 . S
H121 C114 0.930 . S
H122 C115 0.930 . S
C123 C124 1.392 . S
C123 N127 1.328 . S
C123 H129 0.930 . S
C124 C123 1.392 . S
C124 N128 1.331 . S
C125 C126 1.391 . S
C125 N128 1.329 . S
C125 H135 0.930 . S
C126 C125 1.391 . S
C126 N127 1.334 . S
C126 H133 0.930 . S
N127 Zn111 2.119 . S
N127 C123 1.328 . S
N127 C126 1.334 . S
N128 C124 1.331 . S
N128 C125 1.329 . S
H129 C123 0.930 . S
C130 O110 1.257 . S
C130 O131 1.244 . S
O131 C130 1.244 . S
O132 C108 1.257 . S
O132 Zn111 2.019 . S
H133 C126 0.930 . S
H134 C113 0.930 . S
H135 C125 0.930 . S
Zn136 N140 2.020 . S
Zn136 O144 2.019 . S
Zn136 N146 2.119 . S
Zn136 O154 1.975 . S
C137 N138 1.334 . S
C137 N141 1.336 . S
N138 C137 1.334 . S
N138 C139 1.334 . S
C139 N138 1.334 . S
C139 N140 1.336 . S
N140 Zn136 2.020 . S
N140 C139 1.336 . S
N140 N141 1.354 . S
N141 C137 1.336 . S
N141 N140 1.354 . S
N141 Zn145 2.020 . S
C142 O143 1.244 . S
C142 O166 1.257 . S
O143 C142 1.244 . S
O144 Zn136 2.019 . S
O144 C164 1.257 . S
Zn145 N141 2.020 . S
Zn145 O152 1.975 . S
Zn145 N161 2.119 . S
Zn145 O166 2.019 . S
N146 Zn136 2.119 . S
N146 C148 1.334 . S
N146 C149 1.328 . S
C147 C148 1.391 . S
C147 N150 1.329 . S
C147 H168 0.930 . S
C148 N146 1.334 . S
C148 C147 1.391 . S
C148 H155 0.930 . S
C149 N146 1.328 . S
C149 C151 1.392 . S
C149 H156 0.930 . S
N150 C147 1.329 . S
N150 C151 1.331 . S
C151 C149 1.392 . S
C151 N150 1.331 . S
O152 Zn145 1.975 . S
O152 C153 1.252 . S
C153 O152 1.252 . S
C153 O154 1.252 . S
O154 Zn136 1.975 . S
O154 C153 1.252 . S
H155 C148 0.930 . S
H156 C149 0.930 . S
C157 C158 1.392 . S
C157 N161 1.328 . S
C157 H163 0.930 . S
C158 C157 1.392 . S
C158 N162 1.331 . S
C159 C160 1.391 . S
C159 N162 1.329 . S
C159 H169 0.930 . S
C160 C159 1.391 . S
C160 N161 1.334 . S
C160 H167 0.930 . S
N161 Zn145 2.119 . S
N161 C157 1.328 . S
N161 C160 1.334 . S
N162 C158 1.331 . S
N162 C159 1.329 . S
H163 C157 0.930 . S
C164 O144 1.257 . S
C164 O165 1.244 . S
O165 C164 1.244 . S
O166 C142 1.257 . S
O166 Zn145 2.019 . S
H167 C160 0.930 . S
H168 C147 0.930 . S
H169 C159 0.930 . S
Zn170 N174 2.020 . S
Zn170 O178 2.019 . S
Zn170 N180 2.119 . S
Zn170 O188 1.975 . S
C171 N172 1.334 . S
C171 N175 1.336 . S
N172 C171 1.334 . S
N172 C173 1.334 . S
C173 N172 1.334 . S
C173 N174 1.336 . S
N174 Zn170 2.020 . S
N174 C173 1.336 . S
N174 N175 1.354 . S
N175 C171 1.336 . S
N175 N174 1.354 . S
N175 Zn179 2.020 . S
C176 O177 1.244 . S
C176 O200 1.257 . S
O177 C176 1.244 . S
O178 Zn170 2.019 . S
O178 C198 1.257 . S
Zn179 N175 2.020 . S
Zn179 O186 1.975 . S
Zn179 N195 2.119 . S
Zn179 O200 2.019 . S
N180 Zn170 2.119 . S
N180 C182 1.334 . S
N180 C183 1.328 . S
C181 C182 1.391 . S
C181 N184 1.329 . S
C181 H202 0.930 . S
C182 N180 1.334 . S
C182 C181 1.391 . S
C182 H189 0.930 . S
C183 N180 1.328 . S
C183 C185 1.392 . S
C183 H190 0.930 . S
N184 C181 1.329 . S
N184 C185 1.331 . S
C185 C183 1.392 . S
C185 N184 1.331 . S
O186 Zn179 1.975 . S
O186 C187 1.252 . S
C187 O186 1.252 . S
C187 O188 1.252 . S
O188 Zn170 1.975 . S
O188 C187 1.252 . S
H189 C182 0.930 . S
H190 C183 0.930 . S
C191 C192 1.392 . S
C191 N195 1.328 . S
C191 H197 0.930 . S
C192 C191 1.392 . S
C192 N196 1.331 . S
C193 C194 1.391 . S
C193 N196 1.329 . S
C193 H203 0.930 . S
C194 C193 1.391 . S
C194 N195 1.334 . S
C194 H201 0.930 . S
N195 Zn179 2.119 . S
N195 C191 1.328 . S
N195 C194 1.334 . S
N196 C192 1.331 . S
N196 C193 1.329 . S
H197 C191 0.930 . S
C198 O178 1.257 . S
C198 O199 1.244 . S
O199 C198 1.244 . S
O200 C176 1.257 . S
O200 Zn179 2.019 . S
H201 C194 0.930 . S
H202 C181 0.930 . S
H203 C193 0.930 . S
Zn204 N208 2.020 . S
Zn204 O212 2.019 . S
Zn204 N214 2.119 . S
Zn204 O222 1.975 . S
C205 N206 1.334 . S
C205 N209 1.336 . S
N206 C205 1.334 . S
N206 C207 1.334 . S
C207 N206 1.334 . S
C207 N208 1.336 . S
N208 Zn204 2.020 . S
N208 C207 1.336 . S
N208 N209 1.354 . S
N209 C205 1.336 . S
N209 N208 1.354 . S
N209 Zn213 2.020 . S
C210 O211 1.244 . S
C210 O234 1.257 . S
O211 C210 1.244 . S
O212 Zn204 2.019 . S
O212 C232 1.257 . S
Zn213 N209 2.020 . S
Zn213 O220 1.975 . S
Zn213 N229 2.119 . S
Zn213 O234 2.019 . S
N214 Zn204 2.119 . S
N214 C216 1.334 . S
N214 C217 1.328 . S
C215 C216 1.391 . S
C215 N218 1.329 . S
C215 H236 0.930 . S
C216 N214 1.334 . S
C216 C215 1.391 . S
C216 H223 0.930 . S
C217 N214 1.328 . S
C217 C219 1.392 . S
C217 H224 0.930 . S
N218 C215 1.329 . S
N218 C219 1.331 . S
C219 C217 1.392 . S
C219 N218 1.331 . S
O220 Zn213 1.975 . S
O220 C221 1.252 . S
C221 O220 1.252 . S
C221 O222 1.252 . S
O222 Zn204 1.975 . S
O222 C221 1.252 . S
H223 C216 0.930 . S
H224 C217 0.930 . S
C225 C226 1.392 . S
C225 N229 1.328 . S
C225 H231 0.930 . S
C226 C225 1.392 . S
C226 N230 1.331 . S
C227 C228 1.391 . S
C227 N230 1.329 . S
C227 H237 0.930 . S
C228 C227 1.391 . S
C228 N229 1.334 . S
C228 H235 0.930 . S
N229 Zn213 2.119 . S
N229 C225 1.328 . S
N229 C228 1.334 . S
N230 C226 1.331 . S
N230 C227 1.329 . S
H231 C225 0.930 . S
C232 O212 1.257 . S
C232 O233 1.244 . S
O233 C232 1.244 . S
O234 C210 1.257 . S
O234 Zn213 2.019 . S
H235 C228 0.930 . S
H236 C215 0.930 . S
H237 C227 0.930 . S
Zn238 N242 2.020 . S
Zn238 O246 2.019 . S
Zn238 N248 2.119 . S
Zn238 O256 1.975 . S
C239 N240 1.334 . S
C239 N243 1.336 . S
N240 C239 1.334 . S
N240 C241 1.334 . S
C241 N240 1.334 . S
C241 N242 1.336 . S
N242 Zn238 2.020 . S
N242 C241 1.336 . S
N242 N243 1.354 . S
N243 C239 1.336 . S
N243 N242 1.354 . S
N243 Zn247 2.020 . S
C244 O245 1.244 . S
C244 O268 1.257 . S
O245 C244 1.244 . S
O246 Zn238 2.019 . S
O246 C266 1.257 . S
Zn247 N243 2.020 . S
Zn247 O254 1.975 . S
Zn247 N263 2.119 . S
Zn247 O268 2.019 . S
N248 Zn238 2.119 . S
N248 C250 1.334 . S
N248 C251 1.328 . S
C249 C250 1.391 . S
C249 N252 1.329 . S
C249 H270 0.930 . S
C250 N248 1.334 . S
C250 C249 1.391 . S
C250 H257 0.930 . S
C251 N248 1.328 . S
C251 C253 1.392 . S
C251 H258 0.930 . S
N252 C249 1.329 . S
N252 C253 1.331 . S
C253 C251 1.392 . S
C253 N252 1.331 . S
O254 Zn247 1.975 . S
O254 C255 1.252 . S
C255 O254 1.252 . S
C255 O256 1.252 . S
O256 Zn238 1.975 . S
O256 C255 1.252 . S
H257 C250 0.930 . S
H258 C251 0.930 . S
C259 C260 1.392 . S
C259 N263 1.328 . S
C259 H265 0.930 . S
C260 C259 1.392 . S
C260 N264 1.331 . S
C261 C262 1.391 . S
C261 N264 1.329 . S
C261 H271 0.930 . S
C262 C261 1.391 . S
C262 N263 1.334 . S
C262 H269 0.930 . S
N263 Zn247 2.119 . S
N263 C259 1.328 . S
N263 C262 1.334 . S
N264 C260 1.331 . S
N264 C261 1.329 . S
H265 C259 0.930 . S
C266 O246 1.257 . S
C266 O267 1.244 . S
O267 C266 1.244 . S
O268 C244 1.257 . S
O268 Zn247 2.019 . S
H269 C262 0.930 . S
H270 C249 0.930 . S
H271 C261 0.930 . S
H272 C280 0.950 . S
H273 C285 0.950 . S
H274 C282 0.950 . S
H275 C284 0.950 . S
H276 C286 0.950 . S
H277 C288 0.950 . S
H278 C290 0.950 . S
H279 C291 0.950 1_556 S
C280 H272 0.950 . S
C280 C281 1.386 . S
C280 C282 1.391 . S
C281 C280 1.386 . S
C281 C285 1.393 . S
C282 H274 0.950 . S
C282 C280 1.391 . S
C282 C283 1.400 . S
C283 C282 1.400 . S
C283 C284 1.398 . S
C283 C289 1.491 . S
C284 H275 0.950 . S
C284 C283 1.398 . S
C284 C285 1.391 . S
C285 H273 0.950 . S
C285 C281 1.393 . S
C285 C284 1.391 . S
C286 H276 0.950 . S
C286 C287 1.386 . S
C286 C288 1.391 . S
C287 C286 1.386 . S
C287 C291 1.393 . S
C288 H277 0.950 . S
C288 C286 1.391 . S
C288 C289 1.400 . S
C289 C283 1.491 . S
C289 C288 1.400 . S
C289 C290 1.398 . S
C290 H278 0.950 . S
C290 C289 1.398 . S
C290 C291 1.391 . S
C291 H279 0.950 1_554 S
C291 C287 1.393 . S
C291 C290 1.391 . S
H292 C300 0.950 . S
H293 C305 0.950 . S
H294 C302 0.950 . S
H295 C304 0.950 . S
H296 C306 0.950 . S
H297 C308 0.950 . S
H298 C310 0.950 . S
H299 C311 0.950 . S
C300 H292 0.950 . S
C300 C301 1.386 . S
C300 C302 1.391 . S
C301 C300 1.386 . S
C301 C305 1.393 . S
C302 H294 0.950 . S
C302 C300 1.391 . S
C302 C303 1.400 . S
C303 C302 1.400 . S
C303 C304 1.398 . S
C303 C309 1.491 . S
C304 H295 0.950 . S
C304 C303 1.398 . S
C304 C305 1.391 . S
C305 H293 0.950 . S
C305 C301 1.393 . S
C305 C304 1.391 . S
C306 H296 0.950 . S
C306 C307 1.386 . S
C306 C308 1.391 . S
C307 C306 1.386 . S
C307 C311 1.393 . S
C308 H297 0.950 . S
C308 C306 1.391 . S
C308 C309 1.400 . S
C309 C303 1.491 . S
C309 C308 1.400 . S
C309 C310 1.398 . S
C310 H298 0.950 . S
C310 C309 1.398 . S
C310 C311 1.391 . S
C311 H299 0.950 . S
C311 C307 1.393 . S
C311 C310 1.391 . S
H312 C320 0.950 . S
H313 C325 0.950 1_556 S
H314 C322 0.950 . S
H315 C324 0.950 . S
H316 C326 0.950 . S
H317 C328 0.950 . S
H318 C330 0.950 . S
H319 C331 0.950 . S
C320 H312 0.950 . S
C320 C321 1.386 . S
C320 C322 1.391 . S
C321 C320 1.386 . S
C321 C325 1.393 . S
C322 H314 0.950 . S
C322 C320 1.391 . S
C322 C323 1.400 . S
C323 C322 1.400 . S
C323 C324 1.398 . S
C323 C329 1.491 . S
C324 H315 0.950 . S
C324 C323 1.398 . S
C324 C325 1.391 . S
C325 H313 0.950 1_554 S
C325 C321 1.393 . S
C325 C324 1.391 . S
C326 H316 0.950 . S
C326 C327 1.386 . S
C326 C328 1.391 . S
C327 C326 1.386 . S
C327 C331 1.393 . S
C328 H317 0.950 . S
C328 C326 1.391 . S
C328 C329 1.400 . S
C329 C323 1.491 . S
C329 C328 1.400 . S
C329 C330 1.398 . S
C330 H318 0.950 . S
C330 C329 1.398 . S
C330 C331 1.391 . S
C331 H319 0.950 . S
C331 C327 1.393 . S
C331 C330 1.391 . S
H332 C340 0.950 . S
H333 C345 0.950 . S
H334 C342 0.950 . S
H335 C344 0.950 . S
H336 C346 0.950 . S
H337 C348 0.950 . S
H338 C350 0.950 . S
H339 C351 0.950 . S
C340 H332 0.950 . S
C340 C341 1.386 . S
C340 C342 1.391 . S
C341 C340 1.386 . S
C341 C345 1.393 . S
C342 H334 0.950 . S
C342 C340 1.391 . S
C342 C343 1.400 . S
C343 C342 1.400 . S
C343 C344 1.398 . S
C343 C349 1.491 . S
C344 H335 0.950 . S
C344 C343 1.398 . S
C344 C345 1.391 . S
C345 H333 0.950 . S
C345 C341 1.393 . S
C345 C344 1.391 . S
C346 H336 0.950 . S
C346 C347 1.386 . S
C346 C348 1.391 . S
C347 C346 1.386 . S
C347 C351 1.393 . S
C348 H337 0.950 . S
C348 C346 1.391 . S
C348 C349 1.400 . S
C349 C343 1.491 . S
C349 C348 1.400 . S
C349 C350 1.398 . S
C350 H338 0.950 . S
C350 C349 1.398 . S
C350 C351 1.391 . S
C351 H339 0.950 . S
C351 C347 1.393 . S
C351 C350 1.391 . S
H352 C360 0.950 . S
H353 C365 0.950 . S
H354 C362 0.950 . S
H355 C364 0.950 . S
H356 C366 0.950 . S
H357 C368 0.950 . S
H358 C370 0.950 . S
H359 C371 0.950 . S
C360 H352 0.950 . S
C360 C361 1.386 . S
C360 C362 1.391 . S
C361 C360 1.386 . S
C361 C365 1.393 . S
C362 H354 0.950 . S
C362 C360 1.391 . S
C362 C363 1.400 . S
C363 C362 1.400 . S
C363 C364 1.398 . S
C363 C369 1.491 . S
C364 H355 0.950 . S
C364 C363 1.398 . S
C364 C365 1.391 . S
C365 H353 0.950 . S
C365 C361 1.393 . S
C365 C364 1.391 . S
C366 H356 0.950 . S
C366 C367 1.386 . S
C366 C368 1.391 . S
C367 C366 1.386 . S
C367 C371 1.393 . S
C368 H357 0.950 . S
C368 C366 1.391 . S
C368 C369 1.400 . S
C369 C363 1.491 . S
C369 C368 1.400 . S
C369 C370 1.398 . S
C370 H358 0.950 . S
C370 C369 1.398 . S
C370 C371 1.391 . S
C371 H359 0.950 . S
C371 C367 1.393 . S
C371 C370 1.391 . S
H372 C380 0.950 . S
H373 C385 0.950 . S
H374 C382 0.950 . S
H375 C384 0.950 . S
H376 C386 0.950 . S
H377 C388 0.950 . S
H378 C390 0.950 . S
H379 C391 0.950 . S
C380 H372 0.950 . S
C380 C381 1.386 . S
C380 C382 1.391 . S
C381 C380 1.386 . S
C381 C385 1.393 . S
C382 H374 0.950 . S
C382 C380 1.391 . S
C382 C383 1.400 . S
C383 C382 1.400 . S
C383 C384 1.398 . S
C383 C389 1.491 . S
C384 H375 0.950 . S
C384 C383 1.398 . S
C384 C385 1.391 . S
C385 H373 0.950 . S
C385 C381 1.393 . S
C385 C384 1.391 . S
C386 H376 0.950 . S
C386 C387 1.386 . S
C386 C388 1.391 . S
C387 C386 1.386 . S
C387 C391 1.393 . S
C388 H377 0.950 . S
C388 C386 1.391 . S
C388 C389 1.400 . S
C389 C383 1.491 . S
C389 C388 1.400 . S
C389 C390 1.398 . S
C390 H378 0.950 . S
C390 C389 1.398 . S
C390 C391 1.391 . S
C391 H379 0.950 . S
C391 C387 1.393 . S
C391 C390 1.391 . S
H392 C400 0.950 . S
H393 C405 0.950 . S
H394 C402 0.950 . S
H395 C404 0.950 . S
H396 C406 0.950 . S
H397 C408 0.950 . S
H398 C410 0.950 . S
H399 C411 0.950 . S
C400 H392 0.950 . S
C400 C401 1.386 . S
C400 C402 1.391 . S
C401 C400 1.386 . S
C401 C405 1.393 . S
C402 H394 0.950 . S
C402 C400 1.391 . S
C402 C403 1.400 . S
C403 C402 1.400 . S
C403 C404 1.398 . S
C403 C409 1.491 . S
C404 H395 0.950 . S
C404 C403 1.398 . S
C404 C405 1.391 . S
C405 H393 0.950 . S
C405 C401 1.393 . S
C405 C404 1.391 . S
C406 H396 0.950 . S
C406 C407 1.386 . S
C406 C408 1.391 . S
C407 C406 1.386 . S
C407 C411 1.393 . S
C408 H397 0.950 . S
C408 C406 1.391 . S
C408 C409 1.400 . S
C409 C403 1.491 . S
C409 C408 1.400 . S
C409 C410 1.398 . S
C410 H398 0.950 . S
C410 C409 1.398 . S
C410 C411 1.391 . S
C411 H399 0.950 . S
C411 C407 1.393 . S
C411 C410 1.391 . S
H412 C420 0.950 . S
H413 C425 0.950 . S
H414 C422 0.950 . S
H415 C424 0.950 . S
H416 C426 0.950 . S
H417 C428 0.950 . S
H418 C430 0.950 . S
H419 C431 0.950 . S
C420 H412 0.950 . S
C420 C421 1.386 . S
C420 C422 1.391 . S
C421 C420 1.386 . S
C421 C425 1.393 . S
C422 H414 0.950 . S
C422 C420 1.391 . S
C422 C423 1.400 . S
C423 C422 1.400 . S
C423 C424 1.398 . S
C423 C429 1.491 . S
C424 H415 0.950 . S
C424 C423 1.398 . S
C424 C425 1.391 . S
C425 H413 0.950 . S
C425 C421 1.393 . S
C425 C424 1.391 . S
C426 H416 0.950 . S
C426 C427 1.386 . S
C426 C428 1.391 . S
C427 C426 1.386 . S
C427 C431 1.393 . S
C428 H417 0.950 . S
C428 C426 1.391 . S
C428 C429 1.400 . S
C429 C423 1.491 . S
C429 C428 1.400 . S
C429 C430 1.398 . S
C430 H418 0.950 . S
C430 C429 1.398 . S
C430 C431 1.391 . S
C431 H419 0.950 . S
C431 C427 1.393 . S
C431 C430 1.391 . S
H432 C440 0.950 . S
H433 C445 0.950 . S
H434 C442 0.950 . S
H435 C444 0.950 . S
H436 C446 0.950 . S
H437 C448 0.950 . S
H438 C450 0.950 . S
H439 C451 0.950 . S
C440 H432 0.950 . S
C440 C441 1.386 . S
C440 C442 1.391 . S
C441 C440 1.386 . S
C441 C445 1.393 . S
C442 H434 0.950 . S
C442 C440 1.391 . S
C442 C443 1.400 . S
C443 C442 1.400 . S
C443 C444 1.398 . S
C443 C449 1.491 1_545 S
C444 H435 0.950 . S
C444 C443 1.398 . S
C444 C445 1.391 . S
C445 H433 0.950 . S
C445 C441 1.393 . S
C445 C444 1.391 . S
C446 H436 0.950 . S
C446 C447 1.386 . S
C446 C448 1.391 . S
C447 C446 1.386 . S
C447 C451 1.393 . S
C448 H437 0.950 . S
C448 C446 1.391 . S
C448 C449 1.400 . S
C449 C443 1.491 1_565 S
C449 C448 1.400 . S
C449 C450 1.398 . S
C450 H438 0.950 . S
C450 C449 1.398 . S
C450 C451 1.391 . S
C451 H439 0.950 . S
C451 C447 1.393 . S
C451 C450 1.391 . S
H452 C460 0.950 . S
H453 C465 0.950 . S
H454 C462 0.950 . S
H455 C464 0.950 . S
H456 C466 0.950 . S
H457 C468 0.950 . S
H458 C470 0.950 . S
H459 C471 0.950 . S
C460 H452 0.950 . S
C460 C461 1.386 . S
C460 C462 1.391 . S
C461 C460 1.386 . S
C461 C465 1.393 . S
C462 H454 0.950 . S
C462 C460 1.391 . S
C462 C463 1.400 . S
C463 C462 1.400 . S
C463 C464 1.398 . S
C463 C469 1.491 1_655 S
C464 H455 0.950 . S
C464 C463 1.398 . S
C464 C465 1.391 . S
C465 H453 0.950 . S
C465 C461 1.393 . S
C465 C464 1.391 . S
C466 H456 0.950 . S
C466 C467 1.386 . S
C466 C468 1.391 . S
C467 C466 1.386 . S
C467 C471 1.393 . S
C468 H457 0.950 . S
C468 C466 1.391 . S
C468 C469 1.400 . S
C469 C463 1.491 1_455 S
C469 C468 1.400 . S
C469 C470 1.398 . S
C470 H458 0.950 . S
C470 C469 1.398 . S
C470 C471 1.391 . S
C471 H459 0.950 . S
C471 C467 1.393 . S
C471 C470 1.391 . S
H472 C480 0.950 1_455 S
H473 C485 0.950 . S
H474 C482 0.950 . S
H475 C484 0.950 . S
H476 C486 0.950 1_655 S
H477 C488 0.950 . S
H478 C490 0.950 . S
H479 C491 0.950 . S
C480 H472 0.950 1_655 S
C480 C481 1.386 . S
C480 C482 1.391 1_655 S
C481 C480 1.386 . S
C481 C485 1.393 . S
C482 H474 0.950 . S
C482 C480 1.391 1_455 S
C482 C483 1.400 1_455 S
C483 C482 1.400 1_655 S
C483 C484 1.398 . S
C483 C489 1.491 1_655 S
C484 H475 0.950 . S
C484 C483 1.398 . S
C484 C485 1.391 . S
C485 H473 0.950 . S
C485 C481 1.393 . S
C485 C484 1.391 . S
C486 H476 0.950 1_455 S
C486 C487 1.386 . S
C486 C488 1.391 1_455 S
C487 C486 1.386 . S
C487 C491 1.393 . S
C488 H477 0.950 . S
C488 C486 1.391 1_655 S
C488 C489 1.400 1_655 S
C489 C483 1.491 1_455 S
C489 C488 1.400 1_455 S
C489 C490 1.398 . S
C490 H478 0.950 . S
C490 C489 1.398 . S
C490 C491 1.391 . S
C491 H479 0.950 . S
C491 C487 1.393 . S
C491 C490 1.391 . S
H492 C500 0.950 1_565 S
H493 C505 0.950 . S
H494 C502 0.950 . S
H495 C504 0.950 . S
H496 C506 0.950 1_545 S
H497 C508 0.950 . S
H498 C510 0.950 . S
H499 C511 0.950 . S
C500 H492 0.950 1_545 S
C500 C501 1.386 . S
C500 C502 1.391 1_545 S
C501 C500 1.386 . S
C501 C505 1.393 . S
C502 H494 0.950 . S
C502 C500 1.391 1_565 S
C502 C503 1.400 1_565 S
C503 C502 1.400 1_545 S
C503 C504 1.398 . S
C503 C509 1.491 1_545 S
C504 H495 0.950 . S
C504 C503 1.398 . S
C504 C505 1.391 . S
C505 H493 0.950 . S
C505 C501 1.393 . S
C505 C504 1.391 . S
C506 H496 0.950 1_565 S
C506 C507 1.386 . S
C506 C508 1.391 1_565 S
C507 C506 1.386 . S
C507 C511 1.393 . S
C508 H497 0.950 . S
C508 C506 1.391 1_545 S
C508 C509 1.400 1_545 S
C509 C503 1.491 1_565 S
C509 C508 1.400 1_565 S
C509 C510 1.398 . S
C510 H498 0.950 . S
C510 C509 1.398 . S
C510 C511 1.391 . S
C511 H499 0.950 . S
C511 C507 1.393 . S
C511 C510 1.391 . S
H512 C520 0.950 . S
H513 C525 0.950 . S
H514 C522 0.950 . S
H515 C524 0.950 . S
H516 C526 0.950 . S
H517 C528 0.950 . S
H518 C530 0.950 . S
H519 C531 0.950 . S
C520 H512 0.950 . S
C520 C521 1.386 . S
C520 C522 1.391 . S
C521 C520 1.386 . S
C521 C525 1.393 . S
C522 H514 0.950 . S
C522 C520 1.391 . S
C522 C523 1.400 . S
C523 C522 1.400 . S
C523 C524 1.398 . S
C523 C529 1.491 . S
C524 H515 0.950 . S
C524 C523 1.398 . S
C524 C525 1.391 . S
C525 H513 0.950 . S
C525 C521 1.393 . S
C525 C524 1.391 . S
C526 H516 0.950 . S
C526 C527 1.386 . S
C526 C528 1.391 . S
C527 C526 1.386 . S
C527 C531 1.393 . S
C528 H517 0.950 . S
C528 C526 1.391 . S
C528 C529 1.400 . S
C529 C523 1.491 . S
C529 C528 1.400 . S
C529 C530 1.398 . S
C530 H518 0.950 . S
C530 C529 1.398 . S
C530 C531 1.391 . S
C531 H519 0.950 . S
C531 C527 1.393 . S
C531 C530 1.391 . S
H532 C540 0.950 . S
H533 C545 0.950 . S
H534 C542 0.950 . S
H535 C544 0.950 . S
H536 C546 0.950 . S
H537 C548 0.950 . S
H538 C550 0.950 . S
H539 C551 0.950 . S
C540 H532 0.950 . S
C540 C541 1.386 . S
C540 C542 1.391 . S
C541 C540 1.386 . S
C541 C545 1.393 . S
C542 H534 0.950 . S
C542 C540 1.391 . S
C542 C543 1.400 . S
C543 C542 1.400 . S
C543 C544 1.398 . S
C543 C549 1.491 . S
C544 H535 0.950 . S
C544 C543 1.398 . S
C544 C545 1.391 . S
C545 H533 0.950 . S
C545 C541 1.393 . S
C545 C544 1.391 . S
C546 H536 0.950 . S
C546 C547 1.386 . S
C546 C548 1.391 . S
C547 C546 1.386 . S
C547 C551 1.393 . S
C548 H537 0.950 . S
C548 C546 1.391 . S
C548 C549 1.400 . S
C549 C543 1.491 . S
C549 C548 1.400 . S
C549 C550 1.398 . S
C550 H538 0.950 . S
C550 C549 1.398 . S
C550 C551 1.391 . S
C551 H539 0.950 . S
C551 C547 1.393 . S
C551 C550 1.391 . S
H552 C560 0.950 . S
H553 C565 0.950 . S
H554 C562 0.950 . S
H555 C564 0.950 . S
H556 C566 0.950 . S
H557 C568 0.950 . S
H558 C570 0.950 . S
H559 C571 0.950 . S
C560 H552 0.950 . S
C560 C561 1.386 . S
C560 C562 1.391 . S
C561 C560 1.386 . S
C561 C565 1.393 . S
C562 H554 0.950 . S
C562 C560 1.391 . S
C562 C563 1.400 . S
C563 C562 1.400 . S
C563 C564 1.398 . S
C563 C569 1.491 . S
C564 H555 0.950 . S
C564 C563 1.398 . S
C564 C565 1.391 . S
C565 H553 0.950 . S
C565 C561 1.393 . S
C565 C564 1.391 . S
C566 H556 0.950 . S
C566 C567 1.386 . S
C566 C568 1.391 . S
C567 C566 1.386 . S
C567 C571 1.393 . S
C568 H557 0.950 . S
C568 C566 1.391 . S
C568 C569 1.400 . S
C569 C563 1.491 . S
C569 C568 1.400 . S
C569 C570 1.398 . S
C570 H558 0.950 . S
C570 C569 1.398 . S
C570 C571 1.391 . S
C571 H559 0.950 . S
C571 C567 1.393 . S
C571 C570 1.391 . S
H572 C580 0.950 . S
H573 C585 0.950 . S
H574 C582 0.950 . S
H575 C584 0.950 . S
H576 C586 0.950 . S
H577 C588 0.950 . S
H578 C590 0.950 . S
H579 C591 0.950 . S
C580 H572 0.950 . S
C580 C581 1.386 . S
C580 C582 1.391 . S
C581 C580 1.386 . S
C581 C585 1.393 . S
C582 H574 0.950 . S
C582 C580 1.391 . S
C582 C583 1.400 . S
C583 C582 1.400 . S
C583 C584 1.398 . S
C583 C589 1.491 . S
C584 H575 0.950 . S
C584 C583 1.398 . S
C584 C585 1.391 . S
C585 H573 0.950 . S
C585 C581 1.393 . S
C585 C584 1.391 . S
C586 H576 0.950 . S
C586 C587 1.386 . S
C586 C588 1.391 . S
C587 C586 1.386 . S
C587 C591 1.393 . S
C588 H577 0.950 . S
C588 C586 1.391 . S
C588 C589 1.400 . S
C589 C583 1.491 . S
C589 C588 1.400 . S
C589 C590 1.398 . S
C590 H578 0.950 . S
C590 C589 1.398 . S
C590 C591 1.391 . S
C591 H579 0.950 . S
C591 C587 1.393 . S
C591 C590 1.391 . S
H592 C600 0.950 . S
H593 C605 0.950 . S
H594 C602 0.950 . S
H595 C604 0.950 . S
H596 C606 0.950 . S
H597 C608 0.950 . S
H598 C610 0.950 . S
H599 C611 0.950 . S
C600 H592 0.950 . S
C600 C601 1.386 . S
C600 C602 1.391 . S
C601 C600 1.386 . S
C601 C605 1.393 . S
C602 H594 0.950 . S
C602 C600 1.391 . S
C602 C603 1.400 . S
C603 C602 1.400 . S
C603 C604 1.398 . S
C603 C609 1.491 . S
C604 H595 0.950 . S
C604 C603 1.398 . S
C604 C605 1.391 . S
C605 H593 0.950 . S
C605 C601 1.393 . S
C605 C604 1.391 . S
C606 H596 0.950 . S
C606 C607 1.386 . S
C606 C608 1.391 . S
C607 C606 1.386 . S
C607 C611 1.393 . S
C608 H597 0.950 . S
C608 C606 1.391 . S
C608 C609 1.400 . S
C609 C603 1.491 . S
C609 C608 1.400 . S
C609 C610 1.398 . S
C610 H598 0.950 . S
C610 C609 1.398 . S
C610 C611 1.391 . S
C611 H599 0.950 . S
C611 C607 1.393 . S
C611 C610 1.391 . S
H612 C620 0.950 . S
H613 C625 0.950 . S
H614 C622 0.950 . S
H615 C624 0.950 . S
H616 C626 0.950 . S
H617 C628 0.950 . S
H618 C630 0.950 . S
H619 C631 0.950 . S
C620 H612 0.950 . S
C620 C621 1.386 . S
C620 C622 1.391 . S
C621 C620 1.386 . S
C621 C625 1.393 . S
C622 H614 0.950 . S
C622 C620 1.391 . S
C622 C623 1.400 . S
C623 C622 1.400 . S
C623 C624 1.398 . S
C623 C629 1.491 . S
C624 H615 0.950 . S
C624 C623 1.398 . S
C624 C625 1.391 . S
C625 H613 0.950 . S
C625 C621 1.393 . S
C625 C624 1.391 . S
C626 H616 0.950 . S
C626 C627 1.386 . S
C626 C628 1.391 . S
C627 C626 1.386 . S
C627 C631 1.393 . S
C628 H617 0.950 . S
C628 C626 1.391 . S
C628 C629 1.400 . S
C629 C623 1.491 . S
C629 C628 1.400 . S
C629 C630 1.398 . S
C630 H618 0.950 . S
C630 C629 1.398 . S
C630 C631 1.391 . S
C631 H619 0.950 . S
C631 C627 1.393 . S
C631 C630 1.391 . S
H632 C640 0.950 . S
H633 C645 0.950 . S
H634 C642 0.950 . S
H635 C644 0.950 . S
H636 C646 0.950 . S
H637 C648 0.950 . S
H638 C650 0.950 . S
H639 C651 0.950 . S
C640 H632 0.950 . S
C640 C641 1.386 . S
C640 C642 1.391 . S
C641 C640 1.386 . S
C641 C645 1.393 . S
C642 H634 0.950 . S
C642 C640 1.391 . S
C642 C643 1.400 . S
C643 C642 1.400 . S
C643 C644 1.398 . S
C643 C649 1.491 . S
C644 H635 0.950 . S
C644 C643 1.398 . S
C644 C645 1.391 . S
C645 H633 0.950 . S
C645 C641 1.393 . S
C645 C644 1.391 . S
C646 H636 0.950 . S
C646 C647 1.386 . S
C646 C648 1.391 . S
C647 C646 1.386 . S
C647 C651 1.393 . S
C648 H637 0.950 . S
C648 C646 1.391 . S
C648 C649 1.400 . S
C649 C643 1.491 . S
C649 C648 1.400 . S
C649 C650 1.398 . S
C650 H638 0.950 . S
C650 C649 1.398 . S
C650 C651 1.391 . S
C651 H639 0.950 . S
C651 C647 1.393 . S
C651 C650 1.391 . S
H652 C660 0.950 . S
H653 C665 0.950 . S
H654 C662 0.950 . S
H655 C664 0.950 . S
H656 C666 0.950 . S
H657 C668 0.950 . S
H658 C670 0.950 . S
H659 C671 0.950 . S
C660 H652 0.950 . S
C660 C661 1.386 . S
C660 C662 1.391 . S
C661 C660 1.386 . S
C661 C665 1.393 . S
C662 H654 0.950 . S
C662 C660 1.391 . S
C662 C663 1.400 . S
C663 C662 1.400 . S
C663 C664 1.398 . S
C663 C669 1.491 . S
C664 H655 0.950 . S
C664 C663 1.398 . S
C664 C665 1.391 . S
C665 H653 0.950 . S
C665 C661 1.393 . S
C665 C664 1.391 . S
C666 H656 0.950 . S
C666 C667 1.386 . S
C666 C668 1.391 . S
C667 C666 1.386 . S
C667 C671 1.393 . S
C668 H657 0.950 . S
C668 C666 1.391 . S
C668 C669 1.400 . S
C669 C663 1.491 . S
C669 C668 1.400 . S
C669 C670 1.398 . S
C670 H658 0.950 . S
C670 C669 1.398 . S
C670 C671 1.391 . S
C671 H659 0.950 . S
C671 C667 1.393 . S
C671 C670 1.391 . S
H672 C680 0.950 . S
H673 C685 0.950 . S
H674 C682 0.950 . S
H675 C684 0.950 . S
H676 C686 0.950 . S
H677 C688 0.950 . S
H678 C690 0.950 . S
H679 C691 0.950 . S
C680 H672 0.950 . S
C680 C681 1.386 . S
C680 C682 1.391 . S
C681 C680 1.386 . S
C681 C685 1.393 . S
C682 H674 0.950 . S
C682 C680 1.391 . S
C682 C683 1.400 . S
C683 C682 1.400 . S
C683 C684 1.398 . S
C683 C689 1.491 . S
C684 H675 0.950 . S
C684 C683 1.398 . S
C684 C685 1.391 . S
C685 H673 0.950 . S
C685 C681 1.393 . S
C685 C684 1.391 . S
C686 H676 0.950 . S
C686 C687 1.386 . S
C686 C688 1.391 . S
C687 C686 1.386 . S
C687 C691 1.393 . S
C688 H677 0.950 . S
C688 C686 1.391 . S
C688 C689 1.400 . S
C689 C683 1.491 . S
C689 C688 1.400 . S
C689 C690 1.398 . S
C690 H678 0.950 . S
C690 C689 1.398 . S
C690 C691 1.391 . S
C691 H679 0.950 . S
C691 C687 1.393 . S
C691 C690 1.391 . S
H692 C700 0.950 . S
H693 C705 0.950 . S
H694 C702 0.950 . S
H695 C704 0.950 . S
H696 C706 0.950 . S
H697 C708 0.950 . S
H698 C710 0.950 . S
H699 C711 0.950 . S
C700 H692 0.950 . S
C700 C701 1.386 . S
C700 C702 1.391 . S
C701 C700 1.386 . S
C701 C705 1.393 . S
C702 H694 0.950 . S
C702 C700 1.391 . S
C702 C703 1.400 . S
C703 C702 1.400 . S
C703 C704 1.398 . S
C703 C709 1.491 . S
C704 H695 0.950 . S
C704 C703 1.398 . S
C704 C705 1.391 . S
C705 H693 0.950 . S
C705 C701 1.393 . S
C705 C704 1.391 . S
C706 H696 0.950 . S
C706 C707 1.386 . S
C706 C708 1.391 . S
C707 C706 1.386 . S
C707 C711 1.393 . S
C708 H697 0.950 . S
C708 C706 1.391 . S
C708 C709 1.400 . S
C709 C703 1.491 . S
C709 C708 1.400 . S
C709 C710 1.398 . S
C710 H698 0.950 . S
C710 C709 1.398 . S
C710 C711 1.391 . S
C711 H699 0.950 . S
C711 C707 1.393 . S
C711 C710 1.391 . S
H712 C720 0.950 . S
H713 C725 0.950 . S
H714 C722 0.950 . S
H715 C724 0.950 . S
H716 C726 0.950 . S
H717 C728 0.950 . S
H718 C730 0.950 . S
H719 C731 0.950 . S
C720 H712 0.950 . S
C720 C721 1.386 . S
C720 C722 1.391 . S
C721 C720 1.386 . S
C721 C725 1.393 . S
C722 H714 0.950 . S
C722 C720 1.391 . S
C722 C723 1.400 . S
C723 C722 1.400 . S
C723 C724 1.398 . S
C723 C729 1.491 . S
C724 H715 0.950 . S
C724 C723 1.398 . S
C724 C725 1.391 . S
C725 H713 0.950 . S
C725 C721 1.393 . S
C725 C724 1.391 . S
C726 H716 0.950 . S
C726 C727 1.386 . S
C726 C728 1.391 . S
C727 C726 1.386 . S
C727 C731 1.393 . S
C728 H717 0.950 . S
C728 C726 1.391 . S
C728 C729 1.400 . S
C729 C723 1.491 . S
C729 C728 1.400 . S
C729 C730 1.398 . S
C730 H718 0.950 . S
C730 C729 1.398 . S
C730 C731 1.391 . S
C731 H719 0.950 . S
C731 C727 1.393 . S
C731 C730 1.391 . S
H732 C740 0.950 . S
H733 C745 0.950 . S
H734 C742 0.950 . S
H735 C744 0.950 . S
H736 C746 0.950 . S
H737 C748 0.950 . S
H738 C750 0.950 . S
H739 C751 0.950 . S
C740 H732 0.950 . S
C740 C741 1.386 . S
C740 C742 1.391 . S
C741 C740 1.386 . S
C741 C745 1.393 . S
C742 H734 0.950 . S
C742 C740 1.391 . S
C742 C743 1.400 . S
C743 C742 1.400 . S
C743 C744 1.398 . S
C743 C749 1.491 . S
C744 H735 0.950 . S
C744 C743 1.398 . S
C744 C745 1.391 . S
C745 H733 0.950 . S
C745 C741 1.393 . S
C745 C744 1.391 . S
C746 H736 0.950 . S
C746 C747 1.386 . S
C746 C748 1.391 . S
C747 C746 1.386 . S
C747 C751 1.393 . S
C748 H737 0.950 . S
C748 C746 1.391 . S
C748 C749 1.400 . S
C749 C743 1.491 . S
C749 C748 1.400 . S
C749 C750 1.398 . S
C750 H738 0.950 . S
C750 C749 1.398 . S
C750 C751 1.391 . S
C751 H739 0.950 . S
C751 C747 1.393 . S
C751 C750 1.391 . S
H752 C760 0.950 . S
H753 C765 0.950 . S
H754 C762 0.950 1_554 S
H755 C764 0.950 . S
H756 C766 0.950 . S
H757 C768 0.950 1_556 S
H758 C770 0.950 1_565 S
H759 C771 0.950 . S
C760 H752 0.950 . S
C760 C761 1.386 . S
C760 C762 1.391 . S
C761 C760 1.386 . S
C761 C765 1.393 . S
C762 H754 0.950 1_556 S
C762 C760 1.391 . S
C762 C763 1.400 . S
C763 C762 1.400 . S
C763 C764 1.398 1_565 S
C763 C769 1.491 1_566 S
C764 H755 0.950 . S
C764 C763 1.398 1_545 S
C764 C765 1.391 1_545 S
C765 H753 0.950 . S
C765 C761 1.393 . S
C765 C764 1.391 1_565 S
C766 H756 0.950 . S
C766 C767 1.386 . S
C766 C768 1.391 . S
C767 C766 1.386 . S
C767 C771 1.393 . S
C768 H757 0.950 1_554 S
C768 C766 1.391 . S
C768 C769 1.400 . S
C769 C763 1.491 1_544 S
C769 C768 1.400 . S
C769 C770 1.398 . S
C770 H758 0.950 1_545 S
C770 C769 1.398 . S
C770 C771 1.391 . S
C771 H759 0.950 . S
C771 C767 1.393 . S
C771 C770 1.391 . S
H772 C780 0.950 . S
H773 C785 0.950 . S
H774 C782 0.950 . S
H775 C784 0.950 . S
H776 C786 0.950 . S
H777 C788 0.950 . S
H778 C790 0.940 1_554 S
H779 C791 0.950 . S
C780 H772 0.950 . S
C780 C781 1.386 . S
C780 C782 1.391 . S
C781 C780 1.386 . S
C781 C785 1.393 . S
C782 H774 0.950 . S
C782 C780 1.391 . S
C782 C783 1.400 . S
C783 C782 1.400 . S
C783 C784 1.398 . S
C783 C789 1.491 1_654 S
C784 H775 0.950 . S
C784 C783 1.398 . S
C784 C785 1.391 . S
C785 H773 0.950 . S
C785 C781 1.393 . S
C785 C784 1.391 . S
C786 H776 0.950 . S
C786 C787 1.386 . S
C786 C788 1.391 . S
C787 C786 1.386 . S
C787 C791 1.393 . S
C788 H777 0.950 . S
C788 C786 1.391 . S
C788 C789 1.400 . S
C789 C783 1.491 1_456 S
C789 C788 1.400 . S
C789 C790 1.398 . S
C790 H778 0.940 1_556 S
C790 C789 1.398 . S
C790 C791 1.391 . S
C791 H779 0.950 . S
C791 C787 1.393 . S
C791 C790 1.391 . S
H792 C800 0.950 . S
H793 C805 0.950 . S
H794 C802 0.950 1_545 S
H795 C804 0.950 1_556 S
H796 C806 0.950 . S
H797 C808 0.950 . S
H798 C810 0.950 1_554 S
H799 C811 0.950 . S
C800 H792 0.950 . S
C800 C801 1.386 . S
C800 C802 1.391 . S
C801 C800 1.386 . S
C801 C805 1.393 . S
C802 H794 0.950 1_565 S
C802 C800 1.391 . S
C802 C803 1.400 . S
C803 C802 1.400 . S
C803 C804 1.398 . S
C803 C809 1.491 1_564 S
C804 H795 0.950 1_554 S
C804 C803 1.398 . S
C804 C805 1.391 . S
C805 H793 0.950 . S
C805 C801 1.393 . S
C805 C804 1.391 . S
C806 H796 0.950 . S
C806 C807 1.386 . S
C806 C808 1.391 1_545 S
C807 C806 1.386 . S
C807 C811 1.393 . S
C808 H797 0.950 . S
C808 C806 1.391 1_565 S
C808 C809 1.400 1_565 S
C809 C803 1.491 1_546 S
C809 C808 1.400 1_545 S
C809 C810 1.398 . S
C810 H798 0.950 1_556 S
C810 C809 1.398 . S
C810 C811 1.391 . S
C811 H799 0.950 . S
C811 C807 1.393 . S
C811 C810 1.391 . S
H812 C820 0.950 . S
H813 C825 0.950 . S
H814 C822 0.950 1_554 S
H815 C824 0.950 1_455 S
H816 C826 0.950 . S
H817 C828 0.950 1_556 S
H818 C830 0.950 . S
H819 C831 0.950 . S
C820 H812 0.950 . S
C820 C821 1.386 . S
C820 C822 1.391 . S
C821 C820 1.386 . S
C821 C825 1.393 . S
C822 H814 0.950 1_556 S
C822 C820 1.391 . S
C822 C823 1.400 . S
C823 C822 1.400 . S
C823 C824 1.398 . S
C823 C829 1.491 1_656 S
C824 H815 0.950 1_655 S
C824 C823 1.398 . S
C824 C825 1.391 . S
C825 H813 0.950 . S
C825 C821 1.393 . S
C825 C824 1.391 . S
C826 H816 0.950 . S
C826 C827 1.386 . S
C826 C828 1.391 . S
C827 C826 1.386 . S
C827 C831 1.393 . S
C828 H817 0.950 1_554 S
C828 C826 1.391 . S
C828 C829 1.400 . S
C829 C823 1.491 1_454 S
C829 C828 1.400 . S
C829 C830 1.398 1_455 S
C830 H818 0.950 . S
C830 C829 1.398 1_655 S
C830 C831 1.391 1_655 S
C831 H819 0.950 . S
C831 C827 1.393 . S
C831 C830 1.391 1_455 S
C281 C1 1.547 . S
C287 C176 1.630 1_554 S
C301 C232 1.615 1_556 S
C307 C37 1.542 . S
C321 C244 1.609 1_554 S
C327 C71 1.514 . S
C341 C105 1.514 . S
C347 C142 1.617 1_556 S
C361 C139 1.549 . S
C367 C108 1.625 . S
C381 C173 1.543 . S
C387 C28 1.615 . S
C401 C205 1.547 . S
C407 C40 1.630 . S
C421 C241 1.513 . S
C427 C74 1.609 . S
C441 C22 0.957 . S
C447 C83 0.993 . S
C461 C117 0.985 . S
C467 C49 1.003 . S
C481 C151 0.956 . S
C487 C226 0.984 . S
C501 C185 0.984 . S
C507 C253 0.956 . S
C521 C6 2.271 . S
C527 C137 2.239 . S
C541 C171 2.224 . S
C547 C62 2.290 . S
C561 C96 2.273 . S
C567 C207 2.231 . S
C581 C239 2.224 . S
C587 C130 2.290 . S
C601 C164 2.284 1_455 S
C607 C3 2.239 . S
C621 C198 2.274 1_565 S
C627 C35 2.229 . S
C641 C69 2.240 . S
C647 C210 2.272 1_655 S
C661 C103 2.233 . S
C667 C266 2.272 1_545 S
C681 C15 0.866 . S
C687 C51 0.896 . S
C701 C85 0.893 . S
C707 C56 0.882 . S
C721 C119 0.894 . S
C727 C90 0.894 . S
C741 C17 0.892 . S
C747 C124 0.899 . S
C761 C255 0.892 . S
C767 C158 0.900 . S
C781 C153 0.893 . S
C787 C192 0.884 . S
C801 C219 0.900 . S
C807 C187 0.892 . S
C821 C260 0.899 . S
C827 C221 0.893 . S
