# Generated by pormake.
# Topology ato, (4)-cn, num edge types: 1
# Building blocks:
#     Node 0, Type 0, BuildingBlock: TATPOV_clean_sbu_0, # of connection points: 4
#     Node 1, Type 0, BuildingBlock: TATPOV_clean_sbu_0, # of connection points: 4
#     Node 2, Type 0, BuildingBlock: TATPOV_clean_sbu_0, # of connection points: 4
#     Node 3, Type 0, BuildingBlock: TATPOV_clean_sbu_0, # of connection points: 4
#     Node 4, Type 0, BuildingBlock: TATPOV_clean_sbu_0, # of connection points: 4
#     Node 5, Type 0, BuildingBlock: TATPOV_clean_sbu_0, # of connection points: 4
#     Node 6, Type 0, BuildingBlock: TATPOV_clean_sbu_0, # of connection points: 4
#     Node 7, Type 0, BuildingBlock: TATPOV_clean_sbu_0, # of connection points: 4
#     Node 8, Type 0, BuildingBlock: TATPOV_clean_sbu_0, # of connection points: 4
#     Node 9, Type 0, BuildingBlock: TATPOV_clean_sbu_0, # of connection points: 4
#     Node 10, Type 0, BuildingBlock: TATPOV_clean_sbu_0, # of connection points: 4
#     Node 11, Type 0, BuildingBlock: TATPOV_clean_sbu_0, # of connection points: 4
#     Node 12, Type 0, BuildingBlock: TATPOV_clean_sbu_0, # of connection points: 4
#     Node 13, Type 0, BuildingBlock: TATPOV_clean_sbu_0, # of connection points: 4
#     Node 14, Type 0, BuildingBlock: TATPOV_clean_sbu_0, # of connection points: 4
#     Node 15, Type 0, BuildingBlock: TATPOV_clean_sbu_0, # of connection points: 4
#     Node 16, Type 0, BuildingBlock: TATPOV_clean_sbu_0, # of connection points: 4
#     Node 17, Type 0, BuildingBlock: TATPOV_clean_sbu_0, # of connection points: 4
#     Node 18, Type 0, BuildingBlock: TATPOV_clean_sbu_0, # of connection points: 4
#     Node 19, Type 0, BuildingBlock: TATPOV_clean_sbu_0, # of connection points: 4
#     Node 20, Type 0, BuildingBlock: TATPOV_clean_sbu_0, # of connection points: 4
#     Node 21, Type 0, BuildingBlock: TATPOV_clean_sbu_0, # of connection points: 4
#     Node 22, Type 0, BuildingBlock: TATPOV_clean_sbu_0, # of connection points: 4
#     Node 23, Type 0, BuildingBlock: TATPOV_clean_sbu_0, # of connection points: 4
#     Node 24, Type 0, BuildingBlock: TATPOV_clean_sbu_0, # of connection points: 4
#     Node 25, Type 0, BuildingBlock: TATPOV_clean_sbu_0, # of connection points: 4
#     Node 26, Type 0, BuildingBlock: TATPOV_clean_sbu_0, # of connection points: 4
#     Node 27, Type 0, BuildingBlock: TATPOV_clean_sbu_0, # of connection points: 4
#     Node 28, Type 0, BuildingBlock: TATPOV_clean_sbu_0, # of connection points: 4
#     Node 29, Type 0, BuildingBlock: TATPOV_clean_sbu_0, # of connection points: 4
#     Node 30, Type 0, BuildingBlock: TATPOV_clean_sbu_0, # of connection points: 4
#     Node 31, Type 0, BuildingBlock: TATPOV_clean_sbu_0, # of connection points: 4
#     Node 32, Type 0, BuildingBlock: TATPOV_clean_sbu_0, # of connection points: 4
#     Node 33, Type 0, BuildingBlock: TATPOV_clean_sbu_0, # of connection points: 4
#     Node 34, Type 0, BuildingBlock: TATPOV_clean_sbu_0, # of connection points: 4
#     Node 35, Type 0, BuildingBlock: TATPOV_clean_sbu_0, # of connection points: 4
#     Edge 36, Type (0, 0), BuildingBlock: OJICUG_clean_linker_0, # of connection points: 2
#     Edge 37, Type (0, 0), BuildingBlock: OJICUG_clean_linker_0, # of connection points: 2
#     Edge 38, Type (0, 0), BuildingBlock: OJICUG_clean_linker_0, # of connection points: 2
#     Edge 39, Type (0, 0), BuildingBlock: OJICUG_clean_linker_0, # of connection points: 2
#     Edge 40, Type (0, 0), BuildingBlock: OJICUG_clean_linker_0, # of connection points: 2
#     Edge 41, Type (0, 0), BuildingBlock: OJICUG_clean_linker_0, # of connection points: 2
#     Edge 42, Type (0, 0), BuildingBlock: OJICUG_clean_linker_0, # of connection points: 2
#     Edge 43, Type (0, 0), BuildingBlock: OJICUG_clean_linker_0, # of connection points: 2
#     Edge 44, Type (0, 0), BuildingBlock: OJICUG_clean_linker_0, # of connection points: 2
#     Edge 45, Type (0, 0), BuildingBlock: OJICUG_clean_linker_0, # of connection points: 2
#     Edge 46, Type (0, 0), BuildingBlock: OJICUG_clean_linker_0, # of connection points: 2
#     Edge 47, Type (0, 0), BuildingBlock: OJICUG_clean_linker_0, # of connection points: 2
#     Edge 48, Type (0, 0), BuildingBlock: OJICUG_clean_linker_0, # of connection points: 2
#     Edge 49, Type (0, 0), BuildingBlock: OJICUG_clean_linker_0, # of connection points: 2
#     Edge 50, Type (0, 0), BuildingBlock: OJICUG_clean_linker_0, # of connection points: 2
#     Edge 51, Type (0, 0), BuildingBlock: OJICUG_clean_linker_0, # of connection points: 2
#     Edge 52, Type (0, 0), BuildingBlock: OJICUG_clean_linker_0, # of connection points: 2
#     Edge 53, Type (0, 0), BuildingBlock: OJICUG_clean_linker_0, # of connection points: 2
#     Edge 54, Type (0, 0), BuildingBlock: OJICUG_clean_linker_0, # of connection points: 2
#     Edge 55, Type (0, 0), BuildingBlock: OJICUG_clean_linker_0, # of connection points: 2
#     Edge 56, Type (0, 0), BuildingBlock: OJICUG_clean_linker_0, # of connection points: 2
#     Edge 57, Type (0, 0), BuildingBlock: OJICUG_clean_linker_0, # of connection points: 2
#     Edge 58, Type (0, 0), BuildingBlock: OJICUG_clean_linker_0, # of connection points: 2
#     Edge 59, Type (0, 0), BuildingBlock: OJICUG_clean_linker_0, # of connection points: 2
#     Edge 60, Type (0, 0), BuildingBlock: OJICUG_clean_linker_0, # of connection points: 2
#     Edge 61, Type (0, 0), BuildingBlock: OJICUG_clean_linker_0, # of connection points: 2
#     Edge 62, Type (0, 0), BuildingBlock: OJICUG_clean_linker_0, # of connection points: 2
#     Edge 63, Type (0, 0), BuildingBlock: OJICUG_clean_linker_0, # of connection points: 2
#     Edge 64, Type (0, 0), BuildingBlock: OJICUG_clean_linker_0, # of connection points: 2
#     Edge 65, Type (0, 0), BuildingBlock: OJICUG_clean_linker_0, # of connection points: 2
#     Edge 66, Type (0, 0), BuildingBlock: OJICUG_clean_linker_0, # of connection points: 2
#     Edge 67, Type (0, 0), BuildingBlock: OJICUG_clean_linker_0, # of connection points: 2
#     Edge 68, Type (0, 0), BuildingBlock: OJICUG_clean_linker_0, # of connection points: 2
#     Edge 69, Type (0, 0), BuildingBlock: OJICUG_clean_linker_0, # of connection points: 2
#     Edge 70, Type (0, 0), BuildingBlock: OJICUG_clean_linker_0, # of connection points: 2
#     Edge 71, Type (0, 0), BuildingBlock: OJICUG_clean_linker_0, # of connection points: 2
#     Edge 72, Type (0, 0), BuildingBlock: OJICUG_clean_linker_0, # of connection points: 2
#     Edge 73, Type (0, 0), BuildingBlock: OJICUG_clean_linker_0, # of connection points: 2
#     Edge 74, Type (0, 0), BuildingBlock: OJICUG_clean_linker_0, # of connection points: 2
#     Edge 75, Type (0, 0), BuildingBlock: OJICUG_clean_linker_0, # of connection points: 2
#     Edge 76, Type (0, 0), BuildingBlock: OJICUG_clean_linker_0, # of connection points: 2
#     Edge 77, Type (0, 0), BuildingBlock: OJICUG_clean_linker_0, # of connection points: 2
#     Edge 78, Type (0, 0), BuildingBlock: OJICUG_clean_linker_0, # of connection points: 2
#     Edge 79, Type (0, 0), BuildingBlock: OJICUG_clean_linker_0, # of connection points: 2
#     Edge 80, Type (0, 0), BuildingBlock: OJICUG_clean_linker_0, # of connection points: 2
#     Edge 81, Type (0, 0), BuildingBlock: OJICUG_clean_linker_0, # of connection points: 2
#     Edge 82, Type (0, 0), BuildingBlock: OJICUG_clean_linker_0, # of connection points: 2
#     Edge 83, Type (0, 0), BuildingBlock: OJICUG_clean_linker_0, # of connection points: 2
#     Edge 84, Type (0, 0), BuildingBlock: OJICUG_clean_linker_0, # of connection points: 2
#     Edge 85, Type (0, 0), BuildingBlock: OJICUG_clean_linker_0, # of connection points: 2
#     Edge 86, Type (0, 0), BuildingBlock: OJICUG_clean_linker_0, # of connection points: 2
#     Edge 87, Type (0, 0), BuildingBlock: OJICUG_clean_linker_0, # of connection points: 2
#     Edge 88, Type (0, 0), BuildingBlock: OJICUG_clean_linker_0, # of connection points: 2
#     Edge 89, Type (0, 0), BuildingBlock: OJICUG_clean_linker_0, # of connection points: 2
#     Edge 90, Type (0, 0), BuildingBlock: OJICUG_clean_linker_0, # of connection points: 2
#     Edge 91, Type (0, 0), BuildingBlock: OJICUG_clean_linker_0, # of connection points: 2
#     Edge 92, Type (0, 0), BuildingBlock: OJICUG_clean_linker_0, # of connection points: 2
#     Edge 93, Type (0, 0), BuildingBlock: OJICUG_clean_linker_0, # of connection points: 2
#     Edge 94, Type (0, 0), BuildingBlock: OJICUG_clean_linker_0, # of connection points: 2
#     Edge 95, Type (0, 0), BuildingBlock: OJICUG_clean_linker_0, # of connection points: 2
#     Edge 96, Type (0, 0), BuildingBlock: OJICUG_clean_linker_0, # of connection points: 2
#     Edge 97, Type (0, 0), BuildingBlock: OJICUG_clean_linker_0, # of connection points: 2
#     Edge 98, Type (0, 0), BuildingBlock: OJICUG_clean_linker_0, # of connection points: 2
#     Edge 99, Type (0, 0), BuildingBlock: OJICUG_clean_linker_0, # of connection points: 2
#     Edge 100, Type (0, 0), BuildingBlock: OJICUG_clean_linker_0, # of connection points: 2
#     Edge 101, Type (0, 0), BuildingBlock: OJICUG_clean_linker_0, # of connection points: 2
#     Edge 102, Type (0, 0), BuildingBlock: OJICUG_clean_linker_0, # of connection points: 2
#     Edge 103, Type (0, 0), BuildingBlock: OJICUG_clean_linker_0, # of connection points: 2
#     Edge 104, Type (0, 0), BuildingBlock: OJICUG_clean_linker_0, # of connection points: 2
#     Edge 105, Type (0, 0), BuildingBlock: OJICUG_clean_linker_0, # of connection points: 2
#     Edge 106, Type (0, 0), BuildingBlock: OJICUG_clean_linker_0, # of connection points: 2
#     Edge 107, Type (0, 0), BuildingBlock: OJICUG_clean_linker_0, # of connection points: 2
# Relax obj value: 0.033
# Max RMSD: 0.049
# Mean RMSD: 0.049
data_MOF--net-ato--node1-TATPOV_clean_sbu_0--edge1-OJICUG_clean_linker_0
_symmetry_space_group_name_H-M    P1
_symmetry_Int_Tables_number       1
_symmetry_cell_setting            triclinic
loop_
_symmetry_equiv_pos_as_xyz
'x, y, z'
_cell_length_a     74.015717
_cell_length_b     74.000891
_cell_length_c     18.302516
_cell_angle_alpha  90.004908
_cell_angle_beta   90.026795
_cell_angle_gamma 119.9465
loop_
_atom_site_label
_atom_site_type_symbol
_atom_site_fract_x
_atom_site_fract_y
_atom_site_fract_z
_atom_type_partial_charge
Zn0 Zn 0.2198 0.0584 0.12144 0.0
Zn1 Zn 0.21908 0.03443 0.23145 0.0
O2 O 0.21588 0.05759 0.28208 0.0
O3 O 0.2126 0.07491 0.19024 0.0
O4 O 0.21407 0.01359 0.31228 0.0
O5 O 0.19789 0.03551 0.06277 0.0
O6 O 0.19823 0.01569 0.15168 0.0
C7 C 0.21298 0.07209 0.25826 0.0
C8 C 0.25906 0.05877 0.14575 0.0
O9 O 0.24934 0.04635 0.19829 0.0
O10 O 0.24996 0.06583 0.1059 0.0
C11 C 0.21748 0.01845 0.37961 0.0
O12 O 0.22558 0.03809 0.39877 0.0
C13 C 0.19146 0.01762 0.08965 0.0
Zn14 Zn 0.92838 0.17562 0.10912 0.0
Zn15 Zn 0.95151 0.19976 0.21851 0.0
O16 O 0.93042 0.17221 0.26875 0.0
O17 O 0.91406 0.15115 0.17685 0.0
O18 O 0.97237 0.21619 0.29851 0.0
O19 O 0.95196 0.1794 0.04762 0.0
O20 O 0.97106 0.20018 0.1365 0.0
C21 C 0.91705 0.15429 0.24484 0.0
C22 C 0.9235 0.21184 0.13813 0.0
O23 O 0.93661 0.21576 0.18955 0.0
O24 O 0.91784 0.19605 0.0974 0.0
C25 C 0.96817 0.2136 0.36643 0.0
O26 O 0.94893 0.20072 0.38718 0.0
C27 C 0.96964 0.19202 0.07377 0.0
Zn28 Zn 0.81411 0.75552 0.10974 0.0
Zn29 Zn 0.79009 0.75438 0.21993 0.0
O30 O 0.81784 0.7612 0.26979 0.0
O31 O 0.83865 0.76586 0.17717 0.0
O32 O 0.77329 0.7582 0.3002 0.0
O33 O 0.80997 0.77519 0.04883 0.0
O34 O 0.78933 0.77345 0.1383 0.0
C35 C 0.83573 0.76583 0.24527 0.0
C36 C 0.77821 0.71438 0.13853 0.0
O37 O 0.77436 0.72354 0.19023 0.0
O38 O 0.79392 0.72453 0.09754 0.0
C39 C 0.77595 0.75665 0.36812 0.0
O40 O 0.78942 0.75102 0.38885 0.0
C41 C 0.79732 0.78017 0.07537 0.0
Zn42 Zn 0.08089 0.25667 0.83149 0.0
Zn43 Zn 0.05359 0.24759 0.72235 0.0
O44 O 0.0717 0.23563 0.68169 0.0
O45 O 0.09211 0.24121 0.7771 0.0
O46 O 0.03125 0.24006 0.64543 0.0
O47 O 0.05828 0.2416 0.90507 0.0
O48 O 0.0363 0.23194 0.8127 0.0
C49 C 0.08611 0.23397 0.71357 0.0
C50 C 0.08352 0.29302 0.76943 0.0
O51 O 0.068 0.27982 0.73175 0.0
O52 O 0.09255 0.28705 0.81392 0.0
C53 C 0.03512 0.24606 0.5793 0.0
O54 O 0.0546 0.25798 0.55886 0.0
C55 C 0.03989 0.23128 0.88055 0.0
Zn56 Zn 0.72275 0.81473 0.8385 0.0
Zn57 Zn 0.7346 0.80014 0.72818 0.0
O58 O 0.74456 0.83029 0.69411 0.0
O59 O 0.72953 0.83985 0.77753 0.0
O60 O 0.7444 0.78784 0.64908 0.0
O61 O 0.74396 0.81501 0.9067 0.0
O62 O 0.7512 0.79962 0.81767 0.0
C63 C 0.74008 0.8436 0.71946 0.0
C64 C 0.68933 0.77714 0.78473 0.0
O65 O 0.70247 0.77985 0.73469 0.0
O66 O 0.69455 0.78961 0.83802 0.0
C67 C 0.73874 0.78593 0.58255 0.0
O68 O 0.72565 0.79212 0.56253 0.0
C69 C 0.75392 0.80646 0.88309 0.0
Zn70 Zn 0.16363 0.91122 0.86037 0.0
Zn71 Zn 0.17694 0.93671 0.74847 0.0
O72 O 0.14861 0.91362 0.70889 0.0
O73 O 0.14061 0.89048 0.79683 0.0
O74 O 0.18858 0.95837 0.66784 0.0
O75 O 0.15912 0.93043 0.92378 0.0
O76 O 0.17394 0.9531 0.83463 0.0
C77 C 0.13673 0.89556 0.7353 0.0
C78 C 0.20321 0.91906 0.81569 0.0
O79 O 0.19948 0.92799 0.76281 0.0
O80 O 0.19057 0.91148 0.86833 0.0
C81 C 0.18884 0.95383 0.60095 0.0
O82 O 0.18137 0.93421 0.58244 0.0
C83 C 0.16619 0.94864 0.89884 0.0
Zn84 Zn 0.75512 0.93511 0.90781 0.0
Zn85 Zn 0.75476 0.95847 0.79714 0.0
O86 O 0.76081 0.93706 0.74709 0.0
O87 O 0.76477 0.92038 0.83964 0.0
O88 O 0.75881 0.97912 0.71711 0.0
O89 O 0.77532 0.95891 0.96813 0.0
O90 O 0.7741 0.97802 0.87834 0.0
C91 C 0.76489 0.92339 0.77156 0.0
C92 C 0.71454 0.93138 0.87849 0.0
O93 O 0.72407 0.94428 0.82698 0.0
O94 O 0.72424 0.92527 0.9196 0.0
C95 C 0.75597 0.97453 0.64951 0.0
O96 O 0.74903 0.95513 0.6293 0.0
C97 C 0.7807 0.97661 0.94132 0.0
Zn98 Zn 0.05324 0.80418 0.90039 0.0
Zn99 Zn 0.0289 0.78269 0.78743 0.0
O100 O 0.04903 0.81102 0.73977 0.0
O101 O 0.06774 0.829 0.83462 0.0
O102 O 0.00769 0.76689 0.70795 0.0
O103 O 0.02997 0.80078 0.96276 0.0
O104 O 0.00991 0.78231 0.87136 0.0
C105 C 0.06332 0.82792 0.76741 0.0
C106 C 0.05626 0.76791 0.86096 0.0
O107 O 0.04362 0.76589 0.80992 0.0
O108 O 0.06233 0.78269 0.90657 0.0
C109 C 0.01193 0.76952 0.6401 0.0
O110 O 0.03125 0.78217 0.61957 0.0
C111 C 0.01201 0.78974 0.93575 0.0
Zn112 Zn 0.16842 0.23479 0.89174 0.0
Zn113 Zn 0.19318 0.23683 0.78202 0.0
O114 O 0.16476 0.22591 0.73067 0.0
O115 O 0.14396 0.22125 0.82345 0.0
O116 O 0.21144 0.23486 0.70395 0.0
O117 O 0.17542 0.21754 0.95524 0.0
O118 O 0.19619 0.21965 0.86559 0.0
C119 C 0.14659 0.2199 0.75577 0.0
C120 C 0.20155 0.27679 0.85798 0.0
O121 O 0.20623 0.26784 0.80792 0.0
O122 O 0.18625 0.26621 0.90011 0.0
C123 C 0.21035 0.23841 0.63659 0.0
O124 O 0.19748 0.2448 0.61581 0.0
C125 C 0.18882 0.21346 0.92955 0.0
Zn126 Zn 0.90111 0.72358 0.16911 0.0
Zn127 Zn 0.92732 0.7336 0.28102 0.0
O128 O 0.90804 0.7445 0.31694 0.0
O129 O 0.88397 0.73171 0.23091 0.0
O130 O 0.94925 0.74215 0.35991 0.0
O131 O 0.92302 0.74421 0.10221 0.0
O132 O 0.94496 0.74979 0.19222 0.0
C133 C 0.89078 0.74137 0.29066 0.0
C134 C 0.90362 0.68883 0.22159 0.0
O135 O 0.91449 0.70149 0.27218 0.0
O136 O 0.89666 0.69476 0.16943 0.0
C137 C 0.94531 0.73612 0.42597 0.0
O138 O 0.92589 0.72352 0.44559 0.0
C139 C 0.94145 0.75303 0.12665 0.0
Zn140 Zn 0.26406 0.17992 0.17187 0.0
Zn141 Zn 0.25411 0.19766 0.2786 0.0
O142 O 0.24274 0.16794 0.31855 0.0
O143 O 0.25593 0.15545 0.23857 0.0
O144 O 0.2455 0.21161 0.35491 0.0
O145 O 0.24329 0.18038 0.10288 0.0
O146 O 0.23764 0.19786 0.18867 0.0
C147 C 0.2459 0.15342 0.29688 0.0
C148 C 0.29898 0.21742 0.22052 0.0
O149 O 0.28634 0.21641 0.26995 0.0
O150 O 0.29292 0.20402 0.17001 0.0
C151 C 0.24997 0.21208 0.4222 0.0
O152 O 0.26122 0.20378 0.4431 0.0
C153 C 0.2343 0.19011 0.12451 0.0
Zn154 Zn 0.80926 0.08409 0.17594 0.0
Zn155 Zn 0.79571 0.0578 0.28578 0.0
O156 O 0.82532 0.07926 0.32068 0.0
O157 O 0.83345 0.10386 0.23841 0.0
O158 O 0.7842 0.03594 0.36543 0.0
O159 O 0.81186 0.06403 0.10959 0.0
O160 O 0.79674 0.04106 0.19776 0.0
C161 C 0.83774 0.09744 0.29633 0.0
C162 C 0.7704 0.07732 0.22587 0.0
O163 O 0.77394 0.06777 0.27704 0.0
O164 O 0.78287 0.08498 0.1728 0.0
C165 C 0.78355 0.0401 0.43246 0.0
O166 O 0.79056 0.05956 0.45208 0.0
C167 C 0.80413 0.04557 0.13314 0.0
Zn168 Zn 0.88197 0.38216 0.43611 0.0
Zn169 Zn 0.88281 0.35833 0.54356 0.0
O170 O 0.87991 0.38143 0.59578 0.0
O171 O 0.87491 0.39845 0.50694 0.0
O172 O 0.87845 0.33762 0.62375 0.0
O173 O 0.86005 0.35894 0.37801 0.0
O174 O 0.86186 0.33937 0.46481 0.0
C175 C 0.87645 0.39579 0.57444 0.0
C176 C 0.92192 0.38327 0.45553 0.0
O177 O 0.91275 0.37055 0.50784 0.0
O178 O 0.91228 0.39023 0.41807 0.0
C179 C 0.88236 0.34258 0.69081 0.0
O180 O 0.89072 0.36227 0.70975 0.0
C181 C 0.85449 0.3411 0.40382 0.0
Zn182 Zn 0.59883 0.50557 0.43729 0.0
Zn183 Zn 0.62222 0.52873 0.54792 0.0
O184 O 0.60015 0.50152 0.59767 0.0
O185 O 0.5833 0.48126 0.50448 0.0
O186 O 0.64302 0.54478 0.62851 0.0
O187 O 0.62211 0.50804 0.37731 0.0
O188 O 0.64155 0.52814 0.46698 0.0
C189 C 0.58621 0.484 0.57262 0.0
C190 C 0.59606 0.54293 0.46554 0.0
O191 O 0.60872 0.54596 0.5177 0.0
O192 O 0.58981 0.52715 0.42429 0.0
C193 C 0.63852 0.54278 0.69622 0.0
O194 O 0.61908 0.53052 0.71638 0.0
C195 C 0.6399 0.5199 0.40423 0.0
Zn196 Zn 0.48114 0.09575 0.46704 0.0
Zn197 Zn 0.45178 0.08711 0.56066 0.0
O198 O 0.47873 0.09399 0.61724 0.0
O199 O 0.50443 0.10984 0.53945 0.0
O200 O 0.43247 0.08742 0.6388 0.0
O201 O 0.47398 0.11197 0.39853 0.0
O202 O 0.45038 0.10644 0.48184 0.0
C203 C 0.49821 0.10353 0.60367 0.0
C204 C 0.44903 0.05135 0.47814 0.0
O205 O 0.43943 0.05752 0.52015 0.0
O206 O 0.46691 0.06429 0.45326 0.0
C207 C 0.43382 0.08401 0.70618 0.0
O208 O 0.44723 0.07826 0.7266 0.0
C209 C 0.45911 0.11427 0.4208 0.0
Zn210 Zn 0.74912 0.59251 0.16824 0.0
Zn211 Zn 0.72231 0.58164 0.05891 0.0
O212 O 0.74219 0.57167 0.02158 0.0
O213 O 0.76709 0.58591 0.10426 0.0
O214 O 0.70024 0.57268 0.98006 0.0
O215 O 0.72811 0.57087 0.23517 0.0
O216 O 0.70529 0.56449 0.14746 0.0
C217 C 0.75999 0.57576 0.04551 0.0
C218 C 0.74484 0.62645 0.12014 0.0
O219 O 0.73419 0.6137 0.0694 0.0
O220 O 0.75234 0.62083 0.17148 0.0
C221 C 0.70442 0.5777 0.91318 0.0
O222 O 0.72398 0.58948 0.89342 0.0
C223 C 0.70954 0.56126 0.21205 0.0
Zn224 Zn 0.38205 0.14398 0.17175 0.0
Zn225 Zn 0.39245 0.12657 0.06674 0.0
O226 O 0.40377 0.15644 0.02739 0.0
O227 O 0.38973 0.16846 0.10567 0.0
O228 O 0.40097 0.11263 0.98964 0.0
O229 O 0.40303 0.14411 0.24104 0.0
O230 O 0.40917 0.12659 0.15676 0.0
C231 C 0.40023 0.17078 0.04837 0.0
C232 C 0.34737 0.10638 0.12497 0.0
O233 O 0.36013 0.10755 0.0757 0.0
O234 O 0.35327 0.11981 0.17531 0.0
C235 C 0.39559 0.1113 0.92296 0.0
O236 O 0.3836 0.11884 0.90295 0.0
C237 C 0.41234 0.13459 0.22053 0.0
Zn238 Zn 0.82718 0.23478 0.16768 0.0
Zn239 Zn 0.84107 0.26117 0.05948 0.0
O240 O 0.81167 0.23959 0.02322 0.0
O241 O 0.80373 0.21458 0.10348 0.0
O242 O 0.85293 0.2828 0.9792 0.0
O243 O 0.82339 0.25438 0.23269 0.0
O244 O 0.8393 0.27781 0.14647 0.0
C245 C 0.79943 0.22117 0.04598 0.0
C246 C 0.86651 0.24215 0.123 0.0
O247 O 0.86302 0.25149 0.07096 0.0
O248 O 0.85377 0.23438 0.17528 0.0
C249 C 0.85326 0.27815 0.91251 0.0
O250 O 0.84565 0.25849 0.89434 0.0
C251 C 0.83119 0.27293 0.21002 0.0
Zn252 Zn 0.42719 0.26704 0.22191 0.0
Zn253 Zn 0.42676 0.28999 0.11128 0.0
O254 O 0.43032 0.26683 0.06202 0.0
O255 O 0.4348 0.25051 0.15456 0.0
O256 O 0.43105 0.31033 0.02988 0.0
O257 O 0.4487 0.29055 0.27987 0.0
O258 O 0.44706 0.30955 0.19058 0.0
C259 C 0.43377 0.25272 0.08643 0.0
C260 C 0.38724 0.26533 0.19772 0.0
O261 O 0.39661 0.27764 0.14462 0.0
O262 O 0.39677 0.25879 0.23777 0.0
C263 C 0.42702 0.30536 0.96287 0.0
O264 O 0.41883 0.28569 0.9438 0.0
C265 C 0.45414 0.30823 0.25276 0.0
Zn266 Zn 0.70954 0.14506 0.23839 0.0
Zn267 Zn 0.68585 0.12016 0.13116 0.0
O268 O 0.70674 0.14723 0.07821 0.0
O269 O 0.72352 0.16897 0.16806 0.0
O270 O 0.66497 0.1031 0.05222 0.0
O271 O 0.6861 0.14162 0.30018 0.0
O272 O 0.66656 0.12045 0.2128 0.0
C273 C 0.72024 0.16531 0.10038 0.0
C274 C 0.71417 0.10858 0.21246 0.0
O275 O 0.70078 0.10434 0.16183 0.0
O276 O 0.72016 0.12471 0.2517 0.0
C277 C 0.66961 0.10426 0.9848 0.0
O278 O 0.68914 0.11605 0.96474 0.0
C279 C 0.66828 0.129 0.27498 0.0
Zn280 Zn 0.83475 0.5592 0.22746 0.0
Zn281 Zn 0.85963 0.56156 0.1189 0.0
O282 O 0.8321 0.55478 0.06762 0.0
O283 O 0.81043 0.54867 0.15873 0.0
O284 O 0.877 0.55856 0.03932 0.0
O285 O 0.83939 0.53982 0.28846 0.0
O286 O 0.86081 0.54271 0.20016 0.0
C287 C 0.81392 0.54958 0.09079 0.0
C288 C 0.87025 0.60089 0.20142 0.0
O289 O 0.87471 0.59214 0.15002 0.0
O290 O 0.85432 0.59033 0.24109 0.0
C291 C 0.87588 0.5621 0.97194 0.0
O292 O 0.86356 0.56921 0.95151 0.0
C293 C 0.8527 0.53565 0.26265 0.0
Zn294 Zn 0.55907 0.05704 0.51397 0.0
Zn295 Zn 0.58628 0.06666 0.62189 0.0
O296 O 0.5671 0.07708 0.66266 0.0
O297 O 0.54191 0.06405 0.58079 0.0
O298 O 0.60838 0.07463 0.70002 0.0
O299 O 0.58041 0.07862 0.44748 0.0
O300 O 0.60335 0.08401 0.53372 0.0
C301 C 0.54939 0.07366 0.64022 0.0
C302 C 0.56242 0.0222 0.55787 0.0
O303 O 0.57362 0.03458 0.60864 0.0
O304 O 0.5549 0.02837 0.50827 0.0
C305 C 0.60402 0.0698 0.76695 0.0
O306 O 0.58437 0.05884 0.78665 0.0
C307 C 0.59907 0.08767 0.4698 0.0
Zn308 Zn 0.9301 0.50497 0.50404 0.0
Zn309 Zn 0.91918 0.52156 0.61038 0.0
O310 O 0.90806 0.49154 0.64715 0.0
O311 O 0.92293 0.48038 0.56907 0.0
O312 O 0.91013 0.53481 0.68827 0.0
O313 O 0.90872 0.50448 0.43557 0.0
O314 O 0.90242 0.52158 0.521 0.0
C315 C 0.912 0.47751 0.62565 0.0
C316 C 0.96428 0.54281 0.55225 0.0
O317 O 0.95143 0.54109 0.60203 0.0
O318 O 0.95861 0.52964 0.50107 0.0
C319 C 0.9142 0.53467 0.7557 0.0
O320 O 0.92519 0.52605 0.77608 0.0
C321 C 0.89919 0.5137 0.45706 0.0
Zn322 Zn 0.47901 0.41439 0.48827 0.0
Zn323 Zn 0.46476 0.38752 0.5963 0.0
O324 O 0.49385 0.40903 0.63467 0.0
O325 O 0.50246 0.43407 0.5539 0.0
O326 O 0.45287 0.36547 0.67535 0.0
O327 O 0.48266 0.39486 0.42229 0.0
O328 O 0.46703 0.37137 0.50859 0.0
C329 C 0.5063 0.42742 0.61222 0.0
C330 C 0.43967 0.40712 0.53401 0.0
O331 O 0.44294 0.3974 0.58531 0.0
O332 O 0.45249 0.41501 0.48199 0.0
C333 C 0.4534 0.36998 0.74266 0.0
O334 O 0.4616 0.38964 0.76184 0.0
C335 C 0.47508 0.37634 0.44496 0.0
Zn336 Zn 0.56061 0.72111 0.76834 0.0
Zn337 Zn 0.56106 0.69748 0.87794 0.0
O338 O 0.55523 0.71889 0.92898 0.0
O339 O 0.55105 0.73571 0.83739 0.0
O340 O 0.55697 0.6767 0.95765 0.0
O341 O 0.54035 0.69749 0.70761 0.0
O342 O 0.54151 0.67814 0.79667 0.0
C343 C 0.5511 0.7326 0.90534 0.0
C344 C 0.6012 0.72473 0.79634 0.0
O345 O 0.59172 0.71167 0.84751 0.0
O346 O 0.59147 0.73096 0.75598 0.0
C347 C 0.55999 0.68131 0.02522 0.0
O348 O 0.5672 0.70077 0.04536 0.0
C349 C 0.53488 0.67972 0.73395 0.0
Zn350 Zn 0.26136 0.8497 0.77857 0.0
Zn351 Zn 0.28462 0.87064 0.89342 0.0
O352 O 0.26442 0.84179 0.93839 0.0
O353 O 0.2466 0.8243 0.84139 0.0
O354 O 0.30535 0.88618 0.97432 0.0
O355 O 0.28513 0.8539 0.71756 0.0
O356 O 0.30445 0.87228 0.81041 0.0
C357 C 0.25049 0.82498 0.90894 0.0
C358 C 0.25739 0.88535 0.81927 0.0
O359 O 0.26972 0.88723 0.87124 0.0
O360 O 0.25183 0.87086 0.77271 0.0
C361 C 0.30118 0.88322 0.04215 0.0
O362 O 0.28198 0.87013 0.06275 0.0
C363 C 0.30289 0.86526 0.74563 0.0
Zn364 Zn 0.14643 0.42522 0.7743 0.0
Zn365 Zn 0.11824 0.4178 0.87246 0.0
O366 O 0.14604 0.42745 0.92789 0.0
O367 O 0.17014 0.4414 0.84335 0.0
O368 O 0.09877 0.41777 0.95021 0.0
O369 O 0.13733 0.43965 0.70479 0.0
O370 O 0.11525 0.43573 0.79201 0.0
C371 C 0.16522 0.43732 0.90989 0.0
C372 C 0.11581 0.38109 0.79544 0.0
O373 O 0.10661 0.38777 0.8371 0.0
O374 O 0.13323 0.39373 0.76679 0.0
C375 C 0.10017 0.41445 0.01759 0.0
O376 O 0.11397 0.40927 0.03839 0.0
C377 C 0.12287 0.44238 0.72869 0.0
Zn378 Zn 0.41504 0.92741 0.505 0.0
Zn379 Zn 0.38714 0.91828 0.39615 0.0
O380 O 0.40438 0.90531 0.35643 0.0
O381 O 0.42597 0.91186 0.44889 0.0
O382 O 0.36463 0.91066 0.32018 0.0
O383 O 0.39217 0.91229 0.57856 0.0
O384 O 0.37005 0.90333 0.48682 0.0
C385 C 0.41919 0.90399 0.38658 0.0
C386 C 0.41736 0.96372 0.44225 0.0
O387 O 0.40185 0.95053 0.40453 0.0
O388 O 0.42638 0.95776 0.48681 0.0
C389 C 0.36837 0.91649 0.25389 0.0
O390 O 0.3878 0.92837 0.23294 0.0
C391 C 0.37369 0.90249 0.55441 0.0
Zn392 Zn 0.04394 0.47027 0.48176 0.0
Zn393 Zn 0.05519 0.45372 0.37627 0.0
O394 O 0.06651 0.4838 0.3396 0.0
O395 O 0.05149 0.49498 0.41696 0.0
O396 O 0.06451 0.44056 0.29925 0.0
O397 O 0.06495 0.47047 0.55134 0.0
O398 O 0.07154 0.45345 0.46642 0.0
C399 C 0.06258 0.49785 0.36081 0.0
C400 C 0.00991 0.43257 0.43188 0.0
O401 O 0.02294 0.43424 0.38291 0.0
O402 O 0.0154 0.4457 0.48311 0.0
C403 C 0.0593 0.43918 0.23241 0.0
O404 O 0.04688 0.44616 0.21192 0.0
C405 C 0.07449 0.46121 0.53049 0.0
Zn406 Zn 0.50434 0.57194 0.49907 0.0
Zn407 Zn 0.51866 0.59814 0.38936 0.0
O408 O 0.48909 0.57698 0.35296 0.0
O409 O 0.48028 0.55241 0.43588 0.0
O410 O 0.53077 0.62001 0.30975 0.0
O411 O 0.5019 0.59213 0.565 0.0
O412 O 0.51771 0.61504 0.47719 0.0
C413 C 0.47639 0.55887 0.37721 0.0
C414 C 0.54303 0.57783 0.45122 0.0
O415 O 0.5399 0.58753 0.39947 0.0
O416 O 0.53039 0.57047 0.50393 0.0
C417 C 0.53136 0.61577 0.24276 0.0
O418 O 0.52393 0.59623 0.22323 0.0
C419 C 0.5101 0.61063 0.54154 0.0
Zn420 Zn 0.09204 0.59291 0.55121 0.0
Zn421 Zn 0.09199 0.61715 0.44341 0.0
O422 O 0.09481 0.59397 0.39139 0.0
O423 O 0.09915 0.57661 0.48064 0.0
O424 O 0.097 0.63821 0.3632 0.0
O425 O 0.11388 0.61575 0.61067 0.0
O426 O 0.11287 0.63568 0.52345 0.0
C427 C 0.098 0.57945 0.41304 0.0
C428 C 0.05239 0.59225 0.52973 0.0
O429 O 0.06183 0.60502 0.47775 0.0
O430 O 0.06179 0.58515 0.56778 0.0
C431 C 0.09392 0.63353 0.29565 0.0
O432 O 0.08602 0.61395 0.27598 0.0
C433 C 0.1199 0.63369 0.58485 0.0
Zn434 Zn 0.38506 0.47977 0.55862 0.0
Zn435 Zn 0.36066 0.45739 0.44814 0.0
O436 O 0.38269 0.48455 0.39813 0.0
O437 O 0.40062 0.5041 0.49136 0.0
O438 O 0.33925 0.44194 0.36839 0.0
O439 O 0.36238 0.47783 0.62088 0.0
O440 O 0.34212 0.45865 0.53102 0.0
C441 C 0.39711 0.50179 0.42338 0.0
C442 C 0.38658 0.44199 0.52627 0.0
O443 O 0.37382 0.4395 0.47508 0.0
O444 O 0.39331 0.45758 0.56862 0.0
C445 C 0.34354 0.44391 0.3005 0.0
O446 O 0.36303 0.45555 0.27982 0.0
C447 C 0.34437 0.46675 0.59438 0.0
Zn448 Zn 0.49556 0.89226 0.5627 0.0
Zn449 Zn 0.52006 0.89476 0.45226 0.0
O450 O 0.4918 0.88589 0.40223 0.0
O451 O 0.47091 0.88046 0.49533 0.0
O452 O 0.53773 0.89232 0.37239 0.0
O453 O 0.50131 0.87369 0.62374 0.0
O454 O 0.52241 0.87667 0.53411 0.0
C455 C 0.4737 0.8803 0.42719 0.0
C456 C 0.52977 0.93427 0.5333 0.0
O457 O 0.53417 0.92561 0.48141 0.0
O458 O 0.51434 0.92353 0.57476 0.0
C459 C 0.53556 0.89453 0.30459 0.0
O460 O 0.52187 0.89986 0.28377 0.0
C461 C 0.51473 0.86978 0.59725 0.0
Zn462 Zn 0.23357 0.4006 0.82692 0.0
Zn463 Zn 0.25955 0.40958 0.93904 0.0
O464 O 0.24013 0.42001 0.97817 0.0
O465 O 0.2166 0.40856 0.89024 0.0
O466 O 0.28138 0.41728 0.01827 0.0
O467 O 0.25554 0.42147 0.76112 0.0
O468 O 0.27737 0.42654 0.85099 0.0
C469 C 0.22308 0.41734 0.95158 0.0
C470 C 0.23529 0.36513 0.87539 0.0
O471 O 0.24634 0.37745 0.92655 0.0
O472 O 0.2285 0.37156 0.82415 0.0
C473 C 0.27714 0.41225 0.08513 0.0
O474 O 0.25753 0.40123 0.10524 0.0
C475 C 0.27394 0.43016 0.78575 0.0
Zn476 Zn 0.59356 0.84087 0.83624 0.0
Zn477 Zn 0.58117 0.85546 0.94506 0.0
O478 O 0.57169 0.82561 0.98064 0.0
O479 O 0.58727 0.81616 0.89906 0.0
O480 O 0.57088 0.86754 0.02312 0.0
O481 O 0.57208 0.8398 0.76738 0.0
O482 O 0.56432 0.85513 0.85519 0.0
C483 C 0.57656 0.81245 0.95673 0.0
C484 C 0.62647 0.87894 0.88898 0.0
O485 O 0.61321 0.87615 0.93866 0.0
O486 O 0.62149 0.86636 0.83617 0.0
C487 C 0.57587 0.8688 0.09018 0.0
O488 O 0.58865 0.86227 0.11081 0.0
C489 C 0.56172 0.84802 0.7902 0.0
Zn490 Zn 0.14919 0.74076 0.81428 0.0
Zn491 Zn 0.13612 0.7156 0.92739 0.0
O492 O 0.16477 0.7387 0.96546 0.0
O493 O 0.1729 0.76138 0.87578 0.0
O494 O 0.12453 0.6941 0.00867 0.0
O495 O 0.15277 0.72102 0.75062 0.0
O496 O 0.13842 0.69872 0.84109 0.0
C497 C 0.17686 0.7565 0.93757 0.0
C498 C 0.11002 0.73368 0.86177 0.0
O499 O 0.11377 0.72462 0.91418 0.0
O500 O 0.1225 0.74111 0.8086 0.0
C501 C 0.12387 0.69856 0.07541 0.0
O502 O 0.13106 0.71813 0.09394 0.0
C503 C 0.1457 0.70286 0.77618 0.0
C504 C 0.19557 0.96533 0.46977 0.0
C505 C 0.19694 0.97043 0.54436 0.0
H506 H 0.20098 0.9764 0.35936 0.0
C507 C 0.20579 0.99152 0.56426 0.0
H508 H 0.18887 0.94925 0.45246 0.0
C509 C 0.21282 0.00711 0.51085 0.0
C510 C 0.2111 0.00199 0.4362 0.0
H511 H 0.20715 -0.00397 0.62118 0.0
H512 H 0.21933 0.02317 0.52819 0.0
C513 C 0.20253 0.98091 0.41632 0.0
C514 C -0.00297 0.2264 0.54742 0.0
C515 C 0.0179 0.2389 0.52536 0.0
H516 H 0.96502 0.20881 0.51494 0.0
C517 C 0.02215 0.24399 0.45095 0.0
H518 H -0.00683 0.22225 0.60432 0.0
C519 C 0.00597 0.23626 0.39957 0.0
C520 C 0.98515 0.2233 0.42141 0.0
H521 H 0.03802 0.25364 0.43204 0.0
H522 H 0.00985 0.24014 0.34251 0.0
C523 C 0.98086 0.21872 0.4961 0.0
C524 C 0.7514 0.76956 0.40161 0.0
C525 C 0.76535 0.76286 0.42325 0.0
H526 H 0.73205 0.78203 0.43466 0.0
C527 C 0.76984 0.76309 0.49802 0.0
H528 H 0.74757 0.76958 0.34449 0.0
C529 C 0.76099 0.77031 0.54971 0.0
C530 C 0.74739 0.77742 0.52795 0.0
H531 H 0.78049 0.75804 0.51672 0.0
H532 H 0.76504 0.77053 0.60671 0.0
C533 C 0.7425 0.77673 0.45336 0.0
C534 C 0.76072 0.98648 0.51904 0.0
C535 C 0.7619 0.99116 0.59393 0.0
H536 H 0.76662 -0.00184 0.40951 0.0
C537 C 0.76961 0.01202 0.61515 0.0
H538 H 0.75486 0.9706 0.5007 0.0
C539 C 0.77634 0.02786 0.56275 0.0
C540 C 0.77558 0.02322 0.48793 0.0
H541 H 0.77072 0.01619 0.67236 0.0
H542 H 0.78242 0.04378 0.58106 0.0
C543 C 0.76751 0.00232 0.46668 0.0
C544 C -0.00063 0.76453 0.51037 0.0
C545 C -0.00499 0.75986 0.58496 0.0
H546 H 0.98719 0.76077 0.40191 0.0
C547 C 0.97421 0.74666 0.60651 0.0
H548 H 0.0152 0.77462 0.49179 0.0
C549 C 0.95811 0.73868 0.55483 0.0
C550 C 0.96242 0.74377 0.48046 0.0
H551 H 0.97029 0.74272 0.6635 0.0
H552 H 0.94224 0.72879 0.57342 0.0
C553 C 0.98327 0.75661 0.45878 0.0
C554 C 0.22866 0.22875 0.45477 0.0
C555 C 0.24126 0.22046 0.47687 0.0
H556 H 0.20917 0.24104 0.48765 0.0
C557 C 0.24466 0.2194 0.55191 0.0
H558 H 0.22578 0.22988 0.39739 0.0
C559 C 0.23512 0.2258 0.60371 0.0
C560 C 0.22197 0.23344 0.58168 0.0
H561 H 0.25433 0.21318 0.57087 0.0
H562 H 0.2377 0.22431 0.66112 0.0
C563 C 0.21914 0.23518 0.50658 0.0
C564 C 0.86719 0.30506 0.72773 0.0
C565 C 0.87605 0.32617 0.74748 0.0
H566 H 0.85313 0.27339 0.76411 0.0
C567 C 0.87798 0.33138 0.82206 0.0
H568 H 0.86548 0.30049 0.67079 0.0
C569 C 0.8708 0.31583 0.87557 0.0
C570 C 0.8616 0.29469 0.8558 0.0
H571 H 0.88472 0.34748 0.83927 0.0
H572 H 0.8723 0.32039 0.93246 0.0
C573 C 0.86009 0.2895 0.78128 0.0
C574 C 0.65059 0.54904 0.82674 0.0
C575 C 0.65526 0.55282 0.7519 0.0
H576 H 0.66236 0.55387 0.93615 0.0
C577 C 0.67619 0.56552 0.7308 0.0
H578 H 0.63466 0.53935 0.845 0.0
C579 C 0.6921 0.57388 0.78318 0.0
C580 C 0.68747 0.56969 0.85789 0.0
H581 H 0.68035 0.56878 0.67366 0.0
H582 H 0.70806 0.58336 0.7649 0.0
C583 C 0.6665 0.55735 0.87908 0.0
C584 C 0.40889 0.09634 0.74062 0.0
C585 C 0.42235 0.08899 0.76177 0.0
H586 H 0.38983 0.10904 0.7747 0.0
C587 C 0.42587 0.08783 0.8367 0.0
H588 H 0.40579 0.0974 0.68341 0.0
C589 C 0.41678 0.09459 0.88907 0.0
C590 C 0.4039 0.10261 0.86781 0.0
H591 H 0.43611 0.08222 0.85501 0.0
H592 H 0.42022 0.09391 0.94621 0.0
C593 C 0.39975 0.10304 0.79304 0.0
C594 C 0.44781 0.35841 0.87367 0.0
C595 C 0.4457 0.35333 0.79895 0.0
H596 H 0.44357 0.34733 0.98386 0.0
C597 C 0.43664 0.33224 0.77867 0.0
H598 H 0.45468 0.37449 0.89127 0.0
C599 C 0.4302 0.31664 0.83185 0.0
C600 C 0.43272 0.32176 0.90655 0.0
H601 H 0.43472 0.32776 0.72162 0.0
H602 H 0.42354 0.30058 0.81426 0.0
C603 C 0.44143 0.34282 0.92682 0.0
C604 C 0.65777 0.09721 0.85412 0.0
C605 C 0.65294 0.09406 0.929 0.0
H606 H 0.64621 0.09208 0.74439 0.0
C607 C 0.63192 0.08198 0.94991 0.0
H608 H 0.67378 0.10641 0.836 0.0
C609 C 0.61608 0.07374 0.89728 0.0
C610 C 0.62088 0.07741 0.8225 0.0
H611 H 0.62762 0.0792 0.00708 0.0
H612 H 0.60004 0.06482 0.9154 0.0
C613 C 0.64193 0.08902 0.80151 0.0
C614 C 0.89345 0.55187 0.78938 0.0
C615 C 0.90558 0.54301 0.81093 0.0
H616 H 0.8747 0.56496 0.82305 0.0
C617 C 0.90876 0.54154 0.88592 0.0
H618 H 0.89073 0.55333 0.73209 0.0
C619 C 0.89956 0.54821 0.93814 0.0
C620 C 0.88696 0.55655 0.91662 0.0
H621 H 0.91806 0.53486 0.90448 0.0
H622 H 0.90202 0.54646 0.99544 0.0
C623 C 0.88427 0.55858 0.8416 0.0
C624 C 0.54813 0.6536 0.20827 0.0
C625 C 0.53966 0.63263 0.18719 0.0
H626 H 0.56131 0.68536 0.17401 0.0
C627 C 0.5388 0.62792 0.11239 0.0
H628 H 0.54912 0.65781 0.26541 0.0
C629 C 0.54578 0.64375 0.05986 0.0
C630 C 0.55386 0.66467 0.08091 0.0
H631 H 0.53242 0.61195 0.09419 0.0
H632 H 0.54456 0.63952 0.00267 0.0
C633 C 0.55517 0.66943 0.15579 0.0
C634 C 0.33026 0.89625 0.2227 0.0
C635 C 0.35105 0.90909 0.20033 0.0
H636 H 0.29825 0.87817 0.19063 0.0
C637 C 0.35515 0.91424 0.12594 0.0
H638 H 0.32652 0.89204 0.27961 0.0
C639 C 0.33891 0.90627 0.07485 0.0
C640 C 0.31818 0.89299 0.09697 0.0
H641 H 0.37096 0.92413 0.10682 0.0
H642 H 0.34269 0.91024 0.01779 0.0
C643 C 0.31402 0.88831 0.17163 0.0
C644 C 0.0643 0.43147 0.10278 0.0
C645 C 0.06831 0.43112 0.1777 0.0
H646 H 0.07107 0.42636 0.99351 0.0
C647 C 0.08176 0.42383 0.19961 0.0
H648 H 0.05396 0.43691 0.08399 0.0
C649 C 0.09152 0.41771 0.14771 0.0
C650 C 0.08812 0.41879 0.07267 0.0
H651 H 0.08511 0.42324 0.25689 0.0
H652 H 0.10217 0.41266 0.16649 0.0
C653 C 0.07411 0.42539 0.05086 0.0
C654 C 0.10912 0.67116 0.25955 0.0
C655 C 0.10061 0.65012 0.23936 0.0
H656 H 0.12307 0.70291 0.22389 0.0
C657 C 0.0993 0.64513 0.16468 0.0
H658 H 0.11037 0.67558 0.31655 0.0
C659 C 0.10668 0.66082 0.11156 0.0
C660 C 0.11548 0.68189 0.13175 0.0
H661 H 0.09285 0.6291 0.14708 0.0
H662 H 0.10562 0.6564 0.05462 0.0
C663 C 0.11643 0.68686 0.20636 0.0
C664 C 0.30559 0.42279 0.26678 0.0
C665 C 0.32658 0.43464 0.24523 0.0
H666 H 0.27357 0.40641 0.23342 0.0
C667 C 0.33117 0.43838 0.17033 0.0
H668 H 0.30148 0.4196 0.32399 0.0
C669 C 0.31515 0.43087 0.1184 0.0
C670 C 0.29414 0.41939 0.14003 0.0
H671 H 0.34715 0.44743 0.1517 0.0
H672 H 0.31927 0.4343 0.06128 0.0
C673 C 0.28957 0.41524 0.21479 0.0
C674 C 0.54321 0.88988 0.1745 0.0
C675 C 0.54702 0.88937 0.24953 0.0
H676 H 0.54929 0.88383 0.06551 0.0
C677 C 0.56113 0.88291 0.27145 0.0
H678 H 0.53246 0.89479 0.15561 0.0
C679 C 0.5708 0.87662 0.21969 0.0
C680 C 0.56657 0.87661 0.14479 0.0
H681 H 0.56447 0.88235 0.32877 0.0
H682 H 0.58133 0.87143 0.2386 0.0
C683 C 0.55285 0.88356 0.12276 0.0
C684 C 0.16629 0.96219 0.02376 0.0
C685 C 0.16779 0.96523 0.94764 0.0
H686 H 0.1725 0.97655 0.12921 0.0
C687 C 0.17323 0.98493 0.9196 0.0
H688 H 0.16192 0.94709 0.04707 0.0
C689 C 0.17892 0.00172 0.96679 0.0
C690 C 0.17965 -0.00085 0.04273 0.0
H691 H 0.17418 0.98764 0.8612 0.0
H692 H 0.18432 0.01701 0.94324 0.0
C693 C 0.17232 0.97905 0.07095 0.0
C694 C 0.98584 0.19474 0.95185 0.0
C695 C 0.98824 0.19951 0.02689 0.0
H696 H 0.00027 0.2012 0.84663 0.0
C697 C 0.00819 0.21336 0.05431 0.0
H698 H 0.97068 0.18409 0.9289 0.0
C699 C 0.0252 0.22307 0.00699 0.0
C700 C 0.02249 0.21928 0.93137 0.0
H701 H 0.01054 0.21729 0.11186 0.0
H702 H 0.04028 0.2342 0.02935 0.0
C703 C 0.00277 0.20464 0.90451 0.0
C704 C 0.7821 0.79799 0.90541 0.0
C705 C 0.76751 0.80304 0.93313 0.0
H706 H 0.8035 0.78742 0.92911 0.0
C707 C 0.76496 0.8033 0.00919 0.0
H708 H 0.78458 0.79794 0.84709 0.0
C709 C 0.77564 0.79705 0.05639 0.0
C710 C 0.78929 0.79076 0.0283 0.0
H711 H 0.75388 0.80724 0.03213 0.0
H712 H 0.77252 0.79629 0.11447 0.0
C713 C 0.79303 0.7921 0.95258 0.0
C714 C 0.79749 0.01511 0.96031 0.0
C715 C 0.79127 -0.00479 0.9885 0.0
H716 H 0.80672 0.04684 0.98434 0.0
C717 C 0.79222 -0.00723 0.0644 0.0
H718 H 0.79705 0.0175 0.90208 0.0
C719 C 0.79739 0.00945 0.11153 0.0
C720 C 0.80206 0.02896 0.08358 0.0
H721 H 0.78762 0.97765 0.08794 0.0
H722 H 0.79688 0.00684 0.16992 0.0
C723 C 0.80299 0.0319 0.00748 0.0
C724 C 0.97339 0.77175 0.95407 0.0
C725 C -0.00638 0.78342 0.98264 0.0
H726 H 0.94085 0.7532 0.97756 0.0
C727 C -0.00375 0.78716 0.05833 0.0
H728 H 0.97088 0.76875 0.89597 0.0
C729 C 0.97912 0.77807 0.10507 0.0
C730 C 0.95903 0.76533 0.07694 0.0
H731 H 0.01164 0.79621 0.08212 0.0
H732 H 0.98172 0.78041 0.16342 0.0
C733 C 0.95621 0.7629 1.00084 0.0
C734 C 0.20624 0.19865 0.10146 0.0
C735 C 0.22072 0.19341 0.07409 0.0
H736 H 0.18433 0.20851 0.07694 0.0
C737 C 0.22293 0.19251 0.99809 0.0
H738 H 0.20407 0.19922 0.15978 0.0
C739 C 0.21178 0.19806 0.95037 0.0
C740 C 0.19801 0.20426 0.97795 0.0
H741 H 0.23396 0.18844 0.97554 0.0
H742 H 0.21448 0.19819 0.89215 0.0
C743 C 0.19485 0.20383 0.05386 0.0
C744 C 0.84246 0.32536 0.28052 0.0
C745 C 0.84327 0.32265 0.35632 0.0
H746 H 0.8382 0.31167 0.17441 0.0
C747 C 0.83676 0.30261 0.38373 0.0
H748 H 0.84728 0.34059 0.25757 0.0
C749 C 0.83135 0.28599 0.33589 0.0
C750 C 0.83268 0.28924 0.25993 0.0
H751 H 0.83707 0.30002 0.44187 0.0
H752 H 0.82753 0.27096 0.35848 0.0
C753 C 0.83741 0.30883 0.23271 0.0
C754 C 0.69548 0.55024 0.33821 0.0
C755 C 0.69256 0.54772 0.26217 0.0
H756 H 0.68096 0.54325 0.44351 0.0
C757 C 0.6728 0.5335 0.23459 0.0
H758 H 0.71062 0.56104 0.36103 0.0
C759 C 0.65593 0.52305 0.28184 0.0
C760 C 0.65845 0.52695 0.35747 0.0
H761 H 0.67018 0.53104 0.17628 0.0
H762 H 0.64069 0.51294 0.25842 0.0
C763 C 0.67852 0.54005 0.38549 0.0
C764 C 0.4237 0.13307 0.34776 0.0
C765 C 0.42615 0.13195 0.27201 0.0
H766 H 0.43232 0.12835 0.45479 0.0
C767 C 0.44123 0.12734 0.24616 0.0
H768 H 0.41222 0.13667 0.36919 0.0
C769 C 0.45304 0.12305 0.29513 0.0
C770 C 0.44967 0.12286 0.37083 0.0
H771 H 0.44358 0.1266 0.18805 0.0
H772 H 0.46401 0.11879 0.27339 0.0
C773 C 0.43522 0.12836 0.39677 0.0
C774 C 0.47047 0.34668 0.2719 0.0
C775 C 0.46474 0.32686 0.29983 0.0
H776 H 0.47848 0.37807 0.29636 0.0
C777 C 0.46565 0.3244 0.37575 0.0
H778 H 0.47005 0.34909 0.21368 0.0
C779 C 0.47005 0.34086 0.4231 0.0
C780 C 0.47403 0.36016 0.39536 0.0
H781 H 0.46144 0.30936 0.39915 0.0
H782 H 0.4694 0.33817 0.48148 0.0
C783 C 0.47523 0.36325 0.31932 0.0
C784 C 0.62974 0.10874 0.29551 0.0
C785 C 0.64992 0.12168 0.32289 0.0
H786 H 0.59765 0.08802 0.32091 0.0
C787 C 0.65272 0.12535 0.3986 0.0
H788 H 0.6271 0.1057 0.23745 0.0
C789 C 0.63597 0.11496 0.44639 0.0
C790 C 0.61604 0.10102 0.41931 0.0
H791 H 0.66807 0.13529 0.42151 0.0
H792 H 0.63877 0.11728 0.50466 0.0
C793 C 0.6129 0.09863 0.34334 0.0
C794 C 0.8873 0.51531 0.33071 0.0
C795 C 0.88508 0.51619 0.4067 0.0
H796 H 0.87862 0.52073 0.22482 0.0
C797 C 0.87003 0.52063 0.43406 0.0
H798 H 0.89873 0.5118 0.30816 0.0
C799 C 0.85823 0.52529 0.38644 0.0
C800 C 0.86157 0.52601 0.31056 0.0
H801 H 0.86779 0.5211 0.49238 0.0
H802 H 0.8474 0.52954 0.40953 0.0
C803 C 0.87576 0.52036 0.283 0.0
C804 C 0.51147 0.62437 0.66722 0.0
C805 C 0.51253 0.62738 0.59114 0.0
H806 H 0.51765 0.63871 0.77276 0.0
C807 C 0.51774 0.64705 0.56334 0.0
H808 H 0.50735 0.6093 0.69025 0.0
C809 C 0.52327 0.66378 0.61063 0.0
C810 C 0.52406 0.66121 0.68653 0.0
H811 H 0.51838 0.64972 0.50497 0.0
H812 H 0.52826 0.679 0.58723 0.0
C813 C 0.51734 0.64119 0.71455 0.0
C814 C 0.3416 0.88569 0.72752 0.0
C815 C 0.32157 0.87234 0.69949 0.0
H816 H 0.37395 0.90564 0.70336 0.0
C817 C 0.31925 0.86745 0.62459 0.0
H818 H 0.34389 0.88968 0.78501 0.0
C819 C 0.33635 0.87675 0.57788 0.0
C820 C 0.35618 0.89093 0.60519 0.0
H821 H 0.30406 0.85712 0.60119 0.0
H822 H 0.33392 0.87323 0.52006 0.0
C823 C 0.35879 0.89483 0.68074 0.0
C824 C 0.11575 0.45028 0.60318 0.0
C825 C 0.11277 0.45035 0.67904 0.0
H826 H 0.10572 0.45338 0.49664 0.0
C827 C 0.09829 0.45572 0.70571 0.0
H828 H 0.12676 0.44614 0.58086 0.0
C829 C 0.08639 0.46008 0.65728 0.0
C830 C 0.08852 0.45876 0.58145 0.0
H831 H 0.0957 0.45593 0.76389 0.0
H832 H 0.07491 0.46361 0.67925 0.0
C833 C 0.10359 0.45425 0.55485 0.0
C834 C 0.14532 0.6891 0.65135 0.0
C835 C 0.14365 0.68605 0.72749 0.0
H836 H 0.13922 0.67478 0.54584 0.0
C837 C 0.1378 0.66624 0.75553 0.0
H838 H 0.15001 0.70426 0.62798 0.0
C839 C 0.13199 0.64942 0.70829 0.0
C840 C 0.13157 0.65207 0.63227 0.0
H841 H 0.13667 0.6635 0.81392 0.0
H842 H 0.12631 0.63408 0.73176 0.0
C843 C 0.13918 0.67222 0.60414 0.0
C844 C 0.28865 0.44049 0.66004 0.0
C845 C 0.29154 0.44264 0.7362 0.0
H846 H 0.30321 0.4465 0.55493 0.0
C847 C 0.31168 0.4552 0.76423 0.0
H848 H 0.27326 0.43096 0.63678 0.0
C849 C 0.32877 0.46434 0.71726 0.0
C850 C 0.32607 0.4608 0.64146 0.0
H851 H 0.31434 0.45731 0.82261 0.0
H852 H 0.3442 0.47317 0.74094 0.0
C853 C 0.30579 0.44937 0.61308 0.0
C854 C 0.55005 0.85014 0.664 0.0
C855 C 0.54753 0.85045 0.74005 0.0
H856 H 0.54151 0.85598 0.55853 0.0
C857 C 0.53217 0.8544 0.76771 0.0
H858 H 0.56173 0.84703 0.64117 0.0
C859 C 0.52035 0.85912 0.72043 0.0
C860 C 0.52394 0.86037 0.64462 0.0
H861 H 0.5297 0.85445 0.82604 0.0
H862 H 0.50923 0.86294 0.74382 0.0
C863 C 0.53846 0.85523 0.61666 0.0
C864 C 0.31579 0.08006 0.18985 0.0
C865 C 0.32532 0.09002 0.12406 0.0
H866 H 0.28719 0.06176 0.24772 0.0
C867 C 0.31295 0.08703 0.06228 0.0
H868 H 0.32511 0.08226 0.23824 0.0
C869 C 0.2912 0.07572 0.06812 0.0
C870 C 0.28161 0.06692 0.13541 0.0
H871 H 0.32001 0.09476 0.01127 0.0
H872 H 0.28189 0.07472 0.02095 0.0
C873 C 0.29411 0.06835 0.19524 0.0
C874 C 0.89006 0.23227 0.05886 0.0
C875 C 0.88466 0.23906 0.12233 0.0
H876 H 0.90676 0.21806 0.01435 0.0
C877 C 0.89467 0.23986 0.18851 0.0
H878 H 0.88245 0.23143 0.00737 0.0
C879 C 0.90886 0.23267 0.19233 0.0
C880 C 0.9128 0.22404 0.13038 0.0
H881 H 0.89076 0.24513 0.23815 0.0
H882 H 0.91547 0.23243 0.24488 0.0
C883 C 0.90386 0.22455 0.06304 0.0
C884 C 0.74871 0.65737 0.18676 0.0
C885 C 0.7492 0.64813 0.12025 0.0
H886 H 0.75699 0.68566 0.2442 0.0
C887 C 0.75666 0.66051 0.0574 0.0
H888 H 0.74295 0.64804 0.23593 0.0
C889 C 0.76516 0.68213 0.06249 0.0
C890 C 0.7658 0.69153 0.13009 0.0
H891 H 0.75728 0.6537 0.00571 0.0
H892 H 0.77201 0.69158 0.01421 0.0
C893 C 0.75668 0.67885 0.19146 0.0
C894 C 0.11245 0.32937 0.75933 0.0
C895 C 0.09098 0.31545 0.76483 0.0
H896 H 0.13703 0.36107 0.76359 0.0
C897 C 0.07736 0.3232 0.77672 0.0
H898 H 0.12321 0.32364 0.75091 0.0
C899 C 0.08532 0.34465 0.78642 0.0
C900 C 0.10691 0.35855 0.78238 0.0
H901 H 0.06075 0.31262 0.78231 0.0
H902 H 0.07466 0.35033 0.79779 0.0
C903 C 0.12032 0.35074 0.76692 0.0
C904 C 0.65553 0.75679 0.71872 0.0
C905 C 0.66761 0.76006 0.78153 0.0
H906 H 0.62464 0.74296 0.67439 0.0
C907 C 0.65796 0.74923 0.84597 0.0
H908 H 0.66268 0.76513 0.66868 0.0
C909 C 0.63637 0.73632 0.84907 0.0
C910 C 0.62402 0.73448 0.78826 0.0
H911 H 0.66705 0.75156 0.8951 0.0
H912 H 0.62928 0.72901 0.90057 0.0
C913 C 0.63382 0.74425 0.72228 0.0
C914 C 0.22997 0.91398 0.87993 0.0
C915 C 0.22101 0.9154 0.81393 0.0
H916 H 0.24911 0.9038 0.93312 0.0
C917 C 0.2269 0.91001 0.74833 0.0
H918 H 0.22571 0.91816 0.93124 0.0
C919 C 0.23995 0.9014 0.74962 0.0
C920 C 0.24765 0.89851 0.81632 0.0
H921 H 0.22016 0.91091 0.69685 0.0
H922 H 0.24317 0.89603 0.69882 0.0
C923 C 0.24339 0.90583 0.88103 0.0
C924 C 0.68184 0.91201 0.95222 0.0
C925 C 0.69172 0.92167 0.88622 0.0
H926 H 0.65292 0.89121 0.00558 0.0
C927 C 0.67945 0.91979 0.82512 0.0
H928 H 0.69096 0.91335 1.00034 0.0
C929 C 0.65785 0.90691 0.82798 0.0
C930 C 0.64812 0.89616 0.89245 0.0
H931 H 0.6866 0.92703 0.77361 0.0
H932 H 0.64882 0.9045 0.77864 0.0
C933 C 0.66012 0.8995 0.95553 0.0
C934 C 0.07384 0.75184 0.92977 0.0
C935 C 0.06585 0.75459 0.8635 0.0
H936 H 0.09377 0.74233 0.98147 0.0
C937 C 0.06977 0.74708 0.7986 0.0
H938 H 0.07091 0.75739 0.9807 0.0
C939 C 0.08313 0.73885 0.79898 0.0
C940 C 0.09235 0.73754 0.86448 0.0
H941 H 0.06383 0.74902 0.74682 0.0
H942 H 0.08711 0.7345 0.74746 0.0
C943 C 0.08681 0.74314 0.93037 0.0
C944 C 0.22155 0.31222 0.80283 0.0
C945 C 0.21305 0.2997 0.86491 0.0
H946 H 0.23514 0.34297 0.75792 0.0
C947 C 0.21409 0.30921 0.93262 0.0
H948 H 0.22091 0.3053 0.75004 0.0
C949 C 0.22272 0.33085 0.93749 0.0
C950 C 0.22988 0.34313 0.87434 0.0
H951 H 0.20773 0.29986 0.98143 0.0
H952 H 0.22268 0.33778 0.98958 0.0
C953 C 0.22962 0.33373 0.80734 0.0
C954 C 0.90008 0.65803 0.15559 0.0
C955 C 0.89886 0.66705 0.22159 0.0
H956 H 0.89247 0.62995 0.09807 0.0
C957 C 0.89057 0.65448 0.28363 0.0
H958 H 0.90649 0.66752 0.10708 0.0
C959 C 0.88208 0.63288 0.27807 0.0
C960 C 0.88228 0.62371 0.21086 0.0
H961 H 0.88941 0.66116 0.33489 0.0
H962 H 0.87467 0.62327 0.32559 0.0
C963 C 0.89212 0.63657 0.15049 0.0
C964 C 0.35204 0.25551 0.14942 0.0
C965 C 0.36468 0.25684 0.20868 0.0
H966 H 0.32096 0.2417 0.10735 0.0
C967 C 0.35526 0.24785 0.27597 0.0
H968 H 0.35884 0.26227 0.09698 0.0
C969 C 0.33352 0.23649 0.28233 0.0
C970 C 0.32103 0.23367 0.22107 0.0
H971 H 0.36468 0.24879 0.32271 0.0
H972 H 0.32657 0.22864 0.33328 0.0
C973 C 0.3304 0.24378 0.15533 0.0
C974 C 0.72774 0.08665 0.15957 0.0
C975 C 0.72476 0.09629 0.22073 0.0
H976 H 0.74487 0.07312 0.11369 0.0
C977 C 0.73445 0.09651 0.28723 0.0
H978 H 0.72053 0.0863 0.10766 0.0
C979 C 0.74802 0.0885 0.29109 0.0
C980 C 0.75243 0.08066 0.22806 0.0
H981 H 0.73231 0.10377 0.33533 0.0
H982 H 0.75624 0.08991 0.34167 0.0
C983 C 0.74169 0.07916 0.16298 0.0
C984 C 0.97893 0.40477 0.49469 0.0
C985 C 0.98806 0.41582 0.43014 0.0
H986 H 0.95068 0.38523 0.55264 0.0
C987 C 0.9754 0.41355 0.36997 0.0
H988 H 0.9885 0.40643 0.54185 0.0
C989 C 0.95368 0.40181 0.37665 0.0
C990 C 0.94446 0.39191 0.44313 0.0
H991 H 0.98217 0.42214 0.32002 0.0
H992 H 0.94412 0.40135 0.33108 0.0
C993 C 0.95731 0.39267 0.50084 0.0
C994 C 0.58376 0.56585 0.51903 0.0
C995 C 0.58656 0.55623 0.45746 0.0
H996 H 0.56747 0.58027 0.56484 0.0
C997 C 0.57765 0.55704 0.39042 0.0
H998 H 0.5904 0.56545 0.57134 0.0
C999 C 0.56489 0.56597 0.38634 0.0
C1000 C 0.56052 0.57373 0.44964 0.0
H1001 H 0.5797 0.54985 0.34197 0.0
H1002 H 0.55717 0.56529 0.33526 0.0
C1003 C 0.57061 0.57428 0.51533 0.0
C1004 C 0.41864 0.01495 0.46442 0.0
C1005 C 0.44021 0.02901 0.4611 0.0
H1006 H 0.39426 0.98288 0.45783 0.0
C1007 C 0.45373 0.02148 0.44341 0.0
H1008 H 0.40788 0.02039 0.47753 0.0
C1009 C 0.44602 0.00021 0.43333 0.0
C1010 C 0.42459 0.98611 0.43859 0.0
H1011 H 0.47043 0.03191 0.44057 0.0
H1012 H 0.45689 -0.00532 0.4236 0.0
C1013 C 0.41084 -0.00639 0.45231 0.0
C1014 C 0.55069 0.98774 0.61755 0.0
C1015 C 0.55771 0.00041 0.55528 0.0
H1016 H 0.53598 0.95649 0.65905 0.0
C1017 C 0.55774 0.99151 0.48749 0.0
H1018 H 0.55043 -0.00571 0.67021 0.0
C1019 C 0.54996 0.97008 0.48125 0.0
C1020 C 0.54146 0.95713 0.54239 0.0
H1021 H 0.56315 0.00106 0.43873 0.0
H1022 H 0.54943 0.96354 0.42781 0.0
C1023 C 0.54235 0.96617 0.61096 0.0
C1024 C -0.00125 0.56249 0.6144 0.0
C1025 C 0.98618 0.55956 0.55329 0.0
H1026 H 0.02998 0.57525 0.65461 0.0
C1027 C -0.00458 0.57006 0.48795 0.0
H1028 H -0.00808 0.55435 0.66504 0.0
C1029 C 0.01705 0.58226 0.48216 0.0
C1030 C 0.02981 0.58365 0.54111 0.0
H1031 H 0.98593 0.56792 0.44007 0.0
H1032 H 0.02377 0.58925 0.42991 0.0
C1033 C 0.02048 0.5743 0.60812 0.0
C1034 C 0.39914 0.41977 0.46845 0.0
C1035 C 0.39579 0.42836 0.53179 0.0
H1036 H 0.41597 0.40627 0.41987 0.0
C1037 C 0.40418 0.4265 0.59857 0.0
H1038 H 0.39292 0.42103 0.41629 0.0
C1039 C 0.417 0.41762 0.60091 0.0
C1040 C 0.42199 0.41097 0.53619 0.0
H1041 H 0.40172 0.43292 0.64831 0.0
H1042 H 0.42433 0.41754 0.65207 0.0
C1043 C 0.41236 0.41139 0.47049 0.0
C1044 C 0.23574 0.10066 0.34053 0.0
C1045 C 0.21625 0.08939 0.30606 0.0
H1046 H 0.26109 0.13119 0.36499 0.0
C1047 C 0.20426 0.099 0.2946 0.0
H1048 H 0.24533 0.09359 0.34931 0.0
C1049 C 0.21303 0.12042 0.30626 0.0
C1050 C 0.23402 0.13235 0.32708 0.0
H1051 H 0.18925 0.0906 0.26762 0.0
H1052 H 0.20453 0.12799 0.28787 0.0
C1053 C 0.2448 0.12221 0.34957 0.0
C1054 C 0.86722 0.13013 0.3435 0.0
C1055 C 0.85932 0.10933 0.32208 0.0
H1056 H 0.89322 0.16118 0.33912 0.0
C1057 C 0.87315 0.10284 0.29765 0.0
H1058 H 0.85673 0.13548 0.36146 0.0
C1059 C 0.89384 0.11764 0.2821 0.0
C1060 C 0.90095 0.1389 0.29342 0.0
H1061 H 0.86729 0.0869 0.27984 0.0
H1062 H 0.90344 0.11277 0.25299 0.0
C1063 C 0.88813 0.14483 0.33056 0.0
C1064 C 0.85984 0.74032 0.345 0.0
C1065 C 0.88032 0.75225 0.31907 0.0
H1066 H 0.82918 0.73636 0.34509 0.0
C1067 C 0.88708 0.77237 0.29205 0.0
H1068 H 0.85428 0.72464 0.36509 0.0
C1069 C 0.87259 0.7788 0.2782 0.0
C1070 C 0.8514 0.76536 0.29328 0.0
H1071 H 0.90276 0.7817 0.27089 0.0
H1072 H 0.87747 0.79294 0.24701 0.0
C1073 C 0.84547 0.74706 0.33338 0.0
C1074 C 0.09244 0.20475 0.71384 0.0
C1075 C 0.0963 0.22339 0.68031 0.0
H1076 H 0.1064 0.18867 0.76456 0.0
C1077 C 0.11562 0.23593 0.64633 0.0
H1078 H 0.07764 0.19488 0.74057 0.0
C1079 C 0.13213 0.23222 0.65927 0.0
C1080 C 0.12927 0.21615 0.70705 0.0
H1081 H 0.11895 0.25046 0.62054 0.0
H1082 H 0.14767 0.24391 0.64237 0.0
C1083 C 0.10897 0.20125 0.72799 0.0
C1084 C 0.73877 0.87393 0.67028 0.0
C1085 C 0.75079 0.86523 0.69393 0.0
H1086 H 0.73488 0.90069 0.67324 0.0
C1087 C 0.77095 0.87838 0.72102 0.0
H1088 H 0.72305 0.86397 0.65027 0.0
C1089 C 0.77741 0.89921 0.73681 0.0
C1090 C 0.76401 0.90713 0.72326 0.0
H1091 H 0.78033 0.87189 0.74058 0.0
H1092 H 0.79164 0.90828 0.76777 0.0
C1093 C 0.74556 0.89497 0.68362 0.0
C1094 C 0.09943 0.88306 0.72585 0.0
C1095 C 0.11649 0.88121 0.70276 0.0
H1096 H 0.06794 0.86654 0.76457 0.0
C1097 C 0.11313 0.86189 0.67731 0.0
H1098 H 0.1018 0.89779 0.74683 0.0
C1099 C 0.09359 0.84405 0.68582 0.0
C1100 C 0.07757 0.84547 0.72145 0.0
H1101 H 0.1262 0.86011 0.66048 0.0
H1102 H 0.09206 0.82895 0.67507 0.0
C1103 C 0.08005 0.86518 0.73616 0.0
C1104 C 0.90017 0.42356 0.6581 0.0
C1105 C 0.88064 0.41319 0.62341 0.0
H1106 H 0.92611 0.45337 0.6865 0.0
C1107 C 0.86926 0.42355 0.61474 0.0
H1108 H 0.90931 0.41591 0.66483 0.0
C1109 C 0.87861 0.44485 0.63009 0.0
C1110 C 0.89961 0.45599 0.65156 0.0
H1111 H 0.85422 0.41587 0.58772 0.0
H1112 H 0.87052 0.45307 0.61424 0.0
C1113 C 0.90983 0.44502 0.67065 0.0
C1114 C 0.54165 0.4328 0.62178 0.0
C1115 C 0.52752 0.43941 0.64118 0.0
H1116 H 0.57259 0.44256 0.58424 0.0
C1117 C 0.53514 0.46024 0.66155 0.0
H1118 H 0.53601 0.41682 0.60487 0.0
C1119 C 0.55626 0.47485 0.6524 0.0
C1120 C 0.5696 0.4688 0.61999 0.0
H1121 H 0.52444 0.46567 0.67571 0.0
H1122 H 0.56129 0.49123 0.65972 0.0
C1123 C 0.56259 0.44752 0.60995 0.0
C1124 C 0.51827 0.07265 0.69291 0.0
C1125 C 0.53924 0.08447 0.67219 0.0
H1126 H 0.48839 0.07042 0.69176 0.0
C1127 C 0.54749 0.1056 0.65455 0.0
H1128 H 0.51161 0.05628 0.70628 0.0
C1129 C 0.53409 0.11357 0.64373 0.0
C1130 C 0.51247 0.10053 0.65197 0.0
H1131 H 0.56363 0.11495 0.63789 0.0
H1132 H 0.54028 0.12887 0.61931 0.0
C1133 C 0.50498 0.08083 0.68439 0.0
C1134 C 0.79128 0.5769 0.99363 0.0
C1135 C 0.77057 0.56497 0.01724 0.0
H1136 H 0.82169 0.58026 0.99484 0.0
C1137 C 0.76327 0.54449 0.04159 0.0
H1138 H 0.79725 0.59283 0.97557 0.0
C1139 C 0.77739 0.53756 0.05526 0.0
C1140 C 0.79874 0.55085 0.04246 0.0
H1141 H 0.74739 0.53514 0.06094 0.0
H1142 H 0.77204 0.52304 0.08456 0.0
C1143 C 0.80527 0.56966 0.0048 0.0
C1144 C 0.43318 0.20385 0.0407 0.0
C1145 C 0.41223 0.192 0.01927 0.0
H1146 H 0.45705 0.23364 0.07927 0.0
C1147 C 0.40157 0.20224 0.99655 0.0
H1148 H 0.44158 0.1962 0.05935 0.0
C1149 C 0.41074 0.22381 0.00538 0.0
C1150 C 0.43022 0.23506 0.03995 0.0
H1151 H 0.38531 0.19332 0.98072 0.0
H1152 H 0.40124 0.23096 0.99605 0.0
C1153 C 0.44205 0.2253 0.05217 0.0
C1154 C 0.74886 0.17386 0.01434 0.0
C1155 C 0.73622 0.18023 0.05034 0.0
H1156 H 0.78015 0.1827 0.9838 0.0
C1157 C 0.74349 0.20159 0.05934 0.0
H1158 H 0.74362 0.15742 0.00751 0.0
C1159 C 0.76419 0.21614 0.04285 0.0
C1160 C 0.77787 0.20929 0.02002 0.0
H1161 H 0.73402 0.20679 0.0875 0.0
H1162 H 0.77018 0.23223 0.05905 0.0
C1163 C 0.76979 0.18832 1.00059 0.0
C1164 C 0.57101 0.76104 0.99238 0.0
C1165 C 0.55228 0.74888 0.95421 0.0
H1166 H 0.59389 0.79207 0.02401 0.0
C1167 C 0.53888 0.75687 0.94213 0.0
H1168 H 0.58169 0.75524 1.00164 0.0
C1169 C 0.54557 0.77775 0.95766 0.0
C1170 C 0.56595 0.79089 0.98291 0.0
H1171 H 0.52443 0.74778 0.91231 0.0
H1172 H 0.53611 0.78428 0.93911 0.0
C1173 C 0.57802 0.78213 0.00536 0.0
C1174 C 0.20045 0.79001 0.99696 0.0
C1175 C 0.1972 0.77091 0.96947 0.0
H1176 H 0.22141 0.82296 0.00216 0.0
C1177 C 0.21432 0.76939 0.94475 0.0
H1178 H 0.18734 0.79155 0.01495 0.0
C1179 C 0.23366 0.78742 0.93564 0.0
C1180 C 0.23607 0.80696 0.95292 0.0
H1181 H 0.21204 0.75486 0.92209 0.0
H1182 H 0.24583 0.78635 0.90642 0.0
C1183 C 0.21996 0.80798 0.98952 0.0
C1184 C 0.20222 0.45253 0.94661 0.0
C1185 C 0.18118 0.43784 0.95943 0.0
H1186 H 0.2332 0.45747 0.9388 0.0
C1187 C 0.17629 0.41959 0.99837 0.0
H1188 H 0.2064 0.46678 0.9171 0.0
C1189 C 0.19161 0.41406 0.0093 0.0
C1190 C 0.21194 0.42711 0.98371 0.0
H1191 H 0.16019 0.408 0.00923 0.0
H1192 H 0.18689 0.39841 0.02777 0.0
C1193 C 0.21761 0.44722 0.95933 0.0
C1194 C 0.42169 0.8724 0.38651 0.0
C1195 C 0.42793 0.89189 0.35468 0.0
H1196 H 0.43211 0.85283 0.43439 0.0
C1197 C 0.44768 0.90287 0.32213 0.0
H1198 H 0.40654 0.86374 0.41239 0.0
C1199 C 0.4623 0.89641 0.33361 0.0
C1200 C 0.45726 0.87928 0.37927 0.0
H1201 H 0.45287 0.91804 0.2979 0.0
H1202 H 0.47831 0.90678 0.31737 0.0
C1203 C 0.43637 0.86618 0.3994 0.0
C1204 C 0.07456 0.55184 0.32837 0.0
C1205 C 0.09398 0.56215 0.36388 0.0
H1206 H 0.04871 0.52207 0.29899 0.0
C1207 C 0.10532 0.55176 0.37308 0.0
H1208 H 0.06545 0.5595 0.32124 0.0
C1209 C 0.09601 0.53048 0.35742 0.0
C1210 C 0.07508 0.51939 0.33512 0.0
H1211 H 0.12026 0.55939 0.40073 0.0
H1212 H 0.10403 0.52223 0.37369 0.0
C1213 C 0.06494 0.53039 0.31549 0.0
C1214 C 0.44097 0.55335 0.37282 0.0
C1215 C 0.45501 0.547 0.34962 0.0
H1216 H 0.41041 0.54319 0.41524 0.0
C1217 C 0.44733 0.52626 0.32788 0.0
H1218 H 0.44666 0.56924 0.39092 0.0
C1219 C 0.42638 0.51146 0.33943 0.0
C1220 C 0.41328 0.51724 0.37531 0.0
H1221 H 0.45799 0.52102 0.31092 0.0
H1222 H 0.42141 0.49513 0.3309 0.0
C1223 C 0.42022 0.53845 0.38688 0.0
loop_
_geom_bond_atom_site_label_1
_geom_bond_atom_site_label_2
_geom_bond_distance
_geom_bond_site_symmetry_2
_ccdc_geom_bond_type
Zn0 O3 2.031 . S
Zn0 O5 2.049 . S
Zn0 O10 2.067 . S
Zn1 O2 1.962 . S
Zn1 O4 1.986 . S
Zn1 O6 1.996 . S
Zn1 O9 1.943 . S
O2 Zn1 1.962 . S
O2 C7 1.254 . S
O3 Zn0 2.031 . S
O3 C7 1.269 . S
O4 Zn1 1.986 . S
O4 C11 1.262 . S
O5 Zn0 2.049 . S
O5 C13 1.260 . S
O6 Zn1 1.996 . S
O6 C13 1.257 . S
C7 O2 1.254 . S
C7 O3 1.269 . S
C8 O9 1.249 . S
C8 O10 1.270 . S
O9 Zn1 1.943 . S
O9 C8 1.249 . S
O10 Zn0 2.067 . S
O10 C8 1.270 . S
C11 O4 1.262 . S
C11 O12 1.232 . S
O12 C11 1.232 . S
C13 O5 1.260 . S
C13 O6 1.257 . S
Zn14 O17 2.031 . S
Zn14 O19 2.049 . S
Zn14 O24 2.067 . S
Zn15 O16 1.962 . S
Zn15 O18 1.986 . S
Zn15 O20 1.996 . S
Zn15 O23 1.943 . S
O16 Zn15 1.962 . S
O16 C21 1.254 . S
O17 Zn14 2.031 . S
O17 C21 1.269 . S
O18 Zn15 1.986 . S
O18 C25 1.262 . S
O19 Zn14 2.049 . S
O19 C27 1.260 . S
O20 Zn15 1.996 . S
O20 C27 1.257 . S
C21 O16 1.254 . S
C21 O17 1.269 . S
C22 O23 1.249 . S
C22 O24 1.270 . S
O23 Zn15 1.943 . S
O23 C22 1.249 . S
O24 Zn14 2.067 . S
O24 C22 1.270 . S
C25 O18 1.262 . S
C25 O26 1.232 . S
O26 C25 1.232 . S
C27 O19 1.260 . S
C27 O20 1.257 . S
Zn28 O31 2.031 . S
Zn28 O33 2.049 . S
Zn28 O38 2.067 . S
Zn29 O30 1.962 . S
Zn29 O32 1.986 . S
Zn29 O34 1.996 . S
Zn29 O37 1.943 . S
O30 Zn29 1.962 . S
O30 C35 1.254 . S
O31 Zn28 2.031 . S
O31 C35 1.269 . S
O32 Zn29 1.986 . S
O32 C39 1.262 . S
O33 Zn28 2.049 . S
O33 C41 1.260 . S
O34 Zn29 1.996 . S
O34 C41 1.257 . S
C35 O30 1.254 . S
C35 O31 1.269 . S
C36 O37 1.249 . S
C36 O38 1.270 . S
O37 Zn29 1.943 . S
O37 C36 1.249 . S
O38 Zn28 2.067 . S
O38 C36 1.270 . S
C39 O32 1.262 . S
C39 O40 1.232 . S
O40 C39 1.232 . S
C41 O33 1.260 . S
C41 O34 1.257 . S
Zn42 O45 2.031 . S
Zn42 O47 2.049 . S
Zn42 O52 2.067 . S
Zn43 O44 1.962 . S
Zn43 O46 1.986 . S
Zn43 O48 1.996 . S
Zn43 O51 1.943 . S
O44 Zn43 1.962 . S
O44 C49 1.254 . S
O45 Zn42 2.031 . S
O45 C49 1.269 . S
O46 Zn43 1.986 . S
O46 C53 1.262 . S
O47 Zn42 2.049 . S
O47 C55 1.260 . S
O48 Zn43 1.996 . S
O48 C55 1.257 . S
C49 O44 1.254 . S
C49 O45 1.269 . S
C50 O51 1.249 . S
C50 O52 1.270 . S
O51 Zn43 1.943 . S
O51 C50 1.249 . S
O52 Zn42 2.067 . S
O52 C50 1.270 . S
C53 O46 1.262 . S
C53 O54 1.232 . S
O54 C53 1.232 . S
C55 O47 1.260 . S
C55 O48 1.257 . S
Zn56 O59 2.031 . S
Zn56 O61 2.049 . S
Zn56 O66 2.067 . S
Zn57 O58 1.962 . S
Zn57 O60 1.986 . S
Zn57 O62 1.996 . S
Zn57 O65 1.943 . S
O58 Zn57 1.962 . S
O58 C63 1.254 . S
O59 Zn56 2.031 . S
O59 C63 1.269 . S
O60 Zn57 1.986 . S
O60 C67 1.262 . S
O61 Zn56 2.049 . S
O61 C69 1.260 . S
O62 Zn57 1.996 . S
O62 C69 1.257 . S
C63 O58 1.254 . S
C63 O59 1.269 . S
C64 O65 1.249 . S
C64 O66 1.270 . S
O65 Zn57 1.943 . S
O65 C64 1.249 . S
O66 Zn56 2.067 . S
O66 C64 1.270 . S
C67 O60 1.262 . S
C67 O68 1.232 . S
O68 C67 1.232 . S
C69 O61 1.260 . S
C69 O62 1.257 . S
Zn70 O73 2.031 . S
Zn70 O75 2.049 . S
Zn70 O80 2.067 . S
Zn71 O72 1.962 . S
Zn71 O74 1.986 . S
Zn71 O76 1.996 . S
Zn71 O79 1.943 . S
O72 Zn71 1.962 . S
O72 C77 1.254 . S
O73 Zn70 2.031 . S
O73 C77 1.269 . S
O74 Zn71 1.986 . S
O74 C81 1.262 . S
O75 Zn70 2.049 . S
O75 C83 1.260 . S
O76 Zn71 1.996 . S
O76 C83 1.257 . S
C77 O72 1.254 . S
C77 O73 1.269 . S
C78 O79 1.249 . S
C78 O80 1.270 . S
O79 Zn71 1.943 . S
O79 C78 1.249 . S
O80 Zn70 2.067 . S
O80 C78 1.270 . S
C81 O74 1.262 . S
C81 O82 1.232 . S
O82 C81 1.232 . S
C83 O75 1.260 . S
C83 O76 1.257 . S
Zn84 O87 2.031 . S
Zn84 O89 2.049 . S
Zn84 O94 2.067 . S
Zn85 O86 1.962 . S
Zn85 O88 1.986 . S
Zn85 O90 1.996 . S
Zn85 O93 1.943 . S
O86 Zn85 1.962 . S
O86 C91 1.254 . S
O87 Zn84 2.031 . S
O87 C91 1.269 . S
O88 Zn85 1.986 . S
O88 C95 1.262 . S
O89 Zn84 2.049 . S
O89 C97 1.260 . S
O90 Zn85 1.996 . S
O90 C97 1.257 . S
C91 O86 1.254 . S
C91 O87 1.269 . S
C92 O93 1.249 . S
C92 O94 1.270 . S
O93 Zn85 1.943 . S
O93 C92 1.249 . S
O94 Zn84 2.067 . S
O94 C92 1.270 . S
C95 O88 1.262 . S
C95 O96 1.232 . S
O96 C95 1.232 . S
C97 O89 1.260 . S
C97 O90 1.257 . S
Zn98 O101 2.031 . S
Zn98 O103 2.049 . S
Zn98 O108 2.067 . S
Zn99 O100 1.962 . S
Zn99 O102 1.986 . S
Zn99 O104 1.996 . S
Zn99 O107 1.943 . S
O100 Zn99 1.962 . S
O100 C105 1.254 . S
O101 Zn98 2.031 . S
O101 C105 1.269 . S
O102 Zn99 1.986 . S
O102 C109 1.262 . S
O103 Zn98 2.049 . S
O103 C111 1.260 . S
O104 Zn99 1.996 . S
O104 C111 1.257 . S
C105 O100 1.254 . S
C105 O101 1.269 . S
C106 O107 1.249 . S
C106 O108 1.270 . S
O107 Zn99 1.943 . S
O107 C106 1.249 . S
O108 Zn98 2.067 . S
O108 C106 1.270 . S
C109 O102 1.262 . S
C109 O110 1.232 . S
O110 C109 1.232 . S
C111 O103 1.260 . S
C111 O104 1.257 . S
Zn112 O115 2.031 . S
Zn112 O117 2.049 . S
Zn112 O122 2.067 . S
Zn113 O114 1.962 . S
Zn113 O116 1.986 . S
Zn113 O118 1.996 . S
Zn113 O121 1.943 . S
O114 Zn113 1.962 . S
O114 C119 1.254 . S
O115 Zn112 2.031 . S
O115 C119 1.269 . S
O116 Zn113 1.986 . S
O116 C123 1.262 . S
O117 Zn112 2.049 . S
O117 C125 1.260 . S
O118 Zn113 1.996 . S
O118 C125 1.257 . S
C119 O114 1.254 . S
C119 O115 1.269 . S
C120 O121 1.249 . S
C120 O122 1.270 . S
O121 Zn113 1.943 . S
O121 C120 1.249 . S
O122 Zn112 2.067 . S
O122 C120 1.270 . S
C123 O116 1.262 . S
C123 O124 1.232 . S
O124 C123 1.232 . S
C125 O117 1.260 . S
C125 O118 1.257 . S
Zn126 O129 2.031 . S
Zn126 O131 2.049 . S
Zn126 O136 2.067 . S
Zn127 O128 1.962 . S
Zn127 O130 1.986 . S
Zn127 O132 1.996 . S
Zn127 O135 1.943 . S
O128 Zn127 1.962 . S
O128 C133 1.254 . S
O129 Zn126 2.031 . S
O129 C133 1.269 . S
O130 Zn127 1.986 . S
O130 C137 1.262 . S
O131 Zn126 2.049 . S
O131 C139 1.260 . S
O132 Zn127 1.996 . S
O132 C139 1.257 . S
C133 O128 1.254 . S
C133 O129 1.269 . S
C134 O135 1.249 . S
C134 O136 1.270 . S
O135 Zn127 1.943 . S
O135 C134 1.249 . S
O136 Zn126 2.067 . S
O136 C134 1.270 . S
C137 O130 1.262 . S
C137 O138 1.232 . S
O138 C137 1.232 . S
C139 O131 1.260 . S
C139 O132 1.257 . S
Zn140 O143 2.031 . S
Zn140 O145 2.049 . S
Zn140 O150 2.067 . S
Zn141 O142 1.962 . S
Zn141 O144 1.986 . S
Zn141 O146 1.996 . S
Zn141 O149 1.943 . S
O142 Zn141 1.962 . S
O142 C147 1.254 . S
O143 Zn140 2.031 . S
O143 C147 1.269 . S
O144 Zn141 1.986 . S
O144 C151 1.262 . S
O145 Zn140 2.049 . S
O145 C153 1.260 . S
O146 Zn141 1.996 . S
O146 C153 1.257 . S
C147 O142 1.254 . S
C147 O143 1.269 . S
C148 O149 1.249 . S
C148 O150 1.270 . S
O149 Zn141 1.943 . S
O149 C148 1.249 . S
O150 Zn140 2.067 . S
O150 C148 1.270 . S
C151 O144 1.262 . S
C151 O152 1.232 . S
O152 C151 1.232 . S
C153 O145 1.260 . S
C153 O146 1.257 . S
Zn154 O157 2.031 . S
Zn154 O159 2.049 . S
Zn154 O164 2.067 . S
Zn155 O156 1.962 . S
Zn155 O158 1.986 . S
Zn155 O160 1.996 . S
Zn155 O163 1.943 . S
O156 Zn155 1.962 . S
O156 C161 1.254 . S
O157 Zn154 2.031 . S
O157 C161 1.269 . S
O158 Zn155 1.986 . S
O158 C165 1.262 . S
O159 Zn154 2.049 . S
O159 C167 1.260 . S
O160 Zn155 1.996 . S
O160 C167 1.257 . S
C161 O156 1.254 . S
C161 O157 1.269 . S
C162 O163 1.249 . S
C162 O164 1.270 . S
O163 Zn155 1.943 . S
O163 C162 1.249 . S
O164 Zn154 2.067 . S
O164 C162 1.270 . S
C165 O158 1.262 . S
C165 O166 1.232 . S
O166 C165 1.232 . S
C167 O159 1.260 . S
C167 O160 1.257 . S
Zn168 O171 2.031 . S
Zn168 O173 2.049 . S
Zn168 O178 2.067 . S
Zn169 O170 1.962 . S
Zn169 O172 1.986 . S
Zn169 O174 1.996 . S
Zn169 O177 1.943 . S
O170 Zn169 1.962 . S
O170 C175 1.254 . S
O171 Zn168 2.031 . S
O171 C175 1.269 . S
O172 Zn169 1.986 . S
O172 C179 1.262 . S
O173 Zn168 2.049 . S
O173 C181 1.260 . S
O174 Zn169 1.996 . S
O174 C181 1.257 . S
C175 O170 1.254 . S
C175 O171 1.269 . S
C176 O177 1.249 . S
C176 O178 1.270 . S
O177 Zn169 1.943 . S
O177 C176 1.249 . S
O178 Zn168 2.067 . S
O178 C176 1.270 . S
C179 O172 1.262 . S
C179 O180 1.232 . S
O180 C179 1.232 . S
C181 O173 1.260 . S
C181 O174 1.257 . S
Zn182 O185 2.031 . S
Zn182 O187 2.049 . S
Zn182 O192 2.067 . S
Zn183 O184 1.962 . S
Zn183 O186 1.986 . S
Zn183 O188 1.996 . S
Zn183 O191 1.943 . S
O184 Zn183 1.962 . S
O184 C189 1.254 . S
O185 Zn182 2.031 . S
O185 C189 1.269 . S
O186 Zn183 1.986 . S
O186 C193 1.262 . S
O187 Zn182 2.049 . S
O187 C195 1.260 . S
O188 Zn183 1.996 . S
O188 C195 1.257 . S
C189 O184 1.254 . S
C189 O185 1.269 . S
C190 O191 1.249 . S
C190 O192 1.270 . S
O191 Zn183 1.943 . S
O191 C190 1.249 . S
O192 Zn182 2.067 . S
O192 C190 1.270 . S
C193 O186 1.262 . S
C193 O194 1.232 . S
O194 C193 1.232 . S
C195 O187 1.260 . S
C195 O188 1.257 . S
Zn196 O199 2.031 . S
Zn196 O201 2.049 . S
Zn196 O206 2.067 . S
Zn197 O198 1.962 . S
Zn197 O200 1.986 . S
Zn197 O202 1.996 . S
Zn197 O205 1.943 . S
O198 Zn197 1.962 . S
O198 C203 1.254 . S
O199 Zn196 2.031 . S
O199 C203 1.269 . S
O200 Zn197 1.986 . S
O200 C207 1.262 . S
O201 Zn196 2.049 . S
O201 C209 1.260 . S
O202 Zn197 1.996 . S
O202 C209 1.257 . S
C203 O198 1.254 . S
C203 O199 1.269 . S
C204 O205 1.249 . S
C204 O206 1.270 . S
O205 Zn197 1.943 . S
O205 C204 1.249 . S
O206 Zn196 2.067 . S
O206 C204 1.270 . S
C207 O200 1.262 . S
C207 O208 1.232 . S
O208 C207 1.232 . S
C209 O201 1.260 . S
C209 O202 1.257 . S
Zn210 O213 2.031 . S
Zn210 O215 2.049 . S
Zn210 O220 2.067 . S
Zn211 O212 1.962 . S
Zn211 O214 1.986 . S
Zn211 O216 1.996 . S
Zn211 O219 1.943 . S
O212 Zn211 1.962 . S
O212 C217 1.254 . S
O213 Zn210 2.031 . S
O213 C217 1.269 . S
O214 Zn211 1.986 . S
O214 C221 1.262 1_554 S
O215 Zn210 2.049 . S
O215 C223 1.260 . S
O216 Zn211 1.996 . S
O216 C223 1.257 . S
C217 O212 1.254 . S
C217 O213 1.269 . S
C218 O219 1.249 . S
C218 O220 1.270 . S
O219 Zn211 1.943 . S
O219 C218 1.249 . S
O220 Zn210 2.067 . S
O220 C218 1.270 . S
C221 O214 1.262 1_556 S
C221 O222 1.232 . S
O222 C221 1.232 . S
C223 O215 1.260 . S
C223 O216 1.257 . S
Zn224 O227 2.031 . S
Zn224 O229 2.049 . S
Zn224 O234 2.067 . S
Zn225 O226 1.962 . S
Zn225 O228 1.986 . S
Zn225 O230 1.996 . S
Zn225 O233 1.943 . S
O226 Zn225 1.962 . S
O226 C231 1.254 . S
O227 Zn224 2.031 . S
O227 C231 1.269 . S
O228 Zn225 1.986 . S
O228 C235 1.262 1_554 S
O229 Zn224 2.049 . S
O229 C237 1.260 . S
O230 Zn225 1.996 . S
O230 C237 1.257 . S
C231 O226 1.254 . S
C231 O227 1.269 . S
C232 O233 1.249 . S
C232 O234 1.270 . S
O233 Zn225 1.943 . S
O233 C232 1.249 . S
O234 Zn224 2.067 . S
O234 C232 1.270 . S
C235 O228 1.262 1_556 S
C235 O236 1.232 . S
O236 C235 1.232 . S
C237 O229 1.260 . S
C237 O230 1.257 . S
Zn238 O241 2.031 . S
Zn238 O243 2.049 . S
Zn238 O248 2.067 . S
Zn239 O240 1.962 . S
Zn239 O242 1.986 . S
Zn239 O244 1.996 . S
Zn239 O247 1.943 . S
O240 Zn239 1.962 . S
O240 C245 1.254 . S
O241 Zn238 2.031 . S
O241 C245 1.269 . S
O242 Zn239 1.986 . S
O242 C249 1.262 1_554 S
O243 Zn238 2.049 . S
O243 C251 1.260 . S
O244 Zn239 1.996 . S
O244 C251 1.257 . S
C245 O240 1.254 . S
C245 O241 1.269 . S
C246 O247 1.249 . S
C246 O248 1.270 . S
O247 Zn239 1.943 . S
O247 C246 1.249 . S
O248 Zn238 2.067 . S
O248 C246 1.270 . S
C249 O242 1.262 1_556 S
C249 O250 1.232 . S
O250 C249 1.232 . S
C251 O243 1.260 . S
C251 O244 1.257 . S
Zn252 O255 2.031 . S
Zn252 O257 2.049 . S
Zn252 O262 2.067 . S
Zn253 O254 1.962 . S
Zn253 O256 1.986 . S
Zn253 O258 1.996 . S
Zn253 O261 1.943 . S
O254 Zn253 1.962 . S
O254 C259 1.254 . S
O255 Zn252 2.031 . S
O255 C259 1.269 . S
O256 Zn253 1.986 . S
O256 C263 1.262 1_554 S
O257 Zn252 2.049 . S
O257 C265 1.260 . S
O258 Zn253 1.996 . S
O258 C265 1.257 . S
C259 O254 1.254 . S
C259 O255 1.269 . S
C260 O261 1.249 . S
C260 O262 1.270 . S
O261 Zn253 1.943 . S
O261 C260 1.249 . S
O262 Zn252 2.067 . S
O262 C260 1.270 . S
C263 O256 1.262 1_556 S
C263 O264 1.232 . S
O264 C263 1.232 . S
C265 O257 1.260 . S
C265 O258 1.257 . S
Zn266 O269 2.031 . S
Zn266 O271 2.049 . S
Zn266 O276 2.067 . S
Zn267 O268 1.962 . S
Zn267 O270 1.986 . S
Zn267 O272 1.996 . S
Zn267 O275 1.943 . S
O268 Zn267 1.962 . S
O268 C273 1.254 . S
O269 Zn266 2.031 . S
O269 C273 1.269 . S
O270 Zn267 1.986 . S
O270 C277 1.262 1_554 S
O271 Zn266 2.049 . S
O271 C279 1.260 . S
O272 Zn267 1.996 . S
O272 C279 1.257 . S
C273 O268 1.254 . S
C273 O269 1.269 . S
C274 O275 1.249 . S
C274 O276 1.270 . S
O275 Zn267 1.943 . S
O275 C274 1.249 . S
O276 Zn266 2.067 . S
O276 C274 1.270 . S
C277 O270 1.262 1_556 S
C277 O278 1.232 . S
O278 C277 1.232 . S
C279 O271 1.260 . S
C279 O272 1.257 . S
Zn280 O283 2.031 . S
Zn280 O285 2.049 . S
Zn280 O290 2.067 . S
Zn281 O282 1.962 . S
Zn281 O284 1.986 . S
Zn281 O286 1.996 . S
Zn281 O289 1.943 . S
O282 Zn281 1.962 . S
O282 C287 1.254 . S
O283 Zn280 2.031 . S
O283 C287 1.269 . S
O284 Zn281 1.986 . S
O284 C291 1.262 1_554 S
O285 Zn280 2.049 . S
O285 C293 1.260 . S
O286 Zn281 1.996 . S
O286 C293 1.257 . S
C287 O282 1.254 . S
C287 O283 1.269 . S
C288 O289 1.249 . S
C288 O290 1.270 . S
O289 Zn281 1.943 . S
O289 C288 1.249 . S
O290 Zn280 2.067 . S
O290 C288 1.270 . S
C291 O284 1.262 1_556 S
C291 O292 1.232 . S
O292 C291 1.232 . S
C293 O285 1.260 . S
C293 O286 1.257 . S
Zn294 O297 2.031 . S
Zn294 O299 2.049 . S
Zn294 O304 2.067 . S
Zn295 O296 1.962 . S
Zn295 O298 1.986 . S
Zn295 O300 1.996 . S
Zn295 O303 1.943 . S
O296 Zn295 1.962 . S
O296 C301 1.254 . S
O297 Zn294 2.031 . S
O297 C301 1.269 . S
O298 Zn295 1.986 . S
O298 C305 1.262 . S
O299 Zn294 2.049 . S
O299 C307 1.260 . S
O300 Zn295 1.996 . S
O300 C307 1.257 . S
C301 O296 1.254 . S
C301 O297 1.269 . S
C302 O303 1.249 . S
C302 O304 1.270 . S
O303 Zn295 1.943 . S
O303 C302 1.249 . S
O304 Zn294 2.067 . S
O304 C302 1.270 . S
C305 O298 1.262 . S
C305 O306 1.232 . S
O306 C305 1.232 . S
C307 O299 1.260 . S
C307 O300 1.257 . S
Zn308 O311 2.031 . S
Zn308 O313 2.049 . S
Zn308 O318 2.067 . S
Zn309 O310 1.962 . S
Zn309 O312 1.986 . S
Zn309 O314 1.996 . S
Zn309 O317 1.943 . S
O310 Zn309 1.962 . S
O310 C315 1.254 . S
O311 Zn308 2.031 . S
O311 C315 1.269 . S
O312 Zn309 1.986 . S
O312 C319 1.262 . S
O313 Zn308 2.049 . S
O313 C321 1.260 . S
O314 Zn309 1.996 . S
O314 C321 1.257 . S
C315 O310 1.254 . S
C315 O311 1.269 . S
C316 O317 1.249 . S
C316 O318 1.270 . S
O317 Zn309 1.943 . S
O317 C316 1.249 . S
O318 Zn308 2.067 . S
O318 C316 1.270 . S
C319 O312 1.262 . S
C319 O320 1.232 . S
O320 C319 1.232 . S
C321 O313 1.260 . S
C321 O314 1.257 . S
Zn322 O325 2.031 . S
Zn322 O327 2.049 . S
Zn322 O332 2.067 . S
Zn323 O324 1.962 . S
Zn323 O326 1.986 . S
Zn323 O328 1.996 . S
Zn323 O331 1.943 . S
O324 Zn323 1.962 . S
O324 C329 1.254 . S
O325 Zn322 2.031 . S
O325 C329 1.269 . S
O326 Zn323 1.986 . S
O326 C333 1.262 . S
O327 Zn322 2.049 . S
O327 C335 1.260 . S
O328 Zn323 1.996 . S
O328 C335 1.257 . S
C329 O324 1.254 . S
C329 O325 1.269 . S
C330 O331 1.249 . S
C330 O332 1.270 . S
O331 Zn323 1.943 . S
O331 C330 1.249 . S
O332 Zn322 2.067 . S
O332 C330 1.270 . S
C333 O326 1.262 . S
C333 O334 1.232 . S
O334 C333 1.232 . S
C335 O327 1.260 . S
C335 O328 1.257 . S
Zn336 O339 2.031 . S
Zn336 O341 2.049 . S
Zn336 O346 2.067 . S
Zn337 O338 1.962 . S
Zn337 O340 1.986 . S
Zn337 O342 1.996 . S
Zn337 O345 1.943 . S
O338 Zn337 1.962 . S
O338 C343 1.254 . S
O339 Zn336 2.031 . S
O339 C343 1.269 . S
O340 Zn337 1.986 . S
O340 C347 1.262 1_556 S
O341 Zn336 2.049 . S
O341 C349 1.260 . S
O342 Zn337 1.996 . S
O342 C349 1.257 . S
C343 O338 1.254 . S
C343 O339 1.269 . S
C344 O345 1.249 . S
C344 O346 1.270 . S
O345 Zn337 1.943 . S
O345 C344 1.249 . S
O346 Zn336 2.067 . S
O346 C344 1.270 . S
C347 O340 1.262 1_554 S
C347 O348 1.232 . S
O348 C347 1.232 . S
C349 O341 1.260 . S
C349 O342 1.257 . S
Zn350 O353 2.031 . S
Zn350 O355 2.049 . S
Zn350 O360 2.067 . S
Zn351 O352 1.962 . S
Zn351 O354 1.986 . S
Zn351 O356 1.996 . S
Zn351 O359 1.943 . S
O352 Zn351 1.962 . S
O352 C357 1.254 . S
O353 Zn350 2.031 . S
O353 C357 1.269 . S
O354 Zn351 1.986 . S
O354 C361 1.262 1_556 S
O355 Zn350 2.049 . S
O355 C363 1.260 . S
O356 Zn351 1.996 . S
O356 C363 1.257 . S
C357 O352 1.254 . S
C357 O353 1.269 . S
C358 O359 1.249 . S
C358 O360 1.270 . S
O359 Zn351 1.943 . S
O359 C358 1.249 . S
O360 Zn350 2.067 . S
O360 C358 1.270 . S
C361 O354 1.262 1_554 S
C361 O362 1.232 . S
O362 C361 1.232 . S
C363 O355 1.260 . S
C363 O356 1.257 . S
Zn364 O367 2.031 . S
Zn364 O369 2.049 . S
Zn364 O374 2.067 . S
Zn365 O366 1.962 . S
Zn365 O368 1.986 . S
Zn365 O370 1.996 . S
Zn365 O373 1.943 . S
O366 Zn365 1.962 . S
O366 C371 1.254 . S
O367 Zn364 2.031 . S
O367 C371 1.269 . S
O368 Zn365 1.986 . S
O368 C375 1.262 1_556 S
O369 Zn364 2.049 . S
O369 C377 1.260 . S
O370 Zn365 1.996 . S
O370 C377 1.257 . S
C371 O366 1.254 . S
C371 O367 1.269 . S
C372 O373 1.249 . S
C372 O374 1.270 . S
O373 Zn365 1.943 . S
O373 C372 1.249 . S
O374 Zn364 2.067 . S
O374 C372 1.270 . S
C375 O368 1.262 1_554 S
C375 O376 1.232 . S
O376 C375 1.232 . S
C377 O369 1.260 . S
C377 O370 1.257 . S
Zn378 O381 2.031 . S
Zn378 O383 2.049 . S
Zn378 O388 2.067 . S
Zn379 O380 1.962 . S
Zn379 O382 1.986 . S
Zn379 O384 1.996 . S
Zn379 O387 1.943 . S
O380 Zn379 1.962 . S
O380 C385 1.254 . S
O381 Zn378 2.031 . S
O381 C385 1.269 . S
O382 Zn379 1.986 . S
O382 C389 1.262 . S
O383 Zn378 2.049 . S
O383 C391 1.260 . S
O384 Zn379 1.996 . S
O384 C391 1.257 . S
C385 O380 1.254 . S
C385 O381 1.269 . S
C386 O387 1.249 . S
C386 O388 1.270 . S
O387 Zn379 1.943 . S
O387 C386 1.249 . S
O388 Zn378 2.067 . S
O388 C386 1.270 . S
C389 O382 1.262 . S
C389 O390 1.232 . S
O390 C389 1.232 . S
C391 O383 1.260 . S
C391 O384 1.257 . S
Zn392 O395 2.031 . S
Zn392 O397 2.049 . S
Zn392 O402 2.067 . S
Zn393 O394 1.962 . S
Zn393 O396 1.986 . S
Zn393 O398 1.996 . S
Zn393 O401 1.943 . S
O394 Zn393 1.962 . S
O394 C399 1.254 . S
O395 Zn392 2.031 . S
O395 C399 1.269 . S
O396 Zn393 1.986 . S
O396 C403 1.262 . S
O397 Zn392 2.049 . S
O397 C405 1.260 . S
O398 Zn393 1.996 . S
O398 C405 1.257 . S
C399 O394 1.254 . S
C399 O395 1.269 . S
C400 O401 1.249 . S
C400 O402 1.270 . S
O401 Zn393 1.943 . S
O401 C400 1.249 . S
O402 Zn392 2.067 . S
O402 C400 1.270 . S
C403 O396 1.262 . S
C403 O404 1.232 . S
O404 C403 1.232 . S
C405 O397 1.260 . S
C405 O398 1.257 . S
Zn406 O409 2.031 . S
Zn406 O411 2.049 . S
Zn406 O416 2.067 . S
Zn407 O408 1.962 . S
Zn407 O410 1.986 . S
Zn407 O412 1.996 . S
Zn407 O415 1.943 . S
O408 Zn407 1.962 . S
O408 C413 1.254 . S
O409 Zn406 2.031 . S
O409 C413 1.269 . S
O410 Zn407 1.986 . S
O410 C417 1.262 . S
O411 Zn406 2.049 . S
O411 C419 1.260 . S
O412 Zn407 1.996 . S
O412 C419 1.257 . S
C413 O408 1.254 . S
C413 O409 1.269 . S
C414 O415 1.249 . S
C414 O416 1.270 . S
O415 Zn407 1.943 . S
O415 C414 1.249 . S
O416 Zn406 2.067 . S
O416 C414 1.270 . S
C417 O410 1.262 . S
C417 O418 1.232 . S
O418 C417 1.232 . S
C419 O411 1.260 . S
C419 O412 1.257 . S
Zn420 O423 2.031 . S
Zn420 O425 2.049 . S
Zn420 O430 2.067 . S
Zn421 O422 1.962 . S
Zn421 O424 1.986 . S
Zn421 O426 1.996 . S
Zn421 O429 1.943 . S
O422 Zn421 1.962 . S
O422 C427 1.254 . S
O423 Zn420 2.031 . S
O423 C427 1.269 . S
O424 Zn421 1.986 . S
O424 C431 1.262 . S
O425 Zn420 2.049 . S
O425 C433 1.260 . S
O426 Zn421 1.996 . S
O426 C433 1.257 . S
C427 O422 1.254 . S
C427 O423 1.269 . S
C428 O429 1.249 . S
C428 O430 1.270 . S
O429 Zn421 1.943 . S
O429 C428 1.249 . S
O430 Zn420 2.067 . S
O430 C428 1.270 . S
C431 O424 1.262 . S
C431 O432 1.232 . S
O432 C431 1.232 . S
C433 O425 1.260 . S
C433 O426 1.257 . S
Zn434 O437 2.031 . S
Zn434 O439 2.049 . S
Zn434 O444 2.067 . S
Zn435 O436 1.962 . S
Zn435 O438 1.986 . S
Zn435 O440 1.996 . S
Zn435 O443 1.943 . S
O436 Zn435 1.962 . S
O436 C441 1.254 . S
O437 Zn434 2.031 . S
O437 C441 1.269 . S
O438 Zn435 1.986 . S
O438 C445 1.262 . S
O439 Zn434 2.049 . S
O439 C447 1.260 . S
O440 Zn435 1.996 . S
O440 C447 1.257 . S
C441 O436 1.254 . S
C441 O437 1.269 . S
C442 O443 1.249 . S
C442 O444 1.270 . S
O443 Zn435 1.943 . S
O443 C442 1.249 . S
O444 Zn434 2.067 . S
O444 C442 1.270 . S
C445 O438 1.262 . S
C445 O446 1.232 . S
O446 C445 1.232 . S
C447 O439 1.260 . S
C447 O440 1.257 . S
Zn448 O451 2.031 . S
Zn448 O453 2.049 . S
Zn448 O458 2.067 . S
Zn449 O450 1.962 . S
Zn449 O452 1.986 . S
Zn449 O454 1.996 . S
Zn449 O457 1.943 . S
O450 Zn449 1.962 . S
O450 C455 1.254 . S
O451 Zn448 2.031 . S
O451 C455 1.269 . S
O452 Zn449 1.986 . S
O452 C459 1.262 . S
O453 Zn448 2.049 . S
O453 C461 1.260 . S
O454 Zn449 1.996 . S
O454 C461 1.257 . S
C455 O450 1.254 . S
C455 O451 1.269 . S
C456 O457 1.249 . S
C456 O458 1.270 . S
O457 Zn449 1.943 . S
O457 C456 1.249 . S
O458 Zn448 2.067 . S
O458 C456 1.270 . S
C459 O452 1.262 . S
C459 O460 1.232 . S
O460 C459 1.232 . S
C461 O453 1.260 . S
C461 O454 1.257 . S
Zn462 O465 2.031 . S
Zn462 O467 2.049 . S
Zn462 O472 2.067 . S
Zn463 O464 1.962 . S
Zn463 O466 1.986 . S
Zn463 O468 1.996 . S
Zn463 O471 1.943 . S
O464 Zn463 1.962 . S
O464 C469 1.254 . S
O465 Zn462 2.031 . S
O465 C469 1.269 . S
O466 Zn463 1.986 . S
O466 C473 1.262 1_556 S
O467 Zn462 2.049 . S
O467 C475 1.260 . S
O468 Zn463 1.996 . S
O468 C475 1.257 . S
C469 O464 1.254 . S
C469 O465 1.269 . S
C470 O471 1.249 . S
C470 O472 1.270 . S
O471 Zn463 1.943 . S
O471 C470 1.249 . S
O472 Zn462 2.067 . S
O472 C470 1.270 . S
C473 O466 1.262 1_554 S
C473 O474 1.232 . S
O474 C473 1.232 . S
C475 O467 1.260 . S
C475 O468 1.257 . S
Zn476 O479 2.031 . S
Zn476 O481 2.049 . S
Zn476 O486 2.067 . S
Zn477 O478 1.962 . S
Zn477 O480 1.986 . S
Zn477 O482 1.996 . S
Zn477 O485 1.943 . S
O478 Zn477 1.962 . S
O478 C483 1.254 . S
O479 Zn476 2.031 . S
O479 C483 1.269 . S
O480 Zn477 1.986 . S
O480 C487 1.262 1_556 S
O481 Zn476 2.049 . S
O481 C489 1.260 . S
O482 Zn477 1.996 . S
O482 C489 1.257 . S
C483 O478 1.254 . S
C483 O479 1.269 . S
C484 O485 1.249 . S
C484 O486 1.270 . S
O485 Zn477 1.943 . S
O485 C484 1.249 . S
O486 Zn476 2.067 . S
O486 C484 1.270 . S
C487 O480 1.262 1_554 S
C487 O488 1.232 . S
O488 C487 1.232 . S
C489 O481 1.260 . S
C489 O482 1.257 . S
Zn490 O493 2.031 . S
Zn490 O495 2.049 . S
Zn490 O500 2.067 . S
Zn491 O492 1.962 . S
Zn491 O494 1.986 . S
Zn491 O496 1.996 . S
Zn491 O499 1.943 . S
O492 Zn491 1.962 . S
O492 C497 1.254 . S
O493 Zn490 2.031 . S
O493 C497 1.269 . S
O494 Zn491 1.986 . S
O494 C501 1.262 1_556 S
O495 Zn490 2.049 . S
O495 C503 1.260 . S
O496 Zn491 1.996 . S
O496 C503 1.257 . S
C497 O492 1.254 . S
C497 O493 1.269 . S
C498 O499 1.249 . S
C498 O500 1.270 . S
O499 Zn491 1.943 . S
O499 C498 1.249 . S
O500 Zn490 2.067 . S
O500 C498 1.270 . S
C501 O494 1.262 1_554 S
C501 O502 1.232 . S
O502 C501 1.232 . S
C503 O495 1.260 . S
C503 O496 1.257 . S
C504 C505 1.387 . S
C504 H508 0.950 . S
C504 C513 1.390 1_565 S
C505 C504 1.387 . S
C505 C507 1.387 . S
H506 C513 0.950 . S
C507 C505 1.387 . S
C507 C509 1.390 1_565 S
C507 H511 0.950 . S
H508 C504 0.950 . S
C509 C507 1.390 1_545 S
C509 C510 1.387 . S
C509 H512 0.950 . S
C510 C509 1.387 . S
C510 C513 1.387 . S
H511 C507 0.950 . S
H512 C509 0.950 . S
C513 C504 1.390 1_545 S
C513 H506 0.950 . S
C513 C510 1.387 . S
C514 C515 1.387 1_655 S
C514 H518 0.950 . S
C514 C523 1.390 . S
C515 C514 1.387 1_455 S
C515 C517 1.387 . S
H516 C523 0.950 . S
C517 C515 1.387 . S
C517 C519 1.390 . S
C517 H521 0.950 . S
H518 C514 0.950 . S
C519 C517 1.390 . S
C519 C520 1.387 1_455 S
C519 H522 0.950 . S
C520 C519 1.387 1_655 S
C520 C523 1.387 . S
H521 C517 0.950 . S
H522 C519 0.950 . S
C523 C514 1.390 . S
C523 H516 0.950 . S
C523 C520 1.387 . S
C524 C525 1.387 . S
C524 H528 0.950 . S
C524 C533 1.390 . S
C525 C524 1.387 . S
C525 C527 1.387 . S
H526 C533 0.950 . S
C527 C525 1.387 . S
C527 C529 1.390 . S
C527 H531 0.950 . S
H528 C524 0.950 . S
C529 C527 1.390 . S
C529 C530 1.387 . S
C529 H532 0.950 . S
C530 C529 1.387 . S
C530 C533 1.387 . S
H531 C527 0.950 . S
H532 C529 0.950 . S
C533 C524 1.390 . S
C533 H526 0.950 . S
C533 C530 1.387 . S
C534 C535 1.387 . S
C534 H538 0.950 . S
C534 C543 1.390 1_565 S
C535 C534 1.387 . S
C535 C537 1.387 . S
H536 C543 0.950 . S
C537 C535 1.387 . S
C537 C539 1.390 1_565 S
C537 H541 0.950 . S
H538 C534 0.950 . S
C539 C537 1.390 1_545 S
C539 C540 1.387 . S
C539 H542 0.950 . S
C540 C539 1.387 . S
C540 C543 1.387 . S
H541 C537 0.950 . S
H542 C539 0.950 . S
C543 C534 1.390 1_545 S
C543 H536 0.950 . S
C543 C540 1.387 . S
C544 C545 1.387 . S
C544 H548 0.950 . S
C544 C553 1.362 1_455 S
C545 C544 1.387 . S
C545 C547 1.438 . S
H546 C553 0.930 . S
C547 C545 1.438 . S
C547 C549 1.362 1_455 S
C547 H551 0.930 . S
H548 C544 0.950 . S
C549 C547 1.362 1_655 S
C549 C550 1.387 . S
C549 H552 0.950 . S
C550 C549 1.387 . S
C550 C553 1.438 . S
H551 C547 0.930 . S
H552 C549 0.950 . S
C553 C544 1.362 1_655 S
C553 H546 0.930 . S
C553 C550 1.438 . S
C554 C555 1.387 . S
C554 H558 0.950 . S
C554 C563 1.390 . S
C555 C554 1.387 . S
C555 C557 1.387 . S
H556 C563 0.950 . S
C557 C555 1.387 . S
C557 C559 1.390 . S
C557 H561 0.950 . S
H558 C554 0.950 . S
C559 C557 1.390 . S
C559 C560 1.387 . S
C559 H562 0.950 . S
C560 C559 1.387 . S
C560 C563 1.387 . S
H561 C557 0.950 . S
H562 C559 0.950 . S
C563 C554 1.390 . S
C563 H556 0.950 . S
C563 C560 1.387 . S
C564 C565 1.387 . S
C564 H568 0.950 . S
C564 C573 1.390 . S
C565 C564 1.387 . S
C565 C567 1.387 . S
H566 C573 0.950 . S
C567 C565 1.387 . S
C567 C569 1.390 . S
C567 H571 0.950 . S
H568 C564 0.950 . S
C569 C567 1.390 . S
C569 C570 1.387 . S
C569 H572 0.950 . S
C570 C569 1.387 . S
C570 C573 1.387 . S
H571 C567 0.950 . S
H572 C569 0.950 . S
C573 C564 1.390 . S
C573 H566 0.950 . S
C573 C570 1.387 . S
C574 C575 1.387 . S
C574 H578 0.950 . S
C574 C583 1.390 . S
C575 C574 1.387 . S
C575 C577 1.387 . S
H576 C583 0.950 . S
C577 C575 1.387 . S
C577 C579 1.390 . S
C577 H581 0.950 . S
H578 C574 0.950 . S
C579 C577 1.390 . S
C579 C580 1.387 . S
C579 H582 0.950 . S
C580 C579 1.387 . S
C580 C583 1.387 . S
H581 C577 0.950 . S
H582 C579 0.950 . S
C583 C574 1.390 . S
C583 H576 0.950 . S
C583 C580 1.387 . S
C584 C585 1.387 . S
C584 H588 0.950 . S
C584 C593 1.390 . S
C585 C584 1.387 . S
C585 C587 1.387 . S
H586 C593 0.950 . S
C587 C585 1.387 . S
C587 C589 1.390 . S
C587 H591 0.950 . S
H588 C584 0.950 . S
C589 C587 1.390 . S
C589 C590 1.387 . S
C589 H592 0.950 . S
C590 C589 1.387 . S
C590 C593 1.387 . S
H591 C587 0.950 . S
H592 C589 0.950 . S
C593 C584 1.390 . S
C593 H586 0.950 . S
C593 C590 1.387 . S
C594 C595 1.387 . S
C594 H598 0.950 . S
C594 C603 1.390 . S
C595 C594 1.387 . S
C595 C597 1.387 . S
H596 C603 0.950 . S
C597 C595 1.387 . S
C597 C599 1.390 . S
C597 H601 0.950 . S
H598 C594 0.950 . S
C599 C597 1.390 . S
C599 C600 1.387 . S
C599 H602 0.950 . S
C600 C599 1.387 . S
C600 C603 1.387 . S
H601 C597 0.950 . S
H602 C599 0.950 . S
C603 C594 1.390 . S
C603 H596 0.950 . S
C603 C600 1.387 . S
C604 C605 1.387 . S
C604 H608 0.950 . S
C604 C613 1.390 . S
C605 C604 1.387 . S
C605 C607 1.387 . S
H606 C613 0.950 . S
C607 C605 1.387 . S
C607 C609 1.390 . S
C607 H611 0.950 . S
H608 C604 0.950 . S
C609 C607 1.390 . S
C609 C610 1.387 . S
C609 H612 0.950 . S
C610 C609 1.387 . S
C610 C613 1.387 . S
H611 C607 0.950 . S
H612 C609 0.950 . S
C613 C604 1.390 . S
C613 H606 0.950 . S
C613 C610 1.387 . S
C614 C615 1.387 . S
C614 H618 0.950 . S
C614 C623 1.390 . S
C615 C614 1.387 . S
C615 C617 1.387 . S
H616 C623 0.950 . S
C617 C615 1.387 . S
C617 C619 1.390 . S
C617 H621 0.950 . S
H618 C614 0.950 . S
C619 C617 1.390 . S
C619 C620 1.387 . S
C619 H622 0.950 . S
C620 C619 1.387 . S
C620 C623 1.387 . S
H621 C617 0.950 . S
H622 C619 0.950 . S
C623 C614 1.390 . S
C623 H616 0.950 . S
C623 C620 1.387 . S
C624 C625 1.387 . S
C624 H628 0.950 . S
C624 C633 1.390 . S
C625 C624 1.387 . S
C625 C627 1.387 . S
H626 C633 0.950 . S
C627 C625 1.387 . S
C627 C629 1.390 . S
C627 H631 0.950 . S
H628 C624 0.950 . S
C629 C627 1.390 . S
C629 C630 1.387 . S
C629 H632 0.950 . S
C630 C629 1.387 . S
C630 C633 1.387 . S
H631 C627 0.950 . S
H632 C629 0.950 . S
C633 C624 1.390 . S
C633 H626 0.950 . S
C633 C630 1.387 . S
C634 C635 1.387 . S
C634 H638 0.950 . S
C634 C643 1.390 . S
C635 C634 1.387 . S
C635 C637 1.387 . S
H636 C643 0.950 . S
C637 C635 1.387 . S
C637 C639 1.390 . S
C637 H641 0.950 . S
H638 C634 0.950 . S
C639 C637 1.390 . S
C639 C640 1.387 . S
C639 H642 0.950 . S
C640 C639 1.387 . S
C640 C643 1.387 . S
H641 C637 0.950 . S
H642 C639 0.950 . S
C643 C634 1.390 . S
C643 H636 0.950 . S
C643 C640 1.387 . S
C644 C645 1.387 . S
C644 H648 0.950 . S
C644 C653 1.390 . S
C645 C644 1.387 . S
C645 C647 1.387 . S
H646 C653 0.950 . S
C647 C645 1.387 . S
C647 C649 1.390 . S
C647 H651 0.950 . S
H648 C644 0.950 . S
C649 C647 1.390 . S
C649 C650 1.387 . S
C649 H652 0.950 . S
C650 C649 1.387 . S
C650 C653 1.387 . S
H651 C647 0.950 . S
H652 C649 0.950 . S
C653 C644 1.390 . S
C653 H646 0.950 . S
C653 C650 1.387 . S
C654 C655 1.387 . S
C654 H658 0.950 . S
C654 C663 1.390 . S
C655 C654 1.387 . S
C655 C657 1.387 . S
H656 C663 0.950 . S
C657 C655 1.387 . S
C657 C659 1.390 . S
C657 H661 0.950 . S
H658 C654 0.950 . S
C659 C657 1.390 . S
C659 C660 1.387 . S
C659 H662 0.950 . S
C660 C659 1.387 . S
C660 C663 1.387 . S
H661 C657 0.950 . S
H662 C659 0.950 . S
C663 C654 1.390 . S
C663 H656 0.950 . S
C663 C660 1.387 . S
C664 C665 1.387 . S
C664 H668 0.950 . S
C664 C673 1.390 . S
C665 C664 1.387 . S
C665 C667 1.387 . S
H666 C673 0.950 . S
C667 C665 1.387 . S
C667 C669 1.390 . S
C667 H671 0.950 . S
H668 C664 0.950 . S
C669 C667 1.390 . S
C669 C670 1.387 . S
C669 H672 0.950 . S
C670 C669 1.387 . S
C670 C673 1.387 . S
H671 C667 0.950 . S
H672 C669 0.950 . S
C673 C664 1.390 . S
C673 H666 0.950 . S
C673 C670 1.387 . S
C674 C675 1.387 . S
C674 H678 0.950 . S
C674 C683 1.390 . S
C675 C674 1.387 . S
C675 C677 1.387 . S
H676 C683 0.950 . S
C677 C675 1.387 . S
C677 C679 1.390 . S
C677 H681 0.950 . S
H678 C674 0.950 . S
C679 C677 1.390 . S
C679 C680 1.387 . S
C679 H682 0.950 . S
C680 C679 1.387 . S
C680 C683 1.387 . S
H681 C677 0.950 . S
H682 C679 0.950 . S
C683 C674 1.390 . S
C683 H676 0.950 . S
C683 C680 1.387 . S
C684 C685 1.387 . S
C684 H688 0.950 . S
C684 C693 1.390 1_566 S
C685 C684 1.387 . S
C685 C687 1.387 . S
H686 C693 0.950 . S
C687 C685 1.387 . S
C687 C689 1.390 1_566 S
C687 H691 0.950 . S
H688 C684 0.950 . S
C689 C687 1.390 1_544 S
C689 C690 1.387 . S
C689 H692 0.950 . S
C690 C689 1.387 . S
C690 C693 1.387 . S
H691 C687 0.950 . S
H692 C689 0.950 . S
C693 C684 1.390 1_544 S
C693 H686 0.950 . S
C693 C690 1.387 . S
C694 C695 1.387 . S
C694 H698 0.950 . S
C694 C703 1.390 1_654 S
C695 C694 1.387 . S
C695 C697 1.387 . S
H696 C703 0.950 . S
C697 C695 1.387 . S
C697 C699 1.390 1_654 S
C697 H701 0.950 . S
H698 C694 0.950 . S
C699 C697 1.390 1_456 S
C699 C700 1.387 . S
C699 H702 0.950 . S
C700 C699 1.387 . S
C700 C703 1.387 . S
H701 C697 0.950 . S
H702 C699 0.950 . S
C703 C694 1.390 1_456 S
C703 H696 0.950 . S
C703 C700 1.387 . S
C704 C705 1.387 . S
C704 H708 0.950 . S
C704 C713 1.390 . S
C705 C704 1.387 . S
C705 C707 1.387 1_556 S
H706 C713 0.950 . S
C707 C705 1.387 1_554 S
C707 C709 1.390 . S
C707 H711 0.950 . S
H708 C704 0.950 . S
C709 C707 1.390 . S
C709 C710 1.387 . S
C709 H712 0.950 . S
C710 C709 1.387 . S
C710 C713 1.387 1_554 S
H711 C707 0.950 . S
H712 C709 0.950 . S
C713 C704 1.390 . S
C713 H706 0.950 . S
C713 C710 1.387 1_556 S
C714 C715 1.387 . S
C714 H718 0.950 . S
C714 C723 1.390 1_566 S
C715 C714 1.387 . S
C715 C717 1.387 . S
H716 C723 0.950 . S
C717 C715 1.387 . S
C717 C719 1.390 1_566 S
C717 H721 0.950 . S
H718 C714 0.950 . S
C719 C717 1.390 1_544 S
C719 C720 1.387 . S
C719 H722 0.950 . S
C720 C719 1.387 . S
C720 C723 1.387 . S
H721 C717 0.950 . S
H722 C719 0.950 . S
C723 C714 1.390 1_544 S
C723 H716 0.950 . S
C723 C720 1.387 . S
C724 C725 1.387 1_655 S
C724 H728 0.950 . S
C724 C733 1.390 . S
C725 C724 1.387 1_455 S
C725 C727 1.387 1_556 S
H726 C733 0.950 . S
C727 C725 1.387 1_554 S
C727 C729 1.390 . S
C727 H731 0.950 . S
H728 C724 0.950 . S
C729 C727 1.390 . S
C729 C730 1.387 1_455 S
C729 H732 0.950 . S
C730 C729 1.387 1_655 S
C730 C733 1.387 1_554 S
H731 C727 0.950 . S
H732 C729 0.950 . S
C733 C724 1.390 . S
C733 H726 0.950 . S
C733 C730 1.387 1_556 S
C734 C735 1.387 . S
C734 H738 0.950 . S
C734 C743 1.390 1_554 S
C735 C734 1.387 . S
C735 C737 1.387 . S
H736 C743 0.950 . S
C737 C735 1.387 . S
C737 C739 1.390 1_554 S
C737 H741 0.950 . S
H738 C734 0.950 . S
C739 C737 1.390 1_556 S
C739 C740 1.387 . S
C739 H742 0.950 . S
C740 C739 1.387 . S
C740 C743 1.387 . S
H741 C737 0.950 . S
H742 C739 0.950 . S
C743 C734 1.390 1_556 S
C743 H736 0.950 . S
C743 C740 1.387 . S
C744 C745 1.387 . S
C744 H748 0.950 . S
C744 C753 1.390 . S
C745 C744 1.387 . S
C745 C747 1.387 . S
H746 C753 0.950 . S
C747 C745 1.387 . S
C747 C749 1.390 . S
C747 H751 0.950 . S
H748 C744 0.950 . S
C749 C747 1.390 . S
C749 C750 1.387 . S
C749 H752 0.950 . S
C750 C749 1.387 . S
C750 C753 1.387 . S
H751 C747 0.950 . S
H752 C749 0.950 . S
C753 C744 1.390 . S
C753 H746 0.950 . S
C753 C750 1.387 . S
C754 C755 1.387 . S
C754 H758 0.950 . S
C754 C763 1.390 . S
C755 C754 1.387 . S
C755 C757 1.387 . S
H756 C763 0.950 . S
C757 C755 1.387 . S
C757 C759 1.390 . S
C757 H761 0.950 . S
H758 C754 0.950 . S
C759 C757 1.390 . S
C759 C760 1.387 . S
C759 H762 0.950 . S
C760 C759 1.387 . S
C760 C763 1.387 . S
H761 C757 0.950 . S
H762 C759 0.950 . S
C763 C754 1.390 . S
C763 H756 0.950 . S
C763 C760 1.387 . S
C764 C765 1.387 . S
C764 H768 0.950 . S
C764 C773 1.390 . S
C765 C764 1.387 . S
C765 C767 1.387 . S
H766 C773 0.950 . S
C767 C765 1.387 . S
C767 C769 1.390 . S
C767 H771 0.950 . S
H768 C764 0.950 . S
C769 C767 1.390 . S
C769 C770 1.387 . S
C769 H772 0.950 . S
C770 C769 1.387 . S
C770 C773 1.387 . S
H771 C767 0.950 . S
H772 C769 0.950 . S
C773 C764 1.390 . S
C773 H766 0.950 . S
C773 C770 1.387 . S
C774 C775 1.387 . S
C774 H778 0.950 . S
C774 C783 1.390 . S
C775 C774 1.387 . S
C775 C777 1.387 . S
H776 C783 0.950 . S
C777 C775 1.387 . S
C777 C779 1.390 . S
C777 H781 0.950 . S
H778 C774 0.950 . S
C779 C777 1.390 . S
C779 C780 1.387 . S
C779 H782 0.950 . S
C780 C779 1.387 . S
C780 C783 1.387 . S
H781 C777 0.950 . S
H782 C779 0.950 . S
C783 C774 1.390 . S
C783 H776 0.950 . S
C783 C780 1.387 . S
C784 C785 1.387 . S
C784 H788 0.950 . S
C784 C793 1.390 . S
C785 C784 1.387 . S
C785 C787 1.387 . S
H786 C793 0.950 . S
C787 C785 1.387 . S
C787 C789 1.390 . S
C787 H791 0.950 . S
H788 C784 0.950 . S
C789 C787 1.390 . S
C789 C790 1.387 . S
C789 H792 0.950 . S
C790 C789 1.387 . S
C790 C793 1.387 . S
H791 C787 0.950 . S
H792 C789 0.950 . S
C793 C784 1.390 . S
C793 H786 0.950 . S
C793 C790 1.387 . S
C794 C795 1.387 . S
C794 H798 0.950 . S
C794 C803 1.390 . S
C795 C794 1.387 . S
C795 C797 1.387 . S
H796 C803 0.950 . S
C797 C795 1.387 . S
C797 C799 1.390 . S
C797 H801 0.950 . S
H798 C794 0.950 . S
C799 C797 1.390 . S
C799 C800 1.387 . S
C799 H802 0.950 . S
C800 C799 1.387 . S
C800 C803 1.387 . S
H801 C797 0.950 . S
H802 C799 0.950 . S
C803 C794 1.390 . S
C803 H796 0.950 . S
C803 C800 1.387 . S
C804 C805 1.387 . S
C804 H808 0.950 . S
C804 C813 1.390 . S
C805 C804 1.387 . S
C805 C807 1.387 . S
H806 C813 0.950 . S
C807 C805 1.387 . S
C807 C809 1.390 . S
C807 H811 0.950 . S
H808 C804 0.950 . S
C809 C807 1.390 . S
C809 C810 1.387 . S
C809 H812 0.950 . S
C810 C809 1.387 . S
C810 C813 1.387 . S
H811 C807 0.950 . S
H812 C809 0.950 . S
C813 C804 1.390 . S
C813 H806 0.950 . S
C813 C810 1.387 . S
C814 C815 1.387 . S
C814 H818 0.950 . S
C814 C823 1.390 . S
C815 C814 1.387 . S
C815 C817 1.387 . S
H816 C823 0.950 . S
C817 C815 1.387 . S
C817 C819 1.390 . S
C817 H821 0.950 . S
H818 C814 0.950 . S
C819 C817 1.390 . S
C819 C820 1.387 . S
C819 H822 0.950 . S
C820 C819 1.387 . S
C820 C823 1.387 . S
H821 C817 0.950 . S
H822 C819 0.950 . S
C823 C814 1.390 . S
C823 H816 0.950 . S
C823 C820 1.387 . S
C824 C825 1.387 . S
C824 H828 0.950 . S
C824 C833 1.390 . S
C825 C824 1.387 . S
C825 C827 1.387 . S
H826 C833 0.950 . S
C827 C825 1.387 . S
C827 C829 1.390 . S
C827 H831 0.950 . S
H828 C824 0.950 . S
C829 C827 1.390 . S
C829 C830 1.387 . S
C829 H832 0.950 . S
C830 C829 1.387 . S
C830 C833 1.387 . S
H831 C827 0.950 . S
H832 C829 0.950 . S
C833 C824 1.390 . S
C833 H826 0.950 . S
C833 C830 1.387 . S
C834 C835 1.387 . S
C834 H838 0.950 . S
C834 C843 1.390 . S
C835 C834 1.387 . S
C835 C837 1.387 . S
H836 C843 0.950 . S
C837 C835 1.387 . S
C837 C839 1.390 . S
C837 H841 0.950 . S
H838 C834 0.950 . S
C839 C837 1.390 . S
C839 C840 1.387 . S
C839 H842 0.950 . S
C840 C839 1.387 . S
C840 C843 1.387 . S
H841 C837 0.950 . S
H842 C839 0.950 . S
C843 C834 1.390 . S
C843 H836 0.950 . S
C843 C840 1.387 . S
C844 C845 1.387 . S
C844 H848 0.950 . S
C844 C853 1.390 . S
C845 C844 1.387 . S
C845 C847 1.387 . S
H846 C853 0.950 . S
C847 C845 1.387 . S
C847 C849 1.390 . S
C847 H851 0.950 . S
H848 C844 0.950 . S
C849 C847 1.390 . S
C849 C850 1.387 . S
C849 H852 0.950 . S
C850 C849 1.387 . S
C850 C853 1.387 . S
H851 C847 0.950 . S
H852 C849 0.950 . S
C853 C844 1.390 . S
C853 H846 0.950 . S
C853 C850 1.387 . S
C854 C855 1.387 . S
C854 H858 0.950 . S
C854 C863 1.390 . S
C855 C854 1.387 . S
C855 C857 1.387 . S
H856 C863 0.950 . S
C857 C855 1.387 . S
C857 C859 1.390 . S
C857 H861 0.950 . S
H858 C854 0.950 . S
C859 C857 1.390 . S
C859 C860 1.387 . S
C859 H862 0.950 . S
C860 C859 1.387 . S
C860 C863 1.387 . S
H861 C857 0.950 . S
H862 C859 0.950 . S
C863 C854 1.390 . S
C863 H856 0.950 . S
C863 C860 1.387 . S
C864 C865 1.387 . S
C864 H868 0.950 . S
C864 C873 1.390 . S
C865 C864 1.387 . S
C865 C867 1.387 . S
H866 C873 0.950 . S
C867 C865 1.387 . S
C867 C869 1.390 . S
C867 H871 0.950 . S
H868 C864 0.950 . S
C869 C867 1.390 . S
C869 C870 1.387 . S
C869 H872 0.950 . S
C870 C869 1.387 . S
C870 C873 1.387 . S
H871 C867 0.950 . S
H872 C869 0.950 . S
C873 C864 1.390 . S
C873 H866 0.950 . S
C873 C870 1.387 . S
C874 C875 1.387 . S
C874 H878 0.950 . S
C874 C883 1.390 . S
C875 C874 1.387 . S
C875 C877 1.387 . S
H876 C883 0.950 . S
C877 C875 1.387 . S
C877 C879 1.390 . S
C877 H881 0.950 . S
H878 C874 0.950 . S
C879 C877 1.390 . S
C879 C880 1.387 . S
C879 H882 0.950 . S
C880 C879 1.387 . S
C880 C883 1.387 . S
H881 C877 0.950 . S
H882 C879 0.950 . S
C883 C874 1.390 . S
C883 H876 0.950 . S
C883 C880 1.387 . S
C884 C885 1.387 . S
C884 H888 0.950 . S
C884 C893 1.390 . S
C885 C884 1.387 . S
C885 C887 1.387 . S
H886 C893 0.950 . S
C887 C885 1.387 . S
C887 C889 1.390 . S
C887 H891 0.950 . S
H888 C884 0.950 . S
C889 C887 1.390 . S
C889 C890 1.387 . S
C889 H892 0.950 . S
C890 C889 1.387 . S
C890 C893 1.387 . S
H891 C887 0.950 . S
H892 C889 0.950 . S
C893 C884 1.390 . S
C893 H886 0.950 . S
C893 C890 1.387 . S
C894 C895 1.387 . S
C894 H898 0.950 . S
C894 C903 1.390 . S
C895 C894 1.387 . S
C895 C897 1.387 . S
H896 C903 0.950 . S
C897 C895 1.387 . S
C897 C899 1.390 . S
C897 H901 0.950 . S
H898 C894 0.950 . S
C899 C897 1.390 . S
C899 C900 1.387 . S
C899 H902 0.950 . S
C900 C899 1.387 . S
C900 C903 1.387 . S
H901 C897 0.950 . S
H902 C899 0.950 . S
C903 C894 1.390 . S
C903 H896 0.950 . S
C903 C900 1.387 . S
C904 C905 1.387 . S
C904 H908 0.950 . S
C904 C913 1.390 . S
C905 C904 1.387 . S
C905 C907 1.387 . S
H906 C913 0.950 . S
C907 C905 1.387 . S
C907 C909 1.390 . S
C907 H911 0.950 . S
H908 C904 0.950 . S
C909 C907 1.390 . S
C909 C910 1.387 . S
C909 H912 0.950 . S
C910 C909 1.387 . S
C910 C913 1.387 . S
H911 C907 0.950 . S
H912 C909 0.950 . S
C913 C904 1.390 . S
C913 H906 0.950 . S
C913 C910 1.387 . S
C914 C915 1.387 . S
C914 H918 0.950 . S
C914 C923 1.390 . S
C915 C914 1.387 . S
C915 C917 1.387 . S
H916 C923 0.950 . S
C917 C915 1.387 . S
C917 C919 1.390 . S
C917 H921 0.950 . S
H918 C914 0.950 . S
C919 C917 1.390 . S
C919 C920 1.387 . S
C919 H922 0.950 . S
C920 C919 1.387 . S
C920 C923 1.387 . S
H921 C917 0.950 . S
H922 C919 0.950 . S
C923 C914 1.390 . S
C923 H916 0.950 . S
C923 C920 1.387 . S
C924 C925 1.387 . S
C924 H928 0.950 . S
C924 C933 1.390 . S
C925 C924 1.387 . S
C925 C927 1.387 . S
H926 C933 0.950 . S
C927 C925 1.387 . S
C927 C929 1.390 . S
C927 H931 0.950 . S
H928 C924 0.950 . S
C929 C927 1.390 . S
C929 C930 1.387 . S
C929 H932 0.950 . S
C930 C929 1.387 . S
C930 C933 1.387 . S
H931 C927 0.950 . S
H932 C929 0.950 . S
C933 C924 1.390 . S
C933 H926 0.950 . S
C933 C930 1.387 . S
C934 C935 1.387 . S
C934 H938 0.950 . S
C934 C943 1.390 . S
C935 C934 1.387 . S
C935 C937 1.387 . S
H936 C943 0.950 . S
C937 C935 1.387 . S
C937 C939 1.390 . S
C937 H941 0.950 . S
H938 C934 0.950 . S
C939 C937 1.390 . S
C939 C940 1.387 . S
C939 H942 0.950 . S
C940 C939 1.387 . S
C940 C943 1.387 . S
H941 C937 0.950 . S
H942 C939 0.950 . S
C943 C934 1.390 . S
C943 H936 0.950 . S
C943 C940 1.387 . S
C944 C945 1.387 . S
C944 H948 0.950 . S
C944 C953 1.390 . S
C945 C944 1.387 . S
C945 C947 1.387 . S
H946 C953 0.950 . S
C947 C945 1.387 . S
C947 C949 1.390 . S
C947 H951 0.950 . S
H948 C944 0.950 . S
C949 C947 1.390 . S
C949 C950 1.387 . S
C949 H952 0.950 . S
C950 C949 1.387 . S
C950 C953 1.387 . S
H951 C947 0.950 . S
H952 C949 0.950 . S
C953 C944 1.390 . S
C953 H946 0.950 . S
C953 C950 1.387 . S
C954 C955 1.387 . S
C954 H958 0.950 . S
C954 C963 1.390 . S
C955 C954 1.387 . S
C955 C957 1.387 . S
H956 C963 0.950 . S
C957 C955 1.387 . S
C957 C959 1.390 . S
C957 H961 0.950 . S
H958 C954 0.950 . S
C959 C957 1.390 . S
C959 C960 1.387 . S
C959 H962 0.950 . S
C960 C959 1.387 . S
C960 C963 1.387 . S
H961 C957 0.950 . S
H962 C959 0.950 . S
C963 C954 1.390 . S
C963 H956 0.950 . S
C963 C960 1.387 . S
C964 C965 1.387 . S
C964 H968 0.950 . S
C964 C973 1.390 . S
C965 C964 1.387 . S
C965 C967 1.387 . S
H966 C973 0.950 . S
C967 C965 1.387 . S
C967 C969 1.390 . S
C967 H971 0.950 . S
H968 C964 0.950 . S
C969 C967 1.390 . S
C969 C970 1.387 . S
C969 H972 0.950 . S
C970 C969 1.387 . S
C970 C973 1.387 . S
H971 C967 0.950 . S
H972 C969 0.950 . S
C973 C964 1.390 . S
C973 H966 0.950 . S
C973 C970 1.387 . S
C974 C975 1.387 . S
C974 H978 0.950 . S
C974 C983 1.390 . S
C975 C974 1.387 . S
C975 C977 1.387 . S
H976 C983 0.950 . S
C977 C975 1.387 . S
C977 C979 1.390 . S
C977 H981 0.950 . S
H978 C974 0.950 . S
C979 C977 1.390 . S
C979 C980 1.387 . S
C979 H982 0.950 . S
C980 C979 1.387 . S
C980 C983 1.387 . S
H981 C977 0.950 . S
H982 C979 0.950 . S
C983 C974 1.390 . S
C983 H976 0.950 . S
C983 C980 1.387 . S
C984 C985 1.387 . S
C984 H988 0.950 . S
C984 C993 1.390 1_455 S
C985 C984 1.387 . S
C985 C987 1.387 . S
H986 C993 0.950 . S
C987 C985 1.387 . S
C987 C989 1.390 1_455 S
C987 H991 0.950 . S
H988 C984 0.950 . S
C989 C987 1.390 1_655 S
C989 C990 1.387 . S
C989 H992 0.950 . S
C990 C989 1.387 . S
C990 C993 1.387 . S
H991 C987 0.950 . S
H992 C989 0.950 . S
C993 C984 1.390 1_655 S
C993 H986 0.950 . S
C993 C990 1.387 . S
C994 C995 1.387 . S
C994 H998 0.950 . S
C994 C1003 1.390 . S
C995 C994 1.387 . S
C995 C997 1.387 . S
H996 C1003 0.950 . S
C997 C995 1.387 . S
C997 C999 1.390 . S
C997 H1001 0.950 . S
H998 C994 0.950 . S
C999 C997 1.390 . S
C999 C1000 1.387 . S
C999 H1002 0.950 . S
C1000 C999 1.387 . S
C1000 C1003 1.387 . S
H1001 C997 0.950 . S
H1002 C999 0.950 . S
C1003 C994 1.390 . S
C1003 H996 0.950 . S
C1003 C1000 1.387 . S
C1004 C1005 1.387 . S
C1004 H1008 0.950 . S
C1004 C1013 1.390 1_545 S
C1005 C1004 1.387 . S
C1005 C1007 1.387 . S
H1006 C1013 0.950 . S
C1007 C1005 1.387 . S
C1007 C1009 1.390 1_545 S
C1007 H1011 0.950 . S
H1008 C1004 0.950 . S
C1009 C1007 1.390 1_565 S
C1009 C1010 1.387 . S
C1009 H1012 0.950 . S
C1010 C1009 1.387 . S
C1010 C1013 1.387 . S
H1011 C1007 0.950 . S
H1012 C1009 0.950 . S
C1013 C1004 1.390 1_565 S
C1013 H1006 0.950 . S
C1013 C1010 1.387 . S
C1014 C1015 1.387 . S
C1014 H1018 0.950 . S
C1014 C1023 1.390 1_545 S
C1015 C1014 1.387 . S
C1015 C1017 1.387 . S
H1016 C1023 0.950 . S
C1017 C1015 1.387 . S
C1017 C1019 1.390 1_545 S
C1017 H1021 0.950 . S
H1018 C1014 0.950 . S
C1019 C1017 1.390 1_565 S
C1019 C1020 1.387 . S
C1019 H1022 0.950 . S
C1020 C1019 1.387 . S
C1020 C1023 1.387 . S
H1021 C1017 0.950 . S
H1022 C1019 0.950 . S
C1023 C1014 1.390 1_565 S
C1023 H1016 0.950 . S
C1023 C1020 1.387 . S
C1024 C1025 1.387 . S
C1024 H1028 0.950 . S
C1024 C1033 1.390 1_655 S
C1025 C1024 1.387 . S
C1025 C1027 1.387 . S
H1026 C1033 0.950 . S
C1027 C1025 1.387 . S
C1027 C1029 1.390 1_655 S
C1027 H1031 0.950 . S
H1028 C1024 0.950 . S
C1029 C1027 1.390 1_455 S
C1029 C1030 1.387 . S
C1029 H1032 0.950 . S
C1030 C1029 1.387 . S
C1030 C1033 1.387 . S
H1031 C1027 0.950 . S
H1032 C1029 0.950 . S
C1033 C1024 1.390 1_455 S
C1033 H1026 0.950 . S
C1033 C1030 1.387 . S
C1034 C1035 1.387 . S
C1034 H1038 0.950 . S
C1034 C1043 1.390 . S
C1035 C1034 1.387 . S
C1035 C1037 1.387 . S
H1036 C1043 0.950 . S
C1037 C1035 1.387 . S
C1037 C1039 1.390 . S
C1037 H1041 0.950 . S
H1038 C1034 0.950 . S
C1039 C1037 1.390 . S
C1039 C1040 1.387 . S
C1039 H1042 0.950 . S
C1040 C1039 1.387 . S
C1040 C1043 1.387 . S
H1041 C1037 0.950 . S
H1042 C1039 0.950 . S
C1043 C1034 1.390 . S
C1043 H1036 0.950 . S
C1043 C1040 1.387 . S
C1044 C1045 1.387 . S
C1044 H1048 0.950 . S
C1044 C1053 1.390 . S
C1045 C1044 1.387 . S
C1045 C1047 1.387 . S
H1046 C1053 0.950 . S
C1047 C1045 1.387 . S
C1047 C1049 1.390 . S
C1047 H1051 0.950 . S
H1048 C1044 0.950 . S
C1049 C1047 1.390 . S
C1049 C1050 1.387 . S
C1049 H1052 0.950 . S
C1050 C1049 1.387 . S
C1050 C1053 1.387 . S
H1051 C1047 0.950 . S
H1052 C1049 0.950 . S
C1053 C1044 1.390 . S
C1053 H1046 0.950 . S
C1053 C1050 1.387 . S
C1054 C1055 1.387 . S
C1054 H1058 0.950 . S
C1054 C1063 1.390 . S
C1055 C1054 1.387 . S
C1055 C1057 1.387 . S
H1056 C1063 0.950 . S
C1057 C1055 1.387 . S
C1057 C1059 1.390 . S
C1057 H1061 0.950 . S
H1058 C1054 0.950 . S
C1059 C1057 1.390 . S
C1059 C1060 1.387 . S
C1059 H1062 0.950 . S
C1060 C1059 1.387 . S
C1060 C1063 1.387 . S
H1061 C1057 0.950 . S
H1062 C1059 0.950 . S
C1063 C1054 1.390 . S
C1063 H1056 0.950 . S
C1063 C1060 1.387 . S
C1064 C1065 1.387 . S
C1064 H1068 0.950 . S
C1064 C1073 1.390 . S
C1065 C1064 1.387 . S
C1065 C1067 1.387 . S
H1066 C1073 0.950 . S
C1067 C1065 1.387 . S
C1067 C1069 1.390 . S
C1067 H1071 0.950 . S
H1068 C1064 0.950 . S
C1069 C1067 1.390 . S
C1069 C1070 1.387 . S
C1069 H1072 0.950 . S
C1070 C1069 1.387 . S
C1070 C1073 1.387 . S
H1071 C1067 0.950 . S
H1072 C1069 0.950 . S
C1073 C1064 1.390 . S
C1073 H1066 0.950 . S
C1073 C1070 1.387 . S
C1074 C1075 1.387 . S
C1074 H1078 0.950 . S
C1074 C1083 1.390 . S
C1075 C1074 1.387 . S
C1075 C1077 1.387 . S
H1076 C1083 0.950 . S
C1077 C1075 1.387 . S
C1077 C1079 1.390 . S
C1077 H1081 0.950 . S
H1078 C1074 0.950 . S
C1079 C1077 1.390 . S
C1079 C1080 1.387 . S
C1079 H1082 0.950 . S
C1080 C1079 1.387 . S
C1080 C1083 1.387 . S
H1081 C1077 0.950 . S
H1082 C1079 0.950 . S
C1083 C1074 1.390 . S
C1083 H1076 0.950 . S
C1083 C1080 1.387 . S
C1084 C1085 1.387 . S
C1084 H1088 0.950 . S
C1084 C1093 1.390 . S
C1085 C1084 1.387 . S
C1085 C1087 1.387 . S
H1086 C1093 0.950 . S
C1087 C1085 1.387 . S
C1087 C1089 1.390 . S
C1087 H1091 0.950 . S
H1088 C1084 0.950 . S
C1089 C1087 1.390 . S
C1089 C1090 1.387 . S
C1089 H1092 0.950 . S
C1090 C1089 1.387 . S
C1090 C1093 1.387 . S
H1091 C1087 0.950 . S
H1092 C1089 0.950 . S
C1093 C1084 1.390 . S
C1093 H1086 0.950 . S
C1093 C1090 1.387 . S
C1094 C1095 1.387 . S
C1094 H1098 0.950 . S
C1094 C1103 1.390 . S
C1095 C1094 1.387 . S
C1095 C1097 1.387 . S
H1096 C1103 0.950 . S
C1097 C1095 1.387 . S
C1097 C1099 1.390 . S
C1097 H1101 0.950 . S
H1098 C1094 0.950 . S
C1099 C1097 1.390 . S
C1099 C1100 1.387 . S
C1099 H1102 0.950 . S
C1100 C1099 1.387 . S
C1100 C1103 1.387 . S
H1101 C1097 0.950 . S
H1102 C1099 0.950 . S
C1103 C1094 1.390 . S
C1103 H1096 0.950 . S
C1103 C1100 1.387 . S
C1104 C1105 1.387 . S
C1104 H1108 0.950 . S
C1104 C1113 1.390 . S
C1105 C1104 1.387 . S
C1105 C1107 1.387 . S
H1106 C1113 0.950 . S
C1107 C1105 1.387 . S
C1107 C1109 1.390 . S
C1107 H1111 0.950 . S
H1108 C1104 0.950 . S
C1109 C1107 1.390 . S
C1109 C1110 1.387 . S
C1109 H1112 0.950 . S
C1110 C1109 1.387 . S
C1110 C1113 1.387 . S
H1111 C1107 0.950 . S
H1112 C1109 0.950 . S
C1113 C1104 1.390 . S
C1113 H1106 0.950 . S
C1113 C1110 1.387 . S
C1114 C1115 1.387 . S
C1114 H1118 0.950 . S
C1114 C1123 1.390 . S
C1115 C1114 1.387 . S
C1115 C1117 1.387 . S
H1116 C1123 0.950 . S
C1117 C1115 1.387 . S
C1117 C1119 1.390 . S
C1117 H1121 0.950 . S
H1118 C1114 0.950 . S
C1119 C1117 1.390 . S
C1119 C1120 1.387 . S
C1119 H1122 0.950 . S
C1120 C1119 1.387 . S
C1120 C1123 1.387 . S
H1121 C1117 0.950 . S
H1122 C1119 0.950 . S
C1123 C1114 1.390 . S
C1123 H1116 0.950 . S
C1123 C1120 1.387 . S
C1124 C1125 1.387 . S
C1124 H1128 0.950 . S
C1124 C1133 1.390 . S
C1125 C1124 1.387 . S
C1125 C1127 1.387 . S
H1126 C1133 0.950 . S
C1127 C1125 1.387 . S
C1127 C1129 1.390 . S
C1127 H1131 0.950 . S
H1128 C1124 0.950 . S
C1129 C1127 1.390 . S
C1129 C1130 1.387 . S
C1129 H1132 0.950 . S
C1130 C1129 1.387 . S
C1130 C1133 1.387 . S
H1131 C1127 0.950 . S
H1132 C1129 0.950 . S
C1133 C1124 1.390 . S
C1133 H1126 0.950 . S
C1133 C1130 1.387 . S
C1134 C1135 1.387 . S
C1134 H1138 0.950 . S
C1134 C1143 1.390 . S
C1135 C1134 1.387 . S
C1135 C1137 1.387 . S
H1136 C1143 0.950 . S
C1137 C1135 1.387 . S
C1137 C1139 1.390 . S
C1137 H1141 0.950 . S
H1138 C1134 0.950 . S
C1139 C1137 1.390 . S
C1139 C1140 1.387 . S
C1139 H1142 0.950 . S
C1140 C1139 1.387 . S
C1140 C1143 1.387 . S
H1141 C1137 0.950 . S
H1142 C1139 0.950 . S
C1143 C1134 1.390 . S
C1143 H1136 0.950 . S
C1143 C1140 1.387 . S
C1144 C1145 1.387 . S
C1144 H1148 0.950 . S
C1144 C1153 1.390 . S
C1145 C1144 1.387 . S
C1145 C1147 1.387 . S
H1146 C1153 0.950 . S
C1147 C1145 1.387 . S
C1147 C1149 1.390 . S
C1147 H1151 0.950 1_554 S
H1148 C1144 0.950 . S
C1149 C1147 1.390 . S
C1149 C1150 1.387 . S
C1149 H1152 0.950 1_554 S
C1150 C1149 1.387 . S
C1150 C1153 1.387 . S
H1151 C1147 0.950 1_556 S
H1152 C1149 0.950 1_556 S
C1153 C1144 1.390 . S
C1153 H1146 0.950 . S
C1153 C1150 1.387 . S
C1154 C1155 1.387 . S
C1154 H1158 0.950 1_554 S
C1154 C1163 1.390 . S
C1155 C1154 1.387 . S
C1155 C1157 1.387 . S
H1156 C1163 0.950 1_556 S
C1157 C1155 1.387 . S
C1157 C1159 1.390 . S
C1157 H1161 0.950 . S
H1158 C1154 0.950 1_556 S
C1159 C1157 1.390 . S
C1159 C1160 1.387 . S
C1159 H1162 0.950 . S
C1160 C1159 1.387 . S
C1160 C1163 1.387 . S
H1161 C1157 0.950 . S
H1162 C1159 0.950 . S
C1163 C1154 1.390 . S
C1163 H1156 0.950 1_554 S
C1163 C1160 1.387 . S
C1164 C1165 1.387 . S
C1164 H1168 0.950 1_556 S
C1164 C1173 1.390 . S
C1165 C1164 1.387 . S
C1165 C1167 1.387 . S
H1166 C1173 0.950 1_554 S
C1167 C1165 1.387 . S
C1167 C1169 1.390 . S
C1167 H1171 0.950 . S
H1168 C1164 0.950 1_554 S
C1169 C1167 1.390 . S
C1169 C1170 1.387 . S
C1169 H1172 0.950 . S
C1170 C1169 1.387 . S
C1170 C1173 1.387 . S
H1171 C1167 0.950 . S
H1172 C1169 0.950 . S
C1173 C1164 1.390 . S
C1173 H1166 0.950 1_556 S
C1173 C1170 1.387 . S
C1174 C1175 1.387 . S
C1174 H1178 0.950 1_556 S
C1174 C1183 1.390 . S
C1175 C1174 1.387 . S
C1175 C1177 1.387 . S
H1176 C1183 0.950 1_554 S
C1177 C1175 1.387 . S
C1177 C1179 1.390 . S
C1177 H1181 0.950 . S
H1178 C1174 0.950 1_554 S
C1179 C1177 1.390 . S
C1179 C1180 1.387 . S
C1179 H1182 0.950 . S
C1180 C1179 1.387 . S
C1180 C1183 1.387 . S
H1181 C1177 0.950 . S
H1182 C1179 0.950 . S
C1183 C1174 1.390 . S
C1183 H1176 0.950 1_556 S
C1183 C1180 1.387 . S
C1184 C1185 1.387 . S
C1184 H1188 0.950 . S
C1184 C1193 1.390 . S
C1185 C1184 1.387 . S
C1185 C1187 1.387 . S
H1186 C1193 0.950 . S
C1187 C1185 1.387 . S
C1187 C1189 1.390 . S
C1187 H1191 0.950 . S
H1188 C1184 0.950 . S
C1189 C1187 1.390 . S
C1189 C1190 1.387 . S
C1189 H1192 0.950 . S
C1190 C1189 1.387 . S
C1190 C1193 1.387 . S
H1191 C1187 0.950 . S
H1192 C1189 0.950 . S
C1193 C1184 1.390 . S
C1193 H1186 0.950 . S
C1193 C1190 1.387 . S
C1194 C1195 1.387 . S
C1194 H1198 0.950 . S
C1194 C1203 1.390 . S
C1195 C1194 1.387 . S
C1195 C1197 1.387 . S
H1196 C1203 0.950 . S
C1197 C1195 1.387 . S
C1197 C1199 1.390 . S
C1197 H1201 0.950 . S
H1198 C1194 0.950 . S
C1199 C1197 1.390 . S
C1199 C1200 1.387 . S
C1199 H1202 0.950 . S
C1200 C1199 1.387 . S
C1200 C1203 1.387 . S
H1201 C1197 0.950 . S
H1202 C1199 0.950 . S
C1203 C1194 1.390 . S
C1203 H1196 0.950 . S
C1203 C1200 1.387 . S
C1204 C1205 1.387 . S
C1204 H1208 0.950 . S
C1204 C1213 1.390 . S
C1205 C1204 1.387 . S
C1205 C1207 1.387 . S
H1206 C1213 0.950 . S
C1207 C1205 1.387 . S
C1207 C1209 1.390 . S
C1207 H1211 0.950 . S
H1208 C1204 0.950 . S
C1209 C1207 1.390 . S
C1209 C1210 1.387 . S
C1209 H1212 0.950 . S
C1210 C1209 1.387 . S
C1210 C1213 1.387 . S
H1211 C1207 0.950 . S
H1212 C1209 0.950 . S
C1213 C1204 1.390 . S
C1213 H1206 0.950 . S
C1213 C1210 1.387 . S
C1214 C1215 1.387 . S
C1214 H1218 0.950 . S
C1214 C1223 1.390 . S
C1215 C1214 1.387 . S
C1215 C1217 1.387 . S
H1216 C1223 0.950 . S
C1217 C1215 1.387 . S
C1217 C1219 1.390 . S
C1217 H1221 0.950 . S
H1218 C1214 0.950 . S
C1219 C1217 1.390 . S
C1219 C1220 1.387 . S
C1219 H1222 0.950 . S
C1220 C1219 1.387 . S
C1220 C1223 1.387 . S
H1221 C1217 0.950 . S
H1222 C1219 0.950 . S
C1223 C1214 1.390 . S
C1223 H1216 0.950 . S
C1223 C1220 1.387 . S
C505 C81 1.574 . S
C510 C11 1.574 . S
C515 C53 1.573 . S
C520 C25 1.574 . S
C525 C39 1.573 . S
C530 C67 1.574 . S
C535 C95 1.573 . S
C540 C165 1.573 . S
C545 C109 1.573 . S
C550 C137 1.574 . S
C555 C151 1.574 . S
C560 C123 1.573 . S
C565 C179 1.573 . S
C570 C249 1.573 . S
C575 C193 1.573 . S
C580 C221 1.573 . S
C585 C207 1.574 . S
C590 C235 1.574 . S
C595 C333 1.574 . S
C600 C263 1.574 . S
C605 C277 1.574 . S
C610 C305 1.574 . S
C615 C319 1.574 . S
C620 C291 1.573 . S
C625 C417 1.573 . S
C630 C347 1.573 . S
C635 C389 1.573 . S
C640 C361 1.574 . S
C645 C403 1.574 . S
C650 C375 1.574 . S
C655 C431 1.574 . S
C660 C501 1.574 . S
C665 C445 1.574 . S
C670 C473 1.573 . S
C675 C459 1.573 . S
C680 C487 1.574 . S
C685 C83 1.185 . S
C690 C13 1.185 . S
C695 C27 1.185 . S
C700 C55 1.185 . S
C705 C69 1.182 . S
C710 C41 1.182 . S
C715 C97 1.185 . S
C720 C167 1.185 . S
C725 C111 1.184 . S
C730 C139 1.183 . S
C735 C153 1.184 . S
C740 C125 1.184 . S
C745 C181 1.185 . S
C750 C251 1.185 . S
C755 C223 1.184 . S
C760 C195 1.184 . S
C765 C237 1.182 . S
C770 C209 1.182 . S
C775 C265 1.185 . S
C780 C335 1.185 . S
C785 C279 1.185 . S
C790 C307 1.185 . S
C795 C321 1.180 . S
C800 C293 1.180 . S
C805 C419 1.185 . S
C810 C349 1.185 . S
C815 C363 1.180 . S
C820 C391 1.180 . S
C825 C377 1.179 . S
C830 C405 1.179 . S
C835 C503 1.185 . S
C840 C433 1.185 . S
C845 C475 1.185 . S
C850 C447 1.185 . S
C855 C489 1.181 . S
C860 C461 1.181 . S
C865 C232 1.505 . S
C870 C8 1.506 . S
C875 C246 1.505 . S
C880 C22 1.505 . S
C885 C218 1.504 . S
C890 C36 1.504 . S
C895 C50 1.504 . S
C900 C372 1.504 . S
C905 C64 1.506 . S
C910 C344 1.506 . S
C915 C78 1.507 . S
C920 C358 1.507 . S
C925 C92 1.505 . S
C930 C484 1.504 . S
C935 C106 1.506 . S
C940 C498 1.506 . S
C945 C120 1.507 . S
C950 C470 1.507 . S
C955 C134 1.504 . S
C960 C288 1.504 . S
C965 C260 1.507 . S
C970 C148 1.507 . S
C975 C274 1.505 . S
C980 C162 1.505 . S
C985 C400 1.504 . S
C990 C176 1.504 . S
C995 C190 1.507 . S
C1000 C414 1.507 . S
C1005 C204 1.507 . S
C1010 C386 1.507 . S
C1015 C302 1.504 . S
C1020 C456 1.504 . S
C1025 C316 1.504 . S
C1030 C428 1.504 . S
C1035 C442 1.506 . S
C1040 C330 1.506 . S
C1045 C7 1.401 . S
C1050 C147 1.400 . S
C1055 C161 1.400 . S
C1060 C21 1.401 . S
C1065 C133 1.400 . S
C1070 C35 1.401 . S
C1075 C49 1.400 . S
C1080 C119 1.401 . S
C1085 C63 1.401 . S
C1090 C91 1.400 . S
C1095 C77 1.400 . S
C1100 C105 1.401 . S
C1105 C175 1.401 . S
C1110 C315 1.400 . S
C1115 C329 1.401 . S
C1120 C189 1.400 . S
C1125 C301 1.400 . S
C1130 C203 1.401 . S
C1135 C217 1.401 . S
C1140 C287 1.400 . S
C1145 C231 1.400 . S
C1150 C259 1.401 . S
C1155 C273 1.400 . S
C1160 C245 1.401 . S
C1165 C343 1.401 . S
C1170 C483 1.400 . S
C1175 C497 1.400 . S
C1180 C357 1.401 . S
C1185 C371 1.400 . S
C1190 C469 1.401 . S
C1195 C385 1.400 . S
C1200 C455 1.401 . S
C1205 C427 1.400 . S
C1210 C399 1.401 . S
C1215 C413 1.400 . S
C1220 C441 1.401 . S
