# Generated by pormake.
# Topology ukh, (4)-cn, num edge types: 1
# Building blocks:
#     Node 0, Type 0, BuildingBlock: GALJAG_clean_sbu_0, # of connection points: 4
#     Node 1, Type 0, BuildingBlock: GALJAG_clean_sbu_0, # of connection points: 4
#     Node 2, Type 0, BuildingBlock: GALJAG_clean_sbu_0, # of connection points: 4
#     Node 3, Type 0, BuildingBlock: GALJAG_clean_sbu_0, # of connection points: 4
#     Node 4, Type 0, BuildingBlock: GALJAG_clean_sbu_0, # of connection points: 4
#     Node 5, Type 0, BuildingBlock: GALJAG_clean_sbu_0, # of connection points: 4
#     Node 6, Type 0, BuildingBlock: GALJAG_clean_sbu_0, # of connection points: 4
#     Node 7, Type 0, BuildingBlock: GALJAG_clean_sbu_0, # of connection points: 4
#     Node 8, Type 0, BuildingBlock: GALJAG_clean_sbu_0, # of connection points: 4
#     Node 9, Type 0, BuildingBlock: GALJAG_clean_sbu_0, # of connection points: 4
#     Node 10, Type 0, BuildingBlock: GALJAG_clean_sbu_0, # of connection points: 4
#     Node 11, Type 0, BuildingBlock: GALJAG_clean_sbu_0, # of connection points: 4
#     Edge 12, Type (0, 0), BuildingBlock: MIFKUJ_clean_linker_0, # of connection points: 2
#     Edge 13, Type (0, 0), BuildingBlock: MIFKUJ_clean_linker_0, # of connection points: 2
#     Edge 14, Type (0, 0), BuildingBlock: MIFKUJ_clean_linker_0, # of connection points: 2
#     Edge 15, Type (0, 0), BuildingBlock: MIFKUJ_clean_linker_0, # of connection points: 2
#     Edge 16, Type (0, 0), BuildingBlock: MIFKUJ_clean_linker_0, # of connection points: 2
#     Edge 17, Type (0, 0), BuildingBlock: MIFKUJ_clean_linker_0, # of connection points: 2
#     Edge 18, Type (0, 0), BuildingBlock: MIFKUJ_clean_linker_0, # of connection points: 2
#     Edge 19, Type (0, 0), BuildingBlock: MIFKUJ_clean_linker_0, # of connection points: 2
#     Edge 20, Type (0, 0), BuildingBlock: MIFKUJ_clean_linker_0, # of connection points: 2
#     Edge 21, Type (0, 0), BuildingBlock: MIFKUJ_clean_linker_0, # of connection points: 2
#     Edge 22, Type (0, 0), BuildingBlock: MIFKUJ_clean_linker_0, # of connection points: 2
#     Edge 23, Type (0, 0), BuildingBlock: MIFKUJ_clean_linker_0, # of connection points: 2
#     Edge 24, Type (0, 0), BuildingBlock: MIFKUJ_clean_linker_0, # of connection points: 2
#     Edge 25, Type (0, 0), BuildingBlock: MIFKUJ_clean_linker_0, # of connection points: 2
#     Edge 26, Type (0, 0), BuildingBlock: MIFKUJ_clean_linker_0, # of connection points: 2
#     Edge 27, Type (0, 0), BuildingBlock: MIFKUJ_clean_linker_0, # of connection points: 2
#     Edge 28, Type (0, 0), BuildingBlock: MIFKUJ_clean_linker_0, # of connection points: 2
#     Edge 29, Type (0, 0), BuildingBlock: MIFKUJ_clean_linker_0, # of connection points: 2
#     Edge 30, Type (0, 0), BuildingBlock: MIFKUJ_clean_linker_0, # of connection points: 2
#     Edge 31, Type (0, 0), BuildingBlock: MIFKUJ_clean_linker_0, # of connection points: 2
#     Edge 32, Type (0, 0), BuildingBlock: MIFKUJ_clean_linker_0, # of connection points: 2
#     Edge 33, Type (0, 0), BuildingBlock: MIFKUJ_clean_linker_0, # of connection points: 2
#     Edge 34, Type (0, 0), BuildingBlock: MIFKUJ_clean_linker_0, # of connection points: 2
#     Edge 35, Type (0, 0), BuildingBlock: MIFKUJ_clean_linker_0, # of connection points: 2
# Relax obj value: 0.072
# Max RMSD: 0.081
# Mean RMSD: 0.081
data_MOF--net-ukh--node1-GALJAG_clean_sbu_0--edge1-MIFKUJ_clean_linker_0
_symmetry_space_group_name_H-M    P1
_symmetry_Int_Tables_number       1
_symmetry_cell_setting            triclinic
loop_
_symmetry_equiv_pos_as_xyz
'x, y, z'
_cell_length_a     40.656984
_cell_length_b     40.669358
_cell_length_c     87.759466
_cell_angle_alpha  89.997604
_cell_angle_beta   89.996968
_cell_angle_gamma 119.97902
loop_
_atom_site_label
_atom_site_type_symbol
_atom_site_fract_x
_atom_site_fract_y
_atom_site_fract_z
_atom_type_partial_charge
In0 In 0.32264 0.22137 0.06002 0.0
O1 O 0.38055 0.27076 0.0526 0.0
O2 O 0.34358 0.28322 0.06533 0.0
C3 C 0.32292 0.16058 0.04785 0.0
C4 C 0.32387 0.20604 0.08977 0.0
C5 C 0.26458 0.21973 0.04444 0.0
O6 O 0.34561 0.19397 0.04335 0.0
O7 O 0.30129 0.15838 0.05857 0.0
O8 O 0.2657 0.22008 0.05882 0.0
O9 O 0.29258 0.22027 0.03805 0.0
C10 C 0.37504 0.29585 0.05863 0.0
O11 O 0.29372 0.19891 0.08288 0.0
O12 O 0.35355 0.22127 0.08166 0.0
In13 In 0.09077 0.31939 0.39094 0.0
O14 O 0.07681 0.29563 0.41512 0.0
O15 O 0.12835 0.34769 0.41147 0.0
C16 C 0.0352 0.25981 0.37581 0.0
C17 C 0.06832 0.37163 0.39041 0.0
C18 C 0.15012 0.31979 0.37686 0.0
O19 O 0.04621 0.25626 0.38885 0.0
O20 O 0.05205 0.29311 0.37056 0.0
O21 O 0.13613 0.33951 0.3721 0.0
O22 O 0.1348 0.30093 0.38874 0.0
C23 C 0.10689 0.32237 0.42081 0.0
O24 O 0.10124 0.37947 0.38622 0.0
O25 O 0.04747 0.33799 0.39496 0.0
In26 In 0.7766 0.09258 0.72605 0.0
O27 O 0.72599 0.10127 0.72094 0.0
O28 O 0.71518 0.04824 0.73003 0.0
C29 C 0.83587 0.15116 0.71193 0.0
C30 C 0.79 0.10843 0.756 0.0
C31 C 0.7804 0.03788 0.71027 0.0
O32 O 0.80209 0.14368 0.70961 0.0
O33 O 0.83917 0.12976 0.72143 0.0
O34 O 0.79534 0.04851 0.72328 0.0
O35 O 0.76346 0.05459 0.70534 0.0
C36 C 0.70157 0.06821 0.72527 0.0
O37 O 0.78432 0.07747 0.75035 0.0
O38 O 0.78862 0.13114 0.74658 0.0
In39 In 0.67958 0.7754 0.05483 0.0
O40 O 0.7089 0.79831 0.07761 0.0
O41 O 0.6492 0.77677 0.07642 0.0
C42 C 0.73932 0.78289 0.03846 0.0
C43 C 0.63068 0.69982 0.05422 0.0
C44 C 0.67262 0.83197 0.04215 0.0
O45 O 0.73921 0.78269 0.05284 0.0
O46 O 0.70939 0.77887 0.03248 0.0
O47 O 0.6522 0.79779 0.03807 0.0
O48 O 0.69531 0.83714 0.05289 0.0
C49 C 0.67892 0.79175 0.0845 0.0
O50 O 0.62349 0.7232 0.04769 0.0
O51 O 0.66219 0.71456 0.06101 0.0
In52 In 0.90198 0.68317 0.38969 0.0
O53 O 0.91046 0.71551 0.41205 0.0
O54 O 0.87602 0.65551 0.41249 0.0
C55 C 0.95847 0.74852 0.37791 0.0
C56 C 0.92464 0.63117 0.38827 0.0
C57 C 0.84197 0.67192 0.37238 0.0
O58 O 0.9293 0.74656 0.38387 0.0
O59 O 0.95921 0.71796 0.37813 0.0
O60 O 0.87092 0.67268 0.36678 0.0
O61 O 0.84248 0.67459 0.38668 0.0
C62 C 0.89005 0.68618 0.41985 0.0
O63 O 0.89172 0.62343 0.3841 0.0
O64 O 0.94531 0.66449 0.39316 0.0
In65 In 0.22455 0.90514 0.72552 0.0
O66 O 0.27263 0.89123 0.72241 0.0
O67 O 0.28695 0.94718 0.72887 0.0
C68 C 0.16742 0.84826 0.70984 0.0
C69 C 0.20723 0.88843 0.75521 0.0
C70 C 0.22244 0.96174 0.71038 0.0
O71 O 0.20187 0.85938 0.70688 0.0
O72 O 0.16218 0.86536 0.72073 0.0
O73 O 0.20808 0.95131 0.7235 0.0
O74 O 0.23752 0.94363 0.70506 0.0
C75 C 0.29858 0.92459 0.72558 0.0
O76 O 0.22096 0.92176 0.75011 0.0
O77 O 0.20267 0.86378 0.74543 0.0
In78 In 0.77761 0.68047 0.60736 0.0
O79 O 0.79219 0.70949 0.58414 0.0
O80 O 0.78136 0.65262 0.58547 0.0
C81 C 0.78325 0.74011 0.62298 0.0
C82 C 0.7025 0.62955 0.60795 0.0
C83 C 0.83522 0.67655 0.6211 0.0
O84 O 0.79582 0.74346 0.60957 0.0
O85 O 0.76812 0.707 0.62838 0.0
O86 O 0.80187 0.65968 0.62637 0.0
O87 O 0.83895 0.69402 0.60881 0.0
C88 C 0.79023 0.68132 0.57721 0.0
O89 O 0.72723 0.62001 0.61049 0.0
O90 O 0.71577 0.66424 0.60499 0.0
In91 In 0.09557 0.77591 0.94266 0.0
O92 O 0.10569 0.72554 0.93924 0.0
O93 O 0.06387 0.71919 0.95516 0.0
C94 C 0.15392 0.82692 0.95991 0.0
C95 C 0.10928 0.78991 0.91252 0.0
C96 C 0.0386 0.78891 0.95045 0.0
O97 O 0.1305 0.79412 0.96475 0.0
O98 O 0.1484 0.8333 0.94637 0.0
O99 O 0.03292 0.75989 0.94309 0.0
O100 O 0.07298 0.8119 0.95332 0.0
C101 C 0.0804 0.70405 0.94853 0.0
O102 O 0.07634 0.77591 0.91806 0.0
O103 O 0.13486 0.79618 0.92209 0.0
In104 In 0.32242 0.09608 0.27723 0.0
O105 O 0.38259 0.10723 0.28223 0.0
O106 O 0.34095 0.05242 0.27438 0.0
C107 C 0.32696 0.15711 0.2917 0.0
C108 C 0.3241 0.1072 0.24691 0.0
C109 C 0.25975 0.04141 0.29125 0.0
O110 O 0.34009 0.13764 0.29751 0.0
O111 O 0.31333 0.14668 0.27857 0.0
O112 O 0.25776 0.05979 0.28004 0.0
O113 O 0.29297 0.05032 0.29517 0.0
C114 C 0.3747 0.07388 0.27871 0.0
O115 O 0.29581 0.08035 0.25352 0.0
O116 O 0.35154 0.12795 0.25557 0.0
In117 In 0.22472 0.31861 0.60747 0.0
O118 O 0.2172 0.29656 0.58304 0.0
O119 O 0.20884 0.34332 0.58737 0.0
C120 C 0.22426 0.26192 0.62344 0.0
C121 C 0.29922 0.37152 0.60854 0.0
C122 C 0.16273 0.31286 0.62114 0.0
O123 O 0.21485 0.25845 0.60955 0.0
O124 O 0.23418 0.29404 0.62916 0.0
O125 O 0.195 0.34245 0.62247 0.0
O126 O 0.16219 0.28726 0.61285 0.0
C127 C 0.20885 0.32033 0.57773 0.0
O128 O 0.27395 0.37824 0.61352 0.0
O129 O 0.2867 0.33881 0.60303 0.0
In130 In 0.91139 0.227 0.94236 0.0
O131 O 0.92379 0.21775 0.9179 0.0
O132 O 0.87145 0.21603 0.92243 0.0
C133 C 0.96698 0.22311 0.95755 0.0
C134 C 0.9335 0.3016 0.94404 0.0
C135 C 0.85275 0.16574 0.95538 0.0
O136 O 0.96193 0.2168 0.94341 0.0
O137 O 0.94424 0.23143 0.96385 0.0
O138 O 0.86269 0.19915 0.95964 0.0
O139 O 0.87188 0.16356 0.94452 0.0
C140 C 0.89275 0.21309 0.91271 0.0
O141 O 0.90209 0.27626 0.9494 0.0
O142 O 0.95296 0.28914 0.93776 0.0
In143 In 0.68295 0.9046 0.27215 0.0
O144 O 0.71172 0.91261 0.24904 0.0
O145 O 0.65174 0.87751 0.24999 0.0
C146 C 0.74565 0.95812 0.28648 0.0
C147 C 0.63291 0.92924 0.27664 0.0
C148 C 0.67852 0.84183 0.2846 0.0
O149 O 0.73787 0.96203 0.27291 0.0
O150 O 0.72204 0.92737 0.29274 0.0
O151 O 0.65977 0.85654 0.28977 0.0
O152 O 0.6982 0.85807 0.27296 0.0
C153 C 0.68134 0.89165 0.2419 0.0
O154 O 0.62324 0.89459 0.27781 0.0
O155 O 0.66731 0.95083 0.27334 0.0
H156 H 0.57315 0.65865 0.03412 0.0
H157 H 0.53094 0.5897 0.03369 0.0
H158 H 0.58606 0.57919 0.07396 0.0
H159 H 0.6295 0.64766 0.07387 0.0
H160 H 0.57414 0.52527 0.05648 0.0
H161 H 0.49551 0.57461 0.07409 0.0
H162 H 0.46524 0.61415 0.07311 0.0
H163 H 0.40932 0.56012 0.03135 0.0
H164 H 0.43963 0.52057 0.03199 0.0
H165 H 0.37428 0.35198 0.07509 0.0
H166 H 0.41875 0.42005 0.07374 0.0
H167 H 0.48162 0.40106 0.03855 0.0
H168 H 0.43779 0.33249 0.04031 0.0
H169 H 0.43454 0.46947 0.05292 0.0
H170 H 0.57442 0.46991 0.03964 0.0
H171 H 0.60406 0.43081 0.04467 0.0
H172 H 0.5362 0.38586 0.085 0.0
H173 H 0.50654 0.42504 0.08032 0.0
C174 C 0.57616 0.64152 0.04286 0.0
C175 C 0.60445 0.65842 0.05406 0.0
C176 C 0.55194 0.60214 0.04266 0.0
C177 C 0.55484 0.57911 0.05393 0.0
C178 C 0.58324 0.59616 0.0651 0.0
C179 C 0.60796 0.63535 0.06509 0.0
C180 C 0.52839 0.53733 0.05422 0.0
C181 C 0.54361 0.51313 0.05567 0.0
C182 C 0.48847 0.52125 0.0534 0.0
C183 C 0.47014 0.54493 0.05301 0.0
C184 C 0.47696 0.57135 0.06465 0.0
C185 C 0.45977 0.59373 0.06416 0.0
C186 C 0.43546 0.58972 0.05216 0.0
C187 C 0.4282 0.56324 0.04063 0.0
C188 C 0.44536 0.54082 0.04105 0.0
C189 C 0.39772 0.36227 0.06712 0.0
C190 C 0.40268 0.33693 0.05785 0.0
C191 C 0.42304 0.40124 0.06631 0.0
C192 C 0.45374 0.41582 0.0561 0.0
C193 C 0.45858 0.39053 0.04671 0.0
C194 C 0.43348 0.35137 0.04768 0.0
C195 C 0.48028 0.4575 0.05533 0.0
C196 C 0.46508 0.48164 0.05367 0.0
C197 C 0.52012 0.47357 0.05654 0.0
C198 C 0.53796 0.45007 0.05951 0.0
C199 C 0.5659 0.45174 0.0496 0.0
C200 C 0.5827 0.42957 0.05239 0.0
C201 C 0.57191 0.40576 0.06512 0.0
C202 C 0.54441 0.40419 0.07511 0.0
C203 C 0.52757 0.42633 0.07238 0.0
H204 H 0.58493 0.3886 0.06725 0.0
H205 H 0.42218 0.60708 0.0518 0.0
H206 H 0.99574 0.35657 0.39425 0.0
H207 H 0.97193 0.40104 0.39304 0.0
H208 H 0.08523 0.49293 0.38412 0.0
H209 H 0.10936 0.44833 0.38516 0.0
H210 H 0.04471 0.50828 0.40713 0.0
H211 H 0.02653 0.46072 0.35567 0.0
H212 H 0.00343 0.41052 0.33611 0.0
H213 H 0.88872 0.36833 0.35115 0.0
H214 H 0.91121 0.41796 0.37096 0.0
H215 H 0.99799 0.64765 0.38834 0.0
H216 H 0.02218 0.60361 0.38787 0.0
H217 H 0.90741 0.50908 0.38665 0.0
H218 H 0.88307 0.5535 0.38637 0.0
H219 H 0.94883 0.49439 0.3688 0.0
H220 H 0.96368 0.53801 0.4202 0.0
H221 H 0.98386 0.5849 0.44101 0.0
H222 H 0.10048 0.63027 0.42803 0.0
H223 H 0.08096 0.58397 0.40701 0.0
C224 C 0.01565 0.38625 0.39202 0.0
C225 C 0.05445 0.39899 0.38978 0.0
C226 C 0.00195 0.41157 0.39129 0.0
C227 C 0.02677 0.45018 0.38838 0.0
C228 C 0.06563 0.46318 0.38634 0.0
C229 C 0.07934 0.43771 0.3869 0.0
C230 C 0.01199 0.4769 0.38765 0.0
C231 C 0.0242 0.5057 0.39861 0.0
C232 C 0.98418 0.47251 0.37688 0.0
C233 C 0.9706 0.44286 0.36488 0.0
C234 C 0.99641 0.44056 0.35489 0.0
C235 C 0.98342 0.41224 0.34374 0.0
C236 C 0.94464 0.38619 0.34241 0.0
C237 C 0.91876 0.38849 0.3522 0.0
C238 C 0.93161 0.41674 0.36338 0.0
C239 C 0.97788 0.61747 0.38794 0.0
C240 C 0.93863 0.60394 0.38752 0.0
C241 C 0.99175 0.59227 0.38777 0.0
C242 C 0.96667 0.5529 0.38763 0.0
C243 C 0.92737 0.53931 0.38686 0.0
C244 C 0.91346 0.56465 0.38672 0.0
C245 C 0.98162 0.52613 0.38828 0.0
C246 C 0.96939 0.49718 0.37733 0.0
C247 C 0.00894 0.52995 0.39926 0.0
C248 C 0.02081 0.55773 0.41194 0.0
C249 C 0.99361 0.55815 0.42172 0.0
C250 C 0.00493 0.5846 0.43356 0.0
C251 C 0.04342 0.6106 0.43582 0.0
C252 C 0.07067 0.61014 0.42626 0.0
C253 C 0.0595 0.58377 0.41439 0.0
H254 H 0.05213 0.63106 0.44499 0.0
H255 H 0.93464 0.36428 0.33378 0.0
H256 H 0.35723 0.99708 0.72657 0.0
H257 H 0.4251 0.0191 0.72559 0.0
H258 H 0.40102 0.9033 0.7227 0.0
H259 H 0.33251 0.88086 0.72349 0.0
H260 H 0.45834 0.95029 0.74473 0.0
H261 H 0.428 0.95204 0.6919 0.0
H262 H 0.40051 0.96828 0.67011 0.0
H263 H 0.47322 0.08698 0.67933 0.0
H264 H 0.50077 0.07144 0.70132 0.0
H265 H 0.64571 0.99476 0.72826 0.0
H266 H 0.57726 0.96918 0.72755 0.0
H267 H 0.59494 0.08198 0.72067 0.0
H268 H 0.66389 0.10763 0.72079 0.0
H269 H 0.53972 0.03446 0.70319 0.0
H270 H 0.56851 0.03543 0.75605 0.0
H271 H 0.59558 0.02202 0.77876 0.0
H272 H 0.52581 0.90228 0.77086 0.0
H273 H 0.49868 0.91498 0.74797 0.0
C274 C 0.36629 0.97621 0.72572 0.0
C275 C 0.33955 0.9372 0.7251 0.0
C276 C 0.40509 0.98889 0.72511 0.0
C277 C 0.41802 0.96285 0.72396 0.0
C278 C 0.39151 0.92381 0.72354 0.0
C279 C 0.35248 0.91106 0.72396 0.0
C280 C 0.45935 0.97678 0.72339 0.0
C281 C 0.47613 0.96814 0.73553 0.0
C282 C 0.48256 0.00114 0.71163 0.0
C283 C 0.46621 0.01056 0.69834 0.0
C284 C 0.43791 0.9816 0.68936 0.0
C285 C 0.42236 0.99068 0.67696 0.0
C286 C 0.43504 0.02863 0.67336 0.0
C287 C 0.46339 0.05759 0.68214 0.0
C288 C 0.47902 0.04867 0.69456 0.0
C289 C 0.63506 0.01417 0.7266 0.0
C290 C 0.66015 0.05326 0.72469 0.0
C291 C 0.59586 0.9995 0.72627 0.0
C292 C 0.58081 0.02369 0.72438 0.0
C293 C 0.60584 0.06274 0.72222 0.0
C294 C 0.6452 0.07741 0.72233 0.0
C295 C 0.539 0.00808 0.72458 0.0
C296 C 0.52206 0.01647 0.71238 0.0
C297 C 0.51568 0.98392 0.73642 0.0
C298 C 0.53184 0.97617 0.75021 0.0
C299 C 0.55914 0.00624 0.75909 0.0
C300 C 0.57447 0.99877 0.77201 0.0
C301 C 0.5625 0.96132 0.77623 0.0
C302 C 0.53509 0.93127 0.76756 0.0
C303 C 0.51971 0.93859 0.75462 0.0
H304 H 0.57439 0.95559 0.78623 0.0
H305 H 0.42297 0.0356 0.66375 0.0
H306 H 0.64616 0.64694 0.6096 0.0
H307 H 0.57763 0.60317 0.61053 0.0
H308 H 0.59661 0.50801 0.6084 0.0
H309 H 0.66555 0.5518 0.60774 0.0
H310 H 0.54047 0.50599 0.58725 0.0
H311 H 0.57237 0.52444 0.64065 0.0
H312 H 0.6009 0.56261 0.66378 0.0
H313 H 0.52988 0.6124 0.65927 0.0
H314 H 0.5013 0.57492 0.63596 0.0
H315 H 0.35674 0.35754 0.60302 0.0
H316 H 0.42475 0.40217 0.60352 0.0
H317 H 0.40341 0.49271 0.61556 0.0
H318 H 0.33478 0.44752 0.61555 0.0
H319 H 0.46117 0.4989 0.63151 0.0
H320 H 0.4289 0.48278 0.57883 0.0
H321 H 0.40056 0.44788 0.55501 0.0
H322 H 0.47213 0.39825 0.55695 0.0
H323 H 0.50054 0.43244 0.58092 0.0
C324 C 0.63578 0.61669 0.60936 0.0
C325 C 0.66117 0.60274 0.60859 0.0
C326 C 0.59665 0.59176 0.60994 0.0
C327 C 0.58214 0.55242 0.6096 0.0
C328 C 0.60735 0.53833 0.6087 0.0
C329 C 0.64663 0.5633 0.60836 0.0
C330 C 0.54056 0.52614 0.60991 0.0
C331 C 0.52312 0.50393 0.597 0.0
C332 C 0.51794 0.52472 0.62242 0.0
C333 C 0.53498 0.54716 0.63647 0.0
C334 C 0.56308 0.54379 0.64451 0.0
C335 C 0.57921 0.56524 0.65767 0.0
C336 C 0.56729 0.58999 0.66297 0.0
C337 C 0.53913 0.59326 0.65514 0.0
C338 C 0.52293 0.57189 0.64196 0.0
C339 C 0.36645 0.38696 0.60577 0.0
C340 C 0.3404 0.39912 0.60913 0.0
C341 C 0.40541 0.41251 0.60598 0.0
C342 C 0.41929 0.45101 0.60926 0.0
C343 C 0.39337 0.46317 0.61291 0.0
C344 C 0.35421 0.4374 0.61287 0.0
C345 C 0.46086 0.47826 0.60886 0.0
C346 C 0.47837 0.50082 0.62173 0.0
C347 C 0.48354 0.48048 0.59619 0.0
C348 C 0.46661 0.45992 0.58175 0.0
C349 C 0.4384 0.4642 0.57424 0.0
C350 C 0.42235 0.44458 0.5607 0.0
C351 C 0.43447 0.42079 0.55449 0.0
C352 C 0.46274 0.41665 0.56179 0.0
C353 C 0.47885 0.43618 0.57534 0.0
H354 H 0.42201 0.40563 0.544 0.0
H355 H 0.57981 0.60658 0.67317 0.0
H356 H 0.99889 0.35937 0.93239 0.0
H357 H 0.02369 0.42742 0.93512 0.0
H358 H 0.92533 0.40543 0.96159 0.0
H359 H 0.8999 0.33686 0.95867 0.0
H360 H 0.94273 0.46102 0.94122 0.0
H361 H 0.01049 0.43385 0.97884 0.0
H362 H 0.04906 0.40729 0.98878 0.0
H363 H 0.14001 0.47883 0.95853 0.0
H364 H 0.10176 0.50543 0.94823 0.0
H365 H 0.02171 0.65157 0.9657 0.0
H366 H 0.99752 0.58319 0.96682 0.0
H367 H 0.08726 0.59607 0.93684 0.0
H368 H 0.11168 0.66469 0.93564 0.0
H369 H 0.0732 0.54489 0.9608 0.0
H370 H 0.00305 0.56856 0.92224 0.0
H371 H 0.96399 0.5946 0.91233 0.0
H372 H 0.87697 0.529 0.94504 0.0
H373 H 0.9158 0.50297 0.95529 0.0
C374 C 0.98244 0.36895 0.93878 0.0
C375 C 0.94748 0.34276 0.94537 0.0
C376 C 0.99679 0.4079 0.9404 0.0
C377 C 0.97673 0.42156 0.94879 0.0
C378 C 0.9414 0.3955 0.95514 0.0
C379 C 0.92692 0.35638 0.95348 0.0
C380 C 0.9926 0.46309 0.9507 0.0
C381 C 0.97099 0.47925 0.94576 0.0
C382 C 0.02979 0.48701 0.95636 0.0
C383 C 0.0531 0.47142 0.96267 0.0
C384 C 0.03861 0.44375 0.97423 0.0
C385 C 0.06043 0.4287 0.97994 0.0
C386 C 0.09692 0.4413 0.97426 0.0
C387 C 0.11172 0.46907 0.9629 0.0
C388 C 0.08999 0.48418 0.95713 0.0
C389 C 0.03661 0.63995 0.95949 0.0
C390 C 0.06849 0.66347 0.9505 0.0
C391 C 0.02266 0.60085 0.96011 0.0
C392 C 0.04033 0.58452 0.95177 0.0
C393 C 0.07318 0.60813 0.94334 0.0
C394 C 0.08705 0.64728 0.94264 0.0
C395 C 0.02339 0.54267 0.95122 0.0
C396 C 0.04483 0.52653 0.95639 0.0
C397 C 0.98598 0.51871 0.94584 0.0
C398 C 0.96251 0.53415 0.93964 0.0
C399 C 0.97573 0.55993 0.9274 0.0
C400 C 0.95361 0.57465 0.92171 0.0
C401 C 0.91807 0.56355 0.92808 0.0
C402 C 0.90453 0.53762 0.94013 0.0
C403 C 0.92657 0.52286 0.94588 0.0
H404 H 0.90098 0.57497 0.92366 0.0
H405 H 0.11375 0.42958 0.97869 0.0
H406 H 0.35946 0.00082 0.27771 0.0
H407 H 0.40448 0.97767 0.27897 0.0
H408 H 0.49719 0.09271 0.28291 0.0
H409 H 0.45204 0.1162 0.28187 0.0
H410 H 0.50768 0.04735 0.26055 0.0
H411 H 0.47359 0.04164 0.31323 0.0
H412 H 0.42937 0.02412 0.3349 0.0
H413 H 0.38337 0.90602 0.32443 0.0
H414 H 0.42695 0.92285 0.30254 0.0
H415 H 0.65034 0.00302 0.2771 0.0
H416 H 0.60689 0.02787 0.27875 0.0
H417 H 0.51185 0.91373 0.28161 0.0
H418 H 0.55553 0.88858 0.28027 0.0
H419 H 0.5029 0.95966 0.30096 0.0
H420 H 0.53359 0.96339 0.24821 0.0
H421 H 0.57532 0.97881 0.22579 0.0
H422 H 0.62461 0.09778 0.23534 0.0
H423 H 0.58353 0.08304 0.25796 0.0
C424 C 0.38942 0.02123 0.27889 0.0
C425 C 0.40228 0.06034 0.27968 0.0
C426 C 0.41507 0.00793 0.27966 0.0
C427 C 0.45409 0.03346 0.28112 0.0
C428 C 0.46713 0.07258 0.28183 0.0
C429 C 0.44136 0.08592 0.28126 0.0
C430 C 0.48116 0.01909 0.28151 0.0
C431 C 0.50715 0.02872 0.26952 0.0
C432 C 0.47945 0.99376 0.29295 0.0
C433 C 0.4533 0.98353 0.30615 0.0
C434 C 0.45382 0.01194 0.31546 0.0
C435 C 0.42891 0.00213 0.3278 0.0
C436 C 0.40351 0.96398 0.33102 0.0
C437 C 0.40303 0.93556 0.32192 0.0
C438 C 0.42785 0.94522 0.30954 0.0
C439 C 0.6202 0.98315 0.27815 0.0
C440 C 0.60629 0.94381 0.27844 0.0
C441 C 0.59537 0.99742 0.27903 0.0
C442 C 0.55604 0.97267 0.28002 0.0
C443 C 0.54209 0.93336 0.28078 0.0
C444 C 0.56703 0.91902 0.27999 0.0
C445 C 0.52963 0.98799 0.28 0.0
C446 C 0.50364 0.97844 0.29202 0.0
C447 C 0.53102 0.01309 0.26848 0.0
C448 C 0.55575 0.02209 0.25487 0.0
C449 C 0.55355 0.99283 0.2456 0.0
C450 C 0.57705 0.00145 0.23285 0.0
C451 C 0.60268 0.03925 0.22917 0.0
C452 C 0.60479 0.06851 0.23822 0.0
C453 C 0.58138 0.06004 0.25101 0.0
H454 H 0.62084 0.04587 0.21928 0.0
H455 H 0.38426 0.95645 0.34058 0.0
H456 H 0.38312 0.16082 0.23024 0.0
H457 H 0.38303 0.17636 0.20336 0.0
H458 H 0.26598 0.08762 0.19955 0.0
H459 H 0.26614 0.07138 0.22643 0.0
H460 H 0.30495 0.08826 0.17506 0.0
H461 H 0.28948 0.18044 0.20292 0.0
H462 H 0.30447 0.22985 0.2223 0.0
H463 H 0.4127 0.30106 0.20122 0.0
H464 H 0.39858 0.2518 0.18183 0.0
H465 H 0.26328 0.15841 0.10732 0.0
H466 H 0.264 0.14053 0.13392 0.0
H467 H 0.38552 0.21382 0.13535 0.0
H468 H 0.38515 0.23134 0.10864 0.0
H469 H 0.34367 0.22087 0.16081 0.0
H470 H 0.35671 0.12633 0.13264 0.0
H471 H 0.33854 0.07658 0.11313 0.0
H472 H 0.23036 0.00942 0.13487 0.0
H473 H 0.24767 0.0591 0.15438 0.0
C474 C 0.35742 0.14446 0.22366 0.0
C475 C 0.32456 0.11503 0.23045 0.0
C476 C 0.35736 0.15349 0.20832 0.0
C477 C 0.3243 0.13359 0.19951 0.0
C478 C 0.29176 0.10344 0.20615 0.0
C479 C 0.29187 0.09424 0.2215 0.0
C480 C 0.32361 0.1447 0.18345 0.0
C481 C 0.31295 0.11715 0.17198 0.0
C482 C 0.33452 0.18252 0.17939 0.0
C483 C 0.34313 0.21226 0.19102 0.0
C484 C 0.31661 0.2065 0.20249 0.0
C485 C 0.32493 0.23451 0.21346 0.0
C486 C 0.35956 0.26853 0.21301 0.0
C487 C 0.38591 0.27466 0.20156 0.0
C488 C 0.37776 0.24672 0.19057 0.0
C489 C 0.29014 0.17078 0.11332 0.0
C490 C 0.32418 0.19622 0.10593 0.0
C491 C 0.2905 0.16045 0.12847 0.0
C492 C 0.32483 0.17575 0.13653 0.0
C493 C 0.35878 0.20172 0.12928 0.0
C494 C 0.35852 0.2116 0.11405 0.0
C495 C 0.32525 0.16451 0.15252 0.0
C496 C 0.33574 0.19203 0.16395 0.0
C497 C 0.31374 0.12661 0.15656 0.0
C498 C 0.30333 0.09663 0.14488 0.0
C499 C 0.32891 0.10113 0.13318 0.0
C500 C 0.31879 0.0729 0.12213 0.0
C501 C 0.28328 0.03991 0.12273 0.0
C502 C 0.25784 0.03503 0.1344 0.0
C503 C 0.2678 0.0632 0.14546 0.0
H504 H 0.2755 0.01809 0.11417 0.0
H505 H 0.36594 0.29019 0.22151 0.0
H506 H 0.17488 0.36974 0.43419 0.0
H507 H 0.19331 0.36931 0.46064 0.0
H508 H 0.08041 0.27759 0.47059 0.0
H509 H 0.06226 0.27702 0.44396 0.0
H510 H 0.17284 0.38263 0.4864 0.0
H511 H 0.08294 0.22034 0.4978 0.0
H512 H 0.05806 0.16016 0.48361 0.0
H513 H 0.1469 0.21501 0.45045 0.0
H514 H 0.1726 0.27535 0.46454 0.0
H515 H 0.17012 0.35251 0.56553 0.0
H516 H 0.15315 0.35267 0.53884 0.0
H517 H 0.21031 0.29101 0.5267 0.0
H518 H 0.22551 0.28905 0.55355 0.0
H519 H 0.14952 0.26349 0.51143 0.0
H520 H 0.24947 0.39025 0.52019 0.0
H521 H 0.28345 0.4522 0.5332 0.0
H522 H 0.19095 0.47174 0.52385 0.0
H523 H 0.15619 0.40966 0.51095 0.0
C524 C 0.15397 0.34951 0.44203 0.0
C525 C 0.11719 0.32327 0.43701 0.0
C526 C 0.16452 0.34934 0.45716 0.0
C527 C 0.13844 0.32311 0.4676 0.0
C528 C 0.10131 0.29757 0.46269 0.0
C529 C 0.09088 0.2974 0.44749 0.0
C530 C 0.15025 0.32249 0.48358 0.0
C531 C 0.16773 0.35656 0.49187 0.0
C532 C 0.1445 0.2887 0.49064 0.0
C533 C 0.12941 0.25244 0.48215 0.0
C534 C 0.09722 0.21951 0.4875 0.0
C535 C 0.08297 0.18538 0.47948 0.0
C536 C 0.10081 0.1838 0.46611 0.0
C537 C 0.13302 0.21631 0.46077 0.0
C538 C 0.1474 0.25049 0.46876 0.0
C539 C 0.17908 0.33904 0.55715 0.0
C540 C 0.19928 0.32093 0.56156 0.0
C541 C 0.16956 0.33932 0.54188 0.0
C542 C 0.18105 0.32249 0.53066 0.0
C543 C 0.20111 0.30421 0.53511 0.0
C544 C 0.20991 0.30321 0.55044 0.0
C545 C 0.17179 0.3236 0.51433 0.0
C546 C 0.15469 0.28959 0.50597 0.0
C547 C 0.17921 0.35772 0.50703 0.0
C548 C 0.2001 0.39516 0.51472 0.0
C549 C 0.23628 0.40765 0.521 0.0
C550 C 0.25569 0.4428 0.52834 0.0
C551 C 0.23933 0.46585 0.52938 0.0
C552 C 0.20356 0.45384 0.52305 0.0
C553 C 0.18401 0.41869 0.5157 0.0
H554 H 0.2544 0.49305 0.53507 0.0
H555 H 0.08972 0.15736 0.45991 0.0
H556 H 0.78283 0.06065 0.77925 0.0
H557 H 0.79692 0.07649 0.80626 0.0
H558 H 0.83198 0.19344 0.79634 0.0
H559 H 0.81653 0.17742 0.7695 0.0
H560 H 0.85822 0.11891 0.82095 0.0
H561 H 0.81564 0.23567 0.82574 0.0
H562 H 0.76876 0.25046 0.81466 0.0
H563 H 0.69487 0.13255 0.80437 0.0
H564 H 0.74104 0.11699 0.81558 0.0
H565 H 0.93832 0.22238 0.88835 0.0
H566 H 0.91891 0.20393 0.8619 0.0
H567 H 0.80183 0.16088 0.87464 0.0
H568 H 0.82143 0.18114 0.90091 0.0
H569 H 0.81194 0.19348 0.84925 0.0
H570 H 0.84191 0.10169 0.86818 0.0
H571 H 0.88083 0.07829 0.88049 0.0
H572 H 0.96541 0.13063 0.84555 0.0
H573 H 0.9272 0.15477 0.83314 0.0
C574 C 0.79332 0.08967 0.78288 0.0
C575 C 0.79836 0.11776 0.77231 0.0
C576 C 0.80148 0.09873 0.7983 0.0
C577 C 0.81508 0.13608 0.8034 0.0
C578 C 0.82068 0.16426 0.79278 0.0
C579 C 0.81202 0.15511 0.77741 0.0
C580 C 0.8241 0.14577 0.81978 0.0
C581 C 0.84802 0.13514 0.82715 0.0
C582 C 0.81012 0.16618 0.82801 0.0
C583 C 0.782 0.17525 0.82137 0.0
C584 C 0.78932 0.21289 0.82117 0.0
C585 C 0.76288 0.2214 0.81485 0.0
C586 C 0.72892 0.19248 0.80877 0.0
C587 C 0.72125 0.15495 0.80903 0.0
C588 C 0.74757 0.14627 0.81535 0.0
C589 C 0.90849 0.20916 0.88546 0.0
C590 C 0.88135 0.20308 0.89666 0.0
C591 C 0.89736 0.19836 0.87037 0.0
C592 C 0.85877 0.18026 0.86628 0.0
C593 C 0.83174 0.17474 0.87746 0.0
C594 C 0.84295 0.18627 0.89248 0.0
C595 C 0.84651 0.16708 0.85039 0.0
C596 C 0.82207 0.17715 0.84309 0.0
C597 C 0.85883 0.14488 0.84241 0.0
C598 C 0.88184 0.13032 0.84981 0.0
C599 C 0.86893 0.10842 0.86318 0.0
C600 C 0.89084 0.095 0.87017 0.0
C601 C 0.92561 0.10305 0.86383 0.0
C602 C 0.93849 0.12446 0.85046 0.0
C603 C 0.9167 0.13799 0.84343 0.0
H604 H 0.94254 0.09263 0.86926 0.0
H605 H 0.7085 0.19914 0.80388 0.0
H606 H 0.61749 0.77431 0.10247 0.0
H607 H 0.61748 0.79149 0.12918 0.0
H608 H 0.73996 0.8495 0.12967 0.0
H609 H 0.74007 0.83148 0.1031 0.0
H610 H 0.71305 0.80962 0.15476 0.0
H611 H 0.6899 0.89804 0.12724 0.0
H612 H 0.65708 0.91779 0.10893 0.0
H613 H 0.55343 0.85622 0.1343 0.0
H614 H 0.58553 0.83566 0.15266 0.0
H615 H 0.74184 0.91477 0.22275 0.0
H616 H 0.74075 0.89814 0.19588 0.0
H617 H 0.61842 0.83238 0.19718 0.0
H618 H 0.61928 0.84908 0.22404 0.0
H619 H 0.64475 0.87606 0.17134 0.0
H620 H 0.66896 0.78822 0.19894 0.0
H621 H 0.70272 0.76972 0.21731 0.0
H622 H 0.8058 0.83204 0.19165 0.0
H623 H 0.77275 0.85138 0.17324 0.0
C624 C 0.6444 0.79069 0.10828 0.0
C625 C 0.67879 0.80167 0.10069 0.0
C626 C 0.64437 0.80066 0.12352 0.0
C627 C 0.67875 0.8223 0.13138 0.0
C628 C 0.7131 0.83286 0.12385 0.0
C629 C 0.71313 0.82262 0.10865 0.0
C630 C 0.67897 0.83371 0.14748 0.0
C631 C 0.69854 0.82462 0.15833 0.0
C632 C 0.65936 0.85256 0.15223 0.0
C633 C 0.64004 0.86501 0.14124 0.0
C634 C 0.66004 0.88848 0.12885 0.0
C635 C 0.64158 0.89986 0.11847 0.0
C636 C 0.60317 0.88819 0.12043 0.0
C637 C 0.58317 0.86519 0.13279 0.0
C638 C 0.60149 0.85369 0.14319 0.0
C639 C 0.7147 0.89692 0.21729 0.0
C640 C 0.68064 0.88308 0.2255 0.0
C641 C 0.71414 0.88733 0.20197 0.0
C642 C 0.67952 0.86367 0.1946 0.0
C643 C 0.64543 0.85061 0.20267 0.0
C644 C 0.64598 0.8601 0.21801 0.0
C645 C 0.67893 0.85209 0.17854 0.0
C646 C 0.65927 0.86111 0.16772 0.0
C647 C 0.6986 0.83335 0.1738 0.0
C648 C 0.71846 0.82154 0.1848 0.0
C649 C 0.69889 0.79822 0.19728 0.0
C650 C 0.71789 0.78754 0.20769 0.0
C651 C 0.7564 0.79977 0.20567 0.0
C652 C 0.77598 0.82263 0.19321 0.0
C653 C 0.75712 0.83343 0.18278 0.0
H654 H 0.77106 0.79148 0.21374 0.0
H655 H 0.58893 0.89703 0.11238 0.0
H656 H 0.81465 0.74117 0.55757 0.0
H657 H 0.83244 0.74347 0.5308 0.0
H658 H 0.8038 0.62612 0.53311 0.0
H659 H 0.78666 0.62386 0.55995 0.0
H660 H 0.86984 0.66717 0.51914 0.0
H661 H 0.74589 0.65276 0.51507 0.0
H662 H 0.69531 0.66808 0.51992 0.0
H663 H 0.76361 0.77807 0.49976 0.0
H664 H 0.81486 0.7636 0.49497 0.0
H665 H 0.8578 0.62694 0.43975 0.0
H666 H 0.84285 0.62861 0.46665 0.0
H667 H 0.88862 0.74963 0.46371 0.0
H668 H 0.90412 0.74826 0.43678 0.0
H669 H 0.81581 0.70915 0.47785 0.0
H670 H 0.93909 0.72104 0.48125 0.0
H671 H 0.98765 0.70318 0.47591 0.0
H672 H 0.91777 0.59463 0.49695 0.0
H673 H 0.8685 0.61163 0.50223 0.0
C674 C 0.81194 0.7158 0.55234 0.0
C675 C 0.7992 0.68231 0.56084 0.0
C676 C 0.82201 0.71712 0.53703 0.0
C677 C 0.81916 0.68487 0.5299 0.0
C678 C 0.80627 0.65136 0.53837 0.0
C679 C 0.79634 0.65006 0.55369 0.0
C680 C 0.83036 0.68622 0.51371 0.0
C681 C 0.85766 0.67591 0.5101 0.0
C682 C 0.81511 0.69843 0.50194 0.0
C683 C 0.78438 0.70725 0.50482 0.0
C684 C 0.75027 0.68035 0.51179 0.0
C685 C 0.72145 0.68885 0.5145 0.0
C686 C 0.72629 0.72407 0.51019 0.0
C687 C 0.75993 0.75083 0.50312 0.0
C688 C 0.78886 0.74248 0.50039 0.0
C689 C 0.86485 0.65394 0.44485 0.0
C690 C 0.88218 0.6875 0.43619 0.0
C691 C 0.85637 0.65485 0.46021 0.0
C692 C 0.86478 0.68926 0.46714 0.0
C693 C 0.88195 0.72281 0.45853 0.0
C694 C 0.89091 0.722 0.4432 0.0
C695 C 0.85502 0.68993 0.48335 0.0
C696 C 0.82803 0.70059 0.48694 0.0
C697 C 0.87027 0.67772 0.49508 0.0
C698 C 0.89994 0.66748 0.492 0.0
C699 C 0.93392 0.69323 0.48462 0.0
C700 C 0.96161 0.68329 0.48163 0.0
C701 C 0.95576 0.64776 0.48605 0.0
C702 C 0.92224 0.62213 0.49352 0.0
C703 C 0.89444 0.63192 0.49652 0.0
H704 H 0.97722 0.64011 0.48372 0.0
H705 H 0.70393 0.73059 0.51229 0.0
H706 H 0.05985 0.76362 0.88848 0.0
H707 H 0.07482 0.77992 0.86143 0.0
H708 H 0.19232 0.85485 0.87296 0.0
H709 H 0.17788 0.83797 0.89988 0.0
H710 H 0.15243 0.88447 0.8522 0.0
H711 H 0.17887 0.78077 0.85956 0.0
H712 H 0.16082 0.71564 0.86738 0.0
H713 H 0.06853 0.67049 0.83541 0.0
H714 H 0.08574 0.73542 0.82756 0.0
H715 H 0.24198 0.93113 0.78031 0.0
H716 H 0.22428 0.91389 0.80698 0.0
H717 H 0.12806 0.80753 0.79269 0.0
H718 H 0.14782 0.82353 0.76614 0.0
H719 H 0.1537 0.79273 0.81529 0.0
H720 H 0.12368 0.89065 0.80666 0.0
H721 H 0.13445 0.9535 0.79879 0.0
H722 H 0.22226 0.00706 0.83244 0.0
H723 H 0.21234 0.94456 0.84038 0.0
C724 C 0.08885 0.7835 0.88522 0.0
C725 C 0.11775 0.79945 0.89624 0.0
C726 C 0.09732 0.79275 0.86981 0.0
C727 C 0.13463 0.81858 0.86529 0.0
C728 C 0.16337 0.83492 0.87629 0.0
C729 C 0.15509 0.82511 0.89162 0.0
C730 C 0.14397 0.82835 0.84904 0.0
C731 C 0.15307 0.86467 0.84408 0.0
C732 C 0.14339 0.80191 0.83848 0.0
C733 C 0.13333 0.76293 0.8431 0.0
C734 C 0.15452 0.75696 0.8543 0.0
C735 C 0.14449 0.72008 0.85872 0.0
C736 C 0.11348 0.68895 0.85193 0.0
C737 C 0.09251 0.69463 0.84067 0.0
C738 C 0.1024 0.73145 0.83623 0.0
C739 C 0.2171 0.90409 0.78294 0.0
C740 C 0.19619 0.87864 0.77126 0.0
C741 C 0.20672 0.89435 0.79817 0.0
C742 C 0.17419 0.8597 0.80196 0.0
C743 C 0.15327 0.83439 0.79018 0.0
C744 C 0.16446 0.84356 0.775 0.0
C745 C 0.16247 0.84933 0.81816 0.0
C746 C 0.15289 0.81277 0.82322 0.0
C747 C 0.16152 0.87529 0.82873 0.0
C748 C 0.16748 0.91293 0.82402 0.0
C749 C 0.14544 0.91585 0.81231 0.0
C750 C 0.15138 0.95141 0.80785 0.0
C751 C 0.17908 0.98426 0.81509 0.0
C752 C 0.20084 0.9816 0.82683 0.0
C753 C 0.19505 0.94611 0.83133 0.0
H754 H 0.18363 0.01176 0.81161 0.0
H755 H 0.10575 0.66042 0.85536 0.0
H756 H 0.21237 0.89558 0.95108 0.0
H757 H 0.25167 0.95015 0.96738 0.0
H758 H 0.19767 0.8824 0.00723 0.0
H759 H 0.1584 0.8275 0.99098 0.0
H760 H 0.19267 0.94846 0.00487 0.0
H761 H 0.2887 0.91265 0.00143 0.0
H762 H 0.33135 0.89554 0.98803 0.0
H763 H 0.38529 0.00344 0.96527 0.0
H764 H 0.34259 0.02101 0.97837 0.0
H765 H 0.28675 0.08871 0.05891 0.0
H766 H 0.26838 0.03031 0.04484 0.0
H767 H 0.32861 0.09581 0.0053 0.0
H768 H 0.34786 0.1547 0.01952 0.0
H769 H 0.33276 0.03035 0.00772 0.0
H770 H 0.237 0.06531 0.00796 0.0
H771 H 0.1939 0.08494 0.0192 0.0
H772 H 0.13825 0.98144 0.04498 0.0
H773 H 0.18148 0.96146 0.03408 0.0
C774 C 0.20953 0.89205 0.96334 0.0
C775 C 0.1822 0.85736 0.96977 0.0
C776 C 0.23209 0.92322 0.97263 0.0
C777 C 0.22757 0.92029 0.9885 0.0
C778 C 0.20161 0.88516 0.995 0.0
C779 C 0.17931 0.85382 0.98571 0.0
C780 C 0.24646 0.95482 0.99811 0.0
C781 C 0.22331 0.96591 0.00576 0.0
C782 C 0.2864 0.97847 0.99864 0.0
C783 C 0.31221 0.96801 0.9908 0.0
C784 C 0.30943 0.93261 0.99347 0.0
C785 C 0.33367 0.92286 0.98595 0.0
C786 C 0.36095 0.94835 0.97578 0.0
C787 C 0.36412 0.98371 0.97314 0.0
C788 C 0.33994 0.99359 0.98063 0.0
C789 C 0.29679 0.09072 0.04732 0.0
C790 C 0.31832 0.12619 0.04023 0.0
C791 C 0.28622 0.05733 0.03929 0.0
C792 C 0.29643 0.05873 0.02393 0.0
C793 C 0.32031 0.09412 0.01713 0.0
C794 C 0.33125 0.12771 0.02525 0.0
C795 C 0.27888 0.02348 0.01469 0.0
C796 C 0.30215 0.01254 0.00698 0.0
C797 C 0.23891 0.00024 0.01377 0.0
C798 C 0.21276 0.01208 0.02033 0.0
C799 C 0.21578 0.04688 0.01613 0.0
C800 C 0.19129 0.05805 0.02242 0.0
C801 C 0.16341 0.03449 0.03282 0.0
C802 C 0.1599 0.99968 0.03694 0.0
C803 C 0.18439 0.98841 0.0307 0.0
H804 H 0.14446 0.04317 0.03768 0.0
H805 H 0.37968 0.94074 0.96997 0.0
H806 H 0.16818 0.33275 0.34666 0.0
H807 H 0.20863 0.31494 0.33224 0.0
H808 H 0.2381 0.2793 0.37382 0.0
H809 H 0.19706 0.29617 0.38824 0.0
H810 H 0.30057 0.31805 0.35228 0.0
H811 H 0.17402 0.2146 0.35635 0.0
H812 H 0.10418 0.18013 0.35474 0.0
H813 H 0.11062 0.20033 0.30652 0.0
H814 H 0.18063 0.23577 0.30791 0.0
H815 H 0.34107 0.17606 0.32196 0.0
H816 H 0.32194 0.2153 0.33652 0.0
H817 H 0.28303 0.24199 0.29511 0.0
H818 H 0.3019 0.20298 0.28058 0.0
H819 H 0.22782 0.21033 0.31693 0.0
H820 H 0.35836 0.31018 0.31381 0.0
H821 H 0.42755 0.33854 0.31698 0.0
H822 H 0.41296 0.31873 0.36521 0.0
H823 H 0.3436 0.28976 0.3623 0.0
C824 C 0.18396 0.32192 0.35275 0.0
C825 C 0.17937 0.3156 0.36854 0.0
C826 C 0.20696 0.31171 0.34452 0.0
C827 C 0.22616 0.29566 0.35199 0.0
C828 C 0.22362 0.29175 0.36788 0.0
C829 C 0.20006 0.30124 0.37607 0.0
C830 C 0.24541 0.27922 0.34308 0.0
C831 C 0.28476 0.2944 0.34458 0.0
C832 C 0.22465 0.24833 0.3331 0.0
C833 C 0.18258 0.22836 0.33227 0.0
C834 C 0.16057 0.21229 0.34544 0.0
C835 C 0.12095 0.19245 0.34457 0.0
C836 C 0.10298 0.18808 0.33055 0.0
C837 C 0.1246 0.2038 0.31738 0.0
C838 C 0.16425 0.22383 0.31821 0.0
C839 C 0.32936 0.19111 0.31594 0.0
C840 C 0.32268 0.1862 0.30016 0.0
C841 C 0.31848 0.21354 0.32426 0.0
C842 C 0.30094 0.23144 0.31689 0.0
C843 C 0.29639 0.22833 0.30102 0.0
C844 C 0.30725 0.20605 0.29273 0.0
C845 C 0.28329 0.24964 0.32577 0.0
C846 C 0.24392 0.23441 0.32441 0.0
C847 C 0.30403 0.27996 0.33604 0.0
C848 C 0.34573 0.29747 0.33781 0.0
C849 C 0.36986 0.31157 0.32507 0.0
C850 C 0.40913 0.32782 0.32683 0.0
C851 C 0.42463 0.33035 0.34128 0.0
C852 C 0.40091 0.31672 0.35402 0.0
C853 C 0.36162 0.30042 0.35232 0.0
H854 H 0.45504 0.34294 0.34262 0.0
H855 H 0.07231 0.17234 0.32989 0.0
H856 H 0.83841 0.20142 0.69027 0.0
H857 H 0.89348 0.245 0.67476 0.0
H858 H 0.96264 0.20889 0.69878 0.0
H859 H 0.90868 0.16687 0.7145 0.0
H860 H 0.00389 0.28006 0.69316 0.0
H861 H 0.91644 0.1688 0.66372 0.0
H862 H 0.85489 0.12526 0.65167 0.0
H863 H 0.8614 0.21757 0.6255 0.0
H864 H 0.92284 0.26172 0.63755 0.0
H865 H 0.09543 0.24742 0.62305 0.0
H866 H 0.0398 0.23483 0.63777 0.0
H867 H 0.09513 0.35218 0.65188 0.0
H868 H 0.15212 0.36463 0.63751 0.0
H869 H 0.99024 0.25565 0.63752 0.0
H870 H 0.06318 0.35641 0.68761 0.0
H871 H 0.12562 0.39027 0.70035 0.0
H872 H 0.14986 0.30351 0.68618 0.0
H873 H 0.08743 0.269 0.6735 0.0
C874 C 0.86558 0.20338 0.69237 0.0
C875 C 0.86914 0.18049 0.7035 0.0
C876 C 0.89698 0.22816 0.68348 0.0
C877 C 0.93219 0.22991 0.68545 0.0
C878 C 0.93595 0.20827 0.69704 0.0
C879 C 0.90489 0.18399 0.70598 0.0
C880 C 0.96453 0.25142 0.67482 0.0
C881 C 0.00081 0.27518 0.68095 0.0
C882 C 0.96075 0.24503 0.65889 0.0
C883 C 0.92388 0.21859 0.65167 0.0
C884 C 0.90458 0.17982 0.65548 0.0
C885 C 0.86976 0.15504 0.64864 0.0
C886 C 0.85417 0.16867 0.63787 0.0
C887 C 0.87345 0.20708 0.63388 0.0
C888 C 0.90825 0.23199 0.6407 0.0
C889 C 0.09581 0.2707 0.6292 0.0
C890 C 0.12829 0.30696 0.62923 0.0
C891 C 0.06378 0.2635 0.63756 0.0
C892 C 0.06318 0.29243 0.64606 0.0
C893 C 0.09506 0.32921 0.64562 0.0
C894 C 0.12756 0.33634 0.63738 0.0
C895 C 0.0298 0.28269 0.65596 0.0
C896 C 0.99326 0.2615 0.64966 0.0
C897 C 0.03349 0.29015 0.67182 0.0
C898 C 0.07095 0.31049 0.67945 0.0
C899 C 0.08187 0.3446 0.68723 0.0
C900 C 0.11722 0.36388 0.69444 0.0
C901 C 0.14176 0.34913 0.69402 0.0
C902 C 0.13091 0.31499 0.68644 0.0
C903 C 0.09557 0.29558 0.67924 0.0
H904 H 0.16913 0.36412 0.69959 0.0
H905 H 0.82722 0.14944 0.63258 0.0
H906 H 0.64983 0.83204 0.01294 0.0
H907 H 0.66752 0.8881 0.99711 0.0
H908 H 0.71831 0.96044 0.03615 0.0
H909 H 0.70138 0.90465 0.05197 0.0
H910 H 0.67902 0.98502 0.01385 0.0
H911 H 0.77346 0.94446 0.01785 0.0
H912 H 0.79186 0.89523 0.01604 0.0
H913 H 0.76074 0.87868 0.96875 0.0
H914 H 0.74133 0.92723 0.97038 0.0
H915 H 0.82575 0.15985 0.98434 0.0
H916 H 0.7833 0.10146 0.99811 0.0
H917 H 0.7698 0.0361 0.95744 0.0
H918 H 0.81372 0.09423 0.94392 0.0
H919 H 0.78379 0.00454 0.97922 0.0
H920 H 0.69606 0.04908 0.97352 0.0
H921 H 0.67271 0.09451 0.97477 0.0
H922 H 0.68652 0.1013 0.02338 0.0
H923 H 0.71045 0.05629 0.02241 0.0
C924 C 0.66367 0.85981 0.01824 0.0
C925 C 0.67461 0.86413 0.03363 0.0
C926 C 0.67377 0.89175 0.00919 0.0
C927 C 0.69444 0.92829 0.01547 0.0
C928 C 0.70228 0.93244 0.03113 0.0
C929 C 0.69275 0.90059 0.04012 0.0
C930 C 0.71298 0.96197 0.00546 0.0
C931 C 0.70202 0.98956 0.00628 0.0
C932 C 0.74238 0.9672 0.99541 0.0
C933 C 0.75545 0.93909 0.99429 0.0
C934 C 0.77025 0.9301 0.0071 0.0
C935 C 0.7808 0.90229 0.00611 0.0
C936 C 0.77714 0.88362 0.99232 0.0
C937 C 0.76331 0.893 0.97945 0.0
C938 C 0.75252 0.92065 0.9804 0.0
C939 C 0.81318 0.13305 0.9783 0.0
C940 C 0.82305 0.13148 0.9631 0.0
C941 C 0.78874 0.09965 0.98615 0.0
C942 C 0.77295 0.06421 0.97881 0.0
C943 C 0.78166 0.06296 0.96341 0.0
C944 C 0.80666 0.09621 0.95567 0.0
C945 C 0.75 0.02829 0.98745 0.0
C946 C 0.76039 0.00016 0.98652 0.0
C947 C 0.71976 0.02246 0.99723 0.0
C948 C 0.70535 0.04953 0.99787 0.0
C949 C 0.69439 0.06047 0.98447 0.0
C950 C 0.681 0.08612 0.98513 0.0
C951 C 0.67821 0.10085 0.99915 0.0
C952 C 0.68872 0.08989 0.01254 0.0
C953 C 0.70215 0.06427 0.01194 0.0
H954 H 0.66784 0.1207 0.99963 0.0
H955 H 0.78533 0.86211 0.99157 0.0
H956 H 0.64904 0.81016 0.31238 0.0
H957 H 0.66405 0.76841 0.3273 0.0
H958 H 0.73116 0.76451 0.29001 0.0
H959 H 0.71593 0.80572 0.27501 0.0
H960 H 0.69392 0.6964 0.30461 0.0
H961 H 0.77283 0.82838 0.31779 0.0
H962 H 0.78519 0.89148 0.32611 0.0
H963 H 0.72761 0.84386 0.36835 0.0
H964 H 0.71441 0.78032 0.36017 0.0
H965 H 0.83946 0.67596 0.34132 0.0
H966 H 0.79869 0.69214 0.32639 0.0
H967 H 0.73894 0.6904 0.36728 0.0
H968 H 0.77977 0.67453 0.38228 0.0
H969 H 0.76501 0.75611 0.35211 0.0
H970 H 0.69423 0.62422 0.33948 0.0
H971 H 0.68478 0.56265 0.3305 0.0
H972 H 0.73045 0.61134 0.28675 0.0
H973 H 0.74068 0.67338 0.29553 0.0
C974 C 0.66626 0.79967 0.30724 0.0
C975 C 0.68165 0.81152 0.2926 0.0
C976 C 0.67493 0.77595 0.31579 0.0
C977 C 0.69923 0.76387 0.30985 0.0
C978 C 0.71242 0.77354 0.29484 0.0
C979 C 0.7038 0.79723 0.2863 0.0
C980 C 0.71406 0.74446 0.31966 0.0
C981 C 0.70955 0.70942 0.31499 0.0
C982 C 0.73406 0.7613 0.33329 0.0
C983 C 0.74223 0.79953 0.33829 0.0
C984 C 0.76255 0.83132 0.3288 0.0
C985 C 0.76974 0.86717 0.3335 0.0
C986 C 0.75708 0.87166 0.34773 0.0
C987 C 0.73732 0.84032 0.35731 0.0
C988 C 0.72998 0.80438 0.35266 0.0
C989 C 0.81701 0.67807 0.34707 0.0
C990 C 0.81293 0.67414 0.36298 0.0
C991 C 0.79367 0.68726 0.33852 0.0
C992 C 0.76573 0.69249 0.34572 0.0
C993 C 0.76035 0.68659 0.36149 0.0
C994 C 0.78362 0.67737 0.37004 0.0
C995 C 0.745 0.70793 0.33709 0.0
C996 C 0.74871 0.74254 0.34193 0.0
C997 C 0.72468 0.69085 0.32355 0.0
C998 C 0.71849 0.65355 0.31821 0.0
C999 C 0.70254 0.62189 0.32798 0.0
C1000 C 0.69698 0.58688 0.32292 0.0
C1001 C 0.70707 0.5831 0.30807 0.0
C1002 C 0.72266 0.61432 0.29825 0.0
C1003 C 0.7283 0.6494 0.30325 0.0
H1004 H 0.70275 0.55598 0.30417 0.0
H1005 H 0.76268 0.89945 0.35135 0.0
H1006 H 0.09322 0.80818 0.71815 0.0
H1007 H 0.03886 0.76706 0.70208 0.0
H1008 H 0.11444 0.78363 0.66468 0.0
H1009 H 0.16923 0.82447 0.68085 0.0
H1010 H 0.0566 0.8017 0.65837 0.0
H1011 H 0.06813 0.69908 0.67911 0.0
H1012 H 0.07435 0.66099 0.69956 0.0
H1013 H 0.96736 0.63796 0.71832 0.0
H1014 H 0.96074 0.67638 0.6981 0.0
H1015 H 0.90448 0.69576 0.60945 0.0
H1016 H 0.96261 0.71316 0.62366 0.0
H1017 H 0.89969 0.68544 0.66582 0.0
H1018 H 0.84109 0.66647 0.65155 0.0
H1019 H 0.95474 0.66925 0.66829 0.0
H1020 H 0.94616 0.77691 0.65146 0.0
H1021 H 0.93849 0.81805 0.63287 0.0
H1022 H 0.03827 0.83553 0.60907 0.0
H1023 H 0.04621 0.79401 0.62742 0.0
C1024 C 0.09831 0.80247 0.70659 0.0
C1025 C 0.1354 0.81957 0.70071 0.0
C1026 C 0.06725 0.77885 0.69745 0.0
C1027 C 0.07266 0.77221 0.68223 0.0
C1028 C 0.10974 0.78829 0.67644 0.0
C1029 C 0.14096 0.81149 0.68568 0.0
C1030 C 0.03937 0.7518 0.67205 0.0
C1031 C 0.03474 0.77242 0.66028 0.0
C1032 C 0.01028 0.71413 0.67498 0.0
C1033 C 0.01408 0.69087 0.68713 0.0
C1034 C 0.04607 0.68616 0.68766 0.0
C1035 C 0.04964 0.66445 0.6992 0.0
C1036 C 0.0213 0.64713 0.71025 0.0
C1037 C 0.98929 0.65141 0.70975 0.0
C1038 C 0.9856 0.67311 0.69824 0.0
C1039 C 0.90292 0.69255 0.62173 0.0
C1040 C 0.8684 0.68015 0.62943 0.0
C1041 C 0.93618 0.70268 0.62984 0.0
C1042 C 0.93575 0.70162 0.64584 0.0
C1043 C 0.9008 0.68671 0.65349 0.0
C1044 C 0.86732 0.67588 0.64534 0.0
C1045 C 0.97192 0.71919 0.65459 0.0
C1046 C 0.97694 0.69825 0.66616 0.0
C1047 C 0.00116 0.75697 0.65173 0.0
C1048 C 0.99651 0.78199 0.6407 0.0
C1049 C 0.96629 0.78929 0.64219 0.0
C1050 C 0.96192 0.81271 0.63171 0.0
C1051 C 0.98781 0.8293 0.61976 0.0
C1052 C 0.01819 0.82259 0.6183 0.0
C1053 C 0.02264 0.79912 0.62874 0.0
H1054 H 0.98439 0.84743 0.61166 0.0
H1055 H 0.02412 0.63033 0.71918 0.0
H1056 H 0.97943 0.2319 0.98809 0.0
H1057 H 0.02966 0.22997 0.00256 0.0
H1058 H 0.07319 0.20854 0.96118 0.0
H1059 H 0.02232 0.20976 0.9466 0.0
H1060 H 0.07234 0.16405 0.98435 0.0
H1061 H 0.11648 0.29627 0.97682 0.0
H1062 H 0.11199 0.35454 0.97729 0.0
H1063 H 0.09851 0.34582 0.02591 0.0
H1064 H 0.10234 0.28715 0.0257 0.0
H1065 H 0.25355 0.21156 0.01379 0.0
H1066 H 0.20217 0.21084 0.99908 0.0
H1067 H 0.15351 0.22548 0.04042 0.0
H1068 H 0.20502 0.22626 0.05527 0.0
H1069 H 0.15755 0.27353 0.01704 0.0
H1070 H 0.11344 0.14091 0.02434 0.0
H1071 H 0.11877 0.08315 0.02365 0.0
H1072 H 0.13353 0.0935 0.97511 0.0
H1073 H 0.12884 0.15169 0.97552 0.0
C1074 C 0.99966 0.22673 0.98205 0.0
C1075 C 0.99714 0.22122 0.96619 0.0
C1076 C 0.02842 0.22575 0.99034 0.0
C1077 C 0.05549 0.21968 0.98292 0.0
C1078 C 0.05263 0.21339 0.96711 0.0
C1079 C 0.02368 0.21421 0.9588 0.0
C1080 C 0.0869 0.22027 0.99171 0.0
C1081 C 0.09132 0.18819 0.99133 0.0
C1082 C 0.11117 0.25152 0.00104 0.0
C1083 C 0.10936 0.2871 0.00123 0.0
C1084 C 0.1123 0.30662 0.9876 0.0
C1085 C 0.10991 0.33975 0.98782 0.0
C1086 C 0.10487 0.35381 0.00161 0.0
C1087 C 0.10236 0.33486 0.01523 0.0
C1088 C 0.10468 0.30169 0.01507 0.0
C1089 C 0.23189 0.21457 0.01976 0.0
C1090 C 0.23322 0.21892 0.03568 0.0
C1091 C 0.20251 0.21404 0.01135 0.0
C1092 C 0.17394 0.21783 0.01869 0.0
C1093 C 0.17532 0.22247 0.03457 0.0
C1094 C 0.20463 0.22278 0.04302 0.0
C1095 C 0.14283 0.21728 0.00972 0.0
C1096 C 0.13854 0.24941 0.01006 0.0
C1097 C 0.11883 0.18617 0.0003 0.0
C1098 C 0.12114 0.15088 -2e-05 0.0
C1099 C 0.1181 0.13104 0.01353 0.0
C1100 C 0.12097 0.09819 0.01319 0.0
C1101 C 0.12659 0.08471 0.99935 0.0
C1102 C 0.12922 0.104 0.98582 0.0
C1103 C 0.12642 0.13689 0.9861 0.0
H1104 H 0.12884 0.0593 0.99912 0.0
H1105 H 0.10298 0.37943 0.00176 0.0
H1106 H 0.78247 0.94889 0.31051 0.0
H1107 H 0.83478 0.99849 0.32525 0.0
H1108 H 0.83343 0.08398 0.29646 0.0
H1109 H 0.78282 0.03419 0.28112 0.0
H1110 H 0.90192 0.10538 0.30274 0.0
H1111 H 0.78934 0.05753 0.33375 0.0
H1112 H 0.73261 0.00762 0.34687 0.0
H1113 H 0.80285 0.97885 0.37377 0.0
H1114 H 0.85999 0.02841 0.36071 0.0
H1115 H 0.99529 0.26339 0.35168 0.0
H1116 H 0.94739 0.2108 0.3366 0.0
H1117 H 0.96102 0.13133 0.36472 0.0
H1118 H 0.00795 0.184 0.3803 0.0
H1119 H 0.88861 0.10536 0.35893 0.0
H1120 H 0.00309 0.16254 0.32843 0.0
H1121 H 0.05682 0.21574 0.3151 0.0
H1122 H 0.97928 0.23011 0.28657 0.0
H1123 H 0.92506 0.17795 0.3 0.0
C1124 C 0.79367 0.9783 0.30728 0.0
C1125 C 0.7786 0.98786 0.29476 0.0
C1126 C 0.82335 0.00666 0.31577 0.0
C1127 C 0.83748 0.04514 0.31225 0.0
C1128 C 0.82302 0.05456 0.29946 0.0
C1129 C 0.79407 0.02614 0.29071 0.0
C1130 C 0.86673 0.07566 0.32201 0.0
C1131 C 0.89878 0.10556 0.31501 0.0
C1132 C 0.86309 0.07566 0.33807 0.0
C1133 C 0.82887 0.04644 0.34617 0.0
C1134 C 0.79266 0.04047 0.34243 0.0
C1135 C 0.76044 0.01226 0.34986 0.0
C1136 C 0.76412 0.99001 0.36112 0.0
C1137 C 0.80005 0.99608 0.36504 0.0
C1138 C 0.83236 0.02426 0.35765 0.0
C1139 C 0.98799 0.23468 0.35467 0.0
C1140 C 0.00544 0.22772 0.36709 0.0
C1141 C 0.96077 0.20466 0.34599 0.0
C1142 C 0.95124 0.16714 0.34928 0.0
C1143 C 0.9681 0.16007 0.3619 0.0
C1144 C 0.99489 0.19012 0.37078 0.0
C1145 C 0.92354 0.13531 0.33962 0.0
C1146 C 0.89183 0.1051 0.34666 0.0
C1147 C 0.92714 0.13547 0.32355 0.0
C1148 C 0.95995 0.16641 0.31531 0.0
C1149 C 0.99747 0.17716 0.31937 0.0
C1150 C 0.02802 0.20713 0.3118 0.0
C1151 C 0.02147 0.22615 0.29999 0.0
C1152 C 0.98433 0.21533 0.29572 0.0
C1153 C 0.95367 0.18561 0.30332 0.0
H1154 H 0.04519 0.2493 0.29415 0.0
H1155 H 0.73914 0.96813 0.36683 0.0
H1156 H 0.74461 0.73597 0.6488 0.0
H1157 H 0.74646 0.78813 0.6632 0.0
H1158 H 0.82955 0.86859 0.63184 0.0
H1159 H 0.82651 0.81611 0.61697 0.0
H1160 H 0.7972 0.84285 0.67866 0.0
H1161 H 0.82105 0.94713 0.62928 0.0
H1162 H 0.80651 0.94531 0.60188 0.0
H1163 H 0.71048 0.83326 0.6071 0.0
H1164 H 0.72416 0.83461 0.63455 0.0
H1165 H 0.83388 0.01629 0.71226 0.0
H1166 H 0.83807 0.96823 0.69693 0.0
H1167 H 0.73486 0.94371 0.67348 0.0
H1168 H 0.73206 0.99333 0.68812 0.0
H1169 H 0.77912 0.94236 0.65394 0.0
H1170 H 0.74005 0.88592 0.70348 0.0
H1171 H 0.74414 0.88169 0.73139 0.0
H1172 H 0.85186 0.88704 0.72676 0.0
H1173 H 0.8486 0.89176 0.69882 0.0
C1174 C 0.76322 0.76478 0.64495 0.0
C1175 C 0.78527 0.77204 0.63173 0.0
C1176 C 0.76437 0.7946 0.65322 0.0
C1177 C 0.78789 0.83234 0.64856 0.0
C1178 C 0.81061 0.8397 0.63551 0.0
C1179 C 0.80899 0.80975 0.62706 0.0
C1180 C 0.78823 0.86368 0.65738 0.0
C1181 C 0.79331 0.86465 0.67324 0.0
C1182 C 0.78255 0.89183 0.65039 0.0
C1183 C 0.77393 0.89083 0.63392 0.0
C1184 C 0.79679 0.92215 0.62457 0.0
C1185 C 0.7887 0.92119 0.60904 0.0
C1186 C 0.75768 0.88913 0.60274 0.0
C1187 C 0.73459 0.85801 0.61198 0.0
C1188 C 0.74253 0.85884 0.62752 0.0
C1189 C 0.81215 0.00056 0.70383 0.0
C1190 C 0.78256 0.00828 0.70139 0.0
C1191 C 0.81444 0.97299 0.69511 0.0
C1192 C 0.78642 0.95178 0.68419 0.0
C1193 C 0.7569 0.95968 0.68178 0.0
C1194 C 0.75519 0.9879 0.6902 0.0
C1195 C 0.7876 0.92128 0.67527 0.0
C1196 C 0.78312 0.92064 0.65937 0.0
C1197 C 0.79228 0.89252 0.6823 0.0
C1198 C 0.79426 0.88958 0.69908 0.0
C1199 C 0.76471 0.88644 0.70843 0.0
C1200 C 0.76687 0.88392 0.72425 0.0
C1201 C 0.79829 0.8842 0.73084 0.0
C1202 C 0.82757 0.88689 0.72163 0.0
C1203 C 0.82557 0.88946 0.70581 0.0
H1204 H 0.7999 0.88225 0.74309 0.0
H1205 H 0.75148 0.88844 0.59072 0.0
H1206 H 0.80299 0.78249 0.04821 0.0
H1207 H 0.8556 0.78837 0.03255 0.0
H1208 H 0.80103 0.7993 0.99224 0.0
H1209 H 0.74855 0.79355 0.0078 0.0
H1210 H 0.85397 0.7426 0.00985 0.0
H1211 H 0.87096 0.85911 0.96711 0.0
H1212 H 0.86378 0.91586 0.96649 0.0
H1213 H 0.88155 0.92919 0.01484 0.0
H1214 H 0.88945 0.87294 0.01573 0.0
H1215 H 0.96218 0.74056 0.94774 0.0
H1216 H 0.9115 0.74386 0.96148 0.0
H1217 H 0.99419 0.85011 0.98171 0.0
H1218 H 0.04487 0.84729 0.96785 0.0
H1219 H 0.9295 0.85058 0.97491 0.0
H1220 H 0.96489 0.76862 0.00085 0.0
H1221 H 0.97668 0.71489 0.00288 0.0
H1222 H 0.86043 0.6372 0.99126 0.0
H1223 H 0.84809 0.69057 0.98895 0.0
C1224 C 0.80235 0.78633 0.03603 0.0
C1225 C 0.77165 0.78742 0.02921 0.0
C1226 C 0.83232 0.7896 0.02709 0.0
C1227 C 0.83229 0.79447 0.01125 0.0
C1228 C 0.80182 0.79596 0.00446 0.0
C1229 C 0.77177 0.79245 0.01336 0.0
C1230 C 0.86343 0.79664 0.00173 0.0
C1231 C 0.87045 0.76621 0.00221 0.0
C1232 C 0.88519 0.82765 0.99188 0.0
C1233 C 0.88048 0.86157 0.99149 0.0
C1234 C 0.8735 0.87424 0.9776 0.0
C1235 C 0.86937 0.90637 0.9772 0.0
C1236 C 0.87234 0.92618 0.99061 0.0
C1237 C 0.87932 0.91385 0.00446 0.0
C1238 C 0.88354 0.88179 0.00492 0.0
C1239 C 0.96946 0.76497 0.95489 0.0
C1240 C 0.0075 0.7935 0.95683 0.0
C1241 C 0.94052 0.76674 0.96278 0.0
C1242 C 0.94918 0.79692 0.97282 0.0
C1243 C 0.98689 0.82654 0.97406 0.0
C1244 C 0.01582 0.82483 0.96615 0.0
C1245 C 0.91953 0.79625 0.98287 0.0
C1246 C 0.91281 0.82691 0.9825 0.0
C1247 C 0.89844 0.76578 0.99303 0.0
C1248 C 0.90567 0.73361 0.99459 0.0
C1249 C 0.94191 0.7401 0.99864 0.0
C1250 C 0.94868 0.70971 -0.00015 0.0
C1251 C 0.91935 0.67266 0.99717 0.0
C1252 C 0.88314 0.66592 0.99331 0.0
C1253 C 0.87623 0.69622 0.99206 0.0
H1254 H 0.92465 0.64917 0.9981 0.0
H1255 H 0.86901 0.95097 0.99029 0.0
H1256 H 0.95662 0.81248 0.36961 0.0
H1257 H 0.00582 0.8676 0.35567 0.0
H1258 H 0.0774 0.81729 0.35588 0.0
H1259 H 0.02847 0.76225 0.36958 0.0
H1260 H 0.11541 0.89575 0.36354 0.0
H1261 H 0.02802 0.80855 0.32531 0.0
H1262 H 0.96464 0.77092 0.31368 0.0
H1263 H 0.95809 0.87219 0.30732 0.0
H1264 H 0.02127 0.91035 0.31911 0.0
H1265 H 0.25467 0.98346 0.30824 0.0
H1266 H 0.20086 0.93786 0.32342 0.0
H1267 H 0.13607 0.99011 0.30902 0.0
H1268 H 0.1895 0.03465 0.29307 0.0
H1269 H 0.0913 0.9179 0.31012 0.0
H1270 H 0.17967 0.00694 0.34529 0.0
H1271 H 0.2419 0.04678 0.35751 0.0
H1272 H 0.24534 0.94701 0.37092 0.0
H1273 H 0.18337 0.90655 0.3586 0.0
C1274 C 0.98302 0.81344 0.36679 0.0
C1275 C 0.98875 0.78311 0.37062 0.0
C1276 C 0.01096 0.84479 0.35881 0.0
C1277 C 0.04508 0.84631 0.35471 0.0
C1278 C 0.05126 0.81661 0.35896 0.0
C1279 C 0.02325 0.78517 0.36674 0.0
C1280 C 0.07414 0.87805 0.34553 0.0
C1281 C 0.1103 0.90061 0.35184 0.0
C1282 C 0.06687 0.88513 0.33048 0.0
C1283 C 0.02914 0.86222 0.32325 0.0
C1284 C 0.01293 0.82274 0.32154 0.0
C1285 C 0.97707 0.80132 0.3149 0.0
C1286 C 0.9573 0.81913 0.30981 0.0
C1287 C 0.97341 0.85842 0.31129 0.0
C1288 C 0.00924 0.87995 0.31795 0.0
C1289 C 0.22885 0.98505 0.30824 0.0
C1290 C 0.22623 0.01266 0.2996 0.0
C1291 C 0.1982 0.95919 0.31702 0.0
C1292 C 0.16474 0.96124 0.31776 0.0
C1293 C 0.16167 0.98815 0.30874 0.0
C1294 C 0.19214 0.01355 0.29964 0.0
C1295 C 0.13323 0.93516 0.32796 0.0
C1296 C 0.0965 0.91367 0.32188 0.0
C1297 C 0.1398 0.92951 0.34335 0.0
C1298 C 0.17694 0.95372 0.35094 0.0
C1299 C 0.19378 0.99349 0.35078 0.0
C1300 C 0.22901 0.01619 0.35773 0.0
C1301 C 0.24758 0.99944 0.36497 0.0
C1302 C 0.23092 0.95995 0.36531 0.0
C1303 C 0.19571 0.93711 0.35836 0.0
H1304 H 0.27487 0.01706 0.37033 0.0
H1305 H 0.92954 0.80251 0.30467 0.0
H1306 H 0.18275 0.99812 0.7169 0.0
H1307 H 0.18203 0.04908 0.70215 0.0
H1308 H 0.26071 0.04622 0.66995 0.0
H1309 H 0.26138 0.99536 0.68449 0.0
H1310 H 0.28076 0.11918 0.67875 0.0
H1311 H 0.17142 0.00589 0.66038 0.0
H1312 H 0.11055 0.946 0.66284 0.0
H1313 H 0.05928 0.00627 0.6825 0.0
H1314 H 0.12005 0.0665 0.68036 0.0
H1315 H 0.20082 0.1894 0.61415 0.0
H1316 H 0.19969 0.13803 0.62914 0.0
H1317 H 0.24385 0.2126 0.668 0.0
H1318 H 0.2453 0.26408 0.65308 0.0
H1319 H 0.16234 0.10306 0.65545 0.0
H1320 H 0.30506 0.19194 0.68681 0.0
H1321 H 0.36682 0.25018 0.68288 0.0
H1322 H 0.35295 0.23548 0.6344 0.0
H1323 H 0.29141 0.1769 0.63805 0.0
C1324 C 0.1999 0.00844 0.70669 0.0
C1325 C 0.22205 0.99276 0.70181 0.0
C1326 C 0.19939 0.03741 0.69827 0.0
C1327 C 0.22123 0.05124 0.68495 0.0
C1328 C 0.24372 0.03595 0.68021 0.0
C1329 C 0.24394 0.00681 0.6885 0.0
C1330 C 0.22068 0.08157 0.67583 0.0
C1331 C 0.25485 0.11575 0.67371 0.0
C1332 C 0.18696 0.07677 0.66908 0.0
C1333 C 0.15039 0.04063 0.67036 0.0
C1334 C 0.14726 0.00633 0.66535 0.0
C1335 C 0.11276 0.97233 0.66666 0.0
C1336 C 0.08109 0.97231 0.67286 0.0
C1337 C 0.08385 0.00632 0.67773 0.0
C1338 C 0.1183 0.04039 0.67646 0.0
C1339 C 0.21031 0.19482 0.62588 0.0
C1340 C 0.22335 0.23078 0.63242 0.0
C1341 C 0.20947 0.16543 0.63444 0.0
C1342 C 0.22193 0.17162 0.64964 0.0
C1343 C 0.23451 0.20737 0.65624 0.0
C1344 C 0.23527 0.23672 0.64771 0.0
C1345 C 0.22237 0.14086 0.65851 0.0
C1346 C 0.18819 0.10661 0.66059 0.0
C1347 C 0.2562 0.14538 0.66505 0.0
C1348 C 0.29345 0.18027 0.66272 0.0
C1349 C 0.31528 0.20107 0.67532 0.0
C1350 C 0.35023 0.23415 0.67313 0.0
C1351 C 0.36374 0.24659 0.6584 0.0
C1352 C 0.34239 0.2259 0.64581 0.0
C1353 C 0.30745 0.19278 0.64793 0.0
H1354 H 0.39078 0.27222 0.65673 0.0
H1355 H 0.0544 0.94596 0.67386 0.0
loop_
_geom_bond_atom_site_label_1
_geom_bond_atom_site_label_2
_geom_bond_distance
_geom_bond_site_symmetry_2
_ccdc_geom_bond_type
In0 O1 2.294 . S
In0 O2 2.326 . S
In0 O6 2.266 . S
In0 O7 2.326 . S
In0 O8 2.266 . S
In0 O9 2.326 . S
In0 O11 2.294 . S
In0 O12 2.326 . S
O1 In0 2.294 . S
O1 C10 1.240 . S
O2 In0 2.326 . S
O2 C10 1.252 . S
C3 O6 1.252 . S
C3 O7 1.260 . S
C4 O11 1.240 . S
C4 O12 1.252 . S
C5 O8 1.252 . S
C5 O9 1.260 . S
O6 In0 2.266 . S
O6 C3 1.252 . S
O7 In0 2.326 . S
O7 C3 1.260 . S
O8 In0 2.266 . S
O8 C5 1.252 . S
O9 In0 2.326 . S
O9 C5 1.260 . S
C10 O1 1.240 . S
C10 O2 1.252 . S
O11 In0 2.294 . S
O11 C4 1.240 . S
O12 In0 2.326 . S
O12 C4 1.252 . S
In13 O14 2.294 . S
In13 O15 2.326 . S
In13 O19 2.266 . S
In13 O20 2.326 . S
In13 O21 2.266 . S
In13 O22 2.326 . S
In13 O24 2.294 . S
In13 O25 2.326 . S
O14 In13 2.294 . S
O14 C23 1.240 . S
O15 In13 2.326 . S
O15 C23 1.252 . S
C16 O19 1.252 . S
C16 O20 1.260 . S
C17 O24 1.240 . S
C17 O25 1.252 . S
C18 O21 1.252 . S
C18 O22 1.260 . S
O19 In13 2.266 . S
O19 C16 1.252 . S
O20 In13 2.326 . S
O20 C16 1.260 . S
O21 In13 2.266 . S
O21 C18 1.252 . S
O22 In13 2.326 . S
O22 C18 1.260 . S
C23 O14 1.240 . S
C23 O15 1.252 . S
O24 In13 2.294 . S
O24 C17 1.240 . S
O25 In13 2.326 . S
O25 C17 1.252 . S
In26 O27 2.294 . S
In26 O28 2.326 . S
In26 O32 2.266 . S
In26 O33 2.326 . S
In26 O34 2.266 . S
In26 O35 2.326 . S
In26 O37 2.294 . S
In26 O38 2.326 . S
O27 In26 2.294 . S
O27 C36 1.240 . S
O28 In26 2.326 . S
O28 C36 1.252 . S
C29 O32 1.252 . S
C29 O33 1.260 . S
C30 O37 1.240 . S
C30 O38 1.252 . S
C31 O34 1.252 . S
C31 O35 1.260 . S
O32 In26 2.266 . S
O32 C29 1.252 . S
O33 In26 2.326 . S
O33 C29 1.260 . S
O34 In26 2.266 . S
O34 C31 1.252 . S
O35 In26 2.326 . S
O35 C31 1.260 . S
C36 O27 1.240 . S
C36 O28 1.252 . S
O37 In26 2.294 . S
O37 C30 1.240 . S
O38 In26 2.326 . S
O38 C30 1.252 . S
In39 O40 2.294 . S
In39 O41 2.326 . S
In39 O45 2.266 . S
In39 O46 2.326 . S
In39 O47 2.266 . S
In39 O48 2.326 . S
In39 O50 2.294 . S
In39 O51 2.326 . S
O40 In39 2.294 . S
O40 C49 1.240 . S
O41 In39 2.326 . S
O41 C49 1.252 . S
C42 O45 1.252 . S
C42 O46 1.260 . S
C43 O50 1.240 . S
C43 O51 1.252 . S
C44 O47 1.252 . S
C44 O48 1.260 . S
O45 In39 2.266 . S
O45 C42 1.252 . S
O46 In39 2.326 . S
O46 C42 1.260 . S
O47 In39 2.266 . S
O47 C44 1.252 . S
O48 In39 2.326 . S
O48 C44 1.260 . S
C49 O40 1.240 . S
C49 O41 1.252 . S
O50 In39 2.294 . S
O50 C43 1.240 . S
O51 In39 2.326 . S
O51 C43 1.252 . S
In52 O53 2.294 . S
In52 O54 2.326 . S
In52 O58 2.266 . S
In52 O59 2.326 . S
In52 O60 2.266 . S
In52 O61 2.326 . S
In52 O63 2.294 . S
In52 O64 2.326 . S
O53 In52 2.294 . S
O53 C62 1.240 . S
O54 In52 2.326 . S
O54 C62 1.252 . S
C55 O58 1.252 . S
C55 O59 1.260 . S
C56 O63 1.240 . S
C56 O64 1.252 . S
C57 O60 1.252 . S
C57 O61 1.260 . S
O58 In52 2.266 . S
O58 C55 1.252 . S
O59 In52 2.326 . S
O59 C55 1.260 . S
O60 In52 2.266 . S
O60 C57 1.252 . S
O61 In52 2.326 . S
O61 C57 1.260 . S
C62 O53 1.240 . S
C62 O54 1.252 . S
O63 In52 2.294 . S
O63 C56 1.240 . S
O64 In52 2.326 . S
O64 C56 1.252 . S
In65 O66 2.294 . S
In65 O67 2.326 . S
In65 O71 2.266 . S
In65 O72 2.326 . S
In65 O73 2.266 . S
In65 O74 2.326 . S
In65 O76 2.294 . S
In65 O77 2.326 . S
O66 In65 2.294 . S
O66 C75 1.240 . S
O67 In65 2.326 . S
O67 C75 1.252 . S
C68 O71 1.252 . S
C68 O72 1.260 . S
C69 O76 1.240 . S
C69 O77 1.252 . S
C70 O73 1.252 . S
C70 O74 1.260 . S
O71 In65 2.266 . S
O71 C68 1.252 . S
O72 In65 2.326 . S
O72 C68 1.260 . S
O73 In65 2.266 . S
O73 C70 1.252 . S
O74 In65 2.326 . S
O74 C70 1.260 . S
C75 O66 1.240 . S
C75 O67 1.252 . S
O76 In65 2.294 . S
O76 C69 1.240 . S
O77 In65 2.326 . S
O77 C69 1.252 . S
In78 O79 2.294 . S
In78 O80 2.326 . S
In78 O84 2.266 . S
In78 O85 2.326 . S
In78 O86 2.266 . S
In78 O87 2.326 . S
In78 O89 2.294 . S
In78 O90 2.326 . S
O79 In78 2.294 . S
O79 C88 1.240 . S
O80 In78 2.326 . S
O80 C88 1.252 . S
C81 O84 1.252 . S
C81 O85 1.260 . S
C82 O89 1.240 . S
C82 O90 1.252 . S
C83 O86 1.252 . S
C83 O87 1.260 . S
O84 In78 2.266 . S
O84 C81 1.252 . S
O85 In78 2.326 . S
O85 C81 1.260 . S
O86 In78 2.266 . S
O86 C83 1.252 . S
O87 In78 2.326 . S
O87 C83 1.260 . S
C88 O79 1.240 . S
C88 O80 1.252 . S
O89 In78 2.294 . S
O89 C82 1.240 . S
O90 In78 2.326 . S
O90 C82 1.252 . S
In91 O92 2.294 . S
In91 O93 2.326 . S
In91 O97 2.266 . S
In91 O98 2.326 . S
In91 O99 2.266 . S
In91 O100 2.326 . S
In91 O102 2.294 . S
In91 O103 2.326 . S
O92 In91 2.294 . S
O92 C101 1.240 . S
O93 In91 2.326 . S
O93 C101 1.252 . S
C94 O97 1.252 . S
C94 O98 1.260 . S
C95 O102 1.240 . S
C95 O103 1.252 . S
C96 O99 1.252 . S
C96 O100 1.260 . S
O97 In91 2.266 . S
O97 C94 1.252 . S
O98 In91 2.326 . S
O98 C94 1.260 . S
O99 In91 2.266 . S
O99 C96 1.252 . S
O100 In91 2.326 . S
O100 C96 1.260 . S
C101 O92 1.240 . S
C101 O93 1.252 . S
O102 In91 2.294 . S
O102 C95 1.240 . S
O103 In91 2.326 . S
O103 C95 1.252 . S
In104 O105 2.294 . S
In104 O106 2.326 . S
In104 O110 2.266 . S
In104 O111 2.326 . S
In104 O112 2.266 . S
In104 O113 2.326 . S
In104 O115 2.294 . S
In104 O116 2.326 . S
O105 In104 2.294 . S
O105 C114 1.240 . S
O106 In104 2.326 . S
O106 C114 1.252 . S
C107 O110 1.252 . S
C107 O111 1.260 . S
C108 O115 1.240 . S
C108 O116 1.252 . S
C109 O112 1.252 . S
C109 O113 1.260 . S
O110 In104 2.266 . S
O110 C107 1.252 . S
O111 In104 2.326 . S
O111 C107 1.260 . S
O112 In104 2.266 . S
O112 C109 1.252 . S
O113 In104 2.326 . S
O113 C109 1.260 . S
C114 O105 1.240 . S
C114 O106 1.252 . S
O115 In104 2.294 . S
O115 C108 1.240 . S
O116 In104 2.326 . S
O116 C108 1.252 . S
In117 O118 2.294 . S
In117 O119 2.326 . S
In117 O123 2.266 . S
In117 O124 2.326 . S
In117 O125 2.266 . S
In117 O126 2.326 . S
In117 O128 2.294 . S
In117 O129 2.326 . S
O118 In117 2.294 . S
O118 C127 1.240 . S
O119 In117 2.326 . S
O119 C127 1.252 . S
C120 O123 1.252 . S
C120 O124 1.260 . S
C121 O128 1.240 . S
C121 O129 1.252 . S
C122 O125 1.252 . S
C122 O126 1.260 . S
O123 In117 2.266 . S
O123 C120 1.252 . S
O124 In117 2.326 . S
O124 C120 1.260 . S
O125 In117 2.266 . S
O125 C122 1.252 . S
O126 In117 2.326 . S
O126 C122 1.260 . S
C127 O118 1.240 . S
C127 O119 1.252 . S
O128 In117 2.294 . S
O128 C121 1.240 . S
O129 In117 2.326 . S
O129 C121 1.252 . S
In130 O131 2.294 . S
In130 O132 2.326 . S
In130 O136 2.266 . S
In130 O137 2.326 . S
In130 O138 2.266 . S
In130 O139 2.326 . S
In130 O141 2.294 . S
In130 O142 2.326 . S
O131 In130 2.294 . S
O131 C140 1.240 . S
O132 In130 2.326 . S
O132 C140 1.252 . S
C133 O136 1.252 . S
C133 O137 1.260 . S
C134 O141 1.240 . S
C134 O142 1.252 . S
C135 O138 1.252 . S
C135 O139 1.260 . S
O136 In130 2.266 . S
O136 C133 1.252 . S
O137 In130 2.326 . S
O137 C133 1.260 . S
O138 In130 2.266 . S
O138 C135 1.252 . S
O139 In130 2.326 . S
O139 C135 1.260 . S
C140 O131 1.240 . S
C140 O132 1.252 . S
O141 In130 2.294 . S
O141 C134 1.240 . S
O142 In130 2.326 . S
O142 C134 1.252 . S
In143 O144 2.294 . S
In143 O145 2.326 . S
In143 O149 2.266 . S
In143 O150 2.326 . S
In143 O151 2.266 . S
In143 O152 2.326 . S
In143 O154 2.294 . S
In143 O155 2.326 . S
O144 In143 2.294 . S
O144 C153 1.240 . S
O145 In143 2.326 . S
O145 C153 1.252 . S
C146 O149 1.252 . S
C146 O150 1.260 . S
C147 O154 1.240 . S
C147 O155 1.252 . S
C148 O151 1.252 . S
C148 O152 1.260 . S
O149 In143 2.266 . S
O149 C146 1.252 . S
O150 In143 2.326 . S
O150 C146 1.260 . S
O151 In143 2.266 . S
O151 C148 1.252 . S
O152 In143 2.326 . S
O152 C148 1.260 . S
C153 O144 1.240 . S
C153 O145 1.252 . S
O154 In143 2.294 . S
O154 C147 1.240 . S
O155 In143 2.326 . S
O155 C147 1.252 . S
H156 C174 0.951 . S
H157 C176 0.951 . S
H158 C178 0.950 . S
H159 C179 0.950 . S
H160 C181 0.950 . S
H161 C184 0.950 . S
H162 C185 0.950 . S
H163 C187 0.950 . S
H164 C188 0.950 . S
H165 C189 0.951 . S
H166 C191 0.951 . S
H167 C193 0.950 . S
H168 C194 0.950 . S
H169 C196 0.950 . S
H170 C199 0.950 . S
H171 C200 0.950 . S
H172 C202 0.950 . S
H173 C203 0.950 . S
C174 H156 0.951 . S
C174 C175 1.366 . S
C174 C176 1.388 . S
C175 C174 1.366 . S
C175 C179 1.385 . S
C176 H157 0.951 . S
C176 C174 1.388 . S
C176 C177 1.366 . S
C177 C176 1.366 . S
C177 C178 1.414 . S
C177 C180 1.499 . S
C178 H158 0.950 . S
C178 C177 1.414 . S
C178 C179 1.374 . S
C179 H159 0.950 . S
C179 C175 1.385 . S
C179 C178 1.374 . S
C180 C177 1.499 . S
C180 C181 1.373 . S
C180 C182 1.389 . S
C181 H160 0.950 . S
C181 C180 1.373 . S
C181 C197 1.377 . S
C182 C180 1.389 . S
C182 C183 1.524 . S
C182 C196 1.377 . S
C183 C182 1.524 . S
C183 C184 1.397 . S
C183 C188 1.363 . S
C184 H161 0.950 . S
C184 C183 1.397 . S
C184 C185 1.334 . S
C185 H162 0.950 . S
C185 C184 1.334 . S
C185 C186 1.287 . S
C186 C185 1.287 . S
C186 C187 1.524 . S
C186 H205 0.913 . S
C187 H163 0.950 . S
C187 C186 1.524 . S
C187 C188 1.415 . S
C188 H164 0.950 . S
C188 C183 1.363 . S
C188 C187 1.415 . S
C189 H165 0.951 . S
C189 C190 1.366 . S
C189 C191 1.388 . S
C190 C189 1.366 . S
C190 C194 1.385 . S
C191 H166 0.951 . S
C191 C189 1.388 . S
C191 C192 1.366 . S
C192 C191 1.366 . S
C192 C193 1.414 . S
C192 C195 1.499 . S
C193 H167 0.950 . S
C193 C192 1.414 . S
C193 C194 1.374 . S
C194 H168 0.950 . S
C194 C190 1.385 . S
C194 C193 1.374 . S
C195 C192 1.499 . S
C195 C196 1.373 . S
C195 C197 1.389 . S
C196 H169 0.950 . S
C196 C182 1.377 . S
C196 C195 1.373 . S
C197 C181 1.377 . S
C197 C195 1.389 . S
C197 C198 1.524 . S
C198 C197 1.524 . S
C198 C199 1.397 . S
C198 C203 1.363 . S
C199 H170 0.950 . S
C199 C198 1.397 . S
C199 C200 1.334 . S
C200 H171 0.950 . S
C200 C199 1.334 . S
C200 C201 1.287 . S
C201 C200 1.287 . S
C201 C202 1.524 . S
C201 H204 0.999 . S
C202 H172 0.950 . S
C202 C201 1.524 . S
C202 C203 1.415 . S
C203 H173 0.950 . S
C203 C198 1.363 . S
C203 C202 1.415 . S
H204 C201 0.999 . S
H205 C186 0.913 . S
H206 C224 0.951 . S
H207 C226 0.951 1_655 S
H208 C228 0.950 . S
H209 C229 0.950 . S
H210 C231 0.950 . S
H211 C234 0.950 . S
H212 C235 0.950 . S
H213 C237 0.950 . S
H214 C238 0.950 . S
H215 C239 0.951 . S
H216 C241 0.951 1_455 S
H217 C243 0.950 . S
H218 C244 0.950 . S
H219 C246 0.950 . S
H220 C249 0.950 . S
H221 C250 0.950 . S
H222 C252 0.950 . S
H223 C253 0.950 . S
C224 H206 0.951 . S
C224 C225 1.366 . S
C224 C226 1.388 . S
C225 C224 1.366 . S
C225 C229 1.385 . S
C226 H207 0.951 1_455 S
C226 C224 1.388 . S
C226 C227 1.366 . S
C227 C226 1.366 . S
C227 C228 1.414 . S
C227 C230 1.499 . S
C228 H208 0.950 . S
C228 C227 1.414 . S
C228 C229 1.374 . S
C229 H209 0.950 . S
C229 C225 1.385 . S
C229 C228 1.374 . S
C230 C227 1.499 . S
C230 C231 1.373 . S
C230 C232 1.389 1_455 S
C231 H210 0.950 . S
C231 C230 1.373 . S
C231 C247 1.377 . S
C232 C230 1.389 1_655 S
C232 C233 1.524 . S
C232 C246 1.377 . S
C233 C232 1.524 . S
C233 C234 1.397 . S
C233 C238 1.363 . S
C234 H211 0.950 . S
C234 C233 1.397 . S
C234 C235 1.334 . S
C235 H212 0.950 . S
C235 C234 1.334 . S
C235 C236 1.287 . S
C236 C235 1.287 . S
C236 C237 1.524 . S
C236 H255 0.913 . S
C237 H213 0.950 . S
C237 C236 1.524 . S
C237 C238 1.415 . S
C238 H214 0.950 . S
C238 C233 1.363 . S
C238 C237 1.415 . S
C239 H215 0.951 . S
C239 C240 1.366 . S
C239 C241 1.388 . S
C240 C239 1.366 . S
C240 C244 1.385 . S
C241 H216 0.951 1_655 S
C241 C239 1.388 . S
C241 C242 1.366 . S
C242 C241 1.366 . S
C242 C243 1.414 . S
C242 C245 1.499 . S
C243 H217 0.950 . S
C243 C242 1.414 . S
C243 C244 1.374 . S
C244 H218 0.950 . S
C244 C240 1.385 . S
C244 C243 1.374 . S
C245 C242 1.499 . S
C245 C246 1.373 . S
C245 C247 1.389 1_655 S
C246 H219 0.950 . S
C246 C232 1.377 . S
C246 C245 1.373 . S
C247 C231 1.377 . S
C247 C245 1.389 1_455 S
C247 C248 1.524 . S
C248 C247 1.524 . S
C248 C249 1.397 . S
C248 C253 1.363 . S
C249 H220 0.950 . S
C249 C248 1.397 . S
C249 C250 1.334 . S
C250 H221 0.950 . S
C250 C249 1.334 . S
C250 C251 1.287 . S
C251 C250 1.287 . S
C251 C252 1.524 . S
C251 H254 0.999 . S
C252 H222 0.950 . S
C252 C251 1.524 . S
C252 C253 1.415 . S
C253 H223 0.950 . S
C253 C248 1.363 . S
C253 C252 1.415 . S
H254 C251 0.999 . S
H255 C236 0.913 . S
H256 C274 0.951 . S
H257 C276 0.951 1_545 S
H258 C278 0.950 . S
H259 C279 0.950 . S
H260 C281 0.950 . S
H261 C284 0.950 . S
H262 C285 0.950 1_565 S
H263 C287 0.950 . S
H264 C288 0.950 . S
H265 C289 0.951 . S
H266 C291 0.951 1_565 S
H267 C293 0.950 . S
H268 C294 0.950 . S
H269 C296 0.950 . S
H270 C299 0.950 . S
H271 C300 0.950 1_545 S
H272 C302 0.950 . S
H273 C303 0.950 . S
C274 H256 0.951 . S
C274 C275 1.366 . S
C274 C276 1.388 . S
C275 C274 1.366 . S
C275 C279 1.385 . S
C276 H257 0.951 1_565 S
C276 C274 1.388 . S
C276 C277 1.366 . S
C277 C276 1.366 . S
C277 C278 1.414 . S
C277 C280 1.499 . S
C278 H258 0.950 . S
C278 C277 1.414 . S
C278 C279 1.374 . S
C279 H259 0.950 . S
C279 C275 1.385 . S
C279 C278 1.374 . S
C280 C277 1.499 . S
C280 C281 1.373 . S
C280 C282 1.389 1_565 S
C281 H260 0.950 . S
C281 C280 1.373 . S
C281 C297 1.377 . S
C282 C280 1.389 1_545 S
C282 C283 1.524 . S
C282 C296 1.377 . S
C283 C282 1.524 . S
C283 C284 1.397 1_545 S
C283 C288 1.363 . S
C284 H261 0.950 . S
C284 C283 1.397 1_565 S
C284 C285 1.334 1_565 S
C285 H262 0.950 1_545 S
C285 C284 1.334 1_545 S
C285 C286 1.287 . S
C286 C285 1.287 . S
C286 C287 1.524 . S
C286 H305 0.913 . S
C287 H263 0.950 . S
C287 C286 1.524 . S
C287 C288 1.415 . S
C288 H264 0.950 . S
C288 C283 1.363 . S
C288 C287 1.415 . S
C289 H265 0.951 . S
C289 C290 1.366 . S
C289 C291 1.388 . S
C290 C289 1.366 . S
C290 C294 1.385 . S
C291 H266 0.951 1_545 S
C291 C289 1.388 . S
C291 C292 1.366 . S
C292 C291 1.366 . S
C292 C293 1.414 . S
C292 C295 1.499 . S
C293 H267 0.950 . S
C293 C292 1.414 . S
C293 C294 1.374 . S
C294 H268 0.950 . S
C294 C290 1.385 . S
C294 C293 1.374 . S
C295 C292 1.499 . S
C295 C296 1.373 . S
C295 C297 1.389 1_545 S
C296 H269 0.950 . S
C296 C282 1.377 . S
C296 C295 1.373 . S
C297 C281 1.377 . S
C297 C295 1.389 1_565 S
C297 C298 1.524 . S
C298 C297 1.524 . S
C298 C299 1.397 1_565 S
C298 C303 1.363 . S
C299 H270 0.950 . S
C299 C298 1.397 1_545 S
C299 C300 1.334 1_545 S
C300 H271 0.950 1_565 S
C300 C299 1.334 1_565 S
C300 C301 1.287 . S
C301 C300 1.287 . S
C301 C302 1.524 . S
C301 H304 0.999 . S
C302 H272 0.950 . S
C302 C301 1.524 . S
C302 C303 1.415 . S
C303 H273 0.950 . S
C303 C298 1.363 . S
C303 C302 1.415 . S
H304 C301 0.999 . S
H305 C286 0.913 . S
H306 C324 0.951 . S
H307 C326 0.951 . S
H308 C328 0.950 . S
H309 C329 0.950 . S
H310 C331 0.950 . S
H311 C334 0.950 . S
H312 C335 0.950 . S
H313 C337 0.950 . S
H314 C338 0.950 . S
H315 C339 0.951 . S
H316 C341 0.951 . S
H317 C343 0.950 . S
H318 C344 0.950 . S
H319 C346 0.950 . S
H320 C349 0.950 . S
H321 C350 0.950 . S
H322 C352 0.950 . S
H323 C353 0.950 . S
C324 H306 0.951 . S
C324 C325 1.366 . S
C324 C326 1.388 . S
C325 C324 1.366 . S
C325 C329 1.385 . S
C326 H307 0.951 . S
C326 C324 1.388 . S
C326 C327 1.366 . S
C327 C326 1.366 . S
C327 C328 1.414 . S
C327 C330 1.499 . S
C328 H308 0.950 . S
C328 C327 1.414 . S
C328 C329 1.374 . S
C329 H309 0.950 . S
C329 C325 1.385 . S
C329 C328 1.374 . S
C330 C327 1.499 . S
C330 C331 1.373 . S
C330 C332 1.389 . S
C331 H310 0.950 . S
C331 C330 1.373 . S
C331 C347 1.377 . S
C332 C330 1.389 . S
C332 C333 1.524 . S
C332 C346 1.377 . S
C333 C332 1.524 . S
C333 C334 1.397 . S
C333 C338 1.363 . S
C334 H311 0.950 . S
C334 C333 1.397 . S
C334 C335 1.334 . S
C335 H312 0.950 . S
C335 C334 1.334 . S
C335 C336 1.287 . S
C336 C335 1.287 . S
C336 C337 1.524 . S
C336 H355 0.913 . S
C337 H313 0.950 . S
C337 C336 1.524 . S
C337 C338 1.415 . S
C338 H314 0.950 . S
C338 C333 1.363 . S
C338 C337 1.415 . S
C339 H315 0.951 . S
C339 C340 1.366 . S
C339 C341 1.388 . S
C340 C339 1.366 . S
C340 C344 1.385 . S
C341 H316 0.951 . S
C341 C339 1.388 . S
C341 C342 1.366 . S
C342 C341 1.366 . S
C342 C343 1.414 . S
C342 C345 1.499 . S
C343 H317 0.950 . S
C343 C342 1.414 . S
C343 C344 1.374 . S
C344 H318 0.950 . S
C344 C340 1.385 . S
C344 C343 1.374 . S
C345 C342 1.499 . S
C345 C346 1.373 . S
C345 C347 1.389 . S
C346 H319 0.950 . S
C346 C332 1.377 . S
C346 C345 1.373 . S
C347 C331 1.377 . S
C347 C345 1.389 . S
C347 C348 1.524 . S
C348 C347 1.524 . S
C348 C349 1.397 . S
C348 C353 1.363 . S
C349 H320 0.950 . S
C349 C348 1.397 . S
C349 C350 1.334 . S
C350 H321 0.950 . S
C350 C349 1.334 . S
C350 C351 1.287 . S
C351 C350 1.287 . S
C351 C352 1.524 . S
C351 H354 0.999 . S
C352 H322 0.950 . S
C352 C351 1.524 . S
C352 C353 1.415 . S
C353 H323 0.950 . S
C353 C348 1.363 . S
C353 C352 1.415 . S
H354 C351 0.999 . S
H355 C336 0.913 . S
H356 C374 0.951 . S
H357 C376 0.951 1_455 S
H358 C378 0.950 . S
H359 C379 0.950 . S
H360 C381 0.950 . S
H361 C384 0.950 . S
H362 C385 0.950 . S
H363 C387 0.950 . S
H364 C388 0.950 . S
H365 C389 0.951 . S
H366 C391 0.951 1_655 S
H367 C393 0.950 . S
H368 C394 0.950 . S
H369 C396 0.950 . S
H370 C399 0.950 . S
H371 C400 0.950 . S
H372 C402 0.950 . S
H373 C403 0.950 . S
C374 H356 0.951 . S
C374 C375 1.366 . S
C374 C376 1.388 . S
C375 C374 1.366 . S
C375 C379 1.385 . S
C376 H357 0.951 1_655 S
C376 C374 1.388 . S
C376 C377 1.366 . S
C377 C376 1.366 . S
C377 C378 1.414 . S
C377 C380 1.499 . S
C378 H358 0.950 . S
C378 C377 1.414 . S
C378 C379 1.374 . S
C379 H359 0.950 . S
C379 C375 1.385 . S
C379 C378 1.374 . S
C380 C377 1.499 . S
C380 C381 1.373 . S
C380 C382 1.389 1_655 S
C381 H360 0.950 . S
C381 C380 1.373 . S
C381 C397 1.377 . S
C382 C380 1.389 1_455 S
C382 C383 1.524 . S
C382 C396 1.377 . S
C383 C382 1.524 . S
C383 C384 1.397 . S
C383 C388 1.363 . S
C384 H361 0.950 . S
C384 C383 1.397 . S
C384 C385 1.334 . S
C385 H362 0.950 . S
C385 C384 1.334 . S
C385 C386 1.287 . S
C386 C385 1.287 . S
C386 C387 1.524 . S
C386 H405 0.913 . S
C387 H363 0.950 . S
C387 C386 1.524 . S
C387 C388 1.415 . S
C388 H364 0.950 . S
C388 C383 1.363 . S
C388 C387 1.415 . S
C389 H365 0.951 . S
C389 C390 1.366 . S
C389 C391 1.388 . S
C390 C389 1.366 . S
C390 C394 1.385 . S
C391 H366 0.951 1_455 S
C391 C389 1.388 . S
C391 C392 1.366 . S
C392 C391 1.366 . S
C392 C393 1.414 . S
C392 C395 1.499 . S
C393 H367 0.950 . S
C393 C392 1.414 . S
C393 C394 1.374 . S
C394 H368 0.950 . S
C394 C390 1.385 . S
C394 C393 1.374 . S
C395 C392 1.499 . S
C395 C396 1.373 . S
C395 C397 1.389 1_455 S
C396 H369 0.950 . S
C396 C382 1.377 . S
C396 C395 1.373 . S
C397 C381 1.377 . S
C397 C395 1.389 1_655 S
C397 C398 1.524 . S
C398 C397 1.524 . S
C398 C399 1.397 . S
C398 C403 1.363 . S
C399 H370 0.950 . S
C399 C398 1.397 . S
C399 C400 1.334 . S
C400 H371 0.950 . S
C400 C399 1.334 . S
C400 C401 1.287 . S
C401 C400 1.287 . S
C401 C402 1.524 . S
C401 H404 0.999 . S
C402 H372 0.950 . S
C402 C401 1.524 . S
C402 C403 1.415 . S
C403 H373 0.950 . S
C403 C398 1.363 . S
C403 C402 1.415 . S
H404 C401 0.999 . S
H405 C386 0.913 . S
H406 C424 0.951 . S
H407 C426 0.951 1_565 S
H408 C428 0.950 . S
H409 C429 0.950 . S
H410 C431 0.950 . S
H411 C434 0.950 . S
H412 C435 0.950 . S
H413 C437 0.950 . S
H414 C438 0.950 . S
H415 C439 0.951 . S
H416 C441 0.951 1_545 S
H417 C443 0.950 . S
H418 C444 0.950 . S
H419 C446 0.950 . S
H420 C449 0.950 . S
H421 C450 0.950 . S
H422 C452 0.950 . S
H423 C453 0.950 . S
C424 H406 0.951 . S
C424 C425 1.366 . S
C424 C426 1.388 . S
C425 C424 1.366 . S
C425 C429 1.385 . S
C426 H407 0.951 1_545 S
C426 C424 1.388 . S
C426 C427 1.366 . S
C427 C426 1.366 . S
C427 C428 1.414 . S
C427 C430 1.499 . S
C428 H408 0.950 . S
C428 C427 1.414 . S
C428 C429 1.374 . S
C429 H409 0.950 . S
C429 C425 1.385 . S
C429 C428 1.374 . S
C430 C427 1.499 . S
C430 C431 1.373 . S
C430 C432 1.389 . S
C431 H410 0.950 . S
C431 C430 1.373 . S
C431 C447 1.377 1_545 S
C432 C430 1.389 . S
C432 C433 1.524 . S
C432 C446 1.377 1_545 S
C433 C432 1.524 . S
C433 C434 1.397 . S
C433 C438 1.363 1_545 S
C434 H411 0.950 . S
C434 C433 1.397 . S
C434 C435 1.334 . S
C435 H412 0.950 . S
C435 C434 1.334 . S
C435 C436 1.287 . S
C436 C435 1.287 . S
C436 C437 1.524 1_545 S
C436 H455 0.913 . S
C437 H413 0.950 . S
C437 C436 1.524 1_565 S
C437 C438 1.415 . S
C438 H414 0.950 . S
C438 C433 1.363 1_565 S
C438 C437 1.415 . S
C439 H415 0.951 . S
C439 C440 1.366 . S
C439 C441 1.388 . S
C440 C439 1.366 . S
C440 C444 1.385 . S
C441 H416 0.951 1_565 S
C441 C439 1.388 . S
C441 C442 1.366 . S
C442 C441 1.366 . S
C442 C443 1.414 . S
C442 C445 1.499 . S
C443 H417 0.950 . S
C443 C442 1.414 . S
C443 C444 1.374 . S
C444 H418 0.950 . S
C444 C440 1.385 . S
C444 C443 1.374 . S
C445 C442 1.499 . S
C445 C446 1.373 . S
C445 C447 1.389 . S
C446 H419 0.950 . S
C446 C432 1.377 1_565 S
C446 C445 1.373 . S
C447 C431 1.377 1_565 S
C447 C445 1.389 . S
C447 C448 1.524 . S
C448 C447 1.524 . S
C448 C449 1.397 . S
C448 C453 1.363 1_565 S
C449 H420 0.950 . S
C449 C448 1.397 . S
C449 C450 1.334 . S
C450 H421 0.950 . S
C450 C449 1.334 . S
C450 C451 1.287 . S
C451 C450 1.287 . S
C451 C452 1.524 1_565 S
C451 H454 0.999 . S
C452 H422 0.950 . S
C452 C451 1.524 1_545 S
C452 C453 1.415 . S
C453 H423 0.950 . S
C453 C448 1.363 1_545 S
C453 C452 1.415 . S
H454 C451 0.999 . S
H455 C436 0.913 . S
H456 C474 0.951 . S
H457 C476 0.951 . S
H458 C478 0.950 . S
H459 C479 0.950 . S
H460 C481 0.950 . S
H461 C484 0.950 . S
H462 C485 0.950 . S
H463 C487 0.950 . S
H464 C488 0.950 . S
H465 C489 0.951 . S
H466 C491 0.951 . S
H467 C493 0.950 . S
H468 C494 0.950 . S
H469 C496 0.950 . S
H470 C499 0.950 . S
H471 C500 0.950 . S
H472 C502 0.950 . S
H473 C503 0.950 . S
C474 H456 0.951 . S
C474 C475 1.366 . S
C474 C476 1.388 . S
C475 C474 1.366 . S
C475 C479 1.385 . S
C476 H457 0.951 . S
C476 C474 1.388 . S
C476 C477 1.366 . S
C477 C476 1.366 . S
C477 C478 1.414 . S
C477 C480 1.499 . S
C478 H458 0.950 . S
C478 C477 1.414 . S
C478 C479 1.374 . S
C479 H459 0.950 . S
C479 C475 1.385 . S
C479 C478 1.374 . S
C480 C477 1.499 . S
C480 C481 1.373 . S
C480 C482 1.389 . S
C481 H460 0.950 . S
C481 C480 1.373 . S
C481 C497 1.377 . S
C482 C480 1.389 . S
C482 C483 1.524 . S
C482 C496 1.377 . S
C483 C482 1.524 . S
C483 C484 1.397 . S
C483 C488 1.363 . S
C484 H461 0.950 . S
C484 C483 1.397 . S
C484 C485 1.334 . S
C485 H462 0.950 . S
C485 C484 1.334 . S
C485 C486 1.287 . S
C486 C485 1.287 . S
C486 C487 1.524 . S
C486 H505 0.913 . S
C487 H463 0.950 . S
C487 C486 1.524 . S
C487 C488 1.415 . S
C488 H464 0.950 . S
C488 C483 1.363 . S
C488 C487 1.415 . S
C489 H465 0.951 . S
C489 C490 1.366 . S
C489 C491 1.388 . S
C490 C489 1.366 . S
C490 C494 1.385 . S
C491 H466 0.951 . S
C491 C489 1.388 . S
C491 C492 1.366 . S
C492 C491 1.366 . S
C492 C493 1.414 . S
C492 C495 1.499 . S
C493 H467 0.950 . S
C493 C492 1.414 . S
C493 C494 1.374 . S
C494 H468 0.950 . S
C494 C490 1.385 . S
C494 C493 1.374 . S
C495 C492 1.499 . S
C495 C496 1.373 . S
C495 C497 1.389 . S
C496 H469 0.950 . S
C496 C482 1.377 . S
C496 C495 1.373 . S
C497 C481 1.377 . S
C497 C495 1.389 . S
C497 C498 1.524 . S
C498 C497 1.524 . S
C498 C499 1.397 . S
C498 C503 1.363 . S
C499 H470 0.950 . S
C499 C498 1.397 . S
C499 C500 1.334 . S
C500 H471 0.950 . S
C500 C499 1.334 . S
C500 C501 1.287 . S
C501 C500 1.287 . S
C501 C502 1.524 . S
C501 H504 0.999 . S
C502 H472 0.950 . S
C502 C501 1.524 . S
C502 C503 1.415 . S
C503 H473 0.950 . S
C503 C498 1.363 . S
C503 C502 1.415 . S
H504 C501 0.999 . S
H505 C486 0.913 . S
H506 C524 0.951 . S
H507 C526 0.951 . S
H508 C528 0.950 . S
H509 C529 0.950 . S
H510 C531 0.950 . S
H511 C534 0.950 . S
H512 C535 0.950 . S
H513 C537 0.950 . S
H514 C538 0.950 . S
H515 C539 0.951 . S
H516 C541 0.951 . S
H517 C543 0.950 . S
H518 C544 0.950 . S
H519 C546 0.950 . S
H520 C549 0.950 . S
H521 C550 0.950 . S
H522 C552 0.950 . S
H523 C553 0.950 . S
C524 H506 0.951 . S
C524 C525 1.366 . S
C524 C526 1.388 . S
C525 C524 1.366 . S
C525 C529 1.385 . S
C526 H507 0.951 . S
C526 C524 1.388 . S
C526 C527 1.366 . S
C527 C526 1.366 . S
C527 C528 1.414 . S
C527 C530 1.499 . S
C528 H508 0.950 . S
C528 C527 1.414 . S
C528 C529 1.374 . S
C529 H509 0.950 . S
C529 C525 1.385 . S
C529 C528 1.374 . S
C530 C527 1.499 . S
C530 C531 1.373 . S
C530 C532 1.389 . S
C531 H510 0.950 . S
C531 C530 1.373 . S
C531 C547 1.377 . S
C532 C530 1.389 . S
C532 C533 1.524 . S
C532 C546 1.377 . S
C533 C532 1.524 . S
C533 C534 1.397 . S
C533 C538 1.363 . S
C534 H511 0.950 . S
C534 C533 1.397 . S
C534 C535 1.334 . S
C535 H512 0.950 . S
C535 C534 1.334 . S
C535 C536 1.287 . S
C536 C535 1.287 . S
C536 C537 1.524 . S
C536 H555 0.913 . S
C537 H513 0.950 . S
C537 C536 1.524 . S
C537 C538 1.415 . S
C538 H514 0.950 . S
C538 C533 1.363 . S
C538 C537 1.415 . S
C539 H515 0.951 . S
C539 C540 1.366 . S
C539 C541 1.388 . S
C540 C539 1.366 . S
C540 C544 1.385 . S
C541 H516 0.951 . S
C541 C539 1.388 . S
C541 C542 1.366 . S
C542 C541 1.366 . S
C542 C543 1.414 . S
C542 C545 1.499 . S
C543 H517 0.950 . S
C543 C542 1.414 . S
C543 C544 1.374 . S
C544 H518 0.950 . S
C544 C540 1.385 . S
C544 C543 1.374 . S
C545 C542 1.499 . S
C545 C546 1.373 . S
C545 C547 1.389 . S
C546 H519 0.950 . S
C546 C532 1.377 . S
C546 C545 1.373 . S
C547 C531 1.377 . S
C547 C545 1.389 . S
C547 C548 1.524 . S
C548 C547 1.524 . S
C548 C549 1.397 . S
C548 C553 1.363 . S
C549 H520 0.950 . S
C549 C548 1.397 . S
C549 C550 1.334 . S
C550 H521 0.950 . S
C550 C549 1.334 . S
C550 C551 1.287 . S
C551 C550 1.287 . S
C551 C552 1.524 . S
C551 H554 0.999 . S
C552 H522 0.950 . S
C552 C551 1.524 . S
C552 C553 1.415 . S
C553 H523 0.950 . S
C553 C548 1.363 . S
C553 C552 1.415 . S
H554 C551 0.999 . S
H555 C536 0.913 . S
H556 C574 0.951 . S
H557 C576 0.951 . S
H558 C578 0.950 . S
H559 C579 0.950 . S
H560 C581 0.950 . S
H561 C584 0.950 . S
H562 C585 0.950 . S
H563 C587 0.950 . S
H564 C588 0.950 . S
H565 C589 0.951 . S
H566 C591 0.951 . S
H567 C593 0.950 . S
H568 C594 0.950 . S
H569 C596 0.950 . S
H570 C599 0.950 . S
H571 C600 0.950 . S
H572 C602 0.950 . S
H573 C603 0.950 . S
C574 H556 0.951 . S
C574 C575 1.366 . S
C574 C576 1.388 . S
C575 C574 1.366 . S
C575 C579 1.385 . S
C576 H557 0.951 . S
C576 C574 1.388 . S
C576 C577 1.366 . S
C577 C576 1.366 . S
C577 C578 1.414 . S
C577 C580 1.499 . S
C578 H558 0.950 . S
C578 C577 1.414 . S
C578 C579 1.374 . S
C579 H559 0.950 . S
C579 C575 1.385 . S
C579 C578 1.374 . S
C580 C577 1.499 . S
C580 C581 1.373 . S
C580 C582 1.389 . S
C581 H560 0.950 . S
C581 C580 1.373 . S
C581 C597 1.377 . S
C582 C580 1.389 . S
C582 C583 1.524 . S
C582 C596 1.377 . S
C583 C582 1.524 . S
C583 C584 1.397 . S
C583 C588 1.363 . S
C584 H561 0.950 . S
C584 C583 1.397 . S
C584 C585 1.334 . S
C585 H562 0.950 . S
C585 C584 1.334 . S
C585 C586 1.287 . S
C586 C585 1.287 . S
C586 C587 1.524 . S
C586 H605 0.913 . S
C587 H563 0.950 . S
C587 C586 1.524 . S
C587 C588 1.415 . S
C588 H564 0.950 . S
C588 C583 1.363 . S
C588 C587 1.415 . S
C589 H565 0.951 . S
C589 C590 1.366 . S
C589 C591 1.388 . S
C590 C589 1.366 . S
C590 C594 1.385 . S
C591 H566 0.951 . S
C591 C589 1.388 . S
C591 C592 1.366 . S
C592 C591 1.366 . S
C592 C593 1.414 . S
C592 C595 1.499 . S
C593 H567 0.950 . S
C593 C592 1.414 . S
C593 C594 1.374 . S
C594 H568 0.950 . S
C594 C590 1.385 . S
C594 C593 1.374 . S
C595 C592 1.499 . S
C595 C596 1.373 . S
C595 C597 1.389 . S
C596 H569 0.950 . S
C596 C582 1.377 . S
C596 C595 1.373 . S
C597 C581 1.377 . S
C597 C595 1.389 . S
C597 C598 1.524 . S
C598 C597 1.524 . S
C598 C599 1.397 . S
C598 C603 1.363 . S
C599 H570 0.950 . S
C599 C598 1.397 . S
C599 C600 1.334 . S
C600 H571 0.950 . S
C600 C599 1.334 . S
C600 C601 1.287 . S
C601 C600 1.287 . S
C601 C602 1.524 . S
C601 H604 0.999 . S
C602 H572 0.950 . S
C602 C601 1.524 . S
C602 C603 1.415 . S
C603 H573 0.950 . S
C603 C598 1.363 . S
C603 C602 1.415 . S
H604 C601 0.999 . S
H605 C586 0.913 . S
H606 C624 0.951 . S
H607 C626 0.951 . S
H608 C628 0.950 . S
H609 C629 0.950 . S
H610 C631 0.950 . S
H611 C634 0.950 . S
H612 C635 0.950 . S
H613 C637 0.950 . S
H614 C638 0.950 . S
H615 C639 0.951 . S
H616 C641 0.951 . S
H617 C643 0.950 . S
H618 C644 0.950 . S
H619 C646 0.950 . S
H620 C649 0.950 . S
H621 C650 0.950 . S
H622 C652 0.950 . S
H623 C653 0.950 . S
C624 H606 0.951 . S
C624 C625 1.366 . S
C624 C626 1.388 . S
C625 C624 1.366 . S
C625 C629 1.385 . S
C626 H607 0.951 . S
C626 C624 1.388 . S
C626 C627 1.366 . S
C627 C626 1.366 . S
C627 C628 1.414 . S
C627 C630 1.499 . S
C628 H608 0.950 . S
C628 C627 1.414 . S
C628 C629 1.374 . S
C629 H609 0.950 . S
C629 C625 1.385 . S
C629 C628 1.374 . S
C630 C627 1.499 . S
C630 C631 1.373 . S
C630 C632 1.389 . S
C631 H610 0.950 . S
C631 C630 1.373 . S
C631 C647 1.377 . S
C632 C630 1.389 . S
C632 C633 1.524 . S
C632 C646 1.377 . S
C633 C632 1.524 . S
C633 C634 1.397 . S
C633 C638 1.363 . S
C634 H611 0.950 . S
C634 C633 1.397 . S
C634 C635 1.334 . S
C635 H612 0.950 . S
C635 C634 1.334 . S
C635 C636 1.287 . S
C636 C635 1.287 . S
C636 C637 1.524 . S
C636 H655 0.913 . S
C637 H613 0.950 . S
C637 C636 1.524 . S
C637 C638 1.415 . S
C638 H614 0.950 . S
C638 C633 1.363 . S
C638 C637 1.415 . S
C639 H615 0.951 . S
C639 C640 1.366 . S
C639 C641 1.388 . S
C640 C639 1.366 . S
C640 C644 1.385 . S
C641 H616 0.951 . S
C641 C639 1.388 . S
C641 C642 1.366 . S
C642 C641 1.366 . S
C642 C643 1.414 . S
C642 C645 1.499 . S
C643 H617 0.950 . S
C643 C642 1.414 . S
C643 C644 1.374 . S
C644 H618 0.950 . S
C644 C640 1.385 . S
C644 C643 1.374 . S
C645 C642 1.499 . S
C645 C646 1.373 . S
C645 C647 1.389 . S
C646 H619 0.950 . S
C646 C632 1.377 . S
C646 C645 1.373 . S
C647 C631 1.377 . S
C647 C645 1.389 . S
C647 C648 1.524 . S
C648 C647 1.524 . S
C648 C649 1.397 . S
C648 C653 1.363 . S
C649 H620 0.950 . S
C649 C648 1.397 . S
C649 C650 1.334 . S
C650 H621 0.950 . S
C650 C649 1.334 . S
C650 C651 1.287 . S
C651 C650 1.287 . S
C651 C652 1.524 . S
C651 H654 0.999 . S
C652 H622 0.950 . S
C652 C651 1.524 . S
C652 C653 1.415 . S
C653 H623 0.950 . S
C653 C648 1.363 . S
C653 C652 1.415 . S
H654 C651 0.999 . S
H655 C636 0.913 . S
H656 C674 0.951 . S
H657 C676 0.951 . S
H658 C678 0.950 . S
H659 C679 0.950 . S
H660 C681 0.950 . S
H661 C684 0.950 . S
H662 C685 0.950 . S
H663 C687 0.950 . S
H664 C688 0.950 . S
H665 C689 0.951 . S
H666 C691 0.951 . S
H667 C693 0.950 . S
H668 C694 0.950 . S
H669 C696 0.950 . S
H670 C699 0.950 . S
H671 C700 0.950 . S
H672 C702 0.950 . S
H673 C703 0.950 . S
C674 H656 0.951 . S
C674 C675 1.366 . S
C674 C676 1.388 . S
C675 C674 1.366 . S
C675 C679 1.385 . S
C676 H657 0.951 . S
C676 C674 1.388 . S
C676 C677 1.366 . S
C677 C676 1.366 . S
C677 C678 1.414 . S
C677 C680 1.499 . S
C678 H658 0.950 . S
C678 C677 1.414 . S
C678 C679 1.374 . S
C679 H659 0.950 . S
C679 C675 1.385 . S
C679 C678 1.374 . S
C680 C677 1.499 . S
C680 C681 1.373 . S
C680 C682 1.389 . S
C681 H660 0.950 . S
C681 C680 1.373 . S
C681 C697 1.377 . S
C682 C680 1.389 . S
C682 C683 1.524 . S
C682 C696 1.377 . S
C683 C682 1.524 . S
C683 C684 1.397 . S
C683 C688 1.363 . S
C684 H661 0.950 . S
C684 C683 1.397 . S
C684 C685 1.334 . S
C685 H662 0.950 . S
C685 C684 1.334 . S
C685 C686 1.287 . S
C686 C685 1.287 . S
C686 C687 1.524 . S
C686 H705 0.913 . S
C687 H663 0.950 . S
C687 C686 1.524 . S
C687 C688 1.415 . S
C688 H664 0.950 . S
C688 C683 1.363 . S
C688 C687 1.415 . S
C689 H665 0.951 . S
C689 C690 1.366 . S
C689 C691 1.388 . S
C690 C689 1.366 . S
C690 C694 1.385 . S
C691 H666 0.951 . S
C691 C689 1.388 . S
C691 C692 1.366 . S
C692 C691 1.366 . S
C692 C693 1.414 . S
C692 C695 1.499 . S
C693 H667 0.950 . S
C693 C692 1.414 . S
C693 C694 1.374 . S
C694 H668 0.950 . S
C694 C690 1.385 . S
C694 C693 1.374 . S
C695 C692 1.499 . S
C695 C696 1.373 . S
C695 C697 1.389 . S
C696 H669 0.950 . S
C696 C682 1.377 . S
C696 C695 1.373 . S
C697 C681 1.377 . S
C697 C695 1.389 . S
C697 C698 1.524 . S
C698 C697 1.524 . S
C698 C699 1.397 . S
C698 C703 1.363 . S
C699 H670 0.950 . S
C699 C698 1.397 . S
C699 C700 1.334 . S
C700 H671 0.950 . S
C700 C699 1.334 . S
C700 C701 1.287 . S
C701 C700 1.287 . S
C701 C702 1.524 . S
C701 H704 0.999 1_655 S
C702 H672 0.950 . S
C702 C701 1.524 . S
C702 C703 1.415 . S
C703 H673 0.950 . S
C703 C698 1.363 . S
C703 C702 1.415 . S
H704 C701 0.999 1_455 S
H705 C686 0.913 . S
H706 C724 0.951 . S
H707 C726 0.951 . S
H708 C728 0.950 . S
H709 C729 0.950 . S
H710 C731 0.950 . S
H711 C734 0.950 . S
H712 C735 0.950 . S
H713 C737 0.950 . S
H714 C738 0.950 . S
H715 C739 0.951 . S
H716 C741 0.951 . S
H717 C743 0.950 . S
H718 C744 0.950 . S
H719 C746 0.950 . S
H720 C749 0.950 . S
H721 C750 0.950 . S
H722 C752 0.950 . S
H723 C753 0.950 . S
C724 H706 0.951 . S
C724 C725 1.366 . S
C724 C726 1.388 . S
C725 C724 1.366 . S
C725 C729 1.385 . S
C726 H707 0.951 . S
C726 C724 1.388 . S
C726 C727 1.366 . S
C727 C726 1.366 . S
C727 C728 1.414 . S
C727 C730 1.499 . S
C728 H708 0.950 . S
C728 C727 1.414 . S
C728 C729 1.374 . S
C729 H709 0.950 . S
C729 C725 1.385 . S
C729 C728 1.374 . S
C730 C727 1.499 . S
C730 C731 1.373 . S
C730 C732 1.389 . S
C731 H710 0.950 . S
C731 C730 1.373 . S
C731 C747 1.377 . S
C732 C730 1.389 . S
C732 C733 1.524 . S
C732 C746 1.377 . S
C733 C732 1.524 . S
C733 C734 1.397 . S
C733 C738 1.363 . S
C734 H711 0.950 . S
C734 C733 1.397 . S
C734 C735 1.334 . S
C735 H712 0.950 . S
C735 C734 1.334 . S
C735 C736 1.287 . S
C736 C735 1.287 . S
C736 C737 1.524 . S
C736 H755 0.913 . S
C737 H713 0.950 . S
C737 C736 1.524 . S
C737 C738 1.415 . S
C738 H714 0.950 . S
C738 C733 1.363 . S
C738 C737 1.415 . S
C739 H715 0.951 . S
C739 C740 1.366 . S
C739 C741 1.388 . S
C740 C739 1.366 . S
C740 C744 1.385 . S
C741 H716 0.951 . S
C741 C739 1.388 . S
C741 C742 1.366 . S
C742 C741 1.366 . S
C742 C743 1.414 . S
C742 C745 1.499 . S
C743 H717 0.950 . S
C743 C742 1.414 . S
C743 C744 1.374 . S
C744 H718 0.950 . S
C744 C740 1.385 . S
C744 C743 1.374 . S
C745 C742 1.499 . S
C745 C746 1.373 . S
C745 C747 1.389 . S
C746 H719 0.950 . S
C746 C732 1.377 . S
C746 C745 1.373 . S
C747 C731 1.377 . S
C747 C745 1.389 . S
C747 C748 1.524 . S
C748 C747 1.524 . S
C748 C749 1.397 . S
C748 C753 1.363 . S
C749 H720 0.950 . S
C749 C748 1.397 . S
C749 C750 1.334 . S
C750 H721 0.950 . S
C750 C749 1.334 . S
C750 C751 1.287 . S
C751 C750 1.287 . S
C751 C752 1.524 . S
C751 H754 0.999 1_565 S
C752 H722 0.950 . S
C752 C751 1.524 . S
C752 C753 1.415 . S
C753 H723 0.950 . S
C753 C748 1.363 . S
C753 C752 1.415 . S
H754 C751 0.999 1_545 S
H755 C736 0.913 . S
H756 C774 0.951 . S
H757 C776 0.951 . S
H758 C778 0.949 1_554 S
H759 C779 0.950 . S
H760 C781 0.950 . S
H761 C784 0.950 . S
H762 C785 0.950 . S
H763 C787 0.950 . S
H764 C788 0.950 . S
H765 C789 0.951 . S
H766 C791 0.951 . S
H767 C793 0.949 1_556 S
H768 C794 0.950 . S
H769 C796 0.950 . S
H770 C799 0.950 . S
H771 C800 0.950 . S
H772 C802 0.950 . S
H773 C803 0.950 . S
C774 H756 0.951 . S
C774 C775 1.366 . S
C774 C776 1.388 . S
C775 C774 1.366 . S
C775 C779 1.385 . S
C776 H757 0.951 . S
C776 C774 1.388 . S
C776 C777 1.366 . S
C777 C776 1.366 . S
C777 C778 1.414 . S
C777 C780 1.499 . S
C778 H758 0.949 1_556 S
C778 C777 1.414 . S
C778 C779 1.374 . S
C779 H759 0.950 . S
C779 C775 1.385 . S
C779 C778 1.374 . S
C780 C777 1.499 . S
C780 C781 1.373 1_556 S
C780 C782 1.389 . S
C781 H760 0.950 . S
C781 C780 1.373 1_554 S
C781 C797 1.377 1_565 S
C782 C780 1.389 . S
C782 C783 1.524 . S
C782 C796 1.377 1_565 S
C783 C782 1.524 . S
C783 C784 1.397 . S
C783 C788 1.363 1_565 S
C784 H761 0.950 . S
C784 C783 1.397 . S
C784 C785 1.334 . S
C785 H762 0.950 . S
C785 C784 1.334 . S
C785 C786 1.287 . S
C786 C785 1.287 . S
C786 C787 1.524 1_565 S
C786 H805 0.913 . S
C787 H763 0.950 . S
C787 C786 1.524 1_545 S
C787 C788 1.415 . S
C788 H764 0.950 . S
C788 C783 1.363 1_545 S
C788 C787 1.415 . S
C789 H765 0.951 . S
C789 C790 1.366 . S
C789 C791 1.388 . S
C790 C789 1.366 . S
C790 C794 1.385 . S
C791 H766 0.951 . S
C791 C789 1.388 . S
C791 C792 1.366 . S
C792 C791 1.366 . S
C792 C793 1.414 . S
C792 C795 1.499 . S
C793 H767 0.949 1_554 S
C793 C792 1.414 . S
C793 C794 1.374 . S
C794 H768 0.950 . S
C794 C790 1.385 . S
C794 C793 1.374 . S
C795 C792 1.499 . S
C795 C796 1.373 1_554 S
C795 C797 1.389 . S
C796 H769 0.950 . S
C796 C782 1.377 1_545 S
C796 C795 1.373 1_556 S
C797 C781 1.377 1_545 S
C797 C795 1.389 . S
C797 C798 1.524 . S
C798 C797 1.524 . S
C798 C799 1.397 . S
C798 C803 1.363 1_545 S
C799 H770 0.950 . S
C799 C798 1.397 . S
C799 C800 1.334 . S
C800 H771 0.950 . S
C800 C799 1.334 . S
C800 C801 1.287 . S
C801 C800 1.287 . S
C801 C802 1.524 1_545 S
C801 H804 0.999 . S
C802 H772 0.950 . S
C802 C801 1.524 1_565 S
C802 C803 1.415 . S
C803 H773 0.950 . S
C803 C798 1.363 1_565 S
C803 C802 1.415 . S
H804 C801 0.999 . S
H805 C786 0.913 . S
H806 C824 0.951 . S
H807 C826 0.951 . S
H808 C828 0.950 . S
H809 C829 0.950 . S
H810 C831 0.950 . S
H811 C834 0.950 . S
H812 C835 0.950 . S
H813 C837 0.950 . S
H814 C838 0.950 . S
H815 C839 0.951 . S
H816 C841 0.951 . S
H817 C843 0.950 . S
H818 C844 0.950 . S
H819 C846 0.950 . S
H820 C849 0.950 . S
H821 C850 0.950 . S
H822 C852 0.950 . S
H823 C853 0.950 . S
C824 H806 0.951 . S
C824 C825 1.366 . S
C824 C826 1.388 . S
C825 C824 1.366 . S
C825 C829 1.385 . S
C826 H807 0.951 . S
C826 C824 1.388 . S
C826 C827 1.366 . S
C827 C826 1.366 . S
C827 C828 1.414 . S
C827 C830 1.499 . S
C828 H808 0.950 . S
C828 C827 1.414 . S
C828 C829 1.374 . S
C829 H809 0.950 . S
C829 C825 1.385 . S
C829 C828 1.374 . S
C830 C827 1.499 . S
C830 C831 1.373 . S
C830 C832 1.389 . S
C831 H810 0.950 . S
C831 C830 1.373 . S
C831 C847 1.377 . S
C832 C830 1.389 . S
C832 C833 1.524 . S
C832 C846 1.377 . S
C833 C832 1.524 . S
C833 C834 1.397 . S
C833 C838 1.363 . S
C834 H811 0.950 . S
C834 C833 1.397 . S
C834 C835 1.334 . S
C835 H812 0.950 . S
C835 C834 1.334 . S
C835 C836 1.287 . S
C836 C835 1.287 . S
C836 C837 1.524 . S
C836 H855 0.913 . S
C837 H813 0.950 . S
C837 C836 1.524 . S
C837 C838 1.415 . S
C838 H814 0.950 . S
C838 C833 1.363 . S
C838 C837 1.415 . S
C839 H815 0.951 . S
C839 C840 1.366 . S
C839 C841 1.388 . S
C840 C839 1.366 . S
C840 C844 1.385 . S
C841 H816 0.951 . S
C841 C839 1.388 . S
C841 C842 1.366 . S
C842 C841 1.366 . S
C842 C843 1.414 . S
C842 C845 1.499 . S
C843 H817 0.950 . S
C843 C842 1.414 . S
C843 C844 1.374 . S
C844 H818 0.950 . S
C844 C840 1.385 . S
C844 C843 1.374 . S
C845 C842 1.499 . S
C845 C846 1.373 . S
C845 C847 1.389 . S
C846 H819 0.950 . S
C846 C832 1.377 . S
C846 C845 1.373 . S
C847 C831 1.377 . S
C847 C845 1.389 . S
C847 C848 1.524 . S
C848 C847 1.524 . S
C848 C849 1.397 . S
C848 C853 1.363 . S
C849 H820 0.950 . S
C849 C848 1.397 . S
C849 C850 1.334 . S
C850 H821 0.950 . S
C850 C849 1.334 . S
C850 C851 1.287 . S
C851 C850 1.287 . S
C851 C852 1.524 . S
C851 H854 0.999 . S
C852 H822 0.950 . S
C852 C851 1.524 . S
C852 C853 1.415 . S
C853 H823 0.950 . S
C853 C848 1.363 . S
C853 C852 1.415 . S
H854 C851 0.999 . S
H855 C836 0.913 . S
H856 C874 0.951 . S
H857 C876 0.951 . S
H858 C878 0.950 . S
H859 C879 0.950 . S
H860 C881 0.950 . S
H861 C884 0.950 . S
H862 C885 0.950 . S
H863 C887 0.950 . S
H864 C888 0.950 . S
H865 C889 0.951 . S
H866 C891 0.951 . S
H867 C893 0.950 . S
H868 C894 0.950 . S
H869 C896 0.950 . S
H870 C899 0.950 . S
H871 C900 0.950 . S
H872 C902 0.950 . S
H873 C903 0.950 . S
C874 H856 0.951 . S
C874 C875 1.366 . S
C874 C876 1.388 . S
C875 C874 1.366 . S
C875 C879 1.385 . S
C876 H857 0.951 . S
C876 C874 1.388 . S
C876 C877 1.366 . S
C877 C876 1.366 . S
C877 C878 1.414 . S
C877 C880 1.499 . S
C878 H858 0.950 . S
C878 C877 1.414 . S
C878 C879 1.374 . S
C879 H859 0.950 . S
C879 C875 1.385 . S
C879 C878 1.374 . S
C880 C877 1.499 . S
C880 C881 1.371 1_655 S
C880 C882 1.389 . S
C881 H860 0.950 . S
C881 C880 1.371 1_455 S
C881 C897 1.379 . S
C882 C880 1.389 . S
C882 C883 1.524 . S
C882 C896 1.379 . S
C883 C882 1.524 . S
C883 C884 1.397 . S
C883 C888 1.363 . S
C884 H861 0.950 . S
C884 C883 1.397 . S
C884 C885 1.334 . S
C885 H862 0.950 . S
C885 C884 1.334 . S
C885 C886 1.287 . S
C886 C885 1.287 . S
C886 C887 1.524 . S
C886 H905 0.913 . S
C887 H863 0.950 . S
C887 C886 1.524 . S
C887 C888 1.415 . S
C888 H864 0.950 . S
C888 C883 1.363 . S
C888 C887 1.415 . S
C889 H865 0.951 . S
C889 C890 1.366 . S
C889 C891 1.388 . S
C890 C889 1.366 . S
C890 C894 1.385 . S
C891 H866 0.951 . S
C891 C889 1.388 . S
C891 C892 1.366 . S
C892 C891 1.366 . S
C892 C893 1.414 . S
C892 C895 1.499 . S
C893 H867 0.950 . S
C893 C892 1.414 . S
C893 C894 1.374 . S
C894 H868 0.950 . S
C894 C890 1.385 . S
C894 C893 1.374 . S
C895 C892 1.499 . S
C895 C896 1.371 1_455 S
C895 C897 1.389 . S
C896 H869 0.950 . S
C896 C882 1.379 . S
C896 C895 1.371 1_655 S
C897 C881 1.379 . S
C897 C895 1.389 . S
C897 C898 1.524 . S
C898 C897 1.524 . S
C898 C899 1.397 . S
C898 C903 1.363 . S
C899 H870 0.950 . S
C899 C898 1.397 . S
C899 C900 1.334 . S
C900 H871 0.950 . S
C900 C899 1.334 . S
C900 C901 1.287 . S
C901 C900 1.287 . S
C901 C902 1.524 . S
C901 H904 0.999 . S
C902 H872 0.950 . S
C902 C901 1.524 . S
C902 C903 1.415 . S
C903 H873 0.950 . S
C903 C898 1.363 . S
C903 C902 1.415 . S
H904 C901 0.999 . S
H905 C886 0.913 . S
H906 C924 0.951 . S
H907 C926 0.928 1_556 S
H908 C928 0.950 . S
H909 C929 0.950 . S
H910 C931 0.950 . S
H911 C934 0.950 . S
H912 C935 0.950 . S
H913 C937 0.950 . S
H914 C938 0.950 . S
H915 C939 0.951 . S
H916 C941 0.928 1_554 S
H917 C943 0.950 . S
H918 C944 0.950 . S
H919 C946 0.950 . S
H920 C949 0.950 . S
H921 C950 0.950 . S
H922 C952 0.950 . S
H923 C953 0.950 . S
C924 H906 0.951 . S
C924 C925 1.366 . S
C924 C926 1.388 . S
C925 C924 1.366 . S
C925 C929 1.385 . S
C926 H907 0.928 1_554 S
C926 C924 1.388 . S
C926 C927 1.366 . S
C927 C926 1.366 . S
C927 C928 1.414 . S
C927 C930 1.499 . S
C928 H908 0.950 . S
C928 C927 1.414 . S
C928 C929 1.374 . S
C929 H909 0.950 . S
C929 C925 1.385 . S
C929 C928 1.374 . S
C930 C927 1.499 . S
C930 C931 1.373 . S
C930 C932 1.389 1_554 S
C931 H910 0.950 . S
C931 C930 1.373 . S
C931 C947 1.377 1_565 S
C932 C930 1.389 1_556 S
C932 C933 1.524 . S
C932 C946 1.377 1_565 S
C933 C932 1.524 . S
C933 C934 1.397 1_556 S
C933 C938 1.363 . S
C934 H911 0.950 . S
C934 C933 1.397 1_554 S
C934 C935 1.334 . S
C935 H912 0.950 . S
C935 C934 1.334 . S
C935 C936 1.287 1_554 S
C936 C935 1.287 1_556 S
C936 C937 1.524 . S
C936 H955 0.913 . S
C937 H913 0.950 . S
C937 C936 1.524 . S
C937 C938 1.415 . S
C938 H914 0.950 . S
C938 C933 1.363 . S
C938 C937 1.415 . S
C939 H915 0.951 . S
C939 C940 1.366 . S
C939 C941 1.388 . S
C940 C939 1.366 . S
C940 C944 1.385 . S
C941 H916 0.928 1_556 S
C941 C939 1.388 . S
C941 C942 1.366 . S
C942 C941 1.366 . S
C942 C943 1.414 . S
C942 C945 1.499 . S
C943 H917 0.950 . S
C943 C942 1.414 . S
C943 C944 1.374 . S
C944 H918 0.950 . S
C944 C940 1.385 . S
C944 C943 1.374 . S
C945 C942 1.499 . S
C945 C946 1.373 . S
C945 C947 1.389 1_556 S
C946 H919 0.950 . S
C946 C932 1.377 1_545 S
C946 C945 1.373 . S
C947 C931 1.377 1_545 S
C947 C945 1.389 1_554 S
C947 C948 1.524 . S
C948 C947 1.524 . S
C948 C949 1.397 1_554 S
C948 C953 1.363 . S
C949 H920 0.950 . S
C949 C948 1.397 1_556 S
C949 C950 1.334 . S
C950 H921 0.950 . S
C950 C949 1.334 . S
C950 C951 1.287 1_556 S
C951 C950 1.287 1_554 S
C951 C952 1.524 . S
C951 H954 0.999 . S
C952 H922 0.950 . S
C952 C951 1.524 . S
C952 C953 1.415 . S
C953 H923 0.950 . S
C953 C948 1.363 . S
C953 C952 1.415 . S
H954 C951 0.999 . S
H955 C936 0.913 . S
H956 C974 0.951 . S
H957 C976 0.951 . S
H958 C978 0.950 . S
H959 C979 0.950 . S
H960 C981 0.950 . S
H961 C984 0.950 . S
H962 C985 0.950 . S
H963 C987 0.950 . S
H964 C988 0.950 . S
H965 C989 0.951 . S
H966 C991 0.951 . S
H967 C993 0.950 . S
H968 C994 0.950 . S
H969 C996 0.950 . S
H970 C999 0.950 . S
H971 C1000 0.950 . S
H972 C1002 0.950 . S
H973 C1003 0.950 . S
C974 H956 0.951 . S
C974 C975 1.366 . S
C974 C976 1.388 . S
C975 C974 1.366 . S
C975 C979 1.385 . S
C976 H957 0.951 . S
C976 C974 1.388 . S
C976 C977 1.366 . S
C977 C976 1.366 . S
C977 C978 1.414 . S
C977 C980 1.499 . S
C978 H958 0.950 . S
C978 C977 1.414 . S
C978 C979 1.374 . S
C979 H959 0.950 . S
C979 C975 1.385 . S
C979 C978 1.374 . S
C980 C977 1.499 . S
C980 C981 1.373 . S
C980 C982 1.389 . S
C981 H960 0.950 . S
C981 C980 1.373 . S
C981 C997 1.377 . S
C982 C980 1.389 . S
C982 C983 1.524 . S
C982 C996 1.377 . S
C983 C982 1.524 . S
C983 C984 1.397 . S
C983 C988 1.363 . S
C984 H961 0.950 . S
C984 C983 1.397 . S
C984 C985 1.334 . S
C985 H962 0.950 . S
C985 C984 1.334 . S
C985 C986 1.287 . S
C986 C985 1.287 . S
C986 C987 1.524 . S
C986 H1005 0.913 . S
C987 H963 0.950 . S
C987 C986 1.524 . S
C987 C988 1.415 . S
C988 H964 0.950 . S
C988 C983 1.363 . S
C988 C987 1.415 . S
C989 H965 0.951 . S
C989 C990 1.366 . S
C989 C991 1.388 . S
C990 C989 1.366 . S
C990 C994 1.385 . S
C991 H966 0.951 . S
C991 C989 1.388 . S
C991 C992 1.366 . S
C992 C991 1.366 . S
C992 C993 1.414 . S
C992 C995 1.499 . S
C993 H967 0.950 . S
C993 C992 1.414 . S
C993 C994 1.374 . S
C994 H968 0.950 . S
C994 C990 1.385 . S
C994 C993 1.374 . S
C995 C992 1.499 . S
C995 C996 1.373 . S
C995 C997 1.389 . S
C996 H969 0.950 . S
C996 C982 1.377 . S
C996 C995 1.373 . S
C997 C981 1.377 . S
C997 C995 1.389 . S
C997 C998 1.524 . S
C998 C997 1.524 . S
C998 C999 1.397 . S
C998 C1003 1.363 . S
C999 H970 0.950 . S
C999 C998 1.397 . S
C999 C1000 1.334 . S
C1000 H971 0.950 . S
C1000 C999 1.334 . S
C1000 C1001 1.287 . S
C1001 C1000 1.287 . S
C1001 C1002 1.524 . S
C1001 H1004 0.999 . S
C1002 H972 0.950 . S
C1002 C1001 1.524 . S
C1002 C1003 1.415 . S
C1003 H973 0.950 . S
C1003 C998 1.363 . S
C1003 C1002 1.415 . S
H1004 C1001 0.999 . S
H1005 C986 0.913 . S
H1006 C1024 0.951 . S
H1007 C1026 0.951 . S
H1008 C1028 0.950 . S
H1009 C1029 0.950 . S
H1010 C1031 0.950 . S
H1011 C1034 0.950 . S
H1012 C1035 0.950 . S
H1013 C1037 0.950 . S
H1014 C1038 0.950 . S
H1015 C1039 0.951 . S
H1016 C1041 0.951 . S
H1017 C1043 0.950 . S
H1018 C1044 0.950 . S
H1019 C1046 0.950 . S
H1020 C1049 0.950 . S
H1021 C1050 0.950 . S
H1022 C1052 0.950 . S
H1023 C1053 0.950 . S
C1024 H1006 0.951 . S
C1024 C1025 1.366 . S
C1024 C1026 1.388 . S
C1025 C1024 1.366 . S
C1025 C1029 1.385 . S
C1026 H1007 0.951 . S
C1026 C1024 1.388 . S
C1026 C1027 1.366 . S
C1027 C1026 1.366 . S
C1027 C1028 1.414 . S
C1027 C1030 1.499 . S
C1028 H1008 0.950 . S
C1028 C1027 1.414 . S
C1028 C1029 1.374 . S
C1029 H1009 0.950 . S
C1029 C1025 1.385 . S
C1029 C1028 1.374 . S
C1030 C1027 1.499 . S
C1030 C1031 1.373 . S
C1030 C1032 1.389 . S
C1031 H1010 0.950 . S
C1031 C1030 1.373 . S
C1031 C1047 1.377 1_455 S
C1032 C1030 1.389 . S
C1032 C1033 1.524 . S
C1032 C1046 1.377 1_455 S
C1033 C1032 1.524 . S
C1033 C1034 1.397 . S
C1033 C1038 1.363 1_455 S
C1034 H1011 0.950 . S
C1034 C1033 1.397 . S
C1034 C1035 1.334 . S
C1035 H1012 0.950 . S
C1035 C1034 1.334 . S
C1035 C1036 1.287 . S
C1036 C1035 1.287 . S
C1036 C1037 1.524 1_455 S
C1036 H1055 0.913 . S
C1037 H1013 0.950 . S
C1037 C1036 1.524 1_655 S
C1037 C1038 1.415 . S
C1038 H1014 0.950 . S
C1038 C1033 1.363 1_655 S
C1038 C1037 1.415 . S
C1039 H1015 0.951 . S
C1039 C1040 1.366 . S
C1039 C1041 1.388 . S
C1040 C1039 1.366 . S
C1040 C1044 1.385 . S
C1041 H1016 0.951 . S
C1041 C1039 1.388 . S
C1041 C1042 1.366 . S
C1042 C1041 1.366 . S
C1042 C1043 1.414 . S
C1042 C1045 1.499 . S
C1043 H1017 0.950 . S
C1043 C1042 1.414 . S
C1043 C1044 1.374 . S
C1044 H1018 0.950 . S
C1044 C1040 1.385 . S
C1044 C1043 1.374 . S
C1045 C1042 1.499 . S
C1045 C1046 1.373 . S
C1045 C1047 1.389 . S
C1046 H1019 0.950 . S
C1046 C1032 1.377 1_655 S
C1046 C1045 1.373 . S
C1047 C1031 1.377 1_655 S
C1047 C1045 1.389 . S
C1047 C1048 1.524 . S
C1048 C1047 1.524 . S
C1048 C1049 1.397 . S
C1048 C1053 1.363 1_655 S
C1049 H1020 0.950 . S
C1049 C1048 1.397 . S
C1049 C1050 1.334 . S
C1050 H1021 0.950 . S
C1050 C1049 1.334 . S
C1050 C1051 1.287 . S
C1051 C1050 1.287 . S
C1051 C1052 1.524 1_655 S
C1051 H1054 0.999 . S
C1052 H1022 0.950 . S
C1052 C1051 1.524 1_455 S
C1052 C1053 1.415 . S
C1053 H1023 0.950 . S
C1053 C1048 1.363 1_455 S
C1053 C1052 1.415 . S
H1054 C1051 0.999 . S
H1055 C1036 0.913 . S
H1056 C1074 0.951 1_655 S
H1057 C1076 0.999 . S
H1058 C1078 0.950 . S
H1059 C1079 0.950 . S
H1060 C1081 0.950 . S
H1061 C1084 0.950 . S
H1062 C1085 0.950 . S
H1063 C1087 0.950 . S
H1064 C1088 0.950 . S
H1065 C1089 0.951 . S
H1066 C1091 1.000 . S
H1067 C1093 0.950 . S
H1068 C1094 0.950 . S
H1069 C1096 0.950 . S
H1070 C1099 0.950 . S
H1071 C1100 0.950 . S
H1072 C1102 0.950 . S
H1073 C1103 0.950 . S
C1074 H1056 0.951 1_455 S
C1074 C1075 1.366 1_455 S
C1074 C1076 1.388 . S
C1075 C1074 1.366 1_655 S
C1075 C1079 1.385 1_655 S
C1076 H1057 0.999 . S
C1076 C1074 1.388 . S
C1076 C1077 1.366 . S
C1077 C1076 1.366 . S
C1077 C1078 1.414 . S
C1077 C1080 1.499 . S
C1078 H1058 0.950 . S
C1078 C1077 1.414 . S
C1078 C1079 1.374 . S
C1079 H1059 0.950 . S
C1079 C1075 1.385 1_455 S
C1079 C1078 1.374 . S
C1080 C1077 1.499 . S
C1080 C1081 1.373 . S
C1080 C1082 1.419 . S
C1081 H1060 0.950 . S
C1081 C1080 1.373 . S
C1081 C1097 1.345 1_556 S
C1082 C1080 1.419 . S
C1082 C1083 1.529 . S
C1082 C1096 1.345 1_556 S
C1083 C1082 1.529 . S
C1083 C1084 1.397 . S
C1083 C1088 1.363 1_556 S
C1084 H1061 0.950 . S
C1084 C1083 1.397 . S
C1084 C1085 1.334 . S
C1085 H1062 0.950 . S
C1085 C1084 1.334 . S
C1085 C1086 1.287 . S
C1086 C1085 1.287 . S
C1086 C1087 1.524 1_556 S
C1086 H1105 0.913 . S
C1087 H1063 0.950 . S
C1087 C1086 1.524 1_554 S
C1087 C1088 1.415 . S
C1088 H1064 0.950 . S
C1088 C1083 1.363 1_554 S
C1088 C1087 1.415 . S
C1089 H1065 0.951 . S
C1089 C1090 1.366 . S
C1089 C1091 1.388 . S
C1090 C1089 1.366 . S
C1090 C1094 1.385 . S
C1091 H1066 1.000 . S
C1091 C1089 1.388 . S
C1091 C1092 1.366 . S
C1092 C1091 1.366 . S
C1092 C1093 1.414 . S
C1092 C1095 1.499 . S
C1093 H1067 0.950 . S
C1093 C1092 1.414 . S
C1093 C1094 1.374 . S
C1094 H1068 0.950 . S
C1094 C1090 1.385 . S
C1094 C1093 1.374 . S
C1095 C1092 1.499 . S
C1095 C1096 1.373 . S
C1095 C1097 1.420 . S
C1096 H1069 0.950 . S
C1096 C1082 1.345 1_554 S
C1096 C1095 1.373 . S
C1097 C1081 1.345 1_554 S
C1097 C1095 1.420 . S
C1097 C1098 1.529 . S
C1098 C1097 1.529 . S
C1098 C1099 1.397 . S
C1098 C1103 1.363 1_554 S
C1099 H1070 0.950 . S
C1099 C1098 1.397 . S
C1099 C1100 1.334 . S
C1100 H1071 0.950 . S
C1100 C1099 1.334 . S
C1100 C1101 1.287 . S
C1101 C1100 1.287 . S
C1101 C1102 1.524 1_554 S
C1101 H1104 0.999 . S
C1102 H1072 0.950 . S
C1102 C1101 1.524 1_556 S
C1102 C1103 1.415 . S
C1103 H1073 0.950 . S
C1103 C1098 1.363 1_556 S
C1103 C1102 1.415 . S
H1104 C1101 0.999 . S
H1105 C1086 0.913 . S
H1106 C1124 0.951 . S
H1107 C1126 0.951 . S
H1108 C1128 0.950 . S
H1109 C1129 0.950 . S
H1110 C1131 0.950 . S
H1111 C1134 0.950 . S
H1112 C1135 0.953 1_565 S
H1113 C1137 0.950 . S
H1114 C1138 0.950 . S
H1115 C1139 0.951 . S
H1116 C1141 0.951 . S
H1117 C1143 0.950 . S
H1118 C1144 0.949 . S
H1119 C1146 0.950 . S
H1120 C1149 0.950 . S
H1121 C1150 0.950 1_455 S
H1122 C1152 0.950 . S
H1123 C1153 0.950 . S
C1124 H1106 0.951 . S
C1124 C1125 1.366 . S
C1124 C1126 1.388 1_565 S
C1125 C1124 1.366 . S
C1125 C1129 1.385 1_565 S
C1126 H1107 0.951 . S
C1126 C1124 1.388 1_545 S
C1126 C1127 1.366 . S
C1127 C1126 1.366 . S
C1127 C1128 1.414 . S
C1127 C1130 1.499 . S
C1128 H1108 0.950 . S
C1128 C1127 1.414 . S
C1128 C1129 1.374 . S
C1129 H1109 0.950 . S
C1129 C1125 1.385 1_545 S
C1129 C1128 1.374 . S
C1130 C1127 1.499 . S
C1130 C1131 1.373 . S
C1130 C1132 1.389 . S
C1131 H1110 0.950 . S
C1131 C1130 1.373 . S
C1131 C1147 1.377 . S
C1132 C1130 1.389 . S
C1132 C1133 1.524 . S
C1132 C1146 1.377 . S
C1133 C1132 1.524 . S
C1133 C1134 1.397 . S
C1133 C1138 1.363 . S
C1134 H1111 0.950 . S
C1134 C1133 1.397 . S
C1134 C1135 1.334 . S
C1135 H1112 0.953 1_545 S
C1135 C1134 1.334 . S
C1135 C1136 1.287 1_545 S
C1136 C1135 1.287 1_565 S
C1136 C1137 1.524 . S
C1136 H1155 0.913 . S
C1137 H1113 0.950 . S
C1137 C1136 1.524 . S
C1137 C1138 1.415 1_565 S
C1138 H1114 0.950 . S
C1138 C1133 1.363 . S
C1138 C1137 1.415 1_545 S
C1139 H1115 0.951 . S
C1139 C1140 1.366 1_655 S
C1139 C1141 1.388 . S
C1140 C1139 1.366 1_455 S
C1140 C1144 1.385 . S
C1141 H1116 0.951 . S
C1141 C1139 1.388 . S
C1141 C1142 1.366 . S
C1142 C1141 1.366 . S
C1142 C1143 1.414 . S
C1142 C1145 1.499 . S
C1143 H1117 0.950 . S
C1143 C1142 1.414 . S
C1143 C1144 1.374 1_655 S
C1144 H1118 0.949 . S
C1144 C1140 1.385 . S
C1144 C1143 1.374 1_455 S
C1145 C1142 1.499 . S
C1145 C1146 1.373 . S
C1145 C1147 1.389 . S
C1146 H1119 0.950 . S
C1146 C1132 1.377 . S
C1146 C1145 1.373 . S
C1147 C1131 1.377 . S
C1147 C1145 1.389 . S
C1147 C1148 1.524 . S
C1148 C1147 1.524 . S
C1148 C1149 1.397 . S
C1148 C1153 1.363 . S
C1149 H1120 0.950 . S
C1149 C1148 1.397 . S
C1149 C1150 1.334 . S
C1150 H1121 0.950 1_655 S
C1150 C1149 1.334 . S
C1150 C1151 1.287 . S
C1151 C1150 1.287 . S
C1151 C1152 1.524 . S
C1151 H1154 1.003 . S
C1152 H1122 0.950 . S
C1152 C1151 1.524 . S
C1152 C1153 1.415 . S
C1153 H1123 0.950 . S
C1153 C1148 1.363 . S
C1153 C1152 1.415 . S
H1154 C1151 1.003 . S
H1155 C1136 0.913 . S
H1156 C1174 0.951 . S
H1157 C1176 0.951 . S
H1158 C1178 0.950 . S
H1159 C1179 0.950 . S
H1160 C1181 0.950 . S
H1161 C1184 0.950 . S
H1162 C1185 0.950 . S
H1163 C1187 0.950 . S
H1164 C1188 0.950 . S
H1165 C1189 0.951 . S
H1166 C1191 0.951 . S
H1167 C1193 0.950 . S
H1168 C1194 0.950 . S
H1169 C1196 0.950 . S
H1170 C1199 0.950 . S
H1171 C1200 0.950 . S
H1172 C1202 0.950 . S
H1173 C1203 0.950 . S
C1174 H1156 0.951 . S
C1174 C1175 1.366 . S
C1174 C1176 1.388 . S
C1175 C1174 1.366 . S
C1175 C1179 1.385 . S
C1176 H1157 0.951 . S
C1176 C1174 1.388 . S
C1176 C1177 1.366 . S
C1177 C1176 1.366 . S
C1177 C1178 1.414 . S
C1177 C1180 1.499 . S
C1178 H1158 0.950 . S
C1178 C1177 1.414 . S
C1178 C1179 1.374 . S
C1179 H1159 0.950 . S
C1179 C1175 1.385 . S
C1179 C1178 1.374 . S
C1180 C1177 1.499 . S
C1180 C1181 1.373 . S
C1180 C1182 1.389 . S
C1181 H1160 0.950 . S
C1181 C1180 1.373 . S
C1181 C1197 1.377 . S
C1182 C1180 1.389 . S
C1182 C1183 1.524 . S
C1182 C1196 1.377 . S
C1183 C1182 1.524 . S
C1183 C1184 1.397 . S
C1183 C1188 1.363 . S
C1184 H1161 0.950 . S
C1184 C1183 1.397 . S
C1184 C1185 1.334 . S
C1185 H1162 0.950 . S
C1185 C1184 1.334 . S
C1185 C1186 1.287 . S
C1186 C1185 1.287 . S
C1186 C1187 1.524 . S
C1186 H1205 0.913 . S
C1187 H1163 0.950 . S
C1187 C1186 1.524 . S
C1187 C1188 1.415 . S
C1188 H1164 0.950 . S
C1188 C1183 1.363 . S
C1188 C1187 1.415 . S
C1189 H1165 0.951 . S
C1189 C1190 1.366 . S
C1189 C1191 1.388 1_545 S
C1190 C1189 1.366 . S
C1190 C1194 1.385 1_545 S
C1191 H1166 0.951 . S
C1191 C1189 1.388 1_565 S
C1191 C1192 1.366 . S
C1192 C1191 1.366 . S
C1192 C1193 1.414 . S
C1192 C1195 1.499 . S
C1193 H1167 0.950 . S
C1193 C1192 1.414 . S
C1193 C1194 1.374 . S
C1194 H1168 0.950 . S
C1194 C1190 1.385 1_565 S
C1194 C1193 1.374 . S
C1195 C1192 1.499 . S
C1195 C1196 1.373 . S
C1195 C1197 1.389 . S
C1196 H1169 0.950 . S
C1196 C1182 1.377 . S
C1196 C1195 1.373 . S
C1197 C1181 1.377 . S
C1197 C1195 1.389 . S
C1197 C1198 1.524 . S
C1198 C1197 1.524 . S
C1198 C1199 1.397 . S
C1198 C1203 1.363 . S
C1199 H1170 0.950 . S
C1199 C1198 1.397 . S
C1199 C1200 1.334 . S
C1200 H1171 0.950 . S
C1200 C1199 1.334 . S
C1200 C1201 1.287 . S
C1201 C1200 1.287 . S
C1201 C1202 1.524 . S
C1201 H1204 0.999 . S
C1202 H1172 0.950 . S
C1202 C1201 1.524 . S
C1202 C1203 1.415 . S
C1203 H1173 0.950 . S
C1203 C1198 1.363 . S
C1203 C1202 1.415 . S
H1204 C1201 0.999 . S
H1205 C1186 0.913 . S
H1206 C1224 0.951 . S
H1207 C1226 0.951 . S
H1208 C1228 0.950 . S
H1209 C1229 0.950 . S
H1210 C1231 0.950 . S
H1211 C1234 0.950 . S
H1212 C1235 0.950 . S
H1213 C1237 0.950 . S
H1214 C1238 0.950 1_554 S
H1215 C1239 0.951 . S
H1216 C1241 0.951 . S
H1217 C1243 0.950 . S
H1218 C1244 0.950 . S
H1219 C1246 0.950 . S
H1220 C1249 0.950 . S
H1221 C1250 0.950 . S
H1222 C1252 0.950 . S
H1223 C1253 0.950 1_556 S
C1224 H1206 0.951 . S
C1224 C1225 1.366 . S
C1224 C1226 1.388 . S
C1225 C1224 1.366 . S
C1225 C1229 1.385 . S
C1226 H1207 0.951 . S
C1226 C1224 1.388 . S
C1226 C1227 1.366 . S
C1227 C1226 1.366 . S
C1227 C1228 1.414 . S
C1227 C1230 1.499 . S
C1228 H1208 0.950 . S
C1228 C1227 1.414 . S
C1228 C1229 1.374 . S
C1229 H1209 0.950 . S
C1229 C1225 1.385 . S
C1229 C1228 1.374 . S
C1230 C1227 1.499 . S
C1230 C1231 1.373 . S
C1230 C1232 1.355 1_554 S
C1231 H1210 0.950 . S
C1231 C1230 1.373 . S
C1231 C1247 1.409 . S
C1232 C1230 1.355 1_556 S
C1232 C1233 1.536 . S
C1232 C1246 1.409 . S
C1233 C1232 1.536 . S
C1233 C1234 1.397 . S
C1233 C1238 1.363 . S
C1234 H1211 0.950 . S
C1234 C1233 1.397 . S
C1234 C1235 1.334 . S
C1235 H1212 0.950 . S
C1235 C1234 1.334 . S
C1235 C1236 1.287 . S
C1236 C1235 1.287 . S
C1236 C1237 1.524 . S
C1236 H1255 0.913 . S
C1237 H1213 0.950 . S
C1237 C1236 1.524 . S
C1237 C1238 1.415 . S
C1238 H1214 0.950 1_556 S
C1238 C1233 1.363 . S
C1238 C1237 1.415 . S
C1239 H1215 0.951 . S
C1239 C1240 1.366 1_655 S
C1239 C1241 1.388 . S
C1240 C1239 1.366 1_455 S
C1240 C1244 1.385 . S
C1241 H1216 0.951 . S
C1241 C1239 1.388 . S
C1241 C1242 1.366 . S
C1242 C1241 1.366 . S
C1242 C1243 1.414 . S
C1242 C1245 1.499 . S
C1243 H1217 0.950 . S
C1243 C1242 1.414 . S
C1243 C1244 1.374 1_655 S
C1244 H1218 0.950 . S
C1244 C1240 1.385 . S
C1244 C1243 1.374 1_455 S
C1245 C1242 1.499 . S
C1245 C1246 1.373 . S
C1245 C1247 1.355 1_556 S
C1246 H1219 0.950 . S
C1246 C1232 1.409 . S
C1246 C1245 1.373 . S
C1247 C1231 1.409 . S
C1247 C1245 1.355 1_554 S
C1247 C1248 1.536 . S
C1248 C1247 1.536 . S
C1248 C1249 1.397 . S
C1248 C1253 1.363 . S
C1249 H1220 0.950 . S
C1249 C1248 1.397 . S
C1249 C1250 1.334 . S
C1250 H1221 0.950 . S
C1250 C1249 1.334 . S
C1250 C1251 1.287 . S
C1251 C1250 1.287 . S
C1251 C1252 1.524 . S
C1251 H1254 0.999 . S
C1252 H1222 0.950 . S
C1252 C1251 1.524 . S
C1252 C1253 1.415 . S
C1253 H1223 0.950 1_554 S
C1253 C1248 1.363 . S
C1253 C1252 1.415 . S
H1254 C1251 0.999 . S
H1255 C1236 0.913 . S
H1256 C1274 0.951 . S
H1257 C1276 0.951 . S
H1258 C1278 0.950 . S
H1259 C1279 0.950 . S
H1260 C1281 0.950 . S
H1261 C1284 0.950 . S
H1262 C1285 0.950 . S
H1263 C1287 0.950 . S
H1264 C1288 0.950 . S
H1265 C1289 0.951 . S
H1266 C1291 0.951 . S
H1267 C1293 0.950 . S
H1268 C1294 0.950 . S
H1269 C1296 0.950 . S
H1270 C1299 0.950 . S
H1271 C1300 0.950 . S
H1272 C1302 0.950 . S
H1273 C1303 0.950 . S
C1274 H1256 0.951 . S
C1274 C1275 1.366 . S
C1274 C1276 1.388 1_655 S
C1275 C1274 1.366 . S
C1275 C1279 1.385 1_655 S
C1276 H1257 0.951 . S
C1276 C1274 1.388 1_455 S
C1276 C1277 1.366 . S
C1277 C1276 1.366 . S
C1277 C1278 1.414 . S
C1277 C1280 1.499 . S
C1278 H1258 0.950 . S
C1278 C1277 1.414 . S
C1278 C1279 1.374 . S
C1279 H1259 0.950 . S
C1279 C1275 1.385 1_455 S
C1279 C1278 1.374 . S
C1280 C1277 1.499 . S
C1280 C1281 1.373 . S
C1280 C1282 1.389 . S
C1281 H1260 0.950 . S
C1281 C1280 1.373 . S
C1281 C1297 1.377 . S
C1282 C1280 1.389 . S
C1282 C1283 1.524 . S
C1282 C1296 1.377 . S
C1283 C1282 1.524 . S
C1283 C1284 1.397 . S
C1283 C1288 1.363 . S
C1284 H1261 0.950 . S
C1284 C1283 1.397 . S
C1284 C1285 1.334 1_455 S
C1285 H1262 0.950 . S
C1285 C1284 1.334 1_655 S
C1285 C1286 1.287 . S
C1286 C1285 1.287 . S
C1286 C1287 1.524 . S
C1286 H1305 0.913 . S
C1287 H1263 0.950 . S
C1287 C1286 1.524 . S
C1287 C1288 1.415 1_655 S
C1288 H1264 0.950 . S
C1288 C1283 1.363 . S
C1288 C1287 1.415 1_455 S
C1289 H1265 0.951 . S
C1289 C1290 1.366 1_565 S
C1289 C1291 1.388 . S
C1290 C1289 1.366 1_545 S
C1290 C1294 1.385 . S
C1291 H1266 0.951 . S
C1291 C1289 1.388 . S
C1291 C1292 1.366 . S
C1292 C1291 1.366 . S
C1292 C1293 1.414 . S
C1292 C1295 1.499 . S
C1293 H1267 0.950 . S
C1293 C1292 1.414 . S
C1293 C1294 1.374 1_565 S
C1294 H1268 0.950 . S
C1294 C1290 1.385 . S
C1294 C1293 1.374 1_545 S
C1295 C1292 1.499 . S
C1295 C1296 1.373 . S
C1295 C1297 1.389 . S
C1296 H1269 0.950 . S
C1296 C1282 1.377 . S
C1296 C1295 1.373 . S
C1297 C1281 1.377 . S
C1297 C1295 1.389 . S
C1297 C1298 1.524 . S
C1298 C1297 1.524 . S
C1298 C1299 1.397 . S
C1298 C1303 1.363 . S
C1299 H1270 0.950 . S
C1299 C1298 1.397 . S
C1299 C1300 1.334 . S
C1300 H1271 0.950 . S
C1300 C1299 1.334 . S
C1300 C1301 1.287 . S
C1301 C1300 1.287 . S
C1301 C1302 1.524 . S
C1301 H1304 0.999 . S
C1302 H1272 0.950 . S
C1302 C1301 1.524 . S
C1302 C1303 1.415 . S
C1303 H1273 0.950 . S
C1303 C1298 1.363 . S
C1303 C1302 1.415 . S
H1304 C1301 0.999 . S
H1305 C1286 0.913 . S
H1306 C1324 0.951 1_565 S
H1307 C1326 0.951 . S
H1308 C1328 0.950 . S
H1309 C1329 0.950 . S
H1310 C1331 0.950 . S
H1311 C1334 0.950 . S
H1312 C1335 0.950 . S
H1313 C1337 0.950 . S
H1314 C1338 0.950 . S
H1315 C1339 0.951 . S
H1316 C1341 0.951 . S
H1317 C1343 0.950 . S
H1318 C1344 0.950 . S
H1319 C1346 0.950 . S
H1320 C1349 0.950 . S
H1321 C1350 0.950 . S
H1322 C1352 0.950 . S
H1323 C1353 0.950 . S
C1324 H1306 0.951 1_545 S
C1324 C1325 1.366 1_545 S
C1324 C1326 1.388 . S
C1325 C1324 1.366 1_565 S
C1325 C1329 1.385 1_565 S
C1326 H1307 0.951 . S
C1326 C1324 1.388 . S
C1326 C1327 1.366 . S
C1327 C1326 1.366 . S
C1327 C1328 1.414 . S
C1327 C1330 1.499 . S
C1328 H1308 0.950 . S
C1328 C1327 1.414 . S
C1328 C1329 1.374 . S
C1329 H1309 0.950 . S
C1329 C1325 1.385 1_545 S
C1329 C1328 1.374 . S
C1330 C1327 1.499 . S
C1330 C1331 1.373 . S
C1330 C1332 1.389 . S
C1331 H1310 0.950 . S
C1331 C1330 1.373 . S
C1331 C1347 1.377 . S
C1332 C1330 1.389 . S
C1332 C1333 1.524 . S
C1332 C1346 1.377 . S
C1333 C1332 1.524 . S
C1333 C1334 1.397 . S
C1333 C1338 1.363 . S
C1334 H1311 0.950 . S
C1334 C1333 1.397 . S
C1334 C1335 1.334 1_545 S
C1335 H1312 0.950 . S
C1335 C1334 1.334 1_565 S
C1335 C1336 1.287 . S
C1336 C1335 1.287 . S
C1336 C1337 1.524 . S
C1336 H1355 0.913 . S
C1337 H1313 0.950 . S
C1337 C1336 1.524 . S
C1337 C1338 1.415 1_565 S
C1338 H1314 0.950 . S
C1338 C1333 1.363 . S
C1338 C1337 1.415 1_545 S
C1339 H1315 0.951 . S
C1339 C1340 1.366 . S
C1339 C1341 1.388 . S
C1340 C1339 1.366 . S
C1340 C1344 1.385 . S
C1341 H1316 0.951 . S
C1341 C1339 1.388 . S
C1341 C1342 1.366 . S
C1342 C1341 1.366 . S
C1342 C1343 1.414 . S
C1342 C1345 1.499 . S
C1343 H1317 0.950 . S
C1343 C1342 1.414 . S
C1343 C1344 1.374 . S
C1344 H1318 0.950 . S
C1344 C1340 1.385 . S
C1344 C1343 1.374 . S
C1345 C1342 1.499 . S
C1345 C1346 1.373 . S
C1345 C1347 1.389 . S
C1346 H1319 0.950 . S
C1346 C1332 1.377 . S
C1346 C1345 1.373 . S
C1347 C1331 1.377 . S
C1347 C1345 1.389 . S
C1347 C1348 1.524 . S
C1348 C1347 1.524 . S
C1348 C1349 1.397 . S
C1348 C1353 1.363 . S
C1349 H1320 0.950 . S
C1349 C1348 1.397 . S
C1349 C1350 1.334 . S
C1350 H1321 0.950 . S
C1350 C1349 1.334 . S
C1350 C1351 1.287 . S
C1351 C1350 1.287 . S
C1351 C1352 1.524 . S
C1351 H1354 0.999 . S
C1352 H1322 0.950 . S
C1352 C1351 1.524 . S
C1352 C1353 1.415 . S
C1353 H1323 0.950 . S
C1353 C1348 1.363 . S
C1353 C1352 1.415 . S
H1354 C1351 0.999 . S
H1355 C1336 0.913 . S
C175 C43 1.534 . S
C190 C10 1.534 . S
C225 C17 1.535 . S
C240 C56 1.535 . S
C275 C75 1.535 . S
C290 C36 1.535 . S
C325 C82 1.535 . S
C340 C121 1.535 . S
C375 C134 1.535 . S
C390 C101 1.535 . S
C425 C114 1.535 . S
C440 C147 1.535 . S
C475 C108 1.692 . S
C490 C4 1.692 . S
C525 C23 1.692 . S
C540 C127 1.692 . S
C575 C30 1.692 . S
C590 C140 1.692 . S
C625 C49 1.692 . S
C640 C153 1.692 . S
C675 C88 1.692 . S
C690 C62 1.692 . S
C725 C95 1.692 . S
C740 C69 1.692 . S
C775 C94 1.189 . S
C790 C3 1.190 . S
C825 C18 1.190 . S
C840 C107 1.189 . S
C875 C29 1.190 . S
C890 C122 1.189 . S
C925 C44 1.190 . S
C940 C135 1.189 . S
C975 C148 1.190 . S
C990 C57 1.189 . S
C1025 C68 1.189 . S
C1040 C83 1.190 . S
C1075 C133 1.380 . S
C1090 C5 1.380 . S
C1125 C146 1.380 . S
C1140 C16 1.380 . S
C1175 C81 1.380 . S
C1190 C31 1.380 . S
C1225 C42 1.380 . S
C1240 C96 1.380 . S
C1275 C55 1.380 . S
C1290 C109 1.380 . S
C1325 C70 1.380 . S
C1340 C120 1.380 . S
