# Generated by pormake.
# Topology whq, (6)-cn, num edge types: 1
# Building blocks:
#     Node 0, Type 0, BuildingBlock: OJICUG_clean_sbu_0, # of connection points: 6
#     Node 1, Type 0, BuildingBlock: OJICUG_clean_sbu_0, # of connection points: 6
#     Node 2, Type 0, BuildingBlock: OJICUG_clean_sbu_0, # of connection points: 6
#     Node 3, Type 0, BuildingBlock: OJICUG_clean_sbu_0, # of connection points: 6
#     Node 4, Type 0, BuildingBlock: OJICUG_clean_sbu_0, # of connection points: 6
#     Node 5, Type 0, BuildingBlock: OJICUG_clean_sbu_0, # of connection points: 6
#     Node 6, Type 0, BuildingBlock: OJICUG_clean_sbu_0, # of connection points: 6
#     Node 7, Type 0, BuildingBlock: OJICUG_clean_sbu_0, # of connection points: 6
#     Node 8, Type 0, BuildingBlock: OJICUG_clean_sbu_0, # of connection points: 6
#     Node 9, Type 0, BuildingBlock: OJICUG_clean_sbu_0, # of connection points: 6
#     Node 10, Type 0, BuildingBlock: OJICUG_clean_sbu_0, # of connection points: 6
#     Node 11, Type 0, BuildingBlock: OJICUG_clean_sbu_0, # of connection points: 6
#     Node 12, Type 0, BuildingBlock: OJICUG_clean_sbu_0, # of connection points: 6
#     Node 13, Type 0, BuildingBlock: OJICUG_clean_sbu_0, # of connection points: 6
#     Node 14, Type 0, BuildingBlock: OJICUG_clean_sbu_0, # of connection points: 6
#     Node 15, Type 0, BuildingBlock: OJICUG_clean_sbu_0, # of connection points: 6
#     Node 16, Type 0, BuildingBlock: OJICUG_clean_sbu_0, # of connection points: 6
#     Node 17, Type 0, BuildingBlock: OJICUG_clean_sbu_0, # of connection points: 6
#     Node 18, Type 0, BuildingBlock: OJICUG_clean_sbu_0, # of connection points: 6
#     Node 19, Type 0, BuildingBlock: OJICUG_clean_sbu_0, # of connection points: 6
#     Node 20, Type 0, BuildingBlock: OJICUG_clean_sbu_0, # of connection points: 6
#     Node 21, Type 0, BuildingBlock: OJICUG_clean_sbu_0, # of connection points: 6
#     Node 22, Type 0, BuildingBlock: OJICUG_clean_sbu_0, # of connection points: 6
#     Node 23, Type 0, BuildingBlock: OJICUG_clean_sbu_0, # of connection points: 6
#     Node 24, Type 0, BuildingBlock: OJICUG_clean_sbu_0, # of connection points: 6
#     Node 25, Type 0, BuildingBlock: OJICUG_clean_sbu_0, # of connection points: 6
#     Node 26, Type 0, BuildingBlock: OJICUG_clean_sbu_0, # of connection points: 6
#     Node 27, Type 0, BuildingBlock: OJICUG_clean_sbu_0, # of connection points: 6
#     Node 28, Type 0, BuildingBlock: OJICUG_clean_sbu_0, # of connection points: 6
#     Node 29, Type 0, BuildingBlock: OJICUG_clean_sbu_0, # of connection points: 6
#     Node 30, Type 0, BuildingBlock: OJICUG_clean_sbu_0, # of connection points: 6
#     Node 31, Type 0, BuildingBlock: OJICUG_clean_sbu_0, # of connection points: 6
#     Edge 32, Type (0, 0), BuildingBlock: UVAHIK_clean_linker_0, # of connection points: 2
#     Edge 33, Type (0, 0), BuildingBlock: UVAHIK_clean_linker_0, # of connection points: 2
#     Edge 34, Type (0, 0), BuildingBlock: UVAHIK_clean_linker_0, # of connection points: 2
#     Edge 35, Type (0, 0), BuildingBlock: UVAHIK_clean_linker_0, # of connection points: 2
#     Edge 36, Type (0, 0), BuildingBlock: UVAHIK_clean_linker_0, # of connection points: 2
#     Edge 37, Type (0, 0), BuildingBlock: UVAHIK_clean_linker_0, # of connection points: 2
#     Edge 38, Type (0, 0), BuildingBlock: UVAHIK_clean_linker_0, # of connection points: 2
#     Edge 39, Type (0, 0), BuildingBlock: UVAHIK_clean_linker_0, # of connection points: 2
#     Edge 40, Type (0, 0), BuildingBlock: UVAHIK_clean_linker_0, # of connection points: 2
#     Edge 41, Type (0, 0), BuildingBlock: UVAHIK_clean_linker_0, # of connection points: 2
#     Edge 42, Type (0, 0), BuildingBlock: UVAHIK_clean_linker_0, # of connection points: 2
#     Edge 43, Type (0, 0), BuildingBlock: UVAHIK_clean_linker_0, # of connection points: 2
#     Edge 44, Type (0, 0), BuildingBlock: UVAHIK_clean_linker_0, # of connection points: 2
#     Edge 45, Type (0, 0), BuildingBlock: UVAHIK_clean_linker_0, # of connection points: 2
#     Edge 46, Type (0, 0), BuildingBlock: UVAHIK_clean_linker_0, # of connection points: 2
#     Edge 47, Type (0, 0), BuildingBlock: UVAHIK_clean_linker_0, # of connection points: 2
#     Edge 48, Type (0, 0), BuildingBlock: UVAHIK_clean_linker_0, # of connection points: 2
#     Edge 49, Type (0, 0), BuildingBlock: UVAHIK_clean_linker_0, # of connection points: 2
#     Edge 50, Type (0, 0), BuildingBlock: UVAHIK_clean_linker_0, # of connection points: 2
#     Edge 51, Type (0, 0), BuildingBlock: UVAHIK_clean_linker_0, # of connection points: 2
#     Edge 52, Type (0, 0), BuildingBlock: UVAHIK_clean_linker_0, # of connection points: 2
#     Edge 53, Type (0, 0), BuildingBlock: UVAHIK_clean_linker_0, # of connection points: 2
#     Edge 54, Type (0, 0), BuildingBlock: UVAHIK_clean_linker_0, # of connection points: 2
#     Edge 55, Type (0, 0), BuildingBlock: UVAHIK_clean_linker_0, # of connection points: 2
#     Edge 56, Type (0, 0), BuildingBlock: UVAHIK_clean_linker_0, # of connection points: 2
#     Edge 57, Type (0, 0), BuildingBlock: UVAHIK_clean_linker_0, # of connection points: 2
#     Edge 58, Type (0, 0), BuildingBlock: UVAHIK_clean_linker_0, # of connection points: 2
#     Edge 59, Type (0, 0), BuildingBlock: UVAHIK_clean_linker_0, # of connection points: 2
#     Edge 60, Type (0, 0), BuildingBlock: UVAHIK_clean_linker_0, # of connection points: 2
#     Edge 61, Type (0, 0), BuildingBlock: UVAHIK_clean_linker_0, # of connection points: 2
#     Edge 62, Type (0, 0), BuildingBlock: UVAHIK_clean_linker_0, # of connection points: 2
#     Edge 63, Type (0, 0), BuildingBlock: UVAHIK_clean_linker_0, # of connection points: 2
#     Edge 64, Type (0, 0), BuildingBlock: UVAHIK_clean_linker_0, # of connection points: 2
#     Edge 65, Type (0, 0), BuildingBlock: UVAHIK_clean_linker_0, # of connection points: 2
#     Edge 66, Type (0, 0), BuildingBlock: UVAHIK_clean_linker_0, # of connection points: 2
#     Edge 67, Type (0, 0), BuildingBlock: UVAHIK_clean_linker_0, # of connection points: 2
#     Edge 68, Type (0, 0), BuildingBlock: UVAHIK_clean_linker_0, # of connection points: 2
#     Edge 69, Type (0, 0), BuildingBlock: UVAHIK_clean_linker_0, # of connection points: 2
#     Edge 70, Type (0, 0), BuildingBlock: UVAHIK_clean_linker_0, # of connection points: 2
#     Edge 71, Type (0, 0), BuildingBlock: UVAHIK_clean_linker_0, # of connection points: 2
#     Edge 72, Type (0, 0), BuildingBlock: UVAHIK_clean_linker_0, # of connection points: 2
#     Edge 73, Type (0, 0), BuildingBlock: UVAHIK_clean_linker_0, # of connection points: 2
#     Edge 74, Type (0, 0), BuildingBlock: UVAHIK_clean_linker_0, # of connection points: 2
#     Edge 75, Type (0, 0), BuildingBlock: UVAHIK_clean_linker_0, # of connection points: 2
#     Edge 76, Type (0, 0), BuildingBlock: UVAHIK_clean_linker_0, # of connection points: 2
#     Edge 77, Type (0, 0), BuildingBlock: UVAHIK_clean_linker_0, # of connection points: 2
#     Edge 78, Type (0, 0), BuildingBlock: UVAHIK_clean_linker_0, # of connection points: 2
#     Edge 79, Type (0, 0), BuildingBlock: UVAHIK_clean_linker_0, # of connection points: 2
#     Edge 80, Type (0, 0), BuildingBlock: UVAHIK_clean_linker_0, # of connection points: 2
#     Edge 81, Type (0, 0), BuildingBlock: UVAHIK_clean_linker_0, # of connection points: 2
#     Edge 82, Type (0, 0), BuildingBlock: UVAHIK_clean_linker_0, # of connection points: 2
#     Edge 83, Type (0, 0), BuildingBlock: UVAHIK_clean_linker_0, # of connection points: 2
#     Edge 84, Type (0, 0), BuildingBlock: UVAHIK_clean_linker_0, # of connection points: 2
#     Edge 85, Type (0, 0), BuildingBlock: UVAHIK_clean_linker_0, # of connection points: 2
#     Edge 86, Type (0, 0), BuildingBlock: UVAHIK_clean_linker_0, # of connection points: 2
#     Edge 87, Type (0, 0), BuildingBlock: UVAHIK_clean_linker_0, # of connection points: 2
#     Edge 88, Type (0, 0), BuildingBlock: UVAHIK_clean_linker_0, # of connection points: 2
#     Edge 89, Type (0, 0), BuildingBlock: UVAHIK_clean_linker_0, # of connection points: 2
#     Edge 90, Type (0, 0), BuildingBlock: UVAHIK_clean_linker_0, # of connection points: 2
#     Edge 91, Type (0, 0), BuildingBlock: UVAHIK_clean_linker_0, # of connection points: 2
#     Edge 92, Type (0, 0), BuildingBlock: UVAHIK_clean_linker_0, # of connection points: 2
#     Edge 93, Type (0, 0), BuildingBlock: UVAHIK_clean_linker_0, # of connection points: 2
#     Edge 94, Type (0, 0), BuildingBlock: UVAHIK_clean_linker_0, # of connection points: 2
#     Edge 95, Type (0, 0), BuildingBlock: UVAHIK_clean_linker_0, # of connection points: 2
#     Edge 96, Type (0, 0), BuildingBlock: UVAHIK_clean_linker_0, # of connection points: 2
#     Edge 97, Type (0, 0), BuildingBlock: UVAHIK_clean_linker_0, # of connection points: 2
#     Edge 98, Type (0, 0), BuildingBlock: UVAHIK_clean_linker_0, # of connection points: 2
#     Edge 99, Type (0, 0), BuildingBlock: UVAHIK_clean_linker_0, # of connection points: 2
#     Edge 100, Type (0, 0), BuildingBlock: UVAHIK_clean_linker_0, # of connection points: 2
#     Edge 101, Type (0, 0), BuildingBlock: UVAHIK_clean_linker_0, # of connection points: 2
#     Edge 102, Type (0, 0), BuildingBlock: UVAHIK_clean_linker_0, # of connection points: 2
#     Edge 103, Type (0, 0), BuildingBlock: UVAHIK_clean_linker_0, # of connection points: 2
#     Edge 104, Type (0, 0), BuildingBlock: UVAHIK_clean_linker_0, # of connection points: 2
#     Edge 105, Type (0, 0), BuildingBlock: UVAHIK_clean_linker_0, # of connection points: 2
#     Edge 106, Type (0, 0), BuildingBlock: UVAHIK_clean_linker_0, # of connection points: 2
#     Edge 107, Type (0, 0), BuildingBlock: UVAHIK_clean_linker_0, # of connection points: 2
#     Edge 108, Type (0, 0), BuildingBlock: UVAHIK_clean_linker_0, # of connection points: 2
#     Edge 109, Type (0, 0), BuildingBlock: UVAHIK_clean_linker_0, # of connection points: 2
#     Edge 110, Type (0, 0), BuildingBlock: UVAHIK_clean_linker_0, # of connection points: 2
#     Edge 111, Type (0, 0), BuildingBlock: UVAHIK_clean_linker_0, # of connection points: 2
#     Edge 112, Type (0, 0), BuildingBlock: UVAHIK_clean_linker_0, # of connection points: 2
#     Edge 113, Type (0, 0), BuildingBlock: UVAHIK_clean_linker_0, # of connection points: 2
#     Edge 114, Type (0, 0), BuildingBlock: UVAHIK_clean_linker_0, # of connection points: 2
#     Edge 115, Type (0, 0), BuildingBlock: UVAHIK_clean_linker_0, # of connection points: 2
#     Edge 116, Type (0, 0), BuildingBlock: UVAHIK_clean_linker_0, # of connection points: 2
#     Edge 117, Type (0, 0), BuildingBlock: UVAHIK_clean_linker_0, # of connection points: 2
#     Edge 118, Type (0, 0), BuildingBlock: UVAHIK_clean_linker_0, # of connection points: 2
#     Edge 119, Type (0, 0), BuildingBlock: UVAHIK_clean_linker_0, # of connection points: 2
#     Edge 120, Type (0, 0), BuildingBlock: UVAHIK_clean_linker_0, # of connection points: 2
#     Edge 121, Type (0, 0), BuildingBlock: UVAHIK_clean_linker_0, # of connection points: 2
#     Edge 122, Type (0, 0), BuildingBlock: UVAHIK_clean_linker_0, # of connection points: 2
#     Edge 123, Type (0, 0), BuildingBlock: UVAHIK_clean_linker_0, # of connection points: 2
#     Edge 124, Type (0, 0), BuildingBlock: UVAHIK_clean_linker_0, # of connection points: 2
#     Edge 125, Type (0, 0), BuildingBlock: UVAHIK_clean_linker_0, # of connection points: 2
#     Edge 126, Type (0, 0), BuildingBlock: UVAHIK_clean_linker_0, # of connection points: 2
#     Edge 127, Type (0, 0), BuildingBlock: UVAHIK_clean_linker_0, # of connection points: 2
# Relax obj value: 0.346
# Max RMSD: 0.215
# Mean RMSD: 0.215
data_MOF--net-whq--node1-OJICUG_clean_sbu_0--edge1-UVAHIK_clean_linker_0
_symmetry_space_group_name_H-M    P1
_symmetry_Int_Tables_number       1
_symmetry_cell_setting            triclinic
loop_
_symmetry_equiv_pos_as_xyz
'x, y, z'
_cell_length_a     65.654811
_cell_length_b     65.660138
_cell_length_c     73.511195
_cell_angle_alpha  90.021863
_cell_angle_beta   90.013218
_cell_angle_gamma 89.997798
loop_
_atom_site_label
_atom_site_type_symbol
_atom_site_fract_x
_atom_site_fract_y
_atom_site_fract_z
_atom_type_partial_charge
Sc0 Sc 0.10725 0.21039 0.12804 0.0
Sc1 Sc 0.05593 0.22638 0.12602 0.0
Sc2 Sc 0.07055 0.18745 0.15615 0.0
O3 O 0.07792 0.20804 0.1367 0.0
C4 C 0.10087 0.16234 0.1306 0.0
C5 C 0.08175 0.21543 0.09103 0.0
C6 C 0.03138 0.18486 0.1307 0.0
C7 C 0.09354 0.2567 0.12983 0.0
C8 C 0.11413 0.20196 0.17038 0.0
C9 C 0.04596 0.22718 0.16833 0.0
O10 O 0.10979 0.17799 0.12419 0.0
O11 O 0.06498 0.21972 0.09872 0.0
O12 O 0.04343 0.17755 0.1425 0.0
O13 O 0.10703 0.24291 0.13136 0.0
O14 O 0.09652 0.19442 0.17261 0.0
O15 O 0.04508 0.23494 0.15251 0.0
O16 O 0.12041 0.20825 0.15502 0.0
O17 O 0.07488 0.25295 0.12685 0.0
O18 O 0.05421 0.21002 0.17157 0.0
O19 O 0.09823 0.21263 0.09981 0.0
O20 O 0.08661 0.16339 0.14232 0.0
O21 O 0.0339 0.20232 0.12367 0.0
Sc22 Sc 0.80545 0.07305 0.16014 0.0
Sc23 Sc 0.76886 0.05688 0.12825 0.0
Sc24 Sc 0.78701 0.10752 0.12771 0.0
O25 O 0.78713 0.07912 0.13867 0.0
C26 C 0.79164 0.11796 0.16995 0.0
C27 C 0.76433 0.04984 0.1708 0.0
C28 C 0.74013 0.09607 0.12795 0.0
C29 C 0.8095 0.0321 0.13727 0.0
C30 C 0.83406 0.10009 0.13433 0.0
C31 C 0.78327 0.07911 0.09236 0.0
O32 O 0.79673 0.10006 0.1745 0.0
O33 O 0.75759 0.0484 0.15465 0.0
O34 O 0.75447 0.10897 0.12958 0.0
O35 O 0.81625 0.04517 0.14848 0.0
O36 O 0.81954 0.10793 0.12527 0.0
O37 O 0.77812 0.06309 0.10085 0.0
O38 O 0.83121 0.08803 0.14766 0.0
O39 O 0.79245 0.03402 0.12925 0.0
O40 O 0.78579 0.09617 0.10021 0.0
O41 O 0.78149 0.05775 0.1746 0.0
O42 O 0.78867 0.12326 0.15355 0.0
O43 O 0.74309 0.07705 0.12605 0.0
Sc44 Sc 0.88701 0.78843 0.12547 0.0
Sc45 Sc 0.93644 0.76697 0.12331 0.0
Sc46 Sc 0.92378 0.80197 0.15783 0.0
O47 O 0.91577 0.7858 0.13551 0.0
C48 C 0.89775 0.83431 0.13489 0.0
C49 C 0.91355 0.78525 0.08901 0.0
C50 C 0.9641 0.80516 0.13368 0.0
C51 C 0.89539 0.74085 0.12289 0.0
C52 C 0.87831 0.79056 0.1682 0.0
C53 C 0.94494 0.75903 0.16521 0.0
O54 O 0.88846 0.82108 0.12534 0.0
O55 O 0.92931 0.77803 0.09665 0.0
O56 O 0.95213 0.81145 0.14604 0.0
O57 O 0.88356 0.75599 0.12515 0.0
O58 O 0.89661 0.79439 0.17246 0.0
O59 O 0.94614 0.75373 0.14864 0.0
O60 O 0.87234 0.78882 0.15183 0.0
O61 O 0.91458 0.74253 0.12103 0.0
O62 O 0.93745 0.77586 0.17048 0.0
O63 O 0.89714 0.78887 0.09758 0.0
O64 O 0.91042 0.82964 0.14734 0.0
O65 O 0.96061 0.78923 0.12434 0.0
Sc66 Sc 0.20833 0.89032 0.12848 0.0
Sc67 Sc 0.22757 0.93988 0.12182 0.0
Sc68 Sc 0.18916 0.93113 0.15417 0.0
O69 O 0.20834 0.92042 0.13483 0.0
C70 C 0.16107 0.89854 0.13357 0.0
C71 C 0.2123 0.9119 0.08955 0.0
C72 C 0.18715 0.96689 0.12543 0.0
C73 C 0.25547 0.90066 0.12702 0.0
C74 C 0.20291 0.88907 0.17176 0.0
C75 C 0.23034 0.95579 0.16216 0.0
O76 O 0.17572 0.88905 0.12609 0.0
O77 O 0.21801 0.92904 0.09574 0.0
O78 O 0.1788 0.95566 0.13734 0.0
O79 O 0.24087 0.8886 0.13055 0.0
O80 O 0.19737 0.90757 0.17309 0.0
O81 O 0.23879 0.95217 0.14697 0.0
O82 O 0.20676 0.88064 0.15656 0.0
O83 O 0.25284 0.91909 0.12243 0.0
O84 O 0.21233 0.95019 0.16611 0.0
O85 O 0.20948 0.89638 0.09961 0.0
O86 O 0.16377 0.91346 0.14435 0.0
O87 O 0.20499 0.9636 0.1194 0.0
Sc88 Sc 0.07063 0.80133 0.33009 0.0
Sc89 Sc 0.05592 0.76386 0.36163 0.0
Sc90 Sc 0.10709 0.78082 0.35976 0.0
O91 O 0.07789 0.78201 0.35052 0.0
C92 C 0.11466 0.78734 0.31722 0.0
C93 C 0.04566 0.76133 0.31944 0.0
C94 C 0.09423 0.73415 0.3587 0.0
C95 C 0.03154 0.80524 0.35559 0.0
C96 C 0.10025 0.8284 0.35491 0.0
C97 C 0.0813 0.77621 0.39658 0.0
O98 O 0.09668 0.79347 0.31418 0.0
O99 O 0.04467 0.75438 0.33553 0.0
O100 O 0.10745 0.74823 0.35725 0.0
O101 O 0.04362 0.81181 0.34347 0.0
O102 O 0.10883 0.81338 0.36271 0.0
O103 O 0.06476 0.77128 0.38881 0.0
O104 O 0.08661 0.8263 0.34273 0.0
O105 O 0.03383 0.78808 0.3633 0.0
O106 O 0.09776 0.77926 0.3879 0.0
O107 O 0.05434 0.77806 0.31548 0.0
O108 O 0.12093 0.78267 0.33304 0.0
O109 O 0.07538 0.73749 0.36129 0.0
Sc110 Sc 0.20577 0.10348 0.36218 0.0
Sc111 Sc 0.22679 0.05384 0.36124 0.0
Sc112 Sc 0.18695 0.06705 0.33144 0.0
O113 O 0.20652 0.0748 0.35165 0.0
C114 C 0.15837 0.0941 0.35661 0.0
C115 C 0.21165 0.07586 0.39754 0.0
C116 C 0.18743 0.02627 0.35502 0.0
C117 C 0.25346 0.09422 0.36197 0.0
C118 C 0.19935 0.11245 0.31998 0.0
C119 C 0.22864 0.04649 0.31853 0.0
O120 O 0.17306 0.10403 0.36353 0.0
O121 O 0.21948 0.06087 0.38908 0.0
O122 O 0.17933 0.03826 0.34355 0.0
O123 O 0.23835 0.10629 0.3624 0.0
O124 O 0.19219 0.09483 0.31684 0.0
O125 O 0.23632 0.0449 0.33433 0.0
O126 O 0.20537 0.11801 0.33569 0.0
O127 O 0.25168 0.075 0.36122 0.0
O128 O 0.21105 0.05391 0.31563 0.0
O129 O 0.20594 0.09213 0.38963 0.0
O130 O 0.16096 0.07987 0.34511 0.0
O131 O 0.20447 0.0299 0.3625 0.0
Sc132 Sc 0.92402 0.1922 0.3308 0.0
Sc133 Sc 0.93856 0.22942 0.36278 0.0
Sc134 Sc 0.88821 0.21044 0.36225 0.0
O135 O 0.91694 0.21067 0.35196 0.0
C136 C 0.87899 0.20521 0.31983 0.0
C137 C 0.94648 0.23374 0.32032 0.0
C138 C 0.89904 0.25759 0.36218 0.0
C139 C 0.96445 0.18933 0.35469 0.0
C140 C 0.89661 0.16332 0.35587 0.0
C141 C 0.9155 0.21449 0.39818 0.0
O142 O 0.89695 0.19965 0.31585 0.0
O143 O 0.9478 0.24047 0.33648 0.0
O144 O 0.88636 0.24303 0.36068 0.0
O145 O 0.95208 0.18235 0.34297 0.0
O146 O 0.88786 0.17779 0.36433 0.0
O147 O 0.93151 0.2204 0.39007 0.0
O148 O 0.90956 0.16625 0.34324 0.0
O149 O 0.9617 0.20622 0.36275 0.0
O150 O 0.89877 0.21133 0.38997 0.0
O151 O 0.93874 0.21653 0.31643 0.0
O152 O 0.87343 0.20909 0.33601 0.0
O153 O 0.91808 0.25492 0.36412 0.0
Sc154 Sc 0.80812 0.92517 0.33126 0.0
Sc155 Sc 0.77036 0.93893 0.36292 0.0
Sc156 Sc 0.79022 0.88894 0.36256 0.0
O157 O 0.78959 0.91768 0.35226 0.0
C158 C 0.79585 0.87992 0.32015 0.0
C159 C 0.76625 0.94686 0.32043 0.0
C160 C 0.74292 0.89894 0.3625 0.0
C161 C 0.80996 0.96563 0.35513 0.0
C162 C 0.83725 0.89813 0.35645 0.0
C163 C 0.7855 0.91628 0.39848 0.0
O164 O 0.80128 0.89795 0.31626 0.0
O165 O 0.75932 0.94784 0.33654 0.0
O166 O 0.75764 0.88647 0.361 0.0
O167 O 0.81737 0.95341 0.3435 0.0
O168 O 0.82288 0.889 0.3647 0.0
O169 O 0.77933 0.93212 0.39026 0.0
O170 O 0.8342 0.9112 0.34395 0.0
O171 O 0.79303 0.96251 0.36299 0.0
O172 O 0.78908 0.89957 0.39033 0.0
O173 O 0.78369 0.93954 0.31665 0.0
O174 O 0.79185 0.87426 0.33629 0.0
O175 O 0.7453 0.91802 0.3643 0.0
Sc176 Sc 0.88568 0.78711 0.85842 0.0
Sc177 Sc 0.93611 0.76849 0.86046 0.0
Sc178 Sc 0.92109 0.8011 0.82494 0.0
O179 O 0.91431 0.78559 0.84796 0.0
C180 C 0.87601 0.78722 0.81575 0.0
C181 C 0.89664 0.74022 0.8622 0.0
C182 C 0.94456 0.75909 0.81873 0.0
C183 C 0.91295 0.7866 0.89457 0.0
C184 C 0.89399 0.833 0.84748 0.0
C185 C 0.96149 0.80758 0.8484 0.0
O186 O 0.87053 0.78615 0.83229 0.0
O187 O 0.91568 0.74316 0.86398 0.0
O188 O 0.93625 0.77535 0.81298 0.0
O189 O 0.89615 0.78876 0.88621 0.0
O190 O 0.9063 0.82835 0.83474 0.0
O191 O 0.95893 0.79188 0.85823 0.0
O192 O 0.88574 0.81982 0.85781 0.0
O193 O 0.92901 0.78032 0.88682 0.0
O194 O 0.94906 0.81279 0.836 0.0
O195 O 0.88388 0.75448 0.85941 0.0
O196 O 0.89411 0.79131 0.81097 0.0
O197 O 0.94589 0.75461 0.83548 0.0
Sc198 Sc 0.20554 0.8881 0.85836 0.0
Sc199 Sc 0.22449 0.93809 0.86411 0.0
Sc200 Sc 0.19031 0.92696 0.82854 0.0
O201 O 0.20675 0.91772 0.85037 0.0
C202 C 0.20394 0.88269 0.81531 0.0
C203 C 0.25263 0.89863 0.86259 0.0
C204 C 0.2327 0.94966 0.8227 0.0
C205 C 0.20647 0.91158 0.89647 0.0
C206 C 0.15901 0.89796 0.84928 0.0
C207 C 0.18583 0.96536 0.85502 0.0
O208 O 0.20749 0.87594 0.83117 0.0
O209 O 0.24992 0.91756 0.86513 0.0
O210 O 0.21637 0.94164 0.81675 0.0
O211 O 0.2033 0.89594 0.8867 0.0
O212 O 0.16303 0.9126 0.83851 0.0
O213 O 0.20127 0.96112 0.8647 0.0
O214 O 0.17273 0.88769 0.8574 0.0
O215 O 0.21366 0.92807 0.89013 0.0
O216 O 0.1804 0.9546 0.84151 0.0
O217 O 0.23816 0.88616 0.85968 0.0
O218 O 0.19779 0.90072 0.81245 0.0
O219 O 0.23736 0.95031 0.83947 0.0
Sc220 Sc 0.10967 0.21137 0.85954 0.0
Sc221 Sc 0.05873 0.22878 0.86042 0.0
Sc222 Sc 0.07472 0.19364 0.82714 0.0
O223 O 0.08102 0.21123 0.84907 0.0
C224 C 0.11992 0.20694 0.81724 0.0
C225 C 0.09745 0.25816 0.86016 0.0
C226 C 0.05122 0.23476 0.81799 0.0
C227 C 0.08249 0.21448 0.89564 0.0
C228 C 0.10176 0.16431 0.8522 0.0
C229 C 0.03392 0.18872 0.85058 0.0
O230 O 0.12503 0.21062 0.83357 0.0
O231 O 0.07848 0.25486 0.86204 0.0
O232 O 0.06048 0.21863 0.81319 0.0
O233 O 0.09919 0.2118 0.88728 0.0
O234 O 0.08901 0.16742 0.83942 0.0
O235 O 0.03651 0.20471 0.86002 0.0
O236 O 0.11031 0.17865 0.86104 0.0
O237 O 0.06621 0.21973 0.88762 0.0
O238 O 0.04627 0.18323 0.83822 0.0
O239 O 0.11063 0.24406 0.85841 0.0
O240 O 0.10209 0.20144 0.81286 0.0
O241 O 0.04858 0.23999 0.83445 0.0
Sc242 Sc 0.80404 0.07442 0.82832 0.0
Sc243 Sc 0.76994 0.05859 0.86245 0.0
Sc244 Sc 0.78993 0.10868 0.8627 0.0
O245 O 0.78799 0.08055 0.85119 0.0
C246 C 0.83604 0.09969 0.85226 0.0
C247 C 0.80871 0.03285 0.85061 0.0
C248 C 0.78758 0.08003 0.89785 0.0
C249 C 0.76193 0.05228 0.82011 0.0
C250 C 0.79137 0.12033 0.82054 0.0
C251 C 0.74253 0.09857 0.86495 0.0
O252 O 0.83153 0.08738 0.83948 0.0
O253 O 0.79325 0.03566 0.86071 0.0
O254 O 0.79139 0.09682 0.88998 0.0
O255 O 0.77804 0.06132 0.81499 0.0
O256 O 0.78906 0.12499 0.83718 0.0
O257 O 0.74472 0.07932 0.86528 0.0
O258 O 0.79614 0.10254 0.81535 0.0
O259 O 0.75734 0.04941 0.83668 0.0
O260 O 0.75735 0.111 0.8638 0.0
O261 O 0.81403 0.04534 0.8383 0.0
O262 O 0.82269 0.10838 0.86214 0.0
O263 O 0.78023 0.06478 0.88954 0.0
Sc264 Sc 0.92746 0.18791 0.66156 0.0
Sc265 Sc 0.93991 0.22224 0.62652 0.0
Sc266 Sc 0.89074 0.2005 0.62871 0.0
O267 O 0.91939 0.20352 0.6389 0.0
C268 C 0.90128 0.15493 0.63939 0.0
C269 C 0.96754 0.18412 0.63725 0.0
C270 C 0.91738 0.20321 0.59235 0.0
C271 C 0.9488 0.23098 0.66826 0.0
C272 C 0.88204 0.20002 0.6715 0.0
C273 C 0.89884 0.24813 0.62547 0.0
O274 O 0.91377 0.16002 0.65185 0.0
O275 O 0.96391 0.19997 0.62785 0.0
O276 O 0.90098 0.19936 0.60085 0.0
O277 O 0.94158 0.21412 0.67375 0.0
O278 O 0.87612 0.20099 0.65506 0.0
O279 O 0.91807 0.24654 0.62396 0.0
O280 O 0.90033 0.19633 0.67596 0.0
O281 O 0.94948 0.236 0.6516 0.0
O282 O 0.88706 0.23294 0.62766 0.0
O283 O 0.95573 0.1779 0.64977 0.0
O284 O 0.89226 0.16784 0.62931 0.0
O285 O 0.93291 0.21085 0.60001 0.0
Sc286 Sc 0.80044 0.91766 0.66249 0.0
Sc287 Sc 0.76743 0.93595 0.62852 0.0
Sc288 Sc 0.78428 0.88482 0.6275 0.0
O289 O 0.78401 0.91278 0.63951 0.0
C290 C 0.83083 0.89058 0.63866 0.0
C291 C 0.80764 0.95925 0.64081 0.0
C292 C 0.78473 0.91428 0.59295 0.0
C293 C 0.75968 0.94222 0.67096 0.0
C294 C 0.78442 0.87247 0.66952 0.0
C295 C 0.73769 0.89799 0.62386 0.0
O296 O 0.82724 0.90339 0.65126 0.0
O297 O 0.79209 0.95741 0.63064 0.0
O298 O 0.78785 0.89725 0.60063 0.0
O299 O 0.77529 0.93225 0.67601 0.0
O300 O 0.78124 0.86834 0.65286 0.0
O301 O 0.74099 0.91699 0.62524 0.0
O302 O 0.79092 0.88966 0.67487 0.0
O303 O 0.75528 0.94525 0.65436 0.0
O304 O 0.75169 0.8846 0.62455 0.0
O305 O 0.8122 0.94632 0.653 0.0
O306 O 0.81686 0.88263 0.62901 0.0
O307 O 0.77752 0.92959 0.60132 0.0
Sc308 Sc 0.07096 0.80257 0.65964 0.0
Sc309 Sc 0.05716 0.76565 0.62712 0.0
Sc310 Sc 0.10719 0.78562 0.62802 0.0
O311 O 0.07842 0.78466 0.6382 0.0
C312 C 0.09727 0.83255 0.6348 0.0
C313 C 0.03033 0.80472 0.63561 0.0
C314 C 0.08067 0.78064 0.5918 0.0
C315 C 0.04929 0.76077 0.66961 0.0
C316 C 0.11654 0.79083 0.67032 0.0
C317 C 0.09714 0.73818 0.62823 0.0
O318 O 0.08387 0.82924 0.64697 0.0
O319 O 0.03404 0.78884 0.6263 0.0
O320 O 0.09691 0.78516 0.60025 0.0
O321 O 0.05809 0.77726 0.67411 0.0
O322 O 0.12199 0.78631 0.65425 0.0
O323 O 0.07796 0.74031 0.6269 0.0
O324 O 0.09865 0.79672 0.67411 0.0
O325 O 0.04679 0.75512 0.65325 0.0
O326 O 0.10951 0.75308 0.6289 0.0
O327 O 0.04202 0.81095 0.6482 0.0
O328 O 0.10691 0.81835 0.62672 0.0
O329 O 0.06493 0.77379 0.59973 0.0
Sc330 Sc 0.21205 0.10304 0.62832 0.0
Sc331 Sc 0.23082 0.05255 0.62816 0.0
Sc332 Sc 0.19491 0.06802 0.66095 0.0
O333 O 0.21255 0.07453 0.6391 0.0
C334 C 0.20808 0.11331 0.67063 0.0
C335 C 0.25922 0.09187 0.62803 0.0
C336 C 0.23643 0.04541 0.67061 0.0
C337 C 0.21573 0.07529 0.59259 0.0
C338 C 0.16515 0.09481 0.63605 0.0
C339 C 0.19085 0.02725 0.63745 0.0
O340 O 0.21129 0.11855 0.65426 0.0
O341 O 0.25646 0.07278 0.62662 0.0
O342 O 0.21986 0.05404 0.67507 0.0
O343 O 0.21232 0.09205 0.60068 0.0
O344 O 0.1685 0.08215 0.64884 0.0
O345 O 0.20717 0.02999 0.62851 0.0
O346 O 0.17933 0.1033 0.627 0.0
O347 O 0.22185 0.05947 0.60084 0.0
O348 O 0.18474 0.03951 0.64966 0.0
O349 O 0.24474 0.1047 0.62925 0.0
O350 O 0.20281 0.09544 0.67513 0.0
O351 O 0.24216 0.04298 0.65426 0.0
Sc352 Sc 0.60608 0.70795 0.62839 0.0
Sc353 Sc 0.55517 0.72537 0.6289 0.0
Sc354 Sc 0.57179 0.68897 0.66082 0.0
O355 O 0.57767 0.7074 0.63935 0.0
C356 C 0.59956 0.66064 0.63542 0.0
C357 C 0.57761 0.71093 0.59305 0.0
C358 C 0.53082 0.68454 0.63786 0.0
C359 C 0.59385 0.75473 0.62811 0.0
C360 C 0.61661 0.70365 0.67064 0.0
C361 C 0.54818 0.72985 0.67146 0.0
O362 O 0.60747 0.6753 0.62657 0.0
O363 O 0.56166 0.71634 0.60152 0.0
O364 O 0.54381 0.67798 0.64924 0.0
O365 O 0.607 0.7406 0.62959 0.0
O366 O 0.59895 0.69761 0.6751 0.0
O367 O 0.54637 0.73639 0.65528 0.0
O368 O 0.62163 0.70738 0.65429 0.0
O369 O 0.57485 0.75147 0.62669 0.0
O370 O 0.55654 0.71294 0.67537 0.0
O371 O 0.59466 0.70826 0.60089 0.0
O372 O 0.58689 0.66331 0.64832 0.0
O373 O 0.53272 0.7015 0.62974 0.0
Sc374 Sc 0.30712 0.56149 0.65688 0.0
Sc375 Sc 0.26757 0.55148 0.62579 0.0
Sc376 Sc 0.28927 0.60076 0.62878 0.0
O377 O 0.28802 0.57124 0.6371 0.0
C378 C 0.29675 0.6062 0.67132 0.0
C379 C 0.26471 0.54108 0.66792 0.0
C380 C 0.24155 0.59222 0.62925 0.0
C381 C 0.30624 0.52275 0.63072 0.0
C382 C 0.33638 0.58961 0.63309 0.0
C383 C 0.28272 0.5765 0.59141 0.0
O384 O 0.30262 0.58795 0.67348 0.0
O385 O 0.25726 0.54086 0.65196 0.0
O386 O 0.25681 0.60404 0.63069 0.0
O387 O 0.31434 0.53375 0.64293 0.0
O388 O 0.32201 0.60028 0.62641 0.0
O389 O 0.27569 0.56041 0.59867 0.0
O390 O 0.33331 0.575 0.64412 0.0
O391 O 0.28931 0.52712 0.62336 0.0
O392 O 0.28761 0.59221 0.60053 0.0
O393 O 0.28247 0.54768 0.6715 0.0
O394 O 0.29131 0.61318 0.65595 0.0
O395 O 0.24316 0.57318 0.62669 0.0
Sc396 Sc 0.38811 0.27946 0.62923 0.0
Sc397 Sc 0.43944 0.26338 0.62687 0.0
Sc398 Sc 0.42477 0.30187 0.65749 0.0
O399 O 0.41745 0.2816 0.63783 0.0
C400 C 0.39447 0.32734 0.63212 0.0
C401 C 0.41343 0.27472 0.59214 0.0
C402 C 0.4639 0.30494 0.63206 0.0
C403 C 0.40164 0.23319 0.63085 0.0
C404 C 0.38109 0.28788 0.6715 0.0
C405 C 0.44956 0.26202 0.66914 0.0
O406 O 0.38579 0.3118 0.62525 0.0
O407 O 0.43041 0.27066 0.5996 0.0
O408 O 0.45159 0.31204 0.64372 0.0
O409 O 0.38832 0.24707 0.63278 0.0
O410 O 0.39895 0.29466 0.67399 0.0
O411 O 0.45029 0.25433 0.65328 0.0
O412 O 0.37474 0.28208 0.65602 0.0
O413 O 0.42024 0.23682 0.62735 0.0
O414 O 0.44135 0.27918 0.67251 0.0
O415 O 0.39705 0.27702 0.60113 0.0
O416 O 0.40847 0.3261 0.64407 0.0
O417 O 0.46175 0.28743 0.62497 0.0
Sc418 Sc 0.70682 0.38599 0.62774 0.0
Sc419 Sc 0.72729 0.4358 0.62646 0.0
Sc420 Sc 0.68941 0.42309 0.65837 0.0
O421 O 0.70781 0.41498 0.63747 0.0
C422 C 0.65995 0.39541 0.63391 0.0
C423 C 0.71218 0.41221 0.59133 0.0
C424 C 0.68766 0.46288 0.63366 0.0
C425 C 0.75427 0.39544 0.6278 0.0
C426 C 0.70183 0.3783 0.67034 0.0
C427 C 0.73126 0.44516 0.6687 0.0
O428 O 0.67422 0.38628 0.62553 0.0
O429 O 0.71844 0.42825 0.59921 0.0
O430 O 0.6801 0.45083 0.64537 0.0
O431 O 0.73929 0.3833 0.62939 0.0
O432 O 0.6968 0.3965 0.67397 0.0
O433 O 0.73838 0.44549 0.65263 0.0
O434 O 0.70505 0.37198 0.65427 0.0
O435 O 0.75226 0.41453 0.62566 0.0
O436 O 0.71376 0.43808 0.67253 0.0
O437 O 0.70824 0.39583 0.59983 0.0
O438 O 0.66317 0.40857 0.64631 0.0
O439 O 0.70468 0.45962 0.62595 0.0
Sc440 Sc 0.57043 0.3051 0.82935 0.0
Sc441 Sc 0.55571 0.26912 0.86233 0.0
Sc442 Sc 0.60525 0.29029 0.86299 0.0
O443 O 0.57711 0.2882 0.8516 0.0
C444 C 0.61638 0.29318 0.82081 0.0
C445 C 0.55 0.26222 0.81984 0.0
C446 C 0.59639 0.24275 0.8648 0.0
C447 C 0.5287 0.30761 0.8514 0.0
C448 C 0.59554 0.33658 0.85391 0.0
C449 C 0.57636 0.28686 0.89795 0.0
O450 O 0.59846 0.2978 0.81587 0.0
O451 O 0.54822 0.25628 0.83621 0.0
O452 O 0.60846 0.25779 0.86322 0.0
O453 O 0.54149 0.31447 0.83999 0.0
O454 O 0.60438 0.32302 0.86342 0.0
O455 O 0.56104 0.27977 0.88951 0.0
O456 O 0.58328 0.33234 0.84103 0.0
O457 O 0.5316 0.29128 0.8603 0.0
O458 O 0.59326 0.29054 0.89021 0.0
O459 O 0.55728 0.2795 0.81553 0.0
O460 O 0.62129 0.29057 0.83736 0.0
O461 O 0.57715 0.2446 0.86563 0.0
Sc462 Sc 0.70942 0.60868 0.86198 0.0
Sc463 Sc 0.72619 0.5576 0.86113 0.0
Sc464 Sc 0.6894 0.57471 0.82983 0.0
O465 O 0.70831 0.58031 0.851 0.0
C466 C 0.66203 0.60273 0.8559 0.0
C467 C 0.71245 0.57996 0.89716 0.0
C468 C 0.68486 0.53374 0.85249 0.0
C469 C 0.75594 0.59597 0.86155 0.0
C470 C 0.70455 0.61918 0.81982 0.0
C471 C 0.7299 0.55067 0.81853 0.0
O472 O 0.67694 0.61018 0.8647 0.0
O473 O 0.71712 0.56384 0.88857 0.0
O474 O 0.67801 0.54711 0.84163 0.0
O475 O 0.74195 0.60923 0.85988 0.0
O476 O 0.69867 0.60148 0.81537 0.0
O477 O 0.73704 0.54925 0.83455 0.0
O478 O 0.70802 0.62441 0.83616 0.0
O479 O 0.75248 0.57706 0.86348 0.0
O480 O 0.7127 0.55871 0.81504 0.0
O481 O 0.71048 0.59716 0.88942 0.0
O482 O 0.66426 0.59044 0.84263 0.0
O483 O 0.7022 0.53521 0.86007 0.0
Sc484 Sc 0.42839 0.69287 0.83414 0.0
Sc485 Sc 0.43856 0.72945 0.86799 0.0
Sc486 Sc 0.38851 0.71069 0.86159 0.0
O487 O 0.41849 0.711 0.85459 0.0
C488 C 0.38498 0.70592 0.81856 0.0
C489 C 0.45189 0.73455 0.82674 0.0
C490 C 0.39942 0.75778 0.8636 0.0
C491 C 0.46568 0.68984 0.86187 0.0
C492 C 0.39801 0.66357 0.85579 0.0
C493 C 0.41072 0.71374 0.90029 0.0
O494 O 0.40318 0.6998 0.81676 0.0
O495 O 0.45158 0.74072 0.84311 0.0
O496 O 0.38701 0.74327 0.86071 0.0
O497 O 0.45506 0.68341 0.84865 0.0
O498 O 0.38772 0.678 0.86278 0.0
O499 O 0.42763 0.72005 0.8941 0.0
O500 O 0.41302 0.66655 0.84513 0.0
O501 O 0.4616 0.70623 0.8703 0.0
O502 O 0.39527 0.71058 0.89027 0.0
O503 O 0.44424 0.71777 0.82147 0.0
O504 O 0.37731 0.71031 0.83392 0.0
O505 O 0.41812 0.75506 0.86732 0.0
Sc506 Sc 0.30228 0.43154 0.83005 0.0
Sc507 Sc 0.26614 0.44223 0.86395 0.0
Sc508 Sc 0.28382 0.39211 0.85749 0.0
O509 O 0.28412 0.42197 0.85052 0.0
C510 C 0.28751 0.38933 0.81408 0.0
C511 C 0.26133 0.457 0.82346 0.0
C512 C 0.23716 0.40357 0.85982 0.0
C513 C 0.30711 0.46785 0.85792 0.0
C514 C 0.33074 0.39924 0.85073 0.0
C515 C 0.28136 0.41453 0.8962 0.0
O516 O 0.29222 0.40794 0.81195 0.0
O517 O 0.25373 0.45395 0.83908 0.0
O518 O 0.2513 0.39122 0.85563 0.0
O519 O 0.31435 0.45593 0.84599 0.0
O520 O 0.31643 0.39071 0.85954 0.0
O521 O 0.27678 0.43195 0.88989 0.0
O522 O 0.32763 0.41326 0.8391 0.0
O523 O 0.28946 0.46556 0.86477 0.0
O524 O 0.28289 0.39874 0.88626 0.0
O525 O 0.27901 0.45103 0.81881 0.0
O526 O 0.28505 0.38136 0.82969 0.0
O527 O 0.24044 0.42182 0.86478 0.0
Sc528 Sc 0.38939 0.28862 0.36011 0.0
Sc529 Sc 0.43912 0.26831 0.36396 0.0
Sc530 Sc 0.428 0.30501 0.33053 0.0
O531 O 0.41884 0.28734 0.35157 0.0
C532 C 0.38322 0.29343 0.31728 0.0
C533 C 0.39892 0.24117 0.36145 0.0
C534 C 0.4498 0.26266 0.32206 0.0
C535 C 0.4137 0.28437 0.39771 0.0
C536 C 0.40003 0.33542 0.35351 0.0
C537 C 0.46694 0.30709 0.35657 0.0
O538 O 0.37655 0.28921 0.33305 0.0
O539 O 0.41793 0.24332 0.36405 0.0
O540 O 0.44215 0.27957 0.31712 0.0
O541 O 0.39783 0.28836 0.38847 0.0
O542 O 0.41421 0.33182 0.34213 0.0
O543 O 0.46277 0.29096 0.36534 0.0
O544 O 0.38976 0.32141 0.36121 0.0
O545 O 0.42997 0.2776 0.39062 0.0
O546 O 0.45589 0.31365 0.34367 0.0
O547 O 0.38674 0.25605 0.35936 0.0
O548 O 0.40144 0.299 0.31448 0.0
O549 O 0.45044 0.25682 0.33852 0.0
Sc550 Sc 0.71073 0.38952 0.35873 0.0
Sc551 Sc 0.72812 0.44037 0.36201 0.0
Sc552 Sc 0.6906 0.42711 0.32993 0.0
O553 O 0.70979 0.419 0.35026 0.0
C554 C 0.7044 0.38324 0.31604 0.0
C555 C 0.75753 0.40197 0.35835 0.0
C556 C 0.7311 0.45157 0.32003 0.0
C557 C 0.71512 0.41406 0.39621 0.0
C558 C 0.66314 0.3972 0.35396 0.0
C559 C 0.68731 0.46573 0.35616 0.0
O560 O 0.70955 0.37666 0.33162 0.0
O561 O 0.75438 0.4208 0.36115 0.0
O562 O 0.71441 0.44301 0.31567 0.0
O563 O 0.71176 0.39793 0.38712 0.0
O564 O 0.66525 0.4115 0.3424 0.0
O565 O 0.70411 0.46257 0.36426 0.0
O566 O 0.67814 0.38792 0.36114 0.0
O567 O 0.72058 0.43068 0.38891 0.0
O568 O 0.68078 0.4543 0.34352 0.0
O569 O 0.74331 0.38893 0.35675 0.0
O570 O 0.69771 0.40114 0.31357 0.0
O571 O 0.7377 0.45237 0.33625 0.0
Sc572 Sc 0.60616 0.70843 0.36298 0.0
Sc573 Sc 0.55613 0.72831 0.3626 0.0
Sc574 Sc 0.57056 0.69102 0.33071 0.0
O575 O 0.57764 0.70928 0.35209 0.0
C576 C 0.61601 0.70427 0.32064 0.0
C577 C 0.59591 0.75585 0.36423 0.0
C578 C 0.54857 0.73266 0.32002 0.0
C579 C 0.57828 0.71221 0.39838 0.0
C580 C 0.59735 0.6614 0.35541 0.0
C581 C 0.52967 0.68881 0.35418 0.0
O582 O 0.62126 0.70888 0.33679 0.0
O583 O 0.57672 0.75363 0.36359 0.0
O584 O 0.5569 0.71578 0.31594 0.0
O585 O 0.59476 0.70746 0.39038 0.0
O586 O 0.5838 0.66446 0.34332 0.0
O587 O 0.53298 0.70522 0.36283 0.0
O588 O 0.60671 0.67578 0.36341 0.0
O589 O 0.56311 0.71986 0.39011 0.0
O590 O 0.54173 0.682 0.34212 0.0
O591 O 0.60839 0.74105 0.36403 0.0
O592 O 0.59837 0.69777 0.31663 0.0
O593 O 0.54669 0.73893 0.33628 0.0
Sc594 Sc 0.30342 0.57149 0.32894 0.0
Sc595 Sc 0.26768 0.55559 0.36174 0.0
Sc596 Sc 0.2843 0.60683 0.36039 0.0
O597 O 0.28517 0.57796 0.3504 0.0
C598 C 0.33169 0.60047 0.35308 0.0
C599 C 0.30868 0.5315 0.35322 0.0
C600 C 0.28209 0.58004 0.39671 0.0
C601 C 0.26295 0.54686 0.31936 0.0
C602 C 0.28785 0.61578 0.31786 0.0
C603 C 0.23763 0.59366 0.36113 0.0
O604 O 0.32908 0.58685 0.34097 0.0
O605 O 0.29215 0.53376 0.36198 0.0
O606 O 0.28505 0.59661 0.38819 0.0
O607 O 0.27931 0.55593 0.31491 0.0
O608 O 0.28354 0.62122 0.33398 0.0
O609 O 0.2411 0.57471 0.36272 0.0
O610 O 0.29483 0.59826 0.31411 0.0
O611 O 0.25706 0.54498 0.33574 0.0
O612 O 0.25163 0.60697 0.35985 0.0
O613 O 0.31446 0.54381 0.34095 0.0
O614 O 0.31701 0.60902 0.36142 0.0
O615 O 0.27623 0.56381 0.38891 0.0
Sc616 Sc 0.41679 0.68961 0.16223 0.0
Sc617 Sc 0.432 0.72304 0.12739 0.0
Sc618 Sc 0.38066 0.70688 0.1307 0.0
O619 O 0.40982 0.7065 0.14006 0.0
C620 C 0.38792 0.6599 0.1395 0.0
C621 C 0.45628 0.68284 0.13743 0.0
C622 C 0.40619 0.70719 0.09366 0.0
C623 C 0.44169 0.7303 0.16933 0.0
C624 C 0.37248 0.70515 0.17337 0.0
C625 C 0.39411 0.75338 0.12787 0.0
O626 O 0.40196 0.66315 0.1511 0.0
O627 O 0.45342 0.69824 0.12729 0.0
O628 O 0.38995 0.70458 0.10273 0.0
O629 O 0.43181 0.71491 0.17499 0.0
O630 O 0.3668 0.70908 0.15725 0.0
O631 O 0.41303 0.74975 0.12616 0.0
O632 O 0.39002 0.6982 0.177 0.0
O633 O 0.44407 0.73457 0.15262 0.0
O634 O 0.38071 0.73954 0.1298 0.0
O635 O 0.44467 0.67848 0.15067 0.0
O636 O 0.37863 0.67413 0.13115 0.0
O637 O 0.42264 0.71347 0.10078 0.0
Sc638 Sc 0.29882 0.42246 0.15695 0.0
Sc639 Sc 0.26306 0.43601 0.12341 0.0
Sc640 Sc 0.27966 0.38491 0.1277 0.0
O641 O 0.28056 0.41447 0.13597 0.0
C642 C 0.32703 0.39205 0.13409 0.0
C643 C 0.30378 0.46094 0.13081 0.0
C644 C 0.27734 0.40916 0.08994 0.0
C645 C 0.25816 0.44736 0.16513 0.0
C646 C 0.28393 0.37895 0.17059 0.0
C647 C 0.2331 0.39798 0.12654 0.0
O648 O 0.32448 0.4063 0.14564 0.0
O649 O 0.28723 0.45814 0.12223 0.0
O650 O 0.27967 0.39307 0.09931 0.0
O651 O 0.27457 0.43873 0.1701 0.0
O652 O 0.27987 0.37211 0.15484 0.0
O653 O 0.23664 0.41665 0.12328 0.0
O654 O 0.29036 0.3969 0.17327 0.0
O655 O 0.25215 0.44825 0.14874 0.0
O656 O 0.24704 0.3848 0.12894 0.0
O657 O 0.30972 0.44929 0.14352 0.0
O658 O 0.31232 0.38301 0.12622 0.0
O659 O 0.27208 0.42608 0.09686 0.0
Sc660 Sc 0.56422 0.30018 0.15996 0.0
Sc661 Sc 0.55207 0.26372 0.12656 0.0
Sc662 Sc 0.60166 0.28481 0.12875 0.0
O663 O 0.57265 0.28293 0.13839 0.0
C664 C 0.59124 0.33136 0.13688 0.0
C665 C 0.52422 0.30217 0.13529 0.0
C666 C 0.57541 0.28128 0.09217 0.0
C667 C 0.54332 0.25743 0.16861 0.0
C668 C 0.60954 0.28831 0.17145 0.0
C669 C 0.59267 0.23719 0.1269 0.0
O670 O 0.57745 0.3274 0.14855 0.0
O671 O 0.52816 0.28608 0.12638 0.0
O672 O 0.59167 0.2855 0.10077 0.0
O673 O 0.55086 0.2744 0.17345 0.0
O674 O 0.61574 0.28471 0.15539 0.0
O675 O 0.57349 0.23901 0.12536 0.0
O676 O 0.59142 0.29374 0.17492 0.0
O677 O 0.542 0.25163 0.15219 0.0
O678 O 0.60468 0.25227 0.1285 0.0
O679 O 0.53575 0.30889 0.14779 0.0
O680 O 0.60116 0.31758 0.12852 0.0
O681 O 0.55983 0.27367 0.09978 0.0
Sc682 Sc 0.69949 0.60552 0.12703 0.0
Sc683 Sc 0.72056 0.55592 0.12584 0.0
Sc684 Sc 0.6867 0.57005 0.16077 0.0
O685 O 0.70222 0.57714 0.13784 0.0
C686 C 0.69845 0.61588 0.16951 0.0
C687 C 0.74694 0.59675 0.12379 0.0
C688 C 0.7298 0.54918 0.16777 0.0
C689 C 0.70183 0.57771 0.09125 0.0
C690 C 0.65381 0.59509 0.13755 0.0
C691 C 0.68258 0.52887 0.13785 0.0
O692 O 0.69979 0.62122 0.15295 0.0
O693 O 0.74504 0.57751 0.12249 0.0
O694 O 0.71323 0.55702 0.17327 0.0
O695 O 0.69848 0.59443 0.09943 0.0
O696 O 0.65877 0.58295 0.15033 0.0
O697 O 0.69812 0.53204 0.12793 0.0
O698 O 0.66682 0.60406 0.12753 0.0
O699 O 0.70898 0.56215 0.09922 0.0
O700 O 0.67687 0.5412 0.15014 0.0
O701 O 0.73197 0.6088 0.12605 0.0
O702 O 0.69465 0.59777 0.17437 0.0
O703 O 0.73441 0.54709 0.15112 0.0
C704 C 0.20001 0.14833 0.3078 0.0
C705 C 0.19945 0.1272 0.30471 0.0
C706 C 0.19703 0.162 0.29338 0.0
C707 C 0.17255 0.18393 0.26404 0.0
H708 H 0.18759 0.17067 0.21442 0.0
C709 C 0.12016 0.19879 0.20381 0.0
C710 C 0.12807 0.20199 0.18627 0.0
C711 C 0.13311 0.19573 0.21859 0.0
C712 C 0.18355 0.17499 0.22818 0.0
H713 H 0.19687 0.10393 0.28385 0.0
H714 H 0.1915 0.1275 0.25901 0.0
H715 H 0.20464 0.15367 0.23958 0.0
H716 H 0.15589 0.20583 0.17075 0.0
H717 H 0.17864 0.20052 0.19671 0.0
H718 H 0.15116 0.20494 0.25262 0.0
C719 C 0.19432 0.13368 0.27244 0.0
C720 C 0.19318 0.16503 0.24262 0.0
C721 C 0.19718 0.1201 0.28678 0.0
C722 C 0.1493 0.20331 0.18407 0.0
C723 C 0.16233 0.20015 0.19892 0.0
C724 C 0.163 0.19398 0.24959 0.0
C725 C 0.19364 0.15479 0.2756 0.0
C726 C 0.18711 0.16869 0.26069 0.0
C727 C 0.15436 0.19578 0.21627 0.0
C728 C 0.16771 0.18893 0.23147 0.0
H729 H 0.2018 0.1543 0.32145 0.0
H730 H 0.19681 0.17818 0.29625 0.0
H731 H 0.16746 0.18715 0.27775 0.0
H732 H 0.10388 0.19787 0.20606 0.0
H733 H 0.12636 0.19217 0.23164 0.0
C734 C 0.84325 0.20003 0.30895 0.0
C735 C 0.86361 0.2051 0.30514 0.0
C736 C 0.82964 0.19596 0.29477 0.0
C737 C 0.8201 0.20007 0.24561 0.0
H738 H 0.8033 0.14365 0.24904 0.0
C739 C 0.80247 0.15149 0.18243 0.0
C740 C 0.79122 0.13349 0.18438 0.0
C741 C 0.80596 0.16407 0.19747 0.0
C742 C 0.80717 0.15961 0.24787 0.0
H743 H 0.88521 0.21165 0.28361 0.0
H744 H 0.86126 0.20499 0.25887 0.0
H745 H 0.81872 0.16006 0.27508 0.0
H746 H 0.77315 0.11535 0.20287 0.0
H747 H 0.77779 0.13801 0.22879 0.0
H748 H 0.80858 0.19972 0.2184 0.0
C749 C 0.85591 0.20397 0.27279 0.0
C750 C 0.81616 0.16899 0.26289 0.0
C751 C 0.86964 0.20764 0.28694 0.0
C752 C 0.78204 0.12912 0.20113 0.0
C753 C 0.78496 0.14201 0.21602 0.0
C754 C 0.81065 0.19084 0.23065 0.0
C755 C 0.83604 0.19734 0.27658 0.0
C756 C 0.82326 0.18908 0.26173 0.0
C757 C 0.79783 0.15913 0.21467 0.0
C758 C 0.80466 0.17022 0.23136 0.0
H759 H 0.83819 0.1979 0.32284 0.0
H760 H 0.81436 0.19088 0.298 0.0
H761 H 0.82539 0.21565 0.24445 0.0
H762 H 0.80986 0.15504 0.16964 0.0
H763 H 0.81613 0.1769 0.19576 0.0
C764 C 0.8454 0.80211 0.18149 0.0
C765 C 0.86321 0.79046 0.183 0.0
C766 C 0.83341 0.80597 0.19684 0.0
C767 C 0.80786 0.8114 0.23067 0.0
H768 H 0.84024 0.81915 0.27425 0.0
C769 C 0.80121 0.84426 0.30908 0.0
C770 C 0.79606 0.86462 0.30539 0.0
C771 C 0.80502 0.83067 0.29482 0.0
C772 C 0.83088 0.81671 0.2623 0.0
H773 H 0.8815 0.77204 0.20111 0.0
H774 H 0.85986 0.77739 0.2276 0.0
H775 H 0.85549 0.80325 0.24786 0.0
H776 H 0.78924 0.88629 0.28399 0.0
H777 H 0.79541 0.86238 0.25911 0.0
H778 H 0.7838 0.82667 0.24503 0.0
C779 C 0.8556 0.78457 0.2149 0.0
C780 C 0.83958 0.80744 0.24709 0.0
C781 C 0.8679 0.78125 0.19969 0.0
C782 C 0.79331 0.87071 0.28723 0.0
C783 C 0.7967 0.85702 0.273 0.0
C784 C 0.79931 0.82112 0.24581 0.0
C785 C 0.83875 0.79784 0.21394 0.0
C786 C 0.82837 0.80502 0.23088 0.0
C787 C 0.80328 0.83709 0.27666 0.0
C788 C 0.81089 0.82416 0.26163 0.0
H789 H 0.84159 0.80954 0.16877 0.0
H790 H 0.82077 0.81642 0.19541 0.0
H791 H 0.79853 0.80943 0.21867 0.0
H792 H 0.80351 0.83915 0.32294 0.0
H793 H 0.81008 0.81536 0.29796 0.0
C794 C 0.15001 0.79258 0.30502 0.0
C795 C 0.12924 0.78852 0.30191 0.0
C796 C 0.16245 0.79937 0.29075 0.0
C797 C 0.18474 0.80951 0.25347 0.0
H798 H 0.157 0.85716 0.23443 0.0
C799 C 0.20474 0.85503 0.1874 0.0
C800 C 0.20257 0.87634 0.18844 0.0
C801 C 0.20039 0.84278 0.2025 0.0
C802 C 0.16503 0.84401 0.2397 0.0
H803 H 0.10594 0.78588 0.28111 0.0
H804 H 0.12758 0.79773 0.25641 0.0
H805 H 0.14032 0.83616 0.25721 0.0
H806 H 0.19616 0.90153 0.20674 0.0
H807 H 0.18847 0.88017 0.23287 0.0
H808 H 0.20936 0.81737 0.23545 0.0
C809 C 0.13414 0.79598 0.26985 0.0
C810 C 0.15539 0.83187 0.25258 0.0
C811 C 0.12177 0.78922 0.284 0.0
C812 C 0.19768 0.88518 0.20532 0.0
C813 C 0.19327 0.87296 0.22032 0.0
C814 C 0.19433 0.82156 0.24022 0.0
C815 C 0.15424 0.80212 0.27328 0.0
C816 C 0.16506 0.81447 0.25953 0.0
C817 C 0.19376 0.85165 0.21884 0.0
C818 C 0.18453 0.83898 0.23331 0.0
H819 H 0.1562 0.79217 0.31867 0.0
H820 H 0.17793 0.80404 0.29369 0.0
H821 H 0.19248 0.79619 0.25873 0.0
H822 H 0.20864 0.8477 0.17467 0.0
H823 H 0.20085 0.82637 0.20102 0.0
C824 C 0.84166 0.79586 0.80353 0.0
C825 C 0.86043 0.78598 0.80133 0.0
C826 C 0.8286 0.79848 0.78867 0.0
C827 C 0.83193 0.80027 0.73821 0.0
H828 H 0.77481 0.8144 0.74276 0.0
C829 C 0.78938 0.83611 0.67856 0.0
C830 C 0.7834 0.856 0.6832 0.0
C831 C 0.79376 0.8219 0.6922 0.0
C832 C 0.79069 0.81022 0.74126 0.0
H833 H 0.87951 0.76936 0.78247 0.0
H834 H 0.85618 0.77255 0.75685 0.0
H835 H 0.79244 0.79842 0.76833 0.0
H836 H 0.77525 0.87596 0.70553 0.0
H837 H 0.78238 0.85098 0.72927 0.0
H838 H 0.83011 0.81217 0.71119 0.0
C839 C 0.85187 0.77933 0.76971 0.0
C840 C 0.8009 0.80126 0.75596 0.0
C841 C 0.86519 0.77726 0.78443 0.0
C842 C 0.77991 0.86076 0.70158 0.0
C843 C 0.7839 0.84644 0.71517 0.0
C844 C 0.82161 0.80876 0.72345 0.0
C845 C 0.83384 0.79083 0.77136 0.0
C846 C 0.82189 0.79684 0.75488 0.0
C847 C 0.79179 0.82722 0.71063 0.0
C848 C 0.8011 0.81444 0.72502 0.0
H849 H 0.83772 0.80287 0.8164 0.0
H850 H 0.81507 0.80762 0.79062 0.0
H851 H 0.8481 0.79758 0.73675 0.0
H852 H 0.7923 0.83204 0.66452 0.0
H853 H 0.79979 0.80714 0.68838 0.0
C854 C 0.12548 0.79282 0.70328 0.0
C855 C 0.13185 0.79091 0.68512 0.0
C856 C 0.1396 0.79624 0.71711 0.0
C857 C 0.18883 0.8208 0.72324 0.0
H858 H 0.17851 0.80623 0.7735 0.0
C859 C 0.20826 0.84757 0.80218 0.0
C860 C 0.20521 0.86858 0.79959 0.0
C861 C 0.20614 0.83398 0.78762 0.0
C862 C 0.18205 0.81017 0.75955 0.0
H863 H 0.15826 0.78958 0.66741 0.0
H864 H 0.18303 0.79553 0.69169 0.0
H865 H 0.16176 0.78742 0.74925 0.0
H866 H 0.19918 0.89188 0.77933 0.0
H867 H 0.19511 0.86835 0.75425 0.0
H868 H 0.20876 0.84386 0.73356 0.0
C869 C 0.16702 0.79462 0.69515 0.0
C870 C 0.17223 0.79951 0.74563 0.0
C871 C 0.15284 0.79111 0.68126 0.0
C872 C 0.20145 0.87579 0.7819 0.0
C873 C 0.19932 0.86225 0.76741 0.0
C874 C 0.19877 0.83137 0.73715 0.0
C875 C 0.16049 0.79784 0.71315 0.0
C876 C 0.17471 0.80538 0.72738 0.0
C877 C 0.20097 0.84113 0.77018 0.0
C878 C 0.1947 0.82685 0.7555 0.0
H879 H 0.10946 0.79255 0.70678 0.0
H880 H 0.13394 0.79887 0.73074 0.0
H881 H 0.19112 0.82576 0.70934 0.0
H882 H 0.21138 0.84148 0.81558 0.0
H883 H 0.20783 0.81782 0.79016 0.0
C884 C 0.21651 0.12431 0.70218 0.0
C885 C 0.20839 0.1289 0.68503 0.0
C886 C 0.21354 0.13754 0.71683 0.0
C887 C 0.19 0.188 0.72991 0.0
H888 H 0.17885 0.15877 0.77462 0.0
C889 C 0.13034 0.209 0.78458 0.0
C890 C 0.13576 0.20649 0.80295 0.0
C891 C 0.14425 0.20448 0.77078 0.0
C892 C 0.18227 0.16724 0.76235 0.0
H893 H 0.19156 0.15117 0.66941 0.0
H894 H 0.18518 0.17367 0.69505 0.0
H895 H 0.19411 0.14091 0.74927 0.0
H896 H 0.16038 0.19853 0.82128 0.0
H897 H 0.18451 0.19003 0.79707 0.0
H898 H 0.17625 0.21391 0.74289 0.0
C899 C 0.19458 0.16036 0.69728 0.0
C900 C 0.19117 0.15703 0.74773 0.0
C901 C 0.19813 0.14741 0.68251 0.0
C902 C 0.1558 0.20068 0.80726 0.0
C903 C 0.16958 0.19575 0.79343 0.0
C904 C 0.18061 0.1981 0.74445 0.0
C905 C 0.20166 0.15529 0.71482 0.0
C906 C 0.19481 0.16711 0.73112 0.0
C907 C 0.1637 0.19701 0.77509 0.0
C908 C 0.17638 0.18768 0.76068 0.0
H909 H 0.22466 0.11017 0.70438 0.0
H910 H 0.21992 0.13338 0.72988 0.0
H911 H 0.19295 0.19649 0.71757 0.0
H912 H 0.11503 0.21354 0.78087 0.0
H913 H 0.13931 0.20543 0.75674 0.0
C914 C 0.78683 0.13164 0.78839 0.0
C915 C 0.79098 0.13655 0.80663 0.0
C916 C 0.79083 0.14566 0.77457 0.0
C917 C 0.82919 0.18236 0.7651 0.0
H918 H 0.7993 0.1919 0.72044 0.0
C919 C 0.87201 0.21098 0.7027 0.0
C920 C 0.86687 0.20158 0.6862 0.0
C921 C 0.85894 0.2097 0.71765 0.0
C922 C 0.80794 0.18929 0.73276 0.0
H923 H 0.80107 0.16048 0.82485 0.0
H924 H 0.80857 0.18484 0.80056 0.0
H925 H 0.78188 0.17713 0.74668 0.0
H926 H 0.84374 0.18432 0.67198 0.0
H927 H 0.82148 0.18092 0.69822 0.0
H928 H 0.8556 0.19258 0.75112 0.0
C929 C 0.80205 0.17021 0.79704 0.0
C930 C 0.79786 0.18103 0.74783 0.0
C931 C 0.79769 0.1563 0.81091 0.0
C932 C 0.84798 0.19179 0.68457 0.0
C933 C 0.83515 0.18998 0.69966 0.0
C934 C 0.83935 0.19019 0.74999 0.0
C935 C 0.79936 0.16471 0.77872 0.0
C936 C 0.80854 0.17704 0.76399 0.0
C937 C 0.84075 0.19836 0.7166 0.0
C938 C 0.82903 0.19326 0.73341 0.0
H939 H 0.78152 0.11657 0.78471 0.0
H940 H 0.78875 0.14098 0.76056 0.0
H941 H 0.83789 0.17913 0.7773 0.0
H942 H 0.88641 0.21887 0.70419 0.0
H943 H 0.86352 0.21699 0.73021 0.0
C944 C 0.62676 0.70712 0.70325 0.0
C945 C 0.63237 0.70429 0.68498 0.0
C946 C 0.6409 0.70402 0.71718 0.0
C947 C 0.68114 0.66966 0.7267 0.0
H948 H 0.68896 0.70083 0.77094 0.0
C949 C 0.71468 0.63004 0.78871 0.0
C950 C 0.70538 0.63462 0.80537 0.0
C951 C 0.71211 0.64291 0.77376 0.0
C952 C 0.68684 0.69183 0.75875 0.0
H953 H 0.65748 0.69723 0.66688 0.0
H954 H 0.68206 0.69118 0.69134 0.0
H955 H 0.67192 0.71647 0.74488 0.0
H956 H 0.68691 0.65649 0.8199 0.0
H957 H 0.6812 0.6783 0.79368 0.0
H958 H 0.69409 0.64447 0.74066 0.0
C959 C 0.66678 0.69607 0.6948 0.0
C960 C 0.67727 0.70091 0.74378 0.0
C961 C 0.65274 0.69957 0.68084 0.0
C962 C 0.69438 0.65279 0.80718 0.0
C963 C 0.69122 0.66535 0.79208 0.0
C964 C 0.69023 0.66044 0.74173 0.0
C965 C 0.66079 0.69768 0.71309 0.0
C966 C 0.67397 0.68973 0.72778 0.0
C967 C 0.69944 0.6602 0.77496 0.0
C968 C 0.69279 0.6712 0.75817 0.0
H969 H 0.61119 0.71088 0.70683 0.0
H970 H 0.63587 0.7052 0.73117 0.0
H971 H 0.67848 0.6606 0.71461 0.0
H972 H 0.72339 0.61613 0.78709 0.0
H973 H 0.71935 0.63875 0.76107 0.0
C974 C 0.38085 0.70514 0.78486 0.0
C975 C 0.37185 0.70544 0.8022 0.0
C976 C 0.36947 0.69967 0.76962 0.0
C977 C 0.31862 0.68802 0.7509 0.0
H978 H 0.34712 0.64238 0.72904 0.0
C979 C 0.30362 0.61234 0.70429 0.0
C980 C 0.29837 0.62018 0.68711 0.0
C981 C 0.30903 0.62537 0.71844 0.0
C982 C 0.33899 0.65511 0.73499 0.0
H983 H 0.34336 0.70233 0.81688 0.0
H984 H 0.32345 0.69251 0.79011 0.0
H985 H 0.36391 0.66253 0.75237 0.0
H986 H 0.29288 0.64799 0.6719 0.0
H987 H 0.30234 0.67084 0.69691 0.0
H988 H 0.29358 0.68021 0.73328 0.0
C989 C 0.33932 0.69658 0.78838 0.0
C990 C 0.34866 0.66678 0.7482 0.0
C991 C 0.35074 0.70216 0.8037 0.0
C992 C 0.29698 0.64145 0.68492 0.0
C993 C 0.30231 0.65454 0.69921 0.0
C994 C 0.30898 0.67643 0.73735 0.0
C995 C 0.34887 0.6943 0.7714 0.0
C996 C 0.33858 0.68326 0.75641 0.0
C997 C 0.30916 0.64653 0.71582 0.0
C998 C 0.31904 0.65968 0.72954 0.0
H999 H 0.39701 0.70796 0.7832 0.0
H1000 H 0.37711 0.69839 0.75661 0.0
H1001 H 0.31052 0.70062 0.75707 0.0
H1002 H 0.30455 0.59608 0.7066 0.0
H1003 H 0.31405 0.61888 0.73123 0.0
C1004 C 0.37418 0.29305 0.70452 0.0
C1005 C 0.36664 0.28951 0.6869 0.0
C1006 C 0.36126 0.29981 0.71828 0.0
C1007 C 0.33559 0.33439 0.73298 0.0
H1008 H 0.28543 0.31365 0.75381 0.0
C1009 C 0.28994 0.38449 0.78038 0.0
C1010 C 0.2875 0.37598 0.7978 0.0
C1011 C 0.29456 0.37213 0.76551 0.0
C1012 C 0.29935 0.31961 0.74797 0.0
H1013 H 0.3392 0.28816 0.67046 0.0
H1014 H 0.31653 0.3 0.69477 0.0
H1015 H 0.30415 0.29312 0.73119 0.0
H1016 H 0.28585 0.34754 0.8128 0.0
H1017 H 0.29408 0.32599 0.78674 0.0
H1018 H 0.33116 0.36071 0.74952 0.0
C1019 C 0.3325 0.29758 0.69775 0.0
C1020 C 0.30998 0.30792 0.7351 0.0
C1021 C 0.3455 0.29083 0.68387 0.0
C1022 C 0.28781 0.35463 0.79962 0.0
C1023 C 0.29243 0.34224 0.78468 0.0
C1024 C 0.32489 0.34612 0.7455 0.0
C1025 C 0.34052 0.30306 0.71476 0.0
C1026 C 0.32838 0.31514 0.72779 0.0
C1027 C 0.2968 0.351 0.7677 0.0
C1028 C 0.30676 0.33883 0.75326 0.0
H1029 H 0.39032 0.29186 0.70742 0.0
H1030 H 0.36771 0.30373 0.7314 0.0
H1031 H 0.34964 0.34036 0.72738 0.0
H1032 H 0.28946 0.40083 0.77838 0.0
H1033 H 0.29753 0.37923 0.75247 0.0
C1034 C 0.69243 0.34493 0.68406 0.0
C1035 C 0.70246 0.3637 0.6855 0.0
C1036 C 0.68968 0.33274 0.69945 0.0
C1037 C 0.68786 0.33889 0.74964 0.0
H1038 H 0.67368 0.28161 0.74761 0.0
C1039 C 0.65236 0.29918 0.81103 0.0
C1040 C 0.63244 0.29295 0.80675 0.0
C1041 C 0.66639 0.30312 0.79717 0.0
C1042 C 0.67788 0.29754 0.7484 0.0
H1043 H 0.71917 0.38371 0.70349 0.0
H1044 H 0.71578 0.36185 0.73008 0.0
H1045 H 0.68976 0.29774 0.72131 0.0
H1046 H 0.61219 0.28405 0.78485 0.0
H1047 H 0.63686 0.29051 0.76068 0.0
H1048 H 0.6759 0.33862 0.77668 0.0
C1049 C 0.70898 0.3569 0.71742 0.0
C1050 C 0.6869 0.30688 0.7333 0.0
C1051 C 0.71114 0.36937 0.70216 0.0
C1052 C 0.62739 0.289 0.78851 0.0
C1053 C 0.64154 0.29254 0.7747 0.0
C1054 C 0.67932 0.32945 0.76481 0.0
C1055 C 0.69738 0.33887 0.71651 0.0
C1056 C 0.69132 0.32789 0.73347 0.0
C1057 C 0.66086 0.30044 0.77886 0.0
C1058 C 0.67364 0.30888 0.76413 0.0
H1059 H 0.6855 0.34034 0.67132 0.0
H1060 H 0.68046 0.31917 0.69808 0.0
H1061 H 0.69056 0.35512 0.75038 0.0
H1062 H 0.65666 0.30239 0.82497 0.0
H1063 H 0.68122 0.30919 0.80067 0.0
C1064 C 0.28169 0.37338 0.20401 0.0
C1065 C 0.28357 0.36514 0.18645 0.0
C1066 C 0.2866 0.36175 0.21923 0.0
C1067 C 0.31917 0.34278 0.24218 0.0
H1068 H 0.31057 0.28573 0.25362 0.0
C1069 C 0.37617 0.2989 0.28423 0.0
C1070 C 0.36886 0.2941 0.3017 0.0
C1071 C 0.36269 0.30358 0.2702 0.0
C1072 C 0.31294 0.30169 0.25055 0.0
H1073 H 0.28997 0.33764 0.17116 0.0
H1074 H 0.29891 0.3173 0.19791 0.0
H1075 H 0.29006 0.30212 0.22958 0.0
H1076 H 0.34152 0.28859 0.31758 0.0
H1077 H 0.3179 0.29674 0.29277 0.0
H1078 H 0.34244 0.34231 0.26251 0.0
C1079 C 0.2935 0.33274 0.19984 0.0
C1080 C 0.30131 0.31102 0.23686 0.0
C1081 C 0.28842 0.34439 0.18453 0.0
C1082 C 0.34767 0.29235 0.30434 0.0
C1083 C 0.33414 0.29692 0.29017 0.0
C1084 C 0.33089 0.33345 0.25554 0.0
C1085 C 0.29367 0.34169 0.21722 0.0
C1086 C 0.3044 0.33167 0.23254 0.0
C1087 C 0.34163 0.30332 0.27324 0.0
C1088 C 0.32804 0.31283 0.25972 0.0
H1089 H 0.27764 0.38924 0.20591 0.0
H1090 H 0.2862 0.36889 0.23252 0.0
H1091 H 0.32219 0.3586 0.23896 0.0
H1092 H 0.39235 0.30014 0.28158 0.0
H1093 H 0.36875 0.30843 0.25719 0.0
C1094 C 0.61688 0.28752 0.2047 0.0
C1095 C 0.6242 0.28841 0.18675 0.0
C1096 C 0.62956 0.29238 0.21926 0.0
C1097 C 0.65185 0.3246 0.24036 0.0
H1098 H 0.7078 0.31034 0.25166 0.0
C1099 C 0.7005 0.37696 0.28274 0.0
C1100 C 0.70384 0.36913 0.3003 0.0
C1101 C 0.69525 0.36405 0.26845 0.0
C1102 C 0.69217 0.31433 0.2486 0.0
H1103 H 0.65111 0.29302 0.17015 0.0
H1104 H 0.67334 0.30172 0.19579 0.0
H1105 H 0.68918 0.29127 0.22792 0.0
H1106 H 0.70637 0.34134 0.31613 0.0
H1107 H 0.69716 0.31869 0.29087 0.0
H1108 H 0.65484 0.34796 0.26043 0.0
C1109 C 0.65776 0.29721 0.19848 0.0
C1110 C 0.68158 0.30352 0.23508 0.0
C1111 C 0.64502 0.29228 0.18382 0.0
C1112 C 0.7038 0.34786 0.3028 0.0
C1113 C 0.6986 0.33488 0.28837 0.0
C1114 C 0.66245 0.33552 0.25352 0.0
C1115 C 0.64983 0.29826 0.21621 0.0
C1116 C 0.66128 0.30859 0.23092 0.0
C1117 C 0.69344 0.34303 0.27134 0.0
C1118 C 0.68268 0.33058 0.25768 0.0
H1119 H 0.60101 0.28421 0.20744 0.0
H1120 H 0.62317 0.29275 0.23285 0.0
H1121 H 0.63635 0.32907 0.23724 0.0
H1122 H 0.70072 0.39322 0.28024 0.0
H1123 H 0.69138 0.37061 0.25537 0.0
C1124 C 0.70916 0.62715 0.20042 0.0
C1125 C 0.69936 0.63147 0.18391 0.0
C1126 C 0.70683 0.6401 0.21535 0.0
C1127 C 0.68229 0.68926 0.23055 0.0
H1128 H 0.67538 0.65884 0.27531 0.0
C1129 C 0.62529 0.70745 0.28785 0.0
C1130 C 0.6314 0.70444 0.30598 0.0
C1131 C 0.63876 0.70363 0.27355 0.0
C1132 C 0.67765 0.66768 0.26304 0.0
H1133 H 0.68024 0.65305 0.16969 0.0
H1134 H 0.6751 0.67507 0.19592 0.0
H1135 H 0.68964 0.64208 0.24892 0.0
H1136 H 0.65673 0.69626 0.32342 0.0
H1137 H 0.68017 0.689 0.29829 0.0
H1138 H 0.66846 0.71437 0.24464 0.0
C1139 C 0.68525 0.66218 0.19736 0.0
C1140 C 0.68595 0.65809 0.2478 0.0
C1141 C 0.6881 0.64951 0.18226 0.0
C1142 C 0.65165 0.6988 0.30958 0.0
C1143 C 0.66502 0.69456 0.29523 0.0
C1144 C 0.67356 0.69873 0.24574 0.0
C1145 C 0.69402 0.65729 0.21433 0.0
C1146 C 0.68798 0.66857 0.23117 0.0
C1147 C 0.65848 0.69636 0.27709 0.0
C1148 C 0.67079 0.68787 0.262 0.0
H1149 H 0.7181 0.61338 0.20194 0.0
H1150 H 0.71446 0.63613 0.22791 0.0
H1151 H 0.68401 0.69804 0.21818 0.0
H1152 H 0.60978 0.71187 0.2847 0.0
H1153 H 0.63327 0.70499 0.2597 0.0
C1154 C 0.28877 0.6244 0.28477 0.0
C1155 C 0.28623 0.63079 0.30287 0.0
C1156 C 0.29045 0.6386 0.27076 0.0
C1157 C 0.30904 0.69031 0.26406 0.0
H1158 H 0.29685 0.67687 0.21388 0.0
C1159 C 0.36441 0.70497 0.20657 0.0
C1160 C 0.35767 0.70688 0.18851 0.0
C1161 C 0.35049 0.70281 0.22074 0.0
C1162 C 0.30002 0.68129 0.22778 0.0
H1163 H 0.28185 0.65715 0.32025 0.0
H1164 H 0.2847 0.68204 0.29566 0.0
H1165 H 0.27943 0.65893 0.23824 0.0
H1166 H 0.33092 0.70988 0.17138 0.0
H1167 H 0.30651 0.70623 0.19626 0.0
H1168 H 0.32999 0.71233 0.25359 0.0
C1169 C 0.28569 0.66599 0.2924 0.0
C1170 C 0.2902 0.67079 0.24178 0.0
C1171 C 0.28397 0.65171 0.30647 0.0
C1172 C 0.33663 0.70825 0.18512 0.0
C1173 C 0.32264 0.70605 0.19937 0.0
C1174 C 0.31873 0.70094 0.25006 0.0
C1175 C 0.28958 0.65959 0.27446 0.0
C1176 C 0.29546 0.67437 0.26005 0.0
C1177 C 0.32944 0.70256 0.21726 0.0
C1178 C 0.31519 0.69574 0.23177 0.0
H1179 H 0.29035 0.6084 0.28144 0.0
H1180 H 0.29369 0.63305 0.25719 0.0
H1181 H 0.31346 0.69354 0.27795 0.0
H1182 H 0.38051 0.7041 0.20971 0.0
H1183 H 0.35637 0.69995 0.23427 0.0
C1184 C 0.19574 0.40211 0.12044 0.0
C1185 C 0.21181 0.39151 0.12884 0.0
C1186 C 0.17562 0.39559 0.12275 0.0
C1187 C 0.14329 0.36291 0.15157 0.0
H1188 H 0.12069 0.34228 0.10645 0.0
C1189 C 0.11682 0.28291 0.14259 0.0
C1190 C 0.09969 0.2781 0.13207 0.0
C1191 C 0.12292 0.30306 0.14457 0.0
C1192 C 0.12627 0.34848 0.11917 0.0
H1193 H 0.21946 0.36649 0.14686 0.0
H1194 H 0.18458 0.35524 0.15092 0.0
H1195 H 0.14671 0.36875 0.10555 0.0
H1196 H 0.07517 0.29053 0.11565 0.0
H1197 H 0.0865 0.32599 0.11856 0.0
H1198 H 0.12436 0.34115 0.16508 0.0
C1199 C 0.18741 0.36857 0.1426 0.0
C1200 C 0.14115 0.36364 0.11866 0.0
C1201 C 0.20742 0.37479 0.14003 0.0
C1202 C 0.08848 0.29387 0.12384 0.0
C1203 C 0.09485 0.31409 0.12554 0.0
C1204 C 0.12847 0.34775 0.15208 0.0
C1205 C 0.17135 0.37876 0.13386 0.0
C1206 C 0.15081 0.36979 0.13479 0.0
C1207 C 0.11218 0.31879 0.13587 0.0
C1208 C 0.12101 0.33941 0.13582 0.0
H1209 H 0.19876 0.41511 0.11178 0.0
H1210 H 0.16346 0.40349 0.11572 0.0
H1211 H 0.15035 0.36771 0.16419 0.0
H1212 H 0.1256 0.27107 0.14924 0.0
H1213 H 0.13661 0.30626 0.15231 0.0
C1214 C 0.6196 0.21347 0.13748 0.0
C1215 C 0.60133 0.21655 0.12799 0.0
C1216 C 0.62772 0.19402 0.13913 0.0
C1217 C 0.63389 0.14768 0.11555 0.0
H1218 H 0.65775 0.13124 0.16155 0.0
C1219 C 0.70284 0.09281 0.12109 0.0
C1220 C 0.71903 0.10349 0.12925 0.0
C1221 C 0.68293 0.1003 0.1223 0.0
C1222 C 0.65081 0.1353 0.14867 0.0
H1223 H 0.57716 0.20177 0.11277 0.0
H1224 H 0.59205 0.16751 0.11509 0.0
H1225 H 0.63108 0.15714 0.16112 0.0
H1226 H 0.72708 0.12979 0.14561 0.0
H1227 H 0.69251 0.14265 0.14785 0.0
H1228 H 0.655 0.12716 0.10299 0.0
C1229 C 0.5997 0.18024 0.12151 0.0
C1230 C 0.6356 0.15007 0.14843 0.0
C1231 C 0.5913 0.19976 0.12016 0.0
C1232 C 0.71495 0.12136 0.13903 0.0
C1233 C 0.69512 0.12856 0.14053 0.0
C1234 C 0.64917 0.13288 0.1158 0.0
C1235 C 0.61791 0.17727 0.13114 0.0
C1236 C 0.62802 0.15728 0.13179 0.0
C1237 C 0.67898 0.11821 0.13209 0.0
C1238 C 0.65862 0.12763 0.13228 0.0
H1239 H 0.62757 0.22607 0.1438 0.0
H1240 H 0.64201 0.19214 0.14632 0.0
H1241 H 0.62823 0.15307 0.10257 0.0
H1242 H 0.70563 0.07896 0.11347 0.0
H1243 H 0.67069 0.09222 0.11555 0.0
C1244 C 0.78397 0.59544 0.11529 0.0
C1245 C 0.7676 0.6055 0.12378 0.0
C1246 C 0.80352 0.60395 0.11567 0.0
C1247 C 0.8351 0.63929 0.14159 0.0
H1248 H 0.85712 0.65869 0.09581 0.0
C1249 C 0.86826 0.71722 0.13317 0.0
C1250 C 0.88637 0.72033 0.12344 0.0
C1251 C 0.85954 0.69798 0.13407 0.0
C1252 C 0.85159 0.65286 0.10868 0.0
H1253 H 0.75889 0.632 0.13963 0.0
H1254 H 0.79287 0.64657 0.14049 0.0
H1255 H 0.83017 0.63287 0.09575 0.0
H1256 H 0.90966 0.70575 0.10704 0.0
H1257 H 0.89375 0.67184 0.1081 0.0
H1258 H 0.85526 0.6604 0.15449 0.0
C1259 C 0.79063 0.6322 0.13352 0.0
C1260 C 0.83621 0.63813 0.10864 0.0
C1261 C 0.77114 0.62398 0.13284 0.0
C1262 C 0.89567 0.70372 0.11464 0.0
C1263 C 0.88666 0.6844 0.11525 0.0
C1264 C 0.85043 0.65393 0.14163 0.0
C1265 C 0.80696 0.6223 0.12496 0.0
C1266 C 0.82708 0.6322 0.12507 0.0
C1267 C 0.86858 0.68143 0.12508 0.0
C1268 C 0.85789 0.6617 0.12514 0.0
H1269 H 0.78161 0.58117 0.1082 0.0
H1270 H 0.81593 0.5962 0.10885 0.0
H1271 H 0.82837 0.63473 0.15442 0.0
H1272 H 0.86083 0.72967 0.14022 0.0
H1273 H 0.84538 0.69613 0.14146 0.0
C1274 C 0.29256 0.90206 0.11908 0.0
C1275 C 0.27645 0.89299 0.12875 0.0
C1276 C 0.31228 0.8941 0.12034 0.0
C1277 C 0.34448 0.86003 0.14797 0.0
H1278 H 0.36367 0.83821 0.10203 0.0
C1279 C 0.37013 0.77965 0.13916 0.0
C1280 C 0.3874 0.77472 0.12885 0.0
C1281 C 0.36365 0.79973 0.14049 0.0
C1282 C 0.35901 0.84472 0.11492 0.0
H1283 H 0.26842 0.86922 0.14794 0.0
H1284 H 0.30266 0.85548 0.1502 0.0
H1285 H 0.33818 0.86531 0.10214 0.0
H1286 H 0.4116 0.78684 0.11193 0.0
H1287 H 0.39952 0.82227 0.11365 0.0
H1288 H 0.36386 0.8381 0.16074 0.0
C1289 C 0.30015 0.86871 0.14168 0.0
C1290 C 0.34443 0.8602 0.11499 0.0
C1291 C 0.28049 0.87639 0.14019 0.0
C1292 C 0.39821 0.79031 0.11996 0.0
C1293 C 0.39141 0.81048 0.12098 0.0
C1294 C 0.35899 0.84457 0.14789 0.0
C1295 C 0.31617 0.87731 0.13161 0.0
C1296 C 0.33609 0.86695 0.13153 0.0
C1297 C 0.37411 0.81529 0.13133 0.0
C1298 C 0.3653 0.8359 0.13138 0.0
H1299 H 0.28984 0.91491 0.11017 0.0
H1300 H 0.32438 0.90085 0.11235 0.0
H1301 H 0.33848 0.86527 0.16088 0.0
H1302 H 0.36164 0.76798 0.14631 0.0
H1303 H 0.35001 0.80302 0.14827 0.0
C1304 C 0.09055 0.69687 0.36524 0.0
C1305 C 0.10106 0.71293 0.35673 0.0
C1306 C 0.09777 0.67689 0.36383 0.0
C1307 C 0.13251 0.64427 0.33735 0.0
H1308 H 0.15145 0.62368 0.38381 0.0
C1309 C 0.21203 0.61803 0.34928 0.0
C1310 C 0.21638 0.60049 0.35943 0.0
C1311 C 0.19205 0.62456 0.34717 0.0
C1312 C 0.14572 0.62871 0.37074 0.0
H1313 H 0.12663 0.72066 0.33939 0.0
H1314 H 0.13906 0.68594 0.3368 0.0
H1315 H 0.12477 0.64959 0.38299 0.0
H1316 H 0.2033 0.57587 0.37526 0.0
H1317 H 0.16801 0.58803 0.3722 0.0
H1318 H 0.15486 0.62488 0.32519 0.0
C1319 C 0.12529 0.6887 0.34455 0.0
C1320 C 0.13047 0.64353 0.37026 0.0
C1321 C 0.11836 0.70861 0.34624 0.0
C1322 C 0.2003 0.58948 0.36738 0.0
C1323 C 0.1802 0.59632 0.36559 0.0
C1324 C 0.14772 0.62951 0.33783 0.0
C1325 C 0.11525 0.6727 0.35351 0.0
C1326 C 0.12485 0.65241 0.35362 0.0
C1327 C 0.17598 0.61388 0.35538 0.0
C1328 C 0.1554 0.62272 0.35458 0.0
H1329 H 0.07714 0.69984 0.3734 0.0
H1330 H 0.08993 0.66478 0.37098 0.0
H1331 H 0.12815 0.65073 0.32435 0.0
H1332 H 0.22409 0.62669 0.34283 0.0
H1333 H 0.18921 0.6384 0.33955 0.0
C1334 C 0.3731 0.21664 0.34998 0.0
C1335 C 0.3906 0.22041 0.36039 0.0
C1336 C 0.36474 0.19719 0.34928 0.0
C1337 C 0.35639 0.15455 0.37763 0.0
H1338 H 0.33355 0.13114 0.33364 0.0
C1339 C 0.29064 0.09322 0.35455 0.0
C1340 C 0.27404 0.10298 0.36292 0.0
C1341 C 0.30997 0.10215 0.35496 0.0
C1342 C 0.34024 0.13713 0.34602 0.0
H1343 H 0.41344 0.20678 0.37791 0.0
H1344 H 0.39816 0.17267 0.37726 0.0
H1345 H 0.35977 0.15749 0.3314 0.0
H1346 H 0.26468 0.12906 0.37896 0.0
H1347 H 0.29843 0.14443 0.37993 0.0
H1348 H 0.33554 0.13551 0.39221 0.0
C1349 C 0.39125 0.18479 0.3694 0.0
C1350 C 0.35512 0.15222 0.34473 0.0
C1351 C 0.3999 0.20424 0.3698 0.0
C1352 C 0.27718 0.12134 0.37226 0.0
C1353 C 0.29651 0.12999 0.37301 0.0
C1354 C 0.34131 0.13967 0.37891 0.0
C1355 C 0.37354 0.18119 0.35922 0.0
C1356 C 0.36258 0.16168 0.36051 0.0
C1357 C 0.31297 0.12062 0.36417 0.0
C1358 C 0.33249 0.13157 0.36309 0.0
H1359 H 0.36576 0.22878 0.34244 0.0
H1360 H 0.35086 0.19484 0.34158 0.0
H1361 H 0.36186 0.16172 0.38998 0.0
H1362 H 0.28856 0.07903 0.34726 0.0
H1363 H 0.32248 0.09482 0.34793 0.0
C1364 C 0.87359 0.28231 0.35051 0.0
C1365 C 0.89143 0.27858 0.36044 0.0
C1366 C 0.86656 0.3021 0.34819 0.0
C1367 C 0.86226 0.34926 0.3707 0.0
H1368 H 0.84006 0.36567 0.32405 0.0
C1369 C 0.79491 0.40517 0.36469 0.0
C1370 C 0.77865 0.39488 0.35627 0.0
C1371 C 0.81477 0.3976 0.36326 0.0
C1372 C 0.84655 0.36161 0.33711 0.0
H1373 H 0.91599 0.29257 0.37577 0.0
H1374 H 0.903 0.32746 0.3723 0.0
H1375 H 0.86552 0.33861 0.32538 0.0
H1376 H 0.77045 0.36939 0.33898 0.0
H1377 H 0.80489 0.35633 0.3364 0.0
H1378 H 0.84181 0.37088 0.38258 0.0
C1379 C 0.89484 0.31496 0.36603 0.0
C1380 C 0.86107 0.34618 0.33786 0.0
C1381 C 0.90216 0.29507 0.36805 0.0
C1382 C 0.78265 0.3775 0.34578 0.0
C1383 C 0.80242 0.3702 0.34409 0.0
C1384 C 0.84764 0.36469 0.36996 0.0
C1385 C 0.87706 0.31857 0.35597 0.0
C1386 C 0.86798 0.33901 0.35475 0.0
C1387 C 0.81861 0.37997 0.35302 0.0
C1388 C 0.8387 0.36994 0.35324 0.0
H1389 H 0.86512 0.26993 0.34434 0.0
H1390 H 0.85255 0.3045 0.34068 0.0
H1391 H 0.86741 0.34393 0.38387 0.0
H1392 H 0.7922 0.41865 0.37283 0.0
H1393 H 0.82702 0.40526 0.37037 0.0
C1394 C 0.62236 0.78001 0.37502 0.0
C1395 C 0.60412 0.77659 0.36557 0.0
C1396 C 0.63064 0.79947 0.37588 0.0
C1397 C 0.6401 0.84439 0.3813 0.0
H1398 H 0.6583 0.86131 0.33343 0.0
C1399 C 0.70605 0.90114 0.3707 0.0
C1400 C 0.72202 0.89096 0.36177 0.0
C1401 C 0.68638 0.89304 0.3705 0.0
C1402 C 0.65291 0.85712 0.34685 0.0
H1403 H 0.57992 0.79076 0.34996 0.0
H1404 H 0.59511 0.82493 0.35078 0.0
H1405 H 0.63146 0.83568 0.33618 0.0
H1406 H 0.72989 0.86502 0.34491 0.0
H1407 H 0.69551 0.85104 0.34437 0.0
H1408 H 0.66258 0.86475 0.39196 0.0
C1409 C 0.60261 0.81254 0.35783 0.0
C1410 C 0.63753 0.84259 0.34842 0.0
C1411 C 0.59403 0.79307 0.35732 0.0
C1412 C 0.71789 0.87304 0.35206 0.0
C1413 C 0.6982 0.86521 0.35155 0.0
C1414 C 0.65527 0.85914 0.37972 0.0
C1415 C 0.62104 0.8158 0.36703 0.0
C1416 C 0.63189 0.83532 0.36564 0.0
C1417 C 0.68238 0.87497 0.36098 0.0
C1418 C 0.66255 0.86471 0.36249 0.0
H1419 H 0.63031 0.76758 0.38163 0.0
H1420 H 0.64507 0.8016 0.38279 0.0
H1421 H 0.63589 0.83896 0.39469 0.0
H1422 H 0.70888 0.91501 0.37828 0.0
H1423 H 0.67438 0.90066 0.37799 0.0
C1424 C 0.79285 0.59264 0.86975 0.0
C1425 C 0.77719 0.60286 0.86041 0.0
C1426 C 0.81285 0.59998 0.86903 0.0
C1427 C 0.84655 0.6338 0.84293 0.0
H1428 H 0.86426 0.65569 0.88932 0.0
C1429 C 0.87154 0.71426 0.85223 0.0
C1430 C 0.88918 0.71909 0.86208 0.0
C1431 C 0.8648 0.69423 0.85122 0.0
C1432 C 0.86002 0.64915 0.87632 0.0
H1433 H 0.77017 0.62798 0.84232 0.0
H1434 H 0.80491 0.64056 0.84088 0.0
H1435 H 0.83877 0.62856 0.88857 0.0
H1436 H 0.91358 0.70684 0.87873 0.0
H1437 H 0.90107 0.67156 0.87756 0.0
H1438 H 0.86621 0.65581 0.83064 0.0
C1439 C 0.80184 0.62697 0.84878 0.0
C1440 C 0.84547 0.63363 0.87589 0.0
C1441 C 0.78191 0.61995 0.8498 0.0
C1442 C 0.89992 0.70348 0.87103 0.0
C1443 C 0.89288 0.68338 0.87033 0.0
C1444 C 0.861 0.6493 0.84336 0.0
C1445 C 0.81743 0.61723 0.85854 0.0
C1446 C 0.83764 0.62693 0.85915 0.0
C1447 C 0.87539 0.67865 0.86024 0.0
C1448 C 0.86674 0.65799 0.86002 0.0
H1449 H 0.78952 0.5794 0.87801 0.0
H1450 H 0.82464 0.59241 0.87681 0.0
H1451 H 0.84085 0.62865 0.82988 0.0
H1452 H 0.86306 0.72592 0.84506 0.0
H1453 H 0.85101 0.69097 0.84366 0.0
C1454 C 0.37502 0.7827 0.85064 0.0
C1455 C 0.3918 0.77876 0.86189 0.0
C1456 C 0.36729 0.80232 0.84914 0.0
C1457 C 0.35895 0.84663 0.87571 0.0
H1458 H 0.33613 0.86565 0.83011 0.0
C1459 C 0.28955 0.9012 0.87095 0.0
C1460 C 0.27366 0.89092 0.86194 0.0
C1461 C 0.3095 0.8938 0.87001 0.0
C1462 C 0.34276 0.86086 0.84291 0.0
H1463 H 0.41403 0.79225 0.88011 0.0
H1464 H 0.39985 0.8268 0.87797 0.0
H1465 H 0.36347 0.84047 0.8298 0.0
H1466 H 0.2662 0.86532 0.84451 0.0
H1467 H 0.30091 0.85259 0.84275 0.0
H1468 H 0.337 0.86581 0.88881 0.0
C1469 C 0.39301 0.81462 0.87011 0.0
C1470 C 0.35835 0.8465 0.84274 0.0
C1471 C 0.40103 0.79493 0.87136 0.0
C1472 C 0.27809 0.87343 0.85173 0.0
C1473 C 0.29798 0.86632 0.85051 0.0
C1474 C 0.34334 0.86108 0.87588 0.0
C1475 C 0.37602 0.81841 0.85903 0.0
C1476 C 0.36556 0.83828 0.85914 0.0
C1477 C 0.31382 0.87638 0.85967 0.0
C1478 C 0.33429 0.86723 0.85948 0.0
H1479 H 0.36774 0.77058 0.84303 0.0
H1480 H 0.35392 0.80474 0.84078 0.0
H1481 H 0.36427 0.84048 0.88854 0.0
H1482 H 0.28651 0.91474 0.87892 0.0
H1483 H 0.3215 0.90161 0.87732 0.0
C1484 C 0.12167 0.28417 0.84868 0.0
C1485 C 0.10439 0.27941 0.85904 0.0
C1486 C 0.12824 0.30423 0.84724 0.0
C1487 C 0.13319 0.34929 0.87263 0.0
H1488 H 0.15295 0.37004 0.8265 0.0
C1489 C 0.20022 0.40566 0.86833 0.0
C1490 C 0.21596 0.39652 0.85823 0.0
C1491 C 0.18031 0.39816 0.86716 0.0
C1492 C 0.14716 0.36475 0.83947 0.0
H1493 H 0.08028 0.29181 0.87593 0.0
H1494 H 0.09251 0.32713 0.87402 0.0
H1495 H 0.12771 0.34274 0.82686 0.0
H1496 H 0.22309 0.37322 0.83829 0.0
H1497 H 0.18861 0.36025 0.83624 0.0
H1498 H 0.15417 0.36985 0.88524 0.0
C1499 C 0.10057 0.31525 0.86674 0.0
C1500 C 0.13275 0.3492 0.83967 0.0
C1501 C 0.09368 0.29513 0.86787 0.0
C1502 C 0.21133 0.38041 0.84641 0.0
C1503 C 0.19151 0.37319 0.84502 0.0
C1504 C 0.14773 0.36481 0.87244 0.0
C1505 C 0.11786 0.3199 0.85635 0.0
C1506 C 0.12671 0.34049 0.85623 0.0
C1507 C 0.17586 0.38177 0.85555 0.0
C1508 C 0.15582 0.37161 0.85583 0.0
H1509 H 0.13008 0.27239 0.8416 0.0
H1510 H 0.14187 0.30742 0.83943 0.0
H1511 H 0.12872 0.34274 0.88556 0.0
H1512 H 0.20339 0.41817 0.87752 0.0
H1513 H 0.1685 0.4049 0.8755 0.0
C1514 C 0.59472 0.20552 0.87234 0.0
C1515 C 0.60512 0.2221 0.86455 0.0
C1516 C 0.60316 0.18596 0.87169 0.0
C1517 C 0.63931 0.1551 0.84604 0.0
H1518 H 0.65823 0.13273 0.89186 0.0
C1519 C 0.71821 0.12579 0.8563 0.0
C1520 C 0.72174 0.10695 0.86471 0.0
C1521 C 0.69862 0.13368 0.85532 0.0
C1522 C 0.65251 0.13832 0.87897 0.0
H1523 H 0.63216 0.23123 0.84966 0.0
H1524 H 0.64664 0.19722 0.84833 0.0
H1525 H 0.63172 0.15901 0.89182 0.0
H1526 H 0.70762 0.08159 0.87882 0.0
H1527 H 0.67304 0.09604 0.87769 0.0
H1528 H 0.66136 0.13586 0.83329 0.0
C1529 C 0.63204 0.1993 0.85495 0.0
C1530 C 0.63739 0.15331 0.87894 0.0
C1531 C 0.62387 0.21879 0.85591 0.0
C1532 C 0.70525 0.09616 0.87224 0.0
C1533 C 0.68557 0.10432 0.87158 0.0
C1534 C 0.65435 0.14018 0.84607 0.0
C1535 C 0.62179 0.18275 0.86282 0.0
C1536 C 0.6317 0.16266 0.86254 0.0
C1537 C 0.68216 0.12305 0.86292 0.0
C1538 C 0.66193 0.13266 0.86259 0.0
H1539 H 0.58023 0.20771 0.8791 0.0
H1540 H 0.59517 0.17337 0.87799 0.0
H1541 H 0.63495 0.16202 0.83324 0.0
H1542 H 0.73057 0.13437 0.85024 0.0
H1543 H 0.69636 0.14835 0.84887 0.0
C1544 C 0.79162 0.39652 0.62073 0.0
C1545 C 0.77494 0.3869 0.6291 0.0
C1546 C 0.81102 0.38774 0.62161 0.0
C1547 C 0.84126 0.35036 0.64726 0.0
H1548 H 0.86286 0.33285 0.60069 0.0
C1549 C 0.87123 0.27167 0.635 0.0
C1550 C 0.88984 0.26867 0.62601 0.0
C1551 C 0.86297 0.29108 0.63648 0.0
C1552 C 0.85745 0.33811 0.6138 0.0
H1553 H 0.76552 0.36115 0.64556 0.0
H1554 H 0.79921 0.34604 0.64724 0.0
H1555 H 0.83711 0.3598 0.60177 0.0
H1556 H 0.91431 0.28358 0.6113 0.0
H1557 H 0.89922 0.31777 0.61335 0.0
H1558 H 0.86024 0.32749 0.65915 0.0
C1559 C 0.79739 0.36029 0.63999 0.0
C1560 C 0.84276 0.35351 0.61442 0.0
C1561 C 0.77806 0.3688 0.63884 0.0
C1562 C 0.89994 0.2855 0.61832 0.0
C1563 C 0.89141 0.30499 0.61951 0.0
C1564 C 0.85585 0.335 0.64663 0.0
C1565 C 0.814 0.36955 0.63127 0.0
C1566 C 0.83371 0.35881 0.63107 0.0
C1567 C 0.87298 0.30788 0.6288 0.0
C1568 C 0.86311 0.32797 0.62982 0.0
H1569 H 0.78958 0.4105 0.61313 0.0
H1570 H 0.82362 0.39502 0.61467 0.0
H1571 H 0.83466 0.35445 0.66027 0.0
H1572 H 0.86316 0.25905 0.64118 0.0
H1573 H 0.84852 0.29292 0.64341 0.0
C1574 C 0.71268 0.87287 0.61197 0.0
C1575 C 0.71657 0.89102 0.62141 0.0
C1576 C 0.69291 0.86539 0.61064 0.0
C1577 C 0.64809 0.85615 0.6051 0.0
H1578 H 0.62917 0.84213 0.65348 0.0
C1579 C 0.59094 0.79106 0.6182 0.0
C1580 C 0.60106 0.77592 0.62826 0.0
C1581 C 0.59878 0.81085 0.61748 0.0
C1582 C 0.6339 0.84638 0.63987 0.0
H1583 H 0.70287 0.91604 0.6363 0.0
H1584 H 0.66813 0.90237 0.63458 0.0
H1585 H 0.65532 0.86827 0.64978 0.0
H1586 H 0.62646 0.76971 0.64626 0.0
H1587 H 0.63991 0.80426 0.64527 0.0
H1588 H 0.62778 0.83311 0.59533 0.0
C1589 C 0.68042 0.89424 0.62795 0.0
C1590 C 0.64876 0.86136 0.63774 0.0
C1591 C 0.70023 0.90198 0.62895 0.0
C1592 C 0.6185 0.78106 0.63827 0.0
C1593 C 0.62603 0.80086 0.63788 0.0
C1594 C 0.63303 0.84135 0.60721 0.0
C1595 C 0.67669 0.87574 0.61898 0.0
C1596 C 0.6568 0.86545 0.62044 0.0
C1597 C 0.61647 0.81581 0.62723 0.0
C1598 C 0.62675 0.83554 0.6247 0.0
H1599 H 0.72499 0.86424 0.60588 0.0
H1600 H 0.69046 0.85091 0.60391 0.0
H1601 H 0.65404 0.85917 0.59162 0.0
H1602 H 0.57744 0.78742 0.61037 0.0
H1603 H 0.59132 0.82214 0.60905 0.0
C1604 C 0.124 0.71478 0.63944 0.0
C1605 C 0.10548 0.71751 0.63025 0.0
C1606 C 0.132 0.69539 0.64182 0.0
C1607 C 0.13645 0.64757 0.61999 0.0
H1608 H 0.16343 0.63377 0.66531 0.0
C1609 C 0.20383 0.59087 0.62421 0.0
C1610 C 0.22101 0.60092 0.63131 0.0
C1611 C 0.18444 0.59941 0.62611 0.0
C1612 C 0.15567 0.63716 0.65265 0.0
H1613 H 0.08066 0.70211 0.61643 0.0
H1614 H 0.09528 0.66787 0.62004 0.0
H1615 H 0.13711 0.66004 0.66505 0.0
H1616 H 0.23135 0.62734 0.64646 0.0
H1617 H 0.19764 0.64211 0.64984 0.0
H1618 H 0.15624 0.62585 0.60735 0.0
C1619 C 0.10326 0.68088 0.62564 0.0
C1620 C 0.14064 0.65211 0.65251 0.0
C1621 C 0.095 0.70038 0.62355 0.0
C1622 C 0.21843 0.61933 0.64071 0.0
C1623 C 0.1991 0.62764 0.64286 0.0
C1624 C 0.15152 0.63256 0.62014 0.0
C1625 C 0.12179 0.67829 0.63487 0.0
C1626 C 0.13188 0.6583 0.636 0.0
C1627 C 0.18197 0.61785 0.63549 0.0
C1628 C 0.16209 0.62822 0.63629 0.0
H1629 H 0.13231 0.72765 0.64492 0.0
H1630 H 0.14653 0.69381 0.64866 0.0
H1631 H 0.12989 0.65215 0.6071 0.0
H1632 H 0.20541 0.57663 0.6169 0.0
H1633 H 0.17143 0.59171 0.6202 0.0
C1634 C 0.40576 0.19587 0.6247 0.0
C1635 C 0.39525 0.21189 0.63326 0.0
C1636 C 0.39878 0.17583 0.62636 0.0
C1637 C 0.3637 0.14331 0.65289 0.0
H1638 H 0.34569 0.12268 0.60613 0.0
C1639 C 0.28421 0.11722 0.63941 0.0
C1640 C 0.28027 0.09933 0.62961 0.0
C1641 C 0.3041 0.12398 0.64173 0.0
C1642 C 0.35113 0.12775 0.61929 0.0
H1643 H 0.37004 0.2195 0.65107 0.0
H1644 H 0.35796 0.18475 0.65401 0.0
H1645 H 0.37257 0.14833 0.60737 0.0
H1646 H 0.29396 0.07444 0.61449 0.0
H1647 H 0.32902 0.08699 0.61793 0.0
H1648 H 0.34078 0.12428 0.66465 0.0
C1649 C 0.37157 0.18754 0.64606 0.0
C1650 C 0.36652 0.1424 0.62002 0.0
C1651 C 0.37829 0.20749 0.64415 0.0
C1652 C 0.29663 0.08832 0.6221 0.0
C1653 C 0.3166 0.09537 0.62412 0.0
C1654 C 0.34829 0.12877 0.65215 0.0
C1655 C 0.38151 0.17157 0.63694 0.0
C1656 C 0.37183 0.15131 0.63674 0.0
C1657 C 0.32043 0.11317 0.63408 0.0
C1658 C 0.34099 0.12199 0.63527 0.0
H1659 H 0.41894 0.1989 0.61625 0.0
H1660 H 0.40656 0.16376 0.6191 0.0
H1661 H 0.36782 0.14975 0.66595 0.0
H1662 H 0.27193 0.12589 0.6455 0.0
H1663 H 0.30668 0.13801 0.64915 0.0
C1664 C 0.18543 -0.00069 0.10742 0.0
C1665 C 0.17612 0.98531 0.11927 0.0
C1666 C 0.17595 0.01781 0.10339 0.0
C1667 C 0.12714 0.04621 0.10728 0.0
H1668 H 0.16251 0.09285 0.1143 0.0
C1669 C 0.09836 0.12427 0.13124 0.0
C1670 C 0.10771 0.14198 0.12448 0.0
C1671 C 0.10557 0.10506 0.12633 0.0
C1672 C 0.15246 0.08004 0.11191 0.0
H1673 H 0.14895 0.97929 0.13527 0.0
H1674 H 0.13268 0.01158 0.12846 0.0
H1675 H 0.17716 0.0589 0.11277 0.0
H1676 H 0.13151 0.15329 0.1066 0.0
H1677 H 0.14404 0.1197 0.09805 0.0
H1678 H 0.10235 0.06741 0.10716 0.0
C1679 C 0.1472 0.00823 0.12215 0.0
C1680 C 0.16087 0.06056 0.11101 0.0
C1681 C 0.15665 0.98975 0.12618 0.0
C1682 C 0.12403 0.13999 0.11221 0.0
C1683 C 0.13126 0.12076 0.10731 0.0
C1684 C 0.11872 0.06572 0.1082 0.0
C1685 C 0.15698 0.02268 0.11109 0.0
C1686 C 0.14826 0.04339 0.10916 0.0
C1687 C 0.1223 0.1031 0.11454 0.0
C1688 C 0.13127 0.08277 0.111 0.0
H1689 H 0.20034 0.99631 0.10172 0.0
H1690 H 0.18372 0.02854 0.09461 0.0
H1691 H 0.11707 0.03329 0.10555 0.0
H1692 H 0.08571 0.1252 0.14066 0.0
H1693 H 0.09851 0.09174 0.13231 0.0
C1694 C 0.00818 0.15503 0.13516 0.0
C1695 C 0.01305 0.173 0.12572 0.0
C1696 C 0.98986 0.14496 0.13183 0.0
C1697 C 0.93825 0.15611 0.11605 0.0
H1698 H 0.93138 0.09763 0.12033 0.0
C1699 C 0.85892 0.11944 0.11511 0.0
C1700 C 0.85518 0.10569 0.1294 0.0
C1701 C 0.87873 0.12574 0.11119 0.0
C1702 C 0.9331 0.11398 0.1191 0.0
H1703 H 0.00304 0.19372 0.10451 0.0
H1704 H 0.97115 0.17596 0.09856 0.0
H1705 H 0.96565 0.11208 0.11906 0.0
H1706 H 0.86949 0.08715 0.15026 0.0
H1707 H 0.90401 0.09836 0.14351 0.0
H1708 H 0.90578 0.1581 0.11656 0.0
C1709 C 0.98135 0.16993 0.10882 0.0
C1710 C 0.95268 0.12225 0.11838 0.0
C1711 C -0.00035 0.18007 0.1122 0.0
C1712 C 0.87179 0.09783 0.13923 0.0
C1713 C 0.89161 0.10412 0.13527 0.0
C1714 C 0.91871 0.14785 0.1167 0.0
C1715 C 0.97603 0.15256 0.11892 0.0
C1716 C 0.95545 0.14345 0.11725 0.0
C1717 C 0.89523 0.1184 0.12142 0.0
C1718 C 0.91593 0.12675 0.11862 0.0
H1719 H 0.01816 0.1491 0.14563 0.0
H1720 H 0.98613 0.13176 0.14001 0.0
H1721 H 0.93983 0.17251 0.11548 0.0
H1722 H 0.84653 0.12567 0.10714 0.0
H1723 H 0.88111 0.13658 0.10029 0.0
C1724 C 0.87692 0.86167 0.12015 0.0
C1725 C 0.89281 0.85606 0.13197 0.0
C1726 C 0.87098 0.882 0.11861 0.0
C1727 C 0.87139 0.92933 0.14502 0.0
H1728 H 0.85146 0.95314 0.10013 0.0
C1729 C 0.8407 0.01106 0.14273 0.0
C1730 C 0.8218 0.01356 0.13399 0.0
C1731 C 0.85173 0.99306 0.14072 0.0
C1732 C 0.85693 0.94664 0.11276 0.0
H1733 H 0.91563 0.86763 0.1507 0.0
H1734 H 0.90539 0.90313 0.1478 0.0
H1735 H 0.86721 0.91941 0.09961 0.0
H1736 H 0.80011 -0.00067 0.11566 0.0
H1737 H 0.81935 0.96779 0.1123 0.0
H1738 H 0.86085 0.95633 0.15823 0.0
C1739 C 0.89727 0.89172 0.14002 0.0
C1740 C 0.86594 0.92736 0.11248 0.0
C1741 C 0.90318 0.87137 0.14162 0.0
C1742 C 0.81457 -0.0021 0.12265 0.0
C1743 C 0.82565 0.97987 0.12062 0.0
C1744 C 0.86248 0.94859 0.14529 0.0
C1745 C 0.88083 0.89719 0.12879 0.0
C1746 C 0.87301 0.91838 0.12866 0.0
C1747 C 0.84416 0.97715 0.1299 0.0
C1748 C 0.85492 0.95734 0.12921 0.0
H1749 H 0.8686 0.85031 0.11248 0.0
H1750 H 0.8581 0.88566 0.11 0.0
H1751 H 0.87632 0.92271 0.15778 0.0
H1752 H 0.84687 0.02286 0.15143 0.0
H1753 H 0.86611 0.99149 0.14782 0.0
C1754 C 0.13631 0.87374 0.11987 0.0
C1755 C 0.13999 0.89131 0.13033 0.0
C1756 C 0.11659 0.86596 0.11816 0.0
C1757 C 0.06796 0.86547 0.14262 0.0
H1758 H 0.04654 0.84208 0.09809 0.0
C1759 C 0.98614 0.83566 0.13898 0.0
C1760 C 0.9832 0.81664 0.13058 0.0
C1761 C 0.00461 0.84593 0.13724 0.0
C1762 C 0.05239 0.84843 0.11065 0.0
H1763 H 0.12561 0.91502 0.14645 0.0
H1764 H 0.09129 0.90153 0.14332 0.0
H1765 H 0.08011 0.85825 0.09797 0.0
H1766 H -0.0028 0.79386 0.11321 0.0
H1767 H 0.02965 0.81173 0.11041 0.0
H1768 H 0.04055 0.85544 0.15541 0.0
C1769 C 0.10371 0.89357 0.13672 0.0
C1770 C 0.07158 0.85769 0.11058 0.0
C1771 C 0.12339 0.90135 0.13844 0.0
C1772 C -0.00104 0.80847 0.11987 0.0
C1773 C 0.01752 0.81875 0.11819 0.0
C1774 C 0.04886 0.85621 0.1427 0.0
C1775 C 0.10014 0.87558 0.12687 0.0
C1776 C 0.07956 0.8663 0.12658 0.0
C1777 C 0.02066 0.83743 0.12713 0.0
C1778 C 0.04084 0.84759 0.12673 0.0
H1779 H 0.14871 0.86564 0.11339 0.0
H1780 H 0.11434 0.85199 0.11058 0.0
H1781 H 0.07386 0.87155 0.15526 0.0
H1782 H 0.97425 0.84256 0.14712 0.0
H1783 H 0.0064 0.8605 0.14398 0.0
C1784 C 0.18547 0.99291 0.37158 0.0
C1785 C 0.17681 0.00698 0.3594 0.0
C1786 C 0.17603 0.9742 0.37484 0.0
C1787 C 0.12737 0.94623 0.36934 0.0
H1788 H 0.16234 0.89872 0.36669 0.0
C1789 C 0.09804 0.86627 0.3512 0.0
C1790 C 0.107 0.84927 0.35963 0.0
C1791 C 0.10545 0.88584 0.35452 0.0
C1792 C 0.15238 0.91181 0.36782 0.0
H1793 H 0.15104 0.01261 0.34156 0.0
H1794 H 0.1348 0.97994 0.34706 0.0
H1795 H 0.17741 0.93257 0.36652 0.0
H1796 H 0.13027 0.83967 0.37882 0.0
H1797 H 0.1431 0.87388 0.38464 0.0
H1798 H 0.1023 0.92539 0.37011 0.0
C1799 C 0.14877 0.98346 0.35425 0.0
C1800 C 0.16102 0.93123 0.36772 0.0
C1801 C 0.15819 0.00215 0.35099 0.0
C1802 C 0.12308 0.85239 0.37198 0.0
C1803 C 0.1305 0.87198 0.37527 0.0
C1804 C 0.11872 0.9268 0.36943 0.0
C1805 C 0.15773 0.96916 0.36601 0.0
C1806 C 0.1486 0.94865 0.36812 0.0
C1807 C 0.12198 0.88887 0.36634 0.0
C1808 C 0.13112 0.9094 0.36832 0.0
H1809 H 0.19972 0.99617 0.37841 0.0
H1810 H 0.18317 0.96358 0.38414 0.0
H1811 H 0.11742 0.95937 0.36996 0.0
H1812 H 0.08559 0.86448 0.34166 0.0
H1813 H 0.0987 0.89851 0.34726 0.0
C1814 C 0.98721 0.15925 0.34945 0.0
C1815 C 0.98306 0.17745 0.35883 0.0
C1816 C 0.00522 0.14856 0.35267 0.0
C1817 C 0.05739 0.15684 0.36862 0.0
H1818 H 0.06012 0.09783 0.36782 0.0
C1819 C 0.13392 0.11549 0.37447 0.0
C1820 C 0.13734 0.10034 0.36129 0.0
C1821 C 0.11437 0.12313 0.37741 0.0
C1822 C 0.05958 0.11431 0.36804 0.0
H1823 H 0.99432 0.19825 0.3795 0.0
H1824 H 0.02568 0.17947 0.38518 0.0
H1825 H 0.02698 0.11476 0.36703 0.0
H1826 H 0.12265 0.08056 0.34157 0.0
H1827 H 0.0886 0.09411 0.34654 0.0
H1828 H 0.0899 0.15649 0.36915 0.0
C1829 C 0.0151 0.17367 0.37513 0.0
C1830 C 0.04063 0.124 0.36758 0.0
C1831 C 0.99709 0.18439 0.3719 0.0
C1832 C 0.12059 0.09227 0.35179 0.0
C1833 C 0.10103 0.09996 0.35471 0.0
C1834 C 0.07629 0.14718 0.36909 0.0
C1835 C 0.01948 0.15579 0.36537 0.0
C1836 C 0.03936 0.14538 0.36757 0.0
C1837 C 0.0978 0.11582 0.36722 0.0
C1838 C 0.07761 0.12582 0.36853 0.0
H1839 H 0.97674 0.15342 0.33931 0.0
H1840 H 0.00826 0.13498 0.34476 0.0
H1841 H 0.05696 0.17333 0.36834 0.0
H1842 H 0.14642 0.12189 0.38221 0.0
H1843 H 0.11229 0.1351 0.38738 0.0
C1844 C 0.83906 0.98958 0.34975 0.0
C1845 C 0.82126 0.98454 0.35938 0.0
C1846 C 0.849 0.00801 0.35298 0.0
C1847 C 0.83843 0.05955 0.36938 0.0
H1848 H 0.89716 0.0654 0.36717 0.0
C1849 C 0.87626 0.13815 0.37394 0.0
C1850 C 0.89082 0.14213 0.36037 0.0
C1851 C 0.8695 0.11831 0.37708 0.0
C1852 C 0.88074 0.06398 0.3678 0.0
H1853 H 0.8005 0.99458 0.38057 0.0
H1854 H 0.81798 0.02665 0.38627 0.0
H1855 H 0.88202 0.03141 0.36682 0.0
H1856 H 0.91038 0.12817 0.34005 0.0
H1857 H 0.89837 0.09367 0.34539 0.0
H1858 H 0.83706 0.09205 0.36986 0.0
C1859 C 0.82402 0.01646 0.37601 0.0
C1860 C 0.87208 0.04456 0.36758 0.0
C1861 C 0.81404 -0.00195 0.37276 0.0
C1862 C 0.89909 0.1257 0.35056 0.0
C1863 C 0.89232 0.10587 0.35371 0.0
C1864 C 0.84708 0.07894 0.36961 0.0
C1865 C 0.84141 0.02178 0.36594 0.0
C1866 C 0.85081 0.04217 0.36804 0.0
C1867 C 0.87716 0.10203 0.36675 0.0
C1868 C 0.8683 0.08138 0.3685 0.0
H1869 H 0.84507 0.97953 0.33937 0.0
H1870 H 0.86223 0.01178 0.34484 0.0
H1871 H 0.82198 0.05825 0.36946 0.0
H1872 H 0.8697 0.1504 0.38189 0.0
H1873 H 0.85801 0.11575 0.38741 0.0
C1874 C 0.87483 0.90388 0.35379 0.0
C1875 C 0.8585 0.89258 0.36092 0.0
C1876 C 0.89486 0.89748 0.3565 0.0
C1877 C 0.9275 0.86173 0.38273 0.0
H1878 H 0.95983 0.86206 0.3386 0.0
C1879 C -0.00256 0.80991 0.37046 0.0
C1880 C 0.01369 0.81793 0.36029 0.0
C1881 C 0.97979 0.82139 0.37325 0.0
C1882 C 0.95118 0.86217 0.35115 0.0
H1883 H 0.85049 0.86623 0.37728 0.0
H1884 H 0.8854 0.85484 0.38162 0.0
H1885 H 0.92663 0.87825 0.33872 0.0
H1886 H 0.02471 0.84483 0.34617 0.0
H1887 H 0.99406 0.8648 0.35119 0.0
H1888 H 0.95199 0.84499 0.39492 0.0
C1889 C 0.88275 0.8688 0.37415 0.0
C1890 C 0.93214 0.87149 0.35123 0.0
C1891 C 0.86271 0.87528 0.37155 0.0
C1892 C 0.01234 0.83803 0.3538 0.0
C1893 C 0.99478 0.84949 0.35665 0.0
C1894 C 0.9466 0.85232 0.38264 0.0
C1895 C 0.89901 0.87957 0.36629 0.0
C1896 C 0.91997 0.8712 0.36694 0.0
C1897 C 0.97811 0.84112 0.36598 0.0
C1898 C 0.95854 0.85229 0.36677 0.0
H1899 H 0.87216 0.91746 0.34577 0.0
H1900 H 0.9071 0.90632 0.35057 0.0
H1901 H 0.91855 0.86144 0.39511 0.0
H1902 H -0.00198 0.7945 0.37569 0.0
H1903 H 0.96713 0.81448 0.3804 0.0
C1904 C 0.83816 0.01057 0.84213 0.0
C1905 C 0.82068 0.01391 0.85278 0.0
C1906 C 0.84868 0.99216 0.84319 0.0
C1907 C 0.85554 0.94583 0.87104 0.0
H1908 H 0.86905 0.92098 0.82471 0.0
C1909 C 0.87361 0.86039 0.86275 0.0
C1910 C 0.88859 0.85469 0.85005 0.0
C1911 C 0.86762 0.8807 0.86438 0.0
C1912 C 0.86572 0.92784 0.83778 0.0
H1913 H 0.80102 0.00073 0.87341 0.0
H1914 H 0.81929 0.96849 0.87507 0.0
H1915 H 0.85451 0.95502 0.82536 0.0
H1916 H 0.90962 0.86609 0.82965 0.0
H1917 H 0.89927 0.90152 0.83264 0.0
H1918 H 0.86646 0.9184 0.88341 0.0
C1919 C 0.82493 0.98023 0.86602 0.0
C1920 C 0.85737 0.94735 0.83815 0.0
C1921 C 0.81439 -0.00134 0.86497 0.0
C1922 C 0.89789 0.86988 0.83944 0.0
C1923 C 0.89193 0.89019 0.8411 0.0
C1924 C 0.86393 0.92628 0.87066 0.0
C1925 C 0.84198 0.97667 0.85491 0.0
C1926 C 0.85201 0.95647 0.85476 0.0
C1927 C 0.87651 0.89577 0.85338 0.0
C1928 C 0.86891 0.91701 0.85401 0.0
H1929 H 0.84358 0.02205 0.83272 0.0
H1930 H 0.86197 0.98997 0.83468 0.0
H1931 H 0.85178 0.95259 0.88405 0.0
H1932 H 0.86612 0.84911 0.87116 0.0
H1933 H 0.85554 0.88448 0.87382 0.0
C1934 C 0.9828 0.83824 0.84134 0.0
C1935 C 0.98006 0.82001 0.85108 0.0
C1936 C 0.00085 0.84931 0.84297 0.0
C1937 C 0.0472 0.85545 0.87125 0.0
H1938 H 0.07117 0.87399 0.82598 0.0
C1939 C 0.13223 0.87572 0.86332 0.0
C1940 C 0.13742 0.89213 0.85194 0.0
C1941 C 0.11202 0.8693 0.86479 0.0
C1942 C 0.06454 0.86923 0.83878 0.0
H1943 H 0.99397 0.79951 0.87065 0.0
H1944 H 0.02556 0.81866 0.87325 0.0
H1945 H 0.03755 0.85846 0.82572 0.0
H1946 H 0.12523 0.91522 0.83379 0.0
H1947 H 0.09001 0.90404 0.83645 0.0
H1948 H 0.07453 0.86581 0.88421 0.0
C1949 C 0.01363 0.82452 0.86452 0.0
C1950 C 0.04526 0.86033 0.83864 0.0
C1951 C 0.99555 0.81347 0.86293 0.0
C1952 C 0.12183 0.90242 0.84256 0.0
C1953 C 0.10164 0.89597 0.84402 0.0
C1954 C 0.06654 0.86433 0.87139 0.0
C1955 C 0.0166 0.8424 0.85435 0.0
C1956 C 0.03646 0.85314 0.85483 0.0
C1957 C 0.09658 0.87915 0.85491 0.0
C1958 C 0.07549 0.87111 0.85512 0.0
H1959 H 0.97111 0.84386 0.83223 0.0
H1960 H 0.00255 0.86321 0.83519 0.0
H1961 H 0.0407 0.85031 0.88399 0.0
H1962 H 0.14381 0.86748 0.87079 0.0
H1963 H 0.10862 0.85616 0.87316 0.0
C1964 C 0.09963 0.12677 0.84627 0.0
C1965 C 0.10743 0.14304 0.85659 0.0
C1966 C 0.10603 0.10685 0.8496 0.0
C1967 C 0.14963 0.07894 0.86809 0.0
H1968 H 0.11388 0.03223 0.8632 0.0
C1969 C 0.18044 -0.00275 0.87321 0.0
C1970 C 0.17422 0.98415 0.85911 0.0
C1971 C 0.17054 0.01581 0.87602 0.0
C1972 C 0.12404 0.04514 0.86458 0.0
H1973 H 0.12742 0.15094 0.87906 0.0
H1974 H 0.13844 0.11615 0.88491 0.0
H1975 H 0.09955 0.06656 0.86256 0.0
H1976 H 0.1521 0.97994 0.83746 0.0
H1977 H 0.13506 0.01237 0.84225 0.0
H1978 H 0.17416 0.05764 0.86963 0.0
C1979 C 0.12762 0.11889 0.87406 0.0
C1980 C 0.11584 0.06477 0.8642 0.0
C1981 C 0.12124 0.13882 0.87072 0.0
C1982 C 0.15736 0.98967 0.84839 0.0
C1983 C 0.14747 0.00821 0.85122 0.0
C1984 C 0.1578 0.05934 0.86849 0.0
C1985 C 0.12034 0.10274 0.86334 0.0
C1986 C 0.12861 0.08188 0.86562 0.0
C1987 C 0.1542 0.02165 0.86483 0.0
C1988 C 0.14515 0.04225 0.8664 0.0
H1989 H 0.08894 0.12942 0.8353 0.0
H1990 H 0.10032 0.09477 0.84096 0.0
H1991 H 0.15991 0.09181 0.86894 0.0
H1992 H 0.19326 0.99342 0.88183 0.0
H1993 H 0.17589 0.02574 0.88677 0.0
C1994 C 0.86331 0.12047 0.86732 0.0
C1995 C 0.85775 0.10491 0.85513 0.0
C1996 C 0.88359 0.12667 0.86879 0.0
C1997 C 0.92917 0.13175 0.87453 0.0
H1998 H 0.95722 0.13902 0.82857 0.0
C1999 C 0.01242 0.15813 0.84379 0.0
C2000 C 0.0154 0.1763 0.85358 0.0
C2001 C 0.99436 0.14713 0.84559 0.0
C2002 C 0.94977 0.13677 0.84155 0.0
H2003 H 0.86939 0.08294 0.83564 0.0
H2004 H 0.90476 0.09363 0.83837 0.0
H2005 H 0.92359 0.1236 0.82895 0.0
H2006 H 0.00196 0.1967 0.8735 0.0
H2007 H 0.97032 0.1776 0.87645 0.0
H2008 H 0.95529 0.14542 0.88704 0.0
C2009 C 0.89335 0.1013 0.84652 0.0
C2010 C 0.93047 0.1279 0.84178 0.0
C2011 C 0.87307 0.09513 0.84502 0.0
C2012 C 0.00017 0.1828 0.86571 0.0
C2013 C 0.98207 0.17179 0.8675 0.0
C2014 C 0.94851 0.14065 0.8743 0.0
C2015 C 0.89876 0.11742 0.85814 0.0
C2016 C 0.91987 0.12547 0.85823 0.0
C2017 C 0.97884 0.15403 0.85722 0.0
C2018 C 0.95892 0.14342 0.85778 0.0
H2019 H 0.85193 0.12833 0.87535 0.0
H2020 H 0.88723 0.13926 0.87773 0.0
H2021 H 0.92148 0.12985 0.88744 0.0
H2022 H 0.0239 0.15253 0.83446 0.0
H2023 H 0.99244 0.13332 0.83772 0.0
C2024 C 0.83788 0.98021 0.64996 0.0
C2025 C 0.82075 0.97745 0.63871 0.0
C2026 C 0.84964 -0.00215 0.64866 0.0
C2027 C 0.86089 0.04199 0.61905 0.0
H2028 H 0.87425 0.06874 0.66456 0.0
C2029 C 0.88169 0.12697 0.62413 0.0
C2030 C 0.89616 0.1331 0.63713 0.0
C2031 C 0.87544 0.10669 0.62308 0.0
C2032 C 0.871 0.0613 0.65172 0.0
H2033 H 0.80297 0.99092 0.6169 0.0
H2034 H 0.82339 0.02178 0.61481 0.0
H2035 H 0.85777 0.03556 0.66501 0.0
H2036 H 0.91615 0.12241 0.65866 0.0
H2037 H 0.90532 0.08698 0.65669 0.0
H2038 H 0.87375 0.06801 0.60578 0.0
C2039 C 0.82781 0.01017 0.62451 0.0
C2040 C 0.86153 0.04229 0.65199 0.0
C2041 C 0.81602 0.99253 0.62581 0.0
C2042 C 0.90485 0.11828 0.64857 0.0
C2043 C 0.89859 0.09798 0.64752 0.0
C2044 C 0.87039 0.06103 0.61878 0.0
C2045 C 0.84459 0.01314 0.63608 0.0
C2046 C 0.8561 0.03256 0.63566 0.0
C2047 C 0.88354 0.09205 0.63499 0.0
C2048 C 0.87527 0.07102 0.63513 0.0
H2049 H 0.84209 0.96886 0.65997 0.0
H2050 H 0.86265 -0.00041 0.6576 0.0
H2051 H 0.85716 0.03472 0.60625 0.0
H2052 H 0.8747 0.13792 0.61505 0.0
H2053 H 0.86366 0.10266 0.61341 0.0
C2054 C 0.86811 0.89163 0.64617 0.0
C2055 C 0.85213 0.88419 0.6353 0.0
C2056 C 0.88802 0.88471 0.64354 0.0
C2057 C 0.91589 0.84063 0.62587 0.0
H2058 H 0.9629 0.87611 0.62986 0.0
C2059 C -0.00265 0.80946 0.61885 0.0
C2060 C 0.01117 0.81601 0.63225 0.0
C2061 C 0.9786 0.81922 0.61673 0.0
C2062 C 0.94991 0.86601 0.62879 0.0
H2063 H 0.84473 0.86416 0.6127 0.0
H2064 H 0.87942 0.85225 0.60813 0.0
H2065 H 0.92868 0.89066 0.63093 0.0
H2066 H 0.01636 0.83849 0.65345 0.0
H2067 H 0.98363 0.85522 0.6499 0.0
H2068 H 0.93699 0.81593 0.62419 0.0
C2069 C 0.87649 0.8632 0.61884 0.0
C2070 C 0.93035 0.87434 0.62941 0.0
C2071 C 0.85661 0.87011 0.62144 0.0
C2072 C 0.00609 0.83298 0.64302 0.0
C2073 C 0.98736 0.8427 0.6409 0.0
C2074 C 0.93542 0.83231 0.62529 0.0
C2075 C 0.89235 0.87022 0.63001 0.0
C2076 C 0.91314 0.8617 0.62816 0.0
C2077 C 0.97327 0.83573 0.62794 0.0
C2078 C 0.95265 0.84487 0.62697 0.0
H2079 H 0.86523 0.9025 0.65695 0.0
H2080 H 0.8999 0.89025 0.65249 0.0
H2081 H 0.90293 0.83046 0.62516 0.0
H2082 H 0.00081 0.79654 0.61022 0.0
H2083 H 0.96816 0.81369 0.60643 0.0
C2084 C 0.09544 0.86998 0.64133 0.0
C2085 C 0.10286 0.85387 0.6306 0.0
C2086 C 0.1026 0.88979 0.63872 0.0
C2087 C 0.14812 0.91589 0.62216 0.0
H2088 H 0.11558 0.96463 0.62875 0.0
C2089 C 0.18426 0.99542 0.61957 0.0
C2090 C 0.17864 0.00878 0.63366 0.0
C2091 C 0.17334 0.97752 0.61653 0.0
C2092 C 0.12485 0.95113 0.62694 0.0
H2093 H 0.12257 0.84622 0.60787 0.0
H2094 H 0.13484 0.8808 0.60324 0.0
H2095 H 0.09891 0.93135 0.62773 0.0
H2096 H 0.15667 0.01403 0.65525 0.0
H2097 H 0.13785 0.98262 0.65011 0.0
H2098 H 0.17408 0.93548 0.62184 0.0
C2099 C 0.12383 0.87801 0.61392 0.0
C2100 C 0.11532 0.93212 0.62634 0.0
C2101 C 0.11673 0.85821 0.61656 0.0
C2102 C 0.16147 0.00408 0.6443 0.0
C2103 C 0.15057 0.98614 0.64128 0.0
C2104 C 0.15762 0.93486 0.62276 0.0
C2105 C 0.11726 0.89391 0.62529 0.0
C2106 C 0.1269 0.91428 0.62419 0.0
C2107 C 0.15656 0.97254 0.62752 0.0
C2108 C 0.14614 0.95266 0.6254 0.0
H2109 H 0.0847 0.86721 0.65223 0.0
H2110 H 0.09736 0.90168 0.6478 0.0
H2111 H 0.15753 0.90242 0.62083 0.0
H2112 H 0.19727 -0.00135 0.61097 0.0
H2113 H 0.17814 0.96747 0.60565 0.0
C2114 C 0.12776 0.0932 0.64288 0.0
C2115 C 0.14383 0.10078 0.63219 0.0
C2116 C 0.10792 0.10031 0.64038 0.0
C2117 C 0.08092 0.14547 0.62399 0.0
H2118 H 0.03301 0.11146 0.62933 0.0
C2119 C 0.00012 0.179 0.62002 0.0
C2120 C 0.98659 0.1727 0.63375 0.0
C2121 C 0.01856 0.16884 0.61735 0.0
C2122 C 0.04626 0.12114 0.62789 0.0
H2123 H 0.15136 0.12101 0.6098 0.0
H2124 H 0.11671 0.13325 0.60539 0.0
H2125 H 0.06675 0.09578 0.62879 0.0
H2126 H 0.98166 0.15035 0.65508 0.0
H2127 H 0.01392 0.13287 0.65056 0.0
H2128 H 0.06058 0.17086 0.62353 0.0
C2129 C 0.11957 0.12207 0.61592 0.0
C2130 C 0.06555 0.11217 0.62756 0.0
C2131 C 0.13942 0.11498 0.61842 0.0
C2132 C 0.99171 0.15566 0.6444 0.0
C2133 C 0.01015 0.14552 0.64173 0.0
C2134 C 0.06167 0.15442 0.62432 0.0
C2135 C 0.10369 0.11512 0.62712 0.0
C2136 C 0.0831 0.12428 0.62586 0.0
C2137 C 0.02389 0.15216 0.62833 0.0
C2138 C 0.04414 0.14239 0.62652 0.0
H2139 H 0.13057 0.08222 0.65358 0.0
H2140 H 0.09605 0.09479 0.64934 0.0
H2141 H 0.09416 0.15525 0.62297 0.0
H2142 H 0.99662 0.19195 0.61146 0.0
H2143 H 0.02872 0.17414 0.60676 0.0
C2144 C 0.68428 0.49599 0.61682 0.0
C2145 C 0.6765 0.48192 0.62946 0.0
C2146 C 0.67447 0.5146 0.61393 0.0
C2147 C 0.62602 0.54239 0.62207 0.0
H2148 H 0.66093 0.59003 0.62203 0.0
C2149 C 0.5979 0.62291 0.64053 0.0
C2150 C 0.60604 0.6396 0.63101 0.0
C2151 C 0.60513 0.60323 0.63732 0.0
C2152 C 0.65096 0.57689 0.62169 0.0
H2153 H 0.65183 0.47617 0.64847 0.0
H2154 H 0.63501 0.50864 0.64363 0.0
H2155 H 0.67611 0.55624 0.62164 0.0
H2156 H 0.62762 0.6485 0.61006 0.0
H2157 H 0.64014 0.61415 0.60448 0.0
H2158 H 0.60087 0.56316 0.6227 0.0
C2159 C 0.64855 0.50521 0.63578 0.0
C2160 C 0.65966 0.5575 0.62145 0.0
C2161 C 0.65831 0.48662 0.63866 0.0
C2162 C 0.62109 0.63605 0.61775 0.0
C2163 C 0.62834 0.61637 0.61458 0.0
C2164 C 0.61731 0.5618 0.62236 0.0
C2165 C 0.65668 0.51955 0.6236 0.0
C2166 C 0.64731 0.54003 0.62195 0.0
C2167 C 0.62067 0.59981 0.62454 0.0
C2168 C 0.6297 0.57924 0.62248 0.0
H2169 H 0.69816 0.49282 0.60939 0.0
H2170 H 0.68095 0.52521 0.60425 0.0
H2171 H 0.61608 0.52923 0.62217 0.0
H2172 H 0.58626 0.62504 0.65079 0.0
H2173 H 0.59906 0.5908 0.64534 0.0
C2174 C 0.362 0.61317 0.61901 0.0
C2175 C 0.35769 0.59541 0.62899 0.0
C2176 C 0.38203 0.62005 0.6172 0.0
C2177 C 0.43035 0.61786 0.64178 0.0
H2178 H 0.45199 0.64474 0.59899 0.0
C2179 C 0.51068 0.6524 0.6417 0.0
C2180 C 0.51249 0.67203 0.63422 0.0
C2181 C 0.493 0.64098 0.63903 0.0
C2182 C 0.4461 0.63736 0.61107 0.0
H2183 H 0.37127 0.57021 0.64381 0.0
H2184 H 0.40615 0.58216 0.6405 0.0
H2185 H 0.4188 0.62795 0.59746 0.0
H2186 H 0.4973 0.69478 0.61762 0.0
H2187 H 0.46633 0.67498 0.61328 0.0
H2188 H 0.45725 0.62766 0.65557 0.0
C2189 C 0.39398 0.59096 0.6344 0.0
C2190 C 0.42713 0.62773 0.61018 0.0
C2191 C 0.37398 0.58408 0.63622 0.0
C2192 C 0.49642 0.67973 0.6236 0.0
C2193 C 0.47871 0.66832 0.62099 0.0
C2194 C 0.44924 0.62749 0.64268 0.0
C2195 C 0.39817 0.6093 0.6253 0.0
C2196 C 0.41898 0.61806 0.62559 0.0
C2197 C 0.4767 0.64893 0.62888 0.0
C2198 C 0.45725 0.63754 0.6274 0.0
H2199 H 0.34986 0.62224 0.6132 0.0
H2200 H 0.38475 0.63431 0.61022 0.0
H2201 H 0.42432 0.61089 0.654 0.0
H2202 H 0.52283 0.64588 0.64978 0.0
H2203 H 0.49205 0.62595 0.64504 0.0
C2204 C 0.33596 0.49902 0.63266 0.0
C2205 C 0.31678 0.50379 0.62528 0.0
C2206 C 0.34539 0.48057 0.62856 0.0
C2207 C 0.3327 0.42853 0.61562 0.0
H2208 H 0.39135 0.42305 0.61146 0.0
C2209 C 0.3712 0.34992 0.61409 0.0
C2210 C 0.38747 0.34778 0.6264 0.0
C2211 C 0.36361 0.36918 0.60978 0.0
C2212 C 0.37495 0.42436 0.61258 0.0
H2213 H 0.29289 0.4932 0.60715 0.0
H2214 H 0.30947 0.46092 0.59999 0.0
H2215 H 0.37594 0.45689 0.6111 0.0
H2216 H 0.40909 0.36434 0.64319 0.0
H2217 H 0.39568 0.39783 0.63583 0.0
H2218 H 0.33173 0.39609 0.61774 0.0
C2219 C 0.31704 0.47144 0.60911 0.0
C2220 C 0.36614 0.4437 0.61238 0.0
C2221 C 0.30759 0.48996 0.61318 0.0
C2222 C 0.39649 0.36539 0.63373 0.0
C2223 C 0.38891 0.38463 0.62939 0.0
C2224 C 0.34151 0.40919 0.61581 0.0
C2225 C 0.3359 0.46644 0.61698 0.0
C2226 C 0.34498 0.446 0.6144 0.0
C2227 C 0.37217 0.3867 0.61763 0.0
C2228 C 0.36276 0.40695 0.61479 0.0
H2229 H 0.34355 0.50933 0.64195 0.0
H2230 H 0.35978 0.47705 0.63504 0.0
H2231 H 0.31638 0.4298 0.61743 0.0
H2232 H 0.36398 0.3367 0.60807 0.0
H2233 H 0.35083 0.37035 0.60052 0.0
C2234 C 0.62232 0.40089 0.63699 0.0
C2235 C 0.63865 0.38975 0.62965 0.0
C2236 C 0.60228 0.3945 0.63423 0.0
C2237 C 0.5698 0.35934 0.60712 0.0
H2238 H 0.53632 0.3599 0.65055 0.0
C2239 C 0.49844 0.30882 0.61776 0.0
C2240 C 0.48204 0.31729 0.62746 0.0
C2241 C 0.51644 0.31989 0.61537 0.0
C2242 C 0.54531 0.35993 0.6382 0.0
H2243 H 0.64663 0.3636 0.61301 0.0
H2244 H 0.61175 0.35224 0.60859 0.0
H2245 H 0.56981 0.3755 0.65125 0.0
H2246 H 0.47119 0.34457 0.64112 0.0
H2247 H 0.50245 0.36378 0.63684 0.0
H2248 H 0.54535 0.34309 0.59431 0.0
C2249 C 0.6144 0.36609 0.61624 0.0
C2250 C 0.56453 0.36892 0.63859 0.0
C2251 C 0.63443 0.37254 0.61889 0.0
C2252 C 0.48363 0.33743 0.63383 0.0
C2253 C 0.50155 0.34846 0.63142 0.0
C2254 C 0.55054 0.35024 0.60676 0.0
C2255 C 0.59812 0.37676 0.62418 0.0
C2256 C 0.57708 0.36858 0.62312 0.0
C2257 C 0.51833 0.33962 0.62261 0.0
C2258 C 0.53819 0.35032 0.62236 0.0
H2259 H 0.62501 0.41437 0.64515 0.0
H2260 H 0.59005 0.40329 0.64024 0.0
H2261 H 0.57902 0.35904 0.59491 0.0
H2262 H 0.4977 0.29337 0.61263 0.0
H2263 H 0.52918 0.31265 0.6086 0.0
C2264 C 0.61671 0.36351 0.86896 0.0
C2265 C 0.60058 0.35822 0.85729 0.0
C2266 C 0.6228 0.38378 0.87074 0.0
C2267 C 0.62203 0.43155 0.84495 0.0
H2268 H 0.64313 0.45467 0.88971 0.0
C2269 C 0.65329 0.51308 0.84742 0.0
C2270 C 0.67239 0.51534 0.85587 0.0
C2271 C 0.64214 0.49515 0.84949 0.0
C2272 C 0.63732 0.44837 0.87711 0.0
H2273 H 0.5774 0.3703 0.83919 0.0
H2274 H 0.58784 0.40567 0.84252 0.0
H2275 H 0.62732 0.42097 0.89013 0.0
H2276 H 0.69432 0.50075 0.87374 0.0
H2277 H 0.6749 0.46937 0.87717 0.0
H2278 H 0.63232 0.4587 0.83185 0.0
C2279 C 0.59608 0.39407 0.84997 0.0
C2280 C 0.62829 0.4291 0.87734 0.0
C2281 C 0.59005 0.37379 0.84812 0.0
C2282 C 0.67971 0.49952 0.86698 0.0
C2283 C 0.66852 0.48157 0.86906 0.0
C2284 C 0.63098 0.4508 0.84473 0.0
C2285 C 0.61282 0.39923 0.86097 0.0
C2286 C 0.62078 0.42037 0.86121 0.0
C2287 C 0.6498 0.47907 0.86007 0.0
C2288 C 0.63895 0.45931 0.86075 0.0
H2289 H 0.62516 0.35193 0.87625 0.0
H2290 H 0.63588 0.38721 0.87918 0.0
H2291 H 0.61677 0.42514 0.83221 0.0
H2292 H 0.64706 0.52501 0.8389 0.0
H2293 H 0.62761 0.49376 0.84261 0.0
C2294 C 0.49779 0.68565 0.88008 0.0
C2295 C 0.48416 0.67821 0.8669 0.0
C2296 C 0.5162 0.67562 0.88337 0.0
C2297 C 0.54442 0.62749 0.87446 0.0
H2298 H 0.59169 0.66289 0.87416 0.0
C2299 C 0.62411 0.60131 0.85187 0.0
C2300 C 0.64118 0.60907 0.86111 0.0
C2301 C 0.60456 0.60815 0.85616 0.0
C2302 C 0.57867 0.65277 0.87461 0.0
H2303 H 0.47875 0.65376 0.84756 0.0
H2304 H 0.51085 0.63661 0.85307 0.0
H2305 H 0.5578 0.67769 0.87588 0.0
H2306 H 0.65095 0.62958 0.88262 0.0
H2307 H 0.61683 0.64147 0.89004 0.0
H2308 H 0.5654 0.60261 0.87246 0.0
C2309 C 0.50728 0.65004 0.86102 0.0
C2310 C 0.55922 0.66126 0.87564 0.0
C2311 C 0.48892 0.66002 0.85774 0.0
C2312 C 0.63818 0.62338 0.87511 0.0
C2313 C 0.61864 0.63025 0.87936 0.0
C2314 C 0.56389 0.619 0.87337 0.0
C2315 C 0.52133 0.65795 0.87358 0.0
C2316 C 0.54187 0.64874 0.87515 0.0
C2317 C 0.60167 0.62292 0.86976 0.0
C2318 C 0.58118 0.6316 0.87303 0.0
H2319 H 0.49454 0.69953 0.8875 0.0
H2320 H 0.52662 0.68193 0.89332 0.0
H2321 H 0.53135 0.61743 0.87436 0.0
H2322 H 0.62584 0.59022 0.84106 0.0
H2323 H 0.59178 0.6024 0.84839 0.0
C2324 C 0.40352 0.62584 0.85363 0.0
C2325 C 0.39181 0.64237 0.85983 0.0
C2326 C 0.39697 0.60588 0.85652 0.0
C2327 C 0.36029 0.57432 0.88277 0.0
H2328 H 0.36378 0.5389 0.84068 0.0
C2329 C 0.31053 0.50253 0.87201 0.0
C2330 C 0.31941 0.48585 0.86302 0.0
C2331 C 0.32157 0.52053 0.87452 0.0
C2332 C 0.363 0.54844 0.85269 0.0
H2333 H 0.36434 0.65079 0.87448 0.0
H2334 H 0.35276 0.61605 0.87915 0.0
H2335 H 0.37926 0.57244 0.83958 0.0
H2336 H 0.34736 0.47444 0.85092 0.0
H2337 H 0.36655 0.50567 0.85545 0.0
H2338 H 0.34339 0.55037 0.89561 0.0
C2339 C 0.36716 0.61849 0.8723 0.0
C2340 C 0.3719 0.56769 0.85206 0.0
C2341 C 0.37374 0.63845 0.86948 0.0
C2342 C 0.33992 0.48711 0.85762 0.0
C2343 C 0.35093 0.50502 0.86017 0.0
C2344 C 0.3513 0.55503 0.88337 0.0
C2345 C 0.37853 0.60199 0.8656 0.0
C2346 C 0.37047 0.58095 0.86701 0.0
C2347 C 0.34169 0.52212 0.86813 0.0
C2348 C 0.35241 0.54198 0.86826 0.0
H2349 H 0.41763 0.62829 0.84632 0.0
H2350 H 0.40624 0.59347 0.85145 0.0
H2351 H 0.35914 0.5841 0.89459 0.0
H2352 H 0.29478 0.50204 0.87637 0.0
H2353 H 0.31401 0.5335 0.88062 0.0
C2354 C 0.36819 0.40171 0.84464 0.0
C2355 C 0.35188 0.39205 0.85354 0.0
C2356 C 0.38794 0.39409 0.8462 0.0
C2357 C 0.42084 0.35978 0.87317 0.0
H2358 H 0.45129 0.35591 0.8281 0.0
C2359 C 0.49363 0.31084 0.86474 0.0
C2360 C 0.50937 0.31888 0.85393 0.0
C2361 C 0.47497 0.32096 0.86613 0.0
C2362 C 0.44312 0.35714 0.84086 0.0
H2363 H 0.34374 0.36716 0.87159 0.0
H2364 H 0.37822 0.35375 0.87409 0.0
H2365 H 0.41776 0.37161 0.82806 0.0
H2366 H 0.51807 0.34434 0.83673 0.0
H2367 H 0.48567 0.36197 0.83931 0.0
H2368 H 0.44623 0.345 0.88589 0.0
C2369 C 0.37571 0.36734 0.86605 0.0
C2370 C 0.42391 0.36615 0.84084 0.0
C2371 C 0.35592 0.37498 0.86452 0.0
C2372 C 0.50624 0.33756 0.84502 0.0
C2373 C 0.48762 0.34766 0.84643 0.0
C2374 C 0.44012 0.35073 0.87319 0.0
C2375 C 0.39186 0.37662 0.85665 0.0
C2376 C 0.41254 0.36756 0.85698 0.0
C2377 C 0.47168 0.33932 0.85675 0.0
C2378 C 0.45144 0.3493 0.85702 0.0
H2379 H 0.3657 0.41501 0.83622 0.0
H2380 H 0.40014 0.40179 0.83905 0.0
H2381 H 0.41251 0.36082 0.88585 0.0
H2382 H 0.49553 0.2965 0.87181 0.0
H2383 H 0.46291 0.31408 0.87408 0.0
C2384 C 0.31418 0.49746 0.36795 0.0
C2385 C 0.32142 0.51335 0.35688 0.0
C2386 C 0.32554 0.47963 0.37009 0.0
C2387 C 0.36405 0.44959 0.34595 0.0
H2388 H 0.36605 0.41846 0.39074 0.0
C2389 C 0.40559 0.37288 0.34917 0.0
C2390 C 0.39457 0.3569 0.35726 0.0
C2391 C 0.39931 0.39304 0.35132 0.0
C2392 C 0.36557 0.42698 0.37813 0.0
H2393 H 0.34683 0.52338 0.34022 0.0
H2394 H 0.36666 0.49241 0.34414 0.0
H2395 H 0.35016 0.45214 0.3906 0.0
H2396 H 0.36884 0.34977 0.37469 0.0
H2397 H 0.35776 0.3849 0.37819 0.0
H2398 H 0.37896 0.42436 0.33334 0.0
C2399 C 0.35201 0.49357 0.35085 0.0
C2400 C 0.35647 0.44623 0.37805 0.0
C2401 C 0.34065 0.51135 0.34865 0.0
C2402 C 0.37765 0.36166 0.3682 0.0
C2403 C 0.37136 0.38183 0.37032 0.0
C2404 C 0.37313 0.4304 0.34603 0.0
C2405 C 0.3444 0.47734 0.36127 0.0
C2406 C 0.3554 0.45763 0.36189 0.0
C2407 C 0.38187 0.3977 0.36158 0.0
C2408 C 0.37377 0.41877 0.36206 0.0
H2409 H 0.29945 0.4985 0.37452 0.0
H2410 H 0.31916 0.46733 0.37808 0.0
H2411 H 0.36315 0.4578 0.33319 0.0
H2412 H 0.41883 0.36982 0.34081 0.0
H2413 H 0.40791 0.40498 0.34466 0.0
C2414 C 0.63931 0.37501 0.37177 0.0
C2415 C 0.6423 0.39049 0.35881 0.0
C2416 C 0.6198 0.36759 0.37536 0.0
C2417 C 0.56485 0.3784 0.36904 0.0
H2418 H 0.55989 0.31954 0.36897 0.0
C2419 C 0.49042 0.33666 0.35193 0.0
C2420 C 0.48579 0.31841 0.36104 0.0
C2421 C 0.50883 0.34665 0.35509 0.0
C2422 C 0.56101 0.336 0.36939 0.0
H2423 H 0.62692 0.41083 0.33999 0.0
H2424 H 0.59297 0.39767 0.3461 0.0
H2425 H 0.59352 0.33507 0.36831 0.0
H2426 H 0.49661 0.29682 0.38122 0.0
H2427 H 0.52877 0.31437 0.38676 0.0
H2428 H 0.53226 0.37926 0.36959 0.0
C2429 C 0.60571 0.39143 0.35362 0.0
C2430 C 0.58029 0.34491 0.369 0.0
C2431 C 0.62522 0.39887 0.35002 0.0
C2432 C 0.49973 0.31077 0.37387 0.0
C2433 C 0.51819 0.32077 0.37701 0.0
C2434 C 0.54554 0.36948 0.36943 0.0
C2435 C 0.60284 0.37547 0.36609 0.0
C2436 C 0.58242 0.3662 0.36847 0.0
C2437 C 0.52306 0.33864 0.36743 0.0
C2438 C 0.54342 0.34818 0.36924 0.0
H2439 H 0.65208 0.36832 0.37894 0.0
H2440 H 0.61803 0.35549 0.38524 0.0
H2441 H 0.56602 0.39486 0.36893 0.0
H2442 H 0.48003 0.34306 0.34201 0.0
H2443 H 0.51222 0.36025 0.34733 0.0
C2444 C 0.59539 0.6237 0.34995 0.0
C2445 C 0.60313 0.64022 0.35997 0.0
C2446 C 0.60227 0.60393 0.35335 0.0
C2447 C 0.64729 0.57765 0.37073 0.0
H2448 H 0.61313 0.5296 0.36771 0.0
C2449 C 0.68192 0.49749 0.37458 0.0
C2450 C 0.67522 0.48398 0.36099 0.0
C2451 C 0.67137 0.51558 0.37793 0.0
C2452 C 0.62285 0.54289 0.36856 0.0
H2453 H 0.62335 0.6487 0.38213 0.0
H2454 H 0.6352 0.61426 0.38804 0.0
H2455 H 0.59751 0.56338 0.36709 0.0
H2456 H 0.65159 0.4785 0.34087 0.0
H2457 H 0.63353 0.51011 0.34649 0.0
H2458 H 0.67267 0.55734 0.37155 0.0
C2459 C 0.62408 0.61666 0.37736 0.0
C2460 C 0.61392 0.5622 0.3682 0.0
C2461 C 0.61724 0.6364 0.37397 0.0
C2462 C 0.65726 0.48857 0.35139 0.0
C2463 C 0.64677 0.50665 0.35472 0.0
C2464 C 0.65622 0.55839 0.37104 0.0
C2465 C 0.61701 0.60028 0.36683 0.0
C2466 C 0.62609 0.57977 0.36898 0.0
C2467 C 0.65392 0.52055 0.36777 0.0
C2468 C 0.64414 0.5408 0.36963 0.0
H2469 H 0.58447 0.62608 0.33911 0.0
H2470 H 0.59666 0.59162 0.3449 0.0
H2471 H 0.65711 0.5909 0.37107 0.0
H2472 H 0.69558 0.49435 0.38235 0.0
H2473 H 0.67709 0.52586 0.38827 0.0
C2474 C 0.35645 0.62243 0.37017 0.0
C2475 C 0.35274 0.60716 0.35715 0.0
C2476 C 0.37618 0.62969 0.37307 0.0
C2477 C 0.43067 0.61838 0.36454 0.0
H2478 H 0.43639 0.67715 0.36568 0.0
C2479 C 0.50572 0.65986 0.34801 0.0
C2480 C 0.51058 0.67755 0.3579 0.0
C2481 C 0.48711 0.65003 0.35067 0.0
C2482 C 0.43507 0.6607 0.36571 0.0
H2483 H 0.36706 0.58706 0.33746 0.0
H2484 H 0.40132 0.59993 0.34236 0.0
H2485 H 0.40255 0.66207 0.36559 0.0
H2486 H 0.49994 0.69825 0.37891 0.0
H2487 H 0.46755 0.68099 0.38358 0.0
H2488 H 0.46326 0.6171 0.36418 0.0
C2489 C 0.38902 0.60613 0.35046 0.0
C2490 C 0.41566 0.65205 0.36567 0.0
C2491 C 0.36932 0.59886 0.34756 0.0
C2492 C 0.49666 0.68477 0.37093 0.0
C2493 C 0.47805 0.67494 0.37358 0.0
C2494 C 0.4501 0.62704 0.36456 0.0
C2495 C 0.39262 0.62184 0.36304 0.0
C2496 C 0.41324 0.63081 0.36481 0.0
C2497 C 0.47295 0.65765 0.36329 0.0
C2498 C 0.45248 0.6483 0.36487 0.0
H2499 H 0.34409 0.62906 0.37792 0.0
H2500 H 0.37853 0.64161 0.38304 0.0
H2501 H 0.42928 0.60195 0.36414 0.0
H2502 H 0.51608 0.65384 0.33788 0.0
H2503 H 0.48353 0.63687 0.34239 0.0
C2504 C 0.33551 0.48155 0.13457 0.0
C2505 C 0.31603 0.47932 0.12687 0.0
C2506 C 0.34601 0.49991 0.13302 0.0
C2507 C 0.34722 0.54975 0.10943 0.0
H2508 H 0.36834 0.5687 0.15572 0.0
C2509 C 0.36509 0.63416 0.12465 0.0
C2510 C 0.38206 0.63857 0.13565 0.0
C2511 C 0.35915 0.61403 0.12161 0.0
C2512 C 0.36287 0.56353 0.1426 0.0
H2513 H 0.29288 0.49422 0.11053 0.0
H2514 H 0.31114 0.52642 0.10808 0.0
H2515 H 0.35465 0.53447 0.1533 0.0
H2516 H 0.40657 0.62516 0.15148 0.0
H2517 H 0.3963 0.59011 0.14602 0.0
H2518 H 0.35512 0.57911 0.09888 0.0
C2519 C 0.31833 0.51389 0.11518 0.0
C2520 C 0.35503 0.54389 0.1412 0.0
C2521 C 0.30783 0.49546 0.11666 0.0
C2522 C 0.39328 0.62236 0.14312 0.0
C2523 C 0.38738 0.60225 0.14003 0.0
C2524 C 0.35512 0.56946 0.11082 0.0
C2525 C 0.33726 0.51648 0.12382 0.0
C2526 C 0.34695 0.53683 0.12466 0.0
C2527 C 0.37009 0.59787 0.12946 0.0
C2528 C 0.36285 0.57661 0.12748 0.0
H2529 H 0.34243 0.46931 0.14228 0.0
H2530 H 0.36078 0.50133 0.13949 0.0
H2531 H 0.34125 0.54464 0.09647 0.0
H2532 H 0.35612 0.64627 0.11865 0.0
H2533 H 0.34563 0.61116 0.11357 0.0
C2534 C 0.35162 0.36959 0.11739 0.0
C2535 C 0.34804 0.38516 0.13015 0.0
C2536 C 0.37127 0.36208 0.11463 0.0
C2537 C 0.42584 0.37295 0.12305 0.0
H2538 H 0.4309 0.3141 0.12296 0.0
C2539 C 0.50022 0.33117 0.14088 0.0
C2540 C 0.50511 0.31328 0.1313 0.0
C2541 C 0.4817 0.34103 0.13789 0.0
C2542 C 0.42976 0.33055 0.12263 0.0
H2543 H 0.36252 0.40553 0.14953 0.0
H2544 H 0.39667 0.39221 0.14488 0.0
H2545 H 0.39723 0.32957 0.1227 0.0
H2546 H 0.49459 0.29216 0.11058 0.0
H2547 H 0.46229 0.30948 0.10536 0.0
H2548 H 0.45844 0.37386 0.12349 0.0
C2549 C 0.38432 0.38597 0.13687 0.0
C2550 C 0.41046 0.33942 0.12247 0.0
C2551 C 0.36468 0.39351 0.13962 0.0
C2552 C 0.49128 0.30582 0.11829 0.0
C2553 C 0.47273 0.31569 0.11533 0.0
C2554 C 0.44517 0.36406 0.12323 0.0
C2555 C 0.38777 0.36996 0.12456 0.0
C2556 C 0.40828 0.36071 0.12298 0.0
C2557 C 0.46765 0.33325 0.12527 0.0
C2558 C 0.44731 0.34277 0.12332 0.0
H2559 H 0.33921 0.36292 0.10973 0.0
H2560 H 0.37351 0.34993 0.10486 0.0
H2561 H 0.42465 0.3894 0.12317 0.0
H2562 H 0.51051 0.33739 0.15097 0.0
H2563 H 0.47812 0.3544 0.14592 0.0
C2564 C 0.67765 0.49445 0.12354 0.0
C2565 C 0.67075 0.50987 0.13531 0.0
C2566 C 0.6669 0.47615 0.12194 0.0
C2567 C 0.63102 0.44411 0.14751 0.0
H2568 H 0.62484 0.41558 0.10164 0.0
C2569 C 0.58715 0.36867 0.14333 0.0
C2570 C 0.59694 0.35292 0.13375 0.0
C2571 C 0.59398 0.38874 0.14183 0.0
C2572 C 0.62653 0.42334 0.11455 0.0
H2573 H 0.64664 0.51838 0.15408 0.0
H2574 H 0.6279 0.48664 0.15113 0.0
H2575 H 0.64115 0.44903 0.10222 0.0
H2576 H 0.62098 0.34617 0.11436 0.0
H2577 H 0.63297 0.3811 0.11195 0.0
H2578 H 0.61677 0.41838 0.15992 0.0
C2579 C 0.64182 0.48854 0.1434 0.0
C2580 C 0.63589 0.44247 0.11489 0.0
C2581 C 0.65256 0.50677 0.14504 0.0
C2582 C 0.61311 0.35788 0.122 0.0
C2583 C 0.61993 0.37795 0.12052 0.0
C2584 C 0.62167 0.42504 0.14717 0.0
C2585 C 0.64901 0.47291 0.13204 0.0
C2586 C 0.63835 0.45299 0.1314 0.0
C2587 C 0.61073 0.39352 0.13073 0.0
C2588 C 0.61945 0.41437 0.13072 0.0
H2589 H 0.69158 0.49631 0.11583 0.0
H2590 H 0.67294 0.46432 0.1132 0.0
H2591 H 0.633 0.45164 0.1605 0.0
H2592 H 0.57453 0.36547 0.15238 0.0
H2593 H 0.58635 0.40048 0.14963 0.0
C2594 C 0.47704 0.65186 0.14443 0.0
C2595 C 0.47433 0.6698 0.13427 0.0
C2596 C 0.49483 0.64042 0.14269 0.0
C2597 C 0.54055 0.63238 0.11414 0.0
H2598 H 0.56558 0.61758 0.16007 0.0
C2599 C 0.62596 0.61446 0.12193 0.0
C2600 C 0.63196 0.59965 0.13467 0.0
C2601 C 0.60553 0.61995 0.12022 0.0
C2602 C 0.55865 0.62122 0.1471 0.0
H2603 H 0.48785 0.68926 0.11368 0.0
H2604 H 0.51905 0.6694 0.11085 0.0
H2605 H 0.53184 0.63275 0.1599 0.0
H2606 H 0.62097 0.57824 0.15493 0.0
H2607 H 0.58528 0.58774 0.15179 0.0
H2608 H 0.56768 0.62123 0.1014 0.0
C2609 C 0.50729 0.66411 0.12004 0.0
C2610 C 0.5393 0.62994 0.147 0.0
C2611 C 0.48946 0.67556 0.12175 0.0
C2612 C 0.61693 0.58987 0.14513 0.0
C2613 C 0.59648 0.59535 0.14337 0.0
C2614 C 0.55994 0.62361 0.11424 0.0
C2615 C 0.51033 0.64666 0.13078 0.0
C2616 C 0.53015 0.63587 0.13055 0.0
C2617 C 0.59061 0.61073 0.13116 0.0
C2618 C 0.56931 0.6182 0.13075 0.0
H2619 H 0.4656 0.6468 0.15403 0.0
H2620 H 0.49659 0.62685 0.15091 0.0
H2621 H 0.53376 0.63658 0.10125 0.0
H2622 H 0.6371 0.62228 0.11361 0.0
H2623 H 0.60154 0.63202 0.11083 0.0
C2624 C 0.02661 0.25704 0.18094 0.0
C2625 C 0.03757 0.23889 0.18379 0.0
C2626 C 0.01839 0.26773 0.19566 0.0
C2627 C 0.98909 0.27387 0.22737 0.0
H2628 H 0.01418 0.27001 0.27498 0.0
C2629 C 0.94862 0.24175 0.2873 0.0
C2630 C 0.95444 0.24623 0.30523 0.0
C2631 C 0.95766 0.25181 0.27275 0.0
C2632 C 0.00697 0.27192 0.26184 0.0
H2633 H 0.04923 0.21828 0.20441 0.0
H2634 H 0.03463 0.23654 0.22984 0.0
H2635 H 0.03524 0.26766 0.24792 0.0
H2636 H 0.97308 0.26597 0.32207 0.0
H2637 H 0.9892 0.28345 0.29644 0.0
H2638 H 0.96069 0.2771 0.24131 0.0
C2639 C 0.03261 0.24277 0.21631 0.0
C2640 C 0.01905 0.27031 0.24631 0.0
C2641 C 0.04072 0.23208 0.20167 0.0
C2642 C 0.96848 0.26202 0.30837 0.0
C2643 C 0.97766 0.27206 0.29372 0.0
C2644 C 0.97703 0.27568 0.24291 0.0
C2645 C 0.02112 0.26055 0.21349 0.0
C2646 C 0.00999 0.26966 0.229 0.0
C2647 C 0.9728 0.26657 0.27575 0.0
C2648 C 0.98568 0.27305 0.26025 0.0
H2649 H 0.02405 0.26281 0.16733 0.0
H2650 H 0.00959 0.28139 0.19308 0.0
H2651 H 0.98166 0.27366 0.21421 0.0
H2652 H 0.93758 0.22992 0.28442 0.0
H2653 H 0.95372 0.24694 0.25911 0.0
C2654 C 0.75929 0.95059 0.28725 0.0
C2655 C 0.75368 0.95473 0.30531 0.0
C2656 C 0.74868 0.95935 0.27286 0.0
C2657 C 0.72216 0.00612 0.26311 0.0
H2658 H 0.72364 0.98242 0.21483 0.0
C2659 C 0.73517 0.02888 0.18261 0.0
C2660 C 0.75192 0.04172 0.18591 0.0
C2661 C 0.72486 0.0197 0.1971 0.0
C2662 C 0.72246 0.98932 0.22817 0.0
H2663 H 0.73159 0.97021 0.32239 0.0
H2664 H 0.7131 0.98576 0.29708 0.0
H2665 H 0.72357 0.9603 0.24131 0.0
H2666 H 0.7699 0.05629 0.20702 0.0
H2667 H 0.75239 0.0401 0.23203 0.0
H2668 H 0.722 0.03516 0.24996 0.0
C2669 C 0.72582 0.97578 0.29415 0.0
C2670 C 0.72264 0.97662 0.24337 0.0
C2671 C 0.73643 0.9669 0.30862 0.0
C2672 C 0.75727 0.04624 0.20396 0.0
C2673 C 0.74696 0.03717 0.21837 0.0
C2674 C 0.72175 0.01882 0.24791 0.0
C2675 C 0.73217 0.97249 0.27613 0.0
C2676 C 0.72413 0.98495 0.26093 0.0
C2677 C 0.73102 0.02334 0.21512 0.0
C2678 C 0.72354 0.01056 0.23034 0.0
H2679 H 0.77231 0.94106 0.28418 0.0
H2680 H 0.75426 0.95673 0.2592 0.0
H2681 H 0.7231 0.01306 0.27645 0.0
H2682 H 0.73052 0.02527 0.16884 0.0
H2683 H 0.71256 0.00919 0.19419 0.0
C2684 C 0.94089 0.73852 0.19324 0.0
C2685 C 0.95335 0.74554 0.17912 0.0
C2686 C 0.94948 0.72888 0.20831 0.0
C2687 C -4e-05 0.71371 0.22881 0.0
H2688 H 0.97552 0.73768 0.27178 0.0
C2689 C 0.04295 0.7519 0.28667 0.0
C2690 C 0.03609 0.74958 0.30464 0.0
C2691 C 0.03291 0.74213 0.27242 0.0
C2692 C 0.98233 0.73039 0.26004 0.0
H2693 H 0.98411 0.74716 0.16879 0.0
H2694 H -0.00056 0.73171 0.19553 0.0
H2695 H 0.95647 0.73687 0.24373 0.0
H2696 H 0.01403 0.73443 0.32194 0.0
H2697 H 0.99594 0.71793 0.2968 0.0
H2698 H 0.02673 0.70937 0.24511 0.0
C2699 C 0.983 0.73268 0.19493 0.0
C2700 C 0.97136 0.72981 0.24384 0.0
C2701 C 0.9743 0.74173 0.17961 0.0
C2702 C 0.01958 0.73654 0.3082 0.0
C2703 C 0.00929 0.72706 0.29388 0.0
C2704 C 0.01111 0.71471 0.24498 0.0
C2705 C 0.97078 0.72692 0.20984 0.0
C2706 C 0.98037 0.72238 0.22776 0.0
C2707 C 0.01565 0.73012 0.27586 0.0
C2708 C 0.00264 0.72386 0.26048 0.0
H2709 H 0.9246 0.74119 0.19292 0.0
H2710 H 0.93949 0.72404 0.21919 0.0
H2711 H 0.00719 0.70727 0.21689 0.0
H2712 H 0.0558 0.76165 0.28357 0.0
H2713 H 0.03793 0.74495 0.25861 0.0
C2714 C 0.23534 0.047 0.28524 0.0
C2715 C 0.24069 0.03993 0.30261 0.0
C2716 C 0.24571 0.04019 0.26992 0.0
C2717 C 0.27053 0.99496 0.25363 0.0
H2718 H 0.27159 0.0277 0.20974 0.0
C2719 C 0.26177 0.96229 0.18047 0.0
C2720 C 0.24166 0.96747 0.17582 0.0
C2721 C 0.27159 0.97235 0.19481 0.0
C2722 C 0.27207 0.0184 0.22191 0.0
H2723 H 0.26182 0.0209 0.31765 0.0
H2724 H 0.27983 0.00857 0.29057 0.0
H2725 H 0.27203 0.0444 0.23942 0.0
H2726 H 0.21639 0.98767 0.18151 0.0
H2727 H 0.23377 0.00574 0.20603 0.0
H2728 H 0.26905 0.96904 0.23597 0.0
C2729 C 0.26759 0.01949 0.28895 0.0
C2730 C 0.27215 0.02791 0.23888 0.0
C2731 C 0.25727 0.0265 0.3044 0.0
C2732 C 0.23187 0.98342 0.18496 0.0
C2733 C 0.24185 0.99382 0.19882 0.0
C2734 C 0.27074 0.98544 0.23664 0.0
C2735 C 0.26168 0.02605 0.27153 0.0
C2736 C 0.26972 0.01632 0.25481 0.0
C2737 C 0.26159 0.98812 0.20408 0.0
C2738 C 0.27005 -0.0028 0.22073 0.0
H2739 H 0.22283 0.05756 0.28338 0.0
H2740 H 0.24044 0.04525 0.25671 0.0
H2741 H 0.26868 0.98559 0.26565 0.0
H2742 H 0.26949 0.94991 0.17358 0.0
H2743 H 0.28671 0.96761 0.19889 0.0
C2744 C 0.97114 0.73358 0.81016 0.0
C2745 C 0.95419 0.74548 0.80531 0.0
C2746 C 0.98245 0.72359 0.79676 0.0
C2747 C 0.98475 0.70991 0.74798 0.0
H2748 H 0.03628 0.7386 0.74904 0.0
C2749 C 0.02106 0.74143 0.68396 0.0
C2750 C 0.0414 0.74778 0.68418 0.0
C2751 C 0.01277 0.73165 0.6991 0.0
C2752 C 0.02239 0.72976 0.7485 0.0
H2753 H 0.93442 0.75445 0.78309 0.0
H2754 H 0.95406 0.73692 0.75974 0.0
H2755 H 0.01596 0.73675 0.77625 0.0
H2756 H 0.06975 0.74717 0.69916 0.0
H2757 H 0.05578 0.72882 0.72513 0.0
H2758 H 0.99091 0.70336 0.72004 0.0
C2759 C 0.95869 0.73537 0.77382 0.0
C2760 C 0.01067 0.72876 0.76425 0.0
C2761 C 0.94761 0.74564 0.78714 0.0
C2762 C 0.05386 0.74271 0.69896 0.0
C2763 C 0.04578 0.7323 0.71384 0.0
C2764 C 0.99672 0.71049 0.73227 0.0
C2765 C 0.9767 0.72504 0.77841 0.0
C2766 C 0.99126 0.71989 0.76383 0.0
C2767 C 0.02486 0.72757 0.71453 0.0
C2768 C 0.0151 0.72157 0.73203 0.0
H2769 H 0.97649 0.73312 0.8241 0.0
H2770 H 0.99632 0.71575 0.80058 0.0
H2771 H 0.96987 0.7028 0.74743 0.0
H2772 H 0.01125 0.74521 0.67259 0.0
H2773 H 0.99658 0.72858 0.69905 0.0
C2774 C 0.25564 0.05162 0.69906 0.0
C2775 C 0.24967 0.03818 0.68525 0.0
C2776 C 0.26598 0.04437 0.71431 0.0
C2777 C 0.28571 0.99615 0.73591 0.0
H2778 H 0.25926 0.0194 0.77822 0.0
C2779 C 0.24711 0.95157 0.79147 0.0
C2780 C 0.24663 0.95895 0.80938 0.0
C2781 C 0.25823 0.96177 0.77817 0.0
C2782 C 0.26734 0.01299 0.76672 0.0
H2783 H 0.2507 0.00709 0.67567 0.0
H2784 H 0.26732 0.99396 0.70283 0.0
H2785 H 0.25895 0.0379 0.74994 0.0
H2786 H 0.25853 0.98183 0.82781 0.0
H2787 H 0.27742 0.00024 0.80422 0.0
H2788 H 0.29196 0.97013 0.75263 0.0
C2789 C 0.26494 0.01023 0.70181 0.0
C2790 C 0.26721 0.02365 0.75035 0.0
C2791 C 0.25518 0.01764 0.68628 0.0
C2792 C 0.25857 0.97592 0.81405 0.0
C2793 C 0.26942 0.98638 0.80062 0.0
C2794 C 0.28548 0.9853 0.75226 0.0
C2795 C 0.26978 0.02339 0.71635 0.0
C2796 C 0.27535 0.01486 0.73445 0.0
C2797 C 0.26881 0.97972 0.78246 0.0
C2798 C 0.27531 0.99321 0.7675 0.0
H2799 H 0.2518 0.06766 0.69826 0.0
H2800 H 0.27005 0.0551 0.72489 0.0
H2801 H 0.29277 0.9892 0.72413 0.0
H2802 H 0.23828 0.93832 0.78758 0.0
H2803 H 0.25726 0.95644 0.76424 0.0
C2804 C 0.95103 0.24409 0.7 0.0
C2805 C 0.95763 0.2449 0.68185 0.0
C2806 C 0.96126 0.25505 0.71342 0.0
C2807 C 0.01244 0.26572 0.72346 0.0
H2808 H 0.99016 0.28933 0.7675 0.0
C2809 C 0.05526 0.25401 0.78919 0.0
C2810 C 0.04286 0.24776 0.80365 0.0
C2811 C 0.04681 0.26421 0.77436 0.0
C2812 C 0.99668 0.28273 0.75532 0.0
H2813 H 0.97906 0.25897 0.66324 0.0
H2814 H -0.00252 0.27757 0.68696 0.0
H2815 H 0.96954 0.28841 0.73985 0.0
H2816 H 0.01239 0.24808 0.81476 0.0
H2817 H -0.00282 0.26433 0.78836 0.0
H2818 H 0.0385 0.25778 0.73896 0.0
C2819 C 0.98421 0.26869 0.69066 0.0
C2820 C 0.98493 0.28246 0.73946 0.0
C2821 C 0.97373 0.25799 0.67715 0.0
C2822 C 0.02216 0.25278 0.80364 0.0
C2823 C 0.01354 0.26235 0.78854 0.0
C2824 C 0.02397 0.26555 0.73935 0.0
C2825 C 0.97846 0.26675 0.70897 0.0
C2826 C 0.9924 0.27304 0.72368 0.0
C2827 C 0.02564 0.26753 0.77337 0.0
C2828 C 0.01582 0.27304 0.75576 0.0
H2829 H 0.93847 0.23435 0.70394 0.0
H2830 H 0.95666 0.2531 0.72747 0.0
H2831 H 0.0185 0.2582 0.7115 0.0
H2832 H 0.0714 0.25056 0.78919 0.0
H2833 H 0.05677 0.26858 0.7633 0.0
C2834 C 0.7481 0.94555 0.70323 0.0
C2835 C 0.74698 0.95203 0.68504 0.0
C2836 C 0.7387 0.95681 0.71696 0.0
C2837 C 0.73199 0.00899 0.7267 0.0
H2838 H 0.70697 0.98983 0.77126 0.0
C2839 C 0.74342 0.05524 0.79075 0.0
C2840 C 0.7487 0.04364 0.80602 0.0
C2841 C 0.73355 0.04613 0.77604 0.0
C2842 C 0.71403 0.99546 0.75894 0.0
H2843 H 0.73374 0.97442 0.6668 0.0
H2844 H 0.71786 0.99442 0.69096 0.0
H2845 H 0.70709 0.968 0.74433 0.0
H2846 H 0.74695 0.01394 0.81862 0.0
H2847 H 0.73122 -0.00245 0.79255 0.0
H2848 H 0.74101 0.03533 0.74133 0.0
C2849 C 0.72585 0.98054 0.69448 0.0
C2850 C 0.71386 0.98302 0.7435 0.0
C2851 C 0.735 0.96911 0.68071 0.0
C2852 C 0.74295 0.02313 0.80691 0.0
C2853 C 0.73372 0.01382 0.79195 0.0
C2854 C 0.7326 0.0212 0.74217 0.0
C2855 C 0.72824 0.97486 0.71276 0.0
C2856 C 0.72354 0.98942 0.72748 0.0
C2857 C 0.7296 0.02503 0.77601 0.0
C2858 C 0.72442 0.01425 0.75876 0.0
H2859 H 0.757 0.9323 0.70695 0.0
H2860 H 0.74093 0.95222 0.73098 0.0
H2861 H 0.73978 0.0142 0.71456 0.0
H2862 H 0.74746 0.07122 0.78999 0.0
H2863 H 0.72996 0.05547 0.76434 0.0
C2864 C 0.44949 0.7575 0.80016 0.0
C2865 C 0.46151 0.7474 0.81303 0.0
C2866 C 0.4586 0.76714 0.78533 0.0
C2867 C 0.50941 0.77822 0.76392 0.0
H2868 H 0.48142 0.75972 0.72052 0.0
C2869 C 0.54754 0.73962 0.70421 0.0
C2870 C 0.54006 0.74232 0.68648 0.0
C2871 C 0.53875 0.74999 0.71875 0.0
C2872 C 0.48927 0.76557 0.73238 0.0
H2873 H 0.49217 0.74013 0.82147 0.0
H2874 H 0.50822 0.75592 0.79516 0.0
H2875 H 0.46335 0.76063 0.74912 0.0
H2876 H 0.51835 0.75891 0.66988 0.0
H2877 H 0.50249 0.77661 0.69555 0.0
H2878 H 0.53595 0.78114 0.74714 0.0
C2879 C 0.49186 0.75721 0.7966 0.0
C2880 C 0.47888 0.76615 0.74889 0.0
C2881 C 0.48273 0.74796 0.81161 0.0
C2882 C 0.52433 0.75644 0.68343 0.0
C2883 C 0.51531 0.76661 0.69807 0.0
C2884 C 0.5199 0.77735 0.74741 0.0
C2885 C 0.47985 0.76626 0.7829 0.0
C2886 C 0.48913 0.7714 0.76505 0.0
C2887 C 0.52215 0.76308 0.71589 0.0
C2888 C 0.51015 0.77001 0.73172 0.0
H2889 H 0.43302 0.75728 0.80122 0.0
H2890 H 0.44891 0.77434 0.77529 0.0
H2891 H 0.5176 0.78293 0.776 0.0
H2892 H 0.55986 0.72907 0.70693 0.0
H2893 H 0.54415 0.74676 0.73238 0.0
C2894 C 0.25633 0.54181 0.70083 0.0
C2895 C 0.25191 0.53451 0.68333 0.0
C2896 C 0.24493 0.53548 0.7157 0.0
C2897 C 0.21945 0.49108 0.73187 0.0
H2898 H 0.21588 0.52566 0.77453 0.0
C2899 C 0.22921 0.46193 0.80585 0.0
C2900 C 0.2492 0.46804 0.80997 0.0
C2901 C 0.21868 0.4711 0.79144 0.0
C2902 C 0.21603 0.51582 0.7627 0.0
H2903 H 0.23151 0.51547 0.66753 0.0
H2904 H 0.21178 0.50376 0.69394 0.0
H2905 H 0.21594 0.54101 0.7443 0.0
H2906 H 0.27352 0.48898 0.80332 0.0
H2907 H 0.2549 0.50554 0.77867 0.0
H2908 H 0.22129 0.46603 0.75045 0.0
C2909 C 0.224 0.51461 0.69596 0.0
C2910 C 0.21621 0.52456 0.74542 0.0
C2911 C 0.23532 0.52122 0.68092 0.0
C2912 C 0.25813 0.48407 0.8003 0.0
C2913 C 0.24744 0.4936 0.78636 0.0
C2914 C 0.21898 0.48231 0.74917 0.0
C2915 C 0.22887 0.52155 0.71353 0.0
C2916 C 0.21973 0.51237 0.73 0.0
C2917 C 0.22785 0.48691 0.78157 0.0
C2918 C 0.21888 0.49478 0.76466 0.0
H2919 H 0.26881 0.5523 0.70313 0.0
H2920 H 0.24942 0.54079 0.72907 0.0
H2921 H 0.2221 0.48129 0.72024 0.0
H2922 H 0.22217 0.44945 0.81315 0.0
H2923 H 0.2037 0.46557 0.78772 0.0
C2924 C 0.52961 0.23244 0.80844 0.0
C2925 C 0.54287 0.24881 0.805 0.0
C2926 C 0.5209 0.22163 0.79399 0.0
C2927 C 0.49143 0.21942 0.76235 0.0
H2928 H 0.51616 0.21869 0.71448 0.0
C2929 C 0.45475 0.25688 0.70244 0.0
C2930 C 0.45828 0.2504 0.68451 0.0
C2931 C 0.46348 0.24657 0.71701 0.0
C2932 C 0.50893 0.21817 0.72771 0.0
H2933 H 0.55896 0.26535 0.78387 0.0
H2934 H 0.54359 0.24703 0.75891 0.0
H2935 H 0.53765 0.21676 0.74136 0.0
H2936 H 0.47301 0.22736 0.66789 0.0
H2937 H 0.48857 0.20944 0.69354 0.0
H2938 H 0.46277 0.22177 0.74869 0.0
C2939 C 0.53991 0.24227 0.77263 0.0
C2940 C 0.52128 0.21726 0.74314 0.0
C2941 C 0.5485 0.25307 0.78698 0.0
C2942 C 0.47015 0.23286 0.68154 0.0
C2943 C 0.47901 0.22255 0.6962 0.0
C2944 C 0.47907 0.2201 0.74693 0.0
C2945 C 0.52542 0.22693 0.77591 0.0
C2946 C 0.51274 0.21957 0.76056 0.0
C2947 C 0.47599 0.22951 0.71408 0.0
C2948 C 0.48784 0.22113 0.72952 0.0
H2949 H 0.52517 0.22862 0.82221 0.0
H2950 H 0.50992 0.20977 0.79695 0.0
H2951 H 0.48427 0.22103 0.77554 0.0
H2952 H 0.44553 0.27018 0.70527 0.0
H2953 H 0.46117 0.25264 0.73056 0.0
C2954 C 0.73834 0.44921 0.70179 0.0
C2955 C 0.7436 0.45363 0.68371 0.0
C2956 C 0.74842 0.45868 0.71612 0.0
C2957 C 0.7717 0.5072 0.7256 0.0
H2958 H 0.77216 0.48384 0.77402 0.0
C2959 C 0.75924 0.53028 0.8062 0.0
C2960 C 0.74192 0.54245 0.80317 0.0
C2961 C 0.76942 0.52123 0.79157 0.0
C2962 C 0.77276 0.49069 0.76064 0.0
H2963 H 0.76459 0.47036 0.66649 0.0
H2964 H 0.78215 0.4872 0.69172 0.0
H2965 H 0.77346 0.46156 0.74765 0.0
H2966 H 0.72265 0.55582 0.78235 0.0
H2967 H 0.73996 0.53981 0.7571 0.0
H2968 H 0.7701 0.53629 0.73859 0.0
C2969 C 0.77012 0.47642 0.69471 0.0
C2970 C 0.77329 0.47788 0.7455 0.0
C2971 C 0.76006 0.4668 0.68029 0.0
C2972 C 0.73575 0.54632 0.78521 0.0
C2973 C 0.74593 0.53737 0.77066 0.0
C2974 C 0.77138 0.52002 0.74074 0.0
C2975 C 0.76402 0.47285 0.71277 0.0
C2976 C 0.77119 0.48596 0.72789 0.0
C2977 C 0.76256 0.5243 0.77366 0.0
C2978 C 0.77034 0.5118 0.75837 0.0
H2979 H 0.72594 0.4389 0.70491 0.0
H2980 H 0.74306 0.45578 0.72981 0.0
H2981 H 0.77024 0.51396 0.71223 0.0
H2982 H 0.76452 0.52718 0.81987 0.0
H2983 H 0.78226 0.51133 0.79429 0.0
C2984 C 0.45131 0.25041 0.29005 0.0
C2985 C 0.45852 0.2493 0.30799 0.0
C2986 C 0.46072 0.23924 0.27631 0.0
C2987 C 0.51081 0.22625 0.26414 0.0
H2988 H 0.48468 0.20317 0.22157 0.0
C2989 C 0.54901 0.23665 0.19622 0.0
C2990 C 0.5357 0.24396 0.18286 0.0
C2991 C 0.5414 0.22631 0.21134 0.0
C2992 C 0.49228 0.20954 0.23335 0.0
H2993 H 0.48039 0.23477 0.3259 0.0
H2994 H 0.49747 0.21582 0.30157 0.0
H2995 H 0.46603 0.20512 0.25026 0.0
H2996 H 0.50442 0.24538 0.17384 0.0
H2997 H 0.49077 0.22874 0.20074 0.0
H2998 H 0.53608 0.23295 0.2472 0.0
C2999 C 0.4843 0.22506 0.29829 0.0
C3000 C 0.48165 0.21043 0.24979 0.0
C3001 C 0.47461 0.23596 0.31214 0.0
C3002 C 0.51486 0.23981 0.18412 0.0
C3003 C 0.50714 0.23003 0.19948 0.0
C3004 C 0.52126 0.22576 0.24768 0.0
C3005 C 0.47771 0.22702 0.28021 0.0
C3006 C 0.49049 0.2198 0.26502 0.0
C3007 C 0.52025 0.22387 0.21367 0.0
C3008 C 0.51168 0.21852 0.23179 0.0
H3009 H 0.43873 0.26035 0.28653 0.0
H3010 H 0.45554 0.24125 0.26243 0.0
H3011 H 0.51793 0.23367 0.27568 0.0
H3012 H 0.56523 0.23952 0.19525 0.0
H3013 H 0.55203 0.22124 0.22164 0.0
C3014 C 0.74903 0.52101 0.18213 0.0
C3015 C 0.74402 0.54169 0.18152 0.0
C3016 C 0.75929 0.51313 0.19719 0.0
C3017 C 0.76348 0.52597 0.24573 0.0
H3018 H 0.78529 0.47114 0.24697 0.0
C3019 C 0.75638 0.47754 0.3096 0.0
C3020 C 0.7433 0.46119 0.30559 0.0
C3021 C 0.7664 0.48785 0.2956 0.0
C3022 C 0.77964 0.48664 0.24686 0.0
H3023 H 0.74756 0.57094 0.19466 0.0
H3024 H 0.76677 0.55756 0.22044 0.0
H3025 H 0.7866 0.49059 0.21869 0.0
H3026 H 0.73174 0.44172 0.2841 0.0
H3027 H 0.74932 0.45965 0.25971 0.0
H3028 H 0.75601 0.52174 0.27372 0.0
C3029 C 0.76193 0.54709 0.20992 0.0
C3030 C 0.78016 0.49773 0.23065 0.0
C3031 C 0.75106 0.55482 0.19515 0.0
C3032 C 0.74149 0.45446 0.28754 0.0
C3033 C 0.7518 0.46452 0.27362 0.0
C3034 C 0.7634 0.51508 0.26196 0.0
C3035 C 0.76511 0.52597 0.21169 0.0
C3036 C 0.77079 0.51699 0.22959 0.0
C3037 C 0.76383 0.48167 0.27747 0.0
C3038 C 0.77031 0.4949 0.26236 0.0
H3039 H 0.74368 0.5107 0.17165 0.0
H3040 H 0.76116 0.49679 0.19798 0.0
H3041 H 0.75598 0.54064 0.24564 0.0
H3042 H 0.75812 0.48297 0.32343 0.0
H3043 H 0.7755 0.50113 0.29884 0.0
C3044 C 0.47234 0.74689 0.18236 0.0
C3045 C 0.45132 0.7434 0.18294 0.0
C3046 C 0.48206 0.75638 0.19697 0.0
C3047 C 0.50116 0.77713 0.22911 0.0
H3048 H 0.47886 0.75657 0.27434 0.0
C3049 C 0.52377 0.75867 0.30876 0.0
C3050 C 0.53977 0.745 0.30522 0.0
C3051 C 0.51342 0.76801 0.29441 0.0
C3052 C 0.4851 0.76295 0.26194 0.0
H3053 H 0.4235 0.74879 0.19792 0.0
H3054 H 0.44014 0.76669 0.2229 0.0
H3055 H 0.4584 0.75543 0.24715 0.0
H3056 H 0.55881 0.73196 0.28411 0.0
H3057 H 0.54078 0.74831 0.25909 0.0
H3058 H 0.52877 0.78248 0.244 0.0
C3059 C 0.44943 0.76119 0.21177 0.0
C3060 C 0.47331 0.76238 0.24622 0.0
C3061 C 0.43984 0.75108 0.19745 0.0
C3062 C 0.54633 0.74218 0.28722 0.0
C3063 C 0.5362 0.75176 0.27291 0.0
C3064 C 0.51314 0.77726 0.24483 0.0
C3065 C 0.47081 0.76299 0.21221 0.0
C3066 C 0.48148 0.76856 0.22939 0.0
C3067 C 0.51916 0.7641 0.27635 0.0
C3068 C 0.50544 0.76937 0.26118 0.0
H3069 H 0.48141 0.74103 0.17121 0.0
H3070 H 0.49852 0.75718 0.19675 0.0
H3071 H 0.50777 0.78264 0.21656 0.0
H3072 H 0.51845 0.76124 0.32252 0.0
H3073 H 0.5003 0.77745 0.29736 0.0
C3074 C 0.24297 0.47762 0.18005 0.0
C3075 C 0.24548 0.45649 0.17926 0.0
C3076 C 0.23394 0.48653 0.19529 0.0
C3077 C 0.22878 0.4744 0.24382 0.0
H3078 H 0.20981 0.53028 0.24517 0.0
C3079 C 0.23729 0.52148 0.30836 0.0
C3080 C 0.25041 0.53791 0.30478 0.0
C3081 C 0.22721 0.51167 0.29409 0.0
C3082 C 0.21472 0.51453 0.24502 0.0
H3083 H 0.23899 0.42777 0.19243 0.0
H3084 H 0.22209 0.44314 0.21863 0.0
H3085 H 0.20812 0.51116 0.21669 0.0
H3086 H 0.26187 0.55811 0.28379 0.0
H3087 H 0.24431 0.54102 0.25897 0.0
H3088 H 0.23606 0.47801 0.27192 0.0
C3089 C 0.22782 0.45302 0.20801 0.0
C3090 C 0.21394 0.50362 0.22871 0.0
C3091 C 0.23737 0.44419 0.19302 0.0
C3092 C 0.25211 0.54527 0.28691 0.0
C3093 C 0.24181 0.53569 0.27273 0.0
C3094 C 0.22922 0.48516 0.26013 0.0
C3095 C 0.22694 0.47435 0.20981 0.0
C3096 C 0.22211 0.48383 0.22768 0.0
C3097 C 0.22981 0.5184 0.27611 0.0
C3098 C 0.22328 0.50566 0.26062 0.0
H3099 H 0.24921 0.48728 0.16948 0.0
H3100 H 0.23383 0.50298 0.19617 0.0
H3101 H 0.2354 0.45931 0.24369 0.0
H3102 H 0.23559 0.51558 0.32203 0.0
H3103 H 0.21806 0.49833 0.29699 0.0
C3104 C 0.06395 0.21476 0.92542 0.0
C3105 C 0.08217 0.21208 0.91566 0.0
C3106 C 0.06387 0.21371 0.94437 0.0
C3107 C 0.09331 0.19568 0.98401 0.0
H3108 H 0.06286 0.23749 0.0095 0.0
C3109 C 0.10022 0.20977 0.06153 0.0
C3110 C 0.08201 0.21378 0.07095 0.0
C3111 C 0.10034 0.20864 0.04254 0.0
C3112 C 0.07125 0.22558 0.00259 0.0
H3113 H 0.1145 0.20563 0.9182 0.0
H3114 H 0.11432 0.20403 0.95129 0.0
H3115 H 0.06264 0.23677 0.97641 0.0
H3116 H 0.04957 0.21932 0.06774 0.0
H3117 H 0.04983 0.21718 0.03478 0.0
H3118 H 0.10199 0.18459 0.01029 0.0
C3119 C 0.10009 0.20676 0.94424 0.0
C3120 C 0.0711 0.22515 0.98364 0.0
C3121 C 0.10019 0.20779 0.92528 0.0
C3122 C 0.06391 0.21636 0.06097 0.0
C3123 C 0.06405 0.21523 0.04204 0.0
C3124 C 0.09346 0.19612 0.00301 0.0
C3125 C 0.08198 0.20998 0.95399 0.0
C3126 C 0.08207 0.21017 0.97414 0.0
C3127 C 0.08227 0.21152 0.03262 0.0
C3128 C 0.08238 0.21104 0.01248 0.0
H3129 H 0.04975 0.21792 0.91847 0.0
H3130 H 0.0496 0.21591 0.95151 0.0
H3131 H 0.10175 0.18384 0.97705 0.0
H3132 H 0.11443 0.20769 0.06878 0.0
H3133 H 0.11464 0.20592 0.03562 0.0
C3134 C 0.78376 0.05932 0.0632 0.0
C3135 C 0.7864 0.07789 0.07246 0.0
C3136 C 0.78626 0.05828 0.04437 0.0
C3137 C 0.80868 0.0853 0.00514 0.0
H3138 H 0.7673 0.0564 0.97774 0.0
C3139 C 0.79662 0.09558 0.92794 0.0
C3140 C 0.79106 0.07838 0.91768 0.0
C3141 C 0.79834 0.09432 0.94684 0.0
C3142 C 0.77918 0.06425 0.98519 0.0
H3143 H 0.79412 0.10985 0.06915 0.0
H3144 H 0.79822 0.10802 0.03629 0.0
H3145 H 0.76598 0.05637 0.01081 0.0
H3146 H 0.78392 0.04612 0.91919 0.0
H3147 H 0.78714 0.04393 0.95209 0.0
H3148 H 0.82168 0.09343 0.97944 0.0
C3149 C 0.79444 0.09424 0.04365 0.0
C3150 C 0.7784 0.06424 0.00414 0.0
C3151 C 0.79193 0.0953 0.06247 0.0
C3152 C 0.788 0.05973 0.92667 0.0
C3153 C 0.78977 0.05847 0.94554 0.0
C3154 C 0.80946 0.0853 0.98616 0.0
C3155 C 0.79147 0.07576 0.03439 0.0
C3156 C 0.79303 0.07492 0.01431 0.0
C3157 C 0.79459 0.07583 0.95585 0.0
C3158 C 0.79461 0.07491 0.97599 0.0
H3159 H 0.77964 0.04557 0.07045 0.0
H3160 H 0.78413 0.04377 0.03762 0.0
H3161 H 0.82032 0.09343 0.01265 0.0
H3162 H 0.7991 0.11019 0.92147 0.0
H3163 H 0.80189 0.10801 0.95443 0.0
C3164 C 0.89587 0.79507 0.92418 0.0
C3165 C 0.91374 0.79078 0.91435 0.0
C3166 C 0.89653 0.79737 0.94307 0.0
C3167 C 0.92719 0.78135 0.9821 0.0
H3168 H 0.89525 0.82106 0.00879 0.0
C3169 C 0.93272 0.78751 0.05967 0.0
C3170 C 0.91424 0.78915 0.0692 0.0
C3171 C 0.93327 0.79008 0.04085 0.0
C3172 C 0.90414 0.80981 0.0015 0.0
H3173 H 0.94648 0.78662 0.91659 0.0
H3174 H 0.94757 0.79078 0.94943 0.0
H3175 H 0.8951 0.82153 0.97552 0.0
H3176 H 0.8819 0.79538 0.06645 0.0
H3177 H 0.88283 0.79949 0.03353 0.0
H3178 H 0.93597 0.76934 0.00791 0.0
C3179 C 0.93301 0.79198 0.94257 0.0
C3180 C 0.90406 0.81009 0.98249 0.0
C3181 C 0.93237 0.78965 0.92373 0.0
C3182 C 0.8964 0.79399 0.05953 0.0
C3183 C 0.89694 0.79648 0.04067 0.0
C3184 C 0.92725 0.78104 0.00105 0.0
C3185 C 0.91506 0.79545 0.95247 0.0
C3186 C 0.91556 0.79582 0.97261 0.0
C3187 C 0.91533 0.79425 0.03111 0.0
C3188 C 0.91569 0.79522 0.01097 0.0
H3189 H 0.88127 0.79609 0.91738 0.0
H3190 H 0.88242 0.7999 0.95036 0.0
H3191 H 0.93588 0.76989 0.97488 0.0
H3192 H 0.94681 0.78405 0.0667 0.0
H3193 H 0.94774 0.78864 0.0339 0.0
C3194 C 0.1966 0.89178 0.92426 0.0
C3195 C 0.20213 0.91039 0.91617 0.0
C3196 C 0.19372 0.89047 0.94305 0.0
C3197 C 0.18522 0.92153 0.98425 0.0
H3198 H 0.21426 0.87815 0.00894 0.0
C3199 C 0.20981 0.92747 0.05862 0.0
C3200 C 0.20832 0.91017 0.06981 0.0
C3201 C 0.20584 0.92608 0.04005 0.0
C3202 C 0.20575 0.89013 0.00225 0.0
H3203 H 0.20823 0.94237 0.92143 0.0
H3204 H 0.20336 0.94001 0.95412 0.0
H3205 H 0.21247 0.8783 0.97581 0.0
H3206 H 0.20136 0.87784 0.07021 0.0
H3207 H 0.19448 0.87547 0.03762 0.0
H3208 H 0.17901 0.93368 0.01067 0.0
C3209 C 0.20111 0.92647 0.94593 0.0
C3210 C 0.20471 0.89021 0.98329 0.0
C3211 C 0.20407 0.92778 0.9272 0.0
C3212 C 0.20272 0.89144 0.06197 0.0
C3213 C 0.19881 0.89006 0.04333 0.0
C3214 C 0.18625 0.92144 0.00319 0.0
C3215 C 0.19617 0.90776 0.95407 0.0
C3216 C 0.19488 0.9062 0.97411 0.0
C3217 C 0.20031 0.90739 0.03221 0.0
C3218 C 0.19698 0.90603 0.01235 0.0
H3219 H 0.19489 0.8781 0.91617 0.0
H3220 H 0.18975 0.8759 0.94896 0.0
H3221 H 0.17723 0.93385 0.97752 0.0
H3222 H 0.21407 0.94215 0.06416 0.0
H3223 H 0.20748 0.93963 0.03177 0.0
C3224 C 0.06235 0.77869 0.56197 0.0
C3225 C 0.08028 0.78276 0.57177 0.0
C3226 C 0.06228 0.77949 0.54302 0.0
C3227 C 0.09069 0.79884 0.50328 0.0
H3228 H 0.0632 0.7547 0.47823 0.0
C3229 C 0.09916 0.78353 0.42608 0.0
C3230 C 0.08128 0.77833 0.41661 0.0
C3231 C 0.09905 0.78508 0.44503 0.0
C3232 C 0.07075 0.76725 0.48502 0.0
H3233 H 0.11209 0.79143 0.56928 0.0
H3234 H 0.11198 0.79256 0.53618 0.0
H3235 H 0.06272 0.75596 0.51131 0.0
H3236 H 0.04915 0.77112 0.41969 0.0
H3237 H 0.04901 0.77396 0.45262 0.0
H3238 H 0.09884 0.80999 0.47688 0.0
C3239 C 0.09794 0.78895 0.5432 0.0
C3240 C 0.07045 0.76799 0.50396 0.0
C3241 C 0.09801 0.78819 0.56218 0.0
C3242 C 0.06325 0.77501 0.42651 0.0
C3243 C 0.06316 0.77654 0.44541 0.0
C3244 C 0.09102 0.79807 0.48429 0.0
C3245 C 0.08014 0.78434 0.53343 0.0
C3246 C 0.08036 0.78382 0.51329 0.0
C3247 C 0.08107 0.78143 0.45488 0.0
C3248 C 0.08099 0.78229 0.47499 0.0
H3249 H 0.04837 0.77465 0.5689 0.0
H3250 H 0.04824 0.77621 0.53585 0.0
H3251 H 0.09831 0.81132 0.5101 0.0
H3252 H 0.1133 0.78622 0.41888 0.0
H3253 H 0.11312 0.78872 0.45201 0.0
C3254 C 0.2146 0.05644 0.42677 0.0
C3255 C 0.20951 0.07449 0.41754 0.0
C3256 C 0.21344 0.05545 0.4457 0.0
C3257 C 0.19132 0.081 0.48596 0.0
H3258 H 0.23656 0.05564 0.51121 0.0
C3259 C 0.20633 0.09139 0.5628 0.0
C3260 C 0.21286 0.07422 0.57264 0.0
C3261 C 0.20439 0.09053 0.5439 0.0
C3262 C 0.22368 0.06253 0.50436 0.0
H3263 H 0.19876 0.10554 0.42103 0.0
H3264 H 0.19703 0.10386 0.45405 0.0
H3265 H 0.23583 0.05563 0.47811 0.0
H3266 H 0.22195 0.0425 0.5703 0.0
H3267 H 0.21846 0.04105 0.53738 0.0
H3268 H 0.17937 0.08817 0.5123 0.0
C3269 C 0.20168 0.09039 0.44661 0.0
C3270 C 0.22325 0.06251 0.4854 0.0
C3271 C 0.2028 0.09139 0.42767 0.0
C3272 C 0.21701 0.05607 0.56317 0.0
C3273 C 0.2151 0.05524 0.54429 0.0
C3274 C 0.19178 0.08106 0.50495 0.0
C3275 C 0.20718 0.07248 0.45583 0.0
C3276 C 0.20712 0.07183 0.47598 0.0
C3277 C 0.20896 0.0725 0.53445 0.0
C3278 C 0.20802 0.0719 0.51433 0.0
H3279 H 0.21966 0.04308 0.4194 0.0
H3280 H 0.21747 0.04133 0.45241 0.0
H3281 H 0.17856 0.08807 0.47908 0.0
H3282 H 0.20297 0.10561 0.56965 0.0
H3283 H 0.19981 0.10414 0.53665 0.0
C3284 C 0.90046 0.19521 0.5626 0.0
C3285 C 0.91822 0.19971 0.5725 0.0
C3286 C 0.90102 0.19406 0.54363 0.0
C3287 C 0.93056 0.21406 0.50543 0.0
H3288 H 0.89959 0.17534 0.47675 0.0
C3289 C 0.93499 0.21289 0.42743 0.0
C3290 C 0.91643 0.21096 0.41803 0.0
C3291 C 0.93586 0.20967 0.44617 0.0
C3292 C 0.90819 0.18633 0.4846 0.0
H3293 H 0.95076 0.20522 0.5703 0.0
H3294 H 0.95171 0.20301 0.53731 0.0
H3295 H 0.90008 0.17228 0.50989 0.0
H3296 H 0.88428 0.20387 0.42098 0.0
H3297 H 0.88582 0.19859 0.45373 0.0
H3298 H 0.93842 0.22834 0.4803 0.0
C3299 C 0.93728 0.20083 0.54418 0.0
C3300 C 0.90849 0.18456 0.50354 0.0
C3301 C 0.93672 0.20203 0.56309 0.0
C3302 C 0.89883 0.2055 0.42778 0.0
C3303 C 0.89972 0.20232 0.44653 0.0
C3304 C 0.93025 0.21584 0.48655 0.0
C3305 C 0.91937 0.19733 0.53423 0.0
C3306 C 0.91963 0.19846 0.51413 0.0
C3307 C 0.91822 0.2045 0.45593 0.0
C3308 C 0.919 0.20206 0.47594 0.0
H3309 H 0.88596 0.1933 0.56943 0.0
H3310 H 0.88694 0.19146 0.53631 0.0
H3311 H 0.93895 0.22526 0.51324 0.0
H3312 H 0.94888 0.21689 0.42035 0.0
H3313 H 0.9504 0.21118 0.45301 0.0
C3314 C 0.79406 0.89994 0.42836 0.0
C3315 C 0.78844 0.91734 0.41841 0.0
C3316 C 0.79619 0.90089 0.44725 0.0
C3317 C 0.77876 0.93053 0.48656 0.0
H3318 H 0.82157 0.90164 0.51217 0.0
C3319 C 0.786 0.93484 0.56426 0.0
C3320 C 0.78886 0.91614 0.57323 0.0
C3321 C 0.78839 0.93623 0.54544 0.0
C3322 C 0.80948 0.9097 0.50519 0.0
H3323 H 0.78128 0.94957 0.42053 0.0
H3324 H 0.78514 0.95118 0.45339 0.0
H3325 H 0.82112 0.90168 0.47894 0.0
H3326 H 0.79724 0.88441 0.56947 0.0
H3327 H 0.80112 0.88682 0.53664 0.0
H3328 H 0.76688 0.93825 0.51271 0.0
C3329 C 0.78758 0.93674 0.4466 0.0
C3330 C 0.80922 0.9097 0.48619 0.0
C3331 C 0.78544 0.93581 0.42775 0.0
C3332 C 0.79487 0.89905 0.56302 0.0
C3333 C 0.79723 0.90044 0.54419 0.0
C3334 C 0.77902 0.93051 0.50552 0.0
C3335 C 0.79276 0.91925 0.45657 0.0
C3336 C 0.79375 0.91999 0.47669 0.0
C3337 C 0.79367 0.91896 0.53517 0.0
C3338 C 0.79428 0.91996 0.51505 0.0
H3339 H 0.79652 0.88547 0.42163 0.0
H3340 H 0.79999 0.8871 0.45459 0.0
H3341 H 0.76645 0.93831 0.47964 0.0
H3342 H 0.78157 0.94837 0.5717 0.0
H3343 H 0.78588 0.95079 0.53889 0.0
C3344 C 0.59388 0.70274 0.42832 0.0
C3345 C 0.57681 0.7091 0.41826 0.0
C3346 C 0.59271 0.70071 0.44719 0.0
C3347 C 0.5635 0.71949 0.48627 0.0
H3348 H 0.59106 0.67602 0.51216 0.0
C3349 C 0.55787 0.71137 0.5639 0.0
C3350 C 0.57635 0.70804 0.57312 0.0
C3351 C 0.55686 0.70957 0.54501 0.0
C3352 C 0.58339 0.68829 0.5051 0.0
H3353 H 0.5449 0.71762 0.42013 0.0
H3354 H 0.54287 0.71386 0.453 0.0
H3355 H 0.59107 0.67621 0.47893 0.0
H3356 H 0.60812 0.69964 0.56971 0.0
H3357 H 0.60634 0.69671 0.53673 0.0
H3358 H 0.55601 0.73171 0.51237 0.0
C3359 C 0.55724 0.7108 0.4463 0.0
C3360 C 0.5834 0.68841 0.4861 0.0
C3361 C 0.55841 0.71288 0.42745 0.0
C3362 C 0.59366 0.70237 0.56306 0.0
C3363 C 0.59262 0.70055 0.54416 0.0
C3364 C 0.56345 0.71934 0.50523 0.0
C3365 C 0.57445 0.70495 0.45639 0.0
C3366 C 0.57359 0.70411 0.4765 0.0
C3367 C 0.57428 0.70438 0.53495 0.0
C3368 C 0.57352 0.70384 0.51483 0.0
H3369 H 0.60829 0.69969 0.42169 0.0
H3370 H 0.6063 0.6964 0.45461 0.0
H3371 H 0.55611 0.73198 0.47928 0.0
H3372 H 0.5442 0.71561 0.57121 0.0
H3373 H 0.54245 0.71234 0.53828 0.0
C3374 C 0.28122 0.56196 0.42668 0.0
C3375 C 0.28524 0.57972 0.41662 0.0
C3376 C 0.28342 0.56186 0.44554 0.0
C3377 C 0.2832 0.5963 0.48476 0.0
H3378 H 0.30495 0.54939 0.51028 0.0
C3379 C 0.29218 0.59476 0.5627 0.0
C3380 C 0.28526 0.577 0.57142 0.0
C3381 C 0.29419 0.59533 0.54381 0.0
C3382 C 0.29875 0.56254 0.50332 0.0
H3383 H 0.29529 0.61117 0.41853 0.0
H3384 H 0.29927 0.61089 0.45146 0.0
H3385 H 0.30517 0.54999 0.47708 0.0
H3386 H 0.27535 0.5458 0.5671 0.0
H3387 H 0.27869 0.54693 0.53416 0.0
H3388 H 0.27652 0.60874 0.51098 0.0
C3389 C 0.29413 0.59715 0.44472 0.0
C3390 C 0.29887 0.56289 0.48435 0.0
C3391 C 0.29192 0.59726 0.42585 0.0
C3392 C 0.28069 0.55975 0.56085 0.0
C3393 C 0.28274 0.56032 0.54197 0.0
C3394 C 0.28311 0.59597 0.50373 0.0
C3395 C 0.28972 0.5795 0.45477 0.0
C3396 C 0.29088 0.57967 0.47488 0.0
C3397 C 0.28939 0.57815 0.53326 0.0
C3398 C 0.29066 0.57899 0.51319 0.0
H3399 H 0.27605 0.54817 0.42004 0.0
H3400 H 0.27966 0.5481 0.45294 0.0
H3401 H 0.27666 0.60931 0.47785 0.0
H3402 H 0.29593 0.6083 0.57041 0.0
H3403 H 0.29955 0.60921 0.53746 0.0
C3404 C 0.39436 0.28255 0.56346 0.0
C3405 C 0.41273 0.27739 0.57218 0.0
C3406 C 0.39377 0.28549 0.54468 0.0
C3407 C 0.42658 0.29667 0.50527 0.0
H3408 H 0.38266 0.27239 0.47742 0.0
C3409 C 0.4308 0.28401 0.4281 0.0
C3410 C 0.41311 0.28708 0.41767 0.0
C3411 C 0.43012 0.28533 0.44701 0.0
C3412 C 0.39484 0.27956 0.48503 0.0
H3413 H 0.44488 0.27121 0.5679 0.0
H3414 H 0.44373 0.27608 0.5351 0.0
H3415 H 0.38267 0.26949 0.51047 0.0
H3416 H 0.38093 0.29459 0.41897 0.0
H3417 H 0.3798 0.29695 0.45208 0.0
H3418 H 0.43894 0.30641 0.47979 0.0
C3419 C 0.42987 0.27815 0.54287 0.0
C3420 C 0.39486 0.27787 0.50395 0.0
C3421 C 0.43047 0.2752 0.56166 0.0
C3422 C 0.39482 0.29205 0.42658 0.0
C3423 C 0.39413 0.29331 0.44554 0.0
C3424 C 0.42657 0.29835 0.48636 0.0
C3425 C 0.41152 0.28334 0.5342 0.0
C3426 C 0.41088 0.28617 0.51424 0.0
C3427 C 0.41173 0.28974 0.45593 0.0
C3428 C 0.41084 0.28956 0.47604 0.0
H3429 H 0.38041 0.28446 0.57114 0.0
H3430 H 0.37945 0.28967 0.53838 0.0
H3431 H 0.43893 0.30354 0.51288 0.0
H3432 H 0.44518 0.28022 0.42171 0.0
H3433 H 0.44388 0.28227 0.45467 0.0
C3434 C 0.70503 0.39457 0.56176 0.0
C3435 C 0.70997 0.41247 0.57132 0.0
C3436 C 0.70409 0.39461 0.54279 0.0
C3437 C 0.72392 0.42272 0.50352 0.0
H3438 H 0.68218 0.39383 0.47651 0.0
C3439 C 0.71578 0.43141 0.42646 0.0
C3440 C 0.71285 0.41355 0.41622 0.0
C3441 C 0.71433 0.43101 0.44535 0.0
C3442 C 0.69403 0.40179 0.4839 0.0
H3443 H 0.71699 0.44463 0.56842 0.0
H3444 H 0.71514 0.4447 0.53539 0.0
H3445 H 0.68129 0.39385 0.50978 0.0
H3446 H 0.70565 0.38133 0.41786 0.0
H3447 H 0.70331 0.38065 0.451 0.0
H3448 H 0.73672 0.43063 0.47777 0.0
C3449 C 0.71239 0.43056 0.54257 0.0
C3450 C 0.69351 0.40182 0.50291 0.0
C3451 C 0.71336 0.43052 0.56151 0.0
C3452 C 0.70803 0.39535 0.42533 0.0
C3453 C 0.70658 0.39496 0.44429 0.0
C3454 C 0.72443 0.4227 0.48459 0.0
C3455 C 0.70805 0.41255 0.53301 0.0
C3456 C 0.70841 0.41238 0.51288 0.0
C3457 C 0.70995 0.41276 0.45447 0.0
C3458 C 0.70944 0.41234 0.47458 0.0
H3459 H 0.7023 0.38039 0.56888 0.0
H3460 H 0.70086 0.38047 0.53577 0.0
H3461 H 0.73587 0.43062 0.51085 0.0
H3462 H 0.71932 0.44576 0.41992 0.0
H3463 H 0.71664 0.44504 0.45283 0.0
C3464 C 0.5561 0.28227 0.06289 0.0
C3465 C 0.57448 0.28514 0.07238 0.0
C3466 C 0.55523 0.28507 0.04413 0.0
C3467 C 0.58193 0.30817 0.00516 0.0
H3468 H 0.55407 0.266 0.97782 0.0
C3469 C 0.59185 0.29629 0.92792 0.0
C3470 C 0.57471 0.29028 0.91777 0.0
C3471 C 0.59069 0.29808 0.9468 0.0
C3472 C 0.56161 0.27809 0.98525 0.0
H3473 H 0.60624 0.29379 0.0696 0.0
H3474 H 0.60475 0.2984 0.0367 0.0
H3475 H 0.55434 0.26459 0.01085 0.0
H3476 H 0.54264 0.2824 0.91947 0.0
H3477 H 0.54062 0.28571 0.9524 0.0
H3478 H 0.58944 0.32148 0.97943 0.0
C3479 C 0.59098 0.29417 0.04389 0.0
C3480 C 0.56179 0.27727 0.00418 0.0
C3481 C 0.59186 0.2914 0.06271 0.0
C3482 C 0.5562 0.28684 0.92687 0.0
C3483 C 0.55504 0.28867 0.94574 0.0
C3484 C 0.58173 0.30901 0.98617 0.0
C3485 C 0.57271 0.29077 0.0344 0.0
C3486 C 0.57203 0.29222 0.01433 0.0
C3487 C 0.57237 0.29394 0.95592 0.0
C3488 C 0.57167 0.2939 0.97604 0.0
H3489 H 0.54234 0.27768 0.0699 0.0
H3490 H 0.54086 0.28267 0.03721 0.0
H3491 H 0.58974 0.32003 0.01266 0.0
H3492 H 0.60635 0.29912 0.92137 0.0
H3493 H 0.60435 0.30199 0.9543 0.0
C3494 C 0.71042 0.55983 0.92605 0.0
C3495 C 0.70893 0.57863 0.917 0.0
C3496 C 0.70718 0.55861 0.94478 0.0
C3497 C 0.6843 0.58598 0.9836 0.0
H3498 H 0.72289 0.55452 0.01196 0.0
C3499 C 0.69384 0.59417 0.06132 0.0
C3500 C 0.6983 0.57654 0.07141 0.0
C3501 C 0.69253 0.59332 0.04238 0.0
C3502 C 0.71177 0.56309 0.00423 0.0
H3503 H 0.70263 0.61087 0.92055 0.0
H3504 H 0.69726 0.60873 0.95324 0.0
H3505 H 0.72579 0.55511 0.97899 0.0
H3506 H 0.70369 0.54396 0.06955 0.0
H3507 H 0.70118 0.5425 0.03658 0.0
H3508 H 0.6705 0.59422 0.00895 0.0
C3509 C 0.70068 0.5949 0.9458 0.0
C3510 C 0.71345 0.56344 0.98533 0.0
C3511 C 0.70392 0.59614 0.92707 0.0
C3512 C 0.70049 0.55789 0.06221 0.0
C3513 C 0.69913 0.55705 0.0433 0.0
C3514 C 0.68261 0.58562 0.00253 0.0
C3515 C 0.70238 0.57615 0.95485 0.0
C3516 C 0.69985 0.57502 0.97483 0.0
C3517 C 0.6956 0.57482 0.03316 0.0
C3518 C 0.69644 0.5743 0.01304 0.0
H3519 H 0.71411 0.54601 0.91871 0.0
H3520 H 0.70835 0.54391 0.95136 0.0
H3521 H 0.67343 0.59482 0.97582 0.0
H3522 H 0.69203 0.60878 0.06798 0.0
H3523 H 0.68995 0.60731 0.03493 0.0
C3524 C 0.42627 0.71167 0.9313 0.0
C3525 C 0.4091 0.70962 0.92001 0.0
C3526 C 0.42485 0.70781 0.94989 0.0
C3527 C 0.38831 0.70712 0.98728 0.0
H3528 H 0.4322 0.6799 0.01293 0.0
C3529 C 0.38762 0.69751 0.06514 0.0
C3530 C 0.40582 0.7032 0.07387 0.0
C3531 C 0.38708 0.69486 0.0463 0.0
C3532 C 0.41985 0.68755 0.00594 0.0
H3533 H 0.37699 0.70165 0.91944 0.0
H3534 H 0.37457 0.69494 0.95201 0.0
H3535 H 0.43285 0.68168 0.97977 0.0
H3536 H 0.43788 0.7099 0.06968 0.0
H3537 H 0.43684 0.7055 0.03688 0.0
H3538 H 0.3756 0.71349 0.01344 0.0
C3539 C 0.38908 0.69966 0.94639 0.0
C3540 C 0.42023 0.68858 0.987 0.0
C3541 C 0.3905 0.70347 0.92775 0.0
C3542 C 0.42358 0.70558 0.06341 0.0
C3543 C 0.42304 0.7029 0.04461 0.0
C3544 C 0.38794 0.7061 0.00623 0.0
C3545 C 0.40624 0.70183 0.95763 0.0
C3546 C 0.40469 0.69876 0.97751 0.0
C3547 C 0.40474 0.69776 0.03584 0.0
C3548 C 0.40394 0.69669 0.01575 0.0
H3549 H 0.44085 0.71635 0.92582 0.0
H3550 H 0.43825 0.70993 0.95827 0.0
H3551 H 0.37624 0.71524 0.98033 0.0
H3552 H 0.37368 0.69541 0.07278 0.0
H3553 H 0.37282 0.69069 0.0399 0.0
C3554 C 0.28526 0.38957 0.0615 0.0
C3555 C 0.281 0.40823 0.07011 0.0
C3556 C 0.28843 0.38877 0.04272 0.0
C3557 C 0.30139 0.42081 0.00319 0.0
H3558 H 0.27178 0.38018 0.97547 0.0
C3559 C 0.28399 0.42984 0.92727 0.0
C3560 C 0.28478 0.41255 0.916 0.0
C3561 C 0.2865 0.42798 0.94602 0.0
C3562 C 0.28045 0.39138 0.98303 0.0
H3563 H 0.27704 0.44071 0.06573 0.0
H3564 H 0.2824 0.43923 0.03307 0.0
H3565 H 0.27079 0.37925 0.00862 0.0
H3566 H 0.28932 0.37978 0.91562 0.0
H3567 H 0.29374 0.37661 0.94845 0.0
H3568 H 0.31066 0.43323 0.9776 0.0
C3569 C 0.28349 0.42527 0.04085 0.0
C3570 C 0.27987 0.39085 0.002 0.0
C3571 C 0.28024 0.42607 0.05957 0.0
C3572 C 0.28853 0.3934 0.9239 0.0
C3573 C 0.29099 0.39155 0.9427 0.0
C3574 C 0.30198 0.42132 0.98423 0.0
C3575 C 0.28753 0.40661 0.03223 0.0
C3576 C 0.28997 0.40583 0.01224 0.0
C3577 C 0.28986 0.40882 0.95395 0.0
C3578 C 0.29115 0.40688 0.97397 0.0
H3579 H 0.28601 0.37554 0.06921 0.0
H3580 H 0.29165 0.3742 0.03642 0.0
H3581 H 0.30961 0.43232 0.01077 0.0
H3582 H 0.28118 0.44483 0.92167 0.0
H3583 H 0.28525 0.44153 0.95436 0.0
loop_
_geom_bond_atom_site_label_1
_geom_bond_atom_site_label_2
_geom_bond_distance
_geom_bond_site_symmetry_2
_ccdc_geom_bond_type
Sc0 O3 2.025 . S
Sc0 O10 2.105 . S
Sc0 O13 2.105 . S
Sc0 O16 2.105 . S
Sc0 O19 2.105 . S
Sc1 O3 2.025 . S
Sc1 O11 2.105 . S
Sc1 O15 2.105 . S
Sc1 O17 2.105 . S
Sc1 O21 2.105 . S
Sc2 O3 2.025 . S
Sc2 O12 2.105 . S
Sc2 O14 2.105 . S
Sc2 O18 2.105 . S
Sc2 O20 2.105 . S
O3 Sc0 2.025 . S
O3 Sc1 2.025 . S
O3 Sc2 2.025 . S
C4 O10 1.268 . S
C4 O20 1.268 . S
C5 O11 1.268 . S
C5 O19 1.268 . S
C6 O12 1.268 . S
C6 O21 1.268 . S
C7 O13 1.268 . S
C7 O17 1.268 . S
C8 O14 1.268 . S
C8 O16 1.268 . S
C9 O15 1.268 . S
C9 O18 1.268 . S
O10 Sc0 2.105 . S
O10 C4 1.268 . S
O11 Sc1 2.105 . S
O11 C5 1.268 . S
O12 Sc2 2.105 . S
O12 C6 1.268 . S
O13 Sc0 2.105 . S
O13 C7 1.268 . S
O14 Sc2 2.105 . S
O14 C8 1.268 . S
O15 Sc1 2.105 . S
O15 C9 1.268 . S
O16 Sc0 2.105 . S
O16 C8 1.268 . S
O17 Sc1 2.105 . S
O17 C7 1.268 . S
O18 Sc2 2.105 . S
O18 C9 1.268 . S
O19 Sc0 2.105 . S
O19 C5 1.268 . S
O20 Sc2 2.105 . S
O20 C4 1.268 . S
O21 Sc1 2.105 . S
O21 C6 1.268 . S
Sc22 O25 2.025 . S
Sc22 O32 2.105 . S
Sc22 O35 2.105 . S
Sc22 O38 2.105 . S
Sc22 O41 2.105 . S
Sc23 O25 2.025 . S
Sc23 O33 2.105 . S
Sc23 O37 2.105 . S
Sc23 O39 2.105 . S
Sc23 O43 2.105 . S
Sc24 O25 2.025 . S
Sc24 O34 2.105 . S
Sc24 O36 2.105 . S
Sc24 O40 2.105 . S
Sc24 O42 2.105 . S
O25 Sc22 2.025 . S
O25 Sc23 2.025 . S
O25 Sc24 2.025 . S
C26 O32 1.268 . S
C26 O42 1.268 . S
C27 O33 1.268 . S
C27 O41 1.268 . S
C28 O34 1.268 . S
C28 O43 1.268 . S
C29 O35 1.268 . S
C29 O39 1.268 . S
C30 O36 1.268 . S
C30 O38 1.268 . S
C31 O37 1.268 . S
C31 O40 1.268 . S
O32 Sc22 2.105 . S
O32 C26 1.268 . S
O33 Sc23 2.105 . S
O33 C27 1.268 . S
O34 Sc24 2.105 . S
O34 C28 1.268 . S
O35 Sc22 2.105 . S
O35 C29 1.268 . S
O36 Sc24 2.105 . S
O36 C30 1.268 . S
O37 Sc23 2.105 . S
O37 C31 1.268 . S
O38 Sc22 2.105 . S
O38 C30 1.268 . S
O39 Sc23 2.105 . S
O39 C29 1.268 . S
O40 Sc24 2.105 . S
O40 C31 1.268 . S
O41 Sc22 2.105 . S
O41 C27 1.268 . S
O42 Sc24 2.105 . S
O42 C26 1.268 . S
O43 Sc23 2.105 . S
O43 C28 1.268 . S
Sc44 O47 2.025 . S
Sc44 O54 2.105 . S
Sc44 O57 2.105 . S
Sc44 O60 2.105 . S
Sc44 O63 2.105 . S
Sc45 O47 2.025 . S
Sc45 O55 2.105 . S
Sc45 O59 2.105 . S
Sc45 O61 2.105 . S
Sc45 O65 2.105 . S
Sc46 O47 2.025 . S
Sc46 O56 2.105 . S
Sc46 O58 2.105 . S
Sc46 O62 2.105 . S
Sc46 O64 2.105 . S
O47 Sc44 2.025 . S
O47 Sc45 2.025 . S
O47 Sc46 2.025 . S
C48 O54 1.268 . S
C48 O64 1.268 . S
C49 O55 1.268 . S
C49 O63 1.268 . S
C50 O56 1.268 . S
C50 O65 1.268 . S
C51 O57 1.268 . S
C51 O61 1.268 . S
C52 O58 1.268 . S
C52 O60 1.268 . S
C53 O59 1.268 . S
C53 O62 1.268 . S
O54 Sc44 2.105 . S
O54 C48 1.268 . S
O55 Sc45 2.105 . S
O55 C49 1.268 . S
O56 Sc46 2.105 . S
O56 C50 1.268 . S
O57 Sc44 2.105 . S
O57 C51 1.268 . S
O58 Sc46 2.105 . S
O58 C52 1.268 . S
O59 Sc45 2.105 . S
O59 C53 1.268 . S
O60 Sc44 2.105 . S
O60 C52 1.268 . S
O61 Sc45 2.105 . S
O61 C51 1.268 . S
O62 Sc46 2.105 . S
O62 C53 1.268 . S
O63 Sc44 2.105 . S
O63 C49 1.268 . S
O64 Sc46 2.105 . S
O64 C48 1.268 . S
O65 Sc45 2.105 . S
O65 C50 1.268 . S
Sc66 O69 2.025 . S
Sc66 O76 2.105 . S
Sc66 O79 2.105 . S
Sc66 O82 2.105 . S
Sc66 O85 2.105 . S
Sc67 O69 2.025 . S
Sc67 O77 2.105 . S
Sc67 O81 2.105 . S
Sc67 O83 2.105 . S
Sc67 O87 2.105 . S
Sc68 O69 2.025 . S
Sc68 O78 2.105 . S
Sc68 O80 2.105 . S
Sc68 O84 2.105 . S
Sc68 O86 2.105 . S
O69 Sc66 2.025 . S
O69 Sc67 2.025 . S
O69 Sc68 2.025 . S
C70 O76 1.268 . S
C70 O86 1.268 . S
C71 O77 1.268 . S
C71 O85 1.268 . S
C72 O78 1.268 . S
C72 O87 1.268 . S
C73 O79 1.268 . S
C73 O83 1.268 . S
C74 O80 1.268 . S
C74 O82 1.268 . S
C75 O81 1.268 . S
C75 O84 1.268 . S
O76 Sc66 2.105 . S
O76 C70 1.268 . S
O77 Sc67 2.105 . S
O77 C71 1.268 . S
O78 Sc68 2.105 . S
O78 C72 1.268 . S
O79 Sc66 2.105 . S
O79 C73 1.268 . S
O80 Sc68 2.105 . S
O80 C74 1.268 . S
O81 Sc67 2.105 . S
O81 C75 1.268 . S
O82 Sc66 2.105 . S
O82 C74 1.268 . S
O83 Sc67 2.105 . S
O83 C73 1.268 . S
O84 Sc68 2.105 . S
O84 C75 1.268 . S
O85 Sc66 2.105 . S
O85 C71 1.268 . S
O86 Sc68 2.105 . S
O86 C70 1.268 . S
O87 Sc67 2.105 . S
O87 C72 1.268 . S
Sc88 O91 2.025 . S
Sc88 O98 2.105 . S
Sc88 O101 2.105 . S
Sc88 O104 2.105 . S
Sc88 O107 2.105 . S
Sc89 O91 2.025 . S
Sc89 O99 2.105 . S
Sc89 O103 2.105 . S
Sc89 O105 2.105 . S
Sc89 O109 2.105 . S
Sc90 O91 2.025 . S
Sc90 O100 2.105 . S
Sc90 O102 2.105 . S
Sc90 O106 2.105 . S
Sc90 O108 2.105 . S
O91 Sc88 2.025 . S
O91 Sc89 2.025 . S
O91 Sc90 2.025 . S
C92 O98 1.268 . S
C92 O108 1.268 . S
C93 O99 1.268 . S
C93 O107 1.268 . S
C94 O100 1.268 . S
C94 O109 1.268 . S
C95 O101 1.268 . S
C95 O105 1.268 . S
C96 O102 1.268 . S
C96 O104 1.268 . S
C97 O103 1.268 . S
C97 O106 1.268 . S
O98 Sc88 2.105 . S
O98 C92 1.268 . S
O99 Sc89 2.105 . S
O99 C93 1.268 . S
O100 Sc90 2.105 . S
O100 C94 1.268 . S
O101 Sc88 2.105 . S
O101 C95 1.268 . S
O102 Sc90 2.105 . S
O102 C96 1.268 . S
O103 Sc89 2.105 . S
O103 C97 1.268 . S
O104 Sc88 2.105 . S
O104 C96 1.268 . S
O105 Sc89 2.105 . S
O105 C95 1.268 . S
O106 Sc90 2.105 . S
O106 C97 1.268 . S
O107 Sc88 2.105 . S
O107 C93 1.268 . S
O108 Sc90 2.105 . S
O108 C92 1.268 . S
O109 Sc89 2.105 . S
O109 C94 1.268 . S
Sc110 O113 2.025 . S
Sc110 O120 2.105 . S
Sc110 O123 2.105 . S
Sc110 O126 2.105 . S
Sc110 O129 2.105 . S
Sc111 O113 2.025 . S
Sc111 O121 2.105 . S
Sc111 O125 2.105 . S
Sc111 O127 2.105 . S
Sc111 O131 2.105 . S
Sc112 O113 2.025 . S
Sc112 O122 2.105 . S
Sc112 O124 2.105 . S
Sc112 O128 2.105 . S
Sc112 O130 2.105 . S
O113 Sc110 2.025 . S
O113 Sc111 2.025 . S
O113 Sc112 2.025 . S
C114 O120 1.268 . S
C114 O130 1.268 . S
C115 O121 1.268 . S
C115 O129 1.268 . S
C116 O122 1.268 . S
C116 O131 1.268 . S
C117 O123 1.268 . S
C117 O127 1.268 . S
C118 O124 1.268 . S
C118 O126 1.268 . S
C119 O125 1.268 . S
C119 O128 1.268 . S
O120 Sc110 2.105 . S
O120 C114 1.268 . S
O121 Sc111 2.105 . S
O121 C115 1.268 . S
O122 Sc112 2.105 . S
O122 C116 1.268 . S
O123 Sc110 2.105 . S
O123 C117 1.268 . S
O124 Sc112 2.105 . S
O124 C118 1.268 . S
O125 Sc111 2.105 . S
O125 C119 1.268 . S
O126 Sc110 2.105 . S
O126 C118 1.268 . S
O127 Sc111 2.105 . S
O127 C117 1.268 . S
O128 Sc112 2.105 . S
O128 C119 1.268 . S
O129 Sc110 2.105 . S
O129 C115 1.268 . S
O130 Sc112 2.105 . S
O130 C114 1.268 . S
O131 Sc111 2.105 . S
O131 C116 1.268 . S
Sc132 O135 2.025 . S
Sc132 O142 2.105 . S
Sc132 O145 2.105 . S
Sc132 O148 2.105 . S
Sc132 O151 2.105 . S
Sc133 O135 2.025 . S
Sc133 O143 2.105 . S
Sc133 O147 2.105 . S
Sc133 O149 2.105 . S
Sc133 O153 2.105 . S
Sc134 O135 2.025 . S
Sc134 O144 2.105 . S
Sc134 O146 2.105 . S
Sc134 O150 2.105 . S
Sc134 O152 2.105 . S
O135 Sc132 2.025 . S
O135 Sc133 2.025 . S
O135 Sc134 2.025 . S
C136 O142 1.268 . S
C136 O152 1.268 . S
C137 O143 1.268 . S
C137 O151 1.268 . S
C138 O144 1.268 . S
C138 O153 1.268 . S
C139 O145 1.268 . S
C139 O149 1.268 . S
C140 O146 1.268 . S
C140 O148 1.268 . S
C141 O147 1.268 . S
C141 O150 1.268 . S
O142 Sc132 2.105 . S
O142 C136 1.268 . S
O143 Sc133 2.105 . S
O143 C137 1.268 . S
O144 Sc134 2.105 . S
O144 C138 1.268 . S
O145 Sc132 2.105 . S
O145 C139 1.268 . S
O146 Sc134 2.105 . S
O146 C140 1.268 . S
O147 Sc133 2.105 . S
O147 C141 1.268 . S
O148 Sc132 2.105 . S
O148 C140 1.268 . S
O149 Sc133 2.105 . S
O149 C139 1.268 . S
O150 Sc134 2.105 . S
O150 C141 1.268 . S
O151 Sc132 2.105 . S
O151 C137 1.268 . S
O152 Sc134 2.105 . S
O152 C136 1.268 . S
O153 Sc133 2.105 . S
O153 C138 1.268 . S
Sc154 O157 2.025 . S
Sc154 O164 2.105 . S
Sc154 O167 2.105 . S
Sc154 O170 2.105 . S
Sc154 O173 2.105 . S
Sc155 O157 2.025 . S
Sc155 O165 2.105 . S
Sc155 O169 2.105 . S
Sc155 O171 2.105 . S
Sc155 O175 2.105 . S
Sc156 O157 2.025 . S
Sc156 O166 2.105 . S
Sc156 O168 2.105 . S
Sc156 O172 2.105 . S
Sc156 O174 2.105 . S
O157 Sc154 2.025 . S
O157 Sc155 2.025 . S
O157 Sc156 2.025 . S
C158 O164 1.268 . S
C158 O174 1.268 . S
C159 O165 1.268 . S
C159 O173 1.268 . S
C160 O166 1.268 . S
C160 O175 1.268 . S
C161 O167 1.268 . S
C161 O171 1.268 . S
C162 O168 1.268 . S
C162 O170 1.268 . S
C163 O169 1.268 . S
C163 O172 1.268 . S
O164 Sc154 2.105 . S
O164 C158 1.268 . S
O165 Sc155 2.105 . S
O165 C159 1.268 . S
O166 Sc156 2.105 . S
O166 C160 1.268 . S
O167 Sc154 2.105 . S
O167 C161 1.268 . S
O168 Sc156 2.105 . S
O168 C162 1.268 . S
O169 Sc155 2.105 . S
O169 C163 1.268 . S
O170 Sc154 2.105 . S
O170 C162 1.268 . S
O171 Sc155 2.105 . S
O171 C161 1.268 . S
O172 Sc156 2.105 . S
O172 C163 1.268 . S
O173 Sc154 2.105 . S
O173 C159 1.268 . S
O174 Sc156 2.105 . S
O174 C158 1.268 . S
O175 Sc155 2.105 . S
O175 C160 1.268 . S
Sc176 O179 2.025 . S
Sc176 O186 2.105 . S
Sc176 O189 2.105 . S
Sc176 O192 2.105 . S
Sc176 O195 2.105 . S
Sc177 O179 2.025 . S
Sc177 O187 2.105 . S
Sc177 O191 2.105 . S
Sc177 O193 2.105 . S
Sc177 O197 2.105 . S
Sc178 O179 2.025 . S
Sc178 O188 2.105 . S
Sc178 O190 2.105 . S
Sc178 O194 2.105 . S
Sc178 O196 2.105 . S
O179 Sc176 2.025 . S
O179 Sc177 2.025 . S
O179 Sc178 2.025 . S
C180 O186 1.268 . S
C180 O196 1.268 . S
C181 O187 1.268 . S
C181 O195 1.268 . S
C182 O188 1.268 . S
C182 O197 1.268 . S
C183 O189 1.268 . S
C183 O193 1.268 . S
C184 O190 1.268 . S
C184 O192 1.268 . S
C185 O191 1.268 . S
C185 O194 1.268 . S
O186 Sc176 2.105 . S
O186 C180 1.268 . S
O187 Sc177 2.105 . S
O187 C181 1.268 . S
O188 Sc178 2.105 . S
O188 C182 1.268 . S
O189 Sc176 2.105 . S
O189 C183 1.268 . S
O190 Sc178 2.105 . S
O190 C184 1.268 . S
O191 Sc177 2.105 . S
O191 C185 1.268 . S
O192 Sc176 2.105 . S
O192 C184 1.268 . S
O193 Sc177 2.105 . S
O193 C183 1.268 . S
O194 Sc178 2.105 . S
O194 C185 1.268 . S
O195 Sc176 2.105 . S
O195 C181 1.268 . S
O196 Sc178 2.105 . S
O196 C180 1.268 . S
O197 Sc177 2.105 . S
O197 C182 1.268 . S
Sc198 O201 2.025 . S
Sc198 O208 2.105 . S
Sc198 O211 2.105 . S
Sc198 O214 2.105 . S
Sc198 O217 2.105 . S
Sc199 O201 2.025 . S
Sc199 O209 2.105 . S
Sc199 O213 2.105 . S
Sc199 O215 2.105 . S
Sc199 O219 2.105 . S
Sc200 O201 2.025 . S
Sc200 O210 2.105 . S
Sc200 O212 2.105 . S
Sc200 O216 2.105 . S
Sc200 O218 2.105 . S
O201 Sc198 2.025 . S
O201 Sc199 2.025 . S
O201 Sc200 2.025 . S
C202 O208 1.268 . S
C202 O218 1.268 . S
C203 O209 1.268 . S
C203 O217 1.268 . S
C204 O210 1.268 . S
C204 O219 1.268 . S
C205 O211 1.268 . S
C205 O215 1.268 . S
C206 O212 1.268 . S
C206 O214 1.268 . S
C207 O213 1.268 . S
C207 O216 1.268 . S
O208 Sc198 2.105 . S
O208 C202 1.268 . S
O209 Sc199 2.105 . S
O209 C203 1.268 . S
O210 Sc200 2.105 . S
O210 C204 1.268 . S
O211 Sc198 2.105 . S
O211 C205 1.268 . S
O212 Sc200 2.105 . S
O212 C206 1.268 . S
O213 Sc199 2.105 . S
O213 C207 1.268 . S
O214 Sc198 2.105 . S
O214 C206 1.268 . S
O215 Sc199 2.105 . S
O215 C205 1.268 . S
O216 Sc200 2.105 . S
O216 C207 1.268 . S
O217 Sc198 2.105 . S
O217 C203 1.268 . S
O218 Sc200 2.105 . S
O218 C202 1.268 . S
O219 Sc199 2.105 . S
O219 C204 1.268 . S
Sc220 O223 2.025 . S
Sc220 O230 2.105 . S
Sc220 O233 2.105 . S
Sc220 O236 2.105 . S
Sc220 O239 2.105 . S
Sc221 O223 2.025 . S
Sc221 O231 2.105 . S
Sc221 O235 2.105 . S
Sc221 O237 2.105 . S
Sc221 O241 2.105 . S
Sc222 O223 2.025 . S
Sc222 O232 2.105 . S
Sc222 O234 2.105 . S
Sc222 O238 2.105 . S
Sc222 O240 2.105 . S
O223 Sc220 2.025 . S
O223 Sc221 2.025 . S
O223 Sc222 2.025 . S
C224 O230 1.268 . S
C224 O240 1.268 . S
C225 O231 1.268 . S
C225 O239 1.268 . S
C226 O232 1.268 . S
C226 O241 1.268 . S
C227 O233 1.268 . S
C227 O237 1.268 . S
C228 O234 1.268 . S
C228 O236 1.268 . S
C229 O235 1.268 . S
C229 O238 1.268 . S
O230 Sc220 2.105 . S
O230 C224 1.268 . S
O231 Sc221 2.105 . S
O231 C225 1.268 . S
O232 Sc222 2.105 . S
O232 C226 1.268 . S
O233 Sc220 2.105 . S
O233 C227 1.268 . S
O234 Sc222 2.105 . S
O234 C228 1.268 . S
O235 Sc221 2.105 . S
O235 C229 1.268 . S
O236 Sc220 2.105 . S
O236 C228 1.268 . S
O237 Sc221 2.105 . S
O237 C227 1.268 . S
O238 Sc222 2.105 . S
O238 C229 1.268 . S
O239 Sc220 2.105 . S
O239 C225 1.268 . S
O240 Sc222 2.105 . S
O240 C224 1.268 . S
O241 Sc221 2.105 . S
O241 C226 1.268 . S
Sc242 O245 2.025 . S
Sc242 O252 2.105 . S
Sc242 O255 2.105 . S
Sc242 O258 2.105 . S
Sc242 O261 2.105 . S
Sc243 O245 2.025 . S
Sc243 O253 2.105 . S
Sc243 O257 2.105 . S
Sc243 O259 2.105 . S
Sc243 O263 2.105 . S
Sc244 O245 2.025 . S
Sc244 O254 2.105 . S
Sc244 O256 2.105 . S
Sc244 O260 2.105 . S
Sc244 O262 2.105 . S
O245 Sc242 2.025 . S
O245 Sc243 2.025 . S
O245 Sc244 2.025 . S
C246 O252 1.268 . S
C246 O262 1.268 . S
C247 O253 1.268 . S
C247 O261 1.268 . S
C248 O254 1.268 . S
C248 O263 1.268 . S
C249 O255 1.268 . S
C249 O259 1.268 . S
C250 O256 1.268 . S
C250 O258 1.268 . S
C251 O257 1.268 . S
C251 O260 1.268 . S
O252 Sc242 2.105 . S
O252 C246 1.268 . S
O253 Sc243 2.105 . S
O253 C247 1.268 . S
O254 Sc244 2.105 . S
O254 C248 1.268 . S
O255 Sc242 2.105 . S
O255 C249 1.268 . S
O256 Sc244 2.105 . S
O256 C250 1.268 . S
O257 Sc243 2.105 . S
O257 C251 1.268 . S
O258 Sc242 2.105 . S
O258 C250 1.268 . S
O259 Sc243 2.105 . S
O259 C249 1.268 . S
O260 Sc244 2.105 . S
O260 C251 1.268 . S
O261 Sc242 2.105 . S
O261 C247 1.268 . S
O262 Sc244 2.105 . S
O262 C246 1.268 . S
O263 Sc243 2.105 . S
O263 C248 1.268 . S
Sc264 O267 2.025 . S
Sc264 O274 2.105 . S
Sc264 O277 2.105 . S
Sc264 O280 2.105 . S
Sc264 O283 2.105 . S
Sc265 O267 2.025 . S
Sc265 O275 2.105 . S
Sc265 O279 2.105 . S
Sc265 O281 2.105 . S
Sc265 O285 2.105 . S
Sc266 O267 2.025 . S
Sc266 O276 2.105 . S
Sc266 O278 2.105 . S
Sc266 O282 2.105 . S
Sc266 O284 2.105 . S
O267 Sc264 2.025 . S
O267 Sc265 2.025 . S
O267 Sc266 2.025 . S
C268 O274 1.268 . S
C268 O284 1.268 . S
C269 O275 1.268 . S
C269 O283 1.268 . S
C270 O276 1.268 . S
C270 O285 1.268 . S
C271 O277 1.268 . S
C271 O281 1.268 . S
C272 O278 1.268 . S
C272 O280 1.268 . S
C273 O279 1.268 . S
C273 O282 1.268 . S
O274 Sc264 2.105 . S
O274 C268 1.268 . S
O275 Sc265 2.105 . S
O275 C269 1.268 . S
O276 Sc266 2.105 . S
O276 C270 1.268 . S
O277 Sc264 2.105 . S
O277 C271 1.268 . S
O278 Sc266 2.105 . S
O278 C272 1.268 . S
O279 Sc265 2.105 . S
O279 C273 1.268 . S
O280 Sc264 2.105 . S
O280 C272 1.268 . S
O281 Sc265 2.105 . S
O281 C271 1.268 . S
O282 Sc266 2.105 . S
O282 C273 1.268 . S
O283 Sc264 2.105 . S
O283 C269 1.268 . S
O284 Sc266 2.105 . S
O284 C268 1.268 . S
O285 Sc265 2.105 . S
O285 C270 1.268 . S
Sc286 O289 2.025 . S
Sc286 O296 2.105 . S
Sc286 O299 2.105 . S
Sc286 O302 2.105 . S
Sc286 O305 2.105 . S
Sc287 O289 2.025 . S
Sc287 O297 2.105 . S
Sc287 O301 2.105 . S
Sc287 O303 2.105 . S
Sc287 O307 2.105 . S
Sc288 O289 2.025 . S
Sc288 O298 2.105 . S
Sc288 O300 2.105 . S
Sc288 O304 2.105 . S
Sc288 O306 2.105 . S
O289 Sc286 2.025 . S
O289 Sc287 2.025 . S
O289 Sc288 2.025 . S
C290 O296 1.268 . S
C290 O306 1.268 . S
C291 O297 1.268 . S
C291 O305 1.268 . S
C292 O298 1.268 . S
C292 O307 1.268 . S
C293 O299 1.268 . S
C293 O303 1.268 . S
C294 O300 1.268 . S
C294 O302 1.268 . S
C295 O301 1.268 . S
C295 O304 1.268 . S
O296 Sc286 2.105 . S
O296 C290 1.268 . S
O297 Sc287 2.105 . S
O297 C291 1.268 . S
O298 Sc288 2.105 . S
O298 C292 1.268 . S
O299 Sc286 2.105 . S
O299 C293 1.268 . S
O300 Sc288 2.105 . S
O300 C294 1.268 . S
O301 Sc287 2.105 . S
O301 C295 1.268 . S
O302 Sc286 2.105 . S
O302 C294 1.268 . S
O303 Sc287 2.105 . S
O303 C293 1.268 . S
O304 Sc288 2.105 . S
O304 C295 1.268 . S
O305 Sc286 2.105 . S
O305 C291 1.268 . S
O306 Sc288 2.105 . S
O306 C290 1.268 . S
O307 Sc287 2.105 . S
O307 C292 1.268 . S
Sc308 O311 2.025 . S
Sc308 O318 2.105 . S
Sc308 O321 2.105 . S
Sc308 O324 2.105 . S
Sc308 O327 2.105 . S
Sc309 O311 2.025 . S
Sc309 O319 2.105 . S
Sc309 O323 2.105 . S
Sc309 O325 2.105 . S
Sc309 O329 2.105 . S
Sc310 O311 2.025 . S
Sc310 O320 2.105 . S
Sc310 O322 2.105 . S
Sc310 O326 2.105 . S
Sc310 O328 2.105 . S
O311 Sc308 2.025 . S
O311 Sc309 2.025 . S
O311 Sc310 2.025 . S
C312 O318 1.268 . S
C312 O328 1.268 . S
C313 O319 1.268 . S
C313 O327 1.268 . S
C314 O320 1.268 . S
C314 O329 1.268 . S
C315 O321 1.268 . S
C315 O325 1.268 . S
C316 O322 1.268 . S
C316 O324 1.268 . S
C317 O323 1.268 . S
C317 O326 1.268 . S
O318 Sc308 2.105 . S
O318 C312 1.268 . S
O319 Sc309 2.105 . S
O319 C313 1.268 . S
O320 Sc310 2.105 . S
O320 C314 1.268 . S
O321 Sc308 2.105 . S
O321 C315 1.268 . S
O322 Sc310 2.105 . S
O322 C316 1.268 . S
O323 Sc309 2.105 . S
O323 C317 1.268 . S
O324 Sc308 2.105 . S
O324 C316 1.268 . S
O325 Sc309 2.105 . S
O325 C315 1.268 . S
O326 Sc310 2.105 . S
O326 C317 1.268 . S
O327 Sc308 2.105 . S
O327 C313 1.268 . S
O328 Sc310 2.105 . S
O328 C312 1.268 . S
O329 Sc309 2.105 . S
O329 C314 1.268 . S
Sc330 O333 2.025 . S
Sc330 O340 2.105 . S
Sc330 O343 2.105 . S
Sc330 O346 2.105 . S
Sc330 O349 2.105 . S
Sc331 O333 2.025 . S
Sc331 O341 2.105 . S
Sc331 O345 2.105 . S
Sc331 O347 2.105 . S
Sc331 O351 2.105 . S
Sc332 O333 2.025 . S
Sc332 O342 2.105 . S
Sc332 O344 2.105 . S
Sc332 O348 2.105 . S
Sc332 O350 2.105 . S
O333 Sc330 2.025 . S
O333 Sc331 2.025 . S
O333 Sc332 2.025 . S
C334 O340 1.268 . S
C334 O350 1.268 . S
C335 O341 1.268 . S
C335 O349 1.268 . S
C336 O342 1.268 . S
C336 O351 1.268 . S
C337 O343 1.268 . S
C337 O347 1.268 . S
C338 O344 1.268 . S
C338 O346 1.268 . S
C339 O345 1.268 . S
C339 O348 1.268 . S
O340 Sc330 2.105 . S
O340 C334 1.268 . S
O341 Sc331 2.105 . S
O341 C335 1.268 . S
O342 Sc332 2.105 . S
O342 C336 1.268 . S
O343 Sc330 2.105 . S
O343 C337 1.268 . S
O344 Sc332 2.105 . S
O344 C338 1.268 . S
O345 Sc331 2.105 . S
O345 C339 1.268 . S
O346 Sc330 2.105 . S
O346 C338 1.268 . S
O347 Sc331 2.105 . S
O347 C337 1.268 . S
O348 Sc332 2.105 . S
O348 C339 1.268 . S
O349 Sc330 2.105 . S
O349 C335 1.268 . S
O350 Sc332 2.105 . S
O350 C334 1.268 . S
O351 Sc331 2.105 . S
O351 C336 1.268 . S
Sc352 O355 2.025 . S
Sc352 O362 2.105 . S
Sc352 O365 2.105 . S
Sc352 O368 2.105 . S
Sc352 O371 2.105 . S
Sc353 O355 2.025 . S
Sc353 O363 2.105 . S
Sc353 O367 2.105 . S
Sc353 O369 2.105 . S
Sc353 O373 2.105 . S
Sc354 O355 2.025 . S
Sc354 O364 2.105 . S
Sc354 O366 2.105 . S
Sc354 O370 2.105 . S
Sc354 O372 2.105 . S
O355 Sc352 2.025 . S
O355 Sc353 2.025 . S
O355 Sc354 2.025 . S
C356 O362 1.268 . S
C356 O372 1.268 . S
C357 O363 1.268 . S
C357 O371 1.268 . S
C358 O364 1.268 . S
C358 O373 1.268 . S
C359 O365 1.268 . S
C359 O369 1.268 . S
C360 O366 1.268 . S
C360 O368 1.268 . S
C361 O367 1.268 . S
C361 O370 1.268 . S
O362 Sc352 2.105 . S
O362 C356 1.268 . S
O363 Sc353 2.105 . S
O363 C357 1.268 . S
O364 Sc354 2.105 . S
O364 C358 1.268 . S
O365 Sc352 2.105 . S
O365 C359 1.268 . S
O366 Sc354 2.105 . S
O366 C360 1.268 . S
O367 Sc353 2.105 . S
O367 C361 1.268 . S
O368 Sc352 2.105 . S
O368 C360 1.268 . S
O369 Sc353 2.105 . S
O369 C359 1.268 . S
O370 Sc354 2.105 . S
O370 C361 1.268 . S
O371 Sc352 2.105 . S
O371 C357 1.268 . S
O372 Sc354 2.105 . S
O372 C356 1.268 . S
O373 Sc353 2.105 . S
O373 C358 1.268 . S
Sc374 O377 2.025 . S
Sc374 O384 2.105 . S
Sc374 O387 2.105 . S
Sc374 O390 2.105 . S
Sc374 O393 2.105 . S
Sc375 O377 2.025 . S
Sc375 O385 2.105 . S
Sc375 O389 2.105 . S
Sc375 O391 2.105 . S
Sc375 O395 2.105 . S
Sc376 O377 2.025 . S
Sc376 O386 2.105 . S
Sc376 O388 2.105 . S
Sc376 O392 2.105 . S
Sc376 O394 2.105 . S
O377 Sc374 2.025 . S
O377 Sc375 2.025 . S
O377 Sc376 2.025 . S
C378 O384 1.268 . S
C378 O394 1.268 . S
C379 O385 1.268 . S
C379 O393 1.268 . S
C380 O386 1.268 . S
C380 O395 1.268 . S
C381 O387 1.268 . S
C381 O391 1.268 . S
C382 O388 1.268 . S
C382 O390 1.268 . S
C383 O389 1.268 . S
C383 O392 1.268 . S
O384 Sc374 2.105 . S
O384 C378 1.268 . S
O385 Sc375 2.105 . S
O385 C379 1.268 . S
O386 Sc376 2.105 . S
O386 C380 1.268 . S
O387 Sc374 2.105 . S
O387 C381 1.268 . S
O388 Sc376 2.105 . S
O388 C382 1.268 . S
O389 Sc375 2.105 . S
O389 C383 1.268 . S
O390 Sc374 2.105 . S
O390 C382 1.268 . S
O391 Sc375 2.105 . S
O391 C381 1.268 . S
O392 Sc376 2.105 . S
O392 C383 1.268 . S
O393 Sc374 2.105 . S
O393 C379 1.268 . S
O394 Sc376 2.105 . S
O394 C378 1.268 . S
O395 Sc375 2.105 . S
O395 C380 1.268 . S
Sc396 O399 2.025 . S
Sc396 O406 2.105 . S
Sc396 O409 2.105 . S
Sc396 O412 2.105 . S
Sc396 O415 2.105 . S
Sc397 O399 2.025 . S
Sc397 O407 2.105 . S
Sc397 O411 2.105 . S
Sc397 O413 2.105 . S
Sc397 O417 2.105 . S
Sc398 O399 2.025 . S
Sc398 O408 2.105 . S
Sc398 O410 2.105 . S
Sc398 O414 2.105 . S
Sc398 O416 2.105 . S
O399 Sc396 2.025 . S
O399 Sc397 2.025 . S
O399 Sc398 2.025 . S
C400 O406 1.268 . S
C400 O416 1.268 . S
C401 O407 1.268 . S
C401 O415 1.268 . S
C402 O408 1.268 . S
C402 O417 1.268 . S
C403 O409 1.268 . S
C403 O413 1.268 . S
C404 O410 1.268 . S
C404 O412 1.268 . S
C405 O411 1.268 . S
C405 O414 1.268 . S
O406 Sc396 2.105 . S
O406 C400 1.268 . S
O407 Sc397 2.105 . S
O407 C401 1.268 . S
O408 Sc398 2.105 . S
O408 C402 1.268 . S
O409 Sc396 2.105 . S
O409 C403 1.268 . S
O410 Sc398 2.105 . S
O410 C404 1.268 . S
O411 Sc397 2.105 . S
O411 C405 1.268 . S
O412 Sc396 2.105 . S
O412 C404 1.268 . S
O413 Sc397 2.105 . S
O413 C403 1.268 . S
O414 Sc398 2.105 . S
O414 C405 1.268 . S
O415 Sc396 2.105 . S
O415 C401 1.268 . S
O416 Sc398 2.105 . S
O416 C400 1.268 . S
O417 Sc397 2.105 . S
O417 C402 1.268 . S
Sc418 O421 2.025 . S
Sc418 O428 2.105 . S
Sc418 O431 2.105 . S
Sc418 O434 2.105 . S
Sc418 O437 2.105 . S
Sc419 O421 2.025 . S
Sc419 O429 2.105 . S
Sc419 O433 2.105 . S
Sc419 O435 2.105 . S
Sc419 O439 2.105 . S
Sc420 O421 2.025 . S
Sc420 O430 2.105 . S
Sc420 O432 2.105 . S
Sc420 O436 2.105 . S
Sc420 O438 2.105 . S
O421 Sc418 2.025 . S
O421 Sc419 2.025 . S
O421 Sc420 2.025 . S
C422 O428 1.268 . S
C422 O438 1.268 . S
C423 O429 1.268 . S
C423 O437 1.268 . S
C424 O430 1.268 . S
C424 O439 1.268 . S
C425 O431 1.268 . S
C425 O435 1.268 . S
C426 O432 1.268 . S
C426 O434 1.268 . S
C427 O433 1.268 . S
C427 O436 1.268 . S
O428 Sc418 2.105 . S
O428 C422 1.268 . S
O429 Sc419 2.105 . S
O429 C423 1.268 . S
O430 Sc420 2.105 . S
O430 C424 1.268 . S
O431 Sc418 2.105 . S
O431 C425 1.268 . S
O432 Sc420 2.105 . S
O432 C426 1.268 . S
O433 Sc419 2.105 . S
O433 C427 1.268 . S
O434 Sc418 2.105 . S
O434 C426 1.268 . S
O435 Sc419 2.105 . S
O435 C425 1.268 . S
O436 Sc420 2.105 . S
O436 C427 1.268 . S
O437 Sc418 2.105 . S
O437 C423 1.268 . S
O438 Sc420 2.105 . S
O438 C422 1.268 . S
O439 Sc419 2.105 . S
O439 C424 1.268 . S
Sc440 O443 2.025 . S
Sc440 O450 2.105 . S
Sc440 O453 2.105 . S
Sc440 O456 2.105 . S
Sc440 O459 2.105 . S
Sc441 O443 2.025 . S
Sc441 O451 2.105 . S
Sc441 O455 2.105 . S
Sc441 O457 2.105 . S
Sc441 O461 2.105 . S
Sc442 O443 2.025 . S
Sc442 O452 2.105 . S
Sc442 O454 2.105 . S
Sc442 O458 2.105 . S
Sc442 O460 2.105 . S
O443 Sc440 2.025 . S
O443 Sc441 2.025 . S
O443 Sc442 2.025 . S
C444 O450 1.268 . S
C444 O460 1.268 . S
C445 O451 1.268 . S
C445 O459 1.268 . S
C446 O452 1.268 . S
C446 O461 1.268 . S
C447 O453 1.268 . S
C447 O457 1.268 . S
C448 O454 1.268 . S
C448 O456 1.268 . S
C449 O455 1.268 . S
C449 O458 1.268 . S
O450 Sc440 2.105 . S
O450 C444 1.268 . S
O451 Sc441 2.105 . S
O451 C445 1.268 . S
O452 Sc442 2.105 . S
O452 C446 1.268 . S
O453 Sc440 2.105 . S
O453 C447 1.268 . S
O454 Sc442 2.105 . S
O454 C448 1.268 . S
O455 Sc441 2.105 . S
O455 C449 1.268 . S
O456 Sc440 2.105 . S
O456 C448 1.268 . S
O457 Sc441 2.105 . S
O457 C447 1.268 . S
O458 Sc442 2.105 . S
O458 C449 1.268 . S
O459 Sc440 2.105 . S
O459 C445 1.268 . S
O460 Sc442 2.105 . S
O460 C444 1.268 . S
O461 Sc441 2.105 . S
O461 C446 1.268 . S
Sc462 O465 2.025 . S
Sc462 O472 2.105 . S
Sc462 O475 2.105 . S
Sc462 O478 2.105 . S
Sc462 O481 2.105 . S
Sc463 O465 2.025 . S
Sc463 O473 2.105 . S
Sc463 O477 2.105 . S
Sc463 O479 2.105 . S
Sc463 O483 2.105 . S
Sc464 O465 2.025 . S
Sc464 O474 2.105 . S
Sc464 O476 2.105 . S
Sc464 O480 2.105 . S
Sc464 O482 2.105 . S
O465 Sc462 2.025 . S
O465 Sc463 2.025 . S
O465 Sc464 2.025 . S
C466 O472 1.268 . S
C466 O482 1.268 . S
C467 O473 1.268 . S
C467 O481 1.268 . S
C468 O474 1.268 . S
C468 O483 1.268 . S
C469 O475 1.268 . S
C469 O479 1.268 . S
C470 O476 1.268 . S
C470 O478 1.268 . S
C471 O477 1.268 . S
C471 O480 1.268 . S
O472 Sc462 2.105 . S
O472 C466 1.268 . S
O473 Sc463 2.105 . S
O473 C467 1.268 . S
O474 Sc464 2.105 . S
O474 C468 1.268 . S
O475 Sc462 2.105 . S
O475 C469 1.268 . S
O476 Sc464 2.105 . S
O476 C470 1.268 . S
O477 Sc463 2.105 . S
O477 C471 1.268 . S
O478 Sc462 2.105 . S
O478 C470 1.268 . S
O479 Sc463 2.105 . S
O479 C469 1.268 . S
O480 Sc464 2.105 . S
O480 C471 1.268 . S
O481 Sc462 2.105 . S
O481 C467 1.268 . S
O482 Sc464 2.105 . S
O482 C466 1.268 . S
O483 Sc463 2.105 . S
O483 C468 1.268 . S
Sc484 O487 2.025 . S
Sc484 O494 2.105 . S
Sc484 O497 2.105 . S
Sc484 O500 2.105 . S
Sc484 O503 2.105 . S
Sc485 O487 2.025 . S
Sc485 O495 2.105 . S
Sc485 O499 2.105 . S
Sc485 O501 2.105 . S
Sc485 O505 2.105 . S
Sc486 O487 2.025 . S
Sc486 O496 2.105 . S
Sc486 O498 2.105 . S
Sc486 O502 2.105 . S
Sc486 O504 2.105 . S
O487 Sc484 2.025 . S
O487 Sc485 2.025 . S
O487 Sc486 2.025 . S
C488 O494 1.268 . S
C488 O504 1.268 . S
C489 O495 1.268 . S
C489 O503 1.268 . S
C490 O496 1.268 . S
C490 O505 1.268 . S
C491 O497 1.268 . S
C491 O501 1.268 . S
C492 O498 1.268 . S
C492 O500 1.268 . S
C493 O499 1.268 . S
C493 O502 1.268 . S
O494 Sc484 2.105 . S
O494 C488 1.268 . S
O495 Sc485 2.105 . S
O495 C489 1.268 . S
O496 Sc486 2.105 . S
O496 C490 1.268 . S
O497 Sc484 2.105 . S
O497 C491 1.268 . S
O498 Sc486 2.105 . S
O498 C492 1.268 . S
O499 Sc485 2.105 . S
O499 C493 1.268 . S
O500 Sc484 2.105 . S
O500 C492 1.268 . S
O501 Sc485 2.105 . S
O501 C491 1.268 . S
O502 Sc486 2.105 . S
O502 C493 1.268 . S
O503 Sc484 2.105 . S
O503 C489 1.268 . S
O504 Sc486 2.105 . S
O504 C488 1.268 . S
O505 Sc485 2.105 . S
O505 C490 1.268 . S
Sc506 O509 2.025 . S
Sc506 O516 2.105 . S
Sc506 O519 2.105 . S
Sc506 O522 2.105 . S
Sc506 O525 2.105 . S
Sc507 O509 2.025 . S
Sc507 O517 2.105 . S
Sc507 O521 2.105 . S
Sc507 O523 2.105 . S
Sc507 O527 2.105 . S
Sc508 O509 2.025 . S
Sc508 O518 2.105 . S
Sc508 O520 2.105 . S
Sc508 O524 2.105 . S
Sc508 O526 2.105 . S
O509 Sc506 2.025 . S
O509 Sc507 2.025 . S
O509 Sc508 2.025 . S
C510 O516 1.268 . S
C510 O526 1.268 . S
C511 O517 1.268 . S
C511 O525 1.268 . S
C512 O518 1.268 . S
C512 O527 1.268 . S
C513 O519 1.268 . S
C513 O523 1.268 . S
C514 O520 1.268 . S
C514 O522 1.268 . S
C515 O521 1.268 . S
C515 O524 1.268 . S
O516 Sc506 2.105 . S
O516 C510 1.268 . S
O517 Sc507 2.105 . S
O517 C511 1.268 . S
O518 Sc508 2.105 . S
O518 C512 1.268 . S
O519 Sc506 2.105 . S
O519 C513 1.268 . S
O520 Sc508 2.105 . S
O520 C514 1.268 . S
O521 Sc507 2.105 . S
O521 C515 1.268 . S
O522 Sc506 2.105 . S
O522 C514 1.268 . S
O523 Sc507 2.105 . S
O523 C513 1.268 . S
O524 Sc508 2.105 . S
O524 C515 1.268 . S
O525 Sc506 2.105 . S
O525 C511 1.268 . S
O526 Sc508 2.105 . S
O526 C510 1.268 . S
O527 Sc507 2.105 . S
O527 C512 1.268 . S
Sc528 O531 2.025 . S
Sc528 O538 2.105 . S
Sc528 O541 2.105 . S
Sc528 O544 2.105 . S
Sc528 O547 2.105 . S
Sc529 O531 2.025 . S
Sc529 O539 2.105 . S
Sc529 O543 2.105 . S
Sc529 O545 2.105 . S
Sc529 O549 2.105 . S
Sc530 O531 2.025 . S
Sc530 O540 2.105 . S
Sc530 O542 2.105 . S
Sc530 O546 2.105 . S
Sc530 O548 2.105 . S
O531 Sc528 2.025 . S
O531 Sc529 2.025 . S
O531 Sc530 2.025 . S
C532 O538 1.268 . S
C532 O548 1.268 . S
C533 O539 1.268 . S
C533 O547 1.268 . S
C534 O540 1.268 . S
C534 O549 1.268 . S
C535 O541 1.268 . S
C535 O545 1.268 . S
C536 O542 1.268 . S
C536 O544 1.268 . S
C537 O543 1.268 . S
C537 O546 1.268 . S
O538 Sc528 2.105 . S
O538 C532 1.268 . S
O539 Sc529 2.105 . S
O539 C533 1.268 . S
O540 Sc530 2.105 . S
O540 C534 1.268 . S
O541 Sc528 2.105 . S
O541 C535 1.268 . S
O542 Sc530 2.105 . S
O542 C536 1.268 . S
O543 Sc529 2.105 . S
O543 C537 1.268 . S
O544 Sc528 2.105 . S
O544 C536 1.268 . S
O545 Sc529 2.105 . S
O545 C535 1.268 . S
O546 Sc530 2.105 . S
O546 C537 1.268 . S
O547 Sc528 2.105 . S
O547 C533 1.268 . S
O548 Sc530 2.105 . S
O548 C532 1.268 . S
O549 Sc529 2.105 . S
O549 C534 1.268 . S
Sc550 O553 2.025 . S
Sc550 O560 2.105 . S
Sc550 O563 2.105 . S
Sc550 O566 2.105 . S
Sc550 O569 2.105 . S
Sc551 O553 2.025 . S
Sc551 O561 2.105 . S
Sc551 O565 2.105 . S
Sc551 O567 2.105 . S
Sc551 O571 2.105 . S
Sc552 O553 2.025 . S
Sc552 O562 2.105 . S
Sc552 O564 2.105 . S
Sc552 O568 2.105 . S
Sc552 O570 2.105 . S
O553 Sc550 2.025 . S
O553 Sc551 2.025 . S
O553 Sc552 2.025 . S
C554 O560 1.268 . S
C554 O570 1.268 . S
C555 O561 1.268 . S
C555 O569 1.268 . S
C556 O562 1.268 . S
C556 O571 1.268 . S
C557 O563 1.268 . S
C557 O567 1.268 . S
C558 O564 1.268 . S
C558 O566 1.268 . S
C559 O565 1.268 . S
C559 O568 1.268 . S
O560 Sc550 2.105 . S
O560 C554 1.268 . S
O561 Sc551 2.105 . S
O561 C555 1.268 . S
O562 Sc552 2.105 . S
O562 C556 1.268 . S
O563 Sc550 2.105 . S
O563 C557 1.268 . S
O564 Sc552 2.105 . S
O564 C558 1.268 . S
O565 Sc551 2.105 . S
O565 C559 1.268 . S
O566 Sc550 2.105 . S
O566 C558 1.268 . S
O567 Sc551 2.105 . S
O567 C557 1.268 . S
O568 Sc552 2.105 . S
O568 C559 1.268 . S
O569 Sc550 2.105 . S
O569 C555 1.268 . S
O570 Sc552 2.105 . S
O570 C554 1.268 . S
O571 Sc551 2.105 . S
O571 C556 1.268 . S
Sc572 O575 2.025 . S
Sc572 O582 2.105 . S
Sc572 O585 2.105 . S
Sc572 O588 2.105 . S
Sc572 O591 2.105 . S
Sc573 O575 2.025 . S
Sc573 O583 2.105 . S
Sc573 O587 2.105 . S
Sc573 O589 2.105 . S
Sc573 O593 2.105 . S
Sc574 O575 2.025 . S
Sc574 O584 2.105 . S
Sc574 O586 2.105 . S
Sc574 O590 2.105 . S
Sc574 O592 2.105 . S
O575 Sc572 2.025 . S
O575 Sc573 2.025 . S
O575 Sc574 2.025 . S
C576 O582 1.268 . S
C576 O592 1.268 . S
C577 O583 1.268 . S
C577 O591 1.268 . S
C578 O584 1.268 . S
C578 O593 1.268 . S
C579 O585 1.268 . S
C579 O589 1.268 . S
C580 O586 1.268 . S
C580 O588 1.268 . S
C581 O587 1.268 . S
C581 O590 1.268 . S
O582 Sc572 2.105 . S
O582 C576 1.268 . S
O583 Sc573 2.105 . S
O583 C577 1.268 . S
O584 Sc574 2.105 . S
O584 C578 1.268 . S
O585 Sc572 2.105 . S
O585 C579 1.268 . S
O586 Sc574 2.105 . S
O586 C580 1.268 . S
O587 Sc573 2.105 . S
O587 C581 1.268 . S
O588 Sc572 2.105 . S
O588 C580 1.268 . S
O589 Sc573 2.105 . S
O589 C579 1.268 . S
O590 Sc574 2.105 . S
O590 C581 1.268 . S
O591 Sc572 2.105 . S
O591 C577 1.268 . S
O592 Sc574 2.105 . S
O592 C576 1.268 . S
O593 Sc573 2.105 . S
O593 C578 1.268 . S
Sc594 O597 2.025 . S
Sc594 O604 2.105 . S
Sc594 O607 2.105 . S
Sc594 O610 2.105 . S
Sc594 O613 2.105 . S
Sc595 O597 2.025 . S
Sc595 O605 2.105 . S
Sc595 O609 2.105 . S
Sc595 O611 2.105 . S
Sc595 O615 2.105 . S
Sc596 O597 2.025 . S
Sc596 O606 2.105 . S
Sc596 O608 2.105 . S
Sc596 O612 2.105 . S
Sc596 O614 2.105 . S
O597 Sc594 2.025 . S
O597 Sc595 2.025 . S
O597 Sc596 2.025 . S
C598 O604 1.268 . S
C598 O614 1.268 . S
C599 O605 1.268 . S
C599 O613 1.268 . S
C600 O606 1.268 . S
C600 O615 1.268 . S
C601 O607 1.268 . S
C601 O611 1.268 . S
C602 O608 1.268 . S
C602 O610 1.268 . S
C603 O609 1.268 . S
C603 O612 1.268 . S
O604 Sc594 2.105 . S
O604 C598 1.268 . S
O605 Sc595 2.105 . S
O605 C599 1.268 . S
O606 Sc596 2.105 . S
O606 C600 1.268 . S
O607 Sc594 2.105 . S
O607 C601 1.268 . S
O608 Sc596 2.105 . S
O608 C602 1.268 . S
O609 Sc595 2.105 . S
O609 C603 1.268 . S
O610 Sc594 2.105 . S
O610 C602 1.268 . S
O611 Sc595 2.105 . S
O611 C601 1.268 . S
O612 Sc596 2.105 . S
O612 C603 1.268 . S
O613 Sc594 2.105 . S
O613 C599 1.268 . S
O614 Sc596 2.105 . S
O614 C598 1.268 . S
O615 Sc595 2.105 . S
O615 C600 1.268 . S
Sc616 O619 2.025 . S
Sc616 O626 2.105 . S
Sc616 O629 2.105 . S
Sc616 O632 2.105 . S
Sc616 O635 2.105 . S
Sc617 O619 2.025 . S
Sc617 O627 2.105 . S
Sc617 O631 2.105 . S
Sc617 O633 2.105 . S
Sc617 O637 2.105 . S
Sc618 O619 2.025 . S
Sc618 O628 2.105 . S
Sc618 O630 2.105 . S
Sc618 O634 2.105 . S
Sc618 O636 2.105 . S
O619 Sc616 2.025 . S
O619 Sc617 2.025 . S
O619 Sc618 2.025 . S
C620 O626 1.268 . S
C620 O636 1.268 . S
C621 O627 1.268 . S
C621 O635 1.268 . S
C622 O628 1.268 . S
C622 O637 1.268 . S
C623 O629 1.268 . S
C623 O633 1.268 . S
C624 O630 1.268 . S
C624 O632 1.268 . S
C625 O631 1.268 . S
C625 O634 1.268 . S
O626 Sc616 2.105 . S
O626 C620 1.268 . S
O627 Sc617 2.105 . S
O627 C621 1.268 . S
O628 Sc618 2.105 . S
O628 C622 1.268 . S
O629 Sc616 2.105 . S
O629 C623 1.268 . S
O630 Sc618 2.105 . S
O630 C624 1.268 . S
O631 Sc617 2.105 . S
O631 C625 1.268 . S
O632 Sc616 2.105 . S
O632 C624 1.268 . S
O633 Sc617 2.105 . S
O633 C623 1.268 . S
O634 Sc618 2.105 . S
O634 C625 1.268 . S
O635 Sc616 2.105 . S
O635 C621 1.268 . S
O636 Sc618 2.105 . S
O636 C620 1.268 . S
O637 Sc617 2.105 . S
O637 C622 1.268 . S
Sc638 O641 2.025 . S
Sc638 O648 2.105 . S
Sc638 O651 2.105 . S
Sc638 O654 2.105 . S
Sc638 O657 2.105 . S
Sc639 O641 2.025 . S
Sc639 O649 2.105 . S
Sc639 O653 2.105 . S
Sc639 O655 2.105 . S
Sc639 O659 2.105 . S
Sc640 O641 2.025 . S
Sc640 O650 2.105 . S
Sc640 O652 2.105 . S
Sc640 O656 2.105 . S
Sc640 O658 2.105 . S
O641 Sc638 2.025 . S
O641 Sc639 2.025 . S
O641 Sc640 2.025 . S
C642 O648 1.268 . S
C642 O658 1.268 . S
C643 O649 1.268 . S
C643 O657 1.268 . S
C644 O650 1.268 . S
C644 O659 1.268 . S
C645 O651 1.268 . S
C645 O655 1.268 . S
C646 O652 1.268 . S
C646 O654 1.268 . S
C647 O653 1.268 . S
C647 O656 1.268 . S
O648 Sc638 2.105 . S
O648 C642 1.268 . S
O649 Sc639 2.105 . S
O649 C643 1.268 . S
O650 Sc640 2.105 . S
O650 C644 1.268 . S
O651 Sc638 2.105 . S
O651 C645 1.268 . S
O652 Sc640 2.105 . S
O652 C646 1.268 . S
O653 Sc639 2.105 . S
O653 C647 1.268 . S
O654 Sc638 2.105 . S
O654 C646 1.268 . S
O655 Sc639 2.105 . S
O655 C645 1.268 . S
O656 Sc640 2.105 . S
O656 C647 1.268 . S
O657 Sc638 2.105 . S
O657 C643 1.268 . S
O658 Sc640 2.105 . S
O658 C642 1.268 . S
O659 Sc639 2.105 . S
O659 C644 1.268 . S
Sc660 O663 2.025 . S
Sc660 O670 2.105 . S
Sc660 O673 2.105 . S
Sc660 O676 2.105 . S
Sc660 O679 2.105 . S
Sc661 O663 2.025 . S
Sc661 O671 2.105 . S
Sc661 O675 2.105 . S
Sc661 O677 2.105 . S
Sc661 O681 2.105 . S
Sc662 O663 2.025 . S
Sc662 O672 2.105 . S
Sc662 O674 2.105 . S
Sc662 O678 2.105 . S
Sc662 O680 2.105 . S
O663 Sc660 2.025 . S
O663 Sc661 2.025 . S
O663 Sc662 2.025 . S
C664 O670 1.268 . S
C664 O680 1.268 . S
C665 O671 1.268 . S
C665 O679 1.268 . S
C666 O672 1.268 . S
C666 O681 1.268 . S
C667 O673 1.268 . S
C667 O677 1.268 . S
C668 O674 1.268 . S
C668 O676 1.268 . S
C669 O675 1.268 . S
C669 O678 1.268 . S
O670 Sc660 2.105 . S
O670 C664 1.268 . S
O671 Sc661 2.105 . S
O671 C665 1.268 . S
O672 Sc662 2.105 . S
O672 C666 1.268 . S
O673 Sc660 2.105 . S
O673 C667 1.268 . S
O674 Sc662 2.105 . S
O674 C668 1.268 . S
O675 Sc661 2.105 . S
O675 C669 1.268 . S
O676 Sc660 2.105 . S
O676 C668 1.268 . S
O677 Sc661 2.105 . S
O677 C667 1.268 . S
O678 Sc662 2.105 . S
O678 C669 1.268 . S
O679 Sc660 2.105 . S
O679 C665 1.268 . S
O680 Sc662 2.105 . S
O680 C664 1.268 . S
O681 Sc661 2.105 . S
O681 C666 1.268 . S
Sc682 O685 2.025 . S
Sc682 O692 2.105 . S
Sc682 O695 2.105 . S
Sc682 O698 2.105 . S
Sc682 O701 2.105 . S
Sc683 O685 2.025 . S
Sc683 O693 2.105 . S
Sc683 O697 2.105 . S
Sc683 O699 2.105 . S
Sc683 O703 2.105 . S
Sc684 O685 2.025 . S
Sc684 O694 2.105 . S
Sc684 O696 2.105 . S
Sc684 O700 2.105 . S
Sc684 O702 2.105 . S
O685 Sc682 2.025 . S
O685 Sc683 2.025 . S
O685 Sc684 2.025 . S
C686 O692 1.268 . S
C686 O702 1.268 . S
C687 O693 1.268 . S
C687 O701 1.268 . S
C688 O694 1.268 . S
C688 O703 1.268 . S
C689 O695 1.268 . S
C689 O699 1.268 . S
C690 O696 1.268 . S
C690 O698 1.268 . S
C691 O697 1.268 . S
C691 O700 1.268 . S
O692 Sc682 2.105 . S
O692 C686 1.268 . S
O693 Sc683 2.105 . S
O693 C687 1.268 . S
O694 Sc684 2.105 . S
O694 C688 1.268 . S
O695 Sc682 2.105 . S
O695 C689 1.268 . S
O696 Sc684 2.105 . S
O696 C690 1.268 . S
O697 Sc683 2.105 . S
O697 C691 1.268 . S
O698 Sc682 2.105 . S
O698 C690 1.268 . S
O699 Sc683 2.105 . S
O699 C689 1.268 . S
O700 Sc684 2.105 . S
O700 C691 1.268 . S
O701 Sc682 2.105 . S
O701 C687 1.268 . S
O702 Sc684 2.105 . S
O702 C686 1.268 . S
O703 Sc683 2.105 . S
O703 C688 1.268 . S
C704 C705 1.349 . S
C704 C706 1.327 . S
C704 H729 0.950 . S
C705 C704 1.349 . S
C705 C721 1.349 . S
C706 C704 1.327 . S
C706 C725 1.429 . S
C706 H730 0.950 . S
C707 C724 1.574 . S
C707 C726 1.368 . S
C707 H731 0.949 . S
H708 C712 0.949 . S
C709 C710 1.349 . S
C709 C711 1.327 . S
C709 H732 0.950 . S
C710 C709 1.349 . S
C710 C722 1.349 . S
C711 C709 1.327 . S
C711 C727 1.429 . S
C711 H733 0.950 . S
C712 H708 0.949 . S
C712 C720 1.574 . S
C712 C728 1.368 . S
H713 C721 0.950 . S
H714 C719 0.950 . S
H715 C720 0.949 . S
H716 C722 0.950 . S
H717 C723 0.950 . S
H718 C724 0.949 . S
C719 H714 0.950 . S
C719 C721 1.327 . S
C719 C725 1.429 . S
C720 C712 1.574 . S
C720 H715 0.949 . S
C720 C726 1.368 . S
C721 C705 1.349 . S
C721 H713 0.950 . S
C721 C719 1.327 . S
C722 C710 1.349 . S
C722 H716 0.950 . S
C722 C723 1.327 . S
C723 H717 0.950 . S
C723 C722 1.327 . S
C723 C727 1.429 . S
C724 C707 1.574 . S
C724 H718 0.949 . S
C724 C728 1.368 . S
C725 C706 1.429 . S
C725 C719 1.429 . S
C725 C726 1.523 . S
C726 C707 1.368 . S
C726 C720 1.368 . S
C726 C725 1.523 . S
C727 C711 1.429 . S
C727 C723 1.429 . S
C727 C728 1.523 . S
C728 C712 1.368 . S
C728 C724 1.368 . S
C728 C727 1.523 . S
H729 C704 0.950 . S
H730 C706 0.950 . S
H731 C707 0.949 . S
H732 C709 0.950 . S
H733 C711 0.950 . S
C734 C735 1.349 . S
C734 C736 1.327 . S
C734 H759 0.950 . S
C735 C734 1.349 . S
C735 C751 1.349 . S
C736 C734 1.327 . S
C736 C755 1.429 . S
C736 H760 0.950 . S
C737 C754 1.574 . S
C737 C756 1.368 . S
C737 H761 0.949 . S
H738 C742 0.949 . S
C739 C740 1.349 . S
C739 C741 1.327 . S
C739 H762 0.950 . S
C740 C739 1.349 . S
C740 C752 1.349 . S
C741 C739 1.327 . S
C741 C757 1.429 . S
C741 H763 0.950 . S
C742 H738 0.949 . S
C742 C750 1.574 . S
C742 C758 1.368 . S
H743 C751 0.950 . S
H744 C749 0.950 . S
H745 C750 0.949 . S
H746 C752 0.950 . S
H747 C753 0.950 . S
H748 C754 0.949 . S
C749 H744 0.950 . S
C749 C751 1.327 . S
C749 C755 1.429 . S
C750 C742 1.574 . S
C750 H745 0.949 . S
C750 C756 1.368 . S
C751 C735 1.349 . S
C751 H743 0.950 . S
C751 C749 1.327 . S
C752 C740 1.349 . S
C752 H746 0.950 . S
C752 C753 1.327 . S
C753 H747 0.950 . S
C753 C752 1.327 . S
C753 C757 1.429 . S
C754 C737 1.574 . S
C754 H748 0.949 . S
C754 C758 1.368 . S
C755 C736 1.429 . S
C755 C749 1.429 . S
C755 C756 1.523 . S
C756 C737 1.368 . S
C756 C750 1.368 . S
C756 C755 1.523 . S
C757 C741 1.429 . S
C757 C753 1.429 . S
C757 C758 1.523 . S
C758 C742 1.368 . S
C758 C754 1.368 . S
C758 C757 1.523 . S
H759 C734 0.950 . S
H760 C736 0.950 . S
H761 C737 0.949 . S
H762 C739 0.950 . S
H763 C741 0.950 . S
C764 C765 1.349 . S
C764 C766 1.327 . S
C764 H789 0.950 . S
C765 C764 1.349 . S
C765 C781 1.349 . S
C766 C764 1.327 . S
C766 C785 1.429 . S
C766 H790 0.950 . S
C767 C784 1.574 . S
C767 C786 1.368 . S
C767 H791 0.949 . S
H768 C772 0.949 . S
C769 C770 1.349 . S
C769 C771 1.327 . S
C769 H792 0.950 . S
C770 C769 1.349 . S
C770 C782 1.349 . S
C771 C769 1.327 . S
C771 C787 1.429 . S
C771 H793 0.950 . S
C772 H768 0.949 . S
C772 C780 1.574 . S
C772 C788 1.368 . S
H773 C781 0.950 . S
H774 C779 0.950 . S
H775 C780 0.949 . S
H776 C782 0.950 . S
H777 C783 0.950 . S
H778 C784 0.949 . S
C779 H774 0.950 . S
C779 C781 1.327 . S
C779 C785 1.429 . S
C780 C772 1.574 . S
C780 H775 0.949 . S
C780 C786 1.368 . S
C781 C765 1.349 . S
C781 H773 0.950 . S
C781 C779 1.327 . S
C782 C770 1.349 . S
C782 H776 0.950 . S
C782 C783 1.327 . S
C783 H777 0.950 . S
C783 C782 1.327 . S
C783 C787 1.429 . S
C784 C767 1.574 . S
C784 H778 0.949 . S
C784 C788 1.368 . S
C785 C766 1.429 . S
C785 C779 1.429 . S
C785 C786 1.523 . S
C786 C767 1.368 . S
C786 C780 1.368 . S
C786 C785 1.523 . S
C787 C771 1.429 . S
C787 C783 1.429 . S
C787 C788 1.523 . S
C788 C772 1.368 . S
C788 C784 1.368 . S
C788 C787 1.523 . S
H789 C764 0.950 . S
H790 C766 0.950 . S
H791 C767 0.949 . S
H792 C769 0.950 . S
H793 C771 0.950 . S
C794 C795 1.349 . S
C794 C796 1.327 . S
C794 H819 0.950 . S
C795 C794 1.349 . S
C795 C811 1.349 . S
C796 C794 1.327 . S
C796 C815 1.429 . S
C796 H820 0.950 . S
C797 C814 1.574 . S
C797 C816 1.368 . S
C797 H821 0.949 . S
H798 C802 0.949 . S
C799 C800 1.349 . S
C799 C801 1.327 . S
C799 H822 0.950 . S
C800 C799 1.349 . S
C800 C812 1.349 . S
C801 C799 1.327 . S
C801 C817 1.429 . S
C801 H823 0.950 . S
C802 H798 0.949 . S
C802 C810 1.574 . S
C802 C818 1.368 . S
H803 C811 0.950 . S
H804 C809 0.950 . S
H805 C810 0.949 . S
H806 C812 0.950 . S
H807 C813 0.950 . S
H808 C814 0.949 . S
C809 H804 0.950 . S
C809 C811 1.327 . S
C809 C815 1.429 . S
C810 C802 1.574 . S
C810 H805 0.949 . S
C810 C816 1.368 . S
C811 C795 1.349 . S
C811 H803 0.950 . S
C811 C809 1.327 . S
C812 C800 1.349 . S
C812 H806 0.950 . S
C812 C813 1.327 . S
C813 H807 0.950 . S
C813 C812 1.327 . S
C813 C817 1.429 . S
C814 C797 1.574 . S
C814 H808 0.949 . S
C814 C818 1.368 . S
C815 C796 1.429 . S
C815 C809 1.429 . S
C815 C816 1.523 . S
C816 C797 1.368 . S
C816 C810 1.368 . S
C816 C815 1.523 . S
C817 C801 1.429 . S
C817 C813 1.429 . S
C817 C818 1.523 . S
C818 C802 1.368 . S
C818 C814 1.368 . S
C818 C817 1.523 . S
H819 C794 0.950 . S
H820 C796 0.950 . S
H821 C797 0.949 . S
H822 C799 0.950 . S
H823 C801 0.950 . S
C824 C825 1.349 . S
C824 C826 1.327 . S
C824 H849 0.950 . S
C825 C824 1.349 . S
C825 C841 1.349 . S
C826 C824 1.327 . S
C826 C845 1.429 . S
C826 H850 0.950 . S
C827 C844 1.574 . S
C827 C846 1.368 . S
C827 H851 0.949 . S
H828 C832 0.949 . S
C829 C830 1.349 . S
C829 C831 1.327 . S
C829 H852 0.950 . S
C830 C829 1.349 . S
C830 C842 1.349 . S
C831 C829 1.327 . S
C831 C847 1.429 . S
C831 H853 0.950 . S
C832 H828 0.949 . S
C832 C840 1.574 . S
C832 C848 1.368 . S
H833 C841 0.950 . S
H834 C839 0.950 . S
H835 C840 0.949 . S
H836 C842 0.950 . S
H837 C843 0.950 . S
H838 C844 0.949 . S
C839 H834 0.950 . S
C839 C841 1.327 . S
C839 C845 1.429 . S
C840 C832 1.574 . S
C840 H835 0.949 . S
C840 C846 1.368 . S
C841 C825 1.349 . S
C841 H833 0.950 . S
C841 C839 1.327 . S
C842 C830 1.349 . S
C842 H836 0.950 . S
C842 C843 1.327 . S
C843 H837 0.950 . S
C843 C842 1.327 . S
C843 C847 1.429 . S
C844 C827 1.574 . S
C844 H838 0.949 . S
C844 C848 1.368 . S
C845 C826 1.429 . S
C845 C839 1.429 . S
C845 C846 1.523 . S
C846 C827 1.368 . S
C846 C840 1.368 . S
C846 C845 1.523 . S
C847 C831 1.429 . S
C847 C843 1.429 . S
C847 C848 1.523 . S
C848 C832 1.368 . S
C848 C844 1.368 . S
C848 C847 1.523 . S
H849 C824 0.950 . S
H850 C826 0.950 . S
H851 C827 0.949 . S
H852 C829 0.950 . S
H853 C831 0.950 . S
C854 C855 1.349 . S
C854 C856 1.327 . S
C854 H879 0.950 . S
C855 C854 1.349 . S
C855 C871 1.349 . S
C856 C854 1.327 . S
C856 C875 1.429 . S
C856 H880 0.950 . S
C857 C874 1.574 . S
C857 C876 1.368 . S
C857 H881 0.949 . S
H858 C862 0.949 . S
C859 C860 1.349 . S
C859 C861 1.327 . S
C859 H882 0.950 . S
C860 C859 1.349 . S
C860 C872 1.349 . S
C861 C859 1.327 . S
C861 C877 1.429 . S
C861 H883 0.950 . S
C862 H858 0.949 . S
C862 C870 1.574 . S
C862 C878 1.368 . S
H863 C871 0.950 . S
H864 C869 0.950 . S
H865 C870 0.949 . S
H866 C872 0.950 . S
H867 C873 0.950 . S
H868 C874 0.949 . S
C869 H864 0.950 . S
C869 C871 1.327 . S
C869 C875 1.429 . S
C870 C862 1.574 . S
C870 H865 0.949 . S
C870 C876 1.368 . S
C871 C855 1.349 . S
C871 H863 0.950 . S
C871 C869 1.327 . S
C872 C860 1.349 . S
C872 H866 0.950 . S
C872 C873 1.327 . S
C873 H867 0.950 . S
C873 C872 1.327 . S
C873 C877 1.429 . S
C874 C857 1.574 . S
C874 H868 0.949 . S
C874 C878 1.368 . S
C875 C856 1.429 . S
C875 C869 1.429 . S
C875 C876 1.523 . S
C876 C857 1.368 . S
C876 C870 1.368 . S
C876 C875 1.523 . S
C877 C861 1.429 . S
C877 C873 1.429 . S
C877 C878 1.523 . S
C878 C862 1.368 . S
C878 C874 1.368 . S
C878 C877 1.523 . S
H879 C854 0.950 . S
H880 C856 0.950 . S
H881 C857 0.949 . S
H882 C859 0.950 . S
H883 C861 0.950 . S
C884 C885 1.349 . S
C884 C886 1.327 . S
C884 H909 0.950 . S
C885 C884 1.349 . S
C885 C901 1.349 . S
C886 C884 1.327 . S
C886 C905 1.429 . S
C886 H910 0.950 . S
C887 C904 1.574 . S
C887 C906 1.368 . S
C887 H911 0.949 . S
H888 C892 0.949 . S
C889 C890 1.349 . S
C889 C891 1.327 . S
C889 H912 0.950 . S
C890 C889 1.349 . S
C890 C902 1.349 . S
C891 C889 1.327 . S
C891 C907 1.429 . S
C891 H913 0.950 . S
C892 H888 0.949 . S
C892 C900 1.574 . S
C892 C908 1.368 . S
H893 C901 0.950 . S
H894 C899 0.950 . S
H895 C900 0.949 . S
H896 C902 0.950 . S
H897 C903 0.950 . S
H898 C904 0.949 . S
C899 H894 0.950 . S
C899 C901 1.327 . S
C899 C905 1.429 . S
C900 C892 1.574 . S
C900 H895 0.949 . S
C900 C906 1.368 . S
C901 C885 1.349 . S
C901 H893 0.950 . S
C901 C899 1.327 . S
C902 C890 1.349 . S
C902 H896 0.950 . S
C902 C903 1.327 . S
C903 H897 0.950 . S
C903 C902 1.327 . S
C903 C907 1.429 . S
C904 C887 1.574 . S
C904 H898 0.949 . S
C904 C908 1.368 . S
C905 C886 1.429 . S
C905 C899 1.429 . S
C905 C906 1.523 . S
C906 C887 1.368 . S
C906 C900 1.368 . S
C906 C905 1.523 . S
C907 C891 1.429 . S
C907 C903 1.429 . S
C907 C908 1.523 . S
C908 C892 1.368 . S
C908 C904 1.368 . S
C908 C907 1.523 . S
H909 C884 0.950 . S
H910 C886 0.950 . S
H911 C887 0.949 . S
H912 C889 0.950 . S
H913 C891 0.950 . S
C914 C915 1.349 . S
C914 C916 1.327 . S
C914 H939 0.950 . S
C915 C914 1.349 . S
C915 C931 1.349 . S
C916 C914 1.327 . S
C916 C935 1.429 . S
C916 H940 0.950 . S
C917 C934 1.574 . S
C917 C936 1.368 . S
C917 H941 0.949 . S
H918 C922 0.949 . S
C919 C920 1.349 . S
C919 C921 1.327 . S
C919 H942 0.950 . S
C920 C919 1.349 . S
C920 C932 1.349 . S
C921 C919 1.327 . S
C921 C937 1.429 . S
C921 H943 0.950 . S
C922 H918 0.949 . S
C922 C930 1.574 . S
C922 C938 1.368 . S
H923 C931 0.950 . S
H924 C929 0.950 . S
H925 C930 0.949 . S
H926 C932 0.950 . S
H927 C933 0.950 . S
H928 C934 0.949 . S
C929 H924 0.950 . S
C929 C931 1.327 . S
C929 C935 1.429 . S
C930 C922 1.574 . S
C930 H925 0.949 . S
C930 C936 1.368 . S
C931 C915 1.349 . S
C931 H923 0.950 . S
C931 C929 1.327 . S
C932 C920 1.349 . S
C932 H926 0.950 . S
C932 C933 1.327 . S
C933 H927 0.950 . S
C933 C932 1.327 . S
C933 C937 1.429 . S
C934 C917 1.574 . S
C934 H928 0.949 . S
C934 C938 1.368 . S
C935 C916 1.429 . S
C935 C929 1.429 . S
C935 C936 1.523 . S
C936 C917 1.368 . S
C936 C930 1.368 . S
C936 C935 1.523 . S
C937 C921 1.429 . S
C937 C933 1.429 . S
C937 C938 1.523 . S
C938 C922 1.368 . S
C938 C934 1.368 . S
C938 C937 1.523 . S
H939 C914 0.950 . S
H940 C916 0.950 . S
H941 C917 0.949 . S
H942 C919 0.950 . S
H943 C921 0.950 . S
C944 C945 1.349 . S
C944 C946 1.327 . S
C944 H969 0.950 . S
C945 C944 1.349 . S
C945 C961 1.349 . S
C946 C944 1.327 . S
C946 C965 1.429 . S
C946 H970 0.950 . S
C947 C964 1.574 . S
C947 C966 1.368 . S
C947 H971 0.949 . S
H948 C952 0.949 . S
C949 C950 1.349 . S
C949 C951 1.327 . S
C949 H972 0.950 . S
C950 C949 1.349 . S
C950 C962 1.349 . S
C951 C949 1.327 . S
C951 C967 1.429 . S
C951 H973 0.950 . S
C952 H948 0.949 . S
C952 C960 1.574 . S
C952 C968 1.368 . S
H953 C961 0.950 . S
H954 C959 0.950 . S
H955 C960 0.949 . S
H956 C962 0.950 . S
H957 C963 0.950 . S
H958 C964 0.949 . S
C959 H954 0.950 . S
C959 C961 1.327 . S
C959 C965 1.429 . S
C960 C952 1.574 . S
C960 H955 0.949 . S
C960 C966 1.368 . S
C961 C945 1.349 . S
C961 H953 0.950 . S
C961 C959 1.327 . S
C962 C950 1.349 . S
C962 H956 0.950 . S
C962 C963 1.327 . S
C963 H957 0.950 . S
C963 C962 1.327 . S
C963 C967 1.429 . S
C964 C947 1.574 . S
C964 H958 0.949 . S
C964 C968 1.368 . S
C965 C946 1.429 . S
C965 C959 1.429 . S
C965 C966 1.523 . S
C966 C947 1.368 . S
C966 C960 1.368 . S
C966 C965 1.523 . S
C967 C951 1.429 . S
C967 C963 1.429 . S
C967 C968 1.523 . S
C968 C952 1.368 . S
C968 C964 1.368 . S
C968 C967 1.523 . S
H969 C944 0.950 . S
H970 C946 0.950 . S
H971 C947 0.949 . S
H972 C949 0.950 . S
H973 C951 0.950 . S
C974 C975 1.349 . S
C974 C976 1.327 . S
C974 H999 0.950 . S
C975 C974 1.349 . S
C975 C991 1.349 . S
C976 C974 1.327 . S
C976 C995 1.429 . S
C976 H1000 0.950 . S
C977 C994 1.574 . S
C977 C996 1.368 . S
C977 H1001 0.949 . S
H978 C982 0.949 . S
C979 C980 1.349 . S
C979 C981 1.327 . S
C979 H1002 0.950 . S
C980 C979 1.349 . S
C980 C992 1.349 . S
C981 C979 1.327 . S
C981 C997 1.429 . S
C981 H1003 0.950 . S
C982 H978 0.949 . S
C982 C990 1.574 . S
C982 C998 1.368 . S
H983 C991 0.950 . S
H984 C989 0.950 . S
H985 C990 0.949 . S
H986 C992 0.950 . S
H987 C993 0.950 . S
H988 C994 0.949 . S
C989 H984 0.950 . S
C989 C991 1.327 . S
C989 C995 1.429 . S
C990 C982 1.574 . S
C990 H985 0.949 . S
C990 C996 1.368 . S
C991 C975 1.349 . S
C991 H983 0.950 . S
C991 C989 1.327 . S
C992 C980 1.349 . S
C992 H986 0.950 . S
C992 C993 1.327 . S
C993 H987 0.950 . S
C993 C992 1.327 . S
C993 C997 1.429 . S
C994 C977 1.574 . S
C994 H988 0.949 . S
C994 C998 1.368 . S
C995 C976 1.429 . S
C995 C989 1.429 . S
C995 C996 1.523 . S
C996 C977 1.368 . S
C996 C990 1.368 . S
C996 C995 1.523 . S
C997 C981 1.429 . S
C997 C993 1.429 . S
C997 C998 1.523 . S
C998 C982 1.368 . S
C998 C994 1.368 . S
C998 C997 1.523 . S
H999 C974 0.950 . S
H1000 C976 0.950 . S
H1001 C977 0.949 . S
H1002 C979 0.950 . S
H1003 C981 0.950 . S
C1004 C1005 1.349 . S
C1004 C1006 1.327 . S
C1004 H1029 0.950 . S
C1005 C1004 1.349 . S
C1005 C1021 1.349 . S
C1006 C1004 1.327 . S
C1006 C1025 1.429 . S
C1006 H1030 0.950 . S
C1007 C1024 1.574 . S
C1007 C1026 1.368 . S
C1007 H1031 0.949 . S
H1008 C1012 0.949 . S
C1009 C1010 1.349 . S
C1009 C1011 1.327 . S
C1009 H1032 0.950 . S
C1010 C1009 1.349 . S
C1010 C1022 1.349 . S
C1011 C1009 1.327 . S
C1011 C1027 1.429 . S
C1011 H1033 0.950 . S
C1012 H1008 0.949 . S
C1012 C1020 1.574 . S
C1012 C1028 1.368 . S
H1013 C1021 0.950 . S
H1014 C1019 0.950 . S
H1015 C1020 0.949 . S
H1016 C1022 0.950 . S
H1017 C1023 0.950 . S
H1018 C1024 0.949 . S
C1019 H1014 0.950 . S
C1019 C1021 1.327 . S
C1019 C1025 1.429 . S
C1020 C1012 1.574 . S
C1020 H1015 0.949 . S
C1020 C1026 1.368 . S
C1021 C1005 1.349 . S
C1021 H1013 0.950 . S
C1021 C1019 1.327 . S
C1022 C1010 1.349 . S
C1022 H1016 0.950 . S
C1022 C1023 1.327 . S
C1023 H1017 0.950 . S
C1023 C1022 1.327 . S
C1023 C1027 1.429 . S
C1024 C1007 1.574 . S
C1024 H1018 0.949 . S
C1024 C1028 1.368 . S
C1025 C1006 1.429 . S
C1025 C1019 1.429 . S
C1025 C1026 1.523 . S
C1026 C1007 1.368 . S
C1026 C1020 1.368 . S
C1026 C1025 1.523 . S
C1027 C1011 1.429 . S
C1027 C1023 1.429 . S
C1027 C1028 1.523 . S
C1028 C1012 1.368 . S
C1028 C1024 1.368 . S
C1028 C1027 1.523 . S
H1029 C1004 0.950 . S
H1030 C1006 0.950 . S
H1031 C1007 0.949 . S
H1032 C1009 0.950 . S
H1033 C1011 0.950 . S
C1034 C1035 1.349 . S
C1034 C1036 1.327 . S
C1034 H1059 0.950 . S
C1035 C1034 1.349 . S
C1035 C1051 1.349 . S
C1036 C1034 1.327 . S
C1036 C1055 1.429 . S
C1036 H1060 0.950 . S
C1037 C1054 1.574 . S
C1037 C1056 1.368 . S
C1037 H1061 0.949 . S
H1038 C1042 0.949 . S
C1039 C1040 1.349 . S
C1039 C1041 1.327 . S
C1039 H1062 0.950 . S
C1040 C1039 1.349 . S
C1040 C1052 1.349 . S
C1041 C1039 1.327 . S
C1041 C1057 1.429 . S
C1041 H1063 0.950 . S
C1042 H1038 0.949 . S
C1042 C1050 1.574 . S
C1042 C1058 1.368 . S
H1043 C1051 0.950 . S
H1044 C1049 0.950 . S
H1045 C1050 0.949 . S
H1046 C1052 0.950 . S
H1047 C1053 0.950 . S
H1048 C1054 0.949 . S
C1049 H1044 0.950 . S
C1049 C1051 1.327 . S
C1049 C1055 1.429 . S
C1050 C1042 1.574 . S
C1050 H1045 0.949 . S
C1050 C1056 1.368 . S
C1051 C1035 1.349 . S
C1051 H1043 0.950 . S
C1051 C1049 1.327 . S
C1052 C1040 1.349 . S
C1052 H1046 0.950 . S
C1052 C1053 1.327 . S
C1053 H1047 0.950 . S
C1053 C1052 1.327 . S
C1053 C1057 1.429 . S
C1054 C1037 1.574 . S
C1054 H1048 0.949 . S
C1054 C1058 1.368 . S
C1055 C1036 1.429 . S
C1055 C1049 1.429 . S
C1055 C1056 1.523 . S
C1056 C1037 1.368 . S
C1056 C1050 1.368 . S
C1056 C1055 1.523 . S
C1057 C1041 1.429 . S
C1057 C1053 1.429 . S
C1057 C1058 1.523 . S
C1058 C1042 1.368 . S
C1058 C1054 1.368 . S
C1058 C1057 1.523 . S
H1059 C1034 0.950 . S
H1060 C1036 0.950 . S
H1061 C1037 0.949 . S
H1062 C1039 0.950 . S
H1063 C1041 0.950 . S
C1064 C1065 1.349 . S
C1064 C1066 1.327 . S
C1064 H1089 0.950 . S
C1065 C1064 1.349 . S
C1065 C1081 1.349 . S
C1066 C1064 1.327 . S
C1066 C1085 1.429 . S
C1066 H1090 0.950 . S
C1067 C1084 1.574 . S
C1067 C1086 1.368 . S
C1067 H1091 0.949 . S
H1068 C1072 0.949 . S
C1069 C1070 1.349 . S
C1069 C1071 1.327 . S
C1069 H1092 0.950 . S
C1070 C1069 1.349 . S
C1070 C1082 1.349 . S
C1071 C1069 1.327 . S
C1071 C1087 1.429 . S
C1071 H1093 0.950 . S
C1072 H1068 0.949 . S
C1072 C1080 1.574 . S
C1072 C1088 1.368 . S
H1073 C1081 0.950 . S
H1074 C1079 0.950 . S
H1075 C1080 0.949 . S
H1076 C1082 0.950 . S
H1077 C1083 0.950 . S
H1078 C1084 0.949 . S
C1079 H1074 0.950 . S
C1079 C1081 1.327 . S
C1079 C1085 1.429 . S
C1080 C1072 1.574 . S
C1080 H1075 0.949 . S
C1080 C1086 1.368 . S
C1081 C1065 1.349 . S
C1081 H1073 0.950 . S
C1081 C1079 1.327 . S
C1082 C1070 1.349 . S
C1082 H1076 0.950 . S
C1082 C1083 1.327 . S
C1083 H1077 0.950 . S
C1083 C1082 1.327 . S
C1083 C1087 1.429 . S
C1084 C1067 1.574 . S
C1084 H1078 0.949 . S
C1084 C1088 1.368 . S
C1085 C1066 1.429 . S
C1085 C1079 1.429 . S
C1085 C1086 1.523 . S
C1086 C1067 1.368 . S
C1086 C1080 1.368 . S
C1086 C1085 1.523 . S
C1087 C1071 1.429 . S
C1087 C1083 1.429 . S
C1087 C1088 1.523 . S
C1088 C1072 1.368 . S
C1088 C1084 1.368 . S
C1088 C1087 1.523 . S
H1089 C1064 0.950 . S
H1090 C1066 0.950 . S
H1091 C1067 0.949 . S
H1092 C1069 0.950 . S
H1093 C1071 0.950 . S
C1094 C1095 1.349 . S
C1094 C1096 1.327 . S
C1094 H1119 0.950 . S
C1095 C1094 1.349 . S
C1095 C1111 1.349 . S
C1096 C1094 1.327 . S
C1096 C1115 1.429 . S
C1096 H1120 0.950 . S
C1097 C1114 1.574 . S
C1097 C1116 1.368 . S
C1097 H1121 0.949 . S
H1098 C1102 0.949 . S
C1099 C1100 1.349 . S
C1099 C1101 1.327 . S
C1099 H1122 0.950 . S
C1100 C1099 1.349 . S
C1100 C1112 1.349 . S
C1101 C1099 1.327 . S
C1101 C1117 1.429 . S
C1101 H1123 0.950 . S
C1102 H1098 0.949 . S
C1102 C1110 1.574 . S
C1102 C1118 1.368 . S
H1103 C1111 0.950 . S
H1104 C1109 0.950 . S
H1105 C1110 0.949 . S
H1106 C1112 0.950 . S
H1107 C1113 0.950 . S
H1108 C1114 0.949 . S
C1109 H1104 0.950 . S
C1109 C1111 1.327 . S
C1109 C1115 1.429 . S
C1110 C1102 1.574 . S
C1110 H1105 0.949 . S
C1110 C1116 1.368 . S
C1111 C1095 1.349 . S
C1111 H1103 0.950 . S
C1111 C1109 1.327 . S
C1112 C1100 1.349 . S
C1112 H1106 0.950 . S
C1112 C1113 1.327 . S
C1113 H1107 0.950 . S
C1113 C1112 1.327 . S
C1113 C1117 1.429 . S
C1114 C1097 1.574 . S
C1114 H1108 0.949 . S
C1114 C1118 1.368 . S
C1115 C1096 1.429 . S
C1115 C1109 1.429 . S
C1115 C1116 1.523 . S
C1116 C1097 1.368 . S
C1116 C1110 1.368 . S
C1116 C1115 1.523 . S
C1117 C1101 1.429 . S
C1117 C1113 1.429 . S
C1117 C1118 1.523 . S
C1118 C1102 1.368 . S
C1118 C1114 1.368 . S
C1118 C1117 1.523 . S
H1119 C1094 0.950 . S
H1120 C1096 0.950 . S
H1121 C1097 0.949 . S
H1122 C1099 0.950 . S
H1123 C1101 0.950 . S
C1124 C1125 1.349 . S
C1124 C1126 1.327 . S
C1124 H1149 0.950 . S
C1125 C1124 1.349 . S
C1125 C1141 1.349 . S
C1126 C1124 1.327 . S
C1126 C1145 1.429 . S
C1126 H1150 0.950 . S
C1127 C1144 1.574 . S
C1127 C1146 1.368 . S
C1127 H1151 0.949 . S
H1128 C1132 0.949 . S
C1129 C1130 1.349 . S
C1129 C1131 1.327 . S
C1129 H1152 0.950 . S
C1130 C1129 1.349 . S
C1130 C1142 1.349 . S
C1131 C1129 1.327 . S
C1131 C1147 1.429 . S
C1131 H1153 0.950 . S
C1132 H1128 0.949 . S
C1132 C1140 1.574 . S
C1132 C1148 1.368 . S
H1133 C1141 0.950 . S
H1134 C1139 0.950 . S
H1135 C1140 0.949 . S
H1136 C1142 0.950 . S
H1137 C1143 0.950 . S
H1138 C1144 0.949 . S
C1139 H1134 0.950 . S
C1139 C1141 1.327 . S
C1139 C1145 1.429 . S
C1140 C1132 1.574 . S
C1140 H1135 0.949 . S
C1140 C1146 1.368 . S
C1141 C1125 1.349 . S
C1141 H1133 0.950 . S
C1141 C1139 1.327 . S
C1142 C1130 1.349 . S
C1142 H1136 0.950 . S
C1142 C1143 1.327 . S
C1143 H1137 0.950 . S
C1143 C1142 1.327 . S
C1143 C1147 1.429 . S
C1144 C1127 1.574 . S
C1144 H1138 0.949 . S
C1144 C1148 1.368 . S
C1145 C1126 1.429 . S
C1145 C1139 1.429 . S
C1145 C1146 1.523 . S
C1146 C1127 1.368 . S
C1146 C1140 1.368 . S
C1146 C1145 1.523 . S
C1147 C1131 1.429 . S
C1147 C1143 1.429 . S
C1147 C1148 1.523 . S
C1148 C1132 1.368 . S
C1148 C1144 1.368 . S
C1148 C1147 1.523 . S
H1149 C1124 0.950 . S
H1150 C1126 0.950 . S
H1151 C1127 0.949 . S
H1152 C1129 0.950 . S
H1153 C1131 0.950 . S
C1154 C1155 1.349 . S
C1154 C1156 1.327 . S
C1154 H1179 0.950 . S
C1155 C1154 1.349 . S
C1155 C1171 1.349 . S
C1156 C1154 1.327 . S
C1156 C1175 1.429 . S
C1156 H1180 0.950 . S
C1157 C1174 1.574 . S
C1157 C1176 1.368 . S
C1157 H1181 0.949 . S
H1158 C1162 0.949 . S
C1159 C1160 1.349 . S
C1159 C1161 1.327 . S
C1159 H1182 0.950 . S
C1160 C1159 1.349 . S
C1160 C1172 1.349 . S
C1161 C1159 1.327 . S
C1161 C1177 1.429 . S
C1161 H1183 0.950 . S
C1162 H1158 0.949 . S
C1162 C1170 1.574 . S
C1162 C1178 1.368 . S
H1163 C1171 0.950 . S
H1164 C1169 0.950 . S
H1165 C1170 0.949 . S
H1166 C1172 0.950 . S
H1167 C1173 0.950 . S
H1168 C1174 0.949 . S
C1169 H1164 0.950 . S
C1169 C1171 1.327 . S
C1169 C1175 1.429 . S
C1170 C1162 1.574 . S
C1170 H1165 0.949 . S
C1170 C1176 1.368 . S
C1171 C1155 1.349 . S
C1171 H1163 0.950 . S
C1171 C1169 1.327 . S
C1172 C1160 1.349 . S
C1172 H1166 0.950 . S
C1172 C1173 1.327 . S
C1173 H1167 0.950 . S
C1173 C1172 1.327 . S
C1173 C1177 1.429 . S
C1174 C1157 1.574 . S
C1174 H1168 0.949 . S
C1174 C1178 1.368 . S
C1175 C1156 1.429 . S
C1175 C1169 1.429 . S
C1175 C1176 1.523 . S
C1176 C1157 1.368 . S
C1176 C1170 1.368 . S
C1176 C1175 1.523 . S
C1177 C1161 1.429 . S
C1177 C1173 1.429 . S
C1177 C1178 1.523 . S
C1178 C1162 1.368 . S
C1178 C1174 1.368 . S
C1178 C1177 1.523 . S
H1179 C1154 0.950 . S
H1180 C1156 0.950 . S
H1181 C1157 0.949 . S
H1182 C1159 0.950 . S
H1183 C1161 0.950 . S
C1184 C1185 1.349 . S
C1184 C1186 1.327 . S
C1184 H1209 0.950 . S
C1185 C1184 1.349 . S
C1185 C1201 1.349 . S
C1186 C1184 1.327 . S
C1186 C1205 1.429 . S
C1186 H1210 0.950 . S
C1187 C1204 1.574 . S
C1187 C1206 1.368 . S
C1187 H1211 0.949 . S
H1188 C1192 0.949 . S
C1189 C1190 1.349 . S
C1189 C1191 1.327 . S
C1189 H1212 0.950 . S
C1190 C1189 1.349 . S
C1190 C1202 1.349 . S
C1191 C1189 1.327 . S
C1191 C1207 1.429 . S
C1191 H1213 0.950 . S
C1192 H1188 0.949 . S
C1192 C1200 1.574 . S
C1192 C1208 1.368 . S
H1193 C1201 0.950 . S
H1194 C1199 0.950 . S
H1195 C1200 0.949 . S
H1196 C1202 0.950 . S
H1197 C1203 0.950 . S
H1198 C1204 0.949 . S
C1199 H1194 0.950 . S
C1199 C1201 1.327 . S
C1199 C1205 1.429 . S
C1200 C1192 1.574 . S
C1200 H1195 0.949 . S
C1200 C1206 1.368 . S
C1201 C1185 1.349 . S
C1201 H1193 0.950 . S
C1201 C1199 1.327 . S
C1202 C1190 1.349 . S
C1202 H1196 0.950 . S
C1202 C1203 1.327 . S
C1203 H1197 0.950 . S
C1203 C1202 1.327 . S
C1203 C1207 1.429 . S
C1204 C1187 1.574 . S
C1204 H1198 0.949 . S
C1204 C1208 1.368 . S
C1205 C1186 1.429 . S
C1205 C1199 1.429 . S
C1205 C1206 1.523 . S
C1206 C1187 1.368 . S
C1206 C1200 1.368 . S
C1206 C1205 1.523 . S
C1207 C1191 1.429 . S
C1207 C1203 1.429 . S
C1207 C1208 1.523 . S
C1208 C1192 1.368 . S
C1208 C1204 1.368 . S
C1208 C1207 1.523 . S
H1209 C1184 0.950 . S
H1210 C1186 0.950 . S
H1211 C1187 0.949 . S
H1212 C1189 0.950 . S
H1213 C1191 0.950 . S
C1214 C1215 1.349 . S
C1214 C1216 1.327 . S
C1214 H1239 0.950 . S
C1215 C1214 1.349 . S
C1215 C1231 1.349 . S
C1216 C1214 1.327 . S
C1216 C1235 1.429 . S
C1216 H1240 0.950 . S
C1217 C1234 1.574 . S
C1217 C1236 1.368 . S
C1217 H1241 0.949 . S
H1218 C1222 0.949 . S
C1219 C1220 1.349 . S
C1219 C1221 1.327 . S
C1219 H1242 0.950 . S
C1220 C1219 1.349 . S
C1220 C1232 1.349 . S
C1221 C1219 1.327 . S
C1221 C1237 1.429 . S
C1221 H1243 0.950 . S
C1222 H1218 0.949 . S
C1222 C1230 1.574 . S
C1222 C1238 1.368 . S
H1223 C1231 0.950 . S
H1224 C1229 0.950 . S
H1225 C1230 0.949 . S
H1226 C1232 0.950 . S
H1227 C1233 0.950 . S
H1228 C1234 0.949 . S
C1229 H1224 0.950 . S
C1229 C1231 1.327 . S
C1229 C1235 1.429 . S
C1230 C1222 1.574 . S
C1230 H1225 0.949 . S
C1230 C1236 1.368 . S
C1231 C1215 1.349 . S
C1231 H1223 0.950 . S
C1231 C1229 1.327 . S
C1232 C1220 1.349 . S
C1232 H1226 0.950 . S
C1232 C1233 1.327 . S
C1233 H1227 0.950 . S
C1233 C1232 1.327 . S
C1233 C1237 1.429 . S
C1234 C1217 1.574 . S
C1234 H1228 0.949 . S
C1234 C1238 1.368 . S
C1235 C1216 1.429 . S
C1235 C1229 1.429 . S
C1235 C1236 1.523 . S
C1236 C1217 1.368 . S
C1236 C1230 1.368 . S
C1236 C1235 1.523 . S
C1237 C1221 1.429 . S
C1237 C1233 1.429 . S
C1237 C1238 1.523 . S
C1238 C1222 1.368 . S
C1238 C1234 1.368 . S
C1238 C1237 1.523 . S
H1239 C1214 0.950 . S
H1240 C1216 0.950 . S
H1241 C1217 0.949 . S
H1242 C1219 0.950 . S
H1243 C1221 0.950 . S
C1244 C1245 1.349 . S
C1244 C1246 1.327 . S
C1244 H1269 0.950 . S
C1245 C1244 1.349 . S
C1245 C1261 1.349 . S
C1246 C1244 1.327 . S
C1246 C1265 1.429 . S
C1246 H1270 0.950 . S
C1247 C1264 1.574 . S
C1247 C1266 1.368 . S
C1247 H1271 0.949 . S
H1248 C1252 0.949 . S
C1249 C1250 1.349 . S
C1249 C1251 1.327 . S
C1249 H1272 0.950 . S
C1250 C1249 1.349 . S
C1250 C1262 1.349 . S
C1251 C1249 1.327 . S
C1251 C1267 1.429 . S
C1251 H1273 0.950 . S
C1252 H1248 0.949 . S
C1252 C1260 1.574 . S
C1252 C1268 1.368 . S
H1253 C1261 0.950 . S
H1254 C1259 0.950 . S
H1255 C1260 0.949 . S
H1256 C1262 0.950 . S
H1257 C1263 0.950 . S
H1258 C1264 0.949 . S
C1259 H1254 0.950 . S
C1259 C1261 1.327 . S
C1259 C1265 1.429 . S
C1260 C1252 1.574 . S
C1260 H1255 0.949 . S
C1260 C1266 1.368 . S
C1261 C1245 1.349 . S
C1261 H1253 0.950 . S
C1261 C1259 1.327 . S
C1262 C1250 1.349 . S
C1262 H1256 0.950 . S
C1262 C1263 1.327 . S
C1263 H1257 0.950 . S
C1263 C1262 1.327 . S
C1263 C1267 1.429 . S
C1264 C1247 1.574 . S
C1264 H1258 0.949 . S
C1264 C1268 1.368 . S
C1265 C1246 1.429 . S
C1265 C1259 1.429 . S
C1265 C1266 1.523 . S
C1266 C1247 1.368 . S
C1266 C1260 1.368 . S
C1266 C1265 1.523 . S
C1267 C1251 1.429 . S
C1267 C1263 1.429 . S
C1267 C1268 1.523 . S
C1268 C1252 1.368 . S
C1268 C1264 1.368 . S
C1268 C1267 1.523 . S
H1269 C1244 0.950 . S
H1270 C1246 0.950 . S
H1271 C1247 0.949 . S
H1272 C1249 0.950 . S
H1273 C1251 0.950 . S
C1274 C1275 1.349 . S
C1274 C1276 1.327 . S
C1274 H1299 0.950 . S
C1275 C1274 1.349 . S
C1275 C1291 1.349 . S
C1276 C1274 1.327 . S
C1276 C1295 1.429 . S
C1276 H1300 0.950 . S
C1277 C1294 1.574 . S
C1277 C1296 1.368 . S
C1277 H1301 0.949 . S
H1278 C1282 0.949 . S
C1279 C1280 1.349 . S
C1279 C1281 1.327 . S
C1279 H1302 0.950 . S
C1280 C1279 1.349 . S
C1280 C1292 1.349 . S
C1281 C1279 1.327 . S
C1281 C1297 1.429 . S
C1281 H1303 0.950 . S
C1282 H1278 0.949 . S
C1282 C1290 1.574 . S
C1282 C1298 1.368 . S
H1283 C1291 0.950 . S
H1284 C1289 0.950 . S
H1285 C1290 0.949 . S
H1286 C1292 0.950 . S
H1287 C1293 0.950 . S
H1288 C1294 0.949 . S
C1289 H1284 0.950 . S
C1289 C1291 1.327 . S
C1289 C1295 1.429 . S
C1290 C1282 1.574 . S
C1290 H1285 0.949 . S
C1290 C1296 1.368 . S
C1291 C1275 1.349 . S
C1291 H1283 0.950 . S
C1291 C1289 1.327 . S
C1292 C1280 1.349 . S
C1292 H1286 0.950 . S
C1292 C1293 1.327 . S
C1293 H1287 0.950 . S
C1293 C1292 1.327 . S
C1293 C1297 1.429 . S
C1294 C1277 1.574 . S
C1294 H1288 0.949 . S
C1294 C1298 1.368 . S
C1295 C1276 1.429 . S
C1295 C1289 1.429 . S
C1295 C1296 1.523 . S
C1296 C1277 1.368 . S
C1296 C1290 1.368 . S
C1296 C1295 1.523 . S
C1297 C1281 1.429 . S
C1297 C1293 1.429 . S
C1297 C1298 1.523 . S
C1298 C1282 1.368 . S
C1298 C1294 1.368 . S
C1298 C1297 1.523 . S
H1299 C1274 0.950 . S
H1300 C1276 0.950 . S
H1301 C1277 0.949 . S
H1302 C1279 0.950 . S
H1303 C1281 0.950 . S
C1304 C1305 1.349 . S
C1304 C1306 1.327 . S
C1304 H1329 0.950 . S
C1305 C1304 1.349 . S
C1305 C1321 1.349 . S
C1306 C1304 1.327 . S
C1306 C1325 1.429 . S
C1306 H1330 0.950 . S
C1307 C1324 1.574 . S
C1307 C1326 1.368 . S
C1307 H1331 0.949 . S
H1308 C1312 0.949 . S
C1309 C1310 1.349 . S
C1309 C1311 1.327 . S
C1309 H1332 0.950 . S
C1310 C1309 1.349 . S
C1310 C1322 1.349 . S
C1311 C1309 1.327 . S
C1311 C1327 1.429 . S
C1311 H1333 0.950 . S
C1312 H1308 0.949 . S
C1312 C1320 1.574 . S
C1312 C1328 1.368 . S
H1313 C1321 0.950 . S
H1314 C1319 0.950 . S
H1315 C1320 0.949 . S
H1316 C1322 0.950 . S
H1317 C1323 0.950 . S
H1318 C1324 0.949 . S
C1319 H1314 0.950 . S
C1319 C1321 1.327 . S
C1319 C1325 1.429 . S
C1320 C1312 1.574 . S
C1320 H1315 0.949 . S
C1320 C1326 1.368 . S
C1321 C1305 1.349 . S
C1321 H1313 0.950 . S
C1321 C1319 1.327 . S
C1322 C1310 1.349 . S
C1322 H1316 0.950 . S
C1322 C1323 1.327 . S
C1323 H1317 0.950 . S
C1323 C1322 1.327 . S
C1323 C1327 1.429 . S
C1324 C1307 1.574 . S
C1324 H1318 0.949 . S
C1324 C1328 1.368 . S
C1325 C1306 1.429 . S
C1325 C1319 1.429 . S
C1325 C1326 1.523 . S
C1326 C1307 1.368 . S
C1326 C1320 1.368 . S
C1326 C1325 1.523 . S
C1327 C1311 1.429 . S
C1327 C1323 1.429 . S
C1327 C1328 1.523 . S
C1328 C1312 1.368 . S
C1328 C1324 1.368 . S
C1328 C1327 1.523 . S
H1329 C1304 0.950 . S
H1330 C1306 0.950 . S
H1331 C1307 0.949 . S
H1332 C1309 0.950 . S
H1333 C1311 0.950 . S
C1334 C1335 1.349 . S
C1334 C1336 1.327 . S
C1334 H1359 0.950 . S
C1335 C1334 1.349 . S
C1335 C1351 1.349 . S
C1336 C1334 1.327 . S
C1336 C1355 1.429 . S
C1336 H1360 0.950 . S
C1337 C1354 1.574 . S
C1337 C1356 1.368 . S
C1337 H1361 0.949 . S
H1338 C1342 0.949 . S
C1339 C1340 1.349 . S
C1339 C1341 1.327 . S
C1339 H1362 0.950 . S
C1340 C1339 1.349 . S
C1340 C1352 1.349 . S
C1341 C1339 1.327 . S
C1341 C1357 1.429 . S
C1341 H1363 0.950 . S
C1342 H1338 0.949 . S
C1342 C1350 1.574 . S
C1342 C1358 1.368 . S
H1343 C1351 0.950 . S
H1344 C1349 0.950 . S
H1345 C1350 0.949 . S
H1346 C1352 0.950 . S
H1347 C1353 0.950 . S
H1348 C1354 0.949 . S
C1349 H1344 0.950 . S
C1349 C1351 1.327 . S
C1349 C1355 1.429 . S
C1350 C1342 1.574 . S
C1350 H1345 0.949 . S
C1350 C1356 1.368 . S
C1351 C1335 1.349 . S
C1351 H1343 0.950 . S
C1351 C1349 1.327 . S
C1352 C1340 1.349 . S
C1352 H1346 0.950 . S
C1352 C1353 1.327 . S
C1353 H1347 0.950 . S
C1353 C1352 1.327 . S
C1353 C1357 1.429 . S
C1354 C1337 1.574 . S
C1354 H1348 0.949 . S
C1354 C1358 1.368 . S
C1355 C1336 1.429 . S
C1355 C1349 1.429 . S
C1355 C1356 1.523 . S
C1356 C1337 1.368 . S
C1356 C1350 1.368 . S
C1356 C1355 1.523 . S
C1357 C1341 1.429 . S
C1357 C1353 1.429 . S
C1357 C1358 1.523 . S
C1358 C1342 1.368 . S
C1358 C1354 1.368 . S
C1358 C1357 1.523 . S
H1359 C1334 0.950 . S
H1360 C1336 0.950 . S
H1361 C1337 0.949 . S
H1362 C1339 0.950 . S
H1363 C1341 0.950 . S
C1364 C1365 1.349 . S
C1364 C1366 1.327 . S
C1364 H1389 0.950 . S
C1365 C1364 1.349 . S
C1365 C1381 1.349 . S
C1366 C1364 1.327 . S
C1366 C1385 1.429 . S
C1366 H1390 0.950 . S
C1367 C1384 1.574 . S
C1367 C1386 1.368 . S
C1367 H1391 0.949 . S
H1368 C1372 0.949 . S
C1369 C1370 1.349 . S
C1369 C1371 1.327 . S
C1369 H1392 0.950 . S
C1370 C1369 1.349 . S
C1370 C1382 1.349 . S
C1371 C1369 1.327 . S
C1371 C1387 1.429 . S
C1371 H1393 0.950 . S
C1372 H1368 0.949 . S
C1372 C1380 1.574 . S
C1372 C1388 1.368 . S
H1373 C1381 0.950 . S
H1374 C1379 0.950 . S
H1375 C1380 0.949 . S
H1376 C1382 0.950 . S
H1377 C1383 0.950 . S
H1378 C1384 0.949 . S
C1379 H1374 0.950 . S
C1379 C1381 1.327 . S
C1379 C1385 1.429 . S
C1380 C1372 1.574 . S
C1380 H1375 0.949 . S
C1380 C1386 1.368 . S
C1381 C1365 1.349 . S
C1381 H1373 0.950 . S
C1381 C1379 1.327 . S
C1382 C1370 1.349 . S
C1382 H1376 0.950 . S
C1382 C1383 1.327 . S
C1383 H1377 0.950 . S
C1383 C1382 1.327 . S
C1383 C1387 1.429 . S
C1384 C1367 1.574 . S
C1384 H1378 0.949 . S
C1384 C1388 1.368 . S
C1385 C1366 1.429 . S
C1385 C1379 1.429 . S
C1385 C1386 1.523 . S
C1386 C1367 1.368 . S
C1386 C1380 1.368 . S
C1386 C1385 1.523 . S
C1387 C1371 1.429 . S
C1387 C1383 1.429 . S
C1387 C1388 1.523 . S
C1388 C1372 1.368 . S
C1388 C1384 1.368 . S
C1388 C1387 1.523 . S
H1389 C1364 0.950 . S
H1390 C1366 0.950 . S
H1391 C1367 0.949 . S
H1392 C1369 0.950 . S
H1393 C1371 0.950 . S
C1394 C1395 1.349 . S
C1394 C1396 1.327 . S
C1394 H1419 0.950 . S
C1395 C1394 1.349 . S
C1395 C1411 1.349 . S
C1396 C1394 1.327 . S
C1396 C1415 1.429 . S
C1396 H1420 0.950 . S
C1397 C1414 1.574 . S
C1397 C1416 1.368 . S
C1397 H1421 0.949 . S
H1398 C1402 0.949 . S
C1399 C1400 1.349 . S
C1399 C1401 1.327 . S
C1399 H1422 0.950 . S
C1400 C1399 1.349 . S
C1400 C1412 1.349 . S
C1401 C1399 1.327 . S
C1401 C1417 1.429 . S
C1401 H1423 0.950 . S
C1402 H1398 0.949 . S
C1402 C1410 1.574 . S
C1402 C1418 1.368 . S
H1403 C1411 0.950 . S
H1404 C1409 0.950 . S
H1405 C1410 0.949 . S
H1406 C1412 0.950 . S
H1407 C1413 0.950 . S
H1408 C1414 0.949 . S
C1409 H1404 0.950 . S
C1409 C1411 1.327 . S
C1409 C1415 1.429 . S
C1410 C1402 1.574 . S
C1410 H1405 0.949 . S
C1410 C1416 1.368 . S
C1411 C1395 1.349 . S
C1411 H1403 0.950 . S
C1411 C1409 1.327 . S
C1412 C1400 1.349 . S
C1412 H1406 0.950 . S
C1412 C1413 1.327 . S
C1413 H1407 0.950 . S
C1413 C1412 1.327 . S
C1413 C1417 1.429 . S
C1414 C1397 1.574 . S
C1414 H1408 0.949 . S
C1414 C1418 1.368 . S
C1415 C1396 1.429 . S
C1415 C1409 1.429 . S
C1415 C1416 1.523 . S
C1416 C1397 1.368 . S
C1416 C1410 1.368 . S
C1416 C1415 1.523 . S
C1417 C1401 1.429 . S
C1417 C1413 1.429 . S
C1417 C1418 1.523 . S
C1418 C1402 1.368 . S
C1418 C1414 1.368 . S
C1418 C1417 1.523 . S
H1419 C1394 0.950 . S
H1420 C1396 0.950 . S
H1421 C1397 0.949 . S
H1422 C1399 0.950 . S
H1423 C1401 0.950 . S
C1424 C1425 1.349 . S
C1424 C1426 1.327 . S
C1424 H1449 0.950 . S
C1425 C1424 1.349 . S
C1425 C1441 1.349 . S
C1426 C1424 1.327 . S
C1426 C1445 1.429 . S
C1426 H1450 0.950 . S
C1427 C1444 1.574 . S
C1427 C1446 1.368 . S
C1427 H1451 0.949 . S
H1428 C1432 0.949 . S
C1429 C1430 1.349 . S
C1429 C1431 1.327 . S
C1429 H1452 0.950 . S
C1430 C1429 1.349 . S
C1430 C1442 1.349 . S
C1431 C1429 1.327 . S
C1431 C1447 1.429 . S
C1431 H1453 0.950 . S
C1432 H1428 0.949 . S
C1432 C1440 1.574 . S
C1432 C1448 1.368 . S
H1433 C1441 0.950 . S
H1434 C1439 0.950 . S
H1435 C1440 0.949 . S
H1436 C1442 0.950 . S
H1437 C1443 0.950 . S
H1438 C1444 0.949 . S
C1439 H1434 0.950 . S
C1439 C1441 1.327 . S
C1439 C1445 1.429 . S
C1440 C1432 1.574 . S
C1440 H1435 0.949 . S
C1440 C1446 1.368 . S
C1441 C1425 1.349 . S
C1441 H1433 0.950 . S
C1441 C1439 1.327 . S
C1442 C1430 1.349 . S
C1442 H1436 0.950 . S
C1442 C1443 1.327 . S
C1443 H1437 0.950 . S
C1443 C1442 1.327 . S
C1443 C1447 1.429 . S
C1444 C1427 1.574 . S
C1444 H1438 0.949 . S
C1444 C1448 1.368 . S
C1445 C1426 1.429 . S
C1445 C1439 1.429 . S
C1445 C1446 1.523 . S
C1446 C1427 1.368 . S
C1446 C1440 1.368 . S
C1446 C1445 1.523 . S
C1447 C1431 1.429 . S
C1447 C1443 1.429 . S
C1447 C1448 1.523 . S
C1448 C1432 1.368 . S
C1448 C1444 1.368 . S
C1448 C1447 1.523 . S
H1449 C1424 0.950 . S
H1450 C1426 0.950 . S
H1451 C1427 0.949 . S
H1452 C1429 0.950 . S
H1453 C1431 0.950 . S
C1454 C1455 1.349 . S
C1454 C1456 1.327 . S
C1454 H1479 0.950 . S
C1455 C1454 1.349 . S
C1455 C1471 1.349 . S
C1456 C1454 1.327 . S
C1456 C1475 1.429 . S
C1456 H1480 0.950 . S
C1457 C1474 1.574 . S
C1457 C1476 1.368 . S
C1457 H1481 0.949 . S
H1458 C1462 0.949 . S
C1459 C1460 1.349 . S
C1459 C1461 1.327 . S
C1459 H1482 0.950 . S
C1460 C1459 1.349 . S
C1460 C1472 1.349 . S
C1461 C1459 1.327 . S
C1461 C1477 1.429 . S
C1461 H1483 0.950 . S
C1462 H1458 0.949 . S
C1462 C1470 1.574 . S
C1462 C1478 1.368 . S
H1463 C1471 0.950 . S
H1464 C1469 0.950 . S
H1465 C1470 0.949 . S
H1466 C1472 0.950 . S
H1467 C1473 0.950 . S
H1468 C1474 0.949 . S
C1469 H1464 0.950 . S
C1469 C1471 1.327 . S
C1469 C1475 1.429 . S
C1470 C1462 1.574 . S
C1470 H1465 0.949 . S
C1470 C1476 1.368 . S
C1471 C1455 1.349 . S
C1471 H1463 0.950 . S
C1471 C1469 1.327 . S
C1472 C1460 1.349 . S
C1472 H1466 0.950 . S
C1472 C1473 1.327 . S
C1473 H1467 0.950 . S
C1473 C1472 1.327 . S
C1473 C1477 1.429 . S
C1474 C1457 1.574 . S
C1474 H1468 0.949 . S
C1474 C1478 1.368 . S
C1475 C1456 1.429 . S
C1475 C1469 1.429 . S
C1475 C1476 1.523 . S
C1476 C1457 1.368 . S
C1476 C1470 1.368 . S
C1476 C1475 1.523 . S
C1477 C1461 1.429 . S
C1477 C1473 1.429 . S
C1477 C1478 1.523 . S
C1478 C1462 1.368 . S
C1478 C1474 1.368 . S
C1478 C1477 1.523 . S
H1479 C1454 0.950 . S
H1480 C1456 0.950 . S
H1481 C1457 0.949 . S
H1482 C1459 0.950 . S
H1483 C1461 0.950 . S
C1484 C1485 1.349 . S
C1484 C1486 1.327 . S
C1484 H1509 0.950 . S
C1485 C1484 1.349 . S
C1485 C1501 1.349 . S
C1486 C1484 1.327 . S
C1486 C1505 1.429 . S
C1486 H1510 0.950 . S
C1487 C1504 1.574 . S
C1487 C1506 1.368 . S
C1487 H1511 0.949 . S
H1488 C1492 0.949 . S
C1489 C1490 1.349 . S
C1489 C1491 1.327 . S
C1489 H1512 0.950 . S
C1490 C1489 1.349 . S
C1490 C1502 1.349 . S
C1491 C1489 1.327 . S
C1491 C1507 1.429 . S
C1491 H1513 0.950 . S
C1492 H1488 0.949 . S
C1492 C1500 1.574 . S
C1492 C1508 1.368 . S
H1493 C1501 0.950 . S
H1494 C1499 0.950 . S
H1495 C1500 0.949 . S
H1496 C1502 0.950 . S
H1497 C1503 0.950 . S
H1498 C1504 0.949 . S
C1499 H1494 0.950 . S
C1499 C1501 1.327 . S
C1499 C1505 1.429 . S
C1500 C1492 1.574 . S
C1500 H1495 0.949 . S
C1500 C1506 1.368 . S
C1501 C1485 1.349 . S
C1501 H1493 0.950 . S
C1501 C1499 1.327 . S
C1502 C1490 1.349 . S
C1502 H1496 0.950 . S
C1502 C1503 1.327 . S
C1503 H1497 0.950 . S
C1503 C1502 1.327 . S
C1503 C1507 1.429 . S
C1504 C1487 1.574 . S
C1504 H1498 0.949 . S
C1504 C1508 1.368 . S
C1505 C1486 1.429 . S
C1505 C1499 1.429 . S
C1505 C1506 1.523 . S
C1506 C1487 1.368 . S
C1506 C1500 1.368 . S
C1506 C1505 1.523 . S
C1507 C1491 1.429 . S
C1507 C1503 1.429 . S
C1507 C1508 1.523 . S
C1508 C1492 1.368 . S
C1508 C1504 1.368 . S
C1508 C1507 1.523 . S
H1509 C1484 0.950 . S
H1510 C1486 0.950 . S
H1511 C1487 0.949 . S
H1512 C1489 0.950 . S
H1513 C1491 0.950 . S
C1514 C1515 1.349 . S
C1514 C1516 1.327 . S
C1514 H1539 0.950 . S
C1515 C1514 1.349 . S
C1515 C1531 1.349 . S
C1516 C1514 1.327 . S
C1516 C1535 1.429 . S
C1516 H1540 0.950 . S
C1517 C1534 1.574 . S
C1517 C1536 1.368 . S
C1517 H1541 0.949 . S
H1518 C1522 0.949 . S
C1519 C1520 1.349 . S
C1519 C1521 1.327 . S
C1519 H1542 0.950 . S
C1520 C1519 1.349 . S
C1520 C1532 1.349 . S
C1521 C1519 1.327 . S
C1521 C1537 1.429 . S
C1521 H1543 0.950 . S
C1522 H1518 0.949 . S
C1522 C1530 1.574 . S
C1522 C1538 1.368 . S
H1523 C1531 0.950 . S
H1524 C1529 0.950 . S
H1525 C1530 0.949 . S
H1526 C1532 0.950 . S
H1527 C1533 0.950 . S
H1528 C1534 0.949 . S
C1529 H1524 0.950 . S
C1529 C1531 1.327 . S
C1529 C1535 1.429 . S
C1530 C1522 1.574 . S
C1530 H1525 0.949 . S
C1530 C1536 1.368 . S
C1531 C1515 1.349 . S
C1531 H1523 0.950 . S
C1531 C1529 1.327 . S
C1532 C1520 1.349 . S
C1532 H1526 0.950 . S
C1532 C1533 1.327 . S
C1533 H1527 0.950 . S
C1533 C1532 1.327 . S
C1533 C1537 1.429 . S
C1534 C1517 1.574 . S
C1534 H1528 0.949 . S
C1534 C1538 1.368 . S
C1535 C1516 1.429 . S
C1535 C1529 1.429 . S
C1535 C1536 1.523 . S
C1536 C1517 1.368 . S
C1536 C1530 1.368 . S
C1536 C1535 1.523 . S
C1537 C1521 1.429 . S
C1537 C1533 1.429 . S
C1537 C1538 1.523 . S
C1538 C1522 1.368 . S
C1538 C1534 1.368 . S
C1538 C1537 1.523 . S
H1539 C1514 0.950 . S
H1540 C1516 0.950 . S
H1541 C1517 0.949 . S
H1542 C1519 0.950 . S
H1543 C1521 0.950 . S
C1544 C1545 1.349 . S
C1544 C1546 1.327 . S
C1544 H1569 0.950 . S
C1545 C1544 1.349 . S
C1545 C1561 1.349 . S
C1546 C1544 1.327 . S
C1546 C1565 1.429 . S
C1546 H1570 0.950 . S
C1547 C1564 1.574 . S
C1547 C1566 1.368 . S
C1547 H1571 0.949 . S
H1548 C1552 0.949 . S
C1549 C1550 1.349 . S
C1549 C1551 1.327 . S
C1549 H1572 0.950 . S
C1550 C1549 1.349 . S
C1550 C1562 1.349 . S
C1551 C1549 1.327 . S
C1551 C1567 1.429 . S
C1551 H1573 0.950 . S
C1552 H1548 0.949 . S
C1552 C1560 1.574 . S
C1552 C1568 1.368 . S
H1553 C1561 0.950 . S
H1554 C1559 0.950 . S
H1555 C1560 0.949 . S
H1556 C1562 0.950 . S
H1557 C1563 0.950 . S
H1558 C1564 0.949 . S
C1559 H1554 0.950 . S
C1559 C1561 1.327 . S
C1559 C1565 1.429 . S
C1560 C1552 1.574 . S
C1560 H1555 0.949 . S
C1560 C1566 1.368 . S
C1561 C1545 1.349 . S
C1561 H1553 0.950 . S
C1561 C1559 1.327 . S
C1562 C1550 1.349 . S
C1562 H1556 0.950 . S
C1562 C1563 1.327 . S
C1563 H1557 0.950 . S
C1563 C1562 1.327 . S
C1563 C1567 1.429 . S
C1564 C1547 1.574 . S
C1564 H1558 0.949 . S
C1564 C1568 1.368 . S
C1565 C1546 1.429 . S
C1565 C1559 1.429 . S
C1565 C1566 1.523 . S
C1566 C1547 1.368 . S
C1566 C1560 1.368 . S
C1566 C1565 1.523 . S
C1567 C1551 1.429 . S
C1567 C1563 1.429 . S
C1567 C1568 1.523 . S
C1568 C1552 1.368 . S
C1568 C1564 1.368 . S
C1568 C1567 1.523 . S
H1569 C1544 0.950 . S
H1570 C1546 0.950 . S
H1571 C1547 0.949 . S
H1572 C1549 0.950 . S
H1573 C1551 0.950 . S
C1574 C1575 1.349 . S
C1574 C1576 1.327 . S
C1574 H1599 0.950 . S
C1575 C1574 1.349 . S
C1575 C1591 1.349 . S
C1576 C1574 1.327 . S
C1576 C1595 1.429 . S
C1576 H1600 0.950 . S
C1577 C1594 1.574 . S
C1577 C1596 1.368 . S
C1577 H1601 0.949 . S
H1578 C1582 0.949 . S
C1579 C1580 1.349 . S
C1579 C1581 1.327 . S
C1579 H1602 0.950 . S
C1580 C1579 1.349 . S
C1580 C1592 1.349 . S
C1581 C1579 1.327 . S
C1581 C1597 1.429 . S
C1581 H1603 0.950 . S
C1582 H1578 0.949 . S
C1582 C1590 1.574 . S
C1582 C1598 1.368 . S
H1583 C1591 0.950 . S
H1584 C1589 0.950 . S
H1585 C1590 0.949 . S
H1586 C1592 0.950 . S
H1587 C1593 0.950 . S
H1588 C1594 0.949 . S
C1589 H1584 0.950 . S
C1589 C1591 1.327 . S
C1589 C1595 1.429 . S
C1590 C1582 1.574 . S
C1590 H1585 0.949 . S
C1590 C1596 1.368 . S
C1591 C1575 1.349 . S
C1591 H1583 0.950 . S
C1591 C1589 1.327 . S
C1592 C1580 1.349 . S
C1592 H1586 0.950 . S
C1592 C1593 1.327 . S
C1593 H1587 0.950 . S
C1593 C1592 1.327 . S
C1593 C1597 1.429 . S
C1594 C1577 1.574 . S
C1594 H1588 0.949 . S
C1594 C1598 1.368 . S
C1595 C1576 1.429 . S
C1595 C1589 1.429 . S
C1595 C1596 1.523 . S
C1596 C1577 1.368 . S
C1596 C1590 1.368 . S
C1596 C1595 1.523 . S
C1597 C1581 1.429 . S
C1597 C1593 1.429 . S
C1597 C1598 1.523 . S
C1598 C1582 1.368 . S
C1598 C1594 1.368 . S
C1598 C1597 1.523 . S
H1599 C1574 0.950 . S
H1600 C1576 0.950 . S
H1601 C1577 0.949 . S
H1602 C1579 0.950 . S
H1603 C1581 0.950 . S
C1604 C1605 1.349 . S
C1604 C1606 1.327 . S
C1604 H1629 0.950 . S
C1605 C1604 1.349 . S
C1605 C1621 1.349 . S
C1606 C1604 1.327 . S
C1606 C1625 1.429 . S
C1606 H1630 0.950 . S
C1607 C1624 1.574 . S
C1607 C1626 1.368 . S
C1607 H1631 0.949 . S
H1608 C1612 0.949 . S
C1609 C1610 1.349 . S
C1609 C1611 1.327 . S
C1609 H1632 0.950 . S
C1610 C1609 1.349 . S
C1610 C1622 1.349 . S
C1611 C1609 1.327 . S
C1611 C1627 1.429 . S
C1611 H1633 0.950 . S
C1612 H1608 0.949 . S
C1612 C1620 1.574 . S
C1612 C1628 1.368 . S
H1613 C1621 0.950 . S
H1614 C1619 0.950 . S
H1615 C1620 0.949 . S
H1616 C1622 0.950 . S
H1617 C1623 0.950 . S
H1618 C1624 0.949 . S
C1619 H1614 0.950 . S
C1619 C1621 1.327 . S
C1619 C1625 1.429 . S
C1620 C1612 1.574 . S
C1620 H1615 0.949 . S
C1620 C1626 1.368 . S
C1621 C1605 1.349 . S
C1621 H1613 0.950 . S
C1621 C1619 1.327 . S
C1622 C1610 1.349 . S
C1622 H1616 0.950 . S
C1622 C1623 1.327 . S
C1623 H1617 0.950 . S
C1623 C1622 1.327 . S
C1623 C1627 1.429 . S
C1624 C1607 1.574 . S
C1624 H1618 0.949 . S
C1624 C1628 1.368 . S
C1625 C1606 1.429 . S
C1625 C1619 1.429 . S
C1625 C1626 1.523 . S
C1626 C1607 1.368 . S
C1626 C1620 1.368 . S
C1626 C1625 1.523 . S
C1627 C1611 1.429 . S
C1627 C1623 1.429 . S
C1627 C1628 1.523 . S
C1628 C1612 1.368 . S
C1628 C1624 1.368 . S
C1628 C1627 1.523 . S
H1629 C1604 0.950 . S
H1630 C1606 0.950 . S
H1631 C1607 0.949 . S
H1632 C1609 0.950 . S
H1633 C1611 0.950 . S
C1634 C1635 1.349 . S
C1634 C1636 1.327 . S
C1634 H1659 0.950 . S
C1635 C1634 1.349 . S
C1635 C1651 1.349 . S
C1636 C1634 1.327 . S
C1636 C1655 1.429 . S
C1636 H1660 0.950 . S
C1637 C1654 1.574 . S
C1637 C1656 1.368 . S
C1637 H1661 0.949 . S
H1638 C1642 0.949 . S
C1639 C1640 1.349 . S
C1639 C1641 1.327 . S
C1639 H1662 0.950 . S
C1640 C1639 1.349 . S
C1640 C1652 1.349 . S
C1641 C1639 1.327 . S
C1641 C1657 1.429 . S
C1641 H1663 0.950 . S
C1642 H1638 0.949 . S
C1642 C1650 1.574 . S
C1642 C1658 1.368 . S
H1643 C1651 0.950 . S
H1644 C1649 0.950 . S
H1645 C1650 0.949 . S
H1646 C1652 0.950 . S
H1647 C1653 0.950 . S
H1648 C1654 0.949 . S
C1649 H1644 0.950 . S
C1649 C1651 1.327 . S
C1649 C1655 1.429 . S
C1650 C1642 1.574 . S
C1650 H1645 0.949 . S
C1650 C1656 1.368 . S
C1651 C1635 1.349 . S
C1651 H1643 0.950 . S
C1651 C1649 1.327 . S
C1652 C1640 1.349 . S
C1652 H1646 0.950 . S
C1652 C1653 1.327 . S
C1653 H1647 0.950 . S
C1653 C1652 1.327 . S
C1653 C1657 1.429 . S
C1654 C1637 1.574 . S
C1654 H1648 0.949 . S
C1654 C1658 1.368 . S
C1655 C1636 1.429 . S
C1655 C1649 1.429 . S
C1655 C1656 1.523 . S
C1656 C1637 1.368 . S
C1656 C1650 1.368 . S
C1656 C1655 1.523 . S
C1657 C1641 1.429 . S
C1657 C1653 1.429 . S
C1657 C1658 1.523 . S
C1658 C1642 1.368 . S
C1658 C1654 1.368 . S
C1658 C1657 1.523 . S
H1659 C1634 0.950 . S
H1660 C1636 0.950 . S
H1661 C1637 0.949 . S
H1662 C1639 0.950 . S
H1663 C1641 0.950 . S
C1664 C1665 1.349 . S
C1664 C1666 1.327 1_565 S
C1664 H1689 0.950 . S
C1665 C1664 1.349 . S
C1665 C1681 1.349 . S
C1666 C1664 1.327 1_545 S
C1666 C1685 1.429 . S
C1666 H1690 0.950 . S
C1667 C1684 1.574 . S
C1667 C1686 1.368 . S
C1667 H1691 0.949 . S
H1668 C1672 0.949 . S
C1669 C1670 1.349 . S
C1669 C1671 1.327 . S
C1669 H1692 0.950 . S
C1670 C1669 1.349 . S
C1670 C1682 1.349 . S
C1671 C1669 1.327 . S
C1671 C1687 1.429 . S
C1671 H1693 0.950 . S
C1672 H1668 0.949 . S
C1672 C1680 1.574 . S
C1672 C1688 1.368 . S
H1673 C1681 0.950 . S
H1674 C1679 0.950 . S
H1675 C1680 0.949 . S
H1676 C1682 0.950 . S
H1677 C1683 0.950 . S
H1678 C1684 0.949 . S
C1679 H1674 0.950 . S
C1679 C1681 1.327 1_545 S
C1679 C1685 1.429 . S
C1680 C1672 1.574 . S
C1680 H1675 0.949 . S
C1680 C1686 1.368 . S
C1681 C1665 1.349 . S
C1681 H1673 0.950 . S
C1681 C1679 1.327 1_565 S
C1682 C1670 1.349 . S
C1682 H1676 0.950 . S
C1682 C1683 1.327 . S
C1683 H1677 0.950 . S
C1683 C1682 1.327 . S
C1683 C1687 1.429 . S
C1684 C1667 1.574 . S
C1684 H1678 0.949 . S
C1684 C1688 1.368 . S
C1685 C1666 1.429 . S
C1685 C1679 1.429 . S
C1685 C1686 1.523 . S
C1686 C1667 1.368 . S
C1686 C1680 1.368 . S
C1686 C1685 1.523 . S
C1687 C1671 1.429 . S
C1687 C1683 1.429 . S
C1687 C1688 1.523 . S
C1688 C1672 1.368 . S
C1688 C1684 1.368 . S
C1688 C1687 1.523 . S
H1689 C1664 0.950 . S
H1690 C1666 0.950 . S
H1691 C1667 0.949 . S
H1692 C1669 0.950 . S
H1693 C1671 0.950 . S
C1694 C1695 1.349 . S
C1694 C1696 1.327 1_455 S
C1694 H1719 0.950 . S
C1695 C1694 1.349 . S
C1695 C1711 1.349 . S
C1696 C1694 1.327 1_655 S
C1696 C1715 1.429 . S
C1696 H1720 0.950 . S
C1697 C1714 1.574 . S
C1697 C1716 1.368 . S
C1697 H1721 0.949 . S
H1698 C1702 0.949 . S
C1699 C1700 1.349 . S
C1699 C1701 1.327 . S
C1699 H1722 0.950 . S
C1700 C1699 1.349 . S
C1700 C1712 1.349 . S
C1701 C1699 1.327 . S
C1701 C1717 1.429 . S
C1701 H1723 0.950 . S
C1702 H1698 0.949 . S
C1702 C1710 1.574 . S
C1702 C1718 1.368 . S
H1703 C1711 0.950 . S
H1704 C1709 0.950 . S
H1705 C1710 0.949 . S
H1706 C1712 0.950 . S
H1707 C1713 0.950 . S
H1708 C1714 0.949 . S
C1709 H1704 0.950 . S
C1709 C1711 1.327 1_655 S
C1709 C1715 1.429 . S
C1710 C1702 1.574 . S
C1710 H1705 0.949 . S
C1710 C1716 1.368 . S
C1711 C1695 1.349 . S
C1711 H1703 0.950 . S
C1711 C1709 1.327 1_455 S
C1712 C1700 1.349 . S
C1712 H1706 0.950 . S
C1712 C1713 1.327 . S
C1713 H1707 0.950 . S
C1713 C1712 1.327 . S
C1713 C1717 1.429 . S
C1714 C1697 1.574 . S
C1714 H1708 0.949 . S
C1714 C1718 1.368 . S
C1715 C1696 1.429 . S
C1715 C1709 1.429 . S
C1715 C1716 1.523 . S
C1716 C1697 1.368 . S
C1716 C1710 1.368 . S
C1716 C1715 1.523 . S
C1717 C1701 1.429 . S
C1717 C1713 1.429 . S
C1717 C1718 1.523 . S
C1718 C1702 1.368 . S
C1718 C1714 1.368 . S
C1718 C1717 1.523 . S
H1719 C1694 0.950 . S
H1720 C1696 0.950 . S
H1721 C1697 0.949 . S
H1722 C1699 0.950 . S
H1723 C1701 0.950 . S
C1724 C1725 1.349 . S
C1724 C1726 1.327 . S
C1724 H1749 0.950 . S
C1725 C1724 1.349 . S
C1725 C1741 1.349 . S
C1726 C1724 1.327 . S
C1726 C1745 1.429 . S
C1726 H1750 0.950 . S
C1727 C1744 1.574 . S
C1727 C1746 1.368 . S
C1727 H1751 0.949 . S
H1728 C1732 0.949 . S
C1729 C1730 1.349 . S
C1729 C1731 1.327 1_545 S
C1729 H1752 0.950 . S
C1730 C1729 1.349 . S
C1730 C1742 1.349 . S
C1731 C1729 1.327 1_565 S
C1731 C1747 1.429 . S
C1731 H1753 0.950 . S
C1732 H1728 0.949 . S
C1732 C1740 1.574 . S
C1732 C1748 1.368 . S
H1733 C1741 0.950 . S
H1734 C1739 0.950 . S
H1735 C1740 0.949 . S
H1736 C1742 0.950 . S
H1737 C1743 0.950 . S
H1738 C1744 0.949 . S
C1739 H1734 0.950 . S
C1739 C1741 1.327 . S
C1739 C1745 1.429 . S
C1740 C1732 1.574 . S
C1740 H1735 0.949 . S
C1740 C1746 1.368 . S
C1741 C1725 1.349 . S
C1741 H1733 0.950 . S
C1741 C1739 1.327 . S
C1742 C1730 1.349 . S
C1742 H1736 0.950 . S
C1742 C1743 1.327 1_545 S
C1743 H1737 0.950 . S
C1743 C1742 1.327 1_565 S
C1743 C1747 1.429 . S
C1744 C1727 1.574 . S
C1744 H1738 0.949 . S
C1744 C1748 1.368 . S
C1745 C1726 1.429 . S
C1745 C1739 1.429 . S
C1745 C1746 1.523 . S
C1746 C1727 1.368 . S
C1746 C1740 1.368 . S
C1746 C1745 1.523 . S
C1747 C1731 1.429 . S
C1747 C1743 1.429 . S
C1747 C1748 1.523 . S
C1748 C1732 1.368 . S
C1748 C1744 1.368 . S
C1748 C1747 1.523 . S
H1749 C1724 0.950 . S
H1750 C1726 0.950 . S
H1751 C1727 0.949 . S
H1752 C1729 0.950 . S
H1753 C1731 0.950 . S
C1754 C1755 1.349 . S
C1754 C1756 1.327 . S
C1754 H1779 0.950 . S
C1755 C1754 1.349 . S
C1755 C1771 1.349 . S
C1756 C1754 1.327 . S
C1756 C1775 1.429 . S
C1756 H1780 0.950 . S
C1757 C1774 1.574 . S
C1757 C1776 1.368 . S
C1757 H1781 0.949 . S
H1758 C1762 0.949 . S
C1759 C1760 1.349 . S
C1759 C1761 1.327 1_655 S
C1759 H1782 0.950 . S
C1760 C1759 1.349 . S
C1760 C1772 1.349 . S
C1761 C1759 1.327 1_455 S
C1761 C1777 1.429 . S
C1761 H1783 0.950 . S
C1762 H1758 0.949 . S
C1762 C1770 1.574 . S
C1762 C1778 1.368 . S
H1763 C1771 0.950 . S
H1764 C1769 0.950 . S
H1765 C1770 0.949 . S
H1766 C1772 0.950 . S
H1767 C1773 0.950 . S
H1768 C1774 0.949 . S
C1769 H1764 0.950 . S
C1769 C1771 1.327 . S
C1769 C1775 1.429 . S
C1770 C1762 1.574 . S
C1770 H1765 0.949 . S
C1770 C1776 1.368 . S
C1771 C1755 1.349 . S
C1771 H1763 0.950 . S
C1771 C1769 1.327 . S
C1772 C1760 1.349 . S
C1772 H1766 0.950 . S
C1772 C1773 1.327 1_655 S
C1773 H1767 0.950 . S
C1773 C1772 1.327 1_455 S
C1773 C1777 1.429 . S
C1774 C1757 1.574 . S
C1774 H1768 0.949 . S
C1774 C1778 1.368 . S
C1775 C1756 1.429 . S
C1775 C1769 1.429 . S
C1775 C1776 1.523 . S
C1776 C1757 1.368 . S
C1776 C1770 1.368 . S
C1776 C1775 1.523 . S
C1777 C1761 1.429 . S
C1777 C1773 1.429 . S
C1777 C1778 1.523 . S
C1778 C1762 1.368 . S
C1778 C1774 1.368 . S
C1778 C1777 1.523 . S
H1779 C1754 0.950 . S
H1780 C1756 0.950 . S
H1781 C1757 0.949 . S
H1782 C1759 0.950 . S
H1783 C1761 0.950 . S
C1784 C1785 1.349 . S
C1784 C1786 1.327 1_545 S
C1784 H1809 0.950 . S
C1785 C1784 1.349 . S
C1785 C1801 1.349 . S
C1786 C1784 1.327 1_565 S
C1786 C1805 1.429 . S
C1786 H1810 0.950 . S
C1787 C1804 1.574 . S
C1787 C1806 1.368 . S
C1787 H1811 0.949 . S
H1788 C1792 0.949 . S
C1789 C1790 1.349 . S
C1789 C1791 1.327 . S
C1789 H1812 0.950 . S
C1790 C1789 1.349 . S
C1790 C1802 1.349 . S
C1791 C1789 1.327 . S
C1791 C1807 1.429 . S
C1791 H1813 0.950 . S
C1792 H1788 0.949 . S
C1792 C1800 1.574 . S
C1792 C1808 1.368 . S
H1793 C1801 0.950 . S
H1794 C1799 0.950 . S
H1795 C1800 0.949 . S
H1796 C1802 0.950 . S
H1797 C1803 0.950 . S
H1798 C1804 0.949 . S
C1799 H1794 0.950 . S
C1799 C1801 1.327 1_565 S
C1799 C1805 1.429 . S
C1800 C1792 1.574 . S
C1800 H1795 0.949 . S
C1800 C1806 1.368 . S
C1801 C1785 1.349 . S
C1801 H1793 0.950 . S
C1801 C1799 1.327 1_545 S
C1802 C1790 1.349 . S
C1802 H1796 0.950 . S
C1802 C1803 1.327 . S
C1803 H1797 0.950 . S
C1803 C1802 1.327 . S
C1803 C1807 1.429 . S
C1804 C1787 1.574 . S
C1804 H1798 0.949 . S
C1804 C1808 1.368 . S
C1805 C1786 1.429 . S
C1805 C1799 1.429 . S
C1805 C1806 1.523 . S
C1806 C1787 1.368 . S
C1806 C1800 1.368 . S
C1806 C1805 1.523 . S
C1807 C1791 1.429 . S
C1807 C1803 1.429 . S
C1807 C1808 1.523 . S
C1808 C1792 1.368 . S
C1808 C1804 1.368 . S
C1808 C1807 1.523 . S
H1809 C1784 0.950 . S
H1810 C1786 0.950 . S
H1811 C1787 0.949 . S
H1812 C1789 0.950 . S
H1813 C1791 0.950 . S
C1814 C1815 1.349 . S
C1814 C1816 1.327 1_655 S
C1814 H1839 0.950 . S
C1815 C1814 1.349 . S
C1815 C1831 1.349 . S
C1816 C1814 1.327 1_455 S
C1816 C1835 1.429 . S
C1816 H1840 0.950 . S
C1817 C1834 1.574 . S
C1817 C1836 1.368 . S
C1817 H1841 0.949 . S
H1818 C1822 0.949 . S
C1819 C1820 1.349 . S
C1819 C1821 1.327 . S
C1819 H1842 0.950 . S
C1820 C1819 1.349 . S
C1820 C1832 1.349 . S
C1821 C1819 1.327 . S
C1821 C1837 1.429 . S
C1821 H1843 0.950 . S
C1822 H1818 0.949 . S
C1822 C1830 1.574 . S
C1822 C1838 1.368 . S
H1823 C1831 0.950 . S
H1824 C1829 0.950 . S
H1825 C1830 0.949 . S
H1826 C1832 0.950 . S
H1827 C1833 0.950 . S
H1828 C1834 0.949 . S
C1829 H1824 0.950 . S
C1829 C1831 1.327 1_455 S
C1829 C1835 1.429 . S
C1830 C1822 1.574 . S
C1830 H1825 0.949 . S
C1830 C1836 1.368 . S
C1831 C1815 1.349 . S
C1831 H1823 0.950 . S
C1831 C1829 1.327 1_655 S
C1832 C1820 1.349 . S
C1832 H1826 0.950 . S
C1832 C1833 1.327 . S
C1833 H1827 0.950 . S
C1833 C1832 1.327 . S
C1833 C1837 1.429 . S
C1834 C1817 1.574 . S
C1834 H1828 0.949 . S
C1834 C1838 1.368 . S
C1835 C1816 1.429 . S
C1835 C1829 1.429 . S
C1835 C1836 1.523 . S
C1836 C1817 1.368 . S
C1836 C1830 1.368 . S
C1836 C1835 1.523 . S
C1837 C1821 1.429 . S
C1837 C1833 1.429 . S
C1837 C1838 1.523 . S
C1838 C1822 1.368 . S
C1838 C1834 1.368 . S
C1838 C1837 1.523 . S
H1839 C1814 0.950 . S
H1840 C1816 0.950 . S
H1841 C1817 0.949 . S
H1842 C1819 0.950 . S
H1843 C1821 0.950 . S
C1844 C1845 1.349 . S
C1844 C1846 1.327 1_565 S
C1844 H1869 0.950 . S
C1845 C1844 1.349 . S
C1845 C1861 1.349 . S
C1846 C1844 1.327 1_545 S
C1846 C1865 1.429 . S
C1846 H1870 0.950 . S
C1847 C1864 1.574 . S
C1847 C1866 1.368 . S
C1847 H1871 0.949 . S
H1848 C1852 0.949 . S
C1849 C1850 1.349 . S
C1849 C1851 1.327 . S
C1849 H1872 0.950 . S
C1850 C1849 1.349 . S
C1850 C1862 1.349 . S
C1851 C1849 1.327 . S
C1851 C1867 1.429 . S
C1851 H1873 0.950 . S
C1852 H1848 0.949 . S
C1852 C1860 1.574 . S
C1852 C1868 1.368 . S
H1853 C1861 0.950 . S
H1854 C1859 0.950 . S
H1855 C1860 0.949 . S
H1856 C1862 0.950 . S
H1857 C1863 0.950 . S
H1858 C1864 0.949 . S
C1859 H1854 0.950 . S
C1859 C1861 1.327 1_545 S
C1859 C1865 1.429 . S
C1860 C1852 1.574 . S
C1860 H1855 0.949 . S
C1860 C1866 1.368 . S
C1861 C1845 1.349 . S
C1861 H1853 0.950 . S
C1861 C1859 1.327 1_565 S
C1862 C1850 1.349 . S
C1862 H1856 0.950 . S
C1862 C1863 1.327 . S
C1863 H1857 0.950 . S
C1863 C1862 1.327 . S
C1863 C1867 1.429 . S
C1864 C1847 1.574 . S
C1864 H1858 0.949 . S
C1864 C1868 1.368 . S
C1865 C1846 1.429 . S
C1865 C1859 1.429 . S
C1865 C1866 1.523 . S
C1866 C1847 1.368 . S
C1866 C1860 1.368 . S
C1866 C1865 1.523 . S
C1867 C1851 1.429 . S
C1867 C1863 1.429 . S
C1867 C1868 1.523 . S
C1868 C1852 1.368 . S
C1868 C1864 1.368 . S
C1868 C1867 1.523 . S
H1869 C1844 0.950 . S
H1870 C1846 0.950 . S
H1871 C1847 0.949 . S
H1872 C1849 0.950 . S
H1873 C1851 0.950 . S
C1874 C1875 1.349 . S
C1874 C1876 1.327 . S
C1874 H1899 0.950 . S
C1875 C1874 1.349 . S
C1875 C1891 1.349 . S
C1876 C1874 1.327 . S
C1876 C1895 1.429 . S
C1876 H1900 0.950 . S
C1877 C1894 1.574 . S
C1877 C1896 1.368 . S
C1877 H1901 0.949 . S
H1878 C1882 0.949 . S
C1879 C1880 1.349 . S
C1879 C1881 1.327 1_455 S
C1879 H1902 0.950 . S
C1880 C1879 1.349 . S
C1880 C1892 1.349 . S
C1881 C1879 1.327 1_655 S
C1881 C1897 1.429 . S
C1881 H1903 0.950 . S
C1882 H1878 0.949 . S
C1882 C1890 1.574 . S
C1882 C1898 1.368 . S
H1883 C1891 0.950 . S
H1884 C1889 0.950 . S
H1885 C1890 0.949 . S
H1886 C1892 0.950 . S
H1887 C1893 0.950 . S
H1888 C1894 0.949 . S
C1889 H1884 0.950 . S
C1889 C1891 1.327 . S
C1889 C1895 1.429 . S
C1890 C1882 1.574 . S
C1890 H1885 0.949 . S
C1890 C1896 1.368 . S
C1891 C1875 1.349 . S
C1891 H1883 0.950 . S
C1891 C1889 1.327 . S
C1892 C1880 1.349 . S
C1892 H1886 0.950 . S
C1892 C1893 1.327 1_455 S
C1893 H1887 0.950 . S
C1893 C1892 1.327 1_655 S
C1893 C1897 1.429 . S
C1894 C1877 1.574 . S
C1894 H1888 0.949 . S
C1894 C1898 1.368 . S
C1895 C1876 1.429 . S
C1895 C1889 1.429 . S
C1895 C1896 1.523 . S
C1896 C1877 1.368 . S
C1896 C1890 1.368 . S
C1896 C1895 1.523 . S
C1897 C1881 1.429 . S
C1897 C1893 1.429 . S
C1897 C1898 1.523 . S
C1898 C1882 1.368 . S
C1898 C1894 1.368 . S
C1898 C1897 1.523 . S
H1899 C1874 0.950 . S
H1900 C1876 0.950 . S
H1901 C1877 0.949 . S
H1902 C1879 0.950 . S
H1903 C1881 0.950 . S
C1904 C1905 1.349 . S
C1904 C1906 1.327 1_545 S
C1904 H1929 0.950 . S
C1905 C1904 1.349 . S
C1905 C1921 1.349 . S
C1906 C1904 1.327 1_565 S
C1906 C1925 1.429 . S
C1906 H1930 0.950 . S
C1907 C1924 1.574 . S
C1907 C1926 1.368 . S
C1907 H1931 0.949 . S
H1908 C1912 0.949 . S
C1909 C1910 1.349 . S
C1909 C1911 1.327 . S
C1909 H1932 0.950 . S
C1910 C1909 1.349 . S
C1910 C1922 1.349 . S
C1911 C1909 1.327 . S
C1911 C1927 1.429 . S
C1911 H1933 0.950 . S
C1912 H1908 0.949 . S
C1912 C1920 1.574 . S
C1912 C1928 1.368 . S
H1913 C1921 0.950 . S
H1914 C1919 0.950 . S
H1915 C1920 0.949 . S
H1916 C1922 0.950 . S
H1917 C1923 0.950 . S
H1918 C1924 0.949 . S
C1919 H1914 0.950 . S
C1919 C1921 1.327 1_565 S
C1919 C1925 1.429 . S
C1920 C1912 1.574 . S
C1920 H1915 0.949 . S
C1920 C1926 1.368 . S
C1921 C1905 1.349 . S
C1921 H1913 0.950 . S
C1921 C1919 1.327 1_545 S
C1922 C1910 1.349 . S
C1922 H1916 0.950 . S
C1922 C1923 1.327 . S
C1923 H1917 0.950 . S
C1923 C1922 1.327 . S
C1923 C1927 1.429 . S
C1924 C1907 1.574 . S
C1924 H1918 0.949 . S
C1924 C1928 1.368 . S
C1925 C1906 1.429 . S
C1925 C1919 1.429 . S
C1925 C1926 1.523 . S
C1926 C1907 1.368 . S
C1926 C1920 1.368 . S
C1926 C1925 1.523 . S
C1927 C1911 1.429 . S
C1927 C1923 1.429 . S
C1927 C1928 1.523 . S
C1928 C1912 1.368 . S
C1928 C1924 1.368 . S
C1928 C1927 1.523 . S
H1929 C1904 0.950 . S
H1930 C1906 0.950 . S
H1931 C1907 0.949 . S
H1932 C1909 0.950 . S
H1933 C1911 0.950 . S
C1934 C1935 1.349 . S
C1934 C1936 1.327 1_655 S
C1934 H1959 0.950 . S
C1935 C1934 1.349 . S
C1935 C1951 1.349 . S
C1936 C1934 1.327 1_455 S
C1936 C1955 1.429 . S
C1936 H1960 0.950 . S
C1937 C1954 1.574 . S
C1937 C1956 1.368 . S
C1937 H1961 0.949 . S
H1938 C1942 0.949 . S
C1939 C1940 1.349 . S
C1939 C1941 1.327 . S
C1939 H1962 0.950 . S
C1940 C1939 1.349 . S
C1940 C1952 1.349 . S
C1941 C1939 1.327 . S
C1941 C1957 1.429 . S
C1941 H1963 0.950 . S
C1942 H1938 0.949 . S
C1942 C1950 1.574 . S
C1942 C1958 1.368 . S
H1943 C1951 0.950 . S
H1944 C1949 0.950 . S
H1945 C1950 0.949 . S
H1946 C1952 0.950 . S
H1947 C1953 0.950 . S
H1948 C1954 0.949 . S
C1949 H1944 0.950 . S
C1949 C1951 1.327 1_455 S
C1949 C1955 1.429 . S
C1950 C1942 1.574 . S
C1950 H1945 0.949 . S
C1950 C1956 1.368 . S
C1951 C1935 1.349 . S
C1951 H1943 0.950 . S
C1951 C1949 1.327 1_655 S
C1952 C1940 1.349 . S
C1952 H1946 0.950 . S
C1952 C1953 1.327 . S
C1953 H1947 0.950 . S
C1953 C1952 1.327 . S
C1953 C1957 1.429 . S
C1954 C1937 1.574 . S
C1954 H1948 0.949 . S
C1954 C1958 1.368 . S
C1955 C1936 1.429 . S
C1955 C1949 1.429 . S
C1955 C1956 1.523 . S
C1956 C1937 1.368 . S
C1956 C1950 1.368 . S
C1956 C1955 1.523 . S
C1957 C1941 1.429 . S
C1957 C1953 1.429 . S
C1957 C1958 1.523 . S
C1958 C1942 1.368 . S
C1958 C1954 1.368 . S
C1958 C1957 1.523 . S
H1959 C1934 0.950 . S
H1960 C1936 0.950 . S
H1961 C1937 0.949 . S
H1962 C1939 0.950 . S
H1963 C1941 0.950 . S
C1964 C1965 1.349 . S
C1964 C1966 1.327 . S
C1964 H1989 0.950 . S
C1965 C1964 1.349 . S
C1965 C1981 1.349 . S
C1966 C1964 1.327 . S
C1966 C1985 1.429 . S
C1966 H1990 0.950 . S
C1967 C1984 1.574 . S
C1967 C1986 1.368 . S
C1967 H1991 0.949 . S
H1968 C1972 0.949 . S
C1969 C1970 1.349 . S
C1969 C1971 1.327 1_565 S
C1969 H1992 0.950 . S
C1970 C1969 1.349 . S
C1970 C1982 1.349 . S
C1971 C1969 1.327 1_545 S
C1971 C1987 1.429 . S
C1971 H1993 0.950 . S
C1972 H1968 0.949 . S
C1972 C1980 1.574 . S
C1972 C1988 1.368 . S
H1973 C1981 0.950 . S
H1974 C1979 0.950 . S
H1975 C1980 0.949 . S
H1976 C1982 0.950 . S
H1977 C1983 0.950 . S
H1978 C1984 0.949 . S
C1979 H1974 0.950 . S
C1979 C1981 1.327 . S
C1979 C1985 1.429 . S
C1980 C1972 1.574 . S
C1980 H1975 0.949 . S
C1980 C1986 1.368 . S
C1981 C1965 1.349 . S
C1981 H1973 0.950 . S
C1981 C1979 1.327 . S
C1982 C1970 1.349 . S
C1982 H1976 0.950 . S
C1982 C1983 1.327 1_565 S
C1983 H1977 0.950 . S
C1983 C1982 1.327 1_545 S
C1983 C1987 1.429 . S
C1984 C1967 1.574 . S
C1984 H1978 0.949 . S
C1984 C1988 1.368 . S
C1985 C1966 1.429 . S
C1985 C1979 1.429 . S
C1985 C1986 1.523 . S
C1986 C1967 1.368 . S
C1986 C1980 1.368 . S
C1986 C1985 1.523 . S
C1987 C1971 1.429 . S
C1987 C1983 1.429 . S
C1987 C1988 1.523 . S
C1988 C1972 1.368 . S
C1988 C1984 1.368 . S
C1988 C1987 1.523 . S
H1989 C1964 0.950 . S
H1990 C1966 0.950 . S
H1991 C1967 0.949 . S
H1992 C1969 0.950 . S
H1993 C1971 0.950 . S
C1994 C1995 1.349 . S
C1994 C1996 1.327 . S
C1994 H2019 0.950 . S
C1995 C1994 1.349 . S
C1995 C2011 1.349 . S
C1996 C1994 1.327 . S
C1996 C2015 1.429 . S
C1996 H2020 0.950 . S
C1997 C2014 1.574 . S
C1997 C2016 1.368 . S
C1997 H2021 0.949 . S
H1998 C2002 0.949 . S
C1999 C2000 1.349 . S
C1999 C2001 1.327 1_455 S
C1999 H2022 0.950 . S
C2000 C1999 1.349 . S
C2000 C2012 1.349 . S
C2001 C1999 1.327 1_655 S
C2001 C2017 1.429 . S
C2001 H2023 0.950 . S
C2002 H1998 0.949 . S
C2002 C2010 1.574 . S
C2002 C2018 1.368 . S
H2003 C2011 0.950 . S
H2004 C2009 0.950 . S
H2005 C2010 0.949 . S
H2006 C2012 0.950 . S
H2007 C2013 0.950 . S
H2008 C2014 0.949 . S
C2009 H2004 0.950 . S
C2009 C2011 1.327 . S
C2009 C2015 1.429 . S
C2010 C2002 1.574 . S
C2010 H2005 0.949 . S
C2010 C2016 1.368 . S
C2011 C1995 1.349 . S
C2011 H2003 0.950 . S
C2011 C2009 1.327 . S
C2012 C2000 1.349 . S
C2012 H2006 0.950 . S
C2012 C2013 1.327 1_455 S
C2013 H2007 0.950 . S
C2013 C2012 1.327 1_655 S
C2013 C2017 1.429 . S
C2014 C1997 1.574 . S
C2014 H2008 0.949 . S
C2014 C2018 1.368 . S
C2015 C1996 1.429 . S
C2015 C2009 1.429 . S
C2015 C2016 1.523 . S
C2016 C1997 1.368 . S
C2016 C2010 1.368 . S
C2016 C2015 1.523 . S
C2017 C2001 1.429 . S
C2017 C2013 1.429 . S
C2017 C2018 1.523 . S
C2018 C2002 1.368 . S
C2018 C2014 1.368 . S
C2018 C2017 1.523 . S
H2019 C1994 0.950 . S
H2020 C1996 0.950 . S
H2021 C1997 0.949 . S
H2022 C1999 0.950 . S
H2023 C2001 0.950 . S
C2024 C2025 1.349 . S
C2024 C2026 1.327 1_565 S
C2024 H2049 0.950 . S
C2025 C2024 1.349 . S
C2025 C2041 1.349 . S
C2026 C2024 1.327 1_545 S
C2026 C2045 1.429 . S
C2026 H2050 0.950 . S
C2027 C2044 1.574 . S
C2027 C2046 1.368 . S
C2027 H2051 0.949 . S
H2028 C2032 0.949 . S
C2029 C2030 1.349 . S
C2029 C2031 1.327 . S
C2029 H2052 0.950 . S
C2030 C2029 1.349 . S
C2030 C2042 1.349 . S
C2031 C2029 1.327 . S
C2031 C2047 1.429 . S
C2031 H2053 0.950 . S
C2032 H2028 0.949 . S
C2032 C2040 1.574 . S
C2032 C2048 1.368 . S
H2033 C2041 0.950 . S
H2034 C2039 0.950 . S
H2035 C2040 0.949 . S
H2036 C2042 0.950 . S
H2037 C2043 0.950 . S
H2038 C2044 0.949 . S
C2039 H2034 0.950 . S
C2039 C2041 1.327 1_545 S
C2039 C2045 1.429 . S
C2040 C2032 1.574 . S
C2040 H2035 0.949 . S
C2040 C2046 1.368 . S
C2041 C2025 1.349 . S
C2041 H2033 0.950 . S
C2041 C2039 1.327 1_565 S
C2042 C2030 1.349 . S
C2042 H2036 0.950 . S
C2042 C2043 1.327 . S
C2043 H2037 0.950 . S
C2043 C2042 1.327 . S
C2043 C2047 1.429 . S
C2044 C2027 1.574 . S
C2044 H2038 0.949 . S
C2044 C2048 1.368 . S
C2045 C2026 1.429 . S
C2045 C2039 1.429 . S
C2045 C2046 1.523 . S
C2046 C2027 1.368 . S
C2046 C2040 1.368 . S
C2046 C2045 1.523 . S
C2047 C2031 1.429 . S
C2047 C2043 1.429 . S
C2047 C2048 1.523 . S
C2048 C2032 1.368 . S
C2048 C2044 1.368 . S
C2048 C2047 1.523 . S
H2049 C2024 0.950 . S
H2050 C2026 0.950 . S
H2051 C2027 0.949 . S
H2052 C2029 0.950 . S
H2053 C2031 0.950 . S
C2054 C2055 1.349 . S
C2054 C2056 1.327 . S
C2054 H2079 0.950 . S
C2055 C2054 1.349 . S
C2055 C2071 1.349 . S
C2056 C2054 1.327 . S
C2056 C2075 1.429 . S
C2056 H2080 0.950 . S
C2057 C2074 1.574 . S
C2057 C2076 1.368 . S
C2057 H2081 0.949 . S
H2058 C2062 0.949 . S
C2059 C2060 1.349 . S
C2059 C2061 1.327 1_455 S
C2059 H2082 0.950 . S
C2060 C2059 1.349 . S
C2060 C2072 1.349 . S
C2061 C2059 1.327 1_655 S
C2061 C2077 1.429 . S
C2061 H2083 0.950 . S
C2062 H2058 0.949 . S
C2062 C2070 1.574 . S
C2062 C2078 1.368 . S
H2063 C2071 0.950 . S
H2064 C2069 0.950 . S
H2065 C2070 0.949 . S
H2066 C2072 0.950 . S
H2067 C2073 0.950 . S
H2068 C2074 0.949 . S
C2069 H2064 0.950 . S
C2069 C2071 1.327 . S
C2069 C2075 1.429 . S
C2070 C2062 1.574 . S
C2070 H2065 0.949 . S
C2070 C2076 1.368 . S
C2071 C2055 1.349 . S
C2071 H2063 0.950 . S
C2071 C2069 1.327 . S
C2072 C2060 1.349 . S
C2072 H2066 0.950 . S
C2072 C2073 1.327 1_455 S
C2073 H2067 0.950 . S
C2073 C2072 1.327 1_655 S
C2073 C2077 1.429 . S
C2074 C2057 1.574 . S
C2074 H2068 0.949 . S
C2074 C2078 1.368 . S
C2075 C2056 1.429 . S
C2075 C2069 1.429 . S
C2075 C2076 1.523 . S
C2076 C2057 1.368 . S
C2076 C2070 1.368 . S
C2076 C2075 1.523 . S
C2077 C2061 1.429 . S
C2077 C2073 1.429 . S
C2077 C2078 1.523 . S
C2078 C2062 1.368 . S
C2078 C2074 1.368 . S
C2078 C2077 1.523 . S
H2079 C2054 0.950 . S
H2080 C2056 0.950 . S
H2081 C2057 0.949 . S
H2082 C2059 0.950 . S
H2083 C2061 0.950 . S
C2084 C2085 1.349 . S
C2084 C2086 1.327 . S
C2084 H2109 0.950 . S
C2085 C2084 1.349 . S
C2085 C2101 1.349 . S
C2086 C2084 1.327 . S
C2086 C2105 1.429 . S
C2086 H2110 0.950 . S
C2087 C2104 1.574 . S
C2087 C2106 1.368 . S
C2087 H2111 0.949 . S
H2088 C2092 0.949 . S
C2089 C2090 1.349 . S
C2089 C2091 1.327 1_545 S
C2089 H2112 0.950 . S
C2090 C2089 1.349 . S
C2090 C2102 1.349 . S
C2091 C2089 1.327 1_565 S
C2091 C2107 1.429 . S
C2091 H2113 0.950 . S
C2092 H2088 0.949 . S
C2092 C2100 1.574 . S
C2092 C2108 1.368 . S
H2093 C2101 0.950 . S
H2094 C2099 0.950 . S
H2095 C2100 0.949 . S
H2096 C2102 0.950 . S
H2097 C2103 0.950 . S
H2098 C2104 0.949 . S
C2099 H2094 0.950 . S
C2099 C2101 1.327 . S
C2099 C2105 1.429 . S
C2100 C2092 1.574 . S
C2100 H2095 0.949 . S
C2100 C2106 1.368 . S
C2101 C2085 1.349 . S
C2101 H2093 0.950 . S
C2101 C2099 1.327 . S
C2102 C2090 1.349 . S
C2102 H2096 0.950 . S
C2102 C2103 1.327 1_545 S
C2103 H2097 0.950 . S
C2103 C2102 1.327 1_565 S
C2103 C2107 1.429 . S
C2104 C2087 1.574 . S
C2104 H2098 0.949 . S
C2104 C2108 1.368 . S
C2105 C2086 1.429 . S
C2105 C2099 1.429 . S
C2105 C2106 1.523 . S
C2106 C2087 1.368 . S
C2106 C2100 1.368 . S
C2106 C2105 1.523 . S
C2107 C2091 1.429 . S
C2107 C2103 1.429 . S
C2107 C2108 1.523 . S
C2108 C2092 1.368 . S
C2108 C2104 1.368 . S
C2108 C2107 1.523 . S
H2109 C2084 0.950 . S
H2110 C2086 0.950 . S
H2111 C2087 0.949 . S
H2112 C2089 0.950 . S
H2113 C2091 0.950 . S
C2114 C2115 1.349 . S
C2114 C2116 1.327 . S
C2114 H2139 0.950 . S
C2115 C2114 1.349 . S
C2115 C2131 1.349 . S
C2116 C2114 1.327 . S
C2116 C2135 1.429 . S
C2116 H2140 0.950 . S
C2117 C2134 1.574 . S
C2117 C2136 1.368 . S
C2117 H2141 0.949 . S
H2118 C2122 0.949 . S
C2119 C2120 1.349 . S
C2119 C2121 1.327 1_655 S
C2119 H2142 0.950 . S
C2120 C2119 1.349 . S
C2120 C2132 1.349 . S
C2121 C2119 1.327 1_455 S
C2121 C2137 1.429 . S
C2121 H2143 0.950 . S
C2122 H2118 0.949 . S
C2122 C2130 1.574 . S
C2122 C2138 1.368 . S
H2123 C2131 0.950 . S
H2124 C2129 0.950 . S
H2125 C2130 0.949 . S
H2126 C2132 0.950 . S
H2127 C2133 0.950 . S
H2128 C2134 0.949 . S
C2129 H2124 0.950 . S
C2129 C2131 1.327 . S
C2129 C2135 1.429 . S
C2130 C2122 1.574 . S
C2130 H2125 0.949 . S
C2130 C2136 1.368 . S
C2131 C2115 1.349 . S
C2131 H2123 0.950 . S
C2131 C2129 1.327 . S
C2132 C2120 1.349 . S
C2132 H2126 0.950 . S
C2132 C2133 1.327 1_655 S
C2133 H2127 0.950 . S
C2133 C2132 1.327 1_455 S
C2133 C2137 1.429 . S
C2134 C2117 1.574 . S
C2134 H2128 0.949 . S
C2134 C2138 1.368 . S
C2135 C2116 1.429 . S
C2135 C2129 1.429 . S
C2135 C2136 1.523 . S
C2136 C2117 1.368 . S
C2136 C2130 1.368 . S
C2136 C2135 1.523 . S
C2137 C2121 1.429 . S
C2137 C2133 1.429 . S
C2137 C2138 1.523 . S
C2138 C2122 1.368 . S
C2138 C2134 1.368 . S
C2138 C2137 1.523 . S
H2139 C2114 0.950 . S
H2140 C2116 0.950 . S
H2141 C2117 0.949 . S
H2142 C2119 0.950 . S
H2143 C2121 0.950 . S
C2144 C2145 1.349 . S
C2144 C2146 1.327 . S
C2144 H2169 0.950 . S
C2145 C2144 1.349 . S
C2145 C2161 1.349 . S
C2146 C2144 1.327 . S
C2146 C2165 1.429 . S
C2146 H2170 0.950 . S
C2147 C2164 1.574 . S
C2147 C2166 1.368 . S
C2147 H2171 0.949 . S
H2148 C2152 0.949 . S
C2149 C2150 1.349 . S
C2149 C2151 1.327 . S
C2149 H2172 0.950 . S
C2150 C2149 1.349 . S
C2150 C2162 1.349 . S
C2151 C2149 1.327 . S
C2151 C2167 1.429 . S
C2151 H2173 0.950 . S
C2152 H2148 0.949 . S
C2152 C2160 1.574 . S
C2152 C2168 1.368 . S
H2153 C2161 0.950 . S
H2154 C2159 0.950 . S
H2155 C2160 0.949 . S
H2156 C2162 0.950 . S
H2157 C2163 0.950 . S
H2158 C2164 0.949 . S
C2159 H2154 0.950 . S
C2159 C2161 1.327 . S
C2159 C2165 1.429 . S
C2160 C2152 1.574 . S
C2160 H2155 0.949 . S
C2160 C2166 1.368 . S
C2161 C2145 1.349 . S
C2161 H2153 0.950 . S
C2161 C2159 1.327 . S
C2162 C2150 1.349 . S
C2162 H2156 0.950 . S
C2162 C2163 1.327 . S
C2163 H2157 0.950 . S
C2163 C2162 1.327 . S
C2163 C2167 1.429 . S
C2164 C2147 1.574 . S
C2164 H2158 0.949 . S
C2164 C2168 1.368 . S
C2165 C2146 1.429 . S
C2165 C2159 1.429 . S
C2165 C2166 1.523 . S
C2166 C2147 1.368 . S
C2166 C2160 1.368 . S
C2166 C2165 1.523 . S
C2167 C2151 1.429 . S
C2167 C2163 1.429 . S
C2167 C2168 1.523 . S
C2168 C2152 1.368 . S
C2168 C2164 1.368 . S
C2168 C2167 1.523 . S
H2169 C2144 0.950 . S
H2170 C2146 0.950 . S
H2171 C2147 0.949 . S
H2172 C2149 0.950 . S
H2173 C2151 0.950 . S
C2174 C2175 1.349 . S
C2174 C2176 1.327 . S
C2174 H2199 0.950 . S
C2175 C2174 1.349 . S
C2175 C2191 1.349 . S
C2176 C2174 1.327 . S
C2176 C2195 1.429 . S
C2176 H2200 0.950 . S
C2177 C2194 1.574 . S
C2177 C2196 1.368 . S
C2177 H2201 0.949 . S
H2178 C2182 0.949 . S
C2179 C2180 1.349 . S
C2179 C2181 1.327 . S
C2179 H2202 0.950 . S
C2180 C2179 1.349 . S
C2180 C2192 1.349 . S
C2181 C2179 1.327 . S
C2181 C2197 1.429 . S
C2181 H2203 0.950 . S
C2182 H2178 0.949 . S
C2182 C2190 1.574 . S
C2182 C2198 1.368 . S
H2183 C2191 0.950 . S
H2184 C2189 0.950 . S
H2185 C2190 0.949 . S
H2186 C2192 0.950 . S
H2187 C2193 0.950 . S
H2188 C2194 0.949 . S
C2189 H2184 0.950 . S
C2189 C2191 1.327 . S
C2189 C2195 1.429 . S
C2190 C2182 1.574 . S
C2190 H2185 0.949 . S
C2190 C2196 1.368 . S
C2191 C2175 1.349 . S
C2191 H2183 0.950 . S
C2191 C2189 1.327 . S
C2192 C2180 1.349 . S
C2192 H2186 0.950 . S
C2192 C2193 1.327 . S
C2193 H2187 0.950 . S
C2193 C2192 1.327 . S
C2193 C2197 1.429 . S
C2194 C2177 1.574 . S
C2194 H2188 0.949 . S
C2194 C2198 1.368 . S
C2195 C2176 1.429 . S
C2195 C2189 1.429 . S
C2195 C2196 1.523 . S
C2196 C2177 1.368 . S
C2196 C2190 1.368 . S
C2196 C2195 1.523 . S
C2197 C2181 1.429 . S
C2197 C2193 1.429 . S
C2197 C2198 1.523 . S
C2198 C2182 1.368 . S
C2198 C2194 1.368 . S
C2198 C2197 1.523 . S
H2199 C2174 0.950 . S
H2200 C2176 0.950 . S
H2201 C2177 0.949 . S
H2202 C2179 0.950 . S
H2203 C2181 0.950 . S
C2204 C2205 1.349 . S
C2204 C2206 1.327 . S
C2204 H2229 0.950 . S
C2205 C2204 1.349 . S
C2205 C2221 1.349 . S
C2206 C2204 1.327 . S
C2206 C2225 1.429 . S
C2206 H2230 0.950 . S
C2207 C2224 1.574 . S
C2207 C2226 1.368 . S
C2207 H2231 0.949 . S
H2208 C2212 0.949 . S
C2209 C2210 1.349 . S
C2209 C2211 1.327 . S
C2209 H2232 0.950 . S
C2210 C2209 1.349 . S
C2210 C2222 1.349 . S
C2211 C2209 1.327 . S
C2211 C2227 1.429 . S
C2211 H2233 0.950 . S
C2212 H2208 0.949 . S
C2212 C2220 1.574 . S
C2212 C2228 1.368 . S
H2213 C2221 0.950 . S
H2214 C2219 0.950 . S
H2215 C2220 0.949 . S
H2216 C2222 0.950 . S
H2217 C2223 0.950 . S
H2218 C2224 0.949 . S
C2219 H2214 0.950 . S
C2219 C2221 1.327 . S
C2219 C2225 1.429 . S
C2220 C2212 1.574 . S
C2220 H2215 0.949 . S
C2220 C2226 1.368 . S
C2221 C2205 1.349 . S
C2221 H2213 0.950 . S
C2221 C2219 1.327 . S
C2222 C2210 1.349 . S
C2222 H2216 0.950 . S
C2222 C2223 1.327 . S
C2223 H2217 0.950 . S
C2223 C2222 1.327 . S
C2223 C2227 1.429 . S
C2224 C2207 1.574 . S
C2224 H2218 0.949 . S
C2224 C2228 1.368 . S
C2225 C2206 1.429 . S
C2225 C2219 1.429 . S
C2225 C2226 1.523 . S
C2226 C2207 1.368 . S
C2226 C2220 1.368 . S
C2226 C2225 1.523 . S
C2227 C2211 1.429 . S
C2227 C2223 1.429 . S
C2227 C2228 1.523 . S
C2228 C2212 1.368 . S
C2228 C2224 1.368 . S
C2228 C2227 1.523 . S
H2229 C2204 0.950 . S
H2230 C2206 0.950 . S
H2231 C2207 0.949 . S
H2232 C2209 0.950 . S
H2233 C2211 0.950 . S
C2234 C2235 1.349 . S
C2234 C2236 1.327 . S
C2234 H2259 0.950 . S
C2235 C2234 1.349 . S
C2235 C2251 1.349 . S
C2236 C2234 1.327 . S
C2236 C2255 1.429 . S
C2236 H2260 0.950 . S
C2237 C2254 1.574 . S
C2237 C2256 1.368 . S
C2237 H2261 0.949 . S
H2238 C2242 0.949 . S
C2239 C2240 1.349 . S
C2239 C2241 1.327 . S
C2239 H2262 0.950 . S
C2240 C2239 1.349 . S
C2240 C2252 1.349 . S
C2241 C2239 1.327 . S
C2241 C2257 1.429 . S
C2241 H2263 0.950 . S
C2242 H2238 0.949 . S
C2242 C2250 1.574 . S
C2242 C2258 1.368 . S
H2243 C2251 0.950 . S
H2244 C2249 0.950 . S
H2245 C2250 0.949 . S
H2246 C2252 0.950 . S
H2247 C2253 0.950 . S
H2248 C2254 0.949 . S
C2249 H2244 0.950 . S
C2249 C2251 1.327 . S
C2249 C2255 1.429 . S
C2250 C2242 1.574 . S
C2250 H2245 0.949 . S
C2250 C2256 1.368 . S
C2251 C2235 1.349 . S
C2251 H2243 0.950 . S
C2251 C2249 1.327 . S
C2252 C2240 1.349 . S
C2252 H2246 0.950 . S
C2252 C2253 1.327 . S
C2253 H2247 0.950 . S
C2253 C2252 1.327 . S
C2253 C2257 1.429 . S
C2254 C2237 1.574 . S
C2254 H2248 0.949 . S
C2254 C2258 1.368 . S
C2255 C2236 1.429 . S
C2255 C2249 1.429 . S
C2255 C2256 1.523 . S
C2256 C2237 1.368 . S
C2256 C2250 1.368 . S
C2256 C2255 1.523 . S
C2257 C2241 1.429 . S
C2257 C2253 1.429 . S
C2257 C2258 1.523 . S
C2258 C2242 1.368 . S
C2258 C2254 1.368 . S
C2258 C2257 1.523 . S
H2259 C2234 0.950 . S
H2260 C2236 0.950 . S
H2261 C2237 0.949 . S
H2262 C2239 0.950 . S
H2263 C2241 0.950 . S
C2264 C2265 1.349 . S
C2264 C2266 1.327 . S
C2264 H2289 0.950 . S
C2265 C2264 1.349 . S
C2265 C2281 1.349 . S
C2266 C2264 1.327 . S
C2266 C2285 1.429 . S
C2266 H2290 0.950 . S
C2267 C2284 1.574 . S
C2267 C2286 1.368 . S
C2267 H2291 0.949 . S
H2268 C2272 0.949 . S
C2269 C2270 1.349 . S
C2269 C2271 1.327 . S
C2269 H2292 0.950 . S
C2270 C2269 1.349 . S
C2270 C2282 1.349 . S
C2271 C2269 1.327 . S
C2271 C2287 1.429 . S
C2271 H2293 0.950 . S
C2272 H2268 0.949 . S
C2272 C2280 1.574 . S
C2272 C2288 1.368 . S
H2273 C2281 0.950 . S
H2274 C2279 0.950 . S
H2275 C2280 0.949 . S
H2276 C2282 0.950 . S
H2277 C2283 0.950 . S
H2278 C2284 0.949 . S
C2279 H2274 0.950 . S
C2279 C2281 1.327 . S
C2279 C2285 1.429 . S
C2280 C2272 1.574 . S
C2280 H2275 0.949 . S
C2280 C2286 1.368 . S
C2281 C2265 1.349 . S
C2281 H2273 0.950 . S
C2281 C2279 1.327 . S
C2282 C2270 1.349 . S
C2282 H2276 0.950 . S
C2282 C2283 1.327 . S
C2283 H2277 0.950 . S
C2283 C2282 1.327 . S
C2283 C2287 1.429 . S
C2284 C2267 1.574 . S
C2284 H2278 0.949 . S
C2284 C2288 1.368 . S
C2285 C2266 1.429 . S
C2285 C2279 1.429 . S
C2285 C2286 1.523 . S
C2286 C2267 1.368 . S
C2286 C2280 1.368 . S
C2286 C2285 1.523 . S
C2287 C2271 1.429 . S
C2287 C2283 1.429 . S
C2287 C2288 1.523 . S
C2288 C2272 1.368 . S
C2288 C2284 1.368 . S
C2288 C2287 1.523 . S
H2289 C2264 0.950 . S
H2290 C2266 0.950 . S
H2291 C2267 0.949 . S
H2292 C2269 0.950 . S
H2293 C2271 0.950 . S
C2294 C2295 1.349 . S
C2294 C2296 1.327 . S
C2294 H2319 0.950 . S
C2295 C2294 1.349 . S
C2295 C2311 1.349 . S
C2296 C2294 1.327 . S
C2296 C2315 1.429 . S
C2296 H2320 0.950 . S
C2297 C2314 1.574 . S
C2297 C2316 1.368 . S
C2297 H2321 0.949 . S
H2298 C2302 0.949 . S
C2299 C2300 1.349 . S
C2299 C2301 1.327 . S
C2299 H2322 0.950 . S
C2300 C2299 1.349 . S
C2300 C2312 1.349 . S
C2301 C2299 1.327 . S
C2301 C2317 1.429 . S
C2301 H2323 0.950 . S
C2302 H2298 0.949 . S
C2302 C2310 1.574 . S
C2302 C2318 1.368 . S
H2303 C2311 0.950 . S
H2304 C2309 0.950 . S
H2305 C2310 0.949 . S
H2306 C2312 0.950 . S
H2307 C2313 0.950 . S
H2308 C2314 0.949 . S
C2309 H2304 0.950 . S
C2309 C2311 1.327 . S
C2309 C2315 1.429 . S
C2310 C2302 1.574 . S
C2310 H2305 0.949 . S
C2310 C2316 1.368 . S
C2311 C2295 1.349 . S
C2311 H2303 0.950 . S
C2311 C2309 1.327 . S
C2312 C2300 1.349 . S
C2312 H2306 0.950 . S
C2312 C2313 1.327 . S
C2313 H2307 0.950 . S
C2313 C2312 1.327 . S
C2313 C2317 1.429 . S
C2314 C2297 1.574 . S
C2314 H2308 0.949 . S
C2314 C2318 1.368 . S
C2315 C2296 1.429 . S
C2315 C2309 1.429 . S
C2315 C2316 1.523 . S
C2316 C2297 1.368 . S
C2316 C2310 1.368 . S
C2316 C2315 1.523 . S
C2317 C2301 1.429 . S
C2317 C2313 1.429 . S
C2317 C2318 1.523 . S
C2318 C2302 1.368 . S
C2318 C2314 1.368 . S
C2318 C2317 1.523 . S
H2319 C2294 0.950 . S
H2320 C2296 0.950 . S
H2321 C2297 0.949 . S
H2322 C2299 0.950 . S
H2323 C2301 0.950 . S
C2324 C2325 1.349 . S
C2324 C2326 1.327 . S
C2324 H2349 0.950 . S
C2325 C2324 1.349 . S
C2325 C2341 1.349 . S
C2326 C2324 1.327 . S
C2326 C2345 1.429 . S
C2326 H2350 0.950 . S
C2327 C2344 1.574 . S
C2327 C2346 1.368 . S
C2327 H2351 0.949 . S
H2328 C2332 0.949 . S
C2329 C2330 1.349 . S
C2329 C2331 1.327 . S
C2329 H2352 0.950 . S
C2330 C2329 1.349 . S
C2330 C2342 1.349 . S
C2331 C2329 1.327 . S
C2331 C2347 1.429 . S
C2331 H2353 0.950 . S
C2332 H2328 0.949 . S
C2332 C2340 1.574 . S
C2332 C2348 1.368 . S
H2333 C2341 0.950 . S
H2334 C2339 0.950 . S
H2335 C2340 0.949 . S
H2336 C2342 0.950 . S
H2337 C2343 0.950 . S
H2338 C2344 0.949 . S
C2339 H2334 0.950 . S
C2339 C2341 1.327 . S
C2339 C2345 1.429 . S
C2340 C2332 1.574 . S
C2340 H2335 0.949 . S
C2340 C2346 1.368 . S
C2341 C2325 1.349 . S
C2341 H2333 0.950 . S
C2341 C2339 1.327 . S
C2342 C2330 1.349 . S
C2342 H2336 0.950 . S
C2342 C2343 1.327 . S
C2343 H2337 0.950 . S
C2343 C2342 1.327 . S
C2343 C2347 1.429 . S
C2344 C2327 1.574 . S
C2344 H2338 0.949 . S
C2344 C2348 1.368 . S
C2345 C2326 1.429 . S
C2345 C2339 1.429 . S
C2345 C2346 1.523 . S
C2346 C2327 1.368 . S
C2346 C2340 1.368 . S
C2346 C2345 1.523 . S
C2347 C2331 1.429 . S
C2347 C2343 1.429 . S
C2347 C2348 1.523 . S
C2348 C2332 1.368 . S
C2348 C2344 1.368 . S
C2348 C2347 1.523 . S
H2349 C2324 0.950 . S
H2350 C2326 0.950 . S
H2351 C2327 0.949 . S
H2352 C2329 0.950 . S
H2353 C2331 0.950 . S
C2354 C2355 1.349 . S
C2354 C2356 1.327 . S
C2354 H2379 0.950 . S
C2355 C2354 1.349 . S
C2355 C2371 1.349 . S
C2356 C2354 1.327 . S
C2356 C2375 1.429 . S
C2356 H2380 0.950 . S
C2357 C2374 1.574 . S
C2357 C2376 1.368 . S
C2357 H2381 0.949 . S
H2358 C2362 0.949 . S
C2359 C2360 1.349 . S
C2359 C2361 1.327 . S
C2359 H2382 0.950 . S
C2360 C2359 1.349 . S
C2360 C2372 1.349 . S
C2361 C2359 1.327 . S
C2361 C2377 1.429 . S
C2361 H2383 0.950 . S
C2362 H2358 0.949 . S
C2362 C2370 1.574 . S
C2362 C2378 1.368 . S
H2363 C2371 0.950 . S
H2364 C2369 0.950 . S
H2365 C2370 0.949 . S
H2366 C2372 0.950 . S
H2367 C2373 0.950 . S
H2368 C2374 0.949 . S
C2369 H2364 0.950 . S
C2369 C2371 1.327 . S
C2369 C2375 1.429 . S
C2370 C2362 1.574 . S
C2370 H2365 0.949 . S
C2370 C2376 1.368 . S
C2371 C2355 1.349 . S
C2371 H2363 0.950 . S
C2371 C2369 1.327 . S
C2372 C2360 1.349 . S
C2372 H2366 0.950 . S
C2372 C2373 1.327 . S
C2373 H2367 0.950 . S
C2373 C2372 1.327 . S
C2373 C2377 1.429 . S
C2374 C2357 1.574 . S
C2374 H2368 0.949 . S
C2374 C2378 1.368 . S
C2375 C2356 1.429 . S
C2375 C2369 1.429 . S
C2375 C2376 1.523 . S
C2376 C2357 1.368 . S
C2376 C2370 1.368 . S
C2376 C2375 1.523 . S
C2377 C2361 1.429 . S
C2377 C2373 1.429 . S
C2377 C2378 1.523 . S
C2378 C2362 1.368 . S
C2378 C2374 1.368 . S
C2378 C2377 1.523 . S
H2379 C2354 0.950 . S
H2380 C2356 0.950 . S
H2381 C2357 0.949 . S
H2382 C2359 0.950 . S
H2383 C2361 0.950 . S
C2384 C2385 1.349 . S
C2384 C2386 1.327 . S
C2384 H2409 0.950 . S
C2385 C2384 1.349 . S
C2385 C2401 1.349 . S
C2386 C2384 1.327 . S
C2386 C2405 1.429 . S
C2386 H2410 0.950 . S
C2387 C2404 1.574 . S
C2387 C2406 1.368 . S
C2387 H2411 0.949 . S
H2388 C2392 0.949 . S
C2389 C2390 1.349 . S
C2389 C2391 1.327 . S
C2389 H2412 0.950 . S
C2390 C2389 1.349 . S
C2390 C2402 1.349 . S
C2391 C2389 1.327 . S
C2391 C2407 1.429 . S
C2391 H2413 0.950 . S
C2392 H2388 0.949 . S
C2392 C2400 1.574 . S
C2392 C2408 1.368 . S
H2393 C2401 0.950 . S
H2394 C2399 0.950 . S
H2395 C2400 0.949 . S
H2396 C2402 0.950 . S
H2397 C2403 0.950 . S
H2398 C2404 0.949 . S
C2399 H2394 0.950 . S
C2399 C2401 1.327 . S
C2399 C2405 1.429 . S
C2400 C2392 1.574 . S
C2400 H2395 0.949 . S
C2400 C2406 1.368 . S
C2401 C2385 1.349 . S
C2401 H2393 0.950 . S
C2401 C2399 1.327 . S
C2402 C2390 1.349 . S
C2402 H2396 0.950 . S
C2402 C2403 1.327 . S
C2403 H2397 0.950 . S
C2403 C2402 1.327 . S
C2403 C2407 1.429 . S
C2404 C2387 1.574 . S
C2404 H2398 0.949 . S
C2404 C2408 1.368 . S
C2405 C2386 1.429 . S
C2405 C2399 1.429 . S
C2405 C2406 1.523 . S
C2406 C2387 1.368 . S
C2406 C2400 1.368 . S
C2406 C2405 1.523 . S
C2407 C2391 1.429 . S
C2407 C2403 1.429 . S
C2407 C2408 1.523 . S
C2408 C2392 1.368 . S
C2408 C2404 1.368 . S
C2408 C2407 1.523 . S
H2409 C2384 0.950 . S
H2410 C2386 0.950 . S
H2411 C2387 0.949 . S
H2412 C2389 0.950 . S
H2413 C2391 0.950 . S
C2414 C2415 1.349 . S
C2414 C2416 1.327 . S
C2414 H2439 0.950 . S
C2415 C2414 1.349 . S
C2415 C2431 1.349 . S
C2416 C2414 1.327 . S
C2416 C2435 1.429 . S
C2416 H2440 0.950 . S
C2417 C2434 1.574 . S
C2417 C2436 1.368 . S
C2417 H2441 0.949 . S
H2418 C2422 0.949 . S
C2419 C2420 1.349 . S
C2419 C2421 1.327 . S
C2419 H2442 0.950 . S
C2420 C2419 1.349 . S
C2420 C2432 1.349 . S
C2421 C2419 1.327 . S
C2421 C2437 1.429 . S
C2421 H2443 0.950 . S
C2422 H2418 0.949 . S
C2422 C2430 1.574 . S
C2422 C2438 1.368 . S
H2423 C2431 0.950 . S
H2424 C2429 0.950 . S
H2425 C2430 0.949 . S
H2426 C2432 0.950 . S
H2427 C2433 0.950 . S
H2428 C2434 0.949 . S
C2429 H2424 0.950 . S
C2429 C2431 1.327 . S
C2429 C2435 1.429 . S
C2430 C2422 1.574 . S
C2430 H2425 0.949 . S
C2430 C2436 1.368 . S
C2431 C2415 1.349 . S
C2431 H2423 0.950 . S
C2431 C2429 1.327 . S
C2432 C2420 1.349 . S
C2432 H2426 0.950 . S
C2432 C2433 1.327 . S
C2433 H2427 0.950 . S
C2433 C2432 1.327 . S
C2433 C2437 1.429 . S
C2434 C2417 1.574 . S
C2434 H2428 0.949 . S
C2434 C2438 1.368 . S
C2435 C2416 1.429 . S
C2435 C2429 1.429 . S
C2435 C2436 1.523 . S
C2436 C2417 1.368 . S
C2436 C2430 1.368 . S
C2436 C2435 1.523 . S
C2437 C2421 1.429 . S
C2437 C2433 1.429 . S
C2437 C2438 1.523 . S
C2438 C2422 1.368 . S
C2438 C2434 1.368 . S
C2438 C2437 1.523 . S
H2439 C2414 0.950 . S
H2440 C2416 0.950 . S
H2441 C2417 0.949 . S
H2442 C2419 0.950 . S
H2443 C2421 0.950 . S
C2444 C2445 1.349 . S
C2444 C2446 1.327 . S
C2444 H2469 0.950 . S
C2445 C2444 1.349 . S
C2445 C2461 1.349 . S
C2446 C2444 1.327 . S
C2446 C2465 1.429 . S
C2446 H2470 0.950 . S
C2447 C2464 1.574 . S
C2447 C2466 1.368 . S
C2447 H2471 0.949 . S
H2448 C2452 0.949 . S
C2449 C2450 1.349 . S
C2449 C2451 1.327 . S
C2449 H2472 0.950 . S
C2450 C2449 1.349 . S
C2450 C2462 1.349 . S
C2451 C2449 1.327 . S
C2451 C2467 1.429 . S
C2451 H2473 0.950 . S
C2452 H2448 0.949 . S
C2452 C2460 1.574 . S
C2452 C2468 1.368 . S
H2453 C2461 0.950 . S
H2454 C2459 0.950 . S
H2455 C2460 0.949 . S
H2456 C2462 0.950 . S
H2457 C2463 0.950 . S
H2458 C2464 0.949 . S
C2459 H2454 0.950 . S
C2459 C2461 1.327 . S
C2459 C2465 1.429 . S
C2460 C2452 1.574 . S
C2460 H2455 0.949 . S
C2460 C2466 1.368 . S
C2461 C2445 1.349 . S
C2461 H2453 0.950 . S
C2461 C2459 1.327 . S
C2462 C2450 1.349 . S
C2462 H2456 0.950 . S
C2462 C2463 1.327 . S
C2463 H2457 0.950 . S
C2463 C2462 1.327 . S
C2463 C2467 1.429 . S
C2464 C2447 1.574 . S
C2464 H2458 0.949 . S
C2464 C2468 1.368 . S
C2465 C2446 1.429 . S
C2465 C2459 1.429 . S
C2465 C2466 1.523 . S
C2466 C2447 1.368 . S
C2466 C2460 1.368 . S
C2466 C2465 1.523 . S
C2467 C2451 1.429 . S
C2467 C2463 1.429 . S
C2467 C2468 1.523 . S
C2468 C2452 1.368 . S
C2468 C2464 1.368 . S
C2468 C2467 1.523 . S
H2469 C2444 0.950 . S
H2470 C2446 0.950 . S
H2471 C2447 0.949 . S
H2472 C2449 0.950 . S
H2473 C2451 0.950 . S
C2474 C2475 1.349 . S
C2474 C2476 1.327 . S
C2474 H2499 0.950 . S
C2475 C2474 1.349 . S
C2475 C2491 1.349 . S
C2476 C2474 1.327 . S
C2476 C2495 1.429 . S
C2476 H2500 0.950 . S
C2477 C2494 1.574 . S
C2477 C2496 1.368 . S
C2477 H2501 0.949 . S
H2478 C2482 0.949 . S
C2479 C2480 1.349 . S
C2479 C2481 1.327 . S
C2479 H2502 0.950 . S
C2480 C2479 1.349 . S
C2480 C2492 1.349 . S
C2481 C2479 1.327 . S
C2481 C2497 1.429 . S
C2481 H2503 0.950 . S
C2482 H2478 0.949 . S
C2482 C2490 1.574 . S
C2482 C2498 1.368 . S
H2483 C2491 0.950 . S
H2484 C2489 0.950 . S
H2485 C2490 0.949 . S
H2486 C2492 0.950 . S
H2487 C2493 0.950 . S
H2488 C2494 0.949 . S
C2489 H2484 0.950 . S
C2489 C2491 1.327 . S
C2489 C2495 1.429 . S
C2490 C2482 1.574 . S
C2490 H2485 0.949 . S
C2490 C2496 1.368 . S
C2491 C2475 1.349 . S
C2491 H2483 0.950 . S
C2491 C2489 1.327 . S
C2492 C2480 1.349 . S
C2492 H2486 0.950 . S
C2492 C2493 1.327 . S
C2493 H2487 0.950 . S
C2493 C2492 1.327 . S
C2493 C2497 1.429 . S
C2494 C2477 1.574 . S
C2494 H2488 0.949 . S
C2494 C2498 1.368 . S
C2495 C2476 1.429 . S
C2495 C2489 1.429 . S
C2495 C2496 1.523 . S
C2496 C2477 1.368 . S
C2496 C2490 1.368 . S
C2496 C2495 1.523 . S
C2497 C2481 1.429 . S
C2497 C2493 1.429 . S
C2497 C2498 1.523 . S
C2498 C2482 1.368 . S
C2498 C2494 1.368 . S
C2498 C2497 1.523 . S
H2499 C2474 0.950 . S
H2500 C2476 0.950 . S
H2501 C2477 0.949 . S
H2502 C2479 0.950 . S
H2503 C2481 0.950 . S
C2504 C2505 1.349 . S
C2504 C2506 1.327 . S
C2504 H2529 0.950 . S
C2505 C2504 1.349 . S
C2505 C2521 1.349 . S
C2506 C2504 1.327 . S
C2506 C2525 1.429 . S
C2506 H2530 0.950 . S
C2507 C2524 1.574 . S
C2507 C2526 1.368 . S
C2507 H2531 0.949 . S
H2508 C2512 0.949 . S
C2509 C2510 1.349 . S
C2509 C2511 1.327 . S
C2509 H2532 0.950 . S
C2510 C2509 1.349 . S
C2510 C2522 1.349 . S
C2511 C2509 1.327 . S
C2511 C2527 1.429 . S
C2511 H2533 0.950 . S
C2512 H2508 0.949 . S
C2512 C2520 1.574 . S
C2512 C2528 1.368 . S
H2513 C2521 0.950 . S
H2514 C2519 0.950 . S
H2515 C2520 0.949 . S
H2516 C2522 0.950 . S
H2517 C2523 0.950 . S
H2518 C2524 0.949 . S
C2519 H2514 0.950 . S
C2519 C2521 1.327 . S
C2519 C2525 1.429 . S
C2520 C2512 1.574 . S
C2520 H2515 0.949 . S
C2520 C2526 1.368 . S
C2521 C2505 1.349 . S
C2521 H2513 0.950 . S
C2521 C2519 1.327 . S
C2522 C2510 1.349 . S
C2522 H2516 0.950 . S
C2522 C2523 1.327 . S
C2523 H2517 0.950 . S
C2523 C2522 1.327 . S
C2523 C2527 1.429 . S
C2524 C2507 1.574 . S
C2524 H2518 0.949 . S
C2524 C2528 1.368 . S
C2525 C2506 1.429 . S
C2525 C2519 1.429 . S
C2525 C2526 1.523 . S
C2526 C2507 1.368 . S
C2526 C2520 1.368 . S
C2526 C2525 1.523 . S
C2527 C2511 1.429 . S
C2527 C2523 1.429 . S
C2527 C2528 1.523 . S
C2528 C2512 1.368 . S
C2528 C2524 1.368 . S
C2528 C2527 1.523 . S
H2529 C2504 0.950 . S
H2530 C2506 0.950 . S
H2531 C2507 0.949 . S
H2532 C2509 0.950 . S
H2533 C2511 0.950 . S
C2534 C2535 1.349 . S
C2534 C2536 1.327 . S
C2534 H2559 0.950 . S
C2535 C2534 1.349 . S
C2535 C2551 1.349 . S
C2536 C2534 1.327 . S
C2536 C2555 1.429 . S
C2536 H2560 0.950 . S
C2537 C2554 1.574 . S
C2537 C2556 1.368 . S
C2537 H2561 0.949 . S
H2538 C2542 0.949 . S
C2539 C2540 1.349 . S
C2539 C2541 1.327 . S
C2539 H2562 0.950 . S
C2540 C2539 1.349 . S
C2540 C2552 1.349 . S
C2541 C2539 1.327 . S
C2541 C2557 1.429 . S
C2541 H2563 0.950 . S
C2542 H2538 0.949 . S
C2542 C2550 1.574 . S
C2542 C2558 1.368 . S
H2543 C2551 0.950 . S
H2544 C2549 0.950 . S
H2545 C2550 0.949 . S
H2546 C2552 0.950 . S
H2547 C2553 0.950 . S
H2548 C2554 0.949 . S
C2549 H2544 0.950 . S
C2549 C2551 1.327 . S
C2549 C2555 1.429 . S
C2550 C2542 1.574 . S
C2550 H2545 0.949 . S
C2550 C2556 1.368 . S
C2551 C2535 1.349 . S
C2551 H2543 0.950 . S
C2551 C2549 1.327 . S
C2552 C2540 1.349 . S
C2552 H2546 0.950 . S
C2552 C2553 1.327 . S
C2553 H2547 0.950 . S
C2553 C2552 1.327 . S
C2553 C2557 1.429 . S
C2554 C2537 1.574 . S
C2554 H2548 0.949 . S
C2554 C2558 1.368 . S
C2555 C2536 1.429 . S
C2555 C2549 1.429 . S
C2555 C2556 1.523 . S
C2556 C2537 1.368 . S
C2556 C2550 1.368 . S
C2556 C2555 1.523 . S
C2557 C2541 1.429 . S
C2557 C2553 1.429 . S
C2557 C2558 1.523 . S
C2558 C2542 1.368 . S
C2558 C2554 1.368 . S
C2558 C2557 1.523 . S
H2559 C2534 0.950 . S
H2560 C2536 0.950 . S
H2561 C2537 0.949 . S
H2562 C2539 0.950 . S
H2563 C2541 0.950 . S
C2564 C2565 1.349 . S
C2564 C2566 1.327 . S
C2564 H2589 0.950 . S
C2565 C2564 1.349 . S
C2565 C2581 1.349 . S
C2566 C2564 1.327 . S
C2566 C2585 1.429 . S
C2566 H2590 0.950 . S
C2567 C2584 1.574 . S
C2567 C2586 1.368 . S
C2567 H2591 0.949 . S
H2568 C2572 0.949 . S
C2569 C2570 1.349 . S
C2569 C2571 1.327 . S
C2569 H2592 0.950 . S
C2570 C2569 1.349 . S
C2570 C2582 1.349 . S
C2571 C2569 1.327 . S
C2571 C2587 1.429 . S
C2571 H2593 0.950 . S
C2572 H2568 0.949 . S
C2572 C2580 1.574 . S
C2572 C2588 1.368 . S
H2573 C2581 0.950 . S
H2574 C2579 0.950 . S
H2575 C2580 0.949 . S
H2576 C2582 0.950 . S
H2577 C2583 0.950 . S
H2578 C2584 0.949 . S
C2579 H2574 0.950 . S
C2579 C2581 1.327 . S
C2579 C2585 1.429 . S
C2580 C2572 1.574 . S
C2580 H2575 0.949 . S
C2580 C2586 1.368 . S
C2581 C2565 1.349 . S
C2581 H2573 0.950 . S
C2581 C2579 1.327 . S
C2582 C2570 1.349 . S
C2582 H2576 0.950 . S
C2582 C2583 1.327 . S
C2583 H2577 0.950 . S
C2583 C2582 1.327 . S
C2583 C2587 1.429 . S
C2584 C2567 1.574 . S
C2584 H2578 0.949 . S
C2584 C2588 1.368 . S
C2585 C2566 1.429 . S
C2585 C2579 1.429 . S
C2585 C2586 1.523 . S
C2586 C2567 1.368 . S
C2586 C2580 1.368 . S
C2586 C2585 1.523 . S
C2587 C2571 1.429 . S
C2587 C2583 1.429 . S
C2587 C2588 1.523 . S
C2588 C2572 1.368 . S
C2588 C2584 1.368 . S
C2588 C2587 1.523 . S
H2589 C2564 0.950 . S
H2590 C2566 0.950 . S
H2591 C2567 0.949 . S
H2592 C2569 0.950 . S
H2593 C2571 0.950 . S
C2594 C2595 1.349 . S
C2594 C2596 1.327 . S
C2594 H2619 0.950 . S
C2595 C2594 1.349 . S
C2595 C2611 1.349 . S
C2596 C2594 1.327 . S
C2596 C2615 1.429 . S
C2596 H2620 0.950 . S
C2597 C2614 1.574 . S
C2597 C2616 1.368 . S
C2597 H2621 0.949 . S
H2598 C2602 0.949 . S
C2599 C2600 1.349 . S
C2599 C2601 1.327 . S
C2599 H2622 0.950 . S
C2600 C2599 1.349 . S
C2600 C2612 1.349 . S
C2601 C2599 1.327 . S
C2601 C2617 1.429 . S
C2601 H2623 0.950 . S
C2602 H2598 0.949 . S
C2602 C2610 1.574 . S
C2602 C2618 1.368 . S
H2603 C2611 0.950 . S
H2604 C2609 0.950 . S
H2605 C2610 0.949 . S
H2606 C2612 0.950 . S
H2607 C2613 0.950 . S
H2608 C2614 0.949 . S
C2609 H2604 0.950 . S
C2609 C2611 1.327 . S
C2609 C2615 1.429 . S
C2610 C2602 1.574 . S
C2610 H2605 0.949 . S
C2610 C2616 1.368 . S
C2611 C2595 1.349 . S
C2611 H2603 0.950 . S
C2611 C2609 1.327 . S
C2612 C2600 1.349 . S
C2612 H2606 0.950 . S
C2612 C2613 1.327 . S
C2613 H2607 0.950 . S
C2613 C2612 1.327 . S
C2613 C2617 1.429 . S
C2614 C2597 1.574 . S
C2614 H2608 0.949 . S
C2614 C2618 1.368 . S
C2615 C2596 1.429 . S
C2615 C2609 1.429 . S
C2615 C2616 1.523 . S
C2616 C2597 1.368 . S
C2616 C2610 1.368 . S
C2616 C2615 1.523 . S
C2617 C2601 1.429 . S
C2617 C2613 1.429 . S
C2617 C2618 1.523 . S
C2618 C2602 1.368 . S
C2618 C2614 1.368 . S
C2618 C2617 1.523 . S
H2619 C2594 0.950 . S
H2620 C2596 0.950 . S
H2621 C2597 0.949 . S
H2622 C2599 0.950 . S
H2623 C2601 0.950 . S
C2624 C2625 1.349 . S
C2624 C2626 1.327 . S
C2624 H2649 0.950 . S
C2625 C2624 1.349 . S
C2625 C2641 1.349 . S
C2626 C2624 1.327 . S
C2626 C2645 1.429 . S
C2626 H2650 0.950 . S
C2627 C2644 1.574 . S
C2627 C2646 1.368 1_655 S
C2627 H2651 0.949 . S
H2628 C2632 0.949 . S
C2629 C2630 1.349 . S
C2629 C2631 1.327 . S
C2629 H2652 0.950 . S
C2630 C2629 1.349 . S
C2630 C2642 1.349 . S
C2631 C2629 1.327 . S
C2631 C2647 1.429 . S
C2631 H2653 0.950 . S
C2632 H2628 0.949 . S
C2632 C2640 1.574 . S
C2632 C2648 1.368 1_455 S
H2633 C2641 0.950 . S
H2634 C2639 0.950 . S
H2635 C2640 0.949 . S
H2636 C2642 0.950 . S
H2637 C2643 0.950 . S
H2638 C2644 0.949 . S
C2639 H2634 0.950 . S
C2639 C2641 1.327 . S
C2639 C2645 1.429 . S
C2640 C2632 1.574 . S
C2640 H2635 0.949 . S
C2640 C2646 1.368 . S
C2641 C2625 1.349 . S
C2641 H2633 0.950 . S
C2641 C2639 1.327 . S
C2642 C2630 1.349 . S
C2642 H2636 0.950 . S
C2642 C2643 1.327 . S
C2643 H2637 0.950 . S
C2643 C2642 1.327 . S
C2643 C2647 1.429 . S
C2644 C2627 1.574 . S
C2644 H2638 0.949 . S
C2644 C2648 1.368 . S
C2645 C2626 1.429 . S
C2645 C2639 1.429 . S
C2645 C2646 1.523 . S
C2646 C2627 1.368 1_455 S
C2646 C2640 1.368 . S
C2646 C2645 1.523 . S
C2647 C2631 1.429 . S
C2647 C2643 1.429 . S
C2647 C2648 1.523 . S
C2648 C2632 1.368 1_655 S
C2648 C2644 1.368 . S
C2648 C2647 1.523 . S
H2649 C2624 0.950 . S
H2650 C2626 0.950 . S
H2651 C2627 0.949 . S
H2652 C2629 0.950 . S
H2653 C2631 0.950 . S
C2654 C2655 1.349 . S
C2654 C2656 1.327 . S
C2654 H2679 0.950 . S
C2655 C2654 1.349 . S
C2655 C2671 1.349 . S
C2656 C2654 1.327 . S
C2656 C2675 1.429 . S
C2656 H2680 0.950 . S
C2657 C2674 1.574 1_565 S
C2657 C2676 1.368 . S
C2657 H2681 0.949 . S
H2658 C2662 0.949 . S
C2659 C2660 1.349 . S
C2659 C2661 1.327 . S
C2659 H2682 0.950 . S
C2660 C2659 1.349 . S
C2660 C2672 1.349 . S
C2661 C2659 1.327 . S
C2661 C2677 1.429 . S
C2661 H2683 0.950 . S
C2662 H2658 0.949 . S
C2662 C2670 1.574 1_545 S
C2662 C2678 1.368 . S
H2663 C2671 0.950 . S
H2664 C2669 0.950 . S
H2665 C2670 0.949 . S
H2666 C2672 0.950 . S
H2667 C2673 0.950 . S
H2668 C2674 0.949 . S
C2669 H2664 0.950 . S
C2669 C2671 1.327 . S
C2669 C2675 1.429 . S
C2670 C2662 1.574 1_565 S
C2670 H2665 0.949 . S
C2670 C2676 1.368 . S
C2671 C2655 1.349 . S
C2671 H2663 0.950 . S
C2671 C2669 1.327 . S
C2672 C2660 1.349 . S
C2672 H2666 0.950 . S
C2672 C2673 1.327 . S
C2673 H2667 0.950 . S
C2673 C2672 1.327 . S
C2673 C2677 1.429 . S
C2674 C2657 1.574 1_545 S
C2674 H2668 0.949 . S
C2674 C2678 1.368 . S
C2675 C2656 1.429 . S
C2675 C2669 1.429 . S
C2675 C2676 1.523 . S
C2676 C2657 1.368 . S
C2676 C2670 1.368 . S
C2676 C2675 1.523 . S
C2677 C2661 1.429 . S
C2677 C2673 1.429 . S
C2677 C2678 1.523 . S
C2678 C2662 1.368 . S
C2678 C2674 1.368 . S
C2678 C2677 1.523 . S
H2679 C2654 0.950 . S
H2680 C2656 0.950 . S
H2681 C2657 0.949 . S
H2682 C2659 0.950 . S
H2683 C2661 0.950 . S
C2684 C2685 1.349 . S
C2684 C2686 1.327 . S
C2684 H2709 0.950 . S
C2685 C2684 1.349 . S
C2685 C2701 1.349 . S
C2686 C2684 1.327 . S
C2686 C2705 1.429 . S
C2686 H2710 0.950 . S
C2687 C2704 1.574 . S
C2687 C2706 1.368 1_455 S
C2687 H2711 0.949 . S
H2688 C2692 0.949 . S
C2689 C2690 1.349 . S
C2689 C2691 1.327 . S
C2689 H2712 0.950 . S
C2690 C2689 1.349 . S
C2690 C2702 1.349 . S
C2691 C2689 1.327 . S
C2691 C2707 1.429 . S
C2691 H2713 0.950 . S
C2692 H2688 0.949 . S
C2692 C2700 1.574 . S
C2692 C2708 1.368 1_655 S
H2693 C2701 0.950 . S
H2694 C2699 0.950 . S
H2695 C2700 0.949 . S
H2696 C2702 0.950 . S
H2697 C2703 0.950 . S
H2698 C2704 0.949 . S
C2699 H2694 0.950 . S
C2699 C2701 1.327 . S
C2699 C2705 1.429 . S
C2700 C2692 1.574 . S
C2700 H2695 0.949 . S
C2700 C2706 1.368 . S
C2701 C2685 1.349 . S
C2701 H2693 0.950 . S
C2701 C2699 1.327 . S
C2702 C2690 1.349 . S
C2702 H2696 0.950 . S
C2702 C2703 1.327 . S
C2703 H2697 0.950 . S
C2703 C2702 1.327 . S
C2703 C2707 1.429 . S
C2704 C2687 1.574 . S
C2704 H2698 0.949 . S
C2704 C2708 1.368 . S
C2705 C2686 1.429 . S
C2705 C2699 1.429 . S
C2705 C2706 1.523 . S
C2706 C2687 1.368 1_655 S
C2706 C2700 1.368 . S
C2706 C2705 1.523 . S
C2707 C2691 1.429 . S
C2707 C2703 1.429 . S
C2707 C2708 1.523 . S
C2708 C2692 1.368 1_455 S
C2708 C2704 1.368 . S
C2708 C2707 1.523 . S
H2709 C2684 0.950 . S
H2710 C2686 0.950 . S
H2711 C2687 0.949 . S
H2712 C2689 0.950 . S
H2713 C2691 0.950 . S
C2714 C2715 1.349 . S
C2714 C2716 1.327 . S
C2714 H2739 0.950 . S
C2715 C2714 1.349 . S
C2715 C2731 1.349 . S
C2716 C2714 1.327 . S
C2716 C2735 1.429 . S
C2716 H2740 0.950 . S
C2717 C2734 1.574 . S
C2717 C2736 1.368 1_565 S
C2717 H2741 0.949 . S
H2718 C2722 0.949 . S
C2719 C2720 1.349 . S
C2719 C2721 1.327 . S
C2719 H2742 0.950 . S
C2720 C2719 1.349 . S
C2720 C2732 1.349 . S
C2721 C2719 1.327 . S
C2721 C2737 1.429 . S
C2721 H2743 0.950 . S
C2722 H2718 0.949 . S
C2722 C2730 1.574 . S
C2722 C2738 1.368 1_545 S
H2723 C2731 0.950 . S
H2724 C2729 0.950 . S
H2725 C2730 0.949 . S
H2726 C2732 0.950 . S
H2727 C2733 0.950 . S
H2728 C2734 0.949 . S
C2729 H2724 0.950 . S
C2729 C2731 1.327 . S
C2729 C2735 1.429 . S
C2730 C2722 1.574 . S
C2730 H2725 0.949 . S
C2730 C2736 1.368 . S
C2731 C2715 1.349 . S
C2731 H2723 0.950 . S
C2731 C2729 1.327 . S
C2732 C2720 1.349 . S
C2732 H2726 0.950 . S
C2732 C2733 1.327 . S
C2733 H2727 0.950 . S
C2733 C2732 1.327 . S
C2733 C2737 1.429 . S
C2734 C2717 1.574 . S
C2734 H2728 0.949 . S
C2734 C2738 1.368 . S
C2735 C2716 1.429 . S
C2735 C2729 1.429 . S
C2735 C2736 1.523 . S
C2736 C2717 1.368 1_545 S
C2736 C2730 1.368 . S
C2736 C2735 1.523 . S
C2737 C2721 1.429 . S
C2737 C2733 1.429 . S
C2737 C2738 1.523 . S
C2738 C2722 1.368 1_565 S
C2738 C2734 1.368 . S
C2738 C2737 1.523 . S
H2739 C2714 0.950 . S
H2740 C2716 0.950 . S
H2741 C2717 0.949 . S
H2742 C2719 0.950 . S
H2743 C2721 0.950 . S
C2744 C2745 1.349 . S
C2744 C2746 1.327 . S
C2744 H2769 0.950 . S
C2745 C2744 1.349 . S
C2745 C2761 1.349 . S
C2746 C2744 1.327 . S
C2746 C2765 1.429 . S
C2746 H2770 0.950 . S
C2747 C2764 1.574 . S
C2747 C2766 1.368 . S
C2747 H2771 0.949 . S
H2748 C2752 0.949 . S
C2749 C2750 1.349 . S
C2749 C2751 1.327 . S
C2749 H2772 0.950 . S
C2750 C2749 1.349 . S
C2750 C2762 1.349 . S
C2751 C2749 1.327 . S
C2751 C2767 1.429 . S
C2751 H2773 0.950 . S
C2752 H2748 0.949 . S
C2752 C2760 1.574 . S
C2752 C2768 1.368 . S
H2753 C2761 0.950 . S
H2754 C2759 0.950 . S
H2755 C2760 0.949 . S
H2756 C2762 0.950 . S
H2757 C2763 0.950 . S
H2758 C2764 0.949 . S
C2759 H2754 0.950 . S
C2759 C2761 1.327 . S
C2759 C2765 1.429 . S
C2760 C2752 1.574 . S
C2760 H2755 0.949 . S
C2760 C2766 1.368 1_455 S
C2761 C2745 1.349 . S
C2761 H2753 0.950 . S
C2761 C2759 1.327 . S
C2762 C2750 1.349 . S
C2762 H2756 0.950 . S
C2762 C2763 1.327 . S
C2763 H2757 0.950 . S
C2763 C2762 1.327 . S
C2763 C2767 1.429 . S
C2764 C2747 1.574 . S
C2764 H2758 0.949 . S
C2764 C2768 1.368 1_655 S
C2765 C2746 1.429 . S
C2765 C2759 1.429 . S
C2765 C2766 1.523 . S
C2766 C2747 1.368 . S
C2766 C2760 1.368 1_655 S
C2766 C2765 1.523 . S
C2767 C2751 1.429 . S
C2767 C2763 1.429 . S
C2767 C2768 1.523 . S
C2768 C2752 1.368 . S
C2768 C2764 1.368 1_455 S
C2768 C2767 1.523 . S
H2769 C2744 0.950 . S
H2770 C2746 0.950 . S
H2771 C2747 0.949 . S
H2772 C2749 0.950 . S
H2773 C2751 0.950 . S
C2774 C2775 1.349 . S
C2774 C2776 1.327 . S
C2774 H2799 0.950 . S
C2775 C2774 1.349 . S
C2775 C2791 1.349 . S
C2776 C2774 1.327 . S
C2776 C2795 1.429 . S
C2776 H2800 0.950 . S
C2777 C2794 1.574 . S
C2777 C2796 1.368 1_565 S
C2777 H2801 0.949 . S
H2778 C2782 0.949 . S
C2779 C2780 1.349 . S
C2779 C2781 1.327 . S
C2779 H2802 0.950 . S
C2780 C2779 1.349 . S
C2780 C2792 1.349 . S
C2781 C2779 1.327 . S
C2781 C2797 1.429 . S
C2781 H2803 0.950 . S
C2782 H2778 0.949 . S
C2782 C2790 1.574 . S
C2782 C2798 1.368 1_545 S
H2783 C2791 0.950 . S
H2784 C2789 0.950 . S
H2785 C2790 0.949 . S
H2786 C2792 0.950 . S
H2787 C2793 0.950 . S
H2788 C2794 0.949 . S
C2789 H2784 0.950 . S
C2789 C2791 1.327 . S
C2789 C2795 1.429 . S
C2790 C2782 1.574 . S
C2790 H2785 0.949 . S
C2790 C2796 1.368 . S
C2791 C2775 1.349 . S
C2791 H2783 0.950 . S
C2791 C2789 1.327 . S
C2792 C2780 1.349 . S
C2792 H2786 0.950 . S
C2792 C2793 1.327 . S
C2793 H2787 0.950 . S
C2793 C2792 1.327 . S
C2793 C2797 1.429 . S
C2794 C2777 1.574 . S
C2794 H2788 0.949 . S
C2794 C2798 1.368 . S
C2795 C2776 1.429 . S
C2795 C2789 1.429 . S
C2795 C2796 1.523 . S
C2796 C2777 1.368 1_545 S
C2796 C2790 1.368 . S
C2796 C2795 1.523 . S
C2797 C2781 1.429 . S
C2797 C2793 1.429 . S
C2797 C2798 1.523 . S
C2798 C2782 1.368 1_565 S
C2798 C2794 1.368 . S
C2798 C2797 1.523 . S
H2799 C2774 0.950 . S
H2800 C2776 0.950 . S
H2801 C2777 0.949 . S
H2802 C2779 0.950 . S
H2803 C2781 0.950 . S
C2804 C2805 1.349 . S
C2804 C2806 1.327 . S
C2804 H2829 0.950 . S
C2805 C2804 1.349 . S
C2805 C2821 1.349 . S
C2806 C2804 1.327 . S
C2806 C2825 1.429 . S
C2806 H2830 0.950 . S
C2807 C2824 1.574 . S
C2807 C2826 1.368 1_455 S
C2807 H2831 0.949 . S
H2808 C2812 0.949 . S
C2809 C2810 1.349 . S
C2809 C2811 1.327 . S
C2809 H2832 0.950 . S
C2810 C2809 1.349 . S
C2810 C2822 1.349 . S
C2811 C2809 1.327 . S
C2811 C2827 1.429 . S
C2811 H2833 0.950 . S
C2812 H2808 0.949 . S
C2812 C2820 1.574 . S
C2812 C2828 1.368 1_655 S
H2813 C2821 0.950 . S
H2814 C2819 0.950 . S
H2815 C2820 0.949 . S
H2816 C2822 0.950 . S
H2817 C2823 0.950 . S
H2818 C2824 0.949 . S
C2819 H2814 0.950 . S
C2819 C2821 1.327 . S
C2819 C2825 1.429 . S
C2820 C2812 1.574 . S
C2820 H2815 0.949 . S
C2820 C2826 1.368 . S
C2821 C2805 1.349 . S
C2821 H2813 0.950 . S
C2821 C2819 1.327 . S
C2822 C2810 1.349 . S
C2822 H2816 0.950 . S
C2822 C2823 1.327 . S
C2823 H2817 0.950 . S
C2823 C2822 1.327 . S
C2823 C2827 1.429 . S
C2824 C2807 1.574 . S
C2824 H2818 0.949 . S
C2824 C2828 1.368 . S
C2825 C2806 1.429 . S
C2825 C2819 1.429 . S
C2825 C2826 1.523 . S
C2826 C2807 1.368 1_655 S
C2826 C2820 1.368 . S
C2826 C2825 1.523 . S
C2827 C2811 1.429 . S
C2827 C2823 1.429 . S
C2827 C2828 1.523 . S
C2828 C2812 1.368 1_455 S
C2828 C2824 1.368 . S
C2828 C2827 1.523 . S
H2829 C2804 0.950 . S
H2830 C2806 0.950 . S
H2831 C2807 0.949 . S
H2832 C2809 0.950 . S
H2833 C2811 0.950 . S
C2834 C2835 1.349 . S
C2834 C2836 1.327 . S
C2834 H2859 0.950 . S
C2835 C2834 1.349 . S
C2835 C2851 1.349 . S
C2836 C2834 1.327 . S
C2836 C2855 1.429 . S
C2836 H2860 0.950 . S
C2837 C2854 1.574 . S
C2837 C2856 1.368 1_545 S
C2837 H2861 0.949 . S
H2838 C2842 0.949 . S
C2839 C2840 1.349 . S
C2839 C2841 1.327 . S
C2839 H2862 0.950 . S
C2840 C2839 1.349 . S
C2840 C2852 1.349 . S
C2841 C2839 1.327 . S
C2841 C2857 1.429 . S
C2841 H2863 0.950 . S
C2842 H2838 0.949 . S
C2842 C2850 1.574 . S
C2842 C2858 1.368 1_565 S
H2843 C2851 0.950 . S
H2844 C2849 0.950 . S
H2845 C2850 0.949 . S
H2846 C2852 0.950 . S
H2847 C2853 0.950 . S
H2848 C2854 0.949 . S
C2849 H2844 0.950 . S
C2849 C2851 1.327 . S
C2849 C2855 1.429 . S
C2850 C2842 1.574 . S
C2850 H2845 0.949 . S
C2850 C2856 1.368 . S
C2851 C2835 1.349 . S
C2851 H2843 0.950 . S
C2851 C2849 1.327 . S
C2852 C2840 1.349 . S
C2852 H2846 0.950 . S
C2852 C2853 1.327 . S
C2853 H2847 0.950 . S
C2853 C2852 1.327 . S
C2853 C2857 1.429 . S
C2854 C2837 1.574 . S
C2854 H2848 0.949 . S
C2854 C2858 1.368 . S
C2855 C2836 1.429 . S
C2855 C2849 1.429 . S
C2855 C2856 1.523 . S
C2856 C2837 1.368 1_565 S
C2856 C2850 1.368 . S
C2856 C2855 1.523 . S
C2857 C2841 1.429 . S
C2857 C2853 1.429 . S
C2857 C2858 1.523 . S
C2858 C2842 1.368 1_545 S
C2858 C2854 1.368 . S
C2858 C2857 1.523 . S
H2859 C2834 0.950 . S
H2860 C2836 0.950 . S
H2861 C2837 0.949 . S
H2862 C2839 0.950 . S
H2863 C2841 0.950 . S
C2864 C2865 1.349 . S
C2864 C2866 1.327 . S
C2864 H2889 0.950 . S
C2865 C2864 1.349 . S
C2865 C2881 1.349 . S
C2866 C2864 1.327 . S
C2866 C2885 1.429 . S
C2866 H2890 0.950 . S
C2867 C2884 1.574 . S
C2867 C2886 1.368 . S
C2867 H2891 0.949 . S
H2868 C2872 0.949 . S
C2869 C2870 1.349 . S
C2869 C2871 1.327 . S
C2869 H2892 0.950 . S
C2870 C2869 1.349 . S
C2870 C2882 1.349 . S
C2871 C2869 1.327 . S
C2871 C2887 1.429 . S
C2871 H2893 0.950 . S
C2872 H2868 0.949 . S
C2872 C2880 1.574 . S
C2872 C2888 1.368 . S
H2873 C2881 0.950 . S
H2874 C2879 0.950 . S
H2875 C2880 0.949 . S
H2876 C2882 0.950 . S
H2877 C2883 0.950 . S
H2878 C2884 0.949 . S
C2879 H2874 0.950 . S
C2879 C2881 1.327 . S
C2879 C2885 1.429 . S
C2880 C2872 1.574 . S
C2880 H2875 0.949 . S
C2880 C2886 1.368 . S
C2881 C2865 1.349 . S
C2881 H2873 0.950 . S
C2881 C2879 1.327 . S
C2882 C2870 1.349 . S
C2882 H2876 0.950 . S
C2882 C2883 1.327 . S
C2883 H2877 0.950 . S
C2883 C2882 1.327 . S
C2883 C2887 1.429 . S
C2884 C2867 1.574 . S
C2884 H2878 0.949 . S
C2884 C2888 1.368 . S
C2885 C2866 1.429 . S
C2885 C2879 1.429 . S
C2885 C2886 1.523 . S
C2886 C2867 1.368 . S
C2886 C2880 1.368 . S
C2886 C2885 1.523 . S
C2887 C2871 1.429 . S
C2887 C2883 1.429 . S
C2887 C2888 1.523 . S
C2888 C2872 1.368 . S
C2888 C2884 1.368 . S
C2888 C2887 1.523 . S
H2889 C2864 0.950 . S
H2890 C2866 0.950 . S
H2891 C2867 0.949 . S
H2892 C2869 0.950 . S
H2893 C2871 0.950 . S
C2894 C2895 1.349 . S
C2894 C2896 1.327 . S
C2894 H2919 0.950 . S
C2895 C2894 1.349 . S
C2895 C2911 1.349 . S
C2896 C2894 1.327 . S
C2896 C2915 1.429 . S
C2896 H2920 0.950 . S
C2897 C2914 1.574 . S
C2897 C2916 1.368 . S
C2897 H2921 0.949 . S
H2898 C2902 0.949 . S
C2899 C2900 1.349 . S
C2899 C2901 1.327 . S
C2899 H2922 0.950 . S
C2900 C2899 1.349 . S
C2900 C2912 1.349 . S
C2901 C2899 1.327 . S
C2901 C2917 1.429 . S
C2901 H2923 0.950 . S
C2902 H2898 0.949 . S
C2902 C2910 1.574 . S
C2902 C2918 1.368 . S
H2903 C2911 0.950 . S
H2904 C2909 0.950 . S
H2905 C2910 0.949 . S
H2906 C2912 0.950 . S
H2907 C2913 0.950 . S
H2908 C2914 0.949 . S
C2909 H2904 0.950 . S
C2909 C2911 1.327 . S
C2909 C2915 1.429 . S
C2910 C2902 1.574 . S
C2910 H2905 0.949 . S
C2910 C2916 1.368 . S
C2911 C2895 1.349 . S
C2911 H2903 0.950 . S
C2911 C2909 1.327 . S
C2912 C2900 1.349 . S
C2912 H2906 0.950 . S
C2912 C2913 1.327 . S
C2913 H2907 0.950 . S
C2913 C2912 1.327 . S
C2913 C2917 1.429 . S
C2914 C2897 1.574 . S
C2914 H2908 0.949 . S
C2914 C2918 1.368 . S
C2915 C2896 1.429 . S
C2915 C2909 1.429 . S
C2915 C2916 1.523 . S
C2916 C2897 1.368 . S
C2916 C2910 1.368 . S
C2916 C2915 1.523 . S
C2917 C2901 1.429 . S
C2917 C2913 1.429 . S
C2917 C2918 1.523 . S
C2918 C2902 1.368 . S
C2918 C2914 1.368 . S
C2918 C2917 1.523 . S
H2919 C2894 0.950 . S
H2920 C2896 0.950 . S
H2921 C2897 0.949 . S
H2922 C2899 0.950 . S
H2923 C2901 0.950 . S
C2924 C2925 1.349 . S
C2924 C2926 1.327 . S
C2924 H2949 0.950 . S
C2925 C2924 1.349 . S
C2925 C2941 1.349 . S
C2926 C2924 1.327 . S
C2926 C2945 1.429 . S
C2926 H2950 0.950 . S
C2927 C2944 1.574 . S
C2927 C2946 1.368 . S
C2927 H2951 0.949 . S
H2928 C2932 0.949 . S
C2929 C2930 1.349 . S
C2929 C2931 1.327 . S
C2929 H2952 0.950 . S
C2930 C2929 1.349 . S
C2930 C2942 1.349 . S
C2931 C2929 1.327 . S
C2931 C2947 1.429 . S
C2931 H2953 0.950 . S
C2932 H2928 0.949 . S
C2932 C2940 1.574 . S
C2932 C2948 1.368 . S
H2933 C2941 0.950 . S
H2934 C2939 0.950 . S
H2935 C2940 0.949 . S
H2936 C2942 0.950 . S
H2937 C2943 0.950 . S
H2938 C2944 0.949 . S
C2939 H2934 0.950 . S
C2939 C2941 1.327 . S
C2939 C2945 1.429 . S
C2940 C2932 1.574 . S
C2940 H2935 0.949 . S
C2940 C2946 1.368 . S
C2941 C2925 1.349 . S
C2941 H2933 0.950 . S
C2941 C2939 1.327 . S
C2942 C2930 1.349 . S
C2942 H2936 0.950 . S
C2942 C2943 1.327 . S
C2943 H2937 0.950 . S
C2943 C2942 1.327 . S
C2943 C2947 1.429 . S
C2944 C2927 1.574 . S
C2944 H2938 0.949 . S
C2944 C2948 1.368 . S
C2945 C2926 1.429 . S
C2945 C2939 1.429 . S
C2945 C2946 1.523 . S
C2946 C2927 1.368 . S
C2946 C2940 1.368 . S
C2946 C2945 1.523 . S
C2947 C2931 1.429 . S
C2947 C2943 1.429 . S
C2947 C2948 1.523 . S
C2948 C2932 1.368 . S
C2948 C2944 1.368 . S
C2948 C2947 1.523 . S
H2949 C2924 0.950 . S
H2950 C2926 0.950 . S
H2951 C2927 0.949 . S
H2952 C2929 0.950 . S
H2953 C2931 0.950 . S
C2954 C2955 1.349 . S
C2954 C2956 1.327 . S
C2954 H2979 0.950 . S
C2955 C2954 1.349 . S
C2955 C2971 1.349 . S
C2956 C2954 1.327 . S
C2956 C2975 1.429 . S
C2956 H2980 0.950 . S
C2957 C2974 1.574 . S
C2957 C2976 1.368 . S
C2957 H2981 0.949 . S
H2958 C2962 0.949 . S
C2959 C2960 1.349 . S
C2959 C2961 1.327 . S
C2959 H2982 0.950 . S
C2960 C2959 1.349 . S
C2960 C2972 1.349 . S
C2961 C2959 1.327 . S
C2961 C2977 1.429 . S
C2961 H2983 0.950 . S
C2962 H2958 0.949 . S
C2962 C2970 1.574 . S
C2962 C2978 1.368 . S
H2963 C2971 0.950 . S
H2964 C2969 0.950 . S
H2965 C2970 0.949 . S
H2966 C2972 0.950 . S
H2967 C2973 0.950 . S
H2968 C2974 0.949 . S
C2969 H2964 0.950 . S
C2969 C2971 1.327 . S
C2969 C2975 1.429 . S
C2970 C2962 1.574 . S
C2970 H2965 0.949 . S
C2970 C2976 1.368 . S
C2971 C2955 1.349 . S
C2971 H2963 0.950 . S
C2971 C2969 1.327 . S
C2972 C2960 1.349 . S
C2972 H2966 0.950 . S
C2972 C2973 1.327 . S
C2973 H2967 0.950 . S
C2973 C2972 1.327 . S
C2973 C2977 1.429 . S
C2974 C2957 1.574 . S
C2974 H2968 0.949 . S
C2974 C2978 1.368 . S
C2975 C2956 1.429 . S
C2975 C2969 1.429 . S
C2975 C2976 1.523 . S
C2976 C2957 1.368 . S
C2976 C2970 1.368 . S
C2976 C2975 1.523 . S
C2977 C2961 1.429 . S
C2977 C2973 1.429 . S
C2977 C2978 1.523 . S
C2978 C2962 1.368 . S
C2978 C2974 1.368 . S
C2978 C2977 1.523 . S
H2979 C2954 0.950 . S
H2980 C2956 0.950 . S
H2981 C2957 0.949 . S
H2982 C2959 0.950 . S
H2983 C2961 0.950 . S
C2984 C2985 1.349 . S
C2984 C2986 1.327 . S
C2984 H3009 0.950 . S
C2985 C2984 1.349 . S
C2985 C3001 1.349 . S
C2986 C2984 1.327 . S
C2986 C3005 1.429 . S
C2986 H3010 0.950 . S
C2987 C3004 1.574 . S
C2987 C3006 1.368 . S
C2987 H3011 0.949 . S
H2988 C2992 0.949 . S
C2989 C2990 1.349 . S
C2989 C2991 1.327 . S
C2989 H3012 0.950 . S
C2990 C2989 1.349 . S
C2990 C3002 1.349 . S
C2991 C2989 1.327 . S
C2991 C3007 1.429 . S
C2991 H3013 0.950 . S
C2992 H2988 0.949 . S
C2992 C3000 1.574 . S
C2992 C3008 1.368 . S
H2993 C3001 0.950 . S
H2994 C2999 0.950 . S
H2995 C3000 0.949 . S
H2996 C3002 0.950 . S
H2997 C3003 0.950 . S
H2998 C3004 0.949 . S
C2999 H2994 0.950 . S
C2999 C3001 1.327 . S
C2999 C3005 1.429 . S
C3000 C2992 1.574 . S
C3000 H2995 0.949 . S
C3000 C3006 1.368 . S
C3001 C2985 1.349 . S
C3001 H2993 0.950 . S
C3001 C2999 1.327 . S
C3002 C2990 1.349 . S
C3002 H2996 0.950 . S
C3002 C3003 1.327 . S
C3003 H2997 0.950 . S
C3003 C3002 1.327 . S
C3003 C3007 1.429 . S
C3004 C2987 1.574 . S
C3004 H2998 0.949 . S
C3004 C3008 1.368 . S
C3005 C2986 1.429 . S
C3005 C2999 1.429 . S
C3005 C3006 1.523 . S
C3006 C2987 1.368 . S
C3006 C3000 1.368 . S
C3006 C3005 1.523 . S
C3007 C2991 1.429 . S
C3007 C3003 1.429 . S
C3007 C3008 1.523 . S
C3008 C2992 1.368 . S
C3008 C3004 1.368 . S
C3008 C3007 1.523 . S
H3009 C2984 0.950 . S
H3010 C2986 0.950 . S
H3011 C2987 0.949 . S
H3012 C2989 0.950 . S
H3013 C2991 0.950 . S
C3014 C3015 1.349 . S
C3014 C3016 1.327 . S
C3014 H3039 0.950 . S
C3015 C3014 1.349 . S
C3015 C3031 1.349 . S
C3016 C3014 1.327 . S
C3016 C3035 1.429 . S
C3016 H3040 0.950 . S
C3017 C3034 1.574 . S
C3017 C3036 1.368 . S
C3017 H3041 0.949 . S
H3018 C3022 0.949 . S
C3019 C3020 1.349 . S
C3019 C3021 1.327 . S
C3019 H3042 0.950 . S
C3020 C3019 1.349 . S
C3020 C3032 1.349 . S
C3021 C3019 1.327 . S
C3021 C3037 1.429 . S
C3021 H3043 0.950 . S
C3022 H3018 0.949 . S
C3022 C3030 1.574 . S
C3022 C3038 1.368 . S
H3023 C3031 0.950 . S
H3024 C3029 0.950 . S
H3025 C3030 0.949 . S
H3026 C3032 0.950 . S
H3027 C3033 0.950 . S
H3028 C3034 0.949 . S
C3029 H3024 0.950 . S
C3029 C3031 1.327 . S
C3029 C3035 1.429 . S
C3030 C3022 1.574 . S
C3030 H3025 0.949 . S
C3030 C3036 1.368 . S
C3031 C3015 1.349 . S
C3031 H3023 0.950 . S
C3031 C3029 1.327 . S
C3032 C3020 1.349 . S
C3032 H3026 0.950 . S
C3032 C3033 1.327 . S
C3033 H3027 0.950 . S
C3033 C3032 1.327 . S
C3033 C3037 1.429 . S
C3034 C3017 1.574 . S
C3034 H3028 0.949 . S
C3034 C3038 1.368 . S
C3035 C3016 1.429 . S
C3035 C3029 1.429 . S
C3035 C3036 1.523 . S
C3036 C3017 1.368 . S
C3036 C3030 1.368 . S
C3036 C3035 1.523 . S
C3037 C3021 1.429 . S
C3037 C3033 1.429 . S
C3037 C3038 1.523 . S
C3038 C3022 1.368 . S
C3038 C3034 1.368 . S
C3038 C3037 1.523 . S
H3039 C3014 0.950 . S
H3040 C3016 0.950 . S
H3041 C3017 0.949 . S
H3042 C3019 0.950 . S
H3043 C3021 0.950 . S
C3044 C3045 1.349 . S
C3044 C3046 1.327 . S
C3044 H3069 0.950 . S
C3045 C3044 1.349 . S
C3045 C3061 1.349 . S
C3046 C3044 1.327 . S
C3046 C3065 1.429 . S
C3046 H3070 0.950 . S
C3047 C3064 1.574 . S
C3047 C3066 1.368 . S
C3047 H3071 0.949 . S
H3048 C3052 0.949 . S
C3049 C3050 1.349 . S
C3049 C3051 1.327 . S
C3049 H3072 0.950 . S
C3050 C3049 1.349 . S
C3050 C3062 1.349 . S
C3051 C3049 1.327 . S
C3051 C3067 1.429 . S
C3051 H3073 0.950 . S
C3052 H3048 0.949 . S
C3052 C3060 1.574 . S
C3052 C3068 1.368 . S
H3053 C3061 0.950 . S
H3054 C3059 0.950 . S
H3055 C3060 0.949 . S
H3056 C3062 0.950 . S
H3057 C3063 0.950 . S
H3058 C3064 0.949 . S
C3059 H3054 0.950 . S
C3059 C3061 1.327 . S
C3059 C3065 1.429 . S
C3060 C3052 1.574 . S
C3060 H3055 0.949 . S
C3060 C3066 1.368 . S
C3061 C3045 1.349 . S
C3061 H3053 0.950 . S
C3061 C3059 1.327 . S
C3062 C3050 1.349 . S
C3062 H3056 0.950 . S
C3062 C3063 1.327 . S
C3063 H3057 0.950 . S
C3063 C3062 1.327 . S
C3063 C3067 1.429 . S
C3064 C3047 1.574 . S
C3064 H3058 0.949 . S
C3064 C3068 1.368 . S
C3065 C3046 1.429 . S
C3065 C3059 1.429 . S
C3065 C3066 1.523 . S
C3066 C3047 1.368 . S
C3066 C3060 1.368 . S
C3066 C3065 1.523 . S
C3067 C3051 1.429 . S
C3067 C3063 1.429 . S
C3067 C3068 1.523 . S
C3068 C3052 1.368 . S
C3068 C3064 1.368 . S
C3068 C3067 1.523 . S
H3069 C3044 0.950 . S
H3070 C3046 0.950 . S
H3071 C3047 0.949 . S
H3072 C3049 0.950 . S
H3073 C3051 0.950 . S
C3074 C3075 1.349 . S
C3074 C3076 1.327 . S
C3074 H3099 0.950 . S
C3075 C3074 1.349 . S
C3075 C3091 1.349 . S
C3076 C3074 1.327 . S
C3076 C3095 1.429 . S
C3076 H3100 0.950 . S
C3077 C3094 1.574 . S
C3077 C3096 1.368 . S
C3077 H3101 0.949 . S
H3078 C3082 0.949 . S
C3079 C3080 1.349 . S
C3079 C3081 1.327 . S
C3079 H3102 0.950 . S
C3080 C3079 1.349 . S
C3080 C3092 1.349 . S
C3081 C3079 1.327 . S
C3081 C3097 1.429 . S
C3081 H3103 0.950 . S
C3082 H3078 0.949 . S
C3082 C3090 1.574 . S
C3082 C3098 1.368 . S
H3083 C3091 0.950 . S
H3084 C3089 0.950 . S
H3085 C3090 0.949 . S
H3086 C3092 0.950 . S
H3087 C3093 0.950 . S
H3088 C3094 0.949 . S
C3089 H3084 0.950 . S
C3089 C3091 1.327 . S
C3089 C3095 1.429 . S
C3090 C3082 1.574 . S
C3090 H3085 0.949 . S
C3090 C3096 1.368 . S
C3091 C3075 1.349 . S
C3091 H3083 0.950 . S
C3091 C3089 1.327 . S
C3092 C3080 1.349 . S
C3092 H3086 0.950 . S
C3092 C3093 1.327 . S
C3093 H3087 0.950 . S
C3093 C3092 1.327 . S
C3093 C3097 1.429 . S
C3094 C3077 1.574 . S
C3094 H3088 0.949 . S
C3094 C3098 1.368 . S
C3095 C3076 1.429 . S
C3095 C3089 1.429 . S
C3095 C3096 1.523 . S
C3096 C3077 1.368 . S
C3096 C3090 1.368 . S
C3096 C3095 1.523 . S
C3097 C3081 1.429 . S
C3097 C3093 1.429 . S
C3097 C3098 1.523 . S
C3098 C3082 1.368 . S
C3098 C3094 1.368 . S
C3098 C3097 1.523 . S
H3099 C3074 0.950 . S
H3100 C3076 0.950 . S
H3101 C3077 0.949 . S
H3102 C3079 0.950 . S
H3103 C3081 0.950 . S
C3104 C3105 1.349 . S
C3104 C3106 1.327 . S
C3104 H3129 0.950 . S
C3105 C3104 1.349 . S
C3105 C3121 1.349 . S
C3106 C3104 1.327 . S
C3106 C3125 1.429 . S
C3106 H3130 0.950 . S
C3107 C3124 1.574 1_556 S
C3107 C3126 1.368 . S
C3107 H3131 0.949 . S
H3108 C3112 0.949 . S
C3109 C3110 1.349 . S
C3109 C3111 1.327 . S
C3109 H3132 0.950 . S
C3110 C3109 1.349 . S
C3110 C3122 1.349 . S
C3111 C3109 1.327 . S
C3111 C3127 1.429 . S
C3111 H3133 0.950 . S
C3112 H3108 0.949 . S
C3112 C3120 1.574 1_554 S
C3112 C3128 1.368 . S
H3113 C3121 0.950 . S
H3114 C3119 0.950 . S
H3115 C3120 0.949 . S
H3116 C3122 0.950 . S
H3117 C3123 0.950 . S
H3118 C3124 0.949 . S
C3119 H3114 0.950 . S
C3119 C3121 1.327 . S
C3119 C3125 1.429 . S
C3120 C3112 1.574 1_556 S
C3120 H3115 0.949 . S
C3120 C3126 1.368 . S
C3121 C3105 1.349 . S
C3121 H3113 0.950 . S
C3121 C3119 1.327 . S
C3122 C3110 1.349 . S
C3122 H3116 0.950 . S
C3122 C3123 1.327 . S
C3123 H3117 0.950 . S
C3123 C3122 1.327 . S
C3123 C3127 1.429 . S
C3124 C3107 1.574 1_554 S
C3124 H3118 0.949 . S
C3124 C3128 1.368 . S
C3125 C3106 1.429 . S
C3125 C3119 1.429 . S
C3125 C3126 1.523 . S
C3126 C3107 1.368 . S
C3126 C3120 1.368 . S
C3126 C3125 1.523 . S
C3127 C3111 1.429 . S
C3127 C3123 1.429 . S
C3127 C3128 1.523 . S
C3128 C3112 1.368 . S
C3128 C3124 1.368 . S
C3128 C3127 1.523 . S
H3129 C3104 0.950 . S
H3130 C3106 0.950 . S
H3131 C3107 0.949 . S
H3132 C3109 0.950 . S
H3133 C3111 0.950 . S
C3134 C3135 1.349 . S
C3134 C3136 1.327 . S
C3134 H3159 0.950 . S
C3135 C3134 1.349 . S
C3135 C3151 1.349 . S
C3136 C3134 1.327 . S
C3136 C3155 1.429 . S
C3136 H3160 0.950 . S
C3137 C3154 1.574 1_554 S
C3137 C3156 1.368 . S
C3137 H3161 0.949 . S
H3138 C3142 0.949 . S
C3139 C3140 1.349 . S
C3139 C3141 1.327 . S
C3139 H3162 0.950 . S
C3140 C3139 1.349 . S
C3140 C3152 1.349 . S
C3141 C3139 1.327 . S
C3141 C3157 1.429 . S
C3141 H3163 0.950 . S
C3142 H3138 0.949 . S
C3142 C3150 1.574 1_556 S
C3142 C3158 1.368 . S
H3143 C3151 0.950 . S
H3144 C3149 0.950 . S
H3145 C3150 0.949 . S
H3146 C3152 0.950 . S
H3147 C3153 0.950 . S
H3148 C3154 0.949 . S
C3149 H3144 0.950 . S
C3149 C3151 1.327 . S
C3149 C3155 1.429 . S
C3150 C3142 1.574 1_554 S
C3150 H3145 0.949 . S
C3150 C3156 1.368 . S
C3151 C3135 1.349 . S
C3151 H3143 0.950 . S
C3151 C3149 1.327 . S
C3152 C3140 1.349 . S
C3152 H3146 0.950 . S
C3152 C3153 1.327 . S
C3153 H3147 0.950 . S
C3153 C3152 1.327 . S
C3153 C3157 1.429 . S
C3154 C3137 1.574 1_556 S
C3154 H3148 0.949 . S
C3154 C3158 1.368 . S
C3155 C3136 1.429 . S
C3155 C3149 1.429 . S
C3155 C3156 1.523 . S
C3156 C3137 1.368 . S
C3156 C3150 1.368 . S
C3156 C3155 1.523 . S
C3157 C3141 1.429 . S
C3157 C3153 1.429 . S
C3157 C3158 1.523 . S
C3158 C3142 1.368 . S
C3158 C3154 1.368 . S
C3158 C3157 1.523 . S
H3159 C3134 0.950 . S
H3160 C3136 0.950 . S
H3161 C3137 0.949 . S
H3162 C3139 0.950 . S
H3163 C3141 0.950 . S
C3164 C3165 1.349 . S
C3164 C3166 1.327 . S
C3164 H3189 0.950 . S
C3165 C3164 1.349 . S
C3165 C3181 1.349 . S
C3166 C3164 1.327 . S
C3166 C3185 1.429 . S
C3166 H3190 0.950 . S
C3167 C3184 1.574 1_556 S
C3167 C3186 1.368 . S
C3167 H3191 0.949 . S
H3168 C3172 0.949 . S
C3169 C3170 1.349 . S
C3169 C3171 1.327 . S
C3169 H3192 0.950 . S
C3170 C3169 1.349 . S
C3170 C3182 1.349 . S
C3171 C3169 1.327 . S
C3171 C3187 1.429 . S
C3171 H3193 0.950 . S
C3172 H3168 0.949 . S
C3172 C3180 1.574 1_554 S
C3172 C3188 1.368 . S
H3173 C3181 0.950 . S
H3174 C3179 0.950 . S
H3175 C3180 0.949 . S
H3176 C3182 0.950 . S
H3177 C3183 0.950 . S
H3178 C3184 0.949 . S
C3179 H3174 0.950 . S
C3179 C3181 1.327 . S
C3179 C3185 1.429 . S
C3180 C3172 1.574 1_556 S
C3180 H3175 0.949 . S
C3180 C3186 1.368 . S
C3181 C3165 1.349 . S
C3181 H3173 0.950 . S
C3181 C3179 1.327 . S
C3182 C3170 1.349 . S
C3182 H3176 0.950 . S
C3182 C3183 1.327 . S
C3183 H3177 0.950 . S
C3183 C3182 1.327 . S
C3183 C3187 1.429 . S
C3184 C3167 1.574 1_554 S
C3184 H3178 0.949 . S
C3184 C3188 1.368 . S
C3185 C3166 1.429 . S
C3185 C3179 1.429 . S
C3185 C3186 1.523 . S
C3186 C3167 1.368 . S
C3186 C3180 1.368 . S
C3186 C3185 1.523 . S
C3187 C3171 1.429 . S
C3187 C3183 1.429 . S
C3187 C3188 1.523 . S
C3188 C3172 1.368 . S
C3188 C3184 1.368 . S
C3188 C3187 1.523 . S
H3189 C3164 0.950 . S
H3190 C3166 0.950 . S
H3191 C3167 0.949 . S
H3192 C3169 0.950 . S
H3193 C3171 0.950 . S
C3194 C3195 1.349 . S
C3194 C3196 1.327 . S
C3194 H3219 0.950 . S
C3195 C3194 1.349 . S
C3195 C3211 1.349 . S
C3196 C3194 1.327 . S
C3196 C3215 1.429 . S
C3196 H3220 0.950 . S
C3197 C3214 1.574 1_556 S
C3197 C3216 1.368 . S
C3197 H3221 0.949 . S
H3198 C3202 0.949 . S
C3199 C3200 1.349 . S
C3199 C3201 1.327 . S
C3199 H3222 0.950 . S
C3200 C3199 1.349 . S
C3200 C3212 1.349 . S
C3201 C3199 1.327 . S
C3201 C3217 1.429 . S
C3201 H3223 0.950 . S
C3202 H3198 0.949 . S
C3202 C3210 1.574 1_554 S
C3202 C3218 1.368 . S
H3203 C3211 0.950 . S
H3204 C3209 0.950 . S
H3205 C3210 0.949 . S
H3206 C3212 0.950 . S
H3207 C3213 0.950 . S
H3208 C3214 0.949 . S
C3209 H3204 0.950 . S
C3209 C3211 1.327 . S
C3209 C3215 1.429 . S
C3210 C3202 1.574 1_556 S
C3210 H3205 0.949 . S
C3210 C3216 1.368 . S
C3211 C3195 1.349 . S
C3211 H3203 0.950 . S
C3211 C3209 1.327 . S
C3212 C3200 1.349 . S
C3212 H3206 0.950 . S
C3212 C3213 1.327 . S
C3213 H3207 0.950 . S
C3213 C3212 1.327 . S
C3213 C3217 1.429 . S
C3214 C3197 1.574 1_554 S
C3214 H3208 0.949 . S
C3214 C3218 1.368 . S
C3215 C3196 1.429 . S
C3215 C3209 1.429 . S
C3215 C3216 1.523 . S
C3216 C3197 1.368 . S
C3216 C3210 1.368 . S
C3216 C3215 1.523 . S
C3217 C3201 1.429 . S
C3217 C3213 1.429 . S
C3217 C3218 1.523 . S
C3218 C3202 1.368 . S
C3218 C3214 1.368 . S
C3218 C3217 1.523 . S
H3219 C3194 0.950 . S
H3220 C3196 0.950 . S
H3221 C3197 0.949 . S
H3222 C3199 0.950 . S
H3223 C3201 0.950 . S
C3224 C3225 1.349 . S
C3224 C3226 1.327 . S
C3224 H3249 0.950 . S
C3225 C3224 1.349 . S
C3225 C3241 1.349 . S
C3226 C3224 1.327 . S
C3226 C3245 1.429 . S
C3226 H3250 0.950 . S
C3227 C3244 1.574 . S
C3227 C3246 1.368 . S
C3227 H3251 0.949 . S
H3228 C3232 0.949 . S
C3229 C3230 1.349 . S
C3229 C3231 1.327 . S
C3229 H3252 0.950 . S
C3230 C3229 1.349 . S
C3230 C3242 1.349 . S
C3231 C3229 1.327 . S
C3231 C3247 1.429 . S
C3231 H3253 0.950 . S
C3232 H3228 0.949 . S
C3232 C3240 1.574 . S
C3232 C3248 1.368 . S
H3233 C3241 0.950 . S
H3234 C3239 0.950 . S
H3235 C3240 0.949 . S
H3236 C3242 0.950 . S
H3237 C3243 0.950 . S
H3238 C3244 0.949 . S
C3239 H3234 0.950 . S
C3239 C3241 1.327 . S
C3239 C3245 1.429 . S
C3240 C3232 1.574 . S
C3240 H3235 0.949 . S
C3240 C3246 1.368 . S
C3241 C3225 1.349 . S
C3241 H3233 0.950 . S
C3241 C3239 1.327 . S
C3242 C3230 1.349 . S
C3242 H3236 0.950 . S
C3242 C3243 1.327 . S
C3243 H3237 0.950 . S
C3243 C3242 1.327 . S
C3243 C3247 1.429 . S
C3244 C3227 1.574 . S
C3244 H3238 0.949 . S
C3244 C3248 1.368 . S
C3245 C3226 1.429 . S
C3245 C3239 1.429 . S
C3245 C3246 1.523 . S
C3246 C3227 1.368 . S
C3246 C3240 1.368 . S
C3246 C3245 1.523 . S
C3247 C3231 1.429 . S
C3247 C3243 1.429 . S
C3247 C3248 1.523 . S
C3248 C3232 1.368 . S
C3248 C3244 1.368 . S
C3248 C3247 1.523 . S
H3249 C3224 0.950 . S
H3250 C3226 0.950 . S
H3251 C3227 0.949 . S
H3252 C3229 0.950 . S
H3253 C3231 0.950 . S
C3254 C3255 1.349 . S
C3254 C3256 1.327 . S
C3254 H3279 0.950 . S
C3255 C3254 1.349 . S
C3255 C3271 1.349 . S
C3256 C3254 1.327 . S
C3256 C3275 1.429 . S
C3256 H3280 0.950 . S
C3257 C3274 1.574 . S
C3257 C3276 1.368 . S
C3257 H3281 0.949 . S
H3258 C3262 0.949 . S
C3259 C3260 1.349 . S
C3259 C3261 1.327 . S
C3259 H3282 0.950 . S
C3260 C3259 1.349 . S
C3260 C3272 1.349 . S
C3261 C3259 1.327 . S
C3261 C3277 1.429 . S
C3261 H3283 0.950 . S
C3262 H3258 0.949 . S
C3262 C3270 1.574 . S
C3262 C3278 1.368 . S
H3263 C3271 0.950 . S
H3264 C3269 0.950 . S
H3265 C3270 0.949 . S
H3266 C3272 0.950 . S
H3267 C3273 0.950 . S
H3268 C3274 0.949 . S
C3269 H3264 0.950 . S
C3269 C3271 1.327 . S
C3269 C3275 1.429 . S
C3270 C3262 1.574 . S
C3270 H3265 0.949 . S
C3270 C3276 1.368 . S
C3271 C3255 1.349 . S
C3271 H3263 0.950 . S
C3271 C3269 1.327 . S
C3272 C3260 1.349 . S
C3272 H3266 0.950 . S
C3272 C3273 1.327 . S
C3273 H3267 0.950 . S
C3273 C3272 1.327 . S
C3273 C3277 1.429 . S
C3274 C3257 1.574 . S
C3274 H3268 0.949 . S
C3274 C3278 1.368 . S
C3275 C3256 1.429 . S
C3275 C3269 1.429 . S
C3275 C3276 1.523 . S
C3276 C3257 1.368 . S
C3276 C3270 1.368 . S
C3276 C3275 1.523 . S
C3277 C3261 1.429 . S
C3277 C3273 1.429 . S
C3277 C3278 1.523 . S
C3278 C3262 1.368 . S
C3278 C3274 1.368 . S
C3278 C3277 1.523 . S
H3279 C3254 0.950 . S
H3280 C3256 0.950 . S
H3281 C3257 0.949 . S
H3282 C3259 0.950 . S
H3283 C3261 0.950 . S
C3284 C3285 1.349 . S
C3284 C3286 1.327 . S
C3284 H3309 0.950 . S
C3285 C3284 1.349 . S
C3285 C3301 1.349 . S
C3286 C3284 1.327 . S
C3286 C3305 1.429 . S
C3286 H3310 0.950 . S
C3287 C3304 1.574 . S
C3287 C3306 1.368 . S
C3287 H3311 0.949 . S
H3288 C3292 0.949 . S
C3289 C3290 1.349 . S
C3289 C3291 1.327 . S
C3289 H3312 0.950 . S
C3290 C3289 1.349 . S
C3290 C3302 1.349 . S
C3291 C3289 1.327 . S
C3291 C3307 1.429 . S
C3291 H3313 0.950 . S
C3292 H3288 0.949 . S
C3292 C3300 1.574 . S
C3292 C3308 1.368 . S
H3293 C3301 0.950 . S
H3294 C3299 0.950 . S
H3295 C3300 0.949 . S
H3296 C3302 0.950 . S
H3297 C3303 0.950 . S
H3298 C3304 0.949 . S
C3299 H3294 0.950 . S
C3299 C3301 1.327 . S
C3299 C3305 1.429 . S
C3300 C3292 1.574 . S
C3300 H3295 0.949 . S
C3300 C3306 1.368 . S
C3301 C3285 1.349 . S
C3301 H3293 0.950 . S
C3301 C3299 1.327 . S
C3302 C3290 1.349 . S
C3302 H3296 0.950 . S
C3302 C3303 1.327 . S
C3303 H3297 0.950 . S
C3303 C3302 1.327 . S
C3303 C3307 1.429 . S
C3304 C3287 1.574 . S
C3304 H3298 0.949 . S
C3304 C3308 1.368 . S
C3305 C3286 1.429 . S
C3305 C3299 1.429 . S
C3305 C3306 1.523 . S
C3306 C3287 1.368 . S
C3306 C3300 1.368 . S
C3306 C3305 1.523 . S
C3307 C3291 1.429 . S
C3307 C3303 1.429 . S
C3307 C3308 1.523 . S
C3308 C3292 1.368 . S
C3308 C3304 1.368 . S
C3308 C3307 1.523 . S
H3309 C3284 0.950 . S
H3310 C3286 0.950 . S
H3311 C3287 0.949 . S
H3312 C3289 0.950 . S
H3313 C3291 0.950 . S
C3314 C3315 1.349 . S
C3314 C3316 1.327 . S
C3314 H3339 0.950 . S
C3315 C3314 1.349 . S
C3315 C3331 1.349 . S
C3316 C3314 1.327 . S
C3316 C3335 1.429 . S
C3316 H3340 0.950 . S
C3317 C3334 1.574 . S
C3317 C3336 1.368 . S
C3317 H3341 0.949 . S
H3318 C3322 0.949 . S
C3319 C3320 1.349 . S
C3319 C3321 1.327 . S
C3319 H3342 0.950 . S
C3320 C3319 1.349 . S
C3320 C3332 1.349 . S
C3321 C3319 1.327 . S
C3321 C3337 1.429 . S
C3321 H3343 0.950 . S
C3322 H3318 0.949 . S
C3322 C3330 1.574 . S
C3322 C3338 1.368 . S
H3323 C3331 0.950 . S
H3324 C3329 0.950 . S
H3325 C3330 0.949 . S
H3326 C3332 0.950 . S
H3327 C3333 0.950 . S
H3328 C3334 0.949 . S
C3329 H3324 0.950 . S
C3329 C3331 1.327 . S
C3329 C3335 1.429 . S
C3330 C3322 1.574 . S
C3330 H3325 0.949 . S
C3330 C3336 1.368 . S
C3331 C3315 1.349 . S
C3331 H3323 0.950 . S
C3331 C3329 1.327 . S
C3332 C3320 1.349 . S
C3332 H3326 0.950 . S
C3332 C3333 1.327 . S
C3333 H3327 0.950 . S
C3333 C3332 1.327 . S
C3333 C3337 1.429 . S
C3334 C3317 1.574 . S
C3334 H3328 0.949 . S
C3334 C3338 1.368 . S
C3335 C3316 1.429 . S
C3335 C3329 1.429 . S
C3335 C3336 1.523 . S
C3336 C3317 1.368 . S
C3336 C3330 1.368 . S
C3336 C3335 1.523 . S
C3337 C3321 1.429 . S
C3337 C3333 1.429 . S
C3337 C3338 1.523 . S
C3338 C3322 1.368 . S
C3338 C3334 1.368 . S
C3338 C3337 1.523 . S
H3339 C3314 0.950 . S
H3340 C3316 0.950 . S
H3341 C3317 0.949 . S
H3342 C3319 0.950 . S
H3343 C3321 0.950 . S
C3344 C3345 1.349 . S
C3344 C3346 1.327 . S
C3344 H3369 0.950 . S
C3345 C3344 1.349 . S
C3345 C3361 1.349 . S
C3346 C3344 1.327 . S
C3346 C3365 1.429 . S
C3346 H3370 0.950 . S
C3347 C3364 1.574 . S
C3347 C3366 1.368 . S
C3347 H3371 0.949 . S
H3348 C3352 0.949 . S
C3349 C3350 1.349 . S
C3349 C3351 1.327 . S
C3349 H3372 0.950 . S
C3350 C3349 1.349 . S
C3350 C3362 1.349 . S
C3351 C3349 1.327 . S
C3351 C3367 1.429 . S
C3351 H3373 0.950 . S
C3352 H3348 0.949 . S
C3352 C3360 1.574 . S
C3352 C3368 1.368 . S
H3353 C3361 0.950 . S
H3354 C3359 0.950 . S
H3355 C3360 0.949 . S
H3356 C3362 0.950 . S
H3357 C3363 0.950 . S
H3358 C3364 0.949 . S
C3359 H3354 0.950 . S
C3359 C3361 1.327 . S
C3359 C3365 1.429 . S
C3360 C3352 1.574 . S
C3360 H3355 0.949 . S
C3360 C3366 1.368 . S
C3361 C3345 1.349 . S
C3361 H3353 0.950 . S
C3361 C3359 1.327 . S
C3362 C3350 1.349 . S
C3362 H3356 0.950 . S
C3362 C3363 1.327 . S
C3363 H3357 0.950 . S
C3363 C3362 1.327 . S
C3363 C3367 1.429 . S
C3364 C3347 1.574 . S
C3364 H3358 0.949 . S
C3364 C3368 1.368 . S
C3365 C3346 1.429 . S
C3365 C3359 1.429 . S
C3365 C3366 1.523 . S
C3366 C3347 1.368 . S
C3366 C3360 1.368 . S
C3366 C3365 1.523 . S
C3367 C3351 1.429 . S
C3367 C3363 1.429 . S
C3367 C3368 1.523 . S
C3368 C3352 1.368 . S
C3368 C3364 1.368 . S
C3368 C3367 1.523 . S
H3369 C3344 0.950 . S
H3370 C3346 0.950 . S
H3371 C3347 0.949 . S
H3372 C3349 0.950 . S
H3373 C3351 0.950 . S
C3374 C3375 1.349 . S
C3374 C3376 1.327 . S
C3374 H3399 0.950 . S
C3375 C3374 1.349 . S
C3375 C3391 1.349 . S
C3376 C3374 1.327 . S
C3376 C3395 1.429 . S
C3376 H3400 0.950 . S
C3377 C3394 1.574 . S
C3377 C3396 1.368 . S
C3377 H3401 0.949 . S
H3378 C3382 0.949 . S
C3379 C3380 1.349 . S
C3379 C3381 1.327 . S
C3379 H3402 0.950 . S
C3380 C3379 1.349 . S
C3380 C3392 1.349 . S
C3381 C3379 1.327 . S
C3381 C3397 1.429 . S
C3381 H3403 0.950 . S
C3382 H3378 0.949 . S
C3382 C3390 1.574 . S
C3382 C3398 1.368 . S
H3383 C3391 0.950 . S
H3384 C3389 0.950 . S
H3385 C3390 0.949 . S
H3386 C3392 0.950 . S
H3387 C3393 0.950 . S
H3388 C3394 0.949 . S
C3389 H3384 0.950 . S
C3389 C3391 1.327 . S
C3389 C3395 1.429 . S
C3390 C3382 1.574 . S
C3390 H3385 0.949 . S
C3390 C3396 1.368 . S
C3391 C3375 1.349 . S
C3391 H3383 0.950 . S
C3391 C3389 1.327 . S
C3392 C3380 1.349 . S
C3392 H3386 0.950 . S
C3392 C3393 1.327 . S
C3393 H3387 0.950 . S
C3393 C3392 1.327 . S
C3393 C3397 1.429 . S
C3394 C3377 1.574 . S
C3394 H3388 0.949 . S
C3394 C3398 1.368 . S
C3395 C3376 1.429 . S
C3395 C3389 1.429 . S
C3395 C3396 1.523 . S
C3396 C3377 1.368 . S
C3396 C3390 1.368 . S
C3396 C3395 1.523 . S
C3397 C3381 1.429 . S
C3397 C3393 1.429 . S
C3397 C3398 1.523 . S
C3398 C3382 1.368 . S
C3398 C3394 1.368 . S
C3398 C3397 1.523 . S
H3399 C3374 0.950 . S
H3400 C3376 0.950 . S
H3401 C3377 0.949 . S
H3402 C3379 0.950 . S
H3403 C3381 0.950 . S
C3404 C3405 1.349 . S
C3404 C3406 1.327 . S
C3404 H3429 0.950 . S
C3405 C3404 1.349 . S
C3405 C3421 1.349 . S
C3406 C3404 1.327 . S
C3406 C3425 1.429 . S
C3406 H3430 0.950 . S
C3407 C3424 1.574 . S
C3407 C3426 1.368 . S
C3407 H3431 0.949 . S
H3408 C3412 0.949 . S
C3409 C3410 1.349 . S
C3409 C3411 1.327 . S
C3409 H3432 0.950 . S
C3410 C3409 1.349 . S
C3410 C3422 1.349 . S
C3411 C3409 1.327 . S
C3411 C3427 1.429 . S
C3411 H3433 0.950 . S
C3412 H3408 0.949 . S
C3412 C3420 1.574 . S
C3412 C3428 1.368 . S
H3413 C3421 0.950 . S
H3414 C3419 0.950 . S
H3415 C3420 0.949 . S
H3416 C3422 0.950 . S
H3417 C3423 0.950 . S
H3418 C3424 0.949 . S
C3419 H3414 0.950 . S
C3419 C3421 1.327 . S
C3419 C3425 1.429 . S
C3420 C3412 1.574 . S
C3420 H3415 0.949 . S
C3420 C3426 1.368 . S
C3421 C3405 1.349 . S
C3421 H3413 0.950 . S
C3421 C3419 1.327 . S
C3422 C3410 1.349 . S
C3422 H3416 0.950 . S
C3422 C3423 1.327 . S
C3423 H3417 0.950 . S
C3423 C3422 1.327 . S
C3423 C3427 1.429 . S
C3424 C3407 1.574 . S
C3424 H3418 0.949 . S
C3424 C3428 1.368 . S
C3425 C3406 1.429 . S
C3425 C3419 1.429 . S
C3425 C3426 1.523 . S
C3426 C3407 1.368 . S
C3426 C3420 1.368 . S
C3426 C3425 1.523 . S
C3427 C3411 1.429 . S
C3427 C3423 1.429 . S
C3427 C3428 1.523 . S
C3428 C3412 1.368 . S
C3428 C3424 1.368 . S
C3428 C3427 1.523 . S
H3429 C3404 0.950 . S
H3430 C3406 0.950 . S
H3431 C3407 0.949 . S
H3432 C3409 0.950 . S
H3433 C3411 0.950 . S
C3434 C3435 1.349 . S
C3434 C3436 1.327 . S
C3434 H3459 0.950 . S
C3435 C3434 1.349 . S
C3435 C3451 1.349 . S
C3436 C3434 1.327 . S
C3436 C3455 1.429 . S
C3436 H3460 0.950 . S
C3437 C3454 1.574 . S
C3437 C3456 1.368 . S
C3437 H3461 0.949 . S
H3438 C3442 0.949 . S
C3439 C3440 1.349 . S
C3439 C3441 1.327 . S
C3439 H3462 0.950 . S
C3440 C3439 1.349 . S
C3440 C3452 1.349 . S
C3441 C3439 1.327 . S
C3441 C3457 1.429 . S
C3441 H3463 0.950 . S
C3442 H3438 0.949 . S
C3442 C3450 1.574 . S
C3442 C3458 1.368 . S
H3443 C3451 0.950 . S
H3444 C3449 0.950 . S
H3445 C3450 0.949 . S
H3446 C3452 0.950 . S
H3447 C3453 0.950 . S
H3448 C3454 0.949 . S
C3449 H3444 0.950 . S
C3449 C3451 1.327 . S
C3449 C3455 1.429 . S
C3450 C3442 1.574 . S
C3450 H3445 0.949 . S
C3450 C3456 1.368 . S
C3451 C3435 1.349 . S
C3451 H3443 0.950 . S
C3451 C3449 1.327 . S
C3452 C3440 1.349 . S
C3452 H3446 0.950 . S
C3452 C3453 1.327 . S
C3453 H3447 0.950 . S
C3453 C3452 1.327 . S
C3453 C3457 1.429 . S
C3454 C3437 1.574 . S
C3454 H3448 0.949 . S
C3454 C3458 1.368 . S
C3455 C3436 1.429 . S
C3455 C3449 1.429 . S
C3455 C3456 1.523 . S
C3456 C3437 1.368 . S
C3456 C3450 1.368 . S
C3456 C3455 1.523 . S
C3457 C3441 1.429 . S
C3457 C3453 1.429 . S
C3457 C3458 1.523 . S
C3458 C3442 1.368 . S
C3458 C3454 1.368 . S
C3458 C3457 1.523 . S
H3459 C3434 0.950 . S
H3460 C3436 0.950 . S
H3461 C3437 0.949 . S
H3462 C3439 0.950 . S
H3463 C3441 0.950 . S
C3464 C3465 1.349 . S
C3464 C3466 1.327 . S
C3464 H3489 0.950 . S
C3465 C3464 1.349 . S
C3465 C3481 1.349 . S
C3466 C3464 1.327 . S
C3466 C3485 1.429 . S
C3466 H3490 0.950 . S
C3467 C3484 1.574 1_554 S
C3467 C3486 1.368 . S
C3467 H3491 0.949 . S
H3468 C3472 0.949 . S
C3469 C3470 1.349 . S
C3469 C3471 1.327 . S
C3469 H3492 0.950 . S
C3470 C3469 1.349 . S
C3470 C3482 1.349 . S
C3471 C3469 1.327 . S
C3471 C3487 1.429 . S
C3471 H3493 0.950 . S
C3472 H3468 0.949 . S
C3472 C3480 1.574 1_556 S
C3472 C3488 1.368 . S
H3473 C3481 0.950 . S
H3474 C3479 0.950 . S
H3475 C3480 0.949 . S
H3476 C3482 0.950 . S
H3477 C3483 0.950 . S
H3478 C3484 0.949 . S
C3479 H3474 0.950 . S
C3479 C3481 1.327 . S
C3479 C3485 1.429 . S
C3480 C3472 1.574 1_554 S
C3480 H3475 0.949 . S
C3480 C3486 1.368 . S
C3481 C3465 1.349 . S
C3481 H3473 0.950 . S
C3481 C3479 1.327 . S
C3482 C3470 1.349 . S
C3482 H3476 0.950 . S
C3482 C3483 1.327 . S
C3483 H3477 0.950 . S
C3483 C3482 1.327 . S
C3483 C3487 1.429 . S
C3484 C3467 1.574 1_556 S
C3484 H3478 0.949 . S
C3484 C3488 1.368 . S
C3485 C3466 1.429 . S
C3485 C3479 1.429 . S
C3485 C3486 1.523 . S
C3486 C3467 1.368 . S
C3486 C3480 1.368 . S
C3486 C3485 1.523 . S
C3487 C3471 1.429 . S
C3487 C3483 1.429 . S
C3487 C3488 1.523 . S
C3488 C3472 1.368 . S
C3488 C3484 1.368 . S
C3488 C3487 1.523 . S
H3489 C3464 0.950 . S
H3490 C3466 0.950 . S
H3491 C3467 0.949 . S
H3492 C3469 0.950 . S
H3493 C3471 0.950 . S
C3494 C3495 1.349 . S
C3494 C3496 1.327 . S
C3494 H3519 0.950 . S
C3495 C3494 1.349 . S
C3495 C3511 1.349 . S
C3496 C3494 1.327 . S
C3496 C3515 1.429 . S
C3496 H3520 0.950 . S
C3497 C3514 1.574 1_556 S
C3497 C3516 1.368 . S
C3497 H3521 0.949 . S
H3498 C3502 0.949 . S
C3499 C3500 1.349 . S
C3499 C3501 1.327 . S
C3499 H3522 0.950 . S
C3500 C3499 1.349 . S
C3500 C3512 1.349 . S
C3501 C3499 1.327 . S
C3501 C3517 1.429 . S
C3501 H3523 0.950 . S
C3502 H3498 0.949 . S
C3502 C3510 1.574 1_554 S
C3502 C3518 1.368 . S
H3503 C3511 0.950 . S
H3504 C3509 0.950 . S
H3505 C3510 0.949 . S
H3506 C3512 0.950 . S
H3507 C3513 0.950 . S
H3508 C3514 0.949 . S
C3509 H3504 0.950 . S
C3509 C3511 1.327 . S
C3509 C3515 1.429 . S
C3510 C3502 1.574 1_556 S
C3510 H3505 0.949 . S
C3510 C3516 1.368 . S
C3511 C3495 1.349 . S
C3511 H3503 0.950 . S
C3511 C3509 1.327 . S
C3512 C3500 1.349 . S
C3512 H3506 0.950 . S
C3512 C3513 1.327 . S
C3513 H3507 0.950 . S
C3513 C3512 1.327 . S
C3513 C3517 1.429 . S
C3514 C3497 1.574 1_554 S
C3514 H3508 0.949 . S
C3514 C3518 1.368 . S
C3515 C3496 1.429 . S
C3515 C3509 1.429 . S
C3515 C3516 1.523 . S
C3516 C3497 1.368 . S
C3516 C3510 1.368 . S
C3516 C3515 1.523 . S
C3517 C3501 1.429 . S
C3517 C3513 1.429 . S
C3517 C3518 1.523 . S
C3518 C3502 1.368 . S
C3518 C3514 1.368 . S
C3518 C3517 1.523 . S
H3519 C3494 0.950 . S
H3520 C3496 0.950 . S
H3521 C3497 0.949 . S
H3522 C3499 0.950 . S
H3523 C3501 0.950 . S
C3524 C3525 1.349 . S
C3524 C3526 1.327 . S
C3524 H3549 0.950 . S
C3525 C3524 1.349 . S
C3525 C3541 1.349 . S
C3526 C3524 1.327 . S
C3526 C3545 1.429 . S
C3526 H3550 0.950 . S
C3527 C3544 1.574 1_556 S
C3527 C3546 1.368 . S
C3527 H3551 0.949 . S
H3528 C3532 0.949 . S
C3529 C3530 1.349 . S
C3529 C3531 1.327 . S
C3529 H3552 0.950 . S
C3530 C3529 1.349 . S
C3530 C3542 1.349 . S
C3531 C3529 1.327 . S
C3531 C3547 1.429 . S
C3531 H3553 0.950 . S
C3532 H3528 0.949 . S
C3532 C3540 1.574 1_554 S
C3532 C3548 1.368 . S
H3533 C3541 0.950 . S
H3534 C3539 0.950 . S
H3535 C3540 0.949 . S
H3536 C3542 0.950 . S
H3537 C3543 0.950 . S
H3538 C3544 0.949 . S
C3539 H3534 0.950 . S
C3539 C3541 1.327 . S
C3539 C3545 1.429 . S
C3540 C3532 1.574 1_556 S
C3540 H3535 0.949 . S
C3540 C3546 1.368 . S
C3541 C3525 1.349 . S
C3541 H3533 0.950 . S
C3541 C3539 1.327 . S
C3542 C3530 1.349 . S
C3542 H3536 0.950 . S
C3542 C3543 1.327 . S
C3543 H3537 0.950 . S
C3543 C3542 1.327 . S
C3543 C3547 1.429 . S
C3544 C3527 1.574 1_554 S
C3544 H3538 0.949 . S
C3544 C3548 1.368 . S
C3545 C3526 1.429 . S
C3545 C3539 1.429 . S
C3545 C3546 1.523 . S
C3546 C3527 1.368 . S
C3546 C3540 1.368 . S
C3546 C3545 1.523 . S
C3547 C3531 1.429 . S
C3547 C3543 1.429 . S
C3547 C3548 1.523 . S
C3548 C3532 1.368 . S
C3548 C3544 1.368 . S
C3548 C3547 1.523 . S
H3549 C3524 0.950 . S
H3550 C3526 0.950 . S
H3551 C3527 0.949 . S
H3552 C3529 0.950 . S
H3553 C3531 0.950 . S
C3554 C3555 1.349 . S
C3554 C3556 1.327 . S
C3554 H3579 0.950 . S
C3555 C3554 1.349 . S
C3555 C3571 1.349 . S
C3556 C3554 1.327 . S
C3556 C3575 1.429 . S
C3556 H3580 0.950 . S
C3557 C3574 1.574 1_554 S
C3557 C3576 1.368 . S
C3557 H3581 0.949 . S
H3558 C3562 0.949 . S
C3559 C3560 1.349 . S
C3559 C3561 1.327 . S
C3559 H3582 0.950 . S
C3560 C3559 1.349 . S
C3560 C3572 1.349 . S
C3561 C3559 1.327 . S
C3561 C3577 1.429 . S
C3561 H3583 0.950 . S
C3562 H3558 0.949 . S
C3562 C3570 1.574 1_556 S
C3562 C3578 1.368 . S
H3563 C3571 0.950 . S
H3564 C3569 0.950 . S
H3565 C3570 0.949 . S
H3566 C3572 0.950 . S
H3567 C3573 0.950 . S
H3568 C3574 0.949 . S
C3569 H3564 0.950 . S
C3569 C3571 1.327 . S
C3569 C3575 1.429 . S
C3570 C3562 1.574 1_554 S
C3570 H3565 0.949 . S
C3570 C3576 1.368 . S
C3571 C3555 1.349 . S
C3571 H3563 0.950 . S
C3571 C3569 1.327 . S
C3572 C3560 1.349 . S
C3572 H3566 0.950 . S
C3572 C3573 1.327 . S
C3573 H3567 0.950 . S
C3573 C3572 1.327 . S
C3573 C3577 1.429 . S
C3574 C3557 1.574 1_556 S
C3574 H3568 0.949 . S
C3574 C3578 1.368 . S
C3575 C3556 1.429 . S
C3575 C3569 1.429 . S
C3575 C3576 1.523 . S
C3576 C3557 1.368 . S
C3576 C3570 1.368 . S
C3576 C3575 1.523 . S
C3577 C3561 1.429 . S
C3577 C3573 1.429 . S
C3577 C3578 1.523 . S
C3578 C3562 1.368 . S
C3578 C3574 1.368 . S
C3578 C3577 1.523 . S
H3579 C3554 0.950 . S
H3580 C3556 0.950 . S
H3581 C3557 0.949 . S
H3582 C3559 0.950 . S
H3583 C3561 0.950 . S
C705 C118 0.999 . S
C710 C8 0.999 . S
C735 C136 0.999 . S
C740 C26 0.999 . S
C765 C52 0.999 . S
C770 C158 0.999 . S
C795 C92 0.999 . S
C800 C74 0.999 . S
C825 C180 0.999 . S
C830 C294 0.999 . S
C855 C316 0.999 . S
C860 C202 0.999 . S
C885 C334 0.999 . S
C890 C224 0.999 . S
C915 C250 0.999 . S
C920 C272 0.999 . S
C945 C360 0.999 . S
C950 C470 0.999 . S
C975 C488 0.999 . S
C980 C378 0.999 . S
C1005 C404 0.999 . S
C1010 C510 0.999 . S
C1035 C426 0.999 . S
C1040 C444 0.999 . S
C1065 C646 0.999 . S
C1070 C532 0.999 . S
C1095 C668 0.999 . S
C1100 C554 0.999 . S
C1125 C686 0.999 . S
C1130 C576 0.999 . S
C1155 C602 0.999 . S
C1160 C624 0.999 . S
C1185 C647 1.155 . S
C1190 C7 1.155 . S
C1215 C669 1.155 . S
C1220 C28 1.155 . S
C1245 C687 1.155 . S
C1250 C51 1.155 . S
C1275 C73 1.155 . S
C1280 C625 1.155 . S
C1305 C94 1.155 . S
C1310 C603 1.155 . S
C1335 C533 1.155 . S
C1340 C117 1.155 . S
C1365 C138 1.155 . S
C1370 C555 1.155 . S
C1395 C577 1.155 . S
C1400 C160 1.155 . S
C1425 C469 1.155 . S
C1430 C181 1.155 . S
C1455 C490 1.155 . S
C1460 C203 1.155 . S
C1485 C225 1.155 . S
C1490 C512 1.155 . S
C1515 C446 1.155 . S
C1520 C251 1.155 . S
C1545 C425 1.155 . S
C1550 C273 1.155 . S
C1575 C295 1.155 . S
C1580 C359 1.155 . S
C1605 C317 1.155 . S
C1610 C380 1.155 . S
C1635 C403 1.155 . S
C1640 C335 1.155 . S
C1665 C72 1.372 . S
C1670 C4 1.349 . S
C1695 C6 1.372 . S
C1700 C30 1.349 . S
C1725 C48 1.349 . S
C1730 C29 1.372 . S
C1755 C70 1.349 . S
C1760 C50 1.372 . S
C1785 C116 1.372 . S
C1790 C96 1.349 . S
C1815 C139 1.372 . S
C1820 C114 1.349 . S
C1845 C161 1.372 . S
C1850 C140 1.349 . S
C1875 C162 1.349 . S
C1880 C95 1.372 . S
C1905 C247 1.372 . S
C1910 C184 1.349 . S
C1935 C185 1.372 . S
C1940 C206 1.349 . S
C1965 C228 1.349 . S
C1970 C207 1.372 . S
C1995 C246 1.349 . S
C2000 C229 1.372 . S
C2025 C291 1.372 . S
C2030 C268 1.349 . S
C2055 C290 1.349 . S
C2060 C313 1.372 . S
C2085 C312 1.349 . S
C2090 C339 1.372 . S
C2115 C338 1.349 . S
C2120 C269 1.372 . S
C2145 C424 1.372 . S
C2150 C356 1.349 . S
C2175 C382 1.349 . S
C2180 C358 1.372 . S
C2205 C381 1.372 . S
C2210 C400 1.349 . S
C2235 C422 1.349 . S
C2240 C402 1.372 . S
C2265 C448 1.349 . S
C2270 C468 1.372 . S
C2295 C491 1.372 . S
C2300 C466 1.349 . S
C2325 C492 1.349 . S
C2330 C513 1.372 . S
C2355 C514 1.349 . S
C2360 C447 1.372 . S
C2385 C599 1.372 . S
C2390 C536 1.349 . S
C2415 C558 1.349 . S
C2420 C537 1.372 . S
C2445 C580 1.349 . S
C2450 C559 1.372 . S
C2475 C598 1.349 . S
C2480 C581 1.372 . S
C2505 C643 1.372 . S
C2510 C620 1.349 . S
C2535 C642 1.349 . S
C2540 C665 1.372 . S
C2565 C691 1.372 . S
C2570 C664 1.349 . S
C2595 C621 1.372 . S
C2600 C690 1.349 . S
C2625 C9 1.046 . S
C2630 C137 1.046 . S
C2655 C159 1.046 . S
C2660 C27 1.046 . S
C2685 C53 1.046 . S
C2690 C93 1.046 . S
C2715 C119 1.046 . S
C2720 C75 1.046 . S
C2745 C182 1.046 . S
C2750 C315 1.046 . S
C2775 C336 1.046 . S
C2780 C204 1.046 . S
C2805 C271 1.046 . S
C2810 C226 1.046 . S
C2835 C293 1.046 . S
C2840 C249 1.046 . S
C2865 C489 1.046 . S
C2870 C361 1.046 . S
C2895 C379 1.046 . S
C2900 C511 1.046 . S
C2925 C445 1.046 . S
C2930 C405 1.046 . S
C2955 C427 1.046 . S
C2960 C471 1.046 . S
C2985 C534 1.046 . S
C2990 C667 1.046 . S
C3015 C688 1.046 . S
C3020 C556 1.046 . S
C3045 C623 1.046 . S
C3050 C578 1.046 . S
C3075 C645 1.046 . S
C3080 C601 1.046 . S
C3105 C227 1.401 . S
C3110 C5 1.401 . S
C3135 C31 1.401 . S
C3140 C248 1.401 . S
C3165 C183 1.401 . S
C3170 C49 1.401 . S
C3195 C205 1.401 . S
C3200 C71 1.401 . S
C3225 C314 1.401 . S
C3230 C97 1.401 . S
C3255 C115 1.401 . S
C3260 C337 1.401 . S
C3285 C270 1.401 . S
C3290 C141 1.401 . S
C3315 C163 1.401 . S
C3320 C292 1.401 . S
C3345 C579 1.401 . S
C3350 C357 1.401 . S
C3375 C600 1.401 . S
C3380 C383 1.401 . S
C3405 C401 1.401 . S
C3410 C535 1.401 . S
C3435 C423 1.401 . S
C3440 C557 1.401 . S
C3465 C666 1.401 . S
C3470 C449 1.401 . S
C3495 C467 1.401 . S
C3500 C689 1.401 . S
C3525 C493 1.401 . S
C3530 C622 1.401 . S
C3555 C644 1.401 . S
C3560 C515 1.401 . S
