# Generated by pormake.
# Topology pcb, (4)-cn, num edge types: 1
# Building blocks:
#     Node 0, Type 0, BuildingBlock: KUFVIS_clean_sbu_0, # of connection points: 4
#     Node 1, Type 0, BuildingBlock: KUFVIS_clean_sbu_0, # of connection points: 4
#     Node 2, Type 0, BuildingBlock: KUFVIS_clean_sbu_0, # of connection points: 4
#     Node 3, Type 0, BuildingBlock: KUFVIS_clean_sbu_0, # of connection points: 4
#     Node 4, Type 0, BuildingBlock: KUFVIS_clean_sbu_0, # of connection points: 4
#     Node 5, Type 0, BuildingBlock: KUFVIS_clean_sbu_0, # of connection points: 4
#     Node 6, Type 0, BuildingBlock: KUFVIS_clean_sbu_0, # of connection points: 4
#     Node 7, Type 0, BuildingBlock: KUFVIS_clean_sbu_0, # of connection points: 4
#     Node 8, Type 0, BuildingBlock: KUFVIS_clean_sbu_0, # of connection points: 4
#     Node 9, Type 0, BuildingBlock: KUFVIS_clean_sbu_0, # of connection points: 4
#     Node 10, Type 0, BuildingBlock: KUFVIS_clean_sbu_0, # of connection points: 4
#     Node 11, Type 0, BuildingBlock: KUFVIS_clean_sbu_0, # of connection points: 4
#     Node 12, Type 0, BuildingBlock: KUFVIS_clean_sbu_0, # of connection points: 4
#     Node 13, Type 0, BuildingBlock: KUFVIS_clean_sbu_0, # of connection points: 4
#     Node 14, Type 0, BuildingBlock: KUFVIS_clean_sbu_0, # of connection points: 4
#     Node 15, Type 0, BuildingBlock: KUFVIS_clean_sbu_0, # of connection points: 4
#     Edge 16, Type (0, 0), BuildingBlock: UVAHIK_clean_linker_0, # of connection points: 2
#     Edge 17, Type (0, 0), BuildingBlock: UVAHIK_clean_linker_0, # of connection points: 2
#     Edge 18, Type (0, 0), BuildingBlock: UVAHIK_clean_linker_0, # of connection points: 2
#     Edge 19, Type (0, 0), BuildingBlock: UVAHIK_clean_linker_0, # of connection points: 2
#     Edge 20, Type (0, 0), BuildingBlock: UVAHIK_clean_linker_0, # of connection points: 2
#     Edge 21, Type (0, 0), BuildingBlock: UVAHIK_clean_linker_0, # of connection points: 2
#     Edge 22, Type (0, 0), BuildingBlock: UVAHIK_clean_linker_0, # of connection points: 2
#     Edge 23, Type (0, 0), BuildingBlock: UVAHIK_clean_linker_0, # of connection points: 2
#     Edge 24, Type (0, 0), BuildingBlock: UVAHIK_clean_linker_0, # of connection points: 2
#     Edge 25, Type (0, 0), BuildingBlock: UVAHIK_clean_linker_0, # of connection points: 2
#     Edge 26, Type (0, 0), BuildingBlock: UVAHIK_clean_linker_0, # of connection points: 2
#     Edge 27, Type (0, 0), BuildingBlock: UVAHIK_clean_linker_0, # of connection points: 2
#     Edge 28, Type (0, 0), BuildingBlock: UVAHIK_clean_linker_0, # of connection points: 2
#     Edge 29, Type (0, 0), BuildingBlock: UVAHIK_clean_linker_0, # of connection points: 2
#     Edge 30, Type (0, 0), BuildingBlock: UVAHIK_clean_linker_0, # of connection points: 2
#     Edge 31, Type (0, 0), BuildingBlock: UVAHIK_clean_linker_0, # of connection points: 2
#     Edge 32, Type (0, 0), BuildingBlock: UVAHIK_clean_linker_0, # of connection points: 2
#     Edge 33, Type (0, 0), BuildingBlock: UVAHIK_clean_linker_0, # of connection points: 2
#     Edge 34, Type (0, 0), BuildingBlock: UVAHIK_clean_linker_0, # of connection points: 2
#     Edge 35, Type (0, 0), BuildingBlock: UVAHIK_clean_linker_0, # of connection points: 2
#     Edge 36, Type (0, 0), BuildingBlock: UVAHIK_clean_linker_0, # of connection points: 2
#     Edge 37, Type (0, 0), BuildingBlock: UVAHIK_clean_linker_0, # of connection points: 2
#     Edge 38, Type (0, 0), BuildingBlock: UVAHIK_clean_linker_0, # of connection points: 2
#     Edge 39, Type (0, 0), BuildingBlock: UVAHIK_clean_linker_0, # of connection points: 2
#     Edge 40, Type (0, 0), BuildingBlock: UVAHIK_clean_linker_0, # of connection points: 2
#     Edge 41, Type (0, 0), BuildingBlock: UVAHIK_clean_linker_0, # of connection points: 2
#     Edge 42, Type (0, 0), BuildingBlock: UVAHIK_clean_linker_0, # of connection points: 2
#     Edge 43, Type (0, 0), BuildingBlock: UVAHIK_clean_linker_0, # of connection points: 2
#     Edge 44, Type (0, 0), BuildingBlock: UVAHIK_clean_linker_0, # of connection points: 2
#     Edge 45, Type (0, 0), BuildingBlock: UVAHIK_clean_linker_0, # of connection points: 2
#     Edge 46, Type (0, 0), BuildingBlock: UVAHIK_clean_linker_0, # of connection points: 2
#     Edge 47, Type (0, 0), BuildingBlock: UVAHIK_clean_linker_0, # of connection points: 2
# Relax obj value: 0.290
# Max RMSD: 0.148
# Mean RMSD: 0.148
data_MOF--net-pcb--node1-KUFVIS_clean_sbu_0--edge1-UVAHIK_clean_linker_0
_symmetry_space_group_name_H-M    P1
_symmetry_Int_Tables_number       1
_symmetry_cell_setting            triclinic
loop_
_symmetry_equiv_pos_as_xyz
'x, y, z'
_cell_length_a     50.219549
_cell_length_b     63.06454
_cell_length_c     63.07834
_cell_angle_alpha  90.027496
_cell_angle_beta   90.004661
_cell_angle_gamma 90.004585
loop_
_atom_site_label
_atom_site_type_symbol
_atom_site_fract_x
_atom_site_fract_y
_atom_site_fract_z
_atom_type_partial_charge
Mn0 Mn 0.1865 0.15464 0.1402 0.0
Mn1 Mn 0.15166 0.19296 0.11506 0.0
C2 C 0.14282 0.16126 0.14956 0.0
C3 C 0.20218 0.11999 0.14235 0.0
C4 C 0.19332 0.2021 0.14854 0.0
O5 O 0.20814 0.15982 0.11341 0.0
O6 O 0.1818 0.18369 0.09693 0.0
C7 C 0.13034 0.16722 0.07965 0.0
N8 N 0.12609 0.18013 0.09663 0.0
C9 C 0.07862 0.17857 0.09163 0.0
C10 C 0.0825 0.16536 0.07401 0.0
C11 C 0.10847 0.15962 0.06803 0.0
C12 C 0.10118 0.18564 0.1026 0.0
H13 H 0.15026 0.1627 0.07504 0.0
C14 C 0.2022 0.17152 0.09761 0.0
O15 O 0.21433 0.1355 0.1518 0.0
O16 O 0.18097 0.12461 0.13152 0.0
N17 N 0.12161 0.20315 0.13072 0.0
C18 C 0.12125 0.21544 0.1485 0.0
C19 C 0.09676 0.22241 0.15669 0.0
C20 C 0.07294 0.21681 0.14644 0.0
C21 C 0.07382 0.20431 0.12807 0.0
C22 C 0.09882 0.198 0.12053 0.0
H23 H 0.13948 0.21987 0.15641 0.0
O24 O 0.15864 0.15162 0.16268 0.0
O25 O 0.15297 0.16647 0.13136 0.0
O26 O 0.19849 0.18281 0.15291 0.0
O27 O 0.17693 0.20771 0.13411 0.0
C28 C 0.05086 0.1977 0.11705 0.0
C29 C 0.05325 0.18475 0.09891 0.0
H30 H 0.06568 0.15943 0.06503 0.0
H31 H 0.11162 0.14935 0.05451 0.0
H32 H 0.09624 0.23205 0.17088 0.0
H33 H 0.0541 0.22215 0.15287 0.0
H34 H 0.03125 0.2023 0.12252 0.0
H35 H 0.03544 0.17954 0.09074 0.0
Mn36 Mn 0.81491 0.13886 0.1537 0.0
Mn37 Mn 0.8459 0.11364 0.194 0.0
C38 C 0.85869 0.14682 0.16169 0.0
C39 C 0.80135 0.14011 0.11847 0.0
C40 C 0.80552 0.14875 0.20052 0.0
O41 O 0.79137 0.11309 0.15893 0.0
O42 O 0.81565 0.09614 0.18382 0.0
C43 C 0.8673 0.07692 0.17022 0.0
N44 N 0.87143 0.09413 0.18284 0.0
C45 C 0.91861 0.08755 0.18384 0.0
C46 C 0.91484 0.06967 0.17096 0.0
C47 C 0.88908 0.06438 0.16407 0.0
C48 C 0.89616 0.09947 0.18942 0.0
H49 H 0.84754 0.07281 0.16485 0.0
C50 C 0.79594 0.09726 0.17099 0.0
O51 O 0.78898 0.15076 0.13307 0.0
O52 O 0.82164 0.12876 0.1243 0.0
N53 N 0.8759 0.12872 0.20512 0.0
C54 C 0.87626 0.14685 0.21688 0.0
C55 C 0.9006 0.15452 0.22474 0.0
C56 C 0.92425 0.14338 0.2206 0.0
C57 C 0.92335 0.12462 0.20868 0.0
C58 C 0.8985 0.11768 0.20137 0.0
H59 H 0.85815 0.15544 0.22021 0.0
O60 O 0.8443 0.16015 0.151 0.0
O61 O 0.84712 0.12921 0.16709 0.0
O62 O 0.80205 0.153 0.18097 0.0
O63 O 0.82055 0.13378 0.20708 0.0
C64 C 0.94616 0.11266 0.2036 0.0
C65 C 0.9438 0.09417 0.19113 0.0
H66 H 0.93159 0.05998 0.16615 0.0
H67 H 0.88602 0.05066 0.15404 0.0
H68 H 0.90112 0.169 0.23395 0.0
H69 H 0.94301 0.14943 0.22656 0.0
H70 H 0.96565 0.11768 0.20896 0.0
H71 H 0.96153 0.08527 0.18708 0.0
Mn72 Mn 0.81422 0.84481 0.1379 0.0
Mn73 Mn 0.84827 0.80547 0.11361 0.0
C74 C 0.858 0.83822 0.14698 0.0
C75 C 0.79876 0.87956 0.13943 0.0
C76 C 0.80713 0.79766 0.14779 0.0
O77 O 0.7921 0.83898 0.1115 0.0
O78 O 0.81777 0.81425 0.0956 0.0
C79 C 0.86894 0.82991 0.07707 0.0
N80 N 0.87349 0.81757 0.09441 0.0
C81 C 0.92084 0.81875 0.08869 0.0
C82 C 0.91665 0.83136 0.07069 0.0
C83 C 0.89058 0.837 0.06489 0.0
C84 C 0.8985 0.81216 0.1002 0.0
H85 H 0.84894 0.83435 0.07259 0.0
C86 C 0.79755 0.82662 0.09607 0.0
O87 O 0.78669 0.86429 0.14931 0.0
O88 O 0.81977 0.87463 0.12847 0.0
N89 N 0.8786 0.79568 0.12916 0.0
C90 C 0.87929 0.78398 0.14731 0.0
C91 C 0.90391 0.77716 0.15536 0.0
C92 C 0.92753 0.78231 0.14461 0.0
C93 C 0.92632 0.79421 0.12587 0.0
C94 C 0.90119 0.8004 0.11849 0.0
H95 H 0.86121 0.77989 0.15561 0.0
O96 O 0.84248 0.84829 0.16001 0.0
O97 O 0.8475 0.83253 0.12904 0.0
O98 O 0.80215 0.81712 0.15149 0.0
O99 O 0.82333 0.79146 0.13347 0.0
C100 C 0.94906 0.80035 0.11432 0.0
C101 C 0.94634 0.8127 0.0958 0.0
H102 H 0.93329 0.8369 0.06128 0.0
H103 H 0.88719 0.84681 0.05108 0.0
H104 H 0.90469 0.76798 0.16984 0.0
H105 H 0.94648 0.77709 0.15093 0.0
H106 H 0.96877 0.79584 0.11965 0.0
H107 H 0.96399 0.81755 0.08721 0.0
Mn108 Mn 0.18634 0.86065 0.1527 0.0
Mn109 Mn 0.15393 0.88554 0.19254 0.0
C110 C 0.14238 0.85248 0.15984 0.0
C111 C 0.20099 0.85899 0.11773 0.0
C112 C 0.19415 0.8505 0.19969 0.0
O113 O 0.20944 0.8866 0.15832 0.0
O114 O 0.18465 0.90302 0.18327 0.0
C115 C 0.13362 0.9225 0.16854 0.0
N116 N 0.12893 0.90521 0.18092 0.0
C117 C 0.08177 0.91195 0.18086 0.0
C118 C 0.08611 0.9299 0.16822 0.0
C119 C 0.11214 0.93515 0.16198 0.0
C120 C 0.10394 0.89991 0.18686 0.0
H121 H 0.15359 0.92658 0.16368 0.0
C122 C 0.20463 0.90217 0.17067 0.0
O123 O 0.21305 0.84878 0.13277 0.0
O124 O 0.18045 0.87036 0.12301 0.0
N125 N 0.12345 0.8705 0.20284 0.0
C126 C 0.12257 0.85234 0.21453 0.0
C127 C 0.09793 0.84475 0.22181 0.0
C128 C 0.07449 0.85599 0.21718 0.0
C129 C 0.07593 0.87478 0.20537 0.0
C130 C 0.10106 0.88164 0.19863 0.0
H131 H 0.14052 0.84368 0.21823 0.0
O132 O 0.15724 0.83917 0.1495 0.0
O133 O 0.15362 0.87016 0.16546 0.0
O134 O 0.19852 0.84664 0.18018 0.0
O135 O 0.17866 0.86523 0.20611 0.0
C136 C 0.05339 0.88687 0.19985 0.0
C137 C 0.05629 0.9054 0.18754 0.0
H138 H 0.06959 0.93969 0.16311 0.0
H139 H 0.11564 0.94893 0.15215 0.0
H140 H 0.09699 0.83024 0.23094 0.0
H141 H 0.0555 0.85 0.22269 0.0
H142 H 0.03368 0.88191 0.20476 0.0
H143 H 0.03877 0.9144 0.18316 0.0
Mn144 Mn 0.1834 0.84338 0.85736 0.0
Mn145 Mn 0.15143 0.80423 0.88363 0.0
C146 C 0.13959 0.83552 0.84934 0.0
C147 C 0.19756 0.87841 0.85453 0.0
C148 C 0.19194 0.79609 0.84903 0.0
O149 O 0.20644 0.83899 0.88357 0.0
O150 O 0.18192 0.81446 0.90084 0.0
C151 C 0.1306 0.82945 0.91959 0.0
N152 N 0.12617 0.81636 0.90278 0.0
C153 C 0.07899 0.81619 0.90942 0.0
C154 C 0.08306 0.82955 0.92689 0.0
C155 C 0.10897 0.83627 0.93195 0.0
C156 C 0.1013 0.80996 0.89766 0.0
H157 H 0.15048 0.83468 0.92353 0.0
C158 C 0.20171 0.82721 0.89958 0.0
O159 O 0.20987 0.86314 0.84484 0.0
O160 O 0.17703 0.87334 0.86599 0.0
N161 N 0.12117 0.79309 0.8689 0.0
C162 C 0.12054 0.78078 0.85114 0.0
C163 C 0.09603 0.773 0.84374 0.0
C164 C 0.07249 0.77779 0.85477 0.0
C165 C 0.07368 0.79027 0.87315 0.0
C166 C 0.09868 0.79749 0.87982 0.0
H167 H 0.13857 0.77695 0.84265 0.0
O168 O 0.15436 0.84549 0.8357 0.0
O169 O 0.15083 0.83069 0.86723 0.0
O170 O 0.19606 0.81549 0.84444 0.0
O171 O 0.17645 0.79012 0.86392 0.0
C172 C 0.05101 0.79599 0.88499 0.0
C173 C 0.05365 0.809 0.90307 0.0
H174 H 0.06643 0.83486 0.93645 0.0
H175 H 0.11226 0.84667 0.94535 0.0
H176 H 0.09529 0.76336 0.82956 0.0
H177 H 0.0536 0.77189 0.84893 0.0
H178 H 0.0314 0.79069 0.88018 0.0
H179 H 0.03603 0.81352 0.91188 0.0
Mn180 Mn 0.18565 0.13954 0.84442 0.0
Mn181 Mn 0.15111 0.11607 0.80486 0.0
C182 C 0.14215 0.14941 0.83775 0.0
C183 C 0.20091 0.14072 0.87923 0.0
C184 C 0.19309 0.14968 0.79737 0.0
O185 O 0.20705 0.11276 0.83856 0.0
O186 O 0.18114 0.09754 0.81357 0.0
C187 C 0.12953 0.07966 0.82901 0.0
N188 N 0.12541 0.09716 0.81678 0.0
C189 C 0.07794 0.0921 0.81783 0.0
C190 C 0.08168 0.07395 0.83031 0.0
C191 C 0.10759 0.06775 0.83597 0.0
C192 C 0.10056 0.10335 0.81137 0.0
H193 H 0.14941 0.07486 0.83345 0.0
C194 C 0.20125 0.09752 0.82605 0.0
O195 O 0.21335 0.15042 0.86404 0.0
O196 O 0.17967 0.13009 0.87418 0.0
N197 N 0.12116 0.13213 0.79512 0.0
C198 C 0.12093 0.15036 0.78353 0.0
C199 C 0.09651 0.1588 0.77671 0.0
C200 C 0.07264 0.14835 0.78173 0.0
C201 C 0.07339 0.12952 0.79352 0.0
C202 C 0.09832 0.12176 0.79973 0.0
H203 H 0.13921 0.15843 0.77953 0.0
O204 O 0.15799 0.16212 0.84791 0.0
O205 O 0.15218 0.13131 0.83201 0.0
O206 O 0.19821 0.15307 0.81685 0.0
O207 O 0.17652 0.13569 0.79103 0.0
C208 C 0.05037 0.11824 0.79952 0.0
C209 C 0.05263 0.09961 0.81176 0.0
H210 H 0.06481 0.06474 0.83575 0.0
H211 H 0.11064 0.05382 0.84569 0.0
H212 H 0.0961 0.17334 0.7676 0.0
H213 H 0.05386 0.15496 0.77648 0.0
H214 H 0.03081 0.12386 0.79497 0.0
H215 H 0.03477 0.09123 0.81649 0.0
Mn216 Mn 0.81435 0.15406 0.85913 0.0
Mn217 Mn 0.84487 0.1949 0.8838 0.0
C218 C 0.85813 0.16209 0.8512 0.0
C219 C 0.80098 0.11877 0.8584 0.0
C220 C 0.8045 0.20057 0.84851 0.0
O221 O 0.79061 0.1597 0.8847 0.0
O222 O 0.81497 0.18457 0.90159 0.0
C223 C 0.86692 0.17194 0.92078 0.0
N224 N 0.87073 0.18431 0.90334 0.0
C225 C 0.91795 0.18584 0.90966 0.0
C226 C 0.91451 0.17323 0.92775 0.0
C227 C 0.88889 0.16619 0.93329 0.0
C228 C 0.89531 0.19104 0.89778 0.0
H229 H 0.84728 0.16645 0.92508 0.0
C230 C 0.7953 0.17166 0.90061 0.0
O231 O 0.78861 0.13316 0.84748 0.0
O232 O 0.82116 0.12485 0.86976 0.0
N233 N 0.87459 0.20609 0.86842 0.0
C234 C 0.87464 0.21753 0.85009 0.0
C235 C 0.89881 0.22547 0.84217 0.0
C236 C 0.92261 0.22172 0.85324 0.0
C237 C 0.92202 0.21011 0.87219 0.0
C238 C 0.89733 0.20271 0.87938 0.0
H239 H 0.85642 0.22055 0.84153 0.0
O240 O 0.84391 0.15106 0.83801 0.0
O241 O 0.8464 0.16775 0.86865 0.0
O242 O 0.80145 0.18094 0.84445 0.0
O243 O 0.81916 0.20747 0.86356 0.0
C244 C 0.94501 0.2054 0.8841 0.0
C245 C 0.94298 0.19323 0.90279 0.0
H246 H 0.93141 0.16873 0.93742 0.0
H247 H 0.8861 0.15637 0.94718 0.0
H248 H 0.89909 0.23442 0.82754 0.0
H249 H 0.94123 0.22772 0.847 0.0
H250 H 0.96439 0.21083 0.87888 0.0
H251 H 0.96084 0.18948 0.91165 0.0
Mn252 Mn 0.81186 0.85755 0.84301 0.0
Mn253 Mn 0.84569 0.88278 0.80422 0.0
C254 C 0.85533 0.84814 0.8356 0.0
C255 C 0.79708 0.8552 0.87787 0.0
C256 C 0.80346 0.84954 0.79571 0.0
O257 O 0.7902 0.88441 0.83833 0.0
O258 O 0.81609 0.90108 0.81431 0.0
C259 C 0.86824 0.91795 0.82963 0.0
N260 N 0.87188 0.90098 0.81659 0.0
C261 C 0.91944 0.90559 0.81727 0.0
C262 C 0.91618 0.92321 0.83059 0.0
C263 C 0.89047 0.92937 0.83684 0.0
C264 C 0.89653 0.89484 0.81057 0.0
H265 H 0.84852 0.92271 0.83455 0.0
C266 C 0.79604 0.90043 0.82687 0.0
O267 O 0.7845 0.84589 0.86251 0.0
O268 O 0.81822 0.86602 0.873 0.0
N269 N 0.87523 0.86694 0.79336 0.0
C270 C 0.87502 0.84911 0.78113 0.0
C271 C 0.8992 0.84068 0.77379 0.0
C272 C 0.92331 0.85072 0.77897 0.0
C273 C 0.92302 0.86914 0.79142 0.0
C274 C 0.8983 0.87691 0.79813 0.0
H275 H 0.85656 0.84135 0.77705 0.0
O276 O 0.83974 0.83498 0.84541 0.0
O277 O 0.84506 0.86638 0.83065 0.0
O278 O 0.79901 0.84506 0.81507 0.0
O279 O 0.81971 0.86397 0.78984 0.0
C280 C 0.94631 0.87994 0.79764 0.0
C281 C 0.94452 0.8981 0.81063 0.0
H282 H 0.93329 0.93202 0.83625 0.0
H283 H 0.88781 0.94289 0.84721 0.0
H284 H 0.89926 0.82646 0.76419 0.0
H285 H 0.94192 0.84408 0.77338 0.0
H286 H 0.96571 0.87429 0.79272 0.0
H287 H 0.96259 0.90609 0.81555 0.0
Mn288 Mn 0.68546 0.65353 0.63999 0.0
Mn289 Mn 0.6495 0.69151 0.61532 0.0
C290 C 0.64194 0.65984 0.65004 0.0
C291 C 0.70159 0.61902 0.64213 0.0
C292 C 0.69186 0.70107 0.64811 0.0
O293 O 0.70633 0.65876 0.61281 0.0
O294 O 0.67934 0.68246 0.59677 0.0
C295 C 0.6277 0.66544 0.58033 0.0
N296 N 0.62368 0.6784 0.59731 0.0
C297 C 0.57613 0.67644 0.59302 0.0
C298 C 0.57976 0.66319 0.5754 0.0
C299 C 0.60566 0.65762 0.56907 0.0
C300 C 0.59884 0.68373 0.60363 0.0
H301 H 0.64756 0.66106 0.57545 0.0
C302 C 0.69989 0.67044 0.59711 0.0
O303 O 0.7138 0.63468 0.65126 0.0
O304 O 0.68008 0.6234 0.63157 0.0
N305 N 0.61969 0.7015 0.63139 0.0
C306 C 0.61959 0.71386 0.64912 0.0
C307 C 0.59522 0.72071 0.65761 0.0
C308 C 0.57124 0.71492 0.64772 0.0
C309 C 0.57184 0.70231 0.62941 0.0
C310 C 0.59674 0.69614 0.62155 0.0
H311 H 0.63795 0.71847 0.65674 0.0
O312 O 0.65822 0.6504 0.66294 0.0
O313 O 0.65156 0.66506 0.63165 0.0
O314 O 0.69742 0.68184 0.65239 0.0
O315 O 0.67501 0.70653 0.63395 0.0
C316 C 0.54872 0.69548 0.61876 0.0
C317 C 0.55085 0.68246 0.60064 0.0
H318 H 0.56282 0.65708 0.5667 0.0
H319 H 0.60862 0.64732 0.55555 0.0
H320 H 0.59491 0.73043 0.67175 0.0
H321 H 0.55249 0.72018 0.65437 0.0
H322 H 0.52918 0.69995 0.62449 0.0
H323 H 0.53292 0.67707 0.59276 0.0
Mn324 Mn 0.31428 0.63901 0.65456 0.0
Mn325 Mn 0.34454 0.61216 0.69414 0.0
C326 C 0.35797 0.6465 0.6633 0.0
C327 C 0.30106 0.64226 0.61937 0.0
C328 C 0.30421 0.64707 0.70165 0.0
O329 O 0.29067 0.61304 0.65839 0.0
O330 O 0.31437 0.59517 0.68297 0.0
C331 C 0.36605 0.57625 0.66919 0.0
N332 N 0.37012 0.59298 0.68248 0.0
C333 C 0.41724 0.58617 0.68362 0.0
C334 C 0.41354 0.5688 0.67006 0.0
C335 C 0.38784 0.56386 0.66277 0.0
C336 C 0.39478 0.59796 0.68946 0.0
H337 H 0.34635 0.57241 0.66351 0.0
C338 C 0.29499 0.59671 0.66984 0.0
O339 O 0.28855 0.65195 0.63452 0.0
O340 O 0.32129 0.63054 0.62464 0.0
N341 N 0.37449 0.62668 0.70608 0.0
C342 C 0.37481 0.64439 0.71848 0.0
C343 C 0.39909 0.65168 0.72679 0.0
C344 C 0.42273 0.6406 0.72244 0.0
C345 C 0.42187 0.62229 0.70985 0.0
C346 C 0.39707 0.61571 0.7021 0.0
H347 H 0.35671 0.65294 0.72196 0.0
O348 O 0.34375 0.66037 0.65314 0.0
O349 O 0.34627 0.62871 0.66781 0.0
O350 O 0.30102 0.65187 0.68222 0.0
O351 O 0.31914 0.63191 0.70787 0.0
C352 C 0.44467 0.61043 0.7045 0.0
C353 C 0.44237 0.59242 0.69135 0.0
H354 H 0.4303 0.55922 0.66504 0.0
H355 H 0.38484 0.55053 0.65222 0.0
H356 H 0.39959 0.66582 0.73651 0.0
H357 H 0.44145 0.64636 0.72875 0.0
H358 H 0.46413 0.61518 0.7102 0.0
H359 H 0.4601 0.5836 0.68712 0.0
Mn360 Mn 0.31406 0.34428 0.63752 0.0
Mn361 Mn 0.34572 0.3036 0.61346 0.0
C362 C 0.35794 0.33696 0.64575 0.0
C363 C 0.29999 0.37942 0.63776 0.0
C364 C 0.30524 0.29769 0.6486 0.0
O365 O 0.29067 0.33805 0.6119 0.0
O366 O 0.31545 0.31303 0.59558 0.0
C367 C 0.36708 0.32649 0.57619 0.0
N368 N 0.37125 0.31442 0.59378 0.0
C369 C 0.4185 0.31369 0.58747 0.0
C370 C 0.41469 0.326 0.56922 0.0
C371 C 0.38887 0.33248 0.56359 0.0
C372 C 0.39603 0.30823 0.59942 0.0
H373 H 0.34727 0.33154 0.57183 0.0
C374 C 0.29549 0.32565 0.59637 0.0
O375 O 0.2878 0.36501 0.64878 0.0
O376 O 0.32039 0.37345 0.6266 0.0
N377 N 0.37575 0.29317 0.62898 0.0
C378 C 0.37613 0.28195 0.64744 0.0
C379 C 0.40051 0.27456 0.65545 0.0
C380 C 0.4242 0.27862 0.64433 0.0
C381 C 0.42328 0.28997 0.62525 0.0
C382 C 0.39839 0.29683 0.61797 0.0
H383 H 0.35799 0.2787 0.65602 0.0
O384 O 0.34335 0.34791 0.65876 0.0
O385 O 0.34649 0.33094 0.6283 0.0
O386 O 0.30157 0.31732 0.6524 0.0
O387 O 0.32037 0.29087 0.63381 0.0
C388 C 0.44612 0.29495 0.61328 0.0
C389 C 0.44374 0.30686 0.59444 0.0
H390 H 0.43145 0.33069 0.55949 0.0
H391 H 0.38578 0.34206 0.54958 0.0
H392 H 0.40105 0.26579 0.67019 0.0
H393 H 0.44299 0.27303 0.65065 0.0
H394 H 0.46566 0.28995 0.61856 0.0
H395 H 0.46149 0.31083 0.58552 0.0
Mn396 Mn 0.68578 0.36003 0.65235 0.0
Mn397 Mn 0.65282 0.38343 0.69276 0.0
C398 C 0.64208 0.35095 0.65928 0.0
C399 C 0.70022 0.35999 0.61731 0.0
C400 C 0.69392 0.34881 0.69902 0.0
O401 O 0.70837 0.38604 0.65878 0.0
O402 O 0.68306 0.40167 0.68389 0.0
C403 C 0.6315 0.42061 0.66969 0.0
N404 N 0.62728 0.40294 0.68163 0.0
C405 C 0.57991 0.40869 0.68144 0.0
C406 C 0.58376 0.42703 0.66926 0.0
C407 C 0.60967 0.43298 0.66332 0.0
C408 C 0.60243 0.397 0.68733 0.0
H409 H 0.65136 0.42521 0.66502 0.0
C410 C 0.70314 0.40132 0.67137 0.0
O411 O 0.71259 0.34922 0.63181 0.0
O412 O 0.67949 0.37083 0.62315 0.0
N413 N 0.62277 0.36761 0.70269 0.0
C414 C 0.62239 0.34914 0.71388 0.0
C415 C 0.59795 0.34086 0.72084 0.0
C416 C 0.57419 0.35173 0.71638 0.0
C417 C 0.57509 0.37082 0.70502 0.0
C418 C 0.60006 0.37839 0.69864 0.0
H419 H 0.64058 0.34074 0.71744 0.0
O420 O 0.65723 0.33824 0.64848 0.0
O421 O 0.65287 0.36865 0.66538 0.0
O422 O 0.6983 0.34535 0.67942 0.0
O423 O 0.67814 0.36321 0.70575 0.0
C424 C 0.55219 0.38254 0.6996 0.0
C425 C 0.55459 0.4014 0.68773 0.0
H426 H 0.56697 0.43658 0.66427 0.0
H427 H 0.61279 0.44705 0.65384 0.0
H428 H 0.59741 0.32612 0.72961 0.0
H429 H 0.55538 0.34523 0.72169 0.0
H430 H 0.53261 0.37708 0.70429 0.0
H431 H 0.53681 0.41011 0.68343 0.0
Mn432 Mn 0.68365 0.34414 0.35766 0.0
Mn433 Mn 0.65291 0.30438 0.3839 0.0
C434 C 0.63986 0.33583 0.35 0.0
C435 C 0.69738 0.37927 0.35504 0.0
C436 C 0.6932 0.29711 0.3489 0.0
O437 O 0.7072 0.3397 0.38357 0.0
O438 O 0.68311 0.31515 0.40114 0.0
C439 C 0.63147 0.32894 0.4201 0.0
N440 N 0.62736 0.31591 0.40318 0.0
C441 C 0.58021 0.31488 0.40989 0.0
C442 C 0.58396 0.32818 0.42746 0.0
C443 C 0.6097 0.33529 0.43254 0.0
C444 C 0.60266 0.30912 0.39805 0.0
H445 H 0.65121 0.33447 0.42406 0.0
C446 C 0.70268 0.32812 0.39977 0.0
O447 O 0.70967 0.36417 0.34508 0.0
O448 O 0.67703 0.37398 0.36662 0.0
N449 N 0.62292 0.29281 0.36914 0.0
C450 C 0.62257 0.28066 0.35127 0.0
C451 C 0.59825 0.27256 0.34382 0.0
C452 C 0.57461 0.27686 0.35491 0.0
C453 C 0.57551 0.28919 0.3734 0.0
C454 C 0.60034 0.29674 0.38013 0.0
H455 H 0.64067 0.27721 0.34271 0.0
O456 O 0.65421 0.34614 0.33632 0.0
O457 O 0.65148 0.33097 0.36773 0.0
O458 O 0.69656 0.31659 0.34435 0.0
O459 O 0.67827 0.29078 0.36403 0.0
C460 C 0.55271 0.29446 0.3853 0.0
C461 C 0.55505 0.30734 0.40349 0.0
H462 H 0.56721 0.33313 0.43707 0.0
H463 H 0.61273 0.34563 0.44602 0.0
H464 H 0.59773 0.26304 0.32955 0.0
H465 H 0.55587 0.27071 0.34904 0.0
H466 H 0.53323 0.28891 0.38044 0.0
H467 H 0.53733 0.31152 0.41234 0.0
Mn468 Mn 0.68556 0.63976 0.34265 0.0
Mn469 Mn 0.65325 0.61488 0.30276 0.0
C470 C 0.64188 0.64837 0.33501 0.0
C471 C 0.69963 0.64156 0.37776 0.0
C472 C 0.69433 0.64928 0.29565 0.0
O473 O 0.70821 0.61347 0.33753 0.0
O474 O 0.68344 0.59709 0.31253 0.0
C475 C 0.63179 0.57841 0.32688 0.0
N476 N 0.62766 0.59566 0.31432 0.0
C477 C 0.58036 0.58956 0.31399 0.0
C478 C 0.58413 0.57165 0.32681 0.0
C479 C 0.60995 0.5661 0.33334 0.0
C480 C 0.60288 0.60124 0.30809 0.0
H481 H 0.6516 0.5741 0.33196 0.0
C482 C 0.70323 0.59782 0.32531 0.0
O483 O 0.71215 0.65151 0.36278 0.0
O484 O 0.67898 0.63039 0.37234 0.0
N485 N 0.62326 0.63024 0.29205 0.0
C486 C 0.62294 0.64835 0.28026 0.0
C487 C 0.59856 0.65625 0.27274 0.0
C488 C 0.57482 0.64536 0.27723 0.0
C489 C 0.57568 0.62662 0.28916 0.0
C490 C 0.60057 0.61945 0.29615 0.0
H491 H 0.64112 0.65674 0.27667 0.0
O492 O 0.65682 0.66162 0.34534 0.0
O493 O 0.65288 0.63053 0.32967 0.0
O494 O 0.69846 0.65333 0.31516 0.0
O495 O 0.67862 0.6347 0.28924 0.0
C496 C 0.5528 0.61489 0.29457 0.0
C497 C 0.55513 0.59641 0.30703 0.0
H498 H 0.56733 0.56213 0.33185 0.0
H499 H 0.61301 0.55236 0.34332 0.0
H500 H 0.59806 0.67071 0.26352 0.0
H501 H 0.55603 0.65158 0.27152 0.0
H502 H 0.53327 0.62009 0.28946 0.0
H503 H 0.53735 0.58768 0.31131 0.0
Mn504 Mn 0.31442 0.65504 0.35882 0.0
Mn505 Mn 0.34749 0.6955 0.38207 0.0
C506 C 0.35786 0.66231 0.34926 0.0
C507 C 0.30033 0.61992 0.3586 0.0
C508 C 0.3056 0.70176 0.34807 0.0
O509 O 0.29237 0.66109 0.38521 0.0
O510 O 0.31773 0.68631 0.40062 0.0
C511 C 0.36976 0.67228 0.4188 0.0
N512 N 0.37353 0.68436 0.40116 0.0
C513 C 0.42102 0.68432 0.40627 0.0
C514 C 0.41763 0.672 0.42457 0.0
C515 C 0.3919 0.66591 0.43083 0.0
C516 C 0.39821 0.69021 0.39493 0.0
H517 H 0.35003 0.66749 0.42364 0.0
C518 C 0.29782 0.67361 0.40051 0.0
O519 O 0.28759 0.63445 0.34816 0.0
O520 O 0.32121 0.62577 0.36924 0.0
N521 N 0.37715 0.70566 0.36593 0.0
C522 C 0.37707 0.71693 0.34749 0.0
C523 C 0.4013 0.72401 0.33892 0.0
C524 C 0.42531 0.71957 0.34944 0.0
C525 C 0.42488 0.70813 0.36849 0.0
C526 C 0.40011 0.70164 0.37637 0.0
H527 H 0.35868 0.72045 0.33936 0.0
O528 O 0.34255 0.65156 0.33663 0.0
O529 O 0.34736 0.6682 0.36713 0.0
O530 O 0.30131 0.68215 0.34458 0.0
O531 O 0.32165 0.7085 0.36227 0.0
C532 C 0.44806 0.70272 0.37985 0.0
C533 C 0.44614 0.69074 0.39867 0.0
H534 H 0.43466 0.667 0.43385 0.0
H535 H 0.38913 0.65631 0.44487 0.0
H536 H 0.40147 0.73284 0.32421 0.0
H537 H 0.44396 0.72495 0.3427 0.0
H538 H 0.46749 0.7075 0.37414 0.0
H539 H 0.46413 0.68644 0.40711 0.0
Mn540 Mn 0.31223 0.35824 0.3442 0.0
Mn541 Mn 0.34687 0.38318 0.30567 0.0
C542 C 0.35568 0.34847 0.33715 0.0
C543 C 0.29689 0.35597 0.37891 0.0
C544 C 0.30439 0.35024 0.29683 0.0
O545 O 0.29097 0.38527 0.33933 0.0
O546 O 0.31735 0.40171 0.3155 0.0
C547 C 0.36948 0.41818 0.33131 0.0
N548 N 0.3731 0.40119 0.31827 0.0
C549 C 0.42069 0.40549 0.31931 0.0
C550 C 0.41747 0.42312 0.33262 0.0
C551 C 0.39175 0.42945 0.33869 0.0
C552 C 0.39776 0.39489 0.31244 0.0
H553 H 0.34976 0.42306 0.33608 0.0
C554 C 0.29713 0.40123 0.32789 0.0
O555 O 0.28443 0.34678 0.3634 0.0
O556 O 0.31824 0.36663 0.37426 0.0
N557 N 0.37637 0.36714 0.29506 0.0
C558 C 0.37611 0.34935 0.28278 0.0
C559 C 0.40028 0.3408 0.27556 0.0
C560 C 0.42443 0.35068 0.28091 0.0
C561 C 0.4242 0.36906 0.29342 0.0
C562 C 0.39948 0.37697 0.3 0.0
H563 H 0.35762 0.34171 0.27854 0.0
O564 O 0.33978 0.33545 0.34684 0.0
O565 O 0.34572 0.36679 0.33212 0.0
O566 O 0.29961 0.34584 0.31615 0.0
O567 O 0.32088 0.36455 0.29107 0.0
C568 C 0.44752 0.37972 0.2998 0.0
C569 C 0.44578 0.39786 0.31282 0.0
H570 H 0.4346 0.43181 0.3384 0.0
H571 H 0.3891 0.44297 0.34905 0.0
H572 H 0.40031 0.3266 0.26591 0.0
H573 H 0.44304 0.34396 0.2754 0.0
H574 H 0.46692 0.37397 0.29498 0.0
H575 H 0.46387 0.40574 0.31787 0.0
C576 C 0.27916 0.31791 0.28585 0.0
C577 C 0.29104 0.33731 0.28034 0.0
C578 C 0.2676 0.30505 0.27041 0.0
C579 C 0.26677 0.29524 0.21238 0.0
H580 H 0.20628 0.26012 0.22751 0.0
C581 C 0.20732 0.23986 0.15466 0.0
C582 C 0.20564 0.21877 0.16181 0.0
C583 C 0.2176 0.25572 0.16787 0.0
C584 C 0.22316 0.26987 0.2231 0.0
H585 H 0.2997 0.35857 0.25422 0.0
H586 H 0.27863 0.33641 0.22725 0.0
H587 H 0.22303 0.28608 0.25279 0.0
H588 H 0.21349 0.19781 0.18838 0.0
H589 H 0.23078 0.22559 0.2115 0.0
H590 H 0.26624 0.27906 0.1824 0.0
C591 C 0.27883 0.3309 0.24351 0.0
C592 C 0.23291 0.28465 0.2376 0.0
C593 C 0.29077 0.34369 0.25899 0.0
C594 C 0.21466 0.21386 0.18233 0.0
C595 C 0.2244 0.22975 0.19562 0.0
C596 C 0.25665 0.28066 0.19771 0.0
C597 C 0.26721 0.31135 0.24902 0.0
C598 C 0.25527 0.29718 0.23266 0.0
C599 C 0.22579 0.25081 0.18857 0.0
C600 C 0.23515 0.26755 0.20316 0.0
H601 H 0.2793 0.31233 0.30209 0.0
H602 H 0.25951 0.2899 0.27526 0.0
H603 H 0.28415 0.30442 0.20806 0.0
H604 H 0.20057 0.24413 0.13892 0.0
H605 H 0.21849 0.2719 0.16215 0.0
C606 C 0.70809 0.25975 0.34151 0.0
C607 C 0.7063 0.28109 0.33524 0.0
C608 C 0.71969 0.24466 0.3281 0.0
C609 C 0.76243 0.24004 0.2799 0.0
H610 H 0.73195 0.18364 0.27641 0.0
C611 C 0.78403 0.18303 0.21084 0.0
C612 C 0.79267 0.16259 0.21648 0.0
C613 C 0.7737 0.19675 0.22614 0.0
C614 C 0.74073 0.1993 0.27737 0.0
H615 H 0.71501 0.30322 0.30982 0.0
H616 H 0.7343 0.27701 0.28634 0.0
H617 H 0.71395 0.20913 0.30184 0.0
H618 H 0.79646 0.14031 0.24252 0.0
H619 H 0.77773 0.16425 0.2692 0.0
H620 H 0.78852 0.23036 0.25485 0.0
C621 C 0.72759 0.27191 0.30184 0.0
C622 C 0.73057 0.21389 0.292 0.0
C623 C 0.71635 0.28698 0.31531 0.0
C624 C 0.79003 0.15598 0.23768 0.0
C625 C 0.77926 0.16961 0.25293 0.0
C626 C 0.77227 0.22559 0.26509 0.0
C627 C 0.72947 0.25053 0.30802 0.0
C628 C 0.74113 0.23453 0.29332 0.0
C629 C 0.77139 0.19022 0.24734 0.0
C630 C 0.76139 0.20516 0.26358 0.0
H631 H 0.70059 0.25469 0.35679 0.0
H632 H 0.72111 0.22842 0.33354 0.0
H633 H 0.77156 0.25557 0.28079 0.0
H634 H 0.78588 0.18868 0.19469 0.0
H635 H 0.76755 0.21252 0.22142 0.0
C636 C 0.79313 0.76016 0.15533 0.0
C637 C 0.79429 0.78157 0.16147 0.0
C638 C 0.78152 0.74502 0.16866 0.0
C639 C 0.73771 0.74027 0.21624 0.0
H640 H 0.76857 0.68403 0.22015 0.0
C641 C 0.71618 0.68336 0.28529 0.0
C642 C 0.7072 0.66302 0.27963 0.0
C643 C 0.72657 0.69702 0.26999 0.0
C644 C 0.75969 0.69965 0.21907 0.0
H645 H 0.78458 0.80379 0.18658 0.0
H646 H 0.76534 0.77748 0.21 0.0
H647 H 0.78692 0.7096 0.19498 0.0
H648 H 0.70283 0.64083 0.25355 0.0
H649 H 0.72175 0.66468 0.22684 0.0
H650 H 0.71122 0.73048 0.24098 0.0
C651 C 0.77248 0.77235 0.19463 0.0
C652 C 0.77005 0.71428 0.20458 0.0
C653 C 0.7837 0.78748 0.18122 0.0
C654 C 0.70953 0.65642 0.2584 0.0
C655 C 0.72041 0.67 0.24314 0.0
C656 C 0.72769 0.72579 0.23093 0.0
C657 C 0.77115 0.75091 0.18855 0.0
C658 C 0.75934 0.73487 0.20312 0.0
C659 C 0.72862 0.69052 0.24878 0.0
C660 C 0.73871 0.70542 0.23258 0.0
H661 H 0.80104 0.75511 0.14018 0.0
H662 H 0.78052 0.72874 0.16328 0.0
H663 H 0.72845 0.75574 0.21523 0.0
H664 H 0.71455 0.68898 0.30147 0.0
H665 H 0.73298 0.71273 0.27473 0.0
C666 C 0.29036 0.73888 0.34039 0.0
C667 C 0.29224 0.7175 0.33428 0.0
C668 C 0.27869 0.75382 0.32689 0.0
C669 C 0.23637 0.75823 0.2784 0.0
H670 H 0.2664 0.81483 0.27564 0.0
C671 C 0.21538 0.8161 0.20984 0.0
C672 C 0.2065 0.83642 0.21568 0.0
C673 C 0.22542 0.80217 0.22506 0.0
C674 C 0.25773 0.79912 0.27639 0.0
H675 H 0.28356 0.69508 0.30912 0.0
H676 H 0.26418 0.7211 0.28537 0.0
H677 H 0.28443 0.78922 0.30085 0.0
H678 H 0.20186 0.85825 0.24202 0.0
H679 H 0.22014 0.83396 0.26859 0.0
H680 H 0.2104 0.76802 0.2533 0.0
C681 C 0.27086 0.72634 0.30083 0.0
C682 C 0.26792 0.78445 0.2909 0.0
C683 C 0.28213 0.71138 0.31444 0.0
C684 C 0.2085 0.84269 0.23703 0.0
C685 C 0.21901 0.82885 0.25221 0.0
C686 C 0.22652 0.77277 0.26368 0.0
C687 C 0.269 0.74778 0.30683 0.0
C688 C 0.25748 0.76375 0.29202 0.0
C689 C 0.22721 0.80838 0.24638 0.0
C690 C 0.2372 0.7933 0.26247 0.0
H691 H 0.29784 0.74409 0.35563 0.0
H692 H 0.27721 0.77009 0.33225 0.0
H693 H 0.22735 0.74265 0.27909 0.0
H694 H 0.214 0.81071 0.19357 0.0
H695 H 0.23183 0.78651 0.22016 0.0
C696 C 0.28054 0.68037 0.712 0.0
C697 C 0.29087 0.66049 0.71776 0.0
C698 C 0.26902 0.69361 0.72715 0.0
C699 C 0.26575 0.7031 0.78517 0.0
H700 H 0.20763 0.74005 0.76861 0.0
C701 C 0.20645 0.75852 0.84247 0.0
C702 C 0.2045 0.77967 0.83555 0.0
C703 C 0.21695 0.74289 0.82912 0.0
C704 C 0.22389 0.72984 0.77341 0.0
H705 H 0.2968 0.63878 0.744 0.0
H706 H 0.27581 0.66164 0.7704 0.0
H707 H 0.22463 0.71404 0.74349 0.0
H708 H 0.21219 0.80097 0.80922 0.0
H709 H 0.22998 0.77361 0.78588 0.0
H710 H 0.26438 0.71885 0.81534 0.0
C711 C 0.27721 0.66721 0.75421 0.0
C712 C 0.23376 0.715 0.75901 0.0
C713 C 0.28908 0.65403 0.73905 0.0
C714 C 0.21352 0.78487 0.8151 0.0
C715 C 0.22354 0.76921 0.80167 0.0
C716 C 0.25554 0.71776 0.79971 0.0
C717 C 0.26714 0.68723 0.74846 0.0
C718 C 0.25521 0.70172 0.76452 0.0
C719 C 0.22517 0.74807 0.80849 0.0
C720 C 0.23487 0.73151 0.79379 0.0
H721 H 0.28186 0.68601 0.69581 0.0
H722 H 0.26211 0.70908 0.72215 0.0
H723 H 0.28245 0.69334 0.78992 0.0
H724 H 0.19971 0.75402 0.85815 0.0
H725 H 0.21798 0.72666 0.83469 0.0
C726 C 0.21697 0.18304 0.78758 0.0
C727 C 0.20604 0.16347 0.78142 0.0
C728 C 0.22801 0.19669 0.77256 0.0
C729 C 0.22913 0.20765 0.71464 0.0
H730 H 0.28864 0.24355 0.73045 0.0
C731 C 0.28917 0.26079 0.65618 0.0
C732 C 0.29238 0.28198 0.66268 0.0
C733 C 0.27824 0.24577 0.66996 0.0
C734 C 0.27195 0.23366 0.72588 0.0
H735 H 0.19858 0.14272 0.75466 0.0
H736 H 0.21882 0.16619 0.72849 0.0
H737 H 0.27166 0.21764 0.75567 0.0
H738 H 0.28656 0.304 0.68873 0.0
H739 H 0.26799 0.27762 0.71289 0.0
H740 H 0.23016 0.2235 0.68454 0.0
C741 C 0.2182 0.17127 0.74488 0.0
C742 C 0.26209 0.21887 0.74034 0.0
C743 C 0.20676 0.15772 0.7599 0.0
C744 C 0.28424 0.28784 0.68319 0.0
C745 C 0.27377 0.27275 0.69707 0.0
C746 C 0.23933 0.22223 0.70004 0.0
C747 C 0.22882 0.19101 0.751 0.0
C748 C 0.24029 0.20587 0.73505 0.0
C749 C 0.27081 0.25158 0.69061 0.0
C750 C 0.26058 0.23554 0.70565 0.0
H751 H 0.21644 0.18811 0.80398 0.0
H752 H 0.23538 0.21192 0.77789 0.0
H753 H 0.2121 0.19818 0.71006 0.0
H754 H 0.29521 0.2558 0.64046 0.0
H755 H 0.27621 0.2295 0.66467 0.0
C756 C 0.78863 0.23747 0.84046 0.0
C757 C 0.79148 0.21616 0.83434 0.0
C758 C 0.77734 0.25227 0.82661 0.0
C759 C 0.73753 0.25616 0.77677 0.0
H760 H 0.7659 0.31335 0.77534 0.0
C761 C 0.71613 0.31461 0.70869 0.0
C762 C 0.70665 0.33469 0.71479 0.0
C763 C 0.72643 0.30063 0.72376 0.0
C764 C 0.75771 0.29746 0.77569 0.0
H765 H 0.7849 0.19374 0.80876 0.0
H766 H 0.76616 0.21952 0.78446 0.0
H767 H 0.78358 0.28787 0.80084 0.0
H768 H 0.70126 0.35604 0.74144 0.0
H769 H 0.7199 0.33168 0.76772 0.0
H770 H 0.71233 0.26568 0.75108 0.0
C771 C 0.7718 0.2248 0.80017 0.0
C772 C 0.76769 0.28287 0.79037 0.0
C773 C 0.78271 0.20998 0.8141 0.0
C774 C 0.70835 0.34068 0.73623 0.0
C775 C 0.71909 0.3268 0.75126 0.0
C776 C 0.72789 0.27064 0.76191 0.0
C777 C 0.76898 0.24617 0.80619 0.0
C778 C 0.7578 0.26198 0.79106 0.0
C779 C 0.72786 0.30655 0.74519 0.0
C780 C 0.73794 0.29139 0.76119 0.0
H781 H 0.79509 0.24273 0.85598 0.0
H782 H 0.77509 0.26848 0.83197 0.0
H783 H 0.72895 0.24041 0.7771 0.0
H784 H 0.715 0.30946 0.69233 0.0
H785 H 0.73328 0.28515 0.71867 0.0
C786 C 0.77847 0.81705 0.78484 0.0
C787 C 0.79001 0.83657 0.77931 0.0
C788 C 0.76681 0.80419 0.76945 0.0
C789 C 0.7651 0.79471 0.71138 0.0
H790 H 0.70534 0.75899 0.72697 0.0
C791 C 0.7053 0.73898 0.65415 0.0
C792 C 0.70422 0.71784 0.66123 0.0
C793 C 0.71558 0.75492 0.66727 0.0
C794 C 0.722 0.76892 0.72243 0.0
H795 H 0.79794 0.85805 0.75322 0.0
H796 H 0.77669 0.83588 0.72636 0.0
H797 H 0.72217 0.78497 0.7522 0.0
H798 H 0.71316 0.69687 0.68757 0.0
H799 H 0.73044 0.72477 0.71054 0.0
H800 H 0.76428 0.77867 0.68133 0.0
C801 C 0.77724 0.83028 0.74258 0.0
C802 C 0.7318 0.78371 0.7369 0.0
C803 C 0.78928 0.84307 0.758 0.0
C804 C 0.71385 0.71295 0.68157 0.0
C805 C 0.72359 0.72891 0.69479 0.0
C806 C 0.75492 0.78012 0.69674 0.0
C807 C 0.76596 0.8106 0.7481 0.0
C808 C 0.75392 0.79644 0.7318 0.0
C809 C 0.72436 0.75001 0.68781 0.0
C810 C 0.73369 0.7668 0.70236 0.0
H811 H 0.77897 0.81139 0.80105 0.0
H812 H 0.75898 0.78895 0.7743 0.0
H813 H 0.78229 0.80405 0.70693 0.0
H814 H 0.69806 0.74323 0.63854 0.0
H815 H 0.71599 0.77113 0.66162 0.0
C816 C 0.20121 0.12807 0.91685 0.0
C817 C 0.2099 0.14257 0.90143 0.0
C818 C 0.20844 0.13073 0.9381 0.0
C819 C 0.21926 0.17163 0.97574 0.0
H820 H 0.25199 0.12927 0.01183 0.0
C821 C 0.22266 0.18613 0.06479 0.0
C822 C 0.21679 0.1686 0.07762 0.0
C823 C 0.23007 0.18324 0.04364 0.0
C824 C 0.24259 0.14123 0.00208 0.0
H825 H 0.23336 0.17094 0.89601 0.0
H826 H 0.24509 0.17599 0.93332 0.0
H827 H 0.24785 0.12271 0.97377 0.0
H828 H 0.21529 0.13435 0.07896 0.0
H829 H 0.22661 0.12919 0.04191 0.0
H830 H 0.21185 0.18952 0.00368 0.0
C831 C 0.23313 0.16241 0.92885 0.0
C832 C 0.24043 0.13748 0.98027 0.0
C833 C 0.22641 0.15949 0.90755 0.0
C834 C 0.22009 0.14811 0.06941 0.0
C835 C 0.22665 0.1452 0.04807 0.0
C836 C 0.22078 0.17517 0.99753 0.0
C837 C 0.22399 0.14817 0.94429 0.0
C838 C 0.2285 0.15258 0.967 0.0
C839 C 0.23066 0.16278 0.03463 0.0
C840 C 0.23216 0.15992 0.01113 0.0
H841 H 0.18856 0.11484 0.91253 0.0
H842 H 0.20098 0.11967 0.94982 0.0
H843 H 0.20971 0.1834 0.9658 0.0
H844 H 0.22031 0.20209 0.07086 0.0
H845 H 0.23401 0.19717 0.03413 0.0
C846 C 0.77871 0.18409 0.93578 0.0
C847 C 0.78052 0.16793 0.92049 0.0
C848 C 0.77188 0.17928 0.9567 0.0
C849 C 0.78708 0.13862 0.99303 0.0
H850 H 0.73946 0.16663 0.03243 0.0
C851 C 0.79755 0.12387 0.08252 0.0
C852 C 0.79288 0.14105 0.09612 0.0
C853 C 0.79024 0.12499 0.06117 0.0
C854 C 0.75314 0.15881 0.02172 0.0
H855 H 0.77462 0.13435 0.91472 0.0
H856 H 0.76337 0.12591 0.95147 0.0
H857 H 0.73503 0.1732 0.9944 0.0
H858 H 0.77677 0.17281 0.0983 0.0
H859 H 0.76563 0.17545 0.06087 0.0
H860 H 0.8068 0.1256 0.01989 0.0
C861 C 0.7669 0.14229 0.94714 0.0
C862 C 0.75031 0.16241 -6e-05 0.0
C863 C 0.77317 0.14717 0.9261 0.0
C864 C 0.78048 0.15929 0.08811 0.0
C865 C 0.77386 0.16068 0.06663 0.0
C866 C 0.79036 0.13542 0.01475 0.0
C867 C 0.76724 0.15818 0.96273 0.0
C868 C 0.76744 0.15248 0.98546 0.0
C869 C 0.77884 0.14361 0.05276 0.0
C870 C 0.77368 0.14567 0.0295 0.0
H871 H 0.78431 0.20022 0.93188 0.0
H872 H 0.7724 0.19177 0.96849 0.0
H873 H 0.80087 0.13109 0.98217 0.0
H874 H 0.80672 0.10948 0.08842 0.0
H875 H 0.79375 0.11125 0.05128 0.0
C876 C 0.77218 0.83572 0.90606 0.0
C877 C 0.78818 0.85298 0.90005 0.0
C878 C 0.76537 0.83266 0.92732 0.0
C879 C 0.75679 0.85778 0.97859 0.0
H880 H 0.78689 0.80659 0.00263 0.0
C881 C 0.7785 0.84914 0.06762 0.0
C882 C 0.78254 0.82889 0.07618 0.0
C883 C 0.77147 0.85149 0.04631 0.0
C884 C 0.77753 0.82068 0.9963 0.0
H885 H 0.80855 0.88112 0.9113 0.0
H886 H 0.79598 0.87604 0.9485 0.0
H887 H 0.78882 0.81225 0.96466 0.0
H888 H 0.7798 0.79521 0.07011 0.0
H889 H 0.76535 0.79914 0.03344 0.0
H890 H 0.74507 0.86621 0.01006 0.0
C891 C 0.78899 0.86482 0.93673 0.0
C892 C 0.77892 0.82396 0.97446 0.0
C893 C 0.79632 0.86762 0.91553 0.0
C894 C 0.77691 0.811 0.06376 0.0
C895 C 0.76905 0.81333 0.04265 0.0
C896 C 0.75477 0.85428 0.00044 0.0
C897 C 0.77389 0.84711 0.94282 0.0
C898 C 0.76919 0.84274 0.96551 0.0
C899 C 0.76772 0.83358 0.03326 0.0
C900 C 0.76582 0.83594 0.00972 0.0
H901 H 0.76567 0.82417 0.89445 0.0
H902 H 0.75378 0.81886 0.93172 0.0
H903 H 0.74898 0.87233 0.97193 0.0
H904 H 0.78307 0.86318 0.07684 0.0
H905 H 0.77094 0.86737 0.03985 0.0
C906 C 0.20124 0.87175 0.08012 0.0
C907 C 0.20973 0.85708 0.09546 0.0
C908 C 0.20837 0.86913 0.05884 0.0
C909 C 0.21994 0.82802 0.02101 0.0
H910 H 0.25043 0.87138 0.98486 0.0
C911 C 0.22391 0.8135 0.93204 0.0
C912 C 0.2168 0.83074 0.91924 0.0
C913 C 0.23139 0.81671 0.95313 0.0
C914 C 0.24168 0.85913 0.99464 0.0
H915 H 0.23276 0.82845 0.10067 0.0
H916 H 0.2444 0.82353 0.06334 0.0
H917 H 0.24612 0.87779 0.02293 0.0
H918 H 0.21326 0.8649 0.91785 0.0
H919 H 0.22478 0.87056 0.95481 0.0
H920 H 0.21341 0.80989 0.99307 0.0
C921 C 0.23259 0.83718 0.06789 0.0
C922 C 0.2394 0.86281 0.01646 0.0
C923 C 0.22593 0.84001 0.0892 0.0
C924 C 0.21904 0.85136 0.92737 0.0
C925 C 0.22569 0.85456 0.94866 0.0
C926 C 0.22162 0.82452 -0.00078 0.0
C927 C 0.22366 0.8516 0.05251 0.0
C928 C 0.22826 0.84734 0.02975 0.0
C929 C 0.23082 0.83718 0.96211 0.0
C930 C 0.23221 0.84011 0.9856 0.0
H931 H 0.18884 0.8851 0.08453 0.0
H932 H 0.20106 0.88035 0.04721 0.0
H933 H 0.21098 0.81595 0.03094 0.0
H934 H 0.22237 0.79744 0.92603 0.0
H935 H 0.23621 0.80296 0.96265 0.0
C936 C 0.10248 0.16982 0.17115 0.0
C937 C 0.11395 0.16067 0.15306 0.0
C938 C 0.07486 0.16897 0.17414 0.0
C939 C 0.01679 0.1374 0.1628 0.0
H940 H 0.97518 0.18916 0.16308 0.0
C941 C 0.90368 0.13404 0.15228 0.0
C942 C 0.88773 0.14924 0.16227 0.0
C943 C 0.93132 0.13606 0.15235 0.0
C944 C 0.98638 0.17451 0.1635 0.0
H945 H 0.10644 0.14213 0.12481 0.0
H946 H 0.05827 0.1401 0.13032 0.0
H947 H 0.0237 0.1911 0.1627 0.0
H948 H 0.88753 0.17904 0.17917 0.0
H949 H 0.93606 0.18209 0.18062 0.0
H950 H 0.98009 0.12061 0.16425 0.0
C951 C 0.0704 0.14843 0.14183 0.0
C952 C 0.01421 0.17569 0.16315 0.0
C953 C 0.09781 0.1497 0.13862 0.0
C954 C 0.89966 0.16697 0.17168 0.0
C955 C 0.92744 0.16875 0.17228 0.0
C956 C 0.98909 0.13617 0.16365 0.0
C957 C 0.05868 0.15823 0.15949 0.0
C958 C 0.02954 0.15714 0.16231 0.0
C959 C 0.94371 0.1532 0.16275 0.0
C960 C 0.97338 0.1547 0.1635 0.0
H961 H 0.11478 0.17801 0.18265 0.0
H962 H 0.06617 0.17651 0.18794 0.0
H963 H 0.02831 0.12287 0.16238 0.0
H964 H 0.89472 0.12057 0.14433 0.0
H965 H 0.94286 0.12413 0.14412 0.0
C966 C 0.77287 0.90766 0.15822 0.0
C967 C 0.7895 0.90169 0.14132 0.0
C968 C 0.76575 0.92888 0.16109 0.0
C969 C 0.75824 0.98034 0.13581 0.0
H970 H 0.78432 0.00383 0.18864 0.0
C971 C 0.77825 0.06943 0.14706 0.0
C972 C 0.78078 0.07759 0.16764 0.0
C973 C 0.77154 0.04814 0.14395 0.0
C974 C 0.77606 0.99764 0.17405 0.0
H975 H 0.81066 0.91301 0.11359 0.0
H976 H 0.79761 0.95016 0.11838 0.0
H977 H 0.78709 0.96597 0.18252 0.0
H978 H 0.7756 0.07087 0.20099 0.0
H979 H 0.76163 0.03425 0.19564 0.0
H980 H 0.74681 0.01187 0.12733 0.0
C981 C 0.79034 0.93838 0.12945 0.0
C982 C 0.77794 0.97586 0.17051 0.0
C983 C 0.79793 0.9172 0.12682 0.0
C984 C 0.77386 0.06483 0.18496 0.0
C985 C 0.7663 0.04374 0.18185 0.0
C986 C 0.75574 0.00214 0.13953 0.0
C987 C 0.77463 0.94443 0.14685 0.0
C988 C 0.76965 0.96711 0.1512 0.0
C989 C 0.76662 0.03472 0.16139 0.0
C990 C 0.76528 0.01121 0.15851 0.0
H991 H 0.76608 0.89605 0.16966 0.0
H992 H 0.75365 0.93322 0.17464 0.0
H993 H 0.75153 0.97383 0.12083 0.0
H994 H 0.78387 0.07892 0.13345 0.0
H995 H 0.77226 0.04197 0.12795 0.0
C996 C 0.90295 0.8491 0.13521 0.0
C997 C 0.88693 0.83874 0.15017 0.0
C998 C 0.93043 0.8503 0.13813 0.0
C999 C 0.98429 0.86182 0.15875 0.0
H1000 H 0.02575 0.81 0.15975 0.0
C1001 C 0.09763 0.86511 0.14953 0.0
C1002 C 0.11335 0.84994 0.15979 0.0
C1003 C 0.07 0.86304 0.14913 0.0
C1004 C 0.0146 0.82468 0.15996 0.0
H1005 H 0.8864 0.8224 0.18031 0.0
H1006 H 0.9351 0.82376 0.18508 0.0
H1007 H 0.97724 0.80814 0.15938 0.0
H1008 H 0.11318 0.82013 0.17664 0.0
H1009 H 0.06465 0.81703 0.17732 0.0
H1010 H 0.021 0.87858 0.16007 0.0
C1011 C 0.92627 0.83088 0.17113 0.0
C1012 C 0.98678 0.82354 0.1596 0.0
C1013 C 0.8986 0.83011 0.16843 0.0
C1014 C 0.10122 0.83218 0.16895 0.0
C1015 C 0.07343 0.83036 0.1691 0.0
C1016 C 0.01199 0.86302 0.15962 0.0
C1017 C 0.94232 0.84102 0.15598 0.0
C1018 C 0.97149 0.8421 0.15856 0.0
C1019 C 0.05736 0.8459 0.15934 0.0
C1020 C 0.02766 0.84447 0.15978 0.0
H1021 H 0.89418 0.85627 0.12125 0.0
H1022 H 0.94247 0.85818 0.12625 0.0
H1023 H 0.9728 0.87636 0.15815 0.0
H1024 H 0.10676 0.87861 0.14178 0.0
H1025 H 0.05866 0.87496 0.14072 0.0
C1026 C 0.22792 0.09204 0.16153 0.0
C1027 C 0.21163 0.09793 0.1444 0.0
C1028 C 0.23521 0.07084 0.16443 0.0
C1029 C 0.24401 0.01964 0.13882 0.0
H1030 H 0.21625 0.99528 0.19066 0.0
C1031 C 0.2232 0.93049 0.14775 0.0
C1032 C 0.21994 0.92188 0.16807 0.0
C1033 C 0.23014 0.95181 0.14527 0.0
C1034 C 0.22498 0.00171 0.17637 0.0
H1035 H 0.19125 0.08654 0.11632 0.0
H1036 H 0.20462 0.04949 0.12113 0.0
H1037 H 0.21365 0.03324 0.18516 0.0
H1038 H 0.22405 0.92787 0.20167 0.0
H1039 H 0.23838 0.96454 0.19746 0.0
H1040 H 0.2557 0.98826 0.13 0.0
C1041 C 0.21149 0.06128 0.13237 0.0
C1042 C 0.22321 0.02355 0.17318 0.0
C1043 C 0.2037 0.0824 0.12972 0.0
C1044 C 0.22635 0.93425 0.18582 0.0
C1045 C 0.23413 0.95537 0.18335 0.0
C1046 C 0.2464 0.99779 0.1422 0.0
C1047 C 0.22687 0.05529 0.14996 0.0
C1048 C 0.23207 0.03262 0.15418 0.0
C1049 C 0.23458 0.96483 0.16311 0.0
C1050 C 0.23619 0.98839 0.16078 0.0
H1051 H 0.23429 0.10368 0.1731 0.0
H1052 H 0.24703 0.06653 0.17813 0.0
H1053 H 0.25116 0.02639 0.12408 0.0
H1054 H 0.21799 0.92131 0.13382 0.0
H1055 H 0.23 0.95832 0.12941 0.0
C1056 C 0.89571 0.82672 0.82666 0.0
C1057 C 0.88422 0.84476 0.83592 0.0
C1058 C 0.92336 0.82385 0.8273 0.0
C1059 C 0.98159 0.83583 0.85863 0.0
H1060 H 0.02297 0.83416 0.80678 0.0
C1061 C 0.09471 0.84591 0.86159 0.0
C1062 C 0.11056 0.83529 0.84675 0.0
C1063 C 0.06709 0.84608 0.8595 0.0
C1064 C 0.01182 0.83416 0.82146 0.0
H1065 H 0.89177 0.87306 0.85438 0.0
H1066 H 0.93998 0.86779 0.856 0.0
H1067 H 0.9744 0.83462 0.80497 0.0
H1068 H 0.1106 0.81753 0.81746 0.0
H1069 H 0.06204 0.81652 0.81431 0.0
H1070 H 0.01835 0.83481 0.87533 0.0
C1071 C 0.92784 0.85621 0.84777 0.0
C1072 C 0.98398 0.83454 0.82035 0.0
C1073 C 0.90039 0.85929 0.84673 0.0
C1074 C 0.09855 0.82551 0.82926 0.0
C1075 C 0.07075 0.82516 0.82741 0.0
C1076 C 0.00929 0.835 0.85978 0.0
C1077 C 0.93958 0.83859 0.83791 0.0
C1078 C 0.96873 0.83583 0.83893 0.0
C1079 C 0.05459 0.83528 0.84265 0.0
C1080 C 0.02491 0.83464 0.84123 0.0
H1081 H 0.88339 0.81516 0.81859 0.0
H1082 H 0.93205 0.81008 0.81972 0.0
H1083 H 0.97016 0.8366 0.87318 0.0
H1084 H 0.10375 0.85414 0.87486 0.0
H1085 H 0.05564 0.85476 0.87115 0.0
C1086 C 0.22152 0.90678 0.83454 0.0
C1087 C 0.20616 0.90066 0.85213 0.0
C1088 C 0.22826 0.92806 0.83147 0.0
C1089 C 0.23809 0.97903 0.857 0.0
H1090 H 0.2081 0.00377 0.80612 0.0
C1091 C 0.21933 0.06861 0.84854 0.0
C1092 C 0.21555 0.07728 0.82829 0.0
C1093 C 0.22549 0.04713 0.85088 0.0
C1094 C 0.21742 0.99722 0.82013 0.0
H1095 H 0.18677 0.91176 0.88076 0.0
H1096 H 0.19923 0.94899 0.87563 0.0
H1097 H 0.20524 0.9658 0.81163 0.0
H1098 H 0.21789 0.07111 0.79462 0.0
H1099 H 0.23082 0.03408 0.79853 0.0
H1100 H 0.25072 0.01028 0.86547 0.0
C1101 C 0.20577 0.93729 0.86418 0.0
C1102 C 0.21549 0.97539 0.82333 0.0
C1103 C 0.19851 0.91607 0.86701 0.0
C1104 C 0.22059 0.0647 0.81041 0.0
C1105 C 0.22757 0.04338 0.81272 0.0
C1106 C 0.24063 0.00087 0.85358 0.0
C1107 C 0.22031 0.94349 0.8462 0.0
C1108 C 0.22523 0.96619 0.84199 0.0
C1109 C 0.22862 0.03397 0.83297 0.0
C1110 C 0.22969 0.0104 0.83533 0.0
H1111 H 0.22765 0.89522 0.8228 0.0
H1112 H 0.23943 0.93252 0.81747 0.0
H1113 H 0.24593 0.97218 0.87146 0.0
H1114 H 0.21518 0.07795 0.86259 0.0
H1115 H 0.22584 0.04065 0.86676 0.0
C1116 C 0.10215 0.17159 0.82972 0.0
C1117 C 0.11332 0.15308 0.83824 0.0
C1118 C 0.07456 0.17474 0.83047 0.0
C1119 C 0.01376 0.16358 0.82293 0.0
H1120 H 0.97943 0.1651 0.8779 0.0
C1121 C 0.89917 0.172 0.83115 0.0
C1122 C 0.88717 0.16274 0.84891 0.0
C1123 C 0.92697 0.17267 0.82949 0.0
C1124 C 0.98849 0.16437 0.86236 0.0
H1125 H 0.10527 0.12417 0.85558 0.0
H1126 H 0.05713 0.12997 0.85747 0.0
H1127 H 0.02767 0.16303 0.87577 0.0
H1128 H 0.89404 0.14518 0.87781 0.0
H1129 H 0.9422 0.14505 0.87445 0.0
H1130 H 0.97482 0.16349 0.80935 0.0
C1131 C 0.0695 0.14169 0.84968 0.0
C1132 C 0.01619 0.16343 0.86122 0.0
C1133 C 0.09689 0.13833 0.84849 0.0
C1134 C 0.90306 0.15299 0.86429 0.0
C1135 C 0.93071 0.15312 0.8624 0.0
C1136 C 0.98594 0.16398 0.82403 0.0
C1137 C 0.0581 0.1598 0.84051 0.0
C1138 C 0.02901 0.1628 0.84152 0.0
C1139 C 0.94318 0.16335 0.8452 0.0
C1140 C 0.97285 0.16412 0.8438 0.0
H1141 H 0.11467 0.18331 0.82209 0.0
H1142 H 0.06609 0.18887 0.82342 0.0
H1143 H 0.02333 0.16306 0.80756 0.0
H1144 H 0.88709 0.1793 0.81894 0.0
H1145 H 0.93563 0.18088 0.81611 0.0
C1146 C 0.78074 0.93601 0.8146 0.0
C1147 C 0.78191 0.92059 0.83065 0.0
C1148 C 0.77395 0.95694 0.81947 0.0
C1149 C 0.7881 0.99324 0.86027 0.0
H1150 H 0.73993 0.03225 0.83233 0.0
C1151 C 0.7975 0.0829 0.87489 0.0
C1152 C 0.79271 0.09637 0.85763 0.0
C1153 C 0.79041 0.06149 0.87386 0.0
C1154 C 0.75376 0.02166 0.84013 0.0
H1155 H 0.7752 0.91462 0.86408 0.0
H1156 H 0.76412 0.95142 0.87265 0.0
H1157 H 0.73609 0.9942 0.82563 0.0
H1158 H 0.7766 0.09825 0.82586 0.0
H1159 H 0.76584 0.06076 0.8234 0.0
H1160 H 0.8074 0.02027 0.87339 0.0
C1161 C 0.76803 0.94716 0.8563 0.0
C1162 C 0.75127 -0.00014 0.83645 0.0
C1163 C 0.77421 0.92612 0.85135 0.0
C1164 C 0.7804 0.08817 0.83943 0.0
C1165 C 0.77399 0.06665 0.83815 0.0
C1166 C 0.79105 0.015 0.86354 0.0
C1167 C 0.76878 0.96284 0.84052 0.0
C1168 C 0.76862 0.98553 0.84634 0.0
C1169 C 0.7791 0.0529 0.85528 0.0
C1170 C 0.77419 0.0296 0.85328 0.0
H1171 H 0.78663 0.93217 0.79853 0.0
H1172 H 0.77482 0.96881 0.80708 0.0
H1173 H 0.80203 0.98248 0.86778 0.0
H1174 H 0.80662 0.08894 0.88924 0.0
H1175 H 0.79403 0.05169 0.88764 0.0
C1176 C 0.69961 0.62864 0.41528 0.0
C1177 C 0.70799 0.64352 0.40011 0.0
C1178 C 0.70639 0.63123 0.43663 0.0
C1179 C 0.71586 0.6719 0.47497 0.0
H1180 H 0.74915 0.62939 0.51056 0.0
C1181 C 0.71965 0.68545 0.56422 0.0
C1182 C 0.71413 0.66777 0.57692 0.0
C1183 C 0.72679 0.68282 0.54298 0.0
C1184 C 0.73958 0.64139 0.50095 0.0
H1185 H 0.73039 0.67251 0.39524 0.0
H1186 H 0.74137 0.67741 0.43273 0.0
H1187 H 0.74524 0.62331 0.4724 0.0
H1188 H 0.7129 0.6335 0.57793 0.0
H1189 H 0.7238 0.62878 0.54071 0.0
H1190 H 0.70813 0.68935 0.50315 0.0
C1191 C 0.72997 0.66361 0.42799 0.0
C1192 C 0.73755 0.63791 0.47908 0.0
C1193 C 0.72369 0.66079 0.40659 0.0
C1194 C 0.71745 0.64738 0.56847 0.0
C1195 C 0.72376 0.64473 0.54704 0.0
C1196 C 0.71728 0.67517 0.49681 0.0
C1197 C 0.72119 0.64895 0.44318 0.0
C1198 C 0.72544 0.65308 0.46599 0.0
C1199 C 0.72747 0.66246 0.53376 0.0
C1200 C 0.72888 0.65987 0.51023 0.0
H1201 H 0.68759 0.61514 0.41069 0.0
H1202 H 0.69923 0.61983 0.44814 0.0
H1203 H 0.70616 0.68372 0.46518 0.0
H1204 H 0.71726 0.70134 0.57048 0.0
H1205 H 0.7305 0.69687 0.53359 0.0
C1206 C 0.30073 0.63018 0.58155 0.0
C1207 C 0.29292 0.64493 0.59705 0.0
C1208 C 0.2937 0.63323 0.56031 0.0
C1209 C 0.2841 0.67448 0.52256 0.0
H1210 H 0.24874 0.63278 0.48723 0.0
C1211 C 0.2784 0.68872 0.43354 0.0
C1212 C 0.2835 0.67104 0.42069 0.0
C1213 C 0.2715 0.68607 0.45482 0.0
C1214 C 0.25887 0.64455 0.49677 0.0
H1215 H 0.27142 0.67424 0.6026 0.0
H1216 H 0.26005 0.67993 0.56531 0.0
H1217 H 0.25371 0.62629 0.52522 0.0
H1218 H 0.28399 0.63675 0.4195 0.0
H1219 H 0.27346 0.63199 0.45674 0.0
H1220 H 0.29131 0.69209 0.4944 0.0
C1221 C 0.27117 0.66588 0.56971 0.0
C1222 C 0.26153 0.64083 0.51854 0.0
C1223 C 0.27768 0.6626 0.59099 0.0
C1224 C 0.27981 0.65065 0.42905 0.0
C1225 C 0.27372 0.64797 0.4505 0.0
C1226 C 0.28205 0.67798 0.50078 0.0
C1227 C 0.27924 0.65128 0.5542 0.0
C1228 C 0.27442 0.65569 0.53153 0.0
C1229 C 0.27059 0.66567 0.46393 0.0
C1230 C 0.26971 0.66295 0.48746 0.0
H1231 H 0.31237 0.61637 0.58582 0.0
H1232 H 0.30032 0.62187 0.54855 0.0
H1233 H 0.29437 0.68607 0.53227 0.0
H1234 H 0.28102 0.70462 0.42737 0.0
H1235 H 0.26822 0.70011 0.46435 0.0
C1236 C 0.27112 0.33668 0.40673 0.0
C1237 C 0.28761 0.35375 0.40099 0.0
C1238 C 0.26393 0.33358 0.4279 0.0
C1239 C 0.25536 0.35839 0.47934 0.0
H1240 H 0.2839 0.30649 0.50306 0.0
C1241 C 0.27653 0.34866 0.56829 0.0
C1242 C 0.28019 0.32828 0.57666 0.0
C1243 C 0.26946 0.35129 0.54703 0.0
C1244 C 0.27495 0.32079 0.49681 0.0
H1245 H 0.30845 0.38151 0.41262 0.0
H1246 H 0.29523 0.37634 0.44967 0.0
H1247 H 0.28633 0.31246 0.46517 0.0
H1248 H 0.27662 0.2947 0.57033 0.0
H1249 H 0.26206 0.29915 0.53376 0.0
H1250 H 0.24358 0.36672 0.51083 0.0
C1251 C 0.28815 0.36532 0.43776 0.0
C1252 C 0.27663 0.32424 0.47502 0.0
C1253 C 0.29585 0.36816 0.41665 0.0
C1254 C 0.27404 0.31058 0.56413 0.0
C1255 C 0.26612 0.3132 0.54307 0.0
C1256 C 0.25304 0.35472 0.50115 0.0
C1257 C 0.27257 0.34778 0.44358 0.0
C1258 C 0.2675 0.34328 0.4662 0.0
C1259 C 0.26528 0.33354 0.53384 0.0
C1260 C 0.26354 0.33612 0.51032 0.0
H1261 H 0.26451 0.32531 0.39497 0.0
H1262 H 0.25197 0.31991 0.43209 0.0
H1263 H 0.248 0.37313 0.47277 0.0
H1264 H 0.28151 0.36256 0.5776 0.0
H1265 H 0.2693 0.36723 0.5407 0.0
C1266 C 0.72469 0.35324 0.42475 0.0
C1267 C 0.71766 0.33231 0.41947 0.0
C1268 C 0.73138 0.35844 0.44563 0.0
C1269 C 0.75008 0.33908 0.49824 0.0
H1270 H 0.69333 0.37513 0.51912 0.0
C1271 C 0.7218 0.3416 0.58677 0.0
C1272 C 0.70891 0.35954 0.595 0.0
C1273 C 0.72823 0.34048 0.56524 0.0
C1274 C 0.70986 0.36554 0.51371 0.0
H1275 H 0.71477 0.30012 0.43124 0.0
H1276 H 0.72745 0.30913 0.46757 0.0
H1277 H 0.69824 0.36952 0.48132 0.0
H1278 H 0.69407 0.39089 0.58763 0.0
H1279 H 0.7067 0.38962 0.55039 0.0
H1280 H 0.76201 0.3352 0.53053 0.0
C1281 C 0.72741 0.3215 0.45565 0.0
C1282 C 0.71255 0.36228 0.49194 0.0
C1283 C 0.72013 0.31636 0.43489 0.0
C1284 C 0.70365 0.37674 0.58157 0.0
C1285 C 0.71075 0.37589 0.56016 0.0
C1286 C 0.74783 0.34276 0.52006 0.0
C1287 C 0.73181 0.34272 0.46138 0.0
C1288 C 0.73226 0.34865 0.48405 0.0
C1289 C 0.72253 0.35752 0.55151 0.0
C1290 C 0.7272 0.35559 0.52818 0.0
H1291 H 0.72272 0.3659 0.41325 0.0
H1292 H 0.73471 0.37491 0.44975 0.0
H1293 H 0.76544 0.3285 0.49246 0.0
H1294 H 0.72597 0.32807 0.59682 0.0
H1295 H 0.73678 0.32589 0.55931 0.0
C1296 C 0.60205 0.66822 0.67224 0.0
C1297 C 0.61318 0.65905 0.65402 0.0
C1298 C 0.57451 0.66729 0.67562 0.0
C1299 C 0.51594 0.63582 0.66436 0.0
H1300 H 0.47494 0.68785 0.66623 0.0
C1301 C 0.40286 0.63372 0.6536 0.0
C1302 C 0.38704 0.6487 0.66405 0.0
C1303 C 0.43051 0.6355 0.65384 0.0
C1304 C 0.48598 0.67312 0.6662 0.0
H1305 H 0.60516 0.64036 0.62595 0.0
H1306 H 0.55714 0.63822 0.63211 0.0
H1307 H 0.52346 0.68945 0.66565 0.0
H1308 H 0.38713 0.67789 0.68199 0.0
H1309 H 0.43571 0.68049 0.68368 0.0
H1310 H 0.47904 0.61927 0.66548 0.0
C1311 C 0.56947 0.6466 0.64346 0.0
C1312 C 0.51381 0.67411 0.66575 0.0
C1313 C 0.5968 0.64795 0.63986 0.0
C1314 C 0.39914 0.66598 0.67413 0.0
C1315 C 0.42695 0.66752 0.67487 0.0
C1316 C 0.48823 0.63478 0.66529 0.0
C1317 C 0.55805 0.65645 0.66122 0.0
C1318 C 0.52894 0.65548 0.66431 0.0
C1319 C 0.44307 0.65217 0.66486 0.0
C1320 C 0.47275 0.65341 0.66568 0.0
H1321 H 0.61455 0.67652 0.68352 0.0
H1322 H 0.56608 0.67488 0.68948 0.0
H1323 H 0.52728 0.62122 0.66348 0.0
H1324 H 0.39377 0.6206 0.64516 0.0
H1325 H 0.44196 0.62376 0.64525 0.0
C1326 C 0.27358 0.57186 0.64428 0.0
C1327 C 0.28003 0.57707 0.66533 0.0
C1328 C 0.26709 0.55099 0.63888 0.0
C1329 C 0.24845 0.49816 0.65794 0.0
H1330 H 0.30596 0.47776 0.62239 0.0
C1331 C 0.27828 0.40997 0.65604 0.0
C1332 C 0.29131 0.40175 0.63817 0.0
C1333 C 0.27157 0.43146 0.65703 0.0
C1334 C 0.28924 0.48304 0.63184 0.0
H1335 H 0.28207 0.56518 0.69751 0.0
H1336 H 0.26975 0.52887 0.68815 0.0
H1337 H 0.30041 0.51554 0.6279 0.0
H1338 H 0.30619 0.40908 0.60682 0.0
H1339 H 0.29315 0.44625 0.60791 0.0
H1340 H 0.237 0.46575 0.66182 0.0
C1341 C 0.27008 0.54083 0.67584 0.0
C1342 C 0.28617 0.50479 0.63504 0.0
C1343 C 0.27716 0.56158 0.68118 0.0
C1344 C 0.29651 0.41514 0.62093 0.0
C1345 C 0.28916 0.43651 0.62166 0.0
C1346 C 0.25109 0.47636 0.65434 0.0
C1347 C 0.2663 0.53516 0.65453 0.0
C1348 C 0.26618 0.51251 0.64851 0.0
C1349 C 0.27713 0.44513 0.63993 0.0
C1350 C 0.27203 0.46842 0.64171 0.0
H1351 H 0.27589 0.58342 0.63171 0.0
H1352 H 0.26423 0.54693 0.62235 0.0
H1353 H 0.23287 0.5038 0.66841 0.0
H1354 H 0.27415 0.39996 0.6696 0.0
H1355 H 0.26286 0.43739 0.67156 0.0
C1356 C 0.59676 0.36292 0.64964 0.0
C1357 C 0.61316 0.34775 0.6593 0.0
C1358 C 0.56929 0.35984 0.6487 0.0
C1359 C 0.5161 0.33763 0.63669 0.0
H1360 H 0.47428 0.3381 0.68833 0.0
C1361 C 0.40278 0.34656 0.63279 0.0
C1362 C 0.38697 0.33678 0.64822 0.0
C1363 C 0.4304 0.34691 0.63486 0.0
C1364 C 0.48554 0.33747 0.67372 0.0
H1365 H 0.61434 0.31712 0.67469 0.0
H1366 H 0.56566 0.31204 0.67379 0.0
H1367 H 0.5228 0.33898 0.69037 0.0
H1368 H 0.38701 0.3207 0.67845 0.0
H1369 H 0.43554 0.31996 0.68162 0.0
H1370 H 0.47951 0.33536 0.61984 0.0
C1371 C 0.57421 0.32628 0.66704 0.0
C1372 C 0.51335 0.33813 0.67497 0.0
C1373 C 0.60185 0.32916 0.66754 0.0
C1374 C 0.39903 0.32801 0.6662 0.0
C1375 C 0.42681 0.32782 0.66806 0.0
C1376 C 0.48842 0.33645 0.63541 0.0
C1377 C 0.55781 0.3416 0.65753 0.0
C1378 C 0.52873 0.33866 0.65644 0.0
C1379 C 0.44295 0.33715 0.6523 0.0
C1380 C 0.47263 0.33684 0.65388 0.0
H1381 H 0.60524 0.37714 0.64275 0.0
H1382 H 0.55695 0.37181 0.64128 0.0
H1383 H 0.5277 0.33784 0.6222 0.0
H1384 H 0.3937 0.35402 0.6191 0.0
H1385 H 0.44182 0.35497 0.62275 0.0
C1386 C 0.72748 0.59136 0.66159 0.0
C1387 C 0.7112 0.59702 0.64438 0.0
C1388 C 0.73475 0.57021 0.66477 0.0
C1389 C 0.74401 0.51876 0.64015 0.0
H1390 H 0.71381 0.49487 0.69135 0.0
C1391 C 0.72243 0.42976 0.64894 0.0
C1392 C 0.71817 0.42123 0.66918 0.0
C1393 C 0.72951 0.45106 0.6466 0.0
C1394 C 0.72321 0.50116 0.67727 0.0
H1395 H 0.69084 0.58528 0.61643 0.0
H1396 H 0.70424 0.5483 0.62172 0.0
H1397 H 0.71169 0.5328 0.68551 0.0
H1398 H 0.72061 0.42737 0.70286 0.0
H1399 H 0.73514 0.46402 0.69894 0.0
H1400 H 0.75594 0.48729 0.6319 0.0
C1401 C 0.71109 0.56024 0.63281 0.0
C1402 C 0.72172 0.52298 0.67388 0.0
C1403 C 0.7033 0.58132 0.62988 0.0
C1404 C 0.72365 0.43368 0.68707 0.0
C1405 C 0.73156 0.4548 0.68476 0.0
C1406 C 0.74614 0.49693 0.64376 0.0
C1407 C 0.72642 0.55448 0.6505 0.0
C1408 C 0.73145 0.53187 0.65507 0.0
C1409 C 0.7331 0.46415 0.6645 0.0
C1410 C 0.73502 0.48769 0.66209 0.0
H1411 H 0.73381 0.60315 0.67303 0.0
H1412 H 0.7465 0.56606 0.67856 0.0
H1413 H 0.75181 0.52538 0.62557 0.0
H1414 H 0.71798 0.42052 0.63489 0.0
H1415 H 0.73019 0.45749 0.63071 0.0
C1416 C 0.40087 0.3591 0.3485 0.0
C1417 C 0.38451 0.34477 0.33759 0.0
C1418 C 0.42826 0.35574 0.34962 0.0
C1419 C 0.48404 0.33389 0.32202 0.0
H1420 H 0.51874 0.33364 0.37688 0.0
C1421 C 0.59873 0.32542 0.33023 0.0
C1422 C 0.6108 0.33522 0.34769 0.0
C1423 C 0.57093 0.32478 0.32861 0.0
C1424 C 0.50958 0.33398 0.36136 0.0
H1425 H 0.38329 0.31523 0.32019 0.0
H1426 H 0.43186 0.30966 0.32143 0.0
H1427 H 0.47051 0.33554 0.3749 0.0
H1428 H 0.60401 0.35375 0.37602 0.0
H1429 H 0.55585 0.35384 0.37271 0.0
H1430 H 0.52294 0.33364 0.3083 0.0
C1431 C 0.42335 0.32349 0.32904 0.0
C1432 C 0.48187 0.33486 0.36031 0.0
C1433 C 0.39575 0.32664 0.32834 0.0
C1434 C 0.59496 0.34552 0.36276 0.0
C1435 C 0.5673 0.34538 0.36089 0.0
C1436 C 0.51188 0.33349 0.32302 0.0
C1437 C 0.43976 0.33804 0.33972 0.0
C1438 C 0.4689 0.33507 0.34065 0.0
C1439 C 0.55478 0.33462 0.34404 0.0
C1440 C 0.52509 0.33382 0.34274 0.0
H1441 H 0.39243 0.37295 0.35615 0.0
H1442 H 0.44055 0.36718 0.3579 0.0
H1443 H 0.47439 0.33412 0.30667 0.0
H1444 H 0.61077 0.31769 0.31826 0.0
H1445 H 0.5622 0.31617 0.31549 0.0
C1446 C 0.72179 0.40769 0.33554 0.0
C1447 C 0.70593 0.40155 0.35283 0.0
C1448 C 0.72877 0.42894 0.33269 0.0
C1449 C 0.73788 0.47985 0.35873 0.0
H1450 H 0.71152 0.50453 0.30656 0.0
C1451 C 0.72042 0.56945 0.34882 0.0
C1452 C 0.71796 0.5779 0.32836 0.0
C1453 C 0.72648 0.548 0.35162 0.0
C1454 C 0.71984 0.49799 0.32097 0.0
H1455 H 0.68584 0.4126 0.38117 0.0
H1456 H 0.69862 0.44982 0.3764 0.0
H1457 H 0.70773 0.46665 0.31218 0.0
H1458 H 0.72263 0.57145 0.29489 0.0
H1459 H 0.73543 0.5345 0.2997 0.0
H1460 H 0.75041 0.51105 0.36751 0.0
C1461 C 0.70541 0.43814 0.36502 0.0
C1462 C 0.71737 0.47621 0.32422 0.0
C1463 C 0.69795 0.41693 0.36764 0.0
C1464 C 0.72434 0.56521 0.31083 0.0
C1465 C 0.73122 0.54393 0.31364 0.0
C1466 C 0.74096 0.50165 0.35529 0.0
C1467 C 0.72051 0.44435 0.34734 0.0
C1468 C 0.72581 0.46704 0.3433 0.0
C1469 C 0.73079 0.5347 0.33398 0.0
C1470 C 0.73136 0.51114 0.33655 0.0
H1471 H 0.72822 0.39617 0.32386 0.0
H1472 H 0.7404 0.4334 0.31893 0.0
H1473 H 0.74474 0.47302 0.37351 0.0
H1474 H 0.71521 0.57889 0.36257 0.0
H1475 H 0.72571 0.54165 0.36754 0.0
C1476 C 0.60088 0.66884 0.32572 0.0
C1477 C 0.61287 0.65109 0.33502 0.0
C1478 C 0.5731 0.67079 0.32557 0.0
C1479 C 0.51152 0.63841 0.33521 0.0
H1480 H 0.47697 0.69337 0.33589 0.0
C1481 C 0.39798 0.67063 0.32735 0.0
C1482 C 0.38675 0.66226 0.34591 0.0
C1483 C 0.42562 0.67013 0.32441 0.0
C1484 C 0.48647 0.67796 0.33554 0.0
H1485 H 0.60608 0.62258 0.35323 0.0
H1486 H 0.55802 0.62645 0.35426 0.0
H1487 H 0.52552 0.69139 0.33511 0.0
H1488 H 0.39475 0.64549 0.37516 0.0
H1489 H 0.44299 0.64404 0.36974 0.0
H1490 H 0.47231 0.62516 0.33695 0.0
C1491 C 0.56944 0.63825 0.34577 0.0
C1492 C 0.51429 0.67675 0.33496 0.0
C1493 C 0.59705 0.63606 0.34538 0.0
C1494 C 0.40318 0.65247 0.36097 0.0
C1495 C 0.43062 0.65154 0.35782 0.0
C1496 C 0.48385 0.63966 0.33628 0.0
C1497 C 0.55694 0.65537 0.33544 0.0
C1498 C 0.52726 0.65692 0.33502 0.0
C1499 C 0.44206 0.6605 0.33963 0.0
C1500 C 0.47114 0.65942 0.33667 0.0
H1501 H 0.61292 0.68078 0.31795 0.0
H1502 H 0.56439 0.6841 0.31729 0.0
H1503 H 0.52047 0.62282 0.33467 0.0
H1504 H 0.38546 0.67788 0.3154 0.0
H1505 H 0.43412 0.67698 0.3102 0.0
C1506 C 0.27513 0.42713 0.35206 0.0
C1507 C 0.2831 0.42148 0.33146 0.0
C1508 C 0.26886 0.4482 0.35684 0.0
C1509 C 0.25174 0.50063 0.33685 0.0
H1510 H 0.30787 0.52165 0.37343 0.0
C1511 C 0.27927 0.58935 0.33991 0.0
C1512 C 0.29188 0.59755 0.35797 0.0
C1513 C 0.27309 0.56777 0.33862 0.0
C1514 C 0.29151 0.5162 0.36368 0.0
H1515 H 0.28829 0.43288 0.29932 0.0
H1516 H 0.27631 0.46957 0.30755 0.0
H1517 H 0.30306 0.48381 0.36788 0.0
H1518 H 0.30649 0.59012 0.38937 0.0
H1519 H 0.29423 0.55281 0.38783 0.0
H1520 H 0.23978 0.53289 0.33281 0.0
C1521 C 0.2753 0.45777 0.32 0.0
C1522 C 0.2889 0.49442 0.36044 0.0
C1523 C 0.28218 0.43682 0.31532 0.0
C1524 C 0.29712 0.58407 0.37513 0.0
C1525 C 0.29024 0.56262 0.37412 0.0
C1526 C 0.25388 0.52246 0.34051 0.0
C1527 C 0.26978 0.46378 0.34097 0.0
C1528 C 0.2694 0.48649 0.34665 0.0
C1529 C 0.27874 0.55399 0.35563 0.0
C1530 C 0.27427 0.53063 0.35357 0.0
H1531 H 0.27592 0.41569 0.36486 0.0
H1532 H 0.26471 0.45255 0.37312 0.0
H1533 H 0.23655 0.4948 0.32613 0.0
H1534 H 0.27514 0.59944 0.32641 0.0
H1535 H 0.26476 0.56187 0.32394 0.0
loop_
_geom_bond_atom_site_label_1
_geom_bond_atom_site_label_2
_geom_bond_distance
_geom_bond_site_symmetry_2
_ccdc_geom_bond_type
Mn0 O5 2.095 . S
Mn0 O15 2.162 . S
Mn0 O16 2.297 . S
Mn0 O24 2.385 . S
Mn0 O25 2.209 . S
Mn0 O26 2.094 . S
Mn1 O6 2.121 . S
Mn1 N8 2.257 . S
Mn1 N17 2.282 . S
Mn1 O25 2.215 . S
Mn1 O27 2.117 . S
C2 O24 1.234 . S
C2 O25 1.283 . S
C3 O15 1.281 . S
C3 O16 1.236 . S
C4 O26 1.240 . S
C4 O27 1.264 . S
O5 Mn0 2.095 . S
O5 C14 1.250 . S
O6 Mn1 2.121 . S
O6 C14 1.258 . S
C7 N8 1.326 . S
C7 C11 1.460 . S
C7 H13 0.929 . S
N8 Mn1 2.257 . S
N8 C7 1.326 . S
N8 C12 1.362 . S
C9 C10 1.258 . S
C9 C12 1.431 . S
C9 C29 1.449 . S
C10 C9 1.258 . S
C10 C11 1.477 . S
C10 H30 0.931 . S
C11 C7 1.460 . S
C11 C10 1.477 . S
C11 H31 0.930 . S
C12 N8 1.362 . S
C12 C9 1.431 . S
C12 C22 1.476 . S
H13 C7 0.929 . S
C14 O5 1.250 . S
C14 O6 1.258 . S
O15 Mn0 2.162 . S
O15 C3 1.281 . S
O16 Mn0 2.297 . S
O16 C3 1.236 . S
N17 Mn1 2.282 . S
N17 C18 1.328 . S
N17 C22 1.318 . S
C18 N17 1.328 . S
C18 C19 1.457 . S
C18 H23 0.929 . S
C19 C18 1.457 . S
C19 C20 1.291 . S
C19 H32 0.931 . S
C20 C19 1.291 . S
C20 C21 1.373 . S
C20 H33 0.929 . S
C21 C20 1.373 . S
C21 C22 1.396 . S
C21 C28 1.403 . S
C22 C12 1.476 . S
C22 N17 1.318 . S
C22 C21 1.396 . S
H23 C18 0.929 . S
O24 Mn0 2.385 . S
O24 C2 1.234 . S
O25 Mn0 2.209 . S
O25 Mn1 2.215 . S
O25 C2 1.283 . S
O26 Mn0 2.094 . S
O26 C4 1.240 . S
O27 Mn1 2.117 . S
O27 C4 1.264 . S
C28 C21 1.403 . S
C28 C29 1.399 . S
C28 H34 0.929 . S
C29 C9 1.449 . S
C29 C28 1.399 . S
C29 H35 0.930 . S
H30 C10 0.931 . S
H31 C11 0.930 . S
H32 C19 0.931 . S
H33 C20 0.929 . S
H34 C28 0.929 . S
H35 C29 0.930 . S
Mn36 O41 2.095 . S
Mn36 O51 2.162 . S
Mn36 O52 2.297 . S
Mn36 O60 2.385 . S
Mn36 O61 2.209 . S
Mn36 O62 2.094 . S
Mn37 O42 2.121 . S
Mn37 N44 2.257 . S
Mn37 N53 2.282 . S
Mn37 O61 2.215 . S
Mn37 O63 2.117 . S
C38 O60 1.234 . S
C38 O61 1.283 . S
C39 O51 1.281 . S
C39 O52 1.236 . S
C40 O62 1.240 . S
C40 O63 1.264 . S
O41 Mn36 2.095 . S
O41 C50 1.250 . S
O42 Mn37 2.121 . S
O42 C50 1.258 . S
C43 N44 1.326 . S
C43 C47 1.460 . S
C43 H49 0.929 . S
N44 Mn37 2.257 . S
N44 C43 1.326 . S
N44 C48 1.362 . S
C45 C46 1.258 . S
C45 C48 1.431 . S
C45 C65 1.449 . S
C46 C45 1.258 . S
C46 C47 1.477 . S
C46 H66 0.931 . S
C47 C43 1.460 . S
C47 C46 1.477 . S
C47 H67 0.930 . S
C48 N44 1.362 . S
C48 C45 1.431 . S
C48 C58 1.476 . S
H49 C43 0.929 . S
C50 O41 1.250 . S
C50 O42 1.258 . S
O51 Mn36 2.162 . S
O51 C39 1.281 . S
O52 Mn36 2.297 . S
O52 C39 1.236 . S
N53 Mn37 2.282 . S
N53 C54 1.328 . S
N53 C58 1.318 . S
C54 N53 1.328 . S
C54 C55 1.457 . S
C54 H59 0.929 . S
C55 C54 1.457 . S
C55 C56 1.291 . S
C55 H68 0.931 . S
C56 C55 1.291 . S
C56 C57 1.373 . S
C56 H69 0.929 . S
C57 C56 1.373 . S
C57 C58 1.396 . S
C57 C64 1.403 . S
C58 C48 1.476 . S
C58 N53 1.318 . S
C58 C57 1.396 . S
H59 C54 0.929 . S
O60 Mn36 2.385 . S
O60 C38 1.234 . S
O61 Mn36 2.209 . S
O61 Mn37 2.215 . S
O61 C38 1.283 . S
O62 Mn36 2.094 . S
O62 C40 1.240 . S
O63 Mn37 2.117 . S
O63 C40 1.264 . S
C64 C57 1.403 . S
C64 C65 1.399 . S
C64 H70 0.929 . S
C65 C45 1.449 . S
C65 C64 1.399 . S
C65 H71 0.930 . S
H66 C46 0.931 . S
H67 C47 0.930 . S
H68 C55 0.931 . S
H69 C56 0.929 . S
H70 C64 0.929 . S
H71 C65 0.930 . S
Mn72 O77 2.095 . S
Mn72 O87 2.162 . S
Mn72 O88 2.297 . S
Mn72 O96 2.385 . S
Mn72 O97 2.209 . S
Mn72 O98 2.094 . S
Mn73 O78 2.121 . S
Mn73 N80 2.257 . S
Mn73 N89 2.282 . S
Mn73 O97 2.215 . S
Mn73 O99 2.117 . S
C74 O96 1.234 . S
C74 O97 1.283 . S
C75 O87 1.281 . S
C75 O88 1.236 . S
C76 O98 1.240 . S
C76 O99 1.264 . S
O77 Mn72 2.095 . S
O77 C86 1.250 . S
O78 Mn73 2.121 . S
O78 C86 1.258 . S
C79 N80 1.326 . S
C79 C83 1.460 . S
C79 H85 0.929 . S
N80 Mn73 2.257 . S
N80 C79 1.326 . S
N80 C84 1.362 . S
C81 C82 1.258 . S
C81 C84 1.431 . S
C81 C101 1.449 . S
C82 C81 1.258 . S
C82 C83 1.477 . S
C82 H102 0.931 . S
C83 C79 1.460 . S
C83 C82 1.477 . S
C83 H103 0.930 . S
C84 N80 1.362 . S
C84 C81 1.431 . S
C84 C94 1.476 . S
H85 C79 0.929 . S
C86 O77 1.250 . S
C86 O78 1.258 . S
O87 Mn72 2.162 . S
O87 C75 1.281 . S
O88 Mn72 2.297 . S
O88 C75 1.236 . S
N89 Mn73 2.282 . S
N89 C90 1.328 . S
N89 C94 1.318 . S
C90 N89 1.328 . S
C90 C91 1.457 . S
C90 H95 0.929 . S
C91 C90 1.457 . S
C91 C92 1.291 . S
C91 H104 0.931 . S
C92 C91 1.291 . S
C92 C93 1.373 . S
C92 H105 0.929 . S
C93 C92 1.373 . S
C93 C94 1.396 . S
C93 C100 1.403 . S
C94 C84 1.476 . S
C94 N89 1.318 . S
C94 C93 1.396 . S
H95 C90 0.929 . S
O96 Mn72 2.385 . S
O96 C74 1.234 . S
O97 Mn72 2.209 . S
O97 Mn73 2.215 . S
O97 C74 1.283 . S
O98 Mn72 2.094 . S
O98 C76 1.240 . S
O99 Mn73 2.117 . S
O99 C76 1.264 . S
C100 C93 1.403 . S
C100 C101 1.399 . S
C100 H106 0.929 . S
C101 C81 1.449 . S
C101 C100 1.399 . S
C101 H107 0.930 . S
H102 C82 0.931 . S
H103 C83 0.930 . S
H104 C91 0.931 . S
H105 C92 0.929 . S
H106 C100 0.929 . S
H107 C101 0.930 . S
Mn108 O113 2.095 . S
Mn108 O123 2.162 . S
Mn108 O124 2.297 . S
Mn108 O132 2.385 . S
Mn108 O133 2.209 . S
Mn108 O134 2.094 . S
Mn109 O114 2.121 . S
Mn109 N116 2.257 . S
Mn109 N125 2.282 . S
Mn109 O133 2.215 . S
Mn109 O135 2.117 . S
C110 O132 1.234 . S
C110 O133 1.283 . S
C111 O123 1.281 . S
C111 O124 1.236 . S
C112 O134 1.240 . S
C112 O135 1.264 . S
O113 Mn108 2.095 . S
O113 C122 1.250 . S
O114 Mn109 2.121 . S
O114 C122 1.258 . S
C115 N116 1.326 . S
C115 C119 1.460 . S
C115 H121 0.929 . S
N116 Mn109 2.257 . S
N116 C115 1.326 . S
N116 C120 1.362 . S
C117 C118 1.258 . S
C117 C120 1.431 . S
C117 C137 1.449 . S
C118 C117 1.258 . S
C118 C119 1.477 . S
C118 H138 0.931 . S
C119 C115 1.460 . S
C119 C118 1.477 . S
C119 H139 0.930 . S
C120 N116 1.362 . S
C120 C117 1.431 . S
C120 C130 1.476 . S
H121 C115 0.929 . S
C122 O113 1.250 . S
C122 O114 1.258 . S
O123 Mn108 2.162 . S
O123 C111 1.281 . S
O124 Mn108 2.297 . S
O124 C111 1.236 . S
N125 Mn109 2.282 . S
N125 C126 1.328 . S
N125 C130 1.318 . S
C126 N125 1.328 . S
C126 C127 1.457 . S
C126 H131 0.929 . S
C127 C126 1.457 . S
C127 C128 1.291 . S
C127 H140 0.931 . S
C128 C127 1.291 . S
C128 C129 1.373 . S
C128 H141 0.929 . S
C129 C128 1.373 . S
C129 C130 1.396 . S
C129 C136 1.403 . S
C130 C120 1.476 . S
C130 N125 1.318 . S
C130 C129 1.396 . S
H131 C126 0.929 . S
O132 Mn108 2.385 . S
O132 C110 1.234 . S
O133 Mn108 2.209 . S
O133 Mn109 2.215 . S
O133 C110 1.283 . S
O134 Mn108 2.094 . S
O134 C112 1.240 . S
O135 Mn109 2.117 . S
O135 C112 1.264 . S
C136 C129 1.403 . S
C136 C137 1.399 . S
C136 H142 0.929 . S
C137 C117 1.449 . S
C137 C136 1.399 . S
C137 H143 0.930 . S
H138 C118 0.931 . S
H139 C119 0.930 . S
H140 C127 0.931 . S
H141 C128 0.929 . S
H142 C136 0.929 . S
H143 C137 0.930 . S
Mn144 O149 2.095 . S
Mn144 O159 2.162 . S
Mn144 O160 2.297 . S
Mn144 O168 2.385 . S
Mn144 O169 2.209 . S
Mn144 O170 2.094 . S
Mn145 O150 2.121 . S
Mn145 N152 2.257 . S
Mn145 N161 2.282 . S
Mn145 O169 2.215 . S
Mn145 O171 2.117 . S
C146 O168 1.234 . S
C146 O169 1.283 . S
C147 O159 1.281 . S
C147 O160 1.236 . S
C148 O170 1.240 . S
C148 O171 1.264 . S
O149 Mn144 2.095 . S
O149 C158 1.250 . S
O150 Mn145 2.121 . S
O150 C158 1.258 . S
C151 N152 1.326 . S
C151 C155 1.460 . S
C151 H157 0.929 . S
N152 Mn145 2.257 . S
N152 C151 1.326 . S
N152 C156 1.362 . S
C153 C154 1.258 . S
C153 C156 1.431 . S
C153 C173 1.449 . S
C154 C153 1.258 . S
C154 C155 1.477 . S
C154 H174 0.931 . S
C155 C151 1.460 . S
C155 C154 1.477 . S
C155 H175 0.930 . S
C156 N152 1.362 . S
C156 C153 1.431 . S
C156 C166 1.476 . S
H157 C151 0.929 . S
C158 O149 1.250 . S
C158 O150 1.258 . S
O159 Mn144 2.162 . S
O159 C147 1.281 . S
O160 Mn144 2.297 . S
O160 C147 1.236 . S
N161 Mn145 2.282 . S
N161 C162 1.328 . S
N161 C166 1.318 . S
C162 N161 1.328 . S
C162 C163 1.457 . S
C162 H167 0.929 . S
C163 C162 1.457 . S
C163 C164 1.291 . S
C163 H176 0.931 . S
C164 C163 1.291 . S
C164 C165 1.373 . S
C164 H177 0.929 . S
C165 C164 1.373 . S
C165 C166 1.396 . S
C165 C172 1.403 . S
C166 C156 1.476 . S
C166 N161 1.318 . S
C166 C165 1.396 . S
H167 C162 0.929 . S
O168 Mn144 2.385 . S
O168 C146 1.234 . S
O169 Mn144 2.209 . S
O169 Mn145 2.215 . S
O169 C146 1.283 . S
O170 Mn144 2.094 . S
O170 C148 1.240 . S
O171 Mn145 2.117 . S
O171 C148 1.264 . S
C172 C165 1.403 . S
C172 C173 1.399 . S
C172 H178 0.929 . S
C173 C153 1.449 . S
C173 C172 1.399 . S
C173 H179 0.930 . S
H174 C154 0.931 . S
H175 C155 0.930 . S
H176 C163 0.931 . S
H177 C164 0.929 . S
H178 C172 0.929 . S
H179 C173 0.930 . S
Mn180 O185 2.095 . S
Mn180 O195 2.162 . S
Mn180 O196 2.297 . S
Mn180 O204 2.385 . S
Mn180 O205 2.209 . S
Mn180 O206 2.094 . S
Mn181 O186 2.121 . S
Mn181 N188 2.257 . S
Mn181 N197 2.282 . S
Mn181 O205 2.215 . S
Mn181 O207 2.117 . S
C182 O204 1.234 . S
C182 O205 1.283 . S
C183 O195 1.281 . S
C183 O196 1.236 . S
C184 O206 1.240 . S
C184 O207 1.264 . S
O185 Mn180 2.095 . S
O185 C194 1.250 . S
O186 Mn181 2.121 . S
O186 C194 1.258 . S
C187 N188 1.326 . S
C187 C191 1.460 . S
C187 H193 0.929 . S
N188 Mn181 2.257 . S
N188 C187 1.326 . S
N188 C192 1.362 . S
C189 C190 1.258 . S
C189 C192 1.431 . S
C189 C209 1.449 . S
C190 C189 1.258 . S
C190 C191 1.477 . S
C190 H210 0.931 . S
C191 C187 1.460 . S
C191 C190 1.477 . S
C191 H211 0.930 . S
C192 N188 1.362 . S
C192 C189 1.431 . S
C192 C202 1.476 . S
H193 C187 0.929 . S
C194 O185 1.250 . S
C194 O186 1.258 . S
O195 Mn180 2.162 . S
O195 C183 1.281 . S
O196 Mn180 2.297 . S
O196 C183 1.236 . S
N197 Mn181 2.282 . S
N197 C198 1.328 . S
N197 C202 1.318 . S
C198 N197 1.328 . S
C198 C199 1.457 . S
C198 H203 0.929 . S
C199 C198 1.457 . S
C199 C200 1.291 . S
C199 H212 0.931 . S
C200 C199 1.291 . S
C200 C201 1.373 . S
C200 H213 0.929 . S
C201 C200 1.373 . S
C201 C202 1.396 . S
C201 C208 1.403 . S
C202 C192 1.476 . S
C202 N197 1.318 . S
C202 C201 1.396 . S
H203 C198 0.929 . S
O204 Mn180 2.385 . S
O204 C182 1.234 . S
O205 Mn180 2.209 . S
O205 Mn181 2.215 . S
O205 C182 1.283 . S
O206 Mn180 2.094 . S
O206 C184 1.240 . S
O207 Mn181 2.117 . S
O207 C184 1.264 . S
C208 C201 1.403 . S
C208 C209 1.399 . S
C208 H214 0.929 . S
C209 C189 1.449 . S
C209 C208 1.399 . S
C209 H215 0.930 . S
H210 C190 0.931 . S
H211 C191 0.930 . S
H212 C199 0.931 . S
H213 C200 0.929 . S
H214 C208 0.929 . S
H215 C209 0.930 . S
Mn216 O221 2.095 . S
Mn216 O231 2.162 . S
Mn216 O232 2.297 . S
Mn216 O240 2.385 . S
Mn216 O241 2.209 . S
Mn216 O242 2.094 . S
Mn217 O222 2.121 . S
Mn217 N224 2.257 . S
Mn217 N233 2.282 . S
Mn217 O241 2.215 . S
Mn217 O243 2.117 . S
C218 O240 1.234 . S
C218 O241 1.283 . S
C219 O231 1.281 . S
C219 O232 1.236 . S
C220 O242 1.240 . S
C220 O243 1.264 . S
O221 Mn216 2.095 . S
O221 C230 1.250 . S
O222 Mn217 2.121 . S
O222 C230 1.258 . S
C223 N224 1.326 . S
C223 C227 1.460 . S
C223 H229 0.929 . S
N224 Mn217 2.257 . S
N224 C223 1.326 . S
N224 C228 1.362 . S
C225 C226 1.258 . S
C225 C228 1.431 . S
C225 C245 1.449 . S
C226 C225 1.258 . S
C226 C227 1.477 . S
C226 H246 0.931 . S
C227 C223 1.460 . S
C227 C226 1.477 . S
C227 H247 0.930 . S
C228 N224 1.362 . S
C228 C225 1.431 . S
C228 C238 1.476 . S
H229 C223 0.929 . S
C230 O221 1.250 . S
C230 O222 1.258 . S
O231 Mn216 2.162 . S
O231 C219 1.281 . S
O232 Mn216 2.297 . S
O232 C219 1.236 . S
N233 Mn217 2.282 . S
N233 C234 1.328 . S
N233 C238 1.318 . S
C234 N233 1.328 . S
C234 C235 1.457 . S
C234 H239 0.929 . S
C235 C234 1.457 . S
C235 C236 1.291 . S
C235 H248 0.931 . S
C236 C235 1.291 . S
C236 C237 1.373 . S
C236 H249 0.929 . S
C237 C236 1.373 . S
C237 C238 1.396 . S
C237 C244 1.403 . S
C238 C228 1.476 . S
C238 N233 1.318 . S
C238 C237 1.396 . S
H239 C234 0.929 . S
O240 Mn216 2.385 . S
O240 C218 1.234 . S
O241 Mn216 2.209 . S
O241 Mn217 2.215 . S
O241 C218 1.283 . S
O242 Mn216 2.094 . S
O242 C220 1.240 . S
O243 Mn217 2.117 . S
O243 C220 1.264 . S
C244 C237 1.403 . S
C244 C245 1.399 . S
C244 H250 0.929 . S
C245 C225 1.449 . S
C245 C244 1.399 . S
C245 H251 0.930 . S
H246 C226 0.931 . S
H247 C227 0.930 . S
H248 C235 0.931 . S
H249 C236 0.929 . S
H250 C244 0.929 . S
H251 C245 0.930 . S
Mn252 O257 2.095 . S
Mn252 O267 2.162 . S
Mn252 O268 2.297 . S
Mn252 O276 2.385 . S
Mn252 O277 2.209 . S
Mn252 O278 2.094 . S
Mn253 O258 2.121 . S
Mn253 N260 2.257 . S
Mn253 N269 2.282 . S
Mn253 O277 2.215 . S
Mn253 O279 2.117 . S
C254 O276 1.234 . S
C254 O277 1.283 . S
C255 O267 1.281 . S
C255 O268 1.236 . S
C256 O278 1.240 . S
C256 O279 1.264 . S
O257 Mn252 2.095 . S
O257 C266 1.250 . S
O258 Mn253 2.121 . S
O258 C266 1.258 . S
C259 N260 1.326 . S
C259 C263 1.460 . S
C259 H265 0.929 . S
N260 Mn253 2.257 . S
N260 C259 1.326 . S
N260 C264 1.362 . S
C261 C262 1.258 . S
C261 C264 1.431 . S
C261 C281 1.449 . S
C262 C261 1.258 . S
C262 C263 1.477 . S
C262 H282 0.931 . S
C263 C259 1.460 . S
C263 C262 1.477 . S
C263 H283 0.930 . S
C264 N260 1.362 . S
C264 C261 1.431 . S
C264 C274 1.476 . S
H265 C259 0.929 . S
C266 O257 1.250 . S
C266 O258 1.258 . S
O267 Mn252 2.162 . S
O267 C255 1.281 . S
O268 Mn252 2.297 . S
O268 C255 1.236 . S
N269 Mn253 2.282 . S
N269 C270 1.328 . S
N269 C274 1.318 . S
C270 N269 1.328 . S
C270 C271 1.457 . S
C270 H275 0.929 . S
C271 C270 1.457 . S
C271 C272 1.291 . S
C271 H284 0.931 . S
C272 C271 1.291 . S
C272 C273 1.373 . S
C272 H285 0.929 . S
C273 C272 1.373 . S
C273 C274 1.396 . S
C273 C280 1.403 . S
C274 C264 1.476 . S
C274 N269 1.318 . S
C274 C273 1.396 . S
H275 C270 0.929 . S
O276 Mn252 2.385 . S
O276 C254 1.234 . S
O277 Mn252 2.209 . S
O277 Mn253 2.215 . S
O277 C254 1.283 . S
O278 Mn252 2.094 . S
O278 C256 1.240 . S
O279 Mn253 2.117 . S
O279 C256 1.264 . S
C280 C273 1.403 . S
C280 C281 1.399 . S
C280 H286 0.929 . S
C281 C261 1.449 . S
C281 C280 1.399 . S
C281 H287 0.930 . S
H282 C262 0.931 . S
H283 C263 0.930 . S
H284 C271 0.931 . S
H285 C272 0.929 . S
H286 C280 0.929 . S
H287 C281 0.930 . S
Mn288 O293 2.095 . S
Mn288 O303 2.162 . S
Mn288 O304 2.297 . S
Mn288 O312 2.385 . S
Mn288 O313 2.209 . S
Mn288 O314 2.094 . S
Mn289 O294 2.121 . S
Mn289 N296 2.257 . S
Mn289 N305 2.282 . S
Mn289 O313 2.215 . S
Mn289 O315 2.117 . S
C290 O312 1.234 . S
C290 O313 1.283 . S
C291 O303 1.281 . S
C291 O304 1.236 . S
C292 O314 1.240 . S
C292 O315 1.264 . S
O293 Mn288 2.095 . S
O293 C302 1.250 . S
O294 Mn289 2.121 . S
O294 C302 1.258 . S
C295 N296 1.326 . S
C295 C299 1.460 . S
C295 H301 0.929 . S
N296 Mn289 2.257 . S
N296 C295 1.326 . S
N296 C300 1.362 . S
C297 C298 1.258 . S
C297 C300 1.431 . S
C297 C317 1.449 . S
C298 C297 1.258 . S
C298 C299 1.477 . S
C298 H318 0.931 . S
C299 C295 1.460 . S
C299 C298 1.477 . S
C299 H319 0.930 . S
C300 N296 1.362 . S
C300 C297 1.431 . S
C300 C310 1.476 . S
H301 C295 0.929 . S
C302 O293 1.250 . S
C302 O294 1.258 . S
O303 Mn288 2.162 . S
O303 C291 1.281 . S
O304 Mn288 2.297 . S
O304 C291 1.236 . S
N305 Mn289 2.282 . S
N305 C306 1.328 . S
N305 C310 1.318 . S
C306 N305 1.328 . S
C306 C307 1.457 . S
C306 H311 0.929 . S
C307 C306 1.457 . S
C307 C308 1.291 . S
C307 H320 0.931 . S
C308 C307 1.291 . S
C308 C309 1.373 . S
C308 H321 0.929 . S
C309 C308 1.373 . S
C309 C310 1.396 . S
C309 C316 1.403 . S
C310 C300 1.476 . S
C310 N305 1.318 . S
C310 C309 1.396 . S
H311 C306 0.929 . S
O312 Mn288 2.385 . S
O312 C290 1.234 . S
O313 Mn288 2.209 . S
O313 Mn289 2.215 . S
O313 C290 1.283 . S
O314 Mn288 2.094 . S
O314 C292 1.240 . S
O315 Mn289 2.117 . S
O315 C292 1.264 . S
C316 C309 1.403 . S
C316 C317 1.399 . S
C316 H322 0.929 . S
C317 C297 1.449 . S
C317 C316 1.399 . S
C317 H323 0.930 . S
H318 C298 0.931 . S
H319 C299 0.930 . S
H320 C307 0.931 . S
H321 C308 0.929 . S
H322 C316 0.929 . S
H323 C317 0.930 . S
Mn324 O329 2.095 . S
Mn324 O339 2.162 . S
Mn324 O340 2.297 . S
Mn324 O348 2.385 . S
Mn324 O349 2.209 . S
Mn324 O350 2.094 . S
Mn325 O330 2.121 . S
Mn325 N332 2.257 . S
Mn325 N341 2.282 . S
Mn325 O349 2.215 . S
Mn325 O351 2.117 . S
C326 O348 1.234 . S
C326 O349 1.283 . S
C327 O339 1.281 . S
C327 O340 1.236 . S
C328 O350 1.240 . S
C328 O351 1.264 . S
O329 Mn324 2.095 . S
O329 C338 1.250 . S
O330 Mn325 2.121 . S
O330 C338 1.258 . S
C331 N332 1.326 . S
C331 C335 1.460 . S
C331 H337 0.929 . S
N332 Mn325 2.257 . S
N332 C331 1.326 . S
N332 C336 1.362 . S
C333 C334 1.258 . S
C333 C336 1.431 . S
C333 C353 1.449 . S
C334 C333 1.258 . S
C334 C335 1.477 . S
C334 H354 0.931 . S
C335 C331 1.460 . S
C335 C334 1.477 . S
C335 H355 0.930 . S
C336 N332 1.362 . S
C336 C333 1.431 . S
C336 C346 1.476 . S
H337 C331 0.929 . S
C338 O329 1.250 . S
C338 O330 1.258 . S
O339 Mn324 2.162 . S
O339 C327 1.281 . S
O340 Mn324 2.297 . S
O340 C327 1.236 . S
N341 Mn325 2.282 . S
N341 C342 1.328 . S
N341 C346 1.318 . S
C342 N341 1.328 . S
C342 C343 1.457 . S
C342 H347 0.929 . S
C343 C342 1.457 . S
C343 C344 1.291 . S
C343 H356 0.931 . S
C344 C343 1.291 . S
C344 C345 1.373 . S
C344 H357 0.929 . S
C345 C344 1.373 . S
C345 C346 1.396 . S
C345 C352 1.403 . S
C346 C336 1.476 . S
C346 N341 1.318 . S
C346 C345 1.396 . S
H347 C342 0.929 . S
O348 Mn324 2.385 . S
O348 C326 1.234 . S
O349 Mn324 2.209 . S
O349 Mn325 2.215 . S
O349 C326 1.283 . S
O350 Mn324 2.094 . S
O350 C328 1.240 . S
O351 Mn325 2.117 . S
O351 C328 1.264 . S
C352 C345 1.403 . S
C352 C353 1.399 . S
C352 H358 0.929 . S
C353 C333 1.449 . S
C353 C352 1.399 . S
C353 H359 0.930 . S
H354 C334 0.931 . S
H355 C335 0.930 . S
H356 C343 0.931 . S
H357 C344 0.929 . S
H358 C352 0.929 . S
H359 C353 0.930 . S
Mn360 O365 2.095 . S
Mn360 O375 2.162 . S
Mn360 O376 2.297 . S
Mn360 O384 2.385 . S
Mn360 O385 2.209 . S
Mn360 O386 2.094 . S
Mn361 O366 2.121 . S
Mn361 N368 2.257 . S
Mn361 N377 2.282 . S
Mn361 O385 2.215 . S
Mn361 O387 2.117 . S
C362 O384 1.234 . S
C362 O385 1.283 . S
C363 O375 1.281 . S
C363 O376 1.236 . S
C364 O386 1.240 . S
C364 O387 1.264 . S
O365 Mn360 2.095 . S
O365 C374 1.250 . S
O366 Mn361 2.121 . S
O366 C374 1.258 . S
C367 N368 1.326 . S
C367 C371 1.460 . S
C367 H373 0.929 . S
N368 Mn361 2.257 . S
N368 C367 1.326 . S
N368 C372 1.362 . S
C369 C370 1.258 . S
C369 C372 1.431 . S
C369 C389 1.449 . S
C370 C369 1.258 . S
C370 C371 1.477 . S
C370 H390 0.931 . S
C371 C367 1.460 . S
C371 C370 1.477 . S
C371 H391 0.930 . S
C372 N368 1.362 . S
C372 C369 1.431 . S
C372 C382 1.476 . S
H373 C367 0.929 . S
C374 O365 1.250 . S
C374 O366 1.258 . S
O375 Mn360 2.162 . S
O375 C363 1.281 . S
O376 Mn360 2.297 . S
O376 C363 1.236 . S
N377 Mn361 2.282 . S
N377 C378 1.328 . S
N377 C382 1.318 . S
C378 N377 1.328 . S
C378 C379 1.457 . S
C378 H383 0.929 . S
C379 C378 1.457 . S
C379 C380 1.291 . S
C379 H392 0.931 . S
C380 C379 1.291 . S
C380 C381 1.373 . S
C380 H393 0.929 . S
C381 C380 1.373 . S
C381 C382 1.396 . S
C381 C388 1.403 . S
C382 C372 1.476 . S
C382 N377 1.318 . S
C382 C381 1.396 . S
H383 C378 0.929 . S
O384 Mn360 2.385 . S
O384 C362 1.234 . S
O385 Mn360 2.209 . S
O385 Mn361 2.215 . S
O385 C362 1.283 . S
O386 Mn360 2.094 . S
O386 C364 1.240 . S
O387 Mn361 2.117 . S
O387 C364 1.264 . S
C388 C381 1.403 . S
C388 C389 1.399 . S
C388 H394 0.929 . S
C389 C369 1.449 . S
C389 C388 1.399 . S
C389 H395 0.930 . S
H390 C370 0.931 . S
H391 C371 0.930 . S
H392 C379 0.931 . S
H393 C380 0.929 . S
H394 C388 0.929 . S
H395 C389 0.930 . S
Mn396 O401 2.095 . S
Mn396 O411 2.162 . S
Mn396 O412 2.297 . S
Mn396 O420 2.385 . S
Mn396 O421 2.209 . S
Mn396 O422 2.094 . S
Mn397 O402 2.121 . S
Mn397 N404 2.257 . S
Mn397 N413 2.282 . S
Mn397 O421 2.215 . S
Mn397 O423 2.117 . S
C398 O420 1.234 . S
C398 O421 1.283 . S
C399 O411 1.281 . S
C399 O412 1.236 . S
C400 O422 1.240 . S
C400 O423 1.264 . S
O401 Mn396 2.095 . S
O401 C410 1.250 . S
O402 Mn397 2.121 . S
O402 C410 1.258 . S
C403 N404 1.326 . S
C403 C407 1.460 . S
C403 H409 0.929 . S
N404 Mn397 2.257 . S
N404 C403 1.326 . S
N404 C408 1.362 . S
C405 C406 1.258 . S
C405 C408 1.431 . S
C405 C425 1.449 . S
C406 C405 1.258 . S
C406 C407 1.477 . S
C406 H426 0.931 . S
C407 C403 1.460 . S
C407 C406 1.477 . S
C407 H427 0.930 . S
C408 N404 1.362 . S
C408 C405 1.431 . S
C408 C418 1.476 . S
H409 C403 0.929 . S
C410 O401 1.250 . S
C410 O402 1.258 . S
O411 Mn396 2.162 . S
O411 C399 1.281 . S
O412 Mn396 2.297 . S
O412 C399 1.236 . S
N413 Mn397 2.282 . S
N413 C414 1.328 . S
N413 C418 1.318 . S
C414 N413 1.328 . S
C414 C415 1.457 . S
C414 H419 0.929 . S
C415 C414 1.457 . S
C415 C416 1.291 . S
C415 H428 0.931 . S
C416 C415 1.291 . S
C416 C417 1.373 . S
C416 H429 0.929 . S
C417 C416 1.373 . S
C417 C418 1.396 . S
C417 C424 1.403 . S
C418 C408 1.476 . S
C418 N413 1.318 . S
C418 C417 1.396 . S
H419 C414 0.929 . S
O420 Mn396 2.385 . S
O420 C398 1.234 . S
O421 Mn396 2.209 . S
O421 Mn397 2.215 . S
O421 C398 1.283 . S
O422 Mn396 2.094 . S
O422 C400 1.240 . S
O423 Mn397 2.117 . S
O423 C400 1.264 . S
C424 C417 1.403 . S
C424 C425 1.399 . S
C424 H430 0.929 . S
C425 C405 1.449 . S
C425 C424 1.399 . S
C425 H431 0.930 . S
H426 C406 0.931 . S
H427 C407 0.930 . S
H428 C415 0.931 . S
H429 C416 0.929 . S
H430 C424 0.929 . S
H431 C425 0.930 . S
Mn432 O437 2.095 . S
Mn432 O447 2.162 . S
Mn432 O448 2.297 . S
Mn432 O456 2.385 . S
Mn432 O457 2.209 . S
Mn432 O458 2.094 . S
Mn433 O438 2.121 . S
Mn433 N440 2.257 . S
Mn433 N449 2.282 . S
Mn433 O457 2.215 . S
Mn433 O459 2.117 . S
C434 O456 1.234 . S
C434 O457 1.283 . S
C435 O447 1.281 . S
C435 O448 1.236 . S
C436 O458 1.240 . S
C436 O459 1.264 . S
O437 Mn432 2.095 . S
O437 C446 1.250 . S
O438 Mn433 2.121 . S
O438 C446 1.258 . S
C439 N440 1.326 . S
C439 C443 1.460 . S
C439 H445 0.929 . S
N440 Mn433 2.257 . S
N440 C439 1.326 . S
N440 C444 1.362 . S
C441 C442 1.258 . S
C441 C444 1.431 . S
C441 C461 1.449 . S
C442 C441 1.258 . S
C442 C443 1.477 . S
C442 H462 0.931 . S
C443 C439 1.460 . S
C443 C442 1.477 . S
C443 H463 0.930 . S
C444 N440 1.362 . S
C444 C441 1.431 . S
C444 C454 1.476 . S
H445 C439 0.929 . S
C446 O437 1.250 . S
C446 O438 1.258 . S
O447 Mn432 2.162 . S
O447 C435 1.281 . S
O448 Mn432 2.297 . S
O448 C435 1.236 . S
N449 Mn433 2.282 . S
N449 C450 1.328 . S
N449 C454 1.318 . S
C450 N449 1.328 . S
C450 C451 1.457 . S
C450 H455 0.929 . S
C451 C450 1.457 . S
C451 C452 1.291 . S
C451 H464 0.931 . S
C452 C451 1.291 . S
C452 C453 1.373 . S
C452 H465 0.929 . S
C453 C452 1.373 . S
C453 C454 1.396 . S
C453 C460 1.403 . S
C454 C444 1.476 . S
C454 N449 1.318 . S
C454 C453 1.396 . S
H455 C450 0.929 . S
O456 Mn432 2.385 . S
O456 C434 1.234 . S
O457 Mn432 2.209 . S
O457 Mn433 2.215 . S
O457 C434 1.283 . S
O458 Mn432 2.094 . S
O458 C436 1.240 . S
O459 Mn433 2.117 . S
O459 C436 1.264 . S
C460 C453 1.403 . S
C460 C461 1.399 . S
C460 H466 0.929 . S
C461 C441 1.449 . S
C461 C460 1.399 . S
C461 H467 0.930 . S
H462 C442 0.931 . S
H463 C443 0.930 . S
H464 C451 0.931 . S
H465 C452 0.929 . S
H466 C460 0.929 . S
H467 C461 0.930 . S
Mn468 O473 2.095 . S
Mn468 O483 2.162 . S
Mn468 O484 2.297 . S
Mn468 O492 2.385 . S
Mn468 O493 2.209 . S
Mn468 O494 2.094 . S
Mn469 O474 2.121 . S
Mn469 N476 2.257 . S
Mn469 N485 2.282 . S
Mn469 O493 2.215 . S
Mn469 O495 2.117 . S
C470 O492 1.234 . S
C470 O493 1.283 . S
C471 O483 1.281 . S
C471 O484 1.236 . S
C472 O494 1.240 . S
C472 O495 1.264 . S
O473 Mn468 2.095 . S
O473 C482 1.250 . S
O474 Mn469 2.121 . S
O474 C482 1.258 . S
C475 N476 1.326 . S
C475 C479 1.460 . S
C475 H481 0.929 . S
N476 Mn469 2.257 . S
N476 C475 1.326 . S
N476 C480 1.362 . S
C477 C478 1.258 . S
C477 C480 1.431 . S
C477 C497 1.449 . S
C478 C477 1.258 . S
C478 C479 1.477 . S
C478 H498 0.931 . S
C479 C475 1.460 . S
C479 C478 1.477 . S
C479 H499 0.930 . S
C480 N476 1.362 . S
C480 C477 1.431 . S
C480 C490 1.476 . S
H481 C475 0.929 . S
C482 O473 1.250 . S
C482 O474 1.258 . S
O483 Mn468 2.162 . S
O483 C471 1.281 . S
O484 Mn468 2.297 . S
O484 C471 1.236 . S
N485 Mn469 2.282 . S
N485 C486 1.328 . S
N485 C490 1.318 . S
C486 N485 1.328 . S
C486 C487 1.457 . S
C486 H491 0.929 . S
C487 C486 1.457 . S
C487 C488 1.291 . S
C487 H500 0.931 . S
C488 C487 1.291 . S
C488 C489 1.373 . S
C488 H501 0.929 . S
C489 C488 1.373 . S
C489 C490 1.396 . S
C489 C496 1.403 . S
C490 C480 1.476 . S
C490 N485 1.318 . S
C490 C489 1.396 . S
H491 C486 0.929 . S
O492 Mn468 2.385 . S
O492 C470 1.234 . S
O493 Mn468 2.209 . S
O493 Mn469 2.215 . S
O493 C470 1.283 . S
O494 Mn468 2.094 . S
O494 C472 1.240 . S
O495 Mn469 2.117 . S
O495 C472 1.264 . S
C496 C489 1.403 . S
C496 C497 1.399 . S
C496 H502 0.929 . S
C497 C477 1.449 . S
C497 C496 1.399 . S
C497 H503 0.930 . S
H498 C478 0.931 . S
H499 C479 0.930 . S
H500 C487 0.931 . S
H501 C488 0.929 . S
H502 C496 0.929 . S
H503 C497 0.930 . S
Mn504 O509 2.095 . S
Mn504 O519 2.162 . S
Mn504 O520 2.297 . S
Mn504 O528 2.385 . S
Mn504 O529 2.209 . S
Mn504 O530 2.094 . S
Mn505 O510 2.121 . S
Mn505 N512 2.257 . S
Mn505 N521 2.282 . S
Mn505 O529 2.215 . S
Mn505 O531 2.117 . S
C506 O528 1.234 . S
C506 O529 1.283 . S
C507 O519 1.281 . S
C507 O520 1.236 . S
C508 O530 1.240 . S
C508 O531 1.264 . S
O509 Mn504 2.095 . S
O509 C518 1.250 . S
O510 Mn505 2.121 . S
O510 C518 1.258 . S
C511 N512 1.326 . S
C511 C515 1.460 . S
C511 H517 0.929 . S
N512 Mn505 2.257 . S
N512 C511 1.326 . S
N512 C516 1.362 . S
C513 C514 1.258 . S
C513 C516 1.431 . S
C513 C533 1.449 . S
C514 C513 1.258 . S
C514 C515 1.477 . S
C514 H534 0.931 . S
C515 C511 1.460 . S
C515 C514 1.477 . S
C515 H535 0.930 . S
C516 N512 1.362 . S
C516 C513 1.431 . S
C516 C526 1.476 . S
H517 C511 0.929 . S
C518 O509 1.250 . S
C518 O510 1.258 . S
O519 Mn504 2.162 . S
O519 C507 1.281 . S
O520 Mn504 2.297 . S
O520 C507 1.236 . S
N521 Mn505 2.282 . S
N521 C522 1.328 . S
N521 C526 1.318 . S
C522 N521 1.328 . S
C522 C523 1.457 . S
C522 H527 0.929 . S
C523 C522 1.457 . S
C523 C524 1.291 . S
C523 H536 0.931 . S
C524 C523 1.291 . S
C524 C525 1.373 . S
C524 H537 0.929 . S
C525 C524 1.373 . S
C525 C526 1.396 . S
C525 C532 1.403 . S
C526 C516 1.476 . S
C526 N521 1.318 . S
C526 C525 1.396 . S
H527 C522 0.929 . S
O528 Mn504 2.385 . S
O528 C506 1.234 . S
O529 Mn504 2.209 . S
O529 Mn505 2.215 . S
O529 C506 1.283 . S
O530 Mn504 2.094 . S
O530 C508 1.240 . S
O531 Mn505 2.117 . S
O531 C508 1.264 . S
C532 C525 1.403 . S
C532 C533 1.399 . S
C532 H538 0.929 . S
C533 C513 1.449 . S
C533 C532 1.399 . S
C533 H539 0.930 . S
H534 C514 0.931 . S
H535 C515 0.930 . S
H536 C523 0.931 . S
H537 C524 0.929 . S
H538 C532 0.929 . S
H539 C533 0.930 . S
Mn540 O545 2.095 . S
Mn540 O555 2.162 . S
Mn540 O556 2.297 . S
Mn540 O564 2.385 . S
Mn540 O565 2.209 . S
Mn540 O566 2.094 . S
Mn541 O546 2.121 . S
Mn541 N548 2.257 . S
Mn541 N557 2.282 . S
Mn541 O565 2.215 . S
Mn541 O567 2.117 . S
C542 O564 1.234 . S
C542 O565 1.283 . S
C543 O555 1.281 . S
C543 O556 1.236 . S
C544 O566 1.240 . S
C544 O567 1.264 . S
O545 Mn540 2.095 . S
O545 C554 1.250 . S
O546 Mn541 2.121 . S
O546 C554 1.258 . S
C547 N548 1.326 . S
C547 C551 1.460 . S
C547 H553 0.929 . S
N548 Mn541 2.257 . S
N548 C547 1.326 . S
N548 C552 1.362 . S
C549 C550 1.258 . S
C549 C552 1.431 . S
C549 C569 1.449 . S
C550 C549 1.258 . S
C550 C551 1.477 . S
C550 H570 0.931 . S
C551 C547 1.460 . S
C551 C550 1.477 . S
C551 H571 0.930 . S
C552 N548 1.362 . S
C552 C549 1.431 . S
C552 C562 1.476 . S
H553 C547 0.929 . S
C554 O545 1.250 . S
C554 O546 1.258 . S
O555 Mn540 2.162 . S
O555 C543 1.281 . S
O556 Mn540 2.297 . S
O556 C543 1.236 . S
N557 Mn541 2.282 . S
N557 C558 1.328 . S
N557 C562 1.318 . S
C558 N557 1.328 . S
C558 C559 1.457 . S
C558 H563 0.929 . S
C559 C558 1.457 . S
C559 C560 1.291 . S
C559 H572 0.931 . S
C560 C559 1.291 . S
C560 C561 1.373 . S
C560 H573 0.929 . S
C561 C560 1.373 . S
C561 C562 1.396 . S
C561 C568 1.403 . S
C562 C552 1.476 . S
C562 N557 1.318 . S
C562 C561 1.396 . S
H563 C558 0.929 . S
O564 Mn540 2.385 . S
O564 C542 1.234 . S
O565 Mn540 2.209 . S
O565 Mn541 2.215 . S
O565 C542 1.283 . S
O566 Mn540 2.094 . S
O566 C544 1.240 . S
O567 Mn541 2.117 . S
O567 C544 1.264 . S
C568 C561 1.403 . S
C568 C569 1.399 . S
C568 H574 0.929 . S
C569 C549 1.449 . S
C569 C568 1.399 . S
C569 H575 0.930 . S
H570 C550 0.931 . S
H571 C551 0.930 . S
H572 C559 0.931 . S
H573 C560 0.929 . S
H574 C568 0.929 . S
H575 C569 0.930 . S
C576 C577 1.349 . S
C576 C578 1.327 . S
C576 H601 0.950 . S
C577 C576 1.349 . S
C577 C593 1.349 . S
C578 C576 1.327 . S
C578 C597 1.429 . S
C578 H602 0.950 . S
C579 C596 1.574 . S
C579 C598 1.368 . S
C579 H603 0.949 . S
H580 C584 0.949 . S
C581 C582 1.349 . S
C581 C583 1.327 . S
C581 H604 0.950 . S
C582 C581 1.349 . S
C582 C594 1.349 . S
C583 C581 1.327 . S
C583 C599 1.429 . S
C583 H605 0.950 . S
C584 H580 0.949 . S
C584 C592 1.574 . S
C584 C600 1.368 . S
H585 C593 0.950 . S
H586 C591 0.950 . S
H587 C592 0.949 . S
H588 C594 0.950 . S
H589 C595 0.950 . S
H590 C596 0.949 . S
C591 H586 0.950 . S
C591 C593 1.327 . S
C591 C597 1.429 . S
C592 C584 1.574 . S
C592 H587 0.949 . S
C592 C598 1.368 . S
C593 C577 1.349 . S
C593 H585 0.950 . S
C593 C591 1.327 . S
C594 C582 1.349 . S
C594 H588 0.950 . S
C594 C595 1.327 . S
C595 H589 0.950 . S
C595 C594 1.327 . S
C595 C599 1.429 . S
C596 C579 1.574 . S
C596 H590 0.949 . S
C596 C600 1.368 . S
C597 C578 1.429 . S
C597 C591 1.429 . S
C597 C598 1.523 . S
C598 C579 1.368 . S
C598 C592 1.368 . S
C598 C597 1.523 . S
C599 C583 1.429 . S
C599 C595 1.429 . S
C599 C600 1.523 . S
C600 C584 1.368 . S
C600 C596 1.368 . S
C600 C599 1.523 . S
H601 C576 0.950 . S
H602 C578 0.950 . S
H603 C579 0.949 . S
H604 C581 0.950 . S
H605 C583 0.950 . S
C606 C607 1.349 . S
C606 C608 1.327 . S
C606 H631 0.950 . S
C607 C606 1.349 . S
C607 C623 1.349 . S
C608 C606 1.327 . S
C608 C627 1.429 . S
C608 H632 0.950 . S
C609 C626 1.574 . S
C609 C628 1.368 . S
C609 H633 0.949 . S
H610 C614 0.949 . S
C611 C612 1.349 . S
C611 C613 1.327 . S
C611 H634 0.950 . S
C612 C611 1.349 . S
C612 C624 1.349 . S
C613 C611 1.327 . S
C613 C629 1.429 . S
C613 H635 0.950 . S
C614 H610 0.949 . S
C614 C622 1.574 . S
C614 C630 1.368 . S
H615 C623 0.950 . S
H616 C621 0.950 . S
H617 C622 0.949 . S
H618 C624 0.950 . S
H619 C625 0.950 . S
H620 C626 0.949 . S
C621 H616 0.950 . S
C621 C623 1.327 . S
C621 C627 1.429 . S
C622 C614 1.574 . S
C622 H617 0.949 . S
C622 C628 1.368 . S
C623 C607 1.349 . S
C623 H615 0.950 . S
C623 C621 1.327 . S
C624 C612 1.349 . S
C624 H618 0.950 . S
C624 C625 1.327 . S
C625 H619 0.950 . S
C625 C624 1.327 . S
C625 C629 1.429 . S
C626 C609 1.574 . S
C626 H620 0.949 . S
C626 C630 1.368 . S
C627 C608 1.429 . S
C627 C621 1.429 . S
C627 C628 1.523 . S
C628 C609 1.368 . S
C628 C622 1.368 . S
C628 C627 1.523 . S
C629 C613 1.429 . S
C629 C625 1.429 . S
C629 C630 1.523 . S
C630 C614 1.368 . S
C630 C626 1.368 . S
C630 C629 1.523 . S
H631 C606 0.950 . S
H632 C608 0.950 . S
H633 C609 0.949 . S
H634 C611 0.950 . S
H635 C613 0.950 . S
C636 C637 1.349 . S
C636 C638 1.327 . S
C636 H661 0.950 . S
C637 C636 1.349 . S
C637 C653 1.349 . S
C638 C636 1.327 . S
C638 C657 1.429 . S
C638 H662 0.950 . S
C639 C656 1.574 . S
C639 C658 1.368 . S
C639 H663 0.949 . S
H640 C644 0.949 . S
C641 C642 1.349 . S
C641 C643 1.327 . S
C641 H664 0.950 . S
C642 C641 1.349 . S
C642 C654 1.349 . S
C643 C641 1.327 . S
C643 C659 1.429 . S
C643 H665 0.950 . S
C644 H640 0.949 . S
C644 C652 1.574 . S
C644 C660 1.368 . S
H645 C653 0.950 . S
H646 C651 0.950 . S
H647 C652 0.949 . S
H648 C654 0.950 . S
H649 C655 0.950 . S
H650 C656 0.949 . S
C651 H646 0.950 . S
C651 C653 1.327 . S
C651 C657 1.429 . S
C652 C644 1.574 . S
C652 H647 0.949 . S
C652 C658 1.368 . S
C653 C637 1.349 . S
C653 H645 0.950 . S
C653 C651 1.327 . S
C654 C642 1.349 . S
C654 H648 0.950 . S
C654 C655 1.327 . S
C655 H649 0.950 . S
C655 C654 1.327 . S
C655 C659 1.429 . S
C656 C639 1.574 . S
C656 H650 0.949 . S
C656 C660 1.368 . S
C657 C638 1.429 . S
C657 C651 1.429 . S
C657 C658 1.523 . S
C658 C639 1.368 . S
C658 C652 1.368 . S
C658 C657 1.523 . S
C659 C643 1.429 . S
C659 C655 1.429 . S
C659 C660 1.523 . S
C660 C644 1.368 . S
C660 C656 1.368 . S
C660 C659 1.523 . S
H661 C636 0.950 . S
H662 C638 0.950 . S
H663 C639 0.949 . S
H664 C641 0.950 . S
H665 C643 0.950 . S
C666 C667 1.349 . S
C666 C668 1.327 . S
C666 H691 0.950 . S
C667 C666 1.349 . S
C667 C683 1.349 . S
C668 C666 1.327 . S
C668 C687 1.429 . S
C668 H692 0.950 . S
C669 C686 1.574 . S
C669 C688 1.368 . S
C669 H693 0.949 . S
H670 C674 0.949 . S
C671 C672 1.349 . S
C671 C673 1.327 . S
C671 H694 0.950 . S
C672 C671 1.349 . S
C672 C684 1.349 . S
C673 C671 1.327 . S
C673 C689 1.429 . S
C673 H695 0.950 . S
C674 H670 0.949 . S
C674 C682 1.574 . S
C674 C690 1.368 . S
H675 C683 0.950 . S
H676 C681 0.950 . S
H677 C682 0.949 . S
H678 C684 0.950 . S
H679 C685 0.950 . S
H680 C686 0.949 . S
C681 H676 0.950 . S
C681 C683 1.327 . S
C681 C687 1.429 . S
C682 C674 1.574 . S
C682 H677 0.949 . S
C682 C688 1.368 . S
C683 C667 1.349 . S
C683 H675 0.950 . S
C683 C681 1.327 . S
C684 C672 1.349 . S
C684 H678 0.950 . S
C684 C685 1.327 . S
C685 H679 0.950 . S
C685 C684 1.327 . S
C685 C689 1.429 . S
C686 C669 1.574 . S
C686 H680 0.949 . S
C686 C690 1.368 . S
C687 C668 1.429 . S
C687 C681 1.429 . S
C687 C688 1.523 . S
C688 C669 1.368 . S
C688 C682 1.368 . S
C688 C687 1.523 . S
C689 C673 1.429 . S
C689 C685 1.429 . S
C689 C690 1.523 . S
C690 C674 1.368 . S
C690 C686 1.368 . S
C690 C689 1.523 . S
H691 C666 0.950 . S
H692 C668 0.950 . S
H693 C669 0.949 . S
H694 C671 0.950 . S
H695 C673 0.950 . S
C696 C697 1.349 . S
C696 C698 1.327 . S
C696 H721 0.950 . S
C697 C696 1.349 . S
C697 C713 1.349 . S
C698 C696 1.327 . S
C698 C717 1.429 . S
C698 H722 0.950 . S
C699 C716 1.574 . S
C699 C718 1.368 . S
C699 H723 0.949 . S
H700 C704 0.949 . S
C701 C702 1.349 . S
C701 C703 1.327 . S
C701 H724 0.950 . S
C702 C701 1.349 . S
C702 C714 1.349 . S
C703 C701 1.327 . S
C703 C719 1.429 . S
C703 H725 0.950 . S
C704 H700 0.949 . S
C704 C712 1.574 . S
C704 C720 1.368 . S
H705 C713 0.950 . S
H706 C711 0.950 . S
H707 C712 0.949 . S
H708 C714 0.950 . S
H709 C715 0.950 . S
H710 C716 0.949 . S
C711 H706 0.950 . S
C711 C713 1.327 . S
C711 C717 1.429 . S
C712 C704 1.574 . S
C712 H707 0.949 . S
C712 C718 1.368 . S
C713 C697 1.349 . S
C713 H705 0.950 . S
C713 C711 1.327 . S
C714 C702 1.349 . S
C714 H708 0.950 . S
C714 C715 1.327 . S
C715 H709 0.950 . S
C715 C714 1.327 . S
C715 C719 1.429 . S
C716 C699 1.574 . S
C716 H710 0.949 . S
C716 C720 1.368 . S
C717 C698 1.429 . S
C717 C711 1.429 . S
C717 C718 1.523 . S
C718 C699 1.368 . S
C718 C712 1.368 . S
C718 C717 1.523 . S
C719 C703 1.429 . S
C719 C715 1.429 . S
C719 C720 1.523 . S
C720 C704 1.368 . S
C720 C716 1.368 . S
C720 C719 1.523 . S
H721 C696 0.950 . S
H722 C698 0.950 . S
H723 C699 0.949 . S
H724 C701 0.950 . S
H725 C703 0.950 . S
C726 C727 1.349 . S
C726 C728 1.327 . S
C726 H751 0.950 . S
C727 C726 1.349 . S
C727 C743 1.349 . S
C728 C726 1.327 . S
C728 C747 1.429 . S
C728 H752 0.950 . S
C729 C746 1.574 . S
C729 C748 1.368 . S
C729 H753 0.949 . S
H730 C734 0.949 . S
C731 C732 1.349 . S
C731 C733 1.327 . S
C731 H754 0.950 . S
C732 C731 1.349 . S
C732 C744 1.349 . S
C733 C731 1.327 . S
C733 C749 1.429 . S
C733 H755 0.950 . S
C734 H730 0.949 . S
C734 C742 1.574 . S
C734 C750 1.368 . S
H735 C743 0.950 . S
H736 C741 0.950 . S
H737 C742 0.949 . S
H738 C744 0.950 . S
H739 C745 0.950 . S
H740 C746 0.949 . S
C741 H736 0.950 . S
C741 C743 1.327 . S
C741 C747 1.429 . S
C742 C734 1.574 . S
C742 H737 0.949 . S
C742 C748 1.368 . S
C743 C727 1.349 . S
C743 H735 0.950 . S
C743 C741 1.327 . S
C744 C732 1.349 . S
C744 H738 0.950 . S
C744 C745 1.327 . S
C745 H739 0.950 . S
C745 C744 1.327 . S
C745 C749 1.429 . S
C746 C729 1.574 . S
C746 H740 0.949 . S
C746 C750 1.368 . S
C747 C728 1.429 . S
C747 C741 1.429 . S
C747 C748 1.523 . S
C748 C729 1.368 . S
C748 C742 1.368 . S
C748 C747 1.523 . S
C749 C733 1.429 . S
C749 C745 1.429 . S
C749 C750 1.523 . S
C750 C734 1.368 . S
C750 C746 1.368 . S
C750 C749 1.523 . S
H751 C726 0.950 . S
H752 C728 0.950 . S
H753 C729 0.949 . S
H754 C731 0.950 . S
H755 C733 0.950 . S
C756 C757 1.349 . S
C756 C758 1.327 . S
C756 H781 0.950 . S
C757 C756 1.349 . S
C757 C773 1.349 . S
C758 C756 1.327 . S
C758 C777 1.429 . S
C758 H782 0.950 . S
C759 C776 1.574 . S
C759 C778 1.368 . S
C759 H783 0.949 . S
H760 C764 0.949 . S
C761 C762 1.349 . S
C761 C763 1.327 . S
C761 H784 0.950 . S
C762 C761 1.349 . S
C762 C774 1.349 . S
C763 C761 1.327 . S
C763 C779 1.429 . S
C763 H785 0.950 . S
C764 H760 0.949 . S
C764 C772 1.574 . S
C764 C780 1.368 . S
H765 C773 0.950 . S
H766 C771 0.950 . S
H767 C772 0.949 . S
H768 C774 0.950 . S
H769 C775 0.950 . S
H770 C776 0.949 . S
C771 H766 0.950 . S
C771 C773 1.327 . S
C771 C777 1.429 . S
C772 C764 1.574 . S
C772 H767 0.949 . S
C772 C778 1.368 . S
C773 C757 1.349 . S
C773 H765 0.950 . S
C773 C771 1.327 . S
C774 C762 1.349 . S
C774 H768 0.950 . S
C774 C775 1.327 . S
C775 H769 0.950 . S
C775 C774 1.327 . S
C775 C779 1.429 . S
C776 C759 1.574 . S
C776 H770 0.949 . S
C776 C780 1.368 . S
C777 C758 1.429 . S
C777 C771 1.429 . S
C777 C778 1.523 . S
C778 C759 1.368 . S
C778 C772 1.368 . S
C778 C777 1.523 . S
C779 C763 1.429 . S
C779 C775 1.429 . S
C779 C780 1.523 . S
C780 C764 1.368 . S
C780 C776 1.368 . S
C780 C779 1.523 . S
H781 C756 0.950 . S
H782 C758 0.950 . S
H783 C759 0.949 . S
H784 C761 0.950 . S
H785 C763 0.950 . S
C786 C787 1.349 . S
C786 C788 1.327 . S
C786 H811 0.950 . S
C787 C786 1.349 . S
C787 C803 1.349 . S
C788 C786 1.327 . S
C788 C807 1.429 . S
C788 H812 0.950 . S
C789 C806 1.574 . S
C789 C808 1.368 . S
C789 H813 0.949 . S
H790 C794 0.949 . S
C791 C792 1.349 . S
C791 C793 1.327 . S
C791 H814 0.950 . S
C792 C791 1.349 . S
C792 C804 1.349 . S
C793 C791 1.327 . S
C793 C809 1.429 . S
C793 H815 0.950 . S
C794 H790 0.949 . S
C794 C802 1.574 . S
C794 C810 1.368 . S
H795 C803 0.950 . S
H796 C801 0.950 . S
H797 C802 0.949 . S
H798 C804 0.950 . S
H799 C805 0.950 . S
H800 C806 0.949 . S
C801 H796 0.950 . S
C801 C803 1.327 . S
C801 C807 1.429 . S
C802 C794 1.574 . S
C802 H797 0.949 . S
C802 C808 1.368 . S
C803 C787 1.349 . S
C803 H795 0.950 . S
C803 C801 1.327 . S
C804 C792 1.349 . S
C804 H798 0.950 . S
C804 C805 1.327 . S
C805 H799 0.950 . S
C805 C804 1.327 . S
C805 C809 1.429 . S
C806 C789 1.574 . S
C806 H800 0.949 . S
C806 C810 1.368 . S
C807 C788 1.429 . S
C807 C801 1.429 . S
C807 C808 1.523 . S
C808 C789 1.368 . S
C808 C802 1.368 . S
C808 C807 1.523 . S
C809 C793 1.429 . S
C809 C805 1.429 . S
C809 C810 1.523 . S
C810 C794 1.368 . S
C810 C806 1.368 . S
C810 C809 1.523 . S
H811 C786 0.950 . S
H812 C788 0.950 . S
H813 C789 0.949 . S
H814 C791 0.950 . S
H815 C793 0.950 . S
C816 C817 1.349 . S
C816 C818 1.327 . S
C816 H841 0.950 . S
C817 C816 1.349 . S
C817 C833 1.349 . S
C818 C816 1.327 . S
C818 C837 1.429 . S
C818 H842 0.950 . S
C819 C836 1.574 1_556 S
C819 C838 1.368 . S
C819 H843 0.949 . S
H820 C824 0.949 . S
C821 C822 1.349 . S
C821 C823 1.327 . S
C821 H844 0.950 . S
C822 C821 1.349 . S
C822 C834 1.349 . S
C823 C821 1.327 . S
C823 C839 1.429 . S
C823 H845 0.950 . S
C824 H820 0.949 . S
C824 C832 1.574 1_554 S
C824 C840 1.368 . S
H825 C833 0.950 . S
H826 C831 0.950 . S
H827 C832 0.949 . S
H828 C834 0.950 . S
H829 C835 0.950 . S
H830 C836 0.949 . S
C831 H826 0.950 . S
C831 C833 1.327 . S
C831 C837 1.429 . S
C832 C824 1.574 1_556 S
C832 H827 0.949 . S
C832 C838 1.368 . S
C833 C817 1.349 . S
C833 H825 0.950 . S
C833 C831 1.327 . S
C834 C822 1.349 . S
C834 H828 0.950 . S
C834 C835 1.327 . S
C835 H829 0.950 . S
C835 C834 1.327 . S
C835 C839 1.429 . S
C836 C819 1.574 1_554 S
C836 H830 0.949 . S
C836 C840 1.368 . S
C837 C818 1.429 . S
C837 C831 1.429 . S
C837 C838 1.523 . S
C838 C819 1.368 . S
C838 C832 1.368 . S
C838 C837 1.523 . S
C839 C823 1.429 . S
C839 C835 1.429 . S
C839 C840 1.523 . S
C840 C824 1.368 . S
C840 C836 1.368 . S
C840 C839 1.523 . S
H841 C816 0.950 . S
H842 C818 0.950 . S
H843 C819 0.949 . S
H844 C821 0.950 . S
H845 C823 0.950 . S
C846 C847 1.349 . S
C846 C848 1.327 . S
C846 H871 0.950 . S
C847 C846 1.349 . S
C847 C863 1.349 . S
C848 C846 1.327 . S
C848 C867 1.429 . S
C848 H872 0.950 . S
C849 C866 1.574 1_556 S
C849 C868 1.368 . S
C849 H873 0.949 . S
H850 C854 0.949 . S
C851 C852 1.349 . S
C851 C853 1.327 . S
C851 H874 0.950 . S
C852 C851 1.349 . S
C852 C864 1.349 . S
C853 C851 1.327 . S
C853 C869 1.429 . S
C853 H875 0.950 . S
C854 H850 0.949 . S
C854 C862 1.574 1_554 S
C854 C870 1.368 . S
H855 C863 0.950 . S
H856 C861 0.950 . S
H857 C862 0.949 . S
H858 C864 0.950 . S
H859 C865 0.950 . S
H860 C866 0.949 . S
C861 H856 0.950 . S
C861 C863 1.327 . S
C861 C867 1.429 . S
C862 C854 1.574 1_556 S
C862 H857 0.949 . S
C862 C868 1.368 . S
C863 C847 1.349 . S
C863 H855 0.950 . S
C863 C861 1.327 . S
C864 C852 1.349 . S
C864 H858 0.950 . S
C864 C865 1.327 . S
C865 H859 0.950 . S
C865 C864 1.327 . S
C865 C869 1.429 . S
C866 C849 1.574 1_554 S
C866 H860 0.949 . S
C866 C870 1.368 . S
C867 C848 1.429 . S
C867 C861 1.429 . S
C867 C868 1.523 . S
C868 C849 1.368 . S
C868 C862 1.368 . S
C868 C867 1.523 . S
C869 C853 1.429 . S
C869 C865 1.429 . S
C869 C870 1.523 . S
C870 C854 1.368 . S
C870 C866 1.368 . S
C870 C869 1.523 . S
H871 C846 0.950 . S
H872 C848 0.950 . S
H873 C849 0.949 . S
H874 C851 0.950 . S
H875 C853 0.950 . S
C876 C877 1.349 . S
C876 C878 1.327 . S
C876 H901 0.950 . S
C877 C876 1.349 . S
C877 C893 1.349 . S
C878 C876 1.327 . S
C878 C897 1.429 . S
C878 H902 0.950 . S
C879 C896 1.574 1_556 S
C879 C898 1.368 . S
C879 H903 0.949 . S
H880 C884 0.949 . S
C881 C882 1.349 . S
C881 C883 1.327 . S
C881 H904 0.950 . S
C882 C881 1.349 . S
C882 C894 1.349 . S
C883 C881 1.327 . S
C883 C899 1.429 . S
C883 H905 0.950 . S
C884 H880 0.949 . S
C884 C892 1.574 1_554 S
C884 C900 1.368 . S
H885 C893 0.950 . S
H886 C891 0.950 . S
H887 C892 0.949 . S
H888 C894 0.950 . S
H889 C895 0.950 . S
H890 C896 0.949 . S
C891 H886 0.950 . S
C891 C893 1.327 . S
C891 C897 1.429 . S
C892 C884 1.574 1_556 S
C892 H887 0.949 . S
C892 C898 1.368 . S
C893 C877 1.349 . S
C893 H885 0.950 . S
C893 C891 1.327 . S
C894 C882 1.349 . S
C894 H888 0.950 . S
C894 C895 1.327 . S
C895 H889 0.950 . S
C895 C894 1.327 . S
C895 C899 1.429 . S
C896 C879 1.574 1_554 S
C896 H890 0.949 . S
C896 C900 1.368 . S
C897 C878 1.429 . S
C897 C891 1.429 . S
C897 C898 1.523 . S
C898 C879 1.368 . S
C898 C892 1.368 . S
C898 C897 1.523 . S
C899 C883 1.429 . S
C899 C895 1.429 . S
C899 C900 1.523 . S
C900 C884 1.368 . S
C900 C896 1.368 . S
C900 C899 1.523 . S
H901 C876 0.950 . S
H902 C878 0.950 . S
H903 C879 0.949 . S
H904 C881 0.950 . S
H905 C883 0.950 . S
C906 C907 1.349 . S
C906 C908 1.327 . S
C906 H931 0.950 . S
C907 C906 1.349 . S
C907 C923 1.349 . S
C908 C906 1.327 . S
C908 C927 1.429 . S
C908 H932 0.950 . S
C909 C926 1.574 1_554 S
C909 C928 1.368 . S
C909 H933 0.949 . S
H910 C914 0.949 . S
C911 C912 1.349 . S
C911 C913 1.327 . S
C911 H934 0.950 . S
C912 C911 1.349 . S
C912 C924 1.349 . S
C913 C911 1.327 . S
C913 C929 1.429 . S
C913 H935 0.950 . S
C914 H910 0.949 . S
C914 C922 1.574 1_556 S
C914 C930 1.368 . S
H915 C923 0.950 . S
H916 C921 0.950 . S
H917 C922 0.949 . S
H918 C924 0.950 . S
H919 C925 0.950 . S
H920 C926 0.949 . S
C921 H916 0.950 . S
C921 C923 1.327 . S
C921 C927 1.429 . S
C922 C914 1.574 1_554 S
C922 H917 0.949 . S
C922 C928 1.368 . S
C923 C907 1.349 . S
C923 H915 0.950 . S
C923 C921 1.327 . S
C924 C912 1.349 . S
C924 H918 0.950 . S
C924 C925 1.327 . S
C925 H919 0.950 . S
C925 C924 1.327 . S
C925 C929 1.429 . S
C926 C909 1.574 1_556 S
C926 H920 0.949 . S
C926 C930 1.368 . S
C927 C908 1.429 . S
C927 C921 1.429 . S
C927 C928 1.523 . S
C928 C909 1.368 . S
C928 C922 1.368 . S
C928 C927 1.523 . S
C929 C913 1.429 . S
C929 C925 1.429 . S
C929 C930 1.523 . S
C930 C914 1.368 . S
C930 C926 1.368 . S
C930 C929 1.523 . S
H931 C906 0.950 . S
H932 C908 0.950 . S
H933 C909 0.949 . S
H934 C911 0.950 . S
H935 C913 0.950 . S
C936 C937 1.349 . S
C936 C938 1.327 . S
C936 H961 0.950 . S
C937 C936 1.349 . S
C937 C953 1.349 . S
C938 C936 1.327 . S
C938 C957 1.429 . S
C938 H962 0.950 . S
C939 C956 1.574 1_455 S
C939 C958 1.368 . S
C939 H963 0.949 . S
H940 C944 0.949 . S
C941 C942 1.349 . S
C941 C943 1.327 . S
C941 H964 0.950 . S
C942 C941 1.349 . S
C942 C954 1.349 . S
C943 C941 1.327 . S
C943 C959 1.429 . S
C943 H965 0.950 . S
C944 H940 0.949 . S
C944 C952 1.574 1_655 S
C944 C960 1.368 . S
H945 C953 0.950 . S
H946 C951 0.950 . S
H947 C952 0.949 . S
H948 C954 0.950 . S
H949 C955 0.950 . S
H950 C956 0.949 . S
C951 H946 0.950 . S
C951 C953 1.327 . S
C951 C957 1.429 . S
C952 C944 1.574 1_455 S
C952 H947 0.949 . S
C952 C958 1.368 . S
C953 C937 1.349 . S
C953 H945 0.950 . S
C953 C951 1.327 . S
C954 C942 1.349 . S
C954 H948 0.950 . S
C954 C955 1.327 . S
C955 H949 0.950 . S
C955 C954 1.327 . S
C955 C959 1.429 . S
C956 C939 1.574 1_655 S
C956 H950 0.949 . S
C956 C960 1.368 . S
C957 C938 1.429 . S
C957 C951 1.429 . S
C957 C958 1.523 . S
C958 C939 1.368 . S
C958 C952 1.368 . S
C958 C957 1.523 . S
C959 C943 1.429 . S
C959 C955 1.429 . S
C959 C960 1.523 . S
C960 C944 1.368 . S
C960 C956 1.368 . S
C960 C959 1.523 . S
H961 C936 0.950 . S
H962 C938 0.950 . S
H963 C939 0.949 . S
H964 C941 0.950 . S
H965 C943 0.950 . S
C966 C967 1.349 . S
C966 C968 1.327 . S
C966 H991 0.950 . S
C967 C966 1.349 . S
C967 C983 1.349 . S
C968 C966 1.327 . S
C968 C987 1.429 . S
C968 H992 0.950 . S
C969 C986 1.574 1_565 S
C969 C988 1.368 . S
C969 H993 0.949 . S
H970 C974 0.949 . S
C971 C972 1.349 . S
C971 C973 1.327 . S
C971 H994 0.950 . S
C972 C971 1.349 . S
C972 C984 1.349 . S
C973 C971 1.327 . S
C973 C989 1.429 . S
C973 H995 0.950 . S
C974 H970 0.949 . S
C974 C982 1.574 1_545 S
C974 C990 1.368 . S
H975 C983 0.950 . S
H976 C981 0.950 . S
H977 C982 0.949 . S
H978 C984 0.950 . S
H979 C985 0.950 . S
H980 C986 0.949 . S
C981 H976 0.950 . S
C981 C983 1.327 . S
C981 C987 1.429 . S
C982 C974 1.574 1_565 S
C982 H977 0.949 . S
C982 C988 1.368 . S
C983 C967 1.349 . S
C983 H975 0.950 . S
C983 C981 1.327 . S
C984 C972 1.349 . S
C984 H978 0.950 . S
C984 C985 1.327 . S
C985 H979 0.950 . S
C985 C984 1.327 . S
C985 C989 1.429 . S
C986 C969 1.574 1_545 S
C986 H980 0.949 . S
C986 C990 1.368 . S
C987 C968 1.429 . S
C987 C981 1.429 . S
C987 C988 1.523 . S
C988 C969 1.368 . S
C988 C982 1.368 . S
C988 C987 1.523 . S
C989 C973 1.429 . S
C989 C985 1.429 . S
C989 C990 1.523 . S
C990 C974 1.368 . S
C990 C986 1.368 . S
C990 C989 1.523 . S
H991 C966 0.950 . S
H992 C968 0.950 . S
H993 C969 0.949 . S
H994 C971 0.950 . S
H995 C973 0.950 . S
C996 C997 1.349 . S
C996 C998 1.327 . S
C996 H1021 0.950 . S
C997 C996 1.349 . S
C997 C1013 1.349 . S
C998 C996 1.327 . S
C998 C1017 1.429 . S
C998 H1022 0.950 . S
C999 C1016 1.574 1_655 S
C999 C1018 1.368 . S
C999 H1023 0.949 . S
H1000 C1004 0.949 . S
C1001 C1002 1.349 . S
C1001 C1003 1.327 . S
C1001 H1024 0.950 . S
C1002 C1001 1.349 . S
C1002 C1014 1.349 . S
C1003 C1001 1.327 . S
C1003 C1019 1.429 . S
C1003 H1025 0.950 . S
C1004 H1000 0.949 . S
C1004 C1012 1.574 1_455 S
C1004 C1020 1.368 . S
H1005 C1013 0.950 . S
H1006 C1011 0.950 . S
H1007 C1012 0.949 . S
H1008 C1014 0.950 . S
H1009 C1015 0.950 . S
H1010 C1016 0.949 . S
C1011 H1006 0.950 . S
C1011 C1013 1.327 . S
C1011 C1017 1.429 . S
C1012 C1004 1.574 1_655 S
C1012 H1007 0.949 . S
C1012 C1018 1.368 . S
C1013 C997 1.349 . S
C1013 H1005 0.950 . S
C1013 C1011 1.327 . S
C1014 C1002 1.349 . S
C1014 H1008 0.950 . S
C1014 C1015 1.327 . S
C1015 H1009 0.950 . S
C1015 C1014 1.327 . S
C1015 C1019 1.429 . S
C1016 C999 1.574 1_455 S
C1016 H1010 0.949 . S
C1016 C1020 1.368 . S
C1017 C998 1.429 . S
C1017 C1011 1.429 . S
C1017 C1018 1.523 . S
C1018 C999 1.368 . S
C1018 C1012 1.368 . S
C1018 C1017 1.523 . S
C1019 C1003 1.429 . S
C1019 C1015 1.429 . S
C1019 C1020 1.523 . S
C1020 C1004 1.368 . S
C1020 C1016 1.368 . S
C1020 C1019 1.523 . S
H1021 C996 0.950 . S
H1022 C998 0.950 . S
H1023 C999 0.949 . S
H1024 C1001 0.950 . S
H1025 C1003 0.950 . S
C1026 C1027 1.349 . S
C1026 C1028 1.327 . S
C1026 H1051 0.950 . S
C1027 C1026 1.349 . S
C1027 C1043 1.349 . S
C1028 C1026 1.327 . S
C1028 C1047 1.429 . S
C1028 H1052 0.950 . S
C1029 C1046 1.574 1_545 S
C1029 C1048 1.368 . S
C1029 H1053 0.949 . S
H1030 C1034 0.949 . S
C1031 C1032 1.349 . S
C1031 C1033 1.327 . S
C1031 H1054 0.950 . S
C1032 C1031 1.349 . S
C1032 C1044 1.349 . S
C1033 C1031 1.327 . S
C1033 C1049 1.429 . S
C1033 H1055 0.950 . S
C1034 H1030 0.949 . S
C1034 C1042 1.574 1_565 S
C1034 C1050 1.368 . S
H1035 C1043 0.950 . S
H1036 C1041 0.950 . S
H1037 C1042 0.949 . S
H1038 C1044 0.950 . S
H1039 C1045 0.950 . S
H1040 C1046 0.949 . S
C1041 H1036 0.950 . S
C1041 C1043 1.327 . S
C1041 C1047 1.429 . S
C1042 C1034 1.574 1_545 S
C1042 H1037 0.949 . S
C1042 C1048 1.368 . S
C1043 C1027 1.349 . S
C1043 H1035 0.950 . S
C1043 C1041 1.327 . S
C1044 C1032 1.349 . S
C1044 H1038 0.950 . S
C1044 C1045 1.327 . S
C1045 H1039 0.950 . S
C1045 C1044 1.327 . S
C1045 C1049 1.429 . S
C1046 C1029 1.574 1_565 S
C1046 H1040 0.949 . S
C1046 C1050 1.368 . S
C1047 C1028 1.429 . S
C1047 C1041 1.429 . S
C1047 C1048 1.523 . S
C1048 C1029 1.368 . S
C1048 C1042 1.368 . S
C1048 C1047 1.523 . S
C1049 C1033 1.429 . S
C1049 C1045 1.429 . S
C1049 C1050 1.523 . S
C1050 C1034 1.368 . S
C1050 C1046 1.368 . S
C1050 C1049 1.523 . S
H1051 C1026 0.950 . S
H1052 C1028 0.950 . S
H1053 C1029 0.949 . S
H1054 C1031 0.950 . S
H1055 C1033 0.950 . S
C1056 C1057 1.349 . S
C1056 C1058 1.327 . S
C1056 H1081 0.950 . S
C1057 C1056 1.349 . S
C1057 C1073 1.349 . S
C1058 C1056 1.327 . S
C1058 C1077 1.429 . S
C1058 H1082 0.950 . S
C1059 C1076 1.574 1_655 S
C1059 C1078 1.368 . S
C1059 H1083 0.949 . S
H1060 C1064 0.949 . S
C1061 C1062 1.349 . S
C1061 C1063 1.327 . S
C1061 H1084 0.950 . S
C1062 C1061 1.349 . S
C1062 C1074 1.349 . S
C1063 C1061 1.327 . S
C1063 C1079 1.429 . S
C1063 H1085 0.950 . S
C1064 H1060 0.949 . S
C1064 C1072 1.574 1_455 S
C1064 C1080 1.368 . S
H1065 C1073 0.950 . S
H1066 C1071 0.950 . S
H1067 C1072 0.949 . S
H1068 C1074 0.950 . S
H1069 C1075 0.950 . S
H1070 C1076 0.949 . S
C1071 H1066 0.950 . S
C1071 C1073 1.327 . S
C1071 C1077 1.429 . S
C1072 C1064 1.574 1_655 S
C1072 H1067 0.949 . S
C1072 C1078 1.368 . S
C1073 C1057 1.349 . S
C1073 H1065 0.950 . S
C1073 C1071 1.327 . S
C1074 C1062 1.349 . S
C1074 H1068 0.950 . S
C1074 C1075 1.327 . S
C1075 H1069 0.950 . S
C1075 C1074 1.327 . S
C1075 C1079 1.429 . S
C1076 C1059 1.574 1_455 S
C1076 H1070 0.949 . S
C1076 C1080 1.368 . S
C1077 C1058 1.429 . S
C1077 C1071 1.429 . S
C1077 C1078 1.523 . S
C1078 C1059 1.368 . S
C1078 C1072 1.368 . S
C1078 C1077 1.523 . S
C1079 C1063 1.429 . S
C1079 C1075 1.429 . S
C1079 C1080 1.523 . S
C1080 C1064 1.368 . S
C1080 C1076 1.368 . S
C1080 C1079 1.523 . S
H1081 C1056 0.950 . S
H1082 C1058 0.950 . S
H1083 C1059 0.949 . S
H1084 C1061 0.950 . S
H1085 C1063 0.950 . S
C1086 C1087 1.349 . S
C1086 C1088 1.327 . S
C1086 H1111 0.950 . S
C1087 C1086 1.349 . S
C1087 C1103 1.349 . S
C1088 C1086 1.327 . S
C1088 C1107 1.429 . S
C1088 H1112 0.950 . S
C1089 C1106 1.574 1_565 S
C1089 C1108 1.368 . S
C1089 H1113 0.949 . S
H1090 C1094 0.949 . S
C1091 C1092 1.349 . S
C1091 C1093 1.327 . S
C1091 H1114 0.950 . S
C1092 C1091 1.349 . S
C1092 C1104 1.349 . S
C1093 C1091 1.327 . S
C1093 C1109 1.429 . S
C1093 H1115 0.950 . S
C1094 H1090 0.949 . S
C1094 C1102 1.574 1_545 S
C1094 C1110 1.368 . S
H1095 C1103 0.950 . S
H1096 C1101 0.950 . S
H1097 C1102 0.949 . S
H1098 C1104 0.950 . S
H1099 C1105 0.950 . S
H1100 C1106 0.949 . S
C1101 H1096 0.950 . S
C1101 C1103 1.327 . S
C1101 C1107 1.429 . S
C1102 C1094 1.574 1_565 S
C1102 H1097 0.949 . S
C1102 C1108 1.368 . S
C1103 C1087 1.349 . S
C1103 H1095 0.950 . S
C1103 C1101 1.327 . S
C1104 C1092 1.349 . S
C1104 H1098 0.950 . S
C1104 C1105 1.327 . S
C1105 H1099 0.950 . S
C1105 C1104 1.327 . S
C1105 C1109 1.429 . S
C1106 C1089 1.574 1_545 S
C1106 H1100 0.949 . S
C1106 C1110 1.368 . S
C1107 C1088 1.429 . S
C1107 C1101 1.429 . S
C1107 C1108 1.523 . S
C1108 C1089 1.368 . S
C1108 C1102 1.368 . S
C1108 C1107 1.523 . S
C1109 C1093 1.429 . S
C1109 C1105 1.429 . S
C1109 C1110 1.523 . S
C1110 C1094 1.368 . S
C1110 C1106 1.368 . S
C1110 C1109 1.523 . S
H1111 C1086 0.950 . S
H1112 C1088 0.950 . S
H1113 C1089 0.949 . S
H1114 C1091 0.950 . S
H1115 C1093 0.950 . S
C1116 C1117 1.349 . S
C1116 C1118 1.327 . S
C1116 H1141 0.950 . S
C1117 C1116 1.349 . S
C1117 C1133 1.349 . S
C1118 C1116 1.327 . S
C1118 C1137 1.429 . S
C1118 H1142 0.950 . S
C1119 C1136 1.574 1_455 S
C1119 C1138 1.368 . S
C1119 H1143 0.949 . S
H1120 C1124 0.949 . S
C1121 C1122 1.349 . S
C1121 C1123 1.327 . S
C1121 H1144 0.950 . S
C1122 C1121 1.349 . S
C1122 C1134 1.349 . S
C1123 C1121 1.327 . S
C1123 C1139 1.429 . S
C1123 H1145 0.950 . S
C1124 H1120 0.949 . S
C1124 C1132 1.574 1_655 S
C1124 C1140 1.368 . S
H1125 C1133 0.950 . S
H1126 C1131 0.950 . S
H1127 C1132 0.949 . S
H1128 C1134 0.950 . S
H1129 C1135 0.950 . S
H1130 C1136 0.949 . S
C1131 H1126 0.950 . S
C1131 C1133 1.327 . S
C1131 C1137 1.429 . S
C1132 C1124 1.574 1_455 S
C1132 H1127 0.949 . S
C1132 C1138 1.368 . S
C1133 C1117 1.349 . S
C1133 H1125 0.950 . S
C1133 C1131 1.327 . S
C1134 C1122 1.349 . S
C1134 H1128 0.950 . S
C1134 C1135 1.327 . S
C1135 H1129 0.950 . S
C1135 C1134 1.327 . S
C1135 C1139 1.429 . S
C1136 C1119 1.574 1_655 S
C1136 H1130 0.949 . S
C1136 C1140 1.368 . S
C1137 C1118 1.429 . S
C1137 C1131 1.429 . S
C1137 C1138 1.523 . S
C1138 C1119 1.368 . S
C1138 C1132 1.368 . S
C1138 C1137 1.523 . S
C1139 C1123 1.429 . S
C1139 C1135 1.429 . S
C1139 C1140 1.523 . S
C1140 C1124 1.368 . S
C1140 C1136 1.368 . S
C1140 C1139 1.523 . S
H1141 C1116 0.950 . S
H1142 C1118 0.950 . S
H1143 C1119 0.949 . S
H1144 C1121 0.950 . S
H1145 C1123 0.950 . S
C1146 C1147 1.349 . S
C1146 C1148 1.327 . S
C1146 H1171 0.950 . S
C1147 C1146 1.349 . S
C1147 C1163 1.349 . S
C1148 C1146 1.327 . S
C1148 C1167 1.429 . S
C1148 H1172 0.950 . S
C1149 C1166 1.574 1_565 S
C1149 C1168 1.368 . S
C1149 H1173 0.949 . S
H1150 C1154 0.949 . S
C1151 C1152 1.349 . S
C1151 C1153 1.327 . S
C1151 H1174 0.950 . S
C1152 C1151 1.349 . S
C1152 C1164 1.349 . S
C1153 C1151 1.327 . S
C1153 C1169 1.429 . S
C1153 H1175 0.950 . S
C1154 H1150 0.949 . S
C1154 C1162 1.574 1_545 S
C1154 C1170 1.368 . S
H1155 C1163 0.950 . S
H1156 C1161 0.950 . S
H1157 C1162 0.949 . S
H1158 C1164 0.950 . S
H1159 C1165 0.950 . S
H1160 C1166 0.949 . S
C1161 H1156 0.950 . S
C1161 C1163 1.327 . S
C1161 C1167 1.429 . S
C1162 C1154 1.574 1_565 S
C1162 H1157 0.949 . S
C1162 C1168 1.368 . S
C1163 C1147 1.349 . S
C1163 H1155 0.950 . S
C1163 C1161 1.327 . S
C1164 C1152 1.349 . S
C1164 H1158 0.950 . S
C1164 C1165 1.327 . S
C1165 H1159 0.950 . S
C1165 C1164 1.327 . S
C1165 C1169 1.429 . S
C1166 C1149 1.574 1_545 S
C1166 H1160 0.949 . S
C1166 C1170 1.368 . S
C1167 C1148 1.429 . S
C1167 C1161 1.429 . S
C1167 C1168 1.523 . S
C1168 C1149 1.368 . S
C1168 C1162 1.368 . S
C1168 C1167 1.523 . S
C1169 C1153 1.429 . S
C1169 C1165 1.429 . S
C1169 C1170 1.523 . S
C1170 C1154 1.368 . S
C1170 C1166 1.368 . S
C1170 C1169 1.523 . S
H1171 C1146 0.950 . S
H1172 C1148 0.950 . S
H1173 C1149 0.949 . S
H1174 C1151 0.950 . S
H1175 C1153 0.950 . S
C1176 C1177 1.349 . S
C1176 C1178 1.327 . S
C1176 H1201 0.950 . S
C1177 C1176 1.349 . S
C1177 C1193 1.349 . S
C1178 C1176 1.327 . S
C1178 C1197 1.429 . S
C1178 H1202 0.950 . S
C1179 C1196 1.574 . S
C1179 C1198 1.368 . S
C1179 H1203 0.949 . S
H1180 C1184 0.949 . S
C1181 C1182 1.349 . S
C1181 C1183 1.327 . S
C1181 H1204 0.950 . S
C1182 C1181 1.349 . S
C1182 C1194 1.349 . S
C1183 C1181 1.327 . S
C1183 C1199 1.429 . S
C1183 H1205 0.950 . S
C1184 H1180 0.949 . S
C1184 C1192 1.574 . S
C1184 C1200 1.368 . S
H1185 C1193 0.950 . S
H1186 C1191 0.950 . S
H1187 C1192 0.949 . S
H1188 C1194 0.950 . S
H1189 C1195 0.950 . S
H1190 C1196 0.949 . S
C1191 H1186 0.950 . S
C1191 C1193 1.327 . S
C1191 C1197 1.429 . S
C1192 C1184 1.574 . S
C1192 H1187 0.949 . S
C1192 C1198 1.368 . S
C1193 C1177 1.349 . S
C1193 H1185 0.950 . S
C1193 C1191 1.327 . S
C1194 C1182 1.349 . S
C1194 H1188 0.950 . S
C1194 C1195 1.327 . S
C1195 H1189 0.950 . S
C1195 C1194 1.327 . S
C1195 C1199 1.429 . S
C1196 C1179 1.574 . S
C1196 H1190 0.949 . S
C1196 C1200 1.368 . S
C1197 C1178 1.429 . S
C1197 C1191 1.429 . S
C1197 C1198 1.523 . S
C1198 C1179 1.368 . S
C1198 C1192 1.368 . S
C1198 C1197 1.523 . S
C1199 C1183 1.429 . S
C1199 C1195 1.429 . S
C1199 C1200 1.523 . S
C1200 C1184 1.368 . S
C1200 C1196 1.368 . S
C1200 C1199 1.523 . S
H1201 C1176 0.950 . S
H1202 C1178 0.950 . S
H1203 C1179 0.949 . S
H1204 C1181 0.950 . S
H1205 C1183 0.950 . S
C1206 C1207 1.349 . S
C1206 C1208 1.327 . S
C1206 H1231 0.950 . S
C1207 C1206 1.349 . S
C1207 C1223 1.349 . S
C1208 C1206 1.327 . S
C1208 C1227 1.429 . S
C1208 H1232 0.950 . S
C1209 C1226 1.574 . S
C1209 C1228 1.368 . S
C1209 H1233 0.949 . S
H1210 C1214 0.949 . S
C1211 C1212 1.349 . S
C1211 C1213 1.327 . S
C1211 H1234 0.950 . S
C1212 C1211 1.349 . S
C1212 C1224 1.349 . S
C1213 C1211 1.327 . S
C1213 C1229 1.429 . S
C1213 H1235 0.950 . S
C1214 H1210 0.949 . S
C1214 C1222 1.574 . S
C1214 C1230 1.368 . S
H1215 C1223 0.950 . S
H1216 C1221 0.950 . S
H1217 C1222 0.949 . S
H1218 C1224 0.950 . S
H1219 C1225 0.950 . S
H1220 C1226 0.949 . S
C1221 H1216 0.950 . S
C1221 C1223 1.327 . S
C1221 C1227 1.429 . S
C1222 C1214 1.574 . S
C1222 H1217 0.949 . S
C1222 C1228 1.368 . S
C1223 C1207 1.349 . S
C1223 H1215 0.950 . S
C1223 C1221 1.327 . S
C1224 C1212 1.349 . S
C1224 H1218 0.950 . S
C1224 C1225 1.327 . S
C1225 H1219 0.950 . S
C1225 C1224 1.327 . S
C1225 C1229 1.429 . S
C1226 C1209 1.574 . S
C1226 H1220 0.949 . S
C1226 C1230 1.368 . S
C1227 C1208 1.429 . S
C1227 C1221 1.429 . S
C1227 C1228 1.523 . S
C1228 C1209 1.368 . S
C1228 C1222 1.368 . S
C1228 C1227 1.523 . S
C1229 C1213 1.429 . S
C1229 C1225 1.429 . S
C1229 C1230 1.523 . S
C1230 C1214 1.368 . S
C1230 C1226 1.368 . S
C1230 C1229 1.523 . S
H1231 C1206 0.950 . S
H1232 C1208 0.950 . S
H1233 C1209 0.949 . S
H1234 C1211 0.950 . S
H1235 C1213 0.950 . S
C1236 C1237 1.349 . S
C1236 C1238 1.327 . S
C1236 H1261 0.950 . S
C1237 C1236 1.349 . S
C1237 C1253 1.349 . S
C1238 C1236 1.327 . S
C1238 C1257 1.429 . S
C1238 H1262 0.950 . S
C1239 C1256 1.574 . S
C1239 C1258 1.368 . S
C1239 H1263 0.949 . S
H1240 C1244 0.949 . S
C1241 C1242 1.349 . S
C1241 C1243 1.327 . S
C1241 H1264 0.950 . S
C1242 C1241 1.349 . S
C1242 C1254 1.349 . S
C1243 C1241 1.327 . S
C1243 C1259 1.429 . S
C1243 H1265 0.950 . S
C1244 H1240 0.949 . S
C1244 C1252 1.574 . S
C1244 C1260 1.368 . S
H1245 C1253 0.950 . S
H1246 C1251 0.950 . S
H1247 C1252 0.949 . S
H1248 C1254 0.950 . S
H1249 C1255 0.950 . S
H1250 C1256 0.949 . S
C1251 H1246 0.950 . S
C1251 C1253 1.327 . S
C1251 C1257 1.429 . S
C1252 C1244 1.574 . S
C1252 H1247 0.949 . S
C1252 C1258 1.368 . S
C1253 C1237 1.349 . S
C1253 H1245 0.950 . S
C1253 C1251 1.327 . S
C1254 C1242 1.349 . S
C1254 H1248 0.950 . S
C1254 C1255 1.327 . S
C1255 H1249 0.950 . S
C1255 C1254 1.327 . S
C1255 C1259 1.429 . S
C1256 C1239 1.574 . S
C1256 H1250 0.949 . S
C1256 C1260 1.368 . S
C1257 C1238 1.429 . S
C1257 C1251 1.429 . S
C1257 C1258 1.523 . S
C1258 C1239 1.368 . S
C1258 C1252 1.368 . S
C1258 C1257 1.523 . S
C1259 C1243 1.429 . S
C1259 C1255 1.429 . S
C1259 C1260 1.523 . S
C1260 C1244 1.368 . S
C1260 C1256 1.368 . S
C1260 C1259 1.523 . S
H1261 C1236 0.950 . S
H1262 C1238 0.950 . S
H1263 C1239 0.949 . S
H1264 C1241 0.950 . S
H1265 C1243 0.950 . S
C1266 C1267 1.349 . S
C1266 C1268 1.327 . S
C1266 H1291 0.950 . S
C1267 C1266 1.349 . S
C1267 C1283 1.349 . S
C1268 C1266 1.327 . S
C1268 C1287 1.429 . S
C1268 H1292 0.950 . S
C1269 C1286 1.574 . S
C1269 C1288 1.368 . S
C1269 H1293 0.949 . S
H1270 C1274 0.949 . S
C1271 C1272 1.349 . S
C1271 C1273 1.327 . S
C1271 H1294 0.950 . S
C1272 C1271 1.349 . S
C1272 C1284 1.349 . S
C1273 C1271 1.327 . S
C1273 C1289 1.429 . S
C1273 H1295 0.950 . S
C1274 H1270 0.949 . S
C1274 C1282 1.574 . S
C1274 C1290 1.368 . S
H1275 C1283 0.950 . S
H1276 C1281 0.950 . S
H1277 C1282 0.949 . S
H1278 C1284 0.950 . S
H1279 C1285 0.950 . S
H1280 C1286 0.949 . S
C1281 H1276 0.950 . S
C1281 C1283 1.327 . S
C1281 C1287 1.429 . S
C1282 C1274 1.574 . S
C1282 H1277 0.949 . S
C1282 C1288 1.368 . S
C1283 C1267 1.349 . S
C1283 H1275 0.950 . S
C1283 C1281 1.327 . S
C1284 C1272 1.349 . S
C1284 H1278 0.950 . S
C1284 C1285 1.327 . S
C1285 H1279 0.950 . S
C1285 C1284 1.327 . S
C1285 C1289 1.429 . S
C1286 C1269 1.574 . S
C1286 H1280 0.949 . S
C1286 C1290 1.368 . S
C1287 C1268 1.429 . S
C1287 C1281 1.429 . S
C1287 C1288 1.523 . S
C1288 C1269 1.368 . S
C1288 C1282 1.368 . S
C1288 C1287 1.523 . S
C1289 C1273 1.429 . S
C1289 C1285 1.429 . S
C1289 C1290 1.523 . S
C1290 C1274 1.368 . S
C1290 C1286 1.368 . S
C1290 C1289 1.523 . S
H1291 C1266 0.950 . S
H1292 C1268 0.950 . S
H1293 C1269 0.949 . S
H1294 C1271 0.950 . S
H1295 C1273 0.950 . S
C1296 C1297 1.349 . S
C1296 C1298 1.327 . S
C1296 H1321 0.950 . S
C1297 C1296 1.349 . S
C1297 C1313 1.349 . S
C1298 C1296 1.327 . S
C1298 C1317 1.429 . S
C1298 H1322 0.950 . S
C1299 C1316 1.574 . S
C1299 C1318 1.368 . S
C1299 H1323 0.949 . S
H1300 C1304 0.949 . S
C1301 C1302 1.349 . S
C1301 C1303 1.327 . S
C1301 H1324 0.950 . S
C1302 C1301 1.349 . S
C1302 C1314 1.349 . S
C1303 C1301 1.327 . S
C1303 C1319 1.429 . S
C1303 H1325 0.950 . S
C1304 H1300 0.949 . S
C1304 C1312 1.574 . S
C1304 C1320 1.368 . S
H1305 C1313 0.950 . S
H1306 C1311 0.950 . S
H1307 C1312 0.949 . S
H1308 C1314 0.950 . S
H1309 C1315 0.950 . S
H1310 C1316 0.949 . S
C1311 H1306 0.950 . S
C1311 C1313 1.327 . S
C1311 C1317 1.429 . S
C1312 C1304 1.574 . S
C1312 H1307 0.949 . S
C1312 C1318 1.368 . S
C1313 C1297 1.349 . S
C1313 H1305 0.950 . S
C1313 C1311 1.327 . S
C1314 C1302 1.349 . S
C1314 H1308 0.950 . S
C1314 C1315 1.327 . S
C1315 H1309 0.950 . S
C1315 C1314 1.327 . S
C1315 C1319 1.429 . S
C1316 C1299 1.574 . S
C1316 H1310 0.949 . S
C1316 C1320 1.368 . S
C1317 C1298 1.429 . S
C1317 C1311 1.429 . S
C1317 C1318 1.523 . S
C1318 C1299 1.368 . S
C1318 C1312 1.368 . S
C1318 C1317 1.523 . S
C1319 C1303 1.429 . S
C1319 C1315 1.429 . S
C1319 C1320 1.523 . S
C1320 C1304 1.368 . S
C1320 C1316 1.368 . S
C1320 C1319 1.523 . S
H1321 C1296 0.950 . S
H1322 C1298 0.950 . S
H1323 C1299 0.949 . S
H1324 C1301 0.950 . S
H1325 C1303 0.950 . S
C1326 C1327 1.349 . S
C1326 C1328 1.327 . S
C1326 H1351 0.950 . S
C1327 C1326 1.349 . S
C1327 C1343 1.349 . S
C1328 C1326 1.327 . S
C1328 C1347 1.429 . S
C1328 H1352 0.950 . S
C1329 C1346 1.574 . S
C1329 C1348 1.368 . S
C1329 H1353 0.949 . S
H1330 C1334 0.949 . S
C1331 C1332 1.349 . S
C1331 C1333 1.327 . S
C1331 H1354 0.950 . S
C1332 C1331 1.349 . S
C1332 C1344 1.349 . S
C1333 C1331 1.327 . S
C1333 C1349 1.429 . S
C1333 H1355 0.950 . S
C1334 H1330 0.949 . S
C1334 C1342 1.574 . S
C1334 C1350 1.368 . S
H1335 C1343 0.950 . S
H1336 C1341 0.950 . S
H1337 C1342 0.949 . S
H1338 C1344 0.950 . S
H1339 C1345 0.950 . S
H1340 C1346 0.949 . S
C1341 H1336 0.950 . S
C1341 C1343 1.327 . S
C1341 C1347 1.429 . S
C1342 C1334 1.574 . S
C1342 H1337 0.949 . S
C1342 C1348 1.368 . S
C1343 C1327 1.349 . S
C1343 H1335 0.950 . S
C1343 C1341 1.327 . S
C1344 C1332 1.349 . S
C1344 H1338 0.950 . S
C1344 C1345 1.327 . S
C1345 H1339 0.950 . S
C1345 C1344 1.327 . S
C1345 C1349 1.429 . S
C1346 C1329 1.574 . S
C1346 H1340 0.949 . S
C1346 C1350 1.368 . S
C1347 C1328 1.429 . S
C1347 C1341 1.429 . S
C1347 C1348 1.523 . S
C1348 C1329 1.368 . S
C1348 C1342 1.368 . S
C1348 C1347 1.523 . S
C1349 C1333 1.429 . S
C1349 C1345 1.429 . S
C1349 C1350 1.523 . S
C1350 C1334 1.368 . S
C1350 C1346 1.368 . S
C1350 C1349 1.523 . S
H1351 C1326 0.950 . S
H1352 C1328 0.950 . S
H1353 C1329 0.949 . S
H1354 C1331 0.950 . S
H1355 C1333 0.950 . S
C1356 C1357 1.349 . S
C1356 C1358 1.327 . S
C1356 H1381 0.950 . S
C1357 C1356 1.349 . S
C1357 C1373 1.349 . S
C1358 C1356 1.327 . S
C1358 C1377 1.429 . S
C1358 H1382 0.950 . S
C1359 C1376 1.574 . S
C1359 C1378 1.368 . S
C1359 H1383 0.949 . S
H1360 C1364 0.949 . S
C1361 C1362 1.349 . S
C1361 C1363 1.327 . S
C1361 H1384 0.950 . S
C1362 C1361 1.349 . S
C1362 C1374 1.349 . S
C1363 C1361 1.327 . S
C1363 C1379 1.429 . S
C1363 H1385 0.950 . S
C1364 H1360 0.949 . S
C1364 C1372 1.574 . S
C1364 C1380 1.368 . S
H1365 C1373 0.950 . S
H1366 C1371 0.950 . S
H1367 C1372 0.949 . S
H1368 C1374 0.950 . S
H1369 C1375 0.950 . S
H1370 C1376 0.949 . S
C1371 H1366 0.950 . S
C1371 C1373 1.327 . S
C1371 C1377 1.429 . S
C1372 C1364 1.574 . S
C1372 H1367 0.949 . S
C1372 C1378 1.368 . S
C1373 C1357 1.349 . S
C1373 H1365 0.950 . S
C1373 C1371 1.327 . S
C1374 C1362 1.349 . S
C1374 H1368 0.950 . S
C1374 C1375 1.327 . S
C1375 H1369 0.950 . S
C1375 C1374 1.327 . S
C1375 C1379 1.429 . S
C1376 C1359 1.574 . S
C1376 H1370 0.949 . S
C1376 C1380 1.368 . S
C1377 C1358 1.429 . S
C1377 C1371 1.429 . S
C1377 C1378 1.523 . S
C1378 C1359 1.368 . S
C1378 C1372 1.368 . S
C1378 C1377 1.523 . S
C1379 C1363 1.429 . S
C1379 C1375 1.429 . S
C1379 C1380 1.523 . S
C1380 C1364 1.368 . S
C1380 C1376 1.368 . S
C1380 C1379 1.523 . S
H1381 C1356 0.950 . S
H1382 C1358 0.950 . S
H1383 C1359 0.949 . S
H1384 C1361 0.950 . S
H1385 C1363 0.950 . S
C1386 C1387 1.349 . S
C1386 C1388 1.327 . S
C1386 H1411 0.950 . S
C1387 C1386 1.349 . S
C1387 C1403 1.349 . S
C1388 C1386 1.327 . S
C1388 C1407 1.429 . S
C1388 H1412 0.950 . S
C1389 C1406 1.574 . S
C1389 C1408 1.368 . S
C1389 H1413 0.949 . S
H1390 C1394 0.949 . S
C1391 C1392 1.349 . S
C1391 C1393 1.327 . S
C1391 H1414 0.950 . S
C1392 C1391 1.349 . S
C1392 C1404 1.349 . S
C1393 C1391 1.327 . S
C1393 C1409 1.429 . S
C1393 H1415 0.950 . S
C1394 H1390 0.949 . S
C1394 C1402 1.574 . S
C1394 C1410 1.368 . S
H1395 C1403 0.950 . S
H1396 C1401 0.950 . S
H1397 C1402 0.949 . S
H1398 C1404 0.950 . S
H1399 C1405 0.950 . S
H1400 C1406 0.949 . S
C1401 H1396 0.950 . S
C1401 C1403 1.327 . S
C1401 C1407 1.429 . S
C1402 C1394 1.574 . S
C1402 H1397 0.949 . S
C1402 C1408 1.368 . S
C1403 C1387 1.349 . S
C1403 H1395 0.950 . S
C1403 C1401 1.327 . S
C1404 C1392 1.349 . S
C1404 H1398 0.950 . S
C1404 C1405 1.327 . S
C1405 H1399 0.950 . S
C1405 C1404 1.327 . S
C1405 C1409 1.429 . S
C1406 C1389 1.574 . S
C1406 H1400 0.949 . S
C1406 C1410 1.368 . S
C1407 C1388 1.429 . S
C1407 C1401 1.429 . S
C1407 C1408 1.523 . S
C1408 C1389 1.368 . S
C1408 C1402 1.368 . S
C1408 C1407 1.523 . S
C1409 C1393 1.429 . S
C1409 C1405 1.429 . S
C1409 C1410 1.523 . S
C1410 C1394 1.368 . S
C1410 C1406 1.368 . S
C1410 C1409 1.523 . S
H1411 C1386 0.950 . S
H1412 C1388 0.950 . S
H1413 C1389 0.949 . S
H1414 C1391 0.950 . S
H1415 C1393 0.950 . S
C1416 C1417 1.349 . S
C1416 C1418 1.327 . S
C1416 H1441 0.950 . S
C1417 C1416 1.349 . S
C1417 C1433 1.349 . S
C1418 C1416 1.327 . S
C1418 C1437 1.429 . S
C1418 H1442 0.950 . S
C1419 C1436 1.574 . S
C1419 C1438 1.368 . S
C1419 H1443 0.949 . S
H1420 C1424 0.949 . S
C1421 C1422 1.349 . S
C1421 C1423 1.327 . S
C1421 H1444 0.950 . S
C1422 C1421 1.349 . S
C1422 C1434 1.349 . S
C1423 C1421 1.327 . S
C1423 C1439 1.429 . S
C1423 H1445 0.950 . S
C1424 H1420 0.949 . S
C1424 C1432 1.574 . S
C1424 C1440 1.368 . S
H1425 C1433 0.950 . S
H1426 C1431 0.950 . S
H1427 C1432 0.949 . S
H1428 C1434 0.950 . S
H1429 C1435 0.950 . S
H1430 C1436 0.949 . S
C1431 H1426 0.950 . S
C1431 C1433 1.327 . S
C1431 C1437 1.429 . S
C1432 C1424 1.574 . S
C1432 H1427 0.949 . S
C1432 C1438 1.368 . S
C1433 C1417 1.349 . S
C1433 H1425 0.950 . S
C1433 C1431 1.327 . S
C1434 C1422 1.349 . S
C1434 H1428 0.950 . S
C1434 C1435 1.327 . S
C1435 H1429 0.950 . S
C1435 C1434 1.327 . S
C1435 C1439 1.429 . S
C1436 C1419 1.574 . S
C1436 H1430 0.949 . S
C1436 C1440 1.368 . S
C1437 C1418 1.429 . S
C1437 C1431 1.429 . S
C1437 C1438 1.523 . S
C1438 C1419 1.368 . S
C1438 C1432 1.368 . S
C1438 C1437 1.523 . S
C1439 C1423 1.429 . S
C1439 C1435 1.429 . S
C1439 C1440 1.523 . S
C1440 C1424 1.368 . S
C1440 C1436 1.368 . S
C1440 C1439 1.523 . S
H1441 C1416 0.950 . S
H1442 C1418 0.950 . S
H1443 C1419 0.949 . S
H1444 C1421 0.950 . S
H1445 C1423 0.950 . S
C1446 C1447 1.349 . S
C1446 C1448 1.327 . S
C1446 H1471 0.950 . S
C1447 C1446 1.349 . S
C1447 C1463 1.349 . S
C1448 C1446 1.327 . S
C1448 C1467 1.429 . S
C1448 H1472 0.950 . S
C1449 C1466 1.574 . S
C1449 C1468 1.368 . S
C1449 H1473 0.949 . S
H1450 C1454 0.949 . S
C1451 C1452 1.349 . S
C1451 C1453 1.327 . S
C1451 H1474 0.950 . S
C1452 C1451 1.349 . S
C1452 C1464 1.349 . S
C1453 C1451 1.327 . S
C1453 C1469 1.429 . S
C1453 H1475 0.950 . S
C1454 H1450 0.949 . S
C1454 C1462 1.574 . S
C1454 C1470 1.368 . S
H1455 C1463 0.950 . S
H1456 C1461 0.950 . S
H1457 C1462 0.949 . S
H1458 C1464 0.950 . S
H1459 C1465 0.950 . S
H1460 C1466 0.949 . S
C1461 H1456 0.950 . S
C1461 C1463 1.327 . S
C1461 C1467 1.429 . S
C1462 C1454 1.574 . S
C1462 H1457 0.949 . S
C1462 C1468 1.368 . S
C1463 C1447 1.349 . S
C1463 H1455 0.950 . S
C1463 C1461 1.327 . S
C1464 C1452 1.349 . S
C1464 H1458 0.950 . S
C1464 C1465 1.327 . S
C1465 H1459 0.950 . S
C1465 C1464 1.327 . S
C1465 C1469 1.429 . S
C1466 C1449 1.574 . S
C1466 H1460 0.949 . S
C1466 C1470 1.368 . S
C1467 C1448 1.429 . S
C1467 C1461 1.429 . S
C1467 C1468 1.523 . S
C1468 C1449 1.368 . S
C1468 C1462 1.368 . S
C1468 C1467 1.523 . S
C1469 C1453 1.429 . S
C1469 C1465 1.429 . S
C1469 C1470 1.523 . S
C1470 C1454 1.368 . S
C1470 C1466 1.368 . S
C1470 C1469 1.523 . S
H1471 C1446 0.950 . S
H1472 C1448 0.950 . S
H1473 C1449 0.949 . S
H1474 C1451 0.950 . S
H1475 C1453 0.950 . S
C1476 C1477 1.349 . S
C1476 C1478 1.327 . S
C1476 H1501 0.950 . S
C1477 C1476 1.349 . S
C1477 C1493 1.349 . S
C1478 C1476 1.327 . S
C1478 C1497 1.429 . S
C1478 H1502 0.950 . S
C1479 C1496 1.574 . S
C1479 C1498 1.368 . S
C1479 H1503 0.949 . S
H1480 C1484 0.949 . S
C1481 C1482 1.349 . S
C1481 C1483 1.327 . S
C1481 H1504 0.950 . S
C1482 C1481 1.349 . S
C1482 C1494 1.349 . S
C1483 C1481 1.327 . S
C1483 C1499 1.429 . S
C1483 H1505 0.950 . S
C1484 H1480 0.949 . S
C1484 C1492 1.574 . S
C1484 C1500 1.368 . S
H1485 C1493 0.950 . S
H1486 C1491 0.950 . S
H1487 C1492 0.949 . S
H1488 C1494 0.950 . S
H1489 C1495 0.950 . S
H1490 C1496 0.949 . S
C1491 H1486 0.950 . S
C1491 C1493 1.327 . S
C1491 C1497 1.429 . S
C1492 C1484 1.574 . S
C1492 H1487 0.949 . S
C1492 C1498 1.368 . S
C1493 C1477 1.349 . S
C1493 H1485 0.950 . S
C1493 C1491 1.327 . S
C1494 C1482 1.349 . S
C1494 H1488 0.950 . S
C1494 C1495 1.327 . S
C1495 H1489 0.950 . S
C1495 C1494 1.327 . S
C1495 C1499 1.429 . S
C1496 C1479 1.574 . S
C1496 H1490 0.949 . S
C1496 C1500 1.368 . S
C1497 C1478 1.429 . S
C1497 C1491 1.429 . S
C1497 C1498 1.523 . S
C1498 C1479 1.368 . S
C1498 C1492 1.368 . S
C1498 C1497 1.523 . S
C1499 C1483 1.429 . S
C1499 C1495 1.429 . S
C1499 C1500 1.523 . S
C1500 C1484 1.368 . S
C1500 C1496 1.368 . S
C1500 C1499 1.523 . S
H1501 C1476 0.950 . S
H1502 C1478 0.950 . S
H1503 C1479 0.949 . S
H1504 C1481 0.950 . S
H1505 C1483 0.950 . S
C1506 C1507 1.349 . S
C1506 C1508 1.327 . S
C1506 H1531 0.950 . S
C1507 C1506 1.349 . S
C1507 C1523 1.349 . S
C1508 C1506 1.327 . S
C1508 C1527 1.429 . S
C1508 H1532 0.950 . S
C1509 C1526 1.574 . S
C1509 C1528 1.368 . S
C1509 H1533 0.949 . S
H1510 C1514 0.949 . S
C1511 C1512 1.349 . S
C1511 C1513 1.327 . S
C1511 H1534 0.950 . S
C1512 C1511 1.349 . S
C1512 C1524 1.349 . S
C1513 C1511 1.327 . S
C1513 C1529 1.429 . S
C1513 H1535 0.950 . S
C1514 H1510 0.949 . S
C1514 C1522 1.574 . S
C1514 C1530 1.368 . S
H1515 C1523 0.950 . S
H1516 C1521 0.950 . S
H1517 C1522 0.949 . S
H1518 C1524 0.950 . S
H1519 C1525 0.950 . S
H1520 C1526 0.949 . S
C1521 H1516 0.950 . S
C1521 C1523 1.327 . S
C1521 C1527 1.429 . S
C1522 C1514 1.574 . S
C1522 H1517 0.949 . S
C1522 C1528 1.368 . S
C1523 C1507 1.349 . S
C1523 H1515 0.950 . S
C1523 C1521 1.327 . S
C1524 C1512 1.349 . S
C1524 H1518 0.950 . S
C1524 C1525 1.327 . S
C1525 H1519 0.950 . S
C1525 C1524 1.327 . S
C1525 C1529 1.429 . S
C1526 C1509 1.574 . S
C1526 H1520 0.949 . S
C1526 C1530 1.368 . S
C1527 C1508 1.429 . S
C1527 C1521 1.429 . S
C1527 C1528 1.523 . S
C1528 C1509 1.368 . S
C1528 C1522 1.368 . S
C1528 C1527 1.523 . S
C1529 C1513 1.429 . S
C1529 C1525 1.429 . S
C1529 C1530 1.523 . S
C1530 C1514 1.368 . S
C1530 C1526 1.368 . S
C1530 C1529 1.523 . S
H1531 C1506 0.950 . S
H1532 C1508 0.950 . S
H1533 C1509 0.949 . S
H1534 C1511 0.950 . S
H1535 C1513 0.950 . S
C577 C544 0.833 . S
C582 C4 0.833 . S
C607 C436 0.833 . S
C612 C40 0.833 . S
C637 C76 0.833 . S
C642 C472 0.833 . S
C667 C508 0.833 . S
C672 C112 0.833 . S
C697 C328 0.833 . S
C702 C148 0.833 . S
C727 C184 0.833 . S
C732 C364 0.833 . S
C757 C220 0.833 . S
C762 C400 0.833 . S
C787 C256 0.833 . S
C792 C292 0.833 . S
C817 C183 1.380 . S
C822 C14 1.324 . S
C847 C230 1.324 . S
C852 C39 1.380 . S
C877 C255 1.380 . S
C882 C86 1.324 . S
C907 C111 1.380 . S
C912 C158 1.324 . S
C937 C2 1.528 . S
C942 C38 1.528 . S
C967 C75 1.380 . S
C972 C50 1.324 . S
C997 C74 1.528 . S
C1002 C110 1.528 . S
C1027 C3 1.380 . S
C1032 C122 1.324 . S
C1057 C254 1.528 . S
C1062 C146 1.528 . S
C1087 C147 1.380 . S
C1092 C194 1.324 . S
C1117 C182 1.528 . S
C1122 C218 1.528 . S
C1147 C266 1.324 . S
C1152 C219 1.380 . S
C1177 C471 1.380 . S
C1182 C302 1.324 . S
C1207 C327 1.380 . S
C1212 C518 1.324 . S
C1237 C543 1.380 . S
C1242 C374 1.324 . S
C1267 C446 1.324 . S
C1272 C399 1.380 . S
C1297 C290 1.528 . S
C1302 C326 1.528 . S
C1327 C338 1.324 . S
C1332 C363 1.380 . S
C1357 C398 1.528 . S
C1362 C362 1.528 . S
C1387 C291 1.380 . S
C1392 C410 1.324 . S
C1417 C542 1.528 . S
C1422 C434 1.528 . S
C1447 C435 1.380 . S
C1452 C482 1.324 . S
C1477 C470 1.528 . S
C1482 C506 1.528 . S
C1507 C554 1.324 . S
C1512 C507 1.380 . S
