# Generated by pormake.
# Topology unm, (4)-cn, num edge types: 1
# Building blocks:
#     Node 0, Type 0, BuildingBlock: QUQFOY_clean_sbu_3, # of connection points: 4
#     Node 1, Type 0, BuildingBlock: QUQFOY_clean_sbu_3, # of connection points: 4
#     Node 2, Type 0, BuildingBlock: QUQFOY_clean_sbu_3, # of connection points: 4
#     Node 3, Type 0, BuildingBlock: QUQFOY_clean_sbu_3, # of connection points: 4
#     Node 4, Type 0, BuildingBlock: QUQFOY_clean_sbu_3, # of connection points: 4
#     Node 5, Type 0, BuildingBlock: QUQFOY_clean_sbu_3, # of connection points: 4
#     Node 6, Type 0, BuildingBlock: QUQFOY_clean_sbu_3, # of connection points: 4
#     Node 7, Type 0, BuildingBlock: QUQFOY_clean_sbu_3, # of connection points: 4
#     Edge 8, Type (0, 0), BuildingBlock: KIFKEQ_clean_linker_1, # of connection points: 2
#     Edge 9, Type (0, 0), BuildingBlock: KIFKEQ_clean_linker_1, # of connection points: 2
#     Edge 10, Type (0, 0), BuildingBlock: KIFKEQ_clean_linker_1, # of connection points: 2
#     Edge 11, Type (0, 0), BuildingBlock: KIFKEQ_clean_linker_1, # of connection points: 2
#     Edge 12, Type (0, 0), BuildingBlock: KIFKEQ_clean_linker_1, # of connection points: 2
#     Edge 13, Type (0, 0), BuildingBlock: KIFKEQ_clean_linker_1, # of connection points: 2
#     Edge 14, Type (0, 0), BuildingBlock: KIFKEQ_clean_linker_1, # of connection points: 2
#     Edge 15, Type (0, 0), BuildingBlock: KIFKEQ_clean_linker_1, # of connection points: 2
#     Edge 16, Type (0, 0), BuildingBlock: KIFKEQ_clean_linker_1, # of connection points: 2
#     Edge 17, Type (0, 0), BuildingBlock: KIFKEQ_clean_linker_1, # of connection points: 2
#     Edge 18, Type (0, 0), BuildingBlock: KIFKEQ_clean_linker_1, # of connection points: 2
#     Edge 19, Type (0, 0), BuildingBlock: KIFKEQ_clean_linker_1, # of connection points: 2
#     Edge 20, Type (0, 0), BuildingBlock: KIFKEQ_clean_linker_1, # of connection points: 2
#     Edge 21, Type (0, 0), BuildingBlock: KIFKEQ_clean_linker_1, # of connection points: 2
#     Edge 22, Type (0, 0), BuildingBlock: KIFKEQ_clean_linker_1, # of connection points: 2
#     Edge 23, Type (0, 0), BuildingBlock: KIFKEQ_clean_linker_1, # of connection points: 2
# Relax obj value: 0.175
# Max RMSD: 0.148
# Mean RMSD: 0.148
data_MOF--net-unm--node1-QUQFOY_clean_sbu_3--edge1-KIFKEQ_clean_linker_1
_symmetry_space_group_name_H-M    P1
_symmetry_Int_Tables_number       1
_symmetry_cell_setting            triclinic
loop_
_symmetry_equiv_pos_as_xyz
'x, y, z'
_cell_length_a     26.553849
_cell_length_b     26.666857
_cell_length_c     47.279196
_cell_angle_alpha  89.971226
_cell_angle_beta   90.167821
_cell_angle_gamma 90.059194
loop_
_atom_site_label
_atom_site_type_symbol
_atom_site_fract_x
_atom_site_fract_y
_atom_site_fract_z
_atom_type_partial_charge
C0 C 0.07787 0.19913 0.16297 0.0
O1 O 0.06906 0.18243 0.13829 0.0
Cd2 Cd 0.11176 0.21404 0.09706 0.0
O3 O 0.11576 0.22734 0.16768 0.0
Cd4 Cd 0.18916 0.26338 0.14268 0.0
C5 C 0.09784 0.33742 0.11643 0.0
O6 O 0.20047 0.20797 0.10225 0.0
O7 O 0.22943 0.28316 0.09825 0.0
O8 O 0.25053 0.23684 0.17834 0.0
C9 C 0.2234 0.24023 0.08727 0.0
O10 O 0.08787 0.30287 0.09864 0.0
C11 C 0.27041 0.28006 0.18094 0.0
O12 O 0.13054 0.33156 0.13589 0.0
O13 O 0.25145 0.31543 0.16641 0.0
C14 C 0.29312 0.56524 0.66016 0.0
O15 O 0.30183 0.55578 0.6343 0.0
Cd16 Cd 0.26767 0.60031 0.59442 0.0
O17 O 0.26826 0.6042 0.66716 0.0
Cd18 Cd 0.22613 0.67564 0.64299 0.0
C19 C 0.14619 0.58821 0.61712 0.0
O20 O 0.27631 0.68799 0.60054 0.0
O21 O 0.20043 0.71634 0.59929 0.0
O22 O 0.25681 0.74316 0.67352 0.0
C23 C 0.24236 0.7112 0.58689 0.0
O24 O 0.17826 0.57938 0.59776 0.0
C25 C 0.21317 0.7581 0.68068 0.0
O26 O 0.15566 0.61833 0.63736 0.0
O27 O 0.1759 0.73311 0.67135 0.0
C28 C 0.90185 0.79786 0.1591 0.0
O29 O 0.91277 0.80513 0.13327 0.0
Cd30 Cd 0.8711 0.76883 0.09294 0.0
O31 O 0.86289 0.77258 0.16585 0.0
Cd32 Cd 0.79422 0.72648 0.14143 0.0
C33 C 0.88379 0.64803 0.11668 0.0
O34 O 0.78277 0.77296 0.09789 0.0
O35 O 0.75715 0.69621 0.09762 0.0
O36 O 0.71905 0.75656 0.16526 0.0
C37 C 0.76177 0.73741 0.08445 0.0
O38 O 0.89331 0.68038 0.09757 0.0
C39 C 0.70895 0.71514 0.17727 0.0
O40 O 0.85253 0.65672 0.13648 0.0
O41 O 0.73993 0.67938 0.17384 0.0
C42 C 0.68469 0.39858 0.65918 0.0
O43 O 0.67579 0.40714 0.6332 0.0
Cd44 Cd 0.71072 0.36201 0.5939 0.0
O45 O 0.71032 0.36033 0.66664 0.0
Cd46 Cd 0.75406 0.28892 0.64374 0.0
C47 C 0.83196 0.37735 0.61711 0.0
O48 O 0.70383 0.27463 0.60168 0.0
O49 O 0.7797 0.24637 0.6006 0.0
O50 O 0.7241 0.22257 0.67502 0.0
C51 C 0.7376 0.25112 0.58819 0.0
O52 O 0.79971 0.385 0.59756 0.0
C53 C 0.76789 0.20814 0.68237 0.0
O54 O 0.82321 0.34749 0.63756 0.0
O55 O 0.80496 0.23309 0.67285 0.0
C56 C 0.57129 0.29587 0.30751 0.0
O57 O 0.56352 0.30118 0.33384 0.0
Cd58 Cd 0.61026 0.26622 0.37237 0.0
O59 O 0.6102 0.27265 0.29863 0.0
Cd60 Cd 0.68325 0.22754 0.32017 0.0
C61 C 0.59918 0.14514 0.34777 0.0
O62 O 0.697 0.2742 0.36315 0.0
O63 O 0.72728 0.19936 0.36267 0.0
O64 O 0.75506 0.26042 0.29433 0.0
C65 C 0.72137 0.2402 0.37599 0.0
O66 O 0.5896 0.17767 0.36677 0.0
C67 C 0.76517 0.21961 0.28172 0.0
O68 O 0.62943 0.15468 0.32755 0.0
O69 O 0.73539 0.18295 0.28564 0.0
C70 C 0.19065 0.06774 0.79987 0.0
O71 O 0.17537 0.05989 0.82492 0.0
Cd72 Cd 0.20948 0.10055 0.86593 0.0
O73 O 0.22002 0.10445 0.79453 0.0
Cd74 Cd 0.26071 0.17623 0.81948 0.0
C75 C 0.33413 0.08495 0.84677 0.0
O76 O 0.20842 0.18899 0.86102 0.0
O77 O 0.28467 0.21664 0.86325 0.0
O78 O 0.23101 0.24411 0.78912 0.0
C79 C 0.24245 0.21105 0.87529 0.0
O80 O 0.29706 0.07351 0.86261 0.0
C81 C 0.27469 0.25828 0.78154 0.0
O82 O 0.33081 0.11994 0.82847 0.0
O83 O 0.31177 0.23281 0.79066 0.0
C84 C 0.39717 0.69419 0.29585 0.0
O85 O 0.40627 0.67577 0.3201 0.0
Cd86 Cd 0.36857 0.70921 0.36231 0.0
O87 O 0.36084 0.72477 0.29229 0.0
Cd88 Cd 0.2907 0.76359 0.31886 0.0
C89 C 0.38609 0.83368 0.34435 0.0
O90 O 0.27927 0.70942 0.35975 0.0
O91 O 0.25418 0.78604 0.36387 0.0
O92 O 0.22147 0.73587 0.28876 0.0
C93 C 0.25893 0.743 0.37497 0.0
O94 O 0.39702 0.79649 0.36019 0.0
C95 C 0.20685 0.7798 0.28223 0.0
O96 O 0.35035 0.83113 0.32634 0.0
O97 O 0.23252 0.81623 0.29193 0.0
C98 C 0.79201 0.89618 0.7994 0.0
O99 O 0.8071 0.9033 0.82461 0.0
Cd100 Cd 0.77402 0.86096 0.86522 0.0
O101 O 0.76274 0.85962 0.79351 0.0
Cd102 Cd 0.72156 0.78707 0.81731 0.0
C103 C 0.64902 0.87739 0.84638 0.0
O104 O 0.77547 0.77313 0.8579 0.0
O105 O 0.70041 0.74278 0.8605 0.0
O106 O 0.75001 0.72118 0.78554 0.0
C107 C 0.74294 0.7492 0.87218 0.0
O108 O 0.68632 0.88823 0.86231 0.0
C109 C 0.70602 0.70732 0.77822 0.0
O110 O 0.65206 0.84311 0.82767 0.0
O111 O 0.66928 0.73229 0.78807 0.0
H112 H 0.19556 0.15996 0.05456 0.0
H113 H 0.26595 0.30598 0.05047 0.0
H114 H 0.19965 0.15364 0.00302 0.0
H115 H 0.26875 0.30029 -0.00075 0.0
H116 H 0.31251 0.2513 0.91064 0.0
H117 H 0.31009 0.2557 0.96191 0.0
H118 H 0.16033 0.19208 0.96131 0.0
H119 H 0.16332 0.18634 0.90972 0.0
C120 C 0.21224 0.19047 0.04269 0.0
C121 C 0.23042 0.23344 0.05655 0.0
C122 C 0.21405 0.18712 0.01319 0.0
C123 C 0.23417 0.22664 -0.00296 0.0
C124 C 0.25345 0.26898 0.01104 0.0
C125 C 0.25172 0.27229 0.04043 0.0
C126 C 0.27887 0.23855 0.92138 0.0
C127 C 0.23809 0.21845 0.90613 0.0
C128 C 0.27745 0.2412 0.9508 0.0
C129 C 0.23512 0.22404 0.9657 0.0
C130 C 0.19382 0.20486 0.95044 0.0
C131 C 0.19528 0.20211 0.92091 0.0
H132 H 0.32037 0.68643 0.55188 0.0
H133 H 0.17244 0.75387 0.55224 0.0
H134 H 0.32265 0.69329 0.50037 0.0
H135 H 0.17427 0.75967 0.50092 0.0
H136 H 0.2195 0.81017 0.41204 0.0
H137 H 0.21689 0.80416 0.46332 0.0
H138 H 0.28084 0.65543 0.45904 0.0
H139 H 0.28452 0.66188 0.40752 0.0
C140 C 0.28853 0.70302 0.54099 0.0
C141 C 0.24623 0.7196 0.5561 0.0
C142 C 0.2896 0.70643 0.51149 0.0
C143 C 0.24845 0.72663 0.49657 0.0
C144 C 0.20672 0.74428 0.51179 0.0
C145 C 0.20565 0.74086 0.54122 0.0
C146 C 0.23265 0.77598 0.42199 0.0
C147 C 0.25234 0.73652 0.40575 0.0
C148 C 0.23102 0.77251 0.45139 0.0
C149 C 0.24896 0.72946 0.46525 0.0
C150 C 0.26751 0.68942 0.44897 0.0
C151 C 0.26911 0.69288 0.41948 0.0
H152 H 0.72707 0.66319 0.04991 0.0
H153 H 0.78394 0.81512 0.04888 0.0
H154 H 0.72527 0.66263 -0.00157 0.0
H155 H 0.78106 0.8149 -0.00271 0.0
H156 H 0.82118 0.77869 0.9061 0.0
H157 H 0.82512 0.77486 0.95768 0.0
H158 H 0.68042 0.70061 0.95916 0.0
H159 H 0.67699 0.7034 0.90778 0.0
C160 C 0.73862 0.6967 0.03869 0.0
C161 C 0.75574 0.73919 0.05344 0.0
C162 C 0.73751 0.69637 0.00919 0.0
C163 C 0.75342 0.73856 -0.00619 0.0
C164 C 0.76946 0.78149 0.00857 0.0
C165 C 0.77057 0.78182 0.0381 0.0
C166 C 0.79062 0.76088 0.91745 0.0
C167 C 0.74871 0.74152 0.90292 0.0
C168 C 0.79261 0.75918 0.94697 0.0
C169 C 0.75281 0.73795 0.96247 0.0
C170 C 0.71182 0.71694 0.94783 0.0
C171 C 0.70982 0.71867 0.91838 0.0
H172 H 0.69696 0.31654 0.41181 0.0
H173 H 0.76165 0.16789 0.41006 0.0
H174 H 0.70048 0.31591 0.46333 0.0
H175 H 0.76426 0.16694 0.4616 0.0
H176 H 0.65896 0.27545 0.55345 0.0
H177 H 0.65705 0.2719 0.50191 0.0
H178 H 0.8061 0.20705 0.50179 0.0
H179 H 0.80768 0.20967 0.55328 0.0
C180 C 0.71228 0.2839 0.42241 0.0
C181 C 0.72886 0.2422 0.4069 0.0
C182 C 0.71379 0.28332 0.45192 0.0
C183 C 0.732 0.24109 0.46649 0.0
C184 C 0.75019 0.20008 0.45095 0.0
C185 C 0.74864 0.20063 0.42144 0.0
C186 C 0.69101 0.25979 0.54243 0.0
C187 C 0.73357 0.2431 0.55739 0.0
C188 C 0.69013 0.25824 0.51292 0.0
C189 C 0.73173 0.23986 0.49782 0.0
C190 C 0.77342 0.22126 0.51284 0.0
C191 C 0.77433 0.22286 0.54233 0.0
H192 H 0.30081 0.22417 0.22616 0.0
H193 H 0.34007 0.35495 0.17691 0.0
H194 H 0.37512 0.2377 0.25604 0.0
H195 H 0.4153 0.36733 0.2064 0.0
H196 H 0.5725 0.29367 0.24932 0.0
H197 H 0.499 0.29638 0.21779 0.0
H198 H 0.40275 0.32535 0.28918 0.0
H199 H 0.47551 0.32418 0.32063 0.0
C200 C 0.32532 0.25569 0.22172 0.0
C201 C 0.31462 0.28861 0.19933 0.0
C202 C 0.36763 0.26344 0.2388 0.0
C203 C 0.40055 0.30351 0.23336 0.0
C204 C 0.39029 0.33622 0.21087 0.0
C205 C 0.34727 0.32919 0.19418 0.0
C206 C 0.5359 0.30205 0.25819 0.0
C207 C 0.52995 0.30829 0.28755 0.0
C208 C 0.49397 0.30351 0.24016 0.0
C209 C 0.44554 0.31048 0.25129 0.0
C210 C 0.43985 0.31962 0.28026 0.0
C211 C 0.48167 0.31914 0.29818 0.0
H212 H 0.28503 0.82427 0.69859 0.0
H213 H 0.1247 0.79671 0.7006 0.0
H214 H 0.27265 0.90249 0.72428 0.0
H215 H 0.11232 0.87534 0.72615 0.0
H216 H 0.2339 0.06031 0.74753 0.0
H217 H 0.23527 0.9866 0.71708 0.0
H218 H 0.13175 0.91126 0.77315 0.0
H219 H 0.12981 0.98502 0.80347 0.0
C220 C 0.24715 0.83483 0.70457 0.0
C221 C 0.20588 0.80419 0.69763 0.0
C222 C 0.23999 0.87995 0.71902 0.0
C223 C 0.19142 0.89538 0.72698 0.0
C224 C 0.15019 0.86442 0.72036 0.0
C225 C 0.15732 0.81939 0.70574 0.0
C226 C 0.21041 0.02856 0.75303 0.0
C227 C 0.18219 0.02846 0.77816 0.0
C228 C 0.21166 0.9861 0.73572 0.0
C229 C 0.18444 0.94276 0.74303 0.0
C230 C 0.15318 0.94403 0.76694 0.0
C231 C 0.15212 0.98638 0.78434 0.0
H232 H 0.4638 0.61701 0.28766 0.0
H233 H 0.4183 0.76063 0.25419 0.0
H234 H 0.53615 0.61663 0.256 0.0
H235 H 0.49196 0.76273 0.22455 0.0
H236 H 0.61764 0.75263 0.16345 0.0
H237 H 0.53795 0.7391 0.18726 0.0
H238 H 0.61441 0.65025 0.25097 0.0
H239 H 0.69315 0.66027 0.22519 0.0
C240 C 0.46903 0.64822 0.27328 0.0
C241 C 0.43528 0.68871 0.27333 0.0
C242 C 0.51101 0.64851 0.25541 0.0
C243 C 0.52101 0.69005 0.2378 0.0
C244 C 0.48573 0.72948 0.23718 0.0
C245 C 0.44316 0.72843 0.25437 0.0
C246 C 0.61713 0.73015 0.18254 0.0
C247 C 0.66142 0.70796 0.19273 0.0
C248 C 0.57141 0.72252 0.1964 0.0
C249 C 0.56911 0.69401 0.22148 0.0
C250 C 0.61389 0.67164 0.23152 0.0
C251 C 0.65935 0.67787 0.21701 0.0
H252 H 0.85671 0.17025 0.70256 0.0
H253 H 0.69651 0.14179 0.70029 0.0
H254 H 0.86973 0.09125 0.72777 0.0
H255 H 0.70953 0.06322 0.7256 0.0
H256 H 0.85245 0.97902 0.80422 0.0
H257 H 0.85031 0.05379 0.77461 0.0
H258 H 0.74786 0.97964 0.71715 0.0
H259 H 0.74945 0.90493 0.74683 0.0
C260 C 0.82426 0.14733 0.70761 0.0
C261 C 0.77555 0.1623 0.69947 0.0
C262 C 0.83176 0.10209 0.72201 0.0
C263 C 0.79075 0.07075 0.72835 0.0
C264 C 0.74202 0.08608 0.72051 0.0
C265 C 0.73448 0.13139 0.70629 0.0
C266 C 0.83036 0.97816 0.78493 0.0
C267 C 0.80058 0.93613 0.77813 0.0
C268 C 0.82918 0.02107 0.76796 0.0
C269 C 0.79811 0.02291 0.74388 0.0
C270 C 0.7713 0.97965 0.73594 0.0
C271 C 0.77267 0.93664 0.75281 0.0
H272 H 0.85623 0.25867 0.2945 0.0
H273 H 0.77983 0.1661 0.23317 0.0
H274 H 0.93533 0.24617 0.27003 0.0
H275 H 0.858 0.15717 0.2067 0.0
H276 H 0.00932 0.12323 0.17025 0.0
H277 H 0.9361 0.12371 0.20131 0.0
H278 H 0.9811 0.26967 0.23271 0.0
H279 H 0.05559 0.2666 0.20373 0.0
C280 C 0.85637 0.23649 0.2753 0.0
C281 C 0.81203 0.21383 0.26547 0.0
C282 C 0.90177 0.22944 0.26107 0.0
C283 C 0.9037 0.20106 0.23594 0.0
C284 C 0.85881 0.17847 0.22616 0.0
C285 C 0.81367 0.18409 0.24107 0.0
C286 C 0.00399 0.1546 0.18448 0.0
C287 C 0.03836 0.19462 0.18476 0.0
C288 C 0.96154 0.1554 0.202 0.0
C289 C 0.95167 0.19705 0.21952 0.0
C290 C 0.98726 0.23627 0.22022 0.0
C291 C 0.03031 0.23467 0.20342 0.0
H292 H 0.34899 0.47973 0.65374 0.0
H293 H 0.25926 0.56056 0.71471 0.0
H294 H 0.3491 0.40655 0.68468 0.0
H295 H 0.2597 0.48736 0.74562 0.0
H296 H 0.20391 0.32709 0.76602 0.0
H297 H 0.21646 0.4045 0.73955 0.0
H298 H 0.37491 0.37108 0.73183 0.0
H299 H 0.3624 0.29328 0.75839 0.0
C300 C 0.33036 0.48238 0.67403 0.0
C301 C 0.30359 0.52589 0.68156 0.0
C302 C 0.33048 0.4404 0.69177 0.0
C303 C 0.3036 0.44095 0.71731 0.0
C304 C 0.27993 0.48558 0.72578 0.0
C305 C 0.28012 0.5277 0.70817 0.0
C306 C 0.24142 0.3361 0.75863 0.0
C307 C 0.28213 0.30398 0.76425 0.0
C308 C 0.2487 0.38074 0.74372 0.0
C309 C 0.29679 0.39413 0.73389 0.0
C310 C 0.33744 0.3617 0.73914 0.0
C311 C 0.33024 0.3172 0.75433 0.0
H312 H 0.13665 0.7104 0.26674 0.0
H313 H 0.1724 0.86802 0.25968 0.0
H314 H 0.05907 0.72403 0.24021 0.0
H315 H 0.09445 0.88158 0.23294 0.0
H316 H 0.98753 0.85419 0.15322 0.0
H317 H 0.05984 0.85536 0.18514 0.0
H318 H 0.97611 0.76862 0.24614 0.0
H319 H 0.90376 0.7672 0.21432 0.0
C320 C 0.12799 0.74796 0.25949 0.0
C321 C 0.16072 0.7881 0.26524 0.0
C322 C 0.08327 0.75586 0.24455 0.0
C323 C 0.07045 0.80399 0.23479 0.0
C324 C 0.10339 0.84412 0.24025 0.0
C325 C 0.14796 0.83631 0.25552 0.0
C326 C 0.984 0.83649 0.17374 0.0
C327 C 0.94003 0.80998 0.18101 0.0
C328 C 0.02548 0.83722 0.19204 0.0
C329 C 0.02389 0.81122 0.21786 0.0
C330 C 0.97864 0.78817 0.2261 0.0
C331 C 0.93703 0.78779 0.20795 0.0
H332 H 0.71765 0.40451 0.71393 0.0
H333 H 0.62883 0.48392 0.65158 0.0
H334 H 0.7176 0.47871 0.74397 0.0
H335 H 0.62906 0.55812 0.68175 0.0
H336 H 0.61748 0.67316 0.75537 0.0
H337 H 0.60376 0.59513 0.72914 0.0
H338 H 0.76226 0.56103 0.73594 0.0
H339 H 0.77607 0.63866 0.76197 0.0
C340 C 0.69701 0.43727 0.70691 0.0
C341 C 0.67382 0.43842 0.68014 0.0
C342 C 0.69742 0.47993 0.72403 0.0
C343 C 0.67422 0.52444 0.71491 0.0
C344 C 0.64737 0.52436 0.68928 0.0
C345 C 0.64729 0.4818 0.67201 0.0
C346 C 0.6494 0.64908 0.75111 0.0
C347 C 0.69789 0.66208 0.7607 0.0
C348 C 0.6415 0.60446 0.73615 0.0
C349 C 0.68181 0.57174 0.73086 0.0
C350 C 0.7303 0.58507 0.74019 0.0
C351 C 0.73829 0.62981 0.75484 0.0
H352 H 0.90019 0.58558 0.07239 0.0
H353 H 0.93201 0.60603 0.1611 0.0
H354 H 0.9499 0.50885 0.07227 0.0
H355 H 0.98574 0.5324 0.16079 0.0
H356 H 0.04638 0.37583 0.16028 0.0
H357 H -0.00903 0.44819 0.16018 0.0
H358 H 0.02849 0.47579 0.07236 0.0
H359 H 0.07998 0.40012 0.0722 0.0
C360 C 0.91832 0.57356 0.09181 0.0
C361 C 0.91219 0.601 0.1168 0.0
C362 C 0.94738 0.52996 0.09175 0.0
C363 C 0.97244 0.51403 0.1165 0.0
C364 C 0.96623 0.54225 0.14145 0.0
C365 C 0.93571 0.58475 0.14169 0.0
C366 C 0.04256 0.39766 0.14104 0.0
C367 C 0.0673 0.38303 0.11629 0.0
C368 C 0.01109 0.43944 0.14095 0.0
C369 C 0.00513 0.4686 0.11631 0.0
C370 C 0.03092 0.45396 0.09161 0.0
C371 C 0.06098 0.411 0.09149 0.0
H372 H 0.87219 0.4277 0.66121 0.0
H373 H 0.89537 0.39376 0.57308 0.0
H374 H 0.94569 0.48194 0.66108 0.0
H375 H 0.97202 0.44406 0.57321 0.0
H376 H 0.08289 0.57157 0.57288 0.0
H377 H 0.00566 0.52217 0.57296 0.0
H378 H 0.03029 0.48699 0.66144 0.0
H379 H 0.10441 0.54035 0.66156 0.0
C380 C 0.89401 0.43112 0.64197 0.0
C381 C 0.87862 0.40671 0.6172 0.0
C382 C 0.93644 0.46194 0.64184 0.0
C383 C 0.96549 0.46761 0.61715 0.0
C384 C 0.95027 0.44193 0.59248 0.0
C385 C 0.90672 0.41253 0.5924 0.0
C386 C 0.07101 0.55364 0.59232 0.0
C387 C 0.09889 0.55988 0.61726 0.0
C388 C 0.02712 0.52475 0.59239 0.0
C389 C 0.01133 0.49998 0.61719 0.0
C390 C 0.04001 0.50626 0.64207 0.0
C391 C 0.0828 0.53659 0.64219 0.0
H392 H 0.54669 0.1046 0.39175 0.0
H393 H 0.58987 0.0768 0.30503 0.0
H394 H 0.49586 0.02835 0.39145 0.0
H395 H 0.5389 0.00054 0.30487 0.0
H396 H 0.38973 0.91071 0.30637 0.0
H397 H 0.44419 0.98439 0.30781 0.0
H398 H 0.50755 0.93376 0.38703 0.0
H399 H 0.45318 0.8599 0.3857 0.0
C400 C 0.54566 0.08204 0.37271 0.0
C401 C 0.5721 0.09681 0.34836 0.0
C402 C 0.51673 0.03834 0.37261 0.0
C403 C 0.51328 0.00893 0.34808 0.0
C404 C 0.54056 0.023 0.32394 0.0
C405 C 0.56997 0.06639 0.32413 0.0
C406 C 0.41505 0.91538 0.32418 0.0
C407 C 0.41716 0.8795 0.34593 0.0
C408 C 0.44649 0.95731 0.32486 0.0
C409 C 0.48019 0.96443 0.34743 0.0
C410 C 0.48173 0.92912 0.36944 0.0
C411 C 0.45071 0.88686 0.36861 0.0
H412 H 0.42812 0.11141 0.82874 0.0
H413 H 0.34553 -0.00833 0.86936 0.0
H414 H 0.50471 0.06057 0.83062 0.0
H415 H 0.42196 0.94088 0.8708 0.0
H416 H 0.55484 0.85135 0.8283 0.0
H417 H 0.47841 0.90231 0.83028 0.0
H418 H 0.56165 0.02126 0.87105 0.0
H419 H 0.638 0.97028 0.86952 0.0
C420 C 0.42637 0.07438 0.83811 0.0
C421 C 0.38091 0.05548 0.84889 0.0
C422 C 0.47014 0.04549 0.83929 0.0
C423 C 0.46889 -0.00303 0.85079 0.0
C424 C 0.42361 0.97815 0.86171 0.0
C425 C 0.38008 0.00732 0.86099 0.0
C426 C 0.55673 0.88823 0.83785 0.0
C427 C 0.60231 0.90686 0.84876 0.0
C428 C 0.51306 0.9172 0.83906 0.0
C429 C 0.51449 0.96556 0.85075 0.0
C430 C 0.55987 0.98412 0.86181 0.0
C431 C 0.60334 0.95484 0.86106 0.0
loop_
_geom_bond_atom_site_label_1
_geom_bond_atom_site_label_2
_geom_bond_distance
_geom_bond_site_symmetry_2
_ccdc_geom_bond_type
C0 O1 1.306 . S
C0 O3 1.160 . S
O1 C0 1.306 . S
O1 Cd2 2.228 . S
Cd2 O1 2.228 . S
Cd2 O6 2.273 . S
Cd2 O10 2.277 . S
O3 C0 1.160 . S
O3 Cd4 2.203 . S
Cd4 O3 2.203 . S
Cd4 O6 2.411 . S
Cd4 O7 2.333 . S
Cd4 O8 2.352 . S
Cd4 O12 2.277 . S
Cd4 O13 2.356 . S
C5 O10 1.209 . S
C5 O12 1.226 . S
O6 Cd2 2.273 . S
O6 Cd4 2.411 . S
O6 C9 1.320 . S
O7 Cd4 2.333 . S
O7 C9 1.214 . S
O8 Cd4 2.352 . S
O8 C11 1.258 . S
C9 O6 1.320 . S
C9 O7 1.214 . S
O10 Cd2 2.277 . S
O10 C5 1.209 . S
C11 O8 1.258 . S
C11 O13 1.282 . S
O12 Cd4 2.277 . S
O12 C5 1.226 . S
O13 Cd4 2.356 . S
O13 C11 1.282 . S
C14 O15 1.306 . S
C14 O17 1.160 . S
O15 C14 1.306 . S
O15 Cd16 2.228 . S
Cd16 O15 2.228 . S
Cd16 O20 2.273 . S
Cd16 O24 2.277 . S
O17 C14 1.160 . S
O17 Cd18 2.203 . S
Cd18 O17 2.203 . S
Cd18 O20 2.411 . S
Cd18 O21 2.333 . S
Cd18 O22 2.352 . S
Cd18 O26 2.277 . S
Cd18 O27 2.356 . S
C19 O24 1.209 . S
C19 O26 1.226 . S
O20 Cd16 2.273 . S
O20 Cd18 2.411 . S
O20 C23 1.320 . S
O21 Cd18 2.333 . S
O21 C23 1.214 . S
O22 Cd18 2.352 . S
O22 C25 1.258 . S
C23 O20 1.320 . S
C23 O21 1.214 . S
O24 Cd16 2.277 . S
O24 C19 1.209 . S
C25 O22 1.258 . S
C25 O27 1.282 . S
O26 Cd18 2.277 . S
O26 C19 1.226 . S
O27 Cd18 2.356 . S
O27 C25 1.282 . S
C28 O29 1.306 . S
C28 O31 1.160 . S
O29 C28 1.306 . S
O29 Cd30 2.228 . S
Cd30 O29 2.228 . S
Cd30 O34 2.273 . S
Cd30 O38 2.277 . S
O31 C28 1.160 . S
O31 Cd32 2.203 . S
Cd32 O31 2.203 . S
Cd32 O34 2.411 . S
Cd32 O35 2.333 . S
Cd32 O36 2.352 . S
Cd32 O40 2.277 . S
Cd32 O41 2.356 . S
C33 O38 1.209 . S
C33 O40 1.226 . S
O34 Cd30 2.273 . S
O34 Cd32 2.411 . S
O34 C37 1.320 . S
O35 Cd32 2.333 . S
O35 C37 1.214 . S
O36 Cd32 2.352 . S
O36 C39 1.258 . S
C37 O34 1.320 . S
C37 O35 1.214 . S
O38 Cd30 2.277 . S
O38 C33 1.209 . S
C39 O36 1.258 . S
C39 O41 1.282 . S
O40 Cd32 2.277 . S
O40 C33 1.226 . S
O41 Cd32 2.356 . S
O41 C39 1.282 . S
C42 O43 1.306 . S
C42 O45 1.160 . S
O43 C42 1.306 . S
O43 Cd44 2.228 . S
Cd44 O43 2.228 . S
Cd44 O48 2.273 . S
Cd44 O52 2.277 . S
O45 C42 1.160 . S
O45 Cd46 2.203 . S
Cd46 O45 2.203 . S
Cd46 O48 2.411 . S
Cd46 O49 2.333 . S
Cd46 O50 2.352 . S
Cd46 O54 2.277 . S
Cd46 O55 2.356 . S
C47 O52 1.209 . S
C47 O54 1.226 . S
O48 Cd44 2.273 . S
O48 Cd46 2.411 . S
O48 C51 1.320 . S
O49 Cd46 2.333 . S
O49 C51 1.214 . S
O50 Cd46 2.352 . S
O50 C53 1.258 . S
C51 O48 1.320 . S
C51 O49 1.214 . S
O52 Cd44 2.277 . S
O52 C47 1.209 . S
C53 O50 1.258 . S
C53 O55 1.282 . S
O54 Cd46 2.277 . S
O54 C47 1.226 . S
O55 Cd46 2.356 . S
O55 C53 1.282 . S
C56 O57 1.306 . S
C56 O59 1.160 . S
O57 C56 1.306 . S
O57 Cd58 2.228 . S
Cd58 O57 2.228 . S
Cd58 O62 2.273 . S
Cd58 O66 2.277 . S
O59 C56 1.160 . S
O59 Cd60 2.203 . S
Cd60 O59 2.203 . S
Cd60 O62 2.411 . S
Cd60 O63 2.333 . S
Cd60 O64 2.352 . S
Cd60 O68 2.277 . S
Cd60 O69 2.356 . S
C61 O66 1.209 . S
C61 O68 1.226 . S
O62 Cd58 2.273 . S
O62 Cd60 2.411 . S
O62 C65 1.320 . S
O63 Cd60 2.333 . S
O63 C65 1.214 . S
O64 Cd60 2.352 . S
O64 C67 1.258 . S
C65 O62 1.320 . S
C65 O63 1.214 . S
O66 Cd58 2.277 . S
O66 C61 1.209 . S
C67 O64 1.258 . S
C67 O69 1.282 . S
O68 Cd60 2.277 . S
O68 C61 1.226 . S
O69 Cd60 2.356 . S
O69 C67 1.282 . S
C70 O71 1.306 . S
C70 O73 1.160 . S
O71 C70 1.306 . S
O71 Cd72 2.228 . S
Cd72 O71 2.228 . S
Cd72 O76 2.273 . S
Cd72 O80 2.277 . S
O73 C70 1.160 . S
O73 Cd74 2.203 . S
Cd74 O73 2.203 . S
Cd74 O76 2.411 . S
Cd74 O77 2.333 . S
Cd74 O78 2.352 . S
Cd74 O82 2.277 . S
Cd74 O83 2.356 . S
C75 O80 1.209 . S
C75 O82 1.226 . S
O76 Cd72 2.273 . S
O76 Cd74 2.411 . S
O76 C79 1.320 . S
O77 Cd74 2.333 . S
O77 C79 1.214 . S
O78 Cd74 2.352 . S
O78 C81 1.258 . S
C79 O76 1.320 . S
C79 O77 1.214 . S
O80 Cd72 2.277 . S
O80 C75 1.209 . S
C81 O78 1.258 . S
C81 O83 1.282 . S
O82 Cd74 2.277 . S
O82 C75 1.226 . S
O83 Cd74 2.356 . S
O83 C81 1.282 . S
C84 O85 1.306 . S
C84 O87 1.160 . S
O85 C84 1.306 . S
O85 Cd86 2.228 . S
Cd86 O85 2.228 . S
Cd86 O90 2.273 . S
Cd86 O94 2.277 . S
O87 C84 1.160 . S
O87 Cd88 2.203 . S
Cd88 O87 2.203 . S
Cd88 O90 2.411 . S
Cd88 O91 2.333 . S
Cd88 O92 2.352 . S
Cd88 O96 2.277 . S
Cd88 O97 2.356 . S
C89 O94 1.209 . S
C89 O96 1.226 . S
O90 Cd86 2.273 . S
O90 Cd88 2.411 . S
O90 C93 1.320 . S
O91 Cd88 2.333 . S
O91 C93 1.214 . S
O92 Cd88 2.352 . S
O92 C95 1.258 . S
C93 O90 1.320 . S
C93 O91 1.214 . S
O94 Cd86 2.277 . S
O94 C89 1.209 . S
C95 O92 1.258 . S
C95 O97 1.282 . S
O96 Cd88 2.277 . S
O96 C89 1.226 . S
O97 Cd88 2.356 . S
O97 C95 1.282 . S
C98 O99 1.306 . S
C98 O101 1.160 . S
O99 C98 1.306 . S
O99 Cd100 2.228 . S
Cd100 O99 2.228 . S
Cd100 O104 2.273 . S
Cd100 O108 2.277 . S
O101 C98 1.160 . S
O101 Cd102 2.203 . S
Cd102 O101 2.203 . S
Cd102 O104 2.411 . S
Cd102 O105 2.333 . S
Cd102 O106 2.352 . S
Cd102 O110 2.277 . S
Cd102 O111 2.356 . S
C103 O108 1.209 . S
C103 O110 1.226 . S
O104 Cd100 2.273 . S
O104 Cd102 2.411 . S
O104 C107 1.320 . S
O105 Cd102 2.333 . S
O105 C107 1.214 . S
O106 Cd102 2.352 . S
O106 C109 1.258 . S
C107 O104 1.320 . S
C107 O105 1.214 . S
O108 Cd100 2.277 . S
O108 C103 1.209 . S
C109 O106 1.258 . S
C109 O111 1.282 . S
O110 Cd102 2.277 . S
O110 C103 1.226 . S
O111 Cd102 2.356 . S
O111 C109 1.282 . S
H112 C120 0.950 . S
H113 C125 0.950 . S
H114 C122 0.950 . S
H115 C124 0.950 . S
H116 C126 0.950 . S
H117 C128 0.950 . S
H118 C130 0.950 . S
H119 C131 0.950 . S
C120 H112 0.950 . S
C120 C121 1.386 . S
C120 C122 1.391 . S
C121 C120 1.386 . S
C121 C125 1.393 . S
C122 H114 0.950 . S
C122 C120 1.391 . S
C122 C123 1.400 . S
C123 C122 1.400 . S
C123 C124 1.398 . S
C123 C129 1.491 1_554 S
C124 H115 0.950 . S
C124 C123 1.398 . S
C124 C125 1.391 . S
C125 H113 0.950 . S
C125 C121 1.393 . S
C125 C124 1.391 . S
C126 H116 0.950 . S
C126 C127 1.386 . S
C126 C128 1.391 . S
C127 C126 1.386 . S
C127 C131 1.393 . S
C128 H117 0.950 . S
C128 C126 1.391 . S
C128 C129 1.400 . S
C129 C123 1.491 1_556 S
C129 C128 1.400 . S
C129 C130 1.398 . S
C130 H118 0.950 . S
C130 C129 1.398 . S
C130 C131 1.391 . S
C131 H119 0.950 . S
C131 C127 1.393 . S
C131 C130 1.391 . S
H132 C140 0.950 . S
H133 C145 0.950 . S
H134 C142 0.950 . S
H135 C144 0.950 . S
H136 C146 0.950 . S
H137 C148 0.950 . S
H138 C150 0.950 . S
H139 C151 0.950 . S
C140 H132 0.950 . S
C140 C141 1.386 . S
C140 C142 1.391 . S
C141 C140 1.386 . S
C141 C145 1.393 . S
C142 H134 0.950 . S
C142 C140 1.391 . S
C142 C143 1.400 . S
C143 C142 1.400 . S
C143 C144 1.398 . S
C143 C149 1.491 . S
C144 H135 0.950 . S
C144 C143 1.398 . S
C144 C145 1.391 . S
C145 H133 0.950 . S
C145 C141 1.393 . S
C145 C144 1.391 . S
C146 H136 0.950 . S
C146 C147 1.386 . S
C146 C148 1.391 . S
C147 C146 1.386 . S
C147 C151 1.393 . S
C148 H137 0.950 . S
C148 C146 1.391 . S
C148 C149 1.400 . S
C149 C143 1.491 . S
C149 C148 1.400 . S
C149 C150 1.398 . S
C150 H138 0.950 . S
C150 C149 1.398 . S
C150 C151 1.391 . S
C151 H139 0.950 . S
C151 C147 1.393 . S
C151 C150 1.391 . S
H152 C160 0.950 . S
H153 C165 0.950 . S
H154 C162 0.950 . S
H155 C164 0.950 . S
H156 C166 0.950 . S
H157 C168 0.950 . S
H158 C170 0.950 . S
H159 C171 0.950 . S
C160 H152 0.950 . S
C160 C161 1.386 . S
C160 C162 1.391 . S
C161 C160 1.386 . S
C161 C165 1.393 . S
C162 H154 0.950 . S
C162 C160 1.391 . S
C162 C163 1.400 . S
C163 C162 1.400 . S
C163 C164 1.398 . S
C163 C169 1.491 1_554 S
C164 H155 0.950 . S
C164 C163 1.398 . S
C164 C165 1.391 . S
C165 H153 0.950 . S
C165 C161 1.393 . S
C165 C164 1.391 . S
C166 H156 0.950 . S
C166 C167 1.386 . S
C166 C168 1.391 . S
C167 C166 1.386 . S
C167 C171 1.393 . S
C168 H157 0.950 . S
C168 C166 1.391 . S
C168 C169 1.400 . S
C169 C163 1.491 1_556 S
C169 C168 1.400 . S
C169 C170 1.398 . S
C170 H158 0.950 . S
C170 C169 1.398 . S
C170 C171 1.391 . S
C171 H159 0.950 . S
C171 C167 1.393 . S
C171 C170 1.391 . S
H172 C180 0.950 . S
H173 C185 0.950 . S
H174 C182 0.950 . S
H175 C184 0.950 . S
H176 C186 0.950 . S
H177 C188 0.950 . S
H178 C190 0.950 . S
H179 C191 0.950 . S
C180 H172 0.950 . S
C180 C181 1.386 . S
C180 C182 1.391 . S
C181 C180 1.386 . S
C181 C185 1.393 . S
C182 H174 0.950 . S
C182 C180 1.391 . S
C182 C183 1.400 . S
C183 C182 1.400 . S
C183 C184 1.398 . S
C183 C189 1.491 . S
C184 H175 0.950 . S
C184 C183 1.398 . S
C184 C185 1.391 . S
C185 H173 0.950 . S
C185 C181 1.393 . S
C185 C184 1.391 . S
C186 H176 0.950 . S
C186 C187 1.386 . S
C186 C188 1.391 . S
C187 C186 1.386 . S
C187 C191 1.393 . S
C188 H177 0.950 . S
C188 C186 1.391 . S
C188 C189 1.400 . S
C189 C183 1.491 . S
C189 C188 1.400 . S
C189 C190 1.398 . S
C190 H178 0.950 . S
C190 C189 1.398 . S
C190 C191 1.391 . S
C191 H179 0.950 . S
C191 C187 1.393 . S
C191 C190 1.391 . S
H192 C200 0.950 . S
H193 C205 0.950 . S
H194 C202 0.950 . S
H195 C204 0.950 . S
H196 C206 0.950 . S
H197 C208 0.950 . S
H198 C210 0.950 . S
H199 C211 0.950 . S
C200 H192 0.950 . S
C200 C201 1.386 . S
C200 C202 1.391 . S
C201 C200 1.386 . S
C201 C205 1.393 . S
C202 H194 0.950 . S
C202 C200 1.391 . S
C202 C203 1.400 . S
C203 C202 1.400 . S
C203 C204 1.398 . S
C203 C209 1.491 . S
C204 H195 0.950 . S
C204 C203 1.398 . S
C204 C205 1.391 . S
C205 H193 0.950 . S
C205 C201 1.393 . S
C205 C204 1.391 . S
C206 H196 0.950 . S
C206 C207 1.386 . S
C206 C208 1.391 . S
C207 C206 1.386 . S
C207 C211 1.393 . S
C208 H197 0.950 . S
C208 C206 1.391 . S
C208 C209 1.400 . S
C209 C203 1.491 . S
C209 C208 1.400 . S
C209 C210 1.398 . S
C210 H198 0.950 . S
C210 C209 1.398 . S
C210 C211 1.391 . S
C211 H199 0.950 . S
C211 C207 1.393 . S
C211 C210 1.391 . S
H212 C220 0.950 . S
H213 C225 0.950 . S
H214 C222 0.950 . S
H215 C224 0.950 . S
H216 C226 0.950 . S
H217 C228 0.950 . S
H218 C230 0.950 . S
H219 C231 0.948 1_545 S
C220 H212 0.950 . S
C220 C221 1.386 . S
C220 C222 1.391 . S
C221 C220 1.386 . S
C221 C225 1.393 . S
C222 H214 0.950 . S
C222 C220 1.391 . S
C222 C223 1.400 . S
C223 C222 1.400 . S
C223 C224 1.398 . S
C223 C229 1.491 . S
C224 H215 0.950 . S
C224 C223 1.398 . S
C224 C225 1.391 . S
C225 H213 0.950 . S
C225 C221 1.393 . S
C225 C224 1.391 . S
C226 H216 0.950 . S
C226 C227 1.386 . S
C226 C228 1.391 1_545 S
C227 C226 1.386 . S
C227 C231 1.393 1_545 S
C228 H217 0.950 . S
C228 C226 1.391 1_565 S
C228 C229 1.400 . S
C229 C223 1.491 . S
C229 C228 1.400 . S
C229 C230 1.398 . S
C230 H218 0.950 . S
C230 C229 1.398 . S
C230 C231 1.391 . S
C231 H219 0.948 1_565 S
C231 C227 1.393 1_565 S
C231 C230 1.391 . S
H232 C240 0.950 . S
H233 C245 0.950 . S
H234 C242 0.950 . S
H235 C244 0.950 . S
H236 C246 0.950 . S
H237 C248 0.950 . S
H238 C250 0.950 . S
H239 C251 0.950 . S
C240 H232 0.950 . S
C240 C241 1.386 . S
C240 C242 1.391 . S
C241 C240 1.386 . S
C241 C245 1.393 . S
C242 H234 0.950 . S
C242 C240 1.391 . S
C242 C243 1.400 . S
C243 C242 1.400 . S
C243 C244 1.398 . S
C243 C249 1.491 . S
C244 H235 0.950 . S
C244 C243 1.398 . S
C244 C245 1.391 . S
C245 H233 0.950 . S
C245 C241 1.393 . S
C245 C244 1.391 . S
C246 H236 0.950 . S
C246 C247 1.386 . S
C246 C248 1.391 . S
C247 C246 1.386 . S
C247 C251 1.393 . S
C248 H237 0.950 . S
C248 C246 1.391 . S
C248 C249 1.400 . S
C249 C243 1.491 . S
C249 C248 1.400 . S
C249 C250 1.398 . S
C250 H238 0.950 . S
C250 C249 1.398 . S
C250 C251 1.391 . S
C251 H239 0.950 . S
C251 C247 1.393 . S
C251 C250 1.391 . S
H252 C260 0.950 . S
H253 C265 0.950 . S
H254 C262 0.950 . S
H255 C264 0.950 . S
H256 C266 0.950 . S
H257 C268 0.950 . S
H258 C270 0.950 . S
H259 C271 0.950 . S
C260 H252 0.950 . S
C260 C261 1.386 . S
C260 C262 1.391 . S
C261 C260 1.386 . S
C261 C265 1.393 . S
C262 H254 0.950 . S
C262 C260 1.391 . S
C262 C263 1.400 . S
C263 C262 1.400 . S
C263 C264 1.398 . S
C263 C269 1.491 . S
C264 H255 0.950 . S
C264 C263 1.398 . S
C264 C265 1.391 . S
C265 H253 0.950 . S
C265 C261 1.393 . S
C265 C264 1.391 . S
C266 H256 0.950 . S
C266 C267 1.386 1_545 S
C266 C268 1.391 . S
C267 C266 1.386 1_565 S
C267 C271 1.393 . S
C268 H257 0.950 . S
C268 C266 1.391 . S
C268 C269 1.400 . S
C269 C263 1.491 . S
C269 C268 1.400 . S
C269 C270 1.398 . S
C270 H258 0.950 . S
C270 C269 1.398 . S
C270 C271 1.391 1_545 S
C271 H259 0.950 . S
C271 C267 1.393 . S
C271 C270 1.391 1_565 S
H272 C280 0.950 . S
H273 C285 0.950 . S
H274 C282 0.950 . S
H275 C284 0.950 . S
H276 C286 0.950 . S
H277 C288 0.950 . S
H278 C290 0.950 . S
H279 C291 0.950 . S
C280 H272 0.950 . S
C280 C281 1.386 . S
C280 C282 1.391 . S
C281 C280 1.386 . S
C281 C285 1.393 . S
C282 H274 0.950 . S
C282 C280 1.391 . S
C282 C283 1.400 . S
C283 C282 1.400 . S
C283 C284 1.398 . S
C283 C289 1.491 . S
C284 H275 0.950 . S
C284 C283 1.398 . S
C284 C285 1.391 . S
C285 H273 0.950 . S
C285 C281 1.393 . S
C285 C284 1.391 . S
C286 H276 0.950 . S
C286 C287 1.386 1_655 S
C286 C288 1.391 . S
C287 C286 1.386 1_455 S
C287 C291 1.393 . S
C288 H277 0.950 . S
C288 C286 1.391 . S
C288 C289 1.400 . S
C289 C283 1.491 . S
C289 C288 1.400 . S
C289 C290 1.398 . S
C290 H278 0.950 . S
C290 C289 1.398 . S
C290 C291 1.391 1_655 S
C291 H279 0.950 . S
C291 C287 1.393 . S
C291 C290 1.391 1_455 S
H292 C300 0.950 . S
H293 C305 0.950 . S
H294 C302 0.950 . S
H295 C304 0.950 . S
H296 C306 0.950 . S
H297 C308 0.950 . S
H298 C310 0.950 . S
H299 C311 0.950 . S
C300 H292 0.950 . S
C300 C301 1.386 . S
C300 C302 1.391 . S
C301 C300 1.386 . S
C301 C305 1.393 . S
C302 H294 0.950 . S
C302 C300 1.391 . S
C302 C303 1.400 . S
C303 C302 1.400 . S
C303 C304 1.398 . S
C303 C309 1.491 . S
C304 H295 0.950 . S
C304 C303 1.398 . S
C304 C305 1.391 . S
C305 H293 0.950 . S
C305 C301 1.393 . S
C305 C304 1.391 . S
C306 H296 0.950 . S
C306 C307 1.386 . S
C306 C308 1.391 . S
C307 C306 1.386 . S
C307 C311 1.393 . S
C308 H297 0.950 . S
C308 C306 1.391 . S
C308 C309 1.400 . S
C309 C303 1.491 . S
C309 C308 1.400 . S
C309 C310 1.398 . S
C310 H298 0.950 . S
C310 C309 1.398 . S
C310 C311 1.391 . S
C311 H299 0.950 . S
C311 C307 1.393 . S
C311 C310 1.391 . S
H312 C320 0.950 . S
H313 C325 0.950 . S
H314 C322 0.950 . S
H315 C324 0.950 . S
H316 C326 0.950 . S
H317 C328 0.950 . S
H318 C330 0.950 . S
H319 C331 0.950 . S
C320 H312 0.950 . S
C320 C321 1.386 . S
C320 C322 1.391 . S
C321 C320 1.386 . S
C321 C325 1.393 . S
C322 H314 0.950 . S
C322 C320 1.391 . S
C322 C323 1.400 . S
C323 C322 1.400 . S
C323 C324 1.398 . S
C323 C329 1.491 . S
C324 H315 0.950 . S
C324 C323 1.398 . S
C324 C325 1.391 . S
C325 H313 0.950 . S
C325 C321 1.393 . S
C325 C324 1.391 . S
C326 H316 0.950 . S
C326 C327 1.386 . S
C326 C328 1.391 1_655 S
C327 C326 1.386 . S
C327 C331 1.393 . S
C328 H317 0.950 . S
C328 C326 1.391 1_455 S
C328 C329 1.400 . S
C329 C323 1.491 . S
C329 C328 1.400 . S
C329 C330 1.398 . S
C330 H318 0.950 . S
C330 C329 1.398 . S
C330 C331 1.391 1_455 S
C331 H319 0.950 . S
C331 C327 1.393 . S
C331 C330 1.391 1_655 S
H332 C340 0.950 . S
H333 C345 0.950 . S
H334 C342 0.950 . S
H335 C344 0.950 . S
H336 C346 0.950 . S
H337 C348 0.950 . S
H338 C350 0.950 . S
H339 C351 0.950 . S
C340 H332 0.950 . S
C340 C341 1.386 . S
C340 C342 1.391 . S
C341 C340 1.386 . S
C341 C345 1.393 . S
C342 H334 0.950 . S
C342 C340 1.391 . S
C342 C343 1.400 . S
C343 C342 1.400 . S
C343 C344 1.398 . S
C343 C349 1.491 . S
C344 H335 0.950 . S
C344 C343 1.398 . S
C344 C345 1.391 . S
C345 H333 0.950 . S
C345 C341 1.393 . S
C345 C344 1.391 . S
C346 H336 0.950 . S
C346 C347 1.386 . S
C346 C348 1.391 . S
C347 C346 1.386 . S
C347 C351 1.393 . S
C348 H337 0.950 . S
C348 C346 1.391 . S
C348 C349 1.400 . S
C349 C343 1.491 . S
C349 C348 1.400 . S
C349 C350 1.398 . S
C350 H338 0.950 . S
C350 C349 1.398 . S
C350 C351 1.391 . S
C351 H339 0.950 . S
C351 C347 1.393 . S
C351 C350 1.391 . S
H352 C360 0.950 . S
H353 C365 0.950 . S
H354 C362 0.950 . S
H355 C364 0.950 . S
H356 C366 0.950 . S
H357 C368 0.950 . S
H358 C370 0.950 . S
H359 C371 0.950 . S
C360 H352 0.950 . S
C360 C361 1.386 . S
C360 C362 1.391 . S
C361 C360 1.386 . S
C361 C365 1.393 . S
C362 H354 0.950 . S
C362 C360 1.391 . S
C362 C363 1.400 . S
C363 C362 1.400 . S
C363 C364 1.398 . S
C363 C369 1.491 1_655 S
C364 H355 0.950 . S
C364 C363 1.398 . S
C364 C365 1.391 . S
C365 H353 0.950 . S
C365 C361 1.393 . S
C365 C364 1.391 . S
C366 H356 0.950 . S
C366 C367 1.386 . S
C366 C368 1.391 . S
C367 C366 1.386 . S
C367 C371 1.393 . S
C368 H357 0.950 . S
C368 C366 1.391 . S
C368 C369 1.400 . S
C369 C363 1.491 1_455 S
C369 C368 1.400 . S
C369 C370 1.398 . S
C370 H358 0.950 . S
C370 C369 1.398 . S
C370 C371 1.391 . S
C371 H359 0.950 . S
C371 C367 1.393 . S
C371 C370 1.391 . S
H372 C380 0.950 . S
H373 C385 0.950 . S
H374 C382 0.950 1_455 S
H375 C384 0.950 . S
H376 C386 0.950 . S
H377 C388 0.950 1_655 S
H378 C390 0.950 . S
H379 C391 0.950 . S
C380 H372 0.950 . S
C380 C381 1.386 . S
C380 C382 1.391 . S
C381 C380 1.386 . S
C381 C385 1.393 . S
C382 H374 0.950 1_655 S
C382 C380 1.391 . S
C382 C383 1.400 . S
C383 C382 1.400 . S
C383 C384 1.398 . S
C383 C389 1.491 1_655 S
C384 H375 0.950 . S
C384 C383 1.398 . S
C384 C385 1.391 . S
C385 H373 0.950 . S
C385 C381 1.393 . S
C385 C384 1.391 . S
C386 H376 0.950 . S
C386 C387 1.386 . S
C386 C388 1.391 . S
C387 C386 1.386 . S
C387 C391 1.393 . S
C388 H377 0.950 1_455 S
C388 C386 1.391 . S
C388 C389 1.400 . S
C389 C383 1.491 1_455 S
C389 C388 1.400 . S
C389 C390 1.398 . S
C390 H378 0.950 . S
C390 C389 1.398 . S
C390 C391 1.391 . S
C391 H379 0.950 . S
C391 C387 1.393 . S
C391 C390 1.391 . S
H392 C400 0.950 . S
H393 C405 0.950 . S
H394 C402 0.950 . S
H395 C404 0.950 1_565 S
H396 C406 0.950 . S
H397 C408 0.950 . S
H398 C410 0.950 1_545 S
H399 C411 0.950 . S
C400 H392 0.950 . S
C400 C401 1.386 . S
C400 C402 1.391 . S
C401 C400 1.386 . S
C401 C405 1.393 . S
C402 H394 0.950 . S
C402 C400 1.391 . S
C402 C403 1.400 . S
C403 C402 1.400 . S
C403 C404 1.398 . S
C403 C409 1.491 1_545 S
C404 H395 0.950 1_545 S
C404 C403 1.398 . S
C404 C405 1.391 . S
C405 H393 0.950 . S
C405 C401 1.393 . S
C405 C404 1.391 . S
C406 H396 0.950 . S
C406 C407 1.386 . S
C406 C408 1.391 . S
C407 C406 1.386 . S
C407 C411 1.393 . S
C408 H397 0.950 . S
C408 C406 1.391 . S
C408 C409 1.400 . S
C409 C403 1.491 1_565 S
C409 C408 1.400 . S
C409 C410 1.398 . S
C410 H398 0.950 1_565 S
C410 C409 1.398 . S
C410 C411 1.391 . S
C411 H399 0.950 . S
C411 C407 1.393 . S
C411 C410 1.391 . S
H412 C420 0.950 . S
H413 C425 0.950 . S
H414 C422 0.950 . S
H415 C424 0.950 1_565 S
H416 C426 0.950 . S
H417 C428 0.950 . S
H418 C430 0.950 1_545 S
H419 C431 0.950 . S
C420 H412 0.950 . S
C420 C421 1.386 . S
C420 C422 1.391 . S
C421 C420 1.386 . S
C421 C425 1.393 . S
C422 H414 0.950 . S
C422 C420 1.391 . S
C422 C423 1.400 . S
C423 C422 1.400 . S
C423 C424 1.398 . S
C423 C429 1.491 1_545 S
C424 H415 0.950 1_545 S
C424 C423 1.398 . S
C424 C425 1.391 . S
C425 H413 0.950 . S
C425 C421 1.393 . S
C425 C424 1.391 . S
C426 H416 0.950 . S
C426 C427 1.386 . S
C426 C428 1.391 . S
C427 C426 1.386 . S
C427 C431 1.393 . S
C428 H417 0.950 . S
C428 C426 1.391 . S
C428 C429 1.400 . S
C429 C423 1.491 1_565 S
C429 C428 1.400 . S
C429 C430 1.398 . S
C430 H418 0.950 1_565 S
C430 C429 1.398 . S
C430 C431 1.391 . S
C431 H419 0.950 . S
C431 C427 1.393 . S
C431 C430 1.391 . S
C121 C9 1.338 . S
C127 C79 1.343 . S
C141 C23 1.342 . S
C147 C93 1.338 . S
C161 C37 1.337 . S
C167 C107 1.341 . S
C181 C65 1.343 . S
C187 C51 1.336 . S
C201 C11 1.614 . S
C207 C56 1.583 . S
C221 C25 1.611 . S
C227 C70 1.575 . S
C241 C84 1.586 . S
C247 C39 1.612 . S
C261 C53 1.603 . S
C267 C98 1.566 . S
C281 C67 1.603 . S
C287 C0 1.565 . S
C301 C14 1.579 . S
C307 C81 1.607 . S
C321 C95 1.607 . S
C327 C28 1.568 . S
C341 C42 1.577 . S
C347 C109 1.612 . S
C361 C33 0.559 . S
C367 C5 0.552 . S
C381 C47 0.606 . S
C387 C19 0.591 . S
C401 C61 0.566 . S
C407 C89 0.588 . S
C421 C75 0.599 . S
C427 C103 0.578 . S
