# Generated by pormake.
# Topology wjf, (4)-cn, num edge types: 1
# Building blocks:
#     Node 0, Type 0, BuildingBlock: CEKHIL_clean_sbu_0, # of connection points: 4
#     Node 1, Type 0, BuildingBlock: CEKHIL_clean_sbu_0, # of connection points: 4
#     Node 2, Type 0, BuildingBlock: CEKHIL_clean_sbu_0, # of connection points: 4
#     Node 3, Type 0, BuildingBlock: CEKHIL_clean_sbu_0, # of connection points: 4
#     Node 4, Type 0, BuildingBlock: CEKHIL_clean_sbu_0, # of connection points: 4
#     Node 5, Type 0, BuildingBlock: CEKHIL_clean_sbu_0, # of connection points: 4
#     Node 6, Type 0, BuildingBlock: CEKHIL_clean_sbu_0, # of connection points: 4
#     Node 7, Type 0, BuildingBlock: CEKHIL_clean_sbu_0, # of connection points: 4
#     Node 8, Type 0, BuildingBlock: CEKHIL_clean_sbu_0, # of connection points: 4
#     Node 9, Type 0, BuildingBlock: CEKHIL_clean_sbu_0, # of connection points: 4
#     Node 10, Type 0, BuildingBlock: CEKHIL_clean_sbu_0, # of connection points: 4
#     Node 11, Type 0, BuildingBlock: CEKHIL_clean_sbu_0, # of connection points: 4
#     Edge 12, Type (0, 0), BuildingBlock: OJICUG_clean_linker_0, # of connection points: 2
#     Edge 13, Type (0, 0), BuildingBlock: OJICUG_clean_linker_0, # of connection points: 2
#     Edge 14, Type (0, 0), BuildingBlock: OJICUG_clean_linker_0, # of connection points: 2
#     Edge 15, Type (0, 0), BuildingBlock: OJICUG_clean_linker_0, # of connection points: 2
#     Edge 16, Type (0, 0), BuildingBlock: OJICUG_clean_linker_0, # of connection points: 2
#     Edge 17, Type (0, 0), BuildingBlock: OJICUG_clean_linker_0, # of connection points: 2
#     Edge 18, Type (0, 0), BuildingBlock: OJICUG_clean_linker_0, # of connection points: 2
#     Edge 19, Type (0, 0), BuildingBlock: OJICUG_clean_linker_0, # of connection points: 2
#     Edge 20, Type (0, 0), BuildingBlock: OJICUG_clean_linker_0, # of connection points: 2
#     Edge 21, Type (0, 0), BuildingBlock: OJICUG_clean_linker_0, # of connection points: 2
#     Edge 22, Type (0, 0), BuildingBlock: OJICUG_clean_linker_0, # of connection points: 2
#     Edge 23, Type (0, 0), BuildingBlock: OJICUG_clean_linker_0, # of connection points: 2
#     Edge 24, Type (0, 0), BuildingBlock: OJICUG_clean_linker_0, # of connection points: 2
#     Edge 25, Type (0, 0), BuildingBlock: OJICUG_clean_linker_0, # of connection points: 2
#     Edge 26, Type (0, 0), BuildingBlock: OJICUG_clean_linker_0, # of connection points: 2
#     Edge 27, Type (0, 0), BuildingBlock: OJICUG_clean_linker_0, # of connection points: 2
#     Edge 28, Type (0, 0), BuildingBlock: OJICUG_clean_linker_0, # of connection points: 2
#     Edge 29, Type (0, 0), BuildingBlock: OJICUG_clean_linker_0, # of connection points: 2
#     Edge 30, Type (0, 0), BuildingBlock: OJICUG_clean_linker_0, # of connection points: 2
#     Edge 31, Type (0, 0), BuildingBlock: OJICUG_clean_linker_0, # of connection points: 2
#     Edge 32, Type (0, 0), BuildingBlock: OJICUG_clean_linker_0, # of connection points: 2
#     Edge 33, Type (0, 0), BuildingBlock: OJICUG_clean_linker_0, # of connection points: 2
#     Edge 34, Type (0, 0), BuildingBlock: OJICUG_clean_linker_0, # of connection points: 2
#     Edge 35, Type (0, 0), BuildingBlock: OJICUG_clean_linker_0, # of connection points: 2
# Relax obj value: 0.108
# Max RMSD: 0.131
# Mean RMSD: 0.131
data_MOF--net-wjf--node1-CEKHIL_clean_sbu_0--edge1-OJICUG_clean_linker_0
_symmetry_space_group_name_H-M    P1
_symmetry_Int_Tables_number       1
_symmetry_cell_setting            triclinic
loop_
_symmetry_equiv_pos_as_xyz
'x, y, z'
_cell_length_a     36.938404
_cell_length_b     36.962206
_cell_length_c     19.758901
_cell_angle_alpha  90.016802
_cell_angle_beta   90.018337
_cell_angle_gamma 119.98403
loop_
_atom_site_label
_atom_site_type_symbol
_atom_site_fract_x
_atom_site_fract_y
_atom_site_fract_z
_atom_type_partial_charge
Co0 Co 0.33133 0.39216 0.08953 0.0
O1 O 0.27172 0.36343 0.07748 0.0
O2 O 0.31413 0.42988 0.05204 0.0
C3 C 0.33231 0.36877 0.19419 0.0
O4 O 0.39446 0.43209 0.0966 0.0
Co5 Co 0.37616 0.34007 0.10375 0.0
O6 O 0.42624 0.39519 0.12158 0.0
C7 C 0.34593 0.34834 0.97054 0.0
C8 C 0.2763 0.39798 0.05271 0.0
C9 C 0.42734 0.42979 0.11137 0.0
O10 O 0.33764 0.37547 -0.00451 0.0
O11 O 0.35855 0.32794 0.0064 0.0
O12 O 0.32563 0.39986 0.18594 0.0
O13 O 0.33312 0.35011 0.13944 0.0
Co14 Co 0.94446 0.32835 0.42257 0.0
O15 O 0.91354 0.2688 0.41039 0.0
O16 O 0.88955 0.31128 0.38498 0.0
C17 C 0.96877 0.32918 0.52725 0.0
O18 O 0.96777 0.39147 0.42978 0.0
Co19 Co 0.04137 0.37289 0.43691 0.0
O20 O 0.03643 0.423 0.45496 0.0
C21 C 1.00288 0.34283 0.30366 0.0
C22 C 0.88359 0.27345 0.38557 0.0
C23 C 1.00298 0.42424 0.44472 0.0
O24 O 0.96748 0.33467 0.32856 0.0
O25 O 0.03588 0.35532 0.33955 0.0
O26 O 0.93102 0.3226 0.51894 0.0
O27 O 0.98824 0.32997 0.47251 0.0
Co28 Co 0.62268 0.94169 0.75571 0.0
O29 O 0.6512 0.91061 0.74364 0.0
O30 O 0.5848 0.8869 0.7179 0.0
C31 C 0.64594 0.96584 0.86057 0.0
O32 O 0.58292 0.96509 0.76274 0.0
Co33 Co 0.67506 0.03849 0.77043 0.0
O34 O 0.61999 0.03363 0.78836 0.0
C35 C 0.66667 1.00027 0.63698 0.0
C36 C 0.61659 0.88078 0.71865 0.0
C37 C 0.58533 1.00025 0.77784 0.0
O38 O 0.63957 0.96481 0.66181 0.0
O39 O 0.68706 0.03322 0.67295 0.0
O40 O 0.61477 0.92814 0.85203 0.0
O41 O 0.66478 0.98533 0.80595 0.0
Co42 Co 0.68571 0.61851 0.08843 0.0
O43 O 0.74531 0.64729 0.07638 0.0
O44 O 0.70296 0.5808 0.05096 0.0
C45 C 0.68474 0.64192 0.19309 0.0
O46 O 0.62259 0.57853 0.09556 0.0
Co47 Co 0.64084 0.67056 0.10261 0.0
O48 O 0.59086 0.61545 0.12082 0.0
C49 C 0.671 0.66223 0.96942 0.0
C50 C 0.74077 0.61273 0.05165 0.0
C51 C 0.58975 0.58084 0.11057 0.0
O52 O 0.67931 0.63511 -0.00562 0.0
O53 O 0.65839 0.68264 0.00527 0.0
O54 O 0.69148 0.61087 0.18482 0.0
O55 O 0.6839 0.66055 0.13833 0.0
Co56 Co 0.073 0.68273 0.42281 0.0
O57 O 0.10371 0.74229 0.41073 0.0
O58 O 0.12797 0.70004 0.38526 0.0
C59 C 0.04865 0.68177 0.52748 0.0
O60 O 0.04991 0.61963 0.42992 0.0
Co61 Co 0.97607 0.63795 0.437 0.0
O62 O 0.98124 0.58798 0.45503 0.0
C63 C 0.0145 0.66803 0.30381 0.0
C64 C 0.13375 0.73781 0.3859 0.0
C65 C 0.01473 0.58682 0.44481 0.0
O66 O 0.04994 0.67631 0.32878 0.0
O67 O 0.98149 0.65547 0.33965 0.0
O68 O 0.08646 0.68852 0.51922 0.0
O69 O 0.02915 0.68092 0.47273 0.0
Co70 Co 0.39659 0.07011 0.75612 0.0
O71 O 0.36774 0.10087 0.74417 0.0
O72 O 0.43426 0.12507 0.71875 0.0
C73 C 0.37312 0.04565 0.86074 0.0
O74 O 0.43663 0.04701 0.76313 0.0
Co75 Co 0.34452 0.97323 0.77009 0.0
O76 O 0.3997 0.97836 0.78798 0.0
C77 C 0.35264 0.0118 0.63706 0.0
C78 C 0.40228 0.1309 0.71944 0.0
C79 C 0.43432 0.01185 0.77786 0.0
O80 O 0.37992 0.04717 0.66201 0.0
O81 O 0.33221 0.97882 0.6729 0.0
O82 O 0.40421 0.08343 0.85261 0.0
O83 O 0.35453 0.02624 0.8059 0.0
Co84 Co 0.62136 0.68259 0.55955 0.0
O85 O 0.65025 0.74216 0.57152 0.0
O86 O 0.58375 0.69996 0.59712 0.0
C87 C 0.64468 0.68153 0.45485 0.0
O88 O 0.58133 0.61948 0.55257 0.0
Co89 Co 0.67348 0.63778 0.54531 0.0
O90 O 0.6183 0.5878 0.52735 0.0
C91 C 0.66523 0.66798 0.67851 0.0
C92 C 0.61575 0.73772 0.5964 0.0
C93 C 0.58367 0.58665 0.53769 0.0
O94 O 0.63809 0.67629 0.65356 0.0
O95 O 0.68563 0.65536 0.64266 0.0
O96 O 0.61361 0.68827 0.46313 0.0
O97 O 0.66336 0.68073 0.50959 0.0
Co98 Co 0.94457 0.6185 0.8938 0.0
O99 O 0.91374 0.64727 0.90581 0.0
O100 O 0.88961 0.5808 0.93119 0.0
C101 C 0.96897 0.64191 0.78918 0.0
O102 O 0.96774 0.57854 0.88672 0.0
Co103 Co 0.0415 0.67057 0.87973 0.0
O104 O 0.0364 0.61546 0.86162 0.0
C105 C 1.00298 0.66225 0.01288 0.0
C106 C 0.88371 0.61271 0.9305 0.0
C107 C 1.0029 0.58086 0.87183 0.0
O108 O 0.96755 0.63514 0.98788 0.0
O109 O 0.03601 0.68265 0.97708 0.0
O110 O 0.93118 0.61084 0.79738 0.0
O111 O 0.98843 0.66055 0.84396 0.0
Co112 Co 0.33108 0.94166 0.22716 0.0
O113 O 0.27146 0.91068 0.23914 0.0
O114 O 0.31404 0.88681 0.26474 0.0
C115 C 0.33207 0.96593 0.12241 0.0
O116 O 0.39424 0.96494 0.2202 0.0
Co117 Co 0.37569 0.0385 0.21284 0.0
O118 O 0.42583 0.03353 0.19494 0.0
C119 C 0.34579 1.00017 0.34614 0.0
C120 C 0.27616 0.88078 0.26398 0.0
C121 C 0.42704 1.0001 0.20529 0.0
O122 O 0.33736 0.96471 0.32117 0.0
O123 O 0.35839 0.03315 0.31029 0.0
O124 O 0.32543 0.92819 0.13077 0.0
O125 O 0.33276 0.98539 0.1771 0.0
Co126 Co 0.39563 0.32815 0.56066 0.0
O127 O 0.36709 0.2686 0.57278 0.0
O128 O 0.43356 0.31118 0.5982 0.0
C129 C 0.37212 0.32895 0.45599 0.0
O130 O 0.43538 0.39129 0.55349 0.0
Co131 Co 0.34313 0.37256 0.54644 0.0
O132 O 0.39816 0.42273 0.52847 0.0
C133 C 0.35166 0.34257 0.67963 0.0
C134 C 0.40173 0.27332 0.59757 0.0
C135 C 0.43287 0.42402 0.53862 0.0
O136 O 0.37893 0.33446 0.65469 0.0
O137 O 0.33109 0.35499 0.64377 0.0
O138 O 0.40332 0.32241 0.46427 0.0
O139 O 0.35343 0.3297 0.51073 0.0
Co140 Co 0.07273 0.39226 0.8938 0.0
O141 O 0.10356 0.3635 0.90591 0.0
O142 O 0.12767 0.42998 0.93136 0.0
C143 C 0.04836 0.36884 0.78913 0.0
O144 O 0.04955 0.4322 0.88667 0.0
Co145 Co 0.97581 0.34015 0.87955 0.0
O146 O 0.98087 0.39525 0.86159 0.0
C147 C 0.01431 0.34849 0.01276 0.0
C148 C 0.13356 0.39806 0.93072 0.0
C149 C 0.01436 0.42987 0.8718 0.0
O150 O 0.04972 0.37564 0.98782 0.0
O151 O 0.98129 0.32806 0.97689 0.0
O152 O 0.08615 0.39991 0.79742 0.0
O153 O 0.02889 0.3502 0.84386 0.0
Co154 Co 0.68564 0.06998 0.22702 0.0
O155 O 0.74525 0.10081 0.23893 0.0
O156 O 0.70289 0.12496 0.26437 0.0
C157 C 0.68461 0.04547 0.12242 0.0
O158 O 0.62249 0.04683 0.22006 0.0
Co159 Co 0.64088 0.9731 0.21314 0.0
O160 O 0.59075 0.97813 0.19543 0.0
C161 C 0.67146 0.01181 0.34609 0.0
C162 C 0.74071 0.13083 0.26365 0.0
C163 C 0.58962 0.01163 0.20547 0.0
O164 O 0.67944 0.04713 0.32114 0.0
O165 O 0.65894 0.97881 0.31026 0.0
O166 O 0.69128 0.08324 0.13055 0.0
O167 O 0.68382 0.02609 0.17724 0.0
C168 C 0.36315 0.33547 0.26634 0.0
C169 C 0.34155 0.35766 0.26111 0.0
H170 H 0.3904 0.30961 0.33243 0.0
C171 C 0.32947 0.36974 0.3204 0.0
H172 H 0.37294 0.32585 0.22148 0.0
C173 C 0.33866 0.35963 0.38384 0.0
C174 C 0.36099 0.33818 0.38907 0.0
H175 H 0.3127 0.38678 0.31775 0.0
H176 H 0.3289 0.36929 0.42871 0.0
C177 C 0.37324 0.32627 0.32979 0.0
C178 C 0.96494 0.32644 0.65344 0.0
C179 C 0.98911 0.33837 0.59419 0.0
H180 H 0.9648 0.32596 0.76175 0.0
C181 C 0.0329 0.35978 0.59947 0.0
H182 H 0.93112 0.3098 0.65075 0.0
C183 C 0.05218 0.36984 0.66294 0.0
C184 C 0.02801 0.35775 0.7222 0.0
H185 H 0.05232 0.36945 0.55464 0.0
H186 H 0.086 0.38685 0.66563 0.0
C187 C 0.98422 0.33559 0.71691 0.0
C188 C 0.64334 0.96206 0.98681 0.0
C189 C 0.65676 0.98617 0.92755 0.0
H190 H 0.6424 0.96197 0.09512 0.0
C191 C 0.67992 0.02991 0.93286 0.0
H192 H 0.62549 0.92828 0.98414 0.0
C193 C 0.68879 0.04922 -0.0037 0.0
C194 C 0.67556 0.02509 0.05554 0.0
H195 H 0.69061 0.04931 0.88804 0.0
H196 H 0.70628 0.08301 -0.001 0.0
C197 C 0.65311 0.98134 0.05028 0.0
C198 C 0.65381 0.67516 0.2652 0.0
C199 C 0.6754 0.65296 0.25999 0.0
H200 H 0.62652 0.70099 0.33127 0.0
C201 C 0.68734 0.64076 0.31928 0.0
H202 H 0.64412 0.68487 0.22033 0.0
C203 C 0.67807 0.65078 0.38272 0.0
C204 C 0.65578 0.67228 0.38793 0.0
H205 H 0.70409 0.62369 0.31665 0.0
H206 H 0.68774 0.64104 0.42759 0.0
C207 C 0.64364 0.68429 0.32864 0.0
C208 C 0.03313 0.67527 0.71712 0.0
C209 C 0.98934 0.65301 0.72229 0.0
H210 H 0.08626 0.70121 0.6511 0.0
C211 C 0.96519 0.64083 0.66298 0.0
H212 H 0.05254 0.68496 0.76201 0.0
C213 C 0.9845 0.65094 0.59956 0.0
C214 C 0.02829 0.67248 0.59438 0.0
H215 H 0.93137 0.62373 0.66558 0.0
H216 H 0.96509 0.64121 0.55467 0.0
C217 C 0.05244 0.68448 0.6537 0.0
C218 C 0.36309 0.03009 0.05035 0.0
C219 C 0.34164 0.98632 0.05551 0.0
H220 H 0.39053 0.0832 0.98437 0.0
C221 C 0.33011 0.96221 -0.00383 0.0
H222 H 0.37247 0.04947 0.09524 0.0
C223 C 0.33965 0.98152 0.93276 0.0
C224 C 0.3618 0.02529 0.92762 0.0
H225 H 0.31348 0.92841 -0.00126 0.0
H226 H 0.3303 0.96214 0.88786 0.0
C227 C 0.37353 0.0494 0.98695 0.0
C228 C 0.20725 0.43722 0.97685 0.0
C229 C 0.1709 0.39933 0.96113 0.0
H230 H 0.26964 0.46674 0.01764 0.0
C231 C 0.16969 0.36164 0.97646 0.0
H232 H 0.20906 0.46677 0.96575 0.0
C233 C 0.2037 0.36162 0.00708 0.0
C234 C 0.24024 0.3993 0.02235 0.0
H235 H 0.14213 0.33187 0.96554 0.0
H236 H 0.20144 0.33184 0.01804 0.0
C237 C 0.24185 0.4372 0.00659 0.0
C238 C 0.84742 0.20099 0.3396 0.0
C239 C 0.84622 0.23746 0.35511 0.0
H240 H 0.81563 0.1395 0.29791 0.0
C241 C 0.80985 0.23905 0.33956 0.0
H242 H 0.875 0.19875 0.35037 0.0
C243 C 0.77523 0.20448 0.30984 0.0
C244 C 0.77682 0.16818 0.29393 0.0
H245 H 0.80806 0.26679 0.3508 0.0
H246 H 0.74742 0.20626 0.29894 0.0
C247 C 0.81338 0.16701 0.30899 0.0
C248 C 0.65268 0.84432 0.67289 0.0
C249 C 0.61508 0.84336 0.68819 0.0
H250 H 0.68219 0.8123 0.63128 0.0
C251 C 0.57705 0.80718 0.67239 0.0
H252 H 0.68255 0.87175 0.68388 0.0
C253 C 0.57684 0.7725 0.6426 0.0
C254 C 0.61466 0.77386 0.62686 0.0
H255 H 0.54757 0.80556 0.68347 0.0
H256 H 0.5472 0.74485 0.63148 0.0
C257 C 0.65248 0.81024 0.64221 0.0
C258 C 0.77531 0.57353 0.00579 0.0
C259 C 0.77687 0.61143 0.02144 0.0
H260 H 0.8082 0.54398 0.96527 0.0
C261 C 0.81341 0.64912 0.00628 0.0
H262 H 0.74753 0.54399 0.01677 0.0
C263 C 0.84747 0.64911 0.97589 0.0
C264 C 0.84631 0.61142 0.96069 0.0
H265 H 0.81562 0.67889 0.01716 0.0
H266 H 0.87503 0.67888 0.96506 0.0
C267 C 0.80996 0.57353 0.97628 0.0
C268 C 0.16958 0.81026 0.33995 0.0
C269 C 0.171 0.7739 0.35545 0.0
H270 H 0.20109 0.87174 0.29826 0.0
C271 C 0.20747 0.77252 0.33989 0.0
H272 H 0.14192 0.81234 0.35072 0.0
C273 C 0.24198 0.80718 0.31018 0.0
C274 C 0.24017 0.84336 0.29428 0.0
H275 H 0.20944 0.74488 0.35112 0.0
H276 H 0.26986 0.80555 0.29928 0.0
C277 C 0.20351 0.84433 0.30935 0.0
C278 C 0.44131 0.20457 0.6734 0.0
C279 C 0.40346 0.16819 0.6891 0.0
H280 H 0.47069 0.26689 0.63264 0.0
C281 C 0.36568 0.16687 0.6738 0.0
H282 H 0.47093 0.20645 0.68447 0.0
C283 C 0.36555 0.2008 0.64322 0.0
C284 C 0.40319 0.23737 0.62795 0.0
H285 H 0.33594 0.13929 0.6847 0.0
H286 H 0.33571 0.19846 0.63228 0.0
C287 C 0.44118 0.23908 0.64369 0.0
C288 C 0.36338 0.32089 0.79375 0.0
C289 C 0.34591 0.33982 0.75385 0.0
H290 H 0.37675 0.30833 0.89344 0.0
C291 C 0.32526 0.35833 0.78593 0.0
H292 H 0.37912 0.30594 0.77061 0.0
C293 C 0.32405 0.35982 0.85642 0.0
C294 C 0.34318 0.34256 0.89632 0.0
H295 H 0.31131 0.37303 0.75673 0.0
H296 H 0.30894 0.37541 0.87956 0.0
C297 C 0.36189 0.32211 0.86424 0.0
C298 C 0.96948 0.32101 0.18953 0.0
C299 C 1.00589 0.34007 0.22944 0.0
H300 H 0.94351 0.30832 0.08984 0.0
C301 C 0.04504 0.35867 0.19737 0.0
H302 H 0.93879 0.30598 0.21267 0.0
C303 C 0.04773 0.36014 0.12688 0.0
C304 C 0.01132 0.34276 0.08698 0.0
H305 H 0.0737 0.37347 0.22658 0.0
H306 H 0.07842 0.37581 0.10375 0.0
C307 C 0.97217 0.32221 0.11905 0.0
C308 C 0.65536 0.96704 0.52279 0.0
C309 C 0.67232 1.00339 0.56275 0.0
H310 H 0.64213 0.94113 0.42308 0.0
C311 C 0.69222 0.04255 0.53072 0.0
H312 H 0.64021 0.93636 0.54589 0.0
C313 C 0.69317 0.04527 0.46023 0.0
C314 C 0.6745 0.00889 0.42028 0.0
H315 H 0.70575 0.07115 0.55998 0.0
H316 H 0.70767 0.07594 0.43715 0.0
C317 C 0.65658 0.96977 0.45231 0.0
C318 C 0.65364 0.68976 0.79264 0.0
C319 C 0.671 0.67072 0.75274 0.0
H320 H 0.64036 0.70241 0.89233 0.0
C321 C 0.69153 0.65209 0.78481 0.0
H322 H 0.63799 0.7048 0.76951 0.0
C323 C 0.69275 0.6506 0.8553 0.0
C324 C 0.67373 0.66797 0.8952 0.0
H325 H 0.70539 0.63731 0.7556 0.0
H326 H 0.70777 0.63492 0.87843 0.0
C327 C 0.65513 0.68853 0.86313 0.0
C328 C 0.04787 0.68974 0.18971 0.0
C329 C 0.01148 0.67074 0.22958 0.0
H330 H 0.07381 0.70237 0.09005 0.0
C331 C 0.97231 0.65214 0.19748 0.0
H332 H 0.07857 0.70476 0.21287 0.0
C333 C 0.9696 0.65064 0.12699 0.0
C334 C 1.00599 0.66799 0.08711 0.0
H335 H 0.94367 0.63738 0.22666 0.0
H336 H 0.9389 0.63499 0.10382 0.0
C337 C 0.04516 0.68852 0.11922 0.0
C338 C 0.32415 0.96692 0.46033 0.0
C339 C 0.3433 1.00326 0.4204 0.0
H340 H 0.3117 0.94105 0.56002 0.0
C341 C 0.36235 0.04243 0.45247 0.0
H342 H 0.30879 0.93623 0.4372 0.0
C343 C 0.36416 0.04517 0.52296 0.0
C344 C 0.34667 0.00881 0.56287 0.0
H345 H 0.37725 0.07103 0.42325 0.0
H346 H 0.38016 0.07586 0.54608 0.0
C347 C 0.32568 0.96967 0.53082 0.0
C348 C 0.50578 0.46628 0.11415 0.0
C349 C 0.4688 0.46855 0.1139 0.0
H350 H 0.57275 0.49961 0.11295 0.0
C351 C 0.47208 0.50806 0.11429 0.0
H352 H 0.50453 0.43637 0.11362 0.0
C353 C 0.51132 0.54435 0.11446 0.0
C354 C 0.5483 0.54208 0.11346 0.0
H355 H 0.44435 0.51101 0.11425 0.0
H356 H 0.51256 0.57425 0.11421 0.0
C357 C 0.54502 0.50257 0.11356 0.0
C358 C 0.04814 0.54192 0.44783 0.0
C359 C 0.01197 0.54534 0.44749 0.0
H360 H 0.07371 0.50127 0.44789 0.0
C361 C 0.97267 0.50844 0.44801 0.0
H362 H 0.07887 0.56957 0.4476 0.0
C363 C 0.96962 0.46917 0.44761 0.0
C364 C 1.00579 0.46574 0.44746 0.0
H365 H 0.94405 0.50979 0.44755 0.0
H366 H 0.9389 0.44152 0.4472 0.0
C367 C 0.04509 0.50263 0.4482 0.0
C368 C 0.50704 0.96687 0.78038 0.0
C369 C 0.5466 1.00304 0.7805 0.0
H370 H 0.44082 0.94126 0.7801 0.0
C371 C 0.54894 0.0423 0.78145 0.0
H372 H 0.50402 0.93618 0.77979 0.0
C373 C 0.51266 0.04531 0.78106 0.0
C374 C 0.4731 0.00914 0.78049 0.0
H375 H 0.57889 0.07091 0.78134 0.0
H376 H 0.51566 0.076 0.78101 0.0
C377 C 0.47076 0.96988 0.78076 0.0
C378 C 0.50533 0.54171 0.53575 0.0
C379 C 0.54493 0.54516 0.53521 0.0
H380 H 0.43911 0.50102 0.53664 0.0
C381 C 0.54736 0.50828 0.53409 0.0
H382 H 0.50224 0.56935 0.53651 0.0
C383 C 0.51114 0.46899 0.53474 0.0
C384 C 0.47154 0.46554 0.53576 0.0
H385 H 0.57733 0.50964 0.53386 0.0
H386 H 0.51423 0.44135 0.53463 0.0
C387 C 0.4691 0.50241 0.53564 0.0
C388 C 0.04488 0.5444 0.86825 0.0
C389 C 1.00561 0.5421 0.8691 0.0
H390 H 0.07855 0.51111 0.86877 0.0
C391 C 0.9694 0.50258 0.86909 0.0
H392 H 0.07353 0.57432 0.86845 0.0
C393 C 0.97237 0.46631 0.8687 0.0
C394 C 0.01164 0.46861 0.8691 0.0
H395 H 0.9387 0.4996 0.8696 0.0
H396 H 0.94372 0.43639 0.86928 0.0
C397 C 0.04785 0.50813 0.86863 0.0
C398 C 0.54476 0.04509 0.20214 0.0
C399 C 0.54813 0.00891 0.20282 0.0
H400 H 0.50416 0.07072 0.20172 0.0
C401 C 0.51119 0.96966 0.20261 0.0
H402 H 0.57246 0.07578 0.20215 0.0
C403 C 0.47192 0.96667 0.20292 0.0
C404 C 0.46854 1.00284 0.20269 0.0
H405 H 0.5125 0.94104 0.20336 0.0
H406 H 0.44423 0.93598 0.20356 0.0
C407 C 0.50548 0.0421 0.2017 0.0
loop_
_geom_bond_atom_site_label_1
_geom_bond_atom_site_label_2
_geom_bond_distance
_geom_bond_site_symmetry_2
_ccdc_geom_bond_type
Co0 O1 2.216 . S
Co0 O2 2.091 . S
Co0 O4 2.004 . S
Co0 O10 2.021 1_554 S
Co0 O12 2.137 . S
Co0 O13 2.244 . S
O1 Co0 2.216 . S
O1 C8 1.247 . S
O2 Co0 2.091 . S
O2 C8 1.261 . S
C3 O12 1.247 . S
C3 O13 1.272 . S
O4 Co0 2.004 . S
O4 C9 1.259 . S
Co5 O6 2.061 . S
Co5 O11 2.052 1_554 S
Co5 O13 2.135 . S
O6 Co5 2.061 . S
O6 C9 1.235 . S
C7 O10 1.238 . S
C7 O11 1.241 . S
C8 O1 1.247 . S
C8 O2 1.261 . S
C9 O4 1.259 . S
C9 O6 1.235 . S
O10 Co0 2.021 1_556 S
O10 C7 1.238 . S
O11 Co5 2.052 1_556 S
O11 C7 1.241 . S
O12 Co0 2.137 . S
O12 C3 1.247 . S
O13 Co0 2.244 . S
O13 C3 1.272 . S
O13 Co5 2.135 . S
Co14 O15 2.216 . S
Co14 O16 2.091 . S
Co14 O18 2.004 . S
Co14 O24 2.021 . S
Co14 O26 2.137 . S
Co14 O27 2.244 1_655 S
O15 Co14 2.216 . S
O15 C22 1.247 . S
O16 Co14 2.091 . S
O16 C22 1.261 . S
C17 O26 1.247 . S
C17 O27 1.272 1_655 S
O18 Co14 2.004 . S
O18 C23 1.259 . S
Co19 O20 2.061 . S
Co19 O25 2.052 . S
Co19 O27 2.135 . S
O20 Co19 2.061 . S
O20 C23 1.235 1_455 S
C21 O24 1.238 1_455 S
C21 O25 1.241 . S
C22 O15 1.247 . S
C22 O16 1.261 . S
C23 O18 1.259 . S
C23 O20 1.235 1_655 S
O24 Co14 2.021 . S
O24 C21 1.238 1_655 S
O25 Co19 2.052 . S
O25 C21 1.241 . S
O26 Co14 2.137 . S
O26 C17 1.247 . S
O27 Co14 2.244 1_455 S
O27 C17 1.272 1_455 S
O27 Co19 2.135 . S
Co28 O29 2.216 . S
Co28 O30 2.091 . S
Co28 O32 2.004 . S
Co28 O38 2.021 . S
Co28 O40 2.137 . S
Co28 O41 2.244 1_565 S
O29 Co28 2.216 . S
O29 C36 1.247 . S
O30 Co28 2.091 . S
O30 C36 1.261 . S
C31 O40 1.247 . S
C31 O41 1.272 1_565 S
O32 Co28 2.004 . S
O32 C37 1.259 . S
Co33 O34 2.061 . S
Co33 O39 2.052 . S
Co33 O41 2.135 . S
O34 Co33 2.061 . S
O34 C37 1.235 1_545 S
C35 O38 1.238 1_545 S
C35 O39 1.241 . S
C36 O29 1.247 . S
C36 O30 1.261 . S
C37 O32 1.259 . S
C37 O34 1.235 1_565 S
O38 Co28 2.021 . S
O38 C35 1.238 1_565 S
O39 Co33 2.052 . S
O39 C35 1.241 . S
O40 Co28 2.137 . S
O40 C31 1.247 . S
O41 Co28 2.244 1_545 S
O41 C31 1.272 1_545 S
O41 Co33 2.135 . S
Co42 O43 2.216 . S
Co42 O44 2.091 . S
Co42 O46 2.004 . S
Co42 O52 2.021 1_554 S
Co42 O54 2.137 . S
Co42 O55 2.244 . S
O43 Co42 2.216 . S
O43 C50 1.247 . S
O44 Co42 2.091 . S
O44 C50 1.261 . S
C45 O54 1.247 . S
C45 O55 1.272 . S
O46 Co42 2.004 . S
O46 C51 1.259 . S
Co47 O48 2.061 . S
Co47 O53 2.052 1_554 S
Co47 O55 2.135 . S
O48 Co47 2.061 . S
O48 C51 1.235 . S
C49 O52 1.238 . S
C49 O53 1.241 . S
C50 O43 1.247 . S
C50 O44 1.261 . S
C51 O46 1.259 . S
C51 O48 1.235 . S
O52 Co42 2.021 1_556 S
O52 C49 1.238 . S
O53 Co47 2.052 1_556 S
O53 C49 1.241 . S
O54 Co42 2.137 . S
O54 C45 1.247 . S
O55 Co42 2.244 . S
O55 C45 1.272 . S
O55 Co47 2.135 . S
Co56 O57 2.216 . S
Co56 O58 2.091 . S
Co56 O60 2.004 . S
Co56 O66 2.021 . S
Co56 O68 2.137 . S
Co56 O69 2.244 1_455 S
O57 Co56 2.216 . S
O57 C64 1.247 . S
O58 Co56 2.091 . S
O58 C64 1.261 . S
C59 O68 1.247 . S
C59 O69 1.272 1_455 S
O60 Co56 2.004 . S
O60 C65 1.259 . S
Co61 O62 2.061 . S
Co61 O67 2.052 . S
Co61 O69 2.135 . S
O62 Co61 2.061 . S
O62 C65 1.235 1_655 S
C63 O66 1.238 1_655 S
C63 O67 1.241 . S
C64 O57 1.247 . S
C64 O58 1.261 . S
C65 O60 1.259 . S
C65 O62 1.235 1_455 S
O66 Co56 2.021 . S
O66 C63 1.238 1_455 S
O67 Co61 2.052 . S
O67 C63 1.241 . S
O68 Co56 2.137 . S
O68 C59 1.247 . S
O69 Co56 2.244 1_655 S
O69 C59 1.272 1_655 S
O69 Co61 2.135 . S
Co70 O71 2.216 . S
Co70 O72 2.091 . S
Co70 O74 2.004 . S
Co70 O80 2.021 . S
Co70 O82 2.137 . S
Co70 O83 2.244 1_545 S
O71 Co70 2.216 . S
O71 C78 1.247 . S
O72 Co70 2.091 . S
O72 C78 1.261 . S
C73 O82 1.247 . S
C73 O83 1.272 1_545 S
O74 Co70 2.004 . S
O74 C79 1.259 . S
Co75 O76 2.061 . S
Co75 O81 2.052 . S
Co75 O83 2.135 . S
O76 Co75 2.061 . S
O76 C79 1.235 1_565 S
C77 O80 1.238 1_565 S
C77 O81 1.241 . S
C78 O71 1.247 . S
C78 O72 1.261 . S
C79 O74 1.259 . S
C79 O76 1.235 1_545 S
O80 Co70 2.021 . S
O80 C77 1.238 1_545 S
O81 Co75 2.052 . S
O81 C77 1.241 . S
O82 Co70 2.137 . S
O82 C73 1.247 . S
O83 Co70 2.244 1_565 S
O83 C73 1.272 1_565 S
O83 Co75 2.135 . S
Co84 O85 2.216 . S
Co84 O86 2.091 . S
Co84 O88 2.004 . S
Co84 O94 2.021 . S
Co84 O96 2.137 . S
Co84 O97 2.244 . S
O85 Co84 2.216 . S
O85 C92 1.247 . S
O86 Co84 2.091 . S
O86 C92 1.261 . S
C87 O96 1.247 . S
C87 O97 1.272 . S
O88 Co84 2.004 . S
O88 C93 1.259 . S
Co89 O90 2.061 . S
Co89 O95 2.052 . S
Co89 O97 2.135 . S
O90 Co89 2.061 . S
O90 C93 1.235 . S
C91 O94 1.238 . S
C91 O95 1.241 . S
C92 O85 1.247 . S
C92 O86 1.261 . S
C93 O88 1.259 . S
C93 O90 1.235 . S
O94 Co84 2.021 . S
O94 C91 1.238 . S
O95 Co89 2.052 . S
O95 C91 1.241 . S
O96 Co84 2.137 . S
O96 C87 1.247 . S
O97 Co84 2.244 . S
O97 C87 1.272 . S
O97 Co89 2.135 . S
Co98 O99 2.216 . S
Co98 O100 2.091 . S
Co98 O102 2.004 . S
Co98 O108 2.021 1_556 S
Co98 O110 2.137 . S
Co98 O111 2.244 1_655 S
O99 Co98 2.216 . S
O99 C106 1.247 . S
O100 Co98 2.091 . S
O100 C106 1.261 . S
C101 O110 1.247 . S
C101 O111 1.272 1_655 S
O102 Co98 2.004 . S
O102 C107 1.259 . S
Co103 O104 2.061 . S
Co103 O109 2.052 1_556 S
Co103 O111 2.135 . S
O104 Co103 2.061 . S
O104 C107 1.235 1_455 S
C105 O108 1.238 1_455 S
C105 O109 1.241 . S
C106 O99 1.247 . S
C106 O100 1.261 . S
C107 O102 1.259 . S
C107 O104 1.235 1_655 S
O108 Co98 2.021 1_554 S
O108 C105 1.238 1_655 S
O109 Co103 2.052 1_554 S
O109 C105 1.241 . S
O110 Co98 2.137 . S
O110 C101 1.247 . S
O111 Co98 2.244 1_455 S
O111 C101 1.272 1_455 S
O111 Co103 2.135 . S
Co112 O113 2.216 . S
Co112 O114 2.091 . S
Co112 O116 2.004 . S
Co112 O122 2.021 . S
Co112 O124 2.137 . S
Co112 O125 2.244 1_565 S
O113 Co112 2.216 . S
O113 C120 1.247 . S
O114 Co112 2.091 . S
O114 C120 1.261 . S
C115 O124 1.247 . S
C115 O125 1.272 1_565 S
O116 Co112 2.004 . S
O116 C121 1.259 . S
Co117 O118 2.061 . S
Co117 O123 2.052 . S
Co117 O125 2.135 . S
O118 Co117 2.061 . S
O118 C121 1.235 1_545 S
C119 O122 1.238 1_545 S
C119 O123 1.241 . S
C120 O113 1.247 . S
C120 O114 1.261 . S
C121 O116 1.259 . S
C121 O118 1.235 1_565 S
O122 Co112 2.021 . S
O122 C119 1.238 1_565 S
O123 Co117 2.052 . S
O123 C119 1.241 . S
O124 Co112 2.137 . S
O124 C115 1.247 . S
O125 Co112 2.244 1_545 S
O125 C115 1.272 1_545 S
O125 Co117 2.135 . S
Co126 O127 2.216 . S
Co126 O128 2.091 . S
Co126 O130 2.004 . S
Co126 O136 2.021 . S
Co126 O138 2.137 . S
Co126 O139 2.244 . S
O127 Co126 2.216 . S
O127 C134 1.247 . S
O128 Co126 2.091 . S
O128 C134 1.261 . S
C129 O138 1.247 . S
C129 O139 1.272 . S
O130 Co126 2.004 . S
O130 C135 1.259 . S
Co131 O132 2.061 . S
Co131 O137 2.052 . S
Co131 O139 2.135 . S
O132 Co131 2.061 . S
O132 C135 1.235 . S
C133 O136 1.238 . S
C133 O137 1.241 . S
C134 O127 1.247 . S
C134 O128 1.261 . S
C135 O130 1.259 . S
C135 O132 1.235 . S
O136 Co126 2.021 . S
O136 C133 1.238 . S
O137 Co131 2.052 . S
O137 C133 1.241 . S
O138 Co126 2.137 . S
O138 C129 1.247 . S
O139 Co126 2.244 . S
O139 C129 1.272 . S
O139 Co131 2.135 . S
Co140 O141 2.216 . S
Co140 O142 2.091 . S
Co140 O144 2.004 . S
Co140 O150 2.021 1_556 S
Co140 O152 2.137 . S
Co140 O153 2.244 1_455 S
O141 Co140 2.216 . S
O141 C148 1.247 . S
O142 Co140 2.091 . S
O142 C148 1.261 . S
C143 O152 1.247 . S
C143 O153 1.272 1_455 S
O144 Co140 2.004 . S
O144 C149 1.259 . S
Co145 O146 2.061 . S
Co145 O151 2.052 1_556 S
Co145 O153 2.135 . S
O146 Co145 2.061 . S
O146 C149 1.235 1_655 S
C147 O150 1.238 1_655 S
C147 O151 1.241 . S
C148 O141 1.247 . S
C148 O142 1.261 . S
C149 O144 1.259 . S
C149 O146 1.235 1_455 S
O150 Co140 2.021 1_554 S
O150 C147 1.238 1_455 S
O151 Co145 2.052 1_554 S
O151 C147 1.241 . S
O152 Co140 2.137 . S
O152 C143 1.247 . S
O153 Co140 2.244 1_655 S
O153 C143 1.272 1_655 S
O153 Co145 2.135 . S
Co154 O155 2.216 . S
Co154 O156 2.091 . S
Co154 O158 2.004 . S
Co154 O164 2.021 . S
Co154 O166 2.137 . S
Co154 O167 2.244 1_545 S
O155 Co154 2.216 . S
O155 C162 1.247 . S
O156 Co154 2.091 . S
O156 C162 1.261 . S
C157 O166 1.247 . S
C157 O167 1.272 1_545 S
O158 Co154 2.004 . S
O158 C163 1.259 . S
Co159 O160 2.061 . S
Co159 O165 2.052 . S
Co159 O167 2.135 . S
O160 Co159 2.061 . S
O160 C163 1.235 1_565 S
C161 O164 1.238 1_565 S
C161 O165 1.241 . S
C162 O155 1.247 . S
C162 O156 1.261 . S
C163 O158 1.259 . S
C163 O160 1.235 1_545 S
O164 Co154 2.021 . S
O164 C161 1.238 1_545 S
O165 Co159 2.052 . S
O165 C161 1.241 . S
O166 Co154 2.137 . S
O166 C157 1.247 . S
O167 Co154 2.244 1_565 S
O167 C157 1.272 1_565 S
O167 Co159 2.135 . S
C168 C169 1.387 . S
C168 H172 0.950 . S
C168 C177 1.390 . S
C169 C168 1.387 . S
C169 C171 1.387 . S
H170 C177 0.950 . S
C171 C169 1.387 . S
C171 C173 1.390 . S
C171 H175 0.950 . S
H172 C168 0.950 . S
C173 C171 1.390 . S
C173 C174 1.387 . S
C173 H176 0.950 . S
C174 C173 1.387 . S
C174 C177 1.387 . S
H175 C171 0.950 . S
H176 C173 0.950 . S
C177 C168 1.390 . S
C177 H170 0.950 . S
C177 C174 1.387 . S
C178 C179 1.387 . S
C178 H182 0.950 . S
C178 C187 1.390 . S
C179 C178 1.387 . S
C179 C181 1.387 1_655 S
H180 C187 0.950 . S
C181 C179 1.387 1_455 S
C181 C183 1.390 . S
C181 H185 0.950 . S
H182 C178 0.950 . S
C183 C181 1.390 . S
C183 C184 1.387 . S
C183 H186 0.950 . S
C184 C183 1.387 . S
C184 C187 1.387 1_455 S
H185 C181 0.950 . S
H186 C183 0.950 . S
C187 C178 1.390 . S
C187 H180 0.950 . S
C187 C184 1.387 1_655 S
C188 C189 1.387 . S
C188 H192 0.950 . S
C188 C197 1.390 1_566 S
C189 C188 1.387 . S
C189 C191 1.387 . S
H190 C197 0.950 . S
C191 C189 1.387 . S
C191 C193 1.390 1_566 S
C191 H195 0.950 . S
H192 C188 0.950 . S
C193 C191 1.390 1_544 S
C193 C194 1.387 . S
C193 H196 0.950 . S
C194 C193 1.387 . S
C194 C197 1.387 . S
H195 C191 0.950 . S
H196 C193 0.950 . S
C197 C188 1.390 1_544 S
C197 H190 0.950 . S
C197 C194 1.387 . S
C198 C199 1.387 . S
C198 H202 0.950 . S
C198 C207 1.390 . S
C199 C198 1.387 . S
C199 C201 1.387 . S
H200 C207 0.950 . S
C201 C199 1.387 . S
C201 C203 1.390 . S
C201 H205 0.950 . S
H202 C198 0.950 . S
C203 C201 1.390 . S
C203 C204 1.387 . S
C203 H206 0.950 . S
C204 C203 1.387 . S
C204 C207 1.387 . S
H205 C201 0.950 . S
H206 C203 0.950 . S
C207 C198 1.390 . S
C207 H200 0.950 . S
C207 C204 1.387 . S
C208 C209 1.387 1_455 S
C208 H212 0.950 . S
C208 C217 1.390 . S
C209 C208 1.387 1_655 S
C209 C211 1.387 . S
H210 C217 0.950 . S
C211 C209 1.387 . S
C211 C213 1.390 . S
C211 H215 0.950 . S
H212 C208 0.950 . S
C213 C211 1.390 . S
C213 C214 1.387 1_655 S
C213 H216 0.950 . S
C214 C213 1.387 1_455 S
C214 C217 1.387 . S
H215 C211 0.950 . S
H216 C213 0.950 . S
C217 C208 1.390 . S
C217 H210 0.950 . S
C217 C214 1.387 . S
C218 C219 1.387 . S
C218 H222 0.950 . S
C218 C227 1.390 1_564 S
C219 C218 1.387 . S
C219 C221 1.387 . S
H220 C227 0.950 . S
C221 C219 1.387 . S
C221 C223 1.390 1_564 S
C221 H225 0.950 . S
H222 C218 0.950 . S
C223 C221 1.390 1_546 S
C223 C224 1.387 . S
C223 H226 0.950 . S
C224 C223 1.387 . S
C224 C227 1.387 . S
H225 C221 0.950 . S
H226 C223 0.950 . S
C227 C218 1.390 1_546 S
C227 H220 0.950 . S
C227 C224 1.387 . S
C228 C229 1.387 . S
C228 H232 0.950 . S
C228 C237 1.390 1_556 S
C229 C228 1.387 . S
C229 C231 1.387 . S
H230 C237 0.950 . S
C231 C229 1.387 . S
C231 C233 1.390 1_556 S
C231 H235 0.950 . S
H232 C228 0.950 . S
C233 C231 1.390 1_554 S
C233 C234 1.387 . S
C233 H236 0.950 . S
C234 C233 1.387 . S
C234 C237 1.387 . S
H235 C231 0.950 . S
H236 C233 0.950 . S
C237 C228 1.390 1_554 S
C237 H230 0.950 . S
C237 C234 1.387 . S
C238 C239 1.387 . S
C238 H242 0.950 . S
C238 C247 1.390 . S
C239 C238 1.387 . S
C239 C241 1.387 . S
H240 C247 0.950 . S
C241 C239 1.387 . S
C241 C243 1.390 . S
C241 H245 0.950 . S
H242 C238 0.950 . S
C243 C241 1.390 . S
C243 C244 1.387 . S
C243 H246 0.950 . S
C244 C243 1.387 . S
C244 C247 1.387 . S
H245 C241 0.950 . S
H246 C243 0.950 . S
C247 C238 1.390 . S
C247 H240 0.950 . S
C247 C244 1.387 . S
C248 C249 1.387 . S
C248 H252 0.950 . S
C248 C257 1.390 . S
C249 C248 1.387 . S
C249 C251 1.387 . S
H250 C257 0.950 . S
C251 C249 1.387 . S
C251 C253 1.390 . S
C251 H255 0.950 . S
H252 C248 0.950 . S
C253 C251 1.390 . S
C253 C254 1.387 . S
C253 H256 0.950 . S
C254 C253 1.387 . S
C254 C257 1.387 . S
H255 C251 0.950 . S
H256 C253 0.950 . S
C257 C248 1.390 . S
C257 H250 0.950 . S
C257 C254 1.387 . S
C258 C259 1.387 . S
C258 H262 0.950 . S
C258 C267 1.390 1_554 S
C259 C258 1.387 . S
C259 C261 1.387 . S
H260 C267 0.950 . S
C261 C259 1.387 . S
C261 C263 1.390 1_554 S
C261 H265 0.950 . S
H262 C258 0.950 . S
C263 C261 1.390 1_556 S
C263 C264 1.387 . S
C263 H266 0.950 . S
C264 C263 1.387 . S
C264 C267 1.387 . S
H265 C261 0.950 . S
H266 C263 0.950 . S
C267 C258 1.390 1_556 S
C267 H260 0.950 . S
C267 C264 1.387 . S
C268 C269 1.387 . S
C268 H272 0.950 . S
C268 C277 1.390 . S
C269 C268 1.387 . S
C269 C271 1.387 . S
H270 C277 0.950 . S
C271 C269 1.387 . S
C271 C273 1.390 . S
C271 H275 0.950 . S
H272 C268 0.950 . S
C273 C271 1.390 . S
C273 C274 1.387 . S
C273 H276 0.950 . S
C274 C273 1.387 . S
C274 C277 1.387 . S
H275 C271 0.950 . S
H276 C273 0.950 . S
C277 C268 1.390 . S
C277 H270 0.950 . S
C277 C274 1.387 . S
C278 C279 1.387 . S
C278 H282 0.950 . S
C278 C287 1.390 . S
C279 C278 1.387 . S
C279 C281 1.387 . S
H280 C287 0.950 . S
C281 C279 1.387 . S
C281 C283 1.390 . S
C281 H285 0.950 . S
H282 C278 0.950 . S
C283 C281 1.390 . S
C283 C284 1.387 . S
C283 H286 0.950 . S
C284 C283 1.387 . S
C284 C287 1.387 . S
H285 C281 0.950 . S
H286 C283 0.950 . S
C287 C278 1.390 . S
C287 H280 0.950 . S
C287 C284 1.387 . S
C288 C289 1.387 . S
C288 H292 0.950 . S
C288 C297 1.390 . S
C289 C288 1.387 . S
C289 C291 1.387 . S
H290 C297 0.950 . S
C291 C289 1.387 . S
C291 C293 1.390 . S
C291 H295 0.950 . S
H292 C288 0.950 . S
C293 C291 1.390 . S
C293 C294 1.387 . S
C293 H296 0.950 . S
C294 C293 1.387 . S
C294 C297 1.387 . S
H295 C291 0.950 . S
H296 C293 0.950 . S
C297 C288 1.390 . S
C297 H290 0.950 . S
C297 C294 1.387 . S
C298 C299 1.387 1_655 S
C298 H302 0.950 . S
C298 C307 1.390 . S
C299 C298 1.387 1_455 S
C299 C301 1.387 . S
H300 C307 0.950 . S
C301 C299 1.387 . S
C301 C303 1.390 . S
C301 H305 0.950 . S
H302 C298 0.950 . S
C303 C301 1.390 . S
C303 C304 1.387 1_455 S
C303 H306 0.950 . S
C304 C303 1.387 1_655 S
C304 C307 1.387 . S
H305 C301 0.950 . S
H306 C303 0.950 . S
C307 C298 1.390 . S
C307 H300 0.950 . S
C307 C304 1.387 . S
C308 C309 1.387 . S
C308 H312 0.950 . S
C308 C317 1.390 1_545 S
C309 C308 1.387 . S
C309 C311 1.387 . S
H310 C317 0.950 . S
C311 C309 1.387 . S
C311 C313 1.390 1_545 S
C311 H315 0.950 . S
H312 C308 0.950 . S
C313 C311 1.390 1_565 S
C313 C314 1.387 . S
C313 H316 0.950 . S
C314 C313 1.387 . S
C314 C317 1.387 . S
H315 C311 0.950 . S
H316 C313 0.950 . S
C317 C308 1.390 1_565 S
C317 H310 0.950 . S
C317 C314 1.387 . S
C318 C319 1.387 . S
C318 H322 0.950 . S
C318 C327 1.390 . S
C319 C318 1.387 . S
C319 C321 1.387 . S
H320 C327 0.950 . S
C321 C319 1.387 . S
C321 C323 1.390 . S
C321 H325 0.950 . S
H322 C318 0.950 . S
C323 C321 1.390 . S
C323 C324 1.387 . S
C323 H326 0.950 . S
C324 C323 1.387 . S
C324 C327 1.387 . S
H325 C321 0.950 . S
H326 C323 0.950 . S
C327 C318 1.390 . S
C327 H320 0.950 . S
C327 C324 1.387 . S
C328 C329 1.387 1_455 S
C328 H332 0.950 . S
C328 C337 1.390 . S
C329 C328 1.387 1_655 S
C329 C331 1.387 . S
H330 C337 0.950 . S
C331 C329 1.387 . S
C331 C333 1.390 . S
C331 H335 0.950 . S
H332 C328 0.950 . S
C333 C331 1.390 . S
C333 C334 1.387 1_655 S
C333 H336 0.950 . S
C334 C333 1.387 1_455 S
C334 C337 1.387 . S
H335 C331 0.950 . S
H336 C333 0.950 . S
C337 C328 1.390 . S
C337 H330 0.950 . S
C337 C334 1.387 . S
C338 C339 1.387 . S
C338 H342 0.950 . S
C338 C347 1.390 1_545 S
C339 C338 1.387 . S
C339 C341 1.387 . S
H340 C347 0.950 . S
C341 C339 1.387 . S
C341 C343 1.390 1_545 S
C341 H345 0.950 . S
H342 C338 0.950 . S
C343 C341 1.390 1_565 S
C343 C344 1.387 . S
C343 H346 0.950 . S
C344 C343 1.387 . S
C344 C347 1.387 . S
H345 C341 0.950 . S
H346 C343 0.950 . S
C347 C338 1.390 1_565 S
C347 H340 0.950 . S
C347 C344 1.387 . S
C348 C349 1.387 . S
C348 H352 0.950 1_554 S
C348 C357 1.390 . S
C349 C348 1.387 . S
C349 C351 1.387 . S
H350 C357 0.950 1_556 S
C351 C349 1.387 . S
C351 C353 1.390 . S
C351 H355 0.950 . S
H352 C348 0.950 1_556 S
C353 C351 1.390 . S
C353 C354 1.387 . S
C353 H356 0.950 . S
C354 C353 1.387 . S
C354 C357 1.387 . S
H355 C351 0.950 . S
H356 C353 0.950 . S
C357 C348 1.390 . S
C357 H350 0.950 1_554 S
C357 C354 1.387 . S
C358 C359 1.387 . S
C358 H362 0.950 . S
C358 C367 1.390 1_455 S
C359 C358 1.387 . S
C359 C361 1.387 . S
H360 C367 0.950 . S
C361 C359 1.387 . S
C361 C363 1.390 1_455 S
C361 H365 0.950 . S
H362 C358 0.950 . S
C363 C361 1.390 1_655 S
C363 C364 1.387 . S
C363 H366 0.950 . S
C364 C363 1.387 . S
C364 C367 1.387 . S
H365 C361 0.950 . S
H366 C363 0.950 . S
C367 C358 1.390 1_655 S
C367 H360 0.950 . S
C367 C364 1.387 . S
C368 C369 1.387 . S
C368 H372 0.950 . S
C368 C377 1.390 1_565 S
C369 C368 1.387 . S
C369 C371 1.387 . S
H370 C377 0.950 . S
C371 C369 1.387 . S
C371 C373 1.390 1_565 S
C371 H375 0.950 . S
H372 C368 0.950 . S
C373 C371 1.390 1_545 S
C373 C374 1.387 . S
C373 H376 0.950 . S
C374 C373 1.387 . S
C374 C377 1.387 . S
H375 C371 0.950 . S
H376 C373 0.950 . S
C377 C368 1.390 1_545 S
C377 H370 0.950 . S
C377 C374 1.387 . S
C378 C379 1.387 . S
C378 H382 0.950 . S
C378 C387 1.390 . S
C379 C378 1.387 . S
C379 C381 1.387 . S
H380 C387 0.950 . S
C381 C379 1.387 . S
C381 C383 1.390 . S
C381 H385 0.950 . S
H382 C378 0.950 . S
C383 C381 1.390 . S
C383 C384 1.387 . S
C383 H386 0.950 . S
C384 C383 1.387 . S
C384 C387 1.387 . S
H385 C381 0.950 . S
H386 C383 0.950 . S
C387 C378 1.390 . S
C387 H380 0.950 . S
C387 C384 1.387 . S
C388 C389 1.387 . S
C388 H392 0.950 . S
C388 C397 1.390 1_655 S
C389 C388 1.387 . S
C389 C391 1.387 . S
H390 C397 0.950 . S
C391 C389 1.387 . S
C391 C393 1.390 1_655 S
C391 H395 0.950 1_556 S
H392 C388 0.950 . S
C393 C391 1.390 1_455 S
C393 C394 1.387 . S
C393 H396 0.950 1_556 S
C394 C393 1.387 . S
C394 C397 1.387 . S
H395 C391 0.950 1_554 S
H396 C393 0.950 1_554 S
C397 C388 1.390 1_455 S
C397 H390 0.950 . S
C397 C394 1.387 . S
C398 C399 1.387 . S
C398 H402 0.950 . S
C398 C407 1.390 1_545 S
C399 C398 1.387 . S
C399 C401 1.387 . S
H400 C407 0.950 . S
C401 C399 1.387 . S
C401 C403 1.390 1_545 S
C401 H405 0.950 . S
H402 C398 0.950 . S
C403 C401 1.390 1_565 S
C403 C404 1.387 . S
C403 H406 0.950 . S
C404 C403 1.387 . S
C404 C407 1.387 . S
H405 C401 0.950 . S
H406 C403 0.950 . S
C407 C398 1.390 1_565 S
C407 H400 0.950 . S
C407 C404 1.387 . S
C169 C3 1.521 . S
C174 C129 1.520 . S
C179 C17 1.521 . S
C184 C143 1.523 . S
C189 C31 1.523 . S
C194 C157 1.523 . S
C199 C45 1.521 . S
C204 C87 1.520 . S
C209 C101 1.521 . S
C214 C59 1.521 . S
C219 C115 1.521 . S
C224 C73 1.521 . S
C229 C148 1.591 . S
C234 C8 1.591 . S
C239 C22 1.590 . S
C244 C162 1.589 . S
C249 C36 1.590 . S
C254 C92 1.590 . S
C259 C50 1.591 . S
C264 C106 1.591 . S
C269 C64 1.590 . S
C274 C120 1.589 . S
C279 C78 1.591 . S
C284 C134 1.590 . S
C289 C133 1.059 . S
C294 C7 1.057 . S
C299 C21 1.059 . S
C304 C147 1.058 . S
C309 C35 1.058 . S
C314 C161 1.058 . S
C319 C91 1.059 . S
C324 C49 1.058 . S
C329 C63 1.059 . S
C334 C105 1.058 . S
C339 C119 1.058 . S
C344 C77 1.058 . S
C349 C9 1.505 . S
C354 C51 1.505 . S
C359 C65 1.507 . S
C364 C23 1.507 . S
C369 C37 1.505 . S
C374 C79 1.505 . S
C379 C93 1.505 . S
C384 C135 1.505 . S
C389 C107 1.507 . S
C394 C149 1.507 . S
C399 C163 1.505 . S
C404 C121 1.505 . S
