# Generated by pormake.
# Topology pcb, (4)-cn, num edge types: 1
# Building blocks:
#     Node 0, Type 0, BuildingBlock: ICAMEG_clean_sbu_1, # of connection points: 4
#     Node 1, Type 0, BuildingBlock: ICAMEG_clean_sbu_1, # of connection points: 4
#     Node 2, Type 0, BuildingBlock: ICAMEG_clean_sbu_1, # of connection points: 4
#     Node 3, Type 0, BuildingBlock: ICAMEG_clean_sbu_1, # of connection points: 4
#     Node 4, Type 0, BuildingBlock: ICAMEG_clean_sbu_1, # of connection points: 4
#     Node 5, Type 0, BuildingBlock: ICAMEG_clean_sbu_1, # of connection points: 4
#     Node 6, Type 0, BuildingBlock: ICAMEG_clean_sbu_1, # of connection points: 4
#     Node 7, Type 0, BuildingBlock: ICAMEG_clean_sbu_1, # of connection points: 4
#     Node 8, Type 0, BuildingBlock: ICAMEG_clean_sbu_1, # of connection points: 4
#     Node 9, Type 0, BuildingBlock: ICAMEG_clean_sbu_1, # of connection points: 4
#     Node 10, Type 0, BuildingBlock: ICAMEG_clean_sbu_1, # of connection points: 4
#     Node 11, Type 0, BuildingBlock: ICAMEG_clean_sbu_1, # of connection points: 4
#     Node 12, Type 0, BuildingBlock: ICAMEG_clean_sbu_1, # of connection points: 4
#     Node 13, Type 0, BuildingBlock: ICAMEG_clean_sbu_1, # of connection points: 4
#     Node 14, Type 0, BuildingBlock: ICAMEG_clean_sbu_1, # of connection points: 4
#     Node 15, Type 0, BuildingBlock: ICAMEG_clean_sbu_1, # of connection points: 4
#     Edge 16, Type (0, 0), BuildingBlock: EZIPEK_clean_linker_0, # of connection points: 2
#     Edge 17, Type (0, 0), BuildingBlock: EZIPEK_clean_linker_0, # of connection points: 2
#     Edge 18, Type (0, 0), BuildingBlock: EZIPEK_clean_linker_0, # of connection points: 2
#     Edge 19, Type (0, 0), BuildingBlock: EZIPEK_clean_linker_0, # of connection points: 2
#     Edge 20, Type (0, 0), BuildingBlock: EZIPEK_clean_linker_0, # of connection points: 2
#     Edge 21, Type (0, 0), BuildingBlock: EZIPEK_clean_linker_0, # of connection points: 2
#     Edge 22, Type (0, 0), BuildingBlock: EZIPEK_clean_linker_0, # of connection points: 2
#     Edge 23, Type (0, 0), BuildingBlock: EZIPEK_clean_linker_0, # of connection points: 2
#     Edge 24, Type (0, 0), BuildingBlock: EZIPEK_clean_linker_0, # of connection points: 2
#     Edge 25, Type (0, 0), BuildingBlock: EZIPEK_clean_linker_0, # of connection points: 2
#     Edge 26, Type (0, 0), BuildingBlock: EZIPEK_clean_linker_0, # of connection points: 2
#     Edge 27, Type (0, 0), BuildingBlock: EZIPEK_clean_linker_0, # of connection points: 2
#     Edge 28, Type (0, 0), BuildingBlock: EZIPEK_clean_linker_0, # of connection points: 2
#     Edge 29, Type (0, 0), BuildingBlock: EZIPEK_clean_linker_0, # of connection points: 2
#     Edge 30, Type (0, 0), BuildingBlock: EZIPEK_clean_linker_0, # of connection points: 2
#     Edge 31, Type (0, 0), BuildingBlock: EZIPEK_clean_linker_0, # of connection points: 2
#     Edge 32, Type (0, 0), BuildingBlock: EZIPEK_clean_linker_0, # of connection points: 2
#     Edge 33, Type (0, 0), BuildingBlock: EZIPEK_clean_linker_0, # of connection points: 2
#     Edge 34, Type (0, 0), BuildingBlock: EZIPEK_clean_linker_0, # of connection points: 2
#     Edge 35, Type (0, 0), BuildingBlock: EZIPEK_clean_linker_0, # of connection points: 2
#     Edge 36, Type (0, 0), BuildingBlock: EZIPEK_clean_linker_0, # of connection points: 2
#     Edge 37, Type (0, 0), BuildingBlock: EZIPEK_clean_linker_0, # of connection points: 2
#     Edge 38, Type (0, 0), BuildingBlock: EZIPEK_clean_linker_0, # of connection points: 2
#     Edge 39, Type (0, 0), BuildingBlock: EZIPEK_clean_linker_0, # of connection points: 2
#     Edge 40, Type (0, 0), BuildingBlock: EZIPEK_clean_linker_0, # of connection points: 2
#     Edge 41, Type (0, 0), BuildingBlock: EZIPEK_clean_linker_0, # of connection points: 2
#     Edge 42, Type (0, 0), BuildingBlock: EZIPEK_clean_linker_0, # of connection points: 2
#     Edge 43, Type (0, 0), BuildingBlock: EZIPEK_clean_linker_0, # of connection points: 2
#     Edge 44, Type (0, 0), BuildingBlock: EZIPEK_clean_linker_0, # of connection points: 2
#     Edge 45, Type (0, 0), BuildingBlock: EZIPEK_clean_linker_0, # of connection points: 2
#     Edge 46, Type (0, 0), BuildingBlock: EZIPEK_clean_linker_0, # of connection points: 2
#     Edge 47, Type (0, 0), BuildingBlock: EZIPEK_clean_linker_0, # of connection points: 2
# Relax obj value: 0.342
# Max RMSD: 0.266
# Mean RMSD: 0.202
data_MOF--net-pcb--node1-ICAMEG_clean_sbu_1--edge1-EZIPEK_clean_linker_0
_symmetry_space_group_name_H-M    P1
_symmetry_Int_Tables_number       1
_symmetry_cell_setting            triclinic
loop_
_symmetry_equiv_pos_as_xyz
'x, y, z'
_cell_length_a     40.330216
_cell_length_b     32.567501
_cell_length_c     33.370986
_cell_angle_alpha  95.334657
_cell_angle_beta   94.039635
_cell_angle_gamma 99.224789
loop_
_atom_site_label
_atom_site_type_symbol
_atom_site_fract_x
_atom_site_fract_y
_atom_site_fract_z
_atom_type_partial_charge
Co0 Co 0.12731 0.12704 0.10185 0.0
Co1 Co 0.15765 0.22514 0.14439 0.0
O2 O 0.16228 0.16543 0.13683 0.0
C3 C 0.13805 0.0807 0.17403 0.0
O4 O 0.13467 0.11437 0.19714 0.0
C5 C 0.23293 0.22495 0.14372 0.0
O6 O 0.22776 0.19255 0.11623 0.0
O7 O 0.161 0.22691 0.08456 0.0
O8 O 0.12051 0.17202 0.06626 0.0
H9 H 0.11401 0.35362 0.10656 0.0
H10 H 0.19575 0.10683 0.11584 0.0
O11 O 0.13464 0.07993 0.13555 0.0
H12 H 0.17202 0.08989 0.96797 0.0
H13 H 0.07002 0.99384 0.01927 0.0
H14 H 0.06018 0.1385 0.06645 0.0
H15 H 0.13044 0.11263 0.01201 0.0
H16 H 0.1161 0.03931 0.06461 0.0
O17 O 0.20825 0.24158 0.15547 0.0
H18 H 0.11888 0.27882 0.09977 0.0
H19 H 0.19072 0.29867 0.20177 0.0
H20 H 0.01365 0.09456 0.02314 0.0
H21 H 0.23819 0.08409 0.07302 0.0
H22 H 0.01859 0.02166 0.99885 0.0
H23 H 0.22634 0.07536 0.99835 0.0
O24 O 0.09383 0.14356 0.13776 0.0
H25 H 0.19282 0.18368 0.28027 0.0
H26 H 0.11241 0.25362 0.20488 0.0
H27 H 0.108 0.24828 0.27755 0.0
H28 H 0.1485 0.21329 0.31582 0.0
H29 H 0.19595 0.18903 0.20741 0.0
H30 H 0.18709 0.37379 0.20942 0.0
H31 H 0.14833 0.40171 0.16178 0.0
O32 O 0.10597 0.21192 0.13667 0.0
C33 C 0.14201 0.20208 0.05719 0.0
C34 C 0.13083 0.34181 0.12768 0.0
C35 C 0.17187 0.35314 0.18537 0.0
N36 N 0.15451 0.2842 0.15069 0.0
C37 C 0.13351 0.29943 0.12407 0.0
C38 C 0.17384 0.31055 0.18083 0.0
C39 C 0.15013 0.36878 0.15863 0.0
C40 C 0.19042 0.10292 0.08355 0.0
N41 N 0.16053 0.11067 0.06671 0.0
C42 C 0.21455 0.09013 0.05936 0.0
C43 C 0.20789 0.08524 0.0175 0.0
C44 C 0.17739 0.09331 1.00043 0.0
C45 C 0.15396 0.10625 0.0256 0.0
C46 C 0.06773 0.02542 0.02997 0.0
C47 C 0.06249 0.10663 0.05671 0.0
C48 C 0.09344 0.0508 0.05563 0.0
N49 N 0.09075 0.09087 0.06838 0.0
C50 C 0.03603 0.08197 0.03188 0.0
C51 C 0.03882 0.04112 0.01826 0.0
C52 C 0.08473 0.17904 0.14086 0.0
C53 C 0.17509 0.19913 0.26396 0.0
C54 C 0.13 0.23808 0.2212 0.0
C55 C 0.12745 0.23529 0.26241 0.0
C56 C 0.15019 0.21569 0.28387 0.0
N57 N 0.15455 0.22183 0.20187 0.0
C58 C 0.17685 0.20245 0.22272 0.0
Co59 Co 0.87919 0.18022 0.15707 0.0
Co60 Co 0.90376 0.20715 0.25905 0.0
O61 O 0.87767 0.21307 0.20844 0.0
C62 C 0.89543 0.24352 0.10115 0.0
O63 O 0.92402 0.22936 0.09909 0.0
C64 C 0.83219 0.19877 0.27916 0.0
O65 O 0.82457 0.17405 0.2453 0.0
O66 O 0.8899 0.14469 0.25258 0.0
O67 O 0.88226 0.12975 0.18533 0.0
H68 H 0.9822 0.14456 0.35051 0.0
H69 H 0.82381 0.22913 0.16664 0.0
O70 O 0.87525 0.23026 0.12673 0.0
H71 H 0.76784 0.08197 0.13995 0.0
H72 H 0.83817 0.12666 0.01212 0.0
H73 H 0.92941 0.1326 0.11936 0.0
H74 H 0.82969 0.10031 0.14188 0.0
H75 H 0.83499 0.16306 0.07906 0.0
O76 O 0.86305 0.21408 0.28988 0.0
H77 H 0.95053 0.15121 0.28625 0.0
H78 H 0.90963 0.25222 0.34166 0.0
H79 H 0.93312 0.09519 0.05331 0.0
H80 H 0.76178 0.21223 0.16409 0.0
H81 H 0.88752 0.09224 0.9987 0.0
H82 H 0.73342 0.13816 0.15081 0.0
O83 O 0.92946 0.19453 0.16298 0.0
H84 H 0.8877 0.3565 0.25272 0.0
H85 H 0.96976 0.26339 0.28045 0.0
H86 H 0.9891 0.33961 0.28559 0.0
H87 H 0.94789 0.38676 0.2719 0.0
H88 H 0.86954 0.28009 0.24753 0.0
H89 H 0.94056 0.24646 0.40676 0.0
H90 H 0.97733 0.19246 0.41143 0.0
O91 O 0.94494 0.20022 0.22974 0.0
C92 C 0.88505 0.11846 0.22094 0.0
C93 C 0.96644 0.1684 0.34881 0.0
C94 C 0.94302 0.22552 0.38039 0.0
N95 N 0.9287 0.20247 0.30991 0.0
C96 C 0.94859 0.17244 0.31237 0.0
C97 C 0.92553 0.22859 0.34345 0.0
C98 C 0.96365 0.19523 0.38299 0.0
C99 C 0.81158 0.19692 0.16003 0.0
N100 N 0.83033 0.16588 0.15366 0.0
C101 C 0.77648 0.1875 0.15898 0.0
C102 C 0.7606 0.14592 0.15164 0.0
C103 C 0.77989 0.11438 0.14559 0.0
C104 C 0.81493 0.12496 0.14689 0.0
C105 C 0.8579 0.12692 0.03592 0.0
C106 C 0.90851 0.13 0.09694 0.0
C107 C 0.8561 0.14719 0.07429 0.0
N108 N 0.88088 0.14796 0.10476 0.0
C109 C 0.91111 0.10926 0.05902 0.0
C110 C 0.88557 0.10768 0.02837 0.0
C111 C 0.95168 0.1976 0.19278 0.0
C112 C 0.90585 0.33633 0.25913 0.0
C113 C 0.95163 0.28371 0.27466 0.0
C114 C 0.96275 0.32684 0.27755 0.0
C115 C 0.93963 0.35328 0.26982 0.0
N116 N 0.91836 0.26735 0.26474 0.0
C117 C 0.89567 0.29304 0.25647 0.0
Co118 Co 0.90384 0.88208 0.14152 0.0
Co119 Co 0.87264 0.78375 0.16031 0.0
O120 O 0.87029 0.84427 0.16701 0.0
C121 C 0.8802 0.93868 0.20845 0.0
O122 O 0.85747 0.90901 0.21895 0.0
C123 C 0.79871 0.78987 0.17357 0.0
O124 O 0.80607 0.83076 0.1787 0.0
O125 O 0.86438 0.78538 0.1006 0.0
O126 O 0.90684 0.83681 0.09813 0.0
H127 H 0.90736 0.65811 0.08658 0.0
H128 H 0.83177 0.89268 0.14819 0.0
O129 O 0.90114 0.93053 0.18292 0.0
H130 H 0.85492 0.9218 0.00999 0.0
H131 H 0.96572 0.01838 0.10146 0.0
H132 H 0.96777 0.86839 0.10773 0.0
H133 H 0.89944 0.90533 0.0567 0.0
H134 H 0.91889 0.97333 0.12714 0.0
O135 O 0.82159 0.76806 0.1646 0.0
H136 H 0.90511 0.73303 0.10174 0.0
H137 H 0.84405 0.70626 0.19748 0.0
H138 H 0.01506 0.91192 0.08134 0.0
H139 H 0.78618 0.90745 0.10207 0.0
H140 H 0.01448 0.98764 0.07844 0.0
H141 H 0.79759 0.9227 0.03233 0.0
O142 O 0.93909 0.86366 0.17639 0.0
H143 H 0.85975 0.82723 0.30686 0.0
H144 H 0.91834 0.74385 0.21322 0.0
H145 H 0.93101 0.74451 0.28639 0.0
H146 H 0.90143 0.78616 0.33394 0.0
H147 H 0.84807 0.82594 0.23365 0.0
H148 H 0.84522 0.6311 0.18325 0.0
H149 H 0.8773 0.60648 0.12751 0.0
O150 O 0.92381 0.79578 0.15766 0.0
C151 C 0.88307 0.80945 0.08022 0.0
C152 C 0.8933 0.6684 0.11096 0.0
C153 C 0.85842 0.65326 0.16516 0.0
N154 N 0.87448 0.72427 0.15065 0.0
C155 C 0.89189 0.71084 0.1197 0.0
C156 C 0.85762 0.69595 0.17299 0.0
C157 C 0.87643 0.63947 0.13392 0.0
C158 C 0.8371 0.89865 0.11807 0.0
N159 N 0.86878 0.89874 0.10597 0.0
C160 C 0.81109 0.90735 0.09197 0.0
C161 C 0.8175 0.91596 0.05291 0.0
C162 C 0.84967 0.91565 0.04044 0.0
C163 C 0.875 0.90672 0.06738 0.0
C164 C 0.96621 0.98534 0.10246 0.0
C165 C 0.96675 0.90104 0.10591 0.0
C166 C 0.93959 0.95968 0.11711 0.0
N167 N 0.93978 0.91792 0.11846 0.0
C168 C 0.99385 0.92565 0.0911 0.0
C169 C 0.99353 0.96812 0.08944 0.0
C170 C 0.94629 0.82682 0.17281 0.0
C171 C 0.87247 0.80847 0.28648 0.0
C172 C 0.90501 0.76174 0.23345 0.0
C173 C 0.91244 0.76211 0.27501 0.0
C174 C 0.8959 0.78552 0.30166 0.0
N175 N 0.88136 0.78352 0.21861 0.0
C176 C 0.86572 0.80735 0.24472 0.0
Co177 Co 0.15235 0.86021 0.1237 0.0
Co178 Co 0.15659 0.83087 0.22063 0.0
O179 O 0.16877 0.82755 0.16452 0.0
C180 C 0.13699 0.77384 0.07884 0.0
O181 O 0.12744 0.75757 0.11155 0.0
C182 C 0.23205 0.84732 0.22709 0.0
O183 O 0.2307 0.87287 0.19907 0.0
O184 O 0.16545 0.89441 0.22759 0.0
O185 O 0.15556 0.90964 0.16425 0.0
H186 H 0.09032 0.86918 0.33707 0.0
H187 H 0.20943 0.81677 0.10578 0.0
O188 O 0.14851 0.81266 0.07988 0.0
H189 H 0.25393 0.96644 0.10349 0.0
H190 H 0.16428 0.93316 1.00008 0.0
H191 H 0.10268 0.91724 0.1216 0.0
H192 H 0.19519 0.9434 0.11796 0.0
H193 H 0.16843 0.87398 0.04006 0.0
O194 O 0.205 0.82943 0.24007 0.0
H195 H 0.10514 0.86695 0.26687 0.0
H196 H 0.18046 0.7938 0.29371 0.0
H197 H 0.09616 0.97503 0.08259 0.0
H198 H 0.26807 0.83818 0.08974 0.0
H199 H 0.13068 0.9865 0.02317 0.0
H200 H 0.29077 0.91361 0.08886 0.0
O201 O 0.10433 0.84125 0.13522 0.0
H202 H 0.18212 0.68725 0.18083 0.0
H203 H 0.0994 0.767 0.23835 0.0
H204 H 0.08671 0.68995 0.22963 0.0
H205 H 0.12828 0.64952 0.20079 0.0
H206 H 0.19362 0.76433 0.18959 0.0
H207 H 0.16647 0.79537 0.36427 0.0
H208 H 0.12115 0.83334 0.38653 0.0
O209 O 0.10833 0.83164 0.20142 0.0
C210 C 0.16148 0.92048 0.20188 0.0
C211 C 0.11049 0.85308 0.32792 0.0
C212 C 0.15321 0.81169 0.34318 0.0
N213 N 0.14474 0.83195 0.27624 0.0
C214 C 0.11926 0.85207 0.28814 0.0
C215 C 0.16129 0.81135 0.30314 0.0
C216 C 0.12773 0.8329 0.35563 0.0
C217 C 0.21901 0.8495 0.1049 0.0
N218 N 0.19889 0.87866 0.11293 0.0
C219 C 0.25229 0.86152 0.09604 0.0
C220 C 0.26503 0.90383 0.09564 0.0
C221 C 0.24441 0.93348 0.10395 0.0
C222 C 0.21124 0.92026 0.11258 0.0
C223 C 0.15032 0.92959 0.02643 0.0
C224 C 0.11547 0.91998 0.09441 0.0
C225 C 0.15212 0.8958 0.04864 0.0
N226 N 0.13692 0.89338 0.08379 0.0
C227 C 0.11229 0.95348 0.07254 0.0
C228 C 0.13122 0.95945 0.03946 0.0
C229 C 0.09119 0.83379 0.16819 0.0
C230 C 0.16386 0.7045 0.19356 0.0
C231 C 0.11762 0.74967 0.22573 0.0
C232 C 0.1103 0.70602 0.22091 0.0
C233 C 0.13363 0.68336 0.20472 0.0
N234 N 0.14733 0.7702 0.21475 0.0
C235 C 0.1703 0.74818 0.19877 0.0
Co236 Co 0.11263 0.82772 0.87937 0.0
Co237 Co 0.11576 0.73412 0.8237 0.0
O238 O 0.13189 0.79477 0.83727 0.0
C239 C 0.09947 0.90232 0.83771 0.0
O240 O 0.06704 0.89098 0.84047 0.0
C241 C 0.19221 0.74565 0.81915 0.0
O242 O 0.19583 0.78526 0.83295 0.0
O243 O 0.12495 0.72466 0.88158 0.0
O244 O 0.10584 0.77914 0.91243 0.0
H245 H 0.04759 0.59555 0.84399 0.0
H246 H 0.17864 0.8642 0.8535 0.0
O247 O 0.12023 0.8785 0.84802 0.0
H248 H 0.20147 0.84478 0.99684 0.0
H249 H 0.097 0.95729 0.96529 0.0
H250 H 0.05576 0.80722 0.92934 0.0
H251 H 0.14318 0.82914 0.96439 0.0
H252 H 0.12686 0.91611 0.91882 0.0
O253 O 0.16295 0.72302 0.81393 0.0
H254 H 0.06775 0.67145 0.85853 0.0
H255 H 0.13025 0.66851 0.76152 0.0
H256 H 0.0296 0.84543 0.98201 0.0
H257 H 0.2366 0.88327 0.88574 0.0
H258 H 0.0497 0.92135 0.99996 0.0
H259 H 0.24832 0.87304 0.95786 0.0
O260 O 0.06694 0.80938 0.85096 0.0
H261 H 0.14076 0.80278 0.69768 0.0
H262 H 0.05977 0.70279 0.75938 0.0
H263 H 0.04764 0.7163 0.68889 0.0
H264 H 0.0883 0.7666 0.65751 0.0
H265 H 0.15208 0.78804 0.7679 0.0
H266 H 0.11107 0.59257 0.74611 0.0
H267 H 0.06932 0.55557 0.7874 0.0
O268 O 0.0676 0.74151 0.83199 0.0
C269 C 0.11681 0.74465 0.91307 0.0
C270 C 0.06576 0.61131 0.82575 0.0
C271 C 0.10143 0.60962 0.77087 0.0
N272 N 0.10011 0.67444 0.81094 0.0
C273 C 0.07722 0.65429 0.83384 0.0
C274 C 0.11232 0.65263 0.77986 0.0
C275 C 0.07798 0.58889 0.79402 0.0
C276 C 0.18328 0.86083 0.88522 0.0
N277 N 0.15746 0.84536 0.90689 0.0
C278 C 0.21625 0.87138 0.90323 0.0
C279 C 0.22282 0.86564 0.94366 0.0
C280 C 0.19639 0.85008 0.96567 0.0
C281 C 0.16357 0.84073 0.94691 0.0
C282 C 0.0888 0.92394 0.95907 0.0
C283 C 0.06589 0.83973 0.93832 0.0
C284 C 0.10509 0.90066 0.93189 0.0
N285 N 0.09292 0.85933 0.92085 0.0
C286 C 0.05068 0.86133 0.96794 0.0
C287 C 0.06203 0.90392 0.97802 0.0
C288 C 0.05212 0.77269 0.83746 0.0
C289 C 0.12298 0.78051 0.71088 0.0
C290 C 0.07791 0.7242 0.74582 0.0
C291 C 0.07078 0.73191 0.70591 0.0
C292 C 0.09354 0.76022 0.68837 0.0
N293 N 0.10712 0.74371 0.76755 0.0
C294 C 0.12928 0.77197 0.75069 0.0
Co295 Co 0.12647 0.13072 0.80315 0.0
Co296 Co 0.15217 0.23805 0.81383 0.0
O297 O 0.15787 0.18089 0.7944 0.0
C298 C 0.17454 0.06476 0.81606 0.0
O299 O 0.2067 0.06186 0.81851 0.0
C300 C 0.17074 0.24205 0.7277 0.0
O301 O 0.15477 0.20358 0.71924 0.0
O302 O 0.10375 0.22834 0.7897 0.0
O303 O 0.08722 0.16088 0.79715 0.0
H304 H 0.09129 0.34599 0.87923 0.0
H305 H 0.17523 0.11676 0.74267 0.0
O306 O 0.16665 0.10073 0.8107 0.0
H307 H 0.06532 0.09922 0.66312 0.0
H308 H 0.05525 0.98744 0.76296 0.0
H309 H 0.08088 0.10747 0.86759 0.0
H310 H 0.0692 0.11444 0.73688 0.0
H311 H 0.10162 0.04408 0.75701 0.0
O312 O 0.16996 0.26008 0.76318 0.0
H313 H 0.09942 0.27464 0.85538 0.0
H314 H 0.19351 0.32284 0.8136 0.0
H315 H 0.03547 0.05071 0.875 0.0
H316 H 0.172 0.09978 0.6691 0.0
H317 H 0.0214 0.99011 0.82204 0.0
H318 H 0.11682 0.09119 0.62863 0.0
O319 O 0.1327 0.14897 0.86296 0.0
H320 H 0.27636 0.23284 0.81613 0.0
H321 H 0.18576 0.27356 0.89512 0.0
H322 H 0.24395 0.28444 0.92691 0.0
H323 H 0.28981 0.26437 0.88724 0.0
H324 H 0.21772 0.22155 0.7858 0.0
H325 H 0.18625 0.39473 0.83671 0.0
H326 H 0.13488 0.40667 0.86989 0.0
O327 O 0.1366 0.21902 0.86556 0.0
C328 C 0.08039 0.19673 0.79026 0.0
C329 C 0.11379 0.34119 0.86483 0.0
C330 C 0.16707 0.36856 0.84092 0.0
N331 N 0.14689 0.29455 0.83304 0.0
C332 C 0.11856 0.30085 0.85129 0.0
C333 C 0.17098 0.32777 0.82776 0.0
C334 C 0.13824 0.37523 0.85955 0.0
C335 C 0.15088 0.11183 0.72573 0.0
N336 N 0.12241 0.11582 0.74472 0.0
C337 C 0.1493 0.10273 0.68383 0.0
C338 C 0.11838 0.09813 0.66112 0.0
C339 C 0.0895 0.10276 0.68045 0.0
C340 C 0.092 0.11188 0.72239 0.0
C341 C 0.06061 0.014 0.78584 0.0
C342 C 0.07601 0.08148 0.8444 0.0
C343 C 0.08682 0.04687 0.78247 0.0
N344 N 0.09416 0.08073 0.81124 0.0
C345 C 0.04964 0.04921 0.84873 0.0
C346 C 0.04171 0.01542 0.81905 0.0
C347 C 0.13443 0.18524 0.88239 0.0
C348 C 0.25662 0.2419 0.83367 0.0
C349 C 0.20549 0.26448 0.87768 0.0
C350 C 0.23843 0.27083 0.89584 0.0
C351 C 0.26414 0.25954 0.87358 0.0
N352 N 0.19829 0.24736 0.83841 0.0
C353 C 0.22335 0.23581 0.81656 0.0
Co354 Co 0.92014 0.2056 0.87687 0.0
Co355 Co 0.86506 0.18832 0.7928 0.0
O356 O 0.88251 0.22161 0.84442 0.0
C357 C 0.87768 0.24381 0.93783 0.0
O358 O 0.85564 0.25125 0.90977 0.0
C359 C 0.85576 0.27757 0.77898 0.0
O360 O 0.88297 0.29495 0.80209 0.0
O361 O 0.91156 0.2031 0.77261 0.0
O362 O 0.93961 0.18507 0.82676 0.0
H363 H 0.87004 0.0839 0.67361 0.0
H364 H 0.90655 0.29335 0.87955 0.0
O365 O 0.90271 0.22638 0.92886 0.0
H366 H 0.02743 0.30293 0.86016 0.0
H367 H 1.00557 0.21686 0.99665 0.0
H368 H 0.95529 0.13203 0.87056 0.0
H369 H 0.9924 0.23485 0.86527 0.0
H370 H 0.96253 0.24118 0.95326 0.0
O371 O 0.84877 0.238 0.77095 0.0
H372 H 0.89025 0.12521 0.73897 0.0
H373 H 0.80347 0.18332 0.73565 0.0
H374 H 1.00018 0.10804 0.91173 0.0
H375 H 0.94061 0.36212 0.87424 0.0
H376 H 0.02567 0.15057 0.97534 0.0
H377 H 1.00163 0.36736 0.8647 0.0
O378 O 0.89272 0.14934 0.87895 0.0
H379 H 0.76584 0.21973 0.86625 0.0
H380 H 0.8155 0.10923 0.79296 0.0
H381 H 0.76098 0.09085 0.82132 0.0
H382 H 0.73571 0.1463 0.85824 0.0
H383 H 0.82047 0.2366 0.83779 0.0
H384 H 0.78236 0.14327 0.67008 0.0
H385 H 0.81562 0.09291 0.63866 0.0
O386 O 0.87724 0.13559 0.813 0.0
C387 C 0.9389 0.19622 0.79108 0.0
C388 C 0.85529 0.1057 0.68697 0.0
C389 C 0.80612 0.13905 0.68498 0.0
N390 N 0.84823 0.15648 0.74123 0.0
C391 C 0.86667 0.12906 0.72401 0.0
C392 C 0.81832 0.1618 0.72209 0.0
C393 C 0.82477 0.11079 0.66738 0.0
C394 C 0.93306 0.29526 0.87581 0.0
N395 N 0.94749 0.26008 0.87411 0.0
C396 C 0.95226 0.33436 0.87267 0.0
C397 C 0.98647 0.33729 0.8673 0.0
C398 C 1.00098 0.30122 0.8649 0.0
C399 C 0.98097 0.26269 0.8681 0.0
C400 C 0.99508 0.19831 0.96873 0.0
C401 C 0.9667 0.15114 0.89777 0.0
C402 C 0.97035 0.21172 0.9442 0.0
N403 N 0.95636 0.18814 0.90924 0.0
C404 C 0.99193 0.1372 0.92114 0.0
C405 C 1.00614 0.16098 0.95689 0.0
C406 C 0.88049 0.12361 0.84835 0.0
C407 C 0.77654 0.19528 0.85018 0.0
C408 C 0.8048 0.13359 0.80908 0.0
C409 C 0.77384 0.12296 0.82501 0.0
C410 C 0.75967 0.15408 0.8457 0.0
N411 N 0.82127 0.1741 0.81365 0.0
C412 C 0.80748 0.2047 0.83389 0.0
Co413 Co 0.8986 0.87529 0.84352 0.0
Co414 Co 0.83986 0.78592 0.82104 0.0
O415 O 0.85787 0.84393 0.8125 0.0
C416 C 0.85763 0.94445 0.86216 0.0
O417 O 0.83767 0.92153 0.88392 0.0
C418 C 0.82919 0.78397 0.72885 0.0
O419 O 0.85574 0.81215 0.72553 0.0
O420 O 0.88463 0.76903 0.80985 0.0
O421 O 0.91947 0.82413 0.84367 0.0
H422 H 0.84478 0.64581 0.87115 0.0
H423 H 0.87342 0.90087 0.7655 0.0
O424 O 0.8797 0.92878 0.84299 0.0
H425 H 0.99141 0.88487 0.74974 0.0
H426 H 0.98735 0.00249 0.88536 0.0
H427 H 0.94607 0.85681 0.90905 0.0
H428 H 0.96603 0.87138 0.81322 0.0
H429 H 0.93839 0.96142 0.84379 0.0
O430 O 0.82231 0.77192 0.76287 0.0
H431 H 0.86578 0.71974 0.86344 0.0
H432 H 0.7758 0.72722 0.79244 0.0
H433 H 0.99472 0.8969 0.9512 0.0
H434 H 0.89789 0.91535 0.70155 0.0
H435 H 0.01682 0.96997 0.93886 0.0
H436 H 0.95734 0.90728 0.69336 0.0
O437 O 0.87893 0.86289 0.89537 0.0
H438 H 0.74567 0.86606 0.79364 0.0
H439 H 0.78722 0.76789 0.88042 0.0
H440 H 0.73412 0.79227 0.89335 0.0
H441 H 0.71273 0.84164 0.84958 0.0
H442 H 0.79915 0.84142 0.78242 0.0
H443 H 0.75389 0.65341 0.79916 0.0
H444 H 0.78836 0.61216 0.83894 0.0
O445 O 0.85501 0.79632 0.88069 0.0
C446 C 0.91387 0.78742 0.82534 0.0
C447 C 0.82943 0.66351 0.85394 0.0
C448 C 0.77843 0.66777 0.81358 0.0
N449 N 0.82195 0.72818 0.8282 0.0
C450 C 0.84122 0.70544 0.84953 0.0
C451 C 0.79102 0.70964 0.80991 0.0
C452 C 0.79779 0.64464 0.83585 0.0
C453 C 0.8994 0.89805 0.76237 0.0
N454 N 0.91837 0.88616 0.79336 0.0
C455 C 0.91309 0.90595 0.726 0.0
C456 C 0.94642 0.90133 0.72139 0.0
C457 C 0.96555 0.88878 0.753 0.0
C458 C 0.951 0.88119 0.78891 0.0
C459 C 0.97864 0.97046 0.89057 0.0
C460 C 0.95521 0.88856 0.90327 0.0
C461 C 0.95056 0.94709 0.86741 0.0
N462 N 0.93885 0.90679 0.87431 0.0
C463 C 0.9831 0.91111 0.92721 0.0
C464 C 0.99505 0.95225 0.92063 0.0
C465 C 0.86658 0.82759 0.9066 0.0
C466 C 0.75481 0.84477 0.81314 0.0
C467 C 0.77889 0.79014 0.86206 0.0
C468 C 0.7484 0.8035 0.86913 0.0
C469 C 0.73636 0.83109 0.84451 0.0
N470 N 0.79704 0.80379 0.8314 0.0
C471 C 0.78518 0.8307 0.80699 0.0
Co472 Co 0.61408 0.59469 0.6153 0.0
Co473 Co 0.6356 0.70056 0.64298 0.0
O474 O 0.64427 0.64307 0.64452 0.0
C475 C 0.62829 0.56758 0.69783 0.0
O476 O 0.62987 0.60539 0.71599 0.0
C477 C 0.70958 0.70674 0.63084 0.0
O478 O 0.70326 0.67347 0.60432 0.0
O479 O 0.63266 0.69319 0.58247 0.0
O480 O 0.60575 0.62702 0.56826 0.0
H481 H 0.57705 0.8127 0.59142 0.0
H482 H 0.68281 0.58433 0.64536 0.0
O483 O 0.62213 0.55971 0.65983 0.0
H484 H 0.67634 0.54867 0.4979 0.0
H485 H 0.57722 0.44096 0.57319 0.0
H486 H 0.54516 0.58071 0.57332 0.0
H487 H 0.62738 0.56848 0.53041 0.0
H488 H 0.61757 0.50379 0.60053 0.0
O489 O 0.68555 0.72183 0.64624 0.0
H490 H 0.58743 0.74051 0.59514 0.0
H491 H 0.66791 0.78346 0.68587 0.0
H492 H 0.50407 0.51858 0.54497 0.0
H493 H 0.73204 0.56337 0.61425 0.0
H494 H 0.51962 0.44798 0.54645 0.0
H495 H 0.729 0.54542 0.53993 0.0
O496 O 0.5749 0.61227 0.64186 0.0
H497 H 0.6884 0.69125 0.78217 0.0
H498 H 0.59265 0.73232 0.70441 0.0
H499 H 0.59571 0.74036 0.77881 0.0
H500 H 0.64399 0.72008 0.81823 0.0
H501 H 0.6839 0.68266 0.70776 0.0
H502 H 0.65869 0.85617 0.68283 0.0
H503 H 0.61286 0.87116 0.63549 0.0
O504 O 0.58546 0.68206 0.64197 0.0
C505 C 0.61765 0.66267 0.55731 0.0
C506 C 0.59698 0.80656 0.61232 0.0
C507 C 0.64283 0.83095 0.66358 0.0
N508 N 0.62792 0.75767 0.64104 0.0
C509 C 0.60287 0.76571 0.61468 0.0
C510 C 0.64796 0.7897 0.66512 0.0
C511 C 0.61711 0.83934 0.63701 0.0
C512 C 0.68118 0.57615 0.6131 0.0
N513 N 0.65226 0.57768 0.58981 0.0
C514 C 0.7092 0.5645 0.5956 0.0
C515 C 0.70748 0.55447 0.55391 0.0
C516 C 0.67792 0.55619 0.53032 0.0
C517 C 0.65035 0.56776 0.54889 0.0
C518 C 0.57006 0.47153 0.57264 0.0
C519 C 0.55259 0.5503 0.57227 0.0
C520 C 0.59291 0.50734 0.58785 0.0
N521 N 0.58399 0.54614 0.58778 0.0
C522 C 0.5291 0.51515 0.55661 0.0
C523 C 0.53787 0.47553 0.55723 0.0
C524 C 0.56599 0.64819 0.64669 0.0
C525 C 0.66728 0.70032 0.76534 0.0
C526 C 0.61354 0.72294 0.72128 0.0
C527 C 0.61522 0.72778 0.76344 0.0
C528 C 0.64233 0.71643 0.78555 0.0
N529 N 0.63814 0.70717 0.70165 0.0
C530 C 0.6647 0.69579 0.72316 0.0
Co531 Co 0.35963 0.61293 0.66429 0.0
Co532 Co 0.38023 0.68092 0.75155 0.0
O533 O 0.35199 0.65969 0.70134 0.0
C534 C 0.35644 0.68097 0.61102 0.0
O535 O 0.37403 0.7084 0.63893 0.0
C536 C 0.3085 0.67183 0.77216 0.0
O537 O 0.30296 0.63496 0.75109 0.0
O538 O 0.374 0.62316 0.7699 0.0
O539 O 0.37083 0.58111 0.71121 0.0
H540 H 0.47908 0.69375 0.8565 0.0
H541 H 0.29518 0.64417 0.65134 0.0
O542 O 0.34834 0.64296 0.61723 0.0
H543 H 0.26309 0.49587 0.67252 0.0
H544 H 0.34136 0.5283 0.52936 0.0
H545 H 0.41356 0.56099 0.65755 0.0
H546 H 0.32314 0.52777 0.67356 0.0
H547 H 0.32372 0.56981 0.587 0.0
O548 O 0.33816 0.69328 0.77692 0.0
H549 H 0.44558 0.66613 0.79286 0.0
H550 H 0.37548 0.74773 0.81755 0.0
H551 H 0.43252 0.51988 0.59971 0.0
H552 H 0.23497 0.61382 0.65028 0.0
H553 H 0.39682 0.50447 0.53513 0.0
H554 H 0.21866 0.53906 0.66101 0.0
O555 O 0.40774 0.63807 0.66371 0.0
H556 H 0.34229 0.80408 0.69259 0.0
H557 H 0.44007 0.7466 0.74668 0.0
H558 H 0.44897 0.81628 0.72225 0.0
H559 H 0.39986 0.84555 0.69502 0.0
H560 H 0.3346 0.73432 0.71681 0.0
H561 H 0.40834 0.77606 0.88159 0.0
H562 H 0.46056 0.74906 0.90171 0.0
O563 O 0.42261 0.66966 0.72642 0.0
C564 C 0.37333 0.58727 0.74999 0.0
C565 C 0.45602 0.70523 0.84847 0.0
C566 C 0.41633 0.75136 0.86255 0.0
N567 N 0.40726 0.70326 0.80202 0.0
C568 C 0.43656 0.68925 0.81246 0.0
C569 C 0.39751 0.73463 0.82632 0.0
C570 C 0.44567 0.73631 0.87377 0.0
C571 C 0.28824 0.61182 0.65652 0.0
N572 N 0.31257 0.58806 0.66367 0.0
C573 C 0.25413 0.59471 0.65565 0.0
C574 C 0.245 0.55277 0.66162 0.0
C575 C 0.26996 0.5285 0.66808 0.0
C576 C 0.30385 0.54675 0.66888 0.0
C577 C 0.35727 0.53501 0.55747 0.0
C578 C 0.39735 0.55298 0.62982 0.0
C579 C 0.34719 0.55797 0.59052 0.0
N580 N 0.36766 0.56787 0.62572 0.0
C581 C 0.40836 0.53015 0.59722 0.0
C582 C 0.38842 0.52178 0.56068 0.0
C583 C 0.42985 0.65562 0.69164 0.0
C584 C 0.36388 0.79175 0.70452 0.0
C585 C 0.41854 0.75898 0.73479 0.0
C586 C 0.42375 0.79855 0.72107 0.0
C587 C 0.39619 0.81496 0.70582 0.0
N588 N 0.38678 0.73633 0.73334 0.0
C589 C 0.35964 0.7523 0.71851 0.0
Co590 Co 0.40767 0.39121 0.67858 0.0
Co591 Co 0.37005 0.2897 0.67608 0.0
O592 O 0.37223 0.34888 0.69453 0.0
C593 C 0.39048 0.42569 0.7608 0.0
O594 O 0.3736 0.3897 0.76806 0.0
C595 C 0.29713 0.3012 0.66443 0.0
O596 O 0.30591 0.33401 0.6451 0.0
O597 O 0.36744 0.30344 0.61872 0.0
O598 O 0.40899 0.35823 0.62512 0.0
H599 H 0.39524 0.16933 0.58435 0.0
H600 H 0.34234 0.41345 0.70241 0.0
O601 O 0.40745 0.42814 0.73014 0.0
H602 H 0.34861 0.44501 0.56183 0.0
H603 H 0.46754 0.53853 0.67369 0.0
H604 H 0.47396 0.38906 0.64685 0.0
H605 H 0.3972 0.42432 0.5989 0.0
H606 H 0.41913 0.48468 0.68335 0.0
O607 O 0.31924 0.28019 0.67657 0.0
H608 H 0.40038 0.24337 0.61136 0.0
H609 H 0.33119 0.21004 0.69783 0.0
H610 H 0.52293 0.44212 0.63646 0.0
H611 H 0.29542 0.43957 0.66849 0.0
H612 H 0.51977 0.51742 0.65004 0.0
H613 H 0.29799 0.45523 0.5972 0.0
O614 O 0.44259 0.36155 0.70352 0.0
H615 H 0.33748 0.2976 0.81888 0.0
H616 H 0.41145 0.24013 0.72476 0.0
H617 H 0.41542 0.22514 0.79573 0.0
H618 H 0.3781 0.25375 0.84335 0.0
H619 H 0.33485 0.31253 0.7478 0.0
H620 H 0.32537 0.13565 0.67185 0.0
H621 H 0.35763 0.11483 0.61479 0.0
O622 O 0.42102 0.29652 0.67715 0.0
C623 C 0.38771 0.33058 0.60306 0.0
C624 C 0.38121 0.17796 0.60939 0.0
C625 C 0.34204 0.15906 0.65853 0.0
N626 N 0.3667 0.23099 0.6567 0.0
C627 C 0.38401 0.21985 0.62482 0.0
C628 C 0.34553 0.20125 0.6732 0.0
C629 C 0.3601 0.14741 0.62647 0.0
C630 C 0.34489 0.4227 0.67256 0.0
N631 N 0.3731 0.41822 0.65332 0.0
C632 C 0.31776 0.43674 0.65304 0.0
C633 C 0.31915 0.44523 0.61304 0.0
C634 C 0.34771 0.44001 0.59333 0.0
C635 C 0.37499 0.42769 0.61439 0.0
C636 C 0.46902 0.50579 0.66735 0.0
C637 C 0.47216 0.42176 0.65159 0.0
C638 C 0.4416 0.47509 0.67239 0.0
N639 N 0.44342 0.43357 0.66454 0.0
C640 C 0.5 0.45163 0.64601 0.0
C641 C 0.49832 0.49393 0.6539 0.0
C642 C 0.44555 0.3231 0.69537 0.0
C643 C 0.35391 0.28498 0.79844 0.0
C644 C 0.39548 0.25322 0.74529 0.0
C645 C 0.39769 0.24439 0.78547 0.0
C646 C 0.37672 0.26041 0.81216 0.0
N647 N 0.37307 0.27738 0.73202 0.0
C648 C 0.35249 0.29323 0.75809 0.0
Co649 Co 0.63107 0.33854 0.64307 0.0
Co650 Co 0.65997 0.32407 0.73726 0.0
O651 O 0.66437 0.31966 0.67891 0.0
C652 C 0.63073 0.25396 0.59642 0.0
O653 O 0.6198 0.23278 0.62583 0.0
C654 C 0.73508 0.34198 0.72915 0.0
O655 O 0.73031 0.36556 0.70014 0.0
O656 O 0.66552 0.38598 0.73698 0.0
O657 O 0.627 0.38605 0.6846 0.0
H658 H 0.62348 0.38528 0.86763 0.0
H659 H 0.69861 0.33062 0.61609 0.0
O660 O 0.63668 0.29361 0.60043 0.0
H661 H 0.68178 0.47365 0.59342 0.0
H662 H 0.56548 0.32835 0.50989 0.0
H663 H 0.56755 0.37135 0.65529 0.0
H664 H 0.63824 0.42618 0.62251 0.0
H665 H 0.61847 0.33726 0.55313 0.0
O666 O 0.71026 0.3256 0.74727 0.0
H667 H 0.62607 0.37617 0.79386 0.0
H668 H 0.69037 0.28604 0.8059 0.0
H669 H 0.51555 0.36863 0.61139 0.0
H670 H 0.7431 0.37729 0.58725 0.0
H671 H 0.51402 0.34652 0.5382 0.0
H672 H 0.73472 0.44933 0.57552 0.0
O673 O 0.59482 0.30123 0.66534 0.0
H674 H 0.68573 0.18137 0.69462 0.0
H675 H 0.61169 0.2597 0.77152 0.0
H676 H 0.60254 0.18271 0.76796 0.0
H677 H 0.63981 0.14302 0.72943 0.0
H678 H 0.69377 0.25834 0.69861 0.0
H679 H 0.6887 0.29432 0.87986 0.0
H680 H 0.6549 0.34406 0.91121 0.0
O681 O 0.60894 0.32123 0.73021 0.0
C682 C 0.64642 0.40464 0.71522 0.0
C683 C 0.6381 0.36327 0.85433 0.0
C684 C 0.67469 0.31224 0.86118 0.0
N685 N 0.65768 0.32994 0.79541 0.0
C686 C 0.63956 0.3579 0.81252 0.0
C687 C 0.6755 0.30765 0.81925 0.0
C688 C 0.65576 0.34017 0.87876 0.0
C689 C 0.69491 0.36198 0.61119 0.0
N690 N 0.66594 0.37568 0.62096 0.0
C691 C 0.72014 0.38825 0.59483 0.0
C692 C 0.71544 0.42868 0.58831 0.0
C693 C 0.68579 0.44239 0.59836 0.0
C694 C 0.6612 0.41534 0.61483 0.0
C695 C 0.56632 0.34026 0.54129 0.0
C696 C 0.56796 0.36442 0.62306 0.0
C697 C 0.59612 0.34456 0.56631 0.0
N698 N 0.59621 0.3541 0.60711 0.0
C699 C 0.53817 0.36244 0.59845 0.0
C700 C 0.53726 0.34972 0.55738 0.0
C701 C 0.58658 0.30569 0.70136 0.0
C702 C 0.6694 0.19831 0.71164 0.0
C703 C 0.62794 0.24267 0.75457 0.0
C704 C 0.62268 0.19907 0.75274 0.0
C705 C 0.64361 0.17682 0.73113 0.0
N706 N 0.65342 0.26355 0.73557 0.0
C707 C 0.67391 0.24192 0.71413 0.0
Co708 Co 0.64402 0.33313 0.39604 0.0
Co709 Co 0.63732 0.23655 0.34069 0.0
O710 O 0.65817 0.29518 0.35439 0.0
C711 C 0.63971 0.38764 0.32942 0.0
O712 O 0.61901 0.35778 0.30695 0.0
C713 C 0.71176 0.23678 0.35128 0.0
O714 O 0.71341 0.26437 0.38284 0.0
O715 O 0.6423 0.22603 0.3993 0.0
O716 O 0.63432 0.28717 0.43196 0.0
H717 H 0.55336 0.10553 0.34825 0.0
H718 H 0.71051 0.35886 0.36499 0.0
O719 O 0.65376 0.38083 0.36278 0.0
H720 H 0.73509 0.35034 0.51053 0.0
H721 H 0.65527 0.47401 0.47529 0.0
H722 H 0.58302 0.33638 0.4415 0.0
H723 H 0.67656 0.33538 0.47961 0.0
H724 H 0.67497 0.41822 0.43379 0.0
O725 O 0.68335 0.2216 0.33203 0.0
H726 H 0.57802 0.17973 0.36488 0.0
H727 H 0.6524 0.16763 0.2828 0.0
H728 H 0.56142 0.39289 0.48049 0.0
H729 H 0.76946 0.37476 0.39483 0.0
H730 H 0.59758 0.46221 0.49778 0.0
H731 H 0.78205 0.37034 0.46811 0.0
O732 O 0.59632 0.31908 0.3712 0.0
H733 H 0.67593 0.29559 0.21469 0.0
H734 H 0.58153 0.2147 0.27487 0.0
H735 H 0.57447 0.22842 0.20362 0.0
H736 H 0.62189 0.26917 0.17306 0.0
H737 H 0.6819 0.28111 0.28582 0.0
H738 H 0.6286 0.09327 0.26522 0.0
H739 H 0.57874 0.06157 0.29807 0.0
O740 O 0.59092 0.2509 0.34768 0.0
C741 C 0.63749 0.24863 0.43129 0.0
C742 C 0.5754 0.1188 0.33415 0.0
C743 C 0.6176 0.11192 0.28758 0.0
N744 N 0.61751 0.17797 0.32631 0.0
C745 C 0.5897 0.16085 0.34385 0.0
C746 C 0.6312 0.15409 0.29805 0.0
C747 C 0.58959 0.09418 0.30594 0.0
C748 C 0.71581 0.35709 0.39691 0.0
N749 N 0.69016 0.34568 0.42037 0.0
C750 C 0.74923 0.36605 0.41364 0.0
C751 C 0.75628 0.36352 0.45474 0.0
C752 C 0.72995 0.35228 0.47856 0.0
C753 C 0.69686 0.34348 0.46079 0.0
C754 C 0.63932 0.44381 0.46837 0.0
C755 C 0.59908 0.36625 0.44915 0.0
C756 C 0.65054 0.41162 0.44533 0.0
N757 N 0.6305 0.37328 0.43591 0.0
C758 C 0.58668 0.39823 0.47123 0.0
C759 C 0.60698 0.43714 0.481 0.0
C760 C 0.57853 0.28411 0.35651 0.0
C761 C 0.65511 0.27771 0.22762 0.0
C762 C 0.60235 0.23227 0.26176 0.0
C763 C 0.59818 0.23999 0.2214 0.0
C764 C 0.62478 0.26289 0.20429 0.0
N765 N 0.63218 0.24689 0.28445 0.0
C766 C 0.65837 0.26936 0.26788 0.0
Co767 Co 0.59824 0.62209 0.29706 0.0
Co768 Co 0.64968 0.71807 0.31775 0.0
O769 O 0.64 0.66009 0.29309 0.0
C770 C 0.64365 0.56487 0.32582 0.0
O771 O 0.65599 0.59219 0.3568 0.0
C772 C 0.67089 0.72405 0.23204 0.0
O773 O 0.64393 0.69805 0.21613 0.0
O774 O 0.60498 0.73024 0.29298 0.0
O775 O 0.57198 0.66826 0.29515 0.0
H776 H 0.62397 0.8542 0.38327 0.0
H777 H 0.64306 0.60057 0.23449 0.0
O778 O 0.62306 0.57378 0.29877 0.0
H779 H 0.53556 0.6117 0.15958 0.0
H780 H 0.51942 0.48449 0.26512 0.0
H781 H 0.53489 0.62637 0.33637 0.0
H782 H 0.54213 0.62299 0.23399 0.0
H783 H 0.57178 0.53401 0.26227 0.0
O784 O 0.67501 0.73522 0.26998 0.0
H785 H 0.61059 0.78056 0.35496 0.0
H786 H 0.71179 0.78264 0.32697 0.0
H787 H 0.48179 0.57768 0.34025 0.0
H788 H 0.63744 0.58854 0.16006 0.0
H789 H 0.47363 0.50631 0.30371 0.0
H790 H 0.5834 0.5942 0.1221 0.0
O791 O 0.60375 0.6339 0.35808 0.0
H792 H 0.75457 0.65249 0.32254 0.0
H793 H 0.68638 0.73856 0.40008 0.0
H794 H 0.73797 0.72116 0.43341 0.0
H795 H 0.77275 0.6781 0.39444 0.0
H796 H 0.70218 0.66986 0.29115 0.0
H797 H 0.72629 0.85658 0.3547 0.0
H798 H 0.68231 0.89286 0.38353 0.0
O799 O 0.62709 0.70169 0.36736 0.0
C800 C 0.57578 0.70719 0.29163 0.0
C801 C 0.64351 0.83859 0.37138 0.0
C802 C 0.70088 0.83994 0.35533 0.0
N803 N 0.66056 0.77636 0.34092 0.0
C804 C 0.63608 0.79659 0.35556 0.0
C805 C 0.69249 0.79792 0.3398 0.0
C806 C 0.6762 0.86029 0.37143 0.0
C807 C 0.61936 0.60266 0.21819 0.0
N808 N 0.59292 0.61227 0.23857 0.0
C809 C 0.61637 0.59599 0.17605 0.0
C810 C 0.58606 0.59925 0.15477 0.0
C811 C 0.55922 0.6091 0.17577 0.0
C812 C 0.56313 0.61558 0.21792 0.0
C813 C 0.52261 0.51548 0.28115 0.0
C814 C 0.53145 0.5954 0.32072 0.0
C815 C 0.5524 0.5437 0.27993 0.0
N816 N 0.55668 0.5831 0.29989 0.0
C817 C 0.50142 0.5679 0.32302 0.0
C818 C 0.49696 0.52774 0.30284 0.0
C819 C 0.61255 0.66847 0.38106 0.0
C820 C 0.73983 0.67158 0.3398 0.0
C821 C 0.70111 0.71958 0.38303 0.0
C822 C 0.73046 0.70996 0.40201 0.0
C823 C 0.74996 0.68584 0.38014 0.0
N824 N 0.69146 0.70588 0.3433 0.0
C825 C 0.71029 0.68182 0.32193 0.0
Co826 Co 0.39827 0.71332 0.38932 0.0
Co827 Co 0.3623 0.69452 0.29212 0.0
O828 O 0.36508 0.72316 0.34745 0.0
C829 C 0.3414 0.69898 0.4417 0.0
O830 O 0.32266 0.67269 0.41384 0.0
C831 C 0.35049 0.78252 0.28374 0.0
O832 O 0.37431 0.79809 0.31246 0.0
O833 O 0.41156 0.71716 0.28709 0.0
O834 O 0.4313 0.70686 0.34878 0.0
H835 H 0.40249 0.61099 0.17638 0.0
H836 H 0.36754 0.7894 0.40307 0.0
O837 O 0.36794 0.72164 0.43308 0.0
H838 H 0.48923 0.84077 0.4014 0.0
H839 H 0.46719 0.74171 0.52441 0.0
H840 H 0.43632 0.64343 0.40147 0.0
H841 H 0.46715 0.76514 0.3929 0.0
H842 H 0.42684 0.75633 0.47082 0.0
O843 O 0.34642 0.74408 0.27004 0.0
H844 H 0.40545 0.64503 0.24593 0.0
H845 H 0.31295 0.68763 0.21974 0.0
H846 H 0.47701 0.62812 0.45364 0.0
H847 H 0.38862 0.86538 0.4123 0.0
H848 H 0.49319 0.67748 0.5154 0.0
H849 H 0.44988 0.8915 0.41134 0.0
O850 O 0.37971 0.65196 0.37961 0.0
H851 H 0.24496 0.7005 0.33196 0.0
H852 H 0.31998 0.60983 0.27346 0.0
H853 H 0.26111 0.57982 0.28178 0.0
H854 H 0.22307 0.62528 0.31102 0.0
H855 H 0.30409 0.72909 0.32371 0.0
H856 H 0.30919 0.65453 0.14972 0.0
H857 H 0.35407 0.61564 0.12768 0.0
O858 O 0.37545 0.64247 0.31205 0.0
C859 C 0.43612 0.71342 0.31234 0.0
C860 C 0.38266 0.62762 0.18569 0.0
C861 C 0.33034 0.65212 0.17071 0.0
N862 N 0.35919 0.66774 0.23718 0.0
C863 C 0.38413 0.64677 0.22514 0.0
C864 C 0.33265 0.67086 0.21041 0.0
C865 C 0.35552 0.6303 0.15836 0.0
C866 C 0.39424 0.80056 0.4029 0.0
N867 N 0.416 0.77285 0.39728 0.0
C868 C 0.40603 0.8436 0.40803 0.0
C869 C 0.44039 0.85823 0.40742 0.0
C870 C 0.46247 0.82979 0.40178 0.0
C871 C 0.44977 0.78697 0.39671 0.0
C872 C 0.46102 0.72041 0.49705 0.0
C873 C 0.44374 0.66592 0.42752 0.0
C874 C 0.43836 0.72869 0.46636 0.0
N875 N 0.43071 0.70218 0.43146 0.0
C876 C 0.46655 0.65669 0.4574 0.0
C877 C 0.47546 0.68436 0.49219 0.0
C878 C 0.37633 0.62816 0.34638 0.0
C879 C 0.26123 0.6804 0.319 0.0
C880 C 0.30366 0.62988 0.28629 0.0
C881 C 0.27031 0.61268 0.29088 0.0
C882 C 0.24898 0.63819 0.30729 0.0
N883 N 0.31548 0.6714 0.29761 0.0
C884 C 0.29475 0.69649 0.31404 0.0
Co885 Co 0.42199 0.38645 0.36409 0.0
Co886 Co 0.36524 0.29664 0.34183 0.0
O887 O 0.38253 0.35409 0.331 0.0
C888 C 0.37595 0.45086 0.36051 0.0
O889 O 0.35062 0.42352 0.36934 0.0
C890 C 0.35316 0.29184 0.24935 0.0
O891 O 0.37972 0.31962 0.24514 0.0
O892 O 0.41065 0.28143 0.33127 0.0
O893 O 0.44155 0.33494 0.37132 0.0
H894 H 0.37512 0.15942 0.39538 0.0
H895 H 0.40316 0.39847 0.27875 0.0
O896 O 0.40466 0.44017 0.35648 0.0
H897 H 0.52416 0.38998 0.28482 0.0
H898 H 0.51341 0.51144 0.40476 0.0
H899 H 0.46199 0.37239 0.43819 0.0
H900 H 0.49303 0.38307 0.34527 0.0
H901 H 0.46474 0.47032 0.36228 0.0
O902 O 0.34717 0.2801 0.28378 0.0
H903 H 0.39401 0.23323 0.3852 0.0
H904 H 0.30176 0.23552 0.31644 0.0
H905 H 0.50976 0.41255 0.48181 0.0
H906 H 0.43336 0.4063 0.21754 0.0
H907 H 0.53656 0.48256 0.46507 0.0
H908 H 0.49439 0.4019 0.2203 0.0
O909 O 0.39737 0.37837 0.41369 0.0
H910 H 0.26848 0.37176 0.31133 0.0
H911 H 0.3137 0.27991 0.40244 0.0
H912 H 0.25996 0.30305 0.41483 0.0
H913 H 0.23674 0.34921 0.36885 0.0
H914 H 0.32268 0.34866 0.30088 0.0
H915 H 0.28186 0.16185 0.32594 0.0
H916 H 0.31855 0.12328 0.36584 0.0
O917 O 0.38004 0.30992 0.40184 0.0
C918 C 0.43886 0.30033 0.34931 0.0
C919 C 0.3588 0.17596 0.37818 0.0
C920 C 0.30644 0.17734 0.33927 0.0
N921 N 0.34881 0.23911 0.3511 0.0
C922 C 0.36939 0.21778 0.3723 0.0
C923 C 0.31786 0.21916 0.3341 0.0
C924 C 0.32706 0.1557 0.36159 0.0
C925 C 0.42985 0.39809 0.28055 0.0
N926 N 0.44646 0.39251 0.31613 0.0
C927 C 0.44678 0.40185 0.24563 0.0
C928 C 0.48097 0.39919 0.24715 0.0
C929 C 0.4977 0.39261 0.28334 0.0
C930 C 0.47991 0.38904 0.3176 0.0
C931 C 0.50217 0.48102 0.41243 0.0
C932 C 0.47316 0.40278 0.4306 0.0
C933 C 0.47447 0.45765 0.38855 0.0
N934 N 0.46034 0.41896 0.39771 0.0
C935 C 0.50042 0.42549 0.45548 0.0
C936 C 0.51518 0.46477 0.44619 0.0
C937 C 0.38694 0.3432 0.42657 0.0
C938 C 0.27836 0.3518 0.33171 0.0
C939 C 0.30446 0.30073 0.38305 0.0
C940 C 0.27366 0.3134 0.38985 0.0
C941 C 0.2606 0.33919 0.36399 0.0
N942 N 0.32192 0.31335 0.3515 0.0
C943 C 0.30909 0.33851 0.32593 0.0
C944 C 0.31714 0.23101 0.20711 0.0
C945 C 0.32728 0.27502 0.21489 0.0
C946 C 0.28056 0.28446 0.16682 0.0
C947 C 0.26736 0.24105 0.16443 0.0
N948 N 0.27119 0.17353 0.18734 0.0
N949 N 0.31597 0.34428 0.20534 0.0
C950 C 0.28536 0.21428 0.18546 0.0
C951 C 0.30857 0.302 0.19517 0.0
N952 N 0.33809 0.20512 0.22043 0.0
N953 N 0.26654 0.30892 0.14155 0.0
H954 H 0.33609 0.35869 0.2258 0.0
H955 H 0.30056 0.36493 0.19583 0.0
H956 H 0.24637 0.29701 0.1201 0.0
H957 H 0.27696 0.33988 0.13905 0.0
H958 H 0.33368 0.17288 0.21255 0.0
H959 H 0.36166 0.21643 0.23593 0.0
H960 H 0.28135 0.1541 0.2062 0.0
H961 H 0.2477 0.15996 0.17301 0.0
C962 C 0.76829 0.25923 0.32549 0.0
C963 C 0.7435 0.22654 0.33533 0.0
C964 C 0.77872 0.17523 0.31239 0.0
C965 C 0.80426 0.20839 0.30431 0.0
N966 N 0.82697 0.28247 0.31749 0.0
N967 N 0.72758 0.15394 0.34512 0.0
C968 C 0.80029 0.25051 0.31542 0.0
C969 C 0.74936 0.18459 0.33064 0.0
N970 N 0.76072 0.29847 0.32346 0.0
N971 N 0.78276 0.13465 0.30318 0.0
H972 H 0.70613 0.15973 0.35893 0.0
H973 H 0.732 0.12347 0.34652 0.0
H974 H 0.80548 0.12637 0.29499 0.0
H975 H 0.76343 0.10921 0.3027 0.0
H976 H 0.77654 0.32238 0.31212 0.0
H977 H 0.73709 0.30587 0.32861 0.0
H978 H 0.82571 0.31305 0.32877 0.0
H979 H 0.85145 0.27797 0.31367 0.0
C980 C 0.76038 0.73465 0.20602 0.0
C981 C 0.7642 0.76929 0.18275 0.0
C982 C 0.70366 0.77212 0.18732 0.0
C983 C 0.70012 0.73558 0.20772 0.0
N984 N 0.72254 0.67348 0.22029 0.0
N985 N 0.73625 0.81359 0.14223 0.0
C986 C 0.72761 0.71389 0.21143 0.0
C987 C 0.73479 0.78584 0.17056 0.0
N988 N 0.7875 0.72419 0.22691 0.0
N989 N 0.67765 0.79411 0.18457 0.0
H990 H 0.75794 0.82247 0.12771 0.0
H991 H 0.71505 0.82412 0.13001 0.0
H992 H 0.6543 0.7838 0.19509 0.0
H993 H 0.67997 0.82345 0.17397 0.0
H994 H 0.78525 0.70074 0.2463 0.0
H995 H 0.81104 0.74315 0.22984 0.0
H996 H 0.74182 0.65562 0.22108 0.0
H997 H 0.69837 0.6569 0.22205 0.0
C998 C 0.30377 0.8244 0.29791 0.0
C999 C 0.32437 0.80716 0.26999 0.0
C1000 C 0.28428 0.81626 0.21393 0.0
C1001 C 0.26498 0.83604 0.24149 0.0
N1002 N 0.26053 0.86724 0.30879 0.0
N1003 N 0.33834 0.79649 0.20125 0.0
C1004 C 0.27614 0.84283 0.2832 0.0
C1005 C 0.31596 0.80649 0.22792 0.0
N1006 N 0.30885 0.82064 0.33823 0.0
N1007 N 0.27135 0.80389 0.17497 0.0
H1008 H 0.36196 0.78978 0.21061 0.0
H1009 H 0.33495 0.79915 0.17041 0.0
H1010 H 0.24735 0.80795 0.16426 0.0
H1011 H 0.28278 0.7856 0.15463 0.0
H1012 H 0.29208 0.82801 0.35905 0.0
H1013 H 0.32805 0.80669 0.35065 0.0
H1014 H 0.2697 0.87688 0.33872 0.0
H1015 H 0.24026 0.88118 0.29907 0.0
C1016 C 0.27649 0.70445 0.82595 0.0
C1017 C 0.27931 0.6916 0.78469 0.0
C1018 C 0.22442 0.71178 0.76648 0.0
C1019 C 0.2224 0.72726 0.80739 0.0
N1020 N 0.24915 0.74384 0.87536 0.0
N1021 N 0.2604 0.69375 0.71495 0.0
C1022 C 0.24935 0.72546 0.83688 0.0
C1023 C 0.2544 0.698 0.75478 0.0
N1024 N 0.299 0.69509 0.85489 0.0
N1025 N 0.19788 0.71051 0.73835 0.0
H1026 H 0.28288 0.68626 0.70537 0.0
H1027 H 0.24499 0.70228 0.69186 0.0
H1028 H 0.17658 0.72339 0.74425 0.0
H1029 H 0.1961 0.69422 0.70969 0.0
H1030 H 0.29632 0.69927 0.88573 0.0
H1031 H 0.31911 0.67993 0.848 0.0
H1032 H 0.26971 0.74795 0.89687 0.0
H1033 H 0.22924 0.75772 0.88523 0.0
C1034 C 0.20953 0.23597 0.67048 0.0
C1035 C 0.19655 0.26122 0.70074 0.0
C1036 C 0.2456 0.31674 0.69842 0.0
C1037 C 0.26133 0.28877 0.67392 0.0
N1038 N 0.25799 0.2214 0.63568 0.0
N1039 N 0.19659 0.33288 0.72822 0.0
C1040 C 0.24313 0.24829 0.65959 0.0
C1041 C 0.21269 0.30357 0.70991 0.0
N1042 N 0.18885 0.2024 0.64948 0.0
N1043 N 0.26235 0.35588 0.71237 0.0
H1044 H 0.17125 0.32719 0.73401 0.0
H1045 H 0.17125 0.32719 0.73401 0.0
H1046 H 0.28717 0.36674 0.70689 0.0
H1047 H 0.25165 0.37692 0.73086 0.0
H1048 H 0.19604 0.18411 0.62542 0.0
H1049 H 0.16291 0.19686 0.65165 0.0
H1050 H 0.2482 0.18972 0.629 0.0
H1051 H 0.28112 0.23026 0.6241 0.0
C1052 C 0.81742 0.29784 0.72389 0.0
C1053 C 0.82965 0.30253 0.76539 0.0
C1054 C 0.7837 0.34173 0.78105 0.0
C1055 C 0.76936 0.33221 0.74046 0.0
N1056 N 0.77306 0.30076 0.67264 0.0
N1057 N 0.82169 0.32545 0.83461 0.0
C1058 C 0.78653 0.3106 0.71176 0.0
C1059 C 0.81238 0.32416 0.79425 0.0
N1060 N 0.83448 0.28025 0.69488 0.0
N1061 N 0.77032 0.36852 0.80683 0.0
H1062 H 0.84248 0.31364 0.84605 0.0
H1063 H 0.8073 0.33549 0.85712 0.0
H1064 H 0.74962 0.38219 0.7981 0.0
H1065 H 0.78158 0.3804 0.83549 0.0
H1066 H 0.85778 0.27086 0.70055 0.0
H1067 H 0.85778 0.27086 0.70055 0.0
H1068 H 0.7849 0.28458 0.65091 0.0
H1069 H 0.74983 0.30759 0.66213 0.0
C1070 C 0.79765 0.72091 0.68649 0.0
C1071 C 0.80504 0.76516 0.69352 0.0
C1072 C 0.75558 0.76924 0.64749 0.0
C1073 C 0.74483 0.72542 0.64699 0.0
N1074 N 0.75432 0.65992 0.6707 0.0
N1075 N 0.78994 0.83215 0.68231 0.0
C1076 C 0.7658 0.70112 0.66707 0.0
C1077 C 0.78408 0.78963 0.67384 0.0
N1078 N 0.8211 0.69783 0.69907 0.0
N1079 N 0.73851 0.7913 0.62264 0.0
H1080 H 0.81075 0.84831 0.70076 0.0
H1081 H 0.77308 0.85121 0.67304 0.0
H1082 H 0.71785 0.77712 0.60275 0.0
H1083 H 0.74674 0.82257 0.61888 0.0
H1084 H 0.81856 0.66561 0.69178 0.0
H1085 H 0.84469 0.71168 0.71321 0.0
H1086 H 0.76689 0.64219 0.68913 0.0
H1087 H 0.73078 0.64426 0.65839 0.0
C1088 C 0.11016 0.20555 0.94743 0.0
C1089 C 0.13638 0.19017 0.92745 0.0
C1090 C 0.17083 0.19715 0.99259 0.0
C1091 C 0.14309 0.20747 0.01308 0.0
N1092 N 0.08823 0.22692 0.01084 0.0
N1093 N 0.19176 0.17101 0.93023 0.0
C1094 C 0.11334 0.21344 0.99053 0.0
C1095 C 0.1668 0.18605 0.94985 0.0
N1096 N 0.08225 0.21253 0.92498 0.0
N1097 N 0.20112 0.19824 0.0141 0.0
H1098 H 0.19061 0.16452 0.89893 0.0
H1099 H 0.21289 0.1625 0.9448 0.0
H1100 H 0.20482 0.20623 0.04518 0.0
H1101 H 0.22335 0.1947 1.00118 0.0
H1102 H 0.06329 0.22708 0.93642 0.0
H1103 H 0.07823 0.20464 0.89382 0.0
H1104 H 0.06484 0.23006 0.99769 0.0
H1105 H 0.09139 0.23608 0.04174 0.0
C1106 C 0.84876 0.23968 0.00244 0.0
C1107 C 0.8755 0.25799 0.98102 0.0
C1108 C 0.9082 0.28694 0.04487 0.0
C1109 C 0.88356 0.26364 0.06568 0.0
N1110 N 0.82395 0.24046 0.06654 0.0
N1111 N 0.92359 0.31241 0.98156 0.0
C1112 C 0.85153 0.24749 0.04524 0.0
C1113 C 0.90296 0.28624 0.00225 0.0
N1114 N 0.82186 0.21302 0.98249 0.0
N1115 N 0.93708 0.30807 0.06598 0.0
H1116 H 0.91856 0.31395 0.95079 0.0
H1117 H 0.94308 0.33539 0.9952 0.0
H1118 H 0.93996 0.31093 0.09754 0.0
H1119 H 0.95808 0.32164 0.05256 0.0
H1120 H 0.80373 0.19526 0.99741 0.0
H1121 H 0.81883 0.2067 0.95112 0.0
H1122 H 0.79956 0.23066 0.05288 0.0
H1123 H 0.82522 0.25008 0.09735 0.0
C1124 C 0.89624 0.84396 0.97811 0.0
C1125 C 0.86884 0.82137 0.95141 0.0
C1126 C 0.847 0.79205 0.01188 0.0
C1127 C 0.87834 0.80709 0.03491 0.0
N1128 N 0.93772 0.83124 0.02843 0.0
N1129 N 0.82473 0.75892 0.94659 0.0
C1130 C 0.90476 0.82725 0.01414 0.0
C1131 C 0.84602 0.79072 0.96902 0.0
N1132 N 0.91255 0.88263 0.97229 0.0
N1133 N 0.81797 0.78021 0.02954 0.0
H1134 H 0.82722 0.74986 0.91668 0.0
H1135 H 0.80894 0.73637 0.95982 0.0
H1136 H 0.81601 0.78353 0.0605 0.0
H1137 H 0.79471 0.77187 0.01256 0.0
H1138 H 0.93219 0.89868 0.99275 0.0
H1139 H 0.90313 0.90148 0.95234 0.0
H1140 H 0.95715 0.84579 0.01289 0.0
H1141 H 0.9453 0.81521 0.05221 0.0
C1142 C 0.0989 0.73596 0.01913 0.0
C1143 C 0.13186 0.74877 0.03864 0.0
C1144 C 0.15601 0.73958 0.97357 0.0
C1145 C 0.12295 0.73092 0.9539 0.0
N1146 N 0.06505 0.70256 0.95825 0.0
N1147 N 0.19123 0.74847 0.03707 0.0
C1148 C 0.09507 0.72287 0.977 0.0
C1149 C 0.1603 0.74557 0.0166 0.0
N1150 N 0.0713 0.73903 0.03998 0.0
N1151 N 0.18308 0.74461 0.95109 0.0
H1152 H 0.19426 0.75105 0.06857 0.0
H1153 H 0.21291 0.74399 0.02326 0.0
H1154 H 0.18055 0.73848 0.91973 0.0
H1155 H 0.20767 0.75606 0.96324 0.0
H1156 H 0.04687 0.73495 0.02609 0.0
H1157 H 0.07299 0.74803 0.07092 0.0
H1158 H 0.04393 0.69318 0.97353 0.0
H1159 H 0.06308 0.69074 0.92788 0.0
C1160 C 0.028 0.14884 0.16692 0.0
C1161 C 0.0487 0.18216 0.15053 0.0
C1162 C 1.00525 0.22656 0.16341 0.0
C1163 C 0.9868 0.19463 0.18289 0.0
N1164 N 0.98398 0.12834 0.21015 0.0
N1165 N 0.04759 0.24483 0.11747 0.0
C1166 C 0.99946 0.157 0.18713 0.0
C1167 C 0.03494 0.21923 0.14486 0.0
N1168 N 0.03233 0.10813 0.1589 0.0
N1169 N 0.99478 0.26448 0.16362 0.0
H1170 H 0.06476 0.23631 0.09785 0.0
H1171 H 0.0374 0.2706 0.10941 0.0
H1172 H 0.97323 0.2707 0.17699 0.0
H1173 H 1.00898 0.29085 0.15415 0.0
H1174 H 0.01638 0.08286 0.16788 0.0
H1175 H 0.04693 0.09786 0.13691 0.0
H1176 H 0.99488 0.10343 0.21931 0.0
H1177 H 0.9615 0.13108 0.22277 0.0
C1178 C 0.87583 0.00574 0.18218 0.0
C1179 C 0.87616 0.9834 0.21594 0.0
C1180 C 0.87589 0.05 0.25756 0.0
C1181 C 0.88401 0.07221 0.22335 0.0
N1182 N 0.90945 0.06427 0.16006 0.0
N1183 N 0.87875 0.98534 0.28846 0.0
C1184 C 0.88885 0.04821 0.18732 0.0
C1185 C 0.87679 0.00573 0.25475 0.0
N1186 N 0.86376 0.98594 0.14526 0.0
N1187 N 0.86625 0.06967 0.29161 0.0
H1188 H 0.87894 0.95323 0.28687 0.0
H1189 H 0.88248 1.00088 0.31758 0.0
H1190 H 0.86338 0.10091 0.2946 0.0
H1191 H 0.85773 0.05358 0.31548 0.0
H1192 H 0.86199 1.00161 0.11945 0.0
H1193 H 0.86199 1.00161 0.11945 0.0
H1194 H 0.92603 0.09229 0.1676 0.0
H1195 H 0.91389 0.04663 0.13384 0.0
C1196 C 0.99685 0.78769 0.16137 0.0
C1197 C 0.98338 0.8228 0.17865 0.0
C1198 C 0.04044 0.86417 0.1869 0.0
C1199 C 0.05389 0.82989 0.16942 0.0
N1200 N 0.04645 0.75604 0.14899 0.0
N1201 N 0.99687 0.88489 0.22621 0.0
C1202 C 0.0325 0.79077 0.15901 0.0
C1203 C 1.00656 0.85823 0.19693 0.0
N1204 N 0.97614 0.75088 0.14831 0.0
N1205 N 0.05983 0.90289 0.19349 0.0
H1206 H 0.9736 0.87857 0.23818 0.0
H1207 H 0.01358 0.90952 0.24251 0.0
H1208 H 0.08481 0.90853 0.1865 0.0
H1209 H 0.04992 0.92972 0.20209 0.0
H1210 H 0.98284 0.72794 0.12805 0.0
H1211 H 0.95317 0.74215 0.15991 0.0
H1212 H 0.03298 0.72568 0.14531 0.0
H1213 H 0.07228 0.75727 0.14729 0.0
C1214 C 0.12372 0.01674 0.21131 0.0
C1215 C 0.1477 0.04384 0.19271 0.0
C1216 C 0.18802 0.9952 0.19949 0.0
C1217 C 0.16275 0.96624 0.21396 0.0
N1218 N 0.11457 0.95857 0.25204 0.0
N1219 N 0.20636 0.06667 0.18472 0.0
C1220 C 0.13306 0.98002 0.22583 0.0
C1221 C 0.18116 0.03554 0.1917 0.0
N1222 N 0.09181 0.0252 0.21388 0.0
N1223 N 0.21832 0.98356 0.19274 0.0
H1224 H 0.20211 0.09713 0.18223 0.0
H1225 H 0.23172 0.06372 0.18583 0.0
H1226 H 0.22421 0.95524 0.20096 0.0
H1227 H 0.23682 1.00098 0.17813 0.0
H1228 H 0.07239 0.00449 0.22371 0.0
H1229 H 0.0843 0.05205 0.20402 0.0
H1230 H 0.09373 0.96826 0.26438 0.0
H1231 H 0.12316 0.93397 0.26499 0.0
C1232 C 0.96324 0.77313 0.78904 0.0
C1233 C 0.94436 0.76738 0.82294 0.0
C1234 C 0.99459 0.75256 0.86137 0.0
C1235 C 0.01462 0.76577 0.83018 0.0
N1236 N 0.0186 0.79087 0.76473 0.0
N1237 N 0.94226 0.75401 0.89256 0.0
C1238 C 0.99904 0.77609 0.79379 0.0
C1239 C 0.95996 0.75685 0.85919 0.0
N1240 N 0.94688 0.77712 0.75272 0.0
N1241 N 1.00888 0.7367 0.89351 0.0
H1242 H 0.91674 0.75628 0.89185 0.0
H1243 H 0.95323 0.75204 0.92136 0.0
H1244 H 0.03441 0.73472 0.89645 0.0
H1245 H 0.99513 0.72266 0.91533 0.0
H1246 H 0.95855 0.77834 0.72591 0.0
H1247 H 0.92078 0.77547 0.74891 0.0
H1248 H 1.00926 0.80323 0.73944 0.0
H1249 H 0.04479 0.79341 0.76728 0.0
C1250 C 0.13156 0.95108 0.79376 0.0
C1251 C 0.11321 0.94553 0.82818 0.0
C1252 C 0.13383 0.0192 0.85413 0.0
C1253 C 0.15029 0.02557 0.81855 0.0
N1254 N 0.16018 0.99959 0.75122 0.0
N1255 N 0.08905 0.97807 0.88475 0.0
C1256 C 0.14778 0.99199 0.78738 0.0
C1257 C 0.11188 0.98073 0.8564 0.0
N1258 N 0.13379 0.91715 0.76735 0.0
N1259 N 0.13977 0.04941 0.88625 0.0
H1260 H 0.07089 0.95175 0.88582 0.0
H1261 H 0.08542 0.00357 0.90421 0.0
H1262 H 0.15517 0.07823 0.88545 0.0
H1263 H 0.13138 0.04466 0.91454 0.0
H1264 H 0.1501 0.91805 0.74449 0.0
H1265 H 0.12044 0.88733 0.76955 0.0
H1266 H 0.15625 0.97772 0.72582 0.0
H1267 H 0.17185 0.02919 0.74547 0.0
C1268 C 0.01911 0.16534 0.7924 0.0
C1269 C 0.04299 0.1998 0.78369 0.0
C1270 C 0.99351 0.23395 0.76768 0.0
C1271 C 0.9713 0.19613 0.77143 0.0
N1272 N 0.96727 0.12159 0.76604 0.0
N1273 N 0.04943 0.26512 0.75225 0.0
C1274 C 0.9859 0.16027 0.77511 0.0
C1275 C 0.02934 0.23379 0.76778 0.0
N1276 N 0.02611 0.14098 0.82179 0.0
N1277 N 0.98074 0.27003 0.76549 0.0
H1278 H 0.07486 0.26537 0.74888 0.0
H1279 H 0.03974 0.28854 0.73834 0.0
H1280 H 0.95485 0.27036 0.76413 0.0
H1281 H 0.99597 0.29931 0.76725 0.0
H1282 H 1.00836 0.11637 0.82907 0.0
H1283 H 0.04649 0.15076 0.84333 0.0
H1284 H 0.97748 0.09445 0.76931 0.0
H1285 H 0.94366 0.11791 0.75016 0.0
C1286 C 0.8615 0.0051 0.82149 0.0
C1287 C 0.85604 0.98976 0.85912 0.0
C1288 C 0.85839 0.06263 0.88825 0.0
C1289 C 0.87192 0.07751 0.85288 0.0
N1290 N 0.89565 0.05818 0.7906 0.0
N1291 N 0.85422 0.00638 0.93124 0.0
C1292 C 0.87582 0.04744 0.82059 0.0
C1293 C 0.85561 0.01911 0.89347 0.0
N1294 N 0.85315 0.97923 0.78649 0.0
N1295 N 0.84688 0.08915 0.91607 0.0
H1296 H 0.85322 0.97539 0.93704 0.0
H1297 H 0.85708 0.0274 0.95727 0.0
H1298 H 0.84588 0.1203 0.91213 0.0
H1299 H 0.83441 0.07873 0.9405 0.0
H1300 H 0.85527 0.98991 0.7581 0.0
H1301 H 0.84009 0.94881 0.78623 0.0
H1302 H 0.90065 0.03641 0.76782 0.0
H1303 H 0.91117 0.08707 0.7926 0.0
C1304 C 0.58665 0.63962 0.44502 0.0
C1305 C 0.6083 0.67046 0.42655 0.0
C1306 C 0.6366 0.69585 0.49405 0.0
C1307 C 0.61342 0.66788 0.51284 0.0
N1308 N 0.55703 0.62791 0.50445 0.0
N1309 N 0.63654 0.74266 0.4432 0.0
C1310 C 0.58567 0.64389 0.48786 0.0
C1311 C 0.62833 0.70314 0.45367 0.0
N1312 N 0.56601 0.60695 0.42293 0.0
N1313 N 0.66669 0.71531 0.51345 0.0
H1314 H 0.62438 0.7526 0.41834 0.0
H1315 H 0.65024 0.767 0.46325 0.0
H1316 H 0.67592 0.70842 0.54149 0.0
H1317 H 0.68424 0.73443 0.49882 0.0
H1318 H 0.55369 0.58164 0.43618 0.0
H1319 H 0.56167 0.60408 0.39195 0.0
H1320 H 0.5352 0.61276 0.48715 0.0
H1321 H 0.5534 0.63561 0.53462 0.0
C1322 C 0.37104 0.66713 0.54116 0.0
C1323 C 0.3538 0.68989 0.56856 0.0
C1324 C 0.32635 0.7186 0.5121 0.0
C1325 C 0.34064 0.6918 0.48476 0.0
N1326 N 0.37058 0.63369 0.47382 0.0
N1327 N 0.31269 0.73453 0.58111 0.0
C1328 C 0.3611 0.66392 0.49951 0.0
C1329 C 0.33079 0.71506 0.55439 0.0
N1330 N 0.39768 0.6495 0.55494 0.0
N1331 N 0.30908 0.74771 0.49766 0.0
H1332 H 0.31622 0.73335 0.61224 0.0
H1333 H 0.293 0.74979 0.57232 0.0
H1334 H 0.30425 0.74961 0.4668 0.0
H1335 H 0.3011 0.77112 0.51614 0.0
H1336 H 0.41333 0.63612 0.5359 0.0
H1337 H 0.40644 0.65235 0.58539 0.0
H1338 H 0.38275 0.61 0.48351 0.0
H1339 H 0.36283 0.6294 0.44324 0.0
C1340 C 0.36419 0.30685 0.48831 0.0
C1341 C 0.38571 0.33991 0.47204 0.0
C1342 C 0.41374 0.35628 0.54047 0.0
C1343 C 0.38721 0.33132 0.55766 0.0
N1344 N 0.32933 0.29472 0.543 0.0
N1345 N 0.42191 0.40767 0.49395 0.0
C1346 C 0.35979 0.31044 0.53033 0.0
C1347 C 0.4076 0.36856 0.50136 0.0
N1348 N 0.34937 0.27068 0.4659 0.0
N1349 N 0.44528 0.36685 0.5598 0.0
H1350 H 0.41463 0.42235 0.46928 0.0
H1351 H 0.43727 0.42814 0.51623 0.0
H1352 H 0.45285 0.35201 0.58438 0.0
H1353 H 0.46491 0.38465 0.54706 0.0
H1354 H 0.33479 0.24658 0.47859 0.0
H1355 H 0.35601 0.26105 0.43773 0.0
H1356 H 0.30887 0.28114 0.52254 0.0
H1357 H 0.32281 0.30055 0.5723 0.0
C1358 C 0.66742 0.23877 0.49756 0.0
C1359 C 0.6374 0.23124 0.47123 0.0
C1360 C 0.60353 0.22126 0.52887 0.0
C1361 C 0.63318 0.23354 0.55542 0.0
N1362 N 0.69342 0.243 0.56643 0.0
N1363 N 0.57931 0.19904 0.46031 0.0
C1364 C 0.66527 0.23816 0.54 0.0
C1365 C 0.60622 0.21699 0.48649 0.0
N1366 N 0.69772 0.24792 0.48184 0.0
N1367 N 0.57268 0.21694 0.54394 0.0
H1368 H 0.58136 0.19527 0.4294 0.0
H1369 H 0.55649 0.18459 0.46928 0.0
H1370 H 0.5698 0.21843 0.57481 0.0
H1371 H 0.55006 0.21386 0.52596 0.0
H1372 H 0.72063 0.25797 0.49897 0.0
H1373 H 0.69965 0.24562 0.4508 0.0
H1374 H 0.71787 0.24486 0.55785 0.0
H1375 H 0.69188 0.2422 0.59747 0.0
C1376 C 0.51018 0.67414 0.63765 0.0
C1377 C 0.53144 0.6513 0.65929 0.0
C1378 C 0.48618 0.6322 0.7033 0.0
C1379 C 0.4659 0.65723 0.68334 0.0
N1380 N 0.46169 0.7098 0.63803 0.0
N1381 N 0.54252 0.61855 0.71974 0.0
C1382 C 0.47892 0.68064 0.65249 0.0
C1383 C 0.52025 0.63313 0.69415 0.0
N1384 N 0.51908 0.68814 0.60194 0.0
N1385 N 0.47258 0.60619 0.72989 0.0
H1386 H 0.568 0.62056 0.7153 0.0
H1387 H 0.53659 0.60875 0.7476 0.0
H1388 H 0.44758 0.60395 0.73664 0.0
H1389 H 0.48505 0.58402 0.7422 0.0
H1390 H 0.5036 0.70259 0.58357 0.0
H1391 H 0.54064 0.68199 0.58873 0.0
H1392 H 0.47124 0.73084 0.61835 0.0
H1393 H 0.43926 0.7159 0.64913 0.0
C1394 C 0.40579 0.54151 0.78884 0.0
C1395 C 0.37456 0.54939 0.77198 0.0
C1396 C 0.35035 0.47576 0.77563 0.0
C1397 C 0.38357 0.46637 0.7799 0.0
N1398 N 0.4428 0.49052 0.79703 0.0
N1399 N 0.31497 0.52656 0.75825 0.0
C1400 C 0.41119 0.49952 0.78941 0.0
C1401 C 0.34601 0.51724 0.76862 0.0
N1402 N 0.42975 0.5741 0.80522 0.0
N1403 N 0.32327 0.44528 0.77804 0.0
H1404 H 0.31125 0.55729 0.75627 0.0
H1405 H 0.29334 0.50428 0.75077 0.0
H1406 H 0.32583 0.41571 0.78592 0.0
H1407 H 0.29843 0.45036 0.77677 0.0
H1408 H 0.45252 0.57066 0.82019 0.0
H1409 H 0.42443 0.6043 0.80816 0.0
H1410 H 0.46465 0.51278 0.79895 0.0
H1411 H 0.44694 0.46004 0.79997 0.0
C1412 C 0.52519 0.27459 0.67829 0.0
C1413 C 0.54918 0.2995 0.70771 0.0
C1414 C 0.50316 0.33115 0.73626 0.0
C1415 C 0.47976 0.30976 0.70406 0.0
N1416 N 0.46702 0.24373 0.66117 0.0
N1417 N 0.55511 0.3303 0.77695 0.0
C1418 C 0.49016 0.27642 0.67961 0.0
C1419 C 0.53665 0.32188 0.74041 0.0
N1420 N 0.53548 0.24694 0.65046 0.0
N1421 N 0.49312 0.35857 0.76452 0.0
H1422 H 0.57596 0.31625 0.78351 0.0
H1423 H 0.54667 0.34465 0.8026 0.0
H1424 H 0.46786 0.35987 0.76831 0.0
H1425 H 0.51013 0.37984 0.78434 0.0
H1426 H 0.52083 0.23404 0.62393 0.0
H1427 H 0.55861 0.23677 0.65422 0.0
H1428 H 0.47321 0.21812 0.64402 0.0
H1429 H 0.44269 0.23739 0.66964 0.0
C1430 C 0.66768 0.52331 0.72383 0.0
C1431 C 0.63449 0.53219 0.72023 0.0
C1432 C 0.6121 0.46024 0.73154 0.0
C1433 C 0.64435 0.44932 0.72626 0.0
N1434 N 0.70338 0.47032 0.71735 0.0
N1435 N 0.57496 0.51122 0.72327 0.0
C1436 C 0.67259 0.48097 0.72359 0.0
C1437 C 0.60669 0.50142 0.72584 0.0
N1438 N 0.6943 0.55542 0.72614 0.0
N1439 N 0.58665 0.43085 0.74137 0.0
H1440 H 0.5707 0.54172 0.72095 0.0
H1441 H 0.553 0.48929 0.72206 0.0
H1442 H 0.59005 0.40043 0.74548 0.0
H1443 H 0.56321 0.43726 0.74867 0.0
H1444 H 0.71931 0.55179 0.73194 0.0
H1445 H 0.69091 0.58653 0.72602 0.0
H1446 H 0.72379 0.49126 0.70996 0.0
H1447 H 0.70816 0.43983 0.71722 0.0
C1448 C 0.48796 0.28405 0.31225 0.0
C1449 C 0.47057 0.28234 0.34774 0.0
C1450 C 0.52266 0.27323 0.38659 0.0
C1451 C 0.54102 0.281 0.35252 0.0
N1452 N 0.5419 0.2958 0.28324 0.0
N1453 N 0.47075 0.27513 0.41889 0.0
C1454 C 0.52378 0.28634 0.31522 0.0
C1455 C 0.48772 0.27614 0.38482 0.0
N1456 N 0.47026 0.28447 0.27587 0.0
N1457 N 0.53874 0.26305 0.42075 0.0
H1458 H 0.44476 0.27444 0.41817 0.0
H1459 H 0.48238 0.27682 0.44798 0.0
H1460 H 0.56456 0.26274 0.42369 0.0
H1461 H 0.52646 0.25257 0.44521 0.0
H1462 H 0.48067 0.28224 0.24825 0.0
H1463 H 0.44425 0.28359 0.27293 0.0
H1464 H 0.53171 0.30479 0.25657 0.0
H1465 H 0.56795 0.29739 0.28439 0.0
C1466 C 0.61332 0.45141 0.3397 0.0
C1467 C 0.63939 0.43205 0.32367 0.0
C1468 C 0.66893 0.50031 0.30899 0.0
C1469 C 0.64428 0.51984 0.32794 0.0
N1470 N 0.59559 0.51543 0.3664 0.0
N1471 N 0.69365 0.4374 0.29698 0.0
C1472 C 0.61717 0.49575 0.34469 0.0
C1473 C 0.66769 0.45634 0.30936 0.0
N1474 N 0.58476 0.42735 0.34997 0.0
N1475 N 0.69305 0.52372 0.28998 0.0
H1476 H 0.69274 0.40505 0.29513 0.0
H1477 H 0.7167 0.45371 0.29053 0.0
H1478 H 0.69529 0.55616 0.29054 0.0
H1479 H 0.70956 0.51093 0.27182 0.0
H1480 H 0.56326 0.43922 0.35746 0.0
H1481 H 0.58125 0.3948 0.34791 0.0
H1482 H 0.57766 0.5001 0.38327 0.0
H1483 H 0.59735 0.54785 0.37043 0.0
C1484 C 0.52287 0.73344 0.26402 0.0
C1485 C 0.54416 0.72511 0.2971 0.0
C1486 C 0.49466 0.7008 0.33026 0.0
C1487 C 0.47254 0.71528 0.3018 0.0
N1488 N 0.46918 0.75319 0.24247 0.0
N1489 N 0.54832 0.71752 0.36832 0.0
C1490 C 0.48756 0.73421 0.26876 0.0
C1491 C 0.52922 0.71611 0.33284 0.0
N1492 N 0.53598 0.73941 0.22809 0.0
N1493 N 0.48344 0.66889 0.35209 0.0
H1494 H 0.5739 0.72931 0.37104 0.0
H1495 H 0.53774 0.71166 0.39532 0.0
H1496 H 0.46026 0.64974 0.34403 0.0
H1497 H 0.49889 0.65785 0.37356 0.0
H1498 H 0.52113 0.74132 0.20168 0.0
H1499 H 0.56164 0.74028 0.2248 0.0
H1500 H 0.48005 0.77 0.22025 0.0
H1501 H 0.44394 0.75529 0.24477 0.0
C1502 C 0.35553 0.51932 0.3815 0.0
C1503 C 0.37189 0.49485 0.35426 0.0
C1504 C 0.39226 0.55793 0.32214 0.0
C1505 C 0.37377 0.58176 0.34742 0.0
N1506 N 0.32582 0.5779 0.38696 0.0
N1507 N 0.39332 0.48929 0.28877 0.0
C1508 C 0.35191 0.56046 0.37317 0.0
C1509 C 0.38665 0.51371 0.32161 0.0
N1510 N 0.34436 0.50445 0.4159 0.0
N1511 N 0.41562 0.57691 0.29915 0.0
H1512 H 0.38479 0.45722 0.28528 0.0
H1513 H 0.40202 0.50126 0.26282 0.0
H1514 H 0.42183 0.60914 0.29951 0.0
H1515 H 0.43124 0.56056 0.28264 0.0
H1516 H 0.33483 0.52315 0.43789 0.0
H1517 H 0.34773 0.47532 0.4244 0.0
H1518 H 0.30785 0.5623 0.40373 0.0
H1519 H 0.31971 0.60508 0.37646 0.0
loop_
_geom_bond_atom_site_label_1
_geom_bond_atom_site_label_2
_geom_bond_distance
_geom_bond_site_symmetry_2
_ccdc_geom_bond_type
Co0 O2 2.143 . S
Co0 O8 2.074 . S
Co0 O11 2.093 . S
Co0 O24 2.097 . S
Co0 N41 2.151 . S
Co0 N49 2.214 . S
Co1 O2 2.160 . S
Co1 O7 2.058 . S
Co1 O17 2.057 . S
Co1 O32 2.037 . S
Co1 N36 2.145 . S
Co1 N57 2.257 . S
O2 Co0 2.143 . S
O2 Co1 2.160 . S
C3 O4 1.278 . S
C3 O11 1.224 . S
O4 C3 1.278 . S
C5 O6 1.245 . S
C5 O17 1.232 . S
O6 C5 1.245 . S
O7 Co1 2.058 . S
O7 C33 1.269 . S
O8 Co0 2.074 . S
O8 C33 1.257 . S
H9 C34 0.930 . S
H10 C40 0.930 . S
O11 Co0 2.093 . S
O11 C3 1.224 . S
H12 C44 0.904 1_556 S
H13 C46 0.930 1_565 S
H14 C47 0.930 . S
H15 C45 0.929 . S
H16 C48 0.928 . S
O17 Co1 2.057 . S
O17 C5 1.232 . S
H18 C37 0.929 . S
H19 C38 0.929 . S
H20 C50 0.931 . S
H21 C42 0.929 . S
H22 C51 0.930 1_556 S
H23 C43 0.931 . S
O24 Co0 2.097 . S
O24 C52 1.214 . S
H25 C53 0.929 . S
H26 C54 0.929 . S
H27 C55 0.930 . S
H28 C56 0.929 . S
H29 C58 0.930 . S
H30 C35 0.930 . S
H31 C39 0.930 . S
O32 Co1 2.037 . S
O32 C52 1.234 . S
C33 O7 1.269 . S
C33 O8 1.257 . S
C34 H9 0.930 . S
C34 C37 1.388 . S
C34 C39 1.418 . S
C35 H30 0.930 . S
C35 C38 1.404 . S
C35 C39 1.353 . S
N36 Co1 2.145 . S
N36 C37 1.397 . S
N36 C38 1.334 . S
C37 H18 0.929 . S
C37 C34 1.388 . S
C37 N36 1.397 . S
C38 H19 0.929 . S
C38 C35 1.404 . S
C38 N36 1.334 . S
C39 H31 0.930 . S
C39 C34 1.418 . S
C39 C35 1.353 . S
C40 H10 0.930 . S
C40 N41 1.330 . S
C40 C42 1.446 . S
N41 Co0 2.151 . S
N41 C40 1.330 . S
N41 C45 1.418 . S
C42 H21 0.929 . S
C42 C40 1.446 . S
C42 C43 1.332 . S
C43 H23 0.931 . S
C43 C42 1.332 . S
C43 C44 1.267 . S
C44 H12 0.904 1_554 S
C44 C43 1.267 . S
C44 C45 1.251 . S
C45 H15 0.929 . S
C45 N41 1.418 . S
C45 C44 1.251 . S
C46 H13 0.930 1_545 S
C46 C48 1.406 . S
C46 C51 1.261 . S
C47 H14 0.930 . S
C47 N49 1.325 . S
C47 C50 1.357 . S
C48 H16 0.928 . S
C48 C46 1.406 . S
C48 N49 1.261 . S
N49 Co0 2.214 . S
N49 C47 1.325 . S
N49 C48 1.261 . S
C50 H20 0.931 . S
C50 C47 1.357 . S
C50 C51 1.312 . S
C51 H22 0.930 1_554 S
C51 C46 1.261 . S
C51 C50 1.312 . S
C52 O24 1.214 . S
C52 O32 1.234 . S
C53 H25 0.929 . S
C53 C56 1.391 . S
C53 C58 1.391 . S
C54 H26 0.929 . S
C54 C55 1.390 . S
C54 N57 1.391 . S
C55 H27 0.930 . S
C55 C54 1.390 . S
C55 C56 1.392 . S
C56 H28 0.929 . S
C56 C53 1.391 . S
C56 C55 1.392 . S
N57 Co1 2.257 . S
N57 C54 1.391 . S
N57 C58 1.388 . S
C58 H29 0.930 . S
C58 C53 1.391 . S
C58 N57 1.388 . S
Co59 O61 2.143 . S
Co59 O67 2.074 . S
Co59 O70 2.093 . S
Co59 O83 2.097 . S
Co59 N100 2.151 . S
Co59 N108 2.214 . S
Co60 O61 2.160 . S
Co60 O66 2.058 . S
Co60 O76 2.057 . S
Co60 O91 2.037 . S
Co60 N95 2.145 . S
Co60 N116 2.257 . S
O61 Co59 2.143 . S
O61 Co60 2.160 . S
C62 O63 1.278 . S
C62 O70 1.224 . S
O63 C62 1.278 . S
C64 O65 1.245 . S
C64 O76 1.232 . S
O65 C64 1.245 . S
O66 Co60 2.058 . S
O66 C92 1.269 . S
O67 Co59 2.074 . S
O67 C92 1.257 . S
H68 C93 0.930 . S
H69 C99 0.930 . S
O70 Co59 2.093 . S
O70 C62 1.224 . S
H71 C103 0.929 . S
H72 C105 0.930 . S
H73 C106 0.930 . S
H74 C104 0.929 . S
H75 C107 0.928 . S
O76 Co60 2.057 . S
O76 C64 1.232 . S
H77 C96 0.929 . S
H78 C97 0.929 . S
H79 C109 0.931 . S
H80 C101 0.929 . S
H81 C110 0.930 . S
H82 C102 0.931 . S
O83 Co59 2.097 . S
O83 C111 1.214 . S
H84 C112 0.929 . S
H85 C113 0.929 . S
H86 C114 0.930 . S
H87 C115 0.929 . S
H88 C117 0.930 . S
H89 C94 0.930 . S
H90 C98 0.930 . S
O91 Co60 2.037 . S
O91 C111 1.234 . S
C92 O66 1.269 . S
C92 O67 1.257 . S
C93 H68 0.930 . S
C93 C96 1.388 . S
C93 C98 1.418 . S
C94 H89 0.930 . S
C94 C97 1.404 . S
C94 C98 1.353 . S
N95 Co60 2.145 . S
N95 C96 1.397 . S
N95 C97 1.334 . S
C96 H77 0.929 . S
C96 C93 1.388 . S
C96 N95 1.397 . S
C97 H78 0.929 . S
C97 C94 1.404 . S
C97 N95 1.334 . S
C98 H90 0.930 . S
C98 C93 1.418 . S
C98 C94 1.353 . S
C99 H69 0.930 . S
C99 N100 1.330 . S
C99 C101 1.446 . S
N100 Co59 2.151 . S
N100 C99 1.330 . S
N100 C104 1.418 . S
C101 H80 0.929 . S
C101 C99 1.446 . S
C101 C102 1.332 . S
C102 H82 0.931 . S
C102 C101 1.332 . S
C102 C103 1.267 . S
C103 H71 0.929 . S
C103 C102 1.267 . S
C103 C104 1.251 . S
C104 H74 0.929 . S
C104 N100 1.418 . S
C104 C103 1.251 . S
C105 H72 0.930 . S
C105 C107 1.406 . S
C105 C110 1.261 . S
C106 H73 0.930 . S
C106 N108 1.325 . S
C106 C109 1.357 . S
C107 H75 0.928 . S
C107 C105 1.406 . S
C107 N108 1.261 . S
N108 Co59 2.214 . S
N108 C106 1.325 . S
N108 C107 1.261 . S
C109 H79 0.931 . S
C109 C106 1.357 . S
C109 C110 1.312 . S
C110 H81 0.930 . S
C110 C105 1.261 . S
C110 C109 1.312 . S
C111 O83 1.214 . S
C111 O91 1.234 . S
C112 H84 0.929 . S
C112 C115 1.391 . S
C112 C117 1.391 . S
C113 H85 0.929 . S
C113 C114 1.390 . S
C113 N116 1.391 . S
C114 H86 0.930 . S
C114 C113 1.390 . S
C114 C115 1.392 . S
C115 H87 0.929 . S
C115 C112 1.391 . S
C115 C114 1.392 . S
N116 Co60 2.257 . S
N116 C113 1.391 . S
N116 C117 1.388 . S
C117 H88 0.930 . S
C117 C112 1.391 . S
C117 N116 1.388 . S
Co118 O120 2.143 . S
Co118 O126 2.074 . S
Co118 O129 2.093 . S
Co118 O142 2.097 . S
Co118 N159 2.151 . S
Co118 N167 2.214 . S
Co119 O120 2.160 . S
Co119 O125 2.058 . S
Co119 O135 2.057 . S
Co119 O150 2.037 . S
Co119 N154 2.145 . S
Co119 N175 2.257 . S
O120 Co118 2.143 . S
O120 Co119 2.160 . S
C121 O122 1.278 . S
C121 O129 1.224 . S
O122 C121 1.278 . S
C123 O124 1.245 . S
C123 O135 1.232 . S
O124 C123 1.245 . S
O125 Co119 2.058 . S
O125 C151 1.269 . S
O126 Co118 2.074 . S
O126 C151 1.257 . S
H127 C152 0.930 . S
H128 C158 0.930 . S
O129 Co118 2.093 . S
O129 C121 1.224 . S
H130 C162 0.929 . S
H131 C164 0.930 1_545 S
H132 C165 0.930 . S
H133 C163 0.929 . S
H134 C166 0.928 . S
O135 Co119 2.057 . S
O135 C123 1.232 . S
H136 C155 0.929 . S
H137 C156 0.929 . S
H138 C168 0.931 . S
H139 C160 0.929 . S
H140 C169 0.930 . S
H141 C161 0.931 . S
O142 Co118 2.097 . S
O142 C170 1.214 . S
H143 C171 0.929 . S
H144 C172 0.929 . S
H145 C173 0.930 . S
H146 C174 0.929 . S
H147 C176 0.930 . S
H148 C153 0.930 . S
H149 C157 0.930 . S
O150 Co119 2.037 . S
O150 C170 1.234 . S
C151 O125 1.269 . S
C151 O126 1.257 . S
C152 H127 0.930 . S
C152 C155 1.388 . S
C152 C157 1.418 . S
C153 H148 0.930 . S
C153 C156 1.404 . S
C153 C157 1.353 . S
N154 Co119 2.145 . S
N154 C155 1.397 . S
N154 C156 1.334 . S
C155 H136 0.929 . S
C155 C152 1.388 . S
C155 N154 1.397 . S
C156 H137 0.929 . S
C156 C153 1.404 . S
C156 N154 1.334 . S
C157 H149 0.930 . S
C157 C152 1.418 . S
C157 C153 1.353 . S
C158 H128 0.930 . S
C158 N159 1.330 . S
C158 C160 1.446 . S
N159 Co118 2.151 . S
N159 C158 1.330 . S
N159 C163 1.418 . S
C160 H139 0.929 . S
C160 C158 1.446 . S
C160 C161 1.332 . S
C161 H141 0.931 . S
C161 C160 1.332 . S
C161 C162 1.267 . S
C162 H130 0.929 . S
C162 C161 1.267 . S
C162 C163 1.251 . S
C163 H133 0.929 . S
C163 N159 1.418 . S
C163 C162 1.251 . S
C164 H131 0.930 1_565 S
C164 C166 1.406 . S
C164 C169 1.261 . S
C165 H132 0.930 . S
C165 N167 1.325 . S
C165 C168 1.357 . S
C166 H134 0.928 . S
C166 C164 1.406 . S
C166 N167 1.261 . S
N167 Co118 2.214 . S
N167 C165 1.325 . S
N167 C166 1.261 . S
C168 H138 0.931 . S
C168 C165 1.357 . S
C168 C169 1.312 . S
C169 H140 0.930 . S
C169 C164 1.261 . S
C169 C168 1.312 . S
C170 O142 1.214 . S
C170 O150 1.234 . S
C171 H143 0.929 . S
C171 C174 1.391 . S
C171 C176 1.391 . S
C172 H144 0.929 . S
C172 C173 1.390 . S
C172 N175 1.391 . S
C173 H145 0.930 . S
C173 C172 1.390 . S
C173 C174 1.392 . S
C174 H146 0.929 . S
C174 C171 1.391 . S
C174 C173 1.392 . S
N175 Co119 2.257 . S
N175 C172 1.391 . S
N175 C176 1.388 . S
C176 H147 0.930 . S
C176 C171 1.391 . S
C176 N175 1.388 . S
Co177 O179 2.143 . S
Co177 O185 2.074 . S
Co177 O188 2.093 . S
Co177 O201 2.097 . S
Co177 N218 2.151 . S
Co177 N226 2.214 . S
Co178 O179 2.160 . S
Co178 O184 2.058 . S
Co178 O194 2.057 . S
Co178 O209 2.037 . S
Co178 N213 2.145 . S
Co178 N234 2.257 . S
O179 Co177 2.143 . S
O179 Co178 2.160 . S
C180 O181 1.278 . S
C180 O188 1.224 . S
O181 C180 1.278 . S
C182 O183 1.245 . S
C182 O194 1.232 . S
O183 C182 1.245 . S
O184 Co178 2.058 . S
O184 C210 1.269 . S
O185 Co177 2.074 . S
O185 C210 1.257 . S
H186 C211 0.930 . S
H187 C217 0.930 . S
O188 Co177 2.093 . S
O188 C180 1.224 . S
H189 C221 0.929 . S
H190 C223 0.930 1_556 S
H191 C224 0.930 . S
H192 C222 0.929 . S
H193 C225 0.928 . S
O194 Co178 2.057 . S
O194 C182 1.232 . S
H195 C214 0.929 . S
H196 C215 0.929 . S
H197 C227 0.931 . S
H198 C219 0.929 . S
H199 C228 0.930 . S
H200 C220 0.931 . S
O201 Co177 2.097 . S
O201 C229 1.214 . S
H202 C230 0.929 . S
H203 C231 0.929 . S
H204 C232 0.930 . S
H205 C233 0.929 . S
H206 C235 0.930 . S
H207 C212 0.930 . S
H208 C216 0.930 . S
O209 Co178 2.037 . S
O209 C229 1.234 . S
C210 O184 1.269 . S
C210 O185 1.257 . S
C211 H186 0.930 . S
C211 C214 1.388 . S
C211 C216 1.418 . S
C212 H207 0.930 . S
C212 C215 1.404 . S
C212 C216 1.353 . S
N213 Co178 2.145 . S
N213 C214 1.397 . S
N213 C215 1.334 . S
C214 H195 0.929 . S
C214 C211 1.388 . S
C214 N213 1.397 . S
C215 H196 0.929 . S
C215 C212 1.404 . S
C215 N213 1.334 . S
C216 H208 0.930 . S
C216 C211 1.418 . S
C216 C212 1.353 . S
C217 H187 0.930 . S
C217 N218 1.330 . S
C217 C219 1.446 . S
N218 Co177 2.151 . S
N218 C217 1.330 . S
N218 C222 1.418 . S
C219 H198 0.929 . S
C219 C217 1.446 . S
C219 C220 1.332 . S
C220 H200 0.931 . S
C220 C219 1.332 . S
C220 C221 1.267 . S
C221 H189 0.929 . S
C221 C220 1.267 . S
C221 C222 1.251 . S
C222 H192 0.929 . S
C222 N218 1.418 . S
C222 C221 1.251 . S
C223 H190 0.930 1_554 S
C223 C225 1.406 . S
C223 C228 1.261 . S
C224 H191 0.930 . S
C224 N226 1.325 . S
C224 C227 1.357 . S
C225 H193 0.928 . S
C225 C223 1.406 . S
C225 N226 1.261 . S
N226 Co177 2.214 . S
N226 C224 1.325 . S
N226 C225 1.261 . S
C227 H197 0.931 . S
C227 C224 1.357 . S
C227 C228 1.312 . S
C228 H199 0.930 . S
C228 C223 1.261 . S
C228 C227 1.312 . S
C229 O201 1.214 . S
C229 O209 1.234 . S
C230 H202 0.929 . S
C230 C233 1.391 . S
C230 C235 1.391 . S
C231 H203 0.929 . S
C231 C232 1.390 . S
C231 N234 1.391 . S
C232 H204 0.930 . S
C232 C231 1.390 . S
C232 C233 1.392 . S
C233 H205 0.929 . S
C233 C230 1.391 . S
C233 C232 1.392 . S
N234 Co178 2.257 . S
N234 C231 1.391 . S
N234 C235 1.388 . S
C235 H206 0.930 . S
C235 C230 1.391 . S
C235 N234 1.388 . S
Co236 O238 2.143 . S
Co236 O244 2.074 . S
Co236 O247 2.093 . S
Co236 O260 2.097 . S
Co236 N277 2.151 . S
Co236 N285 2.214 . S
Co237 O238 2.160 . S
Co237 O243 2.058 . S
Co237 O253 2.057 . S
Co237 O268 2.037 . S
Co237 N272 2.145 . S
Co237 N293 2.257 . S
O238 Co236 2.143 . S
O238 Co237 2.160 . S
C239 O240 1.278 . S
C239 O247 1.224 . S
O240 C239 1.278 . S
C241 O242 1.245 . S
C241 O253 1.232 . S
O242 C241 1.245 . S
O243 Co237 2.058 . S
O243 C269 1.269 . S
O244 Co236 2.074 . S
O244 C269 1.257 . S
H245 C270 0.930 . S
H246 C276 0.930 . S
O247 Co236 2.093 . S
O247 C239 1.224 . S
H248 C280 0.929 . S
H249 C282 0.930 . S
H250 C283 0.930 . S
H251 C281 0.929 . S
H252 C284 0.928 . S
O253 Co237 2.057 . S
O253 C241 1.232 . S
H254 C273 0.929 . S
H255 C274 0.929 . S
H256 C286 0.931 . S
H257 C278 0.929 . S
H258 C287 0.930 . S
H259 C279 0.931 . S
O260 Co236 2.097 . S
O260 C288 1.214 . S
H261 C289 0.929 . S
H262 C290 0.929 . S
H263 C291 0.930 . S
H264 C292 0.929 . S
H265 C294 0.930 . S
H266 C271 0.930 . S
H267 C275 0.930 . S
O268 Co237 2.037 . S
O268 C288 1.234 . S
C269 O243 1.269 . S
C269 O244 1.257 . S
C270 H245 0.930 . S
C270 C273 1.388 . S
C270 C275 1.418 . S
C271 H266 0.930 . S
C271 C274 1.404 . S
C271 C275 1.353 . S
N272 Co237 2.145 . S
N272 C273 1.397 . S
N272 C274 1.334 . S
C273 H254 0.929 . S
C273 C270 1.388 . S
C273 N272 1.397 . S
C274 H255 0.929 . S
C274 C271 1.404 . S
C274 N272 1.334 . S
C275 H267 0.930 . S
C275 C270 1.418 . S
C275 C271 1.353 . S
C276 H246 0.930 . S
C276 N277 1.330 . S
C276 C278 1.446 . S
N277 Co236 2.151 . S
N277 C276 1.330 . S
N277 C281 1.418 . S
C278 H257 0.929 . S
C278 C276 1.446 . S
C278 C279 1.332 . S
C279 H259 0.931 . S
C279 C278 1.332 . S
C279 C280 1.267 . S
C280 H248 0.929 . S
C280 C279 1.267 . S
C280 C281 1.251 . S
C281 H251 0.929 . S
C281 N277 1.418 . S
C281 C280 1.251 . S
C282 H249 0.930 . S
C282 C284 1.406 . S
C282 C287 1.261 . S
C283 H250 0.930 . S
C283 N285 1.325 . S
C283 C286 1.357 . S
C284 H252 0.928 . S
C284 C282 1.406 . S
C284 N285 1.261 . S
N285 Co236 2.214 . S
N285 C283 1.325 . S
N285 C284 1.261 . S
C286 H256 0.931 . S
C286 C283 1.357 . S
C286 C287 1.312 . S
C287 H258 0.930 . S
C287 C282 1.261 . S
C287 C286 1.312 . S
C288 O260 1.214 . S
C288 O268 1.234 . S
C289 H261 0.929 . S
C289 C292 1.391 . S
C289 C294 1.391 . S
C290 H262 0.929 . S
C290 C291 1.390 . S
C290 N293 1.391 . S
C291 H263 0.930 . S
C291 C290 1.390 . S
C291 C292 1.392 . S
C292 H264 0.929 . S
C292 C289 1.391 . S
C292 C291 1.392 . S
N293 Co237 2.257 . S
N293 C290 1.391 . S
N293 C294 1.388 . S
C294 H265 0.930 . S
C294 C289 1.391 . S
C294 N293 1.388 . S
Co295 O297 2.143 . S
Co295 O303 2.074 . S
Co295 O306 2.093 . S
Co295 O319 2.097 . S
Co295 N336 2.151 . S
Co295 N344 2.214 . S
Co296 O297 2.160 . S
Co296 O302 2.058 . S
Co296 O312 2.057 . S
Co296 O327 2.037 . S
Co296 N331 2.145 . S
Co296 N352 2.257 . S
O297 Co295 2.143 . S
O297 Co296 2.160 . S
C298 O299 1.278 . S
C298 O306 1.224 . S
O299 C298 1.278 . S
C300 O301 1.245 . S
C300 O312 1.232 . S
O301 C300 1.245 . S
O302 Co296 2.058 . S
O302 C328 1.269 . S
O303 Co295 2.074 . S
O303 C328 1.257 . S
H304 C329 0.930 . S
H305 C335 0.930 . S
O306 Co295 2.093 . S
O306 C298 1.224 . S
H307 C339 0.929 1_655 S
H308 C341 0.930 1_565 S
H309 C342 0.930 . S
H310 C340 0.929 . S
H311 C343 0.928 . S
O312 Co296 2.057 . S
O312 C300 1.232 . S
H313 C332 0.929 . S
H314 C333 0.929 . S
H315 C345 0.931 . S
H316 C337 0.929 . S
H317 C346 0.930 . S
H318 C338 0.931 . S
O319 Co295 2.097 . S
O319 C347 1.214 . S
H320 C348 0.929 . S
H321 C349 0.929 . S
H322 C350 0.930 . S
H323 C351 0.929 . S
H324 C353 0.930 . S
H325 C330 0.930 . S
H326 C334 0.930 . S
O327 Co296 2.037 . S
O327 C347 1.234 . S
C328 O302 1.269 . S
C328 O303 1.257 . S
C329 H304 0.930 . S
C329 C332 1.388 . S
C329 C334 1.418 . S
C330 H325 0.930 . S
C330 C333 1.404 . S
C330 C334 1.353 . S
N331 Co296 2.145 . S
N331 C332 1.397 . S
N331 C333 1.334 . S
C332 H313 0.929 . S
C332 C329 1.388 . S
C332 N331 1.397 . S
C333 H314 0.929 . S
C333 C330 1.404 . S
C333 N331 1.334 . S
C334 H326 0.930 . S
C334 C329 1.418 . S
C334 C330 1.353 . S
C335 H305 0.930 . S
C335 N336 1.330 . S
C335 C337 1.446 . S
N336 Co295 2.151 . S
N336 C335 1.330 . S
N336 C340 1.418 . S
C337 H316 0.929 . S
C337 C335 1.446 . S
C337 C338 1.332 . S
C338 H318 0.931 . S
C338 C337 1.332 . S
C338 C339 1.267 . S
C339 H307 0.929 1_455 S
C339 C338 1.267 . S
C339 C340 1.251 . S
C340 H310 0.929 . S
C340 N336 1.418 . S
C340 C339 1.251 . S
C341 H308 0.930 1_545 S
C341 C343 1.406 1_655 S
C341 C346 1.261 . S
C342 H309 0.930 . S
C342 N344 1.325 . S
C342 C345 1.357 1_455 S
C343 H311 0.928 . S
C343 C341 1.406 1_455 S
C343 N344 1.261 . S
N344 Co295 2.214 . S
N344 C342 1.325 . S
N344 C343 1.261 . S
C345 H315 0.931 . S
C345 C342 1.357 1_655 S
C345 C346 1.312 . S
C346 H317 0.930 . S
C346 C341 1.261 . S
C346 C345 1.312 . S
C347 O319 1.214 . S
C347 O327 1.234 . S
C348 H320 0.929 . S
C348 C351 1.391 . S
C348 C353 1.391 . S
C349 H321 0.929 . S
C349 C350 1.390 . S
C349 N352 1.391 . S
C350 H322 0.930 . S
C350 C349 1.390 . S
C350 C351 1.392 . S
C351 H323 0.929 . S
C351 C348 1.391 . S
C351 C350 1.392 . S
N352 Co296 2.257 . S
N352 C349 1.391 . S
N352 C353 1.388 . S
C353 H324 0.930 . S
C353 C348 1.391 . S
C353 N352 1.388 . S
Co354 O356 2.143 . S
Co354 O362 2.074 . S
Co354 O365 2.093 . S
Co354 O378 2.097 . S
Co354 N395 2.151 . S
Co354 N403 2.214 . S
Co355 O356 2.160 . S
Co355 O361 2.058 . S
Co355 O371 2.057 . S
Co355 O386 2.037 . S
Co355 N390 2.145 . S
Co355 N411 2.257 . S
O356 Co354 2.143 . S
O356 Co355 2.160 . S
C357 O358 1.278 . S
C357 O365 1.224 . S
O358 C357 1.278 . S
C359 O360 1.245 . S
C359 O371 1.232 . S
O360 C359 1.245 . S
O361 Co355 2.058 . S
O361 C387 1.269 . S
O362 Co354 2.074 . S
O362 C387 1.257 . S
H363 C388 0.930 . S
H364 C394 0.930 . S
O365 Co354 2.093 . S
O365 C357 1.224 . S
H366 C398 0.929 1_455 S
H367 C400 0.930 . S
H368 C401 0.930 . S
H369 C399 0.929 . S
H370 C402 0.928 . S
O371 Co355 2.057 . S
O371 C359 1.232 . S
H372 C391 0.929 . S
H373 C392 0.929 . S
H374 C404 0.931 . S
H375 C396 0.929 . S
H376 C405 0.930 . S
H377 C397 0.931 . S
O378 Co354 2.097 . S
O378 C406 1.214 . S
H379 C407 0.929 . S
H380 C408 0.929 . S
H381 C409 0.930 . S
H382 C410 0.929 . S
H383 C412 0.930 . S
H384 C389 0.930 . S
H385 C393 0.930 . S
O386 Co355 2.037 . S
O386 C406 1.234 . S
C387 O361 1.269 . S
C387 O362 1.257 . S
C388 H363 0.930 . S
C388 C391 1.388 . S
C388 C393 1.418 . S
C389 H384 0.930 . S
C389 C392 1.404 . S
C389 C393 1.353 . S
N390 Co355 2.145 . S
N390 C391 1.397 . S
N390 C392 1.334 . S
C391 H372 0.929 . S
C391 C388 1.388 . S
C391 N390 1.397 . S
C392 H373 0.929 . S
C392 C389 1.404 . S
C392 N390 1.334 . S
C393 H385 0.930 . S
C393 C388 1.418 . S
C393 C389 1.353 . S
C394 H364 0.930 . S
C394 N395 1.330 . S
C394 C396 1.446 . S
N395 Co354 2.151 . S
N395 C394 1.330 . S
N395 C399 1.418 . S
C396 H375 0.929 . S
C396 C394 1.446 . S
C396 C397 1.332 . S
C397 H377 0.931 . S
C397 C396 1.332 . S
C397 C398 1.267 . S
C398 H366 0.929 1_655 S
C398 C397 1.267 . S
C398 C399 1.251 . S
C399 H369 0.929 . S
C399 N395 1.418 . S
C399 C398 1.251 . S
C400 H367 0.930 . S
C400 C402 1.406 1_455 S
C400 C405 1.261 . S
C401 H368 0.930 . S
C401 N403 1.325 . S
C401 C404 1.357 1_655 S
C402 H370 0.928 . S
C402 C400 1.406 1_655 S
C402 N403 1.261 . S
N403 Co354 2.214 . S
N403 C401 1.325 . S
N403 C402 1.261 . S
C404 H374 0.931 . S
C404 C401 1.357 1_455 S
C404 C405 1.312 . S
C405 H376 0.930 . S
C405 C400 1.261 . S
C405 C404 1.312 . S
C406 O378 1.214 . S
C406 O386 1.234 . S
C407 H379 0.929 . S
C407 C410 1.391 . S
C407 C412 1.391 . S
C408 H380 0.929 . S
C408 C409 1.390 . S
C408 N411 1.391 . S
C409 H381 0.930 . S
C409 C408 1.390 . S
C409 C410 1.392 . S
C410 H382 0.929 . S
C410 C407 1.391 . S
C410 C409 1.392 . S
N411 Co355 2.257 . S
N411 C408 1.391 . S
N411 C412 1.388 . S
C412 H383 0.930 . S
C412 C407 1.391 . S
C412 N411 1.388 . S
Co413 O415 2.143 . S
Co413 O421 2.074 . S
Co413 O424 2.093 . S
Co413 O437 2.097 . S
Co413 N454 2.151 . S
Co413 N462 2.214 . S
Co414 O415 2.160 . S
Co414 O420 2.058 . S
Co414 O430 2.057 . S
Co414 O445 2.037 . S
Co414 N449 2.145 . S
Co414 N470 2.257 . S
O415 Co413 2.143 . S
O415 Co414 2.160 . S
C416 O417 1.278 . S
C416 O424 1.224 . S
O417 C416 1.278 . S
C418 O419 1.245 . S
C418 O430 1.232 . S
O419 C418 1.245 . S
O420 Co414 2.058 . S
O420 C446 1.269 . S
O421 Co413 2.074 . S
O421 C446 1.257 . S
H422 C447 0.930 . S
H423 C453 0.930 . S
O424 Co413 2.093 . S
O424 C416 1.224 . S
H425 C457 0.929 . S
H426 C459 0.930 . S
H427 C460 0.930 . S
H428 C458 0.929 . S
H429 C461 0.928 . S
O430 Co414 2.057 . S
O430 C418 1.232 . S
H431 C450 0.929 . S
H432 C451 0.929 . S
H433 C463 0.931 . S
H434 C455 0.929 . S
H435 C464 0.930 . S
H436 C456 0.931 . S
O437 Co413 2.097 . S
O437 C465 1.214 . S
H438 C466 0.929 . S
H439 C467 0.929 . S
H440 C468 0.930 . S
H441 C469 0.929 . S
H442 C471 0.930 . S
H443 C448 0.930 . S
H444 C452 0.930 . S
O445 Co414 2.037 . S
O445 C465 1.234 . S
C446 O420 1.269 . S
C446 O421 1.257 . S
C447 H422 0.930 . S
C447 C450 1.388 . S
C447 C452 1.418 . S
C448 H443 0.930 . S
C448 C451 1.404 . S
C448 C452 1.353 . S
N449 Co414 2.145 . S
N449 C450 1.397 . S
N449 C451 1.334 . S
C450 H431 0.929 . S
C450 C447 1.388 . S
C450 N449 1.397 . S
C451 H432 0.929 . S
C451 C448 1.404 . S
C451 N449 1.334 . S
C452 H444 0.930 . S
C452 C447 1.418 . S
C452 C448 1.353 . S
C453 H423 0.930 . S
C453 N454 1.330 . S
C453 C455 1.446 . S
N454 Co413 2.151 . S
N454 C453 1.330 . S
N454 C458 1.418 . S
C455 H434 0.929 . S
C455 C453 1.446 . S
C455 C456 1.332 . S
C456 H436 0.931 . S
C456 C455 1.332 . S
C456 C457 1.267 . S
C457 H425 0.929 . S
C457 C456 1.267 . S
C457 C458 1.251 . S
C458 H428 0.929 . S
C458 N454 1.418 . S
C458 C457 1.251 . S
C459 H426 0.930 . S
C459 C461 1.406 1_455 S
C459 C464 1.261 . S
C460 H427 0.930 . S
C460 N462 1.325 . S
C460 C463 1.357 1_655 S
C461 H429 0.928 . S
C461 C459 1.406 1_655 S
C461 N462 1.261 . S
N462 Co413 2.214 . S
N462 C460 1.325 . S
N462 C461 1.261 . S
C463 H433 0.931 . S
C463 C460 1.357 1_455 S
C463 C464 1.312 . S
C464 H435 0.930 . S
C464 C459 1.261 . S
C464 C463 1.312 . S
C465 O437 1.214 . S
C465 O445 1.234 . S
C466 H438 0.929 . S
C466 C469 1.391 . S
C466 C471 1.391 . S
C467 H439 0.929 . S
C467 C468 1.390 . S
C467 N470 1.391 . S
C468 H440 0.930 . S
C468 C467 1.390 . S
C468 C469 1.392 . S
C469 H441 0.929 . S
C469 C466 1.391 . S
C469 C468 1.392 . S
N470 Co414 2.257 . S
N470 C467 1.391 . S
N470 C471 1.388 . S
C471 H442 0.930 . S
C471 C466 1.391 . S
C471 N470 1.388 . S
Co472 O474 2.143 . S
Co472 O480 2.074 . S
Co472 O483 2.093 . S
Co472 O496 2.097 . S
Co472 N513 2.151 . S
Co472 N521 2.214 . S
Co473 O474 2.160 . S
Co473 O479 2.058 . S
Co473 O489 2.057 . S
Co473 O504 2.037 . S
Co473 N508 2.145 . S
Co473 N529 2.257 . S
O474 Co472 2.143 . S
O474 Co473 2.160 . S
C475 O476 1.278 . S
C475 O483 1.224 . S
O476 C475 1.278 . S
C477 O478 1.245 . S
C477 O489 1.232 . S
O478 C477 1.245 . S
O479 Co473 2.058 . S
O479 C505 1.269 . S
O480 Co472 2.074 . S
O480 C505 1.257 . S
H481 C506 0.930 . S
H482 C512 0.930 . S
O483 Co472 2.093 . S
O483 C475 1.224 . S
H484 C516 0.929 . S
H485 C518 0.930 . S
H486 C519 0.930 . S
H487 C517 0.929 . S
H488 C520 0.928 . S
O489 Co473 2.057 . S
O489 C477 1.232 . S
H490 C509 0.929 . S
H491 C510 0.929 . S
H492 C522 0.931 . S
H493 C514 0.929 . S
H494 C523 0.930 . S
H495 C515 0.931 . S
O496 Co472 2.097 . S
O496 C524 1.214 . S
H497 C525 0.929 . S
H498 C526 0.929 . S
H499 C527 0.930 . S
H500 C528 0.929 . S
H501 C530 0.930 . S
H502 C507 0.930 . S
H503 C511 0.930 . S
O504 Co473 2.037 . S
O504 C524 1.234 . S
C505 O479 1.269 . S
C505 O480 1.257 . S
C506 H481 0.930 . S
C506 C509 1.388 . S
C506 C511 1.418 . S
C507 H502 0.930 . S
C507 C510 1.404 . S
C507 C511 1.353 . S
N508 Co473 2.145 . S
N508 C509 1.397 . S
N508 C510 1.334 . S
C509 H490 0.929 . S
C509 C506 1.388 . S
C509 N508 1.397 . S
C510 H491 0.929 . S
C510 C507 1.404 . S
C510 N508 1.334 . S
C511 H503 0.930 . S
C511 C506 1.418 . S
C511 C507 1.353 . S
C512 H482 0.930 . S
C512 N513 1.330 . S
C512 C514 1.446 . S
N513 Co472 2.151 . S
N513 C512 1.330 . S
N513 C517 1.418 . S
C514 H493 0.929 . S
C514 C512 1.446 . S
C514 C515 1.332 . S
C515 H495 0.931 . S
C515 C514 1.332 . S
C515 C516 1.267 . S
C516 H484 0.929 . S
C516 C515 1.267 . S
C516 C517 1.251 . S
C517 H487 0.929 . S
C517 N513 1.418 . S
C517 C516 1.251 . S
C518 H485 0.930 . S
C518 C520 1.406 . S
C518 C523 1.261 . S
C519 H486 0.930 . S
C519 N521 1.325 . S
C519 C522 1.357 . S
C520 H488 0.928 . S
C520 C518 1.406 . S
C520 N521 1.261 . S
N521 Co472 2.214 . S
N521 C519 1.325 . S
N521 C520 1.261 . S
C522 H492 0.931 . S
C522 C519 1.357 . S
C522 C523 1.312 . S
C523 H494 0.930 . S
C523 C518 1.261 . S
C523 C522 1.312 . S
C524 O496 1.214 . S
C524 O504 1.234 . S
C525 H497 0.929 . S
C525 C528 1.391 . S
C525 C530 1.391 . S
C526 H498 0.929 . S
C526 C527 1.390 . S
C526 N529 1.391 . S
C527 H499 0.930 . S
C527 C526 1.390 . S
C527 C528 1.392 . S
C528 H500 0.929 . S
C528 C525 1.391 . S
C528 C527 1.392 . S
N529 Co473 2.257 . S
N529 C526 1.391 . S
N529 C530 1.388 . S
C530 H501 0.930 . S
C530 C525 1.391 . S
C530 N529 1.388 . S
Co531 O533 2.143 . S
Co531 O539 2.074 . S
Co531 O542 2.093 . S
Co531 O555 2.097 . S
Co531 N572 2.151 . S
Co531 N580 2.214 . S
Co532 O533 2.160 . S
Co532 O538 2.058 . S
Co532 O548 2.057 . S
Co532 O563 2.037 . S
Co532 N567 2.145 . S
Co532 N588 2.257 . S
O533 Co531 2.143 . S
O533 Co532 2.160 . S
C534 O535 1.278 . S
C534 O542 1.224 . S
O535 C534 1.278 . S
C536 O537 1.245 . S
C536 O548 1.232 . S
O537 C536 1.245 . S
O538 Co532 2.058 . S
O538 C564 1.269 . S
O539 Co531 2.074 . S
O539 C564 1.257 . S
H540 C565 0.930 . S
H541 C571 0.930 . S
O542 Co531 2.093 . S
O542 C534 1.224 . S
H543 C575 0.929 . S
H544 C577 0.930 . S
H545 C578 0.930 . S
H546 C576 0.929 . S
H547 C579 0.928 . S
O548 Co532 2.057 . S
O548 C536 1.232 . S
H549 C568 0.929 . S
H550 C569 0.929 . S
H551 C581 0.931 . S
H552 C573 0.929 . S
H553 C582 0.930 . S
H554 C574 0.931 . S
O555 Co531 2.097 . S
O555 C583 1.214 . S
H556 C584 0.929 . S
H557 C585 0.929 . S
H558 C586 0.930 . S
H559 C587 0.929 . S
H560 C589 0.930 . S
H561 C566 0.930 . S
H562 C570 0.930 . S
O563 Co532 2.037 . S
O563 C583 1.234 . S
C564 O538 1.269 . S
C564 O539 1.257 . S
C565 H540 0.930 . S
C565 C568 1.388 . S
C565 C570 1.418 . S
C566 H561 0.930 . S
C566 C569 1.404 . S
C566 C570 1.353 . S
N567 Co532 2.145 . S
N567 C568 1.397 . S
N567 C569 1.334 . S
C568 H549 0.929 . S
C568 C565 1.388 . S
C568 N567 1.397 . S
C569 H550 0.929 . S
C569 C566 1.404 . S
C569 N567 1.334 . S
C570 H562 0.930 . S
C570 C565 1.418 . S
C570 C566 1.353 . S
C571 H541 0.930 . S
C571 N572 1.330 . S
C571 C573 1.446 . S
N572 Co531 2.151 . S
N572 C571 1.330 . S
N572 C576 1.418 . S
C573 H552 0.929 . S
C573 C571 1.446 . S
C573 C574 1.332 . S
C574 H554 0.931 . S
C574 C573 1.332 . S
C574 C575 1.267 . S
C575 H543 0.929 . S
C575 C574 1.267 . S
C575 C576 1.251 . S
C576 H546 0.929 . S
C576 N572 1.418 . S
C576 C575 1.251 . S
C577 H544 0.930 . S
C577 C579 1.406 . S
C577 C582 1.261 . S
C578 H545 0.930 . S
C578 N580 1.325 . S
C578 C581 1.357 . S
C579 H547 0.928 . S
C579 C577 1.406 . S
C579 N580 1.261 . S
N580 Co531 2.214 . S
N580 C578 1.325 . S
N580 C579 1.261 . S
C581 H551 0.931 . S
C581 C578 1.357 . S
C581 C582 1.312 . S
C582 H553 0.930 . S
C582 C577 1.261 . S
C582 C581 1.312 . S
C583 O555 1.214 . S
C583 O563 1.234 . S
C584 H556 0.929 . S
C584 C587 1.391 . S
C584 C589 1.391 . S
C585 H557 0.929 . S
C585 C586 1.390 . S
C585 N588 1.391 . S
C586 H558 0.930 . S
C586 C585 1.390 . S
C586 C587 1.392 . S
C587 H559 0.929 . S
C587 C584 1.391 . S
C587 C586 1.392 . S
N588 Co532 2.257 . S
N588 C585 1.391 . S
N588 C589 1.388 . S
C589 H560 0.930 . S
C589 C584 1.391 . S
C589 N588 1.388 . S
Co590 O592 2.143 . S
Co590 O598 2.074 . S
Co590 O601 2.093 . S
Co590 O614 2.097 . S
Co590 N631 2.151 . S
Co590 N639 2.214 . S
Co591 O592 2.160 . S
Co591 O597 2.058 . S
Co591 O607 2.057 . S
Co591 O622 2.037 . S
Co591 N626 2.145 . S
Co591 N647 2.257 . S
O592 Co590 2.143 . S
O592 Co591 2.160 . S
C593 O594 1.278 . S
C593 O601 1.224 . S
O594 C593 1.278 . S
C595 O596 1.245 . S
C595 O607 1.232 . S
O596 C595 1.245 . S
O597 Co591 2.058 . S
O597 C623 1.269 . S
O598 Co590 2.074 . S
O598 C623 1.257 . S
H599 C624 0.930 . S
H600 C630 0.930 . S
O601 Co590 2.093 . S
O601 C593 1.224 . S
H602 C634 0.929 . S
H603 C636 0.930 . S
H604 C637 0.930 . S
H605 C635 0.929 . S
H606 C638 0.928 . S
O607 Co591 2.057 . S
O607 C595 1.232 . S
H608 C627 0.929 . S
H609 C628 0.929 . S
H610 C640 0.931 . S
H611 C632 0.929 . S
H612 C641 0.930 . S
H613 C633 0.931 . S
O614 Co590 2.097 . S
O614 C642 1.214 . S
H615 C643 0.929 . S
H616 C644 0.929 . S
H617 C645 0.930 . S
H618 C646 0.929 . S
H619 C648 0.930 . S
H620 C625 0.930 . S
H621 C629 0.930 . S
O622 Co591 2.037 . S
O622 C642 1.234 . S
C623 O597 1.269 . S
C623 O598 1.257 . S
C624 H599 0.930 . S
C624 C627 1.388 . S
C624 C629 1.418 . S
C625 H620 0.930 . S
C625 C628 1.404 . S
C625 C629 1.353 . S
N626 Co591 2.145 . S
N626 C627 1.397 . S
N626 C628 1.334 . S
C627 H608 0.929 . S
C627 C624 1.388 . S
C627 N626 1.397 . S
C628 H609 0.929 . S
C628 C625 1.404 . S
C628 N626 1.334 . S
C629 H621 0.930 . S
C629 C624 1.418 . S
C629 C625 1.353 . S
C630 H600 0.930 . S
C630 N631 1.330 . S
C630 C632 1.446 . S
N631 Co590 2.151 . S
N631 C630 1.330 . S
N631 C635 1.418 . S
C632 H611 0.929 . S
C632 C630 1.446 . S
C632 C633 1.332 . S
C633 H613 0.931 . S
C633 C632 1.332 . S
C633 C634 1.267 . S
C634 H602 0.929 . S
C634 C633 1.267 . S
C634 C635 1.251 . S
C635 H605 0.929 . S
C635 N631 1.418 . S
C635 C634 1.251 . S
C636 H603 0.930 . S
C636 C638 1.406 . S
C636 C641 1.261 . S
C637 H604 0.930 . S
C637 N639 1.325 . S
C637 C640 1.357 . S
C638 H606 0.928 . S
C638 C636 1.406 . S
C638 N639 1.261 . S
N639 Co590 2.214 . S
N639 C637 1.325 . S
N639 C638 1.261 . S
C640 H610 0.931 . S
C640 C637 1.357 . S
C640 C641 1.312 . S
C641 H612 0.930 . S
C641 C636 1.261 . S
C641 C640 1.312 . S
C642 O614 1.214 . S
C642 O622 1.234 . S
C643 H615 0.929 . S
C643 C646 1.391 . S
C643 C648 1.391 . S
C644 H616 0.929 . S
C644 C645 1.390 . S
C644 N647 1.391 . S
C645 H617 0.930 . S
C645 C644 1.390 . S
C645 C646 1.392 . S
C646 H618 0.929 . S
C646 C643 1.391 . S
C646 C645 1.392 . S
N647 Co591 2.257 . S
N647 C644 1.391 . S
N647 C648 1.388 . S
C648 H619 0.930 . S
C648 C643 1.391 . S
C648 N647 1.388 . S
Co649 O651 2.143 . S
Co649 O657 2.074 . S
Co649 O660 2.093 . S
Co649 O673 2.097 . S
Co649 N690 2.151 . S
Co649 N698 2.214 . S
Co650 O651 2.160 . S
Co650 O656 2.058 . S
Co650 O666 2.057 . S
Co650 O681 2.037 . S
Co650 N685 2.145 . S
Co650 N706 2.257 . S
O651 Co649 2.143 . S
O651 Co650 2.160 . S
C652 O653 1.278 . S
C652 O660 1.224 . S
O653 C652 1.278 . S
C654 O655 1.245 . S
C654 O666 1.232 . S
O655 C654 1.245 . S
O656 Co650 2.058 . S
O656 C682 1.269 . S
O657 Co649 2.074 . S
O657 C682 1.257 . S
H658 C683 0.930 . S
H659 C689 0.930 . S
O660 Co649 2.093 . S
O660 C652 1.224 . S
H661 C693 0.929 . S
H662 C695 0.930 . S
H663 C696 0.930 . S
H664 C694 0.929 . S
H665 C697 0.928 . S
O666 Co650 2.057 . S
O666 C654 1.232 . S
H667 C686 0.929 . S
H668 C687 0.929 . S
H669 C699 0.931 . S
H670 C691 0.929 . S
H671 C700 0.930 . S
H672 C692 0.931 . S
O673 Co649 2.097 . S
O673 C701 1.214 . S
H674 C702 0.929 . S
H675 C703 0.929 . S
H676 C704 0.930 . S
H677 C705 0.929 . S
H678 C707 0.930 . S
H679 C684 0.930 . S
H680 C688 0.930 . S
O681 Co650 2.037 . S
O681 C701 1.234 . S
C682 O656 1.269 . S
C682 O657 1.257 . S
C683 H658 0.930 . S
C683 C686 1.388 . S
C683 C688 1.418 . S
C684 H679 0.930 . S
C684 C687 1.404 . S
C684 C688 1.353 . S
N685 Co650 2.145 . S
N685 C686 1.397 . S
N685 C687 1.334 . S
C686 H667 0.929 . S
C686 C683 1.388 . S
C686 N685 1.397 . S
C687 H668 0.929 . S
C687 C684 1.404 . S
C687 N685 1.334 . S
C688 H680 0.930 . S
C688 C683 1.418 . S
C688 C684 1.353 . S
C689 H659 0.930 . S
C689 N690 1.330 . S
C689 C691 1.446 . S
N690 Co649 2.151 . S
N690 C689 1.330 . S
N690 C694 1.418 . S
C691 H670 0.929 . S
C691 C689 1.446 . S
C691 C692 1.332 . S
C692 H672 0.931 . S
C692 C691 1.332 . S
C692 C693 1.267 . S
C693 H661 0.929 . S
C693 C692 1.267 . S
C693 C694 1.251 . S
C694 H664 0.929 . S
C694 N690 1.418 . S
C694 C693 1.251 . S
C695 H662 0.930 . S
C695 C697 1.406 . S
C695 C700 1.261 . S
C696 H663 0.930 . S
C696 N698 1.325 . S
C696 C699 1.357 . S
C697 H665 0.928 . S
C697 C695 1.406 . S
C697 N698 1.261 . S
N698 Co649 2.214 . S
N698 C696 1.325 . S
N698 C697 1.261 . S
C699 H669 0.931 . S
C699 C696 1.357 . S
C699 C700 1.312 . S
C700 H671 0.930 . S
C700 C695 1.261 . S
C700 C699 1.312 . S
C701 O673 1.214 . S
C701 O681 1.234 . S
C702 H674 0.929 . S
C702 C705 1.391 . S
C702 C707 1.391 . S
C703 H675 0.929 . S
C703 C704 1.390 . S
C703 N706 1.391 . S
C704 H676 0.930 . S
C704 C703 1.390 . S
C704 C705 1.392 . S
C705 H677 0.929 . S
C705 C702 1.391 . S
C705 C704 1.392 . S
N706 Co650 2.257 . S
N706 C703 1.391 . S
N706 C707 1.388 . S
C707 H678 0.930 . S
C707 C702 1.391 . S
C707 N706 1.388 . S
Co708 O710 2.143 . S
Co708 O716 2.074 . S
Co708 O719 2.093 . S
Co708 O732 2.097 . S
Co708 N749 2.151 . S
Co708 N757 2.214 . S
Co709 O710 2.160 . S
Co709 O715 2.058 . S
Co709 O725 2.057 . S
Co709 O740 2.037 . S
Co709 N744 2.145 . S
Co709 N765 2.257 . S
O710 Co708 2.143 . S
O710 Co709 2.160 . S
C711 O712 1.278 . S
C711 O719 1.224 . S
O712 C711 1.278 . S
C713 O714 1.245 . S
C713 O725 1.232 . S
O714 C713 1.245 . S
O715 Co709 2.058 . S
O715 C741 1.269 . S
O716 Co708 2.074 . S
O716 C741 1.257 . S
H717 C742 0.930 . S
H718 C748 0.930 . S
O719 Co708 2.093 . S
O719 C711 1.224 . S
H720 C752 0.929 . S
H721 C754 0.930 . S
H722 C755 0.930 . S
H723 C753 0.929 . S
H724 C756 0.928 . S
O725 Co709 2.057 . S
O725 C713 1.232 . S
H726 C745 0.929 . S
H727 C746 0.929 . S
H728 C758 0.931 . S
H729 C750 0.929 . S
H730 C759 0.930 . S
H731 C751 0.931 . S
O732 Co708 2.097 . S
O732 C760 1.214 . S
H733 C761 0.929 . S
H734 C762 0.929 . S
H735 C763 0.930 . S
H736 C764 0.929 . S
H737 C766 0.930 . S
H738 C743 0.930 . S
H739 C747 0.930 . S
O740 Co709 2.037 . S
O740 C760 1.234 . S
C741 O715 1.269 . S
C741 O716 1.257 . S
C742 H717 0.930 . S
C742 C745 1.388 . S
C742 C747 1.418 . S
C743 H738 0.930 . S
C743 C746 1.404 . S
C743 C747 1.353 . S
N744 Co709 2.145 . S
N744 C745 1.397 . S
N744 C746 1.334 . S
C745 H726 0.929 . S
C745 C742 1.388 . S
C745 N744 1.397 . S
C746 H727 0.929 . S
C746 C743 1.404 . S
C746 N744 1.334 . S
C747 H739 0.930 . S
C747 C742 1.418 . S
C747 C743 1.353 . S
C748 H718 0.930 . S
C748 N749 1.330 . S
C748 C750 1.446 . S
N749 Co708 2.151 . S
N749 C748 1.330 . S
N749 C753 1.418 . S
C750 H729 0.929 . S
C750 C748 1.446 . S
C750 C751 1.332 . S
C751 H731 0.931 . S
C751 C750 1.332 . S
C751 C752 1.267 . S
C752 H720 0.929 . S
C752 C751 1.267 . S
C752 C753 1.251 . S
C753 H723 0.929 . S
C753 N749 1.418 . S
C753 C752 1.251 . S
C754 H721 0.930 . S
C754 C756 1.406 . S
C754 C759 1.261 . S
C755 H722 0.930 . S
C755 N757 1.325 . S
C755 C758 1.357 . S
C756 H724 0.928 . S
C756 C754 1.406 . S
C756 N757 1.261 . S
N757 Co708 2.214 . S
N757 C755 1.325 . S
N757 C756 1.261 . S
C758 H728 0.931 . S
C758 C755 1.357 . S
C758 C759 1.312 . S
C759 H730 0.930 . S
C759 C754 1.261 . S
C759 C758 1.312 . S
C760 O732 1.214 . S
C760 O740 1.234 . S
C761 H733 0.929 . S
C761 C764 1.391 . S
C761 C766 1.391 . S
C762 H734 0.929 . S
C762 C763 1.390 . S
C762 N765 1.391 . S
C763 H735 0.930 . S
C763 C762 1.390 . S
C763 C764 1.392 . S
C764 H736 0.929 . S
C764 C761 1.391 . S
C764 C763 1.392 . S
N765 Co709 2.257 . S
N765 C762 1.391 . S
N765 C766 1.388 . S
C766 H737 0.930 . S
C766 C761 1.391 . S
C766 N765 1.388 . S
Co767 O769 2.143 . S
Co767 O775 2.074 . S
Co767 O778 2.093 . S
Co767 O791 2.097 . S
Co767 N808 2.151 . S
Co767 N816 2.214 . S
Co768 O769 2.160 . S
Co768 O774 2.058 . S
Co768 O784 2.057 . S
Co768 O799 2.037 . S
Co768 N803 2.145 . S
Co768 N824 2.257 . S
O769 Co767 2.143 . S
O769 Co768 2.160 . S
C770 O771 1.278 . S
C770 O778 1.224 . S
O771 C770 1.278 . S
C772 O773 1.245 . S
C772 O784 1.232 . S
O773 C772 1.245 . S
O774 Co768 2.058 . S
O774 C800 1.269 . S
O775 Co767 2.074 . S
O775 C800 1.257 . S
H776 C801 0.930 . S
H777 C807 0.930 . S
O778 Co767 2.093 . S
O778 C770 1.224 . S
H779 C811 0.929 . S
H780 C813 0.930 . S
H781 C814 0.930 . S
H782 C812 0.929 . S
H783 C815 0.928 . S
O784 Co768 2.057 . S
O784 C772 1.232 . S
H785 C804 0.929 . S
H786 C805 0.929 . S
H787 C817 0.931 . S
H788 C809 0.929 . S
H789 C818 0.930 . S
H790 C810 0.931 . S
O791 Co767 2.097 . S
O791 C819 1.214 . S
H792 C820 0.929 . S
H793 C821 0.929 . S
H794 C822 0.930 . S
H795 C823 0.929 . S
H796 C825 0.930 . S
H797 C802 0.930 . S
H798 C806 0.930 . S
O799 Co768 2.037 . S
O799 C819 1.234 . S
C800 O774 1.269 . S
C800 O775 1.257 . S
C801 H776 0.930 . S
C801 C804 1.388 . S
C801 C806 1.418 . S
C802 H797 0.930 . S
C802 C805 1.404 . S
C802 C806 1.353 . S
N803 Co768 2.145 . S
N803 C804 1.397 . S
N803 C805 1.334 . S
C804 H785 0.929 . S
C804 C801 1.388 . S
C804 N803 1.397 . S
C805 H786 0.929 . S
C805 C802 1.404 . S
C805 N803 1.334 . S
C806 H798 0.930 . S
C806 C801 1.418 . S
C806 C802 1.353 . S
C807 H777 0.930 . S
C807 N808 1.330 . S
C807 C809 1.446 . S
N808 Co767 2.151 . S
N808 C807 1.330 . S
N808 C812 1.418 . S
C809 H788 0.929 . S
C809 C807 1.446 . S
C809 C810 1.332 . S
C810 H790 0.931 . S
C810 C809 1.332 . S
C810 C811 1.267 . S
C811 H779 0.929 . S
C811 C810 1.267 . S
C811 C812 1.251 . S
C812 H782 0.929 . S
C812 N808 1.418 . S
C812 C811 1.251 . S
C813 H780 0.930 . S
C813 C815 1.406 . S
C813 C818 1.261 . S
C814 H781 0.930 . S
C814 N816 1.325 . S
C814 C817 1.357 . S
C815 H783 0.928 . S
C815 C813 1.406 . S
C815 N816 1.261 . S
N816 Co767 2.214 . S
N816 C814 1.325 . S
N816 C815 1.261 . S
C817 H787 0.931 . S
C817 C814 1.357 . S
C817 C818 1.312 . S
C818 H789 0.930 . S
C818 C813 1.261 . S
C818 C817 1.312 . S
C819 O791 1.214 . S
C819 O799 1.234 . S
C820 H792 0.929 . S
C820 C823 1.391 . S
C820 C825 1.391 . S
C821 H793 0.929 . S
C821 C822 1.390 . S
C821 N824 1.391 . S
C822 H794 0.930 . S
C822 C821 1.390 . S
C822 C823 1.392 . S
C823 H795 0.929 . S
C823 C820 1.391 . S
C823 C822 1.392 . S
N824 Co768 2.257 . S
N824 C821 1.391 . S
N824 C825 1.388 . S
C825 H796 0.930 . S
C825 C820 1.391 . S
C825 N824 1.388 . S
Co826 O828 2.143 . S
Co826 O834 2.074 . S
Co826 O837 2.093 . S
Co826 O850 2.097 . S
Co826 N867 2.151 . S
Co826 N875 2.214 . S
Co827 O828 2.160 . S
Co827 O833 2.058 . S
Co827 O843 2.057 . S
Co827 O858 2.037 . S
Co827 N862 2.145 . S
Co827 N883 2.257 . S
O828 Co826 2.143 . S
O828 Co827 2.160 . S
C829 O830 1.278 . S
C829 O837 1.224 . S
O830 C829 1.278 . S
C831 O832 1.245 . S
C831 O843 1.232 . S
O832 C831 1.245 . S
O833 Co827 2.058 . S
O833 C859 1.269 . S
O834 Co826 2.074 . S
O834 C859 1.257 . S
H835 C860 0.930 . S
H836 C866 0.930 . S
O837 Co826 2.093 . S
O837 C829 1.224 . S
H838 C870 0.929 . S
H839 C872 0.930 . S
H840 C873 0.930 . S
H841 C871 0.929 . S
H842 C874 0.928 . S
O843 Co827 2.057 . S
O843 C831 1.232 . S
H844 C863 0.929 . S
H845 C864 0.929 . S
H846 C876 0.931 . S
H847 C868 0.929 . S
H848 C877 0.930 . S
H849 C869 0.931 . S
O850 Co826 2.097 . S
O850 C878 1.214 . S
H851 C879 0.929 . S
H852 C880 0.929 . S
H853 C881 0.930 . S
H854 C882 0.929 . S
H855 C884 0.930 . S
H856 C861 0.930 . S
H857 C865 0.930 . S
O858 Co827 2.037 . S
O858 C878 1.234 . S
C859 O833 1.269 . S
C859 O834 1.257 . S
C860 H835 0.930 . S
C860 C863 1.388 . S
C860 C865 1.418 . S
C861 H856 0.930 . S
C861 C864 1.404 . S
C861 C865 1.353 . S
N862 Co827 2.145 . S
N862 C863 1.397 . S
N862 C864 1.334 . S
C863 H844 0.929 . S
C863 C860 1.388 . S
C863 N862 1.397 . S
C864 H845 0.929 . S
C864 C861 1.404 . S
C864 N862 1.334 . S
C865 H857 0.930 . S
C865 C860 1.418 . S
C865 C861 1.353 . S
C866 H836 0.930 . S
C866 N867 1.330 . S
C866 C868 1.446 . S
N867 Co826 2.151 . S
N867 C866 1.330 . S
N867 C871 1.418 . S
C868 H847 0.929 . S
C868 C866 1.446 . S
C868 C869 1.332 . S
C869 H849 0.931 . S
C869 C868 1.332 . S
C869 C870 1.267 . S
C870 H838 0.929 . S
C870 C869 1.267 . S
C870 C871 1.251 . S
C871 H841 0.929 . S
C871 N867 1.418 . S
C871 C870 1.251 . S
C872 H839 0.930 . S
C872 C874 1.406 . S
C872 C877 1.261 . S
C873 H840 0.930 . S
C873 N875 1.325 . S
C873 C876 1.357 . S
C874 H842 0.928 . S
C874 C872 1.406 . S
C874 N875 1.261 . S
N875 Co826 2.214 . S
N875 C873 1.325 . S
N875 C874 1.261 . S
C876 H846 0.931 . S
C876 C873 1.357 . S
C876 C877 1.312 . S
C877 H848 0.930 . S
C877 C872 1.261 . S
C877 C876 1.312 . S
C878 O850 1.214 . S
C878 O858 1.234 . S
C879 H851 0.929 . S
C879 C882 1.391 . S
C879 C884 1.391 . S
C880 H852 0.929 . S
C880 C881 1.390 . S
C880 N883 1.391 . S
C881 H853 0.930 . S
C881 C880 1.390 . S
C881 C882 1.392 . S
C882 H854 0.929 . S
C882 C879 1.391 . S
C882 C881 1.392 . S
N883 Co827 2.257 . S
N883 C880 1.391 . S
N883 C884 1.388 . S
C884 H855 0.930 . S
C884 C879 1.391 . S
C884 N883 1.388 . S
Co885 O887 2.143 . S
Co885 O893 2.074 . S
Co885 O896 2.093 . S
Co885 O909 2.097 . S
Co885 N926 2.151 . S
Co885 N934 2.214 . S
Co886 O887 2.160 . S
Co886 O892 2.058 . S
Co886 O902 2.057 . S
Co886 O917 2.037 . S
Co886 N921 2.145 . S
Co886 N942 2.257 . S
O887 Co885 2.143 . S
O887 Co886 2.160 . S
C888 O889 1.278 . S
C888 O896 1.224 . S
O889 C888 1.278 . S
C890 O891 1.245 . S
C890 O902 1.232 . S
O891 C890 1.245 . S
O892 Co886 2.058 . S
O892 C918 1.269 . S
O893 Co885 2.074 . S
O893 C918 1.257 . S
H894 C919 0.930 . S
H895 C925 0.930 . S
O896 Co885 2.093 . S
O896 C888 1.224 . S
H897 C929 0.929 . S
H898 C931 0.930 . S
H899 C932 0.930 . S
H900 C930 0.929 . S
H901 C933 0.928 . S
O902 Co886 2.057 . S
O902 C890 1.232 . S
H903 C922 0.929 . S
H904 C923 0.929 . S
H905 C935 0.931 . S
H906 C927 0.929 . S
H907 C936 0.930 . S
H908 C928 0.931 . S
O909 Co885 2.097 . S
O909 C937 1.214 . S
H910 C938 0.929 . S
H911 C939 0.929 . S
H912 C940 0.930 . S
H913 C941 0.929 . S
H914 C943 0.930 . S
H915 C920 0.930 . S
H916 C924 0.930 . S
O917 Co886 2.037 . S
O917 C937 1.234 . S
C918 O892 1.269 . S
C918 O893 1.257 . S
C919 H894 0.930 . S
C919 C922 1.388 . S
C919 C924 1.418 . S
C920 H915 0.930 . S
C920 C923 1.404 . S
C920 C924 1.353 . S
N921 Co886 2.145 . S
N921 C922 1.397 . S
N921 C923 1.334 . S
C922 H903 0.929 . S
C922 C919 1.388 . S
C922 N921 1.397 . S
C923 H904 0.929 . S
C923 C920 1.404 . S
C923 N921 1.334 . S
C924 H916 0.930 . S
C924 C919 1.418 . S
C924 C920 1.353 . S
C925 H895 0.930 . S
C925 N926 1.330 . S
C925 C927 1.446 . S
N926 Co885 2.151 . S
N926 C925 1.330 . S
N926 C930 1.418 . S
C927 H906 0.929 . S
C927 C925 1.446 . S
C927 C928 1.332 . S
C928 H908 0.931 . S
C928 C927 1.332 . S
C928 C929 1.267 . S
C929 H897 0.929 . S
C929 C928 1.267 . S
C929 C930 1.251 . S
C930 H900 0.929 . S
C930 N926 1.418 . S
C930 C929 1.251 . S
C931 H898 0.930 . S
C931 C933 1.406 . S
C931 C936 1.261 . S
C932 H899 0.930 . S
C932 N934 1.325 . S
C932 C935 1.357 . S
C933 H901 0.928 . S
C933 C931 1.406 . S
C933 N934 1.261 . S
N934 Co885 2.214 . S
N934 C932 1.325 . S
N934 C933 1.261 . S
C935 H905 0.931 . S
C935 C932 1.357 . S
C935 C936 1.312 . S
C936 H907 0.930 . S
C936 C931 1.261 . S
C936 C935 1.312 . S
C937 O909 1.214 . S
C937 O917 1.234 . S
C938 H910 0.929 . S
C938 C941 1.391 . S
C938 C943 1.391 . S
C939 H911 0.929 . S
C939 C940 1.390 . S
C939 N942 1.391 . S
C940 H912 0.930 . S
C940 C939 1.390 . S
C940 C941 1.392 . S
C941 H913 0.929 . S
C941 C938 1.391 . S
C941 C940 1.392 . S
N942 Co886 2.257 . S
N942 C939 1.391 . S
N942 C943 1.388 . S
C943 H914 0.930 . S
C943 C938 1.391 . S
C943 N942 1.388 . S
C944 C945 1.363 . S
C944 C950 1.379 . S
C944 N952 1.356 . S
C945 C944 1.363 . S
C945 C951 1.363 . S
C946 C947 1.363 . S
C946 C951 1.379 . S
C946 N953 1.356 . S
C947 C946 1.363 . S
C947 C950 1.363 . S
N948 C950 1.356 . S
N948 H960 0.984 . S
N948 H961 0.985 . S
N949 C951 1.356 . S
N949 H954 0.984 . S
N949 H955 0.985 . S
C950 C944 1.379 . S
C950 C947 1.363 . S
C950 N948 1.356 . S
C951 C945 1.363 . S
C951 C946 1.379 . S
C951 N949 1.356 . S
N952 C944 1.356 . S
N952 H958 0.984 . S
N952 H959 0.984 . S
N953 C946 1.356 . S
N953 H956 0.984 . S
N953 H957 0.985 . S
H954 N949 0.984 . S
H955 N949 0.985 . S
H956 N953 0.984 . S
H957 N953 0.985 . S
H958 N952 0.984 . S
H959 N952 0.984 . S
H960 N948 0.984 . S
H961 N948 0.985 . S
C962 C963 1.363 . S
C962 C968 1.379 . S
C962 N970 1.356 . S
C963 C962 1.363 . S
C963 C969 1.363 . S
C964 C965 1.363 . S
C964 C969 1.379 . S
C964 N971 1.356 . S
C965 C964 1.363 . S
C965 C968 1.363 . S
N966 C968 1.356 . S
N966 H978 0.984 . S
N966 H979 0.985 . S
N967 C969 1.356 . S
N967 H972 0.984 . S
N967 H973 0.985 . S
C968 C962 1.379 . S
C968 C965 1.363 . S
C968 N966 1.356 . S
C969 C963 1.363 . S
C969 C964 1.379 . S
C969 N967 1.356 . S
N970 C962 1.356 . S
N970 H976 0.984 . S
N970 H977 0.984 . S
N971 C964 1.356 . S
N971 H974 0.984 . S
N971 H975 0.985 . S
H972 N967 0.984 . S
H973 N967 0.985 . S
H974 N971 0.984 . S
H975 N971 0.985 . S
H976 N970 0.984 . S
H977 N970 0.984 . S
H978 N966 0.984 . S
H979 N966 0.985 . S
C980 C981 1.363 . S
C980 C986 1.379 . S
C980 N988 1.356 . S
C981 C980 1.363 . S
C981 C987 1.363 . S
C982 C983 1.363 . S
C982 C987 1.379 . S
C982 N989 1.356 . S
C983 C982 1.363 . S
C983 C986 1.363 . S
N984 C986 1.356 . S
N984 H996 0.984 . S
N984 H997 0.985 . S
N985 C987 1.356 . S
N985 H990 0.984 . S
N985 H991 0.985 . S
C986 C980 1.379 . S
C986 C983 1.363 . S
C986 N984 1.356 . S
C987 C981 1.363 . S
C987 C982 1.379 . S
C987 N985 1.356 . S
N988 C980 1.356 . S
N988 H994 0.984 . S
N988 H995 0.984 . S
N989 C982 1.356 . S
N989 H992 0.984 . S
N989 H993 0.985 . S
H990 N985 0.984 . S
H991 N985 0.985 . S
H992 N989 0.984 . S
H993 N989 0.985 . S
H994 N988 0.984 . S
H995 N988 0.984 . S
H996 N984 0.984 . S
H997 N984 0.985 . S
C998 C999 1.363 . S
C998 C1004 1.379 . S
C998 N1006 1.356 . S
C999 C998 1.363 . S
C999 C1005 1.363 . S
C1000 C1001 1.363 . S
C1000 C1005 1.379 . S
C1000 N1007 1.356 . S
C1001 C1000 1.363 . S
C1001 C1004 1.363 . S
N1002 C1004 1.356 . S
N1002 H1014 0.984 . S
N1002 H1015 0.985 . S
N1003 C1005 1.356 . S
N1003 H1008 0.984 . S
N1003 H1009 0.985 . S
C1004 C998 1.379 . S
C1004 C1001 1.363 . S
C1004 N1002 1.356 . S
C1005 C999 1.363 . S
C1005 C1000 1.379 . S
C1005 N1003 1.356 . S
N1006 C998 1.356 . S
N1006 H1012 0.984 . S
N1006 H1013 0.984 . S
N1007 C1000 1.356 . S
N1007 H1010 0.984 . S
N1007 H1011 0.985 . S
H1008 N1003 0.984 . S
H1009 N1003 0.985 . S
H1010 N1007 0.984 . S
H1011 N1007 0.985 . S
H1012 N1006 0.984 . S
H1013 N1006 0.984 . S
H1014 N1002 0.984 . S
H1015 N1002 0.985 . S
C1016 C1017 1.363 . S
C1016 C1022 1.379 . S
C1016 N1024 1.356 . S
C1017 C1016 1.363 . S
C1017 C1023 1.363 . S
C1018 C1019 1.363 . S
C1018 C1023 1.379 . S
C1018 N1025 1.356 . S
C1019 C1018 1.363 . S
C1019 C1022 1.363 . S
N1020 C1022 1.356 . S
N1020 H1032 0.984 . S
N1020 H1033 0.985 . S
N1021 C1023 1.356 . S
N1021 H1026 0.984 . S
N1021 H1027 0.985 . S
C1022 C1016 1.379 . S
C1022 C1019 1.363 . S
C1022 N1020 1.356 . S
C1023 C1017 1.363 . S
C1023 C1018 1.379 . S
C1023 N1021 1.356 . S
N1024 C1016 1.356 . S
N1024 H1030 0.984 . S
N1024 H1031 0.984 . S
N1025 C1018 1.356 . S
N1025 H1028 0.984 . S
N1025 H1029 0.985 . S
H1026 N1021 0.984 . S
H1027 N1021 0.985 . S
H1028 N1025 0.984 . S
H1029 N1025 0.985 . S
H1030 N1024 0.984 . S
H1031 N1024 0.984 . S
H1032 N1020 0.984 . S
H1033 N1020 0.985 . S
C1034 C1035 1.363 . S
C1034 C1040 1.379 . S
C1034 N1042 1.356 . S
C1035 C1034 1.363 . S
C1035 C1041 1.363 . S
C1036 C1037 1.363 . S
C1036 C1041 1.379 . S
C1036 N1043 1.356 . S
C1037 C1036 1.363 . S
C1037 C1040 1.363 . S
N1038 C1040 1.356 . S
N1038 H1050 0.984 . S
N1038 H1051 0.985 . S
N1039 C1041 1.356 . S
N1039 H1044 0.984 . S
N1039 H1045 0.985 . S
C1040 C1034 1.379 . S
C1040 C1037 1.363 . S
C1040 N1038 1.356 . S
C1041 C1035 1.363 . S
C1041 C1036 1.379 . S
C1041 N1039 1.356 . S
N1042 C1034 1.356 . S
N1042 H1048 0.984 . S
N1042 H1049 0.984 . S
N1043 C1036 1.356 . S
N1043 H1046 0.984 . S
N1043 H1047 0.985 . S
H1044 N1039 0.984 . S
H1045 N1039 0.985 . S
H1046 N1043 0.984 . S
H1047 N1043 0.985 . S
H1048 N1042 0.984 . S
H1049 N1042 0.984 . S
H1050 N1038 0.984 . S
H1051 N1038 0.985 . S
C1052 C1053 1.363 . S
C1052 C1058 1.379 . S
C1052 N1060 1.356 . S
C1053 C1052 1.363 . S
C1053 C1059 1.363 . S
C1054 C1055 1.363 . S
C1054 C1059 1.379 . S
C1054 N1061 1.356 . S
C1055 C1054 1.363 . S
C1055 C1058 1.363 . S
N1056 C1058 1.356 . S
N1056 H1068 0.984 . S
N1056 H1069 0.985 . S
N1057 C1059 1.356 . S
N1057 H1062 0.984 . S
N1057 H1063 0.985 . S
C1058 C1052 1.379 . S
C1058 C1055 1.363 . S
C1058 N1056 1.356 . S
C1059 C1053 1.363 . S
C1059 C1054 1.379 . S
C1059 N1057 1.356 . S
N1060 C1052 1.356 . S
N1060 H1066 0.984 . S
N1060 H1067 0.984 . S
N1061 C1054 1.356 . S
N1061 H1064 0.984 . S
N1061 H1065 0.985 . S
H1062 N1057 0.984 . S
H1063 N1057 0.985 . S
H1064 N1061 0.984 . S
H1065 N1061 0.985 . S
H1066 N1060 0.984 . S
H1067 N1060 0.984 . S
H1068 N1056 0.984 . S
H1069 N1056 0.985 . S
C1070 C1071 1.363 . S
C1070 C1076 1.379 . S
C1070 N1078 1.356 . S
C1071 C1070 1.363 . S
C1071 C1077 1.363 . S
C1072 C1073 1.363 . S
C1072 C1077 1.379 . S
C1072 N1079 1.356 . S
C1073 C1072 1.363 . S
C1073 C1076 1.363 . S
N1074 C1076 1.356 . S
N1074 H1086 0.984 . S
N1074 H1087 0.985 . S
N1075 C1077 1.356 . S
N1075 H1080 0.984 . S
N1075 H1081 0.985 . S
C1076 C1070 1.379 . S
C1076 C1073 1.363 . S
C1076 N1074 1.356 . S
C1077 C1071 1.363 . S
C1077 C1072 1.379 . S
C1077 N1075 1.356 . S
N1078 C1070 1.356 . S
N1078 H1084 0.984 . S
N1078 H1085 0.984 . S
N1079 C1072 1.356 . S
N1079 H1082 0.984 . S
N1079 H1083 0.985 . S
H1080 N1075 0.984 . S
H1081 N1075 0.985 . S
H1082 N1079 0.984 . S
H1083 N1079 0.985 . S
H1084 N1078 0.984 . S
H1085 N1078 0.984 . S
H1086 N1074 0.984 . S
H1087 N1074 0.985 . S
C1088 C1089 1.363 . S
C1088 C1094 1.379 . S
C1088 N1096 1.356 . S
C1089 C1088 1.363 . S
C1089 C1095 1.363 . S
C1090 C1091 1.363 1_556 S
C1090 C1095 1.379 . S
C1090 N1097 1.356 1_556 S
C1091 C1090 1.363 1_554 S
C1091 C1094 1.363 1_554 S
N1092 C1094 1.356 1_554 S
N1092 H1104 0.984 . S
N1092 H1105 0.985 . S
N1093 C1095 1.356 . S
N1093 H1098 0.984 . S
N1093 H1099 0.985 . S
C1094 C1088 1.379 . S
C1094 C1091 1.363 1_556 S
C1094 N1092 1.356 1_556 S
C1095 C1089 1.363 . S
C1095 C1090 1.379 . S
C1095 N1093 1.356 . S
N1096 C1088 1.356 . S
N1096 H1102 0.984 . S
N1096 H1103 0.984 . S
N1097 C1090 1.356 1_554 S
N1097 H1100 0.984 . S
N1097 H1101 0.985 . S
H1098 N1093 0.984 . S
H1099 N1093 0.985 . S
H1100 N1097 0.984 . S
H1101 N1097 0.985 . S
H1102 N1096 0.984 . S
H1103 N1096 0.984 . S
H1104 N1092 0.984 . S
H1105 N1092 0.985 . S
C1106 C1107 1.363 1_554 S
C1106 C1112 1.379 . S
C1106 N1114 1.356 1_554 S
C1107 C1106 1.363 1_556 S
C1107 C1113 1.363 1_556 S
C1108 C1109 1.363 . S
C1108 C1113 1.379 . S
C1108 N1115 1.356 . S
C1109 C1108 1.363 . S
C1109 C1112 1.363 . S
N1110 C1112 1.356 . S
N1110 H1122 0.984 . S
N1110 H1123 0.985 . S
N1111 C1113 1.356 1_556 S
N1111 H1116 0.984 . S
N1111 H1117 0.985 . S
C1112 C1106 1.379 . S
C1112 C1109 1.363 . S
C1112 N1110 1.356 . S
C1113 C1107 1.363 1_554 S
C1113 C1108 1.379 . S
C1113 N1111 1.356 1_554 S
N1114 C1106 1.356 1_556 S
N1114 H1120 0.984 . S
N1114 H1121 0.984 . S
N1115 C1108 1.356 . S
N1115 H1118 0.984 . S
N1115 H1119 0.985 . S
H1116 N1111 0.984 . S
H1117 N1111 0.985 . S
H1118 N1115 0.984 . S
H1119 N1115 0.985 . S
H1120 N1114 0.984 . S
H1121 N1114 0.984 . S
H1122 N1110 0.984 . S
H1123 N1110 0.985 . S
C1124 C1125 1.363 1_554 S
C1124 C1130 1.379 . S
C1124 N1132 1.356 . S
C1125 C1124 1.363 1_556 S
C1125 C1131 1.363 . S
C1126 C1127 1.363 . S
C1126 C1131 1.379 1_554 S
C1126 N1133 1.356 . S
C1127 C1126 1.363 . S
C1127 C1130 1.363 . S
N1128 C1130 1.356 . S
N1128 H1140 0.984 . S
N1128 H1141 0.985 . S
N1129 C1131 1.356 . S
N1129 H1134 0.984 . S
N1129 H1135 0.985 . S
C1130 C1124 1.379 . S
C1130 C1127 1.363 . S
C1130 N1128 1.356 . S
C1131 C1125 1.363 . S
C1131 C1126 1.379 1_556 S
C1131 N1129 1.356 . S
N1132 C1124 1.356 . S
N1132 H1138 0.984 . S
N1132 H1139 0.984 1_554 S
N1133 C1126 1.356 . S
N1133 H1136 0.984 . S
N1133 H1137 0.985 . S
H1134 N1129 0.984 . S
H1135 N1129 0.985 . S
H1136 N1133 0.984 . S
H1137 N1133 0.985 . S
H1138 N1132 0.984 . S
H1139 N1132 0.984 1_556 S
H1140 N1128 0.984 . S
H1141 N1128 0.985 . S
C1142 C1143 1.363 . S
C1142 C1148 1.379 1_554 S
C1142 N1150 1.356 . S
C1143 C1142 1.363 . S
C1143 C1149 1.363 . S
C1144 C1145 1.363 . S
C1144 C1149 1.379 1_556 S
C1144 N1151 1.356 . S
C1145 C1144 1.363 . S
C1145 C1148 1.363 . S
N1146 C1148 1.356 . S
N1146 H1158 0.984 . S
N1146 H1159 0.985 . S
N1147 C1149 1.356 . S
N1147 H1152 0.984 . S
N1147 H1153 0.985 . S
C1148 C1142 1.379 1_556 S
C1148 C1145 1.363 . S
C1148 N1146 1.356 . S
C1149 C1143 1.363 . S
C1149 C1144 1.379 1_554 S
C1149 N1147 1.356 . S
N1150 C1142 1.356 . S
N1150 H1156 0.984 . S
N1150 H1157 0.984 . S
N1151 C1144 1.356 . S
N1151 H1154 0.984 . S
N1151 H1155 0.985 . S
H1152 N1147 0.984 . S
H1153 N1147 0.985 . S
H1154 N1151 0.984 . S
H1155 N1151 0.985 . S
H1156 N1150 0.984 . S
H1157 N1150 0.984 . S
H1158 N1146 0.984 . S
H1159 N1146 0.985 . S
C1160 C1161 1.384 . S
C1160 C1166 1.355 1_455 S
C1160 N1168 1.367 . S
C1161 C1160 1.384 . S
C1161 C1167 1.363 . S
C1162 C1163 1.363 1_455 S
C1162 C1167 1.379 . S
C1162 N1169 1.356 1_455 S
C1163 C1162 1.363 1_655 S
C1163 C1166 1.363 . S
N1164 C1166 1.356 . S
N1164 H1176 0.984 . S
N1164 H1177 0.985 . S
N1165 C1167 1.356 . S
N1165 H1170 0.984 . S
N1165 H1171 0.985 . S
C1166 C1160 1.355 1_655 S
C1166 C1163 1.363 . S
C1166 N1164 1.356 . S
C1167 C1161 1.363 . S
C1167 C1162 1.379 . S
C1167 N1165 1.356 . S
N1168 C1160 1.367 . S
N1168 H1174 0.984 1_455 S
N1168 H1175 0.984 . S
N1169 C1162 1.356 1_655 S
N1169 H1172 0.984 . S
N1169 H1173 0.985 1_655 S
H1170 N1165 0.984 . S
H1171 N1165 0.985 . S
H1172 N1169 0.984 . S
H1173 N1169 0.985 1_455 S
H1174 N1168 0.984 1_655 S
H1175 N1168 0.984 . S
H1176 N1164 0.984 . S
H1177 N1164 0.985 . S
C1178 C1179 1.363 1_545 S
C1178 C1184 1.379 . S
C1178 N1186 1.356 1_545 S
C1179 C1178 1.363 1_565 S
C1179 C1185 1.363 1_565 S
C1180 C1181 1.363 . S
C1180 C1185 1.379 . S
C1180 N1187 1.356 . S
C1181 C1180 1.363 . S
C1181 C1184 1.363 . S
N1182 C1184 1.356 . S
N1182 H1194 0.984 . S
N1182 H1195 0.985 . S
N1183 C1185 1.356 1_565 S
N1183 H1188 0.984 . S
N1183 H1189 0.985 1_565 S
C1184 C1178 1.379 . S
C1184 C1181 1.363 . S
C1184 N1182 1.356 . S
C1185 C1179 1.363 1_545 S
C1185 C1180 1.379 . S
C1185 N1183 1.356 1_545 S
N1186 C1178 1.356 1_565 S
N1186 H1192 0.984 . S
N1186 H1193 0.984 . S
N1187 C1180 1.356 . S
N1187 H1190 0.984 . S
N1187 H1191 0.985 . S
H1188 N1183 0.984 . S
H1189 N1183 0.985 1_545 S
H1190 N1187 0.984 . S
H1191 N1187 0.985 . S
H1192 N1186 0.984 . S
H1193 N1186 0.984 . S
H1194 N1182 0.984 . S
H1195 N1182 0.985 . S
C1196 C1197 1.363 . S
C1196 C1202 1.379 1_655 S
C1196 N1204 1.356 . S
C1197 C1196 1.363 . S
C1197 C1203 1.363 . S
C1198 C1199 1.363 . S
C1198 C1203 1.379 1_455 S
C1198 N1205 1.356 . S
C1199 C1198 1.363 . S
C1199 C1202 1.363 . S
N1200 C1202 1.356 . S
N1200 H1212 0.984 . S
N1200 H1213 0.985 . S
N1201 C1203 1.356 . S
N1201 H1206 0.984 . S
N1201 H1207 0.985 . S
C1202 C1196 1.379 1_455 S
C1202 C1199 1.363 . S
C1202 N1200 1.356 . S
C1203 C1197 1.363 . S
C1203 C1198 1.379 1_655 S
C1203 N1201 1.356 . S
N1204 C1196 1.356 . S
N1204 H1210 0.984 . S
N1204 H1211 0.984 . S
N1205 C1198 1.356 . S
N1205 H1208 0.984 . S
N1205 H1209 0.985 . S
H1206 N1201 0.984 . S
H1207 N1201 0.985 . S
H1208 N1205 0.984 . S
H1209 N1205 0.985 . S
H1210 N1204 0.984 . S
H1211 N1204 0.984 . S
H1212 N1200 0.984 . S
H1213 N1200 0.985 . S
C1214 C1215 1.363 1_565 S
C1214 C1220 1.379 . S
C1214 N1222 1.356 1_565 S
C1215 C1214 1.363 1_545 S
C1215 C1221 1.363 . S
C1216 C1217 1.363 . S
C1216 C1221 1.379 1_565 S
C1216 N1223 1.356 . S
C1217 C1216 1.363 . S
C1217 C1220 1.363 . S
N1218 C1220 1.356 . S
N1218 H1230 0.984 . S
N1218 H1231 0.985 . S
N1219 C1221 1.356 . S
N1219 H1224 0.984 . S
N1219 H1225 0.985 . S
C1220 C1214 1.379 . S
C1220 C1217 1.363 . S
C1220 N1218 1.356 . S
C1221 C1215 1.363 . S
C1221 C1216 1.379 1_545 S
C1221 N1219 1.356 . S
N1222 C1214 1.356 1_545 S
N1222 H1228 0.984 1_545 S
N1222 H1229 0.984 . S
N1223 C1216 1.356 . S
N1223 H1226 0.984 . S
N1223 H1227 0.985 . S
H1224 N1219 0.984 . S
H1225 N1219 0.985 . S
H1226 N1223 0.984 . S
H1227 N1223 0.985 . S
H1228 N1222 0.984 1_565 S
H1229 N1222 0.984 . S
H1230 N1218 0.984 . S
H1231 N1218 0.985 . S
C1232 C1233 1.363 . S
C1232 C1238 1.379 . S
C1232 N1240 1.356 . S
C1233 C1232 1.363 . S
C1233 C1239 1.363 . S
C1234 C1235 1.363 . S
C1234 C1239 1.379 1_455 S
C1234 N1241 1.356 . S
C1235 C1234 1.363 . S
C1235 C1238 1.363 1_455 S
N1236 C1238 1.356 1_455 S
N1236 H1248 0.984 . S
N1236 H1249 0.985 . S
N1237 C1239 1.356 . S
N1237 H1242 0.984 . S
N1237 H1243 0.985 . S
C1238 C1232 1.379 . S
C1238 C1235 1.363 1_655 S
C1238 N1236 1.356 1_655 S
C1239 C1233 1.363 . S
C1239 C1234 1.379 1_655 S
C1239 N1237 1.356 . S
N1240 C1232 1.356 . S
N1240 H1246 0.984 . S
N1240 H1247 0.984 . S
N1241 C1234 1.356 . S
N1241 H1244 0.984 . S
N1241 H1245 0.985 . S
H1242 N1237 0.984 . S
H1243 N1237 0.985 . S
H1244 N1241 0.984 . S
H1245 N1241 0.985 . S
H1246 N1240 0.984 . S
H1247 N1240 0.984 . S
H1248 N1236 0.984 . S
H1249 N1236 0.985 . S
C1250 C1251 1.363 . S
C1250 C1256 1.379 . S
C1250 N1258 1.356 . S
C1251 C1250 1.363 . S
C1251 C1257 1.363 . S
C1252 C1253 1.363 1_565 S
C1252 C1257 1.379 . S
C1252 N1259 1.356 1_565 S
C1253 C1252 1.363 1_545 S
C1253 C1256 1.363 1_545 S
N1254 C1256 1.356 1_545 S
N1254 H1266 0.984 . S
N1254 H1267 0.985 . S
N1255 C1257 1.356 . S
N1255 H1260 0.984 . S
N1255 H1261 0.985 . S
C1256 C1250 1.379 . S
C1256 C1253 1.363 1_565 S
C1256 N1254 1.356 1_565 S
C1257 C1251 1.363 . S
C1257 C1252 1.379 . S
C1257 N1255 1.356 . S
N1258 C1250 1.356 . S
N1258 H1264 0.984 . S
N1258 H1265 0.984 . S
N1259 C1252 1.356 1_545 S
N1259 H1262 0.984 . S
N1259 H1263 0.985 . S
H1260 N1255 0.984 . S
H1261 N1255 0.985 . S
H1262 N1259 0.984 . S
H1263 N1259 0.985 . S
H1264 N1258 0.984 . S
H1265 N1258 0.984 . S
H1266 N1254 0.984 . S
H1267 N1254 0.985 . S
C1268 C1269 1.363 . S
C1268 C1274 1.379 1_455 S
C1268 N1276 1.356 . S
C1269 C1268 1.363 . S
C1269 C1275 1.363 . S
C1270 C1271 1.363 . S
C1270 C1275 1.379 1_655 S
C1270 N1277 1.356 . S
C1271 C1270 1.363 . S
C1271 C1274 1.363 . S
N1272 C1274 1.356 . S
N1272 H1284 0.984 . S
N1272 H1285 0.985 . S
N1273 C1275 1.356 . S
N1273 H1278 0.984 . S
N1273 H1279 0.985 . S
C1274 C1268 1.379 1_655 S
C1274 C1271 1.363 . S
C1274 N1272 1.356 . S
C1275 C1269 1.363 . S
C1275 C1270 1.379 1_455 S
C1275 N1273 1.356 . S
N1276 C1268 1.356 . S
N1276 H1282 0.984 . S
N1276 H1283 0.984 . S
N1277 C1270 1.356 . S
N1277 H1280 0.984 . S
N1277 H1281 0.985 . S
H1278 N1273 0.984 . S
H1279 N1273 0.985 . S
H1280 N1277 0.984 . S
H1281 N1277 0.985 . S
H1282 N1276 0.984 . S
H1283 N1276 0.984 . S
H1284 N1272 0.984 . S
H1285 N1272 0.985 . S
C1286 C1287 1.363 1_545 S
C1286 C1292 1.379 . S
C1286 N1294 1.356 1_545 S
C1287 C1286 1.363 1_565 S
C1287 C1293 1.363 1_565 S
C1288 C1289 1.363 . S
C1288 C1293 1.379 . S
C1288 N1295 1.356 . S
C1289 C1288 1.363 . S
C1289 C1292 1.363 . S
N1290 C1292 1.356 . S
N1290 H1302 0.984 . S
N1290 H1303 0.985 . S
N1291 C1293 1.356 1_565 S
N1291 H1296 0.984 . S
N1291 H1297 0.985 1_565 S
C1292 C1286 1.379 . S
C1292 C1289 1.363 . S
C1292 N1290 1.356 . S
C1293 C1287 1.363 1_545 S
C1293 C1288 1.379 . S
C1293 N1291 1.356 1_545 S
N1294 C1286 1.356 1_565 S
N1294 H1300 0.984 . S
N1294 H1301 0.984 . S
N1295 C1288 1.356 . S
N1295 H1298 0.984 . S
N1295 H1299 0.985 . S
H1296 N1291 0.984 . S
H1297 N1291 0.985 1_545 S
H1298 N1295 0.984 . S
H1299 N1295 0.985 . S
H1300 N1294 0.984 . S
H1301 N1294 0.984 . S
H1302 N1290 0.984 . S
H1303 N1290 0.985 . S
C1304 C1305 1.363 . S
C1304 C1310 1.379 . S
C1304 N1312 1.356 . S
C1305 C1304 1.363 . S
C1305 C1311 1.363 . S
C1306 C1307 1.363 . S
C1306 C1311 1.379 . S
C1306 N1313 1.356 . S
C1307 C1306 1.363 . S
C1307 C1310 1.363 . S
N1308 C1310 1.356 . S
N1308 H1320 0.984 . S
N1308 H1321 0.985 . S
N1309 C1311 1.356 . S
N1309 H1314 0.984 . S
N1309 H1315 0.985 . S
C1310 C1304 1.379 . S
C1310 C1307 1.363 . S
C1310 N1308 1.356 . S
C1311 C1305 1.363 . S
C1311 C1306 1.379 . S
C1311 N1309 1.356 . S
N1312 C1304 1.356 . S
N1312 H1318 0.984 . S
N1312 H1319 0.984 . S
N1313 C1306 1.356 . S
N1313 H1316 0.984 . S
N1313 H1317 0.985 . S
H1314 N1309 0.984 . S
H1315 N1309 0.985 . S
H1316 N1313 0.984 . S
H1317 N1313 0.985 . S
H1318 N1312 0.984 . S
H1319 N1312 0.984 . S
H1320 N1308 0.984 . S
H1321 N1308 0.985 . S
C1322 C1323 1.363 . S
C1322 C1328 1.379 . S
C1322 N1330 1.356 . S
C1323 C1322 1.363 . S
C1323 C1329 1.363 . S
C1324 C1325 1.363 . S
C1324 C1329 1.379 . S
C1324 N1331 1.356 . S
C1325 C1324 1.363 . S
C1325 C1328 1.363 . S
N1326 C1328 1.356 . S
N1326 H1338 0.984 . S
N1326 H1339 0.985 . S
N1327 C1329 1.356 . S
N1327 H1332 0.984 . S
N1327 H1333 0.985 . S
C1328 C1322 1.379 . S
C1328 C1325 1.363 . S
C1328 N1326 1.356 . S
C1329 C1323 1.363 . S
C1329 C1324 1.379 . S
C1329 N1327 1.356 . S
N1330 C1322 1.356 . S
N1330 H1336 0.984 . S
N1330 H1337 0.984 . S
N1331 C1324 1.356 . S
N1331 H1334 0.984 . S
N1331 H1335 0.985 . S
H1332 N1327 0.984 . S
H1333 N1327 0.985 . S
H1334 N1331 0.984 . S
H1335 N1331 0.985 . S
H1336 N1330 0.984 . S
H1337 N1330 0.984 . S
H1338 N1326 0.984 . S
H1339 N1326 0.985 . S
C1340 C1341 1.363 . S
C1340 C1346 1.379 . S
C1340 N1348 1.356 . S
C1341 C1340 1.363 . S
C1341 C1347 1.363 . S
C1342 C1343 1.363 . S
C1342 C1347 1.379 . S
C1342 N1349 1.356 . S
C1343 C1342 1.363 . S
C1343 C1346 1.363 . S
N1344 C1346 1.356 . S
N1344 H1356 0.984 . S
N1344 H1357 0.985 . S
N1345 C1347 1.356 . S
N1345 H1350 0.984 . S
N1345 H1351 0.985 . S
C1346 C1340 1.379 . S
C1346 C1343 1.363 . S
C1346 N1344 1.356 . S
C1347 C1341 1.363 . S
C1347 C1342 1.379 . S
C1347 N1345 1.356 . S
N1348 C1340 1.356 . S
N1348 H1354 0.984 . S
N1348 H1355 0.984 . S
N1349 C1342 1.356 . S
N1349 H1352 0.984 . S
N1349 H1353 0.985 . S
H1350 N1345 0.984 . S
H1351 N1345 0.985 . S
H1352 N1349 0.984 . S
H1353 N1349 0.985 . S
H1354 N1348 0.984 . S
H1355 N1348 0.984 . S
H1356 N1344 0.984 . S
H1357 N1344 0.985 . S
C1358 C1359 1.363 . S
C1358 C1364 1.379 . S
C1358 N1366 1.356 . S
C1359 C1358 1.363 . S
C1359 C1365 1.363 . S
C1360 C1361 1.363 . S
C1360 C1365 1.379 . S
C1360 N1367 1.356 . S
C1361 C1360 1.363 . S
C1361 C1364 1.363 . S
N1362 C1364 1.356 . S
N1362 H1374 0.984 . S
N1362 H1375 0.985 . S
N1363 C1365 1.356 . S
N1363 H1368 0.984 . S
N1363 H1369 0.985 . S
C1364 C1358 1.379 . S
C1364 C1361 1.363 . S
C1364 N1362 1.356 . S
C1365 C1359 1.363 . S
C1365 C1360 1.379 . S
C1365 N1363 1.356 . S
N1366 C1358 1.356 . S
N1366 H1372 0.984 . S
N1366 H1373 0.984 . S
N1367 C1360 1.356 . S
N1367 H1370 0.984 . S
N1367 H1371 0.985 . S
H1368 N1363 0.984 . S
H1369 N1363 0.985 . S
H1370 N1367 0.984 . S
H1371 N1367 0.985 . S
H1372 N1366 0.984 . S
H1373 N1366 0.984 . S
H1374 N1362 0.984 . S
H1375 N1362 0.985 . S
C1376 C1377 1.363 . S
C1376 C1382 1.379 . S
C1376 N1384 1.356 . S
C1377 C1376 1.363 . S
C1377 C1383 1.363 . S
C1378 C1379 1.363 . S
C1378 C1383 1.379 . S
C1378 N1385 1.356 . S
C1379 C1378 1.363 . S
C1379 C1382 1.363 . S
N1380 C1382 1.356 . S
N1380 H1392 0.984 . S
N1380 H1393 0.985 . S
N1381 C1383 1.356 . S
N1381 H1386 0.984 . S
N1381 H1387 0.985 . S
C1382 C1376 1.379 . S
C1382 C1379 1.363 . S
C1382 N1380 1.356 . S
C1383 C1377 1.363 . S
C1383 C1378 1.379 . S
C1383 N1381 1.356 . S
N1384 C1376 1.356 . S
N1384 H1390 0.984 . S
N1384 H1391 0.984 . S
N1385 C1378 1.356 . S
N1385 H1388 0.984 . S
N1385 H1389 0.985 . S
H1386 N1381 0.984 . S
H1387 N1381 0.985 . S
H1388 N1385 0.984 . S
H1389 N1385 0.985 . S
H1390 N1384 0.984 . S
H1391 N1384 0.984 . S
H1392 N1380 0.984 . S
H1393 N1380 0.985 . S
C1394 C1395 1.363 . S
C1394 C1400 1.379 . S
C1394 N1402 1.356 . S
C1395 C1394 1.363 . S
C1395 C1401 1.363 . S
C1396 C1397 1.363 . S
C1396 C1401 1.379 . S
C1396 N1403 1.356 . S
C1397 C1396 1.363 . S
C1397 C1400 1.363 . S
N1398 C1400 1.356 . S
N1398 H1410 0.984 . S
N1398 H1411 0.985 . S
N1399 C1401 1.356 . S
N1399 H1404 0.984 . S
N1399 H1405 0.985 . S
C1400 C1394 1.379 . S
C1400 C1397 1.363 . S
C1400 N1398 1.356 . S
C1401 C1395 1.363 . S
C1401 C1396 1.379 . S
C1401 N1399 1.356 . S
N1402 C1394 1.356 . S
N1402 H1408 0.984 . S
N1402 H1409 0.984 . S
N1403 C1396 1.356 . S
N1403 H1406 0.984 . S
N1403 H1407 0.985 . S
H1404 N1399 0.984 . S
H1405 N1399 0.985 . S
H1406 N1403 0.984 . S
H1407 N1403 0.985 . S
H1408 N1402 0.984 . S
H1409 N1402 0.984 . S
H1410 N1398 0.984 . S
H1411 N1398 0.985 . S
C1412 C1413 1.363 . S
C1412 C1418 1.379 . S
C1412 N1420 1.356 . S
C1413 C1412 1.363 . S
C1413 C1419 1.363 . S
C1414 C1415 1.363 . S
C1414 C1419 1.379 . S
C1414 N1421 1.356 . S
C1415 C1414 1.363 . S
C1415 C1418 1.363 . S
N1416 C1418 1.356 . S
N1416 H1428 0.984 . S
N1416 H1429 0.985 . S
N1417 C1419 1.356 . S
N1417 H1422 0.984 . S
N1417 H1423 0.985 . S
C1418 C1412 1.379 . S
C1418 C1415 1.363 . S
C1418 N1416 1.356 . S
C1419 C1413 1.363 . S
C1419 C1414 1.379 . S
C1419 N1417 1.356 . S
N1420 C1412 1.356 . S
N1420 H1426 0.984 . S
N1420 H1427 0.984 . S
N1421 C1414 1.356 . S
N1421 H1424 0.984 . S
N1421 H1425 0.985 . S
H1422 N1417 0.984 . S
H1423 N1417 0.985 . S
H1424 N1421 0.984 . S
H1425 N1421 0.985 . S
H1426 N1420 0.984 . S
H1427 N1420 0.984 . S
H1428 N1416 0.984 . S
H1429 N1416 0.985 . S
C1430 C1431 1.363 . S
C1430 C1436 1.379 . S
C1430 N1438 1.356 . S
C1431 C1430 1.363 . S
C1431 C1437 1.363 . S
C1432 C1433 1.363 . S
C1432 C1437 1.379 . S
C1432 N1439 1.356 . S
C1433 C1432 1.363 . S
C1433 C1436 1.363 . S
N1434 C1436 1.356 . S
N1434 H1446 0.984 . S
N1434 H1447 0.985 . S
N1435 C1437 1.356 . S
N1435 H1440 0.984 . S
N1435 H1441 0.985 . S
C1436 C1430 1.379 . S
C1436 C1433 1.363 . S
C1436 N1434 1.356 . S
C1437 C1431 1.363 . S
C1437 C1432 1.379 . S
C1437 N1435 1.356 . S
N1438 C1430 1.356 . S
N1438 H1444 0.984 . S
N1438 H1445 0.984 . S
N1439 C1432 1.356 . S
N1439 H1442 0.984 . S
N1439 H1443 0.985 . S
H1440 N1435 0.984 . S
H1441 N1435 0.985 . S
H1442 N1439 0.984 . S
H1443 N1439 0.985 . S
H1444 N1438 0.984 . S
H1445 N1438 0.984 . S
H1446 N1434 0.984 . S
H1447 N1434 0.985 . S
C1448 C1449 1.363 . S
C1448 C1454 1.379 . S
C1448 N1456 1.356 . S
C1449 C1448 1.363 . S
C1449 C1455 1.363 . S
C1450 C1451 1.363 . S
C1450 C1455 1.379 . S
C1450 N1457 1.356 . S
C1451 C1450 1.363 . S
C1451 C1454 1.363 . S
N1452 C1454 1.356 . S
N1452 H1464 0.984 . S
N1452 H1465 0.985 . S
N1453 C1455 1.356 . S
N1453 H1458 0.984 . S
N1453 H1459 0.985 . S
C1454 C1448 1.379 . S
C1454 C1451 1.363 . S
C1454 N1452 1.356 . S
C1455 C1449 1.363 . S
C1455 C1450 1.379 . S
C1455 N1453 1.356 . S
N1456 C1448 1.356 . S
N1456 H1462 0.984 . S
N1456 H1463 0.984 . S
N1457 C1450 1.356 . S
N1457 H1460 0.984 . S
N1457 H1461 0.985 . S
H1458 N1453 0.984 . S
H1459 N1453 0.985 . S
H1460 N1457 0.984 . S
H1461 N1457 0.985 . S
H1462 N1456 0.984 . S
H1463 N1456 0.984 . S
H1464 N1452 0.984 . S
H1465 N1452 0.985 . S
C1466 C1467 1.363 . S
C1466 C1472 1.379 . S
C1466 N1474 1.356 . S
C1467 C1466 1.363 . S
C1467 C1473 1.363 . S
C1468 C1469 1.363 . S
C1468 C1473 1.379 . S
C1468 N1475 1.356 . S
C1469 C1468 1.363 . S
C1469 C1472 1.363 . S
N1470 C1472 1.356 . S
N1470 H1482 0.984 . S
N1470 H1483 0.985 . S
N1471 C1473 1.356 . S
N1471 H1476 0.984 . S
N1471 H1477 0.985 . S
C1472 C1466 1.379 . S
C1472 C1469 1.363 . S
C1472 N1470 1.356 . S
C1473 C1467 1.363 . S
C1473 C1468 1.379 . S
C1473 N1471 1.356 . S
N1474 C1466 1.356 . S
N1474 H1480 0.984 . S
N1474 H1481 0.984 . S
N1475 C1468 1.356 . S
N1475 H1478 0.984 . S
N1475 H1479 0.985 . S
H1476 N1471 0.984 . S
H1477 N1471 0.985 . S
H1478 N1475 0.984 . S
H1479 N1475 0.985 . S
H1480 N1474 0.984 . S
H1481 N1474 0.984 . S
H1482 N1470 0.984 . S
H1483 N1470 0.985 . S
C1484 C1485 1.363 . S
C1484 C1490 1.379 . S
C1484 N1492 1.356 . S
C1485 C1484 1.363 . S
C1485 C1491 1.363 . S
C1486 C1487 1.363 . S
C1486 C1491 1.379 . S
C1486 N1493 1.356 . S
C1487 C1486 1.363 . S
C1487 C1490 1.363 . S
N1488 C1490 1.356 . S
N1488 H1500 0.984 . S
N1488 H1501 0.985 . S
N1489 C1491 1.356 . S
N1489 H1494 0.984 . S
N1489 H1495 0.985 . S
C1490 C1484 1.379 . S
C1490 C1487 1.363 . S
C1490 N1488 1.356 . S
C1491 C1485 1.363 . S
C1491 C1486 1.379 . S
C1491 N1489 1.356 . S
N1492 C1484 1.356 . S
N1492 H1498 0.984 . S
N1492 H1499 0.984 . S
N1493 C1486 1.356 . S
N1493 H1496 0.984 . S
N1493 H1497 0.985 . S
H1494 N1489 0.984 . S
H1495 N1489 0.985 . S
H1496 N1493 0.984 . S
H1497 N1493 0.985 . S
H1498 N1492 0.984 . S
H1499 N1492 0.984 . S
H1500 N1488 0.984 . S
H1501 N1488 0.985 . S
C1502 C1503 1.363 . S
C1502 C1508 1.379 . S
C1502 N1510 1.356 . S
C1503 C1502 1.363 . S
C1503 C1509 1.363 . S
C1504 C1505 1.363 . S
C1504 C1509 1.379 . S
C1504 N1511 1.356 . S
C1505 C1504 1.363 . S
C1505 C1508 1.363 . S
N1506 C1508 1.356 . S
N1506 H1518 0.984 . S
N1506 H1519 0.985 . S
N1507 C1509 1.356 . S
N1507 H1512 0.984 . S
N1507 H1513 0.985 . S
C1508 C1502 1.379 . S
C1508 C1505 1.363 . S
C1508 N1506 1.356 . S
C1509 C1503 1.363 . S
C1509 C1504 1.379 . S
C1509 N1507 1.356 . S
N1510 C1502 1.356 . S
N1510 H1516 0.984 . S
N1510 H1517 0.984 . S
N1511 C1504 1.356 . S
N1511 H1514 0.984 . S
N1511 H1515 0.985 . S
H1512 N1507 0.984 . S
H1513 N1507 0.985 . S
H1514 N1511 0.984 . S
H1515 N1511 0.985 . S
H1516 N1510 0.984 . S
H1517 N1510 0.984 . S
H1518 N1506 0.984 . S
H1519 N1506 0.985 . S
C945 C890 1.345 . S
C947 C5 1.360 . S
C963 C713 1.349 . S
C965 C64 1.351 . S
C981 C123 1.670 . S
C983 C772 1.600 . S
C999 C831 1.536 . S
C1001 C182 1.597 . S
C1017 C536 1.351 . S
C1019 C241 1.349 . S
C1035 C300 1.600 . S
C1037 C595 1.670 . S
C1053 C359 1.536 . S
C1055 C654 1.597 . S
C1071 C418 1.345 . S
C1073 C477 1.360 . S
C1089 C347 2.192 . S
C1091 C33 2.137 . S
C1107 C357 1.293 . S
C1109 C62 1.305 . S
C1125 C465 1.751 . S
C1127 C151 1.702 . S
C1143 C180 1.646 . S
C1145 C269 1.700 . S
C1161 C52 1.568 . S
C1163 C111 1.526 . S
C1179 C121 1.426 . S
C1181 C92 1.488 . S
C1197 C170 1.405 . S
C1199 C229 1.400 . S
C1215 C3 1.438 . S
C1217 C210 1.408 . S
C1233 C446 1.331 . S
C1235 C288 1.300 . S
C1251 C239 1.749 . S
C1253 C298 1.751 . S
C1269 C328 1.480 . S
C1271 C387 1.443 . S
C1287 C416 1.932 . S
C1289 C406 1.962 . S
C1305 C819 2.192 . S
C1307 C505 2.137 . S
C1323 C534 1.305 . S
C1325 C829 1.293 . S
C1341 C937 1.751 . S
C1343 C623 1.702 . S
C1359 C741 1.700 . S
C1361 C652 1.646 . S
C1377 C524 1.568 . S
C1379 C583 1.526 . S
C1395 C564 1.488 . S
C1397 C593 1.426 . S
C1413 C701 1.400 . S
C1415 C642 1.405 . S
C1431 C475 1.438 . S
C1433 C682 1.408 . S
C1449 C918 1.331 . S
C1451 C760 1.300 . S
C1467 C711 1.749 . S
C1469 C770 1.751 . S
C1485 C800 1.480 . S
C1487 C859 1.443 . S
C1503 C888 1.932 . S
C1505 C878 1.962 . S
