# Generated by pormake.
# Topology smu, (6)-cn, num edge types: 1
# Building blocks:
#     Node 0, Type 0, BuildingBlock: MIFKUJ_clean_sbu_0, # of connection points: 6
#     Node 1, Type 0, BuildingBlock: MIFKUJ_clean_sbu_0, # of connection points: 6
#     Node 2, Type 0, BuildingBlock: MIFKUJ_clean_sbu_0, # of connection points: 6
#     Node 3, Type 0, BuildingBlock: MIFKUJ_clean_sbu_0, # of connection points: 6
#     Node 4, Type 0, BuildingBlock: MIFKUJ_clean_sbu_0, # of connection points: 6
#     Node 5, Type 0, BuildingBlock: MIFKUJ_clean_sbu_0, # of connection points: 6
#     Edge 6, Type (0, 0), BuildingBlock: XIVTED_clean_linker_0, # of connection points: 2
#     Edge 7, Type (0, 0), BuildingBlock: XIVTED_clean_linker_0, # of connection points: 2
#     Edge 8, Type (0, 0), BuildingBlock: XIVTED_clean_linker_0, # of connection points: 2
#     Edge 9, Type (0, 0), BuildingBlock: XIVTED_clean_linker_0, # of connection points: 2
#     Edge 10, Type (0, 0), BuildingBlock: XIVTED_clean_linker_0, # of connection points: 2
#     Edge 11, Type (0, 0), BuildingBlock: XIVTED_clean_linker_0, # of connection points: 2
#     Edge 12, Type (0, 0), BuildingBlock: XIVTED_clean_linker_0, # of connection points: 2
#     Edge 13, Type (0, 0), BuildingBlock: XIVTED_clean_linker_0, # of connection points: 2
#     Edge 14, Type (0, 0), BuildingBlock: XIVTED_clean_linker_0, # of connection points: 2
#     Edge 15, Type (0, 0), BuildingBlock: XIVTED_clean_linker_0, # of connection points: 2
#     Edge 16, Type (0, 0), BuildingBlock: XIVTED_clean_linker_0, # of connection points: 2
#     Edge 17, Type (0, 0), BuildingBlock: XIVTED_clean_linker_0, # of connection points: 2
#     Edge 18, Type (0, 0), BuildingBlock: XIVTED_clean_linker_0, # of connection points: 2
#     Edge 19, Type (0, 0), BuildingBlock: XIVTED_clean_linker_0, # of connection points: 2
#     Edge 20, Type (0, 0), BuildingBlock: XIVTED_clean_linker_0, # of connection points: 2
#     Edge 21, Type (0, 0), BuildingBlock: XIVTED_clean_linker_0, # of connection points: 2
#     Edge 22, Type (0, 0), BuildingBlock: XIVTED_clean_linker_0, # of connection points: 2
#     Edge 23, Type (0, 0), BuildingBlock: XIVTED_clean_linker_0, # of connection points: 2
# Relax obj value: 0.232
# Max RMSD: 0.294
# Mean RMSD: 0.294
data_MOF--net-smu--node1-MIFKUJ_clean_sbu_0--edge1-XIVTED_clean_linker_0
_symmetry_space_group_name_H-M    P1
_symmetry_Int_Tables_number       1
_symmetry_cell_setting            triclinic
loop_
_symmetry_equiv_pos_as_xyz
'x, y, z'
_cell_length_a     33.876073
_cell_length_b     34.149943
_cell_length_c     27.63892
_cell_angle_alpha  90.525061
_cell_angle_beta   90.044625
_cell_angle_gamma 120.34715
loop_
_atom_site_label
_atom_site_type_symbol
_atom_site_fract_x
_atom_site_fract_y
_atom_site_fract_z
_atom_type_partial_charge
Zn0 Zn 0.24984 0.03876 0.23278 0.0
Zn1 Zn 0.38805 0.10432 0.22939 0.0
C2 C 0.20653 0.08289 0.26778 0.0
O3 O 0.2036 0.05649 0.30356 0.0
C4 C 0.47235 0.10875 0.19928 0.0
O5 O 0.45901 0.11295 0.15596 0.0
O6 O 0.19024 0.97903 0.23308 0.0
O7 O 0.28205 0.03688 0.1733 0.0
O8 O 0.35763 0.06983 0.16798 0.0
C9 C 0.16202 0.97109 0.19879 0.0
O10 O 0.17373 0.00094 0.16408 0.0
O11 O 0.22956 0.08476 0.23066 0.0
C12 C 0.42588 0.19592 0.2606 0.0
O13 O 0.42788 0.17734 0.30126 0.0
O14 O 0.4074 0.17054 0.22369 0.0
O15 O 0.35632 0.07942 0.29269 0.0
O16 O 0.28042 0.04322 0.29576 0.0
O17 O 0.44721 0.10402 0.23545 0.0
C18 C 0.31783 0.04612 0.14974 0.0
C19 C 0.31914 0.05846 0.31604 0.0
Zn20 Zn 0.74504 0.7384 0.25933 0.0
Zn21 Zn 0.71501 0.61771 0.2638 0.0
C22 C 0.83415 0.74504 0.25099 0.0
O23 O 0.82175 0.7207 0.29049 0.0
C24 C 0.64435 0.5288 0.23384 0.0
O25 O 0.66474 0.54339 0.19201 0.0
O26 O 0.74323 0.79618 0.26021 0.0
O27 O 0.691 0.69592 0.21918 0.0
O28 O 0.70648 0.64203 0.2009 0.0
C29 C 0.74784 0.81758 0.22133 0.0
O30 O 0.75546 0.80226 0.18072 0.0
O31 O 0.80595 0.75377 0.23032 0.0
C32 C 0.77389 0.58742 0.2922 0.0
O33 O 0.74926 0.58005 0.33139 0.0
O34 O 0.76709 0.60645 0.2565 0.0
O35 O 0.72293 0.64961 0.32798 0.0
O36 O 0.74164 0.72185 0.32787 0.0
O37 O 0.65936 0.55517 0.27053 0.0
C38 C 0.69159 0.66807 0.18907 0.0
C39 C 0.7328 0.68617 0.35026 0.0
Zn40 Zn 0.91616 0.21106 0.22311 0.0
Zn41 Zn 0.88834 0.2969 0.22456 0.0
C42 C 0.82913 0.13423 0.24669 0.0
O43 O 0.84032 0.1519 0.29046 0.0
C44 C 0.8983 0.38644 0.21706 0.0
O45 O 0.93548 0.39722 0.19236 0.0
O46 O 0.95971 0.18747 0.22381 0.0
O47 O 0.93967 0.25317 0.16742 0.0
O48 O 0.92844 0.31152 0.16643 0.0
C49 C 0.96422 0.16805 0.26062 0.0
O50 O 0.9378 0.16074 0.29825 0.0
O51 O 0.85426 0.15651 0.21144 0.0
C52 C 0.80099 0.22283 0.25036 0.0
O53 O 0.81588 0.2404 0.29365 0.0
O54 O 0.8278 0.2395 0.21459 0.0
O55 O 0.91726 0.29939 0.28858 0.0
O56 O 0.92483 0.23874 0.28895 0.0
O57 O 0.87338 0.34614 0.23195 0.0
C58 C 0.94498 0.2889 0.14774 0.0
C59 C 0.92682 0.27268 0.31036 0.0
Zn60 Zn 0.10758 0.39844 0.7255 0.0
Zn61 Zn 0.07128 0.28232 0.7281 0.0
C62 C 0.18796 0.40686 0.76489 0.0
O63 O 0.17072 0.4164 0.80269 0.0
C64 C 0.00669 0.1878 0.70279 0.0
O65 O 0.02019 0.20088 0.6583 0.0
O66 O 0.12734 0.46464 0.72807 0.0
O67 O 0.06941 0.37262 0.66604 0.0
O68 O 0.04779 0.29978 0.67024 0.0
C69 C 0.13448 0.48966 0.69156 0.0
O70 O 0.12973 0.47238 0.64783 0.0
O71 O 0.16521 0.39506 0.72551 0.0
C72 C 0.14837 0.27059 0.74433 0.0
O73 O 0.13442 0.26635 0.78933 0.0
O74 O 0.12929 0.28223 0.7125 0.0
O75 O 0.06922 0.30819 0.79307 0.0
O76 O 0.07365 0.37499 0.7871 0.0
O77 O 0.02436 0.21638 0.73734 0.0
C78 C 0.04773 0.33254 0.6489 0.0
C79 C 0.06615 0.34072 0.81162 0.0
Zn80 Zn 0.32668 0.9139 0.72587 0.0
Zn81 Zn 0.24096 0.96546 0.70896 0.0
C82 C 0.2629 0.82214 0.74416 0.0
O83 O 0.27586 0.83758 0.78852 0.0
C84 C 0.23157 0.04016 0.67118 0.0
O85 O 0.20194 0.00912 0.64118 0.0
O86 O 0.37987 0.90812 0.74927 0.0
O87 O 0.34602 0.94948 0.66338 0.0
O88 O 0.28881 0.9555 0.68494 0.0
C89 C 0.39879 0.89727 0.71622 0.0
O90 O 0.38434 0.89377 0.6714 0.0
O91 O 0.27866 0.84984 0.70935 0.0
C92 C 0.1505 0.88472 0.71168 0.0
O93 O 0.16707 0.87503 0.74977 0.0
O94 O 0.17659 0.91998 0.68751 0.0
O95 O 0.2497 0.95994 0.77913 0.0
O96 O 0.30149 0.93716 0.78103 0.0
O97 O 0.25339 0.02954 0.70065 0.0
C98 C 0.3189 0.96344 0.65378 0.0
C99 C 0.27726 0.95141 0.80207 0.0
Zn100 Zn 0.60055 0.676 0.75745 0.0
Zn101 Zn 0.74068 0.76919 0.75173 0.0
C102 C 0.57045 0.73797 0.78383 0.0
O103 O 0.57256 0.72416 0.82747 0.0
C104 C 0.82212 0.78805 0.70085 0.0
O105 O 0.81344 0.81699 0.67924 0.0
O106 O 0.54349 0.61748 0.77576 0.0
O107 O 0.62345 0.66656 0.69353 0.0
O108 O 0.68243 0.72537 0.72255 0.0
C109 C 0.52149 0.58783 0.74299 0.0
O110 O 0.53806 0.59474 0.69897 0.0
O111 O 0.58144 0.72224 0.74774 0.0
C112 C 0.78396 0.86257 0.77514 0.0
O113 O 0.79187 0.84673 0.81486 0.0
O114 O 0.75896 0.83469 0.74228 0.0
O115 O 0.7244 0.7509 0.82087 0.0
O116 O 0.64952 0.70032 0.81195 0.0
O117 O 0.79427 0.76166 0.73243 0.0
C118 C 0.66491 0.69651 0.68882 0.0
C119 C 0.68578 0.72098 0.83803 0.0
H120 H 0.21551 0.9548 0.86229 0.0
H121 H 0.38383 0.04929 0.08915 0.0
H122 H 0.34802 0.96535 0.8619 0.0
H123 H 0.23925 0.00238 0.09623 0.0
H124 H 0.37313 0.02103 0.00556 0.0
H125 H 0.22497 0.97402 0.94809 0.0
C126 C 0.24654 0.96093 0.88038 0.0
C127 C 0.28117 0.95877 0.8549 0.0
C128 C 0.3438 0.01674 0.02567 0.0
C129 C 0.29242 0.98123 0.9532 0.0
C130 C 0.34989 0.03303 0.07325 0.0
C131 C 0.31243 0.02849 0.09969 0.0
C132 C 0.30009 0.99622 0.0044 0.0
C133 C 0.26919 0.00685 0.07732 0.0
C134 C 0.25188 0.9718 0.92944 0.0
C135 C 0.32048 0.96664 0.88028 0.0
N136 N 0.26431 0.99182 0.03095 0.0
N137 N 0.32531 0.97806 0.92807 0.0
H138 H 0.73256 0.76856 0.64218 0.0
H139 H 0.70787 0.61549 0.41251 0.0
H140 H 0.65399 0.62247 0.63972 0.0
H141 H 0.76383 0.76059 0.4094 0.0
H142 H 0.70627 0.6186 0.5008 0.0
H143 H 0.764 0.76698 0.5629 0.0
C144 C 0.7234 0.73619 0.62563 0.0
C145 C 0.69099 0.69568 0.6471 0.0
C146 C 0.71936 0.64978 0.48071 0.0
C147 C 0.72487 0.69337 0.55626 0.0
C148 C 0.72013 0.64802 0.43036 0.0
C149 C 0.73492 0.68767 0.40354 0.0
C150 C 0.7335 0.69146 0.50426 0.0
C151 C 0.75115 0.729 0.42857 0.0
C152 C 0.74073 0.73522 0.58021 0.0
C153 C 0.67873 0.65445 0.62383 0.0
N154 N 0.74952 0.72974 0.47754 0.0
N155 N 0.69527 0.65434 0.57924 0.0
H156 H 0.99352 0.25456 0.10497 0.0
H157 H 0.04274 0.39588 0.86163 0.0
H158 H 0.95276 0.35453 0.08483 0.0
H159 H 0.05992 0.2797 0.87855 0.0
H160 H 0.01866 0.38859 0.94621 0.0
H161 H 0.02799 0.27171 0.02538 0.0
C162 C 0.99196 0.28034 0.08388 0.0
C163 C 0.96963 0.30273 0.10137 0.0
C164 C 0.02788 0.36487 0.93132 0.0
C165 C 0.00904 0.32239 0.0097 0.0
C166 C 0.04164 0.36899 0.88312 0.0
C167 C 0.05298 0.33809 0.86287 0.0
C168 C 0.02583 0.32986 0.95938 0.0
C169 C 0.05109 0.30403 0.89242 0.0
C170 C 0.01168 0.29008 0.03831 0.0
C171 C 0.96937 0.33625 0.07259 0.0
N172 N 0.03769 0.30082 0.93909 0.0
N173 N 0.98848 0.34485 0.02784 0.0
H174 H 0.24854 0.02651 0.3804 0.0
H175 H 0.39279 0.00518 0.5946 0.0
H176 H 0.39343 0.0754 0.37138 0.0
H177 H 0.25376 0.97557 0.61036 0.0
H178 H 0.39539 0.03622 0.51469 0.0
H179 H 0.25103 0.01217 0.4662 0.0
C180 C 0.28094 0.03434 0.39646 0.0
C181 C 0.32076 0.05165 0.36848 0.0
C182 C 0.36451 0.02361 0.53588 0.0
C183 C 0.32377 0.0353 0.4668 0.0
C184 C 0.36303 0.00589 0.58145 0.0
C185 C 0.32295 0.98788 0.60892 0.0
C186 C 0.32538 0.02261 0.51744 0.0
C187 C 0.28541 0.98965 0.59041 0.0
C188 C 0.28235 0.02635 0.44556 0.0
C189 C 0.36183 0.06169 0.39145 0.0
N190 N 0.28732 0.0062 0.54546 0.0
N191 N 0.36218 0.05294 0.43921 0.0
H192 H 0.73094 0.78099 0.9112 0.0
H193 H 0.67829 0.60805 0.11561 0.0
H194 H 0.63249 0.64007 0.88237 0.0
H195 H 0.67918 0.7328 0.14608 0.0
H196 H 0.67085 0.61865 0.02912 0.0
H197 H 0.72436 0.76487 -0.00198 0.0
C198 C 0.7081 0.74668 0.92325 0.0
C199 C 0.68225 0.71171 0.88999 0.0
C200 C 0.6722 0.64328 0.05506 0.0
C201 C 0.67512 0.69317 -0.01174 0.0
C202 C 0.67653 0.6374 0.10424 0.0
C203 C 0.6803 0.67011 0.138 0.0
C204 C 0.67284 0.6826 0.03982 0.0
C205 C 0.67734 0.70724 0.12129 0.0
C206 C 0.70411 0.73764 0.97254 0.0
C207 C 0.65283 0.66786 0.90719 0.0
N208 N 0.67478 0.71303 0.07318 0.0
N209 N 0.65051 0.65957 0.95537 0.0
H210 H 0.93215 0.2142 0.37279 0.0
H211 H 0.04363 0.39402 0.58863 0.0
H212 H 0.95213 0.34932 0.36532 0.0
H213 H 0.99797 0.25138 0.60135 0.0
H214 H 0.00993 0.3792 0.50742 0.0
H215 H 0.95665 0.22817 0.45694 0.0
C216 C 0.94175 0.24689 0.38884 0.0
C217 C 0.94047 0.2808 0.36182 0.0
C218 C 0.00704 0.35116 0.52824 0.0
C219 C 0.96854 0.29702 0.45852 0.0
C220 C 0.02625 0.35957 0.57459 0.0
C221 C 0.02411 0.32396 0.60169 0.0
C222 C 0.98585 0.30694 0.5089 0.0
C223 C 0.00097 0.28 0.5817 0.0
C224 C 0.95552 0.25477 0.43706 0.0
C225 C 0.95275 0.32229 0.38481 0.0
N226 N 0.98311 0.27283 0.53642 0.0
N227 N 0.96664 0.32939 0.43185 0.0
H228 H 0.51204 0.10557 0.28446 0.0
H229 H 0.75574 0.18995 0.16383 0.0
H230 H 0.5366 0.1228 0.13076 0.0
H231 H 0.73319 0.18456 0.31794 0.0
H232 H 0.67308 0.15131 0.1506 0.0
H233 H 0.59011 0.12121 0.29658 0.0
C234 C 0.53368 0.11222 0.25317 0.0
C235 C 0.5179 0.1135 0.20656 0.0
C236 C 0.68619 0.15804 0.18733 0.0
C237 C 0.6075 0.13156 0.22026 0.0
C238 C 0.73342 0.17995 0.19494 0.0
C239 C 0.7515 0.19137 0.24207 0.0
C240 C 0.65685 0.1475 0.22711 0.0
C241 C 0.72085 0.17711 0.28095 0.0
C242 C 0.5783 0.12114 0.26014 0.0
C243 C 0.54743 0.12194 0.16739 0.0
N244 N 0.67508 0.15649 0.27258 0.0
N245 N 0.59093 0.13108 0.17518 0.0
H246 H 0.60233 0.48318 0.31675 0.0
H247 H 0.44357 0.24672 0.17851 0.0
H248 H 0.59987 0.4662 0.1616 0.0
H249 H 0.46441 0.2593 0.33327 0.0
H250 H 0.49177 0.32913 0.17202 0.0
H251 H 0.54325 0.40321 0.32363 0.0
C252 C 0.58914 0.46276 0.2841 0.0
C253 C 0.60636 0.48137 0.23855 0.0
C254 C 0.48549 0.31386 0.20743 0.0
C255 C 0.5387 0.3898 0.24618 0.0
C256 C 0.45778 0.26681 0.2112 0.0
C257 C 0.45023 0.24598 0.25648 0.0
C258 C 0.50564 0.34033 0.24925 0.0
C259 C 0.46958 0.27382 0.29757 0.0
C260 C 0.55546 0.41707 0.28807 0.0
C261 C 0.58789 0.45326 0.1975 0.0
N262 N 0.49658 0.31949 0.29295 0.0
N263 N 0.55522 0.40889 0.2023 0.0
H264 H 0.92986 0.47028 0.17689 0.0
H265 H 0.78377 0.53226 0.35569 0.0
H266 H 0.84029 0.38175 0.28772 0.0
H267 H 0.8292 0.59484 0.21611 0.0
H268 H 0.82109 0.48826 0.34059 0.0
H269 H 0.90782 0.52638 0.19942 0.0
C270 C 0.90577 0.46276 0.20602 0.0
C271 C 0.88647 0.42117 0.23014 0.0
C272 C 0.82326 0.51197 0.31348 0.0
C273 C 0.86196 0.48509 0.25644 0.0
C274 C 0.80216 0.53728 0.32215 0.0
C275 C 0.80272 0.56669 0.28673 0.0
C276 C 0.84529 0.51626 0.26923 0.0
C277 C 0.82744 0.57206 0.24411 0.0
C278 C 0.89328 0.4947 0.21881 0.0
C279 C 0.85558 0.41313 0.26774 0.0
N280 N 0.84746 0.5467 0.2363 0.0
N281 N 0.84432 0.44481 0.27974 0.0
H282 H 0.14275 0.53404 0.77703 0.0
H283 H 0.2397 0.77748 0.65644 0.0
H284 H 0.15728 0.55517 0.62275 0.0
H285 H 0.22524 0.7541 0.81035 0.0
H286 H 0.20337 0.69559 0.6425 0.0
H287 H 0.16746 0.61391 0.78902 0.0
C288 C 0.15107 0.55546 0.74559 0.0
C289 C 0.14824 0.53789 0.69879 0.0
C290 C 0.20781 0.70838 0.67929 0.0
C291 C 0.17666 0.62972 0.71235 0.0
C292 C 0.22841 0.75512 0.68729 0.0
C293 C 0.23592 0.77271 0.73468 0.0
C294 C 0.19468 0.67907 0.71896 0.0
C295 C 0.2205 0.74213 0.77322 0.0
C296 C 0.16511 0.60114 0.75249 0.0
C297 C 0.15917 0.5673 0.65948 0.0
N298 N 0.20095 0.69689 0.76451 0.0
N299 N 0.17315 0.61187 0.66716 0.0
H300 H 0.45141 0.88197 0.6532 0.0
H301 H 0.53726 0.77279 0.85187 0.0
H302 H 0.42268 0.88047 0.80552 0.0
H303 H 0.56268 0.7738 0.6987 0.0
H304 H 0.50229 0.81922 0.83739 0.0
H305 H 0.49976 0.85008 0.67105 0.0
C306 C 0.45561 0.87532 0.69054 0.0
C307 C 0.43258 0.88347 0.72789 0.0
C308 C 0.51585 0.80956 0.80703 0.0
C309 C 0.48772 0.84642 0.74861 0.0
C310 C 0.53583 0.78305 0.81525 0.0
C311 C 0.55251 0.76898 0.77636 0.0
C312 C 0.51254 0.82207 0.75959 0.0
C313 C 0.54993 0.78349 0.72974 0.0
C314 C 0.48325 0.85703 0.70071 0.0
C315 C 0.43968 0.87455 0.7756 0.0
N316 N 0.53005 0.80895 0.72266 0.0
N317 N 0.46627 0.85601 0.78457 0.0
H318 H 0.23869 0.40068 0.69087 0.0
H319 H 0.47238 0.5664 0.82735 0.0
H320 H 0.24768 0.43992 0.84122 0.0
H321 H 0.46395 0.5222 0.67891 0.0
H322 H 0.39136 0.51027 0.83708 0.0
H323 H 0.32174 0.43417 0.68974 0.0
C324 C 0.25801 0.41565 0.72386 0.0
C325 C 0.23632 0.41842 0.76589 0.0
C326 C 0.40739 0.51242 0.80256 0.0
C327 C 0.33138 0.45722 0.76475 0.0
C328 C 0.45369 0.54447 0.79701 0.0
C329 C 0.47481 0.54957 0.75201 0.0
C330 C 0.38197 0.48553 0.76272 0.0
C331 C 0.44897 0.51993 0.71409 0.0
C332 C 0.30548 0.43486 0.72319 0.0
C333 C 0.26303 0.43771 0.80773 0.0
N334 N 0.40379 0.48966 0.7201 0.0
N335 N 0.30921 0.45703 0.80588 0.0
H336 H 0.1898 0.12555 0.19337 0.0
H337 H 0.98767 0.13231 0.33596 0.0
H338 H 0.15513 0.0855 0.34213 0.0
H339 H 0.02511 0.17899 0.18937 0.0
H340 H 0.05037 0.1167 0.33907 0.0
H341 H 0.13235 0.14892 0.19191 0.0
C342 C 0.1706 0.12227 0.2259 0.0
C343 C 0.17706 0.10326 0.26783 0.0
C344 C 0.04494 0.13041 0.30621 0.0
C345 C 0.11095 0.1293 0.26622 0.0
C346 C 0.00897 0.13914 0.30435 0.0
C347 C 0.00102 0.15686 0.2623 0.0
C348 C 0.07317 0.13932 0.26569 0.0
C349 C 0.02992 0.16523 0.22252 0.0
C350 C 0.13763 0.13537 0.22497 0.0
C351 C 0.15111 0.09968 0.30888 0.0
N352 N 0.06468 0.15632 0.22517 0.0
N353 N 0.11902 0.11223 0.30692 0.0
H354 H 0.90647 0.74447 0.29486 0.0
H355 H 0.09232 0.94748 0.13392 0.0
H356 H 0.8728 0.80103 0.17339 0.0
H357 H 0.1247 0.90381 0.26668 0.0
H358 H 0.01324 0.88572 0.14047 0.0
H359 H 0.98763 0.79372 0.2771 0.0
C360 C 0.91605 0.76673 0.26401 0.0
C361 C 0.88271 0.76901 0.23595 0.0
C362 C 0.0377 0.8894 0.16798 0.0
C363 C 0.97566 0.82572 0.21566 0.0
C364 C 0.08294 0.92467 0.16426 0.0
C365 C 0.11516 0.93117 0.20009 0.0
C366 C 0.02445 0.86029 0.20782 0.0
C367 C 0.10097 0.90032 0.23841 0.0
C368 C 0.96246 0.79499 0.25403 0.0
C369 C 0.89727 0.7984 0.1963 0.0
N370 N 0.0566 0.86642 0.24144 0.0
N371 N 0.94263 0.82588 0.18763 0.0
H372 H 0.78163 0.0714 0.31654 0.0
H373 H 0.75617 0.87177 0.145 0.0
H374 H 0.80523 0.08431 0.16251 0.0
H375 H 0.73554 0.86001 0.29952 0.0
H376 H 0.75983 0.94501 0.14834 0.0
H377 H 0.74826 0.98945 0.30819 0.0
C378 C 0.77883 0.05696 0.28078 0.0
C379 C 0.79744 0.08492 0.24036 0.0
C380 C 0.754 0.92619 0.18145 0.0
C381 C 0.76 0.99123 0.23069 0.0
C382 C 0.75209 0.88442 0.1796 0.0
C383 C 0.74639 0.86011 0.22218 0.0
C384 C 0.75043 0.94391 0.22626 0.0
C385 C 0.74066 0.87789 0.26587 0.0
C386 C 0.76 0.01012 0.27607 0.0
C387 C 0.79223 0.06417 0.19485 0.0
N388 N 0.74336 0.91895 0.26686 0.0
N389 N 0.77484 0.01866 0.19138 0.0
H390 H 0.16296 0.25026 0.65224 0.0
H391 H 0.27102 0.10319 0.74436 0.0
H392 H 0.19713 0.24466 0.80154 0.0
H393 H 0.1965 0.07785 0.60999 0.0
H394 H 0.26336 0.16987 0.75842 0.0
H395 H 0.19508 0.20274 0.62969 0.0
C396 C 0.17813 0.23994 0.6802 0.0
C397 C 0.17665 0.25088 0.72905 0.0
C398 C 0.24928 0.15005 0.72555 0.0
C399 C 0.21328 0.19629 0.70333 0.0
C400 C 0.25376 0.11206 0.71736 0.0
C401 C 0.23377 0.08446 0.67622 0.0
C402 C 0.22502 0.16081 0.69218 0.0
C403 C 0.21192 0.09778 0.64248 0.0
C404 C 0.19621 0.21255 0.66727 0.0
C405 C 0.19699 0.23657 0.76356 0.0
N406 N 0.20781 0.13479 0.6514 0.0
N407 N 0.21402 0.20959 0.75012 0.0
H408 H 0.08292 0.81363 0.76217 0.0
H409 H 0.88479 0.83455 0.63069 0.0
H410 H 0.10414 0.89889 0.63908 0.0
H411 H 0.86184 0.74935 0.75422 0.0
H412 H 0.96299 0.8493 0.62593 0.0
H413 H 0.00033 0.78084 0.75259 0.0
C414 C 0.07025 0.82501 0.73269 0.0
C415 C 0.10061 0.85956 0.70179 0.0
C416 C 0.94078 0.82695 0.65378 0.0
C417 C 0.00604 0.82233 0.69085 0.0
C418 C 0.89603 0.81847 0.65651 0.0
C419 C 0.86688 0.79117 0.69334 0.0
C420 C 0.95679 0.80831 0.68838 0.0
C421 C 0.88322 0.77086 0.72543 0.0
C422 C 0.02304 0.80631 0.72731 0.0
C423 C 0.08213 0.8727 0.66408 0.0
N424 N 0.9273 0.78034 0.72261 0.0
N425 N 0.03613 0.85446 0.66004 0.0
H426 H 0.9553 0.11965 0.63749 0.0
H427 H 0.83245 0.93115 0.84022 0.0
H428 H 0.97577 0.14816 0.79089 0.0
H429 H 0.79578 0.90622 0.68884 0.0
H430 H 0.88362 0.01125 0.82282 0.0
H431 H 0.89624 0.04159 0.65523 0.0
C432 C 0.9474 0.10953 0.67489 0.0
C433 C 0.97071 0.14048 0.71275 0.0
C434 C 0.86407 0.9884 0.79343 0.0
C435 C 0.90308 0.05121 0.7333 0.0
C436 C 0.83476 0.94263 0.80337 0.0
C437 C 0.80995 0.91189 0.7659 0.0
C438 C 0.86907 0.00359 0.74555 0.0
C439 C 0.81423 0.92874 0.71886 0.0
C440 C 0.91353 0.065 0.68499 0.0
C441 C 0.95882 0.12549 0.76051 0.0
N442 N 0.84362 0.97339 0.70993 0.0
N443 N 0.92603 0.08192 0.76939 0.0
loop_
_geom_bond_atom_site_label_1
_geom_bond_atom_site_label_2
_geom_bond_distance
_geom_bond_site_symmetry_2
_ccdc_geom_bond_type
Zn0 O6 1.969 1_545 S
Zn0 O7 1.965 . S
Zn0 O11 2.024 . S
Zn0 O16 1.969 . S
Zn1 O8 1.969 . S
Zn1 O14 1.969 . S
Zn1 O15 1.965 . S
Zn1 O17 2.024 . S
C2 O3 1.229 . S
C2 O11 1.058 . S
O3 C2 1.229 . S
C4 O5 1.229 . S
C4 O17 1.058 . S
O5 C4 1.229 . S
O6 Zn0 1.969 1_565 S
O6 C9 1.267 . S
O7 Zn0 1.965 . S
O7 C18 1.260 . S
O8 Zn1 1.969 . S
O8 C18 1.258 . S
C9 O6 1.267 . S
C9 O10 1.228 . S
O10 C9 1.228 . S
O11 Zn0 2.024 . S
O11 C2 1.058 . S
C12 O13 1.228 . S
C12 O14 1.267 . S
O13 C12 1.228 . S
O14 Zn1 1.969 . S
O14 C12 1.267 . S
O15 Zn1 1.965 . S
O15 C19 1.260 . S
O16 Zn0 1.969 . S
O16 C19 1.258 . S
O17 Zn1 2.024 . S
O17 C4 1.058 . S
C18 O7 1.260 . S
C18 O8 1.258 . S
C19 O15 1.260 . S
C19 O16 1.258 . S
Zn20 O26 1.969 . S
Zn20 O27 1.965 . S
Zn20 O31 2.024 . S
Zn20 O36 1.969 . S
Zn21 O28 1.969 . S
Zn21 O34 1.969 . S
Zn21 O35 1.965 . S
Zn21 O37 2.024 . S
C22 O23 1.229 . S
C22 O31 1.058 . S
O23 C22 1.229 . S
C24 O25 1.229 . S
C24 O37 1.058 . S
O25 C24 1.229 . S
O26 Zn20 1.969 . S
O26 C29 1.267 . S
O27 Zn20 1.965 . S
O27 C38 1.260 . S
O28 Zn21 1.969 . S
O28 C38 1.258 . S
C29 O26 1.267 . S
C29 O30 1.228 . S
O30 C29 1.228 . S
O31 Zn20 2.024 . S
O31 C22 1.058 . S
C32 O33 1.228 . S
C32 O34 1.267 . S
O33 C32 1.228 . S
O34 Zn21 1.969 . S
O34 C32 1.267 . S
O35 Zn21 1.965 . S
O35 C39 1.260 . S
O36 Zn20 1.969 . S
O36 C39 1.258 . S
O37 Zn21 2.024 . S
O37 C24 1.058 . S
C38 O27 1.260 . S
C38 O28 1.258 . S
C39 O35 1.260 . S
C39 O36 1.258 . S
Zn40 O46 1.969 1_655 S
Zn40 O47 1.965 . S
Zn40 O51 2.024 . S
Zn40 O56 1.969 . S
Zn41 O48 1.969 . S
Zn41 O54 1.969 . S
Zn41 O55 1.965 . S
Zn41 O57 2.024 . S
C42 O43 1.229 . S
C42 O51 1.058 . S
O43 C42 1.229 . S
C44 O45 1.229 . S
C44 O57 1.058 . S
O45 C44 1.229 . S
O46 Zn40 1.969 1_455 S
O46 C49 1.267 . S
O47 Zn40 1.965 . S
O47 C58 1.260 . S
O48 Zn41 1.969 . S
O48 C58 1.258 . S
C49 O46 1.267 . S
C49 O50 1.228 . S
O50 C49 1.228 . S
O51 Zn40 2.024 . S
O51 C42 1.058 . S
C52 O53 1.228 . S
C52 O54 1.267 . S
O53 C52 1.228 . S
O54 Zn41 1.969 . S
O54 C52 1.267 . S
O55 Zn41 1.965 . S
O55 C59 1.260 . S
O56 Zn40 1.969 . S
O56 C59 1.258 . S
O57 Zn41 2.024 . S
O57 C44 1.058 . S
C58 O47 1.260 . S
C58 O48 1.258 . S
C59 O55 1.260 . S
C59 O56 1.258 . S
Zn60 O66 1.969 . S
Zn60 O67 1.965 . S
Zn60 O71 2.024 . S
Zn60 O76 1.969 . S
Zn61 O68 1.969 . S
Zn61 O74 1.969 . S
Zn61 O75 1.965 . S
Zn61 O77 2.024 . S
C62 O63 1.229 . S
C62 O71 1.058 . S
O63 C62 1.229 . S
C64 O65 1.229 1_655 S
C64 O77 1.058 1_655 S
O65 C64 1.229 1_455 S
O66 Zn60 1.969 . S
O66 C69 1.267 . S
O67 Zn60 1.965 . S
O67 C78 1.260 . S
O68 Zn61 1.969 . S
O68 C78 1.258 . S
C69 O66 1.267 . S
C69 O70 1.228 . S
O70 C69 1.228 . S
O71 Zn60 2.024 . S
O71 C62 1.058 . S
C72 O73 1.228 . S
C72 O74 1.267 . S
O73 C72 1.228 . S
O74 Zn61 1.969 . S
O74 C72 1.267 . S
O75 Zn61 1.965 . S
O75 C79 1.260 . S
O76 Zn60 1.969 . S
O76 C79 1.258 . S
O77 Zn61 2.024 . S
O77 C64 1.058 1_455 S
C78 O67 1.260 . S
C78 O68 1.258 . S
C79 O75 1.260 . S
C79 O76 1.258 . S
Zn80 O86 1.969 . S
Zn80 O87 1.965 . S
Zn80 O91 2.024 . S
Zn80 O96 1.969 . S
Zn81 O88 1.969 . S
Zn81 O94 1.969 . S
Zn81 O95 1.965 . S
Zn81 O97 2.024 . S
C82 O83 1.229 . S
C82 O91 1.058 . S
O83 C82 1.229 . S
C84 O85 1.229 1_545 S
C84 O97 1.058 1_545 S
O85 C84 1.229 1_565 S
O86 Zn80 1.969 . S
O86 C89 1.267 . S
O87 Zn80 1.965 . S
O87 C98 1.260 . S
O88 Zn81 1.969 . S
O88 C98 1.258 . S
C89 O86 1.267 . S
C89 O90 1.228 . S
O90 C89 1.228 . S
O91 Zn80 2.024 . S
O91 C82 1.058 . S
C92 O93 1.228 . S
C92 O94 1.267 . S
O93 C92 1.228 . S
O94 Zn81 1.969 . S
O94 C92 1.267 . S
O95 Zn81 1.965 . S
O95 C99 1.260 . S
O96 Zn80 1.969 . S
O96 C99 1.258 . S
O97 Zn81 2.024 . S
O97 C84 1.058 1_565 S
C98 O87 1.260 . S
C98 O88 1.258 . S
C99 O95 1.260 . S
C99 O96 1.258 . S
Zn100 O106 1.969 . S
Zn100 O107 1.965 . S
Zn100 O111 2.024 . S
Zn100 O116 1.969 . S
Zn101 O108 1.969 . S
Zn101 O114 1.969 . S
Zn101 O115 1.965 . S
Zn101 O117 2.024 . S
C102 O103 1.229 . S
C102 O111 1.058 . S
O103 C102 1.229 . S
C104 O105 1.229 . S
C104 O117 1.058 . S
O105 C104 1.229 . S
O106 Zn100 1.969 . S
O106 C109 1.267 . S
O107 Zn100 1.965 . S
O107 C118 1.260 . S
O108 Zn101 1.969 . S
O108 C118 1.258 . S
C109 O106 1.267 . S
C109 O110 1.228 . S
O110 C109 1.228 . S
O111 Zn100 2.024 . S
O111 C102 1.058 . S
C112 O113 1.228 . S
C112 O114 1.267 . S
O113 C112 1.228 . S
O114 Zn101 1.969 . S
O114 C112 1.267 . S
O115 Zn101 1.965 . S
O115 C119 1.260 . S
O116 Zn100 1.969 . S
O116 C119 1.258 . S
O117 Zn101 2.024 . S
O117 C104 1.058 . S
C118 O107 1.260 . S
C118 O108 1.258 . S
C119 O115 1.260 . S
C119 O116 1.258 . S
H120 C126 0.930 . S
H121 C130 0.930 . S
H122 C135 0.929 . S
H123 C133 0.929 . S
H124 C128 0.929 1_565 S
H125 C134 0.929 1_545 S
C126 H120 0.930 . S
C126 C127 1.367 . S
C126 C134 1.378 . S
C127 C126 1.367 . S
C127 C135 1.433 . S
C128 H124 0.929 1_545 S
C128 C130 1.378 . S
C128 C132 1.350 . S
C129 C132 1.463 1_566 S
C129 C134 1.350 . S
C129 N137 1.427 . S
C130 H121 0.930 . S
C130 C128 1.378 . S
C130 C131 1.367 . S
C131 C130 1.367 . S
C131 C133 1.433 . S
C132 C128 1.350 . S
C132 C129 1.463 1_544 S
C132 N136 1.427 . S
C133 H123 0.929 . S
C133 C131 1.433 . S
C133 N136 1.384 . S
C134 H125 0.929 1_565 S
C134 C126 1.378 . S
C134 C129 1.350 . S
C135 H122 0.929 . S
C135 C127 1.433 . S
C135 N137 1.384 . S
N136 C132 1.427 . S
N136 C133 1.384 . S
N137 C129 1.427 . S
N137 C135 1.384 . S
H138 C144 0.930 . S
H139 C148 0.930 . S
H140 C153 0.929 . S
H141 C151 0.929 . S
H142 C146 0.929 . S
H143 C152 0.929 . S
C144 H138 0.930 . S
C144 C145 1.367 . S
C144 C152 1.378 . S
C145 C144 1.367 . S
C145 C153 1.433 . S
C146 H142 0.929 . S
C146 C148 1.378 . S
C146 C150 1.350 . S
C147 C150 1.463 . S
C147 C152 1.350 . S
C147 N155 1.427 . S
C148 H139 0.930 . S
C148 C146 1.378 . S
C148 C149 1.367 . S
C149 C148 1.367 . S
C149 C151 1.433 . S
C150 C146 1.350 . S
C150 C147 1.463 . S
C150 N154 1.427 . S
C151 H141 0.929 . S
C151 C149 1.433 . S
C151 N154 1.384 . S
C152 H143 0.929 . S
C152 C144 1.378 . S
C152 C147 1.350 . S
C153 H140 0.929 . S
C153 C145 1.433 . S
C153 N155 1.384 . S
N154 C150 1.427 . S
N154 C151 1.384 . S
N155 C147 1.427 . S
N155 C153 1.384 . S
H156 C162 0.930 . S
H157 C166 0.930 . S
H158 C171 0.929 . S
H159 C169 0.929 . S
H160 C164 0.929 1_655 S
H161 C170 0.929 . S
C162 H156 0.930 . S
C162 C163 1.367 . S
C162 C170 1.378 1_655 S
C163 C162 1.367 . S
C163 C171 1.433 . S
C164 H160 0.929 1_455 S
C164 C166 1.378 . S
C164 C168 1.350 . S
C165 C168 1.463 1_654 S
C165 C170 1.350 1_655 S
C165 N173 1.427 . S
C166 H157 0.930 . S
C166 C164 1.378 . S
C166 C167 1.367 . S
C167 C166 1.367 . S
C167 C169 1.433 . S
C168 C164 1.350 . S
C168 C165 1.463 1_456 S
C168 N172 1.427 . S
C169 H159 0.929 . S
C169 C167 1.433 . S
C169 N172 1.384 . S
C170 H161 0.929 . S
C170 C162 1.378 1_455 S
C170 C165 1.350 1_455 S
C171 H158 0.929 . S
C171 C163 1.433 . S
C171 N173 1.384 . S
N172 C168 1.427 . S
N172 C169 1.384 . S
N173 C165 1.427 . S
N173 C171 1.384 . S
H174 C180 0.930 . S
H175 C184 0.930 . S
H176 C189 0.929 . S
H177 C187 0.929 . S
H178 C182 0.929 . S
H179 C188 0.929 1_565 S
C180 H174 0.930 . S
C180 C181 1.367 . S
C180 C188 1.378 . S
C181 C180 1.367 . S
C181 C189 1.433 . S
C182 H178 0.929 . S
C182 C184 1.378 1_545 S
C182 C186 1.350 1_545 S
C183 C186 1.463 1_545 S
C183 C188 1.350 . S
C183 N191 1.427 . S
C184 H175 0.930 . S
C184 C182 1.378 1_565 S
C184 C185 1.367 . S
C185 C184 1.367 . S
C185 C187 1.433 . S
C186 C182 1.350 1_565 S
C186 C183 1.463 1_565 S
C186 N190 1.427 . S
C187 H177 0.929 . S
C187 C185 1.433 . S
C187 N190 1.384 . S
C188 H179 0.929 1_545 S
C188 C180 1.378 . S
C188 C183 1.350 . S
C189 H176 0.929 . S
C189 C181 1.433 . S
C189 N191 1.384 . S
N190 C186 1.427 . S
N190 C187 1.384 . S
N191 C183 1.427 . S
N191 C189 1.384 . S
H192 C198 0.930 . S
H193 C202 0.930 . S
H194 C207 0.929 . S
H195 C205 0.929 . S
H196 C200 0.929 1_556 S
H197 C206 0.929 1_554 S
C198 H192 0.930 . S
C198 C199 1.367 . S
C198 C206 1.378 . S
C199 C198 1.367 . S
C199 C207 1.433 . S
C200 H196 0.929 1_554 S
C200 C202 1.378 . S
C200 C204 1.350 . S
C201 C204 1.463 1_556 S
C201 C206 1.350 . S
C201 N209 1.427 . S
C202 H193 0.930 . S
C202 C200 1.378 . S
C202 C203 1.367 . S
C203 C202 1.367 . S
C203 C205 1.433 . S
C204 C200 1.350 . S
C204 C201 1.463 1_554 S
C204 N208 1.427 . S
C205 H195 0.929 . S
C205 C203 1.433 . S
C205 N208 1.384 . S
C206 H197 0.929 1_556 S
C206 C198 1.378 . S
C206 C201 1.350 . S
C207 H194 0.929 . S
C207 C199 1.433 . S
C207 N209 1.384 . S
N208 C204 1.427 . S
N208 C205 1.384 . S
N209 C201 1.427 . S
N209 C207 1.384 . S
H210 C216 0.930 . S
H211 C220 0.930 . S
H212 C225 0.929 . S
H213 C223 0.929 . S
H214 C218 0.929 . S
H215 C224 0.929 . S
C216 H210 0.930 . S
C216 C217 1.367 . S
C216 C224 1.378 . S
C217 C216 1.367 . S
C217 C225 1.433 . S
C218 H214 0.929 . S
C218 C220 1.378 . S
C218 C222 1.350 . S
C219 C222 1.463 1_655 S
C219 C224 1.350 . S
C219 N227 1.427 . S
C220 H211 0.930 . S
C220 C218 1.378 . S
C220 C221 1.367 . S
C221 C220 1.367 . S
C221 C223 1.433 . S
C222 C218 1.350 . S
C222 C219 1.463 1_455 S
C222 N226 1.427 . S
C223 H213 0.929 . S
C223 C221 1.433 . S
C223 N226 1.384 . S
C224 H215 0.929 . S
C224 C216 1.378 . S
C224 C219 1.350 . S
C225 H212 0.929 . S
C225 C217 1.433 . S
C225 N227 1.384 . S
N226 C222 1.427 . S
N226 C223 1.384 . S
N227 C219 1.427 . S
N227 C225 1.384 . S
H228 C234 0.930 . S
H229 C238 0.930 . S
H230 C243 0.929 . S
H231 C241 0.929 . S
H232 C236 0.929 . S
H233 C242 0.929 . S
C234 H228 0.930 . S
C234 C235 1.367 . S
C234 C242 1.378 . S
C235 C234 1.367 . S
C235 C243 1.433 . S
C236 H232 0.929 . S
C236 C238 1.378 . S
C236 C240 1.350 . S
C237 C240 1.463 . S
C237 C242 1.350 . S
C237 N245 1.427 . S
C238 H229 0.930 . S
C238 C236 1.378 . S
C238 C239 1.367 . S
C239 C238 1.367 . S
C239 C241 1.433 . S
C240 C236 1.350 . S
C240 C237 1.463 . S
C240 N244 1.427 . S
C241 H231 0.929 . S
C241 C239 1.433 . S
C241 N244 1.384 . S
C242 H233 0.929 . S
C242 C234 1.378 . S
C242 C237 1.350 . S
C243 H230 0.929 . S
C243 C235 1.433 . S
C243 N245 1.384 . S
N244 C240 1.427 . S
N244 C241 1.384 . S
N245 C237 1.427 . S
N245 C243 1.384 . S
H246 C252 0.930 . S
H247 C256 0.930 . S
H248 C261 0.929 . S
H249 C259 0.929 . S
H250 C254 0.929 . S
H251 C260 0.929 . S
C252 H246 0.930 . S
C252 C253 1.367 . S
C252 C260 1.378 . S
C253 C252 1.367 . S
C253 C261 1.433 . S
C254 H250 0.929 . S
C254 C256 1.378 . S
C254 C258 1.350 . S
C255 C258 1.463 . S
C255 C260 1.350 . S
C255 N263 1.427 . S
C256 H247 0.930 . S
C256 C254 1.378 . S
C256 C257 1.367 . S
C257 C256 1.367 . S
C257 C259 1.433 . S
C258 C254 1.350 . S
C258 C255 1.463 . S
C258 N262 1.427 . S
C259 H249 0.929 . S
C259 C257 1.433 . S
C259 N262 1.384 . S
C260 H251 0.929 . S
C260 C252 1.378 . S
C260 C255 1.350 . S
C261 H248 0.929 . S
C261 C253 1.433 . S
C261 N263 1.384 . S
N262 C258 1.427 . S
N262 C259 1.384 . S
N263 C255 1.427 . S
N263 C261 1.384 . S
H264 C270 0.930 . S
H265 C274 0.930 . S
H266 C279 0.929 . S
H267 C277 0.929 . S
H268 C272 0.929 . S
H269 C278 0.929 . S
C270 H264 0.930 . S
C270 C271 1.367 . S
C270 C278 1.378 . S
C271 C270 1.367 . S
C271 C279 1.433 . S
C272 H268 0.929 . S
C272 C274 1.378 . S
C272 C276 1.350 . S
C273 C276 1.463 . S
C273 C278 1.350 . S
C273 N281 1.427 . S
C274 H265 0.930 . S
C274 C272 1.378 . S
C274 C275 1.367 . S
C275 C274 1.367 . S
C275 C277 1.433 . S
C276 C272 1.350 . S
C276 C273 1.463 . S
C276 N280 1.427 . S
C277 H267 0.929 . S
C277 C275 1.433 . S
C277 N280 1.384 . S
C278 H269 0.929 . S
C278 C270 1.378 . S
C278 C273 1.350 . S
C279 H266 0.929 . S
C279 C271 1.433 . S
C279 N281 1.384 . S
N280 C276 1.427 . S
N280 C277 1.384 . S
N281 C273 1.427 . S
N281 C279 1.384 . S
H282 C288 0.930 . S
H283 C292 0.930 . S
H284 C297 0.929 . S
H285 C295 0.929 . S
H286 C290 0.929 . S
H287 C296 0.929 . S
C288 H282 0.930 . S
C288 C289 1.367 . S
C288 C296 1.378 . S
C289 C288 1.367 . S
C289 C297 1.433 . S
C290 H286 0.929 . S
C290 C292 1.378 . S
C290 C294 1.350 . S
C291 C294 1.463 . S
C291 C296 1.350 . S
C291 N299 1.427 . S
C292 H283 0.930 . S
C292 C290 1.378 . S
C292 C293 1.367 . S
C293 C292 1.367 . S
C293 C295 1.433 . S
C294 C290 1.350 . S
C294 C291 1.463 . S
C294 N298 1.427 . S
C295 H285 0.929 . S
C295 C293 1.433 . S
C295 N298 1.384 . S
C296 H287 0.929 . S
C296 C288 1.378 . S
C296 C291 1.350 . S
C297 H284 0.929 . S
C297 C289 1.433 . S
C297 N299 1.384 . S
N298 C294 1.427 . S
N298 C295 1.384 . S
N299 C291 1.427 . S
N299 C297 1.384 . S
H300 C306 0.930 . S
H301 C310 0.930 . S
H302 C315 0.929 . S
H303 C313 0.929 . S
H304 C308 0.929 . S
H305 C314 0.929 . S
C306 H300 0.930 . S
C306 C307 1.367 . S
C306 C314 1.378 . S
C307 C306 1.367 . S
C307 C315 1.433 . S
C308 H304 0.929 . S
C308 C310 1.378 . S
C308 C312 1.350 . S
C309 C312 1.463 . S
C309 C314 1.350 . S
C309 N317 1.427 . S
C310 H301 0.930 . S
C310 C308 1.378 . S
C310 C311 1.367 . S
C311 C310 1.367 . S
C311 C313 1.433 . S
C312 C308 1.350 . S
C312 C309 1.463 . S
C312 N316 1.427 . S
C313 H303 0.929 . S
C313 C311 1.433 . S
C313 N316 1.384 . S
C314 H305 0.929 . S
C314 C306 1.378 . S
C314 C309 1.350 . S
C315 H302 0.929 . S
C315 C307 1.433 . S
C315 N317 1.384 . S
N316 C312 1.427 . S
N316 C313 1.384 . S
N317 C309 1.427 . S
N317 C315 1.384 . S
H318 C324 0.930 . S
H319 C328 0.930 . S
H320 C333 0.929 . S
H321 C331 0.929 . S
H322 C326 0.929 . S
H323 C332 0.929 . S
C324 H318 0.930 . S
C324 C325 1.367 . S
C324 C332 1.378 . S
C325 C324 1.367 . S
C325 C333 1.433 . S
C326 H322 0.929 . S
C326 C328 1.378 . S
C326 C330 1.350 . S
C327 C330 1.463 . S
C327 C332 1.350 . S
C327 N335 1.427 . S
C328 H319 0.930 . S
C328 C326 1.378 . S
C328 C329 1.367 . S
C329 C328 1.367 . S
C329 C331 1.433 . S
C330 C326 1.350 . S
C330 C327 1.463 . S
C330 N334 1.427 . S
C331 H321 0.929 . S
C331 C329 1.433 . S
C331 N334 1.384 . S
C332 H323 0.929 . S
C332 C324 1.378 . S
C332 C327 1.350 . S
C333 H320 0.929 . S
C333 C325 1.433 . S
C333 N335 1.384 . S
N334 C330 1.427 . S
N334 C331 1.384 . S
N335 C327 1.427 . S
N335 C333 1.384 . S
H336 C342 0.930 . S
H337 C346 0.930 . S
H338 C351 0.929 . S
H339 C349 0.929 . S
H340 C344 0.929 . S
H341 C350 0.929 . S
C342 H336 0.930 . S
C342 C343 1.367 . S
C342 C350 1.378 . S
C343 C342 1.367 . S
C343 C351 1.433 . S
C344 H340 0.929 . S
C344 C346 1.378 . S
C344 C348 1.350 . S
C345 C348 1.463 . S
C345 C350 1.350 . S
C345 N353 1.427 . S
C346 H337 0.930 . S
C346 C344 1.378 . S
C346 C347 1.367 . S
C347 C346 1.367 . S
C347 C349 1.433 . S
C348 C344 1.350 . S
C348 C345 1.463 . S
C348 N352 1.427 . S
C349 H339 0.929 . S
C349 C347 1.433 . S
C349 N352 1.384 . S
C350 H341 0.929 . S
C350 C342 1.378 . S
C350 C345 1.350 . S
C351 H338 0.929 . S
C351 C343 1.433 . S
C351 N353 1.384 . S
N352 C348 1.427 . S
N352 C349 1.384 . S
N353 C345 1.427 . S
N353 C351 1.384 . S
H354 C360 0.930 . S
H355 C364 0.930 . S
H356 C369 0.929 . S
H357 C367 0.929 . S
H358 C362 0.929 . S
H359 C368 0.929 1_455 S
C360 H354 0.930 . S
C360 C361 1.367 . S
C360 C368 1.378 . S
C361 C360 1.367 . S
C361 C369 1.433 . S
C362 H358 0.929 . S
C362 C364 1.378 . S
C362 C366 1.350 . S
C363 C366 1.463 . S
C363 C368 1.350 1_455 S
C363 N371 1.427 1_455 S
C364 H355 0.930 . S
C364 C362 1.378 . S
C364 C365 1.367 . S
C365 C364 1.367 . S
C365 C367 1.433 . S
C366 C362 1.350 . S
C366 C363 1.463 . S
C366 N370 1.427 . S
C367 H357 0.929 . S
C367 C365 1.433 . S
C367 N370 1.384 . S
C368 H359 0.929 1_655 S
C368 C360 1.378 . S
C368 C363 1.350 1_655 S
C369 H356 0.929 . S
C369 C361 1.433 . S
C369 N371 1.384 . S
N370 C366 1.427 . S
N370 C367 1.384 . S
N371 C363 1.427 1_655 S
N371 C369 1.384 . S
H372 C378 0.930 . S
H373 C382 0.930 . S
H374 C387 0.929 . S
H375 C385 0.929 . S
H376 C380 0.929 . S
H377 C386 0.929 . S
C378 H372 0.930 . S
C378 C379 1.367 . S
C378 C386 1.378 1_545 S
C379 C378 1.367 . S
C379 C387 1.433 . S
C380 H376 0.929 . S
C380 C382 1.378 . S
C380 C384 1.350 . S
C381 C384 1.463 . S
C381 C386 1.350 . S
C381 N389 1.427 1_565 S
C382 H373 0.930 . S
C382 C380 1.378 . S
C382 C383 1.367 . S
C383 C382 1.367 . S
C383 C385 1.433 . S
C384 C380 1.350 . S
C384 C381 1.463 . S
C384 N388 1.427 . S
C385 H375 0.929 . S
C385 C383 1.433 . S
C385 N388 1.384 . S
C386 H377 0.929 . S
C386 C378 1.378 1_565 S
C386 C381 1.350 . S
C387 H374 0.929 . S
C387 C379 1.433 . S
C387 N389 1.384 . S
N388 C384 1.427 . S
N388 C385 1.384 . S
N389 C381 1.427 1_545 S
N389 C387 1.384 . S
H390 C396 0.930 . S
H391 C400 0.948 . S
H392 C405 0.929 . S
H393 C403 0.929 . S
H394 C398 0.929 . S
H395 C404 0.929 . S
C396 H390 0.930 . S
C396 C397 1.367 . S
C396 C404 1.378 . S
C397 C396 1.367 . S
C397 C405 1.433 . S
C398 H394 0.929 . S
C398 C400 1.378 . S
C398 C402 1.350 . S
C399 C402 1.463 . S
C399 C404 1.350 . S
C399 N407 1.427 . S
C400 H391 0.948 . S
C400 C398 1.378 . S
C400 C401 1.367 . S
C401 C400 1.367 . S
C401 C403 1.433 . S
C402 C398 1.350 . S
C402 C399 1.463 . S
C402 N406 1.427 . S
C403 H393 0.929 . S
C403 C401 1.433 . S
C403 N406 1.384 . S
C404 H395 0.929 . S
C404 C396 1.378 . S
C404 C399 1.350 . S
C405 H392 0.929 . S
C405 C397 1.433 . S
C405 N407 1.384 . S
N406 C402 1.427 . S
N406 C403 1.384 . S
N407 C399 1.427 . S
N407 C405 1.384 . S
H408 C414 0.930 . S
H409 C418 0.930 . S
H410 C423 0.929 . S
H411 C421 0.929 . S
H412 C416 0.929 . S
H413 C422 0.929 . S
C414 H408 0.930 . S
C414 C415 1.367 . S
C414 C422 1.378 1_455 S
C415 C414 1.367 . S
C415 C423 1.433 . S
C416 H412 0.929 . S
C416 C418 1.378 . S
C416 C420 1.350 . S
C417 C420 1.463 . S
C417 C422 1.350 . S
C417 N425 1.427 . S
C418 H409 0.930 . S
C418 C416 1.378 . S
C418 C419 1.367 . S
C419 C418 1.367 . S
C419 C421 1.433 . S
C420 C416 1.350 . S
C420 C417 1.463 . S
C420 N424 1.427 . S
C421 H411 0.929 . S
C421 C419 1.433 . S
C421 N424 1.384 . S
C422 H413 0.929 . S
C422 C414 1.378 1_655 S
C422 C417 1.350 . S
C423 H410 0.929 . S
C423 C415 1.433 . S
C423 N425 1.384 1_455 S
N424 C420 1.427 . S
N424 C421 1.384 . S
N425 C417 1.427 . S
N425 C423 1.384 1_655 S
H426 C432 0.930 . S
H427 C436 0.930 . S
H428 C441 0.929 . S
H429 C439 0.929 . S
H430 C434 0.929 . S
H431 C440 0.929 . S
C432 H426 0.930 . S
C432 C433 1.367 . S
C432 C440 1.378 . S
C433 C432 1.367 . S
C433 C441 1.433 . S
C434 H430 0.929 . S
C434 C436 1.378 1_545 S
C434 C438 1.350 . S
C435 C438 1.463 . S
C435 C440 1.350 . S
C435 N443 1.427 . S
C436 H427 0.930 . S
C436 C434 1.378 1_565 S
C436 C437 1.367 . S
C437 C436 1.367 . S
C437 C439 1.433 . S
C438 C434 1.350 . S
C438 C435 1.463 . S
C438 N442 1.427 . S
C439 H429 0.929 . S
C439 C437 1.433 . S
C439 N442 1.384 1_565 S
C440 H431 0.929 . S
C440 C432 1.378 . S
C440 C435 1.350 . S
C441 H428 0.929 . S
C441 C433 1.433 . S
C441 N443 1.384 . S
N442 C438 1.427 . S
N442 C439 1.384 1_545 S
N443 C435 1.427 . S
N443 C441 1.384 . S
C127 C99 2.187 . S
C131 C18 2.119 . S
C145 C118 2.104 . S
C149 C39 2.190 . S
C163 C58 2.122 . S
C167 C79 2.184 . S
C181 C19 2.181 . S
C185 C98 2.097 . S
C199 C119 2.190 . S
C203 C38 2.130 . S
C217 C59 2.185 . S
C221 C78 2.110 . S
C235 C4 1.412 . S
C239 C52 1.673 . S
C253 C24 1.406 . S
C257 C12 1.673 . S
C271 C44 1.415 . S
C275 C32 1.673 . S
C289 C69 1.516 . S
C293 C82 1.666 . S
C307 C89 1.518 . S
C311 C102 1.665 . S
C325 C62 1.665 . S
C329 C109 1.519 . S
C343 C2 1.009 . S
C347 C49 0.909 . S
C361 C22 0.999 . S
C365 C9 0.944 . S
C379 C42 1.007 . S
C383 C29 0.917 . S
C397 C72 1.001 . S
C401 C84 0.866 . S
C415 C92 1.001 . S
C419 C104 0.883 . S
C433 C64 0.880 . S
C437 C112 1.001 . S
