# Generated by pormake.
# Topology whv, (6)-cn, num edge types: 1
# Building blocks:
#     Node 0, Type 0, BuildingBlock: OJICUG_clean_sbu_0, # of connection points: 6
#     Node 1, Type 0, BuildingBlock: OJICUG_clean_sbu_0, # of connection points: 6
#     Node 2, Type 0, BuildingBlock: OJICUG_clean_sbu_0, # of connection points: 6
#     Node 3, Type 0, BuildingBlock: OJICUG_clean_sbu_0, # of connection points: 6
#     Node 4, Type 0, BuildingBlock: OJICUG_clean_sbu_0, # of connection points: 6
#     Node 5, Type 0, BuildingBlock: OJICUG_clean_sbu_0, # of connection points: 6
#     Node 6, Type 0, BuildingBlock: OJICUG_clean_sbu_0, # of connection points: 6
#     Node 7, Type 0, BuildingBlock: OJICUG_clean_sbu_0, # of connection points: 6
#     Node 8, Type 0, BuildingBlock: OJICUG_clean_sbu_0, # of connection points: 6
#     Node 9, Type 0, BuildingBlock: OJICUG_clean_sbu_0, # of connection points: 6
#     Node 10, Type 0, BuildingBlock: OJICUG_clean_sbu_0, # of connection points: 6
#     Node 11, Type 0, BuildingBlock: OJICUG_clean_sbu_0, # of connection points: 6
#     Node 12, Type 0, BuildingBlock: OJICUG_clean_sbu_0, # of connection points: 6
#     Node 13, Type 0, BuildingBlock: OJICUG_clean_sbu_0, # of connection points: 6
#     Node 14, Type 0, BuildingBlock: OJICUG_clean_sbu_0, # of connection points: 6
#     Node 15, Type 0, BuildingBlock: OJICUG_clean_sbu_0, # of connection points: 6
#     Edge 16, Type (0, 0), BuildingBlock: AJUNOK_clean_linker_0, # of connection points: 2
#     Edge 17, Type (0, 0), BuildingBlock: AJUNOK_clean_linker_0, # of connection points: 2
#     Edge 18, Type (0, 0), BuildingBlock: AJUNOK_clean_linker_0, # of connection points: 2
#     Edge 19, Type (0, 0), BuildingBlock: AJUNOK_clean_linker_0, # of connection points: 2
#     Edge 20, Type (0, 0), BuildingBlock: AJUNOK_clean_linker_0, # of connection points: 2
#     Edge 21, Type (0, 0), BuildingBlock: AJUNOK_clean_linker_0, # of connection points: 2
#     Edge 22, Type (0, 0), BuildingBlock: AJUNOK_clean_linker_0, # of connection points: 2
#     Edge 23, Type (0, 0), BuildingBlock: AJUNOK_clean_linker_0, # of connection points: 2
#     Edge 24, Type (0, 0), BuildingBlock: AJUNOK_clean_linker_0, # of connection points: 2
#     Edge 25, Type (0, 0), BuildingBlock: AJUNOK_clean_linker_0, # of connection points: 2
#     Edge 26, Type (0, 0), BuildingBlock: AJUNOK_clean_linker_0, # of connection points: 2
#     Edge 27, Type (0, 0), BuildingBlock: AJUNOK_clean_linker_0, # of connection points: 2
#     Edge 28, Type (0, 0), BuildingBlock: AJUNOK_clean_linker_0, # of connection points: 2
#     Edge 29, Type (0, 0), BuildingBlock: AJUNOK_clean_linker_0, # of connection points: 2
#     Edge 30, Type (0, 0), BuildingBlock: AJUNOK_clean_linker_0, # of connection points: 2
#     Edge 31, Type (0, 0), BuildingBlock: AJUNOK_clean_linker_0, # of connection points: 2
#     Edge 32, Type (0, 0), BuildingBlock: AJUNOK_clean_linker_0, # of connection points: 2
#     Edge 33, Type (0, 0), BuildingBlock: AJUNOK_clean_linker_0, # of connection points: 2
#     Edge 34, Type (0, 0), BuildingBlock: AJUNOK_clean_linker_0, # of connection points: 2
#     Edge 35, Type (0, 0), BuildingBlock: AJUNOK_clean_linker_0, # of connection points: 2
#     Edge 36, Type (0, 0), BuildingBlock: AJUNOK_clean_linker_0, # of connection points: 2
#     Edge 37, Type (0, 0), BuildingBlock: AJUNOK_clean_linker_0, # of connection points: 2
#     Edge 38, Type (0, 0), BuildingBlock: AJUNOK_clean_linker_0, # of connection points: 2
#     Edge 39, Type (0, 0), BuildingBlock: AJUNOK_clean_linker_0, # of connection points: 2
#     Edge 40, Type (0, 0), BuildingBlock: AJUNOK_clean_linker_0, # of connection points: 2
#     Edge 41, Type (0, 0), BuildingBlock: AJUNOK_clean_linker_0, # of connection points: 2
#     Edge 42, Type (0, 0), BuildingBlock: AJUNOK_clean_linker_0, # of connection points: 2
#     Edge 43, Type (0, 0), BuildingBlock: AJUNOK_clean_linker_0, # of connection points: 2
#     Edge 44, Type (0, 0), BuildingBlock: AJUNOK_clean_linker_0, # of connection points: 2
#     Edge 45, Type (0, 0), BuildingBlock: AJUNOK_clean_linker_0, # of connection points: 2
#     Edge 46, Type (0, 0), BuildingBlock: AJUNOK_clean_linker_0, # of connection points: 2
#     Edge 47, Type (0, 0), BuildingBlock: AJUNOK_clean_linker_0, # of connection points: 2
#     Edge 48, Type (0, 0), BuildingBlock: AJUNOK_clean_linker_0, # of connection points: 2
#     Edge 49, Type (0, 0), BuildingBlock: AJUNOK_clean_linker_0, # of connection points: 2
#     Edge 50, Type (0, 0), BuildingBlock: AJUNOK_clean_linker_0, # of connection points: 2
#     Edge 51, Type (0, 0), BuildingBlock: AJUNOK_clean_linker_0, # of connection points: 2
#     Edge 52, Type (0, 0), BuildingBlock: AJUNOK_clean_linker_0, # of connection points: 2
#     Edge 53, Type (0, 0), BuildingBlock: AJUNOK_clean_linker_0, # of connection points: 2
#     Edge 54, Type (0, 0), BuildingBlock: AJUNOK_clean_linker_0, # of connection points: 2
#     Edge 55, Type (0, 0), BuildingBlock: AJUNOK_clean_linker_0, # of connection points: 2
#     Edge 56, Type (0, 0), BuildingBlock: AJUNOK_clean_linker_0, # of connection points: 2
#     Edge 57, Type (0, 0), BuildingBlock: AJUNOK_clean_linker_0, # of connection points: 2
#     Edge 58, Type (0, 0), BuildingBlock: AJUNOK_clean_linker_0, # of connection points: 2
#     Edge 59, Type (0, 0), BuildingBlock: AJUNOK_clean_linker_0, # of connection points: 2
#     Edge 60, Type (0, 0), BuildingBlock: AJUNOK_clean_linker_0, # of connection points: 2
#     Edge 61, Type (0, 0), BuildingBlock: AJUNOK_clean_linker_0, # of connection points: 2
#     Edge 62, Type (0, 0), BuildingBlock: AJUNOK_clean_linker_0, # of connection points: 2
#     Edge 63, Type (0, 0), BuildingBlock: AJUNOK_clean_linker_0, # of connection points: 2
# Relax obj value: 0.290
# Max RMSD: 0.262
# Mean RMSD: 0.262
data_MOF--net-whv--node1-OJICUG_clean_sbu_0--edge1-AJUNOK_clean_linker_0
_symmetry_space_group_name_H-M    P1
_symmetry_Int_Tables_number       1
_symmetry_cell_setting            triclinic
loop_
_symmetry_equiv_pos_as_xyz
'x, y, z'
_cell_length_a     39.15619
_cell_length_b     39.187192
_cell_length_c     20.521743
_cell_angle_alpha  89.96493
_cell_angle_beta   89.952662
_cell_angle_gamma 90.020047
loop_
_atom_site_label
_atom_site_type_symbol
_atom_site_fract_x
_atom_site_fract_y
_atom_site_fract_z
_atom_type_partial_charge
Sc0 Sc 0.27829 0.22605 0.00543 0.0
Sc1 Sc 0.30746 0.14842 0.96205 0.0
Sc2 Sc 0.3507 0.19484 0.07692 0.0
O3 O 0.31134 0.18897 0.01851 0.0
C4 C 0.34699 0.26484 0.00837 0.0
C5 C 0.28346 0.20798 0.8684 0.0
C6 C 0.38267 0.16406 0.94503 0.0
C7 C 0.23494 0.15581 0.99048 0.0
C8 C 0.28476 0.2272 0.15309 0.0
C9 C 0.34079 0.11962 0.09542 0.0
O10 O 0.31525 0.26657 0.02182 0.0
O11 O 0.28036 0.17637 0.88281 0.0
O12 O 0.38566 0.16891 0.00686 0.0
O13 O 0.23758 0.18825 0.98237 0.0
O14 O 0.31718 0.22147 0.14876 0.0
O15 O 0.33461 0.11648 0.03431 0.0
O16 O 0.26476 0.22457 0.10465 0.0
O17 O 0.26034 0.13799 0.00775 0.0
O18 O 0.33859 0.14809 0.12435 0.0
O19 O 0.29589 0.22821 0.90912 0.0
O20 O 0.36488 0.2398 0.02638 0.0
O21 O 0.3539 0.16152 0.91749 0.0
Sc22 Sc 0.55009 0.59866 0.32087 0.0
Sc23 Sc 0.6005 0.5529 0.21399 0.0
Sc24 Sc 0.51979 0.52681 0.24517 0.0
O25 O 0.55726 0.5593 0.2626 0.0
C26 C 0.51676 0.53242 0.39404 0.0
C27 C 0.62477 0.58687 0.3499 0.0
C28 C 0.58835 0.48093 0.23887 0.0
C29 C 0.59122 0.62915 0.19586 0.0
C30 C 0.48081 0.59601 0.24829 0.0
C31 C 0.54347 0.53305 0.11026 0.0
O32 O 0.52205 0.56497 0.39106 0.0
O33 O 0.63075 0.57757 0.29116 0.0
O34 O 0.55666 0.48506 0.22528 0.0
O35 O 0.57904 0.63303 0.25378 0.0
O36 O 0.47907 0.56391 0.25712 0.0
O37 O 0.5742 0.52836 0.12967 0.0
O38 O 0.50613 0.61325 0.26742 0.0
O39 O 0.59421 0.60034 0.1686 0.0
O40 O 0.52118 0.54423 0.14859 0.0
O41 O 0.59498 0.58732 0.37377 0.0
O42 O 0.51846 0.51322 0.34434 0.0
O43 O 0.60599 0.5053 0.26086 0.0
Sc44 Sc 0.14633 0.80105 0.57182 0.0
Sc45 Sc 0.19448 0.85147 0.46934 0.0
Sc46 Sc 0.21809 0.76979 0.49767 0.0
O47 O 0.18628 0.80778 0.51511 0.0
C48 C 0.2104 0.76418 0.64532 0.0
C49 C 0.16 0.87455 0.60525 0.0
C50 C 0.26542 0.83725 0.49488 0.0
C51 C 0.11827 0.845 0.4488 0.0
C52 C 0.14746 0.73263 0.49734 0.0
C53 C 0.21367 0.79501 0.36372 0.0
O54 O 0.17816 0.77069 0.64074 0.0
O55 O 0.16979 0.88131 0.54712 0.0
O56 O 0.26101 0.80583 0.47955 0.0
O57 O 0.11365 0.83212 0.50588 0.0
O58 O 0.17951 0.73004 0.50702 0.0
O59 O 0.2191 0.82544 0.38429 0.0
O60 O 0.13082 0.75851 0.5155 0.0
O61 O 0.14729 0.84765 0.422 0.0
O62 O 0.20146 0.77279 0.40104 0.0
O63 O 0.15919 0.84448 0.62758 0.0
O64 O 0.23073 0.76695 0.5973 0.0
O65 O 0.24131 0.85421 0.51949 0.0
Sc66 Sc 0.97404 0.46565 0.75073 0.0
Sc67 Sc 0.89669 0.43533 0.7065 0.0
Sc68 Sc 0.94263 0.39352 0.82431 0.0
O69 O 0.93726 0.43199 0.76332 0.0
C70 C 0.01395 0.39687 0.75946 0.0
C71 C 0.95655 0.45954 0.6126 0.0
C72 C 0.90909 0.36019 0.69494 0.0
C73 C 0.90354 0.50818 0.73451 0.0
C74 C 0.97431 0.45993 0.89926 0.0
C75 C 0.86716 0.40314 0.83986 0.0
O76 O 0.01484 0.42912 0.76758 0.0
O77 O 0.92482 0.46193 0.6269 0.0
O78 O 0.91629 0.35805 0.756 0.0
O79 O 0.93605 0.50595 0.72686 0.0
O80 O 0.96877 0.42752 0.89564 0.0
O81 O 0.86447 0.40874 0.77859 0.0
O82 O 0.97196 0.47949 0.8501 0.0
O83 O 0.88587 0.48257 0.75104 0.0
O84 O 0.89533 0.40594 0.86976 0.0
O85 O 0.97735 0.44861 0.65395 0.0
O86 O 0.98852 0.3791 0.77661 0.0
O87 O 0.9092 0.38818 0.66414 0.0
Sc88 Sc 0.7194 0.76747 0.03163 0.0
Sc89 Sc 0.69027 0.84393 0.08141 0.0
Sc90 Sc 0.6486 0.80185 0.9593 0.0
O91 O 0.68705 0.80529 0.02083 0.0
C92 C 0.71502 0.77058 0.88422 0.0
C93 C 0.7636 0.8364 0.05686 0.0
C94 C 0.66079 0.87662 0.94781 0.0
C95 C 0.71096 0.7813 0.17123 0.0
C96 C 0.64969 0.73084 0.02274 0.0
C97 C 0.61516 0.83394 0.08883 0.0
O98 O 0.73449 0.77267 0.93345 0.0
O99 O 0.7386 0.85535 0.04195 0.0
O100 O 0.66364 0.84884 0.91665 0.0
O101 O 0.70114 0.76146 0.12725 0.0
O102 O 0.63223 0.75657 0.00655 0.0
O103 O 0.64273 0.82993 0.11971 0.0
O104 O 0.68135 0.72883 0.00818 0.0
O105 O 0.71486 0.81316 0.15953 0.0
O106 O 0.61322 0.82905 0.02696 0.0
O107 O 0.76035 0.80378 0.06104 0.0
O108 O 0.68241 0.77511 0.88808 0.0
O109 O 0.66536 0.87823 0.00971 0.0
Sc110 Sc 0.47765 0.47033 0.78445 0.0
Sc111 Sc 0.40037 0.44193 0.83301 0.0
Sc112 Sc 0.44344 0.39944 0.71243 0.0
O113 O 0.43972 0.43789 0.77382 0.0
C114 C 0.47498 0.46558 0.63683 0.0
C115 C 0.40925 0.51506 0.80976 0.0
C116 C 0.3685 0.41254 0.69896 0.0
C117 C 0.4631 0.46123 0.92391 0.0
C118 C 0.51444 0.40093 0.77645 0.0
C119 C 0.40905 0.36631 0.84078 0.0
O120 O 0.47276 0.48531 0.68578 0.0
O121 O 0.39056 0.49036 0.7923 0.0
O122 O 0.39661 0.41419 0.66839 0.0
O123 O 0.48315 0.45186 0.87985 0.0
O124 O 0.48867 0.38331 0.76075 0.0
O125 O 0.41158 0.39384 0.87247 0.0
O126 O 0.51632 0.43243 0.76103 0.0
O127 O 0.43131 0.46572 0.91193 0.0
O128 O 0.4157 0.36437 0.77952 0.0
O129 O 0.44178 0.51146 0.81482 0.0
O130 O 0.47047 0.43303 0.64139 0.0
O131 O 0.36639 0.41772 0.76055 0.0
Sc132 Sc 0.84512 0.1892 0.46024 0.0
Sc133 Sc 0.79837 0.14592 0.57582 0.0
Sc134 Sc 0.77555 0.22537 0.53171 0.0
O135 O 0.80551 0.18588 0.51865 0.0
C136 C 0.8463 0.26003 0.5256 0.0
C137 C 0.87452 0.15288 0.59051 0.0
C138 C 0.7795 0.20842 0.66718 0.0
C139 C 0.83051 0.11476 0.4431 0.0
C140 C 0.78046 0.22386 0.38424 0.0
C141 C 0.72646 0.15911 0.54831 0.0
O142 O 0.86245 0.23344 0.5099 0.0
O143 O 0.84601 0.15434 0.61945 0.0
O144 O 0.79523 0.22602 0.62639 0.0
O145 O 0.83029 0.14324 0.41392 0.0
O146 O 0.76084 0.22363 0.43351 0.0
O147 O 0.75027 0.13925 0.53083 0.0
O148 O 0.81277 0.21724 0.38803 0.0
O149 O 0.82289 0.11182 0.50366 0.0
O150 O 0.73224 0.19106 0.55732 0.0
O151 O 0.87803 0.16077 0.52997 0.0
O152 O 0.81475 0.26324 0.51181 0.0
O153 O 0.77407 0.17681 0.65497 0.0
Sc154 Sc 0.04938 0.59744 0.20667 0.0
Sc155 Sc 0.09321 0.55988 0.33254 0.0
Sc156 Sc 0.01669 0.52823 0.2873 0.0
O157 O 0.05403 0.56085 0.27221 0.0
C158 C 0.97791 0.59667 0.26869 0.0
C159 C 0.08026 0.63544 0.33167 0.0
C160 C 0.03142 0.53969 0.42577 0.0
C161 C 0.12457 0.58761 0.19578 0.0
C162 C 0.01806 0.52871 0.13907 0.0
C163 C 0.08654 0.48552 0.31434 0.0
O164 O 0.00382 0.61389 0.2528 0.0
O165 O 0.07939 0.60878 0.3664 0.0
O166 O 0.01131 0.5486 0.38148 0.0
O167 O 0.09681 0.58361 0.16486 0.0
O168 O 0.02085 0.51086 0.19037 0.0
O169 O 0.10527 0.51055 0.29826 0.0
O170 O 0.02319 0.56127 0.13897 0.0
O171 O 0.12679 0.5829 0.25758 0.0
O172 O 0.05392 0.4887 0.31892 0.0
O173 O 0.07584 0.63491 0.26974 0.0
O174 O 0.97668 0.56439 0.26169 0.0
O175 O 0.06338 0.53672 0.41383 0.0
Sc176 Sc 0.77719 0.72658 0.49606 0.0
Sc177 Sc 0.80059 0.64523 0.46559 0.0
Sc178 Sc 0.8495 0.69464 0.56915 0.0
O179 O 0.8092 0.68846 0.51275 0.0
C180 C 0.84722 0.76503 0.49928 0.0
C181 C 0.78203 0.70227 0.36138 0.0
C182 C 0.87688 0.65667 0.43833 0.0
C183 C 0.72975 0.65924 0.49339 0.0
C184 C 0.78397 0.72791 0.64524 0.0
C185 C 0.8367 0.6193 0.59799 0.0
O186 O 0.81494 0.76697 0.50529 0.0
O187 O 0.77594 0.67197 0.38181 0.0
O188 O 0.88261 0.66796 0.49644 0.0
O189 O 0.73434 0.6906 0.47795 0.0
O190 O 0.81631 0.72122 0.64237 0.0
O191 O 0.82526 0.61395 0.54057 0.0
O192 O 0.76477 0.72829 0.59543 0.0
O193 O 0.75397 0.64191 0.51665 0.0
O194 O 0.83997 0.64897 0.62131 0.0
O195 O 0.7936 0.72454 0.39923 0.0
O196 O 0.86376 0.73934 0.51833 0.0
O197 O 0.84721 0.65016 0.41737 0.0
Sc198 Sc 0.05036 0.10054 0.82086 0.0
Sc199 Sc 0.0996 0.05363 0.71431 0.0
Sc200 Sc 0.02018 0.02673 0.75323 0.0
O201 O 0.05739 0.06019 0.76518 0.0
C202 C 0.02042 0.03512 0.90011 0.0
C203 C 0.12551 0.08902 0.8484 0.0
C204 C 0.08863 0.9816 0.74373 0.0
C205 C 0.08978 0.12968 0.69388 0.0
C206 C 0.98094 0.09464 0.75228 0.0
C207 C 0.04002 0.03139 0.61606 0.0
O208 O 0.02311 0.06784 0.89393 0.0
O209 O 0.13077 0.07885 0.78981 0.0
O210 O 0.05677 0.98521 0.7314 0.0
O211 O 0.07844 0.13404 0.75209 0.0
O212 O 0.97961 0.06352 0.76966 0.0
O213 O 0.0715 0.02823 0.63265 0.0
O214 O 0.00635 0.11314 0.76551 0.0
O215 O 0.09265 0.10067 0.66735 0.0
O216 O 0.01825 0.04232 0.65582 0.0
O217 O 0.09588 0.09079 0.87309 0.0
O218 O 0.02284 0.01478 0.85233 0.0
O219 O 0.10634 0.00661 0.76269 0.0
Sc220 Sc 0.64339 0.29964 0.07782 0.0
Sc221 Sc 0.6864 0.34446 0.95881 0.0
Sc222 Sc 0.71146 0.26481 -0.00102 0.0
O223 O 0.68126 0.30396 0.01516 0.0
C224 C 0.71077 0.26633 0.14637 0.0
C225 C 0.65859 0.37388 0.09692 0.0
C226 C 0.75977 0.33069 0.9764 0.0
C227 C 0.60951 0.33751 0.95394 0.0
C228 C 0.64186 0.22958 0.01129 0.0
C229 C 0.70198 0.28228 0.86315 0.0
O230 O 0.67809 0.27115 0.14539 0.0
O231 O 0.66534 0.37785 0.03609 0.0
O232 O 0.75358 0.29885 0.96782 0.0
O233 O 0.60803 0.32924 0.01451 0.0
O234 O 0.6734 0.22711 0.02529 0.0
O235 O 0.707 0.31392 0.87595 0.0
O236 O 0.62518 0.25581 0.02735 0.0
O237 O 0.63693 0.33713 0.92138 0.0
O238 O 0.68972 0.26304 0.90591 0.0
O239 O 0.65935 0.34492 0.12437 0.0
O240 O 0.72901 0.26751 0.09532 0.0
O241 O 0.7366 0.35091 0.99564 0.0
Sc242 Sc 0.47901 0.96467 0.25411 0.0
Sc243 Sc 0.39704 0.94539 0.21753 0.0
Sc244 Sc 0.44294 0.8953 0.3246 0.0
O245 O 0.43862 0.93583 0.26912 0.0
C246 C 0.51212 0.89435 0.25526 0.0
C247 C 0.45882 0.96001 0.11993 0.0
C248 C 0.40026 0.86842 0.19974 0.0
C249 C 0.4152 0.01663 0.24059 0.0
C250 C 0.48019 0.95869 0.4005 0.0
C251 C 0.3696 0.91235 0.35303 0.0
O252 O 0.5159 0.92494 0.27416 0.0
O253 O 0.42767 0.96687 0.13467 0.0
O254 O 0.41172 0.86357 0.25773 0.0
O255 O 0.44647 0.00906 0.22869 0.0
O256 O 0.47335 0.92648 0.39531 0.0
O257 O 0.36423 0.92289 0.29458 0.0
O258 O 0.47892 0.97909 0.3524 0.0
O259 O 0.39487 0.99421 0.26232 0.0
O260 O 0.39926 0.91039 0.37724 0.0
O261 O 0.47732 0.9445 0.1597 0.0
O262 O 0.48518 0.87806 0.26807 0.0
O263 O 0.39939 0.89741 0.17265 0.0
Sc264 Sc 0.2178 0.26965 0.54051 0.0
Sc265 Sc 0.18678 0.34596 0.58756 0.0
Sc266 Sc 0.14843 0.30287 0.4618 0.0
O267 O 0.1853 0.30711 0.52669 0.0
C268 C 0.217 0.27186 0.39281 0.0
C269 C 0.26126 0.33878 0.56626 0.0
C270 C 0.15896 0.37815 0.45196 0.0
C271 C 0.2056 0.28356 0.67936 0.0
C272 C 0.1494 0.23132 0.52347 0.0
C273 C 0.11123 0.33269 0.58939 0.0
O274 O 0.23507 0.2746 0.4438 0.0
O275 O 0.23619 0.35789 0.55218 0.0
O276 O 0.16249 0.35051 0.42064 0.0
O277 O 0.19718 0.2637 0.63434 0.0
O278 O 0.13206 0.25697 0.5066 0.0
O279 O 0.13828 0.33218 0.62287 0.0
O280 O 0.1815 0.23018 0.51338 0.0
O281 O 0.20962 0.31544 0.66784 0.0
O282 O 0.11117 0.32851 0.5273 0.0
O283 O 0.25767 0.30632 0.57268 0.0
O284 O 0.18443 0.27713 0.39308 0.0
O285 O 0.16306 0.37989 0.51392 0.0
Sc286 Sc 0.97794 0.96876 0.282 0.0
Sc287 Sc 0.90386 0.93342 0.33178 0.0
Sc288 Sc 0.94892 0.89641 0.20734 0.0
O289 O 0.94247 0.93384 0.27061 0.0
C290 C 0.97589 0.96521 0.13537 0.0
C291 C 0.90658 0.00805 0.31127 0.0
C292 C 0.87361 0.90399 0.19529 0.0
C293 C 0.96573 0.95654 0.42223 0.0
C294 C 0.01929 0.90223 0.27073 0.0
C295 C 0.91912 0.85863 0.33306 0.0
O296 O 0.97086 0.98429 0.18437 0.0
O297 O 0.88899 0.98194 0.2972 0.0
O298 O 0.9014 0.90821 0.16451 0.0
O299 O 0.98622 0.95043 0.37676 0.0
O300 O 0.99481 0.88289 0.25521 0.0
O301 O 0.92045 0.88558 0.36664 0.0
O302 O 0.01885 0.93383 0.25568 0.0
O303 O 0.9335 0.95788 0.41173 0.0
O304 O 0.92306 0.85877 0.27106 0.0
O305 O 0.93935 0.00663 0.31427 0.0
O306 O 0.97425 0.93239 0.13881 0.0
O307 O 0.87101 0.90889 0.25708 0.0
Sc308 Sc 0.3474 0.69759 0.95853 0.0
Sc309 Sc 0.31163 0.65506 0.0875 0.0
Sc310 Sc 0.27684 0.72914 0.03659 0.0
O311 O 0.31069 0.69275 0.02407 0.0
C312 C 0.34424 0.76868 0.02094 0.0
C313 C 0.38633 0.669 0.08469 0.0
C314 C 0.28928 0.71763 0.17634 0.0
C315 C 0.33876 0.62237 0.95131 0.0
C316 C 0.27808 0.72555 0.8888 0.0
C317 C 0.23675 0.65824 0.06844 0.0
O318 O 0.36262 0.7439 0.0032 0.0
O319 O 0.35993 0.67214 0.1195 0.0
O320 O 0.2968 0.73734 0.1305 0.0
O321 O 0.33418 0.64959 0.91904 0.0
O322 O 0.25999 0.72252 0.9398 0.0
O323 O 0.2627 0.64005 0.05585 0.0
O324 O 0.31086 0.72213 0.88968 0.0
O325 O 0.33544 0.62111 0.01361 0.0
O326 O 0.23831 0.69106 0.0698 0.0
O327 O 0.38536 0.67212 0.02249 0.0
O328 O 0.31233 0.7692 0.00846 0.0
O329 O 0.28751 0.68541 0.16672 0.0
Sc330 Sc 0.54984 0.0948 0.7102 0.0
Sc331 Sc 0.59592 0.0545 0.83074 0.0
Sc332 Sc 0.51655 0.02682 0.79331 0.0
O333 O 0.55478 0.05782 0.77454 0.0
C334 C 0.47896 0.09673 0.77763 0.0
C335 C 0.58394 0.13042 0.83614 0.0
C336 C 0.53636 0.03447 0.9273 0.0
C337 C 0.62478 0.08331 0.69377 0.0
C338 C 0.5153 0.02727 0.64407 0.0
C339 C 0.58536 0.98103 0.8095 0.0
O340 O 0.50475 0.11269 0.75679 0.0
O341 O 0.58512 0.10306 0.86892 0.0
O342 O 0.51705 0.04806 0.88659 0.0
O343 O 0.59637 0.07958 0.66528 0.0
O344 O 0.51578 0.00959 0.69593 0.0
O345 O 0.60474 0.00525 0.79155 0.0
O346 O 0.52293 0.05931 0.64303 0.0
O347 O 0.62807 0.07886 0.75531 0.0
O348 O 0.55324 0.98568 0.81919 0.0
O349 O 0.57679 0.13128 0.77499 0.0
O350 O 0.4768 0.06433 0.77551 0.0
O351 O 0.56795 0.03052 0.91362 0.0
C352 C 0.17299 0.14777 0.96439 0.0
C353 C 0.20699 0.13735 0.95738 0.0
C354 C 0.14678 0.13111 0.93038 0.0
C355 C 0.15375 0.10407 0.88675 0.0
H356 H 0.16664 0.16888 -0.00377 0.0
H357 H 0.12089 0.14023 0.93696 0.0
S358 S 0.239 0.06852 0.8485 0.0
N359 N 0.24654 0.09882 0.90245 0.0
N360 N 0.19724 0.06831 0.83761 0.0
C361 C 0.18771 0.09375 0.87877 0.0
C362 C 0.21432 0.11017 0.91433 0.0
C363 C 0.61629 0.39384 0.17951 0.0
C364 C 0.64249 0.40178 0.13445 0.0
C365 C 0.59872 0.41943 0.21348 0.0
C366 C 0.60739 0.45376 0.20496 0.0
H367 H 0.60858 0.3676 0.18735 0.0
H368 H 0.57835 0.41233 0.24658 0.0
S369 S 0.67332 0.48825 0.09223 0.0
N370 N 0.67534 0.4465 0.08206 0.0
N371 N 0.6434 0.49471 0.14761 0.0
C372 C 0.63365 0.4621 0.16047 0.0
C373 C 0.6509 0.43609 0.12471 0.0
C374 C 0.35082 0.8654 0.42678 0.0
C375 C 0.34235 0.89476 0.39 0.0
C376 C 0.32594 0.8467 0.46052 0.0
C377 C 0.29181 0.85717 0.46015 0.0
H378 H 0.37691 0.85624 0.42838 0.0
H379 H 0.33348 0.8241 0.48734 0.0
S380 S 0.256 0.93149 0.37011 0.0
N381 N 0.29728 0.93258 0.35368 0.0
N382 N 0.25038 0.89828 0.41853 0.0
C383 C 0.28292 0.88648 0.42358 0.0
C384 C 0.3082 0.90504 0.38807 0.0
C385 C 0.8796 0.59704 0.6774 0.0
C386 C 0.85138 0.59084 0.63615 0.0
C387 C 0.89631 0.57035 0.70989 0.0
C388 C 0.88482 0.53667 0.70371 0.0
H389 H 0.88967 0.62262 0.68294 0.0
H390 H 0.91841 0.57607 0.73969 0.0
S391 S 0.81219 0.5068 0.60167 0.0
N392 N 0.81298 0.54852 0.59074 0.0
N393 N 0.84365 0.49834 0.65264 0.0
C394 C 0.85629 0.53017 0.66341 0.0
C395 C 0.83976 0.55725 0.6294 0.0
C396 C 0.7864 0.88305 0.12698 0.0
C397 C 0.79268 0.85355 0.08912 0.0
C398 C 0.81247 0.89905 0.16232 0.0
C399 C 0.84591 0.88661 0.15983 0.0
H400 H 0.76087 0.89351 0.13069 0.0
H401 H 0.80653 0.92148 0.19099 0.0
S402 S 0.87578 0.80969 0.07069 0.0
N403 N 0.83461 0.81198 0.05369 0.0
N404 N 0.88406 0.84256 0.11853 0.0
C405 C 0.85264 0.85715 0.12245 0.0
C406 C 0.82592 0.84047 0.08752 0.0
C407 C 0.35683 0.54055 0.86036 0.0
C408 C 0.3916 0.54407 0.84229 0.0
C409 C 0.33999 0.56542 0.89746 0.0
C410 C 0.35708 0.59494 0.91716 0.0
H411 H 0.34245 0.51799 0.84708 0.0
H412 H 0.31337 0.5617 0.91014 0.0
S413 S 0.44724 0.6177 0.88219 0.0
N414 N 0.44212 0.58004 0.84745 0.0
N415 N 0.40998 0.62735 0.91507 0.0
C416 C 0.39144 0.59932 0.89874 0.0
C417 C 0.40883 0.57375 0.86191 0.0
C418 C 0.66602 0.08878 0.60155 0.0
C419 C 0.65095 0.10261 0.65761 0.0
C420 C 0.68875 0.10815 0.56365 0.0
C421 C 0.69651 0.14239 0.57941 0.0
H422 H 0.66056 0.06271 0.58745 0.0
H423 H 0.70104 0.0959 0.52255 0.0
S424 S 0.65846 0.19186 0.71561 0.0
N425 N 0.64217 0.15324 0.72342 0.0
N426 N 0.68392 0.19011 0.65152 0.0
C427 C 0.67968 0.15706 0.63317 0.0
C428 C 0.65724 0.13702 0.67251 0.0
C429 C 0.15813 0.4306 0.38312 0.0
C430 C 0.14043 0.40552 0.41795 0.0
C431 C 0.14041 0.45521 0.34676 0.0
C432 C 0.10426 0.45562 0.34384 0.0
H433 H 0.18579 0.43123 0.38401 0.0
H434 H 0.15533 0.47454 0.32197 0.0
S435 S 0.04659 0.39262 0.42246 0.0
N436 N 0.08536 0.38046 0.4438 0.0
N437 N 0.05187 0.42683 0.37654 0.0
C438 C 0.08647 0.42966 0.37687 0.0
C439 C 0.10461 0.40463 0.41371 0.0
C440 C 0.64354 0.63184 0.42806 0.0
C441 C 0.65187 0.60348 0.38858 0.0
C442 C 0.66872 0.64996 0.46211 0.0
C443 C 0.70293 0.63974 0.45929 0.0
H444 H 0.6174 0.64076 0.43124 0.0
H445 H 0.66141 0.67196 0.49086 0.0
S446 S 0.73814 0.56747 0.3628 0.0
N447 N 0.69672 0.56655 0.34795 0.0
N448 N 0.7441 0.59969 0.41332 0.0
C449 C 0.71157 0.61122 0.4205 0.0
C450 C 0.68603 0.59333 0.38475 0.0
C451 C 0.15708 0.93337 0.65137 0.0
C452 C 0.14269 0.90094 0.6441 0.0
C453 C 0.14002 0.95869 0.68681 0.0
C454 C 0.1075 0.95272 0.71466 0.0
H455 H 0.1816 0.9392 0.62952 0.0
H456 H 0.15193 0.98358 0.69013 0.0
S457 S 0.05844 0.87211 0.70692 0.0
N458 N 0.09412 0.86392 0.66691 0.0
N459 N 0.06163 0.91207 0.73168 0.0
C460 C 0.09287 0.92036 0.7075 0.0
C461 C 0.11057 0.89433 0.67269 0.0
C462 C 0.82493 0.39823 0.93052 0.0
C463 C 0.83975 0.38465 0.87397 0.0
C464 C 0.8003 0.37974 0.96554 0.0
C465 C 0.7904 0.3466 0.94637 0.0
H466 H 0.83204 0.42349 0.94713 0.0
H467 H 0.78844 0.39178 0.00735 0.0
S468 S 0.82599 0.29805 0.80648 0.0
N469 N 0.84539 0.3354 0.80321 0.0
N470 N 0.79998 0.30007 0.86977 0.0
C471 C 0.80662 0.33211 0.8917 0.0
C472 C 0.83102 0.35132 0.85525 0.0
C473 C 0.36897 0.06059 0.23193 0.0
C474 C 0.39916 0.04608 0.20686 0.0
C475 C 0.34963 0.0839 0.19518 0.0
C476 C 0.35888 0.09224 0.13086 0.0
H477 H 0.36003 0.05357 0.28009 0.0
H478 H 0.32706 0.09517 0.21687 0.0
S479 S 0.43584 0.06229 0.04286 0.0
N480 N 0.4382 0.04363 0.11477 0.0
N481 N 0.40042 0.08508 0.04431 0.0
C482 C 0.38888 0.07801 0.10527 0.0
C483 C 0.40941 0.0556 0.14363 0.0
C484 C 0.33176 0.36163 0.68417 0.0
C485 C 0.34049 0.39497 0.66513 0.0
C486 C 0.3082 0.34232 0.64829 0.0
C487 C 0.29175 0.35609 0.59332 0.0
H488 H 0.34372 0.35016 0.72647 0.0
H489 H 0.30201 0.31689 0.66506 0.0
S490 S 0.30831 0.44127 0.52049 0.0
N491 N 0.33358 0.43985 0.58488 0.0
N492 N 0.2877 0.40447 0.51928 0.0
C493 C 0.30113 0.38913 0.57284 0.0
C494 C 0.32585 0.40836 0.60837 0.0
C495 C 0.833 0.06088 0.37847 0.0
C496 C 0.8498 0.08746 0.41063 0.0
C497 C 0.8516 0.03638 0.34344 0.0
C498 C 0.88772 0.03752 0.33953 0.0
H499 H 0.8054 0.05909 0.38015 0.0
H500 H 0.83741 0.01596 0.32042 0.0
S501 S 0.94312 0.10384 0.4137 0.0
N502 N 0.90395 0.1149 0.43461 0.0
N503 N 0.93904 0.06881 0.36977 0.0
C504 C 0.90456 0.06473 0.3705 0.0
C505 C 0.88556 0.08965 0.40588 0.0
C506 C 0.18623 0.59344 0.16663 0.0
C507 C 0.1526 0.60512 0.16117 0.0
C508 C 0.21293 0.61036 0.13458 0.0
C509 C 0.20712 0.64016 0.09727 0.0
H510 H 0.19191 0.57099 0.19551 0.0
H511 H 0.23855 0.60044 0.14063 0.0
S512 S 0.12362 0.68225 0.07153 0.0
N513 N 0.11472 0.64872 0.11732 0.0
N514 N 0.16526 0.68106 0.05875 0.0
C515 C 0.17364 0.65242 0.09247 0.0
C516 C 0.1463 0.63475 0.12396 0.0
C517 C 0.61411 0.91971 0.94075 0.0
C518 C 0.64341 0.90474 0.91323 0.0
C519 C 0.59392 0.94259 0.90487 0.0
C520 C 0.60265 0.95174 0.84059 0.0
H521 H 0.60623 0.91303 0.98977 0.0
H522 H 0.57202 0.9541 0.92851 0.0
S523 S 0.6768 0.91961 0.74652 0.0
N524 N 0.67967 0.89999 0.81759 0.0
N525 N 0.64261 0.9442 0.75123 0.0
C526 C 0.63192 0.93702 0.81273 0.0
C527 C 0.65204 0.9132 0.84873 0.0
C528 C 0.43768 0.13302 0.92904 0.0
C529 C 0.41189 0.15391 0.90371 0.0
C530 C 0.45872 0.11395 0.8874 0.0
C531 C 0.45524 0.11595 0.81919 0.0
H532 H 0.44048 0.13007 0.98113 0.0
H533 H 0.47777 0.09752 0.90894 0.0
S534 S 0.3977 0.17369 0.7286 0.0
N535 N 0.38795 0.17999 0.806 0.0
N536 N 0.42856 0.14495 0.72827 0.0
C537 C 0.43214 0.13945 0.79327 0.0
C538 C 0.41031 0.1584 0.83545 0.0
C539 C 0.63762 0.65152 0.12601 0.0
C540 C 0.60658 0.65761 0.15895 0.0
C541 C 0.65106 0.67497 0.0815 0.0
C542 C 0.63386 0.70547 0.06745 0.0
H543 H 0.65146 0.62792 0.1339 0.0
H544 H 0.67498 0.66892 0.05759 0.0
S545 S 0.55237 0.73443 0.14377 0.0
N546 N 0.55961 0.69668 0.17686 0.0
N547 N 0.58454 0.74138 0.09337 0.0
C548 C 0.60305 0.71234 0.10153 0.0
C549 C 0.58956 0.68835 0.14741 0.0
C550 C 0.0409 0.85494 0.34193 0.0
C551 C 0.04503 0.88841 0.31689 0.0
C552 C 0.06312 0.84155 0.38898 0.0
C553 C 0.09032 0.86108 0.41247 0.0
H554 H 0.02036 0.8387 0.32502 0.0
H555 H 0.0599 0.81536 0.40483 0.0
S556 S 0.11146 0.9504 0.36785 0.0
N557 N 0.07766 0.94117 0.32316 0.0
N558 N 0.11974 0.91566 0.41052 0.0
C559 C 0.09435 0.8947 0.38951 0.0
C560 C 0.07167 0.90845 0.34202 0.0
C561 C 0.84574 0.31462 0.58871 0.0
C562 C 0.86339 0.28516 0.56904 0.0
C563 C 0.86021 0.33752 0.63302 0.0
C564 C 0.89276 0.33186 0.65996 0.0
H565 H 0.82059 0.32023 0.56958 0.0
H566 H 0.84606 0.36042 0.64529 0.0
S567 S 0.94948 0.25844 0.6276 0.0
N568 N 0.91533 0.25114 0.58247 0.0
N569 N 0.94213 0.29486 0.66558 0.0
C570 C 0.91051 0.30237 0.64243 0.0
C571 C 0.89596 0.27892 0.59688 0.0
C572 C 0.59664 0.87171 0.179 0.0
C573 C 0.58747 0.85015 0.12662 0.0
C574 C 0.57217 0.88593 0.22022 0.0
C575 C 0.53752 0.87881 0.21142 0.0
H576 H 0.62318 0.8777 0.1886 0.0
H577 H 0.5805 0.90217 0.25986 0.0
S578 S 0.49953 0.82743 0.07759 0.0
N579 N 0.54113 0.82473 0.06518 0.0
N580 N 0.49459 0.85136 0.14321 0.0
C581 C 0.52768 0.85827 0.15806 0.0
C582 C 0.55278 0.84407 0.11535 0.0
C583 C 0.34863 0.3226 0.95684 0.0
C584 C 0.36284 0.29 0.9637 0.0
C585 C 0.36309 0.34642 0.91421 0.0
C586 C 0.39194 0.3384 0.87597 0.0
H587 H 0.32661 0.33005 0.98549 0.0
H588 H 0.35192 0.3717 0.91201 0.0
S589 S 0.43686 0.25554 0.87027 0.0
N590 N 0.40617 0.24999 0.92454 0.0
N591 N 0.43299 0.29527 0.84438 0.0
C592 C 0.40554 0.30555 0.87984 0.0
C593 C 0.39113 0.28125 0.92389 0.0
C594 C 0.89463 0.11803 0.68454 0.0
C595 C 0.90278 0.13783 0.62889 0.0
C596 C 0.91995 0.10364 0.72378 0.0
C597 C 0.95441 0.10895 0.70965 0.0
H598 H 0.8683 0.11336 0.69815 0.0
H599 H 0.91249 0.08884 0.76609 0.0
S600 S 0.98985 0.15542 0.56698 0.0
N601 N 0.94808 0.15968 0.55956 0.0
N602 N 0.99598 0.13289 0.63403 0.0
C603 C 0.96318 0.12782 0.6535 0.0
C604 C 0.9373 0.14214 0.61286 0.0
C605 C 0.13053 0.6699 0.36063 0.0
C606 C 0.09503 0.66515 0.36415 0.0
C607 C 0.14756 0.69084 0.40545 0.0
C608 C 0.12959 0.70768 0.45539 0.0
H609 H 0.14543 0.65597 0.32494 0.0
H610 H 0.17493 0.69402 0.40059 0.0
S611 S 0.03611 0.70275 0.48543 0.0
N612 N 0.04247 0.67804 0.42139 0.0
N613 N 0.074 0.71817 0.50505 0.0
C614 C 0.09387 0.70338 0.45863 0.0
C615 C 0.07671 0.68187 0.41323 0.0
C616 C 0.93695 0.63697 0.41664 0.0
C617 C 0.90479 0.64684 0.39313 0.0
C618 C 0.96064 0.621 0.37526 0.0
C619 C 0.95258 0.61377 0.3098 0.0
H620 H 0.94335 0.64031 0.46758 0.0
H621 H 0.9852 0.61357 0.39491 0.0
S622 S 0.87516 0.64038 0.22087 0.0
N623 N 0.86874 0.65324 0.29648 0.0
N624 N 0.91289 0.62159 0.22095 0.0
C625 C 0.92174 0.6254 0.28455 0.0
C626 C 0.89795 0.64239 0.32575 0.0
C627 C 0.15146 0.17657 0.58569 0.0
C628 C 0.13278 0.20524 0.56537 0.0
C629 C 0.1376 0.15324 0.6299 0.0
C630 C 0.1048 0.15788 0.65655 0.0
H631 H 0.17702 0.17203 0.56746 0.0
H632 H 0.15263 0.13105 0.64301 0.0
S633 S 0.04492 0.22815 0.62021 0.0
N634 N 0.07903 0.23667 0.57568 0.0
N635 N 0.05383 0.19269 0.66016 0.0
C636 C 0.0859 0.18644 0.63792 0.0
C637 C 0.09965 0.21008 0.59183 0.0
C638 C 0.5582 0.33465 0.8835 0.0
C639 C 0.5809 0.35423 0.92065 0.0
C640 C 0.53748 0.34997 0.83598 0.0
C641 C 0.53909 0.3854 0.82305 0.0
H642 H 0.55753 0.30716 0.88919 0.0
H643 H 0.52037 0.33369 0.80857 0.0
S644 S 0.5948 0.44761 0.90873 0.0
N645 N 0.60417 0.41046 0.94225 0.0
N646 N 0.56502 0.43955 0.8539 0.0
C647 C 0.56152 0.40524 0.86096 0.0
C648 C 0.58244 0.38957 0.90943 0.0
C649 C 0.3417 0.82407 0.0813 0.0
C650 C 0.35923 0.79377 0.06698 0.0
C651 C 0.35451 0.84716 0.12714 0.0
C652 C 0.38499 0.84061 0.16144 0.0
H653 H 0.3181 0.83025 0.05642 0.0
H654 H 0.34069 0.87076 0.13509 0.0
S655 S 0.43985 0.76442 0.14571 0.0
N656 N 0.4085 0.75792 0.0934 0.0
N657 N 0.43174 0.80153 0.18035 0.0
C658 C 0.40222 0.81007 0.14968 0.0
C659 C 0.38962 0.78667 0.10209 0.0
C660 C 0.07219 0.38025 0.61565 0.0
C661 C 0.08143 0.34591 0.6244 0.0
C662 C 0.05169 0.39713 0.66151 0.0
C663 C 0.03953 0.38014 0.71738 0.0
H664 H 0.08246 0.39472 0.57515 0.0
H665 H 0.04509 0.42358 0.6528 0.0
S666 S 0.05756 0.29042 0.76338 0.0
N667 N 0.07826 0.29598 0.69402 0.0
N668 N 0.03822 0.32702 0.77859 0.0
C669 C 0.04823 0.34565 0.72603 0.0
C670 C 0.06957 0.32873 0.68 0.0
C671 C 0.84981 0.80436 0.40361 0.0
C672 C 0.8659 0.78986 0.45835 0.0
C673 C 0.86834 0.82399 0.35862 0.0
C674 C 0.9035 0.82969 0.3668 0.0
H675 H 0.82284 0.80019 0.39497 0.0
H676 H 0.85477 0.83623 0.31899 0.0
S677 S 0.95764 0.79806 0.50162 0.0
N678 N 0.91928 0.78258 0.51762 0.0
N679 N 0.95362 0.82017 0.43352 0.0
C680 C 0.9199 0.81531 0.42082 0.0
C681 C 0.90123 0.79519 0.46642 0.0
C682 C 0.42982 0.66755 0.17175 0.0
C683 C 0.41486 0.65186 0.11737 0.0
C684 C 0.45043 0.64904 0.21479 0.0
C685 C 0.45563 0.61374 0.20668 0.0
H686 H 0.42455 0.69406 0.18238 0.0
H687 H 0.46196 0.66241 0.25542 0.0
S688 S 0.41954 0.56017 0.07447 0.0
N689 N 0.40539 0.59898 0.05877 0.0
N690 N 0.44332 0.56366 0.14058 0.0
C691 C 0.44029 0.59759 0.15293 0.0
C692 C 0.42012 0.61678 0.10805 0.0
C693 C 0.63309 0.15881 0.88662 0.0
C694 C 0.59838 0.16007 0.86953 0.0
C695 C 0.64669 0.18087 0.93339 0.0
C696 C 0.62599 0.20493 0.96544 0.0
H697 H 0.64962 0.13959 0.86544 0.0
H698 H 0.67364 0.17881 0.94461 0.0
S699 S 0.53304 0.2183 0.93683 0.0
N700 N 0.54346 0.18688 0.88703 0.0
N701 N 0.56864 0.22905 0.97483 0.0
C702 C 0.59114 0.20684 0.94753 0.0
C703 C 0.57742 0.18425 0.89961 0.0
C704 C 0.2351 0.25175 0.21462 0.0
C705 C 0.26883 0.23876 0.21529 0.0
C706 C 0.21858 0.26237 0.27174 0.0
C707 C 0.23499 0.26063 0.33235 0.0
H708 H 0.22106 0.25391 0.16935 0.0
H709 H 0.19277 0.27214 0.26813 0.0
S710 S 0.32307 0.22772 0.36167 0.0
N711 N 0.31778 0.22431 0.28221 0.0
N712 N 0.28714 0.24408 0.38977 0.0
C713 C 0.26882 0.24764 0.33391 0.0
C714 C 0.2856 0.23683 0.27549 0.0
C715 C 0.48206 0.5174 0.56558 0.0
C716 C 0.48515 0.48167 0.57381 0.0
C717 C 0.49286 0.53387 0.50825 0.0
C718 C 0.5072 0.51533 0.45652 0.0
H719 H 0.47102 0.53296 0.60378 0.0
H720 H 0.48944 0.56121 0.50417 0.0
S721 S 0.5233 0.42155 0.45485 0.0
N722 N 0.50498 0.42863 0.52597 0.0
N723 N 0.52557 0.45913 0.41883 0.0
C724 C 0.51094 0.47959 0.46453 0.0
C725 C 0.49979 0.46289 0.52278 0.0
C726 C 0.2602 0.74155 0.70904 0.0
C727 C 0.22592 0.75297 0.70818 0.0
C728 C 0.27678 0.73271 0.76716 0.0
C729 C 0.25987 0.73468 0.82733 0.0
H730 H 0.27475 0.73957 0.66429 0.0
H731 H 0.30309 0.72427 0.76472 0.0
S732 S 0.16989 0.76297 0.85265 0.0
N733 N 0.17567 0.76562 0.77317 0.0
N734 N 0.20641 0.74899 0.88251 0.0
C735 C 0.22537 0.74569 0.82731 0.0
C736 C 0.20853 0.75477 0.76788 0.0
C737 C 0.00592 0.52767 0.01862 0.0
C738 C 0.00706 0.51048 0.07857 0.0
C739 C 0.99534 0.51102 0.9616 0.0
C740 C 0.98529 0.47631 0.96159 0.0
H741 H 0.01333 0.55426 0.01543 0.0
H742 H 0.9952 0.52576 0.91694 0.0
S743 S 0.98274 0.41949 0.10605 0.0
N744 N 0.99656 0.45635 0.13453 0.0
N745 N 0.97681 0.4255 0.02732 0.0
C746 C 0.98619 0.45875 0.02116 0.0
C747 C 0.99699 0.47567 0.07946 0.0
C748 C 0.76724 0.76488 0.81388 0.0
C749 C 0.73164 0.76014 0.82208 0.0
C750 C 0.78447 0.75344 0.75789 0.0
C751 C 0.7668 0.73681 0.70771 0.0
H752 H 0.78205 0.77776 0.85103 0.0
H753 H 0.81158 0.75839 0.75329 0.0
S754 S 0.67408 0.71528 0.7073 0.0
N755 N 0.67987 0.736 0.7764 0.0
N756 N 0.71188 0.71414 0.67174 0.0
C757 C 0.7313 0.73121 0.71595 0.0
C758 C 0.71381 0.74304 0.77274 0.0
C759 C 0.71106 0.2414 0.25906 0.0
C760 C 0.72883 0.25671 0.20743 0.0
C761 C 0.72833 0.23012 0.31487 0.0
C762 C 0.7641 0.23375 0.3217 0.0
H763 H 0.68371 0.23755 0.25601 0.0
H764 H 0.71332 0.21836 0.35316 0.0
S765 S 0.82239 0.27405 0.20208 0.0
N766 N 0.78434 0.27624 0.16777 0.0
N767 N 0.81642 0.2548 0.27272 0.0
C768 C 0.78219 0.24917 0.27067 0.0
C769 C 0.76464 0.2608 0.21376 0.0
C770 C 0.98989 0.03455 0.00798 0.0
C771 C 0.01187 0.01876 0.96322 0.0
C772 C 0.97789 0.01672 0.06286 0.0
C773 C 0.98728 0.98243 0.07478 0.0
H774 H 0.98105 0.06036 -0.00046 0.0
H775 H 0.96076 0.02982 0.09591 0.0
S776 S 0.0474 0.93092 0.97597 0.0
N777 N 0.04491 0.96778 0.93736 0.0
N778 N 0.02188 0.93446 0.03963 0.0
C779 C 0.00996 0.96675 0.03129 0.0
C780 C 0.02245 0.98491 0.97595 0.0
C781 C 0.51434 0.02338 0.52216 0.0
C782 C 0.50595 0.00916 0.58283 0.0
C783 C 0.50679 0.00622 0.46408 0.0
C784 C 0.49036 0.97408 0.46382 0.0
H785 H 0.52711 0.04786 0.51931 0.0
H786 H 0.51385 0.01855 0.41876 0.0
S787 S 0.46203 0.92591 0.60957 0.0
N788 N 0.4797 0.96086 0.63917 0.0
N789 N 0.46561 0.92894 0.52964 0.0
C790 C 0.48197 0.9594 0.52405 0.0
C791 C 0.48964 0.97686 0.58349 0.0
C792 C 0.253 0.27865 0.75861 0.0
C793 C 0.22178 0.26643 0.73525 0.0
C794 C 0.27391 0.25808 0.79727 0.0
C795 C 0.26399 0.22478 0.81591 0.0
H796 H 0.262 0.30375 0.74489 0.0
H797 H 0.29793 0.26872 0.81392 0.0
S798 S 0.18254 0.18226 0.77313 0.0
N799 N 0.1807 0.21966 0.73607 0.0
N800 N 0.21961 0.18152 0.81143 0.0
C801 C 0.23226 0.2126 0.79462 0.0
C802 C 0.21111 0.23343 0.75433 0.0
C803 C 0.47912 0.5139 0.98162 0.0
C804 C 0.48058 0.47822 0.97785 0.0
C805 C 0.50275 0.53208 0.01917 0.0
C806 C 0.52881 0.51526 0.05399 0.0
H807 H 0.46026 0.52793 0.9538 0.0
H808 H 0.49977 0.5595 0.02333 0.0
S809 S 0.54376 0.42195 0.05883 0.0
N810 N 0.51059 0.42663 0.00991 0.0
N811 N 0.55461 0.46085 0.08188 0.0
C812 C 0.531 0.47963 0.04931 0.0
C813 C 0.50688 0.46111 0.01117 0.0
C814 C 0.26619 0.786 0.29754 0.0
C815 C 0.23112 0.78027 0.30684 0.0
C816 C 0.28569 0.76378 0.25875 0.0
C817 C 0.271 0.73461 0.22973 0.0
H818 H 0.2789 0.80678 0.32254 0.0
H819 H 0.31244 0.76957 0.2508 0.0
S820 S 0.17962 0.71038 0.23433 0.0
N821 N 0.18198 0.7451 0.27962 0.0
N822 N 0.21894 0.70285 0.20913 0.0
C823 C 0.23591 0.72912 0.23772 0.0
C824 C 0.21592 0.75218 0.27529 0.0
C825 C 0.02526 0.48879 0.49692 0.0
C826 C 0.01467 0.52183 0.48033 0.0
C827 C 0.00454 0.4677 0.53534 0.0
C828 C 0.97255 0.47887 0.55902 0.0
H829 H 0.04904 0.47867 0.47808 0.0
H830 H 0.01397 0.44253 0.54781 0.0
S831 S 0.93386 0.56385 0.53131 0.0
N832 N 0.97048 0.56512 0.49136 0.0
N833 N 0.93185 0.52549 0.56439 0.0
C834 C 0.96174 0.51188 0.54298 0.0
C835 C 0.98284 0.5334 0.50393 0.0
C836 C 0.71227 0.73589 0.25503 0.0
C837 C 0.72856 0.76384 0.22475 0.0
C838 C 0.73051 0.713 0.29442 0.0
C839 C 0.76581 0.71692 0.30341 0.0
H840 H 0.6852 0.73157 0.24763 0.0
H841 H 0.71667 0.69325 0.32039 0.0
S842 S 0.82112 0.78306 0.22833 0.0
N843 N 0.78231 0.79242 0.20254 0.0
N844 N 0.81684 0.74904 0.27514 0.0
C845 C 0.78258 0.74377 0.27083 0.0
C846 C 0.76391 0.76745 0.23224 0.0
C847 C 0.74207 0.21052 0.76562 0.0
C848 C 0.75964 0.22774 0.71635 0.0
C849 C 0.7224 0.22849 0.81083 0.0
C850 C 0.71961 0.26457 0.80904 0.0
H851 H 0.74347 0.18298 0.76941 0.0
H852 H 0.70979 0.21367 0.84835 0.0
S853 S 0.75883 0.32194 0.68695 0.0
N854 N 0.77158 0.28334 0.6661 0.0
N855 N 0.73482 0.31657 0.75221 0.0
C856 C 0.7364 0.28211 0.75925 0.0
C857 C 0.75641 0.26388 0.71282 0.0
C858 C 0.97305 0.00657 0.49409 0.0
C859 C 0.98187 0.97289 0.4787 0.0
C860 C 0.99418 0.02643 0.53388 0.0
C861 C 0.02481 0.01331 0.56025 0.0
H862 H 0.95043 0.01811 0.47315 0.0
H863 H 0.98599 0.05213 0.54567 0.0
S864 S 0.05859 0.92599 0.5358 0.0
N865 N 0.02309 0.92702 0.49238 0.0
N866 N 0.06224 0.96414 0.56926 0.0
C867 C 0.03389 0.97963 0.54521 0.0
C868 C 0.01244 0.95944 0.50433 0.0
C869 C 0.4877 -0.00244 0.9598 0.0
C870 C 0.51881 0.01376 0.97673 0.0
C871 C 0.46758 0.98091 0.00636 0.0
C872 C 0.47798 0.97988 0.07131 0.0
H873 H 0.47862 -0.002 0.90994 0.0
H874 H 0.44412 0.96854 0.99141 0.0
S875 S 0.55665 0.01903 0.14097 0.0
N876 N 0.55867 0.02796 0.06243 0.0
N877 N 0.52108 0.99701 0.15104 0.0
C878 C 0.50914 0.9959 0.08887 0.0
C879 C 0.5296 0.01264 0.04125 0.0
loop_
_geom_bond_atom_site_label_1
_geom_bond_atom_site_label_2
_geom_bond_distance
_geom_bond_site_symmetry_2
_ccdc_geom_bond_type
Sc0 O3 2.025 . S
Sc0 O10 2.105 . S
Sc0 O13 2.105 . S
Sc0 O16 2.105 . S
Sc0 O19 2.105 1_554 S
Sc1 O3 2.025 1_556 S
Sc1 O11 2.105 . S
Sc1 O15 2.105 1_556 S
Sc1 O17 2.105 . S
Sc1 O21 2.105 . S
Sc2 O3 2.025 . S
Sc2 O12 2.105 . S
Sc2 O14 2.105 . S
Sc2 O18 2.105 . S
Sc2 O20 2.105 . S
O3 Sc0 2.025 . S
O3 Sc1 2.025 1_554 S
O3 Sc2 2.025 . S
C4 O10 1.268 . S
C4 O20 1.268 . S
C5 O11 1.268 . S
C5 O19 1.268 . S
C6 O12 1.268 1_556 S
C6 O21 1.268 . S
C7 O13 1.268 . S
C7 O17 1.268 1_554 S
C8 O14 1.268 . S
C8 O16 1.268 . S
C9 O15 1.268 . S
C9 O18 1.268 . S
O10 Sc0 2.105 . S
O10 C4 1.268 . S
O11 Sc1 2.105 . S
O11 C5 1.268 . S
O12 Sc2 2.105 . S
O12 C6 1.268 1_554 S
O13 Sc0 2.105 . S
O13 C7 1.268 . S
O14 Sc2 2.105 . S
O14 C8 1.268 . S
O15 Sc1 2.105 1_554 S
O15 C9 1.268 . S
O16 Sc0 2.105 . S
O16 C8 1.268 . S
O17 Sc1 2.105 . S
O17 C7 1.268 1_556 S
O18 Sc2 2.105 . S
O18 C9 1.268 . S
O19 Sc0 2.105 1_556 S
O19 C5 1.268 . S
O20 Sc2 2.105 . S
O20 C4 1.268 . S
O21 Sc1 2.105 . S
O21 C6 1.268 . S
Sc22 O25 2.025 . S
Sc22 O32 2.105 . S
Sc22 O35 2.105 . S
Sc22 O38 2.105 . S
Sc22 O41 2.105 . S
Sc23 O25 2.025 . S
Sc23 O33 2.105 . S
Sc23 O37 2.105 . S
Sc23 O39 2.105 . S
Sc23 O43 2.105 . S
Sc24 O25 2.025 . S
Sc24 O34 2.105 . S
Sc24 O36 2.105 . S
Sc24 O40 2.105 . S
Sc24 O42 2.105 . S
O25 Sc22 2.025 . S
O25 Sc23 2.025 . S
O25 Sc24 2.025 . S
C26 O32 1.268 . S
C26 O42 1.268 . S
C27 O33 1.268 . S
C27 O41 1.268 . S
C28 O34 1.268 . S
C28 O43 1.268 . S
C29 O35 1.268 . S
C29 O39 1.268 . S
C30 O36 1.268 . S
C30 O38 1.268 . S
C31 O37 1.268 . S
C31 O40 1.268 . S
O32 Sc22 2.105 . S
O32 C26 1.268 . S
O33 Sc23 2.105 . S
O33 C27 1.268 . S
O34 Sc24 2.105 . S
O34 C28 1.268 . S
O35 Sc22 2.105 . S
O35 C29 1.268 . S
O36 Sc24 2.105 . S
O36 C30 1.268 . S
O37 Sc23 2.105 . S
O37 C31 1.268 . S
O38 Sc22 2.105 . S
O38 C30 1.268 . S
O39 Sc23 2.105 . S
O39 C29 1.268 . S
O40 Sc24 2.105 . S
O40 C31 1.268 . S
O41 Sc22 2.105 . S
O41 C27 1.268 . S
O42 Sc24 2.105 . S
O42 C26 1.268 . S
O43 Sc23 2.105 . S
O43 C28 1.268 . S
Sc44 O47 2.025 . S
Sc44 O54 2.105 . S
Sc44 O57 2.105 . S
Sc44 O60 2.105 . S
Sc44 O63 2.105 . S
Sc45 O47 2.025 . S
Sc45 O55 2.105 . S
Sc45 O59 2.105 . S
Sc45 O61 2.105 . S
Sc45 O65 2.105 . S
Sc46 O47 2.025 . S
Sc46 O56 2.105 . S
Sc46 O58 2.105 . S
Sc46 O62 2.105 . S
Sc46 O64 2.105 . S
O47 Sc44 2.025 . S
O47 Sc45 2.025 . S
O47 Sc46 2.025 . S
C48 O54 1.268 . S
C48 O64 1.268 . S
C49 O55 1.268 . S
C49 O63 1.268 . S
C50 O56 1.268 . S
C50 O65 1.268 . S
C51 O57 1.268 . S
C51 O61 1.268 . S
C52 O58 1.268 . S
C52 O60 1.268 . S
C53 O59 1.268 . S
C53 O62 1.268 . S
O54 Sc44 2.105 . S
O54 C48 1.268 . S
O55 Sc45 2.105 . S
O55 C49 1.268 . S
O56 Sc46 2.105 . S
O56 C50 1.268 . S
O57 Sc44 2.105 . S
O57 C51 1.268 . S
O58 Sc46 2.105 . S
O58 C52 1.268 . S
O59 Sc45 2.105 . S
O59 C53 1.268 . S
O60 Sc44 2.105 . S
O60 C52 1.268 . S
O61 Sc45 2.105 . S
O61 C51 1.268 . S
O62 Sc46 2.105 . S
O62 C53 1.268 . S
O63 Sc44 2.105 . S
O63 C49 1.268 . S
O64 Sc46 2.105 . S
O64 C48 1.268 . S
O65 Sc45 2.105 . S
O65 C50 1.268 . S
Sc66 O69 2.025 . S
Sc66 O76 2.105 1_655 S
Sc66 O79 2.105 . S
Sc66 O82 2.105 . S
Sc66 O85 2.105 . S
Sc67 O69 2.025 . S
Sc67 O77 2.105 . S
Sc67 O81 2.105 . S
Sc67 O83 2.105 . S
Sc67 O87 2.105 . S
Sc68 O69 2.025 . S
Sc68 O78 2.105 . S
Sc68 O80 2.105 . S
Sc68 O84 2.105 . S
Sc68 O86 2.103 1_655 S
O69 Sc66 2.025 . S
O69 Sc67 2.025 . S
O69 Sc68 2.025 . S
C70 O76 1.268 . S
C70 O86 1.270 . S
C71 O77 1.268 . S
C71 O85 1.268 . S
C72 O78 1.268 . S
C72 O87 1.268 . S
C73 O79 1.268 . S
C73 O83 1.268 . S
C74 O80 1.268 . S
C74 O82 1.268 . S
C75 O81 1.268 . S
C75 O84 1.268 . S
O76 Sc66 2.105 1_455 S
O76 C70 1.268 . S
O77 Sc67 2.105 . S
O77 C71 1.268 . S
O78 Sc68 2.105 . S
O78 C72 1.268 . S
O79 Sc66 2.105 . S
O79 C73 1.268 . S
O80 Sc68 2.105 . S
O80 C74 1.268 . S
O81 Sc67 2.105 . S
O81 C75 1.268 . S
O82 Sc66 2.105 . S
O82 C74 1.268 . S
O83 Sc67 2.105 . S
O83 C73 1.268 . S
O84 Sc68 2.105 . S
O84 C75 1.268 . S
O85 Sc66 2.105 . S
O85 C71 1.268 . S
O86 Sc68 2.103 1_455 S
O86 C70 1.270 . S
O87 Sc67 2.105 . S
O87 C72 1.268 . S
Sc88 O91 2.025 . S
Sc88 O98 2.105 1_554 S
Sc88 O101 2.105 . S
Sc88 O104 2.105 . S
Sc88 O107 2.105 . S
Sc89 O91 2.025 . S
Sc89 O99 2.105 . S
Sc89 O103 2.105 . S
Sc89 O105 2.105 . S
Sc89 O109 2.105 . S
Sc90 O91 2.025 1_556 S
Sc90 O100 2.105 . S
Sc90 O102 2.106 . S
Sc90 O106 2.105 1_556 S
Sc90 O108 2.105 . S
O91 Sc88 2.025 . S
O91 Sc89 2.025 . S
O91 Sc90 2.025 1_554 S
C92 O98 1.268 . S
C92 O108 1.268 . S
C93 O99 1.268 . S
C93 O107 1.268 . S
C94 O100 1.268 . S
C94 O109 1.268 1_556 S
C95 O101 1.268 . S
C95 O105 1.268 . S
C96 O102 1.267 1_554 S
C96 O104 1.268 . S
C97 O103 1.268 . S
C97 O106 1.268 . S
O98 Sc88 2.105 1_556 S
O98 C92 1.268 . S
O99 Sc89 2.105 . S
O99 C93 1.268 . S
O100 Sc90 2.105 . S
O100 C94 1.268 . S
O101 Sc88 2.105 . S
O101 C95 1.268 . S
O102 Sc90 2.106 . S
O102 C96 1.267 1_556 S
O103 Sc89 2.105 . S
O103 C97 1.268 . S
O104 Sc88 2.105 . S
O104 C96 1.268 . S
O105 Sc89 2.105 . S
O105 C95 1.268 . S
O106 Sc90 2.105 1_554 S
O106 C97 1.268 . S
O107 Sc88 2.105 . S
O107 C93 1.268 . S
O108 Sc90 2.105 . S
O108 C92 1.268 . S
O109 Sc89 2.105 . S
O109 C94 1.268 1_554 S
Sc110 O113 2.025 . S
Sc110 O120 2.105 . S
Sc110 O123 2.105 . S
Sc110 O126 2.105 . S
Sc110 O129 2.105 . S
Sc111 O113 2.025 . S
Sc111 O121 2.105 . S
Sc111 O125 2.105 . S
Sc111 O127 2.105 . S
Sc111 O131 2.105 . S
Sc112 O113 2.025 . S
Sc112 O122 2.105 . S
Sc112 O124 2.105 . S
Sc112 O128 2.105 . S
Sc112 O130 2.105 . S
O113 Sc110 2.025 . S
O113 Sc111 2.025 . S
O113 Sc112 2.025 . S
C114 O120 1.268 . S
C114 O130 1.268 . S
C115 O121 1.268 . S
C115 O129 1.268 . S
C116 O122 1.268 . S
C116 O131 1.268 . S
C117 O123 1.268 . S
C117 O127 1.268 . S
C118 O124 1.268 . S
C118 O126 1.268 . S
C119 O125 1.268 . S
C119 O128 1.268 . S
O120 Sc110 2.105 . S
O120 C114 1.268 . S
O121 Sc111 2.105 . S
O121 C115 1.268 . S
O122 Sc112 2.105 . S
O122 C116 1.268 . S
O123 Sc110 2.105 . S
O123 C117 1.268 . S
O124 Sc112 2.105 . S
O124 C118 1.268 . S
O125 Sc111 2.105 . S
O125 C119 1.268 . S
O126 Sc110 2.105 . S
O126 C118 1.268 . S
O127 Sc111 2.105 . S
O127 C117 1.268 . S
O128 Sc112 2.105 . S
O128 C119 1.268 . S
O129 Sc110 2.105 . S
O129 C115 1.268 . S
O130 Sc112 2.105 . S
O130 C114 1.268 . S
O131 Sc111 2.105 . S
O131 C116 1.268 . S
Sc132 O135 2.025 . S
Sc132 O142 2.105 . S
Sc132 O145 2.105 . S
Sc132 O148 2.105 . S
Sc132 O151 2.105 . S
Sc133 O135 2.025 . S
Sc133 O143 2.105 . S
Sc133 O147 2.105 . S
Sc133 O149 2.105 . S
Sc133 O153 2.105 . S
Sc134 O135 2.025 . S
Sc134 O144 2.105 . S
Sc134 O146 2.105 . S
Sc134 O150 2.105 . S
Sc134 O152 2.105 . S
O135 Sc132 2.025 . S
O135 Sc133 2.025 . S
O135 Sc134 2.025 . S
C136 O142 1.268 . S
C136 O152 1.268 . S
C137 O143 1.268 . S
C137 O151 1.268 . S
C138 O144 1.268 . S
C138 O153 1.268 . S
C139 O145 1.268 . S
C139 O149 1.268 . S
C140 O146 1.268 . S
C140 O148 1.268 . S
C141 O147 1.268 . S
C141 O150 1.268 . S
O142 Sc132 2.105 . S
O142 C136 1.268 . S
O143 Sc133 2.105 . S
O143 C137 1.268 . S
O144 Sc134 2.105 . S
O144 C138 1.268 . S
O145 Sc132 2.105 . S
O145 C139 1.268 . S
O146 Sc134 2.105 . S
O146 C140 1.268 . S
O147 Sc133 2.105 . S
O147 C141 1.268 . S
O148 Sc132 2.105 . S
O148 C140 1.268 . S
O149 Sc133 2.105 . S
O149 C139 1.268 . S
O150 Sc134 2.105 . S
O150 C141 1.268 . S
O151 Sc132 2.105 . S
O151 C137 1.268 . S
O152 Sc134 2.105 . S
O152 C136 1.268 . S
O153 Sc133 2.105 . S
O153 C138 1.268 . S
Sc154 O157 2.025 . S
Sc154 O164 2.103 1_455 S
Sc154 O167 2.105 . S
Sc154 O170 2.105 . S
Sc154 O173 2.105 . S
Sc155 O157 2.025 . S
Sc155 O165 2.105 . S
Sc155 O169 2.105 . S
Sc155 O171 2.105 . S
Sc155 O175 2.105 . S
Sc156 O157 2.025 . S
Sc156 O166 2.105 . S
Sc156 O168 2.105 . S
Sc156 O172 2.105 . S
Sc156 O174 2.105 1_455 S
O157 Sc154 2.025 . S
O157 Sc155 2.025 . S
O157 Sc156 2.025 . S
C158 O164 1.270 . S
C158 O174 1.268 . S
C159 O165 1.268 . S
C159 O173 1.268 . S
C160 O166 1.268 . S
C160 O175 1.268 . S
C161 O167 1.268 . S
C161 O171 1.268 . S
C162 O168 1.268 . S
C162 O170 1.268 . S
C163 O169 1.268 . S
C163 O172 1.268 . S
O164 Sc154 2.103 1_655 S
O164 C158 1.270 . S
O165 Sc155 2.105 . S
O165 C159 1.268 . S
O166 Sc156 2.105 . S
O166 C160 1.268 . S
O167 Sc154 2.105 . S
O167 C161 1.268 . S
O168 Sc156 2.105 . S
O168 C162 1.268 . S
O169 Sc155 2.105 . S
O169 C163 1.268 . S
O170 Sc154 2.105 . S
O170 C162 1.268 . S
O171 Sc155 2.105 . S
O171 C161 1.268 . S
O172 Sc156 2.105 . S
O172 C163 1.268 . S
O173 Sc154 2.105 . S
O173 C159 1.268 . S
O174 Sc156 2.105 1_655 S
O174 C158 1.268 . S
O175 Sc155 2.105 . S
O175 C160 1.268 . S
Sc176 O179 2.025 . S
Sc176 O186 2.105 . S
Sc176 O189 2.105 . S
Sc176 O192 2.105 . S
Sc176 O195 2.105 . S
Sc177 O179 2.025 . S
Sc177 O187 2.105 . S
Sc177 O191 2.105 . S
Sc177 O193 2.105 . S
Sc177 O197 2.105 . S
Sc178 O179 2.025 . S
Sc178 O188 2.105 . S
Sc178 O190 2.105 . S
Sc178 O194 2.105 . S
Sc178 O196 2.105 . S
O179 Sc176 2.025 . S
O179 Sc177 2.025 . S
O179 Sc178 2.025 . S
C180 O186 1.268 . S
C180 O196 1.268 . S
C181 O187 1.268 . S
C181 O195 1.268 . S
C182 O188 1.268 . S
C182 O197 1.268 . S
C183 O189 1.268 . S
C183 O193 1.268 . S
C184 O190 1.268 . S
C184 O192 1.268 . S
C185 O191 1.268 . S
C185 O194 1.268 . S
O186 Sc176 2.105 . S
O186 C180 1.268 . S
O187 Sc177 2.105 . S
O187 C181 1.268 . S
O188 Sc178 2.105 . S
O188 C182 1.268 . S
O189 Sc176 2.105 . S
O189 C183 1.268 . S
O190 Sc178 2.105 . S
O190 C184 1.268 . S
O191 Sc177 2.105 . S
O191 C185 1.268 . S
O192 Sc176 2.105 . S
O192 C184 1.268 . S
O193 Sc177 2.105 . S
O193 C183 1.268 . S
O194 Sc178 2.105 . S
O194 C185 1.268 . S
O195 Sc176 2.105 . S
O195 C181 1.268 . S
O196 Sc178 2.105 . S
O196 C180 1.268 . S
O197 Sc177 2.105 . S
O197 C182 1.268 . S
Sc198 O201 2.025 . S
Sc198 O208 2.105 . S
Sc198 O211 2.105 . S
Sc198 O214 2.103 1_455 S
Sc198 O217 2.105 . S
Sc199 O201 2.025 . S
Sc199 O209 2.105 . S
Sc199 O213 2.105 . S
Sc199 O215 2.105 . S
Sc199 O219 2.116 . S
Sc200 O201 2.025 . S
Sc200 O210 2.105 1_545 S
Sc200 O212 2.105 1_455 S
Sc200 O216 2.105 . S
Sc200 O218 2.105 . S
O201 Sc198 2.025 . S
O201 Sc199 2.025 . S
O201 Sc200 2.025 . S
C202 O208 1.268 . S
C202 O218 1.268 . S
C203 O209 1.268 . S
C203 O217 1.268 . S
C204 O210 1.268 . S
C204 O219 1.260 1_565 S
C205 O211 1.268 . S
C205 O215 1.268 . S
C206 O212 1.268 . S
C206 O214 1.270 . S
C207 O213 1.268 . S
C207 O216 1.268 . S
O208 Sc198 2.105 . S
O208 C202 1.268 . S
O209 Sc199 2.105 . S
O209 C203 1.268 . S
O210 Sc200 2.105 1_565 S
O210 C204 1.268 . S
O211 Sc198 2.105 . S
O211 C205 1.268 . S
O212 Sc200 2.105 1_655 S
O212 C206 1.268 . S
O213 Sc199 2.105 . S
O213 C207 1.268 . S
O214 Sc198 2.103 1_655 S
O214 C206 1.270 . S
O215 Sc199 2.105 . S
O215 C205 1.268 . S
O216 Sc200 2.105 . S
O216 C207 1.268 . S
O217 Sc198 2.105 . S
O217 C203 1.268 . S
O218 Sc200 2.105 . S
O218 C202 1.268 . S
O219 Sc199 2.116 . S
O219 C204 1.260 1_545 S
Sc220 O223 2.025 . S
Sc220 O230 2.105 . S
Sc220 O233 2.105 . S
Sc220 O236 2.105 . S
Sc220 O239 2.105 . S
Sc221 O223 2.025 1_556 S
Sc221 O231 2.105 1_556 S
Sc221 O235 2.105 . S
Sc221 O237 2.105 . S
Sc221 O241 2.105 . S
Sc222 O223 2.025 . S
Sc222 O232 2.105 . S
Sc222 O234 2.105 . S
Sc222 O238 2.105 1_554 S
Sc222 O240 2.105 . S
O223 Sc220 2.025 . S
O223 Sc221 2.025 1_554 S
O223 Sc222 2.025 . S
C224 O230 1.268 . S
C224 O240 1.268 . S
C225 O231 1.268 . S
C225 O239 1.268 . S
C226 O232 1.268 . S
C226 O241 1.268 1_554 S
C227 O233 1.268 1_556 S
C227 O237 1.268 . S
C228 O234 1.268 . S
C228 O236 1.268 . S
C229 O235 1.268 . S
C229 O238 1.268 . S
O230 Sc220 2.105 . S
O230 C224 1.268 . S
O231 Sc221 2.105 1_554 S
O231 C225 1.268 . S
O232 Sc222 2.105 . S
O232 C226 1.268 . S
O233 Sc220 2.105 . S
O233 C227 1.268 1_554 S
O234 Sc222 2.105 . S
O234 C228 1.268 . S
O235 Sc221 2.105 . S
O235 C229 1.268 . S
O236 Sc220 2.105 . S
O236 C228 1.268 . S
O237 Sc221 2.105 . S
O237 C227 1.268 . S
O238 Sc222 2.105 1_556 S
O238 C229 1.268 . S
O239 Sc220 2.105 . S
O239 C225 1.268 . S
O240 Sc222 2.105 . S
O240 C224 1.268 . S
O241 Sc221 2.105 . S
O241 C226 1.268 1_556 S
Sc242 O245 2.025 . S
Sc242 O252 2.105 . S
Sc242 O255 2.105 1_565 S
Sc242 O258 2.105 . S
Sc242 O261 2.105 . S
Sc243 O245 2.025 . S
Sc243 O253 2.105 . S
Sc243 O257 2.105 . S
Sc243 O259 2.116 . S
Sc243 O263 2.105 . S
Sc244 O245 2.025 . S
Sc244 O254 2.105 . S
Sc244 O256 2.105 . S
Sc244 O260 2.105 . S
Sc244 O262 2.105 . S
O245 Sc242 2.025 . S
O245 Sc243 2.025 . S
O245 Sc244 2.025 . S
C246 O252 1.268 . S
C246 O262 1.268 . S
C247 O253 1.268 . S
C247 O261 1.268 . S
C248 O254 1.268 . S
C248 O263 1.268 . S
C249 O255 1.268 . S
C249 O259 1.260 1_545 S
C250 O256 1.268 . S
C250 O258 1.268 . S
C251 O257 1.268 . S
C251 O260 1.268 . S
O252 Sc242 2.105 . S
O252 C246 1.268 . S
O253 Sc243 2.105 . S
O253 C247 1.268 . S
O254 Sc244 2.105 . S
O254 C248 1.268 . S
O255 Sc242 2.105 1_545 S
O255 C249 1.268 . S
O256 Sc244 2.105 . S
O256 C250 1.268 . S
O257 Sc243 2.105 . S
O257 C251 1.268 . S
O258 Sc242 2.105 . S
O258 C250 1.268 . S
O259 Sc243 2.116 . S
O259 C249 1.260 1_565 S
O260 Sc244 2.105 . S
O260 C251 1.268 . S
O261 Sc242 2.105 . S
O261 C247 1.268 . S
O262 Sc244 2.105 . S
O262 C246 1.268 . S
O263 Sc243 2.105 . S
O263 C248 1.268 . S
Sc264 O267 2.025 . S
Sc264 O274 2.105 . S
Sc264 O277 2.105 . S
Sc264 O280 2.105 . S
Sc264 O283 2.105 . S
Sc265 O267 2.025 . S
Sc265 O275 2.105 . S
Sc265 O279 2.105 . S
Sc265 O281 2.105 . S
Sc265 O285 2.105 . S
Sc266 O267 2.025 . S
Sc266 O276 2.105 . S
Sc266 O278 2.105 . S
Sc266 O282 2.105 . S
Sc266 O284 2.105 . S
O267 Sc264 2.025 . S
O267 Sc265 2.025 . S
O267 Sc266 2.025 . S
C268 O274 1.268 . S
C268 O284 1.268 . S
C269 O275 1.268 . S
C269 O283 1.268 . S
C270 O276 1.268 . S
C270 O285 1.268 . S
C271 O277 1.268 . S
C271 O281 1.268 . S
C272 O278 1.268 . S
C272 O280 1.268 . S
C273 O279 1.268 . S
C273 O282 1.268 . S
O274 Sc264 2.105 . S
O274 C268 1.268 . S
O275 Sc265 2.105 . S
O275 C269 1.268 . S
O276 Sc266 2.105 . S
O276 C270 1.268 . S
O277 Sc264 2.105 . S
O277 C271 1.268 . S
O278 Sc266 2.105 . S
O278 C272 1.268 . S
O279 Sc265 2.105 . S
O279 C273 1.268 . S
O280 Sc264 2.105 . S
O280 C272 1.268 . S
O281 Sc265 2.105 . S
O281 C271 1.268 . S
O282 Sc266 2.105 . S
O282 C273 1.268 . S
O283 Sc264 2.105 . S
O283 C269 1.268 . S
O284 Sc266 2.105 . S
O284 C268 1.268 . S
O285 Sc265 2.105 . S
O285 C270 1.268 . S
Sc286 O289 2.025 . S
Sc286 O296 2.105 . S
Sc286 O299 2.105 . S
Sc286 O302 2.105 1_655 S
Sc286 O305 2.105 1_565 S
Sc287 O289 2.025 . S
Sc287 O297 2.116 . S
Sc287 O301 2.105 . S
Sc287 O303 2.105 . S
Sc287 O307 2.105 . S
Sc288 O289 2.025 . S
Sc288 O298 2.105 . S
Sc288 O300 2.103 1_655 S
Sc288 O304 2.105 . S
Sc288 O306 2.105 . S
O289 Sc286 2.025 . S
O289 Sc287 2.025 . S
O289 Sc288 2.025 . S
C290 O296 1.268 . S
C290 O306 1.268 . S
C291 O297 1.260 1_545 S
C291 O305 1.268 . S
C292 O298 1.268 . S
C292 O307 1.268 . S
C293 O299 1.268 . S
C293 O303 1.268 . S
C294 O300 1.270 . S
C294 O302 1.268 . S
C295 O301 1.268 . S
C295 O304 1.268 . S
O296 Sc286 2.105 . S
O296 C290 1.268 . S
O297 Sc287 2.116 . S
O297 C291 1.260 1_565 S
O298 Sc288 2.105 . S
O298 C292 1.268 . S
O299 Sc286 2.105 . S
O299 C293 1.268 . S
O300 Sc288 2.103 1_455 S
O300 C294 1.270 . S
O301 Sc287 2.105 . S
O301 C295 1.268 . S
O302 Sc286 2.105 1_455 S
O302 C294 1.268 . S
O303 Sc287 2.105 . S
O303 C293 1.268 . S
O304 Sc288 2.105 . S
O304 C295 1.268 . S
O305 Sc286 2.105 1_545 S
O305 C291 1.268 . S
O306 Sc288 2.105 . S
O306 C290 1.268 . S
O307 Sc287 2.105 . S
O307 C292 1.268 . S
Sc308 O311 2.025 1_556 S
Sc308 O318 2.106 . S
Sc308 O321 2.105 . S
Sc308 O324 2.105 . S
Sc308 O327 2.105 1_556 S
Sc309 O311 2.025 . S
Sc309 O319 2.105 . S
Sc309 O323 2.105 . S
Sc309 O325 2.105 . S
Sc309 O329 2.105 . S
Sc310 O311 2.025 . S
Sc310 O320 2.105 . S
Sc310 O322 2.105 1_554 S
Sc310 O326 2.105 . S
Sc310 O328 2.105 . S
O311 Sc308 2.025 1_554 S
O311 Sc309 2.025 . S
O311 Sc310 2.025 . S
C312 O318 1.267 1_554 S
C312 O328 1.268 . S
C313 O319 1.268 . S
C313 O327 1.268 . S
C314 O320 1.268 . S
C314 O329 1.268 . S
C315 O321 1.268 . S
C315 O325 1.268 1_556 S
C316 O322 1.268 . S
C316 O324 1.268 . S
C317 O323 1.268 . S
C317 O326 1.268 . S
O318 Sc308 2.106 . S
O318 C312 1.267 1_556 S
O319 Sc309 2.105 . S
O319 C313 1.268 . S
O320 Sc310 2.105 . S
O320 C314 1.268 . S
O321 Sc308 2.105 . S
O321 C315 1.268 . S
O322 Sc310 2.105 1_556 S
O322 C316 1.268 . S
O323 Sc309 2.105 . S
O323 C317 1.268 . S
O324 Sc308 2.105 . S
O324 C316 1.268 . S
O325 Sc309 2.105 . S
O325 C315 1.268 1_554 S
O326 Sc310 2.105 . S
O326 C317 1.268 . S
O327 Sc308 2.105 1_554 S
O327 C313 1.268 . S
O328 Sc310 2.105 . S
O328 C312 1.268 . S
O329 Sc309 2.105 . S
O329 C314 1.268 . S
Sc330 O333 2.025 . S
Sc330 O340 2.105 . S
Sc330 O343 2.105 . S
Sc330 O346 2.105 . S
Sc330 O349 2.105 . S
Sc331 O333 2.025 . S
Sc331 O341 2.105 . S
Sc331 O345 2.116 . S
Sc331 O347 2.105 . S
Sc331 O351 2.105 . S
Sc332 O333 2.025 . S
Sc332 O342 2.105 . S
Sc332 O344 2.105 . S
Sc332 O348 2.105 1_545 S
Sc332 O350 2.105 . S
O333 Sc330 2.025 . S
O333 Sc331 2.025 . S
O333 Sc332 2.025 . S
C334 O340 1.268 . S
C334 O350 1.268 . S
C335 O341 1.268 . S
C335 O349 1.268 . S
C336 O342 1.268 . S
C336 O351 1.268 . S
C337 O343 1.268 . S
C337 O347 1.268 . S
C338 O344 1.268 . S
C338 O346 1.268 . S
C339 O345 1.260 1_565 S
C339 O348 1.268 . S
O340 Sc330 2.105 . S
O340 C334 1.268 . S
O341 Sc331 2.105 . S
O341 C335 1.268 . S
O342 Sc332 2.105 . S
O342 C336 1.268 . S
O343 Sc330 2.105 . S
O343 C337 1.268 . S
O344 Sc332 2.105 . S
O344 C338 1.268 . S
O345 Sc331 2.116 . S
O345 C339 1.260 1_545 S
O346 Sc330 2.105 . S
O346 C338 1.268 . S
O347 Sc331 2.105 . S
O347 C337 1.268 . S
O348 Sc332 2.105 1_565 S
O348 C339 1.268 . S
O349 Sc330 2.105 . S
O349 C335 1.268 . S
O350 Sc332 2.105 . S
O350 C334 1.268 . S
O351 Sc331 2.105 . S
O351 C336 1.268 . S
C352 C353 1.369 . S
C352 C354 1.419 . S
C352 H356 0.930 . S
C353 C352 1.369 . S
C353 C362 1.429 . S
C354 C352 1.419 . S
C354 C355 1.363 . S
C354 H357 0.929 . S
C355 C354 1.363 . S
C355 C361 1.428 . S
H356 C352 0.930 . S
H357 C354 0.929 . S
S358 N359 1.613 . S
S358 N360 1.610 . S
N359 S358 1.613 . S
N359 C362 1.350 . S
N360 S358 1.610 . S
N360 C361 1.351 . S
C361 C355 1.428 . S
C361 N360 1.351 . S
C361 C362 1.434 . S
C362 C353 1.429 . S
C362 N359 1.350 . S
C362 C361 1.434 . S
C363 C364 1.369 . S
C363 C365 1.419 . S
C363 H367 0.930 . S
C364 C363 1.369 . S
C364 C373 1.429 . S
C365 C363 1.419 . S
C365 C366 1.363 . S
C365 H368 0.929 . S
C366 C365 1.363 . S
C366 C372 1.428 . S
H367 C363 0.930 . S
H368 C365 0.929 . S
S369 N370 1.613 . S
S369 N371 1.610 . S
N370 S369 1.613 . S
N370 C373 1.350 . S
N371 S369 1.610 . S
N371 C372 1.351 . S
C372 C366 1.428 . S
C372 N371 1.351 . S
C372 C373 1.434 . S
C373 C364 1.429 . S
C373 N370 1.350 . S
C373 C372 1.434 . S
C374 C375 1.369 . S
C374 C376 1.419 . S
C374 H378 0.930 . S
C375 C374 1.369 . S
C375 C384 1.429 . S
C376 C374 1.419 . S
C376 C377 1.363 . S
C376 H379 0.929 . S
C377 C376 1.363 . S
C377 C383 1.428 . S
H378 C374 0.930 . S
H379 C376 0.929 . S
S380 N381 1.613 . S
S380 N382 1.610 . S
N381 S380 1.613 . S
N381 C384 1.350 . S
N382 S380 1.610 . S
N382 C383 1.351 . S
C383 C377 1.428 . S
C383 N382 1.351 . S
C383 C384 1.434 . S
C384 C375 1.429 . S
C384 N381 1.350 . S
C384 C383 1.434 . S
C385 C386 1.369 . S
C385 C387 1.419 . S
C385 H389 0.930 . S
C386 C385 1.369 . S
C386 C395 1.429 . S
C387 C385 1.419 . S
C387 C388 1.363 . S
C387 H390 0.929 . S
C388 C387 1.363 . S
C388 C394 1.428 . S
H389 C385 0.930 . S
H390 C387 0.929 . S
S391 N392 1.613 . S
S391 N393 1.610 . S
N392 S391 1.613 . S
N392 C395 1.350 . S
N393 S391 1.610 . S
N393 C394 1.351 . S
C394 C388 1.428 . S
C394 N393 1.351 . S
C394 C395 1.434 . S
C395 C386 1.429 . S
C395 N392 1.350 . S
C395 C394 1.434 . S
C396 C397 1.369 . S
C396 C398 1.419 . S
C396 H400 0.930 . S
C397 C396 1.369 . S
C397 C406 1.429 . S
C398 C396 1.419 . S
C398 C399 1.363 . S
C398 H401 0.929 . S
C399 C398 1.363 . S
C399 C405 1.428 . S
H400 C396 0.930 . S
H401 C398 0.929 . S
S402 N403 1.613 . S
S402 N404 1.610 . S
N403 S402 1.613 . S
N403 C406 1.350 . S
N404 S402 1.610 . S
N404 C405 1.351 . S
C405 C399 1.428 . S
C405 N404 1.351 . S
C405 C406 1.434 . S
C406 C397 1.429 . S
C406 N403 1.350 . S
C406 C405 1.434 . S
C407 C408 1.369 . S
C407 C409 1.419 . S
C407 H411 0.930 . S
C408 C407 1.369 . S
C408 C417 1.429 . S
C409 C407 1.419 . S
C409 C410 1.363 . S
C409 H412 0.929 . S
C410 C409 1.363 . S
C410 C416 1.428 . S
H411 C407 0.930 . S
H412 C409 0.929 . S
S413 N414 1.613 . S
S413 N415 1.610 . S
N414 S413 1.613 . S
N414 C417 1.350 . S
N415 S413 1.610 . S
N415 C416 1.351 . S
C416 C410 1.428 . S
C416 N415 1.351 . S
C416 C417 1.434 . S
C417 C408 1.429 . S
C417 N414 1.350 . S
C417 C416 1.434 . S
C418 C419 1.369 . S
C418 C420 1.419 . S
C418 H422 0.930 . S
C419 C418 1.369 . S
C419 C428 1.429 . S
C420 C418 1.419 . S
C420 C421 1.363 . S
C420 H423 0.929 . S
C421 C420 1.363 . S
C421 C427 1.428 . S
H422 C418 0.930 . S
H423 C420 0.929 . S
S424 N425 1.613 . S
S424 N426 1.610 . S
N425 S424 1.613 . S
N425 C428 1.350 . S
N426 S424 1.610 . S
N426 C427 1.351 . S
C427 C421 1.428 . S
C427 N426 1.351 . S
C427 C428 1.434 . S
C428 C419 1.429 . S
C428 N425 1.350 . S
C428 C427 1.434 . S
C429 C430 1.369 . S
C429 C431 1.419 . S
C429 H433 0.930 . S
C430 C429 1.369 . S
C430 C439 1.429 . S
C431 C429 1.419 . S
C431 C432 1.363 . S
C431 H434 0.929 . S
C432 C431 1.363 . S
C432 C438 1.428 . S
H433 C429 0.930 . S
H434 C431 0.929 . S
S435 N436 1.613 . S
S435 N437 1.610 . S
N436 S435 1.613 . S
N436 C439 1.350 . S
N437 S435 1.610 . S
N437 C438 1.351 . S
C438 C432 1.428 . S
C438 N437 1.351 . S
C438 C439 1.434 . S
C439 C430 1.429 . S
C439 N436 1.350 . S
C439 C438 1.434 . S
C440 C441 1.369 . S
C440 C442 1.419 . S
C440 H444 0.930 . S
C441 C440 1.369 . S
C441 C450 1.429 . S
C442 C440 1.419 . S
C442 C443 1.363 . S
C442 H445 0.929 . S
C443 C442 1.363 . S
C443 C449 1.428 . S
H444 C440 0.930 . S
H445 C442 0.929 . S
S446 N447 1.613 . S
S446 N448 1.610 . S
N447 S446 1.613 . S
N447 C450 1.350 . S
N448 S446 1.610 . S
N448 C449 1.351 . S
C449 C443 1.428 . S
C449 N448 1.351 . S
C449 C450 1.434 . S
C450 C441 1.429 . S
C450 N447 1.350 . S
C450 C449 1.434 . S
C451 C452 1.369 . S
C451 C453 1.419 . S
C451 H455 0.930 . S
C452 C451 1.369 . S
C452 C461 1.429 . S
C453 C451 1.419 . S
C453 C454 1.363 . S
C453 H456 0.929 . S
C454 C453 1.363 . S
C454 C460 1.428 . S
H455 C451 0.930 . S
H456 C453 0.929 . S
S457 N458 1.613 . S
S457 N459 1.610 . S
N458 S457 1.613 . S
N458 C461 1.350 . S
N459 S457 1.610 . S
N459 C460 1.351 . S
C460 C454 1.428 . S
C460 N459 1.351 . S
C460 C461 1.434 . S
C461 C452 1.429 . S
C461 N458 1.350 . S
C461 C460 1.434 . S
C462 C463 1.369 . S
C462 C464 1.419 . S
C462 H466 0.930 . S
C463 C462 1.369 . S
C463 C472 1.429 . S
C464 C462 1.419 . S
C464 C465 1.363 . S
C464 H467 0.929 1_556 S
C465 C464 1.363 . S
C465 C471 1.428 . S
H466 C462 0.930 . S
H467 C464 0.929 1_554 S
S468 N469 1.613 . S
S468 N470 1.610 . S
N469 S468 1.613 . S
N469 C472 1.350 . S
N470 S468 1.610 . S
N470 C471 1.351 . S
C471 C465 1.428 . S
C471 N470 1.351 . S
C471 C472 1.434 . S
C472 C463 1.429 . S
C472 N469 1.350 . S
C472 C471 1.434 . S
C473 C474 1.369 . S
C473 C475 1.419 . S
C473 H477 0.930 . S
C474 C473 1.369 . S
C474 C483 1.429 . S
C475 C473 1.419 . S
C475 C476 1.363 . S
C475 H478 0.929 . S
C476 C475 1.363 . S
C476 C482 1.428 . S
H477 C473 0.930 . S
H478 C475 0.929 . S
S479 N480 1.613 . S
S479 N481 1.610 . S
N480 S479 1.613 . S
N480 C483 1.350 . S
N481 S479 1.610 . S
N481 C482 1.351 . S
C482 C476 1.428 . S
C482 N481 1.351 . S
C482 C483 1.434 . S
C483 C474 1.429 . S
C483 N480 1.350 . S
C483 C482 1.434 . S
C484 C485 1.369 . S
C484 C486 1.419 . S
C484 H488 0.930 . S
C485 C484 1.369 . S
C485 C494 1.429 . S
C486 C484 1.419 . S
C486 C487 1.363 . S
C486 H489 0.929 . S
C487 C486 1.363 . S
C487 C493 1.428 . S
H488 C484 0.930 . S
H489 C486 0.929 . S
S490 N491 1.613 . S
S490 N492 1.610 . S
N491 S490 1.613 . S
N491 C494 1.350 . S
N492 S490 1.610 . S
N492 C493 1.351 . S
C493 C487 1.428 . S
C493 N492 1.351 . S
C493 C494 1.434 . S
C494 C485 1.429 . S
C494 N491 1.350 . S
C494 C493 1.434 . S
C495 C496 1.369 . S
C495 C497 1.419 . S
C495 H499 0.930 . S
C496 C495 1.369 . S
C496 C505 1.429 . S
C497 C495 1.419 . S
C497 C498 1.363 . S
C497 H500 0.929 . S
C498 C497 1.363 . S
C498 C504 1.428 . S
H499 C495 0.930 . S
H500 C497 0.929 . S
S501 N502 1.613 . S
S501 N503 1.610 . S
N502 S501 1.613 . S
N502 C505 1.350 . S
N503 S501 1.610 . S
N503 C504 1.351 . S
C504 C498 1.428 . S
C504 N503 1.351 . S
C504 C505 1.434 . S
C505 C496 1.429 . S
C505 N502 1.350 . S
C505 C504 1.434 . S
C506 C507 1.369 . S
C506 C508 1.419 . S
C506 H510 0.930 . S
C507 C506 1.369 . S
C507 C516 1.429 . S
C508 C506 1.419 . S
C508 C509 1.363 . S
C508 H511 0.929 . S
C509 C508 1.363 . S
C509 C515 1.428 . S
H510 C506 0.930 . S
H511 C508 0.929 . S
S512 N513 1.613 . S
S512 N514 1.610 . S
N513 S512 1.613 . S
N513 C516 1.350 . S
N514 S512 1.610 . S
N514 C515 1.351 . S
C515 C509 1.428 . S
C515 N514 1.351 . S
C515 C516 1.434 . S
C516 C507 1.429 . S
C516 N513 1.350 . S
C516 C515 1.434 . S
C517 C518 1.369 . S
C517 C519 1.419 . S
C517 H521 0.930 . S
C518 C517 1.369 . S
C518 C527 1.429 . S
C519 C517 1.419 . S
C519 C520 1.363 . S
C519 H522 0.929 . S
C520 C519 1.363 . S
C520 C526 1.428 . S
H521 C517 0.930 . S
H522 C519 0.929 . S
S523 N524 1.613 . S
S523 N525 1.610 . S
N524 S523 1.613 . S
N524 C527 1.350 . S
N525 S523 1.610 . S
N525 C526 1.351 . S
C526 C520 1.428 . S
C526 N525 1.351 . S
C526 C527 1.434 . S
C527 C518 1.429 . S
C527 N524 1.350 . S
C527 C526 1.434 . S
C528 C529 1.369 . S
C528 C530 1.419 . S
C528 H532 0.930 . S
C529 C528 1.369 . S
C529 C538 1.429 . S
C530 C528 1.419 . S
C530 C531 1.363 . S
C530 H533 0.929 . S
C531 C530 1.363 . S
C531 C537 1.428 . S
H532 C528 0.930 . S
H533 C530 0.929 . S
S534 N535 1.613 . S
S534 N536 1.610 . S
N535 S534 1.613 . S
N535 C538 1.350 . S
N536 S534 1.610 . S
N536 C537 1.351 . S
C537 C531 1.428 . S
C537 N536 1.351 . S
C537 C538 1.434 . S
C538 C529 1.429 . S
C538 N535 1.350 . S
C538 C537 1.434 . S
C539 C540 1.369 . S
C539 C541 1.419 . S
C539 H543 0.930 . S
C540 C539 1.369 . S
C540 C549 1.429 . S
C541 C539 1.419 . S
C541 C542 1.363 . S
C541 H544 0.929 . S
C542 C541 1.363 . S
C542 C548 1.428 . S
H543 C539 0.930 . S
H544 C541 0.929 . S
S545 N546 1.613 . S
S545 N547 1.610 . S
N546 S545 1.613 . S
N546 C549 1.350 . S
N547 S545 1.610 . S
N547 C548 1.351 . S
C548 C542 1.428 . S
C548 N547 1.351 . S
C548 C549 1.434 . S
C549 C540 1.429 . S
C549 N546 1.350 . S
C549 C548 1.434 . S
C550 C551 1.369 . S
C550 C552 1.419 . S
C550 H554 0.930 . S
C551 C550 1.369 . S
C551 C560 1.429 . S
C552 C550 1.419 . S
C552 C553 1.363 . S
C552 H555 0.929 . S
C553 C552 1.363 . S
C553 C559 1.428 . S
H554 C550 0.930 . S
H555 C552 0.929 . S
S556 N557 1.613 . S
S556 N558 1.610 . S
N557 S556 1.613 . S
N557 C560 1.350 . S
N558 S556 1.610 . S
N558 C559 1.351 . S
C559 C553 1.428 . S
C559 N558 1.351 . S
C559 C560 1.434 . S
C560 C551 1.429 . S
C560 N557 1.350 . S
C560 C559 1.434 . S
C561 C562 1.369 . S
C561 C563 1.419 . S
C561 H565 0.930 . S
C562 C561 1.369 . S
C562 C571 1.429 . S
C563 C561 1.419 . S
C563 C564 1.363 . S
C563 H566 0.929 . S
C564 C563 1.363 . S
C564 C570 1.428 . S
H565 C561 0.930 . S
H566 C563 0.929 . S
S567 N568 1.613 . S
S567 N569 1.610 . S
N568 S567 1.613 . S
N568 C571 1.350 . S
N569 S567 1.610 . S
N569 C570 1.351 . S
C570 C564 1.428 . S
C570 N569 1.351 . S
C570 C571 1.434 . S
C571 C562 1.429 . S
C571 N568 1.350 . S
C571 C570 1.434 . S
C572 C573 1.369 . S
C572 C574 1.419 . S
C572 H576 0.930 . S
C573 C572 1.369 . S
C573 C582 1.429 . S
C574 C572 1.419 . S
C574 C575 1.363 . S
C574 H577 0.929 . S
C575 C574 1.363 . S
C575 C581 1.428 . S
H576 C572 0.930 . S
H577 C574 0.929 . S
S578 N579 1.613 . S
S578 N580 1.610 . S
N579 S578 1.613 . S
N579 C582 1.350 . S
N580 S578 1.610 . S
N580 C581 1.351 . S
C581 C575 1.428 . S
C581 N580 1.351 . S
C581 C582 1.434 . S
C582 C573 1.429 . S
C582 N579 1.350 . S
C582 C581 1.434 . S
C583 C584 1.369 . S
C583 C585 1.419 . S
C583 H587 0.930 1_556 S
C584 C583 1.369 . S
C584 C593 1.429 . S
C585 C583 1.419 . S
C585 C586 1.363 . S
C585 H588 0.929 . S
C586 C585 1.363 . S
C586 C592 1.428 . S
H587 C583 0.930 1_554 S
H588 C585 0.929 . S
S589 N590 1.613 . S
S589 N591 1.610 . S
N590 S589 1.613 . S
N590 C593 1.350 . S
N591 S589 1.610 . S
N591 C592 1.351 . S
C592 C586 1.428 . S
C592 N591 1.351 . S
C592 C593 1.434 . S
C593 C584 1.429 . S
C593 N590 1.350 . S
C593 C592 1.434 . S
C594 C595 1.369 . S
C594 C596 1.419 . S
C594 H598 0.930 . S
C595 C594 1.369 . S
C595 C604 1.429 . S
C596 C594 1.419 . S
C596 C597 1.363 . S
C596 H599 0.929 . S
C597 C596 1.363 . S
C597 C603 1.428 . S
H598 C594 0.930 . S
H599 C596 0.929 . S
S600 N601 1.613 . S
S600 N602 1.610 . S
N601 S600 1.613 . S
N601 C604 1.350 . S
N602 S600 1.610 . S
N602 C603 1.351 . S
C603 C597 1.428 . S
C603 N602 1.351 . S
C603 C604 1.434 . S
C604 C595 1.429 . S
C604 N601 1.350 . S
C604 C603 1.434 . S
C605 C606 1.369 . S
C605 C607 1.419 . S
C605 H609 0.930 . S
C606 C605 1.369 . S
C606 C615 1.429 . S
C607 C605 1.419 . S
C607 C608 1.363 . S
C607 H610 0.929 . S
C608 C607 1.363 . S
C608 C614 1.428 . S
H609 C605 0.930 . S
H610 C607 0.929 . S
S611 N612 1.613 . S
S611 N613 1.610 . S
N612 S611 1.613 . S
N612 C615 1.350 . S
N613 S611 1.610 . S
N613 C614 1.351 . S
C614 C608 1.428 . S
C614 N613 1.351 . S
C614 C615 1.434 . S
C615 C606 1.429 . S
C615 N612 1.350 . S
C615 C614 1.434 . S
C616 C617 1.369 . S
C616 C618 1.419 . S
C616 H620 0.930 . S
C617 C616 1.369 . S
C617 C626 1.429 . S
C618 C616 1.419 . S
C618 C619 1.363 . S
C618 H621 0.929 . S
C619 C618 1.363 . S
C619 C625 1.428 . S
H620 C616 0.930 . S
H621 C618 0.929 . S
S622 N623 1.613 . S
S622 N624 1.610 . S
N623 S622 1.613 . S
N623 C626 1.350 . S
N624 S622 1.610 . S
N624 C625 1.351 . S
C625 C619 1.428 . S
C625 N624 1.351 . S
C625 C626 1.434 . S
C626 C617 1.429 . S
C626 N623 1.350 . S
C626 C625 1.434 . S
C627 C628 1.369 . S
C627 C629 1.419 . S
C627 H631 0.930 . S
C628 C627 1.369 . S
C628 C637 1.429 . S
C629 C627 1.419 . S
C629 C630 1.363 . S
C629 H632 0.929 . S
C630 C629 1.363 . S
C630 C636 1.428 . S
H631 C627 0.930 . S
H632 C629 0.929 . S
S633 N634 1.613 . S
S633 N635 1.610 . S
N634 S633 1.613 . S
N634 C637 1.350 . S
N635 S633 1.610 . S
N635 C636 1.351 . S
C636 C630 1.428 . S
C636 N635 1.351 . S
C636 C637 1.434 . S
C637 C628 1.429 . S
C637 N634 1.350 . S
C637 C636 1.434 . S
C638 C639 1.369 . S
C638 C640 1.419 . S
C638 H642 0.930 . S
C639 C638 1.369 . S
C639 C648 1.429 . S
C640 C638 1.419 . S
C640 C641 1.363 . S
C640 H643 0.929 . S
C641 C640 1.363 . S
C641 C647 1.428 . S
H642 C638 0.930 . S
H643 C640 0.929 . S
S644 N645 1.613 . S
S644 N646 1.610 . S
N645 S644 1.613 . S
N645 C648 1.350 . S
N646 S644 1.610 . S
N646 C647 1.351 . S
C647 C641 1.428 . S
C647 N646 1.351 . S
C647 C648 1.434 . S
C648 C639 1.429 . S
C648 N645 1.350 . S
C648 C647 1.434 . S
C649 C650 1.369 . S
C649 C651 1.419 . S
C649 H653 0.930 . S
C650 C649 1.369 . S
C650 C659 1.429 . S
C651 C649 1.419 . S
C651 C652 1.363 . S
C651 H654 0.929 . S
C652 C651 1.363 . S
C652 C658 1.428 . S
H653 C649 0.930 . S
H654 C651 0.929 . S
S655 N656 1.613 . S
S655 N657 1.610 . S
N656 S655 1.613 . S
N656 C659 1.350 . S
N657 S655 1.610 . S
N657 C658 1.351 . S
C658 C652 1.428 . S
C658 N657 1.351 . S
C658 C659 1.434 . S
C659 C650 1.429 . S
C659 N656 1.350 . S
C659 C658 1.434 . S
C660 C661 1.369 . S
C660 C662 1.419 . S
C660 H664 0.930 . S
C661 C660 1.369 . S
C661 C670 1.429 . S
C662 C660 1.419 . S
C662 C663 1.363 . S
C662 H665 0.929 . S
C663 C662 1.363 . S
C663 C669 1.428 . S
H664 C660 0.930 . S
H665 C662 0.929 . S
S666 N667 1.613 . S
S666 N668 1.610 . S
N667 S666 1.613 . S
N667 C670 1.350 . S
N668 S666 1.610 . S
N668 C669 1.351 . S
C669 C663 1.428 . S
C669 N668 1.351 . S
C669 C670 1.434 . S
C670 C661 1.429 . S
C670 N667 1.350 . S
C670 C669 1.434 . S
C671 C672 1.369 . S
C671 C673 1.419 . S
C671 H675 0.930 . S
C672 C671 1.369 . S
C672 C681 1.429 . S
C673 C671 1.419 . S
C673 C674 1.363 . S
C673 H676 0.929 . S
C674 C673 1.363 . S
C674 C680 1.428 . S
H675 C671 0.930 . S
H676 C673 0.929 . S
S677 N678 1.613 . S
S677 N679 1.610 . S
N678 S677 1.613 . S
N678 C681 1.350 . S
N679 S677 1.610 . S
N679 C680 1.351 . S
C680 C674 1.428 . S
C680 N679 1.351 . S
C680 C681 1.434 . S
C681 C672 1.429 . S
C681 N678 1.350 . S
C681 C680 1.434 . S
C682 C683 1.369 . S
C682 C684 1.419 . S
C682 H686 0.930 . S
C683 C682 1.369 . S
C683 C692 1.429 . S
C684 C682 1.419 . S
C684 C685 1.363 . S
C684 H687 0.929 . S
C685 C684 1.363 . S
C685 C691 1.428 . S
H686 C682 0.930 . S
H687 C684 0.929 . S
S688 N689 1.613 . S
S688 N690 1.610 . S
N689 S688 1.613 . S
N689 C692 1.350 . S
N690 S688 1.610 . S
N690 C691 1.351 . S
C691 C685 1.428 . S
C691 N690 1.351 . S
C691 C692 1.434 . S
C692 C683 1.429 . S
C692 N689 1.350 . S
C692 C691 1.434 . S
C693 C694 1.369 . S
C693 C695 1.419 . S
C693 H697 0.930 . S
C694 C693 1.369 . S
C694 C703 1.429 . S
C695 C693 1.419 . S
C695 C696 1.363 . S
C695 H698 0.929 . S
C696 C695 1.363 . S
C696 C702 1.428 . S
H697 C693 0.930 . S
H698 C695 0.929 . S
S699 N700 1.613 . S
S699 N701 1.610 1_556 S
N700 S699 1.613 . S
N700 C703 1.350 . S
N701 S699 1.610 1_554 S
N701 C702 1.351 1_554 S
C702 C696 1.428 . S
C702 N701 1.351 1_556 S
C702 C703 1.434 . S
C703 C694 1.429 . S
C703 N700 1.350 . S
C703 C702 1.434 . S
C704 C705 1.369 . S
C704 C706 1.419 . S
C704 H708 0.930 . S
C705 C704 1.369 . S
C705 C714 1.429 . S
C706 C704 1.419 . S
C706 C707 1.363 . S
C706 H709 0.929 . S
C707 C706 1.363 . S
C707 C713 1.428 . S
H708 C704 0.930 . S
H709 C706 0.929 . S
S710 N711 1.613 . S
S710 N712 1.610 . S
N711 S710 1.613 . S
N711 C714 1.350 . S
N712 S710 1.610 . S
N712 C713 1.351 . S
C713 C707 1.428 . S
C713 N712 1.351 . S
C713 C714 1.434 . S
C714 C705 1.429 . S
C714 N711 1.350 . S
C714 C713 1.434 . S
C715 C716 1.369 . S
C715 C717 1.419 . S
C715 H719 0.930 . S
C716 C715 1.369 . S
C716 C725 1.429 . S
C717 C715 1.419 . S
C717 C718 1.363 . S
C717 H720 0.929 . S
C718 C717 1.363 . S
C718 C724 1.428 . S
H719 C715 0.930 . S
H720 C717 0.929 . S
S721 N722 1.613 . S
S721 N723 1.610 . S
N722 S721 1.613 . S
N722 C725 1.350 . S
N723 S721 1.610 . S
N723 C724 1.351 . S
C724 C718 1.428 . S
C724 N723 1.351 . S
C724 C725 1.434 . S
C725 C716 1.429 . S
C725 N722 1.350 . S
C725 C724 1.434 . S
C726 C727 1.369 . S
C726 C728 1.419 . S
C726 H730 0.930 . S
C727 C726 1.369 . S
C727 C736 1.429 . S
C728 C726 1.419 . S
C728 C729 1.363 . S
C728 H731 0.929 . S
C729 C728 1.363 . S
C729 C735 1.428 . S
H730 C726 0.930 . S
H731 C728 0.929 . S
S732 N733 1.613 . S
S732 N734 1.610 . S
N733 S732 1.613 . S
N733 C736 1.350 . S
N734 S732 1.610 . S
N734 C735 1.351 . S
C735 C729 1.428 . S
C735 N734 1.351 . S
C735 C736 1.434 . S
C736 C727 1.429 . S
C736 N733 1.350 . S
C736 C735 1.434 . S
C737 C738 1.369 . S
C737 C739 1.419 1_554 S
C737 H741 0.930 . S
C738 C737 1.369 . S
C738 C747 1.429 1_455 S
C739 C737 1.419 1_556 S
C739 C740 1.363 1_455 S
C739 H742 0.929 . S
C740 C739 1.363 1_655 S
C740 C746 1.428 1_556 S
H741 C737 0.930 . S
H742 C739 0.929 . S
S743 N744 1.613 . S
S743 N745 1.610 . S
N744 S743 1.613 . S
N744 C747 1.350 . S
N745 S743 1.610 . S
N745 C746 1.351 . S
C746 C740 1.428 1_554 S
C746 N745 1.351 . S
C746 C747 1.434 . S
C747 C738 1.429 1_655 S
C747 N744 1.350 . S
C747 C746 1.434 . S
C748 C749 1.369 . S
C748 C750 1.419 . S
C748 H752 0.930 . S
C749 C748 1.369 . S
C749 C758 1.429 . S
C750 C748 1.419 . S
C750 C751 1.363 . S
C750 H753 0.929 . S
C751 C750 1.363 . S
C751 C757 1.428 . S
H752 C748 0.930 . S
H753 C750 0.929 . S
S754 N755 1.613 . S
S754 N756 1.610 . S
N755 S754 1.613 . S
N755 C758 1.350 . S
N756 S754 1.610 . S
N756 C757 1.351 . S
C757 C751 1.428 . S
C757 N756 1.351 . S
C757 C758 1.434 . S
C758 C749 1.429 . S
C758 N755 1.350 . S
C758 C757 1.434 . S
C759 C760 1.369 . S
C759 C761 1.419 . S
C759 H763 0.930 . S
C760 C759 1.369 . S
C760 C769 1.429 . S
C761 C759 1.419 . S
C761 C762 1.363 . S
C761 H764 0.929 . S
C762 C761 1.363 . S
C762 C768 1.428 . S
H763 C759 0.930 . S
H764 C761 0.929 . S
S765 N766 1.613 . S
S765 N767 1.610 . S
N766 S765 1.613 . S
N766 C769 1.350 . S
N767 S765 1.610 . S
N767 C768 1.351 . S
C768 C762 1.428 . S
C768 N767 1.351 . S
C768 C769 1.434 . S
C769 C760 1.429 . S
C769 N766 1.350 . S
C769 C768 1.434 . S
C770 C771 1.369 1_655 S
C770 C772 1.419 1_556 S
C770 H774 0.930 . S
C771 C770 1.369 1_455 S
C771 C780 1.429 1_546 S
C772 C770 1.419 1_554 S
C772 C773 1.363 1_545 S
C772 H775 0.929 . S
C773 C772 1.363 1_565 S
C773 C779 1.428 1_655 S
H774 C770 0.930 . S
H775 C772 0.929 . S
S776 N777 1.613 . S
S776 N778 1.610 . S
N777 S776 1.613 . S
N777 C780 1.350 . S
N778 S776 1.610 . S
N778 C779 1.351 . S
C779 C773 1.428 1_455 S
C779 N778 1.351 . S
C779 C780 1.434 . S
C780 C771 1.429 1_564 S
C780 N777 1.350 . S
C780 C779 1.434 . S
C781 C782 1.369 . S
C781 C783 1.419 . S
C781 H785 0.930 . S
C782 C781 1.369 . S
C782 C791 1.429 1_545 S
C783 C781 1.419 . S
C783 C784 1.363 1_545 S
C783 H786 0.929 . S
C784 C783 1.363 1_565 S
C784 C790 1.428 . S
H785 C781 0.930 . S
H786 C783 0.929 . S
S787 N788 1.613 . S
S787 N789 1.610 . S
N788 S787 1.613 . S
N788 C791 1.350 . S
N789 S787 1.610 . S
N789 C790 1.351 . S
C790 C784 1.428 . S
C790 N789 1.351 . S
C790 C791 1.434 . S
C791 C782 1.429 1_565 S
C791 N788 1.350 . S
C791 C790 1.434 . S
C792 C793 1.369 . S
C792 C794 1.419 . S
C792 H796 0.930 . S
C793 C792 1.369 . S
C793 C802 1.429 . S
C794 C792 1.419 . S
C794 C795 1.363 . S
C794 H797 0.929 . S
C795 C794 1.363 . S
C795 C801 1.428 . S
H796 C792 0.930 . S
H797 C794 0.929 . S
S798 N799 1.613 . S
S798 N800 1.610 . S
N799 S798 1.613 . S
N799 C802 1.350 . S
N800 S798 1.610 . S
N800 C801 1.351 . S
C801 C795 1.428 . S
C801 N800 1.351 . S
C801 C802 1.434 . S
C802 C793 1.429 . S
C802 N799 1.350 . S
C802 C801 1.434 . S
C803 C804 1.369 . S
C803 C805 1.419 1_556 S
C803 H807 0.930 . S
C804 C803 1.369 . S
C804 C813 1.429 1_556 S
C805 C803 1.419 1_554 S
C805 C806 1.363 . S
C805 H808 0.929 . S
C806 C805 1.363 . S
C806 C812 1.428 . S
H807 C803 0.930 . S
H808 C805 0.929 . S
S809 N810 1.613 . S
S809 N811 1.610 . S
N810 S809 1.613 . S
N810 C813 1.350 . S
N811 S809 1.610 . S
N811 C812 1.351 . S
C812 C806 1.428 . S
C812 N811 1.351 . S
C812 C813 1.434 . S
C813 C804 1.429 1_554 S
C813 N810 1.350 . S
C813 C812 1.434 . S
C814 C815 1.369 . S
C814 C816 1.419 . S
C814 H818 0.930 . S
C815 C814 1.369 . S
C815 C824 1.429 . S
C816 C814 1.419 . S
C816 C817 1.363 . S
C816 H819 0.929 . S
C817 C816 1.363 . S
C817 C823 1.428 . S
H818 C814 0.930 . S
H819 C816 0.929 . S
S820 N821 1.613 . S
S820 N822 1.610 . S
N821 S820 1.613 . S
N821 C824 1.350 . S
N822 S820 1.610 . S
N822 C823 1.351 . S
C823 C817 1.428 . S
C823 N822 1.351 . S
C823 C824 1.434 . S
C824 C815 1.429 . S
C824 N821 1.350 . S
C824 C823 1.434 . S
C825 C826 1.369 . S
C825 C827 1.419 . S
C825 H829 0.930 . S
C826 C825 1.369 . S
C826 C835 1.429 1_455 S
C827 C825 1.419 . S
C827 C828 1.363 1_455 S
C827 H830 0.929 . S
C828 C827 1.363 1_655 S
C828 C834 1.428 . S
H829 C825 0.930 . S
H830 C827 0.929 . S
S831 N832 1.613 . S
S831 N833 1.610 . S
N832 S831 1.613 . S
N832 C835 1.350 . S
N833 S831 1.610 . S
N833 C834 1.351 . S
C834 C828 1.428 . S
C834 N833 1.351 . S
C834 C835 1.434 . S
C835 C826 1.429 1_655 S
C835 N832 1.350 . S
C835 C834 1.434 . S
C836 C837 1.369 . S
C836 C838 1.419 . S
C836 H840 0.930 . S
C837 C836 1.369 . S
C837 C846 1.429 . S
C838 C836 1.419 . S
C838 C839 1.363 . S
C838 H841 0.929 . S
C839 C838 1.363 . S
C839 C845 1.428 . S
H840 C836 0.930 . S
H841 C838 0.929 . S
S842 N843 1.613 . S
S842 N844 1.610 . S
N843 S842 1.613 . S
N843 C846 1.350 . S
N844 S842 1.610 . S
N844 C845 1.351 . S
C845 C839 1.428 . S
C845 N844 1.351 . S
C845 C846 1.434 . S
C846 C837 1.429 . S
C846 N843 1.350 . S
C846 C845 1.434 . S
C847 C848 1.369 . S
C847 C849 1.419 . S
C847 H851 0.930 . S
C848 C847 1.369 . S
C848 C857 1.429 . S
C849 C847 1.419 . S
C849 C850 1.363 . S
C849 H852 0.929 . S
C850 C849 1.363 . S
C850 C856 1.428 . S
H851 C847 0.930 . S
H852 C849 0.929 . S
S853 N854 1.613 . S
S853 N855 1.610 . S
N854 S853 1.613 . S
N854 C857 1.350 . S
N855 S853 1.610 . S
N855 C856 1.351 . S
C856 C850 1.428 . S
C856 N855 1.351 . S
C856 C857 1.434 . S
C857 C848 1.429 . S
C857 N854 1.350 . S
C857 C856 1.434 . S
C858 C859 1.369 1_545 S
C858 C860 1.419 . S
C858 H862 0.930 . S
C859 C858 1.369 1_565 S
C859 C868 1.429 1_655 S
C860 C858 1.419 . S
C860 C861 1.363 1_655 S
C860 H863 0.929 . S
C861 C860 1.363 1_455 S
C861 C867 1.428 1_545 S
H862 C858 0.930 . S
H863 C860 0.929 . S
S864 N865 1.613 . S
S864 N866 1.610 . S
N865 S864 1.613 . S
N865 C868 1.350 . S
N866 S864 1.610 . S
N866 C867 1.351 . S
C867 C861 1.428 1_565 S
C867 N866 1.351 . S
C867 C868 1.434 . S
C868 C859 1.429 1_455 S
C868 N865 1.350 . S
C868 C867 1.434 . S
C869 C870 1.369 1_565 S
C869 C871 1.417 1_556 S
C869 H873 0.930 . S
C870 C869 1.369 1_545 S
C870 C879 1.429 1_556 S
C871 C869 1.417 1_554 S
C871 C872 1.365 . S
C871 H874 0.928 1_554 S
C872 C871 1.365 . S
C872 C878 1.428 1_565 S
H873 C869 0.930 . S
H874 C871 0.928 1_556 S
S875 N876 1.613 . S
S875 N877 1.610 . S
N876 S875 1.613 . S
N876 C879 1.350 . S
N877 S875 1.610 . S
N877 C878 1.351 . S
C878 C872 1.428 1_545 S
C878 N877 1.351 . S
C878 C879 1.434 . S
C879 C870 1.429 1_554 S
C879 N876 1.350 . S
C879 C878 1.434 . S
C353 C7 1.582 1_556 S
C355 C203 1.685 . S
C364 C225 1.687 . S
C366 C28 1.585 . S
C375 C251 1.688 . S
C377 C50 1.587 . S
C386 C185 1.687 . S
C388 C73 1.585 . S
C397 C93 1.585 . S
C399 C292 1.679 . S
C408 C115 1.586 . S
C410 C315 1.678 . S
C419 C337 1.677 . S
C421 C141 1.586 . S
C430 C270 1.679 . S
C432 C163 1.592 . S
C441 C27 1.687 . S
C443 C183 1.586 . S
C452 C49 1.678 . S
C454 C204 1.585 . S
C463 C75 1.679 . S
C465 C226 1.584 1_556 S
C474 C249 1.585 . S
C476 C9 1.679 . S
C485 C116 1.688 . S
C487 C269 1.587 . S
C496 C139 1.678 . S
C498 C291 1.590 . S
C507 C161 1.678 . S
C509 C317 1.590 . S
C518 C94 1.687 . S
C520 C339 1.592 . S
C529 C6 1.554 . S
C531 C334 1.625 . S
C540 C29 1.553 . S
C542 C96 1.622 . S
C551 C294 1.627 . S
C553 C51 1.550 . S
C562 C136 1.623 . S
C564 C72 1.555 . S
C573 C97 1.553 . S
C575 C246 1.622 . S
C584 C4 1.622 1_556 S
C586 C119 1.554 . S
C595 C137 1.548 . S
C597 C206 1.623 . S
C606 C159 1.554 . S
C608 C52 1.626 . S
C617 C182 1.547 . S
C619 C158 1.626 . S
C628 C272 1.622 . S
C630 C205 1.555 . S
C639 C227 1.549 . S
C641 C118 1.623 . S
C650 C312 1.622 . S
C652 C248 1.554 . S
C661 C273 1.553 . S
C663 C70 1.626 . S
C672 C180 1.627 . S
C674 C295 1.549 . S
C683 C313 1.546 . S
C685 C30 1.624 . S
C694 C335 1.556 . S
C696 C228 1.623 1_556 S
C705 C8 1.410 . S
C707 C268 1.403 . S
C716 C114 1.405 . S
C718 C26 1.406 . S
C727 C48 1.409 . S
C729 C316 1.404 . S
C738 C162 1.404 . S
C740 C74 1.408 . S
C749 C92 1.404 . S
C751 C184 1.408 . S
C760 C224 1.408 . S
C762 C140 1.405 . S
C771 C202 1.409 . S
C773 C290 1.404 . S
C782 C338 1.404 . S
C784 C250 1.408 . S
C793 C271 1.329 . S
C795 C5 1.316 . S
C804 C117 1.328 . S
C806 C31 1.316 . S
C815 C53 1.327 . S
C817 C314 1.316 . S
C826 C160 1.326 . S
C828 C71 1.318 . S
C837 C95 1.314 . S
C839 C181 1.327 . S
C848 C138 1.314 . S
C850 C229 1.327 . S
C859 C293 1.328 . S
C861 C207 1.316 . S
C870 C336 1.329 . S
C872 C247 1.315 . S
