# Generated by pormake.
# Topology umd, (4)-cn, num edge types: 1
# Building blocks:
#     Node 0, Type 0, BuildingBlock: QUQFOY_clean_sbu_3, # of connection points: 4
#     Node 1, Type 0, BuildingBlock: QUQFOY_clean_sbu_3, # of connection points: 4
#     Node 2, Type 0, BuildingBlock: QUQFOY_clean_sbu_3, # of connection points: 4
#     Node 3, Type 0, BuildingBlock: QUQFOY_clean_sbu_3, # of connection points: 4
#     Node 4, Type 0, BuildingBlock: QUQFOY_clean_sbu_3, # of connection points: 4
#     Node 5, Type 0, BuildingBlock: QUQFOY_clean_sbu_3, # of connection points: 4
#     Node 6, Type 0, BuildingBlock: QUQFOY_clean_sbu_3, # of connection points: 4
#     Node 7, Type 0, BuildingBlock: QUQFOY_clean_sbu_3, # of connection points: 4
#     Node 8, Type 0, BuildingBlock: QUQFOY_clean_sbu_3, # of connection points: 4
#     Node 9, Type 0, BuildingBlock: QUQFOY_clean_sbu_3, # of connection points: 4
#     Node 10, Type 0, BuildingBlock: QUQFOY_clean_sbu_3, # of connection points: 4
#     Node 11, Type 0, BuildingBlock: QUQFOY_clean_sbu_3, # of connection points: 4
#     Node 12, Type 0, BuildingBlock: QUQFOY_clean_sbu_3, # of connection points: 4
#     Node 13, Type 0, BuildingBlock: QUQFOY_clean_sbu_3, # of connection points: 4
#     Node 14, Type 0, BuildingBlock: QUQFOY_clean_sbu_3, # of connection points: 4
#     Node 15, Type 0, BuildingBlock: QUQFOY_clean_sbu_3, # of connection points: 4
#     Edge 16, Type (0, 0), BuildingBlock: UVAHIK_clean_linker_0, # of connection points: 2
#     Edge 17, Type (0, 0), BuildingBlock: UVAHIK_clean_linker_0, # of connection points: 2
#     Edge 18, Type (0, 0), BuildingBlock: UVAHIK_clean_linker_0, # of connection points: 2
#     Edge 19, Type (0, 0), BuildingBlock: UVAHIK_clean_linker_0, # of connection points: 2
#     Edge 20, Type (0, 0), BuildingBlock: UVAHIK_clean_linker_0, # of connection points: 2
#     Edge 21, Type (0, 0), BuildingBlock: UVAHIK_clean_linker_0, # of connection points: 2
#     Edge 22, Type (0, 0), BuildingBlock: UVAHIK_clean_linker_0, # of connection points: 2
#     Edge 23, Type (0, 0), BuildingBlock: UVAHIK_clean_linker_0, # of connection points: 2
#     Edge 24, Type (0, 0), BuildingBlock: UVAHIK_clean_linker_0, # of connection points: 2
#     Edge 25, Type (0, 0), BuildingBlock: UVAHIK_clean_linker_0, # of connection points: 2
#     Edge 26, Type (0, 0), BuildingBlock: UVAHIK_clean_linker_0, # of connection points: 2
#     Edge 27, Type (0, 0), BuildingBlock: UVAHIK_clean_linker_0, # of connection points: 2
#     Edge 28, Type (0, 0), BuildingBlock: UVAHIK_clean_linker_0, # of connection points: 2
#     Edge 29, Type (0, 0), BuildingBlock: UVAHIK_clean_linker_0, # of connection points: 2
#     Edge 30, Type (0, 0), BuildingBlock: UVAHIK_clean_linker_0, # of connection points: 2
#     Edge 31, Type (0, 0), BuildingBlock: UVAHIK_clean_linker_0, # of connection points: 2
#     Edge 32, Type (0, 0), BuildingBlock: UVAHIK_clean_linker_0, # of connection points: 2
#     Edge 33, Type (0, 0), BuildingBlock: UVAHIK_clean_linker_0, # of connection points: 2
#     Edge 34, Type (0, 0), BuildingBlock: UVAHIK_clean_linker_0, # of connection points: 2
#     Edge 35, Type (0, 0), BuildingBlock: UVAHIK_clean_linker_0, # of connection points: 2
#     Edge 36, Type (0, 0), BuildingBlock: UVAHIK_clean_linker_0, # of connection points: 2
#     Edge 37, Type (0, 0), BuildingBlock: UVAHIK_clean_linker_0, # of connection points: 2
#     Edge 38, Type (0, 0), BuildingBlock: UVAHIK_clean_linker_0, # of connection points: 2
#     Edge 39, Type (0, 0), BuildingBlock: UVAHIK_clean_linker_0, # of connection points: 2
#     Edge 40, Type (0, 0), BuildingBlock: UVAHIK_clean_linker_0, # of connection points: 2
#     Edge 41, Type (0, 0), BuildingBlock: UVAHIK_clean_linker_0, # of connection points: 2
#     Edge 42, Type (0, 0), BuildingBlock: UVAHIK_clean_linker_0, # of connection points: 2
#     Edge 43, Type (0, 0), BuildingBlock: UVAHIK_clean_linker_0, # of connection points: 2
#     Edge 44, Type (0, 0), BuildingBlock: UVAHIK_clean_linker_0, # of connection points: 2
#     Edge 45, Type (0, 0), BuildingBlock: UVAHIK_clean_linker_0, # of connection points: 2
#     Edge 46, Type (0, 0), BuildingBlock: UVAHIK_clean_linker_0, # of connection points: 2
#     Edge 47, Type (0, 0), BuildingBlock: UVAHIK_clean_linker_0, # of connection points: 2
# Relax obj value: 0.100
# Max RMSD: 0.237
# Mean RMSD: 0.237
data_MOF--net-umd--node1-QUQFOY_clean_sbu_3--edge1-UVAHIK_clean_linker_0
_symmetry_space_group_name_H-M    P1
_symmetry_Int_Tables_number       1
_symmetry_cell_setting            triclinic
loop_
_symmetry_equiv_pos_as_xyz
'x, y, z'
_cell_length_a     52.96173
_cell_length_b     52.815221
_cell_length_c     77.159165
_cell_angle_alpha  90.105342
_cell_angle_beta   90.146077
_cell_angle_gamma 89.944197
loop_
_atom_site_label
_atom_site_type_symbol
_atom_site_fract_x
_atom_site_fract_y
_atom_site_fract_z
_atom_type_partial_charge
C0 C 0.18554 0.47134 0.12806 0.0
O1 O 0.18556 0.49108 0.11872 0.0
Cd2 Cd 0.16631 0.49026 0.09045 0.0
O3 O 0.17799 0.45037 0.1218 0.0
Cd4 Cd 0.16411 0.43145 0.09413 0.0
C5 C 0.109 0.46175 0.09992 0.0
O6 O 0.18375 0.4584 0.07183 0.0
O7 O 0.15182 0.43526 0.06423 0.0
O8 O 0.20054 0.4047 0.09617 0.0
C9 C 0.16941 0.45019 0.05983 0.0
O10 O 0.12194 0.48116 0.09583 0.0
C11 C 0.18929 0.38354 0.09558 0.0
O12 O 0.11943 0.44001 0.10123 0.0
O13 O 0.16527 0.38415 0.09464 0.0
C14 C 0.48388 0.18401 0.62805 0.0
O15 O 0.46467 0.18338 0.61821 0.0
Cd16 Cd 0.46956 0.1658 0.58945 0.0
O17 O 0.50529 0.17703 0.62236 0.0
Cd18 Cd 0.52692 0.16245 0.5961 0.0
C19 C 0.49501 0.10738 0.59893 0.0
O20 O 0.50324 0.18574 0.57333 0.0
O21 O 0.52856 0.15562 0.56543 0.0
O22 O 0.55524 0.19588 0.60478 0.0
C23 C 0.51428 0.17384 0.56114 0.0
O24 O 0.47633 0.12063 0.59384 0.0
C25 C 0.57567 0.18362 0.60307 0.0
O26 O 0.51642 0.11768 0.60177 0.0
O27 O 0.5738 0.16067 0.59817 0.0
C28 C 0.76634 0.48314 0.12559 0.0
O29 O 0.76726 0.46361 0.116 0.0
Cd30 Cd 0.78254 0.46749 0.0866 0.0
O31 O 0.7717 0.50477 0.1194 0.0
Cd32 Cd 0.78316 0.52673 0.0925 0.0
C33 C 0.83967 0.49696 0.09455 0.0
O34 O 0.76029 0.50025 0.07116 0.0
O35 O 0.78649 0.52835 0.06145 0.0
O36 O 0.74868 0.55285 0.10191 0.0
C37 C 0.76997 0.51161 0.05826 0.0
O38 O 0.82707 0.47747 0.09011 0.0
C39 C 0.75913 0.57415 0.09953 0.0
O40 O 0.82862 0.51812 0.09716 0.0
O41 O 0.78178 0.57385 0.09403 0.0
C42 C 0.46197 0.76226 0.62754 0.0
O43 O 0.48081 0.76162 0.61742 0.0
Cd44 Cd 0.47747 0.77994 0.58893 0.0
O45 O 0.44067 0.77009 0.62207 0.0
Cd46 Cd 0.41883 0.78415 0.5955 0.0
C47 C 0.45166 0.83841 0.59956 0.0
O48 O 0.44303 0.76234 0.57259 0.0
O49 O 0.41926 0.79382 0.56505 0.0
O50 O 0.39065 0.74999 0.60267 0.0
C51 C 0.43388 0.77598 0.56054 0.0
O52 O 0.47016 0.82484 0.59451 0.0
C53 C 0.37016 0.76227 0.60133 0.0
O54 O 0.42991 0.8286 0.60196 0.0
O55 O 0.37192 0.78555 0.59722 0.0
C56 C 0.18545 0.48618 0.31224 0.0
O57 O 0.18516 0.46682 0.32194 0.0
Cd58 Cd 0.16867 0.4711 0.35097 0.0
O59 O 0.17865 0.5076 0.31816 0.0
Cd60 Cd 0.16488 0.52918 0.34471 0.0
C61 C 0.11002 0.49683 0.34247 0.0
O62 O 0.18898 0.50499 0.36676 0.0
O63 O 0.15965 0.53058 0.37554 0.0
O64 O 0.19783 0.55771 0.33575 0.0
C65 C 0.17776 0.51587 0.3793 0.0
O66 O 0.12356 0.47811 0.34715 0.0
C67 C 0.18567 0.57817 0.3378 0.0
O68 O 0.12001 0.51843 0.33971 0.0
O69 O 0.16296 0.57622 0.34299 0.0
C70 C 0.46779 0.18562 0.81204 0.0
O71 O 0.48746 0.18522 0.82146 0.0
Cd72 Cd 0.486 0.16597 0.84969 0.0
O73 O 0.4467 0.17854 0.81821 0.0
Cd74 Cd 0.42736 0.16506 0.84574 0.0
C75 C 0.45645 0.10917 0.83978 0.0
O76 O 0.45457 0.18449 0.86812 0.0
O77 O 0.43076 0.15315 0.87577 0.0
O78 O 0.40121 0.20189 0.84288 0.0
C79 C 0.44603 0.17052 0.88016 0.0
O80 O 0.47608 0.12163 0.8441 0.0
C81 C 0.37996 0.19095 0.84367 0.0
O82 O 0.43506 0.12018 0.8384 0.0
O83 O 0.38024 0.16693 0.84519 0.0
C84 C 0.76705 0.46672 0.31047 0.0
O85 O 0.76597 0.48617 0.32011 0.0
Cd86 Cd 0.78231 0.48366 0.34918 0.0
O87 O 0.77419 0.44562 0.31672 0.0
Cd88 Cd 0.78586 0.42558 0.34451 0.0
C89 C 0.84089 0.45671 0.34149 0.0
O90 O 0.76218 0.45097 0.36589 0.0
O91 O 0.79377 0.42885 0.37532 0.0
O92 O 0.75188 0.39736 0.33698 0.0
C93 C 0.77489 0.44278 0.3787 0.0
O94 O 0.82751 0.47582 0.34568 0.0
C95 C 0.76364 0.37672 0.33928 0.0
O96 O 0.8307 0.43507 0.33919 0.0
O97 O 0.78656 0.37838 0.34418 0.0
C98 C 0.48473 0.76342 0.81142 0.0
O99 O 0.46555 0.76354 0.82124 0.0
Cd100 Cd 0.46969 0.78084 0.85011 0.0
O101 O 0.50605 0.77059 0.81721 0.0
Cd102 Cd 0.52747 0.78479 0.84379 0.0
C103 C 0.49487 0.83953 0.84084 0.0
O104 O 0.5036 0.76144 0.86629 0.0
O105 O 0.52861 0.79163 0.8745 0.0
O106 O 0.55588 0.75136 0.8353 0.0
C107 C 0.5142 0.77348 0.87862 0.0
O108 O 0.47635 0.82598 0.84575 0.0
C109 C 0.5763 0.76353 0.83725 0.0
O110 O 0.51648 0.82956 0.83815 0.0
O111 O 0.5744 0.78648 0.84217 0.0
C112 C 0.76479 0.48378 0.81007 0.0
O113 O 0.76393 0.46443 0.81977 0.0
Cd114 Cd 0.78038 0.46703 0.8488 0.0
O115 O 0.77185 0.50499 0.81624 0.0
Cd116 Cd 0.78379 0.52526 0.84395 0.0
C117 C 0.83878 0.49393 0.84066 0.0
O118 O 0.76038 0.49998 0.86541 0.0
O119 O 0.79204 0.52206 0.87473 0.0
O120 O 0.75001 0.55388 0.83653 0.0
C121 C 0.77323 0.50813 0.87818 0.0
O122 O 0.82553 0.47488 0.84509 0.0
C123 C 0.76199 0.57437 0.83893 0.0
O124 O 0.82847 0.51551 0.83828 0.0
O125 O 0.78489 0.57242 0.8438 0.0
C126 C 0.46287 0.76533 0.31166 0.0
O127 O 0.48203 0.76449 0.32155 0.0
Cd128 Cd 0.47945 0.783 0.35007 0.0
O129 O 0.44187 0.77342 0.31741 0.0
Cd130 Cd 0.421 0.78769 0.3442 0.0
C131 C 0.45399 0.84173 0.33995 0.0
O132 O 0.44548 0.76556 0.36689 0.0
O133 O 0.42222 0.79732 0.37465 0.0
O134 O 0.39271 0.75357 0.33711 0.0
C135 C 0.43664 0.77924 0.37903 0.0
O136 O 0.47254 0.82802 0.34474 0.0
C137 C 0.37223 0.76583 0.33858 0.0
O138 O 0.4321 0.83208 0.33775 0.0
O139 O 0.37402 0.78909 0.34277 0.0
C140 C 0.18414 0.46865 0.81083 0.0
O141 O 0.184 0.48837 0.82024 0.0
Cd142 Cd 0.1651 0.48719 0.84854 0.0
O143 O 0.17697 0.44755 0.81703 0.0
Cd144 Cd 0.16371 0.42813 0.8446 0.0
C145 C 0.10818 0.45768 0.83886 0.0
O146 O 0.18337 0.45542 0.86682 0.0
O147 O 0.1521 0.43168 0.87465 0.0
O148 O 0.20043 0.40198 0.84163 0.0
C149 C 0.16946 0.44702 0.87892 0.0
O150 O 0.12087 0.47725 0.84305 0.0
C151 C 0.18958 0.38064 0.84256 0.0
O152 O 0.11888 0.43609 0.8375 0.0
O153 O 0.16565 0.38087 0.84419 0.0
C154 C 0.48414 0.18683 0.31336 0.0
O155 O 0.46568 0.18635 0.3238 0.0
Cd156 Cd 0.47166 0.16871 0.35232 0.0
O157 O 0.50597 0.17994 0.31841 0.0
Cd158 Cd 0.52921 0.16603 0.34439 0.0
C159 C 0.49767 0.11063 0.34196 0.0
O160 O 0.50602 0.18897 0.36745 0.0
O161 O 0.53197 0.1593 0.37511 0.0
O162 O 0.55697 0.19975 0.33543 0.0
C163 C 0.51742 0.17724 0.37954 0.0
O164 O 0.47909 0.12372 0.34741 0.0
C165 C 0.57757 0.18773 0.33703 0.0
O166 O 0.51889 0.12111 0.33884 0.0
O167 O 0.57603 0.16475 0.34187 0.0
C168 C 0.76581 0.46358 0.62529 0.0
O169 O 0.76638 0.48293 0.61556 0.0
Cd170 Cd 0.78102 0.47908 0.58602 0.0
O171 O 0.77148 0.44188 0.61926 0.0
Cd172 Cd 0.78335 0.41947 0.5925 0.0
C173 C 0.83911 0.45109 0.59343 0.0
O174 O 0.75922 0.44516 0.57148 0.0
O175 O 0.78517 0.41709 0.56135 0.0
O176 O 0.75055 0.39158 0.60269 0.0
C177 C 0.76853 0.43382 0.55842 0.0
O178 O 0.82591 0.47023 0.58909 0.0
C179 C 0.76233 0.37094 0.6004 0.0
O180 O 0.82868 0.42971 0.59626 0.0
O181 O 0.7847 0.37253 0.59451 0.0
C182 C 0.47795 0.76571 0.12768 0.0
O183 O 0.45856 0.76597 0.11801 0.0
Cd184 Cd 0.46288 0.78407 0.0894 0.0
O185 O 0.49912 0.77293 0.12178 0.0
Cd186 Cd 0.52005 0.78714 0.09522 0.0
C187 C 0.48882 0.84224 0.09923 0.0
O188 O 0.49584 0.76462 0.07228 0.0
O189 O 0.5208 0.79516 0.06472 0.0
O190 O 0.5469 0.75245 0.1031 0.0
C191 C 0.50661 0.77697 0.06022 0.0
O192 O 0.47004 0.82904 0.09426 0.0
C193 C 0.56791 0.76359 0.10129 0.0
O194 O 0.51035 0.83193 0.10164 0.0
O195 O 0.56716 0.78675 0.09673 0.0
C196 C 0.18332 0.48338 0.6266 0.0
O197 O 0.18345 0.46403 0.61684 0.0
Cd198 Cd 0.1671 0.46821 0.58772 0.0
O199 O 0.17623 0.50468 0.62068 0.0
Cd200 Cd 0.16251 0.52608 0.59407 0.0
C201 C 0.10801 0.49309 0.59579 0.0
O202 O 0.18707 0.50231 0.57206 0.0
O203 O 0.15742 0.52752 0.56324 0.0
O204 O 0.19528 0.55467 0.6034 0.0
C205 C 0.17579 0.51313 0.55952 0.0
O206 O 0.12187 0.47455 0.5912 0.0
C207 C 0.18311 0.57512 0.60133 0.0
O208 O 0.11768 0.51484 0.59867 0.0
O209 O 0.16044 0.57315 0.59597 0.0
C210 C 0.46488 0.18934 0.12992 0.0
O211 O 0.48509 0.18816 0.12116 0.0
Cd212 Cd 0.48472 0.16865 0.0929 0.0
O213 O 0.44403 0.18258 0.12315 0.0
Cd214 Cd 0.42614 0.16823 0.09531 0.0
C215 C 0.45456 0.11219 0.10217 0.0
O216 O 0.45438 0.1868 0.07331 0.0
O217 O 0.43084 0.15515 0.06564 0.0
O218 O 0.39965 0.20507 0.0962 0.0
C219 C 0.44622 0.17239 0.0613 0.0
O220 O 0.47447 0.12441 0.09824 0.0
C221 C 0.3785 0.19387 0.09564 0.0
O222 O 0.43324 0.12344 0.10308 0.0
O223 O 0.37901 0.16976 0.09518 0.0
C224 C 0.0713 0.48942 0.10441 0.0
C225 C 0.08145 0.46495 0.10254 0.0
C226 C 0.04527 0.49315 0.10537 0.0
C227 C -0.01578 0.46058 0.11276 0.0
H228 H 0.95732 0.51718 0.08654 0.0
C229 C 0.87865 0.47024 0.09589 0.0
C230 C 0.86738 0.49435 0.09691 0.0
C231 C 0.90466 0.46729 0.09797 0.0
C232 C 0.96454 0.50152 0.09414 0.0
H233 H 0.07211 0.42508 0.10075 0.0
H234 H 0.02642 0.43161 0.10216 0.0
H235 H 0.00275 0.51025 0.08764 0.0
H236 H 0.87479 0.53428 0.10104 0.0
H237 H 0.92047 0.52909 0.10462 0.0
H238 H 0.94585 0.45163 0.11894 0.0
C239 C 0.03872 0.44793 0.10308 0.0
C240 C -0.00939 0.49751 0.09478 0.0
C241 C 0.0649 0.44416 0.10223 0.0
C242 C 0.88285 0.51547 0.10015 0.0
C243 C 0.90901 0.5125 0.10213 0.0
C244 C 0.95812 0.46455 0.11206 0.0
C245 C 0.02859 0.47254 0.10437 0.0
C246 C 0.0008 0.47694 0.10405 0.0
C247 C 0.92018 0.48835 0.10106 0.0
C248 C 0.94797 0.48498 0.10265 0.0
H249 H 0.08348 0.50587 0.10492 0.0
H250 H 0.03821 0.51229 0.10678 0.0
H251 H -0.00859 0.44479 0.12023 0.0
H252 H 0.8674 0.4535 0.09344 0.0
H253 H 0.91267 0.44848 0.09681 0.0
C254 C 0.48071 0.87532 0.60313 0.0
C255 C 0.45591 0.86589 0.60227 0.0
C256 C 0.48523 0.90126 0.60456 0.0
C257 C 0.45501 0.96287 0.6152 0.0
H258 H 0.5102 -0.01012 0.58794 0.0
C259 C 0.46691 0.06942 0.60089 0.0
C260 C 0.49139 0.07976 0.6014 0.0
C261 C 0.46315 0.04338 0.60255 0.0
C262 C 0.49496 -0.01739 0.59582 0.0
H263 H 0.41635 0.8764 0.60267 0.0
H264 H 0.42422 0.92192 0.60481 0.0
H265 H 0.50203 0.94454 0.58775 0.0
H266 H 0.53111 0.07072 0.60435 0.0
H267 H 0.52451 0.02503 0.60716 0.0
H268 H 0.44766 0.00117 0.62289 0.0
C269 C 0.44021 0.90914 0.60463 0.0
C270 C 0.49024 0.95658 0.59573 0.0
C271 C 0.43567 0.88305 0.60333 0.0
C272 C 0.51203 0.06339 0.60387 0.0
C273 C 0.50826 0.03722 0.6054 0.0
C274 C 0.45966 -0.01105 0.61519 0.0
C275 C 0.46508 0.91858 0.60502 0.0
C276 C 0.47017 0.94634 0.60539 0.0
C277 C 0.48377 0.02694 0.60467 0.0
C278 C 0.47962 -0.00088 0.60544 0.0
H279 H 0.49678 0.86265 0.60257 0.0
H280 H 0.5046 0.90773 0.60526 0.0
H281 H 0.43966 0.95565 0.62299 0.0
H282 H 0.45054 0.08143 0.59905 0.0
H283 H 0.44409 0.03606 0.60172 0.0
C284 C 0.07252 0.46826 0.34035 0.0
C285 C 0.08243 0.49296 0.34036 0.0
C286 C 0.04656 0.46416 0.33909 0.0
C287 C -0.01405 0.49483 0.32699 0.0
H288 H 0.95746 0.44154 0.35541 0.0
C289 C 0.87898 0.48458 0.33953 0.0
C290 C 0.86855 0.46008 0.3395 0.0
C291 C 0.90504 0.48811 0.33834 0.0
C292 C 0.96515 0.45626 0.34722 0.0
H293 H 0.0727 0.53276 0.33877 0.0
H294 H 0.02715 0.52563 0.33694 0.0
H295 H 0.00276 0.44921 0.35606 0.0
H296 H 0.87745 0.42006 0.33792 0.0
H297 H 0.92315 0.42626 0.33592 0.0
H298 H 0.9481 0.50215 0.31846 0.0
C299 C 0.03959 0.50939 0.33764 0.0
C300 C -0.00884 0.46068 0.34757 0.0
C301 C 0.06569 0.5135 0.33877 0.0
C302 C 0.88485 0.43917 0.338 0.0
C303 C 0.91102 0.44272 0.33694 0.0
C304 C 0.95989 0.49049 0.32672 0.0
C305 C 0.02969 0.48464 0.33796 0.0
C306 C 0.00193 0.48003 0.33747 0.0
C307 C 0.9214 0.46725 0.33719 0.0
C308 C 0.94919 0.47118 0.33686 0.0
H309 H 0.08484 0.45194 0.34134 0.0
H310 H 0.03974 0.44484 0.33898 0.0
H311 H -0.00641 0.50962 0.31885 0.0
H312 H 0.86703 0.50116 0.34062 0.0
H313 H 0.91242 0.50722 0.33876 0.0
C314 C 0.46604 0.87694 0.83877 0.0
C315 C 0.49073 0.8671 0.83838 0.0
C316 C 0.46171 0.90289 0.83715 0.0
C317 C 0.49114 0.96317 0.82317 0.0
H318 H 0.44011 -0.00706 0.85291 0.0
C319 C 0.48314 0.07057 0.83562 0.0
C320 C 0.45897 0.08151 0.83684 0.0
C321 C 0.48606 0.04441 0.83403 0.0
C322 C 0.45414 -0.01511 0.84432 0.0
H323 H 0.53024 0.87694 0.83568 0.0
H324 H 0.52272 0.92249 0.83316 0.0
H325 H 0.44768 0.9475 0.85387 0.0
H326 H 0.41884 0.07344 0.8369 0.0
H327 H 0.42397 0.02751 0.83415 0.0
H328 H 0.49791 0.00078 0.81392 0.0
C329 C 0.50666 0.90998 0.83448 0.0
C330 C 0.45853 0.9588 0.84487 0.0
C331 C 0.511 0.88388 0.83601 0.0
C332 C 0.43771 0.06563 0.836 0.0
C333 C 0.44066 0.03933 0.83454 0.0
C334 C 0.48681 -0.0107 0.82268 0.0
C335 C 0.48194 0.91981 0.83521 0.0
C336 C 0.47715 0.9476 0.83436 0.0
C337 C 0.4649 0.02843 0.8337 0.0
C338 C 0.46836 0.00048 0.83333 0.0
H339 H 0.4499 0.86459 0.84037 0.0
H340 H 0.44241 0.90967 0.83739 0.0
H341 H 0.50533 0.95516 0.8147 0.0
H342 H 0.49997 0.08219 0.83615 0.0
H343 H 0.50499 0.03665 0.83362 0.0
C344 C 0.87713 0.46621 0.8394 0.0
C345 C 0.8664 0.49056 0.83841 0.0
C346 C 0.90316 0.46276 0.83779 0.0
C347 C 0.96333 0.49625 0.84327 0.0
H348 H -0.00905 0.43959 0.81743 0.0
C349 C 0.07021 0.48493 0.83422 0.0
C350 C 0.0806 0.46057 0.8361 0.0
C351 C 0.04416 0.48837 0.83303 0.0
C352 C -0.01647 0.45535 0.82484 0.0
H353 H 0.87476 0.53037 0.83468 0.0
H354 H 0.92036 0.52431 0.83188 0.0
H355 H 0.94533 0.44648 0.81792 0.0
H356 H 0.07168 0.4206 0.83766 0.0
H357 H 0.02591 0.42664 0.83586 0.0
H358 H 0.00132 0.50494 0.85046 0.0
C359 C 0.90851 0.50791 0.83403 0.0
C360 C 0.9574 0.45934 0.82509 0.0
C361 C 0.88238 0.51137 0.83555 0.0
C362 C 0.06428 0.4396 0.8362 0.0
C363 C 0.03806 0.44308 0.83511 0.0
C364 C -0.01061 0.49222 0.84308 0.0
C365 C 0.91919 0.48356 0.83521 0.0
C366 C 0.947 0.47982 0.83434 0.0
C367 C 0.02769 0.46758 0.83382 0.0
C368 C -0.00014 0.47173 0.83386 0.0
H369 H 0.86544 0.44971 0.84157 0.0
H370 H 0.91078 0.4438 0.83898 0.0
H371 H 0.95591 0.51192 0.85078 0.0
H372 H 0.08221 0.50151 0.83386 0.0
H373 H 0.03691 0.50744 0.83161 0.0
C374 C 0.51472 0.06674 0.33651 0.0
C375 C 0.4941 0.08301 0.33936 0.0
C376 C 0.51098 0.04058 0.33481 0.0
C377 C 0.46217 -0.00766 0.3251 0.0
H378 H 0.5053 0.94758 0.35173 0.0
C379 C 0.43815 0.88648 0.33654 0.0
C380 C 0.45833 0.86921 0.33732 0.0
C381 C 0.44279 0.91255 0.33533 0.0
C382 C 0.4933 0.95972 0.34397 0.0
H383 H 0.45333 0.0845 0.34219 0.0
H384 H 0.44694 0.03916 0.33921 0.0
H385 H 0.51354 -0.00709 0.35181 0.0
H386 H 0.49916 0.86575 0.33661 0.0
H387 H 0.50715 0.91082 0.33408 0.0
H388 H 0.44189 0.95916 0.31726 0.0
C389 C 0.46596 0.04655 0.33823 0.0
C390 C 0.49805 -0.01426 0.34403 0.0
C391 C 0.46968 0.07257 0.34008 0.0
C392 C 0.48315 0.87852 0.33627 0.0
C393 C 0.48776 0.90444 0.33492 0.0
C394 C 0.4575 0.96627 0.32494 0.0
C395 C 0.48654 0.0302 0.33573 0.0
C396 C 0.48243 0.00239 0.33472 0.0
C397 C 0.4677 0.92187 0.33474 0.0
C398 C 0.47291 0.94962 0.33447 0.0
H399 H 0.53375 0.07415 0.33588 0.0
H400 H 0.52721 0.02846 0.33276 0.0
H401 H 0.44995 0.00466 0.31763 0.0
H402 H 0.41882 0.87993 0.33736 0.0
H403 H 0.42686 0.92541 0.33537 0.0
C404 C 0.87736 0.47878 0.59499 0.0
C405 C 0.86683 0.45432 0.59533 0.0
C406 C 0.90338 0.4823 0.59648 0.0
C407 C 0.96382 0.45035 0.58929 0.0
H408 H -0.00912 0.50477 0.61758 0.0
C409 C 0.07091 0.46399 0.59768 0.0
C410 C 0.08045 0.48884 0.59761 0.0
C411 C 0.04499 0.45952 0.5986 0.0
C412 C -0.01636 0.48968 0.60946 0.0
H413 H 0.87557 0.41436 0.59766 0.0
H414 H 0.92129 0.42054 0.60014 0.0
H415 H 0.94548 0.49692 0.61719 0.0
H416 H 0.0701 0.52852 0.59874 0.0
H417 H 0.02463 0.52075 0.59997 0.0
H418 H 0.00177 0.4434 0.58122 0.0
C419 C 0.90922 0.43697 0.59867 0.0
C420 C 0.95762 0.48512 0.60929 0.0
C421 C 0.88304 0.43343 0.59732 0.0
C422 C 0.06338 0.50916 0.5988 0.0
C423 C 0.03732 0.50467 0.59959 0.0
C424 C -0.0102 0.455 0.58936 0.0
C425 C 0.91965 0.46147 0.59825 0.0
C426 C 0.94741 0.46547 0.59914 0.0
C427 C 0.02779 0.47977 0.59932 0.0
C428 C 8e-05 0.47477 0.59942 0.0
H429 H 0.86549 0.49536 0.59352 0.0
H430 H 0.91081 0.50138 0.59588 0.0
H431 H 0.95651 0.43534 0.58112 0.0
H432 H 0.08349 0.44784 0.59699 0.0
H433 H 0.03845 0.4401 0.59877 0.0
C434 C 0.48063 0.07322 0.10654 0.0
C435 C 0.45664 0.08452 0.10511 0.0
C436 C 0.48314 0.04702 0.10802 0.0
C437 C 0.45036 -0.01189 0.09704 0.0
H438 H 0.50102 0.95726 0.12666 0.0
C439 C 0.46056 0.88 0.1018 0.0
C440 C 0.48511 0.8698 0.10204 0.0
C441 C 0.45664 0.90597 0.10369 0.0
C442 C 0.48697 0.96559 0.11819 0.0
H443 H 0.41639 0.07705 0.10462 0.0
H444 H 0.4208 0.03105 0.10721 0.0
H445 H 0.49426 0.00298 0.12779 0.0
H446 H 0.5248 0.879 0.10477 0.0
H447 H 0.51797 0.92462 0.10777 0.0
H448 H 0.44336 0.95094 0.08717 0.0
C449 C 0.43767 0.04262 0.10705 0.0
C450 C 0.48303 -0.00822 0.11888 0.0
C451 C 0.43514 0.06896 0.10567 0.0
C452 C 0.50566 0.88623 0.10455 0.0
C453 C 0.50172 0.91236 0.10635 0.0
C454 C 0.45435 0.96198 0.09631 0.0
C455 C 0.46174 0.03135 0.10805 0.0
C456 C 0.46478 0.00336 0.10823 0.0
C457 C 0.47714 0.92256 0.10575 0.0
C458 C 0.47277 0.95038 0.10682 0.0
H459 H 0.49763 0.08459 0.10622 0.0
H460 H 0.50194 0.03897 0.10857 0.0
H461 H 0.43649 -0.00353 0.08844 0.0
H462 H 0.44423 0.86791 0.1001 0.0
H463 H 0.43744 0.91305 0.10353 0.0
C464 C 0.19758 0.50619 0.2842 0.0
C465 C 0.19263 0.48414 0.29377 0.0
C466 C 0.20183 0.50489 0.2664 0.0
C467 C 0.21564 0.46119 0.22987 0.0
H468 H 0.17968 0.51197 0.2032 0.0
C469 C 0.19242 0.45095 0.15698 0.0
C470 C 0.1928 0.47281 0.14659 0.0
C471 C 0.1967 0.45259 0.17481 0.0
C472 C 0.19023 0.49791 0.21043 0.0
H473 H 0.18934 0.44328 0.29229 0.0
H474 H 0.19627 0.44103 0.26102 0.0
H475 H 0.17924 0.51406 0.23463 0.0
H476 H 0.19925 0.51338 0.14671 0.0
H477 H 0.20688 0.51619 0.17785 0.0
H478 H 0.22603 0.4447 0.2055 0.0
C479 C 0.19718 0.45932 0.26736 0.0
C480 C 0.18998 0.49909 0.22848 0.0
C481 C 0.1931 0.4606 0.28526 0.0
C482 C 0.19864 0.4962 0.15434 0.0
C483 C 0.20289 0.49783 0.17219 0.0
C484 C 0.21584 0.45997 0.21175 0.0
C485 C 0.20103 0.48154 0.25767 0.0
C486 C 0.20254 0.48068 0.23844 0.0
C487 C 0.20144 0.47612 0.18267 0.0
C488 C 0.20297 0.47823 0.20184 0.0
H489 H 0.19771 0.52461 0.29041 0.0
H490 H 0.20533 0.5223 0.25941 0.0
H491 H 0.22574 0.44688 0.23716 0.0
H492 H 0.18806 0.43261 0.15143 0.0
H493 H 0.19522 0.43555 0.18253 0.0
C494 C 0.50359 0.19689 0.65612 0.0
C495 C 0.48167 0.19167 0.64644 0.0
C496 C 0.50218 0.20141 0.6739 0.0
C497 C 0.45842 0.21546 0.71019 0.0
H498 H 0.5089 0.17951 0.73712 0.0
C499 C 0.44771 0.19263 0.78302 0.0
C500 C 0.46945 0.19284 0.79353 0.0
C501 C 0.44948 0.19687 0.7652 0.0
C502 C 0.49493 0.19007 0.72983 0.0
H503 H 0.44093 0.18824 0.64771 0.0
H504 H 0.43849 0.19567 0.67894 0.0
H505 H 0.51117 0.17893 0.70571 0.0
H506 H 0.50995 0.19897 0.79366 0.0
H507 H 0.513 0.20656 0.76256 0.0
H508 H 0.44186 0.22602 0.73448 0.0
C509 C 0.45675 0.19657 0.6727 0.0
C510 C 0.49621 0.18973 0.71178 0.0
C511 C 0.45815 0.19221 0.65482 0.0
C512 C 0.49286 0.19849 0.78593 0.0
C513 C 0.49463 0.20272 0.7681 0.0
C514 C 0.45712 0.21577 0.72831 0.0
C515 C 0.47885 0.20061 0.6825 0.0
C516 C 0.4779 0.20227 0.70172 0.0
C517 C 0.47303 0.20141 0.75748 0.0
C518 C 0.47526 0.20289 0.73832 0.0
H519 H 0.52199 0.19699 0.65002 0.0
H520 H 0.51949 0.20506 0.68097 0.0
H521 H 0.44419 0.22555 0.70283 0.0
H522 H 0.42934 0.18843 0.78844 0.0
H523 H 0.43252 0.1955 0.75739 0.0
C524 C 0.7556 0.50304 0.15404 0.0
C525 C 0.76016 0.48104 0.14424 0.0
C526 C 0.75213 0.50165 0.17192 0.0
C527 C 0.73919 0.45767 0.20829 0.0
H528 H 0.77542 0.50821 0.23507 0.0
C529 C 0.76187 0.44683 0.28118 0.0
C530 C 0.76109 0.46857 0.29174 0.0
C531 C 0.75821 0.44868 0.2633 0.0
C532 C 0.76483 0.4942 0.22782 0.0
H533 H 0.76368 0.44018 0.14549 0.0
H534 H 0.75802 0.43776 0.17686 0.0
H535 H 0.77548 0.51054 0.20362 0.0
H536 H 0.75489 0.50918 0.2918 0.0
H537 H 0.74837 0.51236 0.26056 0.0
H538 H 0.72906 0.44105 0.23261 0.0
C539 C 0.75684 0.45609 0.17064 0.0
C540 C 0.76486 0.49552 0.20976 0.0
C541 C 0.76019 0.45747 0.15267 0.0
C542 C 0.75575 0.49208 0.28405 0.0
C543 C 0.75214 0.49393 0.26614 0.0
C544 C 0.73921 0.45632 0.2264 0.0
C545 C 0.75328 0.47824 0.18051 0.0
C546 C 0.75218 0.4772 0.19975 0.0
C547 C 0.75372 0.47229 0.25553 0.0
C548 C 0.75219 0.47448 0.23636 0.0
H549 H 0.75514 0.5215 0.14793 0.0
H550 H 0.74887 0.51901 0.17907 0.0
H551 H 0.72897 0.44345 0.20098 0.0
H552 H 0.76587 0.42839 0.28666 0.0
H553 H 0.7598 0.43169 0.25549 0.0
C554 C 0.50436 0.752 0.78305 0.0
C555 C 0.48248 0.75613 0.79294 0.0
C556 C 0.5027 0.74763 0.76525 0.0
C557 C 0.45838 0.73191 0.7294 0.0
H558 H 0.50662 0.76946 0.70181 0.0
C559 C 0.44367 0.75508 0.657 0.0
C560 C 0.46482 0.75522 0.64602 0.0
C561 C 0.44647 0.75087 0.67476 0.0
C562 C 0.49328 0.75847 0.70929 0.0
H563 H 0.4416 0.75792 0.79199 0.0
H564 H 0.43869 0.75077 0.76077 0.0
H565 H 0.51005 0.77006 0.73321 0.0
H566 H 0.50542 0.7499 0.64501 0.0
H567 H 0.51028 0.74245 0.67607 0.0
H568 H 0.44122 0.72096 0.70535 0.0
C569 C 0.45715 0.75057 0.76685 0.0
C570 C 0.49524 0.75881 0.72733 0.0
C571 C 0.4588 0.75477 0.78473 0.0
C572 C 0.48875 0.75005 0.65311 0.0
C573 C 0.49155 0.74591 0.67091 0.0
C574 C 0.45639 0.73164 0.71132 0.0
C575 C 0.47913 0.74748 0.75684 0.0
C576 C 0.47769 0.74573 0.73763 0.0
C577 C 0.47049 0.74674 0.68198 0.0
C578 C 0.47368 0.74513 0.70107 0.0
H579 H 0.5229 0.75258 0.78901 0.0
H580 H 0.51997 0.74475 0.75802 0.0
H581 H 0.44477 0.72136 0.73694 0.0
H582 H 0.42493 0.7589 0.65197 0.0
H583 H 0.4299 0.75188 0.68293 0.0
C584 C 0.75376 0.45795 0.78377 0.0
C585 C 0.75885 0.48163 0.79135 0.0
C586 C 0.75037 0.45577 0.76585 0.0
C587 C 0.73767 0.49246 0.72579 0.0
H588 H 0.77493 0.43813 0.70368 0.0
C589 C 0.75928 0.48978 0.65215 0.0
C590 C 0.75965 0.46601 0.64393 0.0
C591 C 0.75582 0.49156 0.6701 0.0
C592 C 0.76403 0.45317 0.70962 0.0
H593 H 0.76334 0.52175 0.78608 0.0
H594 H 0.75762 0.51787 0.75488 0.0
H595 H 0.77441 0.44116 0.7351 0.0
H596 H 0.75528 0.42559 0.64798 0.0
H597 H 0.7488 0.42874 0.67907 0.0
H598 H 0.72759 0.50463 0.7002 0.0
C599 C 0.75608 0.50101 0.76278 0.0
C600 C 0.76374 0.45489 0.72766 0.0
C601 C 0.75953 0.50319 0.78068 0.0
C602 C 0.75543 0.44419 0.65392 0.0
C603 C 0.75184 0.44597 0.67178 0.0
C604 C 0.7379 0.4907 0.70769 0.0
C605 C 0.75191 0.47722 0.75513 0.0
C606 C 0.75072 0.47465 0.73597 0.0
C607 C 0.75255 0.4696 0.68016 0.0
C608 C 0.75123 0.47111 0.69939 0.0
H609 H 0.75299 0.44098 0.79161 0.0
H610 H 0.74684 0.43722 0.76036 0.0
H611 H 0.72725 0.50776 0.73182 0.0
H612 H 0.7625 0.50695 0.64483 0.0
H613 H 0.75667 0.51005 0.67616 0.0
C614 C 0.48847 0.7525 0.28571 0.0
C615 C 0.46492 0.75809 0.29316 0.0
C616 C 0.49048 0.74809 0.26788 0.0
C617 C 0.45333 0.73399 0.22808 0.0
H618 H 0.5067 0.77127 0.20525 0.0
C619 C 0.4529 0.75723 0.15468 0.0
C620 C 0.47625 0.75814 0.1461 0.0
C621 C 0.45193 0.75291 0.17257 0.0
C622 C 0.49195 0.76033 0.21139 0.0
H623 H 0.42484 0.76225 0.28782 0.0
H624 H 0.42843 0.7548 0.25683 0.0
H625 H 0.50468 0.7709 0.23668 0.0
H626 H 0.51673 0.75355 0.14932 0.0
H627 H 0.51497 0.74553 0.18029 0.0
H628 H 0.44034 0.72385 0.20267 0.0
C629 C 0.44532 0.75364 0.26473 0.0
C630 C 0.49081 0.76012 0.22945 0.0
C631 C 0.44331 0.75811 0.28251 0.0
C632 C 0.49844 0.75335 0.15558 0.0
C633 C 0.49746 0.74886 0.17337 0.0
C634 C 0.4545 0.73416 0.20997 0.0
C635 C 0.46898 0.74907 0.25716 0.0
C636 C 0.47133 0.74721 0.23801 0.0
C637 C 0.47428 0.74926 0.18218 0.0
C638 C 0.47368 0.74756 0.20141 0.0
H639 H 0.50546 0.75221 0.29355 0.0
H640 H 0.50894 0.74429 0.26245 0.0
H641 H 0.43824 0.72364 0.23432 0.0
H642 H 0.43548 0.76086 0.14773 0.0
H643 H 0.43377 0.75351 0.17897 0.0
C644 C 0.19656 0.49374 0.78461 0.0
C645 C 0.1912 0.47025 0.79231 0.0
C646 C 0.20066 0.49544 0.76676 0.0
C647 C 0.21414 0.45779 0.72715 0.0
H648 H 0.17644 0.51116 0.70431 0.0
C649 C 0.1913 0.45795 0.65357 0.0
C650 C 0.19041 0.48147 0.64511 0.0
C651 C 0.19537 0.45675 0.67149 0.0
C652 C 0.18748 0.4964 0.71045 0.0
H653 H 0.18717 0.42996 0.78737 0.0
H654 H 0.19407 0.43302 0.75629 0.0
H655 H 0.17704 0.50911 0.73574 0.0
H656 H 0.19473 0.52203 0.6486 0.0
H657 H 0.20232 0.51988 0.67962 0.0
H658 H 0.22421 0.44487 0.70173 0.0
C659 C 0.19528 0.45009 0.76404 0.0
C660 C 0.18782 0.49524 0.72851 0.0
C661 C 0.19115 0.44839 0.78187 0.0
C662 C 0.19491 0.50362 0.65476 0.0
C663 C 0.19916 0.50241 0.67258 0.0
C664 C 0.21386 0.45899 0.70903 0.0
C665 C 0.19955 0.4737 0.75623 0.0
C666 C 0.20096 0.47582 0.73707 0.0
C667 C 0.19879 0.47904 0.68125 0.0
C668 C 0.20035 0.47822 0.70048 0.0
H669 H 0.1969 0.51093 0.79228 0.0
H670 H 0.20427 0.51386 0.76115 0.0
H671 H 0.22464 0.44273 0.73339 0.0
H672 H 0.18789 0.44056 0.64649 0.0
H673 H 0.1948 0.43845 0.67779 0.0
C674 C 0.45608 0.19818 0.28821 0.0
C675 C 0.48042 0.19433 0.29504 0.0
C676 C 0.45272 0.20307 0.27054 0.0
C677 C 0.48659 0.22208 0.2305 0.0
H678 H 0.43592 0.18109 0.20744 0.0
C679 C 0.48862 0.19964 0.15724 0.0
C680 C 0.46553 0.19696 0.1484 0.0
C681 C 0.48903 0.20398 0.17512 0.0
C682 C 0.44985 0.19307 0.21366 0.0
H683 H 0.52036 0.19368 0.28876 0.0
H684 H 0.51446 0.20198 0.25806 0.0
H685 H 0.43881 0.18066 0.23889 0.0
H686 H 0.42478 0.19823 0.15126 0.0
H687 H 0.42556 0.20617 0.18233 0.0
H688 H 0.498 0.23401 0.20518 0.0
C689 C 0.49798 0.20142 0.26633 0.0
C690 C 0.45149 0.19282 0.23172 0.0
C691 C 0.50133 0.19645 0.28394 0.0
C692 C 0.44291 0.19992 0.15769 0.0
C693 C 0.44333 0.20435 0.17553 0.0
C694 C 0.48492 0.22236 0.21241 0.0
C695 C 0.47363 0.20435 0.25936 0.0
C696 C 0.47016 0.20695 0.24034 0.0
C697 C 0.46638 0.20584 0.18453 0.0
C698 C 0.4668 0.20752 0.20377 0.0
H699 H 0.43958 0.19676 0.29641 0.0
H700 H 0.43373 0.20552 0.26557 0.0
H701 H 0.50096 0.23345 0.23678 0.0
H702 H 0.50638 0.19745 0.15047 0.0
H703 H 0.50713 0.2048 0.18167 0.0
C704 C 0.19426 0.46754 0.90298 0.0
C705 C 0.1722 0.45546 0.89708 0.0
C706 C 0.1968 0.47434 0.92048 0.0
C707 C 0.15945 0.48596 0.96005 0.0
H708 H 0.21677 0.4588 -0.01471 0.0
C709 C 0.15233 0.45354 0.02987 0.0
C710 C 0.17211 0.45818 0.04159 0.0
C711 C 0.15472 0.46001 0.01247 0.0
C712 C 0.20095 0.46706 -0.0216 0.0
H713 H 0.13529 0.44167 0.90471 0.0
H714 H 0.1396 0.45366 0.93495 0.0
H715 H 0.2168 0.45817 0.95357 0.0
H716 H 0.20987 0.47352 0.04434 0.0
H717 H 0.21426 0.48449 0.01355 0.0
H718 H 0.14302 0.49372 -0.01522 0.0
C719 C 0.15493 0.45796 0.92616 0.0
C720 C 0.20096 0.46669 0.96026 0.0
C721 C 0.15255 0.45088 0.90885 0.0
C722 C 0.19431 0.46976 0.03557 0.0
C723 C 0.19685 0.47597 0.018 0.0
C724 C 0.15944 0.48635 -0.02189 0.0
C725 C 0.1771 0.46958 0.93221 0.0
C726 C 0.17972 0.47513 0.95096 0.0
C727 C 0.17704 0.4711 0.0063 0.0
C728 C 0.17969 0.47589 -0.01253 0.0
H729 H 0.20971 0.47126 0.89418 0.0
H730 H 0.2141 0.48325 0.92484 0.0
H731 H 0.14303 0.49303 0.95317 0.0
H732 H 0.13496 0.4447 0.0341 0.0
H733 H 0.1393 0.45561 0.00373 0.0
C734 C 0.53247 0.1752 0.41004 0.0
C735 C 0.51482 0.18435 0.39798 0.0
C736 C 0.53038 0.18133 0.42753 0.0
C737 C 0.48561 0.1968 0.46114 0.0
H738 H 0.54674 0.21209 0.4869 0.0
C739 C 0.49266 0.19753 0.53695 0.0
C740 C 0.51211 0.18148 0.54279 0.0
C741 C 0.49093 0.20405 0.51936 0.0
C742 C 0.52945 0.20808 0.47988 0.0
H743 H 0.48102 0.20708 0.39476 0.0
H744 H 0.47705 0.21745 0.42574 0.0
H745 H 0.54739 0.21276 0.45531 0.0
H746 H 0.54511 0.16002 0.53487 0.0
H747 H 0.54227 0.17159 0.50453 0.0
H748 H 0.46805 0.19089 0.48586 0.0
C749 C 0.49263 0.20571 0.42147 0.0
C750 C 0.52983 0.20845 0.46183 0.0
C751 C 0.49494 0.19984 0.4038 0.0
C752 C 0.52988 0.17239 0.53082 0.0
C753 C 0.52838 0.17918 0.51343 0.0
C754 C 0.48523 0.19645 0.4793 0.0
C755 C 0.51045 0.19658 0.43346 0.0
C756 C 0.50824 0.20173 0.45228 0.0
C757 C 0.50893 0.19503 0.50749 0.0
C758 C 0.50747 0.20101 0.48877 0.0
H759 H 0.54801 0.16325 0.40599 0.0
H760 H 0.54415 0.17365 0.43651 0.0
H761 H 0.46872 0.19151 0.45407 0.0
H762 H 0.47867 0.20474 0.54591 0.0
H763 H 0.47571 0.21624 0.51506 0.0
C764 C 0.75432 0.48213 0.03506 0.0
C765 C 0.76211 0.50642 0.04026 0.0
C766 C 0.74929 0.47708 0.01754 0.0
C767 C 0.73315 0.50646 -0.02401 0.0
H768 H 0.77953 0.45895 0.95461 0.0
C769 C 0.78706 0.50107 0.90863 0.0
C770 C 0.76763 0.50089 0.89622 0.0
C771 C 0.7819 0.49575 0.92596 0.0
C772 C 0.76613 0.4719 0.96044 0.0
H773 H 0.76949 0.54469 0.03156 0.0
H774 H 0.75996 0.53607 0.00119 0.0
H775 H 0.77675 0.46132 -0.01373 0.0
H776 H 0.72764 0.4946 0.89207 0.0
H777 H 0.7184 0.48624 0.92276 0.0
H778 H 0.72331 0.51781 0.95017 0.0
C779 C 0.75801 0.52091 0.01053 0.0
C780 C 0.76445 0.47317 -0.0215 0.0
C781 C 0.76364 0.52578 0.02787 0.0
C782 C 0.74295 0.49479 0.9014 0.0
C783 C 0.73767 0.49005 0.91889 0.0
C784 C 0.73448 0.50487 0.95793 0.0
C785 C 0.75126 0.49644 0.00514 0.0
C786 C 0.74866 0.49114 -0.0136 0.0
C787 C 0.75712 0.49063 0.9313 0.0
C788 C 0.7517 0.48826 0.95003 0.0
H789 H 0.75311 0.46688 0.04439 0.0
H790 H 0.74423 0.45804 0.01362 0.0
H791 H 0.72086 0.52047 -0.01817 0.0
H792 H 0.80627 0.50558 0.90498 0.0
H793 H 0.79717 0.49662 0.93532 0.0
C794 C 0.45322 0.75075 0.5362 0.0
C795 C 0.4412 0.77285 0.54219 0.0
C796 C 0.45944 0.74815 0.51861 0.0
C797 C 0.4705 0.78588 0.47925 0.0
H798 H 0.44329 0.72901 0.45343 0.0
C799 C 0.43847 0.79484 0.40943 0.0
C800 C 0.44369 0.77557 0.3974 0.0
C801 C 0.44446 0.79178 0.42687 0.0
C802 C 0.45154 0.74471 0.46049 0.0
H803 H 0.42671 0.80964 0.53457 0.0
H804 H 0.43773 0.80522 0.50422 0.0
H805 H 0.44268 0.72837 0.48519 0.0
H806 H 0.45941 0.73793 0.39421 0.0
H807 H 0.4695 0.73235 0.42511 0.0
H808 H 0.47825 0.8028 0.45468 0.0
C809 C 0.44242 0.78993 0.513 0.0
C810 C 0.45119 0.74435 0.47864 0.0
C811 C 0.43591 0.79236 0.53038 0.0
C812 C 0.45521 0.75311 0.40321 0.0
C813 C 0.46093 0.74989 0.42084 0.0
C814 C 0.47088 0.78623 0.46119 0.0
C815 C 0.45417 0.76782 0.50689 0.0
C816 C 0.45966 0.76544 0.48814 0.0
C817 C 0.45564 0.76928 0.43281 0.0
C818 C 0.46039 0.76616 0.45163 0.0
H819 H 0.45749 0.7354 0.54502 0.0
H820 H 0.46844 0.73089 0.51419 0.0
H821 H 0.47758 0.80219 0.48627 0.0
H822 H 0.42965 0.81239 0.40539 0.0
H823 H 0.43975 0.80688 0.43582 0.0
C824 C 0.2009 0.49228 0.40284 0.0
C825 C 0.18592 0.51286 0.3975 0.0
C826 C 0.20761 0.48955 0.42034 0.0
C827 C 0.21401 0.52614 0.46075 0.0
H828 H 0.19257 0.46561 0.48499 0.0
C829 C 0.17662 0.5288 0.5292 0.0
C830 C 0.18428 0.51062 0.54138 0.0
C831 C 0.18401 0.52683 0.51197 0.0
C832 C 0.19927 0.48237 0.47837 0.0
H833 H 0.16673 0.54691 0.40614 0.0
H834 H 0.17865 0.54236 0.43634 0.0
H835 H 0.19293 0.46613 0.4532 0.0
H836 H 0.20568 0.47603 0.54508 0.0
H837 H 0.21817 0.47221 0.51446 0.0
H838 H 0.2189 0.54293 0.48578 0.0
C839 C 0.18524 0.52833 0.42713 0.0
C840 C 0.19947 0.48267 0.46021 0.0
C841 C 0.17823 0.53082 0.40983 0.0
C842 C 0.19959 0.49034 0.53595 0.0
C843 C 0.20668 0.48813 0.51849 0.0
C844 C 0.2138 0.52584 0.47881 0.0
C845 C 0.1999 0.50767 0.43261 0.0
C846 C 0.2057 0.50498 0.45129 0.0
C847 C 0.19902 0.50648 0.5064 0.0
C848 C 0.20529 0.50438 0.48777 0.0
H849 H 0.20701 0.47812 0.39358 0.0
H850 H 0.21884 0.4734 0.42429 0.0
H851 H 0.21929 0.54344 0.45417 0.0
H852 H 0.16488 0.54467 0.53298 0.0
H853 H 0.17748 0.54102 0.50287 0.0
C854 C 0.44916 0.15372 0.91018 0.0
C855 C 0.45408 0.17332 0.89841 0.0
C856 C 0.45583 0.15617 0.92757 0.0
C857 C 0.46422 0.20257 0.96162 0.0
H858 H 0.49026 0.14446 -0.01336 0.0
C859 C 0.46638 0.19681 0.03701 0.0
C860 C 0.45458 0.17473 0.04312 0.0
C861 C 0.47278 0.19906 0.01945 0.0
C862 C 0.48315 0.16092 -0.02017 0.0
H863 H 0.47007 0.21085 0.89557 0.0
H864 H 0.48135 0.21538 0.92634 0.0
H865 H 0.48998 0.14415 0.95503 0.0
H866 H 0.44096 0.13747 0.03582 0.0
H867 H 0.45221 0.1413 0.00548 0.0
H868 H 0.45622 0.21878 -0.01348 0.0
C869 C 0.47248 0.19804 0.92194 0.0
C870 C 0.483 0.16075 0.96176 0.0
C871 C 0.46609 0.19543 0.90437 0.0
C872 C 0.44997 0.15476 0.03152 0.0
C873 C 0.45662 0.15686 0.01414 0.0
C874 C 0.46436 0.20274 -0.02023 0.0
C875 C 0.46738 0.17839 0.93369 0.0
C876 C 0.47256 0.1811 0.95249 0.0
C877 C 0.46789 0.17907 0.00785 0.0
C878 C 0.47284 0.18145 -0.01098 0.0
H879 H 0.43998 0.13642 0.906 0.0
H880 H 0.45126 0.14087 0.93636 0.0
H881 H 0.456 0.21848 0.95479 0.0
H882 H 0.47012 0.21251 0.04569 0.0
H883 H 0.48144 0.21639 0.01493 0.0
C884 C 0.74399 0.45541 0.40177 0.0
C885 C 0.76884 0.44968 0.39676 0.0
C886 C 0.73827 0.45963 0.41927 0.0
C887 C 0.73435 0.44362 0.45799 0.0
H888 H 0.77565 0.48642 0.48756 0.0
C889 C 0.76211 0.42045 0.52784 0.0
C890 C 0.76057 0.43947 0.54052 0.0
C891 C 0.75664 0.42584 0.51055 0.0
C892 C 0.76362 0.47476 0.47945 0.0
H893 H 0.80735 0.44516 0.40584 0.0
H894 H 0.7975 0.45321 0.4362 0.0
H895 H 0.77908 0.48991 0.45599 0.0
H896 H 0.75168 0.47892 0.54523 0.0
H897 H 0.74306 0.48869 0.5146 0.0
H898 H 0.72034 0.42711 0.48145 0.0
C899 C 0.78242 0.4542 0.4267 0.0
C900 C 0.76567 0.47667 0.46144 0.0
C901 C 0.78801 0.4494 0.40936 0.0
C902 C 0.75288 0.46393 0.53567 0.0
C903 C 0.74801 0.46951 0.51823 0.0
C904 C 0.73265 0.44139 0.476 0.0
C905 C 0.75746 0.45889 0.43187 0.0
C906 C 0.7516 0.46059 0.45058 0.0
C907 C 0.75005 0.45051 0.50553 0.0
C908 C 0.74781 0.45643 0.48686 0.0
H909 H 0.72888 0.45567 0.39229 0.0
H910 H 0.71887 0.46312 0.423 0.0
H911 H 0.72346 0.43088 0.44988 0.0
H912 H 0.7679 0.40141 0.53125 0.0
H913 H 0.75865 0.41095 0.50098 0.0
C914 C 0.52207 0.7794 0.02989 0.0
C915 C 0.50455 0.76968 0.04177 0.0
C916 C 0.52089 0.7727 0.01247 0.0
C917 C 0.47903 0.75439 -0.02209 0.0
H918 H 0.54206 0.73863 0.95473 0.0
C919 C 0.49119 0.75065 0.90249 0.0
C920 C 0.51101 0.76641 0.89701 0.0
C921 C 0.48833 0.74485 0.92013 0.0
C922 C 0.52425 0.74278 0.96102 0.0
H923 H 0.47179 0.74548 0.04465 0.0
H924 H 0.46935 0.73414 0.01371 0.0
H925 H 0.54053 0.73954 -0.01369 0.0
H926 H 0.54352 0.78808 0.90559 0.0
H927 H 0.53873 0.77781 0.93602 0.0
H928 H 0.46315 0.75898 0.95246 0.0
C929 C 0.48415 0.74675 0.01813 0.0
C930 C 0.52338 0.74327 -0.02094 0.0
C931 C 0.48558 0.75318 0.03577 0.0
C932 C 0.52804 0.77591 0.90937 0.0
C933 C 0.52542 0.76986 0.92682 0.0
C934 C 0.47991 0.75392 0.95975 0.0
C935 C 0.502 0.75631 0.00639 0.0
C936 C 0.50107 0.75015 -0.01234 0.0
C937 C 0.50556 0.75433 0.93241 0.0
C938 C 0.50284 0.7492 0.95119 0.0
H939 H 0.53693 0.79213 0.03406 0.0
H940 H 0.53462 0.78069 0.00365 0.0
H941 H 0.46161 0.7598 -0.01574 0.0
H942 H 0.47774 0.74314 0.89322 0.0
H943 H 0.47282 0.73289 0.92415 0.0
C944 C 0.19262 0.33571 0.0954 0.0
C945 C 0.20413 0.35972 0.09528 0.0
C946 C 0.2074 0.31362 0.09436 0.0
C947 C 0.26876 0.29241 0.07809 0.0
H948 H 0.26798 0.23955 0.11292 0.0
C949 C 0.35628 0.23527 0.0935 0.0
C950 C 0.3548 0.2088 0.09501 0.0
C951 C 0.3345 0.24991 0.09225 0.0
C952 C 0.26805 0.25389 0.1029 0.0
H953 H 0.24018 0.37927 0.09432 0.0
H954 H 0.26552 0.3412 0.09236 0.0
H955 H 0.23504 0.27244 0.11305 0.0
H956 H 0.3291 0.17699 0.09678 0.0
H957 H 0.29055 0.20301 0.09481 0.0
H958 H 0.30216 0.27476 0.06833 0.0
C959 C 0.24518 0.33932 0.09314 0.0
C960 C 0.24925 0.27266 0.10298 0.0
C961 C 0.23059 0.36116 0.09436 0.0
C962 C 0.33083 0.19734 0.09558 0.0
C963 C 0.30883 0.21218 0.09449 0.0
C964 C 0.2874 0.27378 0.078 0.0
C965 C 0.23381 0.31534 0.09291 0.0
C966 C 0.25009 0.29264 0.09097 0.0
C967 C 0.31055 0.2386 0.09256 0.0
C968 C 0.28786 0.25492 0.09081 0.0
H969 H 0.17227 0.334 0.09614 0.0
H970 H 0.19822 0.29531 0.09427 0.0
H971 H 0.2696 0.30735 0.0685 0.0
H972 H 0.37437 0.24481 0.0931 0.0
H973 H 0.33644 0.27027 0.09111 0.0
C974 C 0.72738 0.34607 0.61358 0.0
C975 C 0.74978 0.34644 0.60388 0.0
C976 C 0.71392 0.32363 0.61575 0.0
C977 C 0.70114 0.26345 0.59431 0.0
H978 H 0.66524 0.2497 0.63701 0.0
C979 C 0.62275 0.18674 0.59899 0.0
C980 C 0.60023 0.19625 0.60609 0.0
C981 C 0.64529 0.20056 0.60049 0.0
C982 C 0.67521 0.2532 0.62501 0.0
H983 H 0.77603 0.32338 0.58921 0.0
H984 H 0.75219 0.2839 0.59288 0.0
H985 H 0.69774 0.28237 0.63651 0.0
H986 H 0.58386 0.22702 0.62096 0.0
H987 H 0.62287 0.2508 0.62368 0.0
H988 H 0.6778 0.23494 0.58265 0.0
C989 C 0.74515 0.30111 0.5988 0.0
C990 C 0.69381 0.27191 0.62472 0.0
C991 C 0.75885 0.32365 0.59678 0.0
C992 C 0.60088 0.2192 0.6153 0.0
C993 C 0.62332 0.23276 0.61697 0.0
C994 C 0.68249 0.24467 0.5946 0.0
C995 C 0.72239 0.30095 0.60818 0.0
C996 C 0.70633 0.27791 0.60922 0.0
C997 C 0.64571 0.22386 0.60936 0.0
C998 C 0.66869 0.24001 0.60981 0.0
H999 H 0.7199 0.36328 0.61924 0.0
H1000 H 0.69629 0.3243 0.62282 0.0
H1001 H 0.71034 0.26771 0.58214 0.0
H1002 H 0.62278 0.16913 0.59178 0.0
H1003 H 0.66228 0.19319 0.59453 0.0
C1004 C 0.72127 0.5966 0.11076 0.0
C1005 C 0.74455 0.59777 0.10213 0.0
C1006 C 0.70536 0.61758 0.11131 0.0
C1007 C 0.6995 0.68633 0.10582 0.0
H1008 H 0.63061 0.66833 0.0939 0.0
C1009 C 0.61462 0.75749 0.09629 0.0
C1010 C 0.59172 0.74926 0.10355 0.0
C1011 C 0.63592 0.7416 0.09645 0.0
C1012 C 0.64971 0.67368 0.09736 0.0
H1013 H 0.7701 0.6224 0.08818 0.0
H1014 H 0.74192 0.65943 0.08908 0.0
H1015 H 0.6632 0.636 0.09363 0.0
H1016 H 0.57373 0.71888 0.11781 0.0
H1017 H 0.61059 0.69161 0.11826 0.0
H1018 H 0.68554 0.72422 0.10969 0.0
C1019 C 0.73615 0.64211 0.09542 0.0
C1020 C 0.66839 0.65515 0.09721 0.0
C1021 C 0.75224 0.62095 0.0949 0.0
C1022 C 0.59095 0.72564 0.11186 0.0
C1023 C 0.61207 0.70995 0.11206 0.0
C1024 C 0.68062 0.70505 0.10599 0.0
C1025 C 0.7122 0.6403 0.10316 0.0
C1026 C 0.69335 0.66105 0.10187 0.0
C1027 C 0.63452 0.71732 0.10387 0.0
C1028 C 0.65541 0.69869 0.1022 0.0
H1029 H 0.71491 0.57916 0.1167 0.0
H1030 H 0.68728 0.61578 0.11773 0.0
H1031 H 0.71863 0.6914 0.10939 0.0
H1032 H 0.61575 0.77563 0.08981 0.0
H1033 H 0.65304 0.74778 0.09008 0.0
C1034 C 0.18627 0.62237 0.59727 0.0
C1035 C 0.19558 0.59978 0.60449 0.0
C1036 C 0.20001 0.64498 0.59891 0.0
C1037 C 0.2522 0.67476 0.624 0.0
H1038 H 0.26708 0.7107 0.58147 0.0
C1039 C 0.34526 0.72624 0.61302 0.0
C1040 C 0.34569 0.74944 0.60417 0.0
C1041 C 0.32281 0.71276 0.61484 0.0
C1042 C 0.26271 0.70125 0.59354 0.0
H1043 H 0.22595 0.5834 0.61971 0.0
H1044 H 0.2496 0.62247 0.62264 0.0
H1045 H 0.2343 0.6781 0.58159 0.0
H1046 H 0.32278 0.77699 0.59051 0.0
H1047 H 0.28325 0.75299 0.59344 0.0
H1048 H 0.28138 0.69698 0.63575 0.0
C1049 C 0.23176 0.62295 0.61575 0.0
C1050 C 0.24392 0.68258 0.59362 0.0
C1051 C 0.21826 0.60045 0.61395 0.0
C1052 C 0.32298 0.75918 0.59744 0.0
C1053 C 0.30043 0.74542 0.59905 0.0
C1054 C 0.27095 0.69332 0.62391 0.0
C1055 C 0.22305 0.64541 0.60805 0.0
C1056 C 0.23914 0.66848 0.60871 0.0
C1057 C 0.30019 0.72199 0.6077 0.0
C1058 C 0.27707 0.70611 0.60853 0.0
H1059 H 0.16887 0.62239 0.58986 0.0
H1060 H 0.19278 0.66202 0.59288 0.0
H1061 H 0.2486 0.6646 0.63593 0.0
H1062 H 0.36242 0.71823 0.61839 0.0
H1063 H 0.32337 0.69461 0.62135 0.0
C1064 C 0.3473 0.72979 0.32676 0.0
C1065 C 0.34775 0.75296 0.33572 0.0
C1066 C 0.32487 0.71627 0.3249 0.0
C1067 C 0.26494 0.70456 0.34615 0.0
H1068 H 0.2508 0.66782 0.30365 0.0
C1069 C 0.18873 0.62542 0.34199 0.0
C1070 C 0.19815 0.60284 0.33479 0.0
C1071 C 0.2024 0.64806 0.34046 0.0
C1072 C 0.2544 0.67802 0.3156 0.0
H1073 H 0.3249 0.78041 0.34951 0.0
H1074 H 0.28539 0.75633 0.34649 0.0
H1075 H 0.28341 0.70038 0.30394 0.0
H1076 H 0.22866 0.5865 0.31975 0.0
H1077 H 0.25219 0.62566 0.31699 0.0
H1078 H 0.23669 0.68128 0.35799 0.0
C1079 C 0.30254 0.74882 0.34084 0.0
C1080 C 0.27306 0.69667 0.31576 0.0
C1081 C 0.32508 0.76262 0.3425 0.0
C1082 C 0.22089 0.60354 0.32548 0.0
C1083 C 0.23432 0.62608 0.32378 0.0
C1084 C 0.24624 0.68581 0.346 0.0
C1085 C 0.30228 0.72542 0.33208 0.0
C1086 C 0.2792 0.70948 0.33118 0.0
C1087 C 0.22548 0.64855 0.33145 0.0
C1088 C 0.24146 0.67168 0.33087 0.0
H1089 H 0.36442 0.72184 0.32135 0.0
H1090 H 0.32543 0.69815 0.31832 0.0
H1091 H 0.26934 0.71403 0.35825 0.0
H1092 H 0.17128 0.62541 0.34929 0.0
H1093 H 0.19509 0.6651 0.34645 0.0
C1094 C 0.33235 0.19496 0.84475 0.0
C1095 C 0.35639 0.20614 0.84348 0.0
C1096 C 0.31056 0.21017 0.84551 0.0
C1097 C 0.29152 0.27418 0.85851 0.0
H1098 H 0.23452 0.26791 0.82713 0.0
C1099 C 0.23125 0.35892 0.84147 0.0
C1100 C 0.20482 0.35707 0.84248 0.0
C1101 C 0.24635 0.33741 0.84257 0.0
C1102 C 0.25009 0.26957 0.83619 0.0
H1103 H 0.37626 0.24197 0.84148 0.0
H1104 H 0.33873 0.26807 0.84288 0.0
H1105 H 0.26755 0.23508 0.82738 0.0
H1106 H 0.17349 0.33091 0.84481 0.0
H1107 H 0.2003 0.29282 0.84654 0.0
H1108 H 0.27487 0.30895 0.86689 0.0
C1109 C 0.33659 0.24769 0.84349 0.0
C1110 C 0.26894 0.25084 0.83633 0.0
C1111 C 0.35813 0.23265 0.84259 0.0
C1112 C 0.1938 0.33294 0.84405 0.0
C1113 C 0.20908 0.31119 0.84501 0.0
C1114 C 0.27285 0.29275 0.85836 0.0
C1115 C 0.31261 0.23672 0.84523 0.0
C1116 C 0.2903 0.25353 0.84705 0.0
C1117 C 0.23554 0.31337 0.84464 0.0
C1118 C 0.25243 0.29116 0.84677 0.0
H1119 H 0.3304 0.17457 0.8454 0.0
H1120 H 0.29226 0.20125 0.84679 0.0
H1121 H 0.30752 0.27648 0.86715 0.0
H1122 H 0.24044 0.37711 0.84013 0.0
H1123 H 0.26667 0.33963 0.84191 0.0
C1124 C 0.62465 0.19134 0.34109 0.0
C1125 C 0.60196 0.20067 0.33407 0.0
C1126 C 0.64701 0.20545 0.33973 0.0
C1127 C 0.6761 0.25873 0.31562 0.0
H1128 H 0.71181 0.27298 0.35847 0.0
C1129 C 0.72764 0.35183 0.32738 0.0
C1130 C 0.75064 0.35223 0.33649 0.0
C1131 C 0.71412 0.32938 0.32543 0.0
C1132 C 0.70243 0.2688 0.34631 0.0
H1133 H 0.58511 0.23147 0.31951 0.0
H1134 H 0.62382 0.25576 0.31701 0.0
H1135 H 0.6795 0.23992 0.3578 0.0
H1136 H 0.77773 0.32922 0.3505 0.0
H1137 H 0.7537 0.28966 0.34727 0.0
H1138 H 0.69819 0.28826 0.3043 0.0
C1139 C 0.62453 0.23763 0.32355 0.0
C1140 C 0.68392 0.24986 0.34592 0.0
C1141 C 0.60227 0.22377 0.32508 0.0
C1142 C 0.76008 0.32946 0.34337 0.0
C1143 C 0.7463 0.30689 0.34159 0.0
C1144 C 0.69454 0.2776 0.31601 0.0
C1145 C 0.6471 0.22889 0.33107 0.0
C1146 C 0.66991 0.24528 0.33072 0.0
C1147 C 0.7231 0.30668 0.33265 0.0
C1148 C 0.70725 0.2835 0.33151 0.0
H1149 H 0.62495 0.17363 0.34813 0.0
H1150 H 0.66414 0.1982 0.3456 0.0
H1151 H 0.66599 0.2553 0.30362 0.0
H1152 H 0.71984 0.36901 0.32189 0.0
H1153 H 0.69615 0.33 0.31871 0.0
C1154 C 0.75873 0.62156 0.84354 0.0
C1155 C 0.74924 0.59903 0.8363 0.0
C1156 C 0.74515 0.6443 0.84193 0.0
C1157 C 0.69422 0.6747 0.81626 0.0
H1158 H 0.67801 0.71108 0.85849 0.0
C1159 C 0.60158 0.72797 0.8251 0.0
C1160 C 0.60087 0.7508 0.83445 0.0
C1161 C 0.62398 0.71427 0.82362 0.0
C1162 C 0.68278 0.70152 0.8465 0.0
H1163 H 0.7186 0.58285 0.82122 0.0
H1164 H 0.69527 0.62217 0.81831 0.0
H1165 H 0.71029 0.6779 0.85901 0.0
H1166 H 0.62328 0.77753 0.84925 0.0
H1167 H 0.66272 0.75321 0.84682 0.0
H1168 H 0.66605 0.69747 0.80389 0.0
C1169 C 0.71312 0.62247 0.8252 0.0
C1170 C 0.70126 0.68251 0.84681 0.0
C1171 C 0.72642 0.59984 0.82699 0.0
C1172 C 0.62331 0.76002 0.84191 0.0
C1173 C 0.6458 0.74606 0.84061 0.0
C1174 C 0.67583 0.69365 0.81595 0.0
C1175 C 0.72213 0.64491 0.83278 0.0
C1176 C 0.70646 0.66825 0.83182 0.0
C1177 C 0.64628 0.7229 0.83156 0.0
C1178 C 0.6692 0.7066 0.83121 0.0
H1179 H 0.77624 0.62148 0.85082 0.0
H1180 H 0.75256 0.66133 0.84789 0.0
H1181 H 0.69817 0.66437 0.80443 0.0
H1182 H 0.58464 0.72036 0.81918 0.0
H1183 H 0.62356 0.69634 0.81678 0.0
loop_
_geom_bond_atom_site_label_1
_geom_bond_atom_site_label_2
_geom_bond_distance
_geom_bond_site_symmetry_2
_ccdc_geom_bond_type
C0 O1 1.306 . S
C0 O3 1.160 . S
O1 C0 1.306 . S
O1 Cd2 2.228 . S
Cd2 O1 2.228 . S
Cd2 O6 2.273 . S
Cd2 O10 2.277 . S
O3 C0 1.160 . S
O3 Cd4 2.203 . S
Cd4 O3 2.203 . S
Cd4 O6 2.411 . S
Cd4 O7 2.333 . S
Cd4 O8 2.352 . S
Cd4 O12 2.277 . S
Cd4 O13 2.356 . S
C5 O10 1.209 . S
C5 O12 1.226 . S
O6 Cd2 2.273 . S
O6 Cd4 2.411 . S
O6 C9 1.320 . S
O7 Cd4 2.333 . S
O7 C9 1.214 . S
O8 Cd4 2.352 . S
O8 C11 1.258 . S
C9 O6 1.320 . S
C9 O7 1.214 . S
O10 Cd2 2.277 . S
O10 C5 1.209 . S
C11 O8 1.258 . S
C11 O13 1.282 . S
O12 Cd4 2.277 . S
O12 C5 1.226 . S
O13 Cd4 2.356 . S
O13 C11 1.282 . S
C14 O15 1.306 . S
C14 O17 1.160 . S
O15 C14 1.306 . S
O15 Cd16 2.228 . S
Cd16 O15 2.228 . S
Cd16 O20 2.273 . S
Cd16 O24 2.277 . S
O17 C14 1.160 . S
O17 Cd18 2.203 . S
Cd18 O17 2.203 . S
Cd18 O20 2.411 . S
Cd18 O21 2.333 . S
Cd18 O22 2.352 . S
Cd18 O26 2.277 . S
Cd18 O27 2.356 . S
C19 O24 1.209 . S
C19 O26 1.226 . S
O20 Cd16 2.273 . S
O20 Cd18 2.411 . S
O20 C23 1.320 . S
O21 Cd18 2.333 . S
O21 C23 1.214 . S
O22 Cd18 2.352 . S
O22 C25 1.258 . S
C23 O20 1.320 . S
C23 O21 1.214 . S
O24 Cd16 2.277 . S
O24 C19 1.209 . S
C25 O22 1.258 . S
C25 O27 1.282 . S
O26 Cd18 2.277 . S
O26 C19 1.226 . S
O27 Cd18 2.356 . S
O27 C25 1.282 . S
C28 O29 1.306 . S
C28 O31 1.160 . S
O29 C28 1.306 . S
O29 Cd30 2.228 . S
Cd30 O29 2.228 . S
Cd30 O34 2.273 . S
Cd30 O38 2.277 . S
O31 C28 1.160 . S
O31 Cd32 2.203 . S
Cd32 O31 2.203 . S
Cd32 O34 2.411 . S
Cd32 O35 2.333 . S
Cd32 O36 2.352 . S
Cd32 O40 2.277 . S
Cd32 O41 2.356 . S
C33 O38 1.209 . S
C33 O40 1.226 . S
O34 Cd30 2.273 . S
O34 Cd32 2.411 . S
O34 C37 1.320 . S
O35 Cd32 2.333 . S
O35 C37 1.214 . S
O36 Cd32 2.352 . S
O36 C39 1.258 . S
C37 O34 1.320 . S
C37 O35 1.214 . S
O38 Cd30 2.277 . S
O38 C33 1.209 . S
C39 O36 1.258 . S
C39 O41 1.282 . S
O40 Cd32 2.277 . S
O40 C33 1.226 . S
O41 Cd32 2.356 . S
O41 C39 1.282 . S
C42 O43 1.306 . S
C42 O45 1.160 . S
O43 C42 1.306 . S
O43 Cd44 2.228 . S
Cd44 O43 2.228 . S
Cd44 O48 2.273 . S
Cd44 O52 2.277 . S
O45 C42 1.160 . S
O45 Cd46 2.203 . S
Cd46 O45 2.203 . S
Cd46 O48 2.411 . S
Cd46 O49 2.333 . S
Cd46 O50 2.352 . S
Cd46 O54 2.277 . S
Cd46 O55 2.356 . S
C47 O52 1.209 . S
C47 O54 1.226 . S
O48 Cd44 2.273 . S
O48 Cd46 2.411 . S
O48 C51 1.320 . S
O49 Cd46 2.333 . S
O49 C51 1.214 . S
O50 Cd46 2.352 . S
O50 C53 1.258 . S
C51 O48 1.320 . S
C51 O49 1.214 . S
O52 Cd44 2.277 . S
O52 C47 1.209 . S
C53 O50 1.258 . S
C53 O55 1.282 . S
O54 Cd46 2.277 . S
O54 C47 1.226 . S
O55 Cd46 2.356 . S
O55 C53 1.282 . S
C56 O57 1.306 . S
C56 O59 1.160 . S
O57 C56 1.306 . S
O57 Cd58 2.228 . S
Cd58 O57 2.228 . S
Cd58 O62 2.273 . S
Cd58 O66 2.277 . S
O59 C56 1.160 . S
O59 Cd60 2.203 . S
Cd60 O59 2.203 . S
Cd60 O62 2.411 . S
Cd60 O63 2.333 . S
Cd60 O64 2.352 . S
Cd60 O68 2.277 . S
Cd60 O69 2.356 . S
C61 O66 1.209 . S
C61 O68 1.226 . S
O62 Cd58 2.273 . S
O62 Cd60 2.411 . S
O62 C65 1.320 . S
O63 Cd60 2.333 . S
O63 C65 1.214 . S
O64 Cd60 2.352 . S
O64 C67 1.258 . S
C65 O62 1.320 . S
C65 O63 1.214 . S
O66 Cd58 2.277 . S
O66 C61 1.209 . S
C67 O64 1.258 . S
C67 O69 1.282 . S
O68 Cd60 2.277 . S
O68 C61 1.226 . S
O69 Cd60 2.356 . S
O69 C67 1.282 . S
C70 O71 1.306 . S
C70 O73 1.160 . S
O71 C70 1.306 . S
O71 Cd72 2.228 . S
Cd72 O71 2.228 . S
Cd72 O76 2.273 . S
Cd72 O80 2.277 . S
O73 C70 1.160 . S
O73 Cd74 2.203 . S
Cd74 O73 2.203 . S
Cd74 O76 2.411 . S
Cd74 O77 2.333 . S
Cd74 O78 2.352 . S
Cd74 O82 2.277 . S
Cd74 O83 2.356 . S
C75 O80 1.209 . S
C75 O82 1.226 . S
O76 Cd72 2.273 . S
O76 Cd74 2.411 . S
O76 C79 1.320 . S
O77 Cd74 2.333 . S
O77 C79 1.214 . S
O78 Cd74 2.352 . S
O78 C81 1.258 . S
C79 O76 1.320 . S
C79 O77 1.214 . S
O80 Cd72 2.277 . S
O80 C75 1.209 . S
C81 O78 1.258 . S
C81 O83 1.282 . S
O82 Cd74 2.277 . S
O82 C75 1.226 . S
O83 Cd74 2.356 . S
O83 C81 1.282 . S
C84 O85 1.306 . S
C84 O87 1.160 . S
O85 C84 1.306 . S
O85 Cd86 2.228 . S
Cd86 O85 2.228 . S
Cd86 O90 2.273 . S
Cd86 O94 2.277 . S
O87 C84 1.160 . S
O87 Cd88 2.203 . S
Cd88 O87 2.203 . S
Cd88 O90 2.411 . S
Cd88 O91 2.333 . S
Cd88 O92 2.352 . S
Cd88 O96 2.277 . S
Cd88 O97 2.356 . S
C89 O94 1.209 . S
C89 O96 1.226 . S
O90 Cd86 2.273 . S
O90 Cd88 2.411 . S
O90 C93 1.320 . S
O91 Cd88 2.333 . S
O91 C93 1.214 . S
O92 Cd88 2.352 . S
O92 C95 1.258 . S
C93 O90 1.320 . S
C93 O91 1.214 . S
O94 Cd86 2.277 . S
O94 C89 1.209 . S
C95 O92 1.258 . S
C95 O97 1.282 . S
O96 Cd88 2.277 . S
O96 C89 1.226 . S
O97 Cd88 2.356 . S
O97 C95 1.282 . S
C98 O99 1.306 . S
C98 O101 1.160 . S
O99 C98 1.306 . S
O99 Cd100 2.228 . S
Cd100 O99 2.228 . S
Cd100 O104 2.273 . S
Cd100 O108 2.277 . S
O101 C98 1.160 . S
O101 Cd102 2.203 . S
Cd102 O101 2.203 . S
Cd102 O104 2.411 . S
Cd102 O105 2.333 . S
Cd102 O106 2.352 . S
Cd102 O110 2.277 . S
Cd102 O111 2.356 . S
C103 O108 1.209 . S
C103 O110 1.226 . S
O104 Cd100 2.273 . S
O104 Cd102 2.411 . S
O104 C107 1.320 . S
O105 Cd102 2.333 . S
O105 C107 1.214 . S
O106 Cd102 2.352 . S
O106 C109 1.258 . S
C107 O104 1.320 . S
C107 O105 1.214 . S
O108 Cd100 2.277 . S
O108 C103 1.209 . S
C109 O106 1.258 . S
C109 O111 1.282 . S
O110 Cd102 2.277 . S
O110 C103 1.226 . S
O111 Cd102 2.356 . S
O111 C109 1.282 . S
C112 O113 1.306 . S
C112 O115 1.160 . S
O113 C112 1.306 . S
O113 Cd114 2.228 . S
Cd114 O113 2.228 . S
Cd114 O118 2.273 . S
Cd114 O122 2.277 . S
O115 C112 1.160 . S
O115 Cd116 2.203 . S
Cd116 O115 2.203 . S
Cd116 O118 2.411 . S
Cd116 O119 2.333 . S
Cd116 O120 2.352 . S
Cd116 O124 2.277 . S
Cd116 O125 2.356 . S
C117 O122 1.209 . S
C117 O124 1.226 . S
O118 Cd114 2.273 . S
O118 Cd116 2.411 . S
O118 C121 1.320 . S
O119 Cd116 2.333 . S
O119 C121 1.214 . S
O120 Cd116 2.352 . S
O120 C123 1.258 . S
C121 O118 1.320 . S
C121 O119 1.214 . S
O122 Cd114 2.277 . S
O122 C117 1.209 . S
C123 O120 1.258 . S
C123 O125 1.282 . S
O124 Cd116 2.277 . S
O124 C117 1.226 . S
O125 Cd116 2.356 . S
O125 C123 1.282 . S
C126 O127 1.306 . S
C126 O129 1.160 . S
O127 C126 1.306 . S
O127 Cd128 2.228 . S
Cd128 O127 2.228 . S
Cd128 O132 2.273 . S
Cd128 O136 2.277 . S
O129 C126 1.160 . S
O129 Cd130 2.203 . S
Cd130 O129 2.203 . S
Cd130 O132 2.411 . S
Cd130 O133 2.333 . S
Cd130 O134 2.352 . S
Cd130 O138 2.277 . S
Cd130 O139 2.356 . S
C131 O136 1.209 . S
C131 O138 1.226 . S
O132 Cd128 2.273 . S
O132 Cd130 2.411 . S
O132 C135 1.320 . S
O133 Cd130 2.333 . S
O133 C135 1.214 . S
O134 Cd130 2.352 . S
O134 C137 1.258 . S
C135 O132 1.320 . S
C135 O133 1.214 . S
O136 Cd128 2.277 . S
O136 C131 1.209 . S
C137 O134 1.258 . S
C137 O139 1.282 . S
O138 Cd130 2.277 . S
O138 C131 1.226 . S
O139 Cd130 2.356 . S
O139 C137 1.282 . S
C140 O141 1.306 . S
C140 O143 1.160 . S
O141 C140 1.306 . S
O141 Cd142 2.228 . S
Cd142 O141 2.228 . S
Cd142 O146 2.273 . S
Cd142 O150 2.277 . S
O143 C140 1.160 . S
O143 Cd144 2.203 . S
Cd144 O143 2.203 . S
Cd144 O146 2.411 . S
Cd144 O147 2.333 . S
Cd144 O148 2.352 . S
Cd144 O152 2.277 . S
Cd144 O153 2.356 . S
C145 O150 1.209 . S
C145 O152 1.226 . S
O146 Cd142 2.273 . S
O146 Cd144 2.411 . S
O146 C149 1.320 . S
O147 Cd144 2.333 . S
O147 C149 1.214 . S
O148 Cd144 2.352 . S
O148 C151 1.258 . S
C149 O146 1.320 . S
C149 O147 1.214 . S
O150 Cd142 2.277 . S
O150 C145 1.209 . S
C151 O148 1.258 . S
C151 O153 1.282 . S
O152 Cd144 2.277 . S
O152 C145 1.226 . S
O153 Cd144 2.356 . S
O153 C151 1.282 . S
C154 O155 1.306 . S
C154 O157 1.160 . S
O155 C154 1.306 . S
O155 Cd156 2.228 . S
Cd156 O155 2.228 . S
Cd156 O160 2.273 . S
Cd156 O164 2.277 . S
O157 C154 1.160 . S
O157 Cd158 2.203 . S
Cd158 O157 2.203 . S
Cd158 O160 2.411 . S
Cd158 O161 2.333 . S
Cd158 O162 2.352 . S
Cd158 O166 2.277 . S
Cd158 O167 2.356 . S
C159 O164 1.209 . S
C159 O166 1.226 . S
O160 Cd156 2.273 . S
O160 Cd158 2.411 . S
O160 C163 1.320 . S
O161 Cd158 2.333 . S
O161 C163 1.214 . S
O162 Cd158 2.352 . S
O162 C165 1.258 . S
C163 O160 1.320 . S
C163 O161 1.214 . S
O164 Cd156 2.277 . S
O164 C159 1.209 . S
C165 O162 1.258 . S
C165 O167 1.282 . S
O166 Cd158 2.277 . S
O166 C159 1.226 . S
O167 Cd158 2.356 . S
O167 C165 1.282 . S
C168 O169 1.306 . S
C168 O171 1.160 . S
O169 C168 1.306 . S
O169 Cd170 2.228 . S
Cd170 O169 2.228 . S
Cd170 O174 2.273 . S
Cd170 O178 2.277 . S
O171 C168 1.160 . S
O171 Cd172 2.203 . S
Cd172 O171 2.203 . S
Cd172 O174 2.411 . S
Cd172 O175 2.333 . S
Cd172 O176 2.352 . S
Cd172 O180 2.277 . S
Cd172 O181 2.356 . S
C173 O178 1.209 . S
C173 O180 1.226 . S
O174 Cd170 2.273 . S
O174 Cd172 2.411 . S
O174 C177 1.320 . S
O175 Cd172 2.333 . S
O175 C177 1.214 . S
O176 Cd172 2.352 . S
O176 C179 1.258 . S
C177 O174 1.320 . S
C177 O175 1.214 . S
O178 Cd170 2.277 . S
O178 C173 1.209 . S
C179 O176 1.258 . S
C179 O181 1.282 . S
O180 Cd172 2.277 . S
O180 C173 1.226 . S
O181 Cd172 2.356 . S
O181 C179 1.282 . S
C182 O183 1.306 . S
C182 O185 1.160 . S
O183 C182 1.306 . S
O183 Cd184 2.228 . S
Cd184 O183 2.228 . S
Cd184 O188 2.273 . S
Cd184 O192 2.277 . S
O185 C182 1.160 . S
O185 Cd186 2.203 . S
Cd186 O185 2.203 . S
Cd186 O188 2.411 . S
Cd186 O189 2.333 . S
Cd186 O190 2.352 . S
Cd186 O194 2.277 . S
Cd186 O195 2.356 . S
C187 O192 1.209 . S
C187 O194 1.226 . S
O188 Cd184 2.273 . S
O188 Cd186 2.411 . S
O188 C191 1.320 . S
O189 Cd186 2.333 . S
O189 C191 1.214 . S
O190 Cd186 2.352 . S
O190 C193 1.258 . S
C191 O188 1.320 . S
C191 O189 1.214 . S
O192 Cd184 2.277 . S
O192 C187 1.209 . S
C193 O190 1.258 . S
C193 O195 1.282 . S
O194 Cd186 2.277 . S
O194 C187 1.226 . S
O195 Cd186 2.356 . S
O195 C193 1.282 . S
C196 O197 1.306 . S
C196 O199 1.160 . S
O197 C196 1.306 . S
O197 Cd198 2.228 . S
Cd198 O197 2.228 . S
Cd198 O202 2.273 . S
Cd198 O206 2.277 . S
O199 C196 1.160 . S
O199 Cd200 2.203 . S
Cd200 O199 2.203 . S
Cd200 O202 2.411 . S
Cd200 O203 2.333 . S
Cd200 O204 2.352 . S
Cd200 O208 2.277 . S
Cd200 O209 2.356 . S
C201 O206 1.209 . S
C201 O208 1.226 . S
O202 Cd198 2.273 . S
O202 Cd200 2.411 . S
O202 C205 1.320 . S
O203 Cd200 2.333 . S
O203 C205 1.214 . S
O204 Cd200 2.352 . S
O204 C207 1.258 . S
C205 O202 1.320 . S
C205 O203 1.214 . S
O206 Cd198 2.277 . S
O206 C201 1.209 . S
C207 O204 1.258 . S
C207 O209 1.282 . S
O208 Cd200 2.277 . S
O208 C201 1.226 . S
O209 Cd200 2.356 . S
O209 C207 1.282 . S
C210 O211 1.306 . S
C210 O213 1.160 . S
O211 C210 1.306 . S
O211 Cd212 2.228 . S
Cd212 O211 2.228 . S
Cd212 O216 2.273 . S
Cd212 O220 2.277 . S
O213 C210 1.160 . S
O213 Cd214 2.203 . S
Cd214 O213 2.203 . S
Cd214 O216 2.411 . S
Cd214 O217 2.333 . S
Cd214 O218 2.352 . S
Cd214 O222 2.277 . S
Cd214 O223 2.356 . S
C215 O220 1.209 . S
C215 O222 1.226 . S
O216 Cd212 2.273 . S
O216 Cd214 2.411 . S
O216 C219 1.320 . S
O217 Cd214 2.333 . S
O217 C219 1.214 . S
O218 Cd214 2.352 . S
O218 C221 1.258 . S
C219 O216 1.320 . S
C219 O217 1.214 . S
O220 Cd212 2.277 . S
O220 C215 1.209 . S
C221 O218 1.258 . S
C221 O223 1.282 . S
O222 Cd214 2.277 . S
O222 C215 1.226 . S
O223 Cd214 2.356 . S
O223 C221 1.282 . S
C224 C225 1.349 . S
C224 C226 1.327 . S
C224 H249 0.950 . S
C225 C224 1.349 . S
C225 C241 1.349 . S
C226 C224 1.327 . S
C226 C245 1.429 . S
C226 H250 0.950 . S
C227 C244 1.574 1_455 S
C227 C246 1.368 . S
C227 H251 0.949 . S
H228 C232 0.949 . S
C229 C230 1.349 . S
C229 C231 1.327 . S
C229 H252 0.950 . S
C230 C229 1.349 . S
C230 C242 1.349 . S
C231 C229 1.327 . S
C231 C247 1.429 . S
C231 H253 0.950 . S
C232 H228 0.949 . S
C232 C240 1.574 1_655 S
C232 C248 1.368 . S
H233 C241 0.950 . S
H234 C239 0.950 . S
H235 C240 0.949 . S
H236 C242 0.950 . S
H237 C243 0.950 . S
H238 C244 0.949 . S
C239 H234 0.950 . S
C239 C241 1.327 . S
C239 C245 1.429 . S
C240 C232 1.574 1_455 S
C240 H235 0.949 . S
C240 C246 1.368 . S
C241 C225 1.349 . S
C241 H233 0.950 . S
C241 C239 1.327 . S
C242 C230 1.349 . S
C242 H236 0.950 . S
C242 C243 1.327 . S
C243 H237 0.950 . S
C243 C242 1.327 . S
C243 C247 1.429 . S
C244 C227 1.574 1_655 S
C244 H238 0.949 . S
C244 C248 1.368 . S
C245 C226 1.429 . S
C245 C239 1.429 . S
C245 C246 1.523 . S
C246 C227 1.368 . S
C246 C240 1.368 . S
C246 C245 1.523 . S
C247 C231 1.429 . S
C247 C243 1.429 . S
C247 C248 1.523 . S
C248 C232 1.368 . S
C248 C244 1.368 . S
C248 C247 1.523 . S
H249 C224 0.950 . S
H250 C226 0.950 . S
H251 C227 0.949 . S
H252 C229 0.950 . S
H253 C231 0.950 . S
C254 C255 1.349 . S
C254 C256 1.327 . S
C254 H279 0.950 . S
C255 C254 1.349 . S
C255 C271 1.349 . S
C256 C254 1.327 . S
C256 C275 1.429 . S
C256 H280 0.950 . S
C257 C274 1.574 1_565 S
C257 C276 1.368 . S
C257 H281 0.949 . S
H258 C262 0.949 . S
C259 C260 1.349 . S
C259 C261 1.327 . S
C259 H282 0.950 . S
C260 C259 1.349 . S
C260 C272 1.349 . S
C261 C259 1.327 . S
C261 C277 1.429 . S
C261 H283 0.950 . S
C262 H258 0.949 . S
C262 C270 1.574 1_545 S
C262 C278 1.368 . S
H263 C271 0.950 . S
H264 C269 0.950 . S
H265 C270 0.949 . S
H266 C272 0.950 . S
H267 C273 0.950 . S
H268 C274 0.949 . S
C269 H264 0.950 . S
C269 C271 1.327 . S
C269 C275 1.429 . S
C270 C262 1.574 1_565 S
C270 H265 0.949 . S
C270 C276 1.368 . S
C271 C255 1.349 . S
C271 H263 0.950 . S
C271 C269 1.327 . S
C272 C260 1.349 . S
C272 H266 0.950 . S
C272 C273 1.327 . S
C273 H267 0.950 . S
C273 C272 1.327 . S
C273 C277 1.429 . S
C274 C257 1.574 1_545 S
C274 H268 0.949 . S
C274 C278 1.368 . S
C275 C256 1.429 . S
C275 C269 1.429 . S
C275 C276 1.523 . S
C276 C257 1.368 . S
C276 C270 1.368 . S
C276 C275 1.523 . S
C277 C261 1.429 . S
C277 C273 1.429 . S
C277 C278 1.523 . S
C278 C262 1.368 . S
C278 C274 1.368 . S
C278 C277 1.523 . S
H279 C254 0.950 . S
H280 C256 0.950 . S
H281 C257 0.949 . S
H282 C259 0.950 . S
H283 C261 0.950 . S
C284 C285 1.349 . S
C284 C286 1.327 . S
C284 H309 0.950 . S
C285 C284 1.349 . S
C285 C301 1.349 . S
C286 C284 1.327 . S
C286 C305 1.429 . S
C286 H310 0.950 . S
C287 C304 1.574 1_455 S
C287 C306 1.368 . S
C287 H311 0.949 . S
H288 C292 0.949 . S
C289 C290 1.349 . S
C289 C291 1.327 . S
C289 H312 0.950 . S
C290 C289 1.349 . S
C290 C302 1.349 . S
C291 C289 1.327 . S
C291 C307 1.429 . S
C291 H313 0.950 . S
C292 H288 0.949 . S
C292 C300 1.574 1_655 S
C292 C308 1.368 . S
H293 C301 0.950 . S
H294 C299 0.950 . S
H295 C300 0.949 . S
H296 C302 0.950 . S
H297 C303 0.950 . S
H298 C304 0.949 . S
C299 H294 0.950 . S
C299 C301 1.327 . S
C299 C305 1.429 . S
C300 C292 1.574 1_455 S
C300 H295 0.949 . S
C300 C306 1.368 . S
C301 C285 1.349 . S
C301 H293 0.950 . S
C301 C299 1.327 . S
C302 C290 1.349 . S
C302 H296 0.950 . S
C302 C303 1.327 . S
C303 H297 0.950 . S
C303 C302 1.327 . S
C303 C307 1.429 . S
C304 C287 1.574 1_655 S
C304 H298 0.949 . S
C304 C308 1.368 . S
C305 C286 1.429 . S
C305 C299 1.429 . S
C305 C306 1.523 . S
C306 C287 1.368 . S
C306 C300 1.368 . S
C306 C305 1.523 . S
C307 C291 1.429 . S
C307 C303 1.429 . S
C307 C308 1.523 . S
C308 C292 1.368 . S
C308 C304 1.368 . S
C308 C307 1.523 . S
H309 C284 0.950 . S
H310 C286 0.950 . S
H311 C287 0.949 . S
H312 C289 0.950 . S
H313 C291 0.950 . S
C314 C315 1.349 . S
C314 C316 1.327 . S
C314 H339 0.950 . S
C315 C314 1.349 . S
C315 C331 1.349 . S
C316 C314 1.327 . S
C316 C335 1.429 . S
C316 H340 0.950 . S
C317 C334 1.574 1_565 S
C317 C336 1.368 . S
C317 H341 0.949 . S
H318 C322 0.949 . S
C319 C320 1.349 . S
C319 C321 1.327 . S
C319 H342 0.950 . S
C320 C319 1.349 . S
C320 C332 1.349 . S
C321 C319 1.327 . S
C321 C337 1.429 . S
C321 H343 0.950 . S
C322 H318 0.949 . S
C322 C330 1.574 1_545 S
C322 C338 1.368 . S
H323 C331 0.950 . S
H324 C329 0.950 . S
H325 C330 0.949 . S
H326 C332 0.950 . S
H327 C333 0.950 . S
H328 C334 0.949 . S
C329 H324 0.950 . S
C329 C331 1.327 . S
C329 C335 1.429 . S
C330 C322 1.574 1_565 S
C330 H325 0.949 . S
C330 C336 1.368 . S
C331 C315 1.349 . S
C331 H323 0.950 . S
C331 C329 1.327 . S
C332 C320 1.349 . S
C332 H326 0.950 . S
C332 C333 1.327 . S
C333 H327 0.950 . S
C333 C332 1.327 . S
C333 C337 1.429 . S
C334 C317 1.574 1_545 S
C334 H328 0.949 . S
C334 C338 1.368 . S
C335 C316 1.429 . S
C335 C329 1.429 . S
C335 C336 1.523 . S
C336 C317 1.368 . S
C336 C330 1.368 . S
C336 C335 1.523 . S
C337 C321 1.429 . S
C337 C333 1.429 . S
C337 C338 1.523 . S
C338 C322 1.368 . S
C338 C334 1.368 . S
C338 C337 1.523 . S
H339 C314 0.950 . S
H340 C316 0.950 . S
H341 C317 0.949 . S
H342 C319 0.950 . S
H343 C321 0.950 . S
C344 C345 1.349 . S
C344 C346 1.327 . S
C344 H369 0.950 . S
C345 C344 1.349 . S
C345 C361 1.349 . S
C346 C344 1.327 . S
C346 C365 1.429 . S
C346 H370 0.950 . S
C347 C364 1.574 1_655 S
C347 C366 1.368 . S
C347 H371 0.949 . S
H348 C352 0.949 . S
C349 C350 1.349 . S
C349 C351 1.327 . S
C349 H372 0.950 . S
C350 C349 1.349 . S
C350 C362 1.349 . S
C351 C349 1.327 . S
C351 C367 1.429 . S
C351 H373 0.950 . S
C352 H348 0.949 . S
C352 C360 1.574 1_455 S
C352 C368 1.368 . S
H353 C361 0.950 . S
H354 C359 0.950 . S
H355 C360 0.949 . S
H356 C362 0.950 . S
H357 C363 0.950 . S
H358 C364 0.949 . S
C359 H354 0.950 . S
C359 C361 1.327 . S
C359 C365 1.429 . S
C360 C352 1.574 1_655 S
C360 H355 0.949 . S
C360 C366 1.368 . S
C361 C345 1.349 . S
C361 H353 0.950 . S
C361 C359 1.327 . S
C362 C350 1.349 . S
C362 H356 0.950 . S
C362 C363 1.327 . S
C363 H357 0.950 . S
C363 C362 1.327 . S
C363 C367 1.429 . S
C364 C347 1.574 1_455 S
C364 H358 0.949 . S
C364 C368 1.368 . S
C365 C346 1.429 . S
C365 C359 1.429 . S
C365 C366 1.523 . S
C366 C347 1.368 . S
C366 C360 1.368 . S
C366 C365 1.523 . S
C367 C351 1.429 . S
C367 C363 1.429 . S
C367 C368 1.523 . S
C368 C352 1.368 . S
C368 C364 1.368 . S
C368 C367 1.523 . S
H369 C344 0.950 . S
H370 C346 0.950 . S
H371 C347 0.949 . S
H372 C349 0.950 . S
H373 C351 0.950 . S
C374 C375 1.349 . S
C374 C376 1.327 . S
C374 H399 0.950 . S
C375 C374 1.349 . S
C375 C391 1.349 . S
C376 C374 1.327 . S
C376 C395 1.429 . S
C376 H400 0.950 . S
C377 C394 1.574 1_545 S
C377 C396 1.368 . S
C377 H401 0.949 . S
H378 C382 0.949 . S
C379 C380 1.349 . S
C379 C381 1.327 . S
C379 H402 0.950 . S
C380 C379 1.349 . S
C380 C392 1.349 . S
C381 C379 1.327 . S
C381 C397 1.429 . S
C381 H403 0.950 . S
C382 H378 0.949 . S
C382 C390 1.574 1_565 S
C382 C398 1.368 . S
H383 C391 0.950 . S
H384 C389 0.950 . S
H385 C390 0.949 . S
H386 C392 0.950 . S
H387 C393 0.950 . S
H388 C394 0.949 . S
C389 H384 0.950 . S
C389 C391 1.327 . S
C389 C395 1.429 . S
C390 C382 1.574 1_545 S
C390 H385 0.949 . S
C390 C396 1.368 . S
C391 C375 1.349 . S
C391 H383 0.950 . S
C391 C389 1.327 . S
C392 C380 1.349 . S
C392 H386 0.950 . S
C392 C393 1.327 . S
C393 H387 0.950 . S
C393 C392 1.327 . S
C393 C397 1.429 . S
C394 C377 1.574 1_565 S
C394 H388 0.949 . S
C394 C398 1.368 . S
C395 C376 1.429 . S
C395 C389 1.429 . S
C395 C396 1.523 . S
C396 C377 1.368 . S
C396 C390 1.368 . S
C396 C395 1.523 . S
C397 C381 1.429 . S
C397 C393 1.429 . S
C397 C398 1.523 . S
C398 C382 1.368 . S
C398 C394 1.368 . S
C398 C397 1.523 . S
H399 C374 0.950 . S
H400 C376 0.950 . S
H401 C377 0.949 . S
H402 C379 0.950 . S
H403 C381 0.950 . S
C404 C405 1.349 . S
C404 C406 1.327 . S
C404 H429 0.950 . S
C405 C404 1.349 . S
C405 C421 1.349 . S
C406 C404 1.327 . S
C406 C425 1.429 . S
C406 H430 0.950 . S
C407 C424 1.574 1_655 S
C407 C426 1.368 . S
C407 H431 0.949 . S
H408 C412 0.949 . S
C409 C410 1.349 . S
C409 C411 1.327 . S
C409 H432 0.950 . S
C410 C409 1.349 . S
C410 C422 1.349 . S
C411 C409 1.327 . S
C411 C427 1.429 . S
C411 H433 0.950 . S
C412 H408 0.949 . S
C412 C420 1.574 1_455 S
C412 C428 1.368 . S
H413 C421 0.950 . S
H414 C419 0.950 . S
H415 C420 0.949 . S
H416 C422 0.950 . S
H417 C423 0.950 . S
H418 C424 0.949 . S
C419 H414 0.950 . S
C419 C421 1.327 . S
C419 C425 1.429 . S
C420 C412 1.574 1_655 S
C420 H415 0.949 . S
C420 C426 1.368 . S
C421 C405 1.349 . S
C421 H413 0.950 . S
C421 C419 1.327 . S
C422 C410 1.349 . S
C422 H416 0.950 . S
C422 C423 1.327 . S
C423 H417 0.950 . S
C423 C422 1.327 . S
C423 C427 1.429 . S
C424 C407 1.574 1_455 S
C424 H418 0.949 . S
C424 C428 1.368 . S
C425 C406 1.429 . S
C425 C419 1.429 . S
C425 C426 1.523 . S
C426 C407 1.368 . S
C426 C420 1.368 . S
C426 C425 1.523 . S
C427 C411 1.429 . S
C427 C423 1.429 . S
C427 C428 1.523 . S
C428 C412 1.368 . S
C428 C424 1.368 . S
C428 C427 1.523 . S
H429 C404 0.950 . S
H430 C406 0.950 . S
H431 C407 0.949 . S
H432 C409 0.950 . S
H433 C411 0.950 . S
C434 C435 1.349 . S
C434 C436 1.327 . S
C434 H459 0.950 . S
C435 C434 1.349 . S
C435 C451 1.349 . S
C436 C434 1.327 . S
C436 C455 1.429 . S
C436 H460 0.950 . S
C437 C454 1.574 1_545 S
C437 C456 1.368 . S
C437 H461 0.949 . S
H438 C442 0.949 . S
C439 C440 1.349 . S
C439 C441 1.327 . S
C439 H462 0.950 . S
C440 C439 1.349 . S
C440 C452 1.349 . S
C441 C439 1.327 . S
C441 C457 1.429 . S
C441 H463 0.950 . S
C442 H438 0.949 . S
C442 C450 1.574 1_565 S
C442 C458 1.368 . S
H443 C451 0.950 . S
H444 C449 0.950 . S
H445 C450 0.949 . S
H446 C452 0.950 . S
H447 C453 0.950 . S
H448 C454 0.949 . S
C449 H444 0.950 . S
C449 C451 1.327 . S
C449 C455 1.429 . S
C450 C442 1.574 1_545 S
C450 H445 0.949 . S
C450 C456 1.368 . S
C451 C435 1.349 . S
C451 H443 0.950 . S
C451 C449 1.327 . S
C452 C440 1.349 . S
C452 H446 0.950 . S
C452 C453 1.327 . S
C453 H447 0.950 . S
C453 C452 1.327 . S
C453 C457 1.429 . S
C454 C437 1.574 1_565 S
C454 H448 0.949 . S
C454 C458 1.368 . S
C455 C436 1.429 . S
C455 C449 1.429 . S
C455 C456 1.523 . S
C456 C437 1.368 . S
C456 C450 1.368 . S
C456 C455 1.523 . S
C457 C441 1.429 . S
C457 C453 1.429 . S
C457 C458 1.523 . S
C458 C442 1.368 . S
C458 C454 1.368 . S
C458 C457 1.523 . S
H459 C434 0.950 . S
H460 C436 0.950 . S
H461 C437 0.949 . S
H462 C439 0.950 . S
H463 C441 0.950 . S
C464 C465 1.349 . S
C464 C466 1.327 . S
C464 H489 0.950 . S
C465 C464 1.349 . S
C465 C481 1.349 . S
C466 C464 1.327 . S
C466 C485 1.429 . S
C466 H490 0.950 . S
C467 C484 1.574 . S
C467 C486 1.368 . S
C467 H491 0.949 . S
H468 C472 0.949 . S
C469 C470 1.349 . S
C469 C471 1.327 . S
C469 H492 0.950 . S
C470 C469 1.349 . S
C470 C482 1.349 . S
C471 C469 1.327 . S
C471 C487 1.429 . S
C471 H493 0.950 . S
C472 H468 0.949 . S
C472 C480 1.574 . S
C472 C488 1.368 . S
H473 C481 0.950 . S
H474 C479 0.950 . S
H475 C480 0.949 . S
H476 C482 0.950 . S
H477 C483 0.950 . S
H478 C484 0.949 . S
C479 H474 0.950 . S
C479 C481 1.327 . S
C479 C485 1.429 . S
C480 C472 1.574 . S
C480 H475 0.949 . S
C480 C486 1.368 . S
C481 C465 1.349 . S
C481 H473 0.950 . S
C481 C479 1.327 . S
C482 C470 1.349 . S
C482 H476 0.950 . S
C482 C483 1.327 . S
C483 H477 0.950 . S
C483 C482 1.327 . S
C483 C487 1.429 . S
C484 C467 1.574 . S
C484 H478 0.949 . S
C484 C488 1.368 . S
C485 C466 1.429 . S
C485 C479 1.429 . S
C485 C486 1.523 . S
C486 C467 1.368 . S
C486 C480 1.368 . S
C486 C485 1.523 . S
C487 C471 1.429 . S
C487 C483 1.429 . S
C487 C488 1.523 . S
C488 C472 1.368 . S
C488 C484 1.368 . S
C488 C487 1.523 . S
H489 C464 0.950 . S
H490 C466 0.950 . S
H491 C467 0.949 . S
H492 C469 0.950 . S
H493 C471 0.950 . S
C494 C495 1.349 . S
C494 C496 1.327 . S
C494 H519 0.950 . S
C495 C494 1.349 . S
C495 C511 1.349 . S
C496 C494 1.327 . S
C496 C515 1.429 . S
C496 H520 0.950 . S
C497 C514 1.574 . S
C497 C516 1.368 . S
C497 H521 0.949 . S
H498 C502 0.949 . S
C499 C500 1.349 . S
C499 C501 1.327 . S
C499 H522 0.950 . S
C500 C499 1.349 . S
C500 C512 1.349 . S
C501 C499 1.327 . S
C501 C517 1.429 . S
C501 H523 0.950 . S
C502 H498 0.949 . S
C502 C510 1.574 . S
C502 C518 1.368 . S
H503 C511 0.950 . S
H504 C509 0.950 . S
H505 C510 0.949 . S
H506 C512 0.950 . S
H507 C513 0.950 . S
H508 C514 0.949 . S
C509 H504 0.950 . S
C509 C511 1.327 . S
C509 C515 1.429 . S
C510 C502 1.574 . S
C510 H505 0.949 . S
C510 C516 1.368 . S
C511 C495 1.349 . S
C511 H503 0.950 . S
C511 C509 1.327 . S
C512 C500 1.349 . S
C512 H506 0.950 . S
C512 C513 1.327 . S
C513 H507 0.950 . S
C513 C512 1.327 . S
C513 C517 1.429 . S
C514 C497 1.574 . S
C514 H508 0.949 . S
C514 C518 1.368 . S
C515 C496 1.429 . S
C515 C509 1.429 . S
C515 C516 1.523 . S
C516 C497 1.368 . S
C516 C510 1.368 . S
C516 C515 1.523 . S
C517 C501 1.429 . S
C517 C513 1.429 . S
C517 C518 1.523 . S
C518 C502 1.368 . S
C518 C514 1.368 . S
C518 C517 1.523 . S
H519 C494 0.950 . S
H520 C496 0.950 . S
H521 C497 0.949 . S
H522 C499 0.950 . S
H523 C501 0.950 . S
C524 C525 1.349 . S
C524 C526 1.327 . S
C524 H549 0.950 . S
C525 C524 1.349 . S
C525 C541 1.349 . S
C526 C524 1.327 . S
C526 C545 1.429 . S
C526 H550 0.950 . S
C527 C544 1.574 . S
C527 C546 1.368 . S
C527 H551 0.949 . S
H528 C532 0.949 . S
C529 C530 1.349 . S
C529 C531 1.327 . S
C529 H552 0.950 . S
C530 C529 1.349 . S
C530 C542 1.349 . S
C531 C529 1.327 . S
C531 C547 1.429 . S
C531 H553 0.950 . S
C532 H528 0.949 . S
C532 C540 1.574 . S
C532 C548 1.368 . S
H533 C541 0.950 . S
H534 C539 0.950 . S
H535 C540 0.949 . S
H536 C542 0.950 . S
H537 C543 0.950 . S
H538 C544 0.949 . S
C539 H534 0.950 . S
C539 C541 1.327 . S
C539 C545 1.429 . S
C540 C532 1.574 . S
C540 H535 0.949 . S
C540 C546 1.368 . S
C541 C525 1.349 . S
C541 H533 0.950 . S
C541 C539 1.327 . S
C542 C530 1.349 . S
C542 H536 0.950 . S
C542 C543 1.327 . S
C543 H537 0.950 . S
C543 C542 1.327 . S
C543 C547 1.429 . S
C544 C527 1.574 . S
C544 H538 0.949 . S
C544 C548 1.368 . S
C545 C526 1.429 . S
C545 C539 1.429 . S
C545 C546 1.523 . S
C546 C527 1.368 . S
C546 C540 1.368 . S
C546 C545 1.523 . S
C547 C531 1.429 . S
C547 C543 1.429 . S
C547 C548 1.523 . S
C548 C532 1.368 . S
C548 C544 1.368 . S
C548 C547 1.523 . S
H549 C524 0.950 . S
H550 C526 0.950 . S
H551 C527 0.949 . S
H552 C529 0.950 . S
H553 C531 0.950 . S
C554 C555 1.349 . S
C554 C556 1.327 . S
C554 H579 0.950 . S
C555 C554 1.349 . S
C555 C571 1.349 . S
C556 C554 1.327 . S
C556 C575 1.429 . S
C556 H580 0.950 . S
C557 C574 1.574 . S
C557 C576 1.368 . S
C557 H581 0.949 . S
H558 C562 0.949 . S
C559 C560 1.349 . S
C559 C561 1.327 . S
C559 H582 0.950 . S
C560 C559 1.349 . S
C560 C572 1.349 . S
C561 C559 1.327 . S
C561 C577 1.429 . S
C561 H583 0.950 . S
C562 H558 0.949 . S
C562 C570 1.574 . S
C562 C578 1.368 . S
H563 C571 0.950 . S
H564 C569 0.950 . S
H565 C570 0.949 . S
H566 C572 0.950 . S
H567 C573 0.950 . S
H568 C574 0.949 . S
C569 H564 0.950 . S
C569 C571 1.327 . S
C569 C575 1.429 . S
C570 C562 1.574 . S
C570 H565 0.949 . S
C570 C576 1.368 . S
C571 C555 1.349 . S
C571 H563 0.950 . S
C571 C569 1.327 . S
C572 C560 1.349 . S
C572 H566 0.950 . S
C572 C573 1.327 . S
C573 H567 0.950 . S
C573 C572 1.327 . S
C573 C577 1.429 . S
C574 C557 1.574 . S
C574 H568 0.949 . S
C574 C578 1.368 . S
C575 C556 1.429 . S
C575 C569 1.429 . S
C575 C576 1.523 . S
C576 C557 1.368 . S
C576 C570 1.368 . S
C576 C575 1.523 . S
C577 C561 1.429 . S
C577 C573 1.429 . S
C577 C578 1.523 . S
C578 C562 1.368 . S
C578 C574 1.368 . S
C578 C577 1.523 . S
H579 C554 0.950 . S
H580 C556 0.950 . S
H581 C557 0.949 . S
H582 C559 0.950 . S
H583 C561 0.950 . S
C584 C585 1.349 . S
C584 C586 1.327 . S
C584 H609 0.950 . S
C585 C584 1.349 . S
C585 C601 1.349 . S
C586 C584 1.327 . S
C586 C605 1.429 . S
C586 H610 0.950 . S
C587 C604 1.574 . S
C587 C606 1.368 . S
C587 H611 0.949 . S
H588 C592 0.949 . S
C589 C590 1.349 . S
C589 C591 1.327 . S
C589 H612 0.950 . S
C590 C589 1.349 . S
C590 C602 1.349 . S
C591 C589 1.327 . S
C591 C607 1.429 . S
C591 H613 0.950 . S
C592 H588 0.949 . S
C592 C600 1.574 . S
C592 C608 1.368 . S
H593 C601 0.950 . S
H594 C599 0.950 . S
H595 C600 0.949 . S
H596 C602 0.950 . S
H597 C603 0.950 . S
H598 C604 0.949 . S
C599 H594 0.950 . S
C599 C601 1.327 . S
C599 C605 1.429 . S
C600 C592 1.574 . S
C600 H595 0.949 . S
C600 C606 1.368 . S
C601 C585 1.349 . S
C601 H593 0.950 . S
C601 C599 1.327 . S
C602 C590 1.349 . S
C602 H596 0.950 . S
C602 C603 1.327 . S
C603 H597 0.950 . S
C603 C602 1.327 . S
C603 C607 1.429 . S
C604 C587 1.574 . S
C604 H598 0.949 . S
C604 C608 1.368 . S
C605 C586 1.429 . S
C605 C599 1.429 . S
C605 C606 1.523 . S
C606 C587 1.368 . S
C606 C600 1.368 . S
C606 C605 1.523 . S
C607 C591 1.429 . S
C607 C603 1.429 . S
C607 C608 1.523 . S
C608 C592 1.368 . S
C608 C604 1.368 . S
C608 C607 1.523 . S
H609 C584 0.950 . S
H610 C586 0.950 . S
H611 C587 0.949 . S
H612 C589 0.950 . S
H613 C591 0.950 . S
C614 C615 1.349 . S
C614 C616 1.327 . S
C614 H639 0.950 . S
C615 C614 1.349 . S
C615 C631 1.349 . S
C616 C614 1.327 . S
C616 C635 1.429 . S
C616 H640 0.950 . S
C617 C634 1.574 . S
C617 C636 1.368 . S
C617 H641 0.949 . S
H618 C622 0.949 . S
C619 C620 1.349 . S
C619 C621 1.327 . S
C619 H642 0.950 . S
C620 C619 1.349 . S
C620 C632 1.349 . S
C621 C619 1.327 . S
C621 C637 1.429 . S
C621 H643 0.950 . S
C622 H618 0.949 . S
C622 C630 1.574 . S
C622 C638 1.368 . S
H623 C631 0.950 . S
H624 C629 0.950 . S
H625 C630 0.949 . S
H626 C632 0.950 . S
H627 C633 0.950 . S
H628 C634 0.949 . S
C629 H624 0.950 . S
C629 C631 1.327 . S
C629 C635 1.429 . S
C630 C622 1.574 . S
C630 H625 0.949 . S
C630 C636 1.368 . S
C631 C615 1.349 . S
C631 H623 0.950 . S
C631 C629 1.327 . S
C632 C620 1.349 . S
C632 H626 0.950 . S
C632 C633 1.327 . S
C633 H627 0.950 . S
C633 C632 1.327 . S
C633 C637 1.429 . S
C634 C617 1.574 . S
C634 H628 0.949 . S
C634 C638 1.368 . S
C635 C616 1.429 . S
C635 C629 1.429 . S
C635 C636 1.523 . S
C636 C617 1.368 . S
C636 C630 1.368 . S
C636 C635 1.523 . S
C637 C621 1.429 . S
C637 C633 1.429 . S
C637 C638 1.523 . S
C638 C622 1.368 . S
C638 C634 1.368 . S
C638 C637 1.523 . S
H639 C614 0.950 . S
H640 C616 0.950 . S
H641 C617 0.949 . S
H642 C619 0.950 . S
H643 C621 0.950 . S
C644 C645 1.349 . S
C644 C646 1.327 . S
C644 H669 0.950 . S
C645 C644 1.349 . S
C645 C661 1.349 . S
C646 C644 1.327 . S
C646 C665 1.429 . S
C646 H670 0.950 . S
C647 C664 1.574 . S
C647 C666 1.368 . S
C647 H671 0.949 . S
H648 C652 0.949 . S
C649 C650 1.349 . S
C649 C651 1.327 . S
C649 H672 0.950 . S
C650 C649 1.349 . S
C650 C662 1.349 . S
C651 C649 1.327 . S
C651 C667 1.429 . S
C651 H673 0.950 . S
C652 H648 0.949 . S
C652 C660 1.574 . S
C652 C668 1.368 . S
H653 C661 0.950 . S
H654 C659 0.950 . S
H655 C660 0.949 . S
H656 C662 0.950 . S
H657 C663 0.950 . S
H658 C664 0.949 . S
C659 H654 0.950 . S
C659 C661 1.327 . S
C659 C665 1.429 . S
C660 C652 1.574 . S
C660 H655 0.949 . S
C660 C666 1.368 . S
C661 C645 1.349 . S
C661 H653 0.950 . S
C661 C659 1.327 . S
C662 C650 1.349 . S
C662 H656 0.950 . S
C662 C663 1.327 . S
C663 H657 0.950 . S
C663 C662 1.327 . S
C663 C667 1.429 . S
C664 C647 1.574 . S
C664 H658 0.949 . S
C664 C668 1.368 . S
C665 C646 1.429 . S
C665 C659 1.429 . S
C665 C666 1.523 . S
C666 C647 1.368 . S
C666 C660 1.368 . S
C666 C665 1.523 . S
C667 C651 1.429 . S
C667 C663 1.429 . S
C667 C668 1.523 . S
C668 C652 1.368 . S
C668 C664 1.368 . S
C668 C667 1.523 . S
H669 C644 0.950 . S
H670 C646 0.950 . S
H671 C647 0.949 . S
H672 C649 0.950 . S
H673 C651 0.950 . S
C674 C675 1.349 . S
C674 C676 1.327 . S
C674 H699 0.950 . S
C675 C674 1.349 . S
C675 C691 1.349 . S
C676 C674 1.327 . S
C676 C695 1.429 . S
C676 H700 0.950 . S
C677 C694 1.574 . S
C677 C696 1.368 . S
C677 H701 0.949 . S
H678 C682 0.949 . S
C679 C680 1.349 . S
C679 C681 1.327 . S
C679 H702 0.950 . S
C680 C679 1.349 . S
C680 C692 1.349 . S
C681 C679 1.327 . S
C681 C697 1.429 . S
C681 H703 0.950 . S
C682 H678 0.949 . S
C682 C690 1.574 . S
C682 C698 1.368 . S
H683 C691 0.950 . S
H684 C689 0.950 . S
H685 C690 0.949 . S
H686 C692 0.950 . S
H687 C693 0.950 . S
H688 C694 0.949 . S
C689 H684 0.950 . S
C689 C691 1.327 . S
C689 C695 1.429 . S
C690 C682 1.574 . S
C690 H685 0.949 . S
C690 C696 1.368 . S
C691 C675 1.349 . S
C691 H683 0.950 . S
C691 C689 1.327 . S
C692 C680 1.349 . S
C692 H686 0.950 . S
C692 C693 1.327 . S
C693 H687 0.950 . S
C693 C692 1.327 . S
C693 C697 1.429 . S
C694 C677 1.574 . S
C694 H688 0.949 . S
C694 C698 1.368 . S
C695 C676 1.429 . S
C695 C689 1.429 . S
C695 C696 1.523 . S
C696 C677 1.368 . S
C696 C690 1.368 . S
C696 C695 1.523 . S
C697 C681 1.429 . S
C697 C693 1.429 . S
C697 C698 1.523 . S
C698 C682 1.368 . S
C698 C694 1.368 . S
C698 C697 1.523 . S
H699 C674 0.950 . S
H700 C676 0.950 . S
H701 C677 0.949 . S
H702 C679 0.950 . S
H703 C681 0.950 . S
C704 C705 1.349 . S
C704 C706 1.327 . S
C704 H729 0.950 . S
C705 C704 1.349 . S
C705 C721 1.349 . S
C706 C704 1.327 . S
C706 C725 1.429 . S
C706 H730 0.950 . S
C707 C724 1.574 1_556 S
C707 C726 1.368 . S
C707 H731 0.949 . S
H708 C712 0.949 . S
C709 C710 1.349 . S
C709 C711 1.327 . S
C709 H732 0.950 . S
C710 C709 1.349 . S
C710 C722 1.349 . S
C711 C709 1.327 . S
C711 C727 1.429 . S
C711 H733 0.950 . S
C712 H708 0.949 . S
C712 C720 1.574 1_554 S
C712 C728 1.368 . S
H713 C721 0.950 . S
H714 C719 0.950 . S
H715 C720 0.949 . S
H716 C722 0.950 . S
H717 C723 0.950 . S
H718 C724 0.949 . S
C719 H714 0.950 . S
C719 C721 1.327 . S
C719 C725 1.429 . S
C720 C712 1.574 1_556 S
C720 H715 0.949 . S
C720 C726 1.368 . S
C721 C705 1.349 . S
C721 H713 0.950 . S
C721 C719 1.327 . S
C722 C710 1.349 . S
C722 H716 0.950 . S
C722 C723 1.327 . S
C723 H717 0.950 . S
C723 C722 1.327 . S
C723 C727 1.429 . S
C724 C707 1.574 1_554 S
C724 H718 0.949 . S
C724 C728 1.368 . S
C725 C706 1.429 . S
C725 C719 1.429 . S
C725 C726 1.523 . S
C726 C707 1.368 . S
C726 C720 1.368 . S
C726 C725 1.523 . S
C727 C711 1.429 . S
C727 C723 1.429 . S
C727 C728 1.523 . S
C728 C712 1.368 . S
C728 C724 1.368 . S
C728 C727 1.523 . S
H729 C704 0.950 . S
H730 C706 0.950 . S
H731 C707 0.949 . S
H732 C709 0.950 . S
H733 C711 0.950 . S
C734 C735 1.349 . S
C734 C736 1.327 . S
C734 H759 0.950 . S
C735 C734 1.349 . S
C735 C751 1.349 . S
C736 C734 1.327 . S
C736 C755 1.429 . S
C736 H760 0.950 . S
C737 C754 1.574 . S
C737 C756 1.368 . S
C737 H761 0.949 . S
H738 C742 0.949 . S
C739 C740 1.349 . S
C739 C741 1.327 . S
C739 H762 0.950 . S
C740 C739 1.349 . S
C740 C752 1.349 . S
C741 C739 1.327 . S
C741 C757 1.429 . S
C741 H763 0.950 . S
C742 H738 0.949 . S
C742 C750 1.574 . S
C742 C758 1.368 . S
H743 C751 0.950 . S
H744 C749 0.950 . S
H745 C750 0.949 . S
H746 C752 0.950 . S
H747 C753 0.950 . S
H748 C754 0.949 . S
C749 H744 0.950 . S
C749 C751 1.327 . S
C749 C755 1.429 . S
C750 C742 1.574 . S
C750 H745 0.949 . S
C750 C756 1.368 . S
C751 C735 1.349 . S
C751 H743 0.950 . S
C751 C749 1.327 . S
C752 C740 1.349 . S
C752 H746 0.950 . S
C752 C753 1.327 . S
C753 H747 0.950 . S
C753 C752 1.327 . S
C753 C757 1.429 . S
C754 C737 1.574 . S
C754 H748 0.949 . S
C754 C758 1.368 . S
C755 C736 1.429 . S
C755 C749 1.429 . S
C755 C756 1.523 . S
C756 C737 1.368 . S
C756 C750 1.368 . S
C756 C755 1.523 . S
C757 C741 1.429 . S
C757 C753 1.429 . S
C757 C758 1.523 . S
C758 C742 1.368 . S
C758 C754 1.368 . S
C758 C757 1.523 . S
H759 C734 0.950 . S
H760 C736 0.950 . S
H761 C737 0.949 . S
H762 C739 0.950 . S
H763 C741 0.950 . S
C764 C765 1.349 . S
C764 C766 1.327 . S
C764 H789 0.950 . S
C765 C764 1.349 . S
C765 C781 1.349 . S
C766 C764 1.327 . S
C766 C785 1.429 . S
C766 H790 0.950 . S
C767 C784 1.574 1_554 S
C767 C786 1.368 . S
C767 H791 0.949 . S
H768 C772 0.949 . S
C769 C770 1.349 . S
C769 C771 1.327 . S
C769 H792 0.950 . S
C770 C769 1.349 . S
C770 C782 1.349 . S
C771 C769 1.327 . S
C771 C787 1.429 . S
C771 H793 0.950 . S
C772 H768 0.949 . S
C772 C780 1.574 1_556 S
C772 C788 1.368 . S
H773 C781 0.950 . S
H774 C779 0.950 . S
H775 C780 0.949 . S
H776 C782 0.950 . S
H777 C783 0.950 . S
H778 C784 0.949 . S
C779 H774 0.950 . S
C779 C781 1.327 . S
C779 C785 1.429 . S
C780 C772 1.574 1_554 S
C780 H775 0.949 . S
C780 C786 1.368 . S
C781 C765 1.349 . S
C781 H773 0.950 . S
C781 C779 1.327 . S
C782 C770 1.349 . S
C782 H776 0.950 . S
C782 C783 1.327 . S
C783 H777 0.950 . S
C783 C782 1.327 . S
C783 C787 1.429 . S
C784 C767 1.574 1_556 S
C784 H778 0.949 . S
C784 C788 1.368 . S
C785 C766 1.429 . S
C785 C779 1.429 . S
C785 C786 1.523 . S
C786 C767 1.368 . S
C786 C780 1.368 . S
C786 C785 1.523 . S
C787 C771 1.429 . S
C787 C783 1.429 . S
C787 C788 1.523 . S
C788 C772 1.368 . S
C788 C784 1.368 . S
C788 C787 1.523 . S
H789 C764 0.950 . S
H790 C766 0.950 . S
H791 C767 0.949 . S
H792 C769 0.950 . S
H793 C771 0.950 . S
C794 C795 1.349 . S
C794 C796 1.327 . S
C794 H819 0.950 . S
C795 C794 1.349 . S
C795 C811 1.349 . S
C796 C794 1.327 . S
C796 C815 1.429 . S
C796 H820 0.950 . S
C797 C814 1.574 . S
C797 C816 1.368 . S
C797 H821 0.949 . S
H798 C802 0.949 . S
C799 C800 1.349 . S
C799 C801 1.327 . S
C799 H822 0.950 . S
C800 C799 1.349 . S
C800 C812 1.349 . S
C801 C799 1.327 . S
C801 C817 1.429 . S
C801 H823 0.950 . S
C802 H798 0.949 . S
C802 C810 1.574 . S
C802 C818 1.368 . S
H803 C811 0.950 . S
H804 C809 0.950 . S
H805 C810 0.949 . S
H806 C812 0.950 . S
H807 C813 0.950 . S
H808 C814 0.949 . S
C809 H804 0.950 . S
C809 C811 1.327 . S
C809 C815 1.429 . S
C810 C802 1.574 . S
C810 H805 0.949 . S
C810 C816 1.368 . S
C811 C795 1.349 . S
C811 H803 0.950 . S
C811 C809 1.327 . S
C812 C800 1.349 . S
C812 H806 0.950 . S
C812 C813 1.327 . S
C813 H807 0.950 . S
C813 C812 1.327 . S
C813 C817 1.429 . S
C814 C797 1.574 . S
C814 H808 0.949 . S
C814 C818 1.368 . S
C815 C796 1.429 . S
C815 C809 1.429 . S
C815 C816 1.523 . S
C816 C797 1.368 . S
C816 C810 1.368 . S
C816 C815 1.523 . S
C817 C801 1.429 . S
C817 C813 1.429 . S
C817 C818 1.523 . S
C818 C802 1.368 . S
C818 C814 1.368 . S
C818 C817 1.523 . S
H819 C794 0.950 . S
H820 C796 0.950 . S
H821 C797 0.949 . S
H822 C799 0.950 . S
H823 C801 0.950 . S
C824 C825 1.349 . S
C824 C826 1.327 . S
C824 H849 0.950 . S
C825 C824 1.349 . S
C825 C841 1.349 . S
C826 C824 1.327 . S
C826 C845 1.429 . S
C826 H850 0.950 . S
C827 C844 1.574 . S
C827 C846 1.368 . S
C827 H851 0.949 . S
H828 C832 0.949 . S
C829 C830 1.349 . S
C829 C831 1.327 . S
C829 H852 0.950 . S
C830 C829 1.349 . S
C830 C842 1.349 . S
C831 C829 1.327 . S
C831 C847 1.429 . S
C831 H853 0.950 . S
C832 H828 0.949 . S
C832 C840 1.574 . S
C832 C848 1.368 . S
H833 C841 0.950 . S
H834 C839 0.950 . S
H835 C840 0.949 . S
H836 C842 0.950 . S
H837 C843 0.950 . S
H838 C844 0.949 . S
C839 H834 0.950 . S
C839 C841 1.327 . S
C839 C845 1.429 . S
C840 C832 1.574 . S
C840 H835 0.949 . S
C840 C846 1.368 . S
C841 C825 1.349 . S
C841 H833 0.950 . S
C841 C839 1.327 . S
C842 C830 1.349 . S
C842 H836 0.950 . S
C842 C843 1.327 . S
C843 H837 0.950 . S
C843 C842 1.327 . S
C843 C847 1.429 . S
C844 C827 1.574 . S
C844 H838 0.949 . S
C844 C848 1.368 . S
C845 C826 1.429 . S
C845 C839 1.429 . S
C845 C846 1.523 . S
C846 C827 1.368 . S
C846 C840 1.368 . S
C846 C845 1.523 . S
C847 C831 1.429 . S
C847 C843 1.429 . S
C847 C848 1.523 . S
C848 C832 1.368 . S
C848 C844 1.368 . S
C848 C847 1.523 . S
H849 C824 0.950 . S
H850 C826 0.950 . S
H851 C827 0.949 . S
H852 C829 0.950 . S
H853 C831 0.950 . S
C854 C855 1.349 . S
C854 C856 1.327 . S
C854 H879 0.950 . S
C855 C854 1.349 . S
C855 C871 1.349 . S
C856 C854 1.327 . S
C856 C875 1.429 . S
C856 H880 0.950 . S
C857 C874 1.574 1_556 S
C857 C876 1.368 . S
C857 H881 0.949 . S
H858 C862 0.949 . S
C859 C860 1.349 . S
C859 C861 1.327 . S
C859 H882 0.950 . S
C860 C859 1.349 . S
C860 C872 1.349 . S
C861 C859 1.327 . S
C861 C877 1.429 . S
C861 H883 0.950 . S
C862 H858 0.949 . S
C862 C870 1.574 1_554 S
C862 C878 1.368 . S
H863 C871 0.950 . S
H864 C869 0.950 . S
H865 C870 0.949 . S
H866 C872 0.950 . S
H867 C873 0.950 . S
H868 C874 0.949 . S
C869 H864 0.950 . S
C869 C871 1.327 . S
C869 C875 1.429 . S
C870 C862 1.574 1_556 S
C870 H865 0.949 . S
C870 C876 1.368 . S
C871 C855 1.349 . S
C871 H863 0.950 . S
C871 C869 1.327 . S
C872 C860 1.349 . S
C872 H866 0.950 . S
C872 C873 1.327 . S
C873 H867 0.950 . S
C873 C872 1.327 . S
C873 C877 1.429 . S
C874 C857 1.574 1_554 S
C874 H868 0.949 . S
C874 C878 1.368 . S
C875 C856 1.429 . S
C875 C869 1.429 . S
C875 C876 1.523 . S
C876 C857 1.368 . S
C876 C870 1.368 . S
C876 C875 1.523 . S
C877 C861 1.429 . S
C877 C873 1.429 . S
C877 C878 1.523 . S
C878 C862 1.368 . S
C878 C874 1.368 . S
C878 C877 1.523 . S
H879 C854 0.950 . S
H880 C856 0.950 . S
H881 C857 0.949 . S
H882 C859 0.950 . S
H883 C861 0.950 . S
C884 C885 1.349 . S
C884 C886 1.327 . S
C884 H909 0.950 . S
C885 C884 1.349 . S
C885 C901 1.349 . S
C886 C884 1.327 . S
C886 C905 1.429 . S
C886 H910 0.950 . S
C887 C904 1.574 . S
C887 C906 1.368 . S
C887 H911 0.949 . S
H888 C892 0.949 . S
C889 C890 1.349 . S
C889 C891 1.327 . S
C889 H912 0.950 . S
C890 C889 1.349 . S
C890 C902 1.349 . S
C891 C889 1.327 . S
C891 C907 1.429 . S
C891 H913 0.950 . S
C892 H888 0.949 . S
C892 C900 1.574 . S
C892 C908 1.368 . S
H893 C901 0.950 . S
H894 C899 0.950 . S
H895 C900 0.949 . S
H896 C902 0.950 . S
H897 C903 0.950 . S
H898 C904 0.949 . S
C899 H894 0.950 . S
C899 C901 1.327 . S
C899 C905 1.429 . S
C900 C892 1.574 . S
C900 H895 0.949 . S
C900 C906 1.368 . S
C901 C885 1.349 . S
C901 H893 0.950 . S
C901 C899 1.327 . S
C902 C890 1.349 . S
C902 H896 0.950 . S
C902 C903 1.327 . S
C903 H897 0.950 . S
C903 C902 1.327 . S
C903 C907 1.429 . S
C904 C887 1.574 . S
C904 H898 0.949 . S
C904 C908 1.368 . S
C905 C886 1.429 . S
C905 C899 1.429 . S
C905 C906 1.523 . S
C906 C887 1.368 . S
C906 C900 1.368 . S
C906 C905 1.523 . S
C907 C891 1.429 . S
C907 C903 1.429 . S
C907 C908 1.523 . S
C908 C892 1.368 . S
C908 C904 1.368 . S
C908 C907 1.523 . S
H909 C884 0.950 . S
H910 C886 0.950 . S
H911 C887 0.949 . S
H912 C889 0.950 . S
H913 C891 0.950 . S
C914 C915 1.349 . S
C914 C916 1.327 . S
C914 H939 0.950 . S
C915 C914 1.349 . S
C915 C931 1.349 . S
C916 C914 1.327 . S
C916 C935 1.429 . S
C916 H940 0.950 . S
C917 C934 1.574 1_554 S
C917 C936 1.368 . S
C917 H941 0.949 . S
H918 C922 0.949 . S
C919 C920 1.349 . S
C919 C921 1.327 . S
C919 H942 0.950 . S
C920 C919 1.349 . S
C920 C932 1.349 . S
C921 C919 1.327 . S
C921 C937 1.429 . S
C921 H943 0.950 . S
C922 H918 0.949 . S
C922 C930 1.574 1_556 S
C922 C938 1.368 . S
H923 C931 0.950 . S
H924 C929 0.950 . S
H925 C930 0.949 . S
H926 C932 0.950 . S
H927 C933 0.950 . S
H928 C934 0.949 . S
C929 H924 0.950 . S
C929 C931 1.327 . S
C929 C935 1.429 . S
C930 C922 1.574 1_554 S
C930 H925 0.949 . S
C930 C936 1.368 . S
C931 C915 1.349 . S
C931 H923 0.950 . S
C931 C929 1.327 . S
C932 C920 1.349 . S
C932 H926 0.950 . S
C932 C933 1.327 . S
C933 H927 0.950 . S
C933 C932 1.327 . S
C933 C937 1.429 . S
C934 C917 1.574 1_556 S
C934 H928 0.949 . S
C934 C938 1.368 . S
C935 C916 1.429 . S
C935 C929 1.429 . S
C935 C936 1.523 . S
C936 C917 1.368 . S
C936 C930 1.368 . S
C936 C935 1.523 . S
C937 C921 1.429 . S
C937 C933 1.429 . S
C937 C938 1.523 . S
C938 C922 1.368 . S
C938 C934 1.368 . S
C938 C937 1.523 . S
H939 C914 0.950 . S
H940 C916 0.950 . S
H941 C917 0.949 . S
H942 C919 0.950 . S
H943 C921 0.950 . S
C944 C945 1.349 . S
C944 C946 1.327 . S
C944 H969 0.950 . S
C945 C944 1.349 . S
C945 C961 1.349 . S
C946 C944 1.327 . S
C946 C965 1.429 . S
C946 H970 0.950 . S
C947 C964 1.574 . S
C947 C966 1.368 . S
C947 H971 0.949 . S
H948 C952 0.949 . S
C949 C950 1.349 . S
C949 C951 1.327 . S
C949 H972 0.950 . S
C950 C949 1.349 . S
C950 C962 1.349 . S
C951 C949 1.327 . S
C951 C967 1.429 . S
C951 H973 0.950 . S
C952 H948 0.949 . S
C952 C960 1.574 . S
C952 C968 1.368 . S
H953 C961 0.950 . S
H954 C959 0.950 . S
H955 C960 0.949 . S
H956 C962 0.950 . S
H957 C963 0.950 . S
H958 C964 0.949 . S
C959 H954 0.950 . S
C959 C961 1.327 . S
C959 C965 1.429 . S
C960 C952 1.574 . S
C960 H955 0.949 . S
C960 C966 1.368 . S
C961 C945 1.349 . S
C961 H953 0.950 . S
C961 C959 1.327 . S
C962 C950 1.349 . S
C962 H956 0.950 . S
C962 C963 1.327 . S
C963 H957 0.950 . S
C963 C962 1.327 . S
C963 C967 1.429 . S
C964 C947 1.574 . S
C964 H958 0.949 . S
C964 C968 1.368 . S
C965 C946 1.429 . S
C965 C959 1.429 . S
C965 C966 1.523 . S
C966 C947 1.368 . S
C966 C960 1.368 . S
C966 C965 1.523 . S
C967 C951 1.429 . S
C967 C963 1.429 . S
C967 C968 1.523 . S
C968 C952 1.368 . S
C968 C964 1.368 . S
C968 C967 1.523 . S
H969 C944 0.950 . S
H970 C946 0.950 . S
H971 C947 0.949 . S
H972 C949 0.950 . S
H973 C951 0.950 . S
C974 C975 1.349 . S
C974 C976 1.327 . S
C974 H999 0.950 . S
C975 C974 1.349 . S
C975 C991 1.349 . S
C976 C974 1.327 . S
C976 C995 1.429 . S
C976 H1000 0.950 . S
C977 C994 1.574 . S
C977 C996 1.368 . S
C977 H1001 0.949 . S
H978 C982 0.949 . S
C979 C980 1.349 . S
C979 C981 1.327 . S
C979 H1002 0.950 . S
C980 C979 1.349 . S
C980 C992 1.349 . S
C981 C979 1.327 . S
C981 C997 1.429 . S
C981 H1003 0.950 . S
C982 H978 0.949 . S
C982 C990 1.574 . S
C982 C998 1.368 . S
H983 C991 0.950 . S
H984 C989 0.950 . S
H985 C990 0.949 . S
H986 C992 0.950 . S
H987 C993 0.950 . S
H988 C994 0.949 . S
C989 H984 0.950 . S
C989 C991 1.327 . S
C989 C995 1.429 . S
C990 C982 1.574 . S
C990 H985 0.949 . S
C990 C996 1.368 . S
C991 C975 1.349 . S
C991 H983 0.950 . S
C991 C989 1.327 . S
C992 C980 1.349 . S
C992 H986 0.950 . S
C992 C993 1.327 . S
C993 H987 0.950 . S
C993 C992 1.327 . S
C993 C997 1.429 . S
C994 C977 1.574 . S
C994 H988 0.949 . S
C994 C998 1.368 . S
C995 C976 1.429 . S
C995 C989 1.429 . S
C995 C996 1.523 . S
C996 C977 1.368 . S
C996 C990 1.368 . S
C996 C995 1.523 . S
C997 C981 1.429 . S
C997 C993 1.429 . S
C997 C998 1.523 . S
C998 C982 1.368 . S
C998 C994 1.368 . S
C998 C997 1.523 . S
H999 C974 0.950 . S
H1000 C976 0.950 . S
H1001 C977 0.949 . S
H1002 C979 0.950 . S
H1003 C981 0.950 . S
C1004 C1005 1.349 . S
C1004 C1006 1.327 . S
C1004 H1029 0.950 . S
C1005 C1004 1.349 . S
C1005 C1021 1.349 . S
C1006 C1004 1.327 . S
C1006 C1025 1.429 . S
C1006 H1030 0.950 . S
C1007 C1024 1.574 . S
C1007 C1026 1.368 . S
C1007 H1031 0.949 . S
H1008 C1012 0.949 . S
C1009 C1010 1.349 . S
C1009 C1011 1.327 . S
C1009 H1032 0.950 . S
C1010 C1009 1.349 . S
C1010 C1022 1.349 . S
C1011 C1009 1.327 . S
C1011 C1027 1.429 . S
C1011 H1033 0.950 . S
C1012 H1008 0.949 . S
C1012 C1020 1.574 . S
C1012 C1028 1.368 . S
H1013 C1021 0.950 . S
H1014 C1019 0.950 . S
H1015 C1020 0.949 . S
H1016 C1022 0.950 . S
H1017 C1023 0.950 . S
H1018 C1024 0.949 . S
C1019 H1014 0.950 . S
C1019 C1021 1.327 . S
C1019 C1025 1.429 . S
C1020 C1012 1.574 . S
C1020 H1015 0.949 . S
C1020 C1026 1.368 . S
C1021 C1005 1.349 . S
C1021 H1013 0.950 . S
C1021 C1019 1.327 . S
C1022 C1010 1.349 . S
C1022 H1016 0.950 . S
C1022 C1023 1.327 . S
C1023 H1017 0.950 . S
C1023 C1022 1.327 . S
C1023 C1027 1.429 . S
C1024 C1007 1.574 . S
C1024 H1018 0.949 . S
C1024 C1028 1.368 . S
C1025 C1006 1.429 . S
C1025 C1019 1.429 . S
C1025 C1026 1.523 . S
C1026 C1007 1.368 . S
C1026 C1020 1.368 . S
C1026 C1025 1.523 . S
C1027 C1011 1.429 . S
C1027 C1023 1.429 . S
C1027 C1028 1.523 . S
C1028 C1012 1.368 . S
C1028 C1024 1.368 . S
C1028 C1027 1.523 . S
H1029 C1004 0.950 . S
H1030 C1006 0.950 . S
H1031 C1007 0.949 . S
H1032 C1009 0.950 . S
H1033 C1011 0.950 . S
C1034 C1035 1.349 . S
C1034 C1036 1.327 . S
C1034 H1059 0.950 . S
C1035 C1034 1.349 . S
C1035 C1051 1.349 . S
C1036 C1034 1.327 . S
C1036 C1055 1.429 . S
C1036 H1060 0.950 . S
C1037 C1054 1.574 . S
C1037 C1056 1.368 . S
C1037 H1061 0.949 . S
H1038 C1042 0.949 . S
C1039 C1040 1.349 . S
C1039 C1041 1.327 . S
C1039 H1062 0.950 . S
C1040 C1039 1.349 . S
C1040 C1052 1.349 . S
C1041 C1039 1.327 . S
C1041 C1057 1.429 . S
C1041 H1063 0.950 . S
C1042 H1038 0.949 . S
C1042 C1050 1.574 . S
C1042 C1058 1.368 . S
H1043 C1051 0.950 . S
H1044 C1049 0.950 . S
H1045 C1050 0.949 . S
H1046 C1052 0.950 . S
H1047 C1053 0.950 . S
H1048 C1054 0.949 . S
C1049 H1044 0.950 . S
C1049 C1051 1.327 . S
C1049 C1055 1.429 . S
C1050 C1042 1.574 . S
C1050 H1045 0.949 . S
C1050 C1056 1.368 . S
C1051 C1035 1.349 . S
C1051 H1043 0.950 . S
C1051 C1049 1.327 . S
C1052 C1040 1.349 . S
C1052 H1046 0.950 . S
C1052 C1053 1.327 . S
C1053 H1047 0.950 . S
C1053 C1052 1.327 . S
C1053 C1057 1.429 . S
C1054 C1037 1.574 . S
C1054 H1048 0.949 . S
C1054 C1058 1.368 . S
C1055 C1036 1.429 . S
C1055 C1049 1.429 . S
C1055 C1056 1.523 . S
C1056 C1037 1.368 . S
C1056 C1050 1.368 . S
C1056 C1055 1.523 . S
C1057 C1041 1.429 . S
C1057 C1053 1.429 . S
C1057 C1058 1.523 . S
C1058 C1042 1.368 . S
C1058 C1054 1.368 . S
C1058 C1057 1.523 . S
H1059 C1034 0.950 . S
H1060 C1036 0.950 . S
H1061 C1037 0.949 . S
H1062 C1039 0.950 . S
H1063 C1041 0.950 . S
C1064 C1065 1.349 . S
C1064 C1066 1.327 . S
C1064 H1089 0.950 . S
C1065 C1064 1.349 . S
C1065 C1081 1.349 . S
C1066 C1064 1.327 . S
C1066 C1085 1.429 . S
C1066 H1090 0.950 . S
C1067 C1084 1.574 . S
C1067 C1086 1.368 . S
C1067 H1091 0.949 . S
H1068 C1072 0.949 . S
C1069 C1070 1.349 . S
C1069 C1071 1.327 . S
C1069 H1092 0.950 . S
C1070 C1069 1.349 . S
C1070 C1082 1.349 . S
C1071 C1069 1.327 . S
C1071 C1087 1.429 . S
C1071 H1093 0.950 . S
C1072 H1068 0.949 . S
C1072 C1080 1.574 . S
C1072 C1088 1.368 . S
H1073 C1081 0.950 . S
H1074 C1079 0.950 . S
H1075 C1080 0.949 . S
H1076 C1082 0.950 . S
H1077 C1083 0.950 . S
H1078 C1084 0.949 . S
C1079 H1074 0.950 . S
C1079 C1081 1.327 . S
C1079 C1085 1.429 . S
C1080 C1072 1.574 . S
C1080 H1075 0.949 . S
C1080 C1086 1.368 . S
C1081 C1065 1.349 . S
C1081 H1073 0.950 . S
C1081 C1079 1.327 . S
C1082 C1070 1.349 . S
C1082 H1076 0.950 . S
C1082 C1083 1.327 . S
C1083 H1077 0.950 . S
C1083 C1082 1.327 . S
C1083 C1087 1.429 . S
C1084 C1067 1.574 . S
C1084 H1078 0.949 . S
C1084 C1088 1.368 . S
C1085 C1066 1.429 . S
C1085 C1079 1.429 . S
C1085 C1086 1.523 . S
C1086 C1067 1.368 . S
C1086 C1080 1.368 . S
C1086 C1085 1.523 . S
C1087 C1071 1.429 . S
C1087 C1083 1.429 . S
C1087 C1088 1.523 . S
C1088 C1072 1.368 . S
C1088 C1084 1.368 . S
C1088 C1087 1.523 . S
H1089 C1064 0.950 . S
H1090 C1066 0.950 . S
H1091 C1067 0.949 . S
H1092 C1069 0.950 . S
H1093 C1071 0.950 . S
C1094 C1095 1.349 . S
C1094 C1096 1.327 . S
C1094 H1119 0.950 . S
C1095 C1094 1.349 . S
C1095 C1111 1.349 . S
C1096 C1094 1.327 . S
C1096 C1115 1.429 . S
C1096 H1120 0.950 . S
C1097 C1114 1.574 . S
C1097 C1116 1.368 . S
C1097 H1121 0.949 . S
H1098 C1102 0.949 . S
C1099 C1100 1.349 . S
C1099 C1101 1.327 . S
C1099 H1122 0.950 . S
C1100 C1099 1.349 . S
C1100 C1112 1.349 . S
C1101 C1099 1.327 . S
C1101 C1117 1.429 . S
C1101 H1123 0.950 . S
C1102 H1098 0.949 . S
C1102 C1110 1.574 . S
C1102 C1118 1.368 . S
H1103 C1111 0.950 . S
H1104 C1109 0.950 . S
H1105 C1110 0.949 . S
H1106 C1112 0.950 . S
H1107 C1113 0.950 . S
H1108 C1114 0.949 . S
C1109 H1104 0.950 . S
C1109 C1111 1.327 . S
C1109 C1115 1.429 . S
C1110 C1102 1.574 . S
C1110 H1105 0.949 . S
C1110 C1116 1.368 . S
C1111 C1095 1.349 . S
C1111 H1103 0.950 . S
C1111 C1109 1.327 . S
C1112 C1100 1.349 . S
C1112 H1106 0.950 . S
C1112 C1113 1.327 . S
C1113 H1107 0.950 . S
C1113 C1112 1.327 . S
C1113 C1117 1.429 . S
C1114 C1097 1.574 . S
C1114 H1108 0.949 . S
C1114 C1118 1.368 . S
C1115 C1096 1.429 . S
C1115 C1109 1.429 . S
C1115 C1116 1.523 . S
C1116 C1097 1.368 . S
C1116 C1110 1.368 . S
C1116 C1115 1.523 . S
C1117 C1101 1.429 . S
C1117 C1113 1.429 . S
C1117 C1118 1.523 . S
C1118 C1102 1.368 . S
C1118 C1114 1.368 . S
C1118 C1117 1.523 . S
H1119 C1094 0.950 . S
H1120 C1096 0.950 . S
H1121 C1097 0.949 . S
H1122 C1099 0.950 . S
H1123 C1101 0.950 . S
C1124 C1125 1.349 . S
C1124 C1126 1.327 . S
C1124 H1149 0.950 . S
C1125 C1124 1.349 . S
C1125 C1141 1.349 . S
C1126 C1124 1.327 . S
C1126 C1145 1.429 . S
C1126 H1150 0.950 . S
C1127 C1144 1.574 . S
C1127 C1146 1.368 . S
C1127 H1151 0.949 . S
H1128 C1132 0.949 . S
C1129 C1130 1.349 . S
C1129 C1131 1.327 . S
C1129 H1152 0.950 . S
C1130 C1129 1.349 . S
C1130 C1142 1.349 . S
C1131 C1129 1.327 . S
C1131 C1147 1.429 . S
C1131 H1153 0.950 . S
C1132 H1128 0.949 . S
C1132 C1140 1.574 . S
C1132 C1148 1.368 . S
H1133 C1141 0.950 . S
H1134 C1139 0.950 . S
H1135 C1140 0.949 . S
H1136 C1142 0.950 . S
H1137 C1143 0.950 . S
H1138 C1144 0.949 . S
C1139 H1134 0.950 . S
C1139 C1141 1.327 . S
C1139 C1145 1.429 . S
C1140 C1132 1.574 . S
C1140 H1135 0.949 . S
C1140 C1146 1.368 . S
C1141 C1125 1.349 . S
C1141 H1133 0.950 . S
C1141 C1139 1.327 . S
C1142 C1130 1.349 . S
C1142 H1136 0.950 . S
C1142 C1143 1.327 . S
C1143 H1137 0.950 . S
C1143 C1142 1.327 . S
C1143 C1147 1.429 . S
C1144 C1127 1.574 . S
C1144 H1138 0.949 . S
C1144 C1148 1.368 . S
C1145 C1126 1.429 . S
C1145 C1139 1.429 . S
C1145 C1146 1.523 . S
C1146 C1127 1.368 . S
C1146 C1140 1.368 . S
C1146 C1145 1.523 . S
C1147 C1131 1.429 . S
C1147 C1143 1.429 . S
C1147 C1148 1.523 . S
C1148 C1132 1.368 . S
C1148 C1144 1.368 . S
C1148 C1147 1.523 . S
H1149 C1124 0.950 . S
H1150 C1126 0.950 . S
H1151 C1127 0.949 . S
H1152 C1129 0.950 . S
H1153 C1131 0.950 . S
C1154 C1155 1.349 . S
C1154 C1156 1.327 . S
C1154 H1179 0.950 . S
C1155 C1154 1.349 . S
C1155 C1171 1.349 . S
C1156 C1154 1.327 . S
C1156 C1175 1.429 . S
C1156 H1180 0.950 . S
C1157 C1174 1.574 . S
C1157 C1176 1.368 . S
C1157 H1181 0.949 . S
H1158 C1162 0.949 . S
C1159 C1160 1.349 . S
C1159 C1161 1.327 . S
C1159 H1182 0.950 . S
C1160 C1159 1.349 . S
C1160 C1172 1.349 . S
C1161 C1159 1.327 . S
C1161 C1177 1.429 . S
C1161 H1183 0.950 . S
C1162 H1158 0.949 . S
C1162 C1170 1.574 . S
C1162 C1178 1.368 . S
H1163 C1171 0.950 . S
H1164 C1169 0.950 . S
H1165 C1170 0.949 . S
H1166 C1172 0.950 . S
H1167 C1173 0.950 . S
H1168 C1174 0.949 . S
C1169 H1164 0.950 . S
C1169 C1171 1.327 . S
C1169 C1175 1.429 . S
C1170 C1162 1.574 . S
C1170 H1165 0.949 . S
C1170 C1176 1.368 . S
C1171 C1155 1.349 . S
C1171 H1163 0.950 . S
C1171 C1169 1.327 . S
C1172 C1160 1.349 . S
C1172 H1166 0.950 . S
C1172 C1173 1.327 . S
C1173 H1167 0.950 . S
C1173 C1172 1.327 . S
C1173 C1177 1.429 . S
C1174 C1157 1.574 . S
C1174 H1168 0.949 . S
C1174 C1178 1.368 . S
C1175 C1156 1.429 . S
C1175 C1169 1.429 . S
C1175 C1176 1.523 . S
C1176 C1157 1.368 . S
C1176 C1170 1.368 . S
C1176 C1175 1.523 . S
C1177 C1161 1.429 . S
C1177 C1173 1.429 . S
C1177 C1178 1.523 . S
C1178 C1162 1.368 . S
C1178 C1174 1.368 . S
C1178 C1177 1.523 . S
H1179 C1154 0.950 . S
H1180 C1156 0.950 . S
H1181 C1157 0.949 . S
H1182 C1159 0.950 . S
H1183 C1161 0.950 . S
C225 C5 1.312 . S
C230 C33 1.312 . S
C255 C47 1.312 . S
C260 C19 1.312 . S
C285 C61 1.312 . S
C290 C89 1.312 . S
C315 C103 1.312 . S
C320 C75 1.312 . S
C345 C117 1.312 . S
C350 C145 1.312 . S
C375 C159 1.312 . S
C380 C131 1.312 . S
C405 C173 1.312 . S
C410 C201 1.312 . S
C435 C215 1.312 . S
C440 C187 1.312 . S
C465 C56 1.174 . S
C470 C0 1.174 . S
C495 C14 1.174 . S
C500 C70 1.174 . S
C525 C28 1.174 . S
C530 C84 1.174 . S
C555 C98 1.174 . S
C560 C42 1.174 . S
C585 C112 1.174 . S
C590 C168 1.174 . S
C615 C126 1.174 . S
C620 C182 1.174 . S
C645 C140 1.174 . S
C650 C196 1.174 . S
C675 C154 1.174 . S
C680 C210 1.174 . S
C705 C149 1.090 . S
C710 C9 1.090 . S
C735 C163 1.090 . S
C740 C23 1.090 . S
C765 C37 1.090 . S
C770 C121 1.090 . S
C795 C51 1.090 . S
C800 C135 1.090 . S
C825 C65 1.090 . S
C830 C205 1.090 . S
C855 C79 1.090 . S
C860 C219 1.090 . S
C885 C93 1.090 . S
C890 C177 1.090 . S
C915 C191 1.090 . S
C920 C107 1.090 . S
C945 C11 1.328 . S
C950 C221 1.328 . S
C975 C179 1.328 . S
C980 C25 1.328 . S
C1005 C39 1.328 . S
C1010 C193 1.328 . S
C1035 C207 1.328 . S
C1040 C53 1.328 . S
C1065 C137 1.328 . S
C1070 C67 1.328 . S
C1095 C81 1.328 . S
C1100 C151 1.328 . S
C1125 C165 1.328 . S
C1130 C95 1.328 . S
C1155 C123 1.328 . S
C1160 C109 1.328 . S
