# Generated by pormake.
# Topology pem, (4)-cn, num edge types: 1
# Building blocks:
#     Node 0, Type 0, BuildingBlock: CEKHIL_clean_sbu_0, # of connection points: 4
#     Node 1, Type 0, BuildingBlock: CEKHIL_clean_sbu_0, # of connection points: 4
#     Node 2, Type 0, BuildingBlock: CEKHIL_clean_sbu_0, # of connection points: 4
#     Node 3, Type 0, BuildingBlock: CEKHIL_clean_sbu_0, # of connection points: 4
#     Node 4, Type 0, BuildingBlock: CEKHIL_clean_sbu_0, # of connection points: 4
#     Node 5, Type 0, BuildingBlock: CEKHIL_clean_sbu_0, # of connection points: 4
#     Node 6, Type 0, BuildingBlock: CEKHIL_clean_sbu_0, # of connection points: 4
#     Node 7, Type 0, BuildingBlock: CEKHIL_clean_sbu_0, # of connection points: 4
#     Node 8, Type 0, BuildingBlock: CEKHIL_clean_sbu_0, # of connection points: 4
#     Node 9, Type 0, BuildingBlock: CEKHIL_clean_sbu_0, # of connection points: 4
#     Node 10, Type 0, BuildingBlock: CEKHIL_clean_sbu_0, # of connection points: 4
#     Node 11, Type 0, BuildingBlock: CEKHIL_clean_sbu_0, # of connection points: 4
#     Node 12, Type 0, BuildingBlock: CEKHIL_clean_sbu_0, # of connection points: 4
#     Node 13, Type 0, BuildingBlock: CEKHIL_clean_sbu_0, # of connection points: 4
#     Node 14, Type 0, BuildingBlock: CEKHIL_clean_sbu_0, # of connection points: 4
#     Node 15, Type 0, BuildingBlock: CEKHIL_clean_sbu_0, # of connection points: 4
#     Node 16, Type 0, BuildingBlock: CEKHIL_clean_sbu_0, # of connection points: 4
#     Node 17, Type 0, BuildingBlock: CEKHIL_clean_sbu_0, # of connection points: 4
#     Node 18, Type 0, BuildingBlock: CEKHIL_clean_sbu_0, # of connection points: 4
#     Node 19, Type 0, BuildingBlock: CEKHIL_clean_sbu_0, # of connection points: 4
#     Node 20, Type 0, BuildingBlock: CEKHIL_clean_sbu_0, # of connection points: 4
#     Node 21, Type 0, BuildingBlock: CEKHIL_clean_sbu_0, # of connection points: 4
#     Node 22, Type 0, BuildingBlock: CEKHIL_clean_sbu_0, # of connection points: 4
#     Node 23, Type 0, BuildingBlock: CEKHIL_clean_sbu_0, # of connection points: 4
#     Node 24, Type 0, BuildingBlock: CEKHIL_clean_sbu_0, # of connection points: 4
#     Node 25, Type 0, BuildingBlock: CEKHIL_clean_sbu_0, # of connection points: 4
#     Node 26, Type 0, BuildingBlock: CEKHIL_clean_sbu_0, # of connection points: 4
#     Node 27, Type 0, BuildingBlock: CEKHIL_clean_sbu_0, # of connection points: 4
#     Node 28, Type 0, BuildingBlock: CEKHIL_clean_sbu_0, # of connection points: 4
#     Node 29, Type 0, BuildingBlock: CEKHIL_clean_sbu_0, # of connection points: 4
#     Node 30, Type 0, BuildingBlock: CEKHIL_clean_sbu_0, # of connection points: 4
#     Node 31, Type 0, BuildingBlock: CEKHIL_clean_sbu_0, # of connection points: 4
#     Edge 32, Type (0, 0), None
#     Edge 33, Type (0, 0), None
#     Edge 34, Type (0, 0), None
#     Edge 35, Type (0, 0), None
#     Edge 36, Type (0, 0), None
#     Edge 37, Type (0, 0), None
#     Edge 38, Type (0, 0), None
#     Edge 39, Type (0, 0), None
#     Edge 40, Type (0, 0), None
#     Edge 41, Type (0, 0), None
#     Edge 42, Type (0, 0), None
#     Edge 43, Type (0, 0), None
#     Edge 44, Type (0, 0), None
#     Edge 45, Type (0, 0), None
#     Edge 46, Type (0, 0), None
#     Edge 47, Type (0, 0), None
#     Edge 48, Type (0, 0), None
#     Edge 49, Type (0, 0), None
#     Edge 50, Type (0, 0), None
#     Edge 51, Type (0, 0), None
#     Edge 52, Type (0, 0), None
#     Edge 53, Type (0, 0), None
#     Edge 54, Type (0, 0), None
#     Edge 55, Type (0, 0), None
#     Edge 56, Type (0, 0), None
#     Edge 57, Type (0, 0), None
#     Edge 58, Type (0, 0), None
#     Edge 59, Type (0, 0), None
#     Edge 60, Type (0, 0), None
#     Edge 61, Type (0, 0), None
#     Edge 62, Type (0, 0), None
#     Edge 63, Type (0, 0), None
#     Edge 64, Type (0, 0), None
#     Edge 65, Type (0, 0), None
#     Edge 66, Type (0, 0), None
#     Edge 67, Type (0, 0), None
#     Edge 68, Type (0, 0), None
#     Edge 69, Type (0, 0), None
#     Edge 70, Type (0, 0), None
#     Edge 71, Type (0, 0), None
#     Edge 72, Type (0, 0), None
#     Edge 73, Type (0, 0), None
#     Edge 74, Type (0, 0), None
#     Edge 75, Type (0, 0), None
#     Edge 76, Type (0, 0), None
#     Edge 77, Type (0, 0), None
#     Edge 78, Type (0, 0), None
#     Edge 79, Type (0, 0), None
#     Edge 80, Type (0, 0), None
#     Edge 81, Type (0, 0), None
#     Edge 82, Type (0, 0), None
#     Edge 83, Type (0, 0), None
#     Edge 84, Type (0, 0), None
#     Edge 85, Type (0, 0), None
#     Edge 86, Type (0, 0), None
#     Edge 87, Type (0, 0), None
#     Edge 88, Type (0, 0), None
#     Edge 89, Type (0, 0), None
#     Edge 90, Type (0, 0), None
#     Edge 91, Type (0, 0), None
#     Edge 92, Type (0, 0), None
#     Edge 93, Type (0, 0), None
#     Edge 94, Type (0, 0), None
#     Edge 95, Type (0, 0), None
# Relax obj value: 0.195
# Max RMSD: 0.169
# Mean RMSD: 0.150
data_MOF--net-pem--node1-CEKHIL_clean_sbu_0--edge1-none
_symmetry_space_group_name_H-M    P1
_symmetry_Int_Tables_number       1
_symmetry_cell_setting            triclinic
loop_
_symmetry_equiv_pos_as_xyz
'x, y, z'
_cell_length_a     20.82769
_cell_length_b     17.628611
_cell_length_c     17.639649
_cell_angle_alpha  93.721676
_cell_angle_beta   89.775456
_cell_angle_gamma 89.577488
loop_
_atom_site_label
_atom_site_type_symbol
_atom_site_fract_x
_atom_site_fract_y
_atom_site_fract_z
_atom_type_partial_charge
Co0 Co 0.08159 0.07424 0.13409 0.0
O1 O 0.16394 0.02377 0.08332 0.0
O2 O 0.11928 0.1155 0.03343 0.0
C3 C 0.06187 0.95827 0.20324 0.0
O4 O 0.99226 0.13633 0.15858 0.0
Co5 Co 0.94831 0.97594 0.11962 0.0
O6 O 0.90252 0.076 0.11507 0.0
C7 C 0.01986 0.04982 0.02189 0.0
C8 C 0.16811 0.07005 0.02964 0.0
C9 C 0.93179 0.13732 0.13494 0.0
O10 O 0.05542 0.10547 0.03574 0.0
O11 O 0.02619 0.99248 0.06069 0.0
O12 O 0.08112 0.02103 0.23437 0.0
O13 O 0.0434 0.96787 0.13537 0.0
Co14 Co 0.18838 0.80422 0.34634 0.0
O15 O 0.26874 0.76006 0.40441 0.0
O16 O 0.24807 0.87526 0.41577 0.0
C17 C 0.12221 0.69518 0.3501 0.0
O18 O 0.11726 0.87008 0.28743 0.0
Co19 Co 0.11407 0.72951 0.19454 0.0
O20 O 0.07512 0.8269 0.17573 0.0
C21 C 0.24754 0.76605 0.23886 0.0
C22 C 0.29043 0.82462 0.43201 0.0
C23 C 0.08362 0.88045 0.22596 0.0
O24 O 0.23402 0.83283 0.26202 0.0
O25 O 0.20549 0.71555 0.22189 0.0
O26 O 0.12878 0.7422 0.40751 0.0
O27 O 0.1524 0.71324 0.29374 0.0
Co28 Co 0.43257 0.86026 0.61238 0.0
O29 O 0.36113 0.89931 0.52762 0.0
O30 O 0.39931 0.79821 0.50632 0.0
C31 C 0.40669 0.91233 0.77135 0.0
O32 O 0.51403 0.78768 0.63689 0.0
Co33 Co 0.54317 0.94425 0.71533 0.0
O34 O 0.58564 0.84178 0.71804 0.0
C35 C 0.51829 0.97782 0.5592 0.0
C36 C 0.35416 0.84119 0.48388 0.0
C37 C 0.56498 0.78358 0.6791 0.0
O38 O 0.4963 0.91084 0.54882 0.0
O39 O 0.53458 0.00696 0.62433 0.0
O40 O 0.37559 0.87202 0.72759 0.0
O41 O 0.45271 0.91894 0.72219 0.0
Co42 Co 0.34341 0.1303 0.8828 0.0
O43 O 0.41441 0.21528 0.84353 0.0
O44 O 0.37672 0.2367 0.94451 0.0
C45 C 0.36958 0.97124 0.83036 0.0
O46 O 0.26186 0.10605 0.95531 0.0
Co47 Co 0.23255 0.02736 0.79942 0.0
O48 O 0.19061 0.02409 0.90187 0.0
C49 C 0.25749 0.18353 0.76563 0.0
C50 C 0.4216 0.25925 0.90147 0.0
C51 C 0.21129 0.0634 0.95982 0.0
O52 O 0.27938 0.19387 0.83261 0.0
O53 O 0.24092 0.11842 0.73662 0.0
O54 O 0.40075 0.01481 0.87075 0.0
O55 O 0.32326 0.02035 0.8241 0.0
Co56 Co 0.08723 0.89631 0.43838 0.0
O57 O 1.00701 0.8386 0.4827 0.0
O58 O 0.02776 0.82634 0.36767 0.0
C59 C 0.15338 0.89297 0.54735 0.0
O60 O 0.15834 0.95528 0.37282 0.0
Co61 Co 0.16074 0.04856 0.51275 0.0
O62 O 0.19993 0.06731 0.41585 0.0
C63 C 0.02755 0.00329 0.47424 0.0
C64 C 0.98537 0.81059 0.41825 0.0
C65 C 0.1918 0.01684 0.36245 0.0
O66 O 0.04113 0.97969 0.40787 0.0
O67 O 0.06955 0.02043 0.52494 0.0
O68 O 0.14698 0.83533 0.50055 0.0
O69 O 0.12276 0.94937 0.52936 0.0
Co70 Co 0.34085 0.85419 0.62713 0.0
O71 O 0.41029 0.77023 0.66998 0.0
O72 O 0.34542 0.73201 0.59409 0.0
C73 C 0.36891 0.0144 0.66971 0.0
O74 O 0.25934 0.88432 0.57615 0.0
Co75 Co 0.25874 0.93421 0.75157 0.0
O76 O 0.19186 0.92593 0.66933 0.0
C77 C 0.27809 0.77872 0.73136 0.0
C78 C 0.39404 0.71269 0.63289 0.0
C79 C 0.20396 0.90244 0.60074 0.0
O80 O 0.27183 0.79761 0.66568 0.0
O81 O 0.27239 0.82891 0.78662 0.0
O82 O 0.39705 0.96745 0.62627 0.0
O83 O 0.32137 0.96926 0.67715 0.0
Co84 Co 0.43448 0.11551 0.88853 0.0
O85 O 0.36538 0.07191 0.97235 0.0
O86 O 0.42971 0.14822 0.01072 0.0
C87 C 0.40616 0.07324 0.72872 0.0
O88 O 0.51599 0.16638 0.85873 0.0
Co89 Co 0.5166 0.99116 0.80903 0.0
O90 O 0.58357 0.07306 0.8175 0.0
C91 C 0.4984 0.01288 0.96505 0.0
C92 C 0.38135 0.10921 0.02991 0.0
C93 C 0.57142 0.14169 0.84101 0.0
O94 O 0.50361 0.07872 0.94626 0.0
O95 O 0.50398 0.95751 0.91491 0.0
O96 O 0.37793 0.11676 0.77552 0.0
O97 O 0.45409 0.06581 0.77349 0.0
Co98 Co 0.19455 0.10874 0.16916 0.0
O99 O 0.11224 0.15968 0.21949 0.0
O100 O 0.15729 0.20991 0.1285 0.0
C101 C 0.2139 0.03936 0.28479 0.0
O102 O 0.28352 0.08376 0.10656 0.0
Co103 Co 0.32785 0.12144 0.26593 0.0
O104 O 0.37359 0.12662 0.16627 0.0
C105 C 0.25684 0.2216 0.19442 0.0
C106 C 0.10832 0.21365 0.1735 0.0
C107 C 0.34394 0.10725 0.10509 0.0
O108 O 0.2212 0.20713 0.13888 0.0
O109 O 0.25088 0.18332 0.25212 0.0
O110 O 0.19477 0.00821 0.22195 0.0
O111 O 0.23279 0.10706 0.27533 0.0
Co112 Co 0.58766 0.39677 0.93816 0.0
O113 O 0.5075 0.33859 0.98239 0.0
O114 O 0.52755 0.32741 0.8673 0.0
C115 C 0.65401 0.3927 0.04719 0.0
O116 O 0.65853 0.45598 0.87218 0.0
Co117 Co 0.66224 0.54843 0.0128 0.0
O118 O 0.70103 0.56739 0.91562 0.0
C119 C 0.52859 0.50428 0.97749 0.0
C120 C 0.48547 0.31102 0.91796 0.0
C121 C 0.69233 0.51736 0.86195 0.0
O122 O 0.54169 0.48139 0.91049 0.0
O123 O 0.57099 0.52132 0.02762 0.0
O124 O 0.64751 0.33538 0.00011 0.0
O125 O 0.62401 0.44923 0.02902 0.0
Co126 Co 0.84088 0.35376 0.12738 0.0
O127 O 0.91023 0.26988 0.17031 0.0
O128 O 0.84537 0.23163 0.09437 0.0
C129 C 0.86902 0.51413 0.16984 0.0
O130 O 0.75959 0.3838 0.07633 0.0
Co131 Co 0.75868 0.4342 0.25171 0.0
O132 O 0.69202 0.42577 0.16924 0.0
C133 C 0.77805 0.27876 0.2322 0.0
C134 C 0.89402 0.21237 0.13316 0.0
C135 C 0.70424 0.40192 0.10079 0.0
O136 O 0.77177 0.29749 0.16645 0.0
O137 O 0.77229 0.3291 0.2873 0.0
O138 O 0.89707 0.46702 0.12649 0.0
O139 O 0.82147 0.46898 0.17729 0.0
Co140 Co 0.935 0.61535 0.38863 0.0
O141 O 0.86591 0.5723 0.47262 0.0
O142 O 0.93037 0.64862 0.51067 0.0
C143 C 0.90643 0.57285 0.22886 0.0
O144 O 0.01632 0.66636 0.3585 0.0
Co145 Co 0.01714 0.49078 0.30883 0.0
O146 O 0.08392 0.57303 0.31721 0.0
C147 C 0.99821 0.51155 0.4642 0.0
C148 C 0.88193 0.60981 0.53002 0.0
C149 C 0.07175 0.64171 0.34065 0.0
O150 O 1.00429 0.57719 0.44522 0.0
O151 O 1.0038 0.45612 0.41417 0.0
O152 O 0.87834 0.61648 0.27567 0.0
O153 O 0.95432 0.56532 0.27367 0.0
Co154 Co 0.84337 0.63027 0.38294 0.0
O155 O 0.91449 0.71501 0.34377 0.0
O156 O 0.87648 0.73666 0.44468 0.0
C157 C 0.86939 0.47099 0.33058 0.0
O158 O 0.76203 0.60566 0.45544 0.0
Co159 Co 0.73267 0.52755 0.29917 0.0
O160 O 0.69036 0.5246 0.40142 0.0
C161 C 0.75771 0.68352 0.26541 0.0
C162 C 0.92157 0.75888 0.40175 0.0
C163 C 0.71117 0.56344 0.4596 0.0
O164 O 0.77936 0.69381 0.33253 0.0
O165 O 0.74145 0.61839 0.23623 0.0
O166 O 0.90046 0.51483 0.3708 0.0
O167 O 0.82328 0.52035 0.32421 0.0
Co168 Co 0.68792 0.30428 0.84652 0.0
O169 O 0.76856 0.25997 0.90418 0.0
O170 O 0.74801 0.37515 0.91577 0.0
C171 C 0.62185 0.19513 0.85043 0.0
O172 O 0.61697 0.37029 0.78748 0.0
Co173 Co 0.61325 0.22924 0.69511 0.0
O174 O 0.57465 0.32678 0.67594 0.0
C175 C 0.74647 0.2672 0.73853 0.0
C176 C 0.79035 0.32444 0.93194 0.0
C177 C 0.58345 0.38056 0.72585 0.0
O178 O 0.73266 0.33364 0.76202 0.0
O179 O 0.70472 0.21589 0.72295 0.0
O180 O 0.62843 0.24211 0.90781 0.0
O181 O 0.65197 0.21319 0.79404 0.0
Co182 Co 0.96494 0.90894 0.86241 0.0
O183 O 0.0424 0.88154 0.78798 0.0
O184 O 0.03179 0.83111 0.88995 0.0
C185 C 0.96171 0.02462 0.78881 0.0
O186 O 0.90123 0.89204 0.95725 0.0
Co187 Co 0.86085 0.04985 0.89887 0.0
O188 O 0.83451 0.99257 0.98622 0.0
C189 C 0.99422 0.04034 0.95409 0.0
C190 C 0.066 0.83044 0.83015 0.0
C191 C 0.85742 0.92805 0.00098 0.0
O192 O 1.01003 0.97591 0.92486 0.0
O193 O 0.94313 0.07874 0.946 0.0
O194 O 1.00554 0.97252 0.77701 0.0
O195 O 0.92054 -0.00226 0.83099 0.0
Co196 Co 0.86151 0.16745 0.67632 0.0
O197 O 0.94038 0.15843 0.74906 0.0
O198 O 0.89248 0.06741 0.69808 0.0
C199 C 0.9129 0.26856 0.60782 0.0
O200 O 0.76465 0.14452 0.6048 0.0
Co201 Co 0.78292 0.30691 0.62643 0.0
O202 O 0.7132 0.24834 0.56748 0.0
C203 C 0.80389 0.24383 0.76364 0.0
C204 C 0.9394 0.08521 0.73828 0.0
C205 C 0.71593 0.1755 0.56533 0.0
O206 O 0.81104 0.17319 0.76512 0.0
O207 O 0.83897 0.28071 0.72133 0.0
O208 O 0.92916 0.20232 0.60986 0.0
O209 O 0.86852 0.28045 0.65562 0.0
Co210 Co 0.55364 0.10317 0.37957 0.0
O211 O 0.46414 0.11303 0.32896 0.0
O212 O 0.50759 0.2017 0.38743 0.0
C213 C 0.60231 0.0779 0.20665 0.0
O214 O 0.62118 0.16257 0.46558 0.0
Co215 Co 0.60572 0.07062 0.38187 0.0
O216 O 0.67457 0.06542 0.47295 0.0
C217 C 0.53607 0.01575 0.4928 0.0
C218 C 0.45769 0.18289 0.35225 0.0
C219 C 0.66707 0.13131 0.50341 0.0
O220 O 0.51244 0.07877 0.47667 0.0
O221 O 0.57973 0.98868 0.44973 0.0
O222 O 0.59395 0.12074 0.27049 0.0
O223 O 0.5932 0.11932 0.27263 0.0
Co224 Co 0.72282 0.86389 0.14053 0.0
O225 O 0.81255 0.9133 0.13066 0.0
O226 O 0.76844 0.85568 0.0419 0.0
C227 C 0.67489 0.03746 0.16608 0.0
O228 O 0.6555 0.77895 0.08047 0.0
Co229 Co 0.67113 0.86185 0.17302 0.0
O230 O 0.60203 0.77091 0.1772 0.0
C231 C 0.7401 0.7501 0.22754 0.0
C232 C 0.81862 0.89018 0.06081 0.0
C233 C 0.60958 0.7413 0.11087 0.0
O234 O 0.76338 0.76595 0.16443 0.0
O235 O 0.6972 0.79403 0.25509 0.0
O236 O 0.68317 0.97362 0.1231 0.0
O237 O 0.6839 0.9714 0.12458 0.0
Co238 Co 0.92018 0.07307 0.58651 0.0
O239 O 0.83924 0.00651 0.58696 0.0
O240 O 0.83932 0.00656 0.58709 0.0
C241 C 0.86623 0.14092 0.4761 0.0
O242 O 0.01882 0.13953 0.59858 0.0
Co243 Co 0.99226 0.11744 0.43987 0.0
O244 O 0.06373 0.17927 0.49347 0.0
C245 C 0.97032 0.97877 0.49941 0.0
C246 C 0.8044 0.97446 0.63705 0.0
C247 C 0.0646 0.18013 0.56616 0.0
O248 O 0.96562 0.97999 0.57053 0.0
O249 O 0.93548 0.02276 0.46392 0.0
O250 O 0.85628 0.14906 0.54284 0.0
O251 O 0.90707 0.0898 0.47086 0.0
Co252 Co 0.72031 0.1349 0.37664 0.0
O253 O 0.79453 0.07894 0.394 0.0
O254 O 0.77108 0.19947 0.43878 0.0
C255 C 0.66223 0.98411 0.31447 0.0
O256 O 0.64473 0.22465 0.36065 0.0
Co257 Co 0.68658 0.14722 0.23542 0.0
O258 O 0.63688 0.25094 0.24214 0.0
C259 C 0.78509 0.19973 0.24171 0.0
C260 C 0.81095 0.14139 0.43141 0.0
C261 C 0.62064 0.26924 0.31036 0.0
O262 O 0.76628 0.19022 0.30628 0.0
O263 O 0.76927 0.15389 0.18765 0.0
O264 O 0.68809 0.0489 0.30431 0.0
O265 O 0.68919 0.05142 0.30476 0.0
Co266 Co 0.55709 0.86832 0.10865 0.0
O267 O 0.4843 0.85342 0.16531 0.0
O268 O 0.50536 0.80705 0.04442 0.0
C269 C 0.61498 0.92956 0.25971 0.0
O270 O 0.63215 0.88376 0.01873 0.0
Co271 Co 0.59045 0.0092 0.09678 0.0
O272 O 0.6399 0.00241 0.9931 0.0
C273 C 0.49236 0.00365 0.04398 0.0
C274 C 0.46679 0.81624 0.10359 0.0
C275 C 0.65612 0.93415 0.97449 0.0
O276 O 0.51172 0.9393 0.05349 0.0
O277 O 0.50799 0.05798 0.08962 0.0
O278 O 0.58953 0.93987 0.1947 0.0
O279 O 0.58844 0.93941 0.19216 0.0
Co280 Co 0.81429 0.88546 0.83458 0.0
O281 O 0.73617 0.95917 0.86402 0.0
O282 O 0.74646 0.85568 0.91111 0.0
C283 C 0.81639 0.96411 0.72211 0.0
O284 O 0.87714 0.78954 0.85075 0.0
Co285 Co 0.91449 0.84732 0.69247 0.0
O286 O 0.94105 0.75834 0.74882 0.0
C287 C 0.78256 0.79312 0.70248 0.0
C288 C 0.71194 0.91559 0.91329 0.0
C289 C 0.91919 0.74414 0.81391 0.0
O290 O 0.76846 0.82384 0.76658 0.0
O291 O 0.83301 0.79984 0.66308 0.0
O292 O 0.77124 0.9674 0.77289 0.0
O293 O 0.86047 0.92232 0.7459 0.0
Co294 Co 0.41613 0.56812 0.07645 0.0
O295 O 0.34643 0.47893 0.08144 0.0
O296 O 0.34558 0.55639 0.16154 0.0
C297 C 0.36408 0.63524 0.97099 0.0
O298 O 0.51251 0.64211 0.09467 0.0
Co299 Co 0.49121 0.61512 0.93918 0.0
O300 O 0.56323 0.67701 0.99252 0.0
C301 C 0.47197 0.47838 0.00315 0.0
C302 C 0.32082 0.49699 0.14581 0.0
C303 C 0.56121 0.68029 0.06511 0.0
O304 O 0.46591 0.47827 0.07457 0.0
O305 O 0.43611 0.51964 0.96567 0.0
O306 O 0.35259 0.64022 0.03772 0.0
O307 O 0.40449 0.58333 0.9614 0.0
Co308 Co 0.21973 0.63435 0.87547 0.0
O309 O 0.29266 0.57769 0.89007 0.0
O310 O 0.27107 0.69855 0.93683 0.0
C311 C 0.16158 0.48356 0.81389 0.0
O312 O 0.14491 0.72423 0.86051 0.0
Co313 Co 0.18604 0.64684 0.73486 0.0
O314 O 0.1369 0.75088 0.74221 0.0
C315 C 0.28427 0.69963 0.7406 0.0
C316 C 0.30998 0.6396 0.9272 0.0
C317 C 0.12113 0.76905 0.81057 0.0
O318 O 0.26483 0.69007 0.80479 0.0
O319 O 0.2686 0.65396 0.68634 0.0
O320 O 0.18697 0.54856 0.80377 0.0
O321 O 0.18807 0.55109 0.80422 0.0
Co322 Co 0.05603 0.36746 0.60851 0.0
O323 O 0.9823 0.35294 0.66445 0.0
O324 O 1.00456 0.30566 0.54445 0.0
C325 C 0.11412 0.42917 0.75931 0.0
O326 O 0.13111 0.38276 0.5188 0.0
Co327 Co 0.08994 0.50866 0.5964 0.0
O328 O 0.13942 0.50133 0.49286 0.0
C329 C 0.99178 0.50257 0.54315 0.0
C330 C 0.965 0.31566 0.60253 0.0
C331 C 0.15533 0.43294 0.47449 0.0
O332 O 1.01119 0.43831 0.55287 0.0
O333 O 1.00733 0.55696 0.58876 0.0
O334 O 0.08889 0.43937 0.69415 0.0
O335 O 0.08781 0.43891 0.69163 0.0
Co336 Co 0.22362 0.36483 0.64127 0.0
O337 O 0.31311 0.41459 0.62968 0.0
O338 O 0.2687 0.35626 0.54212 0.0
C339 C 0.17413 0.53761 0.66575 0.0
O340 O 0.15817 0.27911 0.58039 0.0
Co341 Co 0.17187 0.36258 0.67325 0.0
O342 O 0.10384 0.27126 0.67682 0.0
C343 C 0.24004 0.25021 0.72784 0.0
C344 C 0.31888 0.39109 0.55997 0.0
C345 C 0.11236 0.24146 0.61083 0.0
O346 O 0.2647 0.26729 0.66581 0.0
O347 O 0.19637 0.29341 0.75473 0.0
O348 O 0.18292 0.47374 0.62302 0.0
O349 O 0.18367 0.47163 0.62445 0.0
Co350 Co 0.35827 0.66608 0.17309 0.0
O351 O 0.42175 0.6596 0.26844 0.0
O352 O 0.44331 0.59776 0.18433 0.0
C353 C 0.41225 0.77312 0.10787 0.0
O354 O 0.26266 0.64617 0.10195 0.0
Co355 Co 0.28561 0.80318 0.12805 0.0
O356 O 0.21353 0.74964 0.06604 0.0
C357 C 0.30445 0.74089 0.2648 0.0
C358 C 0.45685 0.60283 0.25011 0.0
C359 C 0.2147 0.67689 0.06313 0.0
O360 O 0.31078 0.66956 0.26494 0.0
O361 O 0.34046 0.77797 0.22375 0.0
O362 O 0.4218 0.7063 0.10015 0.0
O363 O 0.37294 0.78169 0.16047 0.0
Co364 Co 0.58143 0.57416 0.63357 0.0
O365 O 0.66394 0.52394 0.58315 0.0
O366 O 0.61883 0.61519 0.5329 0.0
C367 C 0.56213 0.45843 0.70263 0.0
O368 O 0.49226 0.63643 0.65811 0.0
Co369 Co 0.44849 0.47647 0.61942 0.0
O370 O 0.40245 0.57629 0.61488 0.0
C371 C 0.51945 0.54922 0.52007 0.0
C372 C 0.66786 0.57003 0.52931 0.0
C373 C 0.43178 0.63758 0.63459 0.0
O374 O 0.55488 0.60477 0.53512 0.0
O375 O 0.52547 0.49129 0.55814 0.0
O376 O 0.58124 0.52121 0.7339 0.0
O377 O 0.5435 0.46789 0.63478 0.0
Co378 Co 0.93257 0.35988 0.11267 0.0
O379 O 0.86122 0.39894 0.02776 0.0
O380 O 0.89922 0.29781 0.00655 0.0
C381 C 0.90657 0.41222 0.27144 0.0
O382 O 0.01398 0.28735 0.13748 0.0
Co383 Co 0.04314 0.44436 0.21504 0.0
O384 O 0.08567 0.34191 0.21823 0.0
C385 C 0.01785 0.47752 0.05904 0.0
C386 C 0.85414 0.34085 0.98397 0.0
C387 C 0.0649 0.28346 0.17977 0.0
O388 O 0.99638 0.41027 0.04902 0.0
O389 O 0.0341 0.507 0.12404 0.0
O390 O 0.87553 0.37169 0.22785 0.0
O391 O 0.95278 0.41861 0.22246 0.0
Co392 Co 0.69494 0.60963 0.66867 0.0
O393 O 0.61244 0.65999 0.71869 0.0
O394 O 0.65742 0.7102 0.62754 0.0
C395 C 0.7141 0.54037 0.78426 0.0
O396 O 0.7839 0.58493 0.60639 0.0
Co397 Co 0.82743 0.62378 0.76556 0.0
O398 O 0.87366 0.62839 0.66625 0.0
C399 C 0.75611 0.72496 0.69527 0.0
C400 C 0.60843 0.71383 0.67256 0.0
C401 C 0.84427 0.60849 0.60506 0.0
O402 O 0.72173 0.70834 0.63903 0.0
O403 O 0.75075 0.68697 0.75329 0.0
O404 O 0.69518 0.50908 0.7214 0.0
O405 O 0.73268 0.60823 0.77488 0.0
Co406 Co 0.46268 0.41038 0.35912 0.0
O407 O 0.54096 0.38075 0.28584 0.0
O408 O 0.52993 0.33238 0.3882 0.0
C409 C 0.46111 0.52653 0.28685 0.0
O410 O 0.39955 0.39292 0.45433 0.0
Co411 Co 0.36029 0.55175 0.39791 0.0
O412 O 0.33429 0.49406 0.48552 0.0
C413 C 0.4933 0.54123 0.45211 0.0
C414 C 0.56475 0.33059 0.32884 0.0
C415 C 0.35683 0.42909 0.49938 0.0
O416 O 0.50806 0.47689 0.42211 0.0
O417 O 0.44257 0.58042 0.44482 0.0
O418 O 0.50545 0.47476 0.27764 0.0
O419 O 0.41658 0.5 0.32522 0.0
Co420 Co 0.05295 0.60273 0.879 0.0
O421 O 0.96346 0.61344 0.82846 0.0
O422 O 1.00732 0.70147 0.88727 0.0
C423 C 0.10145 0.57775 0.70615 0.0
O424 O 0.12006 0.6623 0.96453 0.0
Co425 Co 0.1048 0.5699 0.88129 0.0
O426 O 0.17394 0.56542 0.97216 0.0
C427 C 0.03539 0.51526 0.99239 0.0
C428 C 0.95754 0.68336 0.85167 0.0
C429 C 0.16624 0.63169 0.00194 0.0
O430 O 1.01195 0.57841 0.97635 0.0
O431 O 0.07867 0.48785 0.94899 0.0
O432 O 0.0932 0.62063 0.77 0.0
O433 O 0.09246 0.61914 0.77219 0.0
Co434 Co 0.31248 0.3829 0.3333 0.0
O435 O 0.23436 0.45665 0.36267 0.0
O436 O 0.2457 0.35433 0.4115 0.0
C437 C 0.31219 0.45275 0.21591 0.0
O438 O 0.37629 0.28801 0.35044 0.0
Co439 Co 0.41542 0.34515 0.19222 0.0
O440 O 0.4415 0.25714 0.24937 0.0
C441 C 0.2826 0.28948 0.20301 0.0
C442 C 0.21089 0.41392 0.4131 0.0
C443 C 0.41906 0.24304 0.31417 0.0
O444 O 0.26728 0.31945 0.26717 0.0
O445 O 0.33341 0.29705 0.16424 0.0
O446 O 0.26888 0.46362 0.26847 0.0
O447 O 0.35761 0.41636 0.24349 0.0
loop_
_geom_bond_atom_site_label_1
_geom_bond_atom_site_label_2
_geom_bond_distance
_geom_bond_site_symmetry_2
_ccdc_geom_bond_type
Co0 O1 2.216 . S
Co0 O2 2.091 . S
Co0 O4 2.004 . S
Co0 O10 2.021 . S
Co0 O12 2.137 . S
Co0 O13 2.245 . S
O1 Co0 2.216 . S
O1 C8 1.247 . S
O2 Co0 2.091 . S
O2 C8 1.261 . S
C3 O12 1.247 . S
C3 O13 1.272 . S
O4 Co0 2.004 . S
O4 C9 1.259 1_455 S
Co5 O6 2.061 1_565 S
Co5 O11 2.052 . S
Co5 O13 2.135 1_665 S
O6 Co5 2.061 1_545 S
O6 C9 1.235 . S
C7 O10 1.238 . S
C7 O11 1.241 1_445 S
C8 O1 1.247 . S
C8 O2 1.261 . S
C9 O4 1.259 1_655 S
C9 O6 1.235 . S
O10 Co0 2.021 . S
O10 C7 1.238 . S
O11 Co5 2.052 . S
O11 C7 1.241 1_665 S
O12 Co0 2.137 . S
O12 C3 1.247 . S
O13 Co0 2.245 . S
O13 C3 1.272 . S
O13 Co5 2.135 1_445 S
Co14 O15 2.216 . S
Co14 O16 2.091 . S
Co14 O18 2.004 . S
Co14 O24 2.021 . S
Co14 O26 2.137 . S
Co14 O27 2.244 . S
O15 Co14 2.216 . S
O15 C22 1.247 . S
O16 Co14 2.091 . S
O16 C22 1.261 . S
C17 O26 1.247 . S
C17 O27 1.272 . S
O18 Co14 2.004 . S
O18 C23 1.259 . S
Co19 O20 2.061 . S
Co19 O25 2.052 . S
Co19 O27 2.135 . S
O20 Co19 2.061 . S
O20 C23 1.235 . S
C21 O24 1.238 . S
C21 O25 1.241 . S
C22 O15 1.247 . S
C22 O16 1.261 . S
C23 O18 1.259 . S
C23 O20 1.235 . S
O24 Co14 2.021 . S
O24 C21 1.238 . S
O25 Co19 2.052 . S
O25 C21 1.241 . S
O26 Co14 2.137 . S
O26 C17 1.247 . S
O27 Co14 2.244 . S
O27 C17 1.272 . S
O27 Co19 2.135 . S
Co28 O29 2.216 . S
Co28 O30 2.091 . S
Co28 O32 2.004 . S
Co28 O38 2.021 . S
Co28 O40 2.137 . S
Co28 O41 2.244 . S
O29 Co28 2.216 . S
O29 C36 1.247 . S
O30 Co28 2.091 . S
O30 C36 1.261 . S
C31 O40 1.247 . S
C31 O41 1.272 . S
O32 Co28 2.004 . S
O32 C37 1.259 . S
Co33 O34 2.061 . S
Co33 O39 2.052 1_565 S
Co33 O41 2.135 . S
O34 Co33 2.061 . S
O34 C37 1.235 . S
C35 O38 1.238 . S
C35 O39 1.241 1_565 S
C36 O29 1.247 . S
C36 O30 1.261 . S
C37 O32 1.259 . S
C37 O34 1.235 . S
O38 Co28 2.021 . S
O38 C35 1.238 . S
O39 Co33 2.052 1_545 S
O39 C35 1.241 1_545 S
O40 Co28 2.137 . S
O40 C31 1.247 . S
O41 Co28 2.244 . S
O41 C31 1.272 . S
O41 Co33 2.135 . S
Co42 O43 2.216 . S
Co42 O44 2.091 . S
Co42 O46 2.004 . S
Co42 O52 2.021 . S
Co42 O54 2.137 . S
Co42 O55 2.244 . S
O43 Co42 2.216 . S
O43 C50 1.247 . S
O44 Co42 2.091 . S
O44 C50 1.261 . S
C45 O54 1.247 . S
C45 O55 1.272 . S
O46 Co42 2.004 . S
O46 C51 1.259 . S
Co47 O48 2.061 . S
Co47 O53 2.052 . S
Co47 O55 2.135 . S
O48 Co47 2.061 . S
O48 C51 1.235 . S
C49 O52 1.238 . S
C49 O53 1.241 . S
C50 O43 1.247 . S
C50 O44 1.261 . S
C51 O46 1.259 . S
C51 O48 1.235 . S
O52 Co42 2.021 . S
O52 C49 1.238 . S
O53 Co47 2.052 . S
O53 C49 1.241 . S
O54 Co42 2.137 . S
O54 C45 1.247 . S
O55 Co42 2.244 . S
O55 C45 1.272 . S
O55 Co47 2.135 . S
Co56 O57 2.216 . S
Co56 O58 2.091 . S
Co56 O60 2.004 . S
Co56 O66 2.021 . S
Co56 O68 2.137 . S
Co56 O69 2.244 . S
O57 Co56 2.216 . S
O57 C64 1.247 . S
O58 Co56 2.091 . S
O58 C64 1.261 . S
C59 O68 1.247 . S
C59 O69 1.272 . S
O60 Co56 2.004 . S
O60 C65 1.259 . S
Co61 O62 2.061 . S
Co61 O67 2.052 . S
Co61 O69 2.135 1_545 S
O62 Co61 2.061 . S
O62 C65 1.235 1_545 S
C63 O66 1.238 . S
C63 O67 1.241 1_565 S
C64 O57 1.247 . S
C64 O58 1.261 . S
C65 O60 1.259 . S
C65 O62 1.235 1_565 S
O66 Co56 2.021 . S
O66 C63 1.238 . S
O67 Co61 2.052 . S
O67 C63 1.241 1_545 S
O68 Co56 2.137 . S
O68 C59 1.247 . S
O69 Co56 2.244 . S
O69 C59 1.272 . S
O69 Co61 2.135 1_565 S
Co70 O71 2.216 . S
Co70 O72 2.091 . S
Co70 O74 2.004 . S
Co70 O80 2.021 . S
Co70 O82 2.137 . S
Co70 O83 2.244 . S
O71 Co70 2.216 . S
O71 C78 1.247 . S
O72 Co70 2.091 . S
O72 C78 1.261 . S
C73 O82 1.247 . S
C73 O83 1.272 . S
O74 Co70 2.004 . S
O74 C79 1.259 . S
Co75 O76 2.061 . S
Co75 O81 2.052 . S
Co75 O83 2.135 . S
O76 Co75 2.061 . S
O76 C79 1.235 . S
C77 O80 1.238 . S
C77 O81 1.241 . S
C78 O71 1.247 . S
C78 O72 1.261 . S
C79 O74 1.259 . S
C79 O76 1.235 . S
O80 Co70 2.021 . S
O80 C77 1.238 . S
O81 Co75 2.052 . S
O81 C77 1.241 . S
O82 Co70 2.137 . S
O82 C73 1.247 . S
O83 Co70 2.244 . S
O83 C73 1.272 . S
O83 Co75 2.135 . S
Co84 O85 2.216 . S
Co84 O86 2.091 . S
Co84 O88 2.004 . S
Co84 O94 2.021 . S
Co84 O96 2.137 . S
Co84 O97 2.244 . S
O85 Co84 2.216 . S
O85 C92 1.247 . S
O86 Co84 2.091 . S
O86 C92 1.261 . S
C87 O96 1.247 . S
C87 O97 1.272 . S
O88 Co84 2.004 . S
O88 C93 1.259 . S
Co89 O90 2.061 . S
Co89 O95 2.052 1_545 S
Co89 O97 2.135 . S
O90 Co89 2.061 . S
O90 C93 1.235 . S
C91 O94 1.238 . S
C91 O95 1.241 1_545 S
C92 O85 1.247 . S
C92 O86 1.261 . S
C93 O88 1.259 . S
C93 O90 1.235 . S
O94 Co84 2.021 . S
O94 C91 1.238 . S
O95 Co89 2.052 1_565 S
O95 C91 1.241 1_565 S
O96 Co84 2.137 . S
O96 C87 1.247 . S
O97 Co84 2.244 . S
O97 C87 1.272 . S
O97 Co89 2.135 . S
Co98 O99 2.216 . S
Co98 O100 2.091 . S
Co98 O102 2.004 . S
Co98 O108 2.021 . S
Co98 O110 2.137 . S
Co98 O111 2.244 . S
O99 Co98 2.216 . S
O99 C106 1.247 . S
O100 Co98 2.091 . S
O100 C106 1.261 . S
C101 O110 1.247 . S
C101 O111 1.272 . S
O102 Co98 2.004 . S
O102 C107 1.259 . S
Co103 O104 2.061 . S
Co103 O109 2.052 . S
Co103 O111 2.135 . S
O104 Co103 2.061 . S
O104 C107 1.235 . S
C105 O108 1.238 . S
C105 O109 1.241 . S
C106 O99 1.247 . S
C106 O100 1.261 . S
C107 O102 1.259 . S
C107 O104 1.235 . S
O108 Co98 2.021 . S
O108 C105 1.238 . S
O109 Co103 2.052 . S
O109 C105 1.241 . S
O110 Co98 2.137 . S
O110 C101 1.247 . S
O111 Co98 2.244 . S
O111 C101 1.272 . S
O111 Co103 2.135 . S
Co112 O113 2.216 . S
Co112 O114 2.091 . S
Co112 O116 2.004 . S
Co112 O122 2.021 . S
Co112 O124 2.137 . S
Co112 O125 2.244 . S
O113 Co112 2.216 . S
O113 C120 1.247 . S
O114 Co112 2.091 . S
O114 C120 1.261 . S
C115 O124 1.247 . S
C115 O125 1.272 . S
O116 Co112 2.004 . S
O116 C121 1.259 . S
Co117 O118 2.061 1_554 S
Co117 O123 2.052 . S
Co117 O125 2.135 1_554 S
O118 Co117 2.061 1_556 S
O118 C121 1.235 . S
C119 O122 1.238 . S
C119 O123 1.241 1_556 S
C120 O113 1.247 . S
C120 O114 1.261 . S
C121 O116 1.259 . S
C121 O118 1.235 . S
O122 Co112 2.021 . S
O122 C119 1.238 . S
O123 Co117 2.052 . S
O123 C119 1.241 1_554 S
O124 Co112 2.137 . S
O124 C115 1.247 . S
O125 Co112 2.244 . S
O125 C115 1.272 . S
O125 Co117 2.135 1_556 S
Co126 O127 2.216 . S
Co126 O128 2.091 . S
Co126 O130 2.004 . S
Co126 O136 2.021 . S
Co126 O138 2.137 . S
Co126 O139 2.244 . S
O127 Co126 2.216 . S
O127 C134 1.247 . S
O128 Co126 2.091 . S
O128 C134 1.261 . S
C129 O138 1.247 . S
C129 O139 1.272 . S
O130 Co126 2.004 . S
O130 C135 1.259 . S
Co131 O132 2.061 . S
Co131 O137 2.052 . S
Co131 O139 2.135 . S
O132 Co131 2.061 . S
O132 C135 1.235 . S
C133 O136 1.238 . S
C133 O137 1.241 . S
C134 O127 1.247 . S
C134 O128 1.261 . S
C135 O130 1.259 . S
C135 O132 1.235 . S
O136 Co126 2.021 . S
O136 C133 1.238 . S
O137 Co131 2.052 . S
O137 C133 1.241 . S
O138 Co126 2.137 . S
O138 C129 1.247 . S
O139 Co126 2.244 . S
O139 C129 1.272 . S
O139 Co131 2.135 . S
Co140 O141 2.216 . S
Co140 O142 2.091 . S
Co140 O144 2.004 . S
Co140 O150 2.021 . S
Co140 O152 2.137 . S
Co140 O153 2.244 . S
O141 Co140 2.216 . S
O141 C148 1.247 . S
O142 Co140 2.091 . S
O142 C148 1.261 . S
C143 O152 1.247 . S
C143 O153 1.272 . S
O144 Co140 2.004 . S
O144 C149 1.259 1_655 S
Co145 O146 2.061 . S
Co145 O151 2.052 . S
Co145 O153 2.135 1_455 S
O146 Co145 2.061 . S
O146 C149 1.235 . S
C147 O150 1.238 . S
C147 O151 1.241 1_655 S
C148 O141 1.247 . S
C148 O142 1.261 . S
C149 O144 1.259 1_455 S
C149 O146 1.235 . S
O150 Co140 2.021 . S
O150 C147 1.238 . S
O151 Co145 2.052 . S
O151 C147 1.241 1_455 S
O152 Co140 2.137 . S
O152 C143 1.247 . S
O153 Co140 2.244 . S
O153 C143 1.272 . S
O153 Co145 2.135 1_655 S
Co154 O155 2.216 . S
Co154 O156 2.091 . S
Co154 O158 2.004 . S
Co154 O164 2.021 . S
Co154 O166 2.137 . S
Co154 O167 2.244 . S
O155 Co154 2.216 . S
O155 C162 1.247 . S
O156 Co154 2.091 . S
O156 C162 1.261 . S
C157 O166 1.247 . S
C157 O167 1.272 . S
O158 Co154 2.004 . S
O158 C163 1.259 . S
Co159 O160 2.061 . S
Co159 O165 2.052 . S
Co159 O167 2.135 . S
O160 Co159 2.061 . S
O160 C163 1.235 . S
C161 O164 1.238 . S
C161 O165 1.241 . S
C162 O155 1.247 . S
C162 O156 1.261 . S
C163 O158 1.259 . S
C163 O160 1.235 . S
O164 Co154 2.021 . S
O164 C161 1.238 . S
O165 Co159 2.052 . S
O165 C161 1.241 . S
O166 Co154 2.137 . S
O166 C157 1.247 . S
O167 Co154 2.244 . S
O167 C157 1.272 . S
O167 Co159 2.135 . S
Co168 O169 2.216 . S
Co168 O170 2.091 . S
Co168 O172 2.004 . S
Co168 O178 2.021 . S
Co168 O180 2.137 . S
Co168 O181 2.244 . S
O169 Co168 2.216 . S
O169 C176 1.247 . S
O170 Co168 2.091 . S
O170 C176 1.261 . S
C171 O180 1.247 . S
C171 O181 1.272 . S
O172 Co168 2.004 . S
O172 C177 1.259 . S
Co173 O174 2.061 . S
Co173 O179 2.052 . S
Co173 O181 2.135 . S
O174 Co173 2.061 . S
O174 C177 1.235 . S
C175 O178 1.238 . S
C175 O179 1.241 . S
C176 O169 1.247 . S
C176 O170 1.261 . S
C177 O172 1.259 . S
C177 O174 1.235 . S
O178 Co168 2.021 . S
O178 C175 1.238 . S
O179 Co173 2.052 . S
O179 C175 1.241 . S
O180 Co168 2.137 . S
O180 C171 1.247 . S
O181 Co168 2.244 . S
O181 C171 1.272 . S
O181 Co173 2.135 . S
Co182 O183 2.216 1_655 S
Co182 O184 2.091 . S
Co182 O186 2.004 . S
Co182 O192 2.021 . S
Co182 O194 2.137 . S
Co182 O195 2.258 . S
O183 Co182 2.216 1_455 S
O183 C190 1.247 . S
O184 Co182 2.091 . S
O184 C190 1.261 1_655 S
C185 O194 1.247 . S
C185 O195 1.278 . S
O186 Co182 2.004 . S
O186 C191 1.259 . S
Co187 O188 2.061 1_545 S
Co187 O193 2.052 . S
Co187 O195 2.127 1_545 S
O188 Co187 2.061 1_565 S
O188 C191 1.235 . S
C189 O192 1.238 . S
C189 O193 1.241 1_565 S
C190 O183 1.247 . S
C190 O184 1.261 1_455 S
C191 O186 1.259 . S
C191 O188 1.235 . S
O192 Co182 2.021 . S
O192 C189 1.238 . S
O193 Co187 2.052 . S
O193 C189 1.241 1_545 S
O194 Co182 2.137 . S
O194 C185 1.247 . S
O195 Co182 2.258 . S
O195 C185 1.278 . S
O195 Co187 2.127 1_565 S
Co196 O197 2.216 . S
Co196 O198 2.091 . S
Co196 O200 2.004 . S
Co196 O206 2.021 . S
Co196 O208 2.137 . S
Co196 O209 2.244 . S
O197 Co196 2.216 . S
O197 C204 1.247 . S
O198 Co196 2.091 . S
O198 C204 1.261 . S
C199 O208 1.247 . S
C199 O209 1.272 . S
O200 Co196 2.004 . S
O200 C205 1.259 . S
Co201 O202 2.061 . S
Co201 O207 2.052 . S
Co201 O209 2.135 . S
O202 Co201 2.061 . S
O202 C205 1.235 . S
C203 O206 1.238 . S
C203 O207 1.241 . S
C204 O197 1.247 . S
C204 O198 1.261 . S
C205 O200 1.259 . S
C205 O202 1.235 . S
O206 Co196 2.021 . S
O206 C203 1.238 . S
O207 Co201 2.052 . S
O207 C203 1.241 . S
O208 Co196 2.137 . S
O208 C199 1.247 . S
O209 Co196 2.244 . S
O209 C199 1.272 . S
O209 Co201 2.135 . S
Co210 O211 2.216 . S
Co210 O212 2.091 . S
Co210 O214 2.004 . S
Co210 O220 2.021 . S
Co210 O222 2.137 . S
Co210 O223 2.244 . S
O211 Co210 2.216 . S
O211 C218 1.247 . S
O212 Co210 2.091 . S
O212 C218 1.261 . S
C213 O222 1.247 . S
C213 O223 1.272 . S
O214 Co210 2.004 . S
O214 C219 1.259 . S
Co215 O216 2.061 1_565 S
Co215 O221 2.052 . S
Co215 O223 2.135 1_565 S
O216 Co215 2.061 1_545 S
O216 C219 1.235 . S
C217 O220 1.238 . S
C217 O221 1.241 1_545 S
C218 O211 1.247 . S
C218 O212 1.261 . S
C219 O214 1.259 . S
C219 O216 1.235 . S
O220 Co210 2.021 . S
O220 C217 1.238 . S
O221 Co215 2.052 . S
O221 C217 1.241 1_565 S
O222 Co210 2.137 . S
O222 C213 1.247 . S
O223 Co210 2.244 . S
O223 C213 1.272 . S
O223 Co215 2.135 1_545 S
Co224 O225 2.216 . S
Co224 O226 2.091 . S
Co224 O228 2.004 . S
Co224 O234 2.021 . S
Co224 O236 2.137 . S
Co224 O237 2.244 . S
O225 Co224 2.216 . S
O225 C232 1.247 . S
O226 Co224 2.091 . S
O226 C232 1.261 . S
C227 O236 1.247 . S
C227 O237 1.272 . S
O228 Co224 2.004 . S
O228 C233 1.259 . S
Co229 O230 2.061 . S
Co229 O235 2.052 . S
Co229 O237 2.135 . S
O230 Co229 2.061 . S
O230 C233 1.235 . S
C231 O234 1.238 . S
C231 O235 1.241 . S
C232 O225 1.247 . S
C232 O226 1.261 . S
C233 O228 1.259 . S
C233 O230 1.235 . S
O234 Co224 2.021 . S
O234 C231 1.238 . S
O235 Co229 2.052 . S
O235 C231 1.241 . S
O236 Co224 2.137 . S
O236 C227 1.247 . S
O237 Co224 2.244 . S
O237 C227 1.272 . S
O237 Co229 2.135 . S
Co238 O239 2.216 . S
Co238 O240 2.091 . S
Co238 O242 2.004 . S
Co238 O248 2.021 . S
Co238 O250 2.137 . S
Co238 O251 2.244 . S
O239 Co238 2.216 . S
O239 C246 1.247 . S
O240 Co238 2.091 . S
O240 C246 1.261 . S
C241 O250 1.247 . S
C241 O251 1.272 . S
O242 Co238 2.004 . S
O242 C247 1.259 . S
Co243 O244 2.061 . S
Co243 O249 2.052 . S
Co243 O251 2.135 . S
O244 Co243 2.061 . S
O244 C247 1.235 . S
C245 O248 1.238 . S
C245 O249 1.241 . S
C246 O239 1.247 . S
C246 O240 1.261 . S
C247 O242 1.259 . S
C247 O244 1.235 . S
O248 Co238 2.021 . S
O248 C245 1.238 . S
O249 Co243 2.052 . S
O249 C245 1.241 . S
O250 Co238 2.137 . S
O250 C241 1.247 . S
O251 Co238 2.244 . S
O251 C241 1.272 . S
O251 Co243 2.135 . S
Co252 O253 2.216 . S
Co252 O254 2.091 . S
Co252 O256 2.004 . S
Co252 O262 2.021 . S
Co252 O264 2.137 . S
Co252 O265 2.244 . S
O253 Co252 2.216 . S
O253 C260 1.247 . S
O254 Co252 2.091 . S
O254 C260 1.261 . S
C255 O264 1.247 . S
C255 O265 1.272 . S
O256 Co252 2.004 . S
O256 C261 1.259 . S
Co257 O258 2.061 . S
Co257 O263 2.052 . S
Co257 O265 2.135 . S
O258 Co257 2.061 . S
O258 C261 1.235 . S
C259 O262 1.238 . S
C259 O263 1.241 . S
C260 O253 1.247 . S
C260 O254 1.261 . S
C261 O256 1.259 . S
C261 O258 1.235 . S
O262 Co252 2.021 . S
O262 C259 1.238 . S
O263 Co257 2.052 . S
O263 C259 1.241 . S
O264 Co252 2.137 . S
O264 C255 1.247 . S
O265 Co252 2.244 . S
O265 C255 1.272 . S
O265 Co257 2.135 . S
Co266 O267 2.216 . S
Co266 O268 2.091 . S
Co266 O270 2.004 . S
Co266 O276 2.021 . S
Co266 O278 2.137 . S
Co266 O279 2.249 . S
O267 Co266 2.216 . S
O267 C274 1.247 . S
O268 Co266 2.091 . S
O268 C274 1.261 . S
C269 O278 1.247 . S
C269 O279 1.275 . S
O270 Co266 2.004 . S
O270 C275 1.259 . S
Co271 O272 2.061 1_545 S
Co271 O277 2.052 . S
Co271 O279 2.131 1_545 S
O272 Co271 2.061 1_565 S
O272 C275 1.235 . S
C273 O276 1.238 1_556 S
C273 O277 1.241 1_566 S
C274 O267 1.247 . S
C274 O268 1.261 . S
C275 O270 1.259 . S
C275 O272 1.235 . S
O276 Co266 2.021 . S
O276 C273 1.238 1_554 S
O277 Co271 2.052 . S
O277 C273 1.241 1_544 S
O278 Co266 2.137 . S
O278 C269 1.247 . S
O279 Co266 2.249 . S
O279 C269 1.275 . S
O279 Co271 2.131 1_565 S
Co280 O281 2.216 . S
Co280 O282 2.091 . S
Co280 O284 2.004 . S
Co280 O290 2.021 . S
Co280 O292 2.137 . S
Co280 O293 2.244 . S
O281 Co280 2.216 . S
O281 C288 1.247 . S
O282 Co280 2.091 . S
O282 C288 1.261 . S
C283 O292 1.247 . S
C283 O293 1.272 . S
O284 Co280 2.004 . S
O284 C289 1.259 . S
Co285 O286 2.061 . S
Co285 O291 2.052 . S
Co285 O293 2.135 . S
O286 Co285 2.061 . S
O286 C289 1.235 . S
C287 O290 1.238 . S
C287 O291 1.241 . S
C288 O281 1.247 . S
C288 O282 1.261 . S
C289 O284 1.259 . S
C289 O286 1.235 . S
O290 Co280 2.021 . S
O290 C287 1.238 . S
O291 Co285 2.052 . S
O291 C287 1.241 . S
O292 Co280 2.137 . S
O292 C283 1.247 . S
O293 Co280 2.244 . S
O293 C283 1.272 . S
O293 Co285 2.135 . S
Co294 O295 2.216 . S
Co294 O296 2.091 . S
Co294 O298 2.004 . S
Co294 O304 2.021 . S
Co294 O306 2.137 . S
Co294 O307 2.244 . S
O295 Co294 2.216 . S
O295 C302 1.247 . S
O296 Co294 2.091 . S
O296 C302 1.261 . S
C297 O306 1.247 . S
C297 O307 1.272 . S
O298 Co294 2.004 . S
O298 C303 1.259 . S
Co299 O300 2.061 1_556 S
Co299 O305 2.052 . S
Co299 O307 2.135 1_556 S
O300 Co299 2.061 1_554 S
O300 C303 1.235 . S
C301 O304 1.238 . S
C301 O305 1.241 1_554 S
C302 O295 1.247 . S
C302 O296 1.261 . S
C303 O298 1.259 . S
C303 O300 1.235 . S
O304 Co294 2.021 . S
O304 C301 1.238 . S
O305 Co299 2.052 . S
O305 C301 1.241 1_556 S
O306 Co294 2.137 . S
O306 C297 1.247 . S
O307 Co294 2.244 . S
O307 C297 1.272 . S
O307 Co299 2.135 1_554 S
Co308 O309 2.216 . S
Co308 O310 2.091 . S
Co308 O312 2.004 . S
Co308 O318 2.021 . S
Co308 O320 2.137 . S
Co308 O321 2.244 . S
O309 Co308 2.216 . S
O309 C316 1.247 . S
O310 Co308 2.091 . S
O310 C316 1.261 . S
C311 O320 1.247 . S
C311 O321 1.272 . S
O312 Co308 2.004 . S
O312 C317 1.259 . S
Co313 O314 2.061 . S
Co313 O319 2.052 . S
Co313 O321 2.135 . S
O314 Co313 2.061 . S
O314 C317 1.235 . S
C315 O318 1.238 . S
C315 O319 1.241 . S
C316 O309 1.247 . S
C316 O310 1.261 . S
C317 O312 1.259 . S
C317 O314 1.235 . S
O318 Co308 2.021 . S
O318 C315 1.238 . S
O319 Co313 2.052 . S
O319 C315 1.241 . S
O320 Co308 2.137 . S
O320 C311 1.247 . S
O321 Co308 2.244 . S
O321 C311 1.272 . S
O321 Co313 2.135 . S
Co322 O323 2.216 1_455 S
Co322 O324 2.091 . S
Co322 O326 2.004 . S
Co322 O332 2.021 . S
Co322 O334 2.137 . S
Co322 O335 2.244 . S
O323 Co322 2.216 1_655 S
O323 C330 1.247 . S
O324 Co322 2.091 . S
O324 C330 1.261 1_455 S
C325 O334 1.247 . S
C325 O335 1.272 . S
O326 Co322 2.004 . S
O326 C331 1.259 . S
Co327 O328 2.061 . S
Co327 O333 2.052 . S
Co327 O335 2.135 . S
O328 Co327 2.061 . S
O328 C331 1.235 . S
C329 O332 1.238 . S
C329 O333 1.241 . S
C330 O323 1.247 . S
C330 O324 1.261 1_655 S
C331 O326 1.259 . S
C331 O328 1.235 . S
O332 Co322 2.021 . S
O332 C329 1.238 . S
O333 Co327 2.052 . S
O333 C329 1.241 . S
O334 Co322 2.137 . S
O334 C325 1.247 . S
O335 Co322 2.244 . S
O335 C325 1.272 . S
O335 Co327 2.135 . S
Co336 O337 2.216 . S
Co336 O338 2.091 . S
Co336 O340 2.004 . S
Co336 O346 2.021 . S
Co336 O348 2.137 . S
Co336 O349 2.244 . S
O337 Co336 2.216 . S
O337 C344 1.247 . S
O338 Co336 2.091 . S
O338 C344 1.261 . S
C339 O348 1.247 . S
C339 O349 1.272 . S
O340 Co336 2.004 . S
O340 C345 1.259 . S
Co341 O342 2.061 . S
Co341 O347 2.052 . S
Co341 O349 2.135 . S
O342 Co341 2.061 . S
O342 C345 1.235 . S
C343 O346 1.238 . S
C343 O347 1.241 . S
C344 O337 1.247 . S
C344 O338 1.261 . S
C345 O340 1.259 . S
C345 O342 1.235 . S
O346 Co336 2.021 . S
O346 C343 1.238 . S
O347 Co341 2.052 . S
O347 C343 1.241 . S
O348 Co336 2.137 . S
O348 C339 1.247 . S
O349 Co336 2.244 . S
O349 C339 1.272 . S
O349 Co341 2.135 . S
Co350 O351 2.216 . S
Co350 O352 2.091 . S
Co350 O354 2.004 . S
Co350 O360 2.021 . S
Co350 O362 2.137 . S
Co350 O363 2.244 . S
O351 Co350 2.216 . S
O351 C358 1.247 . S
O352 Co350 2.091 . S
O352 C358 1.261 . S
C353 O362 1.247 . S
C353 O363 1.272 . S
O354 Co350 2.004 . S
O354 C359 1.259 . S
Co355 O356 2.061 . S
Co355 O361 2.052 . S
Co355 O363 2.135 . S
O356 Co355 2.061 . S
O356 C359 1.235 . S
C357 O360 1.238 . S
C357 O361 1.241 . S
C358 O351 1.247 . S
C358 O352 1.261 . S
C359 O354 1.259 . S
C359 O356 1.235 . S
O360 Co350 2.021 . S
O360 C357 1.238 . S
O361 Co355 2.052 . S
O361 C357 1.241 . S
O362 Co350 2.137 . S
O362 C353 1.247 . S
O363 Co350 2.244 . S
O363 C353 1.272 . S
O363 Co355 2.135 . S
Co364 O365 2.216 . S
Co364 O366 2.091 . S
Co364 O368 2.004 . S
Co364 O374 2.021 . S
Co364 O376 2.137 . S
Co364 O377 2.244 . S
O365 Co364 2.216 . S
O365 C372 1.247 . S
O366 Co364 2.091 . S
O366 C372 1.261 . S
C367 O376 1.247 . S
C367 O377 1.272 . S
O368 Co364 2.004 . S
O368 C373 1.259 . S
Co369 O370 2.061 . S
Co369 O375 2.052 . S
Co369 O377 2.135 . S
O370 Co369 2.061 . S
O370 C373 1.235 . S
C371 O374 1.238 . S
C371 O375 1.241 . S
C372 O365 1.247 . S
C372 O366 1.261 . S
C373 O368 1.259 . S
C373 O370 1.235 . S
O374 Co364 2.021 . S
O374 C371 1.238 . S
O375 Co369 2.052 . S
O375 C371 1.241 . S
O376 Co364 2.137 . S
O376 C367 1.247 . S
O377 Co364 2.244 . S
O377 C367 1.272 . S
O377 Co369 2.135 . S
Co378 O379 2.216 . S
Co378 O380 2.091 . S
Co378 O382 2.004 . S
Co378 O388 2.021 . S
Co378 O390 2.137 . S
Co378 O391 2.244 . S
O379 Co378 2.216 . S
O379 C386 1.247 . S
O380 Co378 2.091 . S
O380 C386 1.261 . S
C381 O390 1.247 . S
C381 O391 1.272 . S
O382 Co378 2.004 . S
O382 C387 1.259 1_655 S
Co383 O384 2.061 . S
Co383 O389 2.052 . S
Co383 O391 2.135 1_455 S
O384 Co383 2.061 . S
O384 C387 1.235 . S
C385 O388 1.238 . S
C385 O389 1.241 1_655 S
C386 O379 1.247 . S
C386 O380 1.261 . S
C387 O382 1.259 1_455 S
C387 O384 1.235 . S
O388 Co378 2.021 . S
O388 C385 1.238 . S
O389 Co383 2.052 . S
O389 C385 1.241 1_455 S
O390 Co378 2.137 . S
O390 C381 1.247 . S
O391 Co378 2.244 . S
O391 C381 1.272 . S
O391 Co383 2.135 1_655 S
Co392 O393 2.216 . S
Co392 O394 2.091 . S
Co392 O396 2.004 . S
Co392 O402 2.021 . S
Co392 O404 2.137 . S
Co392 O405 2.244 . S
O393 Co392 2.216 . S
O393 C400 1.247 . S
O394 Co392 2.091 . S
O394 C400 1.261 . S
C395 O404 1.247 . S
C395 O405 1.272 . S
O396 Co392 2.004 . S
O396 C401 1.259 . S
Co397 O398 2.061 . S
Co397 O403 2.052 . S
Co397 O405 2.135 . S
O398 Co397 2.061 . S
O398 C401 1.235 . S
C399 O402 1.238 . S
C399 O403 1.241 . S
C400 O393 1.247 . S
C400 O394 1.261 . S
C401 O396 1.259 . S
C401 O398 1.235 . S
O402 Co392 2.021 . S
O402 C399 1.238 . S
O403 Co397 2.052 . S
O403 C399 1.241 . S
O404 Co392 2.137 . S
O404 C395 1.247 . S
O405 Co392 2.244 . S
O405 C395 1.272 . S
O405 Co397 2.135 . S
Co406 O407 2.216 . S
Co406 O408 2.091 . S
Co406 O410 2.004 . S
Co406 O416 2.021 . S
Co406 O418 2.137 . S
Co406 O419 2.244 . S
O407 Co406 2.216 . S
O407 C414 1.247 . S
O408 Co406 2.091 . S
O408 C414 1.261 . S
C409 O418 1.247 . S
C409 O419 1.272 . S
O410 Co406 2.004 . S
O410 C415 1.259 . S
Co411 O412 2.061 . S
Co411 O417 2.052 . S
Co411 O419 2.135 . S
O412 Co411 2.061 . S
O412 C415 1.235 . S
C413 O416 1.238 . S
C413 O417 1.241 . S
C414 O407 1.247 . S
C414 O408 1.261 . S
C415 O410 1.259 . S
C415 O412 1.235 . S
O416 Co406 2.021 . S
O416 C413 1.238 . S
O417 Co411 2.052 . S
O417 C413 1.241 . S
O418 Co406 2.137 . S
O418 C409 1.247 . S
O419 Co406 2.244 . S
O419 C409 1.272 . S
O419 Co411 2.135 . S
Co420 O421 2.216 1_455 S
Co420 O422 2.091 . S
Co420 O424 2.004 . S
Co420 O430 2.021 . S
Co420 O432 2.137 . S
Co420 O433 2.244 . S
O421 Co420 2.216 1_655 S
O421 C428 1.247 . S
O422 Co420 2.091 . S
O422 C428 1.261 1_455 S
C423 O432 1.247 . S
C423 O433 1.272 . S
O424 Co420 2.004 . S
O424 C429 1.259 . S
Co425 O426 2.061 . S
Co425 O431 2.052 . S
Co425 O433 2.135 . S
O426 Co425 2.061 . S
O426 C429 1.235 . S
C427 O430 1.238 . S
C427 O431 1.241 . S
C428 O421 1.247 . S
C428 O422 1.261 1_655 S
C429 O424 1.259 . S
C429 O426 1.235 . S
O430 Co420 2.021 . S
O430 C427 1.238 . S
O431 Co425 2.052 . S
O431 C427 1.241 . S
O432 Co420 2.137 . S
O432 C423 1.247 . S
O433 Co420 2.244 . S
O433 C423 1.272 . S
O433 Co425 2.135 . S
Co434 O435 2.216 . S
Co434 O436 2.091 . S
Co434 O438 2.004 . S
Co434 O444 2.021 . S
Co434 O446 2.137 . S
Co434 O447 2.244 . S
O435 Co434 2.216 . S
O435 C442 1.247 . S
O436 Co434 2.091 . S
O436 C442 1.261 . S
C437 O446 1.247 . S
C437 O447 1.272 . S
O438 Co434 2.004 . S
O438 C443 1.259 . S
Co439 O440 2.061 . S
Co439 O445 2.052 . S
Co439 O447 2.135 . S
O440 Co439 2.061 . S
O440 C443 1.235 . S
C441 O444 1.238 . S
C441 O445 1.241 . S
C442 O435 1.247 . S
C442 O436 1.261 . S
C443 O438 1.259 . S
C443 O440 1.235 . S
O444 Co434 2.021 . S
O444 C441 1.238 . S
O445 Co439 2.052 . S
O445 C441 1.241 . S
O446 Co434 2.137 . S
O446 C437 1.247 . S
O447 Co434 2.244 . S
O447 C437 1.272 . S
O447 Co439 2.135 . S
C7 C189 0.536 1_444 S
C357 C21 1.124 . S
C35 C217 1.874 1_565 S
C49 C343 1.874 . S
C63 C245 1.124 1_465 S
C77 C315 0.984 . S
C91 C273 0.984 1_545 S
C441 C105 0.536 . S
C301 C119 1.124 1_554 S
C133 C259 0.984 . S
C329 C147 0.984 1_455 S
C161 C231 1.874 . S
C203 C175 1.124 . S
C287 C399 0.536 . S
C413 C371 0.536 . S
C427 C385 1.874 1_456 S
C3 C23 1.927 1_545 S
C36 C22 1.631 . S
C45 C31 1.547 1_545 S
C51 C8 1.861 1_556 S
C101 C65 1.927 1_545 S
C79 C59 2.237 . S
C87 C73 1.849 1_545 S
C92 C107 2.008 1_556 S
C134 C9 2.008 . S
C120 C50 1.631 . S
C149 C17 2.237 . S
C387 C106 1.861 . S
C400 C37 1.861 . S
C162 C64 1.631 1_655 S
C93 C171 2.237 . S
C204 C185 1.750 1_545 S
C219 C205 1.667 . S
C227 C213 1.640 1_565 S
C191 C232 1.756 1_556 S
C246 C283 1.750 1_545 S
C241 C260 2.178 . S
C269 C255 1.744 1_565 S
C275 C288 1.778 1_554 S
C190 C317 1.778 . S
C303 C233 1.667 . S
C330 C199 2.178 . S
C428 C289 1.756 . S
C443 C218 1.756 . S
C247 C345 1.667 1_655 S
C353 C274 2.178 . S
C177 C367 1.927 . S
C386 C176 1.631 1_554 S
C157 C381 1.547 . S
C163 C372 1.861 . S
C121 C395 1.927 . S
C135 C115 2.237 1_554 S
C143 C129 1.849 . S
C148 C401 2.008 . S
C373 C78 2.008 . S
C358 C409 1.750 . S
C359 C429 1.667 1_554 S
C423 C339 1.640 . S
C344 C415 1.756 . S
C437 C302 1.750 . S
C297 C316 2.178 1_554 S
C325 C311 1.744 . S
C331 C442 1.778 . S
C414 C261 1.778 . S
