# Generated by pormake.
# Topology umn, (4)-cn, num edge types: 1
# Building blocks:
#     Node 0, Type 0, BuildingBlock: NAHDIM_clean_sbu_0, # of connection points: 4
#     Node 1, Type 0, BuildingBlock: NAHDIM_clean_sbu_0, # of connection points: 4
#     Node 2, Type 0, BuildingBlock: NAHDIM_clean_sbu_0, # of connection points: 4
#     Node 3, Type 0, BuildingBlock: NAHDIM_clean_sbu_0, # of connection points: 4
#     Node 4, Type 0, BuildingBlock: NAHDIM_clean_sbu_0, # of connection points: 4
#     Node 5, Type 0, BuildingBlock: NAHDIM_clean_sbu_0, # of connection points: 4
#     Node 6, Type 0, BuildingBlock: NAHDIM_clean_sbu_0, # of connection points: 4
#     Node 7, Type 0, BuildingBlock: NAHDIM_clean_sbu_0, # of connection points: 4
#     Node 8, Type 0, BuildingBlock: NAHDIM_clean_sbu_0, # of connection points: 4
#     Node 9, Type 0, BuildingBlock: NAHDIM_clean_sbu_0, # of connection points: 4
#     Node 10, Type 0, BuildingBlock: NAHDIM_clean_sbu_0, # of connection points: 4
#     Node 11, Type 0, BuildingBlock: NAHDIM_clean_sbu_0, # of connection points: 4
#     Node 12, Type 0, BuildingBlock: NAHDIM_clean_sbu_0, # of connection points: 4
#     Node 13, Type 0, BuildingBlock: NAHDIM_clean_sbu_0, # of connection points: 4
#     Node 14, Type 0, BuildingBlock: NAHDIM_clean_sbu_0, # of connection points: 4
#     Node 15, Type 0, BuildingBlock: NAHDIM_clean_sbu_0, # of connection points: 4
#     Node 16, Type 0, BuildingBlock: NAHDIM_clean_sbu_0, # of connection points: 4
#     Node 17, Type 0, BuildingBlock: NAHDIM_clean_sbu_0, # of connection points: 4
#     Node 18, Type 0, BuildingBlock: NAHDIM_clean_sbu_0, # of connection points: 4
#     Node 19, Type 0, BuildingBlock: NAHDIM_clean_sbu_0, # of connection points: 4
#     Node 20, Type 0, BuildingBlock: NAHDIM_clean_sbu_0, # of connection points: 4
#     Node 21, Type 0, BuildingBlock: NAHDIM_clean_sbu_0, # of connection points: 4
#     Node 22, Type 0, BuildingBlock: NAHDIM_clean_sbu_0, # of connection points: 4
#     Node 23, Type 0, BuildingBlock: NAHDIM_clean_sbu_0, # of connection points: 4
#     Node 24, Type 0, BuildingBlock: NAHDIM_clean_sbu_0, # of connection points: 4
#     Node 25, Type 0, BuildingBlock: NAHDIM_clean_sbu_0, # of connection points: 4
#     Node 26, Type 0, BuildingBlock: NAHDIM_clean_sbu_0, # of connection points: 4
#     Node 27, Type 0, BuildingBlock: NAHDIM_clean_sbu_0, # of connection points: 4
#     Node 28, Type 0, BuildingBlock: NAHDIM_clean_sbu_0, # of connection points: 4
#     Node 29, Type 0, BuildingBlock: NAHDIM_clean_sbu_0, # of connection points: 4
#     Node 30, Type 0, BuildingBlock: NAHDIM_clean_sbu_0, # of connection points: 4
#     Node 31, Type 0, BuildingBlock: NAHDIM_clean_sbu_0, # of connection points: 4
#     Node 32, Type 0, BuildingBlock: NAHDIM_clean_sbu_0, # of connection points: 4
#     Node 33, Type 0, BuildingBlock: NAHDIM_clean_sbu_0, # of connection points: 4
#     Node 34, Type 0, BuildingBlock: NAHDIM_clean_sbu_0, # of connection points: 4
#     Node 35, Type 0, BuildingBlock: NAHDIM_clean_sbu_0, # of connection points: 4
#     Edge 36, Type (0, 0), BuildingBlock: ZUJKAS_clean_linker_0, # of connection points: 2
#     Edge 37, Type (0, 0), BuildingBlock: ZUJKAS_clean_linker_0, # of connection points: 2
#     Edge 38, Type (0, 0), BuildingBlock: ZUJKAS_clean_linker_0, # of connection points: 2
#     Edge 39, Type (0, 0), BuildingBlock: ZUJKAS_clean_linker_0, # of connection points: 2
#     Edge 40, Type (0, 0), BuildingBlock: ZUJKAS_clean_linker_0, # of connection points: 2
#     Edge 41, Type (0, 0), BuildingBlock: ZUJKAS_clean_linker_0, # of connection points: 2
#     Edge 42, Type (0, 0), BuildingBlock: ZUJKAS_clean_linker_0, # of connection points: 2
#     Edge 43, Type (0, 0), BuildingBlock: ZUJKAS_clean_linker_0, # of connection points: 2
#     Edge 44, Type (0, 0), BuildingBlock: ZUJKAS_clean_linker_0, # of connection points: 2
#     Edge 45, Type (0, 0), BuildingBlock: ZUJKAS_clean_linker_0, # of connection points: 2
#     Edge 46, Type (0, 0), BuildingBlock: ZUJKAS_clean_linker_0, # of connection points: 2
#     Edge 47, Type (0, 0), BuildingBlock: ZUJKAS_clean_linker_0, # of connection points: 2
#     Edge 48, Type (0, 0), BuildingBlock: ZUJKAS_clean_linker_0, # of connection points: 2
#     Edge 49, Type (0, 0), BuildingBlock: ZUJKAS_clean_linker_0, # of connection points: 2
#     Edge 50, Type (0, 0), BuildingBlock: ZUJKAS_clean_linker_0, # of connection points: 2
#     Edge 51, Type (0, 0), BuildingBlock: ZUJKAS_clean_linker_0, # of connection points: 2
#     Edge 52, Type (0, 0), BuildingBlock: ZUJKAS_clean_linker_0, # of connection points: 2
#     Edge 53, Type (0, 0), BuildingBlock: ZUJKAS_clean_linker_0, # of connection points: 2
#     Edge 54, Type (0, 0), BuildingBlock: ZUJKAS_clean_linker_0, # of connection points: 2
#     Edge 55, Type (0, 0), BuildingBlock: ZUJKAS_clean_linker_0, # of connection points: 2
#     Edge 56, Type (0, 0), BuildingBlock: ZUJKAS_clean_linker_0, # of connection points: 2
#     Edge 57, Type (0, 0), BuildingBlock: ZUJKAS_clean_linker_0, # of connection points: 2
#     Edge 58, Type (0, 0), BuildingBlock: ZUJKAS_clean_linker_0, # of connection points: 2
#     Edge 59, Type (0, 0), BuildingBlock: ZUJKAS_clean_linker_0, # of connection points: 2
#     Edge 60, Type (0, 0), BuildingBlock: ZUJKAS_clean_linker_0, # of connection points: 2
#     Edge 61, Type (0, 0), BuildingBlock: ZUJKAS_clean_linker_0, # of connection points: 2
#     Edge 62, Type (0, 0), BuildingBlock: ZUJKAS_clean_linker_0, # of connection points: 2
#     Edge 63, Type (0, 0), BuildingBlock: ZUJKAS_clean_linker_0, # of connection points: 2
#     Edge 64, Type (0, 0), BuildingBlock: ZUJKAS_clean_linker_0, # of connection points: 2
#     Edge 65, Type (0, 0), BuildingBlock: ZUJKAS_clean_linker_0, # of connection points: 2
#     Edge 66, Type (0, 0), BuildingBlock: ZUJKAS_clean_linker_0, # of connection points: 2
#     Edge 67, Type (0, 0), BuildingBlock: ZUJKAS_clean_linker_0, # of connection points: 2
#     Edge 68, Type (0, 0), BuildingBlock: ZUJKAS_clean_linker_0, # of connection points: 2
#     Edge 69, Type (0, 0), BuildingBlock: ZUJKAS_clean_linker_0, # of connection points: 2
#     Edge 70, Type (0, 0), BuildingBlock: ZUJKAS_clean_linker_0, # of connection points: 2
#     Edge 71, Type (0, 0), BuildingBlock: ZUJKAS_clean_linker_0, # of connection points: 2
#     Edge 72, Type (0, 0), BuildingBlock: ZUJKAS_clean_linker_0, # of connection points: 2
#     Edge 73, Type (0, 0), BuildingBlock: ZUJKAS_clean_linker_0, # of connection points: 2
#     Edge 74, Type (0, 0), BuildingBlock: ZUJKAS_clean_linker_0, # of connection points: 2
#     Edge 75, Type (0, 0), BuildingBlock: ZUJKAS_clean_linker_0, # of connection points: 2
#     Edge 76, Type (0, 0), BuildingBlock: ZUJKAS_clean_linker_0, # of connection points: 2
#     Edge 77, Type (0, 0), BuildingBlock: ZUJKAS_clean_linker_0, # of connection points: 2
#     Edge 78, Type (0, 0), BuildingBlock: ZUJKAS_clean_linker_0, # of connection points: 2
#     Edge 79, Type (0, 0), BuildingBlock: ZUJKAS_clean_linker_0, # of connection points: 2
#     Edge 80, Type (0, 0), BuildingBlock: ZUJKAS_clean_linker_0, # of connection points: 2
#     Edge 81, Type (0, 0), BuildingBlock: ZUJKAS_clean_linker_0, # of connection points: 2
#     Edge 82, Type (0, 0), BuildingBlock: ZUJKAS_clean_linker_0, # of connection points: 2
#     Edge 83, Type (0, 0), BuildingBlock: ZUJKAS_clean_linker_0, # of connection points: 2
#     Edge 84, Type (0, 0), BuildingBlock: ZUJKAS_clean_linker_0, # of connection points: 2
#     Edge 85, Type (0, 0), BuildingBlock: ZUJKAS_clean_linker_0, # of connection points: 2
#     Edge 86, Type (0, 0), BuildingBlock: ZUJKAS_clean_linker_0, # of connection points: 2
#     Edge 87, Type (0, 0), BuildingBlock: ZUJKAS_clean_linker_0, # of connection points: 2
#     Edge 88, Type (0, 0), BuildingBlock: ZUJKAS_clean_linker_0, # of connection points: 2
#     Edge 89, Type (0, 0), BuildingBlock: ZUJKAS_clean_linker_0, # of connection points: 2
#     Edge 90, Type (0, 0), BuildingBlock: ZUJKAS_clean_linker_0, # of connection points: 2
#     Edge 91, Type (0, 0), BuildingBlock: ZUJKAS_clean_linker_0, # of connection points: 2
#     Edge 92, Type (0, 0), BuildingBlock: ZUJKAS_clean_linker_0, # of connection points: 2
#     Edge 93, Type (0, 0), BuildingBlock: ZUJKAS_clean_linker_0, # of connection points: 2
#     Edge 94, Type (0, 0), BuildingBlock: ZUJKAS_clean_linker_0, # of connection points: 2
#     Edge 95, Type (0, 0), BuildingBlock: ZUJKAS_clean_linker_0, # of connection points: 2
#     Edge 96, Type (0, 0), BuildingBlock: ZUJKAS_clean_linker_0, # of connection points: 2
#     Edge 97, Type (0, 0), BuildingBlock: ZUJKAS_clean_linker_0, # of connection points: 2
#     Edge 98, Type (0, 0), BuildingBlock: ZUJKAS_clean_linker_0, # of connection points: 2
#     Edge 99, Type (0, 0), BuildingBlock: ZUJKAS_clean_linker_0, # of connection points: 2
#     Edge 100, Type (0, 0), BuildingBlock: ZUJKAS_clean_linker_0, # of connection points: 2
#     Edge 101, Type (0, 0), BuildingBlock: ZUJKAS_clean_linker_0, # of connection points: 2
#     Edge 102, Type (0, 0), BuildingBlock: ZUJKAS_clean_linker_0, # of connection points: 2
#     Edge 103, Type (0, 0), BuildingBlock: ZUJKAS_clean_linker_0, # of connection points: 2
#     Edge 104, Type (0, 0), BuildingBlock: ZUJKAS_clean_linker_0, # of connection points: 2
#     Edge 105, Type (0, 0), BuildingBlock: ZUJKAS_clean_linker_0, # of connection points: 2
#     Edge 106, Type (0, 0), BuildingBlock: ZUJKAS_clean_linker_0, # of connection points: 2
#     Edge 107, Type (0, 0), BuildingBlock: ZUJKAS_clean_linker_0, # of connection points: 2
# Relax obj value: 0.322
# Max RMSD: 0.316
# Mean RMSD: 0.316
data_MOF--net-umn--node1-NAHDIM_clean_sbu_0--edge1-ZUJKAS_clean_linker_0
_symmetry_space_group_name_H-M    P1
_symmetry_Int_Tables_number       1
_symmetry_cell_setting            triclinic
loop_
_symmetry_equiv_pos_as_xyz
'x, y, z'
_cell_length_a     108.01116
_cell_length_b     108.03542
_cell_length_c     45.801624
_cell_angle_alpha  89.988781
_cell_angle_beta   90.021386
_cell_angle_gamma 119.97703
loop_
_atom_site_label
_atom_site_type_symbol
_atom_site_fract_x
_atom_site_fract_y
_atom_site_fract_z
_atom_type_partial_charge
C0 C 0.3649 0.11618 0.20255 0.0
O1 O 0.37827 0.12036 0.19602 0.0
O2 O 0.38371 0.09754 0.20992 0.0
Zn3 Zn 0.3663 0.09351 0.23337 0.0
O4 O 0.36982 0.09743 0.27644 0.0
C5 C 0.33993 0.0685 0.24433 0.0
O6 O 0.3378 0.07799 0.25793 0.0
O7 O 0.35782 0.10503 0.21795 0.0
C8 C 0.36992 0.08789 0.29254 0.0
O9 O 0.37017 0.07706 0.2801 0.0
C10 C 0.38769 0.08832 0.2078 0.0
O11 O 0.38093 0.07643 0.22291 0.0
O12 O 0.35152 0.07273 0.23034 0.0
C13 C 0.87981 0.24073 0.20701 0.0
O14 O 0.88832 0.249 0.18624 0.0
O15 O 0.89185 0.27866 0.21264 0.0
Zn16 Zn 0.89565 0.26624 0.23944 0.0
O17 O 0.89611 0.2706 0.28215 0.0
C18 C 0.9249 0.27968 0.21874 0.0
O19 O 0.9222 0.28958 0.20929 0.0
O20 O 0.88088 0.24587 0.23242 0.0
C21 C 0.90712 0.2814 0.29256 0.0
O22 O 0.91658 0.2908 0.27447 0.0
C23 C 0.88994 0.28905 0.2188 0.0
O24 O 0.89021 0.29279 0.24618 0.0
O25 O 0.91496 0.26855 0.23082 0.0
C26 C 0.75857 0.64303 0.18337 0.0
O27 O 0.7511 0.64691 0.167 0.0
O28 O 0.71811 0.61416 0.19489 0.0
Zn29 Zn 0.73309 0.63069 0.21795 0.0
O30 O 0.73082 0.62757 0.2612 0.0
C31 C 0.73764 0.65842 0.22834 0.0
O32 O 0.74795 0.65888 0.24437 0.0
O33 O 0.75291 0.63571 0.20622 0.0
C34 C 0.72062 0.62852 0.27271 0.0
O35 O 0.71074 0.6283 0.25559 0.0
C36 C 0.7203 0.60516 0.18135 0.0
O37 O 0.73286 0.60605 0.18333 0.0
O38 O 0.73036 0.64759 0.21217 0.0
C39 C 0.12103 0.35885 0.29506 0.0
O40 O 0.12458 0.36693 0.27163 0.0
O41 O 0.10045 0.38093 0.31128 0.0
Zn42 Zn 0.09667 0.36258 0.29245 0.0
O43 O 0.09816 0.36371 0.24876 0.0
C44 C 0.0714 0.33583 0.28662 0.0
O45 O 0.08031 0.3332 0.272 0.0
O46 O 0.10952 0.35575 0.30832 0.0
C47 C 0.08784 0.36335 0.23468 0.0
O48 O 0.07818 0.3649 0.24906 0.0
C49 C 0.11237 0.3902 0.32205 0.0
O50 O 0.12347 0.38835 0.31968 0.0
O51 O 0.07625 0.34772 0.2998 0.0
C52 C 0.64358 0.7566 0.31686 0.0
O53 O 0.64308 0.74864 0.33903 0.0
O54 O 0.61857 0.71791 0.30585 0.0
Zn55 Zn 0.63594 0.73127 0.28271 0.0
O56 O 0.63368 0.72903 0.2392 0.0
C57 C 0.6507 0.71683 0.30328 0.0
O58 O 0.63765 0.70658 0.30919 0.0
O59 O 0.64094 0.75132 0.29134 0.0
C60 C 0.63632 0.72032 0.22576 0.0
O61 O 0.638 0.71094 0.2409 0.0
C62 C 0.60631 0.70862 0.29654 0.0
O63 O 0.60391 0.70695 0.2683 0.0
O64 O 0.65258 0.72861 0.29322 0.0
C65 C 0.22833 0.87838 0.31679 0.0
O66 O 0.23696 0.88789 0.33581 0.0
O67 O 0.26617 0.88572 0.30414 0.0
Zn68 Zn 0.25355 0.89104 0.28136 0.0
O69 O 0.25519 0.89067 0.23763 0.0
C70 C 0.26913 0.91996 0.30555 0.0
O71 O 0.27754 0.91574 0.31709 0.0
O72 O 0.23317 0.87767 0.29197 0.0
C73 C 0.26444 0.90193 0.22463 0.0
O74 O 0.27418 0.91254 0.24023 0.0
C75 C 0.27883 0.88891 0.29732 0.0
O76 O 0.28426 0.89548 0.27249 0.0
O77 O 0.2582 0.9111 0.29117 0.0
C78 C 0.63981 0.88452 0.80763 0.0
O79 O 0.64016 0.89432 0.82515 0.0
O80 O 0.60824 0.8898 0.79367 0.0
Zn81 Zn 0.62578 0.89477 0.76975 0.0
O82 O 0.62262 0.89247 0.72635 0.0
C83 C 0.65208 0.92002 0.76074 0.0
O84 O 0.6542 0.91084 0.74587 0.0
O85 O 0.63403 0.88271 0.78267 0.0
C86 C 0.62251 0.90257 0.71232 0.0
O87 O 0.62151 0.91248 0.72698 0.0
C88 C 0.60419 0.89888 0.79741 0.0
O89 O 0.61099 0.91121 0.78381 0.0
O90 O 0.64055 0.91546 0.77513 0.0
C91 C 0.11908 0.75609 0.79179 0.0
O92 O 0.10825 0.74849 0.80931 0.0
O93 O 0.10869 0.71721 0.79286 0.0
Zn94 Zn 0.10665 0.7295 0.76258 0.0
O95 O 0.10764 0.72422 0.72104 0.0
C96 C 0.08339 0.73357 0.74802 0.0
O97 O 0.09322 0.74317 0.73077 0.0
O98 O 0.12088 0.75011 0.76962 0.0
C99 C 0.09655 0.71309 0.71191 0.0
O100 O 0.0875 0.70419 0.73127 0.0
C101 C 0.11129 0.70709 0.78898 0.0
O102 O 0.11335 0.70391 0.76241 0.0
O103 O 0.08685 0.72672 0.76565 0.0
C104 C 0.2384 0.36549 0.7997 0.0
O105 O 0.24725 0.36514 0.81894 0.0
O106 O 0.27614 0.39448 0.78919 0.0
Zn107 Zn 0.26345 0.37731 0.76445 0.0
O108 O 0.26591 0.37992 0.72087 0.0
C109 C 0.26033 0.34977 0.7601 0.0
O110 O 0.2494 0.34788 0.74416 0.0
O111 O 0.24302 0.37048 0.77441 0.0
C112 C 0.27543 0.37795 0.70894 0.0
O113 O 0.28496 0.37725 0.7256 0.0
C114 C 0.28932 0.40316 0.7847 0.0
O115 O 0.29538 0.40187 0.76095 0.0
O116 O 0.2677 0.3616 0.7733 0.0
C117 C 0.87998 0.64497 0.69297 0.0
O118 O 0.87508 0.63236 0.70515 0.0
O119 O 0.90082 0.62733 0.6807 0.0
Zn120 Zn 0.90635 0.64568 0.70208 0.0
O121 O 0.90509 0.64385 0.74587 0.0
C122 C 0.93585 0.65802 0.68184 0.0
O123 O 0.93178 0.64496 0.67315 0.0
O124 O 0.89335 0.65282 0.68911 0.0
C125 C 0.9158 0.6453 0.76027 0.0
O126 O 0.92665 0.6459 0.74607 0.0
C127 C 0.90322 0.6175 0.689 0.0
O128 O 0.90945 0.61867 0.71429 0.0
O129 O 0.9267 0.66071 0.69314 0.0
C130 C 0.35768 0.24265 0.72258 0.0
O131 O 0.36648 0.24839 0.74472 0.0
O132 O 0.37593 0.28423 0.70289 0.0
Zn133 Zn 0.35832 0.26947 0.72382 0.0
O134 O 0.36027 0.27005 0.76749 0.0
C135 C 0.34418 0.28496 0.70576 0.0
O136 O 0.35721 0.2947 0.69827 0.0
O137 O 0.35287 0.24981 0.70978 0.0
C138 C 0.35919 0.27951 0.78193 0.0
O139 O 0.35897 0.28998 0.7678 0.0
C140 C 0.38636 0.2828 0.69441 0.0
O141 O 0.38668 0.27116 0.70124 0.0
O142 O 0.34202 0.27308 0.71583 0.0
C143 C 0.75855 0.11325 0.69128 0.0
O144 O 0.75014 0.10557 0.66982 0.0
O145 O 0.72076 0.10261 0.70155 0.0
Zn146 Zn 0.73308 0.09725 0.72526 0.0
O147 O 0.7303 0.09697 0.7687 0.0
C148 C 0.71857 0.06844 0.70039 0.0
O149 O 0.70976 0.07221 0.68913 0.0
O150 O 0.75353 0.11143 0.71698 0.0
C151 C 0.72098 0.08551 0.78098 0.0
O152 O 0.71179 0.07487 0.76464 0.0
C153 C 0.70773 0.09872 0.70628 0.0
O154 O 0.70132 0.09091 0.72935 0.0
O155 O 0.72936 0.07755 0.71477 0.0
C156 C 0.03011 0.44781 0.52381 0.0
O157 O 0.02684 0.43705 0.50608 0.0
O158 O 0.05571 0.43336 0.54585 0.0
Zn159 Zn 0.03779 0.4318 0.56263 0.0
O160 O 0.0375 0.43172 0.6064 0.0
C161 C 0.02196 0.40267 0.54139 0.0
O162 O 0.03481 0.40451 0.53731 0.0
O163 O 0.03516 0.4479 0.54888 0.0
C164 C 0.03532 0.42053 0.61989 0.0
O165 O 0.03542 0.41016 0.60508 0.0
C166 C 0.06604 0.44483 0.53567 0.0
O167 O 0.0657 0.45678 0.53769 0.0
O168 O 0.02069 0.41307 0.55067 0.0
C169 C 0.53111 0.56649 0.54485 0.0
O170 O 0.52466 0.57062 0.5635 0.0
O171 O 0.5471 0.6071 0.53081 0.0
Zn172 Zn 0.55356 0.5952 0.55293 0.0
O173 O 0.55036 0.59393 0.59644 0.0
C174 C 0.58045 0.5973 0.56107 0.0
O175 O 0.57217 0.58515 0.5745 0.0
O176 O 0.54373 0.57537 0.53666 0.0
C177 C 0.55985 0.60371 0.61235 0.0
O178 O 0.56964 0.61552 0.59986 0.0
C179 C 0.55457 0.62065 0.53093 0.0
O180 O 0.56585 0.62685 0.54794 0.0
O181 O 0.57473 0.60358 0.54805 0.0
C182 C 0.42617 0.97653 0.50924 0.0
O183 O 0.41876 0.97923 0.49009 0.0
O184 O 0.38659 0.95011 0.51855 0.0
Zn185 Zn 0.40067 0.96655 0.54319 0.0
O186 O 0.39797 0.96355 0.58657 0.0
C187 C 0.38759 0.98307 0.5252 0.0
O188 O 0.37715 0.97054 0.51682 0.0
O189 O 0.42049 0.97094 0.53355 0.0
C190 C 0.38829 0.96506 0.59907 0.0
O191 O 0.37868 0.96589 0.58293 0.0
C192 C 0.37591 0.9385 0.52712 0.0
O193 O 0.37336 0.93613 0.5552 0.0
O194 O 0.39898 0.98399 0.53532 0.0
C195 C 0.78559 0.69681 0.6116 0.0
O196 O 0.79069 0.70958 0.60002 0.0
O197 O 0.7645 0.71416 0.62867 0.0
Zn198 Zn 0.75955 0.69693 0.60395 0.0
O199 O 0.76162 0.70048 0.56066 0.0
C200 C 0.72975 0.68466 0.6202 0.0
O201 O 0.7338 0.69781 0.62831 0.0
O202 O 0.77221 0.68917 0.61565 0.0
C203 C 0.75161 0.70062 0.54629 0.0
O204 O 0.74118 0.70083 0.56059 0.0
C205 C 0.76572 0.72602 0.621 0.0
O206 O 0.76406 0.72824 0.59344 0.0
O207 O 0.73903 0.68177 0.61046 0.0
C208 C 0.3099 0.09797 0.63612 0.0
O209 O 0.29921 0.0915 0.6177 0.0
O210 O 0.29169 0.05756 0.65539 0.0
Zn211 Zn 0.3089 0.07128 0.63212 0.0
O212 O 0.30557 0.07032 0.58878 0.0
C213 C 0.33549 0.0732 0.62124 0.0
O214 O 0.33721 0.08448 0.60685 0.0
O215 O 0.31591 0.09128 0.64587 0.0
C216 C 0.30564 0.06014 0.57501 0.0
O217 O 0.30521 0.04955 0.58998 0.0
C218 C 0.27914 0.04947 0.64571 0.0
O219 O 0.2765 0.04968 0.61777 0.0
O220 O 0.3243 0.06621 0.63664 0.0
C221 C 0.90587 0.21792 0.64353 0.0
O222 O 0.9137 0.22603 0.66519 0.0
O223 O 0.94443 0.23147 0.64031 0.0
Zn224 Zn 0.93191 0.23434 0.61195 0.0
O225 O 0.93677 0.23412 0.56978 0.0
C226 C 0.9282 0.25784 0.59935 0.0
O227 O 0.91897 0.24838 0.581 0.0
O228 O 0.91146 0.21956 0.61844 0.0
C229 C 0.94715 0.24558 0.55968 0.0
O230 O 0.95613 0.25519 0.57814 0.0
C231 C 0.95453 0.22908 0.63437 0.0
O232 O 0.95759 0.22817 0.60697 0.0
O233 O 0.93447 0.25392 0.6175 0.0
C234 C 0.30435 0.2049 0.1391 0.0
O235 O 0.29067 0.20035 0.14262 0.0
O236 O 0.28923 0.22764 0.14867 0.0
Zn237 Zn 0.30555 0.23124 0.12224 0.0
O238 O 0.30088 0.22988 0.07954 0.0
C239 C 0.3197 0.26121 0.13757 0.0
O240 O 0.30696 0.25787 0.14729 0.0
O241 O 0.31262 0.21769 0.13095 0.0
C242 C 0.29931 0.23966 0.06772 0.0
O243 O 0.29827 0.24895 0.08452 0.0
C244 C 0.27612 0.22197 0.14168 0.0
O245 O 0.27217 0.21757 0.11475 0.0
O246 O 0.32173 0.25138 0.12762 0.0
C247 C 0.78389 0.09209 0.15018 0.0
O248 O 0.77535 0.08337 0.17038 0.0
O249 O 0.7757 0.05474 0.13876 0.0
Zn250 Zn 0.76982 0.06683 0.11577 0.0
O251 O 0.76921 0.06431 0.07218 0.0
C252 C 0.74089 0.05099 0.13935 0.0
O253 O 0.74447 0.0414 0.14629 0.0
O254 O 0.78349 0.08732 0.12467 0.0
C255 C 0.75792 0.05455 0.06016 0.0
O256 O 0.74774 0.04489 0.07669 0.0
C257 C 0.77328 0.04228 0.13242 0.0
O258 O 0.76679 0.03633 0.10781 0.0
O259 O 0.75011 0.06263 0.12755 0.0
C260 C 0.90739 0.69688 0.12503 0.0
O261 O 0.91485 0.69269 0.1406 0.0
O262 O 0.94737 0.72618 0.11847 0.0
Zn263 Zn 0.93325 0.71065 0.09183 0.0
O264 O 0.93602 0.71587 0.04937 0.0
C265 C 0.92891 0.68348 0.07524 0.0
O266 O 0.91954 0.68421 0.05809 0.0
O267 O 0.9132 0.70495 0.10314 0.0
C268 C 0.94628 0.7155 0.03666 0.0
O269 O 0.95621 0.71522 0.05276 0.0
C270 C 0.95852 0.72595 0.12651 0.0
O271 O 0.96093 0.71605 0.11596 0.0
O272 O 0.93565 0.69336 0.09381 0.0
C273 C 0.5419 0.96634 0.05192 0.0
O274 O 0.53656 0.95261 0.05673 0.0
O275 O 0.5646 0.95111 0.03758 0.0
Zn276 Zn 0.56793 0.96682 0.06537 0.0
O277 O 0.56555 0.96138 0.10771 0.0
C278 C 0.59288 0.9926 0.08067 0.0
O279 O 0.58362 0.99347 0.0979 0.0
O280 O 0.55527 0.97469 0.05463 0.0
C281 C 0.57599 0.96079 0.11906 0.0
O282 O 0.5852 0.95993 0.10164 0.0
C283 C 0.56006 0.93799 0.04288 0.0
O284 O 0.55689 0.93323 0.06979 0.0
O285 O 0.58842 0.98237 0.06246 0.0
C286 C 0.01779 0.56903 0.03411 0.0
O287 O 0.03018 0.5766 0.04724 0.0
O288 O 0.03669 0.60697 0.01887 0.0
Zn289 Zn 0.01799 0.59522 0.03977 0.0
O290 O 0.01962 0.5963 0.08356 0.0
C291 C 0.0071 0.6134 0.01832 0.0
O292 O 0.02061 0.6225 0.01292 0.0
O293 O 0.01035 0.57483 0.02835 0.0
C294 C 0.01844 0.6058 0.09761 0.0
O295 O 0.01783 0.61597 0.0831 0.0
C296 C 0.04696 0.61905 0.02663 0.0
O297 O 0.04595 0.62493 0.05095 0.0
O298 O 0.00362 0.60114 0.02852 0.0
C299 C 0.42992 0.45632 0.03623 0.0
O300 O 0.42446 0.46154 0.05485 0.0
O301 O 0.38922 0.43662 0.01495 0.0
Zn302 Zn 0.40182 0.43219 0.03986 0.0
O303 O 0.40116 0.43546 0.0829 0.0
C304 C 0.40263 0.40693 0.05101 0.0
O305 O 0.41429 0.41629 0.06467 0.0
O306 O 0.42207 0.44378 0.0263 0.0
C307 C 0.39129 0.4255 0.09782 0.0
O308 O 0.38045 0.41501 0.08404 0.0
C309 C 0.37936 0.43898 0.02322 0.0
O310 O 0.37669 0.43891 0.05122 0.0
O311 O 0.39559 0.41136 0.03645 0.0
C312 C 0.70145 0.79826 0.88628 0.0
O313 O 0.71452 0.80392 0.8966 0.0
O314 O 0.71886 0.77676 0.86956 0.0
Zn315 Zn 0.70237 0.77279 0.89623 0.0
O316 O 0.70726 0.77638 0.93897 0.0
C317 C 0.68359 0.74324 0.87387 0.0
O318 O 0.68968 0.74759 0.84821 0.0
O319 O 0.69396 0.78478 0.88377 0.0
C320 C 0.70808 0.76672 0.95321 0.0
O321 O 0.70853 0.75647 0.93872 0.0
C322 C 0.72358 0.76815 0.86679 0.0
O323 O 0.71822 0.75666 0.88318 0.0
O324 O 0.68723 0.75208 0.8948 0.0
C325 C 0.2092 0.90502 0.85506 0.0
O326 O 0.22085 0.91339 0.84022 0.0
O327 O 0.21952 0.94466 0.87251 0.0
Zn328 Zn 0.22054 0.92898 0.8942 0.0
O329 O 0.21764 0.92917 0.93738 0.0
C330 C 0.25035 0.94165 0.87564 0.0
O331 O 0.24747 0.94958 0.85835 0.0
O332 O 0.20669 0.90959 0.87858 0.0
C333 C 0.2279 0.93895 0.95189 0.0
O334 O 0.23832 0.94965 0.93767 0.0
C335 C 0.21007 0.94239 0.85342 0.0
O336 O 0.1996 0.92927 0.84902 0.0
O337 O 0.24043 0.93201 0.891 0.0
C338 C 0.08975 0.30649 0.86818 0.0
O339 O 0.08079 0.30641 0.84866 0.0
O340 O 0.05257 0.27734 0.87786 0.0
Zn341 Zn 0.06465 0.29444 0.90324 0.0
O342 O 0.06206 0.2909 0.94652 0.0
C343 C 0.0494 0.30871 0.88174 0.0
O344 O 0.04061 0.2963 0.8698 0.0
O345 O 0.08519 0.30171 0.89361 0.0
C346 C 0.05225 0.29207 0.95929 0.0
O347 O 0.0427 0.29314 0.94336 0.0
C348 C 0.03976 0.26762 0.88265 0.0
O349 O 0.03347 0.26784 0.90701 0.0
O350 O 0.06033 0.31027 0.89539 0.0
C351 C 0.45209 0.02062 0.95252 0.0
O352 O 0.45749 0.03428 0.94675 0.0
O353 O 0.42911 0.0357 0.96608 0.0
Zn354 Zn 0.42645 0.0204 0.93769 0.0
O355 O 0.43064 0.02668 0.89592 0.0
C356 C 0.39678 0.00322 0.95702 0.0
O357 O 0.40101 0.01132 0.98044 0.0
O358 O 0.4387 0.0123 0.95002 0.0
C359 C 0.42111 0.02794 0.88213 0.0
O360 O 0.41067 0.02787 0.897 0.0
C361 C 0.43341 0.04884 0.96169 0.0
O362 O 0.43692 0.05412 0.93519 0.0
O363 O 0.40587 0.00491 0.93757 0.0
C364 C 0.96269 0.42201 0.95662 0.0
O365 O 0.95016 0.41512 0.94375 0.0
O366 O 0.94286 0.38336 0.96892 0.0
Zn367 Zn 0.96101 0.39547 0.94655 0.0
O368 O 0.95852 0.39552 0.90307 0.0
C369 C 0.98666 0.39486 0.93924 0.0
O370 O 0.98978 0.40653 0.92461 0.0
O371 O 0.96971 0.41561 0.96071 0.0
C372 C 0.95814 0.38542 0.88817 0.0
O373 O 0.95678 0.37412 0.90188 0.0
C374 C 0.93782 0.37 0.97194 0.0
O375 O 0.944 0.36385 0.95826 0.0
O376 O 0.97479 0.38834 0.95267 0.0
C377 C 0.5758 0.54032 0.94424 0.0
O378 O 0.58041 0.53598 0.92215 0.0
O379 O 0.61847 0.56469 0.95253 0.0
Zn380 Zn 0.60223 0.56605 0.93437 0.0
O381 O 0.60016 0.56213 0.89131 0.0
C382 C 0.61618 0.5959 0.95295 0.0
O383 O 0.62372 0.59243 0.97008 0.0
O384 O 0.58357 0.55292 0.95397 0.0
C385 C 0.6089 0.57198 0.87449 0.0
O386 O 0.62013 0.58304 0.88598 0.0
C387 C 0.61747 0.55351 0.964 0.0
O388 O 0.60525 0.54145 0.9627 0.0
O389 O 0.60623 0.58629 0.93758 0.0
C390 C 0.98468 0.55006 0.4763 0.0
O391 O 0.98808 0.56031 0.49549 0.0
O392 O 0.95419 0.5593 0.47239 0.0
Zn393 Zn 0.97118 0.56377 0.44715 0.0
O394 O 0.96774 0.56406 0.40409 0.0
C395 C 0.98522 0.59265 0.46943 0.0
O396 O 0.97221 0.58891 0.47798 0.0
O397 O 0.97732 0.54937 0.45409 0.0
C398 C 0.96834 0.57503 0.39243 0.0
O399 O 0.96925 0.58527 0.40933 0.0
C400 C 0.94269 0.55872 0.46403 0.0
O401 O 0.94088 0.56031 0.43621 0.0
O402 O 0.98746 0.58344 0.45693 0.0
C403 C 0.45938 0.42255 0.43675 0.0
O404 O 0.46541 0.41831 0.41731 0.0
O405 O 0.43898 0.38066 0.44702 0.0
Zn406 Zn 0.43514 0.39481 0.42593 0.0
O407 O 0.43897 0.39645 0.38271 0.0
C408 C 0.40962 0.39558 0.41508 0.0
O409 O 0.41867 0.40699 0.40035 0.0
O410 O 0.4465 0.41414 0.44414 0.0
C411 C 0.42955 0.3869 0.36629 0.0
O412 O 0.41937 0.37517 0.37827 0.0
C413 C 0.42883 0.36787 0.44989 0.0
O414 O 0.41663 0.36399 0.43672 0.0
O415 O 0.41434 0.38877 0.42956 0.0
C416 C 0.57436 0.02392 0.45928 0.0
O417 O 0.58182 0.02118 0.47822 0.0
O418 O 0.61309 0.0527 0.46024 0.0
Zn419 Zn 0.60123 0.03776 0.4305 0.0
O420 O 0.6065 0.04349 0.38865 0.0
C421 C 0.5981 0.0108 0.41707 0.0
O422 O 0.58869 0.01084 0.39892 0.0
O423 O 0.58053 0.03116 0.43662 0.0
C424 C 0.61709 0.0426 0.37919 0.0
O425 O 0.62588 0.042 0.39824 0.0
C426 C 0.62404 0.06485 0.45569 0.0
O427 O 0.62848 0.06889 0.42882 0.0
O428 O 0.60432 0.02102 0.43518 0.0
C429 C 0.20609 0.29731 0.38262 0.0
O430 O 0.20288 0.28915 0.40588 0.0
O431 O 0.22804 0.27677 0.3687 0.0
Zn432 Zn 0.23169 0.29561 0.38523 0.0
O433 O 0.23108 0.29607 0.42905 0.0
C434 C 0.26105 0.30838 0.36508 0.0
O435 O 0.25763 0.29507 0.36016 0.0
O436 O 0.21783 0.30117 0.36955 0.0
C437 C 0.24181 0.29783 0.44377 0.0
O438 O 0.25217 0.29709 0.43035 0.0
C439 C 0.2178 0.26929 0.35131 0.0
O440 O 0.20831 0.27319 0.34573 0.0
O441 O 0.25155 0.31104 0.37443 0.0
C442 C 0.68508 0.90425 0.35236 0.0
O443 O 0.68531 0.91214 0.33031 0.0
O444 O 0.71279 0.94257 0.36086 0.0
Zn445 Zn 0.6953 0.93037 0.38486 0.0
O446 O 0.69791 0.93335 0.42819 0.0
C447 C 0.68221 0.94614 0.36279 0.0
O448 O 0.69552 0.95566 0.3566 0.0
O449 O 0.68892 0.90986 0.37745 0.0
C450 C 0.69664 0.94319 0.44057 0.0
O451 O 0.69611 0.95294 0.42437 0.0
C452 C 0.72468 0.95286 0.36944 0.0
O453 O 0.72661 0.95624 0.39727 0.0
O454 O 0.6795 0.93424 0.37375 0.0
C455 C 0.08097 0.77978 0.37935 0.0
O456 O 0.07338 0.76982 0.36007 0.0
O457 O 0.04094 0.76412 0.38946 0.0
Zn458 Zn 0.05602 0.76327 0.41356 0.0
O459 O 0.05263 0.76236 0.45668 0.0
C460 C 0.06294 0.74131 0.4205 0.0
O461 O 0.07243 0.75088 0.43832 0.0
O462 O 0.07557 0.77937 0.40419 0.0
C463 C 0.04307 0.75025 0.46616 0.0
O464 O 0.03394 0.74095 0.44743 0.0
C465 C 0.04249 0.77541 0.37745 0.0
O466 O 0.05414 0.78766 0.38256 0.0
O467 O 0.05525 0.74467 0.40511 0.0
H468 H 0.29415 0.94244 0.32545 0.0
H469 H 0.30295 0.96781 0.31729 0.0
H470 H 0.26314 0.95769 0.27571 0.0
H471 H 0.25434 0.93224 0.28326 0.0
H472 H 0.28595 0.97478 0.24219 0.0
H473 H 0.29457 0.99689 0.35408 0.0
H474 H 0.30309 0.98647 0.3484 0.0
H475 H 0.28391 0.97799 0.34669 0.0
C476 C 0.28714 0.9456 0.31512 0.0
C477 C 0.27357 0.93531 0.30489 0.0
C478 C 0.29217 0.96014 0.31061 0.0
C479 C 0.28365 0.96465 0.29615 0.0
C480 C 0.26987 0.95443 0.28699 0.0
H481 H 0.31466 0.05597 0.27423 0.0
H482 H 0.29929 0.03057 0.28512 0.0
C483 C 0.26485 0.93989 0.29137 0.0
C484 C 0.28967 0.97986 0.28802 0.0
H485 H 0.30703 0.01372 0.31555 0.0
C486 C 0.29038 0.98329 0.25827 0.0
C487 C 0.29528 0.99094 0.309 0.0
C488 C 0.29405 0.98789 0.34134 0.0
C489 C 0.2971 0.99754 0.24885 0.0
C490 C 0.30351 0.00862 0.26971 0.0
C491 C 0.30225 0.0052 0.29954 0.0
C492 C 0.31212 0.02382 0.26107 0.0
C493 C 0.29733 0.00058 0.21663 0.0
C494 C 0.32438 0.02841 0.24379 0.0
C495 C 0.33315 0.04289 0.23741 0.0
C496 C 0.32989 0.05307 0.24846 0.0
C497 C 0.31745 0.04841 0.26532 0.0
C498 C 0.30867 0.03391 0.27163 0.0
H499 H 0.28839 0.99148 0.20496 0.0
H500 H 0.29662 0.01035 0.21271 0.0
H501 H 0.30749 0.00224 0.20708 0.0
H502 H 0.32742 0.02084 0.23596 0.0
H503 H 0.3427 0.04614 0.22456 0.0
H504 H 0.05739 0.3108 0.2559 0.0
H505 H 0.03195 0.2975 0.24353 0.0
H506 H 0.02484 0.32673 0.29527 0.0
H507 H 0.05013 0.3399 0.30824 0.0
H508 H 0.0034 0.29867 0.30151 0.0
H509 H 0.01531 0.3136 0.18443 0.0
H510 H 0.02358 0.30416 0.19953 0.0
H511 H 0.02865 0.32174 0.21266 0.0
C512 C 0.05037 0.31427 0.26504 0.0
C513 C 0.05581 0.3265 0.28283 0.0
C514 C 0.03587 0.30671 0.25775 0.0
C515 C 0.02661 0.31134 0.26795 0.0
C516 C 0.03185 0.32305 0.28702 0.0
H517 H 0.94932 0.30445 0.20504 0.0
H518 H 0.97388 0.31038 0.21519 0.0
C519 C 0.04631 0.33056 0.29442 0.0
C520 C 0.0116 0.30451 0.25783 0.0
H521 H 0.99106 0.29956 0.19746 0.0
C522 C 0.00066 0.29872 0.27874 0.0
C523 C 0.00814 0.3048 0.22812 0.0
C524 C 0.01951 0.31151 0.20486 0.0
C525 C 0.98634 0.29347 0.27087 0.0
C526 C 0.98286 0.29373 0.24115 0.0
C527 C 0.99377 0.29926 0.22015 0.0
C528 C 0.96813 0.28944 0.23187 0.0
C529 C 0.97516 0.28831 0.29463 0.0
C530 C 0.95681 0.27554 0.23682 0.0
C531 C 0.94274 0.27213 0.23122 0.0
C532 C 0.93978 0.28255 0.22029 0.0
C533 C 0.95122 0.2962 0.21357 0.0
C534 C 0.96527 0.29961 0.21935 0.0
H535 H 0.98 0.29177 0.31665 0.0
H536 H 0.96761 0.29232 0.29102 0.0
H537 H 0.96895 0.27646 0.29441 0.0
H538 H 0.95883 0.26744 0.24583 0.0
H539 H 0.93417 0.26147 0.23635 0.0
H540 H 0.74914 0.68141 0.26531 0.0
H541 H 0.73826 0.69549 0.28084 0.0
H542 H 0.70323 0.67189 0.2213 0.0
H543 H 0.71415 0.65804 0.20516 0.0
H544 H 0.71177 0.70026 0.2222 0.0
H545 H 0.70394 0.67867 0.3352 0.0
H546 H 0.72212 0.68808 0.3227 0.0
H547 H 0.70949 0.67157 0.30556 0.0
C548 C 0.73925 0.67939 0.25514 0.0
C549 C 0.73245 0.66851 0.23416 0.0
C550 C 0.73298 0.68736 0.26425 0.0
C551 C 0.71977 0.68449 0.25274 0.0
C552 C 0.71339 0.67421 0.23062 0.0
H553 H 0.64935 0.69123 0.31282 0.0
H554 H 0.66806 0.68534 0.30355 0.0
C555 C 0.71967 0.66631 0.22138 0.0
C556 C 0.71215 0.69164 0.26432 0.0
H557 H 0.69516 0.69425 0.32492 0.0
C558 C 0.70827 0.6991 0.24473 0.0
C559 C 0.70749 0.68995 0.2937 0.0
C560 C 0.71085 0.68155 0.31551 0.0
C561 C 0.69946 0.70454 0.25341 0.0
C562 C 0.69471 0.70277 0.28272 0.0
C563 C 0.69894 0.69569 0.30256 0.0
C564 C 0.6842 0.70693 0.29231 0.0
C565 C 0.69471 0.71144 0.2307 0.0
C566 C 0.68724 0.72114 0.29024 0.0
C567 C 0.67652 0.72453 0.29529 0.0
C568 C 0.66262 0.71378 0.30281 0.0
C569 C 0.65991 0.69975 0.30692 0.0
C570 C 0.6706 0.69636 0.30165 0.0
H571 H 0.69682 0.70919 0.20814 0.0
H572 H 0.68312 0.70764 0.23281 0.0
H573 H 0.70064 0.72319 0.23388 0.0
H574 H 0.69777 0.72952 0.28372 0.0
H575 H 0.67899 0.73548 0.29226 0.0
H576 H 0.67707 0.9332 0.72994 0.0
H577 H 0.69184 0.9587 0.71935 0.0
H578 H 0.66369 0.96734 0.77124 0.0
H579 H 0.64903 0.94193 0.78241 0.0
H580 H 0.68332 0.97503 0.69032 0.0
H581 H 0.70256 0.99756 0.80043 0.0
H582 H 0.69463 0.97871 0.79273 0.0
H583 H 0.68349 0.98646 0.79914 0.0
C584 C 0.67417 0.94055 0.73957 0.0
C585 C 0.6619 0.93554 0.75711 0.0
C586 C 0.6826 0.95511 0.73341 0.0
C587 C 0.67896 0.96493 0.74478 0.0
C588 C 0.66689 0.95999 0.76279 0.0
H589 H 0.69387 0.04542 0.68085 0.0
H590 H 0.68591 0.02022 0.68902 0.0
C591 C 0.65848 0.94545 0.76904 0.0
C592 C 0.68712 0.98017 0.7361 0.0
H593 H 0.70402 0.01404 0.76356 0.0
C594 C 0.68803 0.98358 0.7063 0.0
C595 C 0.69343 0.99129 0.75691 0.0
C596 C 0.69362 0.98833 0.78906 0.0
C597 C 0.69455 0.99782 0.69683 0.0
C598 C 0.70004 0.00892 0.71779 0.0
C599 C 0.69968 0.00552 0.7475 0.0
C600 C 0.70555 0.02406 0.70971 0.0
C601 C 0.69544 0.00083 0.6645 0.0
C602 C 0.71924 0.03462 0.71862 0.0
C603 C 0.72378 0.04907 0.71425 0.0
C604 C 0.71467 0.05322 0.70097 0.0
C605 C 0.70119 0.0426 0.69098 0.0
C606 C 0.69664 0.02816 0.6955 0.0
H607 H 0.6952 0.99199 0.65164 0.0
H608 H 0.68609 0.00182 0.65781 0.0
H609 H 0.70532 0.01094 0.65892 0.0
H610 H 0.72627 0.0317 0.72971 0.0
H611 H 0.73423 0.05698 0.72219 0.0
H612 H 0.07241 0.74666 0.7142 0.0
H613 H 0.04725 0.73783 0.70251 0.0
H614 H 0.03497 0.70154 0.75889 0.0
H615 H 0.05998 0.71044 0.77127 0.0
H616 H 0.0297 0.71274 0.67525 0.0
H617 H 0.00665 0.71389 0.78225 0.0
H618 H 0.02566 0.72343 0.77551 0.0
H619 H 0.01656 0.70466 0.78414 0.0
C620 C 0.06433 0.73695 0.72459 0.0
C621 C 0.06819 0.72926 0.74372 0.0
C622 C 0.04997 0.73191 0.71782 0.0
C623 C 0.03923 0.71911 0.73004 0.0
C624 C 0.04304 0.71162 0.74971 0.0
H625 H 0.95855 0.65477 0.66688 0.0
H626 H 0.98382 0.67155 0.67565 0.0
C627 C 0.05737 0.71669 0.75666 0.0
C628 C 0.02418 0.71288 0.7204 0.0
H629 H 0.99006 0.69823 0.74594 0.0
C630 C 0.02105 0.70977 0.69064 0.0
C631 C 0.0129 0.70921 0.74039 0.0
C632 C 0.01562 0.71311 0.7723 0.0
C633 C 0.0069 0.70242 0.68054 0.0
C634 C 0.99559 0.69783 0.70086 0.0
C635 C -0.00126 0.7016 0.7304 0.0
C636 C 0.98046 0.68838 0.69242 0.0
C637 C 0.00422 0.69953 0.64827 0.0
C638 C 0.97016 0.69224 0.69898 0.0
C639 C 0.95566 0.68261 0.69424 0.0
C640 C 0.95121 0.6689 0.68299 0.0
C641 C 0.96161 0.66526 0.67543 0.0
C642 C 0.97609 0.67489 0.68027 0.0
H643 H 0.01341 0.70754 0.63517 0.0
H644 H 0.00283 0.68885 0.64331 0.0
H645 H 0.99442 0.69962 0.6413 0.0
H646 H 0.9733 0.70259 0.70849 0.0
H647 H 0.94793 0.68575 0.70031 0.0
H648 H 0.34601 0.31031 0.69114 0.0
H649 H 0.32818 0.31748 0.69956 0.0
H650 H 0.29851 0.27521 0.73119 0.0
H651 H 0.31642 0.26797 0.72337 0.0
H652 H 0.30048 0.30734 0.67973 0.0
H653 H 0.30199 0.30093 0.79999 0.0
H654 H 0.31498 0.30062 0.77573 0.0
H655 H 0.29741 0.28525 0.77869 0.0
C656 C 0.33565 0.30247 0.6996 0.0
C657 C 0.3327 0.28862 0.70693 0.0
C658 C 0.32546 0.30659 0.70437 0.0
C659 C 0.31214 0.29695 0.71654 0.0
C660 C 0.30885 0.28289 0.72237 0.0
H661 H 0.24808 0.32421 0.73112 0.0
H662 H 0.25871 0.30922 0.72167 0.0
C663 C 0.31907 0.27876 0.71771 0.0
C664 C 0.30208 0.30198 0.72428 0.0
H665 H 0.28691 0.30915 0.78246 0.0
C666 C 0.29737 0.30761 0.70213 0.0
C667 C 0.29821 0.30244 0.75361 0.0
C668 C 0.30347 0.29711 0.77847 0.0
C669 C 0.28917 0.31404 0.70857 0.0
C670 C 0.28535 0.31456 0.73792 0.0
C671 C 0.28976 0.3086 0.75998 0.0
C672 C 0.27796 0.32244 0.74643 0.0
C673 C 0.28523 0.32078 0.68406 0.0
C674 C 0.28493 0.3344 0.76476 0.0
C675 C 0.27882 0.34288 0.77051 0.0
C676 C 0.26563 0.33956 0.75799 0.0
C677 C 0.25831 0.32712 0.74094 0.0
C678 C 0.2644 0.31859 0.73533 0.0
H679 H 0.29158 0.32215 0.66401 0.0
H680 H 0.27377 0.3138 0.67856 0.0
H681 H 0.28686 0.33138 0.69065 0.0
H682 H 0.29538 0.33751 0.77368 0.0
H683 H 0.28474 0.35237 0.78378 0.0
H684 H 0.02141 0.37755 0.53076 0.0
H685 H 0.00113 0.35345 0.53587 0.0
H686 H 0.9735 0.37067 0.55406 0.0
H687 H 0.99388 0.39493 0.54969 0.0
H688 H 0.9708 0.35184 0.59457 0.0
H689 H 0.96719 0.3279 0.48626 0.0
H690 H 0.98503 0.33577 0.50029 0.0
H691 H 0.97744 0.34694 0.49239 0.0
C692 C 0.01098 0.37624 0.53526 0.0
C693 C 0.00928 0.38817 0.53994 0.0
C694 C -0.00066 0.36242 0.53797 0.0
C695 C 0.98574 0.36023 0.54496 0.0
C696 C 0.98389 0.37212 0.5485 0.0
H697 H 0.91931 0.2701 0.55827 0.0
H698 H 0.93064 0.29544 0.54564 0.0
C699 C 0.99555 0.38597 0.54596 0.0
C700 C 0.97393 0.34563 0.55167 0.0
H701 H 0.95745 0.31129 0.5268 0.0
C702 C 0.96767 0.34301 0.57952 0.0
C703 C 0.96962 0.33414 0.53192 0.0
C704 C 0.97507 0.33636 0.50094 0.0
C705 C 0.95792 0.3291 0.58879 0.0
C706 C 0.95462 0.31748 0.56995 0.0
C707 C 0.96014 0.32018 0.54143 0.0
C708 C 0.94648 0.30244 0.58002 0.0
C709 C 0.95146 0.32698 0.61884 0.0
C710 C 0.95147 0.29798 0.60382 0.0
C711 C 0.94497 0.28354 0.61124 0.0
C712 C 0.93345 0.27323 0.59473 0.0
C713 C 0.92812 0.27777 0.57153 0.0
C714 C 0.93461 0.29224 0.5642 0.0
H715 H 0.95082 0.3365 0.62582 0.0
H716 H 0.94058 0.31746 0.61967 0.0
H717 H 0.95835 0.32548 0.63477 0.0
H718 H 0.96083 0.30559 0.61589 0.0
H719 H 0.94941 0.28041 0.62907 0.0
H720 H 0.5959 0.58747 0.59025 0.0
H721 H 0.6215 0.60054 0.60094 0.0
H722 H 0.626 0.63666 0.55201 0.0
H723 H 0.60045 0.62363 0.54084 0.0
H724 H 0.64774 0.63032 0.54131 0.0
H725 H 0.63925 0.63347 0.66017 0.0
H726 H 0.6305 0.61572 0.64524 0.0
H727 H 0.62512 0.62823 0.63367 0.0
C728 C 0.60235 0.59814 0.58149 0.0
C729 C 0.59612 0.60455 0.56484 0.0
C730 C 0.61696 0.60562 0.58781 0.0
C731 C 0.62556 0.61965 0.57774 0.0
C732 C 0.6195 0.62586 0.56012 0.0
H733 H 0.70701 0.68798 0.63447 0.0
H734 H 0.68172 0.67121 0.62526 0.0
C735 C 0.6049 0.61839 0.55375 0.0
C736 C 0.64081 0.62803 0.58602 0.0
H737 H 0.66314 0.64296 0.64435 0.0
C738 C 0.65113 0.63304 0.56383 0.0
C739 C 0.64514 0.63169 0.61542 0.0
C740 C 0.63445 0.62713 0.64003 0.0
C741 C 0.66572 0.64165 0.57023 0.0
C742 C 0.67006 0.64514 0.59965 0.0
C743 C 0.65975 0.64012 0.62186 0.0
C744 C 0.68523 0.65464 0.60759 0.0
C745 C 0.6763 0.6473 0.54537 0.0
C746 C 0.69549 0.65067 0.60156 0.0
C747 C 0.70996 0.66023 0.60675 0.0
C748 C 0.71438 0.6739 0.61819 0.0
C749 C 0.70397 0.67756 0.62553 0.0
C750 C 0.68952 0.66799 0.6203 0.0
H751 H 0.67098 0.64626 0.52402 0.0
H752 H 0.68438 0.65872 0.54889 0.0
H753 H 0.682 0.64115 0.54418 0.0
H754 H 0.69234 0.64029 0.59226 0.0
H755 H 0.71769 0.65704 0.60103 0.0
H756 H 0.35925 0.08443 0.58649 0.0
H757 H 0.37179 0.0723 0.56883 0.0
H758 H 0.34456 0.03557 0.6217 0.0
H759 H 0.33217 0.04769 0.63993 0.0
H760 H 0.37259 0.04179 0.62166 0.0
H761 H 0.35299 0.04024 0.50868 0.0
H762 H 0.36319 0.05779 0.5242 0.0
H763 H 0.34619 0.04525 0.53974 0.0
C764 C 0.35609 0.07387 0.59476 0.0
C765 C 0.34461 0.06697 0.61441 0.0
C766 C 0.3632 0.06692 0.58444 0.0
C767 C 0.35886 0.05292 0.59343 0.0
C768 C 0.34799 0.04634 0.61434 0.0
H769 H 0.36263 0.9832 0.51656 0.0
H770 H 0.35734 0.00181 0.53104 0.0
C771 C 0.34093 0.0533 0.62477 0.0
C772 C 0.3651 0.04477 0.58017 0.0
H773 H 0.36751 0.02995 0.51608 0.0
C774 C 0.37162 0.0393 0.59854 0.0
C775 C 0.36359 0.04138 0.55004 0.0
C776 C 0.35601 0.04634 0.52949 0.0
C777 C 0.37645 0.03031 0.58774 0.0
C778 C 0.37503 0.027 0.55758 0.0
C779 C 0.36874 0.03267 0.5391 0.0
C780 C 0.37887 0.01667 0.54536 0.0
C781 C 0.38241 0.02392 0.60897 0.0
C782 C 0.39287 0.01911 0.54745 0.0
C783 C 0.39592 0.00844 0.53936 0.0
C784 C 0.38504 0.99522 0.52877 0.0
C785 C 0.37125 0.99323 0.52476 0.0
C786 C 0.3682 0.00385 0.53303 0.0
H787 H 0.37978 0.02496 0.63196 0.0
H788 H 0.37822 0.01242 0.60422 0.0
H789 H 0.39422 0.02955 0.6069 0.0
H790 H 0.40133 0.02907 0.55624 0.0
H791 H 0.40669 0.01037 0.54245 0.0
H792 H 0.37674 0.385 0.03321 0.0
H793 H 0.36525 0.36006 0.04876 0.0
H794 H 0.403 0.36889 0.09737 0.0
H795 H 0.41451 0.39395 0.08238 0.0
H796 H 0.37236 0.3388 0.04317 0.0
H797 H 0.37166 0.35303 0.15956 0.0
H798 H 0.37587 0.36568 0.13025 0.0
H799 H 0.38905 0.36143 0.143 0.0
C800 C 0.38268 0.38162 0.04691 0.0
C801 C 0.39649 0.39149 0.0568 0.0
C802 C 0.37609 0.36736 0.05579 0.0
C803 C 0.38318 0.36272 0.07468 0.0
C804 C 0.39724 0.37235 0.08331 0.0
H805 H 0.34677 0.27186 0.11588 0.0
H806 H 0.36356 0.29662 0.10233 0.0
C807 C 0.40383 0.38664 0.07455 0.0
C808 C 0.37555 0.34794 0.08617 0.0
H809 H 0.36244 0.32861 0.14888 0.0
C810 C 0.37026 0.33654 0.06629 0.0
C811 C 0.37268 0.34508 0.11632 0.0
C812 C 0.37749 0.35693 0.13856 0.0
C813 C 0.36204 0.32234 0.0757 0.0
C814 C 0.3593 0.31947 0.10589 0.0
C815 C 0.36471 0.33086 0.1258 0.0
C816 C 0.34998 0.30479 0.11698 0.0
C817 C 0.35589 0.31057 0.05314 0.0
C818 C 0.33712 0.30135 0.13107 0.0
C819 C 0.32757 0.28725 0.13914 0.0
C820 C 0.33071 0.27635 0.13323 0.0
C821 C 0.34396 0.27998 0.12053 0.0
C822 C 0.35354 0.2941 0.11258 0.0
H823 H 0.35628 0.31478 0.03082 0.0
H824 H 0.36218 0.305 0.053 0.0
H825 H 0.34463 0.30258 0.05835 0.0
H826 H 0.33423 0.30948 0.13485 0.0
H827 H 0.31748 0.28484 0.14897 0.0
H828 H 0.61471 0.99088 0.05467 0.0
H829 H 0.6399 0.00366 0.06832 0.0
H830 H 0.63146 0.02773 0.13252 0.0
H831 H 0.6061 0.01472 0.11945 0.0
H832 H 0.66017 0.0316 0.06798 0.0
H833 H 0.65026 0.01028 0.18114 0.0
H834 H 0.63632 0.00395 0.15398 0.0
H835 H 0.64189 0.0206 0.17253 0.0
C836 C 0.61821 -0.00101 0.07149 0.0
C837 C 0.60838 0.00171 0.08612 0.0
C838 C 0.63262 0.00628 0.0793 0.0
C839 C 0.6375 0.01644 0.10181 0.0
C840 C 0.62785 0.01969 0.11553 0.0
H841 H 0.72999 0.06865 0.1293 0.0
H842 H 0.70483 0.06171 0.12349 0.0
C843 C 0.61339 0.01233 0.10786 0.0
C844 C 0.65265 0.02332 0.11108 0.0
H845 H 0.67429 0.02644 0.16836 0.0
C846 C 0.66328 0.03057 0.08998 0.0
C847 C 0.65663 0.0218 0.13974 0.0
C848 C 0.64568 0.01362 0.1631 0.0
C849 C 0.67778 0.03609 0.09652 0.0
C850 C 0.68178 0.03465 0.12521 0.0
C851 C 0.67117 0.02764 0.14649 0.0
C852 C 0.69681 0.03934 0.13281 0.0
C853 C 0.68862 0.04285 0.07229 0.0
C854 C 0.70057 0.02921 0.14165 0.0
C855 C 0.71491 0.03316 0.14539 0.0
C856 C 0.72575 0.04732 0.14022 0.0
C857 C 0.72189 0.05762 0.1331 0.0
C858 C 0.70753 0.05367 0.12961 0.0
H859 H 0.68352 0.04014 0.05038 0.0
H860 H 0.69426 0.05464 0.0747 0.0
H861 H 0.6967 0.03936 0.07328 0.0
H862 H 0.69243 0.0181 0.14441 0.0
H863 H 0.71751 0.02498 0.15099 0.0
H864 H 0.91898 0.66289 0.03286 0.0
H865 H 0.9283 0.64711 0.02003 0.0
H866 H 0.95862 0.66462 0.09081 0.0
H867 H 0.9492 0.68019 0.10414 0.0
H868 H 0.95494 0.65512 0.0021 0.0
H869 H 0.94329 0.62245 0.10196 0.0
H870 H 0.93514 0.63322 0.09472 0.0
H871 H 0.95279 0.64116 0.11034 0.0
C872 C 0.92742 0.66316 0.04611 0.0
C873 C 0.9333 0.67274 0.06965 0.0
C874 C 0.93276 0.65416 0.03867 0.0
C875 C 0.944 0.65452 0.05473 0.0
C876 C 0.94969 0.66388 0.07857 0.0
H877 H 0.01175 0.64026 0.0076 0.0
H878 H 0.99464 0.64862 0.0124 0.0
C879 C 0.94434 0.67284 0.08607 0.0
C880 C 0.95061 0.64601 0.04533 0.0
H881 H 0.96201 0.62378 0.07106 0.0
C882 C 0.95628 0.64808 0.01701 0.0
C883 C 0.95213 0.63661 0.06456 0.0
C884 C 0.94537 0.63311 0.09447 0.0
C885 C 0.96414 0.64162 0.00798 0.0
C886 C 0.96662 0.63313 0.02803 0.0
C887 C 0.96026 0.63043 0.05577 0.0
C888 C 0.97652 0.62772 0.02159 0.0
C889 C 0.96978 0.64406 0.97714 0.0
C890 C 0.97207 0.61319 0.0253 0.0
C891 C 0.98189 0.6084 0.02296 0.0
C892 C 0.99636 0.61807 0.01692 0.0
C893 C 0.00067 0.63251 0.01209 0.0
C894 C 0.99087 0.63731 0.01464 0.0
H895 H 0.963 0.64628 0.96221 0.0
H896 H 0.9807 0.65351 0.97672 0.0
H897 H 0.9703 0.63469 0.96872 0.0
H898 H 0.96107 0.60562 0.03081 0.0
H899 H 0.97822 0.59719 0.02677 0.0
H900 H 0.63761 0.61941 0.98015 0.0
H901 H 0.64673 0.64448 0.96741 0.0
H902 H 0.61425 0.63179 0.9011 0.0
H903 H 0.60491 0.60676 0.91396 0.0
H904 H 0.65756 0.65588 0.91343 0.0
H905 H 0.61244 0.66445 0.94158 0.0
H906 H 0.61369 0.6494 0.955 0.0
H907 H 0.60753 0.64927 0.91847 0.0
C908 C 0.63223 0.62196 0.96325 0.0
C909 C 0.62055 0.61108 0.94805 0.0
C910 C 0.63747 0.63629 0.95596 0.0
C911 C 0.6311 0.64 0.93347 0.0
C912 C 0.61916 0.62919 0.9189 0.0
H913 H 0.6758 0.72045 0.83704 0.0
H914 H 0.66192 0.69502 0.84961 0.0
C915 C 0.61388 0.61487 0.92621 0.0
C916 C 0.63768 0.65502 0.9236 0.0
H917 H 0.63131 0.68267 0.91357 0.0
C918 C 0.65184 0.66176 0.91352 0.0
C919 C 0.63019 0.66265 0.92384 0.0
C920 C 0.61516 0.65614 0.93555 0.0
C921 C 0.65873 0.67593 0.90363 0.0
C922 C 0.65115 0.68347 0.90327 0.0
C923 C 0.63701 0.67677 0.91347 0.0
C924 C 0.65812 0.69865 0.89436 0.0
C925 C 0.67419 0.68283 0.8944 0.0
C926 C 0.66002 0.70903 0.91497 0.0
C927 C 0.66783 0.7235 0.90785 0.0
C928 C 0.67388 0.72789 0.87989 0.0
C929 C 0.67136 0.71743 0.85879 0.0
C930 C 0.6635 0.70291 0.86598 0.0
H931 H 0.6793 0.67668 0.90203 0.0
H932 H 0.67482 0.68337 0.87021 0.0
H933 H 0.6804 0.6939 0.90301 0.0
H934 H 0.65589 0.70596 0.93695 0.0
H935 H 0.66948 0.73126 0.92461 0.0
H936 H 0.37415 0.99717 0.99286 0.0
H937 H 0.34873 0.9837 0.98038 0.0
H938 H 0.35926 0.97484 0.89497 0.0
H939 H 0.38457 0.98795 0.9074 0.0
H940 H 0.33653 0.99094 0.93725 0.0
H941 H 0.32648 0.9361 0.91772 0.0
H942 H 0.34224 0.94951 0.93636 0.0
H943 H 0.34137 0.94929 0.89711 0.0
C944 C 0.37104 0.9921 0.97164 0.0
C945 C 0.38139 0.99365 0.95113 0.0
C946 C 0.35651 0.98443 0.96454 0.0
C947 C 0.35209 0.97813 0.93686 0.0
C948 C 0.36239 0.9793 0.91668 0.0
H949 H 0.27454 0.96236 0.84884 0.0
H950 H 0.29933 0.97049 0.86265 0.0
C951 C 0.37688 0.9869 0.9238 0.0
C952 C 0.33691 0.97158 0.92803 0.0
H953 H 0.30893 0.94144 0.89904 0.0
C954 C 0.33046 0.98008 0.92914 0.0
C955 C 0.32898 0.95738 0.91762 0.0
C956 C 0.33508 0.94749 0.91739 0.0
C957 C 0.31639 0.97486 0.91959 0.0
C958 C 0.30867 0.96088 0.90796 0.0
C959 C 0.31498 0.95225 0.90748 0.0
C960 C 0.29386 0.95493 0.89719 0.0
C961 C 0.30985 0.98431 0.92241 0.0
C962 C 0.28266 0.94304 0.91104 0.0
C963 C 0.26851 0.93828 0.90302 0.0
C964 C 0.26532 0.94534 0.88098 0.0
C965 C 0.27662 0.95677 0.86605 0.0
C966 C 0.29078 0.96148 0.87403 0.0
H967 H 0.31575 0.99309 0.93836 0.0
H968 H 0.31021 0.98922 0.90091 0.0
H969 H 0.2985 0.97804 0.92939 0.0
H970 H 0.28483 0.93779 0.92883 0.0
H971 H 0.26006 0.92941 0.91491 0.0
H972 H 0.02498 0.3076 0.86189 0.0
H973 H 0.01727 0.32503 0.87046 0.0
H974 H 0.05715 0.35278 0.91396 0.0
H975 H 0.06487 0.3353 0.90596 0.0
H976 H 0.03412 0.34809 0.94639 0.0
H977 H 0.02859 0.36345 0.83387 0.0
H978 H 0.01906 0.34446 0.83922 0.0
H979 H 0.03825 0.35423 0.84206 0.0
C980 C 0.03223 0.31752 0.87281 0.0
C981 C 0.04553 0.32003 0.8833 0.0
C982 C 0.02783 0.32751 0.87757 0.0
C983 C 0.0367 0.34026 0.89258 0.0
C984 C 0.05016 0.34302 0.90224 0.0
H985 H 0.01236 0.40577 0.91128 0.0
H986 H 0.02609 0.39379 0.90197 0.0
C987 C 0.05456 0.33302 0.89759 0.0
C988 C 0.03142 0.35013 0.90034 0.0
H989 H 0.01675 0.36902 0.87159 0.0
C990 C 0.03048 0.35282 0.93002 0.0
C991 C 0.02685 0.35642 0.87898 0.0
C992 C 0.02836 0.35462 0.84674 0.0
C993 C 0.0246 0.3612 0.93896 0.0
C994 C 0.01928 0.36681 0.91765 0.0
C995 C 0.02071 0.36458 0.88793 0.0
C996 C 0.01168 0.37456 0.92563 0.0
C997 C 0.02415 0.36396 0.97113 0.0
C998 C -0.0009 0.36777 0.94225 0.0
C999 C 0.99126 0.37462 0.94777 0.0
C1000 C 0.9958 0.38833 0.93647 0.0
C1001 C 0.00859 0.39523 0.92036 0.0
C1002 C 0.01643 0.38839 0.91495 0.0
H1003 H 0.03242 0.36285 0.98341 0.0
H1004 H 0.02576 0.37481 0.97505 0.0
H1005 H 0.01355 0.35601 0.98001 0.0
H1006 H 0.99506 0.35698 0.95017 0.0
H1007 H 0.98141 0.36895 0.96004 0.0
H1008 H 0.04094 0.71827 0.3936 0.0
H1009 H 0.03215 0.69312 0.40408 0.0
H1010 H 0.06736 0.7047 0.46324 0.0
H1011 H 0.07604 0.73001 0.45352 0.0
H1012 H 0.04275 0.67533 0.39902 0.0
H1013 H 0.03315 0.68204 0.51563 0.0
H1014 H 0.03867 0.69626 0.48936 0.0
H1015 H 0.05151 0.69208 0.5046 0.0
C1016 C 0.04696 0.7155 0.40854 0.0
C1017 C 0.05912 0.72616 0.42296 0.0
C1018 C 0.0419 0.7011 0.41452 0.0
C1019 C 0.04893 0.69705 0.4349 0.0
C1020 C 0.06159 0.70761 0.44794 0.0
H1021 H 0.01345 0.60418 0.45456 0.0
H1022 H 0.03115 0.62956 0.44904 0.0
C1023 C 0.0666 0.72206 0.44217 0.0
C1024 C 0.04243 0.68181 0.44329 0.0
H1025 H 0.02657 0.65875 0.50018 0.0
C1026 C 0.03934 0.67168 0.42119 0.0
C1027 C 0.03788 0.67711 0.47223 0.0
C1028 C 0.04034 0.68741 0.49679 0.0
C1029 C 0.03137 0.65698 0.42694 0.0
C1030 C 0.0267 0.65228 0.45581 0.0
C1031 C 0.03025 0.6624 0.47813 0.0
C1032 C 0.01682 0.63703 0.46265 0.0
C1033 C 0.02734 0.64665 0.40174 0.0
C1034 C 0.00318 0.63286 0.47369 0.0
C1035 C 0.99313 0.61843 0.4773 0.0
C1036 C 0.99653 0.60786 0.46979 0.0
C1037 C 0.01046 0.61207 0.46024 0.0
C1038 C 0.02056 0.62655 0.45688 0.0
H1039 H 0.02914 0.6521 0.38029 0.0
H1040 H 0.03396 0.64145 0.40246 0.0
H1041 H 0.01593 0.63817 0.40314 0.0
H1042 H 9e-05 0.64078 0.47843 0.0
H1043 H 0.98253 0.61557 0.48482 0.0
H1044 H 0.272 0.33669 0.378 0.0
H1045 H 0.29719 0.35494 0.38273 0.0
H1046 H 0.30949 0.32432 0.35608 0.0
H1047 H 0.28438 0.30606 0.35089 0.0
H1048 H 0.31569 0.35322 0.42102 0.0
H1049 H 0.33637 0.35931 0.30827 0.0
H1050 H 0.3175 0.35085 0.31633 0.0
H1051 H 0.32681 0.34099 0.31979 0.0
C1052 C 0.28006 0.3339 0.37257 0.0
C1053 C 0.27618 0.3199 0.36414 0.0
C1054 C 0.29444 0.34435 0.37532 0.0
C1055 C 0.3052 0.34102 0.36949 0.0
C1056 C 0.30137 0.3272 0.36011 0.0
H1057 H 0.38808 0.37165 0.44069 0.0
H1058 H 0.36254 0.36027 0.43034 0.0
C1059 C 0.28699 0.31674 0.35732 0.0
C1060 C 0.32033 0.35152 0.37592 0.0
H1061 H 0.35386 0.36746 0.34676 0.0
C1062 C 0.32402 0.35651 0.40468 0.0
C1063 C 0.33116 0.35595 0.35452 0.0
C1064 C 0.32776 0.35161 0.32293 0.0
C1065 C 0.33833 0.36527 0.41295 0.0
C1066 C 0.34921 0.36892 0.39197 0.0
C1067 C 0.34549 0.36452 0.36289 0.0
C1068 C 0.36453 0.37654 0.40004 0.0
C1069 C 0.34167 0.37042 0.44411 0.0
C1070 C 0.37413 0.38943 0.38629 0.0
C1071 C 0.38877 0.39595 0.39208 0.0
C1072 C 0.39405 0.3896 0.41152 0.0
C1073 C 0.38436 0.37686 0.42574 0.0
C1074 C 0.36974 0.37037 0.41996 0.0
H1075 H 0.33247 0.37054 0.45466 0.0
H1076 H 0.344 0.36305 0.45677 0.0
H1077 H 0.35115 0.38131 0.44535 0.0
H1078 H 0.37031 0.39431 0.37071 0.0
H1079 H 0.39596 0.40573 0.38066 0.0
H1080 H 0.68549 0.97238 0.35102 0.0
H1081 H 0.66776 0.97987 0.35723 0.0
H1082 H 0.63576 0.9366 0.37846 0.0
H1083 H 0.65355 0.92904 0.37306 0.0
H1084 H 0.64179 0.97229 0.33274 0.0
H1085 H 0.63597 0.95845 0.45079 0.0
H1086 H 0.64985 0.9587 0.42851 0.0
H1087 H 0.6319 0.94386 0.4265 0.0
C1088 C 0.67464 0.9644 0.35666 0.0
C1089 C 0.67098 0.95016 0.36197 0.0
C1090 C 0.66451 0.96871 0.36018 0.0
C1091 C 0.65053 0.95885 0.36894 0.0
C1092 C 0.64659 0.94444 0.3724 0.0
H1093 H 0.5879 0.98824 0.37911 0.0
H1094 H 0.59875 0.97368 0.36723 0.0
C1095 C 0.65675 0.94013 0.36912 0.0
C1096 C 0.64045 0.96395 0.37602 0.0
H1097 H 0.62221 0.96806 0.43253 0.0
C1098 C 0.6374 0.97128 0.35448 0.0
C1099 C 0.63489 0.96274 0.40452 0.0
C1100 C 0.63839 0.95563 0.42902 0.0
C1101 C 0.62921 0.97774 0.36082 0.0
C1102 C 0.62365 0.97652 0.38933 0.0
C1103 C 0.6264 0.96887 0.41065 0.0
C1104 C 0.61608 0.98418 0.39825 0.0
C1105 C 0.62715 0.98632 0.33725 0.0
C1106 C 0.62181 0.99439 0.42063 0.0
C1107 C 0.61553 0.00256 0.42778 0.0
C1108 C 0.6034 0.0007 0.4126 0.0
C1109 C 0.59728 0.98999 0.39111 0.0
C1110 C 0.60353 0.98174 0.38412 0.0
H1111 H 0.63505 0.98921 0.31932 0.0
H1112 H 0.61632 0.97983 0.3277 0.0
H1113 H 0.62806 0.99629 0.34621 0.0
H1114 H 0.63146 0.9964 0.43192 0.0
H1115 H 0.62051 0.01071 0.44443 0.0
H1116 H 0.30932 0.08169 0.53821 0.0
H1117 H 0.31993 0.08667 0.4894 0.0
H1118 H 0.32256 0.04816 0.49312 0.0
H1119 H 0.31178 0.04297 0.5416 0.0
H1120 H 0.34714 0.09098 0.4774 0.0
H1121 H 0.30597 0.046 0.41192 0.0
H1122 H 0.30217 0.05083 0.44717 0.0
H1123 H 0.31099 0.04048 0.44468 0.0
C1124 C 0.31184 0.0741 0.52836 0.0
C1125 C 0.30967 0.06192 0.54379 0.0
C1126 C 0.31796 0.077 0.50054 0.0
C1127 C 0.32194 0.06774 0.48759 0.0
C1128 C 0.31932 0.05531 0.50248 0.0
H1129 H 0.36683 0.06758 0.33196 0.0
H1130 H 0.35644 0.06373 0.38076 0.0
C1131 C 0.31317 0.05238 0.53024 0.0
C1132 C 0.32981 0.07159 0.45956 0.0
H1133 H 0.32892 0.05975 0.39013 0.0
C1134 C 0.34312 0.08422 0.45822 0.0
C1135 C 0.32455 0.06271 0.43468 0.0
C1136 C 0.31008 0.04931 0.4345 0.0
C1137 C 0.35147 0.08807 0.43277 0.0
C1138 C 0.34626 0.07912 0.40799 0.0
C1139 C 0.33291 0.06654 0.40928 0.0
C1140 C 0.35434 0.08262 0.38025 0.0
C1141 C 0.36592 0.10149 0.43281 0.0
C1142 C 0.35694 0.09473 0.36413 0.0
C1143 C 0.36293 0.097 0.33622 0.0
C1144 C 0.36631 0.08713 0.3239 0.0
C1145 C 0.36435 0.0754 0.34076 0.0
C1146 C 0.35836 0.07314 0.36862 0.0
H1147 H 0.36982 0.10521 0.45534 0.0
H1148 H 0.37393 0.09974 0.42114 0.0
H1149 H 0.36511 0.11011 0.42136 0.0
H1150 H 0.35372 0.10206 0.37256 0.0
H1151 H 0.36423 0.10611 0.32379 0.0
H1152 H 0.92756 0.22974 0.51773 0.0
H1153 H 0.92285 0.23867 0.4725 0.0
H1154 H 0.9596 0.28014 0.48812 0.0
H1155 H 0.96444 0.27138 0.53353 0.0
H1156 H 0.91952 0.2656 0.47673 0.0
H1157 H 0.96023 0.2686 0.3978 0.0
H1158 H 0.95376 0.25584 0.42743 0.0
H1159 H 0.96547 0.27442 0.43494 0.0
C1160 C 0.93488 0.24066 0.51124 0.0
C1161 C 0.94633 0.24987 0.52937 0.0
C1162 C 0.93212 0.24574 0.48546 0.0
C1163 C 0.94085 0.26004 0.4772 0.0
C1164 C 0.95281 0.26904 0.49417 0.0
H1165 H 0.93168 0.30068 0.32045 0.0
H1166 H 0.94007 0.29775 0.36813 0.0
C1167 C 0.95556 0.26399 0.52006 0.0
C1168 C 0.93664 0.26579 0.4523 0.0
H1169 H 0.94389 0.27532 0.38076 0.0
C1170 C 0.92487 0.26782 0.45575 0.0
C1171 C 0.94382 0.26887 0.42528 0.0
C1172 C 0.95652 0.26682 0.42084 0.0
C1173 C 0.91985 0.27256 0.43249 0.0
C1174 C 0.92661 0.275 0.40497 0.0
C1175 C 0.93871 0.27344 0.40188 0.0
C1176 C 0.92071 0.27807 0.37853 0.0
C1177 C 0.90737 0.27489 0.43764 0.0
C1178 C 0.90688 0.26819 0.36894 0.0
C1179 C 0.90201 0.26986 0.34181 0.0
C1180 C 0.91096 0.28137 0.32357 0.0
C1181 C 0.9245 0.2917 0.33394 0.0
C1182 C 0.92936 0.29002 0.36114 0.0
H1183 H 0.90667 0.27733 0.46095 0.0
H1184 H 0.90816 0.28374 0.42397 0.0
H1185 H 0.89731 0.26498 0.43198 0.0
H1186 H 0.90011 0.25874 0.38171 0.0
H1187 H 0.89154 0.26169 0.33448 0.0
H1188 H 0.76952 0.69608 0.5114 0.0
H1189 H 0.7641 0.68503 0.46309 0.0
H1190 H 0.7243 0.68526 0.46201 0.0
H1191 H 0.72963 0.6964 0.51026 0.0
H1192 H 0.73893 0.65776 0.45574 0.0
H1193 H 0.74034 0.69814 0.37839 0.0
H1194 H 0.74938 0.70297 0.41327 0.0
H1195 H 0.73036 0.69555 0.41145 0.0
C1196 C 0.75979 0.69415 0.5006 0.0
C1197 C 0.74994 0.697 0.51483 0.0
C1198 C 0.7567 0.6878 0.47301 0.0
C1199 C 0.74381 0.68434 0.45904 0.0
C1200 C 0.73439 0.68802 0.47229 0.0
H1201 H 0.70328 0.63624 0.30122 0.0
H1202 H 0.70796 0.64879 0.34785 0.0
C1203 C 0.73745 0.69435 0.49993 0.0
C1204 C 0.73948 0.67535 0.43248 0.0
H1205 H 0.73137 0.67467 0.3603 0.0
C1206 C 0.73733 0.66146 0.43481 0.0
C1207 C 0.73718 0.68016 0.40543 0.0
C1208 C 0.73952 0.69505 0.40175 0.0
C1209 C 0.73293 0.6522 0.41077 0.0
C1210 C 0.73095 0.6571 0.38351 0.0
C1211 C 0.73291 0.67094 0.38125 0.0
C1212 C 0.72736 0.64825 0.35678 0.0
C1213 C 0.73021 0.63719 0.41495 0.0
C1214 C 0.7366 0.64359 0.34658 0.0
C1215 C 0.7339 0.63631 0.32006 0.0
C1216 C 0.72199 0.63371 0.30307 0.0
C1217 C 0.71249 0.63797 0.31385 0.0
C1218 C 0.71519 0.64523 0.3404 0.0
H1219 H 0.72787 0.63378 0.43814 0.0
H1220 H 0.72114 0.62944 0.40128 0.0
H1221 H 0.73991 0.63678 0.40852 0.0
H1222 H 0.74621 0.64606 0.35858 0.0
H1223 H 0.7415 0.63331 0.3123 0.0
H1224 H 0.06474 0.35755 0.20074 0.0
H1225 H 0.05786 0.34446 0.15455 0.0
H1226 H 0.09706 0.34306 0.15433 0.0
H1227 H 0.10403 0.35606 0.20062 0.0
H1228 H 0.07242 0.35041 0.09915 0.0
H1229 H 0.06474 0.30046 0.15062 0.0
H1230 H 0.06585 0.31515 0.17157 0.0
H1231 H 0.08179 0.3161 0.15729 0.0
C1232 C 0.07202 0.35467 0.19067 0.0
C1233 C 0.08489 0.35776 0.20448 0.0
C1234 C 0.06804 0.34715 0.16433 0.0
C1235 C 0.07682 0.34255 0.15146 0.0
C1236 C 0.09001 0.34628 0.16431 0.0
H1237 H 0.07356 0.29579 0.99691 0.0
H1238 H 0.0784 0.30694 0.04515 0.0
C1239 C 0.09402 0.35382 0.19062 0.0
C1240 C 0.07203 0.33358 0.12492 0.0
H1241 H 0.06295 0.30046 0.09899 0.0
C1242 C 0.07026 0.33947 0.09908 0.0
C1243 C 0.0692 0.3193 0.12509 0.0
C1244 C 0.07036 0.31229 0.15265 0.0
C1245 C 0.06609 0.33156 0.07308 0.0
C1246 C 0.06336 0.31731 0.07317 0.0
C1247 C 0.06502 0.31138 0.09908 0.0
C1248 C 0.05927 0.30863 0.04619 0.0
C1249 C 0.06505 0.33867 0.04553 0.0
C1250 C 0.04656 0.30525 0.03156 0.0
C1251 C 0.04376 0.29889 0.00399 0.0
C1252 C 0.05362 0.29576 0.99068 0.0
C1253 C 0.06579 0.29813 0.00646 0.0
C1254 C 0.06859 0.30453 0.03401 0.0
H1255 H 0.07056 0.35048 0.04777 0.0
H1256 H 0.06974 0.33598 0.0267 0.0
H1257 H 0.05363 0.33479 0.0406 0.0
H1258 H 0.03909 0.30806 0.04095 0.0
H1259 H 0.03421 0.29707 0.99256 0.0
H1260 H 0.63647 0.74048 0.18938 0.0
H1261 H 0.64867 0.74834 0.1424 0.0
H1262 H 0.65962 0.71506 0.14598 0.0
H1263 H 0.64734 0.70702 0.1928 0.0
H1264 H 0.67805 0.75814 0.13634 0.0
H1265 H 0.64577 0.7127 0.06173 0.0
H1266 H 0.63895 0.71498 0.09607 0.0
H1267 H 0.65075 0.70776 0.09532 0.0
C1268 C 0.64116 0.73459 0.17986 0.0
C1269 C 0.641 0.72316 0.19493 0.0
C1270 C 0.64818 0.73915 0.15307 0.0
C1271 C 0.65503 0.73228 0.14075 0.0
C1272 C 0.65424 0.72039 0.15494 0.0
H1273 H 0.70857 0.74706 0.9898 0.0
H1274 H 0.69728 0.73989 0.03772 0.0
C1275 C 0.64721 0.71582 0.18174 0.0
C1276 C 0.66406 0.7383 0.11449 0.0
H1277 H 0.66847 0.73056 0.04443 0.0
C1278 C 0.67593 0.75216 0.11615 0.0
C1279 C 0.6613 0.73042 0.08834 0.0
C1280 C 0.64843 0.71569 0.08505 0.0
C1281 C 0.68526 0.75829 0.09242 0.0
C1282 C 0.6825 0.7504 0.06628 0.0
C1283 C 0.67062 0.73655 0.06462 0.0
C1284 C 0.6915 0.75636 0.03993 0.0
C1285 C 0.69814 0.77301 0.09574 0.0
C1286 C 0.69245 0.76834 0.02581 0.0
C1287 C 0.69899 0.77254 -0.00154 0.0
C1288 C 0.70451 0.76469 0.98466 0.0
C1289 C 0.70437 0.75329 -0.00023 0.0
C1290 C 0.69788 0.74914 0.02711 0.0
H1291 H 0.70089 0.77591 0.11907 0.0
H1292 H 0.70758 0.77377 0.08442 0.0
H1293 H 0.69576 0.78098 0.08584 0.0
H1294 H 0.68741 0.77394 0.03512 0.0
H1295 H 0.69886 0.78133 0.98737 0.0
H1296 H 0.24248 0.8842 0.18845 0.0
H1297 H 0.23639 0.89039 0.14139 0.0
H1298 H 0.27498 0.93146 0.14403 0.0
H1299 H 0.28108 0.92547 0.19132 0.0
H1300 H 0.25055 0.93327 0.13542 0.0
H1301 H 0.25187 0.89417 0.05878 0.0
H1302 H 0.24123 0.8862 0.09077 0.0
H1303 H 0.2602 0.89783 0.09432 0.0
C1304 C 0.24986 0.89442 0.17872 0.0
C1305 C 0.26223 0.90438 0.19375 0.0
C1306 C 0.24637 0.89792 0.15175 0.0
C1307 C 0.25526 0.91137 0.1392 0.0
C1308 C 0.26798 0.92103 0.1534 0.0
H1309 H 0.25008 0.95627 0.98778 0.0
H1310 H 0.25589 0.94996 0.03499 0.0
C1311 C 0.27147 0.91756 0.18037 0.0
C1312 C 0.25065 0.91585 0.11272 0.0
H1313 H 0.24112 0.90734 0.04136 0.0
C1314 C 0.24857 0.92766 0.11479 0.0
C1315 C 0.24798 0.90845 0.08593 0.0
C1316 C 0.25055 0.89604 0.08214 0.0
C1317 C 0.24371 0.93216 0.09085 0.0
C1318 C 0.24104 0.92475 0.06409 0.0
C1319 C 0.24309 0.91293 0.06202 0.0
C1320 C 0.23659 0.92934 0.03757 0.0
C1321 C 0.24125 0.94465 0.09452 0.0
C1322 C 0.2237 0.91993 0.02359 0.0
C1323 C 0.22034 0.92349 0.99655 0.0
C1324 C 0.2299 0.93648 0.98288 0.0
C1325 C 0.24246 0.9462 0.99771 0.0
C1326 C 0.24579 0.94263 0.02475 0.0
H1327 H 0.24012 0.94668 0.11788 0.0
H1328 H 0.25053 0.9544 0.08547 0.0
H1329 H 0.23153 0.94281 0.08257 0.0
H1330 H 0.21646 0.90962 0.03316 0.0
H1331 H 0.21059 0.91575 0.98574 0.0
H1332 H 0.63103 0.8873 0.67839 0.0
H1333 H 0.64386 0.89485 0.63196 0.0
H1334 H 0.63857 0.93184 0.63087 0.0
H1335 H 0.62565 0.92438 0.67718 0.0
H1336 H 0.63462 0.91757 0.57529 0.0
H1337 H 0.68526 0.92991 0.63095 0.0
H1338 H 0.67053 0.91216 0.63682 0.0
H1339 H 0.66963 0.92726 0.65061 0.0
C1340 C 0.63232 0.89689 0.66801 0.0
C1341 C 0.62745 0.90533 0.68166 0.0
C1342 C 0.63976 0.90124 0.64162 0.0
C1343 C 0.64243 0.91406 0.62847 0.0
C1344 C 0.63672 0.92198 0.64091 0.0
H1345 H 0.68866 0.95961 0.47198 0.0
H1346 H 0.67657 0.95375 0.51931 0.0
C1347 C 0.62931 0.91766 0.66733 0.0
C1348 C 0.65176 0.91959 0.60252 0.0
H1349 H 0.68601 0.93194 0.57938 0.0
C1350 C 0.64586 0.92078 0.57614 0.0
C1351 C 0.66644 0.92384 0.60391 0.0
C1352 C 0.67342 0.92337 0.63212 0.0
C1353 C 0.6542 0.92574 0.55075 0.0
C1354 C 0.66887 0.92987 0.55206 0.0
C1355 C 0.67478 0.9288 0.57854 0.0
C1356 C 0.67802 0.93468 0.52575 0.0
C1357 C 0.64716 0.92613 0.52256 0.0
C1358 C 0.68359 0.92637 0.51467 0.0
C1359 C 0.69061 0.92974 0.48777 0.0
C1360 C 0.69218 0.94149 0.47153 0.0
C1361 C 0.68754 0.95042 0.4838 0.0
C1362 C 0.68052 0.94703 0.51073 0.0
H1363 H 0.63531 0.91971 0.52391 0.0
H1364 H 0.65014 0.93734 0.51761 0.0
H1365 H 0.6508 0.92206 0.50414 0.0
H1366 H 0.68189 0.91687 0.52613 0.0
H1367 H 0.69414 0.9227 0.47906 0.0
H1368 H 0.06182 0.76608 0.50939 0.0
H1369 H 0.06925 0.75692 0.55068 0.0
H1370 H 0.0374 0.71386 0.528 0.0
H1371 H 0.02983 0.72282 0.48666 0.0
H1372 H 0.0491 0.73335 0.59918 0.0
H1373 H 0.08089 0.71991 0.52278 0.0
H1374 H 0.07942 0.73566 0.51692 0.0
H1375 H 0.06416 0.71837 0.51153 0.0
C1376 C 0.05615 0.75468 0.51357 0.0
C1377 C 0.04529 0.74518 0.49462 0.0
C1378 C 0.06044 0.74948 0.53709 0.0
C1379 C 0.05397 0.73474 0.54195 0.0
C1380 C 0.04254 0.72527 0.52433 0.0
H1381 H 0.07091 0.69376 0.68783 0.0
H1382 H 0.06027 0.69716 0.64365 0.0
C1383 C 0.03819 0.73045 0.50086 0.0
C1384 C 0.05985 0.72926 0.56424 0.0
H1385 H 0.08299 0.71666 0.57314 0.0
C1386 C 0.05637 0.72953 0.59357 0.0
C1387 C 0.06945 0.72449 0.55661 0.0
C1388 C 0.07379 0.72453 0.52529 0.0
C1389 C 0.06242 0.72526 0.61569 0.0
C1390 C 0.07202 0.72046 0.60812 0.0
C1391 C 0.07545 0.72014 0.57873 0.0
C1392 C 0.07925 0.7167 0.6309 0.0
C1393 C 0.05897 0.72645 0.64713 0.0
C1394 C 0.09368 0.72612 0.63727 0.0
C1395 C 0.09982 0.72422 0.66248 0.0
C1396 C 0.09159 0.71285 0.68168 0.0
C1397 C 0.07753 0.70269 0.67366 0.0
C1398 C 0.0714 0.70462 0.64848 0.0
H1399 H 0.05283 0.73213 0.64939 0.0
H1400 H 0.05255 0.7156 0.65658 0.0
H1401 H 0.06896 0.73221 0.66009 0.0
H1402 H 0.0999 0.73546 0.62379 0.0
H1403 H 0.1107 0.7322 0.6679 0.0
H1404 H 0.22387 0.30357 0.47578 0.0
H1405 H 0.22947 0.31719 0.52125 0.0
H1406 H 0.27048 0.31952 0.52456 0.0
H1407 H 0.26496 0.30581 0.47923 0.0
H1408 H 0.256 0.31409 0.57952 0.0
H1409 H 0.25885 0.36058 0.52115 0.0
H1410 H 0.24247 0.34394 0.51633 0.0
H1411 H 0.2589 0.34593 0.50228 0.0
C1412 C 0.23399 0.30676 0.4864 0.0
C1413 C 0.24405 0.30374 0.47369 0.0
C1414 C 0.23721 0.31464 0.51227 0.0
C1415 C 0.25052 0.31963 0.5258 0.0
C1416 C 0.2602 0.31587 0.51423 0.0
H1417 H 0.29319 0.37187 0.67748 0.0
H1418 H 0.28768 0.35854 0.63172 0.0
C1419 C 0.25701 0.308 0.48836 0.0
C1420 C 0.2546 0.32928 0.55132 0.0
H1421 H 0.26144 0.36242 0.57251 0.0
C1422 C 0.25722 0.32467 0.57803 0.0
C1423 C 0.25622 0.34308 0.54918 0.0
C1424 C 0.25409 0.34878 0.52067 0.0
C1425 C 0.26117 0.33341 0.6029 0.0
C1426 C 0.26283 0.34724 0.60074 0.0
C1427 C 0.26019 0.35184 0.57403 0.0
C1428 C 0.26703 0.35695 0.62621 0.0
C1429 C 0.26327 0.32767 0.63138 0.0
C1430 C 0.25766 0.36125 0.63721 0.0
C1431 C 0.26085 0.36905 0.66319 0.0
C1432 C 0.27349 0.37264 0.67856 0.0
C1433 C 0.28331 0.36917 0.66632 0.0
C1434 C 0.28013 0.36144 0.64031 0.0
H1435 H 0.25819 0.31584 0.63106 0.0
H1436 H 0.27487 0.33218 0.63525 0.0
H1437 H 0.2588 0.33079 0.64996 0.0
H1438 H 0.24756 0.35802 0.62643 0.0
H1439 H 0.25306 0.37156 0.67198 0.0
H1440 H 0.92443 0.71028 -0.00077 0.0
H1441 H 0.91927 0.69778 0.95246 0.0
H1442 H 0.959 0.69753 0.95757 0.0
H1443 H 0.96421 0.70986 0.00454 0.0
H1444 H 0.93397 0.70377 0.89942 0.0
H1445 H 0.92891 0.65494 0.95129 0.0
H1446 H 0.92949 0.66938 0.9722 0.0
H1447 H 0.94567 0.67093 0.95778 0.0
C1448 C 0.93222 0.70781 0.99019 0.0
C1449 C 0.94467 0.71093 0.00579 0.0
C1450 C 0.92921 0.70061 0.96352 0.0
C1451 C 0.93857 0.69639 0.95205 0.0
C1452 C 0.95147 0.70036 0.9665 0.0
H1453 H 0.93827 0.6513 0.79635 0.0
H1454 H 0.94299 0.66261 0.84442 0.0
C1455 C 0.95449 0.70755 0.99319 0.0
C1456 C 0.93461 0.6875 0.92537 0.0
H1457 H 0.92744 0.65491 0.89953 0.0
C1458 C 0.93248 0.69307 0.89943 0.0
C1459 C 0.93265 0.67352 0.9256 0.0
C1460 C 0.93416 0.66675 0.95323 0.0
C1461 C 0.92869 0.68514 0.87347 0.0
C1462 C 0.92676 0.67118 0.87366 0.0
C1463 C 0.92889 0.66559 0.89958 0.0
C1464 C 0.92293 0.66247 0.84676 0.0
C1465 C 0.92709 0.69186 0.84589 0.0
C1466 C 0.9098 0.65807 0.83288 0.0
C1467 C 0.90704 0.65159 0.80542 0.0
C1468 C 0.91739 0.64941 0.79145 0.0
C1469 C 0.93011 0.65291 0.80641 0.0
C1470 C 0.93284 0.65938 0.83388 0.0
H1471 H 0.93188 0.70362 0.84809 0.0
H1472 H 0.93219 0.68963 0.82712 0.0
H1473 H 0.91556 0.68723 0.84087 0.0
H1474 H 0.90192 0.66015 0.84279 0.0
H1475 H 0.8971 0.64893 0.7946 0.0
H1476 H 0.30471 0.2242 0.02761 0.0
H1477 H 0.31422 0.2317 0.97838 0.0
H1478 H 0.31012 0.26924 0.98704 0.0
H1479 H 0.30078 0.26195 0.03651 0.0
H1480 H 0.30414 0.23855 0.92769 0.0
H1481 H 0.35303 0.2856 0.9716 0.0
H1482 H 0.34051 0.27121 0.99461 0.0
H1483 H 0.33645 0.2845 0.98176 0.0
C1484 C 0.3056 0.23393 0.01891 0.0
C1485 C 0.30218 0.24258 0.03616 0.0
C1486 C 0.31106 0.23821 0.99078 0.0
C1487 C 0.31321 0.2512 0.97943 0.0
C1488 C 0.30886 0.25934 0.99573 0.0
H1489 H 0.35262 0.29566 0.81778 0.0
H1490 H 0.34188 0.28922 0.8664 0.0
C1491 C 0.30341 0.25509 0.0239 0.0
C1492 C 0.32063 0.25647 0.95116 0.0
H1493 H 0.35125 0.28299 0.9203 0.0
C1494 C 0.31442 0.24826 0.92603 0.0
C1495 C 0.33407 0.26915 0.94917 0.0
C1496 C 0.3415 0.27809 0.97571 0.0
C1497 C 0.32126 0.25244 0.89885 0.0
C1498 C 0.33478 0.26501 0.89693 0.0
C1499 C 0.34091 0.27333 0.92196 0.0
C1500 C 0.34267 0.26964 0.86902 0.0
C1501 C 0.3139 0.24347 0.87232 0.0
C1502 C 0.34723 0.26106 0.85504 0.0
C1503 C 0.3534 0.26471 0.82732 0.0
C1504 C 0.35515 0.27704 0.81314 0.0
C1505 C 0.35138 0.28607 0.82803 0.0
C1506 C 0.34521 0.2824 0.85578 0.0
H1507 H 0.30228 0.23626 0.87613 0.0
H1508 H 0.31529 0.25032 0.85311 0.0
H1509 H 0.3187 0.23674 0.86701 0.0
H1510 H 0.34563 0.25132 0.86524 0.0
H1511 H 0.35627 0.25757 0.81656 0.0
H1512 H 0.74205 0.10333 0.8187 0.0
H1513 H 0.74728 0.09717 0.86666 0.0
H1514 H 0.70898 0.05592 0.86191 0.0
H1515 H 0.70378 0.06186 0.81362 0.0
H1516 H 0.73276 0.08867 0.91924 0.0
H1517 H 0.7403 0.04557 0.87165 0.0
H1518 H 0.73885 0.05858 0.84943 0.0
H1519 H 0.7231 0.04374 0.86473 0.0
C1520 C 0.7346 0.09303 0.82801 0.0
C1521 C 0.7226 0.083 0.81213 0.0
C1522 C 0.73763 0.08952 0.85541 0.0
C1523 C 0.72873 0.07595 0.86742 0.0
C1524 C 0.7162 0.06631 0.85262 0.0
H1525 H 0.7342 0.03658 0.02841 0.0
H1526 H 0.72732 0.04133 0.98062 0.0
C1527 C 0.71318 0.06977 0.82514 0.0
C1528 C 0.73294 0.07174 0.89481 0.0
H1529 H 0.74209 0.04811 0.92306 0.0
C1530 C 0.73481 0.07981 0.92009 0.0
C1531 C 0.73566 0.06021 0.89575 0.0
C1532 C 0.73451 0.05158 0.86891 0.0
C1533 C 0.73921 0.07658 0.94642 0.0
C1534 C 0.74196 0.06509 0.94731 0.0
C1535 C 0.73997 0.05693 0.92216 0.0
C1536 C 0.74687 0.06143 0.97436 0.0
C1537 C 0.74074 0.08537 0.9732 0.0
C1538 C 0.76039 0.07088 0.98592 0.0
C1539 C 0.76441 0.06818 0.01311 0.0
C1540 C 0.75492 0.05599 0.02921 0.0
C1541 C 0.74173 0.0461 0.01666 0.0
C1542 C 0.73775 0.0488 0.98939 0.0
H1543 H 0.7355 0.0919 0.97037 0.0
H1544 H 0.73606 0.07838 0.9926 0.0
H1545 H 0.75226 0.09271 0.97762 0.0
H1546 H 0.76764 0.08058 0.97433 0.0
H1547 H 0.77466 0.07598 0.02207 0.0
H1548 H 0.03137 0.43873 0.65509 0.0
H1549 H 0.01844 0.43296 0.70143 0.0
H1550 H 0.01315 0.39068 0.69878 0.0
H1551 H 0.0262 0.39638 0.65268 0.0
H1552 H 0.99012 0.41106 0.70739 0.0
H1553 H 0.02571 0.4031 0.783 0.0
H1554 H 0.03186 0.41231 0.74854 0.0
H1555 H 0.02188 0.39311 0.74964 0.0
C1556 C 0.02774 0.42831 0.66467 0.0
C1557 C 0.02978 0.41799 0.65013 0.0
C1558 C 0.02031 0.42502 0.6911 0.0
C1559 C 0.01489 0.41142 0.70355 0.0
C1560 C 0.01744 0.40131 0.68976 0.0
H1561 H 0.9613 0.36723 0.85159 0.0
H1562 H 0.97374 0.37316 0.80473 0.0
C1563 C 0.02488 0.40459 0.66335 0.0
C1564 C 0.00559 0.40741 0.72963 0.0
H1565 H 0.00207 0.39526 0.79957 0.0
C1566 C 0.99276 0.40769 0.72764 0.0
C1567 C 0.00905 0.40295 0.75588 0.0
C1568 C 0.02293 0.40295 0.75959 0.0
C1569 C 0.98314 0.40338 0.75111 0.0
C1570 C 0.98657 0.39887 0.77732 0.0
C1571 C -0.00057 0.39863 0.77933 0.0
C1572 C 0.97722 0.39468 0.80332 0.0
C1573 C 0.96927 0.40341 0.74748 0.0
C1574 C 0.9747 0.4047 0.8176 0.0
C1575 C 0.96753 0.40133 0.84434 0.0
C1576 C 0.96288 0.38793 0.85737 0.0
C1577 C 0.96474 0.37766 0.84219 0.0
C1578 C 0.9719 0.38103 0.81546 0.0
H1579 H 0.96657 0.40347 0.72409 0.0
H1580 H 0.96032 0.39396 0.75822 0.0
H1581 H 0.97028 0.41316 0.75784 0.0
H1582 H 0.9789 0.41536 0.8088 0.0
H1583 H 0.96633 0.40951 0.8555 0.0
H1584 H 0.5851 0.55213 0.84518 0.0
H1585 H 0.576 0.55547 0.7987 0.0
H1586 H 0.61362 0.597 0.78935 0.0
H1587 H 0.62292 0.59365 0.83534 0.0
H1588 H 0.56954 0.57655 0.78967 0.0
H1589 H 0.6093 0.58108 0.70784 0.0
H1590 H 0.60826 0.57387 0.7439 0.0
H1591 H 0.61745 0.5929 0.73821 0.0
C1592 C 0.59162 0.56181 0.83284 0.0
C1593 C 0.60471 0.57266 0.84404 0.0
C1594 C 0.58637 0.56372 0.80635 0.0
C1595 C 0.59415 0.57645 0.7905 0.0
C1596 C 0.60755 0.58697 0.80091 0.0
H1597 H 0.5813 0.62094 0.64964 0.0
H1598 H 0.58832 0.61378 0.69437 0.0
C1599 C 0.61283 0.58506 0.82732 0.0
C1600 C 0.58771 0.57939 0.76478 0.0
H1601 H 0.59399 0.59021 0.69368 0.0
C1602 C 0.57477 0.57934 0.76855 0.0
C1603 C 0.59458 0.58307 0.7373 0.0
C1604 C 0.60809 0.5826 0.73145 0.0
C1605 C 0.56879 0.58337 0.74583 0.0
C1606 C 0.5759 0.58745 0.71869 0.0
C1607 C 0.58865 0.5872 0.71469 0.0
C1608 C 0.57043 0.59218 0.69406 0.0
C1609 C 0.55518 0.5837 0.75125 0.0
C1610 C 0.5578 0.58249 0.67961 0.0
C1611 C 0.55372 0.58654 0.65399 0.0
C1612 C 0.56227 0.60034 0.64239 0.0
C1613 C 0.57447 0.61024 0.65794 0.0
C1614 C 0.57855 0.60616 0.68344 0.0
H1615 H 0.5525 0.58285 0.77485 0.0
H1616 H 0.55609 0.59372 0.74253 0.0
H1617 H 0.54622 0.5746 0.73974 0.0
H1618 H 0.55147 0.5716 0.68736 0.0
H1619 H 0.54429 0.57864 0.64251 0.0
H1620 H 0.43836 0.02316 0.84567 0.0
H1621 H 0.43279 0.01377 0.79603 0.0
H1622 H 0.39486 0.01752 0.79664 0.0
H1623 H 0.40022 0.02672 0.84653 0.0
H1624 H 0.38939 0.9904 0.78335 0.0
H1625 H 0.4341 0.03027 0.71562 0.0
H1626 H 0.43996 0.02484 0.7473 0.0
H1627 H 0.43034 0.03433 0.75166 0.0
C1628 C 0.42904 0.02237 0.83501 0.0
C1629 C 0.41966 0.02557 0.85019 0.0
C1630 C 0.42589 0.01703 0.80654 0.0
C1631 C 0.41343 0.01498 0.79262 0.0
C1632 C 0.40453 0.01902 0.80702 0.0
H1633 H 0.37166 0.97257 0.63091 0.0
H1634 H 0.37701 0.98385 0.67899 0.0
C1635 C 0.40765 0.02433 0.83551 0.0
C1636 C 0.40888 0.00716 0.76454 0.0
H1637 H 0.41955 0.00719 0.69442 0.0
C1638 C 0.3959 0.99414 0.7638 0.0
C1639 C 0.41745 0.01202 0.73917 0.0
C1640 C 0.43117 0.0262 0.73831 0.0
C1641 C 0.39142 0.98567 0.73853 0.0
C1642 C 0.40009 0.99044 0.71331 0.0
C1643 C 0.41299 0.00352 0.71393 0.0
C1644 C 0.39592 0.98214 0.68581 0.0
C1645 C 0.37766 0.97152 0.73925 0.0
C1646 C 0.40468 0.97727 0.67391 0.0
C1647 C 0.40166 0.97082 0.64641 0.0
C1648 C 0.3899 0.96925 0.63021 0.0
C1649 C 0.38077 0.97355 0.64283 0.0
C1650 C 0.3838 0.97999 0.67034 0.0
H1651 H 0.37408 0.96787 0.76195 0.0
H1652 H 0.36916 0.97267 0.72809 0.0
H1653 H 0.37887 0.96317 0.72761 0.0
H1654 H 0.41409 0.97884 0.68557 0.0
H1655 H 0.40892 0.96764 0.63735 0.0
H1656 H 0.56017 0.96461 0.16102 0.0
H1657 H 0.56924 0.97837 0.20618 0.0
H1658 H 0.61065 0.98298 0.1902 0.0
H1659 H 0.60174 0.9692 0.14515 0.0
H1660 H 0.5863 0.97545 0.2579 0.0
H1661 H 0.61485 0.02469 0.18978 0.0
H1662 H 0.59887 0.00902 0.17705 0.0
H1663 H 0.61534 0.00889 0.17914 0.0
C1664 C 0.5711 0.96821 0.16749 0.0
C1665 C 0.58026 0.9659 0.14935 0.0
C1666 C 0.57626 0.9761 0.19324 0.0
C1667 C 0.59063 0.98181 0.20114 0.0
C1668 C 0.59954 0.9787 0.18424 0.0
H1669 H 0.63284 0.03147 0.3565 0.0
H1670 H 0.62787 0.01759 0.31156 0.0
C1671 C 0.59438 0.97075 0.15859 0.0
C1672 C 0.59656 0.992 0.22565 0.0
H1673 H 0.61638 0.02767 0.24084 0.0
C1674 C 0.59299 0.98685 0.25427 0.0
C1675 C 0.60513 0.00685 0.22061 0.0
C1676 C 0.6088 0.01282 0.19005 0.0
C1677 C 0.5978 0.99624 0.27814 0.0
C1678 C 0.60634 0.01109 0.27309 0.0
C1679 C 0.60994 0.01625 0.24448 0.0
C1680 C 0.61095 0.02137 0.29746 0.0
C1681 C 0.59339 0.99036 0.30862 0.0
C1682 C 0.60346 0.02856 0.30357 0.0
C1683 C 0.60625 0.03651 0.32924 0.0
C1684 C 0.6166 0.0374 0.3491 0.0
C1685 C 0.62482 0.03105 0.34169 0.0
C1686 C 0.62197 0.02305 0.3161 0.0
H1687 H 0.5864 0.97856 0.30881 0.0
H1688 H 0.60302 0.99321 0.32195 0.0
H1689 H 0.58763 0.99527 0.31922 0.0
H1690 H 0.59495 0.02739 0.28927 0.0
H1691 H 0.59975 0.04128 0.33428 0.0
H1692 H 0.9708 0.55765 0.35223 0.0
H1693 H 0.97897 0.56358 0.30178 0.0
H1694 H 0.97978 0.60374 0.31011 0.0
H1695 H 0.97184 0.59803 0.36081 0.0
H1696 H 0.96842 0.57058 0.25284 0.0
H1697 H 0.02095 0.61595 0.28715 0.0
H1698 H 0.00861 0.60285 0.31262 0.0
H1699 H 0.00573 0.61694 0.2998 0.0
C1700 C 0.97252 0.56767 0.34326 0.0
C1701 C 0.97085 0.57746 0.36067 0.0
C1702 C 0.97722 0.57105 0.31443 0.0
C1703 C 0.98032 0.58425 0.30251 0.0
C1704 C 0.9778 0.59365 0.31919 0.0
H1705 H 0.01385 0.62326 0.13374 0.0
H1706 H 0.00504 0.61834 0.18402 0.0
C1707 C 0.97314 0.59031 0.34808 0.0
C1708 C 0.98666 0.58832 0.27298 0.0
H1709 H 0.01662 0.61253 0.23633 0.0
C1710 C 0.97895 0.57974 0.24921 0.0
C1711 C 0.00045 0.60026 0.2684 0.0
C1712 C 0.0095 0.60948 0.29334 0.0
C1713 C 0.9846 0.58286 0.22086 0.0
C1714 C -0.00161 0.59475 0.21632 0.0
C1715 C 0.00606 0.60341 0.24 0.0
C1716 C 0.00498 0.59833 0.187 0.0
C1717 C 0.97571 0.57353 0.1959 0.0
C1718 C 0.00836 0.58896 0.17256 0.0
C1719 C 0.01345 0.59176 0.14391 0.0
C1720 C 0.01524 0.60398 0.12923 0.0
C1721 C 0.01254 0.61372 0.14436 0.0
C1722 C 0.00748 0.61093 0.17306 0.0
H1723 H 0.96426 0.56687 0.20199 0.0
H1724 H 0.97653 0.58011 0.17658 0.0
H1725 H 0.97973 0.56626 0.18951 0.0
H1726 H 0.00674 0.57931 0.18323 0.0
H1727 H 0.0155 0.58407 0.13295 0.0
H1728 H 0.3752 0.40265 0.13321 0.0
H1729 H 0.38221 0.39748 0.18021 0.0
H1730 H 0.42053 0.43881 0.17954 0.0
H1731 H 0.41374 0.44401 0.13212 0.0
H1732 H 0.42587 0.41668 0.18777 0.0
H1733 H 0.38328 0.41107 0.26324 0.0
H1734 H 0.3764 0.40044 0.23085 0.0
H1735 H 0.3862 0.41962 0.22804 0.0
C1736 C 0.38494 0.41082 0.14336 0.0
C1737 C 0.39394 0.42373 0.12883 0.0
C1738 C 0.38891 0.40785 0.17033 0.0
C1739 C 0.40185 0.41779 0.18345 0.0
C1740 C 0.41049 0.431 0.16977 0.0
H1741 H 0.44628 0.41195 0.33691 0.0
H1742 H 0.44047 0.41953 0.2911 0.0
C1743 C 0.40655 0.43397 0.14273 0.0
C1744 C 0.407 0.41381 0.20985 0.0
H1745 H 0.39788 0.40159 0.27967 0.0
C1746 C 0.41984 0.41354 0.20799 0.0
C1747 C 0.39907 0.40965 0.23611 0.0
C1748 C 0.38554 0.41033 0.23985 0.0
C1749 C 0.42477 0.40882 0.23147 0.0
C1750 C 0.41671 0.40442 0.25751 0.0
C1751 C 0.40397 0.40488 0.25953 0.0
C1752 C 0.42125 0.39932 0.2831 0.0
C1753 C 0.43834 0.40821 0.22799 0.0
C1754 C 0.41249 0.38537 0.29346 0.0
C1755 C 0.41578 0.38099 0.31958 0.0
C1756 C 0.42782 0.39055 0.33598 0.0
C1757 C 0.43697 0.4043 0.32476 0.0
C1758 C 0.43367 0.40866 0.29857 0.0
H1759 H 0.44152 0.4089 0.20472 0.0
H1760 H 0.44714 0.41733 0.23984 0.0
H1761 H 0.4371 0.39818 0.23745 0.0
H1762 H 0.40286 0.37802 0.28177 0.0
H1763 H 0.4085 0.37034 0.32757 0.0
H1764 H 0.33119 0.20995 0.12678 0.0
H1765 H 0.34083 0.19407 0.13499 0.0
H1766 H 0.30051 0.16233 0.17152 0.0
H1767 H 0.29063 0.17804 0.16277 0.0
H1768 H 0.34393 0.18354 0.18681 0.0
H1769 H 0.30857 0.13903 0.1129 0.0
H1770 H 0.30978 0.1563 0.11154 0.0
H1771 H 0.29913 0.14355 0.13913 0.0
C1772 C 0.32433 0.19956 0.13643 0.0
C1773 C 0.31013 0.19523 0.14407 0.0
C1774 C 0.32986 0.1905 0.14107 0.0
C1775 C 0.32132 0.17694 0.15343 0.0
C1776 C 0.30717 0.17261 0.16129 0.0
H1777 H 0.33783 0.11081 0.2139 0.0
H1778 H 0.32738 0.12558 0.20089 0.0
C1779 C 0.30158 0.18164 0.15647 0.0
C1780 C 0.32749 0.16767 0.15927 0.0
H1781 H 0.32359 0.13491 0.14464 0.0
C1782 C 0.33954 0.17294 0.17745 0.0
C1783 C 0.32171 0.15385 0.14704 0.0
C1784 C 0.30917 0.14787 0.12635 0.0
C1785 C 0.34585 0.16467 0.18414 0.0
C1786 C 0.34004 0.15084 0.172 0.0
C1787 C 0.32799 0.14554 0.15384 0.0
C1788 C 0.3462 0.14164 0.17843 0.0
C1789 C 0.35848 0.17067 0.20463 0.0
C1790 C 0.36014 0.14567 0.16955 0.0
C1791 C 0.36617 0.13728 0.17698 0.0
C1792 C 0.35832 0.12469 0.19331 0.0
C1793 C 0.34419 0.12048 0.20142 0.0
C1794 C 0.33819 0.12888 0.19398 0.0
H1795 H 0.35959 0.17999 0.2171 0.0
H1796 H 0.35751 0.1624 0.22034 0.0
H1797 H 0.36841 0.17424 0.1918 0.0
H1798 H 0.3664 0.15537 0.15709 0.0
H1799 H 0.37703 0.14075 0.17022 0.0
H1800 H 0.80274 0.11274 0.11318 0.0
H1801 H 0.81879 0.13799 0.12397 0.0
H1802 H 0.80313 0.1313 0.21247 0.0
H1803 H 0.78712 0.10595 0.20203 0.0
H1804 H 0.81122 0.15808 0.14379 0.0
H1805 H 0.84687 0.15154 0.22212 0.0
H1806 H 0.83488 0.13741 0.19792 0.0
H1807 H 0.82812 0.14129 0.2304 0.0
C1808 C 0.80274 0.1166 0.135 0.0
C1809 C 0.7937 0.10733 0.15681 0.0
C1810 C 0.8119 0.13103 0.14108 0.0
C1811 C 0.81224 0.13643 0.16907 0.0
C1812 C 0.80319 0.12725 0.19087 0.0
H1813 H 0.86089 0.22088 0.24525 0.0
H1814 H 0.84397 0.19567 0.23568 0.0
C1815 C 0.79401 0.1128 0.18482 0.0
C1816 C 0.82186 0.15176 0.17517 0.0
H1817 H 0.85049 0.17489 0.21631 0.0
C1818 C 0.81983 0.16179 0.15959 0.0
C1819 C 0.83303 0.15648 0.19584 0.0
C1820 C 0.83598 0.14615 0.21239 0.0
C1821 C 0.82863 0.17649 0.16436 0.0
C1822 C 0.83986 0.18122 0.1849 0.0
C1823 C 0.84184 0.17119 0.20061 0.0
C1824 C 0.84981 0.19656 0.19024 0.0
C1825 C 0.8257 0.18682 0.14774 0.0
C1826 C 0.85874 0.20534 0.16786 0.0
C1827 C 0.86841 0.21975 0.17321 0.0
C1828 C 0.86936 0.22558 0.20112 0.0
C1829 C 0.8604 0.21672 0.2235 0.0
C1830 C 0.85073 0.20232 0.21811 0.0
H1831 H 0.81468 0.18148 0.1387 0.0
H1832 H 0.82719 0.19579 0.16194 0.0
H1833 H 0.8333 0.19134 0.12923 0.0
H1834 H 0.85836 0.20099 0.14635 0.0
H1835 H 0.87521 0.22626 0.15556 0.0
H1836 H 0.77445 0.66005 0.13805 0.0
H1837 H 0.79972 0.66873 0.12781 0.0
H1838 H 0.80208 0.64573 0.20256 0.0
H1839 H 0.77683 0.63688 0.21285 0.0
H1840 H 0.82284 0.68516 0.16609 0.0
H1841 H 0.81977 0.63383 0.13641 0.0
H1842 H 0.80425 0.63602 0.13715 0.0
H1843 H 0.81151 0.63362 0.17058 0.0
C1844 C 0.7803 0.65672 0.15215 0.0
C1845 C 0.77363 0.64775 0.17623 0.0
C1846 C 0.79473 0.66171 0.14629 0.0
C1847 C 0.80268 0.65773 0.16424 0.0
C1848 C 0.79604 0.64871 0.18815 0.0
H1849 H 0.89151 0.67916 0.16954 0.0
H1850 H 0.86619 0.67012 0.17987 0.0
C1851 C 0.78163 0.64372 0.19406 0.0
C1852 C 0.81809 0.66353 0.15876 0.0
H1853 H 0.84296 0.65391 0.14252 0.0
C1854 C 0.82725 0.67835 0.16078 0.0
C1855 C 0.82377 0.65459 0.15203 0.0
C1856 C 0.81432 0.63864 0.14864 0.0
C1857 C 0.84203 0.68448 0.15665 0.0
C1858 C 0.84771 0.67554 0.14981 0.0
C1859 C 0.83855 0.66071 0.14785 0.0
C1860 C 0.86311 0.68138 0.14408 0.0
C1861 C 0.85147 0.70042 0.16021 0.0
C1862 C 0.8697 0.69062 0.12044 0.0
C1863 C 0.88414 0.69582 0.11451 0.0
C1864 C 0.89224 0.69178 0.13201 0.0
C1865 C 0.88559 0.68251 0.1557 0.0
C1866 C 0.87113 0.67732 0.16161 0.0
H1867 H 0.84608 0.70514 0.17291 0.0
H1868 H 0.86163 0.70305 0.17131 0.0
H1869 H 0.85409 0.70552 0.13834 0.0
H1870 H 0.86361 0.69365 0.1063 0.0
H1871 H 0.88891 0.70288 0.09599 0.0
H1872 H 0.11634 0.34126 0.34175 0.0
H1873 H 0.13082 0.33083 0.35731 0.0
H1874 H 0.16023 0.3523 0.2866 0.0
H1875 H 0.14594 0.36291 0.27103 0.0
H1876 H 0.13757 0.31304 0.32391 0.0
H1877 H 0.18634 0.36277 0.35854 0.0
H1878 H 0.16934 0.36187 0.35314 0.0
H1879 H 0.1803 0.3634 0.3223 0.0
C1880 C 0.12596 0.34386 0.32964 0.0
C1881 C 0.13002 0.35295 0.3052 0.0
C1882 C 0.13418 0.33787 0.33853 0.0
C1883 C 0.14665 0.34094 0.32329 0.0
C1884 C 0.15077 0.35002 0.29896 0.0
H1885 H 0.2098 0.31448 0.33578 0.0
H1886 H 0.19472 0.32433 0.32101 0.0
C1887 C 0.14255 0.35602 0.29002 0.0
C1888 C 0.15509 0.33423 0.33222 0.0
H1889 H 0.18811 0.34177 0.35568 0.0
C1890 C 0.1486 0.31929 0.33103 0.0
C1891 C 0.16946 0.34246 0.34143 0.0
C1892 C 0.17676 0.35851 0.34422 0.0
C1893 C 0.15622 0.31234 0.33825 0.0
C1894 C 0.17061 0.32058 0.34728 0.0
C1895 C 0.17707 0.33551 0.34862 0.0
C1896 C 0.17921 0.31395 0.35547 0.0
C1897 C 0.14892 0.2963 0.33549 0.0
C1898 C 0.17544 0.30484 0.37972 0.0
C1899 C 0.18401 0.29917 0.38822 0.0
C1900 C 0.19655 0.3026 0.37269 0.0
C1901 C 0.20021 0.31162 0.3482 0.0
C1902 C 0.19163 0.31727 0.33974 0.0
H1903 H 0.13919 0.29197 0.32164 0.0
H1904 H 0.15628 0.29297 0.32605 0.0
H1905 H 0.14565 0.29143 0.35749 0.0
H1906 H 0.16602 0.30236 0.39244 0.0
H1907 H 0.18094 0.29231 0.40725 0.0
H1908 H 0.68325 0.88528 0.39382 0.0
H1909 H 0.67589 0.86012 0.38723 0.0
H1910 H 0.66892 0.86336 0.29551 0.0
H1911 H 0.67642 0.88866 0.30178 0.0
H1912 H 0.64952 0.83792 0.36557 0.0
H1913 H 0.69561 0.84626 0.29725 0.0
H1914 H 0.69572 0.86043 0.31834 0.0
H1915 H 0.68617 0.85496 0.28434 0.0
C1916 C 0.68019 0.88068 0.3722 0.0
C1917 C 0.68049 0.88899 0.34826 0.0
C1918 C 0.67597 0.8663 0.36852 0.0
C1919 C 0.67205 0.85998 0.34086 0.0
C1920 C 0.67215 0.86815 0.31695 0.0
H1921 H 0.64486 0.77533 0.27545 0.0
H1922 H 0.65126 0.80022 0.28216 0.0
C1923 C 0.67638 0.88257 0.3206 0.0
C1924 C 0.6677 0.84476 0.33724 0.0
H1925 H 0.67704 0.82239 0.30393 0.0
C1926 C 0.65553 0.83449 0.35216 0.0
C1927 C 0.67562 0.84041 0.31976 0.0
C1928 C 0.68908 0.85107 0.30417 0.0
C1929 C 0.65092 0.81988 0.34968 0.0
C1930 C 0.65885 0.81553 0.33223 0.0
C1931 C 0.67101 0.82581 0.3173 0.0
C1932 C 0.65462 0.80033 0.32873 0.0
C1933 C 0.63745 0.80922 0.36524 0.0
C1934 C 0.65447 0.79219 0.35275 0.0
C1935 C 0.65079 0.77791 0.34904 0.0
C1936 C 0.64729 0.77161 0.32119 0.0
C1937 C 0.64749 0.77984 0.29721 0.0
C1938 C 0.65115 0.79408 0.30096 0.0
H1939 H 0.63083 0.81399 0.37178 0.0
H1940 H 0.6309 0.79977 0.35122 0.0
H1941 H 0.64035 0.80549 0.3853 0.0
H1942 H 0.65738 0.79694 0.37428 0.0
H1943 H 0.65079 0.77187 0.3679 0.0
H1944 H 0.09596 0.78333 0.32898 0.0
H1945 H 0.12099 0.80097 0.31936 0.0
H1946 H 0.12458 0.81899 0.40505 0.0
H1947 H 0.09963 0.80134 0.41504 0.0
H1948 H 0.1349 0.83143 0.32097 0.0
H1949 H 0.15724 0.80962 0.40227 0.0
H1950 H 0.13898 0.79967 0.38965 0.0
H1951 H 0.14408 0.81362 0.41622 0.0
C1952 C 0.10206 0.79106 0.34577 0.0
C1953 C 0.09584 0.79087 0.37285 0.0
C1954 C 0.11634 0.80113 0.34022 0.0
C1955 C 0.12464 0.8111 0.36168 0.0
C1956 C 0.11839 0.81119 0.38844 0.0
H1957 H 0.21437 0.87702 0.3676 0.0
H1958 H 0.18901 0.86123 0.37863 0.0
C1959 C 0.10412 0.80114 0.39402 0.0
C1960 C 0.13988 0.82139 0.35607 0.0
H1961 H 0.17365 0.83106 0.3785 0.0
C1962 C 0.14339 0.83137 0.33349 0.0
C1963 C 0.15087 0.82125 0.37257 0.0
C1964 C 0.14767 0.8104 0.39639 0.0
C1965 C 0.15767 0.84132 0.32707 0.0
C1966 C 0.16868 0.84108 0.34336 0.0
C1967 C 0.16516 0.8312 0.36613 0.0
C1968 C 0.18393 0.85073 0.33656 0.0
C1969 C 0.16087 0.85212 0.30315 0.0
C1970 C 0.18945 0.84986 0.30943 0.0
C1971 C 0.20389 0.85882 0.30306 0.0
C1972 C 0.21309 0.86877 0.32381 0.0
C1973 C 0.20755 0.8695 0.35113 0.0
C1974 C 0.19309 0.86051 0.35748 0.0
H1975 H 0.15148 0.85338 0.29828 0.0
H1976 H 0.17003 0.86272 0.30917 0.0
H1977 H 0.16372 0.84847 0.28291 0.0
H1978 H 0.1826 0.84216 0.29324 0.0
H1979 H 0.20782 0.85794 0.28187 0.0
H1980 H 0.64152 0.86408 0.77573 0.0
H1981 H 0.65222 0.84975 0.79031 0.0
H1982 H 0.66352 0.87098 0.87386 0.0
H1983 H 0.65272 0.88532 0.85959 0.0
H1984 H 0.68083 0.85962 0.80767 0.0
H1985 H 0.64178 0.82794 0.89454 0.0
H1986 H 0.63825 0.83791 0.86739 0.0
H1987 H 0.64977 0.84701 0.89776 0.0
C1988 C 0.64622 0.86568 0.79727 0.0
C1989 C 0.64622 0.8758 0.81657 0.0
C1990 C 0.65235 0.8575 0.80551 0.0
C1991 C 0.6585 0.85921 0.83324 0.0
C1992 C 0.65861 0.86935 0.85253 0.0
H1993 H 0.71463 0.82742 0.88866 0.0
H1994 H 0.70449 0.84251 0.87583 0.0
C1995 C 0.65249 0.87757 0.84428 0.0
C1996 C 0.665 0.85051 0.84166 0.0
H1997 H 0.66181 0.82477 0.88922 0.0
C1998 C 0.67671 0.852 0.82551 0.0
C1999 C 0.65946 0.84051 0.86475 0.0
C2000 C 0.64655 0.83811 0.88201 0.0
C2001 C 0.6831 0.84377 0.83196 0.0
C2002 C 0.67771 0.83394 0.85537 0.0
C2003 C 0.66596 0.8324 0.87142 0.0
C2004 C 0.68389 0.82488 0.8631 0.0
C2005 C 0.69535 0.84543 0.81331 0.0
C2006 C 0.67557 0.80998 0.86064 0.0
C2007 C 0.6813 0.80133 0.86801 0.0
C2008 C 0.69544 0.80744 0.87816 0.0
C2009 C 0.70373 0.82239 0.88078 0.0
C2010 C 0.69798 0.83103 0.87335 0.0
H2011 H 0.69607 0.85097 0.7924 0.0
H2012 H 0.70553 0.85185 0.82534 0.0
H2013 H 0.69423 0.83485 0.80837 0.0
H2014 H 0.66465 0.80506 0.85284 0.0
H2015 H 0.67462 0.78986 0.86582 0.0
H2016 H 0.14222 0.7749 0.75951 0.0
H2017 H 0.1581 0.80041 0.76877 0.0
H2018 H 0.13366 0.79758 0.84545 0.0
H2019 H 0.11784 0.77208 0.83662 0.0
H2020 H 0.15085 0.82207 0.77286 0.0
H2021 H 0.17491 0.81666 0.87573 0.0
H2022 H 0.16514 0.80191 0.85096 0.0
H2023 H 0.15572 0.80717 0.87581 0.0
C2024 C 0.14027 0.77969 0.77844 0.0
C2025 C 0.12882 0.77146 0.79744 0.0
C2026 C 0.14934 0.79425 0.78365 0.0
C2027 C 0.14715 0.80079 0.80799 0.0
C2028 C 0.13568 0.79265 0.82685 0.0
H2029 H 0.18469 0.88501 0.88163 0.0
H2030 H 0.16964 0.85994 0.8681 0.0
C2031 C 0.12661 0.77809 0.82169 0.0
C2032 C 0.15667 0.81622 0.81341 0.0
H2033 H 0.17935 0.83996 0.86382 0.0
C2034 C 0.15719 0.82601 0.79261 0.0
C2035 C 0.16491 0.82127 0.83918 0.0
C2036 C 0.16528 0.81122 0.8616 0.0
C2037 C 0.16543 0.8408 0.79737 0.0
C2038 C 0.17345 0.84583 0.8234 0.0
C2039 C 0.1731 0.83603 0.84395 0.0
C2040 C 0.18212 0.86122 0.83013 0.0
C2041 C 0.16517 0.85091 0.77496 0.0
C2042 C 0.19409 0.87023 0.81312 0.0
C2043 C 0.20273 0.88459 0.82077 0.0
C2044 C 0.19958 0.89012 0.84567 0.0
C2045 C 0.18743 0.88109 0.86234 0.0
C2046 C 0.17882 0.86676 0.85468 0.0
H2047 H 0.15614 0.84535 0.75939 0.0
H2048 H 0.16433 0.85967 0.78572 0.0
H2049 H 0.17528 0.85578 0.76231 0.0
H2050 H 0.19693 0.86607 0.79434 0.0
H2051 H 0.21204 0.89126 0.80754 0.0
H2052 H 0.10308 0.31786 0.81622 0.0
H2053 H 0.12839 0.32767 0.80454 0.0
H2054 H 0.1362 0.31828 0.89188 0.0
H2055 H 0.11093 0.30832 0.90372 0.0
H2056 H 0.15208 0.35057 0.83276 0.0
H2057 H 0.15389 0.30017 0.83976 0.0
H2058 H 0.13734 0.30041 0.83681 0.0
H2059 H 0.14646 0.30397 0.87127 0.0
C2060 C 0.11016 0.3178 0.8329 0.0
C2061 C 0.10499 0.31226 0.86086 0.0
C2062 C 0.12461 0.32343 0.82619 0.0
C2063 C 0.13408 0.32351 0.84723 0.0
C2064 C 0.12898 0.31805 0.87518 0.0
H2065 H 0.22505 0.35404 0.85158 0.0
H2066 H 0.19976 0.34434 0.86332 0.0
C2067 C 0.11455 0.31243 0.88193 0.0
C2068 C 0.1494 0.3297 0.84024 0.0
H2069 H 0.17612 0.32166 0.83521 0.0
C2070 C 0.15734 0.34426 0.83314 0.0
C2071 C 0.15619 0.3214 0.84089 0.0
C2072 C 0.14803 0.30559 0.84734 0.0
C2073 C 0.17201 0.35083 0.8271 0.0
C2074 C 0.1788 0.34254 0.82774 0.0
C2075 C 0.17086 0.32797 0.83484 0.0
C2076 C 0.19413 0.34872 0.82076 0.0
C2077 C 0.18017 0.36665 0.8207 0.0
C2078 C 0.19926 0.35427 0.79288 0.0
C2079 C 0.21368 0.35983 0.78611 0.0
C2080 C 0.2232 0.35985 0.80708 0.0
C2081 C 0.218 0.35422 0.83498 0.0
C2082 C 0.20357 0.34866 0.84172 0.0
H2083 H 0.17433 0.37207 0.82842 0.0
H2084 H 0.19088 0.37182 0.83112 0.0
H2085 H 0.18168 0.36828 0.79676 0.0
H2086 H 0.19207 0.35414 0.77623 0.0
H2087 H 0.21732 0.36401 0.76437 0.0
H2088 H 0.88677 0.67064 0.6683 0.0
H2089 H 0.87043 0.67918 0.65468 0.0
H2090 H 0.83461 0.63941 0.68379 0.0
H2091 H 0.85086 0.63081 0.69783 0.0
H2092 H 0.84744 0.66696 0.61501 0.0
H2093 H 0.82939 0.6698 0.72713 0.0
H2094 H 0.84502 0.66827 0.7202 0.0
H2095 H 0.82749 0.65281 0.71753 0.0
C2096 C 0.87542 0.66371 0.67189 0.0
C2097 C 0.87011 0.65007 0.6843 0.0
C2098 C 0.86611 0.66861 0.66407 0.0
C2099 C 0.85137 0.66 0.66864 0.0
C2100 C 0.846 0.64631 0.68063 0.0
H2101 H 0.77839 0.67087 0.63542 0.0
H2102 H 0.79442 0.66186 0.64838 0.0
C2103 C 0.85529 0.6414 0.68849 0.0
C2104 C 0.84159 0.66528 0.66038 0.0
H2105 H 0.81741 0.67374 0.68801 0.0
C2106 C 0.8409 0.66849 0.63095 0.0
C2107 C 0.83309 0.66724 0.68127 0.0
C2108 C 0.83383 0.66448 0.71335 0.0
C2109 C 0.83175 0.67343 0.62174 0.0
C2110 C 0.82327 0.67542 0.64265 0.0
C2111 C 0.82393 0.67218 0.67207 0.0
C2112 C 0.81365 0.6809 0.63448 0.0
C2113 C 0.83102 0.67622 0.58967 0.0
C2114 C 0.8192 0.69465 0.62269 0.0
C2115 C 0.81008 0.69983 0.61523 0.0
C2116 C 0.79526 0.69137 0.61961 0.0
C2117 C 0.78976 0.67764 0.6317 0.0
C2118 C 0.79889 0.67248 0.63914 0.0
H2119 H 0.83535 0.6708 0.57588 0.0
H2120 H 0.81985 0.67255 0.58286 0.0
H2121 H 0.83747 0.68787 0.58549 0.0
H2122 H 0.8306 0.70141 0.61947 0.0
H2123 H 0.81466 0.71048 0.60611 0.0
H2124 H 0.33849 0.22717 0.67979 0.0
H2125 H 0.33059 0.20257 0.66505 0.0
H2126 H 0.35863 0.20019 0.72899 0.0
H2127 H 0.36668 0.22482 0.74386 0.0
H2128 H 0.3596 0.18979 0.67125 0.0
H2129 H 0.30436 0.16661 0.71474 0.0
H2130 H 0.31013 0.18187 0.6913 0.0
H2131 H 0.31874 0.18389 0.72593 0.0
C2132 C 0.34299 0.22143 0.69073 0.0
C2133 C 0.35316 0.22792 0.71311 0.0
C2134 C 0.33841 0.20737 0.68236 0.0
C2135 C 0.3439 0.19956 0.69624 0.0
C2136 C 0.35423 0.20606 0.71817 0.0
H2137 H 0.33097 0.114 0.6754 0.0
H2138 H 0.33943 0.13873 0.68988 0.0
C2139 C 0.3588 0.22011 0.72664 0.0
C2140 C 0.3389 0.18462 0.6877 0.0
H2141 H 0.30944 0.15131 0.68659 0.0
C2142 C 0.34866 0.18134 0.67468 0.0
C2143 C 0.32461 0.17369 0.69221 0.0
C2144 C 0.31385 0.17661 0.70702 0.0
C2145 C 0.34442 0.1674 0.66547 0.0
C2146 C 0.33012 0.15645 0.67002 0.0
C2147 C 0.32038 0.15974 0.68313 0.0
C2148 C 0.32502 0.14149 0.66131 0.0
C2149 C 0.35518 0.16457 0.65036 0.0
C2150 C 0.31386 0.13475 0.64106 0.0
C2151 C 0.30891 0.12058 0.63292 0.0
C2152 C 0.31501 0.1129 0.64501 0.0
C2153 C 0.3261 0.11965 0.66555 0.0
C2154 C 0.33102 0.13381 0.67372 0.0
H2155 H 0.36436 0.17457 0.64175 0.0
H2156 H 0.3594 0.15983 0.66621 0.0
H2157 H 0.35017 0.15693 0.63202 0.0
H2158 H 0.30904 0.14049 0.63139 0.0
H2159 H 0.30034 0.11568 0.61709 0.0
H2160 H 0.89068 0.2112 0.69451 0.0
H2161 H 0.86559 0.19308 0.70191 0.0
H2162 H 0.86167 0.18215 0.61051 0.0
H2163 H 0.88674 0.20007 0.60293 0.0
H2164 H 0.8414 0.19128 0.67465 0.0
H2165 H 0.84624 0.14341 0.65137 0.0
H2166 H 0.86154 0.16075 0.65874 0.0
H2167 H 0.85326 0.15682 0.62333 0.0
C2168 C 0.8845 0.2049 0.67601 0.0
C2169 C 0.89072 0.20702 0.64817 0.0
C2170 C 0.87018 0.19457 0.68028 0.0
C2171 C 0.86187 0.18616 0.65684 0.0
C2172 C 0.868 0.18834 0.62899 0.0
H2173 H 0.77293 0.11978 0.63925 0.0
H2174 H 0.79796 0.13779 0.63041 0.0
C2175 C 0.88231 0.19864 0.62469 0.0
C2176 C 0.84668 0.17536 0.66137 0.0
H2177 H 0.82276 0.13964 0.65674 0.0
C2178 C 0.83731 0.17998 0.67086 0.0
C2179 C 0.84143 0.16065 0.65627 0.0
C2180 C 0.85114 0.15505 0.64711 0.0
C2181 C 0.82274 0.17027 0.67508 0.0
C2182 C 0.8175 0.15556 0.67008 0.0
C2183 C 0.82685 0.15094 0.66046 0.0
C2184 C 0.80239 0.14475 0.6754 0.0
C2185 C 0.81303 0.17585 0.68439 0.0
C2186 C 0.79672 0.14261 0.70367 0.0
C2187 C 0.78248 0.13236 0.7088 0.0
C2188 C 0.77366 0.124 0.68573 0.0
C2189 C 0.77943 0.12607 0.65745 0.0
C2190 C 0.79371 0.13633 0.65236 0.0
H2191 H 0.81789 0.18748 0.68006 0.0
H2192 H 0.80258 0.1701 0.67292 0.0
H2193 H 0.81099 0.17411 0.7082 0.0
H2194 H 0.80335 0.14883 0.72182 0.0
H2195 H 0.7784 0.13099 0.73087 0.0
H2196 H 0.01666 0.44958 0.47463 0.0
H2197 H 0.01011 0.46772 0.46326 0.0
H2198 H 0.02973 0.48974 0.54344 0.0
H2199 H 0.03644 0.47181 0.55487 0.0
H2200 H 0.99253 0.47393 0.49867 0.0
H2201 H 0.0459 0.52189 0.48237 0.0
H2202 H 0.04305 0.50393 0.48128 0.0
H2203 H 0.04424 0.51243 0.51572 0.0
C2204 C 0.01975 0.45839 0.48964 0.0
C2205 C 0.02705 0.45925 0.51566 0.0
C2206 C 0.01599 0.46872 0.48313 0.0
C2207 C 0.01959 0.48013 0.50236 0.0
C2208 C 0.0271 0.48116 0.52805 0.0
H2209 H 0.0006 0.54839 0.521 0.0
H2210 H 0.00885 0.53113 0.52656 0.0
C2211 C 0.03083 0.47084 0.53462 0.0
C2212 C 0.01464 0.49042 0.49672 0.0
H2213 H 0.02625 0.52593 0.48794 0.0
C2214 C -0.00012 0.48528 0.49601 0.0
C2215 C 0.0243 0.50521 0.49346 0.0
C2216 C 0.04026 0.51121 0.49297 0.0
C2217 C 0.99448 0.49462 0.49292 0.0
C2218 C 0.00413 0.50943 0.48996 0.0
C2219 C 0.0189 0.51456 0.49033 0.0
C2220 C -0.0009 0.5198 0.48653 0.0
C2221 C 0.97851 0.4886 0.49372 0.0
C2222 C 0.99102 0.51917 0.46204 0.0
C2223 C 0.98626 0.52896 0.45884 0.0
C2224 C 0.98959 0.53961 0.47999 0.0
C2225 C 0.99781 0.54028 0.50438 0.0
C2226 C 0.00256 0.53047 0.50757 0.0
H2227 H 0.97284 0.47769 0.50325 0.0
H2228 H 0.97576 0.4956 0.50658 0.0
H2229 H 0.97452 0.48795 0.47112 0.0
H2230 H 0.98848 0.51117 0.44531 0.0
H2231 H 0.98003 0.5282 0.43969 0.0
H2232 H 0.50425 0.54484 0.55802 0.0
H2233 H 0.49253 0.52019 0.54033 0.0
H2234 H 0.52982 0.52992 0.48914 0.0
H2235 H 0.5417 0.55454 0.5069 0.0
H2236 H 0.48668 0.5107 0.48184 0.0
H2237 H 0.52228 0.49425 0.5358 0.0
H2238 H 0.52174 0.51008 0.54636 0.0
H2239 H 0.53135 0.51023 0.51422 0.0
C2240 C 0.50998 0.54174 0.54307 0.0
C2241 C 0.52392 0.55163 0.53395 0.0
C2242 C 0.50327 0.52766 0.533 0.0
C2243 C 0.51041 0.52322 0.51381 0.0
C2244 C 0.52425 0.53309 0.50442 0.0
H2245 H 0.48668 0.44362 0.42441 0.0
H2246 H 0.49909 0.46813 0.44313 0.0
C2247 C 0.53098 0.54717 0.51445 0.0
C2248 C 0.5032 0.50835 0.50296 0.0
H2249 H 0.50539 0.47792 0.50194 0.0
C2250 C 0.49072 0.5035 0.48632 0.0
C2251 C 0.50856 0.49905 0.50881 0.0
C2252 C 0.52165 0.50359 0.52748 0.0
C2253 C 0.48353 0.48959 0.47496 0.0
C2254 C 0.48886 0.48027 0.48089 0.0
C2255 C 0.50137 0.48513 0.49746 0.0
C2256 C 0.4815 0.46537 0.47026 0.0
C2257 C 0.47045 0.48508 0.45627 0.0
C2258 C 0.46763 0.45568 0.47983 0.0
C2259 C 0.46052 0.44171 0.46921 0.0
C2260 C 0.46719 0.43716 0.44893 0.0
C2261 C 0.48123 0.44681 0.43993 0.0
C2262 C 0.48834 0.4608 0.45059 0.0
H2263 H 0.46988 0.49443 0.44782 0.0
H2264 H 0.4703 0.47851 0.43748 0.0
H2265 H 0.46073 0.47851 0.46957 0.0
H2266 H 0.46229 0.45894 0.49546 0.0
H2267 H 0.44974 0.43452 0.47674 0.0
H2268 H 0.55809 0.00865 0.50589 0.0
H2269 H 0.53257 -0.00035 0.51353 0.0
H2270 H 0.53038 0.01804 0.43146 0.0
H2271 H 0.55583 0.02697 0.42346 0.0
H2272 H 0.51868 0.01602 0.51603 0.0
H2273 H 0.49762 0.97621 0.4261 0.0
H2274 H 0.51565 0.98379 0.43976 0.0
H2275 H 0.51107 0.99388 0.41529 0.0
C2276 C 0.55217 0.01073 0.4894 0.0
C2277 C 0.55897 0.01849 0.46403 0.0
C2278 C 0.53761 0.00558 0.49381 0.0
C2279 C 0.52959 0.00802 0.47285 0.0
C2280 C 0.53634 0.01582 0.44761 0.0
H2281 H 0.44216 0.99003 0.46094 0.0
H2282 H 0.46731 0.99752 0.45233 0.0
C2283 C 0.5509 0.02099 0.44319 0.0
C2284 C 0.51427 0.00283 0.47788 0.0
H2285 H 0.48094 0.98091 0.45023 0.0
C2286 C 0.5104 0.00828 0.50178 0.0
C2287 C 0.50356 0.99278 0.45913 0.0
C2288 C 0.50712 0.98621 0.43375 0.0
C2289 C 0.49607 0.00415 0.50715 0.0
C2290 C 0.48536 0.99411 0.48838 0.0
C2291 C 0.48922 0.98862 0.46451 0.0
C2292 C 0.47006 0.98916 0.49324 0.0
C2293 C 0.49256 0.01081 0.53246 0.0
C2294 C 0.46327 0.98175 0.51881 0.0
C2295 C 0.44895 0.97749 0.52383 0.0
C2296 C 0.44114 0.9805 0.50323 0.0
C2297 C 0.44789 0.9876 0.47726 0.0
C2298 C 0.46224 0.99187 0.47229 0.0
H2299 H 0.50209 0.0208 0.54004 0.0
H2300 H 0.48406 0.01326 0.52642 0.0
H2301 H 0.48861 0.00318 0.551 0.0
H2302 H 0.46907 0.9793 0.53495 0.0
H2303 H 0.44404 0.97194 0.54395 0.0
H2304 H 0.48102 0.03554 0.96088 0.0
H2305 H 0.49633 0.0262 0.97731 0.0
H2306 H 0.45959 0.98386 0.98285 0.0
H2307 H 0.44421 0.99303 0.96618 0.0
H2308 H 0.49415 0.01171 0.03022 0.0
H2309 H 0.48817 0.97815 0.93348 0.0
H2310 H 0.48337 0.99194 0.93288 0.0
H2311 H 0.47161 0.97492 0.94934 0.0
C2312 C 0.4762 0.02423 0.96544 0.0
C2313 C 0.46141 0.01502 0.96212 0.0
C2314 C 0.48496 0.01892 0.97484 0.0
C2315 C 0.4791 0.00433 0.98089 0.0
C2316 C 0.46435 0.99512 0.97775 0.0
H2317 H 0.51297 0.95147 0.0434 0.0
H2318 H 0.4977 0.9609 0.02716 0.0
C2319 C 0.45557 0.0004 0.96836 0.0
C2320 C 0.48835 0.99879 0.99135 0.0
H2321 H 0.49993 0.97547 0.97473 0.0
C2322 C 0.49549 0.00384 0.01806 0.0
C2323 C 0.49 0.9885 0.97541 0.0
C2324 C 0.48299 0.98313 0.94606 0.0
C2325 C 0.50408 0.99867 0.02955 0.0
C2326 C 0.50572 0.98837 0.01362 0.0
C2327 C 0.49859 0.98333 0.9869 0.0
C2328 C 0.51493 0.98279 0.02412 0.0
C2329 C 0.51108 0.00405 0.05891 0.0
C2330 C 0.52967 0.99199 0.02755 0.0
C2331 C 0.53841 0.98666 0.03686 0.0
C2332 C 0.53257 0.97201 0.04271 0.0
C2333 C 0.51779 0.96281 0.03916 0.0
C2334 C 0.50906 0.96816 0.02985 0.0
H2335 H 0.50585 0.00897 0.07152 0.0
H2336 H 0.51076 0.99526 0.07206 0.0
H2337 H 0.52244 0.01231 0.05562 0.0
H2338 H 0.53444 0.00327 0.02267 0.0
H2339 H 0.54977 0.99402 0.03922 0.0
H2340 H 0.03114 0.55348 0.04291 0.0
H2341 H 0.02242 0.52854 0.02951 0.0
H2342 H 0.98393 0.52552 0.99458 0.0
H2343 H 0.99258 0.55045 0.00753 0.0
H2344 H 0.99705 0.50409 0.04768 0.0
H2345 H -0.00147 0.51107 0.92742 0.0
H2346 H 0.00773 0.52591 0.95225 0.0
H2347 H 0.98881 0.51806 0.94645 0.0
C2348 C 0.02084 0.54753 0.03226 0.0
C2349 C 0.01257 0.55396 0.02614 0.0
C2350 C 0.01589 0.5333 0.02467 0.0
C2351 C 0.00265 0.5253 0.01068 0.0
C2352 C 0.99431 0.53162 0.00483 0.0
H2353 H 0.95048 0.43871 0.95047 0.0
H2354 H 0.9605 0.46372 0.96472 0.0
C2355 C -0.00076 0.54585 0.01239 0.0
C2356 C 0.99737 0.51021 0.00282 0.0
H2357 H 0.98657 0.48718 0.94511 0.0
C2358 C 0.99485 0.50038 0.02525 0.0
C2359 C 0.99454 0.50547 0.97353 0.0
C2360 C 0.99766 0.51568 0.94847 0.0
C2361 C 0.98918 0.4858 0.01923 0.0
C2362 C 0.98617 0.48104 0.98997 0.0
C2363 C 0.98884 0.4909 0.96752 0.0
C2364 C 0.98008 0.46583 0.98214 0.0
C2365 C 0.98609 0.47557 0.04423 0.0
C2366 C 0.98785 0.45881 0.98709 0.0
C2367 C 0.98216 0.44451 0.97901 0.0
C2368 C 0.96863 0.43705 0.96569 0.0
C2369 C 0.96091 0.44415 0.96073 0.0
C2370 C 0.96661 0.45843 0.96882 0.0
H2371 H 0.98589 0.48038 0.06554 0.0
H2372 H 0.97568 0.46562 0.04104 0.0
H2373 H 0.99456 0.47263 0.04523 0.0
H2374 H -0.00162 0.46443 0.99688 0.0
H2375 H 0.98841 0.43937 0.983 0.0
H2376 H 0.44975 0.48316 0.05428 0.0
H2377 H 0.47484 0.4971 0.0395 0.0
H2378 H 0.46946 0.46256 0.98384 0.0
H2379 H 0.44437 0.44859 -0.00178 0.0
H2380 H 0.49657 0.48946 0.04501 0.0
H2381 H 0.48667 0.49778 0.92951 0.0
H2382 H 0.47308 0.4921 0.95738 0.0
H2383 H 0.47738 0.4795 0.9415 0.0
C2384 C 0.45388 0.47855 0.0388 0.0
C2385 C 0.44505 0.4648 0.02728 0.0
C2386 C 0.46821 0.48651 0.03046 0.0
C2387 C 0.4739 0.4809 0.01034 0.0
C2388 C 0.46517 0.46715 -0.00098 0.0
H2389 H 0.55651 0.51299 0.92812 0.0
H2390 H 0.53208 0.49815 0.94599 0.0
C2391 C 0.45086 0.45917 0.00735 0.0
C2392 C 0.48903 0.48938 0.00144 0.0
H2393 H 0.51057 0.50513 0.94255 0.0
C2394 C 0.49967 0.49295 0.02265 0.0
C2395 C 0.49297 0.49385 0.97224 0.0
C2396 C 0.48195 0.49074 0.94884 0.0
C2397 C 0.51421 0.50072 0.01529 0.0
C2398 C 0.51815 0.5052 0.98608 0.0
C2399 C 0.5075 0.50162 0.9649 0.0
C2400 C 0.53325 0.51382 0.97696 0.0
C2401 C 0.52523 0.50382 0.03869 0.0
C2402 C 0.54198 0.52752 0.98856 0.0
C2403 C 0.55595 0.53602 0.97845 0.0
C2404 C 0.56138 0.53099 0.95639 0.0
C2405 C 0.55265 0.51717 0.94513 0.0
C2406 C 0.53869 0.50868 0.95528 0.0
H2407 H 0.52056 0.49651 0.05765 0.0
H2408 H 0.53429 0.50284 0.02999 0.0
H2409 H 0.52949 0.51492 0.04663 0.0
H2410 H 0.53787 0.53178 0.00489 0.0
H2411 H 0.56238 0.54663 0.98749 0.0
H2412 H 0.42825 0.04116 0.01889 0.0
H2413 H 0.42663 0.05485 0.05937 0.0
H2414 H 0.43766 0.09048 0.00185 0.0
H2415 H 0.43915 0.0767 0.9607 0.0
H2416 H 0.44652 0.08188 0.0836 0.0
H2417 H 0.39851 0.08095 0.03602 0.0
H2418 H 0.40506 0.06963 0.02233 0.0
H2419 H 0.41445 0.08838 0.01413 0.0
C2420 C 0.43043 0.05194 0.01473 0.0
C2421 C 0.43367 0.05778 0.98644 0.0
C2422 C 0.42957 0.05978 0.03799 0.0
C2423 C 0.43188 0.0736 0.03354 0.0
C2424 C 0.43567 0.07974 0.00561 0.0
H2425 H 0.40055 0.10948 0.16676 0.0
H2426 H 0.41493 0.10989 0.12508 0.0
C2427 C 0.43655 0.07187 0.98219 0.0
C2428 C 0.42932 0.08095 0.05809 0.0
H2429 H 0.40441 0.08872 0.08422 0.0
C2430 C 0.43749 0.08367 0.0836 0.0
C2431 C 0.41758 0.08335 0.05795 0.0
C2432 C 0.4083 0.08038 0.03127 0.0
C2433 C 0.43375 0.08795 0.10948 0.0
C2434 C 0.42141 0.08933 0.10989 0.0
C2435 C 0.41386 0.08762 0.08385 0.0
C2436 C 0.41499 0.0906 0.1375 0.0
C2437 C 0.44281 0.09055 0.13634 0.0
C2438 C 0.41045 0.07975 0.15855 0.0
C2439 C 0.40222 0.07945 0.1823 0.0
C2440 C 0.39826 0.08995 0.18537 0.0
C2441 C 0.40341 0.10122 0.16504 0.0
C2442 C 0.41163 0.10148 0.1412 0.0
H2443 H 0.45407 0.0941 0.1304 0.0
H2444 H 0.44261 0.09871 0.15078 0.0
H2445 H 0.43861 0.08042 0.14878 0.0
H2446 H 0.41263 0.07105 0.15581 0.0
H2447 H 0.39844 0.07063 0.19755 0.0
H2448 H 0.89018 0.31458 0.22207 0.0
H2449 H 0.89124 0.32971 0.1811 0.0
H2450 H 0.88858 0.29791 0.12047 0.0
H2451 H 0.88724 0.28274 0.16085 0.0
H2452 H 0.91269 0.34064 0.14266 0.0
H2453 H 0.86265 0.30939 0.08117 0.0
H2454 H 0.86464 0.30517 0.11844 0.0
H2455 H 0.87058 0.29859 0.08853 0.0
C2456 C 0.88947 0.31068 0.19999 0.0
C2457 C 0.88873 0.29751 0.19471 0.0
C2458 C 0.89005 0.31933 0.17663 0.0
C2459 C 0.88974 0.31485 0.1477 0.0
C2460 C 0.88841 0.30144 0.14253 0.0
H2461 H 0.92533 0.34163 0.9852 0.0
H2462 H 0.91069 0.32957 0.02788 0.0
C2463 C 0.88784 0.29284 0.16573 0.0
C2464 C 0.89298 0.32482 0.1229 0.0
H2465 H 0.88364 0.32572 0.05204 0.0
C2466 C 0.90614 0.33763 0.12314 0.0
C2467 C 0.8844 0.32089 0.09746 0.0
C2468 C 0.86971 0.30782 0.09653 0.0
C2469 C 0.91153 0.34593 0.09783 0.0
C2470 C 0.90345 0.34136 0.07175 0.0
C2471 C 0.88984 0.32913 0.07205 0.0
C2472 C 0.90987 0.34805 0.04344 0.0
C2473 C 0.92631 0.35893 0.0986 0.0
C2474 C 0.91373 0.36226 0.03749 0.0
C2475 C 0.92214 0.36922 0.01312 0.0
C2476 C 0.92682 0.36204 0.99439 0.0
C2477 C 0.92202 0.3475 -0.00068 0.0
C2478 C 0.91361 0.34056 0.02364 0.0
H2479 H 0.93184 0.35999 0.1197 0.0
H2480 H 0.93298 0.35843 0.0807 0.0
H2481 H 0.92551 0.36868 0.09533 0.0
H2482 H 0.91079 0.36814 0.05241 0.0
H2483 H 0.92555 0.3804 0.0098 0.0
H2484 H 0.64299 0.57748 0.97518 0.0
H2485 H 0.6611 0.58021 0.01016 0.0
H2486 H 0.6373 0.53504 0.02885 0.0
H2487 H 0.61878 0.53226 0.99422 0.0
H2488 H 0.64396 0.55004 0.07757 0.0
H2489 H 0.69287 0.57138 0.01125 0.0
H2490 H 0.68436 0.58173 0.00477 0.0
H2491 H 0.67529 0.56306 0.99495 0.0
C2492 C 0.64169 0.56804 0.98626 0.0
C2493 C 0.62938 0.55466 0.98199 0.0
C2494 C 0.65217 0.56961 0.00611 0.0
C2495 C 0.65071 0.55779 0.02181 0.0
C2496 C 0.6387 0.54429 0.01681 0.0
H2497 H 0.72172 0.58531 0.14628 0.0
H2498 H 0.7043 0.57003 0.10943 0.0
C2499 C 0.62813 0.54272 0.997 0.0
C2500 C 0.66087 0.56004 0.04577 0.0
H2501 H 0.69637 0.57887 0.06251 0.0
C2502 C 0.65544 0.55603 0.07419 0.0
C2503 C 0.67584 0.56754 0.04145 0.0
C2504 C 0.6824 0.57101 0.01137 0.0
C2505 C 0.66454 0.56042 0.09851 0.0
C2506 C 0.67942 0.56935 0.09433 0.0
C2507 C 0.68493 0.57226 0.06582 0.0
C2508 C 0.6892 0.57713 0.11888 0.0
C2509 C 0.65807 0.55579 0.12849 0.0
C2510 C 0.68648 0.58613 0.1365 0.0
C2511 C 0.69633 0.59479 0.15756 0.0
C2512 C 0.70926 0.5948 0.16121 0.0
C2513 C 0.71186 0.58554 0.14403 0.0
C2514 C 0.70192 0.57681 0.12297 0.0
H2515 H 0.64818 0.54516 0.12762 0.0
H2516 H 0.66567 0.55524 0.14404 0.0
H2517 H 0.65506 0.56355 0.13694 0.0
H2518 H 0.67695 0.5869 0.13321 0.0
H2519 H 0.694 0.60183 0.17029 0.0
H2520 H 0.09098 0.39596 0.33309 0.0
H2521 H 0.09095 0.41262 0.36862 0.0
H2522 H 0.13529 0.42761 0.38828 0.0
H2523 H 0.13531 0.41055 0.35302 0.0
H2524 H 0.12007 0.42068 0.4366 0.0
H2525 H 0.10565 0.45459 0.37235 0.0
H2526 H 0.09323 0.43626 0.36421 0.0
H2527 H 0.11189 0.44362 0.35534 0.0
C2528 C 0.10084 0.40297 0.34449 0.0
C2529 C 0.11313 0.40185 0.34033 0.0
C2530 C 0.10084 0.41264 0.36464 0.0
C2531 C 0.11319 0.42157 0.3808 0.0
C2532 C 0.12567 0.4209 0.37587 0.0
H2533 H 0.08852 0.46663 0.50633 0.0
H2534 H 0.10472 0.46453 0.47186 0.0
C2535 C 0.12567 0.41115 0.35572 0.0
C2536 C 0.11227 0.43008 0.40524 0.0
H2537 H 0.09675 0.44986 0.42299 0.0
C2538 C 0.11535 0.42741 0.43357 0.0
C2539 C 0.10652 0.43921 0.40144 0.0
C2540 C 0.10431 0.4437 0.3716 0.0
C2541 C 0.11143 0.43238 0.45819 0.0
C2542 C 0.10391 0.43987 0.45433 0.0
C2543 C 0.10223 0.44383 0.42605 0.0
C2544 C 0.09594 0.44183 0.47856 0.0
C2545 C 0.11491 0.42907 0.48806 0.0
C2546 C 0.08576 0.42982 0.49407 0.0
C2547 C 0.07658 0.431 0.5138 0.0
C2548 C 0.07721 0.44417 0.51814 0.0
C2549 C 0.08776 0.45633 0.50347 0.0
C2550 C 0.09702 0.45515 0.48376 0.0
H2551 H 0.12513 0.42895 0.48767 0.0
H2552 H 0.11572 0.43696 0.50459 0.0
H2553 H 0.10639 0.41827 0.49485 0.0
H2554 H 0.08439 0.41935 0.48985 0.0
H2555 H 0.06856 0.4214 0.52464 0.0
H2556 H 0.56884 0.64961 0.52461 0.0
H2557 H 0.56894 0.66305 0.48188 0.0
H2558 H 0.5356 0.62439 0.44267 0.0
H2559 H 0.53555 0.61076 0.48537 0.0
H2560 H 0.55914 0.6375 0.40897 0.0
H2561 H 0.5449 0.6776 0.44395 0.0
H2562 H 0.55798 0.6776 0.46805 0.0
H2563 H 0.54053 0.6619 0.46544 0.0
C2564 C 0.56124 0.644 0.5073 0.0
C2565 C 0.55233 0.62909 0.50824 0.0
C2566 C 0.56121 0.65174 0.48294 0.0
C2567 C 0.55218 0.64476 0.45915 0.0
C2568 C 0.54258 0.63 0.46087 0.0
H2569 H 0.57967 0.68558 0.28554 0.0
H2570 H 0.56247 0.66915 0.32158 0.0
C2571 C 0.54258 0.62224 0.4853 0.0
C2572 C 0.55469 0.65244 0.43105 0.0
H2573 H 0.56156 0.68448 0.40283 0.0
C2574 C 0.55925 0.64757 0.40722 0.0
C2575 C 0.55477 0.66553 0.42879 0.0
C2576 C 0.54913 0.67087 0.45288 0.0
C2577 C 0.56519 0.65606 0.38232 0.0
C2578 C 0.56636 0.66969 0.38111 0.0
C2579 C 0.56071 0.67406 0.4039 0.0
C2580 C 0.57549 0.68037 0.35902 0.0
C2581 C 0.57125 0.65091 0.35865 0.0
C2582 C 0.58821 0.69235 0.36822 0.0
C2583 C 0.59798 0.70171 0.34786 0.0
C2584 C 0.59522 0.6993 0.31777 0.0
C2585 C 0.58215 0.68765 0.30855 0.0
C2586 C 0.57233 0.67825 0.32908 0.0
H2587 H 0.57107 0.64086 0.36478 0.0
H2588 H 0.56488 0.64887 0.33841 0.0
H2589 H 0.58245 0.65918 0.3537 0.0
H2590 H 0.59086 0.69417 0.39123 0.0
H2591 H 0.60787 0.71064 0.35577 0.0
H2592 H 0.37875 0.9402 0.4679 0.0
H2593 H 0.36096 0.92553 0.43151 0.0
H2594 H 0.33238 0.89934 0.4998 0.0
H2595 H 0.35012 0.91415 0.53666 0.0
H2596 H 0.34584 0.89564 0.41861 0.0
H2597 H 0.3103 0.91595 0.45698 0.0
H2598 H 0.32874 0.92402 0.4681 0.0
H2599 H 0.31559 0.90734 0.48378 0.0
C2600 C 0.36875 0.93124 0.47528 0.0
C2601 C 0.36577 0.92847 0.50524 0.0
C2602 C 0.35862 0.92282 0.4544 0.0
C2603 C 0.34531 0.91149 0.463 0.0
C2604 C 0.34255 0.90818 0.49278 0.0
H2605 H 0.27064 0.87459 0.34922 0.0
H2606 H 0.28609 0.8764 0.38989 0.0
C2607 C 0.3527 0.91663 0.51378 0.0
C2608 C 0.33404 0.90407 0.4407 0.0
H2609 H 0.30322 0.90161 0.41526 0.0
C2610 C 0.33639 0.89674 0.41803 0.0
C2611 C 0.32176 0.90555 0.44005 0.0
C2612 C 0.31891 0.91371 0.46336 0.0
C2613 C 0.32695 0.89116 0.39427 0.0
C2614 C 0.31502 0.89322 0.39298 0.0
C2615 C 0.31235 0.9 0.41631 0.0
C2616 C 0.30584 0.88971 0.36671 0.0
C2617 C 0.32993 0.88327 0.37066 0.0
C2618 C 0.31181 0.89626 0.33986 0.0
C2619 C 0.303 0.89519 0.31648 0.0
C2620 C 0.28806 0.88773 0.31971 0.0
C2621 C 0.28211 0.8805 0.34607 0.0
C2622 C 0.29092 0.8815 0.36935 0.0
H2623 H 0.33607 0.87835 0.37932 0.0
H2624 H 0.31988 0.87479 0.36068 0.0
H2625 H 0.33646 0.89094 0.35331 0.0
H2626 H 0.32327 0.90293 0.33748 0.0
H2627 H 0.30792 0.90093 0.29653 0.0
H2628 H 0.59226 0.87736 0.83794 0.0
H2629 H 0.57769 0.87598 0.88012 0.0
H2630 H 0.57777 0.91394 0.85072 0.0
H2631 H 0.59216 0.91535 0.80857 0.0
H2632 H 0.58779 0.89722 0.92111 0.0
H2633 H 0.53667 0.8892 0.87757 0.0
H2634 H 0.5484 0.8852 0.85657 0.0
H2635 H 0.55155 0.9032 0.85838 0.0
C2636 C 0.58886 0.8852 0.84006 0.0
C2637 C 0.59346 0.89654 0.82003 0.0
C2638 C 0.58053 0.88438 0.86417 0.0
C2639 C 0.5765 0.89475 0.86838 0.0
C2640 C 0.58046 0.90563 0.84758 0.0
H2641 H 0.56348 0.94427 0.98492 0.0
H2642 H 0.56438 0.92981 0.94521 0.0
C2643 C 0.58882 0.9065 0.8236 0.0
C2644 C 0.57011 0.89564 0.89635 0.0
H2645 H 0.54453 0.90211 0.92376 0.0
C2646 C 0.57809 0.89786 0.92197 0.0
C2647 C 0.55743 0.89639 0.89739 0.0
C2648 C 0.54795 0.89321 0.87101 0.0
C2649 C 0.57448 0.90217 0.94796 0.0
C2650 C 0.56244 0.90407 0.94834 0.0
C2651 C 0.5538 0.90071 0.92336 0.0
C2652 C 0.56009 0.91175 0.97251 0.0
C2653 C 0.58424 0.9058 0.97406 0.0
C2654 C 0.55705 0.90625 0.00103 0.0
C2655 C 0.55659 0.91457 0.02401 0.0
C2656 C 0.55917 0.9285 0.0187 0.0
C2657 C 0.56158 0.93366 0.98987 0.0
C2658 C 0.56202 0.92536 0.96706 0.0
H2659 H 0.59408 0.9054 0.96892 0.0
H2660 H 0.58739 0.91666 0.98227 0.0
H2661 H 0.5785 0.89807 0.99188 0.0
H2662 H 0.55536 0.89568 0.00559 0.0
H2663 H 0.55461 0.91027 0.04595 0.0
H2664 H 0.05491 0.6086 0.98063 0.0
H2665 H 0.07174 0.62229 0.94182 0.0
H2666 H 0.08206 0.6615 0.98625 0.0
H2667 H 0.06557 0.64786 0.02557 0.0
H2668 H 0.0674 0.63944 0.90788 0.0
H2669 H 0.12094 0.67104 0.95733 0.0
H2670 H 0.10645 0.65596 0.97569 0.0
H2671 H 0.10785 0.67328 0.97701 0.0
C2672 C 0.06104 0.62013 0.9825 0.0
C2673 C 0.05884 0.62717 0.00602 0.0
C2674 C 0.07068 0.62793 0.96034 0.0
C2675 C 0.07826 0.64292 0.96118 0.0
C2676 C 0.07662 0.64995 0.98543 0.0
H2677 H 0.10946 0.71227 0.84656 0.0
H2678 H 0.10399 0.69584 0.88733 0.0
C2679 C 0.06709 0.64213 0.00781 0.0
C2680 C 0.08604 0.65116 0.93491 0.0
H2681 H 0.11698 0.68033 0.91215 0.0
C2682 C 0.07836 0.64816 0.90863 0.0
C2683 C 0.10033 0.66256 0.93592 0.0
C2684 C 0.1094 0.6658 0.96296 0.0
C2685 C 0.08425 0.65674 0.88387 0.0
C2686 C 0.09829 0.66856 0.88531 0.0
C2687 C 0.10623 0.67123 0.91114 0.0
C2688 C 0.10409 0.67916 0.86139 0.0
C2689 C 0.07509 0.65362 0.85693 0.0
C2690 C 0.10646 0.67541 0.83347 0.0
C2691 C 0.10954 0.68478 0.80996 0.0
C2692 C 0.11027 0.69802 0.81412 0.0
C2693 C 0.10881 0.70208 0.84252 0.0
C2694 C 0.10577 0.69274 0.86592 0.0
H2695 H 0.06375 0.64542 0.86101 0.0
H2696 H 0.07546 0.6635 0.8489 0.0
H2697 H 0.07925 0.64961 0.83937 0.0
H2698 H 0.10536 0.66501 0.82967 0.0
H2699 H 0.11071 0.68139 0.78839 0.0
H2700 H 0.2801 0.40913 0.83556 0.0
H2701 H 0.29454 0.42139 0.87839 0.0
H2702 H 0.33276 0.43065 0.83115 0.0
H2703 H 0.31847 0.41872 0.7881 0.0
H2704 H 0.30943 0.41143 0.906 0.0
H2705 H 0.34653 0.46747 0.87519 0.0
H2706 H 0.33072 0.45601 0.85414 0.0
H2707 H 0.34692 0.45536 0.84895 0.0
C2708 C 0.29162 0.41412 0.83402 0.0
C2709 C 0.29813 0.41283 0.8085 0.0
C2710 C 0.29985 0.42114 0.85853 0.0
C2711 C 0.31474 0.42704 0.85796 0.0
C2712 C 0.32133 0.42649 0.83196 0.0
H2713 H 0.38316 0.44099 0.96424 0.0
H2714 H 0.36675 0.44044 0.9271 0.0
C2715 C 0.31312 0.41954 0.80737 0.0
C2716 C 0.32311 0.43173 0.88545 0.0
H2717 H 0.35436 0.45794 0.91469 0.0
C2718 C 0.31906 0.42175 0.90824 0.0
C2719 C 0.33568 0.44517 0.88833 0.0
C2720 C 0.34013 0.45666 0.86543 0.0
C2721 C 0.32774 0.42444 0.93289 0.0
C2722 C 0.34072 0.43757 0.93499 0.0
C2723 C 0.34441 0.44787 0.91297 0.0
C2724 C 0.35135 0.43996 0.95793 0.0
C2725 C 0.32342 0.41283 0.95553 0.0
C2726 C 0.34831 0.4403 0.98763 0.0
C2727 C 0.35768 0.44054 0.00906 0.0
C2728 C 0.37021 0.44045 0.00103 0.0
C2729 C 0.37354 0.44091 0.97122 0.0
C2730 C 0.36421 0.44068 0.94991 0.0
H2731 H 0.31421 0.40251 0.94829 0.0
H2732 H 0.3325 0.41111 0.96066 0.0
H2733 H 0.32032 0.41611 0.97595 0.0
H2734 H 0.33851 0.43994 0.99421 0.0
H2735 H 0.35486 0.44029 0.03182 0.0
H2736 H 0.91488 0.60012 0.69112 0.0
H2737 H 0.91521 0.58496 0.65181 0.0
H2738 H 0.88732 0.59414 0.60034 0.0
H2739 H 0.88721 0.6096 0.63919 0.0
H2740 H 0.89482 0.56127 0.61874 0.0
H2741 H 0.92386 0.61058 0.55158 0.0
H2742 H 0.92082 0.61113 0.59013 0.0
H2743 H 0.90661 0.60675 0.56449 0.0
C2744 C 0.9086 0.5987 0.67167 0.0
C2745 C 0.90124 0.60627 0.668 0.0
C2746 C 0.90878 0.59001 0.64925 0.0
C2747 C 0.90155 0.5887 0.62295 0.0
C2748 C 0.89323 0.59528 0.62023 0.0
H2749 H 0.91974 0.5626 0.45546 0.0
H2750 H 0.90613 0.56678 0.49304 0.0
C2751 C 0.89316 0.60408 0.64248 0.0
C2752 C 0.90398 0.58175 0.59746 0.0
H2753 H 0.92001 0.58921 0.53059 0.0
C2754 C 0.90019 0.56731 0.59931 0.0
C2755 C 0.91101 0.58969 0.57216 0.0
C2756 C 0.91594 0.60542 0.56942 0.0
C2757 C 0.90348 0.56065 0.57666 0.0
C2758 C 0.9109 0.56873 0.55181 0.0
C2759 C 0.91421 0.58301 0.54956 0.0
C2760 C 0.91684 0.56328 0.52935 0.0
C2761 C 0.89913 0.5451 0.57966 0.0
C2762 C 0.92714 0.55962 0.53732 0.0
C2763 C 0.93494 0.55727 0.51596 0.0
C2764 C 0.93268 0.55865 0.48617 0.0
C2765 C 0.92176 0.56148 0.47819 0.0
C2766 C 0.91396 0.56385 0.49963 0.0
H2767 H 0.88969 0.53939 0.5942 0.0
H2768 H 0.89659 0.53968 0.5581 0.0
H2769 H 0.90807 0.54427 0.58952 0.0
H2770 H 0.92977 0.55942 0.56007 0.0
H2771 H 0.94325 0.55507 0.52287 0.0
H2772 H 0.38649 0.30611 0.67135 0.0
H2773 H 0.40092 0.32096 0.63115 0.0
H2774 H 0.42445 0.29837 0.62946 0.0
H2775 H 0.40958 0.28297 0.66935 0.0
H2776 H 0.42892 0.33889 0.62171 0.0
H2777 H 0.40888 0.29194 0.54735 0.0
H2778 H 0.40144 0.29063 0.58318 0.0
H2779 H 0.4185 0.29172 0.57914 0.0
C2780 C 0.39481 0.30434 0.66272 0.0
C2781 C 0.39671 0.29318 0.67326 0.0
C2782 C 0.40311 0.3129 0.63973 0.0
C2783 C 0.41358 0.3106 0.62686 0.0
C2784 C 0.41619 0.3001 0.63857 0.0
H2785 H 0.45227 0.37219 0.48164 0.0
H2786 H 0.4525 0.35793 0.52308 0.0
C2787 C 0.40775 0.29138 0.6615 0.0
C2788 C 0.42082 0.31865 0.60001 0.0
H2789 H 0.42157 0.31456 0.52623 0.0
C2790 C 0.42758 0.33362 0.60084 0.0
C2791 C 0.41903 0.3117 0.57284 0.0
C2792 C 0.4115 0.29562 0.57034 0.0
C2793 C 0.43155 0.34177 0.57513 0.0
C2794 C 0.4291 0.33475 0.54784 0.0
C2795 C 0.42342 0.31989 0.54718 0.0
C2796 C 0.43 0.34219 0.52 0.0
C2797 C 0.4372 0.35765 0.57741 0.0
C2798 C 0.41754 0.33757 0.50337 0.0
C2799 C 0.41744 0.34549 0.47945 0.0
C2800 C 0.42979 0.35831 0.47178 0.0
C2801 C 0.44254 0.36245 0.48725 0.0
C2802 C 0.44266 0.35438 0.51105 0.0
H2803 H 0.43605 0.36091 0.59979 0.0
H2804 H 0.44873 0.36349 0.57175 0.0
H2805 H 0.43152 0.36104 0.56198 0.0
H2806 H 0.40765 0.32816 0.50975 0.0
H2807 H 0.40746 0.34192 0.46793 0.0
H2808 H 0.61653 0.06044 0.51316 0.0
H2809 H 0.63159 0.07247 0.5552 0.0
H2810 H 0.66572 0.10086 0.49785 0.0
H2811 H 0.6507 0.08873 0.45538 0.0
H2812 H 0.67344 0.08647 0.53653 0.0
H2813 H 0.64631 0.11073 0.59611 0.0
H2814 H 0.63435 0.09238 0.58687 0.0
H2815 H 0.64259 0.10541 0.55826 0.0
C2816 C 0.62714 0.06942 0.50941 0.0
C2817 C 0.63247 0.07355 0.4809 0.0
C2818 C 0.63569 0.07639 0.53353 0.0
C2819 C 0.64971 0.08769 0.52968 0.0
C2820 C 0.65487 0.09225 0.50127 0.0
H2821 H 0.71802 0.11699 0.65991 0.0
H2822 H 0.70462 0.11737 0.61722 0.0
C2823 C 0.64629 0.08529 0.47705 0.0
C2824 C 0.65946 0.09321 0.5551 0.0
H2825 H 0.66242 0.10605 0.62442 0.0
C2826 C 0.67124 0.09106 0.55552 0.0
C2827 C 0.65646 0.09905 0.57991 0.0
C2828 C 0.64431 0.10216 0.58021 0.0
C2829 C 0.67963 0.09384 0.58064 0.0
C2830 C 0.67635 0.09924 0.60582 0.0
C2831 C 0.6649 0.10191 0.60508 0.0
C2832 C 0.68408 0.1011 0.63364 0.0
C2833 C 0.69143 0.09018 0.58047 0.0
C2834 C 0.67683 0.09249 0.65774 0.0
C2835 C 0.68444 0.09237 0.68235 0.0
C2836 C 0.69941 0.10082 0.68311 0.0
C2837 C 0.7065 0.1102 0.6598 0.0
C2838 C 0.69888 0.11041 0.63536 0.0
H2839 H 0.69053 0.0833 0.56164 0.0
H2840 H 0.70191 0.10017 0.57894 0.0
H2841 H 0.69131 0.08459 0.60091 0.0
H2842 H 0.66539 0.08527 0.65688 0.0
H2843 H 0.67866 0.08506 0.69999 0.0
H2844 H 0.76421 0.75053 0.61482 0.0
H2845 H 0.7634 0.76554 0.65408 0.0
H2846 H 0.76927 0.73951 0.71781 0.0
H2847 H 0.7704 0.72478 0.67905 0.0
H2848 H 0.74293 0.75557 0.69473 0.0
H2849 H 0.79481 0.7785 0.75121 0.0
H2850 H 0.79211 0.77098 0.71496 0.0
H2851 H 0.78736 0.75962 0.74669 0.0
C2852 C 0.76569 0.74825 0.63716 0.0
C2853 C 0.76727 0.7364 0.64382 0.0
C2854 C 0.76524 0.75684 0.65956 0.0
C2855 C 0.76649 0.75379 0.68888 0.0
C2856 C 0.76868 0.74234 0.69537 0.0
H2857 H 0.7357 0.7518 0.85506 0.0
H2858 H 0.74857 0.75218 0.81096 0.0
C2859 C 0.76915 0.7338 0.67312 0.0
C2860 C 0.76343 0.76105 0.71296 0.0
H2861 H 0.77445 0.7745 0.78152 0.0
C2862 C 0.74999 0.76012 0.71336 0.0
C2863 C 0.77265 0.76699 0.73725 0.0
C2864 C 0.78759 0.76922 0.73734 0.0
C2865 C 0.74506 0.76385 0.7383 0.0
C2866 C 0.75389 0.76878 0.76335 0.0
C2867 C 0.76769 0.77062 0.76232 0.0
C2868 C 0.74821 0.77028 0.79169 0.0
C2869 C 0.73006 0.76151 0.73842 0.0
C2870 C 0.74421 0.78066 0.79584 0.0
C2871 C 0.73682 0.78047 0.82106 0.0
C2872 C 0.73331 0.76986 0.84245 0.0
C2873 C 0.73813 0.76004 0.83894 0.0
C2874 C 0.74554 0.76027 0.81379 0.0
H2875 H 0.724 0.75591 0.71846 0.0
H2876 H 0.7241 0.75514 0.7578 0.0
H2877 H 0.73052 0.77198 0.73971 0.0
H2878 H 0.74633 0.78856 0.7791 0.0
H2879 H 0.73333 0.78824 0.82318 0.0
H2880 H 0.25214 0.02784 0.6321 0.0
H2881 H 0.23449 0.01001 0.66552 0.0
H2882 H 0.26325 0.03029 0.73779 0.0
H2883 H 0.28077 0.04812 0.70488 0.0
H2884 H 0.23922 0.99145 0.69831 0.0
H2885 H 0.22554 0.02352 0.77133 0.0
H2886 H 0.234 0.03 0.73627 0.0
H2887 H 0.24451 0.03118 0.76778 0.0
C2888 C 0.25459 0.02864 0.65519 0.0
C2889 C 0.26788 0.03937 0.66581 0.0
C2890 C 0.24449 0.01846 0.67423 0.0
C2891 C 0.24746 0.01898 0.7042 0.0
C2892 C 0.26057 0.02989 0.71488 0.0
H2893 H 0.23135 0.9703 0.85497 0.0
H2894 H 0.23717 0.98844 0.81749 0.0
C2895 C 0.27065 0.04 0.69594 0.0
C2896 C 0.23772 0.00732 0.72402 0.0
H2897 H 0.22222 0.00126 0.79136 0.0
C2898 C 0.23516 0.99347 0.71832 0.0
C2899 C 0.23245 0.01002 0.75008 0.0
C2900 C 0.23414 0.02447 0.75659 0.0
C2901 C 0.22843 0.98251 0.73899 0.0
C2902 C 0.22393 0.98544 0.76583 0.0
C2903 C 0.22572 -0.00094 0.7708 0.0
C2904 C 0.21897 0.97505 0.79018 0.0
C2905 C 0.22706 0.96815 0.73275 0.0
C2906 C 0.2065 0.96168 0.78773 0.0
C2907 C 0.20315 0.95123 0.80913 0.0
C2908 C 0.21221 0.95402 0.83331 0.0
C2909 C 0.22419 0.96775 0.83654 0.0
C2910 C 0.22752 0.97816 0.81517 0.0
H2911 H 0.23315 0.96838 0.71302 0.0
H2912 H 0.23094 0.96456 0.75161 0.0
H2913 H 0.21565 0.96012 0.72915 0.0
H2914 H 0.19964 0.95917 0.7688 0.0
H2915 H 0.19379 0.9408 0.80609 0.0
H2916 H 0.9494 0.22824 0.69277 0.0
H2917 H 0.96497 0.22961 0.73269 0.0
H2918 H 0.995 0.2295 0.67083 0.0
H2919 H 0.97947 0.22825 0.63045 0.0
H2920 H 0.97745 0.21213 0.749 0.0
H2921 H 0.01744 0.26779 0.71644 0.0
H2922 H -0.00059 0.25883 0.70251 0.0
H2923 H 0.01211 0.2541 0.68912 0.0
C2924 C 0.95924 0.22837 0.68756 0.0
C2925 C 0.9633 0.22834 0.65839 0.0
C2926 C 0.96809 0.22907 0.71045 0.0
C2927 C 0.98117 0.2298 0.70465 0.0
C2928 C 0.98498 0.22909 0.67567 0.0
H2929 H 0.04996 0.26217 0.83269 0.0
H2930 H 0.03629 0.24979 0.78918 0.0
C2931 C 0.9761 0.22835 0.65266 0.0
C2932 C 0.9912 0.23255 0.72902 0.0
H2933 H 0.0215 0.25923 0.76009 0.0
C2934 C 0.98722 0.22233 0.7513 0.0
C2935 C 0.00392 0.24586 0.73186 0.0
C2936 C 0.00851 0.25736 0.70888 0.0
C2937 C 0.99544 0.22524 0.77681 0.0
C2938 C 0.00776 0.23884 0.78029 0.0
C2939 C 0.01207 0.24879 0.75739 0.0
C2940 C 0.01568 0.24363 0.80828 0.0
C2941 C 0.99075 0.2138 0.79985 0.0
C2942 C 0.00862 0.24392 0.8338 0.0
C2943 C 0.0164 0.25089 0.85882 0.0
C2944 C 0.03141 0.25791 0.85856 0.0
C2945 C 0.03841 0.25693 0.83352 0.0
C2946 C 0.03061 0.24985 0.80863 0.0
H2947 H 0.98471 0.20296 0.79004 0.0
H2948 H 2e-05 0.21465 0.8121 0.0
H2949 H 0.98355 0.21494 0.81551 0.0
H2950 H 0.99715 0.23951 0.83388 0.0
H2951 H 0.0107 0.25152 0.87769 0.0
H2952 H 0.24768 0.21313 0.13368 0.0
H2953 H 0.23131 0.21432 0.16919 0.0
H2954 H 0.26473 0.23072 0.23404 0.0
H2955 H 0.28102 0.2294 0.19911 0.0
H2956 H 0.23722 0.21008 0.25582 0.0
H2957 H 0.23631 0.25355 0.19184 0.0
H2958 H 0.23102 0.23698 0.17325 0.0
H2959 H 0.24922 0.24796 0.18481 0.0
C2960 C 0.25148 0.21683 0.15561 0.0
C2961 C 0.26571 0.22133 0.16346 0.0
C2962 C 0.24213 0.21753 0.17582 0.0
C2963 C 0.24688 0.22278 0.20409 0.0
C2964 C 0.26086 0.22664 0.21232 0.0
H2965 H 0.23719 0.26011 0.35426 0.0
H2966 H 0.24047 0.24508 0.31914 0.0
C2967 C 0.27018 0.22595 0.19223 0.0
C2968 C 0.23788 0.22536 0.22473 0.0
H2969 H 0.22587 0.24862 0.23808 0.0
C2970 C 0.23448 0.21832 0.2518 0.0
C2971 C 0.23427 0.23606 0.21933 0.0
C2972 C 0.23793 0.24418 0.19085 0.0
C2973 C 0.22817 0.22218 0.27414 0.0
C2974 C 0.22543 0.23353 0.26938 0.0
C2975 C 0.22798 0.23992 0.24169 0.0
C2976 C 0.22174 0.24024 0.2935 0.0
C2977 C 0.22482 0.2143 0.30283 0.0
C2978 C 0.21003 0.24246 0.29098 0.0
C2979 C 0.2082 0.2512 0.31095 0.0
C2980 C 0.21812 0.25798 0.33363 0.0
C2981 C 0.22935 0.25506 0.33707 0.0
C2982 C 0.23117 0.24634 0.31711 0.0
H2983 H 0.22251 0.20315 0.29969 0.0
H2984 H 0.23424 0.21975 0.31744 0.0
H2985 H 0.21554 0.21407 0.31379 0.0
H2986 H 0.20268 0.23792 0.27282 0.0
H2987 H 0.19941 0.2532 0.30772 0.0
H2988 H 0.78917 0.05208 0.18214 0.0
H2989 H 0.78861 0.03794 0.22423 0.0
H2990 H 0.76091 -0.00079 0.17709 0.0
H2991 H 0.76168 0.01327 0.13469 0.0
H2992 H 0.76398 0.02195 0.25197 0.0
H2993 H 0.7859 0.98737 0.22035 0.0
H2994 H 0.78929 0.00296 0.19949 0.0
H2995 H 0.77291 0.98626 0.19448 0.0
C2996 C 0.78329 0.04054 0.18043 0.0
C2997 C 0.77533 0.03378 0.15521 0.0
C2998 C 0.78301 0.03247 0.20449 0.0
C2999 C 0.77479 0.01751 0.2038 0.0
C3000 C 0.76759 0.01072 0.17795 0.0
H3001 H 0.72377 0.94823 0.31081 0.0
H3002 H 0.73933 0.96474 0.27353 0.0
C3003 C 0.76796 0.01879 0.15375 0.0
C3004 C 0.77171 0.00922 0.23125 0.0
H3005 H 0.76895 0.97888 0.26055 0.0
C3006 C 0.76541 0.01274 0.25418 0.0
C3007 C 0.77353 0.99719 0.23404 0.0
C3008 C 0.78092 0.99331 0.21086 0.0
C3009 C 0.75999 0.00404 0.27893 0.0
C3010 C 0.76115 0.9916 0.28107 0.0
C3011 C 0.76811 0.98845 0.25886 0.0
C3012 C 0.7535 0.98086 0.30416 0.0
C3013 C 0.7522 0.00773 0.30162 0.0
C3014 C 0.75662 0.98424 0.33385 0.0
C3015 C 0.74763 0.97483 0.35536 0.0
C3016 C 0.73545 0.96191 0.34742 0.0
C3017 C 0.73297 0.95817 0.3177 0.0
C3018 C 0.74191 0.96756 0.29631 0.0
H3019 H 0.75019 0.01637 0.29418 0.0
H3020 H 0.74178 0.9982 0.30717 0.0
H3021 H 0.75872 0.01142 0.32183 0.0
H3022 H 0.76567 0.99438 0.34032 0.0
H3023 H 0.74991 0.97796 0.37807 0.0
H3024 H 0.01871 0.75128 0.35881 0.0
H3025 H 0.00414 0.74865 0.31619 0.0
H3026 H 0.02822 0.79416 0.30161 0.0
H3027 H 0.04323 0.79688 0.34402 0.0
H3028 H 0.98709 0.75935 0.29897 0.0
H3029 H 0.0344 0.77839 0.22592 0.0
H3030 H 0.03502 0.77444 0.26395 0.0
H3031 H 0.03541 0.79066 0.25354 0.0
C3032 C 0.02085 0.76079 0.34681 0.0
C3033 C 0.0323 0.77427 0.35455 0.0
C3034 C 0.01246 0.75926 0.32246 0.0
C3035 C 0.01528 0.77117 0.30538 0.0
C3036 C 0.02608 0.78479 0.31412 0.0
H3037 H 0.95657 0.74746 0.15428 0.0
H3038 H 0.97075 0.76171 0.19601 0.0
C3039 C 0.03458 0.78633 0.33846 0.0
C3040 C 0.00751 0.76888 0.27744 0.0
H3041 H 0.01201 0.76894 0.20365 0.0
C3042 C 0.99251 0.76167 0.27805 0.0
C3043 C 0.01466 0.77187 0.25023 0.0
C3044 C 0.03074 0.77917 0.24816 0.0
C3045 C 0.98444 0.75657 0.25234 0.0
C3046 C 0.9916 0.7591 0.22524 0.0
C3047 C 0.00658 0.76708 0.22448 0.0
C3048 C 0.98391 0.75183 0.19812 0.0
C3049 C 0.96837 0.7477 0.25464 0.0
C3050 C 0.98704 0.74204 0.18471 0.0
C3051 C 0.97911 0.73404 0.16077 0.0
C3052 C 0.96784 0.73563 0.14976 0.0
C3053 C 0.9651 0.74589 0.16242 0.0
C3054 C 0.97314 0.75399 0.18635 0.0
H3055 H 0.96475 0.74468 0.27756 0.0
H3056 H 0.96353 0.75392 0.24605 0.0
H3057 H 0.96426 0.73779 0.24146 0.0
H3058 H 0.99533 0.74023 0.19339 0.0
H3059 H 0.98156 0.72629 0.15149 0.0
loop_
_geom_bond_atom_site_label_1
_geom_bond_atom_site_label_2
_geom_bond_distance
_geom_bond_site_symmetry_2
_ccdc_geom_bond_type
C0 O1 1.160 . S
C0 O7 1.185 . S
O1 C0 1.160 . S
O2 Zn3 1.899 . S
O2 C10 1.284 . S
Zn3 O2 1.899 . S
Zn3 O4 2.032 . S
Zn3 O7 2.086 . S
Zn3 O12 1.977 . S
O4 Zn3 2.032 . S
O4 C8 1.278 . S
C5 O6 1.203 . S
C5 O12 1.267 . S
O6 C5 1.203 . S
O7 C0 1.185 . S
O7 Zn3 2.086 . S
C8 O4 1.278 . S
C8 O9 1.211 . S
O9 C8 1.211 . S
C10 O2 1.284 . S
C10 O11 1.273 . S
O11 C10 1.273 . S
O12 Zn3 1.977 . S
O12 C5 1.267 . S
C13 O14 1.160 . S
C13 O20 1.185 . S
O14 C13 1.160 . S
O15 Zn16 1.899 . S
O15 C23 1.284 . S
Zn16 O15 1.899 . S
Zn16 O17 2.032 . S
Zn16 O20 2.086 . S
Zn16 O25 1.977 . S
O17 Zn16 2.032 . S
O17 C21 1.278 . S
C18 O19 1.203 . S
C18 O25 1.267 . S
O19 C18 1.203 . S
O20 C13 1.185 . S
O20 Zn16 2.086 . S
C21 O17 1.278 . S
C21 O22 1.211 . S
O22 C21 1.211 . S
C23 O15 1.284 . S
C23 O24 1.273 . S
O24 C23 1.273 . S
O25 Zn16 1.977 . S
O25 C18 1.267 . S
C26 O27 1.160 . S
C26 O33 1.185 . S
O27 C26 1.160 . S
O28 Zn29 1.899 . S
O28 C36 1.284 . S
Zn29 O28 1.899 . S
Zn29 O30 2.032 . S
Zn29 O33 2.086 . S
Zn29 O38 1.977 . S
O30 Zn29 2.032 . S
O30 C34 1.278 . S
C31 O32 1.203 . S
C31 O38 1.267 . S
O32 C31 1.203 . S
O33 C26 1.185 . S
O33 Zn29 2.086 . S
C34 O30 1.278 . S
C34 O35 1.211 . S
O35 C34 1.211 . S
C36 O28 1.284 . S
C36 O37 1.273 . S
O37 C36 1.273 . S
O38 Zn29 1.977 . S
O38 C31 1.267 . S
C39 O40 1.160 . S
C39 O46 1.185 . S
O40 C39 1.160 . S
O41 Zn42 1.899 . S
O41 C49 1.284 . S
Zn42 O41 1.899 . S
Zn42 O43 2.032 . S
Zn42 O46 2.086 . S
Zn42 O51 1.977 . S
O43 Zn42 2.032 . S
O43 C47 1.278 . S
C44 O45 1.203 . S
C44 O51 1.267 . S
O45 C44 1.203 . S
O46 C39 1.185 . S
O46 Zn42 2.086 . S
C47 O43 1.278 . S
C47 O48 1.211 . S
O48 C47 1.211 . S
C49 O41 1.284 . S
C49 O50 1.273 . S
O50 C49 1.273 . S
O51 Zn42 1.977 . S
O51 C44 1.267 . S
C52 O53 1.160 . S
C52 O59 1.185 . S
O53 C52 1.160 . S
O54 Zn55 1.899 . S
O54 C62 1.284 . S
Zn55 O54 1.899 . S
Zn55 O56 2.032 . S
Zn55 O59 2.086 . S
Zn55 O64 1.977 . S
O56 Zn55 2.032 . S
O56 C60 1.278 . S
C57 O58 1.203 . S
C57 O64 1.267 . S
O58 C57 1.203 . S
O59 C52 1.185 . S
O59 Zn55 2.086 . S
C60 O56 1.278 . S
C60 O61 1.211 . S
O61 C60 1.211 . S
C62 O54 1.284 . S
C62 O63 1.273 . S
O63 C62 1.273 . S
O64 Zn55 1.977 . S
O64 C57 1.267 . S
C65 O66 1.160 . S
C65 O72 1.185 . S
O66 C65 1.160 . S
O67 Zn68 1.899 . S
O67 C75 1.284 . S
Zn68 O67 1.899 . S
Zn68 O69 2.032 . S
Zn68 O72 2.086 . S
Zn68 O77 1.977 . S
O69 Zn68 2.032 . S
O69 C73 1.278 . S
C70 O71 1.203 . S
C70 O77 1.267 . S
O71 C70 1.203 . S
O72 C65 1.185 . S
O72 Zn68 2.086 . S
C73 O69 1.278 . S
C73 O74 1.211 . S
O74 C73 1.211 . S
C75 O67 1.284 . S
C75 O76 1.273 . S
O76 C75 1.273 . S
O77 Zn68 1.977 . S
O77 C70 1.267 . S
C78 O79 1.160 . S
C78 O85 1.185 . S
O79 C78 1.160 . S
O80 Zn81 1.899 . S
O80 C88 1.284 . S
Zn81 O80 1.899 . S
Zn81 O82 2.032 . S
Zn81 O85 2.086 . S
Zn81 O90 1.977 . S
O82 Zn81 2.032 . S
O82 C86 1.278 . S
C83 O84 1.203 . S
C83 O90 1.267 . S
O84 C83 1.203 . S
O85 C78 1.185 . S
O85 Zn81 2.086 . S
C86 O82 1.278 . S
C86 O87 1.211 . S
O87 C86 1.211 . S
C88 O80 1.284 . S
C88 O89 1.273 . S
O89 C88 1.273 . S
O90 Zn81 1.977 . S
O90 C83 1.267 . S
C91 O92 1.160 . S
C91 O98 1.185 . S
O92 C91 1.160 . S
O93 Zn94 1.899 . S
O93 C101 1.284 . S
Zn94 O93 1.899 . S
Zn94 O95 2.032 . S
Zn94 O98 2.086 . S
Zn94 O103 1.977 . S
O95 Zn94 2.032 . S
O95 C99 1.278 . S
C96 O97 1.203 . S
C96 O103 1.267 . S
O97 C96 1.203 . S
O98 C91 1.185 . S
O98 Zn94 2.086 . S
C99 O95 1.278 . S
C99 O100 1.211 . S
O100 C99 1.211 . S
C101 O93 1.284 . S
C101 O102 1.273 . S
O102 C101 1.273 . S
O103 Zn94 1.977 . S
O103 C96 1.267 . S
C104 O105 1.160 . S
C104 O111 1.185 . S
O105 C104 1.160 . S
O106 Zn107 1.899 . S
O106 C114 1.284 . S
Zn107 O106 1.899 . S
Zn107 O108 2.032 . S
Zn107 O111 2.086 . S
Zn107 O116 1.977 . S
O108 Zn107 2.032 . S
O108 C112 1.278 . S
C109 O110 1.203 . S
C109 O116 1.267 . S
O110 C109 1.203 . S
O111 C104 1.185 . S
O111 Zn107 2.086 . S
C112 O108 1.278 . S
C112 O113 1.211 . S
O113 C112 1.211 . S
C114 O106 1.284 . S
C114 O115 1.273 . S
O115 C114 1.273 . S
O116 Zn107 1.977 . S
O116 C109 1.267 . S
C117 O118 1.160 . S
C117 O124 1.185 . S
O118 C117 1.160 . S
O119 Zn120 1.899 . S
O119 C127 1.284 . S
Zn120 O119 1.899 . S
Zn120 O121 2.032 . S
Zn120 O124 2.086 . S
Zn120 O129 1.977 . S
O121 Zn120 2.032 . S
O121 C125 1.278 . S
C122 O123 1.203 . S
C122 O129 1.267 . S
O123 C122 1.203 . S
O124 C117 1.185 . S
O124 Zn120 2.086 . S
C125 O121 1.278 . S
C125 O126 1.211 . S
O126 C125 1.211 . S
C127 O119 1.284 . S
C127 O128 1.273 . S
O128 C127 1.273 . S
O129 Zn120 1.977 . S
O129 C122 1.267 . S
C130 O131 1.160 . S
C130 O137 1.185 . S
O131 C130 1.160 . S
O132 Zn133 1.899 . S
O132 C140 1.284 . S
Zn133 O132 1.899 . S
Zn133 O134 2.032 . S
Zn133 O137 2.086 . S
Zn133 O142 1.977 . S
O134 Zn133 2.032 . S
O134 C138 1.278 . S
C135 O136 1.203 . S
C135 O142 1.267 . S
O136 C135 1.203 . S
O137 C130 1.185 . S
O137 Zn133 2.086 . S
C138 O134 1.278 . S
C138 O139 1.211 . S
O139 C138 1.211 . S
C140 O132 1.284 . S
C140 O141 1.273 . S
O141 C140 1.273 . S
O142 Zn133 1.977 . S
O142 C135 1.267 . S
C143 O144 1.160 . S
C143 O150 1.185 . S
O144 C143 1.160 . S
O145 Zn146 1.899 . S
O145 C153 1.284 . S
Zn146 O145 1.899 . S
Zn146 O147 2.032 . S
Zn146 O150 2.086 . S
Zn146 O155 1.977 . S
O147 Zn146 2.032 . S
O147 C151 1.278 . S
C148 O149 1.203 . S
C148 O155 1.267 . S
O149 C148 1.203 . S
O150 C143 1.185 . S
O150 Zn146 2.086 . S
C151 O147 1.278 . S
C151 O152 1.211 . S
O152 C151 1.211 . S
C153 O145 1.284 . S
C153 O154 1.273 . S
O154 C153 1.273 . S
O155 Zn146 1.977 . S
O155 C148 1.267 . S
C156 O157 1.160 . S
C156 O163 1.185 . S
O157 C156 1.160 . S
O158 Zn159 1.899 . S
O158 C166 1.284 . S
Zn159 O158 1.899 . S
Zn159 O160 2.032 . S
Zn159 O163 2.086 . S
Zn159 O168 1.977 1_455 S
O160 Zn159 2.032 . S
O160 C164 1.278 . S
C161 O162 1.203 1_655 S
C161 O168 1.267 . S
O162 C161 1.203 1_455 S
O163 C156 1.185 . S
O163 Zn159 2.086 . S
C164 O160 1.278 . S
C164 O165 1.211 . S
O165 C164 1.211 . S
C166 O158 1.284 . S
C166 O167 1.273 . S
O167 C166 1.273 . S
O168 Zn159 1.977 1_655 S
O168 C161 1.267 . S
C169 O170 1.160 . S
C169 O176 1.185 . S
O170 C169 1.160 . S
O171 Zn172 1.899 . S
O171 C179 1.284 . S
Zn172 O171 1.899 . S
Zn172 O173 2.032 . S
Zn172 O176 2.086 . S
Zn172 O181 1.977 . S
O173 Zn172 2.032 . S
O173 C177 1.278 . S
C174 O175 1.203 . S
C174 O181 1.267 . S
O175 C174 1.203 . S
O176 C169 1.185 . S
O176 Zn172 2.086 . S
C177 O173 1.278 . S
C177 O178 1.211 . S
O178 C177 1.211 . S
C179 O171 1.284 . S
C179 O180 1.273 . S
O180 C179 1.273 . S
O181 Zn172 1.977 . S
O181 C174 1.267 . S
C182 O183 1.160 . S
C182 O189 1.185 . S
O183 C182 1.160 . S
O184 Zn185 1.899 . S
O184 C192 1.284 . S
Zn185 O184 1.899 . S
Zn185 O186 2.032 . S
Zn185 O189 2.086 . S
Zn185 O194 1.977 1_565 S
O186 Zn185 2.032 . S
O186 C190 1.278 . S
C187 O188 1.203 1_545 S
C187 O194 1.267 . S
O188 C187 1.203 1_565 S
O189 C182 1.185 . S
O189 Zn185 2.086 . S
C190 O186 1.278 . S
C190 O191 1.211 . S
O191 C190 1.211 . S
C192 O184 1.284 . S
C192 O193 1.273 . S
O193 C192 1.273 . S
O194 Zn185 1.977 1_545 S
O194 C187 1.267 . S
C195 O196 1.160 . S
C195 O202 1.185 . S
O196 C195 1.160 . S
O197 Zn198 1.899 . S
O197 C205 1.284 . S
Zn198 O197 1.899 . S
Zn198 O199 2.032 . S
Zn198 O202 2.086 . S
Zn198 O207 1.977 . S
O199 Zn198 2.032 . S
O199 C203 1.278 . S
C200 O201 1.203 . S
C200 O207 1.267 . S
O201 C200 1.203 . S
O202 C195 1.185 . S
O202 Zn198 2.086 . S
C203 O199 1.278 . S
C203 O204 1.211 . S
O204 C203 1.211 . S
C205 O197 1.284 . S
C205 O206 1.273 . S
O206 C205 1.273 . S
O207 Zn198 1.977 . S
O207 C200 1.267 . S
C208 O209 1.160 . S
C208 O215 1.185 . S
O209 C208 1.160 . S
O210 Zn211 1.899 . S
O210 C218 1.284 . S
Zn211 O210 1.899 . S
Zn211 O212 2.032 . S
Zn211 O215 2.086 . S
Zn211 O220 1.977 . S
O212 Zn211 2.032 . S
O212 C216 1.278 . S
C213 O214 1.203 . S
C213 O220 1.267 . S
O214 C213 1.203 . S
O215 C208 1.185 . S
O215 Zn211 2.086 . S
C216 O212 1.278 . S
C216 O217 1.211 . S
O217 C216 1.211 . S
C218 O210 1.284 . S
C218 O219 1.273 . S
O219 C218 1.273 . S
O220 Zn211 1.977 . S
O220 C213 1.267 . S
C221 O222 1.160 . S
C221 O228 1.185 . S
O222 C221 1.160 . S
O223 Zn224 1.899 . S
O223 C231 1.284 . S
Zn224 O223 1.899 . S
Zn224 O225 2.032 . S
Zn224 O228 2.086 . S
Zn224 O233 1.977 . S
O225 Zn224 2.032 . S
O225 C229 1.278 . S
C226 O227 1.203 . S
C226 O233 1.267 . S
O227 C226 1.203 . S
O228 C221 1.185 . S
O228 Zn224 2.086 . S
C229 O225 1.278 . S
C229 O230 1.211 . S
O230 C229 1.211 . S
C231 O223 1.284 . S
C231 O232 1.273 . S
O232 C231 1.273 . S
O233 Zn224 1.977 . S
O233 C226 1.267 . S
C234 O235 1.160 . S
C234 O241 1.185 . S
O235 C234 1.160 . S
O236 Zn237 1.899 . S
O236 C244 1.284 . S
Zn237 O236 1.899 . S
Zn237 O238 2.032 . S
Zn237 O241 2.086 . S
Zn237 O246 1.977 . S
O238 Zn237 2.032 . S
O238 C242 1.278 . S
C239 O240 1.203 . S
C239 O246 1.267 . S
O240 C239 1.203 . S
O241 C234 1.185 . S
O241 Zn237 2.086 . S
C242 O238 1.278 . S
C242 O243 1.211 . S
O243 C242 1.211 . S
C244 O236 1.284 . S
C244 O245 1.273 . S
O245 C244 1.273 . S
O246 Zn237 1.977 . S
O246 C239 1.267 . S
C247 O248 1.160 . S
C247 O254 1.185 . S
O248 C247 1.160 . S
O249 Zn250 1.899 . S
O249 C257 1.284 . S
Zn250 O249 1.899 . S
Zn250 O251 2.032 . S
Zn250 O254 2.086 . S
Zn250 O259 1.977 . S
O251 Zn250 2.032 . S
O251 C255 1.278 . S
C252 O253 1.203 . S
C252 O259 1.267 . S
O253 C252 1.203 . S
O254 C247 1.185 . S
O254 Zn250 2.086 . S
C255 O251 1.278 . S
C255 O256 1.211 . S
O256 C255 1.211 . S
C257 O249 1.284 . S
C257 O258 1.273 . S
O258 C257 1.273 . S
O259 Zn250 1.977 . S
O259 C252 1.267 . S
C260 O261 1.160 . S
C260 O267 1.185 . S
O261 C260 1.160 . S
O262 Zn263 1.899 . S
O262 C270 1.284 . S
Zn263 O262 1.899 . S
Zn263 O264 2.032 . S
Zn263 O267 2.086 . S
Zn263 O272 1.977 . S
O264 Zn263 2.032 . S
O264 C268 1.278 . S
C265 O266 1.203 . S
C265 O272 1.267 . S
O266 C265 1.203 . S
O267 C260 1.185 . S
O267 Zn263 2.086 . S
C268 O264 1.278 . S
C268 O269 1.211 . S
O269 C268 1.211 . S
C270 O262 1.284 . S
C270 O271 1.273 . S
O271 C270 1.273 . S
O272 Zn263 1.977 . S
O272 C265 1.267 . S
C273 O274 1.160 . S
C273 O280 1.185 . S
O274 C273 1.160 . S
O275 Zn276 1.899 . S
O275 C283 1.284 . S
Zn276 O275 1.899 . S
Zn276 O277 2.032 . S
Zn276 O280 2.086 . S
Zn276 O285 1.977 1_565 S
O277 Zn276 2.032 . S
O277 C281 1.278 . S
C278 O279 1.203 1_545 S
C278 O285 1.267 . S
O279 C278 1.203 1_565 S
O280 C273 1.185 . S
O280 Zn276 2.086 . S
C281 O277 1.278 . S
C281 O282 1.211 . S
O282 C281 1.211 . S
C283 O275 1.284 . S
C283 O284 1.273 . S
O284 C283 1.273 . S
O285 Zn276 1.977 1_545 S
O285 C278 1.267 . S
C286 O287 1.160 . S
C286 O293 1.185 . S
O287 C286 1.160 . S
O288 Zn289 1.899 . S
O288 C296 1.284 . S
Zn289 O288 1.899 . S
Zn289 O290 2.032 . S
Zn289 O293 2.086 . S
Zn289 O298 1.977 1_455 S
O290 Zn289 2.032 . S
O290 C294 1.278 . S
C291 O292 1.203 1_655 S
C291 O298 1.267 . S
O292 C291 1.203 1_455 S
O293 C286 1.185 . S
O293 Zn289 2.086 . S
C294 O290 1.278 . S
C294 O295 1.211 . S
O295 C294 1.211 . S
C296 O288 1.284 . S
C296 O297 1.273 . S
O297 C296 1.273 . S
O298 Zn289 1.977 1_655 S
O298 C291 1.267 . S
C299 O300 1.160 . S
C299 O306 1.185 . S
O300 C299 1.160 . S
O301 Zn302 1.899 . S
O301 C309 1.284 . S
Zn302 O301 1.899 . S
Zn302 O303 2.032 . S
Zn302 O306 2.086 . S
Zn302 O311 1.977 . S
O303 Zn302 2.032 . S
O303 C307 1.278 . S
C304 O305 1.203 . S
C304 O311 1.267 . S
O305 C304 1.203 . S
O306 C299 1.185 . S
O306 Zn302 2.086 . S
C307 O303 1.278 . S
C307 O308 1.211 . S
O308 C307 1.211 . S
C309 O301 1.284 . S
C309 O310 1.273 . S
O310 C309 1.273 . S
O311 Zn302 1.977 . S
O311 C304 1.267 . S
C312 O313 1.160 . S
C312 O319 1.185 . S
O313 C312 1.160 . S
O314 Zn315 1.899 . S
O314 C322 1.284 . S
Zn315 O314 1.899 . S
Zn315 O316 2.032 . S
Zn315 O319 2.086 . S
Zn315 O324 1.977 . S
O316 Zn315 2.032 . S
O316 C320 1.278 . S
C317 O318 1.203 . S
C317 O324 1.267 . S
O318 C317 1.203 . S
O319 C312 1.185 . S
O319 Zn315 2.086 . S
C320 O316 1.278 . S
C320 O321 1.211 . S
O321 C320 1.211 . S
C322 O314 1.284 . S
C322 O323 1.273 . S
O323 C322 1.273 . S
O324 Zn315 1.977 . S
O324 C317 1.267 . S
C325 O326 1.160 . S
C325 O332 1.185 . S
O326 C325 1.160 . S
O327 Zn328 1.899 . S
O327 C335 1.284 . S
Zn328 O327 1.899 . S
Zn328 O329 2.032 . S
Zn328 O332 2.086 . S
Zn328 O337 1.977 . S
O329 Zn328 2.032 . S
O329 C333 1.278 . S
C330 O331 1.203 . S
C330 O337 1.267 . S
O331 C330 1.203 . S
O332 C325 1.185 . S
O332 Zn328 2.086 . S
C333 O329 1.278 . S
C333 O334 1.211 . S
O334 C333 1.211 . S
C335 O327 1.284 . S
C335 O336 1.273 . S
O336 C335 1.273 . S
O337 Zn328 1.977 . S
O337 C330 1.267 . S
C338 O339 1.160 . S
C338 O345 1.185 . S
O339 C338 1.160 . S
O340 Zn341 1.899 . S
O340 C348 1.284 . S
Zn341 O340 1.899 . S
Zn341 O342 2.032 . S
Zn341 O345 2.086 . S
Zn341 O350 1.977 . S
O342 Zn341 2.032 . S
O342 C346 1.278 . S
C343 O344 1.203 . S
C343 O350 1.267 . S
O344 C343 1.203 . S
O345 C338 1.185 . S
O345 Zn341 2.086 . S
C346 O342 1.278 . S
C346 O347 1.211 . S
O347 C346 1.211 . S
C348 O340 1.284 . S
C348 O349 1.273 . S
O349 C348 1.273 . S
O350 Zn341 1.977 . S
O350 C343 1.267 . S
C351 O352 1.160 . S
C351 O358 1.185 . S
O352 C351 1.160 . S
O353 Zn354 1.899 . S
O353 C361 1.284 . S
Zn354 O353 1.899 . S
Zn354 O355 2.032 . S
Zn354 O358 2.086 . S
Zn354 O363 1.977 1_545 S
O355 Zn354 2.032 . S
O355 C359 1.278 . S
C356 O357 1.203 1_565 S
C356 O363 1.267 . S
O357 C356 1.203 1_545 S
O358 C351 1.185 . S
O358 Zn354 2.086 . S
C359 O355 1.278 . S
C359 O360 1.211 . S
O360 C359 1.211 . S
C361 O353 1.284 . S
C361 O362 1.273 . S
O362 C361 1.273 . S
O363 Zn354 1.977 1_565 S
O363 C356 1.267 . S
C364 O365 1.160 . S
C364 O371 1.185 . S
O365 C364 1.160 . S
O366 Zn367 1.899 . S
O366 C374 1.284 . S
Zn367 O366 1.899 . S
Zn367 O368 2.032 . S
Zn367 O371 2.086 . S
Zn367 O376 1.977 1_655 S
O368 Zn367 2.032 . S
O368 C372 1.278 . S
C369 O370 1.203 1_455 S
C369 O376 1.267 . S
O370 C369 1.203 1_655 S
O371 C364 1.185 . S
O371 Zn367 2.086 . S
C372 O368 1.278 . S
C372 O373 1.211 . S
O373 C372 1.211 . S
C374 O366 1.284 . S
C374 O375 1.273 . S
O375 C374 1.273 . S
O376 Zn367 1.977 1_455 S
O376 C369 1.267 . S
C377 O378 1.160 . S
C377 O384 1.185 . S
O378 C377 1.160 . S
O379 Zn380 1.899 . S
O379 C387 1.284 . S
Zn380 O379 1.899 . S
Zn380 O381 2.032 . S
Zn380 O384 2.086 . S
Zn380 O389 1.977 . S
O381 Zn380 2.032 . S
O381 C385 1.278 . S
C382 O383 1.203 . S
C382 O389 1.267 . S
O383 C382 1.203 . S
O384 C377 1.185 . S
O384 Zn380 2.086 . S
C385 O381 1.278 . S
C385 O386 1.211 . S
O386 C385 1.211 . S
C387 O379 1.284 . S
C387 O388 1.273 . S
O388 C387 1.273 . S
O389 Zn380 1.977 . S
O389 C382 1.267 . S
C390 O391 1.160 . S
C390 O397 1.185 . S
O391 C390 1.160 . S
O392 Zn393 1.899 . S
O392 C400 1.284 . S
Zn393 O392 1.899 . S
Zn393 O394 2.032 . S
Zn393 O397 2.086 . S
Zn393 O402 1.977 1_655 S
O394 Zn393 2.032 . S
O394 C398 1.278 . S
C395 O396 1.203 1_455 S
C395 O402 1.267 . S
O396 C395 1.203 1_655 S
O397 C390 1.185 . S
O397 Zn393 2.086 . S
C398 O394 1.278 . S
C398 O399 1.211 . S
O399 C398 1.211 . S
C400 O392 1.284 . S
C400 O401 1.273 . S
O401 C400 1.273 . S
O402 Zn393 1.977 1_455 S
O402 C395 1.267 . S
C403 O404 1.160 . S
C403 O410 1.185 . S
O404 C403 1.160 . S
O405 Zn406 1.899 . S
O405 C413 1.284 . S
Zn406 O405 1.899 . S
Zn406 O407 2.032 . S
Zn406 O410 2.086 . S
Zn406 O415 1.977 . S
O407 Zn406 2.032 . S
O407 C411 1.278 . S
C408 O409 1.203 . S
C408 O415 1.267 . S
O409 C408 1.203 . S
O410 C403 1.185 . S
O410 Zn406 2.086 . S
C411 O407 1.278 . S
C411 O412 1.211 . S
O412 C411 1.211 . S
C413 O405 1.284 . S
C413 O414 1.273 . S
O414 C413 1.273 . S
O415 Zn406 1.977 . S
O415 C408 1.267 . S
C416 O417 1.160 . S
C416 O423 1.185 . S
O417 C416 1.160 . S
O418 Zn419 1.899 . S
O418 C426 1.284 . S
Zn419 O418 1.899 . S
Zn419 O420 2.032 . S
Zn419 O423 2.086 . S
Zn419 O428 1.977 1_545 S
O420 Zn419 2.032 . S
O420 C424 1.278 . S
C421 O422 1.203 1_565 S
C421 O428 1.267 . S
O422 C421 1.203 1_545 S
O423 C416 1.185 . S
O423 Zn419 2.086 . S
C424 O420 1.278 . S
C424 O425 1.211 . S
O425 C424 1.211 . S
C426 O418 1.284 . S
C426 O427 1.273 . S
O427 C426 1.273 . S
O428 Zn419 1.977 1_565 S
O428 C421 1.267 . S
C429 O430 1.160 . S
C429 O436 1.185 . S
O430 C429 1.160 . S
O431 Zn432 1.899 . S
O431 C439 1.284 . S
Zn432 O431 1.899 . S
Zn432 O433 2.032 . S
Zn432 O436 2.086 . S
Zn432 O441 1.977 . S
O433 Zn432 2.032 . S
O433 C437 1.278 . S
C434 O435 1.203 . S
C434 O441 1.267 . S
O435 C434 1.203 . S
O436 C429 1.185 . S
O436 Zn432 2.086 . S
C437 O433 1.278 . S
C437 O438 1.211 . S
O438 C437 1.211 . S
C439 O431 1.284 . S
C439 O440 1.273 . S
O440 C439 1.273 . S
O441 Zn432 1.977 . S
O441 C434 1.267 . S
C442 O443 1.160 . S
C442 O449 1.185 . S
O443 C442 1.160 . S
O444 Zn445 1.899 . S
O444 C452 1.284 . S
Zn445 O444 1.899 . S
Zn445 O446 2.032 . S
Zn445 O449 2.086 . S
Zn445 O454 1.977 . S
O446 Zn445 2.032 . S
O446 C450 1.278 . S
C447 O448 1.203 . S
C447 O454 1.267 . S
O448 C447 1.203 . S
O449 C442 1.185 . S
O449 Zn445 2.086 . S
C450 O446 1.278 . S
C450 O451 1.211 . S
O451 C450 1.211 . S
C452 O444 1.284 . S
C452 O453 1.273 . S
O453 C452 1.273 . S
O454 Zn445 1.977 . S
O454 C447 1.267 . S
C455 O456 1.160 . S
C455 O462 1.185 . S
O456 C455 1.160 . S
O457 Zn458 1.899 . S
O457 C465 1.284 . S
Zn458 O457 1.899 . S
Zn458 O459 2.032 . S
Zn458 O462 2.086 . S
Zn458 O467 1.977 . S
O459 Zn458 2.032 . S
O459 C463 1.278 . S
C460 O461 1.203 . S
C460 O467 1.267 . S
O461 C460 1.203 . S
O462 C455 1.185 . S
O462 Zn458 2.086 . S
C463 O459 1.278 . S
C463 O464 1.211 . S
O464 C463 1.211 . S
C465 O457 1.284 . S
C465 O466 1.273 . S
O466 C465 1.273 . S
O467 Zn458 1.977 . S
O467 C460 1.267 . S
H468 C476 0.929 . S
H469 C478 0.930 . S
H470 C480 0.930 . S
H471 C483 0.929 . S
H472 C486 0.930 . S
H473 C488 0.998 . S
H474 C488 0.960 . S
H475 C488 0.960 . S
C476 H468 0.929 . S
C476 C477 1.377 . S
C476 C478 1.384 . S
C477 C476 1.377 . S
C477 C483 1.390 . S
C478 H469 0.930 . S
C478 C476 1.384 . S
C478 C479 1.372 . S
C479 C478 1.372 . S
C479 C480 1.400 . S
C479 C484 1.490 . S
C480 H470 0.930 . S
C480 C479 1.400 . S
C480 C483 1.386 . S
H481 C497 0.930 . S
H482 C498 0.931 . S
C483 H471 0.929 . S
C483 C477 1.390 . S
C483 C480 1.386 . S
C484 C479 1.490 . S
C484 C486 1.395 . S
C484 C487 1.403 . S
H485 C491 0.930 . S
C486 H472 0.930 . S
C486 C484 1.395 . S
C486 C489 1.403 1_565 S
C487 C484 1.403 . S
C487 C488 1.524 . S
C487 C491 1.400 1_565 S
C488 H473 0.998 . S
C488 H474 0.960 . S
C488 H475 0.960 . S
C488 C487 1.524 . S
C489 C486 1.403 1_545 S
C489 C490 1.392 . S
C489 C493 1.495 . S
C490 C489 1.392 . S
C490 C491 1.385 . S
C490 C492 1.478 . S
C491 H485 0.930 . S
C491 C487 1.400 1_545 S
C491 C490 1.385 . S
C492 C490 1.478 . S
C492 C494 1.381 . S
C492 C498 1.383 . S
C493 C489 1.495 . S
C493 H499 1.037 . S
C493 H500 0.961 . S
C493 H501 0.960 . S
C494 C492 1.381 . S
C494 C495 1.394 . S
C494 H502 0.930 . S
C495 C494 1.394 . S
C495 C496 1.383 . S
C495 H503 0.929 . S
C496 C495 1.383 . S
C496 C497 1.377 . S
C497 H481 0.930 . S
C497 C496 1.377 . S
C497 C498 1.379 . S
C498 H482 0.931 . S
C498 C492 1.383 . S
C498 C497 1.379 . S
H499 C493 1.037 . S
H500 C493 0.961 . S
H501 C493 0.960 . S
H502 C494 0.930 . S
H503 C495 0.929 . S
H504 C512 0.929 . S
H505 C514 0.930 . S
H506 C516 0.930 . S
H507 C519 0.929 . S
H508 C522 0.930 . S
H509 C524 0.960 . S
H510 C524 0.960 . S
H511 C524 0.960 . S
C512 H504 0.929 . S
C512 C513 1.377 . S
C512 C514 1.384 . S
C513 C512 1.377 . S
C513 C519 1.390 . S
C514 H505 0.930 . S
C514 C512 1.384 . S
C514 C515 1.372 . S
C515 C514 1.372 . S
C515 C516 1.400 . S
C515 C520 1.490 . S
C516 H506 0.930 . S
C516 C515 1.400 . S
C516 C519 1.386 . S
H517 C533 0.930 . S
H518 C534 0.931 . S
C519 H507 0.929 . S
C519 C513 1.390 . S
C519 C516 1.386 . S
C520 C515 1.490 . S
C520 C522 1.395 . S
C520 C523 1.403 . S
H521 C527 0.930 . S
C522 H508 0.930 . S
C522 C520 1.395 . S
C522 C525 1.403 1_455 S
C523 C520 1.403 . S
C523 C524 1.524 . S
C523 C527 1.400 1_455 S
C524 H509 0.960 . S
C524 H510 0.960 . S
C524 H511 0.960 . S
C524 C523 1.524 . S
C525 C522 1.403 1_655 S
C525 C526 1.392 . S
C525 C529 1.495 . S
C526 C525 1.392 . S
C526 C527 1.385 . S
C526 C528 1.478 . S
C527 H521 0.930 . S
C527 C523 1.400 1_655 S
C527 C526 1.385 . S
C528 C526 1.478 . S
C528 C530 1.381 . S
C528 C534 1.383 . S
C529 C525 1.495 . S
C529 H535 0.959 . S
C529 H536 0.961 . S
C529 H537 0.960 . S
C530 C528 1.381 . S
C530 C531 1.394 . S
C530 H538 0.930 . S
C531 C530 1.394 . S
C531 C532 1.383 . S
C531 H539 0.929 . S
C532 C531 1.383 . S
C532 C533 1.377 . S
C533 H517 0.930 . S
C533 C532 1.377 . S
C533 C534 1.379 . S
C534 H518 0.931 . S
C534 C528 1.383 . S
C534 C533 1.379 . S
H535 C529 0.959 . S
H536 C529 0.961 . S
H537 C529 0.960 . S
H538 C530 0.930 . S
H539 C531 0.929 . S
H540 C548 0.929 . S
H541 C550 0.930 . S
H542 C552 0.930 . S
H543 C555 0.929 . S
H544 C558 0.930 . S
H545 C560 0.960 . S
H546 C560 0.960 . S
H547 C560 0.960 . S
C548 H540 0.929 . S
C548 C549 1.377 . S
C548 C550 1.384 . S
C549 C548 1.377 . S
C549 C555 1.390 . S
C550 H541 0.930 . S
C550 C548 1.384 . S
C550 C551 1.372 . S
C551 C550 1.372 . S
C551 C552 1.400 . S
C551 C556 1.490 . S
C552 H542 0.930 . S
C552 C551 1.400 . S
C552 C555 1.386 . S
H553 C569 0.930 . S
H554 C570 0.931 . S
C555 H543 0.929 . S
C555 C549 1.390 . S
C555 C552 1.386 . S
C556 C551 1.490 . S
C556 C558 1.395 . S
C556 C559 1.403 . S
H557 C563 0.930 . S
C558 H544 0.930 . S
C558 C556 1.395 . S
C558 C561 1.403 . S
C559 C556 1.403 . S
C559 C560 1.524 . S
C559 C563 1.400 . S
C560 H545 0.960 . S
C560 H546 0.960 . S
C560 H547 0.960 . S
C560 C559 1.524 . S
C561 C558 1.403 . S
C561 C562 1.392 . S
C561 C565 1.495 . S
C562 C561 1.392 . S
C562 C563 1.385 . S
C562 C564 1.478 . S
C563 H557 0.930 . S
C563 C559 1.400 . S
C563 C562 1.385 . S
C564 C562 1.478 . S
C564 C566 1.381 . S
C564 C570 1.383 . S
C565 C561 1.495 . S
C565 H571 0.959 . S
C565 H572 0.961 . S
C565 H573 0.960 . S
C566 C564 1.381 . S
C566 C567 1.394 . S
C566 H574 0.930 . S
C567 C566 1.394 . S
C567 C568 1.383 . S
C567 H575 0.929 . S
C568 C567 1.383 . S
C568 C569 1.377 . S
C569 H553 0.930 . S
C569 C568 1.377 . S
C569 C570 1.379 . S
C570 H554 0.931 . S
C570 C564 1.383 . S
C570 C569 1.379 . S
H571 C565 0.959 . S
H572 C565 0.961 . S
H573 C565 0.960 . S
H574 C566 0.930 . S
H575 C567 0.929 . S
H576 C584 0.929 . S
H577 C586 0.930 . S
H578 C588 0.930 . S
H579 C591 0.929 . S
H580 C594 0.930 . S
H581 C596 0.960 . S
H582 C596 0.960 . S
H583 C596 0.960 . S
C584 H576 0.929 . S
C584 C585 1.377 . S
C584 C586 1.384 . S
C585 C584 1.377 . S
C585 C591 1.390 . S
C586 H577 0.930 . S
C586 C584 1.384 . S
C586 C587 1.372 . S
C587 C586 1.372 . S
C587 C588 1.400 . S
C587 C592 1.490 . S
C588 H578 0.930 . S
C588 C587 1.400 . S
C588 C591 1.386 . S
H589 C605 0.930 . S
H590 C606 0.931 . S
C591 H579 0.929 . S
C591 C585 1.390 . S
C591 C588 1.386 . S
C592 C587 1.490 . S
C592 C594 1.395 . S
C592 C595 1.403 . S
H593 C599 0.930 . S
C594 H580 0.930 . S
C594 C592 1.395 . S
C594 C597 1.403 1_565 S
C595 C592 1.403 . S
C595 C596 1.524 . S
C595 C599 1.400 1_565 S
C596 H581 0.960 . S
C596 H582 0.960 . S
C596 H583 0.960 . S
C596 C595 1.524 . S
C597 C594 1.403 1_545 S
C597 C598 1.392 . S
C597 C601 1.495 . S
C598 C597 1.392 . S
C598 C599 1.385 . S
C598 C600 1.478 . S
C599 H593 0.930 . S
C599 C595 1.400 1_545 S
C599 C598 1.385 . S
C600 C598 1.478 . S
C600 C602 1.381 . S
C600 C606 1.383 . S
C601 C597 1.495 . S
C601 H607 0.959 . S
C601 H608 0.961 . S
C601 H609 0.960 . S
C602 C600 1.381 . S
C602 C603 1.394 . S
C602 H610 0.930 . S
C603 C602 1.394 . S
C603 C604 1.383 . S
C603 H611 0.929 . S
C604 C603 1.383 . S
C604 C605 1.377 . S
C605 H589 0.930 . S
C605 C604 1.377 . S
C605 C606 1.379 . S
C606 H590 0.931 . S
C606 C600 1.383 . S
C606 C605 1.379 . S
H607 C601 0.959 . S
H608 C601 0.961 . S
H609 C601 0.960 . S
H610 C602 0.930 . S
H611 C603 0.929 . S
H612 C620 0.929 . S
H613 C622 0.930 . S
H614 C624 0.930 . S
H615 C627 0.929 . S
H616 C630 0.930 . S
H617 C632 0.949 1_655 S
H618 C632 0.960 . S
H619 C632 0.960 . S
C620 H612 0.929 . S
C620 C621 1.377 . S
C620 C622 1.384 . S
C621 C620 1.377 . S
C621 C627 1.390 . S
C622 H613 0.930 . S
C622 C620 1.384 . S
C622 C623 1.372 . S
C623 C622 1.372 . S
C623 C624 1.400 . S
C623 C628 1.490 . S
C624 H614 0.930 . S
C624 C623 1.400 . S
C624 C627 1.386 . S
H625 C641 0.930 . S
H626 C642 0.931 . S
C627 H615 0.929 . S
C627 C621 1.390 . S
C627 C624 1.386 . S
C628 C623 1.490 . S
C628 C630 1.395 . S
C628 C631 1.403 . S
H629 C635 0.930 . S
C630 H616 0.930 . S
C630 C628 1.395 . S
C630 C633 1.403 1_455 S
C631 C628 1.403 . S
C631 C632 1.524 . S
C631 C635 1.400 1_455 S
C632 H617 0.949 1_455 S
C632 H618 0.960 . S
C632 H619 0.960 . S
C632 C631 1.524 . S
C633 C630 1.403 1_655 S
C633 C634 1.392 . S
C633 C637 1.495 . S
C634 C633 1.392 . S
C634 C635 1.385 . S
C634 C636 1.478 . S
C635 H629 0.930 . S
C635 C631 1.400 1_655 S
C635 C634 1.385 . S
C636 C634 1.478 . S
C636 C638 1.381 . S
C636 C642 1.383 . S
C637 C633 1.495 . S
C637 H643 0.963 1_655 S
C637 H644 0.961 . S
C637 H645 0.960 . S
C638 C636 1.381 . S
C638 C639 1.394 . S
C638 H646 0.930 . S
C639 C638 1.394 . S
C639 C640 1.383 . S
C639 H647 0.929 . S
C640 C639 1.383 . S
C640 C641 1.377 . S
C641 H625 0.930 . S
C641 C640 1.377 . S
C641 C642 1.379 . S
C642 H626 0.931 . S
C642 C636 1.383 . S
C642 C641 1.379 . S
H643 C637 0.963 1_455 S
H644 C637 0.961 . S
H645 C637 0.960 . S
H646 C638 0.930 . S
H647 C639 0.929 . S
H648 C656 0.929 . S
H649 C658 0.930 . S
H650 C660 0.930 . S
H651 C663 0.929 . S
H652 C666 0.930 . S
H653 C668 0.960 . S
H654 C668 0.960 . S
H655 C668 0.960 . S
C656 H648 0.929 . S
C656 C657 1.377 . S
C656 C658 1.384 . S
C657 C656 1.377 . S
C657 C663 1.390 . S
C658 H649 0.930 . S
C658 C656 1.384 . S
C658 C659 1.372 . S
C659 C658 1.372 . S
C659 C660 1.400 . S
C659 C664 1.490 . S
C660 H650 0.930 . S
C660 C659 1.400 . S
C660 C663 1.386 . S
H661 C677 0.930 . S
H662 C678 0.931 . S
C663 H651 0.929 . S
C663 C657 1.390 . S
C663 C660 1.386 . S
C664 C659 1.490 . S
C664 C666 1.395 . S
C664 C667 1.403 . S
H665 C671 0.930 . S
C666 H652 0.930 . S
C666 C664 1.395 . S
C666 C669 1.403 . S
C667 C664 1.403 . S
C667 C668 1.524 . S
C667 C671 1.400 . S
C668 H653 0.960 . S
C668 H654 0.960 . S
C668 H655 0.960 . S
C668 C667 1.524 . S
C669 C666 1.403 . S
C669 C670 1.392 . S
C669 C673 1.495 . S
C670 C669 1.392 . S
C670 C671 1.385 . S
C670 C672 1.478 . S
C671 H665 0.930 . S
C671 C667 1.400 . S
C671 C670 1.385 . S
C672 C670 1.478 . S
C672 C674 1.381 . S
C672 C678 1.383 . S
C673 C669 1.495 . S
C673 H679 0.959 . S
C673 H680 0.961 . S
C673 H681 0.960 . S
C674 C672 1.381 . S
C674 C675 1.394 . S
C674 H682 0.930 . S
C675 C674 1.394 . S
C675 C676 1.383 . S
C675 H683 0.929 . S
C676 C675 1.383 . S
C676 C677 1.377 . S
C677 H661 0.930 . S
C677 C676 1.377 . S
C677 C678 1.379 . S
C678 H662 0.931 . S
C678 C672 1.383 . S
C678 C677 1.379 . S
H679 C673 0.959 . S
H680 C673 0.961 . S
H681 C673 0.960 . S
H682 C674 0.930 . S
H683 C675 0.929 . S
H684 C692 0.929 . S
H685 C694 0.943 . S
H686 C696 0.930 . S
H687 C699 0.929 . S
H688 C702 0.930 . S
H689 C704 0.960 . S
H690 C704 0.960 . S
H691 C704 0.960 . S
C692 H684 0.929 . S
C692 C693 1.377 1_455 S
C692 C694 1.384 1_455 S
C693 C692 1.377 1_655 S
C693 C699 1.390 . S
C694 H685 0.943 . S
C694 C692 1.384 1_655 S
C694 C695 1.372 . S
C695 C694 1.372 . S
C695 C696 1.400 . S
C695 C700 1.490 . S
C696 H686 0.930 . S
C696 C695 1.400 . S
C696 C699 1.386 . S
H697 C713 0.930 . S
H698 C714 0.931 . S
C699 H687 0.929 . S
C699 C693 1.390 . S
C699 C696 1.386 . S
C700 C695 1.490 . S
C700 C702 1.395 . S
C700 C703 1.403 . S
H701 C707 0.930 . S
C702 H688 0.930 . S
C702 C700 1.395 . S
C702 C705 1.403 . S
C703 C700 1.403 . S
C703 C704 1.524 . S
C703 C707 1.400 . S
C704 H689 0.960 . S
C704 H690 0.960 . S
C704 H691 0.960 . S
C704 C703 1.524 . S
C705 C702 1.403 . S
C705 C706 1.392 . S
C705 C709 1.495 . S
C706 C705 1.392 . S
C706 C707 1.385 . S
C706 C708 1.478 . S
C707 H701 0.930 . S
C707 C703 1.400 . S
C707 C706 1.385 . S
C708 C706 1.478 . S
C708 C710 1.381 . S
C708 C714 1.383 . S
C709 C705 1.495 . S
C709 H715 0.959 . S
C709 H716 0.961 . S
C709 H717 0.960 . S
C710 C708 1.381 . S
C710 C711 1.394 . S
C710 H718 0.930 . S
C711 C710 1.394 . S
C711 C712 1.383 . S
C711 H719 0.929 . S
C712 C711 1.383 . S
C712 C713 1.377 . S
C713 H697 0.930 . S
C713 C712 1.377 . S
C713 C714 1.379 . S
C714 H698 0.931 . S
C714 C708 1.383 . S
C714 C713 1.379 . S
H715 C709 0.959 . S
H716 C709 0.961 . S
H717 C709 0.960 . S
H718 C710 0.930 . S
H719 C711 0.929 . S
H720 C728 0.929 . S
H721 C730 0.930 . S
H722 C732 0.930 . S
H723 C735 0.929 . S
H724 C738 0.930 . S
H725 C740 0.960 . S
H726 C740 0.960 . S
H727 C740 0.960 . S
C728 H720 0.929 . S
C728 C729 1.377 . S
C728 C730 1.384 . S
C729 C728 1.377 . S
C729 C735 1.390 . S
C730 H721 0.930 . S
C730 C728 1.384 . S
C730 C731 1.372 . S
C731 C730 1.372 . S
C731 C732 1.400 . S
C731 C736 1.490 . S
C732 H722 0.930 . S
C732 C731 1.400 . S
C732 C735 1.386 . S
H733 C749 0.930 . S
H734 C750 0.931 . S
C735 H723 0.929 . S
C735 C729 1.390 . S
C735 C732 1.386 . S
C736 C731 1.490 . S
C736 C738 1.395 . S
C736 C739 1.403 . S
H737 C743 0.930 . S
C738 H724 0.930 . S
C738 C736 1.395 . S
C738 C741 1.403 . S
C739 C736 1.403 . S
C739 C740 1.524 . S
C739 C743 1.400 . S
C740 H725 0.960 . S
C740 H726 0.960 . S
C740 H727 0.960 . S
C740 C739 1.524 . S
C741 C738 1.403 . S
C741 C742 1.392 . S
C741 C745 1.495 . S
C742 C741 1.392 . S
C742 C743 1.385 . S
C742 C744 1.478 . S
C743 H737 0.930 . S
C743 C739 1.400 . S
C743 C742 1.385 . S
C744 C742 1.478 . S
C744 C746 1.381 . S
C744 C750 1.383 . S
C745 C741 1.495 . S
C745 H751 0.959 . S
C745 H752 0.961 . S
C745 H753 0.960 . S
C746 C744 1.381 . S
C746 C747 1.394 . S
C746 H754 0.930 . S
C747 C746 1.394 . S
C747 C748 1.383 . S
C747 H755 0.929 . S
C748 C747 1.383 . S
C748 C749 1.377 . S
C749 H733 0.930 . S
C749 C748 1.377 . S
C749 C750 1.379 . S
C750 H734 0.931 . S
C750 C744 1.383 . S
C750 C749 1.379 . S
H751 C745 0.959 . S
H752 C745 0.961 . S
H753 C745 0.960 . S
H754 C746 0.930 . S
H755 C747 0.929 . S
H756 C764 0.929 . S
H757 C766 0.930 . S
H758 C768 0.930 . S
H759 C771 0.929 . S
H760 C774 0.930 . S
H761 C776 0.960 . S
H762 C776 0.960 . S
H763 C776 0.960 . S
C764 H756 0.929 . S
C764 C765 1.377 . S
C764 C766 1.384 . S
C765 C764 1.377 . S
C765 C771 1.390 . S
C766 H757 0.930 . S
C766 C764 1.384 . S
C766 C767 1.372 . S
C767 C766 1.372 . S
C767 C768 1.400 . S
C767 C772 1.490 . S
C768 H758 0.930 . S
C768 C767 1.400 . S
C768 C771 1.386 . S
H769 C785 0.930 1_565 S
H770 C786 0.931 . S
C771 H759 0.929 . S
C771 C765 1.390 . S
C771 C768 1.386 . S
C772 C767 1.490 . S
C772 C774 1.395 . S
C772 C775 1.403 . S
H773 C779 0.930 . S
C774 H760 0.930 . S
C774 C772 1.395 . S
C774 C777 1.403 . S
C775 C772 1.403 . S
C775 C776 1.524 . S
C775 C779 1.400 . S
C776 H761 0.960 . S
C776 H762 0.960 . S
C776 H763 0.960 . S
C776 C775 1.524 . S
C777 C774 1.403 . S
C777 C778 1.392 . S
C777 C781 1.495 . S
C778 C777 1.392 . S
C778 C779 1.385 . S
C778 C780 1.478 . S
C779 H773 0.930 . S
C779 C775 1.400 . S
C779 C778 1.385 . S
C780 C778 1.478 . S
C780 C782 1.381 . S
C780 C786 1.383 . S
C781 C777 1.495 . S
C781 H787 0.959 . S
C781 H788 0.961 . S
C781 H789 0.960 . S
C782 C780 1.381 . S
C782 C783 1.394 . S
C782 H790 0.930 . S
C783 C782 1.394 . S
C783 C784 1.383 . S
C783 H791 0.929 . S
C784 C783 1.383 . S
C784 C785 1.377 . S
C785 H769 0.930 1_545 S
C785 C784 1.377 . S
C785 C786 1.379 . S
C786 H770 0.931 . S
C786 C780 1.383 . S
C786 C785 1.379 . S
H787 C781 0.959 . S
H788 C781 0.961 . S
H789 C781 0.960 . S
H790 C782 0.930 . S
H791 C783 0.929 . S
H792 C800 0.929 . S
H793 C802 0.930 . S
H794 C804 0.930 . S
H795 C807 0.929 . S
H796 C810 0.930 . S
H797 C812 0.960 . S
H798 C812 0.960 . S
H799 C812 0.960 . S
C800 H792 0.929 . S
C800 C801 1.377 . S
C800 C802 1.384 . S
C801 C800 1.377 . S
C801 C807 1.390 . S
C802 H793 0.930 . S
C802 C800 1.384 . S
C802 C803 1.372 . S
C803 C802 1.372 . S
C803 C804 1.400 . S
C803 C808 1.490 . S
C804 H794 0.930 . S
C804 C803 1.400 . S
C804 C807 1.386 . S
H805 C821 0.930 . S
H806 C822 0.931 . S
C807 H795 0.929 . S
C807 C801 1.390 . S
C807 C804 1.386 . S
C808 C803 1.490 . S
C808 C810 1.395 . S
C808 C811 1.403 . S
H809 C815 0.930 . S
C810 H796 0.930 . S
C810 C808 1.395 . S
C810 C813 1.403 . S
C811 C808 1.403 . S
C811 C812 1.524 . S
C811 C815 1.400 . S
C812 H797 0.960 . S
C812 H798 0.960 . S
C812 H799 0.960 . S
C812 C811 1.524 . S
C813 C810 1.403 . S
C813 C814 1.392 . S
C813 C817 1.495 . S
C814 C813 1.392 . S
C814 C815 1.385 . S
C814 C816 1.478 . S
C815 H809 0.930 . S
C815 C811 1.400 . S
C815 C814 1.385 . S
C816 C814 1.478 . S
C816 C818 1.381 . S
C816 C822 1.383 . S
C817 C813 1.495 . S
C817 H823 0.959 . S
C817 H824 0.961 . S
C817 H825 0.960 . S
C818 C816 1.381 . S
C818 C819 1.394 . S
C818 H826 0.930 . S
C819 C818 1.394 . S
C819 C820 1.383 . S
C819 H827 0.929 . S
C820 C819 1.383 . S
C820 C821 1.377 . S
C821 H805 0.930 . S
C821 C820 1.377 . S
C821 C822 1.379 . S
C822 H806 0.931 . S
C822 C816 1.383 . S
C822 C821 1.379 . S
H823 C817 0.959 . S
H824 C817 0.961 . S
H825 C817 0.960 . S
H826 C818 0.930 . S
H827 C819 0.929 . S
H828 C836 0.929 . S
H829 C838 0.930 . S
H830 C840 0.930 . S
H831 C843 0.929 . S
H832 C846 0.930 . S
H833 C848 0.960 . S
H834 C848 0.960 . S
H835 C848 0.960 . S
C836 H828 0.929 . S
C836 C837 1.377 1_565 S
C836 C838 1.384 1_565 S
C837 C836 1.377 1_545 S
C837 C843 1.390 . S
C838 H829 0.930 . S
C838 C836 1.384 1_545 S
C838 C839 1.372 . S
C839 C838 1.372 . S
C839 C840 1.400 . S
C839 C844 1.490 . S
C840 H830 0.930 . S
C840 C839 1.400 . S
C840 C843 1.386 . S
H841 C857 0.930 . S
H842 C858 0.931 . S
C843 H831 0.929 . S
C843 C837 1.390 . S
C843 C840 1.386 . S
C844 C839 1.490 . S
C844 C846 1.395 . S
C844 C847 1.403 . S
H845 C851 0.930 . S
C846 H832 0.930 . S
C846 C844 1.395 . S
C846 C849 1.403 . S
C847 C844 1.403 . S
C847 C848 1.524 . S
C847 C851 1.400 . S
C848 H833 0.960 . S
C848 H834 0.960 . S
C848 H835 0.960 . S
C848 C847 1.524 . S
C849 C846 1.403 . S
C849 C850 1.392 . S
C849 C853 1.495 . S
C850 C849 1.392 . S
C850 C851 1.385 . S
C850 C852 1.478 . S
C851 H845 0.930 . S
C851 C847 1.400 . S
C851 C850 1.385 . S
C852 C850 1.478 . S
C852 C854 1.381 . S
C852 C858 1.383 . S
C853 C849 1.495 . S
C853 H859 0.959 . S
C853 H860 0.961 . S
C853 H861 0.960 . S
C854 C852 1.381 . S
C854 C855 1.394 . S
C854 H862 0.930 . S
C855 C854 1.394 . S
C855 C856 1.383 . S
C855 H863 0.929 . S
C856 C855 1.383 . S
C856 C857 1.377 . S
C857 H841 0.930 . S
C857 C856 1.377 . S
C857 C858 1.379 . S
C858 H842 0.931 . S
C858 C852 1.383 . S
C858 C857 1.379 . S
H859 C853 0.959 . S
H860 C853 0.961 . S
H861 C853 0.960 . S
H862 C854 0.930 . S
H863 C855 0.929 . S
H864 C872 0.929 . S
H865 C874 0.930 . S
H866 C876 0.930 . S
H867 C879 0.929 . S
H868 C882 0.930 . S
H869 C884 0.960 . S
H870 C884 0.960 . S
H871 C884 0.960 . S
C872 H864 0.929 . S
C872 C873 1.377 . S
C872 C874 1.384 . S
C873 C872 1.377 . S
C873 C879 1.390 . S
C874 H865 0.930 . S
C874 C872 1.384 . S
C874 C875 1.372 . S
C875 C874 1.372 . S
C875 C876 1.400 . S
C875 C880 1.490 . S
C876 H866 0.930 . S
C876 C875 1.400 . S
C876 C879 1.386 . S
H877 C893 0.901 1_455 S
H878 C894 0.931 . S
C879 H867 0.929 . S
C879 C873 1.390 . S
C879 C876 1.386 . S
C880 C875 1.490 . S
C880 C882 1.395 . S
C880 C883 1.403 . S
H881 C887 0.930 . S
C882 H868 0.930 . S
C882 C880 1.395 . S
C882 C885 1.403 . S
C883 C880 1.403 . S
C883 C884 1.524 . S
C883 C887 1.400 . S
C884 H869 0.960 . S
C884 H870 0.960 . S
C884 H871 0.960 . S
C884 C883 1.524 . S
C885 C882 1.403 . S
C885 C886 1.392 . S
C885 C889 1.495 . S
C886 C885 1.392 . S
C886 C887 1.385 . S
C886 C888 1.478 . S
C887 H881 0.930 . S
C887 C883 1.400 . S
C887 C886 1.385 . S
C888 C886 1.478 . S
C888 C890 1.381 . S
C888 C894 1.383 . S
C889 C885 1.495 . S
C889 H895 0.959 . S
C889 H896 0.961 . S
C889 H897 0.960 . S
C890 C888 1.381 . S
C890 C891 1.394 . S
C890 H898 0.930 . S
C891 C890 1.394 . S
C891 C892 1.383 . S
C891 H899 0.929 . S
C892 C891 1.383 . S
C892 C893 1.377 . S
C893 H877 0.901 1_655 S
C893 C892 1.377 . S
C893 C894 1.379 . S
C894 H878 0.931 . S
C894 C888 1.383 . S
C894 C893 1.379 . S
H895 C889 0.959 . S
H896 C889 0.961 . S
H897 C889 0.960 . S
H898 C890 0.930 . S
H899 C891 0.929 . S
H900 C908 0.929 . S
H901 C910 0.930 . S
H902 C912 0.930 . S
H903 C915 0.929 . S
H904 C918 0.930 . S
H905 C920 0.960 . S
H906 C920 0.960 . S
H907 C920 0.960 . S
C908 H900 0.929 . S
C908 C909 1.377 . S
C908 C910 1.384 . S
C909 C908 1.377 . S
C909 C915 1.390 . S
C910 H901 0.930 . S
C910 C908 1.384 . S
C910 C911 1.372 . S
C911 C910 1.372 . S
C911 C912 1.400 . S
C911 C916 1.490 . S
C912 H902 0.930 . S
C912 C911 1.400 . S
C912 C915 1.386 . S
H913 C929 0.930 . S
H914 C930 0.931 . S
C915 H903 0.929 . S
C915 C909 1.390 . S
C915 C912 1.386 . S
C916 C911 1.490 . S
C916 C918 1.395 . S
C916 C919 1.403 . S
H917 C923 0.930 . S
C918 H904 0.930 . S
C918 C916 1.395 . S
C918 C921 1.403 . S
C919 C916 1.403 . S
C919 C920 1.524 . S
C919 C923 1.400 . S
C920 H905 0.960 . S
C920 H906 0.960 . S
C920 H907 0.960 . S
C920 C919 1.524 . S
C921 C918 1.403 . S
C921 C922 1.392 . S
C921 C925 1.495 . S
C922 C921 1.392 . S
C922 C923 1.385 . S
C922 C924 1.478 . S
C923 H917 0.930 . S
C923 C919 1.400 . S
C923 C922 1.385 . S
C924 C922 1.478 . S
C924 C926 1.381 . S
C924 C930 1.383 . S
C925 C921 1.495 . S
C925 H931 0.959 . S
C925 H932 0.961 . S
C925 H933 0.960 . S
C926 C924 1.381 . S
C926 C927 1.394 . S
C926 H934 0.930 . S
C927 C926 1.394 . S
C927 C928 1.383 . S
C927 H935 0.929 . S
C928 C927 1.383 . S
C928 C929 1.377 . S
C929 H913 0.930 . S
C929 C928 1.377 . S
C929 C930 1.379 . S
C930 H914 0.931 . S
C930 C924 1.383 . S
C930 C929 1.379 . S
H931 C925 0.959 . S
H932 C925 0.961 . S
H933 C925 0.960 . S
H934 C926 0.930 . S
H935 C927 0.929 . S
H936 C944 0.929 . S
H937 C946 0.930 . S
H938 C948 0.930 . S
H939 C951 0.929 . S
H940 C954 0.930 . S
H941 C956 0.960 . S
H942 C956 0.960 . S
H943 C956 0.960 . S
C944 H936 0.929 . S
C944 C945 1.377 . S
C944 C946 1.384 . S
C945 C944 1.377 . S
C945 C951 1.390 . S
C946 H937 0.930 . S
C946 C944 1.384 . S
C946 C947 1.372 . S
C947 C946 1.372 . S
C947 C948 1.400 . S
C947 C952 1.490 . S
C948 H938 0.930 . S
C948 C947 1.400 . S
C948 C951 1.386 . S
H949 C965 0.930 . S
H950 C966 0.931 . S
C951 H939 0.929 . S
C951 C945 1.390 . S
C951 C948 1.386 . S
C952 C947 1.490 . S
C952 C954 1.395 . S
C952 C955 1.403 . S
H953 C959 0.930 . S
C954 H940 0.930 . S
C954 C952 1.395 . S
C954 C957 1.403 . S
C955 C952 1.403 . S
C955 C956 1.524 . S
C955 C959 1.400 . S
C956 H941 0.960 . S
C956 H942 0.960 . S
C956 H943 0.960 . S
C956 C955 1.524 . S
C957 C954 1.403 . S
C957 C958 1.392 . S
C957 C961 1.495 . S
C958 C957 1.392 . S
C958 C959 1.385 . S
C958 C960 1.478 . S
C959 H953 0.930 . S
C959 C955 1.400 . S
C959 C958 1.385 . S
C960 C958 1.478 . S
C960 C962 1.381 . S
C960 C966 1.383 . S
C961 C957 1.495 . S
C961 H967 0.959 . S
C961 H968 0.961 . S
C961 H969 0.960 . S
C962 C960 1.381 . S
C962 C963 1.394 . S
C962 H970 0.930 . S
C963 C962 1.394 . S
C963 C964 1.383 . S
C963 H971 0.929 . S
C964 C963 1.383 . S
C964 C965 1.377 . S
C965 H949 0.930 . S
C965 C964 1.377 . S
C965 C966 1.379 . S
C966 H950 0.931 . S
C966 C960 1.383 . S
C966 C965 1.379 . S
H967 C961 0.959 . S
H968 C961 0.961 . S
H969 C961 0.960 . S
H970 C962 0.930 . S
H971 C963 0.929 . S
H972 C980 0.929 . S
H973 C982 0.930 . S
H974 C984 0.930 . S
H975 C987 0.929 . S
H976 C990 0.930 . S
H977 C992 0.960 . S
H978 C992 0.960 . S
H979 C992 0.960 . S
C980 H972 0.929 . S
C980 C981 1.377 . S
C980 C982 1.384 . S
C981 C980 1.377 . S
C981 C987 1.390 . S
C982 H973 0.930 . S
C982 C980 1.384 . S
C982 C983 1.372 . S
C983 C982 1.372 . S
C983 C984 1.400 . S
C983 C988 1.490 . S
C984 H974 0.930 . S
C984 C983 1.400 . S
C984 C987 1.386 . S
H985 C1001 0.930 . S
H986 C1002 0.931 . S
C987 H975 0.929 . S
C987 C981 1.390 . S
C987 C984 1.386 . S
C988 C983 1.490 . S
C988 C990 1.395 . S
C988 C991 1.403 . S
H989 C995 0.930 . S
C990 H976 0.930 . S
C990 C988 1.395 . S
C990 C993 1.403 . S
C991 C988 1.403 . S
C991 C992 1.524 . S
C991 C995 1.400 . S
C992 H977 0.960 . S
C992 H978 0.960 . S
C992 H979 0.960 . S
C992 C991 1.524 . S
C993 C990 1.403 . S
C993 C994 1.392 . S
C993 C997 1.495 . S
C994 C993 1.392 . S
C994 C995 1.385 . S
C994 C996 1.478 . S
C995 H989 0.930 . S
C995 C991 1.400 . S
C995 C994 1.385 . S
C996 C994 1.478 . S
C996 C998 1.381 . S
C996 C1002 1.383 . S
C997 C993 1.495 . S
C997 H1003 0.956 . S
C997 H1004 0.961 1_455 S
C997 H1005 0.960 1_455 S
C998 C996 1.381 . S
C998 C999 1.394 . S
C998 H1006 0.930 . S
C999 C998 1.394 . S
C999 C1000 1.383 . S
C999 H1007 0.975 . S
C1000 C999 1.383 . S
C1000 C1001 1.377 . S
C1001 H985 0.930 . S
C1001 C1000 1.377 . S
C1001 C1002 1.379 . S
C1002 H986 0.931 . S
C1002 C996 1.383 . S
C1002 C1001 1.379 . S
H1003 C997 0.956 . S
H1004 C997 0.961 1_655 S
H1005 C997 0.960 1_655 S
H1006 C998 0.930 . S
H1007 C999 0.975 . S
H1008 C1016 0.929 . S
H1009 C1018 0.930 . S
H1010 C1020 0.930 . S
H1011 C1023 0.929 . S
H1012 C1026 0.930 . S
H1013 C1028 0.960 . S
H1014 C1028 0.960 . S
H1015 C1028 0.960 . S
C1016 H1008 0.929 . S
C1016 C1017 1.377 . S
C1016 C1018 1.384 . S
C1017 C1016 1.377 . S
C1017 C1023 1.390 . S
C1018 H1009 0.930 . S
C1018 C1016 1.384 . S
C1018 C1019 1.372 . S
C1019 C1018 1.372 . S
C1019 C1020 1.400 . S
C1019 C1024 1.490 . S
C1020 H1010 0.930 . S
C1020 C1019 1.400 . S
C1020 C1023 1.386 . S
H1021 C1037 0.930 . S
H1022 C1038 0.931 . S
C1023 H1011 0.929 . S
C1023 C1017 1.390 . S
C1023 C1020 1.386 . S
C1024 C1019 1.490 . S
C1024 C1026 1.395 . S
C1024 C1027 1.403 . S
H1025 C1031 0.930 . S
C1026 H1012 0.930 . S
C1026 C1024 1.395 . S
C1026 C1029 1.403 . S
C1027 C1024 1.403 . S
C1027 C1028 1.524 . S
C1027 C1031 1.400 . S
C1028 H1013 0.960 . S
C1028 H1014 0.960 . S
C1028 H1015 0.960 . S
C1028 C1027 1.524 . S
C1029 C1026 1.403 . S
C1029 C1030 1.392 . S
C1029 C1033 1.495 . S
C1030 C1029 1.392 . S
C1030 C1031 1.385 . S
C1030 C1032 1.478 . S
C1031 H1025 0.930 . S
C1031 C1027 1.400 . S
C1031 C1030 1.385 . S
C1032 C1030 1.478 . S
C1032 C1034 1.381 . S
C1032 C1038 1.383 . S
C1033 C1029 1.495 . S
C1033 H1039 0.959 . S
C1033 H1040 0.961 . S
C1033 H1041 0.960 . S
C1034 C1032 1.381 . S
C1034 C1035 1.394 1_455 S
C1034 H1042 0.885 1_455 S
C1035 C1034 1.394 1_655 S
C1035 C1036 1.383 1_655 S
C1035 H1043 0.929 . S
C1036 C1035 1.383 1_455 S
C1036 C1037 1.377 . S
C1037 H1021 0.930 . S
C1037 C1036 1.377 . S
C1037 C1038 1.379 . S
C1038 H1022 0.931 . S
C1038 C1032 1.383 . S
C1038 C1037 1.379 . S
H1039 C1033 0.959 . S
H1040 C1033 0.961 . S
H1041 C1033 0.960 . S
H1042 C1034 0.885 1_655 S
H1043 C1035 0.929 . S
H1044 C1052 0.929 . S
H1045 C1054 0.930 . S
H1046 C1056 0.930 . S
H1047 C1059 0.929 . S
H1048 C1062 0.930 . S
H1049 C1064 0.960 . S
H1050 C1064 0.960 . S
H1051 C1064 0.960 . S
C1052 H1044 0.929 . S
C1052 C1053 1.377 . S
C1052 C1054 1.384 . S
C1053 C1052 1.377 . S
C1053 C1059 1.390 . S
C1054 H1045 0.930 . S
C1054 C1052 1.384 . S
C1054 C1055 1.372 . S
C1055 C1054 1.372 . S
C1055 C1056 1.400 . S
C1055 C1060 1.490 . S
C1056 H1046 0.930 . S
C1056 C1055 1.400 . S
C1056 C1059 1.386 . S
H1057 C1073 0.930 . S
H1058 C1074 0.931 . S
C1059 H1047 0.929 . S
C1059 C1053 1.390 . S
C1059 C1056 1.386 . S
C1060 C1055 1.490 . S
C1060 C1062 1.395 . S
C1060 C1063 1.403 . S
H1061 C1067 0.930 . S
C1062 H1048 0.930 . S
C1062 C1060 1.395 . S
C1062 C1065 1.403 . S
C1063 C1060 1.403 . S
C1063 C1064 1.524 . S
C1063 C1067 1.400 . S
C1064 H1049 0.960 . S
C1064 H1050 0.960 . S
C1064 H1051 0.960 . S
C1064 C1063 1.524 . S
C1065 C1062 1.403 . S
C1065 C1066 1.392 . S
C1065 C1069 1.495 . S
C1066 C1065 1.392 . S
C1066 C1067 1.385 . S
C1066 C1068 1.478 . S
C1067 H1061 0.930 . S
C1067 C1063 1.400 . S
C1067 C1066 1.385 . S
C1068 C1066 1.478 . S
C1068 C1070 1.381 . S
C1068 C1074 1.383 . S
C1069 C1065 1.495 . S
C1069 H1075 0.959 . S
C1069 H1076 0.961 . S
C1069 H1077 0.960 . S
C1070 C1068 1.381 . S
C1070 C1071 1.394 . S
C1070 H1078 0.930 . S
C1071 C1070 1.394 . S
C1071 C1072 1.383 . S
C1071 H1079 0.929 . S
C1072 C1071 1.383 . S
C1072 C1073 1.377 . S
C1073 H1057 0.930 . S
C1073 C1072 1.377 . S
C1073 C1074 1.379 . S
C1074 H1058 0.931 . S
C1074 C1068 1.383 . S
C1074 C1073 1.379 . S
H1075 C1069 0.959 . S
H1076 C1069 0.961 . S
H1077 C1069 0.960 . S
H1078 C1070 0.930 . S
H1079 C1071 0.929 . S
H1080 C1088 0.929 . S
H1081 C1090 0.930 . S
H1082 C1092 0.930 . S
H1083 C1095 0.929 . S
H1084 C1098 0.930 . S
H1085 C1100 0.960 . S
H1086 C1100 0.960 . S
H1087 C1100 0.960 . S
C1088 H1080 0.929 . S
C1088 C1089 1.377 . S
C1088 C1090 1.384 . S
C1089 C1088 1.377 . S
C1089 C1095 1.390 . S
C1090 H1081 0.930 . S
C1090 C1088 1.384 . S
C1090 C1091 1.372 . S
C1091 C1090 1.372 . S
C1091 C1092 1.400 . S
C1091 C1096 1.490 . S
C1092 H1082 0.930 . S
C1092 C1091 1.400 . S
C1092 C1095 1.386 . S
H1093 C1109 0.930 . S
H1094 C1110 0.931 . S
C1095 H1083 0.929 . S
C1095 C1089 1.390 . S
C1095 C1092 1.386 . S
C1096 C1091 1.490 . S
C1096 C1098 1.395 . S
C1096 C1099 1.403 . S
H1097 C1103 0.930 . S
C1098 H1084 0.930 . S
C1098 C1096 1.395 . S
C1098 C1101 1.403 . S
C1099 C1096 1.403 . S
C1099 C1100 1.524 . S
C1099 C1103 1.400 . S
C1100 H1085 0.960 . S
C1100 H1086 0.960 . S
C1100 H1087 0.960 . S
C1100 C1099 1.524 . S
C1101 C1098 1.403 . S
C1101 C1102 1.392 . S
C1101 C1105 1.495 . S
C1102 C1101 1.392 . S
C1102 C1103 1.385 . S
C1102 C1104 1.478 . S
C1103 H1097 0.930 . S
C1103 C1099 1.400 . S
C1103 C1102 1.385 . S
C1104 C1102 1.478 . S
C1104 C1106 1.381 . S
C1104 C1110 1.383 . S
C1105 C1101 1.495 . S
C1105 H1111 0.959 . S
C1105 H1112 0.961 . S
C1105 H1113 0.960 . S
C1106 C1104 1.381 . S
C1106 C1107 1.394 1_565 S
C1106 H1114 0.929 1_565 S
C1107 C1106 1.394 1_545 S
C1107 C1108 1.383 1_545 S
C1107 H1115 0.929 . S
C1108 C1107 1.383 1_565 S
C1108 C1109 1.377 . S
C1109 H1093 0.930 . S
C1109 C1108 1.377 . S
C1109 C1110 1.379 . S
C1110 H1094 0.931 . S
C1110 C1104 1.383 . S
C1110 C1109 1.379 . S
H1111 C1105 0.959 . S
H1112 C1105 0.961 . S
H1113 C1105 0.960 . S
H1114 C1106 0.929 1_545 S
H1115 C1107 0.929 . S
H1116 C1124 0.929 . S
H1117 C1126 0.930 . S
H1118 C1128 0.930 . S
H1119 C1131 0.929 . S
H1120 C1134 0.930 . S
H1121 C1136 0.960 . S
H1122 C1136 0.960 . S
H1123 C1136 0.960 . S
C1124 H1116 0.929 . S
C1124 C1125 1.377 . S
C1124 C1126 1.384 . S
C1125 C1124 1.377 . S
C1125 C1131 1.390 . S
C1126 H1117 0.930 . S
C1126 C1124 1.384 . S
C1126 C1127 1.372 . S
C1127 C1126 1.372 . S
C1127 C1128 1.400 . S
C1127 C1132 1.490 . S
C1128 H1118 0.930 . S
C1128 C1127 1.400 . S
C1128 C1131 1.386 . S
H1129 C1145 0.930 . S
H1130 C1146 0.931 . S
C1131 H1119 0.929 . S
C1131 C1125 1.390 . S
C1131 C1128 1.386 . S
C1132 C1127 1.490 . S
C1132 C1134 1.395 . S
C1132 C1135 1.403 . S
H1133 C1139 0.930 . S
C1134 H1120 0.930 . S
C1134 C1132 1.395 . S
C1134 C1137 1.403 . S
C1135 C1132 1.403 . S
C1135 C1136 1.524 . S
C1135 C1139 1.400 . S
C1136 H1121 0.960 . S
C1136 H1122 0.960 . S
C1136 H1123 0.960 . S
C1136 C1135 1.524 . S
C1137 C1134 1.403 . S
C1137 C1138 1.392 . S
C1137 C1141 1.495 . S
C1138 C1137 1.392 . S
C1138 C1139 1.385 . S
C1138 C1140 1.478 . S
C1139 H1133 0.930 . S
C1139 C1135 1.400 . S
C1139 C1138 1.385 . S
C1140 C1138 1.478 . S
C1140 C1142 1.381 . S
C1140 C1146 1.383 . S
C1141 C1137 1.495 . S
C1141 H1147 0.959 . S
C1141 H1148 0.961 . S
C1141 H1149 0.960 . S
C1142 C1140 1.381 . S
C1142 C1143 1.394 . S
C1142 H1150 0.930 . S
C1143 C1142 1.394 . S
C1143 C1144 1.383 . S
C1143 H1151 0.929 . S
C1144 C1143 1.383 . S
C1144 C1145 1.377 . S
C1145 H1129 0.930 . S
C1145 C1144 1.377 . S
C1145 C1146 1.379 . S
C1146 H1130 0.931 . S
C1146 C1140 1.383 . S
C1146 C1145 1.379 . S
H1147 C1141 0.959 . S
H1148 C1141 0.961 . S
H1149 C1141 0.960 . S
H1150 C1142 0.930 . S
H1151 C1143 0.929 . S
H1152 C1160 0.929 . S
H1153 C1162 0.930 . S
H1154 C1164 0.930 . S
H1155 C1167 0.929 . S
H1156 C1170 0.930 . S
H1157 C1172 0.960 . S
H1158 C1172 0.960 . S
H1159 C1172 0.960 . S
C1160 H1152 0.929 . S
C1160 C1161 1.377 . S
C1160 C1162 1.384 . S
C1161 C1160 1.377 . S
C1161 C1167 1.390 . S
C1162 H1153 0.930 . S
C1162 C1160 1.384 . S
C1162 C1163 1.372 . S
C1163 C1162 1.372 . S
C1163 C1164 1.400 . S
C1163 C1168 1.490 . S
C1164 H1154 0.930 . S
C1164 C1163 1.400 . S
C1164 C1167 1.386 . S
H1165 C1181 0.930 . S
H1166 C1182 0.931 . S
C1167 H1155 0.929 . S
C1167 C1161 1.390 . S
C1167 C1164 1.386 . S
C1168 C1163 1.490 . S
C1168 C1170 1.395 . S
C1168 C1171 1.403 . S
H1169 C1175 0.930 . S
C1170 H1156 0.930 . S
C1170 C1168 1.395 . S
C1170 C1173 1.403 . S
C1171 C1168 1.403 . S
C1171 C1172 1.524 . S
C1171 C1175 1.400 . S
C1172 H1157 0.960 . S
C1172 H1158 0.960 . S
C1172 H1159 0.960 . S
C1172 C1171 1.524 . S
C1173 C1170 1.403 . S
C1173 C1174 1.392 . S
C1173 C1177 1.495 . S
C1174 C1173 1.392 . S
C1174 C1175 1.385 . S
C1174 C1176 1.478 . S
C1175 H1169 0.930 . S
C1175 C1171 1.400 . S
C1175 C1174 1.385 . S
C1176 C1174 1.478 . S
C1176 C1178 1.381 . S
C1176 C1182 1.383 . S
C1177 C1173 1.495 . S
C1177 H1183 0.959 . S
C1177 H1184 0.961 . S
C1177 H1185 0.960 . S
C1178 C1176 1.381 . S
C1178 C1179 1.394 . S
C1178 H1186 0.930 . S
C1179 C1178 1.394 . S
C1179 C1180 1.383 . S
C1179 H1187 0.929 . S
C1180 C1179 1.383 . S
C1180 C1181 1.377 . S
C1181 H1165 0.930 . S
C1181 C1180 1.377 . S
C1181 C1182 1.379 . S
C1182 H1166 0.931 . S
C1182 C1176 1.383 . S
C1182 C1181 1.379 . S
H1183 C1177 0.959 . S
H1184 C1177 0.961 . S
H1185 C1177 0.960 . S
H1186 C1178 0.930 . S
H1187 C1179 0.929 . S
H1188 C1196 0.929 . S
H1189 C1198 0.930 . S
H1190 C1200 0.930 . S
H1191 C1203 0.929 . S
H1192 C1206 0.930 . S
H1193 C1208 0.960 . S
H1194 C1208 0.960 . S
H1195 C1208 0.960 . S
C1196 H1188 0.929 . S
C1196 C1197 1.377 . S
C1196 C1198 1.384 . S
C1197 C1196 1.377 . S
C1197 C1203 1.390 . S
C1198 H1189 0.930 . S
C1198 C1196 1.384 . S
C1198 C1199 1.372 . S
C1199 C1198 1.372 . S
C1199 C1200 1.400 . S
C1199 C1204 1.490 . S
C1200 H1190 0.930 . S
C1200 C1199 1.400 . S
C1200 C1203 1.386 . S
H1201 C1217 0.930 . S
H1202 C1218 0.931 . S
C1203 H1191 0.929 . S
C1203 C1197 1.390 . S
C1203 C1200 1.386 . S
C1204 C1199 1.490 . S
C1204 C1206 1.395 . S
C1204 C1207 1.403 . S
H1205 C1211 0.930 . S
C1206 H1192 0.930 . S
C1206 C1204 1.395 . S
C1206 C1209 1.403 . S
C1207 C1204 1.403 . S
C1207 C1208 1.524 . S
C1207 C1211 1.400 . S
C1208 H1193 0.960 . S
C1208 H1194 0.960 . S
C1208 H1195 0.960 . S
C1208 C1207 1.524 . S
C1209 C1206 1.403 . S
C1209 C1210 1.392 . S
C1209 C1213 1.495 . S
C1210 C1209 1.392 . S
C1210 C1211 1.385 . S
C1210 C1212 1.478 . S
C1211 H1205 0.930 . S
C1211 C1207 1.400 . S
C1211 C1210 1.385 . S
C1212 C1210 1.478 . S
C1212 C1214 1.381 . S
C1212 C1218 1.383 . S
C1213 C1209 1.495 . S
C1213 H1219 0.959 . S
C1213 H1220 0.961 . S
C1213 H1221 0.960 . S
C1214 C1212 1.381 . S
C1214 C1215 1.394 . S
C1214 H1222 0.930 . S
C1215 C1214 1.394 . S
C1215 C1216 1.383 . S
C1215 H1223 0.929 . S
C1216 C1215 1.383 . S
C1216 C1217 1.377 . S
C1217 H1201 0.930 . S
C1217 C1216 1.377 . S
C1217 C1218 1.379 . S
C1218 H1202 0.931 . S
C1218 C1212 1.383 . S
C1218 C1217 1.379 . S
H1219 C1213 0.959 . S
H1220 C1213 0.961 . S
H1221 C1213 0.960 . S
H1222 C1214 0.930 . S
H1223 C1215 0.929 . S
H1224 C1232 0.929 . S
H1225 C1234 0.930 . S
H1226 C1236 0.930 . S
H1227 C1239 0.929 . S
H1228 C1242 0.930 . S
H1229 C1244 0.960 . S
H1230 C1244 0.960 . S
H1231 C1244 0.960 . S
C1232 H1224 0.929 . S
C1232 C1233 1.377 . S
C1232 C1234 1.384 . S
C1233 C1232 1.377 . S
C1233 C1239 1.390 . S
C1234 H1225 0.930 . S
C1234 C1232 1.384 . S
C1234 C1235 1.372 . S
C1235 C1234 1.372 . S
C1235 C1236 1.400 . S
C1235 C1240 1.490 . S
C1236 H1226 0.930 . S
C1236 C1235 1.400 . S
C1236 C1239 1.386 . S
H1237 C1253 0.930 . S
H1238 C1254 0.931 . S
C1239 H1227 0.929 . S
C1239 C1233 1.390 . S
C1239 C1236 1.386 . S
C1240 C1235 1.490 . S
C1240 C1242 1.395 . S
C1240 C1243 1.403 . S
H1241 C1247 0.930 . S
C1242 H1228 0.930 . S
C1242 C1240 1.395 . S
C1242 C1245 1.403 . S
C1243 C1240 1.403 . S
C1243 C1244 1.524 . S
C1243 C1247 1.400 . S
C1244 H1229 0.960 . S
C1244 H1230 0.960 . S
C1244 H1231 0.960 . S
C1244 C1243 1.524 . S
C1245 C1242 1.403 . S
C1245 C1246 1.392 . S
C1245 C1249 1.495 . S
C1246 C1245 1.392 . S
C1246 C1247 1.385 . S
C1246 C1248 1.478 . S
C1247 H1241 0.930 . S
C1247 C1243 1.400 . S
C1247 C1246 1.385 . S
C1248 C1246 1.478 . S
C1248 C1250 1.381 . S
C1248 C1254 1.383 . S
C1249 C1245 1.495 . S
C1249 H1255 0.959 . S
C1249 H1256 0.961 . S
C1249 H1257 0.960 . S
C1250 C1248 1.381 . S
C1250 C1251 1.394 1_554 S
C1250 H1258 0.930 . S
C1251 C1250 1.394 1_556 S
C1251 C1252 1.383 . S
C1251 H1259 0.929 . S
C1252 C1251 1.383 . S
C1252 C1253 1.377 . S
C1253 H1237 0.930 . S
C1253 C1252 1.377 . S
C1253 C1254 1.379 1_556 S
C1254 H1238 0.931 . S
C1254 C1248 1.383 . S
C1254 C1253 1.379 1_554 S
H1255 C1249 0.959 . S
H1256 C1249 0.961 . S
H1257 C1249 0.960 . S
H1258 C1250 0.930 . S
H1259 C1251 0.929 . S
H1260 C1268 0.929 . S
H1261 C1270 0.930 . S
H1262 C1272 0.930 . S
H1263 C1275 0.929 . S
H1264 C1278 0.930 . S
H1265 C1280 0.960 . S
H1266 C1280 0.960 . S
H1267 C1280 0.960 . S
C1268 H1260 0.929 . S
C1268 C1269 1.377 . S
C1268 C1270 1.384 . S
C1269 C1268 1.377 . S
C1269 C1275 1.390 . S
C1270 H1261 0.930 . S
C1270 C1268 1.384 . S
C1270 C1271 1.372 . S
C1271 C1270 1.372 . S
C1271 C1272 1.400 . S
C1271 C1276 1.490 . S
C1272 H1262 0.930 . S
C1272 C1271 1.400 . S
C1272 C1275 1.386 . S
H1273 C1289 0.930 . S
H1274 C1290 0.931 . S
C1275 H1263 0.929 . S
C1275 C1269 1.390 . S
C1275 C1272 1.386 . S
C1276 C1271 1.490 . S
C1276 C1278 1.395 . S
C1276 C1279 1.403 . S
H1277 C1283 0.930 . S
C1278 H1264 0.930 . S
C1278 C1276 1.395 . S
C1278 C1281 1.403 . S
C1279 C1276 1.403 . S
C1279 C1280 1.524 . S
C1279 C1283 1.400 . S
C1280 H1265 0.960 . S
C1280 H1266 0.960 . S
C1280 H1267 0.960 . S
C1280 C1279 1.524 . S
C1281 C1278 1.403 . S
C1281 C1282 1.392 . S
C1281 C1285 1.495 . S
C1282 C1281 1.392 . S
C1282 C1283 1.385 . S
C1282 C1284 1.478 . S
C1283 H1277 0.930 . S
C1283 C1279 1.400 . S
C1283 C1282 1.385 . S
C1284 C1282 1.478 . S
C1284 C1286 1.378 1_554 S
C1284 C1290 1.383 . S
C1285 C1281 1.495 . S
C1285 H1291 0.959 . S
C1285 H1292 0.961 . S
C1285 H1293 0.960 . S
C1286 C1284 1.378 1_556 S
C1286 C1287 1.397 . S
C1286 H1294 0.929 1_556 S
C1287 C1286 1.397 . S
C1287 C1288 1.383 . S
C1287 H1295 0.929 . S
C1288 C1287 1.383 . S
C1288 C1289 1.377 . S
C1289 H1273 0.930 . S
C1289 C1288 1.377 . S
C1289 C1290 1.379 1_556 S
C1290 H1274 0.931 . S
C1290 C1284 1.383 . S
C1290 C1289 1.379 1_554 S
H1291 C1285 0.959 . S
H1292 C1285 0.961 . S
H1293 C1285 0.960 . S
H1294 C1286 0.929 1_554 S
H1295 C1287 0.929 . S
H1296 C1304 0.929 . S
H1297 C1306 0.930 . S
H1298 C1308 0.930 . S
H1299 C1311 0.929 . S
H1300 C1314 0.930 . S
H1301 C1316 0.960 . S
H1302 C1316 0.960 . S
H1303 C1316 0.960 . S
C1304 H1296 0.929 . S
C1304 C1305 1.377 . S
C1304 C1306 1.384 . S
C1305 C1304 1.377 . S
C1305 C1311 1.390 . S
C1306 H1297 0.930 . S
C1306 C1304 1.384 . S
C1306 C1307 1.372 . S
C1307 C1306 1.372 . S
C1307 C1308 1.400 . S
C1307 C1312 1.490 . S
C1308 H1298 0.930 . S
C1308 C1307 1.400 . S
C1308 C1311 1.386 . S
H1309 C1325 0.930 . S
H1310 C1326 0.931 . S
C1311 H1299 0.929 . S
C1311 C1305 1.390 . S
C1311 C1308 1.386 . S
C1312 C1307 1.490 . S
C1312 C1314 1.395 . S
C1312 C1315 1.403 . S
H1313 C1319 0.930 . S
C1314 H1300 0.930 . S
C1314 C1312 1.395 . S
C1314 C1317 1.403 . S
C1315 C1312 1.403 . S
C1315 C1316 1.524 . S
C1315 C1319 1.400 . S
C1316 H1301 0.960 . S
C1316 H1302 0.960 . S
C1316 H1303 0.960 . S
C1316 C1315 1.524 . S
C1317 C1314 1.403 . S
C1317 C1318 1.392 . S
C1317 C1321 1.495 . S
C1318 C1317 1.392 . S
C1318 C1319 1.385 . S
C1318 C1320 1.478 . S
C1319 H1313 0.930 . S
C1319 C1315 1.400 . S
C1319 C1318 1.385 . S
C1320 C1318 1.478 . S
C1320 C1322 1.381 . S
C1320 C1326 1.383 . S
C1321 C1317 1.495 . S
C1321 H1327 0.959 . S
C1321 H1328 0.961 . S
C1321 H1329 0.960 . S
C1322 C1320 1.381 . S
C1322 C1323 1.394 1_554 S
C1322 H1330 0.930 . S
C1323 C1322 1.394 1_556 S
C1323 C1324 1.383 . S
C1323 H1331 0.929 . S
C1324 C1323 1.383 . S
C1324 C1325 1.377 . S
C1325 H1309 0.930 . S
C1325 C1324 1.377 . S
C1325 C1326 1.379 1_556 S
C1326 H1310 0.931 . S
C1326 C1320 1.383 . S
C1326 C1325 1.379 1_554 S
H1327 C1321 0.959 . S
H1328 C1321 0.961 . S
H1329 C1321 0.960 . S
H1330 C1322 0.930 . S
H1331 C1323 0.929 . S
H1332 C1340 0.929 . S
H1333 C1342 0.930 . S
H1334 C1344 0.930 . S
H1335 C1347 0.929 . S
H1336 C1350 0.930 . S
H1337 C1352 0.960 . S
H1338 C1352 0.960 . S
H1339 C1352 0.960 . S
C1340 H1332 0.929 . S
C1340 C1341 1.377 . S
C1340 C1342 1.384 . S
C1341 C1340 1.377 . S
C1341 C1347 1.390 . S
C1342 H1333 0.930 . S
C1342 C1340 1.384 . S
C1342 C1343 1.372 . S
C1343 C1342 1.372 . S
C1343 C1344 1.400 . S
C1343 C1348 1.490 . S
C1344 H1334 0.930 . S
C1344 C1343 1.400 . S
C1344 C1347 1.386 . S
H1345 C1361 0.930 . S
H1346 C1362 0.931 . S
C1347 H1335 0.929 . S
C1347 C1341 1.390 . S
C1347 C1344 1.386 . S
C1348 C1343 1.490 . S
C1348 C1350 1.395 . S
C1348 C1351 1.403 . S
H1349 C1355 0.930 . S
C1350 H1336 0.930 . S
C1350 C1348 1.395 . S
C1350 C1353 1.403 . S
C1351 C1348 1.403 . S
C1351 C1352 1.524 . S
C1351 C1355 1.400 . S
C1352 H1337 0.960 . S
C1352 H1338 0.960 . S
C1352 H1339 0.960 . S
C1352 C1351 1.524 . S
C1353 C1350 1.403 . S
C1353 C1354 1.392 . S
C1353 C1357 1.495 . S
C1354 C1353 1.392 . S
C1354 C1355 1.385 . S
C1354 C1356 1.478 . S
C1355 H1349 0.930 . S
C1355 C1351 1.400 . S
C1355 C1354 1.385 . S
C1356 C1354 1.478 . S
C1356 C1358 1.381 . S
C1356 C1362 1.383 . S
C1357 C1353 1.495 . S
C1357 H1363 0.959 . S
C1357 H1364 0.961 . S
C1357 H1365 0.960 . S
C1358 C1356 1.381 . S
C1358 C1359 1.394 . S
C1358 H1366 0.930 . S
C1359 C1358 1.394 . S
C1359 C1360 1.383 . S
C1359 H1367 0.929 . S
C1360 C1359 1.383 . S
C1360 C1361 1.377 . S
C1361 H1345 0.930 . S
C1361 C1360 1.377 . S
C1361 C1362 1.379 . S
C1362 H1346 0.931 . S
C1362 C1356 1.383 . S
C1362 C1361 1.379 . S
H1363 C1357 0.959 . S
H1364 C1357 0.961 . S
H1365 C1357 0.960 . S
H1366 C1358 0.930 . S
H1367 C1359 0.929 . S
H1368 C1376 0.929 . S
H1369 C1378 0.930 . S
H1370 C1380 0.930 . S
H1371 C1383 0.929 . S
H1372 C1386 0.930 . S
H1373 C1388 0.960 . S
H1374 C1388 0.960 . S
H1375 C1388 0.960 . S
C1376 H1368 0.929 . S
C1376 C1377 1.377 . S
C1376 C1378 1.384 . S
C1377 C1376 1.377 . S
C1377 C1383 1.390 . S
C1378 H1369 0.930 . S
C1378 C1376 1.384 . S
C1378 C1379 1.372 . S
C1379 C1378 1.372 . S
C1379 C1380 1.400 . S
C1379 C1384 1.490 . S
C1380 H1370 0.930 . S
C1380 C1379 1.400 . S
C1380 C1383 1.386 . S
H1381 C1397 0.930 . S
H1382 C1398 0.931 . S
C1383 H1371 0.929 . S
C1383 C1377 1.390 . S
C1383 C1380 1.386 . S
C1384 C1379 1.490 . S
C1384 C1386 1.395 . S
C1384 C1387 1.403 . S
H1385 C1391 0.930 . S
C1386 H1372 0.930 . S
C1386 C1384 1.395 . S
C1386 C1389 1.403 . S
C1387 C1384 1.403 . S
C1387 C1388 1.524 . S
C1387 C1391 1.400 . S
C1388 H1373 0.960 . S
C1388 H1374 0.960 . S
C1388 H1375 0.960 . S
C1388 C1387 1.524 . S
C1389 C1386 1.403 . S
C1389 C1390 1.392 . S
C1389 C1393 1.495 . S
C1390 C1389 1.392 . S
C1390 C1391 1.385 . S
C1390 C1392 1.478 . S
C1391 H1385 0.930 . S
C1391 C1387 1.400 . S
C1391 C1390 1.385 . S
C1392 C1390 1.478 . S
C1392 C1394 1.381 . S
C1392 C1398 1.383 . S
C1393 C1389 1.495 . S
C1393 H1399 0.959 . S
C1393 H1400 0.961 . S
C1393 H1401 0.960 . S
C1394 C1392 1.381 . S
C1394 C1395 1.394 . S
C1394 H1402 0.930 . S
C1395 C1394 1.394 . S
C1395 C1396 1.383 . S
C1395 H1403 0.929 . S
C1396 C1395 1.383 . S
C1396 C1397 1.377 . S
C1397 H1381 0.930 . S
C1397 C1396 1.377 . S
C1397 C1398 1.379 . S
C1398 H1382 0.931 . S
C1398 C1392 1.383 . S
C1398 C1397 1.379 . S
H1399 C1393 0.959 . S
H1400 C1393 0.961 . S
H1401 C1393 0.960 . S
H1402 C1394 0.930 . S
H1403 C1395 0.929 . S
H1404 C1412 0.929 . S
H1405 C1414 0.930 . S
H1406 C1416 0.930 . S
H1407 C1419 0.929 . S
H1408 C1422 0.930 . S
H1409 C1424 0.960 . S
H1410 C1424 0.960 . S
H1411 C1424 0.960 . S
C1412 H1404 0.929 . S
C1412 C1413 1.377 . S
C1412 C1414 1.384 . S
C1413 C1412 1.377 . S
C1413 C1419 1.390 . S
C1414 H1405 0.930 . S
C1414 C1412 1.384 . S
C1414 C1415 1.372 . S
C1415 C1414 1.372 . S
C1415 C1416 1.400 . S
C1415 C1420 1.490 . S
C1416 H1406 0.930 . S
C1416 C1415 1.400 . S
C1416 C1419 1.386 . S
H1417 C1433 0.930 . S
H1418 C1434 0.931 . S
C1419 H1407 0.929 . S
C1419 C1413 1.390 . S
C1419 C1416 1.386 . S
C1420 C1415 1.490 . S
C1420 C1422 1.395 . S
C1420 C1423 1.403 . S
H1421 C1427 0.930 . S
C1422 H1408 0.930 . S
C1422 C1420 1.395 . S
C1422 C1425 1.403 . S
C1423 C1420 1.403 . S
C1423 C1424 1.524 . S
C1423 C1427 1.400 . S
C1424 H1409 0.960 . S
C1424 H1410 0.960 . S
C1424 H1411 0.960 . S
C1424 C1423 1.524 . S
C1425 C1422 1.403 . S
C1425 C1426 1.392 . S
C1425 C1429 1.495 . S
C1426 C1425 1.392 . S
C1426 C1427 1.385 . S
C1426 C1428 1.478 . S
C1427 H1421 0.930 . S
C1427 C1423 1.400 . S
C1427 C1426 1.385 . S
C1428 C1426 1.478 . S
C1428 C1430 1.381 . S
C1428 C1434 1.383 . S
C1429 C1425 1.495 . S
C1429 H1435 0.959 . S
C1429 H1436 0.961 . S
C1429 H1437 0.960 . S
C1430 C1428 1.381 . S
C1430 C1431 1.394 . S
C1430 H1438 0.930 . S
C1431 C1430 1.394 . S
C1431 C1432 1.383 . S
C1431 H1439 0.929 . S
C1432 C1431 1.383 . S
C1432 C1433 1.377 . S
C1433 H1417 0.930 . S
C1433 C1432 1.377 . S
C1433 C1434 1.379 . S
C1434 H1418 0.931 . S
C1434 C1428 1.383 . S
C1434 C1433 1.379 . S
H1435 C1429 0.959 . S
H1436 C1429 0.961 . S
H1437 C1429 0.960 . S
H1438 C1430 0.930 . S
H1439 C1431 0.929 . S
H1440 C1448 0.929 . S
H1441 C1450 0.930 . S
H1442 C1452 0.930 . S
H1443 C1455 0.929 . S
H1444 C1458 0.930 . S
H1445 C1460 0.960 . S
H1446 C1460 0.960 . S
H1447 C1460 0.960 . S
C1448 H1440 0.929 . S
C1448 C1449 1.377 . S
C1448 C1450 1.384 1_554 S
C1449 C1448 1.377 . S
C1449 C1455 1.390 . S
C1450 H1441 0.930 . S
C1450 C1448 1.384 1_556 S
C1450 C1451 1.372 . S
C1451 C1450 1.372 . S
C1451 C1452 1.400 . S
C1451 C1456 1.490 . S
C1452 H1442 0.930 . S
C1452 C1451 1.400 . S
C1452 C1455 1.386 1_556 S
H1453 C1469 0.930 . S
H1454 C1470 0.931 . S
C1455 H1443 0.929 . S
C1455 C1449 1.390 . S
C1455 C1452 1.386 1_554 S
C1456 C1451 1.490 . S
C1456 C1458 1.395 . S
C1456 C1459 1.403 . S
H1457 C1463 0.930 . S
C1458 H1444 0.930 . S
C1458 C1456 1.395 . S
C1458 C1461 1.403 . S
C1459 C1456 1.403 . S
C1459 C1460 1.524 . S
C1459 C1463 1.400 . S
C1460 H1445 0.960 . S
C1460 H1446 0.960 . S
C1460 H1447 0.960 . S
C1460 C1459 1.524 . S
C1461 C1458 1.403 . S
C1461 C1462 1.392 . S
C1461 C1465 1.495 . S
C1462 C1461 1.392 . S
C1462 C1463 1.385 . S
C1462 C1464 1.478 . S
C1463 H1457 0.930 . S
C1463 C1459 1.400 . S
C1463 C1462 1.385 . S
C1464 C1462 1.478 . S
C1464 C1466 1.381 . S
C1464 C1470 1.383 . S
C1465 C1461 1.495 . S
C1465 H1471 0.959 . S
C1465 H1472 0.961 . S
C1465 H1473 0.960 . S
C1466 C1464 1.381 . S
C1466 C1467 1.394 . S
C1466 H1474 0.930 . S
C1467 C1466 1.394 . S
C1467 C1468 1.383 . S
C1467 H1475 0.929 . S
C1468 C1467 1.383 . S
C1468 C1469 1.377 . S
C1469 H1453 0.930 . S
C1469 C1468 1.377 . S
C1469 C1470 1.379 . S
C1470 H1454 0.931 . S
C1470 C1464 1.383 . S
C1470 C1469 1.379 . S
H1471 C1465 0.959 . S
H1472 C1465 0.961 . S
H1473 C1465 0.960 . S
H1474 C1466 0.930 . S
H1475 C1467 0.929 . S
H1476 C1484 0.929 . S
H1477 C1486 0.930 . S
H1478 C1488 0.930 . S
H1479 C1491 0.929 . S
H1480 C1494 0.930 . S
H1481 C1496 0.960 . S
H1482 C1496 0.960 . S
H1483 C1496 0.960 . S
C1484 H1476 0.929 . S
C1484 C1485 1.377 . S
C1484 C1486 1.384 1_554 S
C1485 C1484 1.377 . S
C1485 C1491 1.390 . S
C1486 H1477 0.930 . S
C1486 C1484 1.384 1_556 S
C1486 C1487 1.372 . S
C1487 C1486 1.372 . S
C1487 C1488 1.400 . S
C1487 C1492 1.490 . S
C1488 H1478 0.930 . S
C1488 C1487 1.400 . S
C1488 C1491 1.386 1_556 S
H1489 C1505 0.930 . S
H1490 C1506 0.931 . S
C1491 H1479 0.929 . S
C1491 C1485 1.390 . S
C1491 C1488 1.386 1_554 S
C1492 C1487 1.490 . S
C1492 C1494 1.395 . S
C1492 C1495 1.403 . S
H1493 C1499 0.930 . S
C1494 H1480 0.930 . S
C1494 C1492 1.395 . S
C1494 C1497 1.403 . S
C1495 C1492 1.403 . S
C1495 C1496 1.524 . S
C1495 C1499 1.400 . S
C1496 H1481 0.960 . S
C1496 H1482 0.960 . S
C1496 H1483 0.960 . S
C1496 C1495 1.524 . S
C1497 C1494 1.403 . S
C1497 C1498 1.392 . S
C1497 C1501 1.495 . S
C1498 C1497 1.392 . S
C1498 C1499 1.385 . S
C1498 C1500 1.478 . S
C1499 H1493 0.930 . S
C1499 C1495 1.400 . S
C1499 C1498 1.385 . S
C1500 C1498 1.478 . S
C1500 C1502 1.381 . S
C1500 C1506 1.383 . S
C1501 C1497 1.495 . S
C1501 H1507 0.959 . S
C1501 H1508 0.961 . S
C1501 H1509 0.960 . S
C1502 C1500 1.381 . S
C1502 C1503 1.394 . S
C1502 H1510 0.930 . S
C1503 C1502 1.394 . S
C1503 C1504 1.383 . S
C1503 H1511 0.929 . S
C1504 C1503 1.383 . S
C1504 C1505 1.377 . S
C1505 H1489 0.930 . S
C1505 C1504 1.377 . S
C1505 C1506 1.379 . S
C1506 H1490 0.931 . S
C1506 C1500 1.383 . S
C1506 C1505 1.379 . S
H1507 C1501 0.959 . S
H1508 C1501 0.961 . S
H1509 C1501 0.960 . S
H1510 C1502 0.930 . S
H1511 C1503 0.929 . S
H1512 C1520 0.929 . S
H1513 C1522 0.930 . S
H1514 C1524 0.930 . S
H1515 C1527 0.929 . S
H1516 C1530 0.930 . S
H1517 C1532 0.960 . S
H1518 C1532 0.960 . S
H1519 C1532 0.960 . S
C1520 H1512 0.929 . S
C1520 C1521 1.377 . S
C1520 C1522 1.384 . S
C1521 C1520 1.377 . S
C1521 C1527 1.390 . S
C1522 H1513 0.930 . S
C1522 C1520 1.384 . S
C1522 C1523 1.372 . S
C1523 C1522 1.372 . S
C1523 C1524 1.400 . S
C1523 C1528 1.490 . S
C1524 H1514 0.930 . S
C1524 C1523 1.400 . S
C1524 C1527 1.386 . S
H1525 C1541 0.930 . S
H1526 C1542 0.931 . S
C1527 H1515 0.929 . S
C1527 C1521 1.390 . S
C1527 C1524 1.386 . S
C1528 C1523 1.490 . S
C1528 C1530 1.395 . S
C1528 C1531 1.403 . S
H1529 C1535 0.930 . S
C1530 H1516 0.930 . S
C1530 C1528 1.395 . S
C1530 C1533 1.403 . S
C1531 C1528 1.403 . S
C1531 C1532 1.524 . S
C1531 C1535 1.400 . S
C1532 H1517 0.960 . S
C1532 H1518 0.960 . S
C1532 H1519 0.960 . S
C1532 C1531 1.524 . S
C1533 C1530 1.403 . S
C1533 C1534 1.392 . S
C1533 C1537 1.495 . S
C1534 C1533 1.392 . S
C1534 C1535 1.385 . S
C1534 C1536 1.478 . S
C1535 H1529 0.930 . S
C1535 C1531 1.400 . S
C1535 C1534 1.385 . S
C1536 C1534 1.478 . S
C1536 C1538 1.381 . S
C1536 C1542 1.383 . S
C1537 C1533 1.495 . S
C1537 H1543 0.959 . S
C1537 H1544 0.961 . S
C1537 H1545 0.960 . S
C1538 C1536 1.381 . S
C1538 C1539 1.394 1_556 S
C1538 H1546 0.930 . S
C1539 C1538 1.394 1_554 S
C1539 C1540 1.383 . S
C1539 H1547 0.929 . S
C1540 C1539 1.383 . S
C1540 C1541 1.377 . S
C1541 H1525 0.930 . S
C1541 C1540 1.377 . S
C1541 C1542 1.379 1_554 S
C1542 H1526 0.931 . S
C1542 C1536 1.383 . S
C1542 C1541 1.379 1_556 S
H1543 C1537 0.959 . S
H1544 C1537 0.961 . S
H1545 C1537 0.960 . S
H1546 C1538 0.930 . S
H1547 C1539 0.929 . S
H1548 C1556 0.929 . S
H1549 C1558 0.930 . S
H1550 C1560 0.934 1_655 S
H1551 C1563 0.929 . S
H1552 C1566 0.930 . S
H1553 C1568 0.960 . S
H1554 C1568 0.960 . S
H1555 C1568 0.960 . S
C1556 H1548 0.929 . S
C1556 C1557 1.377 . S
C1556 C1558 1.384 . S
C1557 C1556 1.377 . S
C1557 C1563 1.390 . S
C1558 H1549 0.930 . S
C1558 C1556 1.384 . S
C1558 C1559 1.372 . S
C1559 C1558 1.372 . S
C1559 C1560 1.400 . S
C1559 C1564 1.490 . S
C1560 H1550 0.934 1_455 S
C1560 C1559 1.400 . S
C1560 C1563 1.386 . S
H1561 C1577 0.930 . S
H1562 C1578 0.931 . S
C1563 H1551 0.929 . S
C1563 C1557 1.390 . S
C1563 C1560 1.386 . S
C1564 C1559 1.490 . S
C1564 C1566 1.395 . S
C1564 C1567 1.403 . S
H1565 C1571 0.930 . S
C1566 H1552 0.930 . S
C1566 C1564 1.395 . S
C1566 C1569 1.403 1_455 S
C1567 C1564 1.403 . S
C1567 C1568 1.524 . S
C1567 C1571 1.400 1_455 S
C1568 H1553 0.960 . S
C1568 H1554 0.960 . S
C1568 H1555 0.960 . S
C1568 C1567 1.524 . S
C1569 C1566 1.403 1_655 S
C1569 C1570 1.392 . S
C1569 C1573 1.495 . S
C1570 C1569 1.392 . S
C1570 C1571 1.385 . S
C1570 C1572 1.478 . S
C1571 H1565 0.930 . S
C1571 C1567 1.400 1_655 S
C1571 C1570 1.385 . S
C1572 C1570 1.478 . S
C1572 C1574 1.381 . S
C1572 C1578 1.383 . S
C1573 C1569 1.495 . S
C1573 H1579 0.959 . S
C1573 H1580 0.961 . S
C1573 H1581 0.960 . S
C1574 C1572 1.381 . S
C1574 C1575 1.394 . S
C1574 H1582 0.893 1_655 S
C1575 C1574 1.394 . S
C1575 C1576 1.383 . S
C1575 H1583 0.929 . S
C1576 C1575 1.383 . S
C1576 C1577 1.377 . S
C1577 H1561 0.930 . S
C1577 C1576 1.377 . S
C1577 C1578 1.379 . S
C1578 H1562 0.931 . S
C1578 C1572 1.383 . S
C1578 C1577 1.379 . S
H1579 C1573 0.959 . S
H1580 C1573 0.961 . S
H1581 C1573 0.960 . S
H1582 C1574 0.893 1_455 S
H1583 C1575 0.929 . S
H1584 C1592 0.929 . S
H1585 C1594 0.930 . S
H1586 C1596 0.930 . S
H1587 C1599 0.929 . S
H1588 C1602 0.930 . S
H1589 C1604 0.960 . S
H1590 C1604 0.960 . S
H1591 C1604 0.960 . S
C1592 H1584 0.929 . S
C1592 C1593 1.377 . S
C1592 C1594 1.384 . S
C1593 C1592 1.377 . S
C1593 C1599 1.390 . S
C1594 H1585 0.930 . S
C1594 C1592 1.384 . S
C1594 C1595 1.372 . S
C1595 C1594 1.372 . S
C1595 C1596 1.400 . S
C1595 C1600 1.490 . S
C1596 H1586 0.930 . S
C1596 C1595 1.400 . S
C1596 C1599 1.386 . S
H1597 C1613 0.930 . S
H1598 C1614 0.931 . S
C1599 H1587 0.929 . S
C1599 C1593 1.390 . S
C1599 C1596 1.386 . S
C1600 C1595 1.490 . S
C1600 C1602 1.395 . S
C1600 C1603 1.403 . S
H1601 C1607 0.930 . S
C1602 H1588 0.930 . S
C1602 C1600 1.395 . S
C1602 C1605 1.403 . S
C1603 C1600 1.403 . S
C1603 C1604 1.524 . S
C1603 C1607 1.400 . S
C1604 H1589 0.960 . S
C1604 H1590 0.960 . S
C1604 H1591 0.960 . S
C1604 C1603 1.524 . S
C1605 C1602 1.403 . S
C1605 C1606 1.392 . S
C1605 C1609 1.495 . S
C1606 C1605 1.392 . S
C1606 C1607 1.385 . S
C1606 C1608 1.478 . S
C1607 H1601 0.930 . S
C1607 C1603 1.400 . S
C1607 C1606 1.385 . S
C1608 C1606 1.478 . S
C1608 C1610 1.381 . S
C1608 C1614 1.383 . S
C1609 C1605 1.495 . S
C1609 H1615 0.959 . S
C1609 H1616 0.961 . S
C1609 H1617 0.960 . S
C1610 C1608 1.381 . S
C1610 C1611 1.394 . S
C1610 H1618 0.930 . S
C1611 C1610 1.394 . S
C1611 C1612 1.383 . S
C1611 H1619 0.929 . S
C1612 C1611 1.383 . S
C1612 C1613 1.377 . S
C1613 H1597 0.930 . S
C1613 C1612 1.377 . S
C1613 C1614 1.379 . S
C1614 H1598 0.931 . S
C1614 C1608 1.383 . S
C1614 C1613 1.379 . S
H1615 C1609 0.959 . S
H1616 C1609 0.961 . S
H1617 C1609 0.960 . S
H1618 C1610 0.930 . S
H1619 C1611 0.929 . S
H1620 C1628 0.929 . S
H1621 C1630 0.930 1_565 S
H1622 C1632 0.930 . S
H1623 C1635 0.929 . S
H1624 C1638 0.930 . S
H1625 C1640 0.960 . S
H1626 C1640 0.960 . S
H1627 C1640 0.960 . S
C1628 H1620 0.929 . S
C1628 C1629 1.377 . S
C1628 C1630 1.384 . S
C1629 C1628 1.377 . S
C1629 C1635 1.390 . S
C1630 H1621 0.930 1_545 S
C1630 C1628 1.384 . S
C1630 C1631 1.372 . S
C1631 C1630 1.372 . S
C1631 C1632 1.400 . S
C1631 C1636 1.490 . S
C1632 H1622 0.930 . S
C1632 C1631 1.400 . S
C1632 C1635 1.386 . S
H1633 C1649 0.930 . S
H1634 C1650 0.931 1_545 S
C1635 H1623 0.929 . S
C1635 C1629 1.390 . S
C1635 C1632 1.386 . S
C1636 C1631 1.490 . S
C1636 C1638 1.395 1_545 S
C1636 C1639 1.403 . S
H1637 C1643 0.944 . S
C1638 H1624 0.930 . S
C1638 C1636 1.395 1_565 S
C1638 C1641 1.403 . S
C1639 C1636 1.403 . S
C1639 C1640 1.524 . S
C1639 C1643 1.377 1_545 S
C1640 H1625 0.960 . S
C1640 H1626 0.960 . S
C1640 H1627 0.960 . S
C1640 C1639 1.524 . S
C1641 C1638 1.403 . S
C1641 C1642 1.392 . S
C1641 C1645 1.495 . S
C1642 C1641 1.392 . S
C1642 C1643 1.386 . S
C1642 C1644 1.478 . S
C1643 H1637 0.944 . S
C1643 C1639 1.377 1_565 S
C1643 C1642 1.386 . S
C1644 C1642 1.478 . S
C1644 C1646 1.381 . S
C1644 C1650 1.383 . S
C1645 C1641 1.495 . S
C1645 H1651 0.959 . S
C1645 H1652 0.961 . S
C1645 H1653 0.960 . S
C1646 C1644 1.381 . S
C1646 C1647 1.394 . S
C1646 H1654 0.930 . S
C1647 C1646 1.394 . S
C1647 C1648 1.383 . S
C1647 H1655 0.929 . S
C1648 C1647 1.383 . S
C1648 C1649 1.377 . S
C1649 H1633 0.930 . S
C1649 C1648 1.377 . S
C1649 C1650 1.379 . S
C1650 H1634 0.931 1_565 S
C1650 C1644 1.383 . S
C1650 C1649 1.379 . S
H1651 C1645 0.959 . S
H1652 C1645 0.961 . S
H1653 C1645 0.960 . S
H1654 C1646 0.930 . S
H1655 C1647 0.929 . S
H1656 C1664 0.929 . S
H1657 C1666 0.930 . S
H1658 C1668 0.930 1_545 S
H1659 C1671 0.929 . S
H1660 C1674 0.930 . S
H1661 C1676 0.960 . S
H1662 C1676 0.960 . S
H1663 C1676 0.960 . S
C1664 H1656 0.929 . S
C1664 C1665 1.377 . S
C1664 C1666 1.384 . S
C1665 C1664 1.377 . S
C1665 C1671 1.390 . S
C1666 H1657 0.930 . S
C1666 C1664 1.384 . S
C1666 C1667 1.372 . S
C1667 C1666 1.372 . S
C1667 C1668 1.400 . S
C1667 C1672 1.490 . S
C1668 H1658 0.930 1_565 S
C1668 C1667 1.400 . S
C1668 C1671 1.386 . S
H1669 C1685 0.930 . S
H1670 C1686 0.931 . S
C1671 H1659 0.929 . S
C1671 C1665 1.390 . S
C1671 C1668 1.386 . S
C1672 C1667 1.490 . S
C1672 C1674 1.395 . S
C1672 C1675 1.403 1_565 S
H1673 C1679 0.930 . S
C1674 H1660 0.930 . S
C1674 C1672 1.395 . S
C1674 C1677 1.403 . S
C1675 C1672 1.403 1_545 S
C1675 C1676 1.524 . S
C1675 C1679 1.400 . S
C1676 H1661 0.960 . S
C1676 H1662 0.960 . S
C1676 H1663 0.960 . S
C1676 C1675 1.524 . S
C1677 C1674 1.403 . S
C1677 C1678 1.392 1_565 S
C1677 C1681 1.495 . S
C1678 C1677 1.392 1_545 S
C1678 C1679 1.385 . S
C1678 C1680 1.478 . S
C1679 H1673 0.930 . S
C1679 C1675 1.400 . S
C1679 C1678 1.385 . S
C1680 C1678 1.478 . S
C1680 C1682 1.381 . S
C1680 C1686 1.383 . S
C1681 C1677 1.495 . S
C1681 H1687 0.959 . S
C1681 H1688 0.961 . S
C1681 H1689 0.960 . S
C1682 C1680 1.381 . S
C1682 C1683 1.394 . S
C1682 H1690 0.930 1_545 S
C1683 C1682 1.394 . S
C1683 C1684 1.383 . S
C1683 H1691 0.929 . S
C1684 C1683 1.383 . S
C1684 C1685 1.377 . S
C1685 H1669 0.930 . S
C1685 C1684 1.377 . S
C1685 C1686 1.379 . S
C1686 H1670 0.931 . S
C1686 C1680 1.383 . S
C1686 C1685 1.379 . S
H1687 C1681 0.959 . S
H1688 C1681 0.961 . S
H1689 C1681 0.960 . S
H1690 C1682 0.930 1_565 S
H1691 C1683 0.929 . S
H1692 C1700 0.929 . S
H1693 C1702 0.930 . S
H1694 C1704 0.959 . S
H1695 C1707 0.929 . S
H1696 C1710 0.930 . S
H1697 C1712 0.960 . S
H1698 C1712 0.960 . S
H1699 C1712 0.960 . S
C1700 H1692 0.929 . S
C1700 C1701 1.377 . S
C1700 C1702 1.384 . S
C1701 C1700 1.377 . S
C1701 C1707 1.390 . S
C1702 H1693 0.930 . S
C1702 C1700 1.384 . S
C1702 C1703 1.372 . S
C1703 C1702 1.372 . S
C1703 C1704 1.400 . S
C1703 C1708 1.490 . S
C1704 H1694 0.959 . S
C1704 C1703 1.400 . S
C1704 C1707 1.386 . S
H1705 C1721 0.930 . S
H1706 C1722 0.931 . S
C1707 H1695 0.929 . S
C1707 C1701 1.390 . S
C1707 C1704 1.386 . S
C1708 C1703 1.490 . S
C1708 C1710 1.395 . S
C1708 C1711 1.403 1_655 S
H1709 C1715 0.930 . S
C1710 H1696 0.930 . S
C1710 C1708 1.395 . S
C1710 C1713 1.403 . S
C1711 C1708 1.403 1_455 S
C1711 C1712 1.524 . S
C1711 C1715 1.400 . S
C1712 H1697 0.960 . S
C1712 H1698 0.960 . S
C1712 H1699 0.960 . S
C1712 C1711 1.524 . S
C1713 C1710 1.403 . S
C1713 C1714 1.392 1_655 S
C1713 C1717 1.495 . S
C1714 C1713 1.392 1_455 S
C1714 C1715 1.385 . S
C1714 C1716 1.478 . S
C1715 H1709 0.930 . S
C1715 C1711 1.400 . S
C1715 C1714 1.385 . S
C1716 C1714 1.478 . S
C1716 C1718 1.381 . S
C1716 C1722 1.383 . S
C1717 C1713 1.495 . S
C1717 H1723 0.959 . S
C1717 H1724 0.961 . S
C1717 H1725 0.960 . S
C1718 C1716 1.381 . S
C1718 C1719 1.394 . S
C1718 H1726 0.941 . S
C1719 C1718 1.394 . S
C1719 C1720 1.383 . S
C1719 H1727 0.929 . S
C1720 C1719 1.383 . S
C1720 C1721 1.377 . S
C1721 H1705 0.930 . S
C1721 C1720 1.377 . S
C1721 C1722 1.379 . S
C1722 H1706 0.931 . S
C1722 C1716 1.383 . S
C1722 C1721 1.379 . S
H1723 C1717 0.959 . S
H1724 C1717 0.961 . S
H1725 C1717 0.960 . S
H1726 C1718 0.941 . S
H1727 C1719 0.929 . S
H1728 C1736 0.929 . S
H1729 C1738 0.930 . S
H1730 C1740 0.930 . S
H1731 C1743 0.929 . S
H1732 C1746 0.930 . S
H1733 C1748 0.960 . S
H1734 C1748 0.960 . S
H1735 C1748 0.960 . S
C1736 H1728 0.929 . S
C1736 C1737 1.377 . S
C1736 C1738 1.384 . S
C1737 C1736 1.377 . S
C1737 C1743 1.390 . S
C1738 H1729 0.930 . S
C1738 C1736 1.384 . S
C1738 C1739 1.372 . S
C1739 C1738 1.372 . S
C1739 C1740 1.400 . S
C1739 C1744 1.490 . S
C1740 H1730 0.930 . S
C1740 C1739 1.400 . S
C1740 C1743 1.386 . S
H1741 C1757 0.930 . S
H1742 C1758 0.931 . S
C1743 H1731 0.929 . S
C1743 C1737 1.390 . S
C1743 C1740 1.386 . S
C1744 C1739 1.490 . S
C1744 C1746 1.395 . S
C1744 C1747 1.403 . S
H1745 C1751 0.930 . S
C1746 H1732 0.930 . S
C1746 C1744 1.395 . S
C1746 C1749 1.403 . S
C1747 C1744 1.403 . S
C1747 C1748 1.524 . S
C1747 C1751 1.400 . S
C1748 H1733 0.960 . S
C1748 H1734 0.960 . S
C1748 H1735 0.960 . S
C1748 C1747 1.524 . S
C1749 C1746 1.403 . S
C1749 C1750 1.392 . S
C1749 C1753 1.495 . S
C1750 C1749 1.392 . S
C1750 C1751 1.385 . S
C1750 C1752 1.478 . S
C1751 H1745 0.930 . S
C1751 C1747 1.400 . S
C1751 C1750 1.385 . S
C1752 C1750 1.478 . S
C1752 C1754 1.381 . S
C1752 C1758 1.383 . S
C1753 C1749 1.495 . S
C1753 H1759 0.959 . S
C1753 H1760 0.961 . S
C1753 H1761 0.960 . S
C1754 C1752 1.381 . S
C1754 C1755 1.394 . S
C1754 H1762 0.930 . S
C1755 C1754 1.394 . S
C1755 C1756 1.383 . S
C1755 H1763 0.929 . S
C1756 C1755 1.383 . S
C1756 C1757 1.377 . S
C1757 H1741 0.930 . S
C1757 C1756 1.377 . S
C1757 C1758 1.379 . S
C1758 H1742 0.931 . S
C1758 C1752 1.383 . S
C1758 C1757 1.379 . S
H1759 C1753 0.959 . S
H1760 C1753 0.961 . S
H1761 C1753 0.960 . S
H1762 C1754 0.930 . S
H1763 C1755 0.929 . S
H1764 C1772 0.929 . S
H1765 C1774 0.930 . S
H1766 C1776 0.930 . S
H1767 C1779 0.929 . S
H1768 C1782 0.930 . S
H1769 C1784 0.960 . S
H1770 C1784 0.960 . S
H1771 C1784 0.960 . S
C1772 H1764 0.929 . S
C1772 C1773 1.377 . S
C1772 C1774 1.384 . S
C1773 C1772 1.377 . S
C1773 C1779 1.390 . S
C1774 H1765 0.930 . S
C1774 C1772 1.384 . S
C1774 C1775 1.372 . S
C1775 C1774 1.372 . S
C1775 C1776 1.400 . S
C1775 C1780 1.490 . S
C1776 H1766 0.930 . S
C1776 C1775 1.400 . S
C1776 C1779 1.386 . S
H1777 C1793 0.930 . S
H1778 C1794 0.931 . S
C1779 H1767 0.929 . S
C1779 C1773 1.390 . S
C1779 C1776 1.386 . S
C1780 C1775 1.490 . S
C1780 C1782 1.395 . S
C1780 C1783 1.403 . S
H1781 C1787 0.930 . S
C1782 H1768 0.930 . S
C1782 C1780 1.395 . S
C1782 C1785 1.403 . S
C1783 C1780 1.403 . S
C1783 C1784 1.524 . S
C1783 C1787 1.400 . S
C1784 H1769 0.960 . S
C1784 H1770 0.960 . S
C1784 H1771 0.960 . S
C1784 C1783 1.524 . S
C1785 C1782 1.403 . S
C1785 C1786 1.392 . S
C1785 C1789 1.495 . S
C1786 C1785 1.392 . S
C1786 C1787 1.385 . S
C1786 C1788 1.478 . S
C1787 H1781 0.930 . S
C1787 C1783 1.400 . S
C1787 C1786 1.385 . S
C1788 C1786 1.478 . S
C1788 C1790 1.381 . S
C1788 C1794 1.383 . S
C1789 C1785 1.495 . S
C1789 H1795 0.959 . S
C1789 H1796 0.961 . S
C1789 H1797 0.960 . S
C1790 C1788 1.381 . S
C1790 C1791 1.394 . S
C1790 H1798 0.930 . S
C1791 C1790 1.394 . S
C1791 C1792 1.383 . S
C1791 H1799 0.929 . S
C1792 C1791 1.383 . S
C1792 C1793 1.377 . S
C1793 H1777 0.930 . S
C1793 C1792 1.377 . S
C1793 C1794 1.379 . S
C1794 H1778 0.931 . S
C1794 C1788 1.383 . S
C1794 C1793 1.379 . S
H1795 C1789 0.959 . S
H1796 C1789 0.961 . S
H1797 C1789 0.960 . S
H1798 C1790 0.930 . S
H1799 C1791 0.929 . S
H1800 C1808 0.929 . S
H1801 C1810 0.930 . S
H1802 C1812 0.930 . S
H1803 C1815 0.929 . S
H1804 C1818 0.930 . S
H1805 C1820 0.960 . S
H1806 C1820 0.960 . S
H1807 C1820 0.960 . S
C1808 H1800 0.929 . S
C1808 C1809 1.377 . S
C1808 C1810 1.384 . S
C1809 C1808 1.377 . S
C1809 C1815 1.390 . S
C1810 H1801 0.930 . S
C1810 C1808 1.384 . S
C1810 C1811 1.372 . S
C1811 C1810 1.372 . S
C1811 C1812 1.400 . S
C1811 C1816 1.490 . S
C1812 H1802 0.930 . S
C1812 C1811 1.400 . S
C1812 C1815 1.386 . S
H1813 C1829 0.930 . S
H1814 C1830 0.931 . S
C1815 H1803 0.929 . S
C1815 C1809 1.390 . S
C1815 C1812 1.386 . S
C1816 C1811 1.490 . S
C1816 C1818 1.395 . S
C1816 C1819 1.403 . S
H1817 C1823 0.930 . S
C1818 H1804 0.930 . S
C1818 C1816 1.395 . S
C1818 C1821 1.403 . S
C1819 C1816 1.403 . S
C1819 C1820 1.524 . S
C1819 C1823 1.400 . S
C1820 H1805 0.960 . S
C1820 H1806 0.960 . S
C1820 H1807 0.960 . S
C1820 C1819 1.524 . S
C1821 C1818 1.403 . S
C1821 C1822 1.392 . S
C1821 C1825 1.495 . S
C1822 C1821 1.392 . S
C1822 C1823 1.385 . S
C1822 C1824 1.478 . S
C1823 H1817 0.930 . S
C1823 C1819 1.400 . S
C1823 C1822 1.385 . S
C1824 C1822 1.478 . S
C1824 C1826 1.381 . S
C1824 C1830 1.383 . S
C1825 C1821 1.495 . S
C1825 H1831 0.959 . S
C1825 H1832 0.961 . S
C1825 H1833 0.960 . S
C1826 C1824 1.381 . S
C1826 C1827 1.394 . S
C1826 H1834 0.930 . S
C1827 C1826 1.394 . S
C1827 C1828 1.383 . S
C1827 H1835 0.929 . S
C1828 C1827 1.383 . S
C1828 C1829 1.377 . S
C1829 H1813 0.930 . S
C1829 C1828 1.377 . S
C1829 C1830 1.379 . S
C1830 H1814 0.931 . S
C1830 C1824 1.383 . S
C1830 C1829 1.379 . S
H1831 C1825 0.959 . S
H1832 C1825 0.961 . S
H1833 C1825 0.960 . S
H1834 C1826 0.930 . S
H1835 C1827 0.929 . S
H1836 C1844 0.929 . S
H1837 C1846 0.930 . S
H1838 C1848 0.930 . S
H1839 C1851 0.929 . S
H1840 C1854 0.930 . S
H1841 C1856 0.960 . S
H1842 C1856 0.960 . S
H1843 C1856 0.960 . S
C1844 H1836 0.929 . S
C1844 C1845 1.377 . S
C1844 C1846 1.384 . S
C1845 C1844 1.377 . S
C1845 C1851 1.390 . S
C1846 H1837 0.930 . S
C1846 C1844 1.384 . S
C1846 C1847 1.372 . S
C1847 C1846 1.372 . S
C1847 C1848 1.400 . S
C1847 C1852 1.490 . S
C1848 H1838 0.930 . S
C1848 C1847 1.400 . S
C1848 C1851 1.386 . S
H1849 C1865 0.930 . S
H1850 C1866 0.931 . S
C1851 H1839 0.929 . S
C1851 C1845 1.390 . S
C1851 C1848 1.386 . S
C1852 C1847 1.490 . S
C1852 C1854 1.395 . S
C1852 C1855 1.403 . S
H1853 C1859 0.930 . S
C1854 H1840 0.930 . S
C1854 C1852 1.395 . S
C1854 C1857 1.403 . S
C1855 C1852 1.403 . S
C1855 C1856 1.524 . S
C1855 C1859 1.400 . S
C1856 H1841 0.960 . S
C1856 H1842 0.960 . S
C1856 H1843 0.960 . S
C1856 C1855 1.524 . S
C1857 C1854 1.403 . S
C1857 C1858 1.392 . S
C1857 C1861 1.495 . S
C1858 C1857 1.392 . S
C1858 C1859 1.385 . S
C1858 C1860 1.478 . S
C1859 H1853 0.930 . S
C1859 C1855 1.400 . S
C1859 C1858 1.385 . S
C1860 C1858 1.478 . S
C1860 C1862 1.381 . S
C1860 C1866 1.383 . S
C1861 C1857 1.495 . S
C1861 H1867 0.959 . S
C1861 H1868 0.961 . S
C1861 H1869 0.960 . S
C1862 C1860 1.381 . S
C1862 C1863 1.394 . S
C1862 H1870 0.930 . S
C1863 C1862 1.394 . S
C1863 C1864 1.383 . S
C1863 H1871 0.929 . S
C1864 C1863 1.383 . S
C1864 C1865 1.377 . S
C1865 H1849 0.930 . S
C1865 C1864 1.377 . S
C1865 C1866 1.379 . S
C1866 H1850 0.931 . S
C1866 C1860 1.383 . S
C1866 C1865 1.379 . S
H1867 C1861 0.959 . S
H1868 C1861 0.961 . S
H1869 C1861 0.960 . S
H1870 C1862 0.930 . S
H1871 C1863 0.929 . S
H1872 C1880 0.929 . S
H1873 C1882 0.930 . S
H1874 C1884 0.930 . S
H1875 C1887 0.929 . S
H1876 C1890 0.930 . S
H1877 C1892 0.960 . S
H1878 C1892 0.960 . S
H1879 C1892 0.960 . S
C1880 H1872 0.929 . S
C1880 C1881 1.377 . S
C1880 C1882 1.384 . S
C1881 C1880 1.377 . S
C1881 C1887 1.390 . S
C1882 H1873 0.930 . S
C1882 C1880 1.384 . S
C1882 C1883 1.372 . S
C1883 C1882 1.372 . S
C1883 C1884 1.400 . S
C1883 C1888 1.490 . S
C1884 H1874 0.930 . S
C1884 C1883 1.400 . S
C1884 C1887 1.386 . S
H1885 C1901 0.930 . S
H1886 C1902 0.931 . S
C1887 H1875 0.929 . S
C1887 C1881 1.390 . S
C1887 C1884 1.386 . S
C1888 C1883 1.490 . S
C1888 C1890 1.395 . S
C1888 C1891 1.403 . S
H1889 C1895 0.930 . S
C1890 H1876 0.930 . S
C1890 C1888 1.395 . S
C1890 C1893 1.403 . S
C1891 C1888 1.403 . S
C1891 C1892 1.524 . S
C1891 C1895 1.400 . S
C1892 H1877 0.960 . S
C1892 H1878 0.960 . S
C1892 H1879 0.960 . S
C1892 C1891 1.524 . S
C1893 C1890 1.403 . S
C1893 C1894 1.392 . S
C1893 C1897 1.495 . S
C1894 C1893 1.392 . S
C1894 C1895 1.385 . S
C1894 C1896 1.478 . S
C1895 H1889 0.930 . S
C1895 C1891 1.400 . S
C1895 C1894 1.385 . S
C1896 C1894 1.478 . S
C1896 C1898 1.381 . S
C1896 C1902 1.383 . S
C1897 C1893 1.495 . S
C1897 H1903 0.959 . S
C1897 H1904 0.961 . S
C1897 H1905 0.960 . S
C1898 C1896 1.381 . S
C1898 C1899 1.394 . S
C1898 H1906 0.930 . S
C1899 C1898 1.394 . S
C1899 C1900 1.383 . S
C1899 H1907 0.929 . S
C1900 C1899 1.383 . S
C1900 C1901 1.377 . S
C1901 H1885 0.930 . S
C1901 C1900 1.377 . S
C1901 C1902 1.379 . S
C1902 H1886 0.931 . S
C1902 C1896 1.383 . S
C1902 C1901 1.379 . S
H1903 C1897 0.959 . S
H1904 C1897 0.961 . S
H1905 C1897 0.960 . S
H1906 C1898 0.930 . S
H1907 C1899 0.929 . S
H1908 C1916 0.929 . S
H1909 C1918 0.930 . S
H1910 C1920 0.930 . S
H1911 C1923 0.929 . S
H1912 C1926 0.930 . S
H1913 C1928 0.960 . S
H1914 C1928 0.960 . S
H1915 C1928 0.960 . S
C1916 H1908 0.929 . S
C1916 C1917 1.377 . S
C1916 C1918 1.384 . S
C1917 C1916 1.377 . S
C1917 C1923 1.390 . S
C1918 H1909 0.930 . S
C1918 C1916 1.384 . S
C1918 C1919 1.372 . S
C1919 C1918 1.372 . S
C1919 C1920 1.400 . S
C1919 C1924 1.490 . S
C1920 H1910 0.930 . S
C1920 C1919 1.400 . S
C1920 C1923 1.386 . S
H1921 C1937 0.930 . S
H1922 C1938 0.931 . S
C1923 H1911 0.929 . S
C1923 C1917 1.390 . S
C1923 C1920 1.386 . S
C1924 C1919 1.490 . S
C1924 C1926 1.395 . S
C1924 C1927 1.403 . S
H1925 C1931 0.930 . S
C1926 H1912 0.930 . S
C1926 C1924 1.395 . S
C1926 C1929 1.403 . S
C1927 C1924 1.403 . S
C1927 C1928 1.524 . S
C1927 C1931 1.400 . S
C1928 H1913 0.960 . S
C1928 H1914 0.960 . S
C1928 H1915 0.960 . S
C1928 C1927 1.524 . S
C1929 C1926 1.403 . S
C1929 C1930 1.392 . S
C1929 C1933 1.495 . S
C1930 C1929 1.392 . S
C1930 C1931 1.385 . S
C1930 C1932 1.478 . S
C1931 H1925 0.930 . S
C1931 C1927 1.400 . S
C1931 C1930 1.385 . S
C1932 C1930 1.478 . S
C1932 C1934 1.381 . S
C1932 C1938 1.383 . S
C1933 C1929 1.495 . S
C1933 H1939 0.959 . S
C1933 H1940 0.961 . S
C1933 H1941 0.960 . S
C1934 C1932 1.381 . S
C1934 C1935 1.394 . S
C1934 H1942 0.930 . S
C1935 C1934 1.394 . S
C1935 C1936 1.383 . S
C1935 H1943 0.929 . S
C1936 C1935 1.383 . S
C1936 C1937 1.377 . S
C1937 H1921 0.930 . S
C1937 C1936 1.377 . S
C1937 C1938 1.379 . S
C1938 H1922 0.931 . S
C1938 C1932 1.383 . S
C1938 C1937 1.379 . S
H1939 C1933 0.959 . S
H1940 C1933 0.961 . S
H1941 C1933 0.960 . S
H1942 C1934 0.930 . S
H1943 C1935 0.929 . S
H1944 C1952 0.929 . S
H1945 C1954 0.930 . S
H1946 C1956 0.930 . S
H1947 C1959 0.929 . S
H1948 C1962 0.930 . S
H1949 C1964 0.960 . S
H1950 C1964 0.960 . S
H1951 C1964 0.960 . S
C1952 H1944 0.929 . S
C1952 C1953 1.377 . S
C1952 C1954 1.384 . S
C1953 C1952 1.377 . S
C1953 C1959 1.390 . S
C1954 H1945 0.930 . S
C1954 C1952 1.384 . S
C1954 C1955 1.372 . S
C1955 C1954 1.372 . S
C1955 C1956 1.400 . S
C1955 C1960 1.490 . S
C1956 H1946 0.930 . S
C1956 C1955 1.400 . S
C1956 C1959 1.386 . S
H1957 C1973 0.930 . S
H1958 C1974 0.931 . S
C1959 H1947 0.929 . S
C1959 C1953 1.390 . S
C1959 C1956 1.386 . S
C1960 C1955 1.490 . S
C1960 C1962 1.395 . S
C1960 C1963 1.403 . S
H1961 C1967 0.930 . S
C1962 H1948 0.930 . S
C1962 C1960 1.395 . S
C1962 C1965 1.403 . S
C1963 C1960 1.403 . S
C1963 C1964 1.524 . S
C1963 C1967 1.400 . S
C1964 H1949 0.960 . S
C1964 H1950 0.960 . S
C1964 H1951 0.960 . S
C1964 C1963 1.524 . S
C1965 C1962 1.403 . S
C1965 C1966 1.392 . S
C1965 C1969 1.495 . S
C1966 C1965 1.392 . S
C1966 C1967 1.385 . S
C1966 C1968 1.478 . S
C1967 H1961 0.930 . S
C1967 C1963 1.400 . S
C1967 C1966 1.385 . S
C1968 C1966 1.478 . S
C1968 C1970 1.381 . S
C1968 C1974 1.383 . S
C1969 C1965 1.495 . S
C1969 H1975 0.959 . S
C1969 H1976 0.961 . S
C1969 H1977 0.960 . S
C1970 C1968 1.381 . S
C1970 C1971 1.394 . S
C1970 H1978 0.930 . S
C1971 C1970 1.394 . S
C1971 C1972 1.383 . S
C1971 H1979 0.929 . S
C1972 C1971 1.383 . S
C1972 C1973 1.377 . S
C1973 H1957 0.930 . S
C1973 C1972 1.377 . S
C1973 C1974 1.379 . S
C1974 H1958 0.931 . S
C1974 C1968 1.383 . S
C1974 C1973 1.379 . S
H1975 C1969 0.959 . S
H1976 C1969 0.961 . S
H1977 C1969 0.960 . S
H1978 C1970 0.930 . S
H1979 C1971 0.929 . S
H1980 C1988 0.929 . S
H1981 C1990 0.930 . S
H1982 C1992 0.930 . S
H1983 C1995 0.929 . S
H1984 C1998 0.930 . S
H1985 C2000 0.960 . S
H1986 C2000 0.960 . S
H1987 C2000 0.960 . S
C1988 H1980 0.929 . S
C1988 C1989 1.377 . S
C1988 C1990 1.384 . S
C1989 C1988 1.377 . S
C1989 C1995 1.390 . S
C1990 H1981 0.930 . S
C1990 C1988 1.384 . S
C1990 C1991 1.372 . S
C1991 C1990 1.372 . S
C1991 C1992 1.400 . S
C1991 C1996 1.490 . S
C1992 H1982 0.930 . S
C1992 C1991 1.400 . S
C1992 C1995 1.386 . S
H1993 C2009 0.930 . S
H1994 C2010 0.931 . S
C1995 H1983 0.929 . S
C1995 C1989 1.390 . S
C1995 C1992 1.386 . S
C1996 C1991 1.490 . S
C1996 C1998 1.395 . S
C1996 C1999 1.403 . S
H1997 C2003 0.930 . S
C1998 H1984 0.930 . S
C1998 C1996 1.395 . S
C1998 C2001 1.403 . S
C1999 C1996 1.403 . S
C1999 C2000 1.524 . S
C1999 C2003 1.400 . S
C2000 H1985 0.960 . S
C2000 H1986 0.960 . S
C2000 H1987 0.960 . S
C2000 C1999 1.524 . S
C2001 C1998 1.403 . S
C2001 C2002 1.392 . S
C2001 C2005 1.495 . S
C2002 C2001 1.392 . S
C2002 C2003 1.385 . S
C2002 C2004 1.478 . S
C2003 H1997 0.930 . S
C2003 C1999 1.400 . S
C2003 C2002 1.385 . S
C2004 C2002 1.478 . S
C2004 C2006 1.381 . S
C2004 C2010 1.383 . S
C2005 C2001 1.495 . S
C2005 H2011 0.959 . S
C2005 H2012 0.961 . S
C2005 H2013 0.960 . S
C2006 C2004 1.381 . S
C2006 C2007 1.394 . S
C2006 H2014 0.930 . S
C2007 C2006 1.394 . S
C2007 C2008 1.383 . S
C2007 H2015 0.929 . S
C2008 C2007 1.383 . S
C2008 C2009 1.377 . S
C2009 H1993 0.930 . S
C2009 C2008 1.377 . S
C2009 C2010 1.379 . S
C2010 H1994 0.931 . S
C2010 C2004 1.383 . S
C2010 C2009 1.379 . S
H2011 C2005 0.959 . S
H2012 C2005 0.961 . S
H2013 C2005 0.960 . S
H2014 C2006 0.930 . S
H2015 C2007 0.929 . S
H2016 C2024 0.929 . S
H2017 C2026 0.930 . S
H2018 C2028 0.930 . S
H2019 C2031 0.929 . S
H2020 C2034 0.930 . S
H2021 C2036 0.960 . S
H2022 C2036 0.960 . S
H2023 C2036 0.960 . S
C2024 H2016 0.929 . S
C2024 C2025 1.377 . S
C2024 C2026 1.384 . S
C2025 C2024 1.377 . S
C2025 C2031 1.390 . S
C2026 H2017 0.930 . S
C2026 C2024 1.384 . S
C2026 C2027 1.372 . S
C2027 C2026 1.372 . S
C2027 C2028 1.400 . S
C2027 C2032 1.490 . S
C2028 H2018 0.930 . S
C2028 C2027 1.400 . S
C2028 C2031 1.386 . S
H2029 C2045 0.930 . S
H2030 C2046 0.931 . S
C2031 H2019 0.929 . S
C2031 C2025 1.390 . S
C2031 C2028 1.386 . S
C2032 C2027 1.490 . S
C2032 C2034 1.395 . S
C2032 C2035 1.403 . S
H2033 C2039 0.930 . S
C2034 H2020 0.930 . S
C2034 C2032 1.395 . S
C2034 C2037 1.403 . S
C2035 C2032 1.403 . S
C2035 C2036 1.524 . S
C2035 C2039 1.400 . S
C2036 H2021 0.960 . S
C2036 H2022 0.960 . S
C2036 H2023 0.960 . S
C2036 C2035 1.524 . S
C2037 C2034 1.403 . S
C2037 C2038 1.392 . S
C2037 C2041 1.495 . S
C2038 C2037 1.392 . S
C2038 C2039 1.385 . S
C2038 C2040 1.478 . S
C2039 H2033 0.930 . S
C2039 C2035 1.400 . S
C2039 C2038 1.385 . S
C2040 C2038 1.478 . S
C2040 C2042 1.381 . S
C2040 C2046 1.383 . S
C2041 C2037 1.495 . S
C2041 H2047 0.959 . S
C2041 H2048 0.961 . S
C2041 H2049 0.960 . S
C2042 C2040 1.381 . S
C2042 C2043 1.394 . S
C2042 H2050 0.930 . S
C2043 C2042 1.394 . S
C2043 C2044 1.383 . S
C2043 H2051 0.929 . S
C2044 C2043 1.383 . S
C2044 C2045 1.377 . S
C2045 H2029 0.930 . S
C2045 C2044 1.377 . S
C2045 C2046 1.379 . S
C2046 H2030 0.931 . S
C2046 C2040 1.383 . S
C2046 C2045 1.379 . S
H2047 C2041 0.959 . S
H2048 C2041 0.961 . S
H2049 C2041 0.960 . S
H2050 C2042 0.930 . S
H2051 C2043 0.929 . S
H2052 C2060 0.929 . S
H2053 C2062 0.930 . S
H2054 C2064 0.930 . S
H2055 C2067 0.929 . S
H2056 C2070 0.930 . S
H2057 C2072 0.960 . S
H2058 C2072 0.960 . S
H2059 C2072 0.960 . S
C2060 H2052 0.929 . S
C2060 C2061 1.377 . S
C2060 C2062 1.384 . S
C2061 C2060 1.377 . S
C2061 C2067 1.390 . S
C2062 H2053 0.930 . S
C2062 C2060 1.384 . S
C2062 C2063 1.372 . S
C2063 C2062 1.372 . S
C2063 C2064 1.400 . S
C2063 C2068 1.490 . S
C2064 H2054 0.930 . S
C2064 C2063 1.400 . S
C2064 C2067 1.386 . S
H2065 C2081 0.930 . S
H2066 C2082 0.931 . S
C2067 H2055 0.929 . S
C2067 C2061 1.390 . S
C2067 C2064 1.386 . S
C2068 C2063 1.490 . S
C2068 C2070 1.395 . S
C2068 C2071 1.403 . S
H2069 C2075 0.930 . S
C2070 H2056 0.930 . S
C2070 C2068 1.395 . S
C2070 C2073 1.403 . S
C2071 C2068 1.403 . S
C2071 C2072 1.524 . S
C2071 C2075 1.400 . S
C2072 H2057 0.960 . S
C2072 H2058 0.960 . S
C2072 H2059 0.960 . S
C2072 C2071 1.524 . S
C2073 C2070 1.403 . S
C2073 C2074 1.392 . S
C2073 C2077 1.495 . S
C2074 C2073 1.392 . S
C2074 C2075 1.385 . S
C2074 C2076 1.478 . S
C2075 H2069 0.930 . S
C2075 C2071 1.400 . S
C2075 C2074 1.385 . S
C2076 C2074 1.478 . S
C2076 C2078 1.381 . S
C2076 C2082 1.383 . S
C2077 C2073 1.495 . S
C2077 H2083 0.959 . S
C2077 H2084 0.961 . S
C2077 H2085 0.960 . S
C2078 C2076 1.381 . S
C2078 C2079 1.394 . S
C2078 H2086 0.930 . S
C2079 C2078 1.394 . S
C2079 C2080 1.383 . S
C2079 H2087 0.929 . S
C2080 C2079 1.383 . S
C2080 C2081 1.377 . S
C2081 H2065 0.930 . S
C2081 C2080 1.377 . S
C2081 C2082 1.379 . S
C2082 H2066 0.931 . S
C2082 C2076 1.383 . S
C2082 C2081 1.379 . S
H2083 C2077 0.959 . S
H2084 C2077 0.961 . S
H2085 C2077 0.960 . S
H2086 C2078 0.930 . S
H2087 C2079 0.929 . S
H2088 C2096 0.929 . S
H2089 C2098 0.930 . S
H2090 C2100 0.930 . S
H2091 C2103 0.929 . S
H2092 C2106 0.930 . S
H2093 C2108 0.960 . S
H2094 C2108 0.960 . S
H2095 C2108 0.960 . S
C2096 H2088 0.929 . S
C2096 C2097 1.377 . S
C2096 C2098 1.384 . S
C2097 C2096 1.377 . S
C2097 C2103 1.390 . S
C2098 H2089 0.930 . S
C2098 C2096 1.384 . S
C2098 C2099 1.372 . S
C2099 C2098 1.372 . S
C2099 C2100 1.400 . S
C2099 C2104 1.490 . S
C2100 H2090 0.930 . S
C2100 C2099 1.400 . S
C2100 C2103 1.386 . S
H2101 C2117 0.930 . S
H2102 C2118 0.931 . S
C2103 H2091 0.929 . S
C2103 C2097 1.390 . S
C2103 C2100 1.386 . S
C2104 C2099 1.490 . S
C2104 C2106 1.395 . S
C2104 C2107 1.403 . S
H2105 C2111 0.930 . S
C2106 H2092 0.930 . S
C2106 C2104 1.395 . S
C2106 C2109 1.403 . S
C2107 C2104 1.403 . S
C2107 C2108 1.524 . S
C2107 C2111 1.400 . S
C2108 H2093 0.960 . S
C2108 H2094 0.960 . S
C2108 H2095 0.960 . S
C2108 C2107 1.524 . S
C2109 C2106 1.403 . S
C2109 C2110 1.392 . S
C2109 C2113 1.495 . S
C2110 C2109 1.392 . S
C2110 C2111 1.385 . S
C2110 C2112 1.478 . S
C2111 H2105 0.930 . S
C2111 C2107 1.400 . S
C2111 C2110 1.385 . S
C2112 C2110 1.478 . S
C2112 C2114 1.381 . S
C2112 C2118 1.383 . S
C2113 C2109 1.495 . S
C2113 H2119 0.959 . S
C2113 H2120 0.961 . S
C2113 H2121 0.960 . S
C2114 C2112 1.381 . S
C2114 C2115 1.394 . S
C2114 H2122 0.930 . S
C2115 C2114 1.394 . S
C2115 C2116 1.383 . S
C2115 H2123 0.929 . S
C2116 C2115 1.383 . S
C2116 C2117 1.377 . S
C2117 H2101 0.930 . S
C2117 C2116 1.377 . S
C2117 C2118 1.379 . S
C2118 H2102 0.931 . S
C2118 C2112 1.383 . S
C2118 C2117 1.379 . S
H2119 C2113 0.959 . S
H2120 C2113 0.961 . S
H2121 C2113 0.960 . S
H2122 C2114 0.930 . S
H2123 C2115 0.929 . S
H2124 C2132 0.929 . S
H2125 C2134 0.930 . S
H2126 C2136 0.930 . S
H2127 C2139 0.929 . S
H2128 C2142 0.930 . S
H2129 C2144 0.960 . S
H2130 C2144 0.960 . S
H2131 C2144 0.960 . S
C2132 H2124 0.929 . S
C2132 C2133 1.377 . S
C2132 C2134 1.384 . S
C2133 C2132 1.377 . S
C2133 C2139 1.390 . S
C2134 H2125 0.930 . S
C2134 C2132 1.384 . S
C2134 C2135 1.372 . S
C2135 C2134 1.372 . S
C2135 C2136 1.400 . S
C2135 C2140 1.490 . S
C2136 H2126 0.930 . S
C2136 C2135 1.400 . S
C2136 C2139 1.386 . S
H2137 C2153 0.930 . S
H2138 C2154 0.931 . S
C2139 H2127 0.929 . S
C2139 C2133 1.390 . S
C2139 C2136 1.386 . S
C2140 C2135 1.490 . S
C2140 C2142 1.395 . S
C2140 C2143 1.403 . S
H2141 C2147 0.930 . S
C2142 H2128 0.930 . S
C2142 C2140 1.395 . S
C2142 C2145 1.403 . S
C2143 C2140 1.403 . S
C2143 C2144 1.524 . S
C2143 C2147 1.400 . S
C2144 H2129 0.960 . S
C2144 H2130 0.960 . S
C2144 H2131 0.960 . S
C2144 C2143 1.524 . S
C2145 C2142 1.403 . S
C2145 C2146 1.392 . S
C2145 C2149 1.495 . S
C2146 C2145 1.392 . S
C2146 C2147 1.385 . S
C2146 C2148 1.478 . S
C2147 H2141 0.930 . S
C2147 C2143 1.400 . S
C2147 C2146 1.385 . S
C2148 C2146 1.478 . S
C2148 C2150 1.381 . S
C2148 C2154 1.383 . S
C2149 C2145 1.495 . S
C2149 H2155 0.959 . S
C2149 H2156 0.961 . S
C2149 H2157 0.960 . S
C2150 C2148 1.381 . S
C2150 C2151 1.394 . S
C2150 H2158 0.930 . S
C2151 C2150 1.394 . S
C2151 C2152 1.383 . S
C2151 H2159 0.929 . S
C2152 C2151 1.383 . S
C2152 C2153 1.377 . S
C2153 H2137 0.930 . S
C2153 C2152 1.377 . S
C2153 C2154 1.379 . S
C2154 H2138 0.931 . S
C2154 C2148 1.383 . S
C2154 C2153 1.379 . S
H2155 C2149 0.959 . S
H2156 C2149 0.961 . S
H2157 C2149 0.960 . S
H2158 C2150 0.930 . S
H2159 C2151 0.929 . S
H2160 C2168 0.929 . S
H2161 C2170 0.930 . S
H2162 C2172 0.930 . S
H2163 C2175 0.929 . S
H2164 C2178 0.930 . S
H2165 C2180 0.960 . S
H2166 C2180 0.960 . S
H2167 C2180 0.960 . S
C2168 H2160 0.929 . S
C2168 C2169 1.377 . S
C2168 C2170 1.384 . S
C2169 C2168 1.377 . S
C2169 C2175 1.390 . S
C2170 H2161 0.930 . S
C2170 C2168 1.384 . S
C2170 C2171 1.372 . S
C2171 C2170 1.372 . S
C2171 C2172 1.400 . S
C2171 C2176 1.490 . S
C2172 H2162 0.930 . S
C2172 C2171 1.400 . S
C2172 C2175 1.386 . S
H2173 C2189 0.930 . S
H2174 C2190 0.931 . S
C2175 H2163 0.929 . S
C2175 C2169 1.390 . S
C2175 C2172 1.386 . S
C2176 C2171 1.490 . S
C2176 C2178 1.395 . S
C2176 C2179 1.403 . S
H2177 C2183 0.930 . S
C2178 H2164 0.930 . S
C2178 C2176 1.395 . S
C2178 C2181 1.403 . S
C2179 C2176 1.403 . S
C2179 C2180 1.524 . S
C2179 C2183 1.400 . S
C2180 H2165 0.960 . S
C2180 H2166 0.960 . S
C2180 H2167 0.960 . S
C2180 C2179 1.524 . S
C2181 C2178 1.403 . S
C2181 C2182 1.392 . S
C2181 C2185 1.495 . S
C2182 C2181 1.392 . S
C2182 C2183 1.385 . S
C2182 C2184 1.478 . S
C2183 H2177 0.930 . S
C2183 C2179 1.400 . S
C2183 C2182 1.385 . S
C2184 C2182 1.478 . S
C2184 C2186 1.381 . S
C2184 C2190 1.383 . S
C2185 C2181 1.495 . S
C2185 H2191 0.959 . S
C2185 H2192 0.961 . S
C2185 H2193 0.960 . S
C2186 C2184 1.381 . S
C2186 C2187 1.394 . S
C2186 H2194 0.930 . S
C2187 C2186 1.394 . S
C2187 C2188 1.383 . S
C2187 H2195 0.929 . S
C2188 C2187 1.383 . S
C2188 C2189 1.377 . S
C2189 H2173 0.930 . S
C2189 C2188 1.377 . S
C2189 C2190 1.379 . S
C2190 H2174 0.931 . S
C2190 C2184 1.383 . S
C2190 C2189 1.379 . S
H2191 C2185 0.959 . S
H2192 C2185 0.961 . S
H2193 C2185 0.960 . S
H2194 C2186 0.930 . S
H2195 C2187 0.929 . S
H2196 C2204 0.929 . S
H2197 C2206 0.930 . S
H2198 C2208 0.930 . S
H2199 C2211 0.929 . S
H2200 C2214 0.930 . S
H2201 C2216 0.960 . S
H2202 C2216 0.960 . S
H2203 C2216 0.960 . S
C2204 H2196 0.929 . S
C2204 C2205 1.377 . S
C2204 C2206 1.384 . S
C2205 C2204 1.377 . S
C2205 C2211 1.390 . S
C2206 H2197 0.930 . S
C2206 C2204 1.384 . S
C2206 C2207 1.372 . S
C2207 C2206 1.372 . S
C2207 C2208 1.400 . S
C2207 C2212 1.490 . S
C2208 H2198 0.930 . S
C2208 C2207 1.400 . S
C2208 C2211 1.386 . S
H2209 C2225 0.930 . S
H2210 C2226 0.931 . S
C2211 H2199 0.929 . S
C2211 C2205 1.390 . S
C2211 C2208 1.386 . S
C2212 C2207 1.490 . S
C2212 C2214 1.395 1_455 S
C2212 C2215 1.403 . S
H2213 C2219 0.930 . S
C2214 H2200 0.930 . S
C2214 C2212 1.395 1_655 S
C2214 C2217 1.403 . S
C2215 C2212 1.403 . S
C2215 C2216 1.524 . S
C2215 C2219 1.400 . S
C2216 H2201 0.960 . S
C2216 H2202 0.960 . S
C2216 H2203 0.960 . S
C2216 C2215 1.524 . S
C2217 C2214 1.403 . S
C2217 C2218 1.392 . S
C2217 C2221 1.495 . S
C2218 C2217 1.392 . S
C2218 C2219 1.385 1_655 S
C2218 C2220 1.478 . S
C2219 H2213 0.930 . S
C2219 C2215 1.400 . S
C2219 C2218 1.385 1_455 S
C2220 C2218 1.478 . S
C2220 C2222 1.381 . S
C2220 C2226 1.383 . S
C2221 C2217 1.495 . S
C2221 H2227 0.959 . S
C2221 H2228 0.961 . S
C2221 H2229 0.960 . S
C2222 C2220 1.381 . S
C2222 C2223 1.394 . S
C2222 H2230 0.930 . S
C2223 C2222 1.394 . S
C2223 C2224 1.383 . S
C2223 H2231 0.929 . S
C2224 C2223 1.383 . S
C2224 C2225 1.377 . S
C2225 H2209 0.930 . S
C2225 C2224 1.377 . S
C2225 C2226 1.379 . S
C2226 H2210 0.931 . S
C2226 C2220 1.383 . S
C2226 C2225 1.379 . S
H2227 C2221 0.959 . S
H2228 C2221 0.961 . S
H2229 C2221 0.960 . S
H2230 C2222 0.930 . S
H2231 C2223 0.929 . S
H2232 C2240 0.929 . S
H2233 C2242 0.930 . S
H2234 C2244 0.930 . S
H2235 C2247 0.929 . S
H2236 C2250 0.930 . S
H2237 C2252 0.960 . S
H2238 C2252 0.960 . S
H2239 C2252 0.960 . S
C2240 H2232 0.929 . S
C2240 C2241 1.377 . S
C2240 C2242 1.384 . S
C2241 C2240 1.377 . S
C2241 C2247 1.390 . S
C2242 H2233 0.930 . S
C2242 C2240 1.384 . S
C2242 C2243 1.372 . S
C2243 C2242 1.372 . S
C2243 C2244 1.400 . S
C2243 C2248 1.490 . S
C2244 H2234 0.930 . S
C2244 C2243 1.400 . S
C2244 C2247 1.386 . S
H2245 C2261 0.930 . S
H2246 C2262 0.931 . S
C2247 H2235 0.929 . S
C2247 C2241 1.390 . S
C2247 C2244 1.386 . S
C2248 C2243 1.490 . S
C2248 C2250 1.395 . S
C2248 C2251 1.403 . S
H2249 C2255 0.930 . S
C2250 H2236 0.930 . S
C2250 C2248 1.395 . S
C2250 C2253 1.403 . S
C2251 C2248 1.403 . S
C2251 C2252 1.524 . S
C2251 C2255 1.400 . S
C2252 H2237 0.960 . S
C2252 H2238 0.960 . S
C2252 H2239 0.960 . S
C2252 C2251 1.524 . S
C2253 C2250 1.403 . S
C2253 C2254 1.392 . S
C2253 C2257 1.495 . S
C2254 C2253 1.392 . S
C2254 C2255 1.385 . S
C2254 C2256 1.478 . S
C2255 H2249 0.930 . S
C2255 C2251 1.400 . S
C2255 C2254 1.385 . S
C2256 C2254 1.478 . S
C2256 C2258 1.381 . S
C2256 C2262 1.383 . S
C2257 C2253 1.495 . S
C2257 H2263 0.959 . S
C2257 H2264 0.961 . S
C2257 H2265 0.960 . S
C2258 C2256 1.381 . S
C2258 C2259 1.394 . S
C2258 H2266 0.930 . S
C2259 C2258 1.394 . S
C2259 C2260 1.383 . S
C2259 H2267 0.929 . S
C2260 C2259 1.383 . S
C2260 C2261 1.377 . S
C2261 H2245 0.930 . S
C2261 C2260 1.377 . S
C2261 C2262 1.379 . S
C2262 H2246 0.931 . S
C2262 C2256 1.383 . S
C2262 C2261 1.379 . S
H2263 C2257 0.959 . S
H2264 C2257 0.961 . S
H2265 C2257 0.960 . S
H2266 C2258 0.930 . S
H2267 C2259 0.929 . S
H2268 C2276 0.929 . S
H2269 C2278 0.930 . S
H2270 C2280 0.930 . S
H2271 C2283 0.929 . S
H2272 C2286 0.930 . S
H2273 C2288 0.960 . S
H2274 C2288 0.960 . S
H2275 C2288 0.960 . S
C2276 H2268 0.929 . S
C2276 C2277 1.377 . S
C2276 C2278 1.384 . S
C2277 C2276 1.377 . S
C2277 C2283 1.390 . S
C2278 H2269 0.930 . S
C2278 C2276 1.384 . S
C2278 C2279 1.372 . S
C2279 C2278 1.372 . S
C2279 C2280 1.400 . S
C2279 C2284 1.490 . S
C2280 H2270 0.930 . S
C2280 C2279 1.400 . S
C2280 C2283 1.386 . S
H2281 C2297 0.930 . S
H2282 C2298 0.931 1_545 S
C2283 H2271 0.929 . S
C2283 C2277 1.390 . S
C2283 C2280 1.386 . S
C2284 C2279 1.490 . S
C2284 C2286 1.395 . S
C2284 C2287 1.403 1_545 S
H2285 C2291 0.930 . S
C2286 H2272 0.930 . S
C2286 C2284 1.395 . S
C2286 C2289 1.403 . S
C2287 C2284 1.403 1_565 S
C2287 C2288 1.524 . S
C2287 C2291 1.400 . S
C2288 H2273 0.960 . S
C2288 H2274 0.960 . S
C2288 H2275 0.960 . S
C2288 C2287 1.524 . S
C2289 C2286 1.403 . S
C2289 C2290 1.389 . S
C2289 C2293 1.495 . S
C2290 C2289 1.389 . S
C2290 C2291 1.393 1_545 S
C2290 C2292 1.474 1_545 S
C2291 H2285 0.930 . S
C2291 C2287 1.400 . S
C2291 C2290 1.393 1_565 S
C2292 C2290 1.474 1_565 S
C2292 C2294 1.381 . S
C2292 C2298 1.383 . S
C2293 C2289 1.495 . S
C2293 H2299 0.959 . S
C2293 H2300 0.961 . S
C2293 H2301 0.960 . S
C2294 C2292 1.381 . S
C2294 C2295 1.394 . S
C2294 H2302 0.930 . S
C2295 C2294 1.394 . S
C2295 C2296 1.383 . S
C2295 H2303 0.929 . S
C2296 C2295 1.383 . S
C2296 C2297 1.377 . S
C2297 H2281 0.930 . S
C2297 C2296 1.377 . S
C2297 C2298 1.379 . S
C2298 H2282 0.931 1_565 S
C2298 C2292 1.383 . S
C2298 C2297 1.379 . S
H2299 C2293 0.959 . S
H2300 C2293 0.961 . S
H2301 C2293 0.960 . S
H2302 C2294 0.930 . S
H2303 C2295 0.929 . S
H2304 C2312 0.929 1_554 S
H2305 C2314 0.949 . S
H2306 C2316 0.930 . S
H2307 C2319 0.927 . S
H2308 C2322 0.930 . S
H2309 C2324 0.960 . S
H2310 C2324 0.960 . S
H2311 C2324 0.960 . S
C2312 H2304 0.929 1_556 S
C2312 C2313 1.377 . S
C2312 C2314 1.378 1_556 S
C2313 C2312 1.377 . S
C2313 C2319 1.397 1_545 S
C2314 H2305 0.949 . S
C2314 C2312 1.378 1_554 S
C2314 C2315 1.360 1_554 S
C2315 C2314 1.360 1_556 S
C2315 C2316 1.400 1_545 S
C2315 C2320 1.490 . S
C2316 H2306 0.930 . S
C2316 C2315 1.400 1_565 S
C2316 C2319 1.381 . S
H2317 C2333 0.930 . S
H2318 C2334 0.931 1_556 S
C2319 H2307 0.927 . S
C2319 C2313 1.397 1_565 S
C2319 C2316 1.381 . S
C2320 C2315 1.490 . S
C2320 C2322 1.395 1_546 S
C2320 C2323 1.403 . S
H2321 C2327 0.930 . S
C2322 H2308 0.930 . S
C2322 C2320 1.395 1_564 S
C2322 C2325 1.403 . S
C2323 C2320 1.403 . S
C2323 C2324 1.524 . S
C2323 C2327 1.400 . S
C2324 H2309 0.960 . S
C2324 H2310 0.960 . S
C2324 H2311 0.960 . S
C2324 C2323 1.524 . S
C2325 C2322 1.403 . S
C2325 C2326 1.392 . S
C2325 C2329 1.495 . S
C2326 C2325 1.392 . S
C2326 C2327 1.385 1_564 S
C2326 C2328 1.478 . S
C2327 H2321 0.930 . S
C2327 C2323 1.400 . S
C2327 C2326 1.385 1_546 S
C2328 C2326 1.478 . S
C2328 C2330 1.381 1_565 S
C2328 C2334 1.383 . S
C2329 C2325 1.495 . S
C2329 H2335 0.959 . S
C2329 H2336 0.961 . S
C2329 H2337 0.960 . S
C2330 C2328 1.381 1_545 S
C2330 C2331 1.432 . S
C2330 H2338 0.930 . S
C2331 C2330 1.432 . S
C2331 C2332 1.331 1_545 S
C2331 H2339 0.947 . S
C2332 C2331 1.331 1_565 S
C2332 C2333 1.377 . S
C2333 H2317 0.930 . S
C2333 C2332 1.377 . S
C2333 C2334 1.379 . S
C2334 H2318 0.931 1_554 S
C2334 C2328 1.383 . S
C2334 C2333 1.379 . S
H2335 C2329 0.959 . S
H2336 C2329 0.961 . S
H2337 C2329 0.960 . S
H2338 C2330 0.930 . S
H2339 C2331 0.947 . S
H2340 C2348 0.929 . S
H2341 C2350 0.930 . S
H2342 C2352 0.930 . S
H2343 C2355 0.929 . S
H2344 C2358 0.930 . S
H2345 C2360 0.960 . S
H2346 C2360 0.960 . S
H2347 C2360 0.960 . S
C2348 H2340 0.929 . S
C2348 C2349 1.377 . S
C2348 C2350 1.384 . S
C2349 C2348 1.377 . S
C2349 C2355 1.390 1_455 S
C2350 H2341 0.930 . S
C2350 C2348 1.384 . S
C2350 C2351 1.372 . S
C2351 C2350 1.372 . S
C2351 C2352 1.400 1_455 S
C2351 C2356 1.490 . S
C2352 H2342 0.930 . S
C2352 C2351 1.400 1_655 S
C2352 C2355 1.386 . S
H2353 C2369 0.930 . S
H2354 C2370 0.914 1_554 S
C2355 H2343 0.929 . S
C2355 C2349 1.390 1_655 S
C2355 C2352 1.386 . S
C2356 C2351 1.490 . S
C2356 C2358 1.395 . S
C2356 C2359 1.403 1_454 S
H2357 C2363 0.930 . S
C2358 H2344 0.930 . S
C2358 C2356 1.395 . S
C2358 C2361 1.403 . S
C2359 C2356 1.403 1_656 S
C2359 C2360 1.524 . S
C2359 C2363 1.400 . S
C2360 H2345 0.960 . S
C2360 H2346 0.960 . S
C2360 H2347 0.960 . S
C2360 C2359 1.524 . S
C2361 C2358 1.403 . S
C2361 C2362 1.388 1_554 S
C2361 C2365 1.495 . S
C2362 C2361 1.388 1_556 S
C2362 C2363 1.393 1_455 S
C2362 C2364 1.474 1_455 S
C2363 H2357 0.930 . S
C2363 C2359 1.400 . S
C2363 C2362 1.393 1_655 S
C2364 C2362 1.474 1_655 S
C2364 C2366 1.381 1_655 S
C2364 C2370 1.383 . S
C2365 C2361 1.495 . S
C2365 H2371 0.959 . S
C2365 H2372 0.961 . S
C2365 H2373 0.960 . S
C2366 C2364 1.381 1_455 S
C2366 C2367 1.394 . S
C2366 H2374 0.930 . S
C2367 C2366 1.394 . S
C2367 C2368 1.383 1_455 S
C2367 H2375 0.929 . S
C2368 C2367 1.383 1_655 S
C2368 C2369 1.377 . S
C2369 H2353 0.930 . S
C2369 C2368 1.377 . S
C2369 C2370 1.379 . S
C2370 H2354 0.914 1_556 S
C2370 C2364 1.383 . S
C2370 C2369 1.379 . S
H2371 C2365 0.959 . S
H2372 C2365 0.961 . S
H2373 C2365 0.960 . S
H2374 C2366 0.930 . S
H2375 C2367 0.929 . S
H2376 C2384 0.929 . S
H2377 C2386 0.930 . S
H2378 C2388 0.930 1_556 S
H2379 C2391 0.929 . S
H2380 C2394 0.930 . S
H2381 C2396 0.960 . S
H2382 C2396 0.960 . S
H2383 C2396 0.960 . S
C2384 H2376 0.929 . S
C2384 C2385 1.377 . S
C2384 C2386 1.384 . S
C2385 C2384 1.377 . S
C2385 C2391 1.390 . S
C2386 H2377 0.930 . S
C2386 C2384 1.384 . S
C2386 C2387 1.372 . S
C2387 C2386 1.372 . S
C2387 C2388 1.400 . S
C2387 C2392 1.490 . S
C2388 H2378 0.930 1_554 S
C2388 C2387 1.400 . S
C2388 C2391 1.386 . S
H2389 C2405 0.930 . S
H2390 C2406 0.931 . S
C2391 H2379 0.929 . S
C2391 C2385 1.390 . S
C2391 C2388 1.386 . S
C2392 C2387 1.490 . S
C2392 C2394 1.395 . S
C2392 C2395 1.403 1_554 S
H2393 C2399 0.930 . S
C2394 H2380 0.930 . S
C2394 C2392 1.395 . S
C2394 C2397 1.403 . S
C2395 C2392 1.403 1_556 S
C2395 C2396 1.524 . S
C2395 C2399 1.400 . S
C2396 H2381 0.960 . S
C2396 H2382 0.960 . S
C2396 H2383 0.960 . S
C2396 C2395 1.524 . S
C2397 C2394 1.403 . S
C2397 C2398 1.392 1_554 S
C2397 C2401 1.495 . S
C2398 C2397 1.392 1_556 S
C2398 C2399 1.385 . S
C2398 C2400 1.478 . S
C2399 H2393 0.930 . S
C2399 C2395 1.400 . S
C2399 C2398 1.385 . S
C2400 C2398 1.478 . S
C2400 C2402 1.390 . S
C2400 C2406 1.383 . S
C2401 C2397 1.495 . S
C2401 H2407 0.959 . S
C2401 H2408 0.961 . S
C2401 H2409 0.960 . S
C2402 C2400 1.390 . S
C2402 C2403 1.403 . S
C2402 H2410 0.912 1_556 S
C2403 C2402 1.403 . S
C2403 C2404 1.383 . S
C2403 H2411 0.929 . S
C2404 C2403 1.383 . S
C2404 C2405 1.377 . S
C2405 H2389 0.930 . S
C2405 C2404 1.377 . S
C2405 C2406 1.379 . S
C2406 H2390 0.931 . S
C2406 C2400 1.383 . S
C2406 C2405 1.379 . S
H2407 C2401 0.959 . S
H2408 C2401 0.961 . S
H2409 C2401 0.960 . S
H2410 C2402 0.912 1_554 S
H2411 C2403 0.929 . S
H2412 C2420 0.929 . S
H2413 C2422 0.930 . S
H2414 C2424 0.930 . S
H2415 C2427 0.929 . S
H2416 C2430 0.930 . S
H2417 C2432 0.960 . S
H2418 C2432 0.960 . S
H2419 C2432 0.960 . S
C2420 H2412 0.929 . S
C2420 C2421 1.377 1_554 S
C2420 C2422 1.384 . S
C2421 C2420 1.377 1_556 S
C2421 C2427 1.390 . S
C2422 H2413 0.930 . S
C2422 C2420 1.384 . S
C2422 C2423 1.372 . S
C2423 C2422 1.372 . S
C2423 C2424 1.400 . S
C2423 C2428 1.490 . S
C2424 H2414 0.930 . S
C2424 C2423 1.400 . S
C2424 C2427 1.386 1_554 S
H2425 C2441 0.930 . S
H2426 C2442 0.931 . S
C2427 H2415 0.929 . S
C2427 C2421 1.390 . S
C2427 C2424 1.386 1_556 S
C2428 C2423 1.490 . S
C2428 C2430 1.395 . S
C2428 C2431 1.403 . S
H2429 C2435 0.930 . S
C2430 H2416 0.930 . S
C2430 C2428 1.395 . S
C2430 C2433 1.403 . S
C2431 C2428 1.403 . S
C2431 C2432 1.524 . S
C2431 C2435 1.400 . S
C2432 H2417 0.960 . S
C2432 H2418 0.960 . S
C2432 H2419 0.960 . S
C2432 C2431 1.524 . S
C2433 C2430 1.403 . S
C2433 C2434 1.392 . S
C2433 C2437 1.495 . S
C2434 C2433 1.392 . S
C2434 C2435 1.385 . S
C2434 C2436 1.478 . S
C2435 H2429 0.930 . S
C2435 C2431 1.400 . S
C2435 C2434 1.385 . S
C2436 C2434 1.478 . S
C2436 C2438 1.381 . S
C2436 C2442 1.383 . S
C2437 C2433 1.495 . S
C2437 H2443 0.959 . S
C2437 H2444 0.961 . S
C2437 H2445 0.960 . S
C2438 C2436 1.381 . S
C2438 C2439 1.394 . S
C2438 H2446 0.930 . S
C2439 C2438 1.394 . S
C2439 C2440 1.383 . S
C2439 H2447 0.929 . S
C2440 C2439 1.383 . S
C2440 C2441 1.377 . S
C2441 H2425 0.930 . S
C2441 C2440 1.377 . S
C2441 C2442 1.379 . S
C2442 H2426 0.931 . S
C2442 C2436 1.383 . S
C2442 C2441 1.379 . S
H2443 C2437 0.959 . S
H2444 C2437 0.961 . S
H2445 C2437 0.960 . S
H2446 C2438 0.930 . S
H2447 C2439 0.929 . S
H2448 C2456 0.929 . S
H2449 C2458 0.930 . S
H2450 C2460 0.930 . S
H2451 C2463 0.929 . S
H2452 C2466 0.930 . S
H2453 C2468 0.960 . S
H2454 C2468 0.960 . S
H2455 C2468 0.960 . S
C2456 H2448 0.929 . S
C2456 C2457 1.377 . S
C2456 C2458 1.384 . S
C2457 C2456 1.377 . S
C2457 C2463 1.390 . S
C2458 H2449 0.930 . S
C2458 C2456 1.384 . S
C2458 C2459 1.372 . S
C2459 C2458 1.372 . S
C2459 C2460 1.400 . S
C2459 C2464 1.490 . S
C2460 H2450 0.930 . S
C2460 C2459 1.400 . S
C2460 C2463 1.386 . S
H2461 C2477 0.930 . S
H2462 C2478 0.931 . S
C2463 H2451 0.929 . S
C2463 C2457 1.390 . S
C2463 C2460 1.386 . S
C2464 C2459 1.490 . S
C2464 C2466 1.395 . S
C2464 C2467 1.403 . S
H2465 C2471 0.930 . S
C2466 H2452 0.930 . S
C2466 C2464 1.395 . S
C2466 C2469 1.403 . S
C2467 C2464 1.403 . S
C2467 C2468 1.524 . S
C2467 C2471 1.400 . S
C2468 H2453 0.960 . S
C2468 H2454 0.960 . S
C2468 H2455 0.960 . S
C2468 C2467 1.524 . S
C2469 C2466 1.403 . S
C2469 C2470 1.392 . S
C2469 C2473 1.495 . S
C2470 C2469 1.392 . S
C2470 C2471 1.385 . S
C2470 C2472 1.478 . S
C2471 H2465 0.930 . S
C2471 C2467 1.400 . S
C2471 C2470 1.385 . S
C2472 C2470 1.478 . S
C2472 C2474 1.381 . S
C2472 C2478 1.383 . S
C2473 C2469 1.495 . S
C2473 H2479 0.959 . S
C2473 H2480 0.961 . S
C2473 H2481 0.960 . S
C2474 C2472 1.381 . S
C2474 C2475 1.394 . S
C2474 H2482 0.930 . S
C2475 C2474 1.394 . S
C2475 C2476 1.383 1_554 S
C2475 H2483 0.929 . S
C2476 C2475 1.383 1_556 S
C2476 C2477 1.377 . S
C2477 H2461 0.930 . S
C2477 C2476 1.377 . S
C2477 C2478 1.379 1_556 S
C2478 H2462 0.931 . S
C2478 C2472 1.383 . S
C2478 C2477 1.379 1_554 S
H2479 C2473 0.959 . S
H2480 C2473 0.961 . S
H2481 C2473 0.960 . S
H2482 C2474 0.930 . S
H2483 C2475 0.929 . S
H2484 C2492 0.917 1_556 S
H2485 C2494 0.930 . S
H2486 C2496 0.930 . S
H2487 C2499 0.929 1_556 S
H2488 C2502 0.930 . S
H2489 C2504 0.960 . S
H2490 C2504 0.960 . S
H2491 C2504 0.960 . S
C2492 H2484 0.917 1_554 S
C2492 C2493 1.366 1_554 S
C2492 C2494 1.408 . S
C2493 C2492 1.366 1_556 S
C2493 C2499 1.390 1_556 S
C2494 H2485 0.930 . S
C2494 C2492 1.408 . S
C2494 C2495 1.372 . S
C2495 C2494 1.372 . S
C2495 C2496 1.400 . S
C2495 C2500 1.490 . S
C2496 H2486 0.930 . S
C2496 C2495 1.400 . S
C2496 C2499 1.386 . S
H2497 C2513 0.930 . S
H2498 C2514 0.931 . S
C2499 H2487 0.929 1_554 S
C2499 C2493 1.390 1_554 S
C2499 C2496 1.386 . S
C2500 C2495 1.490 . S
C2500 C2502 1.395 . S
C2500 C2503 1.403 . S
H2501 C2507 0.930 . S
C2502 H2488 0.930 . S
C2502 C2500 1.395 . S
C2502 C2505 1.403 . S
C2503 C2500 1.403 . S
C2503 C2504 1.524 . S
C2503 C2507 1.400 . S
C2504 H2489 0.960 . S
C2504 H2490 0.960 . S
C2504 H2491 0.960 . S
C2504 C2503 1.524 . S
C2505 C2502 1.403 . S
C2505 C2506 1.392 . S
C2505 C2509 1.495 . S
C2506 C2505 1.392 . S
C2506 C2507 1.385 . S
C2506 C2508 1.478 . S
C2507 H2501 0.930 . S
C2507 C2503 1.400 . S
C2507 C2506 1.385 . S
C2508 C2506 1.478 . S
C2508 C2510 1.381 . S
C2508 C2514 1.383 . S
C2509 C2505 1.495 . S
C2509 H2515 0.959 . S
C2509 H2516 0.961 . S
C2509 H2517 0.960 . S
C2510 C2508 1.381 . S
C2510 C2511 1.394 . S
C2510 H2518 0.930 . S
C2511 C2510 1.394 . S
C2511 C2512 1.383 . S
C2511 H2519 0.929 . S
C2512 C2511 1.383 . S
C2512 C2513 1.377 . S
C2513 H2497 0.930 . S
C2513 C2512 1.377 . S
C2513 C2514 1.379 . S
C2514 H2498 0.931 . S
C2514 C2508 1.383 . S
C2514 C2513 1.379 . S
H2515 C2509 0.959 . S
H2516 C2509 0.961 . S
H2517 C2509 0.960 . S
H2518 C2510 0.930 . S
H2519 C2511 0.929 . S
H2520 C2528 0.929 . S
H2521 C2530 0.930 . S
H2522 C2532 0.930 . S
H2523 C2535 0.929 . S
H2524 C2538 0.930 . S
H2525 C2540 0.960 . S
H2526 C2540 0.960 . S
H2527 C2540 0.960 . S
C2528 H2520 0.929 . S
C2528 C2529 1.377 . S
C2528 C2530 1.384 . S
C2529 C2528 1.377 . S
C2529 C2535 1.390 . S
C2530 H2521 0.930 . S
C2530 C2528 1.384 . S
C2530 C2531 1.372 . S
C2531 C2530 1.372 . S
C2531 C2532 1.400 . S
C2531 C2536 1.490 . S
C2532 H2522 0.930 . S
C2532 C2531 1.400 . S
C2532 C2535 1.386 . S
H2533 C2549 0.930 . S
H2534 C2550 0.931 . S
C2535 H2523 0.929 . S
C2535 C2529 1.390 . S
C2535 C2532 1.386 . S
C2536 C2531 1.490 . S
C2536 C2538 1.395 . S
C2536 C2539 1.403 . S
H2537 C2543 0.930 . S
C2538 H2524 0.930 . S
C2538 C2536 1.395 . S
C2538 C2541 1.403 . S
C2539 C2536 1.403 . S
C2539 C2540 1.524 . S
C2539 C2543 1.400 . S
C2540 H2525 0.960 . S
C2540 H2526 0.960 . S
C2540 H2527 0.960 . S
C2540 C2539 1.524 . S
C2541 C2538 1.403 . S
C2541 C2542 1.392 . S
C2541 C2545 1.495 . S
C2542 C2541 1.392 . S
C2542 C2543 1.385 . S
C2542 C2544 1.478 . S
C2543 H2537 0.930 . S
C2543 C2539 1.400 . S
C2543 C2542 1.385 . S
C2544 C2542 1.478 . S
C2544 C2546 1.381 . S
C2544 C2550 1.383 . S
C2545 C2541 1.495 . S
C2545 H2551 0.959 . S
C2545 H2552 0.961 . S
C2545 H2553 0.960 . S
C2546 C2544 1.381 . S
C2546 C2547 1.394 . S
C2546 H2554 0.930 . S
C2547 C2546 1.394 . S
C2547 C2548 1.383 . S
C2547 H2555 0.929 . S
C2548 C2547 1.383 . S
C2548 C2549 1.377 . S
C2549 H2533 0.930 . S
C2549 C2548 1.377 . S
C2549 C2550 1.379 . S
C2550 H2534 0.931 . S
C2550 C2544 1.383 . S
C2550 C2549 1.379 . S
H2551 C2545 0.959 . S
H2552 C2545 0.961 . S
H2553 C2545 0.960 . S
H2554 C2546 0.930 . S
H2555 C2547 0.929 . S
H2556 C2564 0.929 . S
H2557 C2566 0.930 . S
H2558 C2568 0.930 . S
H2559 C2571 0.929 . S
H2560 C2574 0.930 . S
H2561 C2576 0.960 . S
H2562 C2576 0.960 . S
H2563 C2576 0.960 . S
C2564 H2556 0.929 . S
C2564 C2565 1.377 . S
C2564 C2566 1.384 . S
C2565 C2564 1.377 . S
C2565 C2571 1.390 . S
C2566 H2557 0.930 . S
C2566 C2564 1.384 . S
C2566 C2567 1.372 . S
C2567 C2566 1.372 . S
C2567 C2568 1.400 . S
C2567 C2572 1.490 . S
C2568 H2558 0.930 . S
C2568 C2567 1.400 . S
C2568 C2571 1.386 . S
H2569 C2585 0.930 . S
H2570 C2586 0.931 . S
C2571 H2559 0.929 . S
C2571 C2565 1.390 . S
C2571 C2568 1.386 . S
C2572 C2567 1.490 . S
C2572 C2574 1.395 . S
C2572 C2575 1.403 . S
H2573 C2579 0.930 . S
C2574 H2560 0.930 . S
C2574 C2572 1.395 . S
C2574 C2577 1.403 . S
C2575 C2572 1.403 . S
C2575 C2576 1.524 . S
C2575 C2579 1.400 . S
C2576 H2561 0.960 . S
C2576 H2562 0.960 . S
C2576 H2563 0.960 . S
C2576 C2575 1.524 . S
C2577 C2574 1.403 . S
C2577 C2578 1.392 . S
C2577 C2581 1.495 . S
C2578 C2577 1.392 . S
C2578 C2579 1.385 . S
C2578 C2580 1.478 . S
C2579 H2573 0.930 . S
C2579 C2575 1.400 . S
C2579 C2578 1.385 . S
C2580 C2578 1.478 . S
C2580 C2582 1.381 . S
C2580 C2586 1.383 . S
C2581 C2577 1.495 . S
C2581 H2587 0.959 . S
C2581 H2588 0.961 . S
C2581 H2589 0.960 . S
C2582 C2580 1.381 . S
C2582 C2583 1.394 . S
C2582 H2590 0.930 . S
C2583 C2582 1.394 . S
C2583 C2584 1.383 . S
C2583 H2591 0.929 . S
C2584 C2583 1.383 . S
C2584 C2585 1.377 . S
C2585 H2569 0.930 . S
C2585 C2584 1.377 . S
C2585 C2586 1.379 . S
C2586 H2570 0.931 . S
C2586 C2580 1.383 . S
C2586 C2585 1.379 . S
H2587 C2581 0.959 . S
H2588 C2581 0.961 . S
H2589 C2581 0.960 . S
H2590 C2582 0.930 . S
H2591 C2583 0.929 . S
H2592 C2600 0.929 . S
H2593 C2602 0.930 . S
H2594 C2604 0.930 . S
H2595 C2607 0.929 . S
H2596 C2610 0.930 . S
H2597 C2612 0.960 . S
H2598 C2612 0.960 . S
H2599 C2612 0.960 . S
C2600 H2592 0.929 . S
C2600 C2601 1.377 . S
C2600 C2602 1.384 . S
C2601 C2600 1.377 . S
C2601 C2607 1.390 . S
C2602 H2593 0.930 . S
C2602 C2600 1.384 . S
C2602 C2603 1.372 . S
C2603 C2602 1.372 . S
C2603 C2604 1.400 . S
C2603 C2608 1.490 . S
C2604 H2594 0.930 . S
C2604 C2603 1.400 . S
C2604 C2607 1.386 . S
H2605 C2621 0.930 . S
H2606 C2622 0.931 . S
C2607 H2595 0.929 . S
C2607 C2601 1.390 . S
C2607 C2604 1.386 . S
C2608 C2603 1.490 . S
C2608 C2610 1.395 . S
C2608 C2611 1.403 . S
H2609 C2615 0.930 . S
C2610 H2596 0.930 . S
C2610 C2608 1.395 . S
C2610 C2613 1.403 . S
C2611 C2608 1.403 . S
C2611 C2612 1.524 . S
C2611 C2615 1.400 . S
C2612 H2597 0.960 . S
C2612 H2598 0.960 . S
C2612 H2599 0.960 . S
C2612 C2611 1.524 . S
C2613 C2610 1.403 . S
C2613 C2614 1.392 . S
C2613 C2617 1.495 . S
C2614 C2613 1.392 . S
C2614 C2615 1.385 . S
C2614 C2616 1.478 . S
C2615 H2609 0.930 . S
C2615 C2611 1.400 . S
C2615 C2614 1.385 . S
C2616 C2614 1.478 . S
C2616 C2618 1.381 . S
C2616 C2622 1.383 . S
C2617 C2613 1.495 . S
C2617 H2623 0.959 . S
C2617 H2624 0.961 . S
C2617 H2625 0.960 . S
C2618 C2616 1.381 . S
C2618 C2619 1.394 . S
C2618 H2626 0.930 . S
C2619 C2618 1.394 . S
C2619 C2620 1.383 . S
C2619 H2627 0.929 . S
C2620 C2619 1.383 . S
C2620 C2621 1.377 . S
C2621 H2605 0.930 . S
C2621 C2620 1.377 . S
C2621 C2622 1.379 . S
C2622 H2606 0.931 . S
C2622 C2616 1.383 . S
C2622 C2621 1.379 . S
H2623 C2617 0.959 . S
H2624 C2617 0.961 . S
H2625 C2617 0.960 . S
H2626 C2618 0.930 . S
H2627 C2619 0.929 . S
H2628 C2636 0.929 . S
H2629 C2638 0.930 . S
H2630 C2640 0.930 . S
H2631 C2643 0.929 . S
H2632 C2646 0.930 . S
H2633 C2648 0.960 . S
H2634 C2648 0.960 . S
H2635 C2648 0.960 . S
C2636 H2628 0.929 . S
C2636 C2637 1.377 . S
C2636 C2638 1.384 . S
C2637 C2636 1.377 . S
C2637 C2643 1.390 . S
C2638 H2629 0.930 . S
C2638 C2636 1.384 . S
C2638 C2639 1.372 . S
C2639 C2638 1.372 . S
C2639 C2640 1.400 . S
C2639 C2644 1.490 . S
C2640 H2630 0.930 . S
C2640 C2639 1.400 . S
C2640 C2643 1.386 . S
H2641 C2657 0.930 . S
H2642 C2658 0.931 . S
C2643 H2631 0.929 . S
C2643 C2637 1.390 . S
C2643 C2640 1.386 . S
C2644 C2639 1.490 . S
C2644 C2646 1.395 . S
C2644 C2647 1.403 . S
H2645 C2651 0.930 . S
C2646 H2632 0.930 . S
C2646 C2644 1.395 . S
C2646 C2649 1.403 . S
C2647 C2644 1.403 . S
C2647 C2648 1.524 . S
C2647 C2651 1.400 . S
C2648 H2633 0.960 . S
C2648 H2634 0.960 . S
C2648 H2635 0.960 . S
C2648 C2647 1.524 . S
C2649 C2646 1.403 . S
C2649 C2650 1.392 . S
C2649 C2653 1.495 . S
C2650 C2649 1.392 . S
C2650 C2651 1.385 . S
C2650 C2652 1.478 . S
C2651 H2645 0.930 . S
C2651 C2647 1.400 . S
C2651 C2650 1.385 . S
C2652 C2650 1.478 . S
C2652 C2654 1.381 . S
C2652 C2658 1.383 . S
C2653 C2649 1.495 . S
C2653 H2659 0.959 . S
C2653 H2660 0.961 . S
C2653 H2661 0.960 . S
C2654 C2652 1.381 . S
C2654 C2655 1.394 1_556 S
C2654 H2662 0.930 . S
C2655 C2654 1.394 1_554 S
C2655 C2656 1.383 . S
C2655 H2663 0.929 . S
C2656 C2655 1.383 . S
C2656 C2657 1.377 1_554 S
C2657 H2641 0.930 . S
C2657 C2656 1.377 1_556 S
C2657 C2658 1.379 . S
C2658 H2642 0.931 . S
C2658 C2652 1.383 . S
C2658 C2657 1.379 . S
H2659 C2653 0.959 . S
H2660 C2653 0.961 . S
H2661 C2653 0.960 . S
H2662 C2654 0.930 . S
H2663 C2655 0.929 . S
H2664 C2672 0.929 . S
H2665 C2674 0.930 . S
H2666 C2676 0.930 . S
H2667 C2679 0.929 . S
H2668 C2682 0.930 . S
H2669 C2684 0.960 . S
H2670 C2684 0.960 . S
H2671 C2684 0.960 . S
C2672 H2664 0.929 . S
C2672 C2673 1.377 1_556 S
C2672 C2674 1.384 . S
C2673 C2672 1.377 1_554 S
C2673 C2679 1.390 . S
C2674 H2665 0.930 . S
C2674 C2672 1.384 . S
C2674 C2675 1.372 . S
C2675 C2674 1.372 . S
C2675 C2676 1.400 . S
C2675 C2680 1.490 . S
C2676 H2666 0.930 . S
C2676 C2675 1.400 . S
C2676 C2679 1.386 1_556 S
H2677 C2693 0.930 . S
H2678 C2694 0.931 . S
C2679 H2667 0.929 . S
C2679 C2673 1.390 . S
C2679 C2676 1.386 1_554 S
C2680 C2675 1.490 . S
C2680 C2682 1.395 . S
C2680 C2683 1.403 . S
H2681 C2687 0.930 . S
C2682 H2668 0.930 . S
C2682 C2680 1.395 . S
C2682 C2685 1.403 . S
C2683 C2680 1.403 . S
C2683 C2684 1.524 . S
C2683 C2687 1.400 . S
C2684 H2669 0.960 . S
C2684 H2670 0.960 . S
C2684 H2671 0.960 . S
C2684 C2683 1.524 . S
C2685 C2682 1.403 . S
C2685 C2686 1.392 . S
C2685 C2689 1.495 . S
C2686 C2685 1.392 . S
C2686 C2687 1.385 . S
C2686 C2688 1.478 . S
C2687 H2681 0.930 . S
C2687 C2683 1.400 . S
C2687 C2686 1.385 . S
C2688 C2686 1.478 . S
C2688 C2690 1.381 . S
C2688 C2694 1.383 . S
C2689 C2685 1.495 . S
C2689 H2695 0.959 . S
C2689 H2696 0.961 . S
C2689 H2697 0.960 . S
C2690 C2688 1.381 . S
C2690 C2691 1.394 . S
C2690 H2698 0.930 . S
C2691 C2690 1.394 . S
C2691 C2692 1.383 . S
C2691 H2699 0.929 . S
C2692 C2691 1.383 . S
C2692 C2693 1.377 . S
C2693 H2677 0.930 . S
C2693 C2692 1.377 . S
C2693 C2694 1.379 . S
C2694 H2678 0.931 . S
C2694 C2688 1.383 . S
C2694 C2693 1.379 . S
H2695 C2689 0.959 . S
H2696 C2689 0.961 . S
H2697 C2689 0.960 . S
H2698 C2690 0.930 . S
H2699 C2691 0.929 . S
H2700 C2708 0.929 . S
H2701 C2710 0.930 . S
H2702 C2712 0.930 . S
H2703 C2715 0.929 . S
H2704 C2718 0.930 . S
H2705 C2720 0.960 . S
H2706 C2720 0.960 . S
H2707 C2720 0.960 . S
C2708 H2700 0.929 . S
C2708 C2709 1.377 . S
C2708 C2710 1.384 . S
C2709 C2708 1.377 . S
C2709 C2715 1.390 . S
C2710 H2701 0.930 . S
C2710 C2708 1.384 . S
C2710 C2711 1.372 . S
C2711 C2710 1.372 . S
C2711 C2712 1.400 . S
C2711 C2716 1.490 . S
C2712 H2702 0.930 . S
C2712 C2711 1.400 . S
C2712 C2715 1.386 . S
H2713 C2729 0.930 . S
H2714 C2730 0.931 . S
C2715 H2703 0.929 . S
C2715 C2709 1.390 . S
C2715 C2712 1.386 . S
C2716 C2711 1.490 . S
C2716 C2718 1.395 . S
C2716 C2719 1.403 . S
H2717 C2723 0.930 . S
C2718 H2704 0.930 . S
C2718 C2716 1.395 . S
C2718 C2721 1.403 . S
C2719 C2716 1.403 . S
C2719 C2720 1.524 . S
C2719 C2723 1.400 . S
C2720 H2705 0.960 . S
C2720 H2706 0.960 . S
C2720 H2707 0.960 . S
C2720 C2719 1.524 . S
C2721 C2718 1.403 . S
C2721 C2722 1.392 . S
C2721 C2725 1.495 . S
C2722 C2721 1.392 . S
C2722 C2723 1.385 . S
C2722 C2724 1.478 . S
C2723 H2717 0.930 . S
C2723 C2719 1.400 . S
C2723 C2722 1.385 . S
C2724 C2722 1.478 . S
C2724 C2726 1.381 . S
C2724 C2730 1.383 . S
C2725 C2721 1.495 . S
C2725 H2731 0.959 . S
C2725 H2732 0.961 . S
C2725 H2733 0.960 . S
C2726 C2724 1.381 . S
C2726 C2727 1.394 1_556 S
C2726 H2734 0.937 . S
C2727 C2726 1.394 1_554 S
C2727 C2728 1.383 . S
C2727 H2735 0.929 . S
C2728 C2727 1.383 . S
C2728 C2729 1.377 1_554 S
C2729 H2713 0.930 . S
C2729 C2728 1.377 1_556 S
C2729 C2730 1.379 . S
C2730 H2714 0.931 . S
C2730 C2724 1.383 . S
C2730 C2729 1.379 . S
H2731 C2725 0.959 . S
H2732 C2725 0.961 . S
H2733 C2725 0.960 . S
H2734 C2726 0.937 . S
H2735 C2727 0.929 . S
H2736 C2744 0.929 . S
H2737 C2746 0.930 . S
H2738 C2748 0.930 . S
H2739 C2751 0.929 . S
H2740 C2754 0.930 . S
H2741 C2756 0.960 . S
H2742 C2756 0.960 . S
H2743 C2756 0.960 . S
C2744 H2736 0.929 . S
C2744 C2745 1.377 . S
C2744 C2746 1.384 . S
C2745 C2744 1.377 . S
C2745 C2751 1.390 . S
C2746 H2737 0.930 . S
C2746 C2744 1.384 . S
C2746 C2747 1.372 . S
C2747 C2746 1.372 . S
C2747 C2748 1.400 . S
C2747 C2752 1.490 . S
C2748 H2738 0.930 . S
C2748 C2747 1.400 . S
C2748 C2751 1.386 . S
H2749 C2765 0.930 . S
H2750 C2766 0.931 . S
C2751 H2739 0.929 . S
C2751 C2745 1.390 . S
C2751 C2748 1.386 . S
C2752 C2747 1.490 . S
C2752 C2754 1.395 . S
C2752 C2755 1.403 . S
H2753 C2759 0.930 . S
C2754 H2740 0.930 . S
C2754 C2752 1.395 . S
C2754 C2757 1.403 . S
C2755 C2752 1.403 . S
C2755 C2756 1.524 . S
C2755 C2759 1.400 . S
C2756 H2741 0.960 . S
C2756 H2742 0.960 . S
C2756 H2743 0.960 . S
C2756 C2755 1.524 . S
C2757 C2754 1.403 . S
C2757 C2758 1.392 . S
C2757 C2761 1.495 . S
C2758 C2757 1.392 . S
C2758 C2759 1.385 . S
C2758 C2760 1.478 . S
C2759 H2753 0.930 . S
C2759 C2755 1.400 . S
C2759 C2758 1.385 . S
C2760 C2758 1.478 . S
C2760 C2762 1.381 . S
C2760 C2766 1.383 . S
C2761 C2757 1.495 . S
C2761 H2767 0.959 . S
C2761 H2768 0.961 . S
C2761 H2769 0.960 . S
C2762 C2760 1.381 . S
C2762 C2763 1.394 . S
C2762 H2770 0.930 . S
C2763 C2762 1.394 . S
C2763 C2764 1.383 . S
C2763 H2771 0.929 . S
C2764 C2763 1.383 . S
C2764 C2765 1.377 . S
C2765 H2749 0.930 . S
C2765 C2764 1.377 . S
C2765 C2766 1.379 . S
C2766 H2750 0.931 . S
C2766 C2760 1.383 . S
C2766 C2765 1.379 . S
H2767 C2761 0.959 . S
H2768 C2761 0.961 . S
H2769 C2761 0.960 . S
H2770 C2762 0.930 . S
H2771 C2763 0.929 . S
H2772 C2780 0.929 . S
H2773 C2782 0.930 . S
H2774 C2784 0.930 . S
H2775 C2787 0.929 . S
H2776 C2790 0.930 . S
H2777 C2792 0.960 . S
H2778 C2792 0.960 . S
H2779 C2792 0.960 . S
C2780 H2772 0.929 . S
C2780 C2781 1.377 . S
C2780 C2782 1.384 . S
C2781 C2780 1.377 . S
C2781 C2787 1.390 . S
C2782 H2773 0.930 . S
C2782 C2780 1.384 . S
C2782 C2783 1.372 . S
C2783 C2782 1.372 . S
C2783 C2784 1.400 . S
C2783 C2788 1.490 . S
C2784 H2774 0.930 . S
C2784 C2783 1.400 . S
C2784 C2787 1.386 . S
H2785 C2801 0.930 . S
H2786 C2802 0.931 . S
C2787 H2775 0.929 . S
C2787 C2781 1.390 . S
C2787 C2784 1.386 . S
C2788 C2783 1.490 . S
C2788 C2790 1.395 . S
C2788 C2791 1.403 . S
H2789 C2795 0.930 . S
C2790 H2776 0.930 . S
C2790 C2788 1.395 . S
C2790 C2793 1.403 . S
C2791 C2788 1.403 . S
C2791 C2792 1.524 . S
C2791 C2795 1.400 . S
C2792 H2777 0.960 . S
C2792 H2778 0.960 . S
C2792 H2779 0.960 . S
C2792 C2791 1.524 . S
C2793 C2790 1.403 . S
C2793 C2794 1.392 . S
C2793 C2797 1.495 . S
C2794 C2793 1.392 . S
C2794 C2795 1.385 . S
C2794 C2796 1.478 . S
C2795 H2789 0.930 . S
C2795 C2791 1.400 . S
C2795 C2794 1.385 . S
C2796 C2794 1.478 . S
C2796 C2798 1.381 . S
C2796 C2802 1.383 . S
C2797 C2793 1.495 . S
C2797 H2803 0.959 . S
C2797 H2804 0.961 . S
C2797 H2805 0.960 . S
C2798 C2796 1.381 . S
C2798 C2799 1.394 . S
C2798 H2806 0.930 . S
C2799 C2798 1.394 . S
C2799 C2800 1.383 . S
C2799 H2807 0.929 . S
C2800 C2799 1.383 . S
C2800 C2801 1.377 . S
C2801 H2785 0.930 . S
C2801 C2800 1.377 . S
C2801 C2802 1.379 . S
C2802 H2786 0.931 . S
C2802 C2796 1.383 . S
C2802 C2801 1.379 . S
H2803 C2797 0.959 . S
H2804 C2797 0.961 . S
H2805 C2797 0.960 . S
H2806 C2798 0.930 . S
H2807 C2799 0.929 . S
H2808 C2816 0.929 . S
H2809 C2818 0.930 . S
H2810 C2820 0.930 . S
H2811 C2823 0.929 . S
H2812 C2826 0.930 . S
H2813 C2828 0.960 . S
H2814 C2828 0.960 . S
H2815 C2828 0.960 . S
C2816 H2808 0.929 . S
C2816 C2817 1.377 . S
C2816 C2818 1.384 . S
C2817 C2816 1.377 . S
C2817 C2823 1.390 . S
C2818 H2809 0.930 . S
C2818 C2816 1.384 . S
C2818 C2819 1.372 . S
C2819 C2818 1.372 . S
C2819 C2820 1.400 . S
C2819 C2824 1.490 . S
C2820 H2810 0.930 . S
C2820 C2819 1.400 . S
C2820 C2823 1.386 . S
H2821 C2837 0.930 . S
H2822 C2838 0.931 . S
C2823 H2811 0.929 . S
C2823 C2817 1.390 . S
C2823 C2820 1.386 . S
C2824 C2819 1.490 . S
C2824 C2826 1.395 . S
C2824 C2827 1.403 . S
H2825 C2831 0.930 . S
C2826 H2812 0.930 . S
C2826 C2824 1.395 . S
C2826 C2829 1.403 . S
C2827 C2824 1.403 . S
C2827 C2828 1.524 . S
C2827 C2831 1.400 . S
C2828 H2813 0.960 . S
C2828 H2814 0.960 . S
C2828 H2815 0.960 . S
C2828 C2827 1.524 . S
C2829 C2826 1.403 . S
C2829 C2830 1.392 . S
C2829 C2833 1.495 . S
C2830 C2829 1.392 . S
C2830 C2831 1.385 . S
C2830 C2832 1.478 . S
C2831 H2825 0.930 . S
C2831 C2827 1.400 . S
C2831 C2830 1.385 . S
C2832 C2830 1.478 . S
C2832 C2834 1.381 . S
C2832 C2838 1.383 . S
C2833 C2829 1.495 . S
C2833 H2839 0.959 . S
C2833 H2840 0.961 . S
C2833 H2841 0.960 . S
C2834 C2832 1.381 . S
C2834 C2835 1.394 . S
C2834 H2842 0.930 . S
C2835 C2834 1.394 . S
C2835 C2836 1.383 . S
C2835 H2843 0.929 . S
C2836 C2835 1.383 . S
C2836 C2837 1.377 . S
C2837 H2821 0.930 . S
C2837 C2836 1.377 . S
C2837 C2838 1.379 . S
C2838 H2822 0.931 . S
C2838 C2832 1.383 . S
C2838 C2837 1.379 . S
H2839 C2833 0.959 . S
H2840 C2833 0.961 . S
H2841 C2833 0.960 . S
H2842 C2834 0.930 . S
H2843 C2835 0.929 . S
H2844 C2852 0.929 . S
H2845 C2854 0.930 . S
H2846 C2856 0.930 . S
H2847 C2859 0.929 . S
H2848 C2862 0.930 . S
H2849 C2864 0.960 . S
H2850 C2864 0.960 . S
H2851 C2864 0.960 . S
C2852 H2844 0.929 . S
C2852 C2853 1.377 . S
C2852 C2854 1.384 . S
C2853 C2852 1.377 . S
C2853 C2859 1.390 . S
C2854 H2845 0.930 . S
C2854 C2852 1.384 . S
C2854 C2855 1.372 . S
C2855 C2854 1.372 . S
C2855 C2856 1.400 . S
C2855 C2860 1.490 . S
C2856 H2846 0.930 . S
C2856 C2855 1.400 . S
C2856 C2859 1.386 . S
H2857 C2873 0.930 . S
H2858 C2874 0.931 . S
C2859 H2847 0.929 . S
C2859 C2853 1.390 . S
C2859 C2856 1.386 . S
C2860 C2855 1.490 . S
C2860 C2862 1.395 . S
C2860 C2863 1.403 . S
H2861 C2867 0.930 . S
C2862 H2848 0.930 . S
C2862 C2860 1.395 . S
C2862 C2865 1.403 . S
C2863 C2860 1.403 . S
C2863 C2864 1.524 . S
C2863 C2867 1.400 . S
C2864 H2849 0.960 . S
C2864 H2850 0.960 . S
C2864 H2851 0.960 . S
C2864 C2863 1.524 . S
C2865 C2862 1.403 . S
C2865 C2866 1.392 . S
C2865 C2869 1.495 . S
C2866 C2865 1.392 . S
C2866 C2867 1.385 . S
C2866 C2868 1.478 . S
C2867 H2861 0.930 . S
C2867 C2863 1.400 . S
C2867 C2866 1.385 . S
C2868 C2866 1.478 . S
C2868 C2870 1.381 . S
C2868 C2874 1.383 . S
C2869 C2865 1.495 . S
C2869 H2875 0.959 . S
C2869 H2876 0.961 . S
C2869 H2877 0.960 . S
C2870 C2868 1.381 . S
C2870 C2871 1.394 . S
C2870 H2878 0.930 . S
C2871 C2870 1.394 . S
C2871 C2872 1.383 . S
C2871 H2879 0.929 . S
C2872 C2871 1.383 . S
C2872 C2873 1.377 . S
C2873 H2857 0.930 . S
C2873 C2872 1.377 . S
C2873 C2874 1.379 . S
C2874 H2858 0.931 . S
C2874 C2868 1.383 . S
C2874 C2873 1.379 . S
H2875 C2869 0.959 . S
H2876 C2869 0.961 . S
H2877 C2869 0.960 . S
H2878 C2870 0.930 . S
H2879 C2871 0.929 . S
H2880 C2888 0.929 . S
H2881 C2890 0.930 . S
H2882 C2892 0.930 . S
H2883 C2895 0.929 . S
H2884 C2898 0.930 . S
H2885 C2900 0.960 . S
H2886 C2900 0.960 . S
H2887 C2900 0.960 . S
C2888 H2880 0.929 . S
C2888 C2889 1.377 . S
C2888 C2890 1.384 . S
C2889 C2888 1.377 . S
C2889 C2895 1.390 . S
C2890 H2881 0.930 . S
C2890 C2888 1.384 . S
C2890 C2891 1.372 . S
C2891 C2890 1.372 . S
C2891 C2892 1.400 . S
C2891 C2896 1.490 . S
C2892 H2882 0.930 . S
C2892 C2891 1.400 . S
C2892 C2895 1.386 . S
H2893 C2909 0.930 . S
H2894 C2910 0.931 . S
C2895 H2883 0.929 . S
C2895 C2889 1.390 . S
C2895 C2892 1.386 . S
C2896 C2891 1.490 . S
C2896 C2898 1.395 1_545 S
C2896 C2899 1.403 . S
H2897 C2903 0.930 . S
C2898 H2884 0.930 . S
C2898 C2896 1.395 1_565 S
C2898 C2901 1.403 . S
C2899 C2896 1.403 . S
C2899 C2900 1.524 . S
C2899 C2903 1.400 . S
C2900 H2885 0.960 . S
C2900 H2886 0.960 . S
C2900 H2887 0.960 . S
C2900 C2899 1.524 . S
C2901 C2898 1.403 . S
C2901 C2902 1.392 . S
C2901 C2905 1.495 . S
C2902 C2901 1.392 . S
C2902 C2903 1.385 1_565 S
C2902 C2904 1.478 . S
C2903 H2897 0.930 . S
C2903 C2899 1.400 . S
C2903 C2902 1.385 1_545 S
C2904 C2902 1.478 . S
C2904 C2906 1.381 . S
C2904 C2910 1.383 . S
C2905 C2901 1.495 . S
C2905 H2911 0.959 . S
C2905 H2912 0.961 . S
C2905 H2913 0.960 . S
C2906 C2904 1.381 . S
C2906 C2907 1.394 . S
C2906 H2914 0.930 . S
C2907 C2906 1.394 . S
C2907 C2908 1.383 . S
C2907 H2915 0.929 . S
C2908 C2907 1.383 . S
C2908 C2909 1.377 . S
C2909 H2893 0.930 . S
C2909 C2908 1.377 . S
C2909 C2910 1.379 . S
C2910 H2894 0.931 . S
C2910 C2904 1.383 . S
C2910 C2909 1.379 . S
H2911 C2905 0.959 . S
H2912 C2905 0.961 . S
H2913 C2905 0.960 . S
H2914 C2906 0.930 . S
H2915 C2907 0.929 . S
H2916 C2924 0.929 . S
H2917 C2926 0.930 . S
H2918 C2928 0.930 . S
H2919 C2931 0.929 . S
H2920 C2934 0.930 . S
H2921 C2936 0.960 . S
H2922 C2936 0.960 . S
H2923 C2936 0.960 . S
C2924 H2916 0.929 . S
C2924 C2925 1.377 . S
C2924 C2926 1.384 . S
C2925 C2924 1.377 . S
C2925 C2931 1.390 . S
C2926 H2917 0.930 . S
C2926 C2924 1.384 . S
C2926 C2927 1.372 . S
C2927 C2926 1.372 . S
C2927 C2928 1.400 . S
C2927 C2932 1.490 . S
C2928 H2918 0.930 . S
C2928 C2927 1.400 . S
C2928 C2931 1.386 . S
H2929 C2945 0.930 . S
H2930 C2946 0.931 . S
C2931 H2919 0.929 . S
C2931 C2925 1.390 . S
C2931 C2928 1.386 . S
C2932 C2927 1.490 . S
C2932 C2934 1.395 . S
C2932 C2935 1.403 1_655 S
H2933 C2939 0.930 . S
C2934 H2920 0.930 . S
C2934 C2932 1.395 . S
C2934 C2937 1.403 . S
C2935 C2932 1.403 1_455 S
C2935 C2936 1.524 . S
C2935 C2939 1.400 . S
C2936 H2921 0.960 . S
C2936 H2922 0.960 . S
C2936 H2923 0.960 . S
C2936 C2935 1.524 . S
C2937 C2934 1.403 . S
C2937 C2938 1.392 1_655 S
C2937 C2941 1.495 . S
C2938 C2937 1.392 1_455 S
C2938 C2939 1.385 . S
C2938 C2940 1.478 . S
C2939 H2933 0.930 . S
C2939 C2935 1.400 . S
C2939 C2938 1.385 . S
C2940 C2938 1.478 . S
C2940 C2942 1.381 . S
C2940 C2946 1.383 . S
C2941 C2937 1.495 . S
C2941 H2947 0.959 . S
C2941 H2948 0.961 . S
C2941 H2949 0.960 . S
C2942 C2940 1.381 . S
C2942 C2943 1.394 . S
C2942 H2950 0.930 . S
C2943 C2942 1.394 . S
C2943 C2944 1.383 . S
C2943 H2951 0.929 . S
C2944 C2943 1.383 . S
C2944 C2945 1.377 . S
C2945 H2929 0.930 . S
C2945 C2944 1.377 . S
C2945 C2946 1.379 . S
C2946 H2930 0.931 . S
C2946 C2940 1.383 . S
C2946 C2945 1.379 . S
H2947 C2941 0.959 . S
H2948 C2941 0.961 . S
H2949 C2941 0.960 . S
H2950 C2942 0.930 . S
H2951 C2943 0.929 . S
H2952 C2960 0.929 . S
H2953 C2962 0.930 . S
H2954 C2964 0.930 . S
H2955 C2967 0.929 . S
H2956 C2970 0.930 . S
H2957 C2972 0.960 . S
H2958 C2972 0.960 . S
H2959 C2972 0.960 . S
C2960 H2952 0.929 . S
C2960 C2961 1.377 . S
C2960 C2962 1.384 . S
C2961 C2960 1.377 . S
C2961 C2967 1.390 . S
C2962 H2953 0.930 . S
C2962 C2960 1.384 . S
C2962 C2963 1.372 . S
C2963 C2962 1.372 . S
C2963 C2964 1.400 . S
C2963 C2968 1.490 . S
C2964 H2954 0.930 . S
C2964 C2963 1.400 . S
C2964 C2967 1.386 . S
H2965 C2981 0.930 . S
H2966 C2982 0.931 . S
C2967 H2955 0.929 . S
C2967 C2961 1.390 . S
C2967 C2964 1.386 . S
C2968 C2963 1.490 . S
C2968 C2970 1.395 . S
C2968 C2971 1.403 . S
H2969 C2975 0.930 . S
C2970 H2956 0.930 . S
C2970 C2968 1.395 . S
C2970 C2973 1.403 . S
C2971 C2968 1.403 . S
C2971 C2972 1.524 . S
C2971 C2975 1.400 . S
C2972 H2957 0.960 . S
C2972 H2958 0.960 . S
C2972 H2959 0.960 . S
C2972 C2971 1.524 . S
C2973 C2970 1.403 . S
C2973 C2974 1.392 . S
C2973 C2977 1.495 . S
C2974 C2973 1.392 . S
C2974 C2975 1.385 . S
C2974 C2976 1.478 . S
C2975 H2969 0.930 . S
C2975 C2971 1.400 . S
C2975 C2974 1.385 . S
C2976 C2974 1.478 . S
C2976 C2978 1.381 . S
C2976 C2982 1.383 . S
C2977 C2973 1.495 . S
C2977 H2983 0.959 . S
C2977 H2984 0.961 . S
C2977 H2985 0.960 . S
C2978 C2976 1.381 . S
C2978 C2979 1.394 . S
C2978 H2986 0.930 . S
C2979 C2978 1.394 . S
C2979 C2980 1.383 . S
C2979 H2987 0.929 . S
C2980 C2979 1.383 . S
C2980 C2981 1.377 . S
C2981 H2965 0.930 . S
C2981 C2980 1.377 . S
C2981 C2982 1.379 . S
C2982 H2966 0.931 . S
C2982 C2976 1.383 . S
C2982 C2981 1.379 . S
H2983 C2977 0.959 . S
H2984 C2977 0.961 . S
H2985 C2977 0.960 . S
H2986 C2978 0.930 . S
H2987 C2979 0.929 . S
H2988 C2996 0.929 . S
H2989 C2998 0.930 . S
H2990 C3000 0.930 . S
H2991 C3003 0.929 . S
H2992 C3006 0.930 . S
H2993 C3008 0.960 . S
H2994 C3008 0.960 . S
H2995 C3008 0.960 . S
C2996 H2988 0.929 . S
C2996 C2997 1.377 . S
C2996 C2998 1.384 . S
C2997 C2996 1.377 . S
C2997 C3003 1.390 . S
C2998 H2989 0.930 . S
C2998 C2996 1.384 . S
C2998 C2999 1.372 . S
C2999 C2998 1.372 . S
C2999 C3000 1.400 . S
C2999 C3004 1.490 . S
C3000 H2990 0.930 . S
C3000 C2999 1.400 . S
C3000 C3003 1.386 . S
H3001 C3017 0.930 . S
H3002 C3018 0.931 . S
C3003 H2991 0.929 . S
C3003 C2997 1.390 . S
C3003 C3000 1.386 . S
C3004 C2999 1.490 . S
C3004 C3006 1.395 . S
C3004 C3007 1.403 . S
H3005 C3011 0.930 . S
C3006 H2992 0.930 . S
C3006 C3004 1.395 . S
C3006 C3009 1.403 1_545 S
C3007 C3004 1.403 . S
C3007 C3008 1.524 . S
C3007 C3011 1.400 1_545 S
C3008 H2993 0.960 . S
C3008 H2994 0.960 . S
C3008 H2995 0.960 . S
C3008 C3007 1.524 . S
C3009 C3006 1.403 1_565 S
C3009 C3010 1.392 . S
C3009 C3013 1.495 . S
C3010 C3009 1.392 . S
C3010 C3011 1.385 . S
C3010 C3012 1.478 . S
C3011 H3005 0.930 . S
C3011 C3007 1.400 1_565 S
C3011 C3010 1.385 . S
C3012 C3010 1.478 . S
C3012 C3014 1.381 . S
C3012 C3018 1.383 . S
C3013 C3009 1.495 . S
C3013 H3019 0.959 . S
C3013 H3020 0.961 . S
C3013 H3021 0.960 . S
C3014 C3012 1.381 . S
C3014 C3015 1.394 . S
C3014 H3022 0.930 . S
C3015 C3014 1.394 . S
C3015 C3016 1.383 . S
C3015 H3023 0.929 . S
C3016 C3015 1.383 . S
C3016 C3017 1.377 . S
C3017 H3001 0.930 . S
C3017 C3016 1.377 . S
C3017 C3018 1.379 . S
C3018 H3002 0.931 . S
C3018 C3012 1.383 . S
C3018 C3017 1.379 . S
H3019 C3013 0.959 . S
H3020 C3013 0.961 . S
H3021 C3013 0.960 . S
H3022 C3014 0.930 . S
H3023 C3015 0.929 . S
H3024 C3032 0.929 . S
H3025 C3034 0.930 . S
H3026 C3036 0.930 . S
H3027 C3039 0.929 . S
H3028 C3042 0.930 . S
H3029 C3044 0.960 . S
H3030 C3044 0.960 . S
H3031 C3044 0.960 . S
C3032 H3024 0.929 . S
C3032 C3033 1.377 . S
C3032 C3034 1.384 . S
C3033 C3032 1.377 . S
C3033 C3039 1.390 . S
C3034 H3025 0.930 . S
C3034 C3032 1.384 . S
C3034 C3035 1.372 . S
C3035 C3034 1.372 . S
C3035 C3036 1.400 . S
C3035 C3040 1.490 . S
C3036 H3026 0.930 . S
C3036 C3035 1.400 . S
C3036 C3039 1.386 . S
H3037 C3053 0.930 . S
H3038 C3054 0.931 . S
C3039 H3027 0.929 . S
C3039 C3033 1.390 . S
C3039 C3036 1.386 . S
C3040 C3035 1.490 . S
C3040 C3042 1.395 1_455 S
C3040 C3043 1.403 . S
H3041 C3047 0.947 . S
C3042 H3028 0.930 . S
C3042 C3040 1.395 1_655 S
C3042 C3045 1.403 . S
C3043 C3040 1.403 . S
C3043 C3044 1.524 . S
C3043 C3047 1.409 . S
C3044 H3029 0.960 . S
C3044 H3030 0.960 . S
C3044 H3031 0.960 . S
C3044 C3043 1.524 . S
C3045 C3042 1.403 . S
C3045 C3046 1.392 . S
C3045 C3049 1.495 . S
C3046 C3045 1.392 . S
C3046 C3047 1.379 1_655 S
C3046 C3048 1.478 . S
C3047 H3041 0.947 . S
C3047 C3043 1.409 . S
C3047 C3046 1.379 1_455 S
C3048 C3046 1.478 . S
C3048 C3050 1.381 . S
C3048 C3054 1.383 . S
C3049 C3045 1.495 . S
C3049 H3055 0.959 . S
C3049 H3056 0.961 . S
C3049 H3057 0.960 . S
C3050 C3048 1.381 . S
C3050 C3051 1.394 . S
C3050 H3058 0.930 . S
C3051 C3050 1.394 . S
C3051 C3052 1.383 . S
C3051 H3059 0.929 . S
C3052 C3051 1.383 . S
C3052 C3053 1.377 . S
C3053 H3037 0.930 . S
C3053 C3052 1.377 . S
C3053 C3054 1.379 . S
C3054 H3038 0.931 . S
C3054 C3048 1.383 . S
C3054 C3053 1.379 . S
H3055 C3049 0.959 . S
H3056 C3049 0.961 . S
H3057 C3049 0.960 . S
H3058 C3050 0.930 . S
H3059 C3051 0.929 . S
C477 C70 0.459 . S
C496 C5 0.426 . S
C513 C44 0.481 . S
C532 C18 0.381 . S
C549 C31 0.476 . S
C568 C57 0.442 . S
C585 C83 0.466 . S
C604 C148 0.559 . S
C621 C96 0.476 . S
C640 C122 0.537 . S
C657 C135 0.448 . S
C676 C109 0.542 . S
C693 C161 0.456 . S
C712 C226 0.441 . S
C729 C174 0.476 . S
C748 C200 0.362 . S
C765 C213 0.480 . S
C784 C187 0.400 . S
C801 C304 0.456 . S
C820 C239 0.362 . S
C837 C278 0.453 . S
C856 C252 0.367 . S
C873 C265 0.462 . S
C892 C291 0.560 . S
C909 C382 0.475 . S
C928 C317 0.363 . S
C945 C356 0.476 . S
C964 C330 0.361 . S
C981 C343 0.477 . S
C1000 C369 0.359 . S
C1017 C460 0.445 . S
C1036 C395 0.393 . S
C1053 C434 0.481 . S
C1072 C408 0.490 . S
C1089 C447 0.439 . S
C1108 C421 0.445 . S
C1125 C216 1.029 . S
C1144 C8 1.077 . S
C1161 C229 1.026 . S
C1180 C21 1.065 . S
C1197 C203 1.029 . S
C1216 C34 1.076 . S
C1233 C47 1.004 . S
C1252 C346 0.958 . S
C1269 C60 1.020 . S
C1288 C320 1.036 . S
C1305 C73 1.013 . S
C1324 C333 1.007 . S
C1341 C86 1.023 . S
C1360 C450 0.950 . S
C1377 C463 1.003 . S
C1396 C99 1.030 . S
C1413 C437 1.024 . S
C1432 C112 0.950 . S
C1449 C268 1.004 . S
C1468 C125 1.013 . S
C1485 C242 1.016 . S
C1504 C138 0.957 . S
C1521 C151 1.004 . S
C1540 C255 1.019 . S
C1557 C164 1.025 . S
C1576 C372 1.060 . S
C1593 C385 1.028 . S
C1612 C177 1.073 . S
C1629 C359 1.011 . S
C1648 C190 0.999 . S
C1665 C281 1.024 . S
C1684 C424 0.950 . S
C1701 C398 1.020 . S
C1720 C294 0.950 . S
C1737 C307 1.006 . S
C1756 C411 1.075 . S
C1773 C234 1.138 . S
C1792 C0 1.118 . S
C1809 C247 1.138 . S
C1828 C13 1.117 . S
C1845 C26 1.131 . S
C1864 C260 1.124 . S
C1881 C39 1.135 . S
C1900 C429 1.109 . S
C1917 C442 1.138 . S
C1936 C52 1.114 . S
C1953 C455 1.135 . S
C1972 C65 1.155 . S
C1989 C78 1.132 . S
C2008 C312 1.107 . S
C2025 C91 1.137 . S
C2044 C325 1.113 . S
C2061 C338 1.131 . S
C2080 C104 1.126 . S
C2097 C117 1.140 . S
C2116 C195 1.133 . S
C2133 C130 1.141 . S
C2152 C208 1.159 . S
C2169 C221 1.131 . S
C2188 C143 1.115 . S
C2205 C156 1.129 . S
C2224 C390 1.117 . S
C2241 C169 1.141 . S
C2260 C403 1.157 . S
C2277 C416 1.140 . S
C2296 C182 1.161 . S
C2313 C351 1.130 . S
C2332 C273 1.133 . S
C2349 C286 1.133 . S
C2368 C364 1.138 . S
C2385 C299 1.131 . S
C2404 C377 1.115 . S
C2421 C361 1.560 . S
C2440 C10 1.564 . S
C2457 C23 1.567 . S
C2476 C374 1.561 . S
C2493 C387 1.562 . S
C2512 C36 1.553 . S
C2529 C49 1.561 . S
C2548 C166 1.556 . S
C2565 C179 1.564 . S
C2584 C62 1.547 . S
C2601 C192 1.561 . S
C2620 C75 1.567 . S
C2637 C88 1.567 . S
C2656 C283 1.550 . S
C2673 C296 1.567 . S
C2692 C101 1.549 . S
C2709 C114 1.567 . S
C2728 C309 1.547 . S
C2745 C127 1.560 . S
C2764 C400 1.571 . S
C2781 C140 1.564 . S
C2800 C413 1.548 . S
C2817 C426 1.564 . S
C2836 C153 1.550 . S
C2853 C205 1.567 . S
C2872 C322 1.557 . S
C2889 C218 1.566 . S
C2908 C335 1.565 . S
C2925 C231 1.561 . S
C2944 C348 1.568 . S
C2961 C244 1.564 . S
C2980 C439 1.568 . S
C2997 C257 1.565 . S
C3016 C452 1.546 . S
C3033 C465 1.563 . S
C3052 C270 1.552 . S
