# Generated by pormake.
# Topology ukk, (4)-cn, num edge types: 1
# Building blocks:
#     Node 0, Type 0, BuildingBlock: ICAMEG_clean_sbu_1, # of connection points: 4
#     Node 1, Type 0, BuildingBlock: ICAMEG_clean_sbu_1, # of connection points: 4
#     Node 2, Type 0, BuildingBlock: ICAMEG_clean_sbu_1, # of connection points: 4
#     Node 3, Type 0, BuildingBlock: ICAMEG_clean_sbu_1, # of connection points: 4
#     Node 4, Type 0, BuildingBlock: ICAMEG_clean_sbu_1, # of connection points: 4
#     Node 5, Type 0, BuildingBlock: ICAMEG_clean_sbu_1, # of connection points: 4
#     Node 6, Type 0, BuildingBlock: ICAMEG_clean_sbu_1, # of connection points: 4
#     Node 7, Type 0, BuildingBlock: ICAMEG_clean_sbu_1, # of connection points: 4
#     Node 8, Type 0, BuildingBlock: ICAMEG_clean_sbu_1, # of connection points: 4
#     Node 9, Type 0, BuildingBlock: ICAMEG_clean_sbu_1, # of connection points: 4
#     Node 10, Type 0, BuildingBlock: ICAMEG_clean_sbu_1, # of connection points: 4
#     Node 11, Type 0, BuildingBlock: ICAMEG_clean_sbu_1, # of connection points: 4
#     Node 12, Type 0, BuildingBlock: ICAMEG_clean_sbu_1, # of connection points: 4
#     Node 13, Type 0, BuildingBlock: ICAMEG_clean_sbu_1, # of connection points: 4
#     Node 14, Type 0, BuildingBlock: ICAMEG_clean_sbu_1, # of connection points: 4
#     Node 15, Type 0, BuildingBlock: ICAMEG_clean_sbu_1, # of connection points: 4
#     Edge 16, Type (0, 0), BuildingBlock: MIFKUJ_clean_linker_0, # of connection points: 2
#     Edge 17, Type (0, 0), BuildingBlock: MIFKUJ_clean_linker_0, # of connection points: 2
#     Edge 18, Type (0, 0), BuildingBlock: MIFKUJ_clean_linker_0, # of connection points: 2
#     Edge 19, Type (0, 0), BuildingBlock: MIFKUJ_clean_linker_0, # of connection points: 2
#     Edge 20, Type (0, 0), BuildingBlock: MIFKUJ_clean_linker_0, # of connection points: 2
#     Edge 21, Type (0, 0), BuildingBlock: MIFKUJ_clean_linker_0, # of connection points: 2
#     Edge 22, Type (0, 0), BuildingBlock: MIFKUJ_clean_linker_0, # of connection points: 2
#     Edge 23, Type (0, 0), BuildingBlock: MIFKUJ_clean_linker_0, # of connection points: 2
#     Edge 24, Type (0, 0), BuildingBlock: MIFKUJ_clean_linker_0, # of connection points: 2
#     Edge 25, Type (0, 0), BuildingBlock: MIFKUJ_clean_linker_0, # of connection points: 2
#     Edge 26, Type (0, 0), BuildingBlock: MIFKUJ_clean_linker_0, # of connection points: 2
#     Edge 27, Type (0, 0), BuildingBlock: MIFKUJ_clean_linker_0, # of connection points: 2
#     Edge 28, Type (0, 0), BuildingBlock: MIFKUJ_clean_linker_0, # of connection points: 2
#     Edge 29, Type (0, 0), BuildingBlock: MIFKUJ_clean_linker_0, # of connection points: 2
#     Edge 30, Type (0, 0), BuildingBlock: MIFKUJ_clean_linker_0, # of connection points: 2
#     Edge 31, Type (0, 0), BuildingBlock: MIFKUJ_clean_linker_0, # of connection points: 2
#     Edge 32, Type (0, 0), BuildingBlock: MIFKUJ_clean_linker_0, # of connection points: 2
#     Edge 33, Type (0, 0), BuildingBlock: MIFKUJ_clean_linker_0, # of connection points: 2
#     Edge 34, Type (0, 0), BuildingBlock: MIFKUJ_clean_linker_0, # of connection points: 2
#     Edge 35, Type (0, 0), BuildingBlock: MIFKUJ_clean_linker_0, # of connection points: 2
#     Edge 36, Type (0, 0), BuildingBlock: MIFKUJ_clean_linker_0, # of connection points: 2
#     Edge 37, Type (0, 0), BuildingBlock: MIFKUJ_clean_linker_0, # of connection points: 2
#     Edge 38, Type (0, 0), BuildingBlock: MIFKUJ_clean_linker_0, # of connection points: 2
#     Edge 39, Type (0, 0), BuildingBlock: MIFKUJ_clean_linker_0, # of connection points: 2
#     Edge 40, Type (0, 0), BuildingBlock: MIFKUJ_clean_linker_0, # of connection points: 2
#     Edge 41, Type (0, 0), BuildingBlock: MIFKUJ_clean_linker_0, # of connection points: 2
#     Edge 42, Type (0, 0), BuildingBlock: MIFKUJ_clean_linker_0, # of connection points: 2
#     Edge 43, Type (0, 0), BuildingBlock: MIFKUJ_clean_linker_0, # of connection points: 2
#     Edge 44, Type (0, 0), BuildingBlock: MIFKUJ_clean_linker_0, # of connection points: 2
#     Edge 45, Type (0, 0), BuildingBlock: MIFKUJ_clean_linker_0, # of connection points: 2
#     Edge 46, Type (0, 0), BuildingBlock: MIFKUJ_clean_linker_0, # of connection points: 2
#     Edge 47, Type (0, 0), BuildingBlock: MIFKUJ_clean_linker_0, # of connection points: 2
# Relax obj value: 0.061
# Max RMSD: 0.229
# Mean RMSD: 0.225
data_MOF--net-ukk--node1-ICAMEG_clean_sbu_1--edge1-MIFKUJ_clean_linker_0
_symmetry_space_group_name_H-M    P1
_symmetry_Int_Tables_number       1
_symmetry_cell_setting            triclinic
loop_
_symmetry_equiv_pos_as_xyz
'x, y, z'
_cell_length_a     75.801577
_cell_length_b     74.708176
_cell_length_c     20.742658
_cell_angle_alpha  90.000623
_cell_angle_beta   89.984623
_cell_angle_gamma 90.014417
loop_
_atom_site_label
_atom_site_type_symbol
_atom_site_fract_x
_atom_site_fract_y
_atom_site_fract_z
_atom_type_partial_charge
Co0 Co 0.37556 0.10717 0.14849 0.0
Co1 Co 0.37844 0.11337 0.9836 0.0
O2 O 0.36917 0.10139 0.05993 0.0
C3 C 0.38547 0.06949 0.13034 0.0
O4 O 0.39255 0.07463 0.07567 0.0
C5 C 0.34035 0.11976 0.98204 0.0
O6 O 0.34218 0.12349 0.04344 0.0
O7 O 0.3756 0.13731 0.02371 0.0
O8 O 0.37327 0.13341 0.13086 0.0
H9 H 0.41665 0.15694 0.86288 0.0
H10 H 0.34667 0.08133 0.12289 0.0
O11 O 0.37808 0.08093 0.16711 0.0
H12 H 0.31927 0.1304 0.2464 0.0
H13 H 0.37448 0.09776 0.3887 0.0
H14 H 0.39852 0.13423 0.21099 0.0
H15 H 0.35107 0.131 0.22122 0.0
H16 H 0.36635 0.0913 0.27588 0.0
O17 O 0.35377 0.11522 0.94866 0.0
H18 H 0.40515 0.14162 0.95946 0.0
H19 H 0.37052 0.11068 0.8433 0.0
H20 H 0.40691 0.14124 0.3231 0.0
H21 H 0.31486 0.08012 0.14748 0.0
H22 H 0.39485 0.12293 0.41287 0.0
H23 H 0.30094 0.10482 0.20941 0.0
O24 O 0.40098 0.1084 0.12581 0.0
H25 H 0.35902 0.05142 0.92157 0.0
H26 H 0.40779 0.09509 0.91431 0.0
H27 H 0.41197 0.0651 0.86688 0.0
H28 H 0.38747 0.04303 0.87036 0.0
H29 H 0.35546 0.08151 0.96878 0.0
H30 H 0.38153 0.12579 0.74541 0.0
H31 H 0.40481 0.14905 0.75487 0.0
O32 O 0.40302 0.11206 0.01834 0.0
C33 C 0.3738 0.14335 0.08081 0.0
C34 C 0.40655 0.14678 0.85809 0.0
C35 C 0.38682 0.12931 0.79218 0.0
N36 N 0.38731 0.12515 0.90689 0.0
C37 C 0.40003 0.13801 0.91258 0.0
C38 C 0.38062 0.12082 0.84775 0.0
C39 C 0.39989 0.14236 0.79752 0.0
C40 C 0.34076 0.09202 0.15052 0.0
N41 N 0.35074 0.10616 0.17095 0.0
C42 C 0.32272 0.0913 0.16403 0.0
C43 C 0.31491 0.10518 0.19871 0.0
C44 C 0.32519 0.11954 0.21945 0.0
C45 C 0.34318 0.11982 0.20498 0.0
C46 C 0.37979 0.10586 0.35001 0.0
C47 C 0.39313 0.12628 0.24985 0.0
C48 C 0.37526 0.10225 0.28606 0.0
N49 N 0.38184 0.11248 0.23703 0.0
C50 C 0.39797 0.13028 0.3132 0.0
C51 C 0.39122 0.11999 0.36354 0.0
C52 C 0.40993 0.11049 0.07422 0.0
C53 C 0.36978 0.06094 0.91958 0.0
C54 C 0.39708 0.08555 0.91599 0.0
C55 C 0.39951 0.0686 0.889 0.0
C56 C 0.38575 0.05623 0.89094 0.0
N57 N 0.38136 0.09006 0.94393 0.0
C58 C 0.36781 0.07802 0.94598 0.0
Co59 Co 0.11844 0.63898 0.82152 0.0
Co60 Co 0.0968 0.63243 0.96617 0.0
O61 O 0.11402 0.64464 0.91181 0.0
C62 C 0.1526 0.63515 0.88525 0.0
O63 O 0.14407 0.62648 0.93057 0.0
C64 C 0.0871 0.67043 0.97196 0.0
O65 O 0.08783 0.67029 0.90874 0.0
O66 O 0.07827 0.63501 0.89946 0.0
O67 O 0.09265 0.63614 0.80467 0.0
H68 H 0.04832 0.58861 0.01533 0.0
H69 H 0.13369 0.67191 0.87849 0.0
O70 O 0.14433 0.64145 0.83691 0.0
H71 H 0.09577 0.69265 0.70039 0.0
H72 H 0.14965 0.64598 0.60877 0.0
H73 H 0.10444 0.61224 0.72913 0.0
H74 H 0.09906 0.6604 0.723 0.0
H75 H 0.14298 0.65347 0.72207 0.0
O76 O 0.09002 0.65613 0.00366 0.0
H77 H 0.07047 0.60353 0.94675 0.0
H78 H 0.08592 0.63663 0.10334 0.0
H79 H 0.11059 0.60439 0.61582 0.0
H80 H 0.13087 0.70428 0.85731 0.0
H81 H 0.13337 0.62129 0.55491 0.0
H82 H 0.11175 0.71483 0.76785 0.0
O83 O 0.12028 0.61307 0.84143 0.0
H84 H 0.14655 0.65368 0.10684 0.0
H85 H 0.10987 0.60189 0.04537 0.0
H86 H 0.13352 0.598 0.1258 0.0
H87 H 0.15205 0.62401 0.15703 0.0
H88 H 0.12287 0.65694 0.02618 0.0
H89 H 0.06385 0.62215 0.17356 0.0
H90 H 0.0449 0.59791 0.12964 0.0
O91 O 0.10319 0.60862 0.92891 0.0
C92 C 0.07853 0.63525 0.838 0.0
C93 C 0.05654 0.5991 0.03511 0.0
C94 C 0.06524 0.61795 0.12388 0.0
N95 N 0.07959 0.6208 0.02122 0.0
C96 C 0.06915 0.60756 0.99657 0.0
C97 C 0.0777 0.62611 0.08389 0.0
C98 C 0.05462 0.60434 0.09922 0.0
C99 C 0.1255 0.6764 0.83905 0.0
N100 N 0.11662 0.66429 0.80184 0.0
C101 C 0.12389 0.69474 0.82746 0.0
C102 C 0.11313 0.70065 0.77731 0.0
C103 C 0.10416 0.68821 0.73947 0.0
C104 C 0.10605 0.66998 0.75256 0.0
C105 C 0.13967 0.63854 0.63476 0.0
C106 C 0.11426 0.61976 0.70275 0.0
C107 C 0.13585 0.64271 0.69891 0.0
N108 N 0.12322 0.6334 0.73193 0.0
C109 C 0.11773 0.61521 0.63868 0.0
C110 C 0.13052 0.62469 0.60456 0.0
C111 C 0.11282 0.60298 0.88276 0.0
C112 C 0.13853 0.64225 0.09379 0.0
C113 C 0.11789 0.61327 0.05864 0.0
C114 C 0.13124 0.61099 0.10431 0.0
C115 C 0.14162 0.6256 0.12185 0.0
N116 N 0.11494 0.62965 0.03134 0.0
C117 C 0.12504 0.64404 0.04838 0.0
Co118 Co 0.62554 0.88869 0.17343 0.0
Co119 Co 0.62153 0.88488 0.008 0.0
O120 O 0.63146 0.89558 0.08555 0.0
C121 C 0.61538 0.92639 0.16318 0.0
O122 O 0.60731 0.92173 0.10985 0.0
C123 C 0.65957 0.87828 0.00222 0.0
O124 O 0.65811 0.87369 0.06299 0.0
O125 O 0.62413 0.86032 0.04352 0.0
O126 O 0.62727 0.86272 0.15102 0.0
H127 H 0.58169 0.84385 0.883 0.0
H128 H 0.65466 0.91442 0.14977 0.0
O129 O 0.62359 0.9147 0.19641 0.0
H130 H 0.68204 0.8634 0.2626 0.0
H131 H 0.62825 0.89493 0.41479 0.0
H132 H 0.60261 0.86114 0.23329 0.0
H133 H 0.65009 0.86359 0.23993 0.0
H134 H 0.63574 0.90277 0.30249 0.0
O135 O 0.64596 0.88315 0.97061 0.0
H136 H 0.59411 0.85756 0.98115 0.0
H137 H 0.62862 0.88941 0.8677 0.0
H138 H 0.59484 0.85277 0.3448 0.0
H139 H 0.68663 0.91485 0.17191 0.0
H140 H 0.60771 0.86972 0.43647 0.0
H141 H 0.70053 0.88917 0.22847 0.0
O142 O 0.59994 0.88812 0.15285 0.0
H143 H 0.64145 0.94757 0.95874 0.0
H144 H 0.59216 0.90465 0.94427 0.0
H145 H 0.5881 0.9355 0.90452 0.0
H146 H 0.61285 0.95721 0.91182 0.0
H147 H 0.64491 0.91661 0.99813 0.0
H148 H 0.61669 0.87592 0.76819 0.0
H149 H 0.59301 0.85302 0.77551 0.0
O150 O 0.59721 0.88619 0.04501 0.0
C151 C 0.62615 0.85348 0.09939 0.0
C152 C 0.59197 0.85386 0.87914 0.0
C153 C 0.61163 0.87185 0.81473 0.0
N154 N 0.61196 0.87438 0.93005 0.0
C155 C 0.59901 0.86171 0.93454 0.0
C156 C 0.61836 0.87941 0.87119 0.0
C157 C 0.59834 0.859 0.81887 0.0
C158 C 0.66058 0.90329 0.17506 0.0
N159 N 0.65051 0.88904 0.19385 0.0
C160 C 0.6787 0.90357 0.1872 0.0
C161 C 0.68649 0.88915 0.21886 0.0
C162 C 0.67613 0.87468 0.23798 0.0
C163 C 0.65806 0.87484 0.22493 0.0
C164 C 0.62259 0.88742 0.37526 0.0
C165 C 0.60835 0.8685 0.27296 0.0
C166 C 0.62676 0.89181 0.3116 0.0
N167 N 0.61974 0.88231 0.26149 0.0
C168 C 0.60386 0.86374 0.33598 0.0
C169 C 0.61107 0.87327 0.38739 0.0
C170 C 0.59065 0.88706 0.10165 0.0
C171 C 0.63059 0.93822 0.95513 0.0
C172 C 0.60301 0.914 0.94738 0.0
C173 C 0.60063 0.93145 0.92479 0.0
C174 C 0.61453 0.94363 0.92888 0.0
N175 N 0.6188 0.90881 0.9731 0.0
C176 C 0.6325 0.92065 0.97707 0.0
Co177 Co 0.873 0.35431 0.79651 0.0
Co178 Co 0.89276 0.36543 0.9415 0.0
O179 O 0.87686 0.35105 0.88889 0.0
C180 C 0.83886 0.36014 0.85844 0.0
O181 O 0.84777 0.36915 0.90178 0.0
C182 C 0.90551 0.32844 0.95577 0.0
O183 O 0.90441 0.3271 0.89281 0.0
O184 O 0.91169 0.36351 0.87585 0.0
O185 O 0.89901 0.35615 0.78131 0.0
H186 H 0.93673 0.41442 0.98286 0.0
H187 H 0.85661 0.32359 0.86434 0.0
O188 O 0.84681 0.35297 0.81084 0.0
H189 H 0.89531 0.29692 0.69913 0.0
H190 H 0.84309 0.34133 0.58507 0.0
H191 H 0.8883 0.37765 0.69517 0.0
H192 H 0.89259 0.32971 0.70893 0.0
H193 H 0.84864 0.33752 0.7015 0.0
O194 O 0.90155 0.34308 0.9837 0.0
H195 H 0.91632 0.39637 0.91693 0.0
H196 H 0.90364 0.3643 0.07954 0.0
H197 H 0.88329 0.3818 0.57862 0.0
H198 H 0.85887 0.29072 0.85606 0.0
H199 H 0.86054 0.36355 0.52281 0.0
H200 H 0.87838 0.27719 0.77309 0.0
O201 O 0.87166 0.38077 0.80553 0.0
H202 H 0.84481 0.34151 0.08501 0.0
H203 H 0.87672 0.39568 0.01497 0.0
H204 H 0.85254 0.3984 0.09402 0.0
H205 H 0.83642 0.37118 0.12957 0.0
H206 H 0.86887 0.33944 0.00533 0.0
H207 H 0.92404 0.3819 0.14717 0.0
H208 H 0.9407 0.40721 0.09888 0.0
O209 O 0.88433 0.38792 0.9 0.0
C210 C 0.91246 0.36004 0.81568 0.0
C211 C 0.9295 0.40346 0.00452 0.0
C212 C 0.9224 0.3852 0.09671 0.0
N213 N 0.90868 0.37941 0.99453 0.0
C214 C 0.91789 0.39323 0.96748 0.0
C215 C 0.91089 0.37526 0.05818 0.0
C216 C 0.93174 0.3994 0.06959 0.0
C217 C 0.86498 0.31779 0.82768 0.0
N218 N 0.87436 0.32854 0.78688 0.0
C219 C 0.86627 0.29918 0.8234 0.0
C220 C 0.87724 0.29159 0.7769 0.0
C221 C 0.88675 0.30265 0.7354 0.0
C222 C 0.88516 0.32121 0.7412 0.0
C223 C 0.85307 0.34933 0.60881 0.0
C224 C 0.87847 0.36957 0.67111 0.0
C225 C 0.85625 0.34725 0.67471 0.0
N226 N 0.86889 0.35724 0.70489 0.0
C227 C 0.87565 0.37202 0.60516 0.0
C228 C 0.86286 0.36179 0.5739 0.0
C229 C 0.87664 0.39216 0.84752 0.0
C230 C 0.85177 0.35347 0.07002 0.0
C231 C 0.86973 0.38378 0.03009 0.0
C232 C 0.85608 0.3854 0.07497 0.0
C233 C 0.84705 0.37012 0.09493 0.0
N234 N 0.87426 0.36741 0.00578 0.0
C235 C 0.86547 0.35237 0.02518 0.0
Co236 Co 0.36622 0.36803 0.03768 0.0
Co237 Co 0.36686 0.36539 0.20396 0.0
O238 O 0.35973 0.37646 0.12319 0.0
C239 C 0.37998 0.40456 0.04773 0.0
O240 O 0.38652 0.39945 0.10332 0.0
C241 C 0.32829 0.36439 0.20243 0.0
O242 O 0.32991 0.35841 0.14328 0.0
O243 O 0.36124 0.34114 0.17083 0.0
O244 O 0.36117 0.34265 0.06244 0.0
H245 H 0.39782 0.3201 0.34265 0.0
H246 H 0.34 0.39726 0.05186 0.0
O247 O 0.37158 0.39342 0.01266 0.0
H248 H 0.30867 0.34868 0.93872 0.0
H249 H 0.36822 0.37225 0.7957 0.0
H250 H 0.38675 0.33743 0.98598 0.0
H251 H 0.34 0.34531 0.96866 0.0
H252 H 0.35983 0.38195 0.90523 0.0
O253 O 0.342 0.36783 0.23584 0.0
H254 H 0.38926 0.33445 0.24026 0.0
H255 H 0.35855 0.37274 0.34179 0.0
H256 H 0.39531 0.32716 0.87736 0.0
H257 H 0.30873 0.40124 0.02245 0.0
H258 H 0.38603 0.34463 0.78127 0.0
H259 H 0.29283 0.37681 0.96568 0.0
O260 O 0.39113 0.36463 0.06419 0.0
H261 H 0.35555 0.43084 0.24157 0.0
H262 H 0.39783 0.38136 0.27144 0.0
H263 H 0.40572 0.4117 0.30849 0.0
H264 H 0.3845 0.4367 0.29356 0.0
H265 H 0.34824 0.40032 0.20497 0.0
H266 H 0.36672 0.35876 0.4454 0.0
H267 H 0.38654 0.33229 0.44621 0.0
O268 O 0.39165 0.36259 0.17244 0.0
C269 C 0.35974 0.33398 0.11529 0.0
C270 C 0.38924 0.33169 0.34297 0.0
C271 C 0.37176 0.35337 0.40061 0.0
N272 N 0.37356 0.35452 0.28517 0.0
C273 C 0.38439 0.3399 0.28515 0.0
C274 C 0.36716 0.36121 0.34184 0.0
C275 C 0.38289 0.33851 0.40104 0.0
C276 C 0.33323 0.38665 0.02649 0.0
N277 N 0.34184 0.37112 0.01158 0.0
C278 C 0.3155 0.38895 0.01024 0.0
C279 C 0.30659 0.37522 0.97847 0.0
C280 C 0.31546 0.35943 0.96336 0.0
C281 C 0.33319 0.35759 0.98048 0.0
C282 C 0.37231 0.3645 0.83718 0.0
C283 C 0.38255 0.34502 0.94436 0.0
C284 C 0.36762 0.36994 0.89928 0.0
N285 N 0.37266 0.36016 0.95182 0.0
C286 C 0.38749 0.33918 0.883 0.0
C287 C 0.3823 0.349 0.82912 0.0
C288 C 0.39923 0.36232 0.11745 0.0
C289 C 0.36487 0.42004 0.24863 0.0
C290 C 0.38851 0.39216 0.26494 0.0
C291 C 0.39305 0.40931 0.28604 0.0
C292 C 0.38113 0.42333 0.27768 0.0
N293 N 0.37254 0.38905 0.23648 0.0
C294 C 0.36078 0.40272 0.22826 0.0
Co295 Co 0.37466 0.6298 0.98384 0.0
Co296 Co 0.39517 0.62242 0.83719 0.0
O297 O 0.37834 0.63479 0.89245 0.0
C298 C 0.34051 0.62377 0.92163 0.0
O299 O 0.34927 0.61517 0.87673 0.0
C300 C 0.40494 0.66054 0.83077 0.0
O301 O 0.40364 0.66077 0.89386 0.0
O302 O 0.41402 0.6245 0.90345 0.0
O303 O 0.40057 0.62869 0.99898 0.0
H304 H 0.44173 0.57675 0.78589 0.0
H305 H 0.3571 0.66107 0.92339 0.0
O306 O 0.34859 0.63056 0.96958 0.0
H307 H 0.39492 0.68615 0.09444 0.0
H308 H 0.3442 0.63797 0.19739 0.0
H309 H 0.39085 0.60545 0.08013 0.0
H310 H 0.3934 0.65353 0.07698 0.0
H311 H 0.34963 0.64394 0.08209 0.0
O312 O 0.40246 0.64601 0.79984 0.0
H313 H 0.42034 0.59248 0.85527 0.0
H314 H 0.40631 0.62674 0.70012 0.0
H315 H 0.38597 0.59916 0.19551 0.0
H316 H 0.35812 0.69377 0.93956 0.0
H317 H 0.3625 0.61548 0.25492 0.0
H318 H 0.37719 0.70651 0.02542 0.0
O319 O 0.37439 0.60352 0.96858 0.0
H320 H 0.34529 0.64517 0.70031 0.0
H321 H 0.38168 0.59263 0.75514 0.0
H322 H 0.35779 0.58956 0.67517 0.0
H323 H 0.33941 0.61597 0.64728 0.0
H324 H 0.36921 0.6476 0.78042 0.0
H325 H 0.42775 0.61154 0.62926 0.0
H326 H 0.44556 0.58629 0.672 0.0
O327 O 0.38803 0.59878 0.87367 0.0
C328 C 0.41434 0.62651 0.96455 0.0
C329 C 0.43402 0.5877 0.76664 0.0
C330 C 0.42618 0.60725 0.67876 0.0
N331 N 0.41198 0.6104 0.78158 0.0
C332 C 0.42184 0.59662 0.80563 0.0
C333 C 0.4141 0.61584 0.71915 0.0
C334 C 0.43617 0.59307 0.70277 0.0
C335 C 0.36527 0.6665 0.96136 0.0
N336 N 0.37508 0.6554 0.99946 0.0
C337 C 0.36585 0.68503 0.97008 0.0
C338 C 0.37658 0.69217 0.01821 0.0
C339 C 0.38654 0.68076 0.05693 0.0
C340 C 0.38564 0.6623 0.04676 0.0
C341 C 0.35449 0.63079 0.17207 0.0
C342 C 0.38068 0.61267 0.10576 0.0
C343 C 0.35759 0.63408 0.10676 0.0
N344 N 0.37062 0.62513 0.07458 0.0
C345 C 0.37794 0.60902 0.17103 0.0
C346 C 0.36476 0.61817 0.20432 0.0
C347 C 0.38023 0.59323 0.9244 0.0
C348 C 0.35324 0.63358 0.71195 0.0
C349 C 0.3737 0.60416 0.74341 0.0
C350 C 0.36022 0.60235 0.69797 0.0
C351 C 0.34993 0.61718 0.68229 0.0
N352 N 0.37686 0.62028 0.77234 0.0
C353 C 0.36685 0.63489 0.75709 0.0
Co354 Co 0.6235 0.62736 0.06489 0.0
Co355 Co 0.62565 0.63162 0.23061 0.0
O356 O 0.63143 0.61972 0.14974 0.0
C357 C 0.60884 0.59134 0.08316 0.0
O358 O 0.60427 0.59679 0.1409 0.0
C359 C 0.66406 0.63354 0.2182 0.0
O360 O 0.66123 0.63798 0.15793 0.0
O361 O 0.62984 0.65566 0.19251 0.0
O362 O 0.6297 0.65275 0.08452 0.0
H363 H 0.59603 0.67738 0.37138 0.0
H364 H 0.6491 0.59752 0.07642 0.0
O365 O 0.61681 0.60196 0.04477 0.0
H366 H 0.67944 0.64384 0.94832 0.0
H367 H 0.6165 0.62061 0.82489 0.0
H368 H 0.60283 0.65802 0.01431 0.0
H369 H 0.64888 0.64849 0.9858 0.0
H370 H 0.62685 0.61187 0.93319 0.0
O371 O 0.65111 0.63044 0.25583 0.0
H372 H 0.60294 0.66217 0.26884 0.0
H373 H 0.63715 0.62624 0.36647 0.0
H374 H 0.59234 0.66734 0.90689 0.0
H375 H 0.67962 0.59227 0.03966 0.0
H376 H 0.59916 0.64857 0.81124 0.0
H377 H 0.69501 0.61557 0.97532 0.0
O378 O 0.59934 0.63177 0.09732 0.0
H379 H 0.63984 0.5671 0.27515 0.0
H380 H 0.59677 0.61563 0.30943 0.0
H381 H 0.59068 0.58558 0.35343 0.0
H382 H 0.6123 0.56106 0.33631 0.0
H383 H 0.64534 0.59731 0.23158 0.0
H384 H 0.63072 0.64114 0.47003 0.0
H385 H 0.60997 0.66686 0.47291 0.0
O386 O 0.60022 0.63319 0.2057 0.0
C387 C 0.63118 0.66211 0.13576 0.0
C388 C 0.60504 0.66614 0.37078 0.0
C389 C 0.62453 0.64582 0.42614 0.0
N390 N 0.6203 0.64324 0.31184 0.0
C391 C 0.60895 0.65744 0.31291 0.0
C392 C 0.62814 0.63746 0.36737 0.0
C393 C 0.61288 0.66025 0.42772 0.0
C394 C 0.65564 0.60763 0.04783 0.0
N395 N 0.64719 0.62324 0.03288 0.0
C396 C 0.67295 0.60462 0.0274 0.0
C397 C 0.68159 0.61771 0.99138 0.0
C398 C 0.67286 0.63358 0.97624 0.0
C399 C 0.65557 0.63614 0.99762 0.0
C400 C 0.61348 0.62893 0.86617 0.0
C401 C 0.60597 0.64986 0.97284 0.0
C402 C 0.61929 0.62403 0.92759 0.0
N403 N 0.61559 0.63452 0.97986 0.0
C404 C 0.59994 0.65517 0.91217 0.0
C405 C 0.60376 0.64462 0.85854 0.0
C406 C 0.59196 0.63374 0.15212 0.0
C407 C 0.63034 0.57768 0.28308 0.0
C408 C 0.60624 0.60503 0.30181 0.0
C409 C 0.60273 0.58805 0.3269 0.0
C410 C 0.61488 0.5743 0.31732 0.0
N411 N 0.62143 0.60824 0.26823 0.0
C412 C 0.63342 0.59484 0.25877 0.0
Co413 Co 0.61956 0.36791 0.99763 0.0
Co414 Co 0.60066 0.37399 0.84764 0.0
O415 O 0.61837 0.36393 0.90488 0.0
C416 C 0.65288 0.38124 0.94468 0.0
O417 O 0.6432 0.3898 0.90231 0.0
C418 C 0.59731 0.335 0.83127 0.0
O419 O 0.5974 0.33379 0.89439 0.0
O420 O 0.58143 0.36723 0.9081 0.0
O421 O 0.59364 0.36386 0.00632 0.0
H422 H 0.54707 0.41038 0.79192 0.0
H423 H 0.64342 0.34154 0.93547 0.0
O424 O 0.64555 0.37209 0.98912 0.0
H425 H 0.60861 0.30695 0.09305 0.0
H426 H 0.64763 0.36187 0.21633 0.0
H427 H 0.59768 0.38707 0.09408 0.0
H428 H 0.6042 0.33951 0.08163 0.0
H429 H 0.64521 0.35703 0.09898 0.0
O430 O 0.59843 0.35024 0.80404 0.0
H431 H 0.56987 0.39802 0.86414 0.0
H432 H 0.59334 0.3704 0.70706 0.0
H433 H 0.5995 0.39212 0.21142 0.0
H434 H 0.64834 0.30904 0.94566 0.0
H435 H 0.62462 0.37948 0.27334 0.0
H436 H 0.63082 0.29151 0.02477 0.0
O437 O 0.61521 0.39403 0.98752 0.0
H438 H 0.65631 0.36323 0.72186 0.0
H439 H 0.61012 0.40724 0.7757 0.0
H440 H 0.6346 0.41608 0.70408 0.0
H441 H 0.65791 0.39398 0.67671 0.0
H442 H 0.63168 0.35502 0.7937 0.0
H443 H 0.57071 0.38235 0.63319 0.0
H444 H 0.5474 0.40255 0.67553 0.0
O445 O 0.60257 0.39782 0.89036 0.0
C446 C 0.58038 0.36394 0.9684 0.0
C447 C 0.55719 0.40165 0.77285 0.0
C448 C 0.57045 0.38589 0.68378 0.0
N449 N 0.583 0.38365 0.7897 0.0
C450 C 0.57017 0.39466 0.81346 0.0
C451 C 0.5832 0.37915 0.72584 0.0
C452 C 0.55738 0.39723 0.70756 0.0
C453 C 0.63587 0.33404 0.97049 0.0
N454 N 0.62362 0.34244 0.00823 0.0
C455 C 0.63866 0.31563 0.97584 0.0
C456 C 0.62881 0.30579 0.02017 0.0
C457 C 0.61634 0.31445 0.05847 0.0
C458 C 0.61389 0.33288 0.05174 0.0
C459 C 0.63661 0.36743 0.18991 0.0
C460 C 0.60859 0.38143 0.12078 0.0
C461 C 0.63519 0.36476 0.12346 0.0
N462 N 0.62125 0.37165 0.08988 0.0
C463 C 0.60958 0.38438 0.18717 0.0
C464 C 0.62369 0.3773 0.22186 0.0
C465 C 0.60822 0.40383 0.94408 0.0
C466 C 0.6462 0.37296 0.73323 0.0
C467 C 0.62023 0.39757 0.76412 0.0
C468 C 0.63404 0.40264 0.72341 0.0
C469 C 0.64711 0.39023 0.70802 0.0
N470 N 0.61944 0.38062 0.78872 0.0
C471 C 0.63218 0.36837 0.77371 0.0
Co472 Co 0.868 0.61495 0.66852 0.0
Co473 Co 0.87471 0.6189 0.50425 0.0
O474 O 0.86351 0.60814 0.57947 0.0
C475 C 0.87734 0.57689 0.66089 0.0
O476 O 0.88613 0.58109 0.60852 0.0
C477 C 0.83704 0.62566 0.49089 0.0
O478 O 0.83776 0.63054 0.55155 0.0
O479 O 0.87154 0.64346 0.53912 0.0
O480 O 0.86714 0.64094 0.64593 0.0
H481 H 0.91624 0.66016 0.38771 0.0
H482 H 0.8389 0.58974 0.63862 0.0
O483 O 0.86912 0.58896 0.69222 0.0
H484 H 0.81055 0.64135 0.74462 0.0
H485 H 0.86109 0.60893 0.90884 0.0
H486 H 0.89048 0.64201 0.73332 0.0
H487 H 0.84281 0.64058 0.72915 0.0
H488 H 0.85532 0.6012 0.79512 0.0
O489 O 0.851 0.62059 0.46189 0.0
H490 H 0.90241 0.64635 0.48319 0.0
H491 H 0.86992 0.61431 0.36274 0.0
H492 H 0.89654 0.65027 0.84632 0.0
H493 H 0.80661 0.58989 0.65358 0.0
H494 H 0.88178 0.63367 0.935 0.0
H495 H 0.79223 0.61587 0.70666 0.0
O496 O 0.89383 0.615 0.65343 0.0
H497 H 0.85562 0.55638 0.44833 0.0
H498 H 0.90514 0.59921 0.4473 0.0
H499 H 0.90982 0.5685 0.40703 0.0
H500 H 0.88494 0.54686 0.4074 0.0
H501 H 0.85155 0.58718 0.48852 0.0
H502 H 0.88332 0.62786 0.26587 0.0
H503 H 0.9067 0.65091 0.27808 0.0
O504 O 0.89834 0.61761 0.5465 0.0
C505 C 0.86892 0.65024 0.59471 0.0
C506 C 0.90612 0.65008 0.38176 0.0
C507 C 0.88762 0.63196 0.31338 0.0
N508 N 0.8855 0.62942 0.42847 0.0
C509 C 0.89828 0.64217 0.43563 0.0
C510 C 0.88007 0.62436 0.36836 0.0
C511 C 0.90074 0.6449 0.32027 0.0
C512 C 0.83275 0.60099 0.66246 0.0
N513 N 0.84273 0.61508 0.68336 0.0
C514 C 0.81446 0.60104 0.67051 0.0
C515 C 0.8064 0.61564 0.70022 0.0
C516 C 0.81667 0.62994 0.72149 0.0
C517 C 0.83492 0.62944 0.71254 0.0
C518 C 0.86756 0.61629 0.87063 0.0
C519 C 0.88392 0.63481 0.77165 0.0
C520 C 0.86437 0.61196 0.80617 0.0
N521 N 0.87243 0.62126 0.75769 0.0
C522 C 0.88744 0.63951 0.83554 0.0
C523 C 0.87917 0.63018 0.88527 0.0
C524 C 0.90393 0.61632 0.60439 0.0
C525 C 0.86654 0.56571 0.44772 0.0
C526 C 0.89425 0.58986 0.44757 0.0
C527 C 0.89698 0.5725 0.42465 0.0
C528 C 0.88301 0.56037 0.42485 0.0
N529 N 0.87806 0.59501 0.46984 0.0
C530 C 0.86429 0.58319 0.47015 0.0
Co531 Co 0.62307 0.15178 0.25538 0.0
Co532 Co 0.60026 0.14223 0.39542 0.0
O533 O 0.6189 0.15436 0.34775 0.0
C534 C 0.65596 0.14129 0.31829 0.0
O535 O 0.64593 0.13188 0.35713 0.0
C536 C 0.59497 0.1805 0.4205 0.0
O537 O 0.5961 0.18274 0.35787 0.0
O538 O 0.5825 0.14946 0.33054 0.0
O539 O 0.59714 0.15274 0.23689 0.0
H540 H 0.54717 0.10255 0.42076 0.0
H541 H 0.64189 0.17997 0.32881 0.0
O542 O 0.64907 0.15037 0.27276 0.0
H543 H 0.60748 0.21212 0.16362 0.0
H544 H 0.65594 0.16377 0.04904 0.0
H545 H 0.60654 0.13104 0.14944 0.0
H546 H 0.60676 0.17914 0.16939 0.0
H547 H 0.64975 0.16697 0.1653 0.0
O548 O 0.5959 0.16484 0.44455 0.0
H549 H 0.57111 0.11752 0.36085 0.0
H550 H 0.58912 0.14219 0.5332 0.0
H551 H 0.61215 0.12757 0.03294 0.0
H552 H 0.64308 0.21295 0.32457 0.0
H553 H 0.637 0.14401 0.98202 0.0
H554 H 0.62574 0.22924 0.24164 0.0
O555 O 0.62167 0.12531 0.26131 0.0
H556 H 0.65134 0.15193 0.54593 0.0
H557 H 0.60949 0.10761 0.45846 0.0
H558 H 0.63223 0.0979 0.5359 0.0
H559 H 0.65335 0.12015 0.58026 0.0
H560 H 0.62855 0.16103 0.46766 0.0
H561 H 0.56527 0.1276 0.59486 0.0
H562 H 0.54414 0.10756 0.53857 0.0
O563 O 0.60435 0.11952 0.34689 0.0
C564 C 0.58291 0.15211 0.26982 0.0
C565 C 0.55634 0.1112 0.44582 0.0
C566 C 0.56649 0.12528 0.54355 0.0
N567 N 0.58161 0.13056 0.44366 0.0
C568 C 0.56996 0.11966 0.41223 0.0
C569 C 0.57995 0.13352 0.50839 0.0
C570 C 0.55464 0.11403 0.51194 0.0
C571 C 0.63446 0.18696 0.29216 0.0
N572 N 0.62435 0.17765 0.24916 0.0
C573 C 0.63512 0.20564 0.29017 0.0
C574 C 0.62537 0.21477 0.24369 0.0
C575 C 0.61511 0.20517 0.19993 0.0
C576 C 0.61474 0.1865 0.20347 0.0
C577 C 0.64504 0.15657 0.07064 0.0
C578 C 0.6173 0.13834 0.1275 0.0
C579 C 0.64149 0.15831 0.13642 0.0
N580 N 0.62769 0.14934 0.1639 0.0
C581 C 0.62045 0.13627 0.06158 0.0
C582 C 0.63441 0.14549 0.03306 0.0
C583 C 0.6132 0.11457 0.2977 0.0
C584 C 0.64217 0.14213 0.52714 0.0
C585 C 0.61865 0.11737 0.47744 0.0
C586 C 0.63147 0.1118 0.5214 0.0
C587 C 0.64331 0.12429 0.54629 0.0
N588 N 0.61764 0.13489 0.45879 0.0
C589 C 0.62918 0.14722 0.48307 0.0
Co590 Co 0.12666 0.38273 0.67509 0.0
Co591 Co 0.11999 0.38101 0.5104 0.0
O592 O 0.13077 0.39107 0.58758 0.0
C593 C 0.11615 0.42061 0.67699 0.0
O594 O 0.10639 0.41706 0.62633 0.0
C595 C 0.158 0.3764 0.49519 0.0
O596 O 0.15764 0.37044 0.55463 0.0
O597 O 0.12435 0.35609 0.53987 0.0
O598 O 0.12812 0.35717 0.6473 0.0
H599 H 0.08015 0.33995 0.38535 0.0
H600 H 0.15514 0.40906 0.6495 0.0
O601 O 0.12511 0.40827 0.70388 0.0
H602 H 0.18483 0.35668 0.74508 0.0
H603 H 0.13379 0.38527 0.91614 0.0
H604 H 0.10502 0.3541 0.73485 0.0
H605 H 0.15255 0.35688 0.73025 0.0
H606 H 0.1392 0.39485 0.80401 0.0
O607 O 0.14374 0.38119 0.46752 0.0
H608 H 0.09347 0.35274 0.48359 0.0
H609 H 0.12449 0.3881 0.37014 0.0
H610 H 0.09934 0.34399 0.84616 0.0
H611 H 0.18743 0.4095 0.66406 0.0
H612 H 0.11379 0.35962 0.93773 0.0
H613 H 0.20249 0.38313 0.71189 0.0
O614 O 0.10076 0.38216 0.6605 0.0
H615 H 0.13602 0.44516 0.4669 0.0
H616 H 0.08856 0.40005 0.45823 0.0
H617 H 0.08238 0.43105 0.42402 0.0
H618 H 0.10622 0.45383 0.42817 0.0
H619 H 0.14159 0.41404 0.50109 0.0
H620 H 0.11162 0.37558 0.27057 0.0
H621 H 0.08923 0.35137 0.27788 0.0
O622 O 0.09637 0.3804 0.55325 0.0
C623 C 0.12692 0.34859 0.59427 0.0
C624 C 0.08985 0.35053 0.38155 0.0
C625 C 0.10753 0.37052 0.31713 0.0
N626 N 0.10961 0.37125 0.43256 0.0
C627 C 0.09739 0.35787 0.43701 0.0
C628 C 0.11479 0.37753 0.37363 0.0
C629 C 0.09496 0.35694 0.32126 0.0
C630 C 0.16157 0.39763 0.67107 0.0
N631 N 0.15195 0.38301 0.68934 0.0
C632 C 0.17987 0.39792 0.67892 0.0
C633 C 0.18831 0.38311 0.70567 0.0
C634 C 0.17841 0.36826 0.72426 0.0
C635 C 0.16014 0.36843 0.71563 0.0
C636 C 0.12745 0.37833 0.87664 0.0
C637 C 0.11145 0.36089 0.77443 0.0
C638 C 0.13044 0.38371 0.81308 0.0
N639 N 0.12255 0.37494 0.76297 0.0
C640 C 0.10814 0.35514 0.83736 0.0
C641 C 0.11623 0.36393 0.88872 0.0
C642 C 0.09072 0.38079 0.61128 0.0
C643 C 0.12554 0.43533 0.46467 0.0
C644 C 0.099 0.4099 0.46022 0.0
C645 C 0.09543 0.42742 0.44071 0.0
C646 C 0.10881 0.4402 0.44303 0.0
N647 N 0.11545 0.40523 0.48123 0.0
C648 C 0.12864 0.41768 0.48371 0.0
Co649 Co 0.37784 0.84571 0.27763 0.0
Co650 Co 0.39892 0.85779 0.41865 0.0
O651 O 0.38109 0.84468 0.37061 0.0
C652 C 0.34396 0.85686 0.33274 0.0
O653 O 0.35327 0.86746 0.36996 0.0
C654 C 0.40601 0.82007 0.44704 0.0
O655 O 0.40565 0.81769 0.38438 0.0
O656 O 0.41755 0.85076 0.35654 0.0
O657 O 0.40389 0.84476 0.26268 0.0
H658 H 0.45058 0.89928 0.44703 0.0
H659 H 0.35865 0.8186 0.35507 0.0
O660 O 0.35167 0.84697 0.29134 0.0
H661 H 0.39506 0.78407 0.2023 0.0
H662 H 0.34727 0.82985 0.07003 0.0
H663 H 0.39512 0.865 0.16971 0.0
H664 H 0.39518 0.81709 0.19985 0.0
H665 H 0.35231 0.82864 0.18749 0.0
O666 O 0.40363 0.83565 0.47056 0.0
H667 H 0.42767 0.8832 0.38532 0.0
H668 H 0.4086 0.85927 0.55753 0.0
H669 H 0.39064 0.8665 0.05204 0.0
H670 H 0.35809 0.78561 0.35904 0.0
H671 H 0.36657 0.84883 0.00147 0.0
H672 H 0.37646 0.76812 0.28251 0.0
O673 O 0.37909 0.87233 0.27809 0.0
H674 H 0.34671 0.84741 0.56328 0.0
H675 H 0.38792 0.89251 0.47683 0.0
H676 H 0.36413 0.90198 0.55049 0.0
H677 H 0.34332 0.87934 0.59421 0.0
H678 H 0.3706 0.83855 0.4891 0.0
H679 H 0.43135 0.87503 0.6209 0.0
H680 H 0.45249 0.89526 0.56552 0.0
O681 O 0.39457 0.87991 0.36665 0.0
C682 C 0.41778 0.84675 0.29676 0.0
C683 C 0.44138 0.89057 0.47159 0.0
C684 C 0.43061 0.87694 0.56924 0.0
N685 N 0.4167 0.87047 0.46793 0.0
C686 C 0.42835 0.88148 0.43701 0.0
C687 C 0.41777 0.86804 0.53312 0.0
C688 C 0.44246 0.88829 0.53815 0.0
C689 C 0.36652 0.81108 0.32106 0.0
N690 N 0.37685 0.81976 0.27699 0.0
C691 C 0.36621 0.7924 0.32376 0.0
C692 C 0.37654 0.7826 0.28085 0.0
C693 C 0.38699 0.79154 0.23587 0.0
C694 C 0.387 0.81024 0.23471 0.0
C695 C 0.35783 0.83757 0.09148 0.0
C696 C 0.3847 0.85717 0.14797 0.0
C697 C 0.36073 0.83695 0.15794 0.0
N698 N 0.37411 0.84659 0.18525 0.0
C699 C 0.38219 0.85812 0.08136 0.0
C700 C 0.36867 0.84822 0.05303 0.0
C701 C 0.3867 0.88386 0.31408 0.0
C702 C 0.35573 0.85739 0.54471 0.0
C703 C 0.37892 0.88259 0.49567 0.0
C704 C 0.36549 0.88802 0.53742 0.0
C705 C 0.35382 0.87531 0.56197 0.0
N706 N 0.38071 0.86498 0.47901 0.0
C707 C 0.36933 0.85244 0.50294 0.0
Co708 Co 0.8713 0.87773 0.57851 0.0
Co709 Co 0.87201 0.87283 0.74423 0.0
O710 O 0.86303 0.88348 0.66489 0.0
C711 C 0.87747 0.91618 0.59457 0.0
O712 O 0.88375 0.91205 0.65157 0.0
C713 C 0.83421 0.86447 0.74028 0.0
O714 O 0.83702 0.85925 0.68077 0.0
O715 O 0.87107 0.8484 0.70664 0.0
O716 O 0.87122 0.85157 0.5988 0.0
H717 H 0.91061 0.83268 0.8778 0.0
H718 H 0.83976 0.9007 0.59539 0.0
O719 O 0.87175 0.90393 0.55724 0.0
H720 H 0.81914 0.84826 0.47224 0.0
H721 H 0.8736 0.88508 0.33743 0.0
H722 H 0.89791 0.85278 0.52473 0.0
H723 H 0.85041 0.85105 0.50361 0.0
H724 H 0.86274 0.89145 0.44728 0.0
O725 O 0.84702 0.87006 0.77473 0.0
H726 H 0.89975 0.84637 0.77711 0.0
H727 H 0.86196 0.87649 0.88238 0.0
H728 H 0.9091 0.84595 0.41582 0.0
H729 H 0.80839 0.89851 0.56472 0.0
H730 H 0.89691 0.86215 0.32122 0.0
H731 H 0.7979 0.8721 0.5029 0.0
O732 O 0.89618 0.8793 0.6065 0.0
H733 H 0.84822 0.93402 0.79502 0.0
H734 H 0.89927 0.89351 0.81628 0.0
H735 H 0.90103 0.9241 0.8607 0.0
H736 H 0.87538 0.94457 0.85019 0.0
H737 H 0.84708 0.9034 0.75084 0.0
H738 H 0.87231 0.86302 0.98421 0.0
H739 H 0.89686 0.841 0.98231 0.0
O740 O 0.89705 0.87532 0.71399 0.0
C741 C 0.87117 0.84196 0.64969 0.0
C742 C 0.89996 0.84231 0.87929 0.0
C743 C 0.87844 0.85932 0.939 0.0
N744 N 0.88037 0.86234 0.82401 0.0
C745 C 0.8938 0.85015 0.82246 0.0
C746 C 0.87262 0.86688 0.88121 0.0
C747 C 0.89222 0.84697 0.9379 0.0
C748 C 0.83533 0.88928 0.56784 0.0
N749 N 0.84692 0.87609 0.55092 0.0
C750 C 0.81754 0.88807 0.55086 0.0
C751 C 0.81165 0.87323 0.51627 0.0
C752 C 0.82356 0.85985 0.49908 0.0
C753 C 0.84125 0.86149 0.517 0.0
C754 C 0.87897 0.87789 0.37825 0.0
C755 C 0.89245 0.85979 0.48375 0.0
C756 C 0.87288 0.88145 0.44052 0.0
N757 N 0.87955 0.87236 0.4922 0.0
C758 C 0.89888 0.8559 0.42222 0.0
C759 C 0.89205 0.86502 0.36918 0.0
C760 C 0.90453 0.87787 0.65955 0.0
C761 C 0.85947 0.9252 0.80007 0.0
C762 C 0.88806 0.90235 0.81148 0.0
C763 C 0.88912 0.91965 0.83681 0.0
C764 C 0.87472 0.93112 0.83094 0.0
N765 N 0.87305 0.89664 0.78131 0.0
C766 C 0.85887 0.90782 0.77542 0.0
Co767 Co 0.87544 0.1403 0.49112 0.0
Co768 Co 0.89874 0.1317 0.35108 0.0
O769 O 0.88045 0.14404 0.39985 0.0
C770 C 0.84273 0.1314 0.42275 0.0
O771 O 0.85272 0.12261 0.38198 0.0
C772 C 0.90726 0.16996 0.33987 0.0
O773 O 0.90504 0.17086 0.40253 0.0
O774 O 0.91631 0.13572 0.42087 0.0
O775 O 0.90112 0.1409 0.51224 0.0
H776 H 0.94825 0.08788 0.31938 0.0
H777 H 0.85748 0.16952 0.42 0.0
O778 O 0.84959 0.13939 0.4709 0.0
H779 H 0.89069 0.19935 0.5939 0.0
H780 H 0.84096 0.15002 0.69549 0.0
H781 H 0.89105 0.11831 0.5956 0.0
H782 H 0.89119 0.16647 0.58316 0.0
H783 H 0.8481 0.15456 0.58056 0.0
O784 O 0.90561 0.15504 0.31077 0.0
H785 H 0.92494 0.10342 0.38065 0.0
H786 H 0.91192 0.13452 0.216 0.0
H787 H 0.88448 0.11348 0.71078 0.0
H788 H 0.85652 0.20242 0.42923 0.0
H789 H 0.85927 0.12941 0.76145 0.0
H790 H 0.87326 0.21755 0.51655 0.0
O791 O 0.8767 0.11387 0.48138 0.0
H792 H 0.85027 0.14988 0.19935 0.0
H793 H 0.88801 0.1001 0.27239 0.0
H794 H 0.86563 0.09465 0.18833 0.0
H795 H 0.84657 0.11966 0.15129 0.0
H796 H 0.87272 0.15469 0.28367 0.0
H797 H 0.93524 0.11947 0.15312 0.0
H798 H 0.95353 0.09591 0.20475 0.0
O799 O 0.89203 0.10828 0.39063 0.0
C800 C 0.91554 0.13891 0.48127 0.0
C801 C 0.94034 0.09809 0.29628 0.0
C802 C 0.93304 0.11584 0.20299 0.0
N803 N 0.91699 0.11974 0.30175 0.0
C804 C 0.92708 0.10689 0.33066 0.0
C805 C 0.91989 0.12434 0.23887 0.0
C806 C 0.9433 0.10261 0.23199 0.0
C807 C 0.86464 0.17599 0.45855 0.0
N808 N 0.87429 0.16608 0.50124 0.0
C809 C 0.86411 0.19463 0.46336 0.0
C810 C 0.87353 0.20312 0.51231 0.0
C811 C 0.88332 0.19291 0.55571 0.0
C812 C 0.88357 0.1743 0.54935 0.0
C813 C 0.852 0.14303 0.674 0.0
C814 C 0.88013 0.12537 0.61743 0.0
C815 C 0.85608 0.14552 0.60895 0.0
N816 N 0.87006 0.13681 0.58161 0.0
C817 C 0.87644 0.12255 0.68261 0.0
C818 C 0.86228 0.13147 0.71099 0.0
C819 C 0.88365 0.10317 0.44075 0.0
C820 C 0.85853 0.13888 0.21498 0.0
C821 C 0.87973 0.11102 0.25665 0.0
C822 C 0.86711 0.10788 0.20892 0.0
C823 C 0.85644 0.12192 0.18811 0.0
N824 N 0.88168 0.12769 0.28285 0.0
C825 C 0.8713 0.14154 0.26253 0.0
Co826 Co 0.12109 0.12121 0.58805 0.0
Co827 Co 0.12563 0.12783 0.75215 0.0
O828 O 0.13118 0.1154 0.67186 0.0
C829 C 0.11311 0.08317 0.60914 0.0
O830 O 0.10866 0.08752 0.66822 0.0
C831 C 0.16389 0.13125 0.73583 0.0
O832 O 0.1604 0.13585 0.67614 0.0
O833 O 0.12877 0.15154 0.71075 0.0
O834 O 0.12356 0.14743 0.60511 0.0
H835 H 0.09605 0.17416 0.89055 0.0
H836 H 0.15117 0.09594 0.59552 0.0
O837 O 0.11832 0.09509 0.5696 0.0
H838 H 0.17199 0.14582 0.45963 0.0
H839 H 0.1121 0.11252 0.34966 0.0
H840 H 0.09511 0.1478 0.54081 0.0
H841 H 0.14173 0.14582 0.50348 0.0
H842 H 0.12513 0.10595 0.45607 0.0
O843 O 0.15135 0.12761 0.77466 0.0
H844 H 0.10258 0.15822 0.78914 0.0
H845 H 0.13828 0.12395 0.88735 0.0
H846 H 0.08188 0.15493 0.43524 0.0
H847 H 0.18146 0.09532 0.55212 0.0
H848 H 0.09036 0.13721 0.33874 0.0
H849 H 0.19207 0.12043 0.48386 0.0
O850 O 0.09701 0.12154 0.62497 0.0
H851 H 0.14257 0.0645 0.80538 0.0
H852 H 0.09775 0.11162 0.83512 0.0
H853 H 0.09317 0.08197 0.88469 0.0
H854 H 0.11569 0.05817 0.86997 0.0
H855 H 0.14655 0.09429 0.75621 0.0
H856 H 0.13225 0.13961 0.98978 0.0
H857 H 0.11095 0.16486 0.99182 0.0
O858 O 0.09987 0.12848 0.73018 0.0
C859 C 0.12691 0.15742 0.65349 0.0
C860 C 0.1053 0.16312 0.89035 0.0
C861 C 0.12564 0.14374 0.94602 0.0
N862 N 0.12062 0.14004 0.83255 0.0
C863 C 0.10899 0.154 0.83313 0.0
C864 C 0.12901 0.13495 0.8879 0.0
C865 C 0.11368 0.15791 0.94713 0.0
C866 C 0.15562 0.10682 0.56526 0.0
N867 N 0.14467 0.12085 0.55176 0.0
C868 C 0.17282 0.10643 0.54108 0.0
C869 C 0.17877 0.12054 0.50286 0.0
C870 C 0.16751 0.1348 0.48928 0.0
C871 C 0.15041 0.13474 0.51435 0.0
C872 C 0.10833 0.12036 0.39132 0.0
C873 C 0.09896 0.14012 0.49893 0.0
C874 C 0.11564 0.11669 0.45169 0.0
N875 N 0.111 0.1266 0.50441 0.0
C876 C 0.09138 0.14418 0.43933 0.0
C877 C 0.09614 0.13422 0.38522 0.0
C878 C 0.09058 0.12526 0.68014 0.0
C879 C 0.1327 0.07478 0.81234 0.0
C880 C 0.10759 0.10132 0.82841 0.0
C881 C 0.10495 0.08457 0.8567 0.0
C882 C 0.1176 0.07123 0.84847 0.0
N883 N 0.12244 0.10471 0.79306 0.0
C884 C 0.13492 0.0917 0.78485 0.0
Co885 Co 0.12183 0.8624 0.46485 0.0
Co886 Co 0.10057 0.87336 0.32288 0.0
O887 O 0.11695 0.85905 0.37351 0.0
C888 C 0.1557 0.86735 0.39908 0.0
O889 O 0.14688 0.87749 0.35874 0.0
C890 C 0.08763 0.83647 0.3139 0.0
O891 O 0.08889 0.8361 0.37697 0.0
O892 O 0.08227 0.87186 0.39129 0.0
O893 O 0.09608 0.86515 0.48422 0.0
H894 H 0.05642 0.92238 0.28478 0.0
H895 H 0.13639 0.83096 0.39588 0.0
O896 O 0.14774 0.85997 0.44631 0.0
H897 H 0.09876 0.80602 0.56779 0.0
H898 H 0.15364 0.84932 0.67247 0.0
H899 H 0.10854 0.88674 0.56677 0.0
H900 H 0.10252 0.83869 0.55664 0.0
H901 H 0.14661 0.84512 0.55725 0.0
O902 O 0.09135 0.85076 0.28318 0.0
H903 H 0.0775 0.9046 0.34885 0.0
H904 H 0.08817 0.87159 0.18678 0.0
H905 H 0.11507 0.89133 0.68206 0.0
H906 H 0.13309 0.79825 0.40556 0.0
H907 H 0.13777 0.87252 0.73568 0.0
H908 H 0.11408 0.78556 0.49174 0.0
O909 O 0.12385 0.88871 0.45392 0.0
H910 H 0.14733 0.84899 0.17521 0.0
H911 H 0.11573 0.90328 0.24557 0.0
H912 H 0.13909 0.90575 0.16325 0.0
H913 H 0.15507 0.87847 0.12757 0.0
H914 H 0.12397 0.84715 0.25771 0.0
H915 H 0.06711 0.88893 0.12103 0.0
H916 H 0.05112 0.91457 0.17 0.0
O917 O 0.1096 0.89595 0.36241 0.0
C918 C 0.08222 0.86895 0.45194 0.0
C919 C 0.06336 0.91128 0.26283 0.0
C920 C 0.06933 0.89249 0.17095 0.0
N921 N 0.08416 0.88719 0.27138 0.0
C922 C 0.07534 0.9012 0.29881 0.0
C923 C 0.08122 0.8827 0.20842 0.0
C924 C 0.06037 0.90688 0.19845 0.0
C925 C 0.12827 0.82554 0.43403 0.0
N926 N 0.11975 0.83671 0.47591 0.0
C927 C 0.12638 0.80701 0.43905 0.0
C928 C 0.1157 0.79991 0.48739 0.0
C929 C 0.10709 0.81138 0.53006 0.0
C930 C 0.10926 0.82986 0.5235 0.0
C931 C 0.14369 0.85756 0.6497 0.0
C932 C 0.11834 0.87842 0.58988 0.0
C933 C 0.13968 0.85526 0.5845 0.0
N934 N 0.12707 0.86556 0.55557 0.0
C935 C 0.12202 0.88112 0.65513 0.0
C936 C 0.13478 0.87058 0.68515 0.0
C937 C 0.11835 0.90012 0.41282 0.0
C938 C 0.14042 0.86096 0.19021 0.0
C939 C 0.12262 0.89135 0.23027 0.0
C940 C 0.13582 0.89283 0.1836 0.0
C941 C 0.14478 0.87751 0.16357 0.0
N942 N 0.11842 0.87507 0.25613 0.0
C943 C 0.12712 0.85999 0.23669 0.0
H944 H 0.36619 0.89929 0.22082 0.0
H945 H 0.36639 0.93049 0.18539 0.0
H946 H 0.40724 0.94249 0.32354 0.0
H947 H 0.40713 0.91135 0.35948 0.0
H948 H 0.35901 0.9606 0.25198 0.0
H949 H 0.43438 0.97401 0.25835 0.0
H950 H 0.46255 0.95879 0.23473 0.0
H951 H 0.43582 0.9224 0.1078 0.0
H952 H 0.4075 0.93738 0.13069 0.0
H953 H 0.37476 0.05429 0.24391 0.0
H954 H 0.37499 0.02252 0.27243 0.0
H955 H 0.39645 0.00964 0.08539 0.0
H956 H 0.39657 0.04135 0.05695 0.0
H957 H 0.41306 0.99141 0.17517 0.0
H958 H 0.35285 0.00281 0.12026 0.0
H959 H 0.32422 0.01839 0.12577 0.0
H960 H 0.31914 0.00402 0.32534 0.0
H961 H 0.34789 0.98858 0.32129 0.0
C962 C 0.37523 0.90855 0.24373 0.0
C963 C 0.38659 0.90282 0.29323 0.0
C964 C 0.3753 0.92638 0.22344 0.0
C965 C 0.3869 0.93876 0.25155 0.0
C966 C 0.3983 0.9331 0.30077 0.0
C967 C 0.39812 0.91531 0.32156 0.0
C968 C 0.38669 0.95774 0.2307 0.0
C969 C 0.37083 0.96735 0.23525 0.0
C970 C 0.40203 0.96645 0.20784 0.0
C971 C 0.41882 0.95674 0.19664 0.0
C972 C 0.43452 0.96272 0.22558 0.0
C973 C 0.45051 0.95416 0.21221 0.0
C974 C 0.45099 0.93973 0.16944 0.0
C975 C 0.43543 0.93364 0.14067 0.0
C976 C 0.41939 0.94207 0.1542 0.0
C977 C 0.37954 0.04469 0.20887 0.0
C978 C 0.38566 0.05033 0.14818 0.0
C979 C 0.3796 0.02654 0.22516 0.0
C980 C 0.38558 0.01369 0.1808 0.0
C981 C 0.39181 0.01932 0.1204 0.0
C982 C 0.39184 0.03746 0.1042 0.0
C983 C 0.38545 0.99437 0.19731 0.0
C984 C 0.40125 0.9847 0.19218 0.0
C985 C 0.36995 0.98551 0.21812 0.0
C986 C 0.35261 0.99469 0.22063 0.0
C987 C 0.34569 0.00309 0.16546 0.0
C988 C 0.32943 0.01188 0.16829 0.0
C989 C 0.31989 0.01224 0.22591 0.0
C990 C 0.32656 0.00376 0.28077 0.0
C991 C 0.34283 0.99497 0.27822 0.0
H992 H 0.3073 0.01905 0.22801 0.0
H993 H 0.46339 0.93317 0.15897 0.0
H994 H 0.0725 0.63778 0.70783 0.0
H995 H 0.04452 0.63314 0.65134 0.0
H996 H 0.01839 0.62404 0.83314 0.0
H997 H 0.0461 0.62865 0.89007 0.0
H998 H 0.01104 0.598 0.74048 0.0
H999 H 0.01367 0.66288 0.75964 0.0
H1000 H 0.0273 0.69245 0.74211 0.0
H1001 H 0.02576 0.68415 0.53733 0.0
H1002 H 0.01233 0.65439 0.55375 0.0
H1003 H 0.92091 0.61141 0.71885 0.0
H1004 H 0.9524 0.61276 0.73952 0.0
H1005 H 0.9623 0.62274 0.53788 0.0
H1006 H 0.93052 0.62161 0.51635 0.0
H1007 H 0.98054 0.64569 0.61681 0.0
H1008 H 0.97303 0.58299 0.59744 0.0
H1009 H 0.95893 0.55366 0.61509 0.0
H1010 H 0.96975 0.55736 0.81782 0.0
H1011 H 0.98366 0.58685 0.80162 0.0
C1012 C 0.06078 0.63492 0.73588 0.0
C1013 C 0.06155 0.63361 0.80355 0.0
C1014 C 0.04483 0.63227 0.70346 0.0
C1015 C 0.02948 0.62822 0.73821 0.0
C1016 C 0.03017 0.62707 0.80558 0.0
C1017 C 0.04601 0.62982 0.83802 0.0
C1018 C 0.01256 0.62504 0.70502 0.0
C1019 C 0.00432 0.6084 0.71349 0.0
C1020 C 0.00421 0.63843 0.66775 0.0
C1021 C 0.01222 0.65633 0.65794 0.0
C1022 C 0.01639 0.66729 0.7109 0.0
C1023 C 0.02405 0.6841 0.70117 0.0
C1024 C 0.02746 0.69015 0.63865 0.0
C1025 C 0.02315 0.67943 0.58573 0.0
C1026 C 0.01551 0.6626 0.59522 0.0
C1027 C 0.92971 0.61379 0.67858 0.0
C1028 C 0.92316 0.61637 0.61586 0.0
C1029 C 0.94775 0.61446 0.69051 0.0
C1030 C 0.95966 0.6176 0.64005 0.0
C1031 C 0.95327 0.6202 0.57732 0.0
C1032 C 0.93514 0.61949 0.56518 0.0
C1033 C 0.97869 0.61887 0.65449 0.0
C1034 C 0.98739 0.6351 0.64239 0.0
C1035 C 0.98751 0.60507 0.68825 0.0
C1036 C 0.97934 0.5872 0.69829 0.0
C1037 C 0.97231 0.57761 0.64586 0.0
C1038 C 0.96436 0.56094 0.65561 0.0
C1039 C 0.96343 0.55366 0.71755 0.0
C1040 C 0.97048 0.56301 0.76986 0.0
C1041 C 0.97843 0.5797 0.7604 0.0
H1042 H 0.95725 0.54076 0.72499 0.0
H1043 H 0.03338 0.70317 0.63121 0.0
H1044 H 0.59339 0.95268 0.12174 0.0
H1045 H 0.59443 0.98441 0.14873 0.0
H1046 H 0.63901 0.97491 0.27354 0.0
H1047 H 0.63762 0.94289 0.24846 0.0
H1048 H 0.61788 0.99845 0.32688 0.0
H1049 H 0.64462 0.99175 0.12116 0.0
H1050 H 0.64689 0.98114 0.0089 0.0
H1051 H 0.60142 0.01227 0.95736 0.0
H1052 H 0.59869 0.02283 0.06962 0.0
H1053 H 0.63736 0.09719 0.22265 0.0
H1054 H 0.6395 0.06504 0.20265 0.0
H1055 H 0.59287 0.05624 0.31784 0.0
H1056 H 0.59094 0.08827 0.33968 0.0
H1057 H 0.61933 0.0418 0.14557 0.0
H1058 H 0.59583 0.0173 0.39803 0.0
H1059 H 0.59666 0.02776 0.51079 0.0
H1060 H 0.64269 0.05926 0.46954 0.0
H1061 H 0.64233 0.04874 0.35689 0.0
C1062 C 0.60336 0.95732 0.15524 0.0
C1063 C 0.61552 0.94536 0.18262 0.0
C1064 C 0.60398 0.97547 0.17043 0.0
C1065 C 0.61704 0.98209 0.21204 0.0
C1066 C 0.62887 0.97009 0.24109 0.0
C1067 C 0.62808 0.95183 0.22665 0.0
C1068 C 0.61852 0.00159 0.22365 0.0
C1069 C 0.61824 0.00794 0.28731 0.0
C1070 C 0.61954 0.01395 0.17198 0.0
C1071 C 0.62138 0.00799 0.10396 0.0
C1072 C 0.63505 0.99627 0.08596 0.0
C1073 C 0.63642 0.99026 0.02234 0.0
C1074 C 0.62429 0.996 0.97606 0.0
C1075 C 0.6108 0.00782 0.99328 0.0
C1076 C 0.60935 0.01384 0.0569 0.0
C1077 C 0.62755 0.08841 0.24367 0.0
C1078 C 0.61408 0.09525 0.28325 0.0
C1079 C 0.62878 0.07005 0.23212 0.0
C1080 C 0.61652 0.05822 0.25958 0.0
C1081 C 0.60273 0.06508 0.29742 0.0
C1082 C 0.60161 0.0834 0.30969 0.0
C1083 C 0.61814 0.03868 0.24876 0.0
C1084 C 0.61905 0.03233 0.18521 0.0
C1085 C 0.61832 0.02635 0.3006 0.0
C1086 C 0.61894 0.03234 0.36883 0.0
C1087 C 0.6062 0.02636 0.41312 0.0
C1088 C 0.60658 0.03232 0.47702 0.0
C1089 C 0.61968 0.04421 0.49727 0.0
C1090 C 0.63251 0.05009 0.45376 0.0
C1091 C 0.63222 0.04413 0.38988 0.0
H1092 H 0.61992 0.04885 0.54669 0.0
H1093 H 0.62536 0.99132 0.92684 0.0
H1094 H 0.06439 0.37621 0.52168 0.0
H1095 H 0.03301 0.37106 0.5425 0.0
H1096 H 0.04229 0.37601 0.74688 0.0
H1097 H 0.07353 0.38099 0.727 0.0
H1098 H 0.02305 0.34644 0.7179 0.0
H1099 H 0.02328 0.40953 0.66171 0.0
H1100 H 0.02919 0.43521 0.59019 0.0
H1101 H 0.99571 0.41232 0.44496 0.0
H1102 H 0.9898 0.38637 0.51536 0.0
H1103 H 0.94429 0.3651 0.87415 0.0
H1104 H 0.97322 0.3666 0.82405 0.0
H1105 H 0.94984 0.35792 0.63712 0.0
H1106 H 0.92051 0.35647 0.68694 0.0
H1107 H 0.97485 0.38558 0.63838 0.0
H1108 H 0.97131 0.32454 0.70166 0.0
H1109 H 0.96503 0.29929 0.77466 0.0
H1110 H 0.00462 0.31811 0.90626 0.0
H1111 H 0.01094 0.34365 0.83456 0.0
C1112 C 0.05974 0.37634 0.57106 0.0
C1113 C 0.07153 0.37899 0.62267 0.0
C1114 C 0.0418 0.37341 0.58279 0.0
C1115 C 0.03536 0.37315 0.64621 0.0
C1116 C 0.04703 0.37607 0.69759 0.0
C1117 C 0.0649 0.37899 0.68602 0.0
C1118 C 0.01656 0.36946 0.66007 0.0
C1119 C 0.01251 0.35503 0.70072 0.0
C1120 C 0.00279 0.38028 0.63558 0.0
C1121 C 0.00628 0.39591 0.59345 0.0
C1122 C 0.01731 0.4099 0.6143 0.0
C1123 C 0.02063 0.42452 0.57402 0.0
C1124 C 0.01288 0.42537 0.51298 0.0
C1125 C 0.00174 0.41163 0.49219 0.0
C1126 C -0.00161 0.39696 0.53227 0.0
C1127 C 0.94519 0.36344 0.82237 0.0
C1128 C 0.93003 0.36057 0.78464 0.0
C1129 C 0.96178 0.36426 0.79385 0.0
C1130 C 0.96366 0.36215 0.72705 0.0
C1131 C 0.94862 0.35949 0.68884 0.0
C1132 C 0.93191 0.3586 0.71745 0.0
C1133 C 0.98147 0.36297 0.69811 0.0
C1134 C 0.98534 0.37678 0.65451 0.0
C1135 C 0.99512 0.35157 0.7198 0.0
C1136 C 0.99154 0.33608 0.7628 0.0
C1137 C 0.9786 0.32336 0.74635 0.0
C1138 C 0.97504 0.30899 0.78749 0.0
C1139 C 0.98441 0.30711 0.8451 0.0
C1140 C 0.99738 0.31958 0.86161 0.0
C1141 C 0.00098 0.334 0.82068 0.0
H1142 H 0.98162 0.29598 0.87691 0.0
H1143 H 0.01547 0.4367 0.48186 0.0
H1144 H 0.38876 0.43277 0.12427 0.0
H1145 H 0.38827 0.46451 0.09634 0.0
H1146 H 0.37308 0.45132 0.90176 0.0
H1147 H 0.37326 0.41937 0.92948 0.0
H1148 H 0.40149 0.47916 0.91949 0.0
H1149 H 0.34215 0.46358 0.98633 0.0
H1150 H 0.32085 0.44985 0.06142 0.0
H1151 H 0.33803 0.48523 0.212 0.0
H1152 H 0.35965 0.49897 0.13805 0.0
H1153 H 0.37928 0.56739 0.83129 0.0
H1154 H 0.37784 0.53503 0.84667 0.0
H1155 H 0.37636 0.54261 0.05294 0.0
H1156 H 0.37688 0.575 0.03765 0.0
H1157 H 0.35565 0.51671 0.02412 0.0
H1158 H 0.4151 0.53166 0.96743 0.0
H1159 H 0.43835 0.54538 0.90053 0.0
H1160 H 0.42391 0.51156 0.74169 0.0
H1161 H 0.40034 0.49785 0.80732 0.0
C1162 C 0.38549 0.43656 0.07531 0.0
C1163 C 0.38099 0.42358 0.02905 0.0
C1164 C 0.3852 0.4547 0.05954 0.0
C1165 C 0.38057 0.46016 0.99717 0.0
C1166 C 0.37669 0.44727 0.95013 0.0
C1167 C 0.37674 0.42908 0.96611 0.0
C1168 C 0.37894 0.47942 0.98248 0.0
C1169 C 0.39132 0.48739 0.94135 0.0
C1170 C 0.36597 0.49008 0.01282 0.0
C1171 C 0.35261 0.4822 0.05678 0.0
C1172 C 0.34146 0.46836 0.03556 0.0
C1173 C 0.32932 0.46058 0.07791 0.0
C1174 C 0.32811 0.46663 0.14149 0.0
C1175 C 0.33899 0.48054 0.16276 0.0
C1176 C 0.35117 0.48834 0.12062 0.0
C1177 C 0.37851 0.56216 0.87987 0.0
C1178 C 0.37833 0.57373 0.93328 0.0
C1179 C 0.37778 0.54365 0.88864 0.0
C1180 C 0.37741 0.53634 0.95103 0.0
C1181 C 0.37669 0.54791 0.00434 0.0
C1182 C 0.37702 0.56643 0.99554 0.0
C1183 C 0.37827 0.51668 0.961 0.0
C1184 C 0.36577 0.50858 0.00155 0.0
C1185 C 0.39139 0.50596 0.93117 0.0
C1186 C 0.40584 0.51385 0.89209 0.0
C1187 C 0.41682 0.52721 0.91813 0.0
C1188 C 0.43006 0.53499 0.88044 0.0
C1189 C 0.43258 0.52938 0.81685 0.0
C1190 C 0.42192 0.51592 0.79092 0.0
C1191 C 0.40862 0.50813 0.82835 0.0
H1192 H 0.44281 0.53544 0.78771 0.0
H1193 H 0.31873 0.46058 0.17424 0.0
H1194 H 0.42084 0.62684 0.09455 0.0
H1195 H 0.4495 0.62629 0.14828 0.0
H1196 H 0.47554 0.62523 0.9633 0.0
H1197 H 0.44703 0.62535 0.90913 0.0
H1198 H 0.4909 0.60245 0.04455 0.0
H1199 H 0.47053 0.66414 0.0506 0.0
H1200 H 0.44949 0.68808 0.07884 0.0
H1201 H 0.45475 0.67499 0.27951 0.0
H1202 H 0.47564 0.65079 0.2523 0.0
H1203 H 0.57104 0.64302 0.05146 0.0
H1204 H 0.53909 0.64131 0.04571 0.0
H1205 H 0.5367 0.62674 0.24663 0.0
H1206 H 0.56904 0.62839 0.25325 0.0
H1207 H 0.50825 0.65343 0.1846 0.0
H1208 H 0.53336 0.594 0.17343 0.0
H1209 H 0.557 0.57361 0.13744 0.0
H1210 H 0.54405 0.58458 0.9399 0.0
H1211 H 0.52054 0.60529 0.9747 0.0
C1212 C 0.43266 0.62646 0.06521 0.0
C1213 C 0.43163 0.62625 0.99742 0.0
C1214 C 0.44902 0.62614 0.09609 0.0
C1215 C 0.46462 0.62584 0.05977 0.0
C1216 C 0.46363 0.62538 0.99224 0.0
C1217 C 0.44731 0.62557 0.96133 0.0
C1218 C 0.4821 0.62665 0.09131 0.0
C1219 C 0.49461 0.61349 0.07569 0.0
C1220 C 0.48686 0.64088 0.13302 0.0
C1221 C 0.47445 0.65553 0.14938 0.0
C1222 C 0.46709 0.66629 0.1007 0.0
C1223 C 0.45521 0.67991 0.11651 0.0
C1224 C 0.45074 0.68302 0.18091 0.0
C1225 C 0.45819 0.67254 0.22964 0.0
C1226 C 0.47005 0.65888 0.21406 0.0
C1227 C 0.5638 0.6397 0.09487 0.0
C1228 C 0.57259 0.63547 0.15252 0.0
C1229 C 0.54553 0.63885 0.09151 0.0
C1230 C 0.5357 0.63373 0.14555 0.0
C1231 C 0.5442 0.63073 0.20456 0.0
C1232 C 0.56262 0.63161 0.20809 0.0
C1233 C 0.51692 0.62949 0.13652 0.0
C1234 C 0.50424 0.642 0.15582 0.0
C1235 C 0.512 0.61473 0.09789 0.0
C1236 C 0.52522 0.60126 0.07672 0.0
C1237 C 0.53556 0.59207 0.12231 0.0
C1238 C 0.54898 0.5805 0.10214 0.0
C1239 C 0.5521 0.57789 0.03644 0.0
C1240 C 0.54165 0.58666 0.99079 0.0
C1241 C 0.52825 0.59828 0.01072 0.0
H1242 H 0.56255 0.56901 0.02091 0.0
H1243 H 0.44154 0.69357 0.19306 0.0
H1244 H 0.6027 0.43049 0.856 0.0
H1245 H 0.60055 0.46263 0.8764 0.0
H1246 H 0.60759 0.45335 0.07991 0.0
H1247 H 0.61008 0.42115 0.06007 0.0
H1248 H 0.57881 0.47801 0.04299 0.0
H1249 H 0.64106 0.46684 0.00774 0.0
H1250 H 0.6663 0.455 0.94607 0.0
H1251 H 0.65259 0.48853 0.78557 0.0
H1252 H 0.62707 0.50035 0.846 0.0
H1253 H 0.60078 0.56345 0.16228 0.0
H1254 H 0.59795 0.532 0.13342 0.0
H1255 H 0.60649 0.54523 0.93319 0.0
H1256 H 0.61009 0.57676 0.96234 0.0
H1257 H 0.62584 0.51841 0.96209 0.0
H1258 H 0.56449 0.5305 0.99286 0.0
H1259 H 0.53778 0.54161 0.04783 0.0
H1260 H 0.5482 0.50706 0.2087 0.0
H1261 H 0.57488 0.49559 0.15444 0.0
C1262 C 0.60379 0.43524 0.90513 0.0
C1263 C 0.6067 0.42326 0.95637 0.0
C1264 C 0.60254 0.4536 0.91663 0.0
C1265 C 0.60394 0.46027 0.97957 0.0
C1266 C 0.60645 0.44838 0.03102 0.0
C1267 C 0.60798 0.43003 0.01949 0.0
C1268 C 0.60338 0.47975 0.99142 0.0
C1269 C 0.58914 0.48689 0.02594 0.0
C1270 C 0.61659 0.49126 0.96715 0.0
C1271 C 0.63205 0.48433 0.93112 0.0
C1272 C 0.64333 0.47157 0.9591 0.0
C1273 C 0.65771 0.46488 0.92441 0.0
C1274 C 0.66102 0.47097 0.86187 0.0
C1275 C 0.64999 0.4838 0.83398 0.0
C1276 C 0.63558 0.49051 0.86844 0.0
C1277 C 0.60187 0.55971 0.11198 0.0
C1278 C 0.60574 0.57255 0.06456 0.0
C1279 C 0.60011 0.5417 0.09544 0.0
C1280 C 0.60176 0.53622 0.03095 0.0
C1281 C 0.60517 0.54913 0.98327 0.0
C1282 C 0.60722 0.56713 0.99994 0.0
C1283 C 0.60123 0.5169 0.01421 0.0
C1284 C 0.61534 0.50969 0.97877 0.0
C1285 C 0.58774 0.50538 0.03683 0.0
C1286 C 0.57175 0.51229 0.06979 0.0
C1287 C 0.56114 0.52535 0.04012 0.0
C1288 C 0.54599 0.53168 0.07109 0.0
C1289 C 0.54138 0.52516 0.13191 0.0
C1290 C 0.55182 0.51214 0.16165 0.0
C1291 C 0.5669 0.50565 0.13068 0.0
H1292 H 0.52968 0.53013 0.15586 0.0
H1293 H 0.67215 0.46578 0.83508 0.0
H1294 H 0.42242 0.35832 0.21844 0.0
H1295 H 0.45439 0.35378 0.21192 0.0
H1296 H 0.45144 0.35497 0.00427 0.0
H1297 H 0.41973 0.3593 0.00996 0.0
H1298 H 0.47283 0.32825 0.04684 0.0
H1299 H 0.46316 0.39181 0.0901 0.0
H1300 H 0.452 0.41698 0.15536 0.0
H1301 H 0.48341 0.39962 0.31587 0.0
H1302 H 0.49457 0.37419 0.25173 0.0
H1303 H 0.54937 0.35999 0.90302 0.0
H1304 H 0.52015 0.35483 0.9477 0.0
H1305 H 0.54191 0.3539 0.1398 0.0
H1306 H 0.5714 0.35922 0.09555 0.0
H1307 H 0.51282 0.37538 0.13088 0.0
H1308 H 0.52746 0.31562 0.07682 0.0
H1309 H 0.53886 0.29104 0.0094 0.0
H1310 H 0.49846 0.30101 0.8689 0.0
H1311 H 0.48696 0.32584 0.93493 0.0
C1312 C 0.42858 0.35756 0.17139 0.0
C1313 C 0.4185 0.35933 0.11472 0.0
C1314 C 0.44683 0.35495 0.16782 0.0
C1315 C 0.45525 0.35411 0.10762 0.0
C1316 C 0.44518 0.3555 0.0512 0.0
C1317 C 0.42703 0.35811 0.05464 0.0
C1318 C 0.47464 0.35257 0.10213 0.0
C1319 C 0.48161 0.33851 0.06527 0.0
C1320 C 0.48611 0.36563 0.12822 0.0
C1321 C 0.47952 0.38099 0.16647 0.0
C1322 C 0.46758 0.39329 0.13948 0.0
C1323 C 0.46127 0.40761 0.17622 0.0
C1324 C 0.46694 0.40986 0.2398 0.0
C1325 C 0.47899 0.39783 0.26668 0.0
C1326 C 0.48531 0.38347 0.23016 0.0
C1327 C 0.54805 0.35858 0.95478 0.0
C1328 C 0.56277 0.36004 0.99566 0.0
C1329 C 0.53131 0.35551 0.98021 0.0
C1330 C 0.52892 0.35374 0.04697 0.0
C1331 C 0.54353 0.35512 0.0881 0.0
C1332 C 0.56036 0.35813 0.06265 0.0
C1333 C 0.5109 0.35148 0.07307 0.0
C1334 C 0.50417 0.3648 0.11394 0.0
C1335 C 0.49964 0.33774 0.05058 0.0
C1336 C 0.50638 0.32267 0.01083 0.0
C1337 C 0.52106 0.31265 0.03137 0.0
C1338 C 0.52754 0.29866 0.9934 0.0
C1339 C 0.5194 0.29447 0.93488 0.0
C1340 C 0.50474 0.30425 0.91427 0.0
C1341 C 0.49822 0.31828 0.95202 0.0
H1342 H 0.52444 0.28364 0.90554 0.0
H1343 H 0.46205 0.42096 0.26818 0.0
H1344 H 0.86196 0.40712 0.73953 0.0
H1345 H 0.86048 0.43883 0.71178 0.0
H1346 H 0.88354 0.45252 0.89535 0.0
H1347 H 0.8853 0.42085 0.92347 0.0
H1348 H 0.84509 0.46855 0.76398 0.0
H1349 H 0.91341 0.48579 0.86942 0.0
H1350 H 0.9413 0.47047 0.89629 0.0
H1351 H 0.93137 0.43131 0.74916 0.0
H1352 H 0.90358 0.44655 0.72078 0.0
H1353 H 0.85853 0.5629 0.76163 0.0
H1354 H 0.85727 0.53161 0.79603 0.0
H1355 H 0.89335 0.5171 0.6439 0.0
H1356 H 0.89477 0.54831 0.60929 0.0
H1357 H 0.90206 0.5013 0.75771 0.0
H1358 H 0.85059 0.509 0.62602 0.0
H1359 H 0.82284 0.52341 0.59209 0.0
H1360 H 0.79956 0.51129 0.77572 0.0
H1361 H 0.82728 0.49704 0.81113 0.0
C1362 C 0.86656 0.41685 0.77441 0.0
C1363 C 0.87395 0.41139 0.83347 0.0
C1364 C 0.86562 0.43498 0.7585 0.0
C1365 C 0.87211 0.44796 0.80117 0.0
C1366 C 0.87868 0.44265 0.86142 0.0
C1367 C 0.87965 0.42454 0.87739 0.0
C1368 C 0.87308 0.46691 0.78083 0.0
C1369 C 0.85751 0.47575 0.76291 0.0
C1370 C 0.88936 0.47616 0.77826 0.0
C1371 C 0.90634 0.46722 0.79348 0.0
C1372 C 0.91724 0.47397 0.84258 0.0
C1373 C 0.93302 0.46529 0.85811 0.0
C1374 C 0.93807 0.44989 0.82461 0.0
C1375 C 0.92741 0.4432 0.77522 0.0
C1376 C 0.91164 0.45185 0.75942 0.0
C1377 C 0.86623 0.55306 0.73558 0.0
C1378 C 0.87673 0.55808 0.68265 0.0
C1379 C 0.86545 0.53519 0.7552 0.0
C1380 C 0.87513 0.52206 0.72221 0.0
C1381 C 0.8858 0.52706 0.67 0.0
C1382 C 0.88654 0.54489 0.65019 0.0
C1383 C 0.87403 0.50304 0.74165 0.0
C1384 C 0.8896 0.49416 0.75931 0.0
C1385 C 0.85779 0.49368 0.74279 0.0
C1386 C 0.84107 0.50212 0.72146 0.0
C1387 C 0.8396 0.50953 0.65936 0.0
C1388 C 0.82387 0.51765 0.63983 0.0
C1389 C 0.80946 0.51831 0.68179 0.0
C1390 C 0.81074 0.5108 0.74331 0.0
C1391 C 0.82645 0.50269 0.76312 0.0
H1392 H 0.7973 0.5246 0.66658 0.0
H1393 H 0.95026 0.44316 0.83684 0.0
H1394 H 0.54998 0.15246 0.32288 0.0
H1395 H 0.52227 0.14614 0.26842 0.0
H1396 H 0.54891 0.14587 0.08482 0.0
H1397 H 0.57699 0.15214 0.13892 0.0
H1398 H 0.51105 0.16191 0.09363 0.0
H1399 H 0.54579 0.10899 0.13421 0.0
H1400 H 0.56511 0.09067 0.20347 0.0
H1401 H 0.52348 0.08554 0.34262 0.0
H1402 H 0.50406 0.10422 0.27499 0.0
H1403 H 0.43436 0.11668 0.97869 0.0
H1404 H 0.46585 0.12284 0.9925 0.0
H1405 H 0.46068 0.11473 0.19758 0.0
H1406 H 0.4295 0.10821 0.18439 0.0
H1407 H 0.49092 0.10104 0.15589 0.0
H1408 H 0.45846 0.15666 0.12897 0.0
H1409 H 0.43888 0.17723 0.06957 0.0
H1410 H 0.4755 0.17842 0.91164 0.0
H1411 H 0.49519 0.15764 0.96983 0.0
C1412 C 0.55 0.15149 0.27077 0.0
C1413 C 0.56581 0.15244 0.23542 0.0
C1414 C 0.5341 0.14792 0.23977 0.0
C1415 C 0.53368 0.14531 0.17293 0.0
C1416 C 0.54907 0.14783 0.13656 0.0
C1417 C 0.56508 0.15136 0.16765 0.0
C1418 C 0.51767 0.13759 0.14358 0.0
C1419 C 0.50678 0.14846 0.10565 0.0
C1420 C 0.51215 0.12012 0.16033 0.0
C1421 C 0.52349 0.1081 0.19963 0.0
C1422 C 0.54078 0.10403 0.17972 0.0
C1423 C 0.55176 0.0936 0.21872 0.0
C1424 C 0.54554 0.08697 0.27745 0.0
C1425 C 0.52829 0.09068 0.29711 0.0
C1426 C 0.51728 0.10119 0.25845 0.0
C1427 C 0.43998 0.11593 0.02662 0.0
C1428 C 0.42932 0.11213 0.08051 0.0
C1429 C 0.45797 0.11951 0.0344 0.0
C1430 C 0.46555 0.11949 0.09618 0.0
C1431 C 0.45513 0.11482 0.14945 0.0
C1432 C 0.43723 0.11118 0.14177 0.0
C1433 C 0.48395 0.12549 0.10693 0.0
C1434 C 0.49534 0.11429 0.14184 0.0
C1435 C 0.48984 0.14271 0.08777 0.0
C1436 C 0.47819 0.15545 0.05337 0.0
C1437 C 0.46228 0.16124 0.08142 0.0
C1438 C 0.45117 0.17293 0.04799 0.0
C1439 C 0.45592 0.17908 0.98678 0.0
C1440 C 0.47183 0.17361 0.959 0.0
C1441 C 0.48297 0.16188 0.99217 0.0
H1442 H 0.44729 0.18812 0.96094 0.0
H1443 H 0.55408 0.07895 0.30769 0.0
H1444 H 0.14303 0.58389 0.86772 0.0
H1445 H 0.14555 0.55187 0.84379 0.0
H1446 H 0.08872 0.54721 0.8474 0.0
H1447 H 0.0864 0.5788 0.87678 0.0
H1448 H 0.10051 0.51884 0.89223 0.0
H1449 H 0.11551 0.55254 0.70228 0.0
H1450 H 0.13205 0.57513 0.64001 0.0
H1451 H 0.18031 0.54669 0.67525 0.0
H1452 H 0.16409 0.52405 0.73851 0.0
H1453 H 0.09211 0.44732 0.66039 0.0
H1454 H 0.09345 0.47784 0.70355 0.0
H1455 H 0.14368 0.46618 0.79143 0.0
H1456 H 0.14223 0.43545 0.75009 0.0
H1457 H 0.13715 0.50153 0.70395 0.0
H1458 H 0.11883 0.46685 0.8928 0.0
H1459 H 0.09967 0.4447 0.94641 0.0
H1460 H 0.05403 0.4761 0.8991 0.0
H1461 H 0.07293 0.4983 0.84428 0.0
C1462 C 0.13117 0.57585 0.8644 0.0
C1463 C 0.11454 0.58362 0.87386 0.0
C1464 C 0.13257 0.55764 0.85012 0.0
C1465 C 0.1173 0.54716 0.84183 0.0
C1466 C 0.10071 0.55493 0.85337 0.0
C1467 C 0.09936 0.57297 0.87002 0.0
C1468 C 0.11846 0.52833 0.81894 0.0
C1469 C 0.10847 0.51517 0.85082 0.0
C1470 C 0.1289 0.52335 0.76501 0.0
C1471 C 0.13861 0.5367 0.72562 0.0
C1472 C 0.12966 0.55114 0.69693 0.0
C1473 C 0.13898 0.56396 0.66151 0.0
C1474 C 0.15723 0.56238 0.65387 0.0
C1475 C 0.16618 0.54792 0.68134 0.0
C1476 C 0.15693 0.53508 0.71693 0.0
C1477 C 0.10343 0.45126 0.68891 0.0
C1478 C 0.11702 0.43903 0.70221 0.0
C1479 C 0.10417 0.46865 0.71343 0.0
C1480 C 0.11865 0.47412 0.75051 0.0
C1481 C 0.13242 0.4621 0.76285 0.0
C1482 C 0.13152 0.44458 0.73951 0.0
C1483 C 0.11919 0.4924 0.77717 0.0
C1484 C 0.1294 0.50536 0.74572 0.0
C1485 C 0.10859 0.49732 0.8302 0.0
C1486 C 0.09727 0.48412 0.8639 0.0
C1487 C 0.1047 0.46894 0.89331 0.0
C1488 C 0.09389 0.4564 0.92403 0.0
C1489 C 0.07564 0.45897 0.92601 0.0
C1490 C 0.06817 0.47412 0.89746 0.0
C1491 C 0.07892 0.48668 0.86662 0.0
H1492 H 0.06729 0.44924 0.9498 0.0
H1493 H 0.16442 0.57233 0.62655 0.0
H1494 H 0.45027 0.84796 0.35316 0.0
H1495 H 0.47821 0.85424 0.30013 0.0
H1496 H 0.45296 0.85089 0.1143 0.0
H1497 H 0.42472 0.84453 0.16691 0.0
H1498 H 0.48996 0.83792 0.12051 0.0
H1499 H 0.45363 0.88776 0.17134 0.0
H1500 H 0.43405 0.90493 0.24305 0.0
H1501 H 0.47745 0.9155 0.37029 0.0
H1502 H 0.49707 0.8973 0.3018 0.0
H1503 H 0.56554 0.88443 0.00651 0.0
H1504 H 0.53382 0.87977 0.02085 0.0
H1505 H 0.54023 0.88323 0.22711 0.0
H1506 H 0.57169 0.88822 0.21355 0.0
H1507 H 0.50933 0.8987 0.18722 0.0
H1508 H 0.54297 0.84381 0.14706 0.0
H1509 H 0.56296 0.82652 0.07701 0.0
H1510 H 0.52412 0.82674 0.92638 0.0
H1511 H 0.50416 0.8447 0.9947 0.0
C1512 C 0.45064 0.8481 0.30095 0.0
C1513 C 0.43514 0.84619 0.26434 0.0
C1514 C 0.46666 0.85163 0.27076 0.0
C1515 C 0.46748 0.85337 0.20355 0.0
C1516 C 0.4525 0.84967 0.16632 0.0
C1517 C 0.43637 0.84613 0.19656 0.0
C1518 C 0.48325 0.86163 0.1742 0.0
C1519 C 0.49406 0.85133 0.1339 0.0
C1520 C 0.48841 0.87921 0.19158 0.0
C1521 C 0.47684 0.89093 0.23155 0.0
C1522 C 0.45899 0.89348 0.2151 0.0
C1523 C 0.44784 0.90333 0.25539 0.0
C1524 C 0.45452 0.91135 0.31102 0.0
C1525 C 0.47231 0.90932 0.327 0.0
C1526 C 0.48343 0.8991 0.28771 0.0
C1527 C 0.56016 0.88451 0.05489 0.0
C1528 C 0.57124 0.8864 0.10894 0.0
C1529 C 0.54202 0.88188 0.06292 0.0
C1530 C 0.53474 0.88091 0.12507 0.0
C1531 C 0.54558 0.88393 0.17873 0.0
C1532 C 0.56363 0.88664 0.17081 0.0
C1533 C 0.51641 0.87474 0.13562 0.0
C1534 C 0.50504 0.88547 0.17246 0.0
C1535 C 0.51069 0.85762 0.1148 0.0
C1536 C 0.52216 0.84576 0.07568 0.0
C1537 C 0.53871 0.8402 0.09895 0.0
C1538 C 0.55006 0.83034 0.05948 0.0
C1539 C 0.54482 0.82555 0.99725 0.0
C1540 C 0.52818 0.83052 0.97452 0.0
C1541 C 0.51687 0.84059 0.01351 0.0
H1542 H 0.55365 0.81794 0.96672 0.0
H1543 H 0.4459 0.91916 0.34171 0.0
H1544 H 0.87974 0.94562 0.67131 0.0
H1545 H 0.87927 0.97702 0.63819 0.0
H1546 H 0.87392 0.96099 0.43943 0.0
H1547 H 0.87414 0.92942 0.47222 0.0
H1548 H 0.90099 0.98791 0.46661 0.0
H1549 H 0.8394 0.97593 0.50402 0.0
H1550 H 0.81414 0.96485 0.56739 0.0
H1551 H 0.82591 0.00255 0.7176 0.0
H1552 H 0.85143 0.01367 0.65554 0.0
H1553 H 0.88632 0.07596 0.35302 0.0
H1554 H 0.88355 0.04389 0.37308 0.0
H1555 H 0.8749 0.05435 0.57532 0.0
H1556 H 0.87682 0.08646 0.55503 0.0
H1557 H 0.85382 0.0293 0.53945 0.0
H1558 H 0.91576 0.04014 0.51167 0.0
H1559 H 0.94224 0.05127 0.45532 0.0
H1560 H 0.93169 0.01598 0.29654 0.0
H1561 H 0.90499 0.00483 0.35154 0.0
C1562 C 0.87846 0.94876 0.62052 0.0
C1563 C 0.87698 0.93509 0.57428 0.0
C1564 C 0.87814 0.96668 0.60177 0.0
C1565 C 0.8765 0.97124 0.53648 0.0
C1566 C 0.87518 0.95766 0.49005 0.0
C1567 C 0.87523 0.93969 0.50887 0.0
C1568 C 0.8763 0.99026 0.51712 0.0
C1569 C 0.89055 0.99696 0.48144 0.0
C1570 C 0.86291 0.00203 0.53832 0.0
C1571 C 0.84742 0.99553 0.57534 0.0
C1572 C 0.83669 0.98176 0.55078 0.0
C1573 C 0.82231 0.97549 0.58643 0.0
C1574 C 0.81844 0.98296 0.64655 0.0
C1575 C 0.82893 0.99676 0.67104 0.0
C1576 C 0.84334 0.00307 0.63561 0.0
C1577 C 0.88378 0.07144 0.40172 0.0
C1578 C 0.88186 0.08375 0.45248 0.0
C1579 C 0.88228 0.05308 0.4132 0.0
C1580 C 0.87932 0.04666 0.47593 0.0
C1581 C 0.87717 0.05896 0.5265 0.0
C1582 C 0.87833 0.07732 0.51486 0.0
C1583 C 0.87865 0.02715 0.48925 0.0
C1584 C 0.86423 0.02031 0.52397 0.0
C1585 C 0.89208 0.01531 0.46817 0.0
C1586 C 0.90828 0.02179 0.43543 0.0
C1587 C 0.91903 0.03483 0.46456 0.0
C1588 C 0.93408 0.04114 0.43288 0.0
C1589 C 0.93862 0.03437 0.37231 0.0
C1590 C 0.92815 0.02123 0.34341 0.0
C1591 C 0.91306 0.0149 0.37483 0.0
H1592 H 0.95026 0.03928 0.34783 0.0
H1593 H 0.80731 0.97808 0.67409 0.0
H1594 H 0.92024 0.13987 0.61236 0.0
H1595 H 0.9482 0.14078 0.67128 0.0
H1596 H 0.97666 0.14198 0.49127 0.0
H1597 H 0.94892 0.14102 0.43195 0.0
H1598 H 0.97529 0.11593 0.66567 0.0
H1599 H 0.0129 0.16824 0.5097 0.0
H1600 H 0.00641 0.19575 0.44854 0.0
H1601 H 0.96121 0.20563 0.56814 0.0
H1602 H 0.96759 0.17835 0.63077 0.0
H1603 H 0.0665 0.1054 0.61525 0.0
H1604 H 0.03461 0.10999 0.61109 0.0
H1605 H 0.0391 0.15313 0.74827 0.0
H1606 H 0.07115 0.14828 0.75398 0.0
H1607 H 0.0217 0.16154 0.62664 0.0
H1608 H 0.01804 0.12056 0.80052 0.0
H1609 H 0.0246 0.09302 0.86139 0.0
H1610 H 0.00172 0.0613 0.71041 0.0
H1611 H 0.99527 0.08863 0.64809 0.0
C1612 C 0.93244 0.14047 0.58525 0.0
C1613 C 0.93233 0.14032 0.51735 0.0
C1614 C 0.94838 0.14096 0.61906 0.0
C1615 C 0.96444 0.14161 0.58561 0.0
C1616 C 0.96437 0.14173 0.51798 0.0
C1617 C 0.94849 0.14108 0.48415 0.0
C1618 C 0.98143 0.14116 0.62065 0.0
C1619 C 0.98538 0.126 0.6579 0.0
C1620 C 0.99443 0.15451 0.61141 0.0
C1621 C 0.99068 0.17116 0.57474 0.0
C1622 C 0.00164 0.17633 0.52328 0.0
C1623 C -0.00203 0.19189 0.48828 0.0
C1624 C 0.98338 0.20241 0.50435 0.0
C1625 C 0.97247 0.19744 0.55562 0.0
C1626 C 0.9761 0.18192 0.59085 0.0
C1627 C 0.06065 0.11563 0.64549 0.0
C1628 C 0.07124 0.12652 0.68481 0.0
C1629 C 0.04246 0.11819 0.64325 0.0
C1630 C 0.03457 0.13186 0.67949 0.0
C1631 C 0.04501 0.14246 0.72028 0.0
C1632 C 0.06324 0.13963 0.72364 0.0
C1633 C 0.01573 0.13595 0.66908 0.0
C1634 C 0.01146 0.15173 0.63597 0.0
C1635 C 0.00244 0.1232 0.6822 0.0
C1636 C 0.00624 0.10668 0.71947 0.0
C1637 C 0.01453 0.10771 0.78003 0.0
C1638 C 0.01821 0.09213 0.81485 0.0
C1639 C 0.0136 0.07542 0.78975 0.0
C1640 C 0.00528 0.07426 0.7298 0.0
C1641 C 0.00158 0.0898 0.69475 0.0
H1642 H 0.01645 0.06338 0.81679 0.0
H1643 H 0.98054 0.21443 0.47712 0.0
H1644 H 0.13594 0.9146 0.51543 0.0
H1645 H 0.138 0.94614 0.54453 0.0
H1646 H 0.1105 0.96065 0.37028 0.0
H1647 H 0.10839 0.92908 0.34017 0.0
H1648 H 0.13929 0.98474 0.40945 0.0
H1649 H 0.08719 0.95452 0.49564 0.0
H1650 H 0.07494 0.92866 0.55431 0.0
H1651 H 0.10404 0.94369 0.72345 0.0
H1652 H 0.11698 0.9693 0.66495 0.0
H1653 H 0.10776 0.06992 0.48886 0.0
H1654 H 0.10976 0.03874 0.45431 0.0
H1655 H 0.1221 0.02287 0.64939 0.0
H1656 H 0.11897 0.05397 0.68472 0.0
H1657 H 0.10261 0.99886 0.60126 0.0
H1658 H 0.15443 0.02822 0.52644 0.0
H1659 H 0.17182 0.05156 0.47141 0.0
H1660 H 0.14814 0.03728 0.29055 0.0
H1661 H 0.13037 0.01404 0.34468 0.0
C1662 C 0.13057 0.92446 0.48257 0.0
C1663 C 0.12172 0.91927 0.42594 0.0
C1664 C 0.13184 0.94249 0.49926 0.0
C1665 C 0.12422 0.95561 0.45984 0.0
C1666 C 0.11645 0.95064 0.40121 0.0
C1667 C 0.11516 0.93259 0.38439 0.0
C1668 C 0.12242 0.97415 0.48352 0.0
C1669 C 0.13115 0.98795 0.4509 0.0
C1670 C 0.11224 0.97807 0.53889 0.0
C1671 C 0.10316 0.96374 0.57577 0.0
C1672 C 0.09097 0.95232 0.54536 0.0
C1673 C 0.08396 0.93767 0.5785 0.0
C1674 C 0.08874 0.93451 0.64254 0.0
C1675 C 0.10038 0.94613 0.6738 0.0
C1676 C 0.10758 0.96071 0.64064 0.0
C1677 C 0.11075 0.05972 0.52435 0.0
C1678 C 0.11331 0.06428 0.58929 0.0
C1679 C 0.11203 0.04193 0.50455 0.0
C1680 C 0.11658 0.02848 0.54887 0.0
C1681 C 0.11866 0.03299 0.6142 0.0
C1682 C 0.11689 0.05075 0.63436 0.0
C1683 C 0.11938 0.00978 0.52684 0.0
C1684 C 0.1108 0.99584 0.55979 0.0
C1685 C 0.13011 0.00569 0.4727 0.0
C1686 C 0.14095 0.01949 0.43974 0.0
C1687 C 0.15285 0.03013 0.47499 0.0
C1688 C 0.16278 0.04334 0.44396 0.0
C1689 C 0.16106 0.04593 0.37755 0.0
C1690 C 0.14944 0.03527 0.342 0.0
C1691 C 0.13945 0.02207 0.37283 0.0
H1692 H 0.16875 0.05617 0.35362 0.0
H1693 H 0.08346 0.92305 0.66791 0.0
H1694 H 0.92439 0.88972 0.55917 0.0
H1695 H 0.95611 0.88723 0.54569 0.0
H1696 H 0.96093 0.86533 0.73717 0.0
H1697 H 0.92881 0.86778 0.75161 0.0
H1698 H 0.98901 0.89187 0.69223 0.0
H1699 H 0.96158 0.8361 0.63471 0.0
H1700 H 0.93802 0.81833 0.58347 0.0
H1701 H 0.95228 0.83952 0.39824 0.0
H1702 H 0.97577 0.85764 0.44853 0.0
H1703 H 0.07552 0.86386 0.58116 0.0
H1704 H 0.04679 0.86449 0.63532 0.0
H1705 H 0.02149 0.87658 0.45423 0.0
H1706 H 0.04987 0.87583 0.39982 0.0
H1707 H 0.00474 0.85013 0.5151 0.0
H1708 H 0.02626 0.90964 0.57005 0.0
H1709 H 0.0464 0.93196 0.61756 0.0
H1710 H 0.04246 0.90591 0.8015 0.0
H1711 H 0.02204 0.88357 0.75519 0.0
C1712 C 0.93212 0.88455 0.59897 0.0
C1713 C 0.92401 0.87865 0.65613 0.0
C1714 C 0.95028 0.88321 0.59116 0.0
C1715 C 0.96075 0.87587 0.64007 0.0
C1716 C 0.95297 0.87099 0.69889 0.0
C1717 C 0.93466 0.87236 0.70692 0.0
C1718 C 0.97945 0.87196 0.62599 0.0
C1719 C 0.99261 0.88239 0.65486 0.0
C1720 C 0.98395 0.85981 0.57639 0.0
C1721 C 0.97042 0.84826 0.54546 0.0
C1722 C 0.95968 0.83699 0.58306 0.0
C1723 C 0.94633 0.82687 0.5542 0.0
C1724 C 0.94365 0.8278 0.48765 0.0
C1725 C 0.95439 0.83879 0.44978 0.0
C1726 C 0.96775 0.84896 0.47843 0.0
C1727 C 0.06384 0.86668 0.55288 0.0
C1728 C 0.06503 0.86967 0.48596 0.0
C1729 C 0.04744 0.86711 0.58402 0.0
C1730 C 0.032 0.87059 0.54879 0.0
C1731 C 0.03322 0.87376 0.4823 0.0
C1732 C 0.04951 0.87335 0.45125 0.0
C1733 C 0.01439 0.87048 0.57988 0.0
C1734 C 0.00136 0.85921 0.55402 0.0
C1735 C 0.01004 0.88195 0.63185 0.0
C1736 C 0.02285 0.89483 0.65904 0.0
C1737 C 0.02985 0.90857 0.62045 0.0
C1738 C 0.04125 0.92126 0.64722 0.0
C1739 C 0.04582 0.92028 0.71239 0.0
C1740 C 0.03895 0.90662 0.751 0.0
C1741 C 0.02741 0.89399 0.7246 0.0
H1742 H 0.05461 0.93015 0.73306 0.0
H1743 H 0.93327 0.82001 0.46542 0.0
H1744 H 0.35354 0.31121 0.21598 0.0
H1745 H 0.35288 0.27861 0.21341 0.0
H1746 H 0.35953 0.27951 0.00694 0.0
H1747 H 0.35997 0.31223 0.00864 0.0
H1748 H 0.3364 0.25304 0.04701 0.0
H1749 H 0.39467 0.27441 0.10111 0.0
H1750 H 0.41561 0.29249 0.16466 0.0
H1751 H 0.40075 0.26416 0.33642 0.0
H1752 H 0.37949 0.2461 0.274 0.0
H1753 H 0.37369 0.16876 0.9861 0.0
H1754 H 0.36889 0.2008 0.99754 0.0
H1755 H 0.3637 0.19463 0.20341 0.0
H1756 H 0.36867 0.16237 0.19274 0.0
H1757 H 0.38434 0.22344 0.17043 0.0
H1758 H 0.32765 0.20035 0.11472 0.0
H1759 H 0.30645 0.18256 0.0513 0.0
H1760 H 0.31798 0.21405 0.88333 0.0
H1761 H 0.33949 0.23184 0.94546 0.0
C1762 C 0.35463 0.30454 0.16978 0.0
C1763 C 0.35706 0.31437 0.11255 0.0
C1764 C 0.35426 0.28589 0.1685 0.0
C1765 C 0.35647 0.27668 0.11016 0.0
C1766 C 0.35787 0.2864 0.0525 0.0
C1767 C 0.35817 0.3051 0.05363 0.0
C1768 C 0.35864 0.257 0.10991 0.0
C1769 C 0.34695 0.24655 0.07349 0.0
C1770 C 0.37219 0.24857 0.14577 0.0
C1771 C 0.38538 0.25902 0.183 0.0
C1772 C 0.39581 0.27209 0.15248 0.0
C1773 C 0.40773 0.28234 0.1883 0.0
C1774 C 0.40947 0.27951 0.25458 0.0
C1775 C 0.39936 0.26636 0.2851 0.0
C1776 C 0.38739 0.2561 0.24952 0.0
C1777 C 0.37155 0.17413 0.03398 0.0
C1778 C 0.37144 0.16291 0.08851 0.0
C1779 C 0.36874 0.19247 0.04032 0.0
C1780 C 0.36566 0.20002 0.10117 0.0
C1781 C 0.36595 0.18901 0.15597 0.0
C1782 C 0.36876 0.17058 0.14972 0.0
C1783 C 0.36218 0.21945 0.10701 0.0
C1784 C 0.37367 0.22987 0.1444 0.0
C1785 C 0.34843 0.22784 0.07204 0.0
C1786 C 0.3353 0.21734 0.03468 0.0
C1787 C 0.32576 0.20341 0.06415 0.0
C1788 C 0.31367 0.19333 0.02844 0.0
C1789 C 0.31089 0.19715 0.9633 0.0
C1790 C 0.32016 0.2111 0.93379 0.0
C1791 C 0.33229 0.22119 0.96925 0.0
H1792 H 0.30153 0.18933 0.93573 0.0
H1793 H 0.41867 0.28749 0.28226 0.0
H1794 H 0.17522 0.64249 0.78657 0.0
H1795 H 0.2075 0.64263 0.79043 0.0
H1796 H 0.20585 0.63159 0.99441 0.0
H1797 H 0.17355 0.63115 0.99096 0.0
H1798 H 0.23114 0.65955 0.95016 0.0
H1799 H 0.21216 0.59831 0.90807 0.0
H1800 H 0.19538 0.57577 0.84653 0.0
H1801 H 0.22349 0.59007 0.67431 0.0
H1802 H 0.24022 0.61293 0.73467 0.0
H1803 H 0.31699 0.62988 0.01818 0.0
H1804 H 0.28509 0.63342 0.00862 0.0
H1805 H 0.28896 0.627 0.80216 0.0
H1806 H 0.32081 0.62253 0.812 0.0
H1807 H 0.26222 0.60944 0.84148 0.0
H1808 H 0.2824 0.66892 0.87732 0.0
H1809 H 0.29872 0.69323 0.93123 0.0
H1810 H 0.26853 0.68498 0.10388 0.0
H1811 H 0.2522 0.66042 0.05132 0.0
C1812 C 0.18173 0.64028 0.83238 0.0
C1813 C 0.17193 0.63668 0.88843 0.0
C1814 C 0.20012 0.64036 0.83442 0.0
C1815 C 0.20892 0.63705 0.89263 0.0
C1816 C 0.19919 0.63418 0.94915 0.0
C1817 C 0.1808 0.63383 0.94699 0.0
C1818 C 0.22828 0.63554 0.89389 0.0
C1819 C 0.23801 0.64854 0.92703 0.0
C1820 C 0.23708 0.62149 0.86164 0.0
C1821 C 0.22731 0.60746 0.82574 0.0
C1822 C 0.21466 0.59674 0.85698 0.0
C1823 C 0.20517 0.5839 0.82233 0.0
C1824 C 0.20833 0.58152 0.75651 0.0
C1825 C 0.22104 0.59194 0.72528 0.0
C1826 C 0.23054 0.60484 0.75969 0.0
C1827 C 0.31101 0.62924 0.97079 0.0
C1828 C 0.32131 0.62597 0.91581 0.0
C1829 C 0.2928 0.63138 0.96529 0.0
C1830 C 0.28465 0.63085 0.9045 0.0
C1831 C 0.29495 0.6275 0.84954 0.0
C1832 C 0.31313 0.62496 0.85518 0.0
C1833 C 0.26533 0.6334 0.89858 0.0
C1834 C 0.25551 0.62058 0.86443 0.0
C1835 C 0.25649 0.64786 0.92882 0.0
C1836 C 0.26618 0.66272 0.96051 0.0
C1837 C 0.27932 0.67221 0.92692 0.0
C1838 C 0.28856 0.68604 0.95722 0.0
C1839 C 0.28469 0.69062 0.02098 0.0
C1840 C 0.27153 0.68141 0.05451 0.0
C1841 C 0.26226 0.66754 0.02446 0.0
H1842 H 0.29186 0.70134 0.04436 0.0
H1843 H 0.20095 0.57159 0.72975 0.0
H1844 H 0.62075 0.82895 0.00361 0.0
H1845 H 0.62291 0.79648 0.0108 0.0
H1846 H 0.63653 0.8006 0.21213 0.0
H1847 H 0.63447 0.83324 0.20558 0.0
H1848 H 0.65793 0.77718 0.14876 0.0
H1849 H 0.59611 0.78663 0.17297 0.0
H1850 H 0.56599 0.79726 0.14963 0.0
H1851 H 0.5671 0.77048 0.96653 0.0
H1852 H 0.59728 0.75973 0.98868 0.0
H1853 H 0.63945 0.68601 0.23102 0.0
H1854 H 0.64098 0.71854 0.22242 0.0
H1855 H 0.63057 0.71508 0.01841 0.0
H1856 H 0.62904 0.68247 0.02624 0.0
H1857 H 0.60807 0.73811 0.08388 0.0
H1858 H 0.67031 0.72712 0.06724 0.0
H1859 H 0.69883 0.71436 0.10114 0.0
H1860 H 0.69587 0.74334 0.27959 0.0
H1861 H 0.66719 0.75607 0.24716 0.0
C1862 C 0.62422 0.82302 0.04954 0.0
C1863 C 0.62746 0.83375 0.10405 0.0
C1864 C 0.62536 0.80442 0.05357 0.0
C1865 C 0.62974 0.79615 0.1121 0.0
C1866 C 0.63312 0.80676 0.16652 0.0
C1867 C 0.63189 0.8254 0.16267 0.0
C1868 C 0.63097 0.7764 0.11592 0.0
C1869 C 0.64696 0.76862 0.13534 0.0
C1870 C 0.61675 0.76527 0.09736 0.0
C1871 C 0.59902 0.77252 0.08223 0.0
C1872 C 0.59002 0.78321 0.12736 0.0
C1873 C 0.57291 0.78917 0.11449 0.0
C1874 C 0.56464 0.78453 0.05666 0.0
C1875 C 0.57352 0.77404 0.01133 0.0
C1876 C 0.59062 0.76799 0.02406 0.0
C1877 C 0.6377 0.69211 0.18408 0.0
C1878 C 0.63399 0.68162 0.12936 0.0
C1879 C 0.63867 0.71071 0.17928 0.0
C1880 C 0.63593 0.71916 0.11978 0.0
C1881 C 0.63273 0.70875 0.06474 0.0
C1882 C 0.63189 0.69013 0.06935 0.0
C1883 C 0.63505 0.7389 0.11602 0.0
C1884 C 0.61907 0.74668 0.09681 0.0
C1885 C 0.6492 0.74997 0.13557 0.0
C1886 C 0.66651 0.74242 0.15499 0.0
C1887 C 0.67567 0.73066 0.11394 0.0
C1888 C 0.69188 0.72345 0.13285 0.0
C1889 C 0.69914 0.728 0.19255 0.0
C1890 C 0.69022 0.73981 0.23338 0.0
C1891 C 0.674 0.74704 0.21473 0.0
H1892 H 0.71169 0.72241 0.20711 0.0
H1893 H 0.55131 0.78898 0.0471 0.0
H1894 H 0.67172 0.38933 0.83663 0.0
H1895 H 0.70341 0.38531 0.8195 0.0
H1896 H 0.70929 0.36745 0.016 0.0
H1897 H 0.67751 0.37108 0.03335 0.0
H1898 H 0.73535 0.39406 0.96726 0.0
H1899 H 0.70793 0.33704 0.91452 0.0
H1900 H 0.68612 0.31867 0.85614 0.0
H1901 H 0.70807 0.33565 0.67535 0.0
H1902 H 0.72982 0.35439 0.73272 0.0
H1903 H 0.81989 0.35897 0.96869 0.0
H1904 H 0.78793 0.36118 0.98014 0.0
H1905 H 0.78241 0.36271 0.77302 0.0
H1906 H 0.81449 0.35944 0.76146 0.0
H1907 H 0.75568 0.34548 0.82171 0.0
H1908 H 0.78284 0.40162 0.86602 0.0
H1909 H 0.80402 0.42226 0.91722 0.0
H1910 H 0.78219 0.41018 0.10326 0.0
H1911 H 0.76104 0.38926 0.05324 0.0
C1912 C 0.67977 0.38472 0.87642 0.0
C1913 C 0.67216 0.38046 0.93632 0.0
C1914 C 0.69783 0.38239 0.86644 0.0
C1915 C 0.70855 0.376 0.91642 0.0
C1916 C 0.70114 0.37238 0.97696 0.0
C1917 C 0.68303 0.37443 0.9867 0.0
C1918 C 0.72744 0.37251 0.90496 0.0
C1919 C 0.73986 0.38333 0.93611 0.0
C1920 C 0.73313 0.35892 0.86234 0.0
C1921 C 0.7204 0.34725 0.82791 0.0
C1922 C 0.70803 0.33695 0.86232 0.0
C1923 C 0.69569 0.32646 0.82941 0.0
C1924 C 0.69568 0.32603 0.76207 0.0
C1925 C 0.70808 0.33602 0.72751 0.0
C1926 C 0.72042 0.34657 0.7602 0.0
C1927 C 0.81181 0.35951 0.92563 0.0
C1928 C 0.81957 0.35926 0.86423 0.0
C1929 C 0.79358 0.36088 0.93217 0.0
C1930 C 0.78281 0.3627 0.87747 0.0
C1931 C 0.79047 0.36147 0.8159 0.0
C1932 C 0.80875 0.35962 0.80931 0.0
C1933 C 0.76378 0.36685 0.88507 0.0
C1934 C 0.75127 0.35624 0.85291 0.0
C1935 C 0.75797 0.38094 0.9257 0.0
C1936 C 0.77045 0.39377 0.95591 0.0
C1937 C 0.78261 0.4033 0.91788 0.0
C1938 C 0.79461 0.41505 0.94669 0.0
C1939 C 0.79448 0.4175 0.01347 0.0
C1940 C 0.78229 0.40825 0.05155 0.0
C1941 C 0.77028 0.39647 0.02299 0.0
H1942 H 0.80379 0.42658 0.03569 0.0
H1943 H 0.6861 0.31792 0.73667 0.0
H1944 H 0.87135 0.67475 0.4971 0.0
H1945 H 0.87095 0.70728 0.50578 0.0
H1946 H 0.86408 0.70318 0.71168 0.0
H1947 H 0.86422 0.67054 0.70363 0.0
H1948 H 0.84291 0.72885 0.65947 0.0
H1949 H 0.90401 0.71227 0.65012 0.0
H1950 H 0.9301 0.69713 0.6046 0.0
H1951 H 0.92455 0.72723 0.42941 0.0
H1952 H 0.89825 0.74236 0.47355 0.0
H1953 H 0.86801 0.81686 0.74503 0.0
H1954 H 0.86706 0.78441 0.73328 0.0
H1955 H 0.87254 0.78976 0.52721 0.0
H1956 H 0.87362 0.82233 0.53826 0.0
H1957 H 0.89411 0.76356 0.57784 0.0
H1958 H 0.83323 0.78059 0.58871 0.0
H1959 H 0.80729 0.79577 0.63517 0.0
H1960 H 0.81261 0.76486 0.80862 0.0
H1961 H 0.83877 0.7497 0.76358 0.0
C1962 C 0.86967 0.68071 0.54432 0.0
C1963 C 0.86792 0.66999 0.59976 0.0
C1964 C 0.8695 0.69933 0.54914 0.0
C1965 C 0.86773 0.70762 0.60945 0.0
C1966 C 0.86551 0.69702 0.66469 0.0
C1967 C 0.86564 0.67836 0.65997 0.0
C1968 C 0.86854 0.72736 0.61491 0.0
C1969 C 0.85419 0.73644 0.64238 0.0
C1970 C 0.88311 0.73723 0.59128 0.0
C1971 C 0.89906 0.72832 0.56491 0.0
C1972 C 0.90828 0.71557 0.60171 0.0
C1973 C 0.92311 0.707 0.57618 0.0
C1974 C 0.92895 0.71118 0.51409 0.0
C1975 C 0.92 0.72399 0.47747 0.0
C1976 C 0.90514 0.73257 0.50274 0.0
C1977 C 0.86902 0.8112 0.69709 0.0
C1978 C 0.87079 0.82225 0.64251 0.0
C1979 C 0.86842 0.79263 0.69052 0.0
C1980 C 0.86953 0.78473 0.62934 0.0
C1981 C 0.87161 0.79564 0.57484 0.0
C1982 C 0.87215 0.81425 0.58128 0.0
C1983 C 0.8685 0.76504 0.62248 0.0
C1984 C 0.88282 0.75597 0.59479 0.0
C1985 C 0.85392 0.75518 0.64603 0.0
C1986 C 0.83806 0.76413 0.67298 0.0
C1987 C 0.82895 0.77713 0.63695 0.0
C1988 C 0.8142 0.78571 0.66301 0.0
C1989 C 0.80833 0.78131 0.72487 0.0
C1990 C 0.81718 0.76827 0.76073 0.0
C1991 C 0.83197 0.75967 0.73495 0.0
H1992 H 0.79691 0.78798 0.74497 0.0
H1993 H 0.94043 0.70453 0.49439 0.0
H1994 H 0.82529 0.1269 0.30918 0.0
H1995 H 0.79344 0.12903 0.29044 0.0
H1996 H 0.78509 0.13982 0.49235 0.0
H1997 H 0.81699 0.13818 0.51136 0.0
H1998 H 0.7627 0.11098 0.42593 0.0
H1999 H 0.78202 0.173 0.41189 0.0
H2000 H 0.80098 0.19702 0.36887 0.0
H2001 H 0.78297 0.18556 0.17699 0.0
H2002 H 0.76411 0.16126 0.21883 0.0
H2003 H 0.67358 0.13543 0.43009 0.0
H2004 H 0.70542 0.13438 0.44634 0.0
H2005 H 0.71359 0.14502 0.24387 0.0
H2006 H 0.68162 0.14711 0.22825 0.0
H2007 H 0.73679 0.16231 0.30716 0.0
H2008 H 0.71744 0.1017 0.31299 0.0
H2009 H 0.69928 0.07601 0.34727 0.0
H2010 H 0.71803 0.08195 0.54141 0.0
H2011 H 0.73611 0.10786 0.5085 0.0
C2012 C 0.81666 0.1297 0.3496 0.0
C2013 C 0.82356 0.13239 0.41174 0.0
C2014 C 0.79853 0.13093 0.33877 0.0
C2015 C 0.78704 0.13458 0.39006 0.0
C2016 C 0.79384 0.13699 0.45231 0.0
C2017 C 0.81201 0.13611 0.46298 0.0
C2018 C 0.76791 0.13602 0.37854 0.0
C2019 C 0.75692 0.12228 0.40073 0.0
C2020 C 0.76065 0.15044 0.34343 0.0
C2021 C 0.77181 0.16519 0.31841 0.0
C2022 C 0.78223 0.1755 0.36046 0.0
C2023 C 0.79293 0.18918 0.33631 0.0
C2024 C 0.79322 0.19278 0.27021 0.0
C2025 C 0.78276 0.18274 0.22816 0.0
C2026 C 0.77205 0.16902 0.25208 0.0
C2027 C 0.68218 0.1376 0.38911 0.0
C2028 C 0.67519 0.1412 0.32782 0.0
C2029 C 0.70038 0.13688 0.39833 0.0
C2030 C 0.71194 0.13914 0.34601 0.0
C2031 C 0.70495 0.14314 0.28492 0.0
C2032 C 0.68671 0.1443 0.27599 0.0
C2033 C 0.73129 0.13731 0.35526 0.0
C2034 C 0.74241 0.15095 0.33239 0.0
C2035 C 0.73873 0.12252 0.38845 0.0
C2036 C 0.72801 0.10683 0.40836 0.0
C2037 C 0.71761 0.0976 0.36308 0.0
C2038 C 0.70734 0.08299 0.38226 0.0
C2039 C 0.70747 0.07738 0.44651 0.0
C2040 C 0.71792 0.08633 0.49168 0.0
C2041 C 0.7282 0.10097 0.47277 0.0
H2042 H 0.6995 0.06608 0.46127 0.0
H2043 H 0.80152 0.20338 0.2516 0.0
H2044 H 0.13613 0.32742 0.69671 0.0
H2045 H 0.13766 0.29479 0.69986 0.0
H2046 H 0.1225 0.29234 0.49966 0.0
H2047 H 0.12091 0.32497 0.49577 0.0
H2048 H 0.10354 0.269 0.57606 0.0
H2049 H 0.16384 0.28423 0.53754 0.0
H2050 H 0.19185 0.30016 0.55649 0.0
H2051 H 0.19545 0.27689 0.74534 0.0
H2052 H 0.1673 0.26103 0.72788 0.0
H2053 H 0.12112 0.17611 0.54173 0.0
H2054 H 0.12269 0.20849 0.52614 0.0
H2055 H 0.13797 0.2153 0.72491 0.0
H2056 H 0.13654 0.18299 0.74115 0.0
H2057 H 0.15757 0.23632 0.64235 0.0
H2058 H 0.09651 0.22244 0.68271 0.0
H2059 H 0.06845 0.20657 0.66403 0.0
H2060 H 0.06628 0.22744 0.47131 0.0
H2061 H 0.0945 0.24322 0.48853 0.0
C2062 C 0.13321 0.31999 0.65317 0.0
C2063 C 0.12845 0.32885 0.59592 0.0
C2064 C 0.13414 0.30134 0.65506 0.0
C2065 C 0.13031 0.2912 0.59986 0.0
C2066 C 0.12553 0.29995 0.54272 0.0
C2067 C 0.1247 0.31861 0.5406 0.0
C2068 C 0.13093 0.27143 0.60236 0.0
C2069 C 0.11542 0.26182 0.58948 0.0
C2070 C 0.14636 0.26215 0.62106 0.0
C2071 C 0.16337 0.27156 0.63161 0.0
C2072 C 0.17053 0.28262 0.58332 0.0
C2073 C 0.18644 0.29162 0.59375 0.0
C2074 C 0.1954 0.28957 0.65215 0.0
C2075 C 0.18848 0.27848 0.70016 0.0
C2076 C 0.17255 0.26946 0.68999 0.0
C2077 C 0.12491 0.18446 0.58212 0.0
C2078 C 0.12859 0.17693 0.64284 0.0
C2079 C 0.12577 0.20296 0.57309 0.0
C2080 C 0.1303 0.21425 0.62455 0.0
C2081 C 0.13445 0.20678 0.68463 0.0
C2082 C 0.13354 0.18831 0.69383 0.0
C2083 C 0.13015 0.23392 0.61649 0.0
C2084 C 0.14573 0.2435 0.62842 0.0
C2085 C 0.11478 0.24318 0.59692 0.0
C2086 C 0.09772 0.23385 0.58668 0.0
C2087 C 0.09012 0.22353 0.63617 0.0
C2088 C 0.07418 0.21457 0.62588 0.0
C2089 C 0.06561 0.21596 0.56646 0.0
C2090 C 0.07295 0.22636 0.51728 0.0
C2091 C 0.08891 0.23532 0.52729 0.0
H2092 H 0.05326 0.20901 0.55857 0.0
H2093 H 0.20772 0.29655 0.66015 0.0
H2094 H 0.17569 0.8789 0.2981 0.0
H2095 H 0.2074 0.8754 0.28298 0.0
H2096 H 0.21089 0.84672 0.46309 0.0
H2097 H 0.17902 0.84995 0.47826 0.0
H2098 H 0.23382 0.88781 0.35262 0.0
H2099 H 0.24441 0.81606 0.45246 0.0
H2100 H 0.22806 0.7876 0.46086 0.0
H2101 H 0.19697 0.80188 0.29568 0.0
H2102 H 0.21331 0.83028 0.28569 0.0
H2103 H 0.32371 0.87441 0.42125 0.0
H2104 H 0.29159 0.87461 0.42952 0.0
H2105 H 0.28805 0.83888 0.26667 0.0
H2106 H 0.32026 0.8384 0.25847 0.0
H2107 H 0.265 0.82944 0.36002 0.0
H2108 H 0.28066 0.88281 0.24627 0.0
H2109 H 0.29668 0.91107 0.22772 0.0
H2110 H 0.27445 0.93314 0.40074 0.0
H2111 H 0.25848 0.9049 0.42084 0.0
C2112 C 0.18316 0.87179 0.3345 0.0
C2113 C 0.17484 0.86474 0.38953 0.0
C2114 C 0.20131 0.86983 0.32577 0.0
C2115 C 0.2115 0.86074 0.37171 0.0
C2116 C 0.20323 0.85359 0.42659 0.0
C2117 C 0.18504 0.8555 0.43531 0.0
C2118 C 0.23086 0.85926 0.36291 0.0
C2119 C 0.24062 0.87504 0.35427 0.0
C2120 C 0.2397 0.84258 0.36386 0.0
C2121 C 0.22998 0.82539 0.3688 0.0
C2122 C 0.23414 0.81309 0.41778 0.0
C2123 C 0.22486 0.79697 0.42283 0.0
C2124 C 0.21144 0.79296 0.37897 0.0
C2125 C 0.20732 0.80503 0.32977 0.0
C2126 C 0.21657 0.82115 0.32445 0.0
C2127 C 0.31613 0.86657 0.38718 0.0
C2128 C 0.32453 0.85652 0.33878 0.0
C2129 C 0.29776 0.86671 0.39197 0.0
C2130 C 0.28744 0.85694 0.34819 0.0
C2131 C 0.29579 0.84653 0.30087 0.0
C2132 C 0.31418 0.84633 0.29611 0.0
C2133 C 0.26793 0.85801 0.35091 0.0
C2134 C 0.25816 0.84219 0.35844 0.0
C2135 C 0.25901 0.87462 0.34749 0.0
C2136 C 0.2685 0.89168 0.33535 0.0
C2137 C 0.27929 0.89364 0.28061 0.0
C2138 C 0.28834 0.90967 0.26978 0.0
C2139 C 0.28662 0.92388 0.3131 0.0
C2140 C 0.27579 0.92211 0.36727 0.0
C2141 C 0.26672 0.9061 0.37837 0.0
H2142 H 0.29364 0.93628 0.30464 0.0
H2143 H 0.20426 0.78048 0.38301 0.0
H2144 H 0.17599 0.12849 0.85945 0.0
H2145 H 0.20671 0.12709 0.89522 0.0
H2146 H 0.22426 0.12992 0.69767 0.0
H2147 H 0.19358 0.13139 0.66135 0.0
H2148 H 0.24151 0.1034 0.77114 0.0
H2149 H 0.22747 0.16591 0.78365 0.0
H2150 H 0.20978 0.19212 0.81577 0.0
H2151 H 0.21792 0.17932 0.01536 0.0
H2152 H 0.23545 0.15285 0.98441 0.0
H2153 H 0.3318 0.1184 0.8537 0.0
H2154 H 0.30234 0.12098 0.80603 0.0
H2155 H 0.27967 0.12591 0.9961 0.0
H2156 H 0.30895 0.1238 0.04378 0.0
H2157 H 0.26557 0.14967 0.91853 0.0
H2158 H 0.27776 0.08648 0.90846 0.0
H2159 H 0.29491 0.05967 0.87887 0.0
H2160 H 0.28974 0.07294 0.67834 0.0
H2161 H 0.27275 0.09998 0.70682 0.0
C2162 C 0.18638 0.1288 0.82361 0.0
C2163 C 0.18239 0.13016 0.75764 0.0
C2164 C 0.2039 0.12805 0.84412 0.0
C2165 C 0.2177 0.12855 0.79903 0.0
C2166 C 0.21377 0.12956 0.73311 0.0
C2167 C 0.19625 0.13049 0.71255 0.0
C2168 C 0.23625 0.12811 0.821 0.0
C2169 C 0.2469 0.11364 0.80258 0.0
C2170 C 0.24308 0.14132 0.8629 0.0
C2171 C 0.23264 0.1573 0.88168 0.0
C2172 C 0.22537 0.1686 0.83439 0.0
C2173 C 0.21539 0.18352 0.85238 0.0
C2174 C 0.21269 0.18736 0.91756 0.0
C2175 C 0.22001 0.17632 0.96488 0.0
C2176 C 0.22998 0.16136 0.94714 0.0
C2177 C 0.32051 0.12 0.88523 0.0
C2178 C 0.32269 0.12089 0.95245 0.0
C2179 C 0.3037 0.12142 0.85798 0.0
C2180 C 0.28879 0.12348 0.89756 0.0
C2181 C 0.29098 0.12439 0.96462 0.0
C2182 C 0.30775 0.12312 0.99179 0.0
C2183 C 0.27083 0.12477 0.86965 0.0
C2184 C 0.26027 0.13945 0.88681 0.0
C2185 C 0.26405 0.11166 0.82703 0.0
C2186 C 0.27416 0.09535 0.8098 0.0
C2187 C 0.2804 0.08375 0.85808 0.0
C2188 C 0.29007 0.0685 0.84151 0.0
C2189 C 0.29346 0.06463 0.77678 0.0
C2190 C 0.28713 0.07597 0.72847 0.0
C2191 C 0.27747 0.09126 0.74479 0.0
H2192 H 0.30095 0.05281 0.76405 0.0
H2193 H 0.20496 0.19892 0.9314 0.0
H2194 H 0.08191 0.80322 0.36415 0.0
H2195 H 0.07869 0.77513 0.30532 0.0
H2196 H 0.08187 0.80364 0.12487 0.0
H2197 H 0.08491 0.83193 0.18333 0.0
H2198 H 0.05698 0.77645 0.12225 0.0
H2199 H 0.11768 0.78449 0.18265 0.0
H2200 H 0.14219 0.79019 0.25805 0.0
H2201 H 0.12843 0.74312 0.36562 0.0
H2202 H 0.10364 0.73729 0.29146 0.0
H2203 H 0.08391 0.70402 0.92083 0.0
H2204 H 0.08097 0.73226 0.97933 0.0
H2205 H 0.08068 0.70355 0.15983 0.0
H2206 H 0.08384 0.67528 0.10188 0.0
H2207 H 0.10333 0.73092 0.16287 0.0
H2208 H 0.04306 0.7223 0.10016 0.0
H2209 H 0.01863 0.71664 0.02441 0.0
H2210 H 0.03158 0.7646 0.92055 0.0
H2211 H 0.05627 0.77041 0.99518 0.0
C2212 C 0.08168 0.80359 0.31195 0.0
C2213 C 0.08381 0.81979 0.27836 0.0
C2214 C 0.07988 0.78751 0.27844 0.0
C2215 C 0.08029 0.78732 0.21083 0.0
C2216 C 0.08156 0.80354 0.17708 0.0
C2217 C 0.08336 0.81966 0.21057 0.0
C2218 C 0.08053 0.77011 0.17558 0.0
C2219 C 0.06719 0.76654 0.13053 0.0
C2220 C 0.09372 0.75713 0.18739 0.0
C2221 C 0.1087 0.76054 0.23182 0.0
C2222 C 0.1198 0.77543 0.22266 0.0
C2223 C 0.13376 0.77867 0.26512 0.0
C2224 C 0.13687 0.76702 0.31658 0.0
C2225 C 0.12601 0.75212 0.32572 0.0
C2226 C 0.112 0.74884 0.28348 0.0
C2227 C 0.08303 0.70369 0.97294 0.0
C2228 C 0.08411 0.68741 0.00674 0.0
C2229 C 0.08129 0.71984 0.00628 0.0
C2230 C 0.08047 0.71998 0.0739 0.0
C2231 C 0.08128 0.70373 0.10764 0.0
C2232 C 0.08306 0.68759 0.07441 0.0
C2233 C 0.07969 0.73711 0.10969 0.0
C2234 C 0.09302 0.74074 0.15473 0.0
C2235 C 0.06651 0.75011 0.09772 0.0
C2236 C 0.05162 0.7467 0.05292 0.0
C2237 C 0.04079 0.73156 0.06086 0.0
C2238 C 0.02688 0.72834 0.01818 0.0
C2239 C 0.02358 0.74023 0.9676 0.0
C2240 C 0.03417 0.75539 0.95971 0.0
C2241 C 0.04811 0.75866 0.00223 0.0
H2242 H 0.01281 0.73771 0.9346 0.0
H2243 H 0.1477 0.76954 0.34935 0.0
H2244 H 0.66733 0.8778 0.87319 0.0
H2245 H 0.69671 0.87593 0.8237 0.0
H2246 H 0.7206 0.8763 0.01237 0.0
H2247 H 0.69144 0.87795 0.06208 0.0
H2248 H 0.73686 0.89971 0.9214 0.0
H2249 H 0.717 0.83831 0.94132 0.0
H2250 H 0.69623 0.81339 0.92356 0.0
H2251 H 0.7016 0.81967 0.71871 0.0
H2252 H 0.72222 0.84483 0.73531 0.0
H2253 H 0.82361 0.87059 0.86431 0.0
H2254 H 0.79338 0.87311 0.90426 0.0
H2255 H 0.77347 0.86298 0.71281 0.0
H2256 H 0.80363 0.85995 0.67284 0.0
H2257 H 0.75431 0.84557 0.79827 0.0
H2258 H 0.77499 0.90549 0.77483 0.0
H2259 H 0.79559 0.93073 0.78913 0.0
H2260 H 0.78812 0.92842 0.99417 0.0
H2261 H 0.76769 0.90296 0.98119 0.0
C2262 C 0.67886 0.87756 0.90399 0.0
C2263 C 0.67711 0.8779 0.97144 0.0
C2264 C 0.69559 0.87646 0.87573 0.0
C2265 C 0.71075 0.8759 0.91453 0.0
C2266 C 0.70903 0.87672 0.98172 0.0
C2267 C 0.69236 0.87756 0.00997 0.0
C2268 C 0.72848 0.87405 0.88557 0.0
C2269 C 0.74076 0.88784 0.89487 0.0
C2270 C 0.73331 0.85875 0.84955 0.0
C2271 C 0.72099 0.84358 0.83956 0.0
C2272 C 0.71363 0.83449 0.89249 0.0
C2273 C 0.70191 0.8203 0.88264 0.0
C2274 C 0.69755 0.81499 0.82004 0.0
C2275 C 0.70496 0.82382 0.76717 0.0
C2276 C 0.71667 0.83804 0.77677 0.0
C2277 C 0.81279 0.86881 0.8308 0.0
C2278 C 0.816 0.86514 0.76541 0.0
C2279 C 0.79553 0.87034 0.85361 0.0
C2280 C 0.78117 0.86855 0.81126 0.0
C2281 C 0.78434 0.86445 0.74629 0.0
C2282 C 0.8016 0.86275 0.72354 0.0
C2283 C 0.76287 0.87117 0.83467 0.0
C2284 C 0.75044 0.85754 0.8243 0.0
C2285 C 0.75783 0.88673 0.86906 0.0
C2286 C 0.76992 0.90221 0.87706 0.0
C2287 C 0.77783 0.91029 0.82301 0.0
C2288 C 0.78947 0.92464 0.83087 0.0
C2289 C 0.79319 0.93115 0.89253 0.0
C2290 C 0.78524 0.92335 0.94644 0.0
C2291 C 0.77361 0.90897 0.93886 0.0
H2292 H 0.80222 0.94225 0.89852 0.0
H2293 H 0.68848 0.804 0.81251 0.0
H2294 H 0.91285 0.1729 0.21014 0.0
H2295 H 0.91589 0.20032 0.14714 0.0
H2296 H 0.91163 0.23176 0.32092 0.0
H2297 H 0.90834 0.20439 0.38437 0.0
H2298 H 0.8901 0.24405 0.22805 0.0
H2299 H 0.95094 0.22753 0.244 0.0
H2300 H 0.97664 0.20746 0.23557 0.0
H2301 H 0.96814 0.20233 0.03175 0.0
H2302 H 0.94222 0.22218 0.03909 0.0
H2303 H 0.90975 0.32685 0.08626 0.0
H2304 H 0.91368 0.30015 0.15243 0.0
H2305 H 0.91461 0.26735 0.98133 0.0
H2306 H 0.91082 0.29406 0.91439 0.0
H2307 H 0.93891 0.25624 0.07461 0.0
H2308 H 0.87739 0.27149 0.05979 0.0
H2309 H 0.85209 0.29212 0.06721 0.0
H2310 H 0.86203 0.29956 0.26923 0.0
H2311 H 0.88762 0.27921 0.26275 0.0
C2312 C 0.91272 0.18563 0.2351 0.0
C2313 C 0.91036 0.18647 0.30229 0.0
C2314 C 0.91454 0.20129 0.19901 0.0
C2315 C 0.91414 0.21807 0.22943 0.0
C2316 C 0.91201 0.21894 0.29656 0.0
C2317 C 0.9102 0.20328 0.33274 0.0
C2318 C 0.91499 0.23471 0.19074 0.0
C2319 C 0.90093 0.24685 0.19535 0.0
C2320 C 0.9289 0.23812 0.14685 0.0
C2321 C 0.94453 0.22622 0.14221 0.0
C2322 C 0.95446 0.22201 0.19746 0.0
C2323 C 0.96909 0.21069 0.19286 0.0
C2324 C 0.974 0.20359 0.13319 0.0
C2325 C 0.96431 0.20783 0.07795 0.0
C2326 C 0.94966 0.21913 0.08229 0.0
C2327 C 0.911 0.314 0.06253 0.0
C2328 C 0.90977 0.31254 0.99509 0.0
C2329 C 0.91325 0.29876 0.10045 0.0
C2330 C 0.91418 0.2818 0.07173 0.0
C2331 C 0.91389 0.28035 0.00432 0.0
C2332 C 0.91166 0.29562 0.96622 0.0
C2333 C 0.91408 0.26551 0.11229 0.0
C2334 C 0.92819 0.25344 0.10775 0.0
C2335 C 0.9002 0.26211 0.15623 0.0
C2336 C 0.88452 0.27396 0.16065 0.0
C2337 C 0.87424 0.2776 0.10573 0.0
C2338 C 0.85985 0.28925 0.10975 0.0
C2339 C 0.85548 0.29718 0.16862 0.0
C2340 C 0.86545 0.29342 0.22364 0.0
C2341 C 0.87989 0.28183 0.21983 0.0
H2342 H 0.84435 0.30622 0.17161 0.0
H2343 H 0.98533 0.19483 0.12973 0.0
H2344 H 0.16382 0.37867 0.36524 0.0
H2345 H 0.19248 0.37896 0.31007 0.0
H2346 H 0.21907 0.37746 0.49379 0.0
H2347 H 0.19063 0.3769 0.54911 0.0
H2348 H 0.23356 0.40249 0.40242 0.0
H2349 H 0.21568 0.3405 0.42079 0.0
H2350 H 0.1952 0.31518 0.40611 0.0
H2351 H 0.19625 0.32312 0.20109 0.0
H2352 H 0.21655 0.34869 0.2147 0.0
H2353 H 0.31955 0.37218 0.32723 0.0
H2354 H 0.28998 0.3765 0.37159 0.0
H2355 H 0.26746 0.3681 0.18291 0.0
H2356 H 0.29691 0.36338 0.13848 0.0
H2357 H 0.2499 0.34966 0.2702 0.0
H2358 H 0.26981 0.41001 0.2498 0.0
H2359 H 0.29023 0.43542 0.26366 0.0
H2360 H 0.28523 0.43128 0.46932 0.0
H2361 H 0.26498 0.40566 0.45675 0.0
C2362 C 0.17579 0.37853 0.39376 0.0
C2363 C 0.17504 0.37761 0.46135 0.0
C2364 C 0.1921 0.37869 0.36228 0.0
C2365 C 0.2078 0.37818 0.39806 0.0
C2366 C 0.20706 0.3779 0.46551 0.0
C2367 C 0.19082 0.37746 0.49692 0.0
C2368 C 0.22506 0.37699 0.36544 0.0
C2369 C 0.23724 0.39092 0.37376 0.0
C2370 C 0.22957 0.36205 0.32709 0.0
C2371 C 0.21745 0.34664 0.31882 0.0
C2372 C 0.21141 0.33695 0.37263 0.0
C2373 C 0.19986 0.32254 0.3645 0.0
C2374 C 0.19438 0.31758 0.30272 0.0
C2375 C 0.20048 0.327 0.24893 0.0
C2376 C 0.21201 0.34145 0.25682 0.0
C2377 C 0.3083 0.37131 0.29518 0.0
C2378 C 0.31054 0.36739 0.22945 0.0
C2379 C 0.29142 0.37387 0.3205 0.0
C2380 C 0.27654 0.37282 0.28036 0.0
C2381 C 0.27877 0.36897 0.2147 0.0
C2382 C 0.29561 0.36628 0.18944 0.0
C2383 C 0.25859 0.37515 0.30728 0.0
C2384 C 0.24624 0.36137 0.29809 0.0
C2385 C 0.25391 0.3903 0.34453 0.0
C2386 C 0.26598 0.40581 0.35232 0.0
C2387 C 0.27316 0.41443 0.29801 0.0
C2388 C 0.28469 0.42889 0.30563 0.0
C2389 C 0.28905 0.43493 0.36733 0.0
C2390 C 0.28185 0.42657 0.42155 0.0
C2391 C 0.27033 0.41209 0.4142 0.0
H2392 H 0.29798 0.44612 0.37314 0.0
H2393 H 0.18544 0.30641 0.29651 0.0
H2394 H 0.41456 0.78597 0.41259 0.0
H2395 H 0.41658 0.75975 0.48216 0.0
H2396 H 0.40432 0.79238 0.64781 0.0
H2397 H 0.40268 0.81889 0.57852 0.0
H2398 H 0.42978 0.76758 0.67507 0.0
H2399 H 0.37243 0.76815 0.57653 0.0
H2400 H 0.3521 0.77031 0.48409 0.0
H2401 H 0.37473 0.72284 0.40178 0.0
H2402 H 0.39542 0.72056 0.49327 0.0
H2403 H 0.40335 0.69478 0.87718 0.0
H2404 H 0.40537 0.72258 0.81541 0.0
H2405 H 0.41469 0.69222 0.6417 0.0
H2406 H 0.41229 0.6644 0.70277 0.0
H2407 H 0.39038 0.71666 0.62135 0.0
H2408 H 0.44792 0.71613 0.71911 0.0
H2409 H 0.46915 0.71463 0.80903 0.0
H2410 H 0.44653 0.76201 0.89208 0.0
H2411 H 0.42501 0.76366 0.80306 0.0
C2412 C 0.41243 0.78763 0.46388 0.0
C2413 C 0.4083 0.80448 0.49 0.0
C2414 C 0.41356 0.77262 0.50356 0.0
C2415 C 0.4103 0.77408 0.56995 0.0
C2416 C 0.40683 0.79098 0.59663 0.0
C2417 C 0.40583 0.80608 0.55696 0.0
C2418 C 0.40969 0.7578 0.61069 0.0
C2419 C 0.42101 0.75651 0.66396 0.0
C2420 C 0.39843 0.7433 0.59541 0.0
C2421 C 0.38556 0.74426 0.54155 0.0
C2422 C 0.37311 0.7582 0.53862 0.0
C2423 C 0.36153 0.75945 0.48637 0.0
C2424 C 0.36215 0.74674 0.43702 0.0
C2425 C 0.37428 0.73269 0.44002 0.0
C2426 C 0.38593 0.73139 0.4921 0.0
C2427 C 0.40605 0.69403 0.82596 0.0
C2428 C 0.40767 0.67739 0.79483 0.0
C2429 C 0.40723 0.70994 0.79073 0.0
C2430 C 0.41031 0.7095 0.72396 0.0
C2431 C 0.41227 0.69289 0.69313 0.0
C2432 C 0.41095 0.677 0.72815 0.0
C2433 C 0.41067 0.72624 0.68549 0.0
C2434 C 0.39917 0.72768 0.63268 0.0
C2435 C 0.42177 0.74085 0.7013 0.0
C2436 C 0.43474 0.73991 0.75475 0.0
C2437 C 0.44738 0.72615 0.75681 0.0
C2438 C 0.45949 0.72528 0.80757 0.0
C2439 C 0.45916 0.73819 0.85633 0.0
C2440 C 0.44675 0.75201 0.85433 0.0
C2441 C 0.43461 0.75292 0.8037 0.0
H2442 H 0.46854 0.73749 0.89558 0.0
H2443 H 0.35321 0.74777 0.3965 0.0
H2444 H 0.69434 0.63337 0.14726 0.0
H2445 H 0.72465 0.63188 0.18731 0.0
H2446 H 0.7053 0.62938 0.38271 0.0
H2447 H 0.67493 0.63085 0.34322 0.0
H2448 H 0.73222 0.65472 0.36319 0.0
H2449 H 0.71969 0.5926 0.31482 0.0
H2450 H 0.71046 0.5678 0.24399 0.0
H2451 H 0.75297 0.57974 0.11402 0.0
H2452 H 0.7623 0.60479 0.18368 0.0
H2453 H 0.80462 0.62828 0.54541 0.0
H2454 H 0.7762 0.62958 0.49113 0.0
H2455 H 0.80215 0.62517 0.30656 0.0
H2456 H 0.83083 0.62337 0.36102 0.0
H2457 H 0.77305 0.6049 0.31026 0.0
H2458 H 0.78705 0.66549 0.35861 0.0
H2459 H 0.79657 0.69093 0.42588 0.0
H2460 H 0.75185 0.68325 0.54995 0.0
H2461 H 0.7422 0.65759 0.48398 0.0
C2462 C 0.69653 0.63249 0.19878 0.0
C2463 C 0.68229 0.63226 0.24221 0.0
C2464 C 0.71383 0.63158 0.22145 0.0
C2465 C 0.71712 0.63047 0.28781 0.0
C2466 C 0.70295 0.63025 0.33127 0.0
C2467 C 0.68564 0.63101 0.30865 0.0
C2468 C 0.73536 0.62983 0.31227 0.0
C2469 C 0.74112 0.64376 0.35224 0.0
C2470 C 0.74708 0.61585 0.29564 0.0
C2471 C 0.74157 0.60069 0.2541 0.0
C2472 C 0.72698 0.59003 0.27087 0.0
C2473 C 0.72174 0.57591 0.23099 0.0
C2474 C 0.73109 0.57223 0.17444 0.0
C2475 C 0.74572 0.58262 0.15778 0.0
C2476 C 0.751 0.59677 0.19747 0.0
C2477 C 0.80432 0.6276 0.49325 0.0
C2478 C 0.81994 0.62593 0.45733 0.0
C2479 C 0.78807 0.6284 0.4623 0.0
C2480 C 0.78712 0.62787 0.3948 0.0
C2481 C 0.80265 0.62572 0.35872 0.0
C2482 C 0.81898 0.62473 0.3898 0.0
C2483 C 0.76982 0.62962 0.36258 0.0
C2484 C 0.76424 0.61596 0.32089 0.0
C2485 C 0.7583 0.64398 0.37697 0.0
C2486 C 0.76397 0.65952 0.41656 0.0
C2487 C 0.7793 0.66915 0.40048 0.0
C2488 C 0.78472 0.68362 0.43836 0.0
C2489 C 0.77484 0.68868 0.49222 0.0
C2490 C 0.7595 0.67931 0.50823 0.0
C2491 C 0.75403 0.66481 0.47056 0.0
H2492 H 0.77905 0.69989 0.5215 0.0
H2493 H 0.72701 0.56129 0.14362 0.0
H2494 H 0.59108 0.18064 0.55147 0.0
H2495 H 0.59079 0.20659 0.62313 0.0
H2496 H 0.59618 0.24172 0.45925 0.0
H2497 H 0.59667 0.21584 0.38713 0.0
H2498 H 0.61902 0.25028 0.55553 0.0
H2499 H 0.55704 0.23767 0.5352 0.0
H2500 H 0.53035 0.21883 0.53938 0.0
H2501 H 0.53887 0.2093 0.74113 0.0
H2502 H 0.56577 0.2279 0.73795 0.0
H2503 H 0.59834 0.33286 0.70007 0.0
H2504 H 0.59742 0.30594 0.63368 0.0
H2505 H 0.59334 0.27331 0.80459 0.0
H2506 H 0.59415 0.30026 0.8718 0.0
H2507 H 0.57023 0.26282 0.70862 0.0
H2508 H 0.63165 0.27581 0.73042 0.0
H2509 H 0.6582 0.29486 0.7276 0.0
H2510 H 0.65095 0.30347 0.52466 0.0
H2511 H 0.62417 0.2847 0.52646 0.0
C2512 C 0.59209 0.19389 0.53057 0.0
C2513 C 0.59384 0.1962 0.46358 0.0
C2514 C 0.59187 0.2087 0.57161 0.0
C2515 C 0.59333 0.22606 0.54641 0.0
C2516 C 0.59502 0.22842 0.47959 0.0
C2517 C 0.59521 0.21362 0.43846 0.0
C2518 C 0.59354 0.24177 0.5899 0.0
C2519 C 0.60825 0.25316 0.5884 0.0
C2520 C 0.57972 0.24518 0.63412 0.0
C2521 C 0.56352 0.23403 0.63617 0.0
C2522 C 0.55331 0.23144 0.58034 0.0
C2523 C 0.53813 0.22082 0.58255 0.0
C2524 C 0.53295 0.21283 0.64044 0.0
C2525 C 0.54292 0.21548 0.6963 0.0
C2526 C 0.55812 0.22607 0.69433 0.0
C2527 C 0.59721 0.31998 0.7237 0.0
C2528 C 0.59638 0.31868 0.79126 0.0
C2529 C 0.59674 0.30461 0.68564 0.0
C2530 C 0.59551 0.28766 0.71433 0.0
C2531 C 0.59433 0.2863 0.78165 0.0
C2532 C 0.59485 0.30169 0.8199 0.0
C2533 C 0.59561 0.2714 0.67367 0.0
C2534 C 0.581 0.2599 0.67582 0.0
C2535 C 0.60956 0.26785 0.63019 0.0
C2536 C 0.6258 0.27896 0.6287 0.0
C2537 C 0.63564 0.28187 0.68527 0.0
C2538 C 0.65074 0.2926 0.68385 0.0
C2539 C 0.65624 0.30041 0.62602 0.0
C2540 C 0.64667 0.29743 0.56944 0.0
C2541 C 0.63153 0.28673 0.57062 0.0
H2542 H 0.66793 0.30872 0.62502 0.0
H2543 H 0.52119 0.20462 0.64206 0.0
loop_
_geom_bond_atom_site_label_1
_geom_bond_atom_site_label_2
_geom_bond_distance
_geom_bond_site_symmetry_2
_ccdc_geom_bond_type
Co0 O2 2.143 . S
Co0 O8 2.074 . S
Co0 O11 2.093 . S
Co0 O24 2.097 . S
Co0 N41 2.151 . S
Co0 N49 2.214 . S
Co1 O2 2.160 1_556 S
Co1 O7 2.058 1_556 S
Co1 O17 2.057 . S
Co1 O32 2.037 1_556 S
Co1 N36 2.145 . S
Co1 N57 2.257 . S
O2 Co0 2.143 . S
O2 Co1 2.160 1_554 S
C3 O4 1.278 . S
C3 O11 1.224 . S
O4 C3 1.278 . S
C5 O6 1.245 1_556 S
C5 O17 1.232 . S
O6 C5 1.245 1_554 S
O7 Co1 2.058 1_554 S
O7 C33 1.269 . S
O8 Co0 2.074 . S
O8 C33 1.257 . S
H9 C34 0.930 . S
H10 C40 0.930 . S
O11 Co0 2.093 . S
O11 C3 1.224 . S
H12 C44 0.929 . S
H13 C46 0.930 . S
H14 C47 0.930 . S
H15 C45 0.929 . S
H16 C48 0.928 . S
O17 Co1 2.057 . S
O17 C5 1.232 . S
H18 C37 0.929 . S
H19 C38 0.929 . S
H20 C50 0.931 . S
H21 C42 0.929 . S
H22 C51 0.930 . S
H23 C43 0.931 . S
O24 Co0 2.097 . S
O24 C52 1.214 . S
H25 C53 0.929 . S
H26 C54 0.929 . S
H27 C55 0.930 . S
H28 C56 0.929 . S
H29 C58 0.930 . S
H30 C35 0.930 . S
H31 C39 0.930 . S
O32 Co1 2.037 1_554 S
O32 C52 1.234 . S
C33 O7 1.269 . S
C33 O8 1.257 . S
C34 H9 0.930 . S
C34 C37 1.388 . S
C34 C39 1.418 . S
C35 H30 0.930 . S
C35 C38 1.404 . S
C35 C39 1.353 . S
N36 Co1 2.145 . S
N36 C37 1.397 . S
N36 C38 1.334 . S
C37 H18 0.929 . S
C37 C34 1.388 . S
C37 N36 1.397 . S
C38 H19 0.929 . S
C38 C35 1.404 . S
C38 N36 1.334 . S
C39 H31 0.930 . S
C39 C34 1.418 . S
C39 C35 1.353 . S
C40 H10 0.930 . S
C40 N41 1.330 . S
C40 C42 1.446 . S
N41 Co0 2.151 . S
N41 C40 1.330 . S
N41 C45 1.418 . S
C42 H21 0.929 . S
C42 C40 1.446 . S
C42 C43 1.332 . S
C43 H23 0.931 . S
C43 C42 1.332 . S
C43 C44 1.267 . S
C44 H12 0.929 . S
C44 C43 1.267 . S
C44 C45 1.251 . S
C45 H15 0.929 . S
C45 N41 1.418 . S
C45 C44 1.251 . S
C46 H13 0.930 . S
C46 C48 1.406 . S
C46 C51 1.261 . S
C47 H14 0.930 . S
C47 N49 1.325 . S
C47 C50 1.357 . S
C48 H16 0.928 . S
C48 C46 1.406 . S
C48 N49 1.261 . S
N49 Co0 2.214 . S
N49 C47 1.325 . S
N49 C48 1.261 . S
C50 H20 0.931 . S
C50 C47 1.357 . S
C50 C51 1.312 . S
C51 H22 0.930 . S
C51 C46 1.261 . S
C51 C50 1.312 . S
C52 O24 1.214 . S
C52 O32 1.234 . S
C53 H25 0.929 . S
C53 C56 1.391 . S
C53 C58 1.391 . S
C54 H26 0.929 . S
C54 C55 1.390 . S
C54 N57 1.391 . S
C55 H27 0.930 . S
C55 C54 1.390 . S
C55 C56 1.392 . S
C56 H28 0.929 . S
C56 C53 1.391 . S
C56 C55 1.392 . S
N57 Co1 2.257 . S
N57 C54 1.391 . S
N57 C58 1.388 . S
C58 H29 0.930 . S
C58 C53 1.391 . S
C58 N57 1.388 . S
Co59 O61 2.143 . S
Co59 O67 2.074 . S
Co59 O70 2.093 . S
Co59 O83 2.097 . S
Co59 N100 2.151 . S
Co59 N108 2.214 . S
Co60 O61 2.160 . S
Co60 O66 2.058 . S
Co60 O76 2.057 . S
Co60 O91 2.037 . S
Co60 N95 2.145 1_556 S
Co60 N116 2.257 1_556 S
O61 Co59 2.143 . S
O61 Co60 2.160 . S
C62 O63 1.278 . S
C62 O70 1.224 . S
O63 C62 1.278 . S
C64 O65 1.245 . S
C64 O76 1.232 . S
O65 C64 1.245 . S
O66 Co60 2.058 . S
O66 C92 1.269 . S
O67 Co59 2.074 . S
O67 C92 1.257 . S
H68 C93 0.930 . S
H69 C99 0.930 . S
O70 Co59 2.093 . S
O70 C62 1.224 . S
H71 C103 0.929 . S
H72 C105 0.930 . S
H73 C106 0.930 . S
H74 C104 0.929 . S
H75 C107 0.928 . S
O76 Co60 2.057 . S
O76 C64 1.232 . S
H77 C96 0.929 . S
H78 C97 0.929 . S
H79 C109 0.931 . S
H80 C101 0.929 . S
H81 C110 0.930 . S
H82 C102 0.931 . S
O83 Co59 2.097 . S
O83 C111 1.214 . S
H84 C112 0.929 . S
H85 C113 0.929 . S
H86 C114 0.930 . S
H87 C115 0.929 . S
H88 C117 0.930 . S
H89 C94 0.930 . S
H90 C98 0.930 . S
O91 Co60 2.037 . S
O91 C111 1.234 . S
C92 O66 1.269 . S
C92 O67 1.257 . S
C93 H68 0.930 . S
C93 C96 1.388 1_554 S
C93 C98 1.418 . S
C94 H89 0.930 . S
C94 C97 1.404 . S
C94 C98 1.353 . S
N95 Co60 2.145 1_554 S
N95 C96 1.397 1_554 S
N95 C97 1.334 . S
C96 H77 0.929 . S
C96 C93 1.388 1_556 S
C96 N95 1.397 1_556 S
C97 H78 0.929 . S
C97 C94 1.404 . S
C97 N95 1.334 . S
C98 H90 0.930 . S
C98 C93 1.418 . S
C98 C94 1.353 . S
C99 H69 0.930 . S
C99 N100 1.330 . S
C99 C101 1.446 . S
N100 Co59 2.151 . S
N100 C99 1.330 . S
N100 C104 1.418 . S
C101 H80 0.929 . S
C101 C99 1.446 . S
C101 C102 1.332 . S
C102 H82 0.931 . S
C102 C101 1.332 . S
C102 C103 1.267 . S
C103 H71 0.929 . S
C103 C102 1.267 . S
C103 C104 1.251 . S
C104 H74 0.929 . S
C104 N100 1.418 . S
C104 C103 1.251 . S
C105 H72 0.930 . S
C105 C107 1.406 . S
C105 C110 1.261 . S
C106 H73 0.930 . S
C106 N108 1.325 . S
C106 C109 1.357 . S
C107 H75 0.928 . S
C107 C105 1.406 . S
C107 N108 1.261 . S
N108 Co59 2.214 . S
N108 C106 1.325 . S
N108 C107 1.261 . S
C109 H79 0.931 . S
C109 C106 1.357 . S
C109 C110 1.312 . S
C110 H81 0.930 . S
C110 C105 1.261 . S
C110 C109 1.312 . S
C111 O83 1.214 . S
C111 O91 1.234 . S
C112 H84 0.929 . S
C112 C115 1.391 . S
C112 C117 1.391 . S
C113 H85 0.929 . S
C113 C114 1.390 . S
C113 N116 1.391 . S
C114 H86 0.930 . S
C114 C113 1.390 . S
C114 C115 1.392 . S
C115 H87 0.929 . S
C115 C112 1.391 . S
C115 C114 1.392 . S
N116 Co60 2.257 1_554 S
N116 C113 1.391 . S
N116 C117 1.388 . S
C117 H88 0.930 . S
C117 C112 1.391 . S
C117 N116 1.388 . S
Co118 O120 2.143 . S
Co118 O126 2.074 . S
Co118 O129 2.093 . S
Co118 O142 2.097 . S
Co118 N159 2.151 . S
Co118 N167 2.214 . S
Co119 O120 2.160 1_556 S
Co119 O125 2.058 1_556 S
Co119 O135 2.057 . S
Co119 O150 2.037 1_556 S
Co119 N154 2.145 . S
Co119 N175 2.257 . S
O120 Co118 2.143 . S
O120 Co119 2.160 1_554 S
C121 O122 1.278 . S
C121 O129 1.224 . S
O122 C121 1.278 . S
C123 O124 1.245 1_556 S
C123 O135 1.232 . S
O124 C123 1.245 1_554 S
O125 Co119 2.058 1_554 S
O125 C151 1.269 . S
O126 Co118 2.074 . S
O126 C151 1.257 . S
H127 C152 0.930 . S
H128 C158 0.930 . S
O129 Co118 2.093 . S
O129 C121 1.224 . S
H130 C162 0.929 . S
H131 C164 0.930 . S
H132 C165 0.930 . S
H133 C163 0.929 . S
H134 C166 0.928 . S
O135 Co119 2.057 . S
O135 C123 1.232 . S
H136 C155 0.929 . S
H137 C156 0.929 . S
H138 C168 0.931 . S
H139 C160 0.929 . S
H140 C169 0.930 . S
H141 C161 0.931 . S
O142 Co118 2.097 . S
O142 C170 1.214 . S
H143 C171 0.929 . S
H144 C172 0.929 . S
H145 C173 0.930 . S
H146 C174 0.929 . S
H147 C176 0.930 . S
H148 C153 0.930 . S
H149 C157 0.930 . S
O150 Co119 2.037 1_554 S
O150 C170 1.234 . S
C151 O125 1.269 . S
C151 O126 1.257 . S
C152 H127 0.930 . S
C152 C155 1.388 . S
C152 C157 1.418 . S
C153 H148 0.930 . S
C153 C156 1.404 . S
C153 C157 1.353 . S
N154 Co119 2.145 . S
N154 C155 1.397 . S
N154 C156 1.334 . S
C155 H136 0.929 . S
C155 C152 1.388 . S
C155 N154 1.397 . S
C156 H137 0.929 . S
C156 C153 1.404 . S
C156 N154 1.334 . S
C157 H149 0.930 . S
C157 C152 1.418 . S
C157 C153 1.353 . S
C158 H128 0.930 . S
C158 N159 1.330 . S
C158 C160 1.446 . S
N159 Co118 2.151 . S
N159 C158 1.330 . S
N159 C163 1.418 . S
C160 H139 0.929 . S
C160 C158 1.446 . S
C160 C161 1.332 . S
C161 H141 0.931 . S
C161 C160 1.332 . S
C161 C162 1.267 . S
C162 H130 0.929 . S
C162 C161 1.267 . S
C162 C163 1.251 . S
C163 H133 0.929 . S
C163 N159 1.418 . S
C163 C162 1.251 . S
C164 H131 0.930 . S
C164 C166 1.406 . S
C164 C169 1.261 . S
C165 H132 0.930 . S
C165 N167 1.325 . S
C165 C168 1.357 . S
C166 H134 0.928 . S
C166 C164 1.406 . S
C166 N167 1.261 . S
N167 Co118 2.214 . S
N167 C165 1.325 . S
N167 C166 1.261 . S
C168 H138 0.931 . S
C168 C165 1.357 . S
C168 C169 1.312 . S
C169 H140 0.930 . S
C169 C164 1.261 . S
C169 C168 1.312 . S
C170 O142 1.214 . S
C170 O150 1.234 . S
C171 H143 0.929 . S
C171 C174 1.391 . S
C171 C176 1.391 . S
C172 H144 0.929 . S
C172 C173 1.390 . S
C172 N175 1.391 . S
C173 H145 0.930 . S
C173 C172 1.390 . S
C173 C174 1.392 . S
C174 H146 0.929 . S
C174 C171 1.391 . S
C174 C173 1.392 . S
N175 Co119 2.257 . S
N175 C172 1.391 . S
N175 C176 1.388 . S
C176 H147 0.930 . S
C176 C171 1.391 . S
C176 N175 1.388 . S
Co177 O179 2.143 . S
Co177 O185 2.074 . S
Co177 O188 2.093 . S
Co177 O201 2.097 . S
Co177 N218 2.151 . S
Co177 N226 2.214 . S
Co178 O179 2.160 . S
Co178 O184 2.058 . S
Co178 O194 2.057 . S
Co178 O209 2.037 . S
Co178 N213 2.145 1_556 S
Co178 N234 2.257 1_556 S
O179 Co177 2.143 . S
O179 Co178 2.160 . S
C180 O181 1.278 . S
C180 O188 1.224 . S
O181 C180 1.278 . S
C182 O183 1.245 . S
C182 O194 1.232 . S
O183 C182 1.245 . S
O184 Co178 2.058 . S
O184 C210 1.269 . S
O185 Co177 2.074 . S
O185 C210 1.257 . S
H186 C211 0.930 . S
H187 C217 0.930 . S
O188 Co177 2.093 . S
O188 C180 1.224 . S
H189 C221 0.929 . S
H190 C223 0.930 . S
H191 C224 0.930 . S
H192 C222 0.929 . S
H193 C225 0.928 . S
O194 Co178 2.057 . S
O194 C182 1.232 . S
H195 C214 0.929 . S
H196 C215 0.929 . S
H197 C227 0.931 . S
H198 C219 0.929 . S
H199 C228 0.930 . S
H200 C220 0.931 . S
O201 Co177 2.097 . S
O201 C229 1.214 . S
H202 C230 0.929 . S
H203 C231 0.929 . S
H204 C232 0.930 . S
H205 C233 0.929 . S
H206 C235 0.930 . S
H207 C212 0.930 . S
H208 C216 0.930 . S
O209 Co178 2.037 . S
O209 C229 1.234 . S
C210 O184 1.269 . S
C210 O185 1.257 . S
C211 H186 0.930 . S
C211 C214 1.388 1_554 S
C211 C216 1.418 . S
C212 H207 0.930 . S
C212 C215 1.404 . S
C212 C216 1.353 . S
N213 Co178 2.145 1_554 S
N213 C214 1.397 1_554 S
N213 C215 1.334 . S
C214 H195 0.929 . S
C214 C211 1.388 1_556 S
C214 N213 1.397 1_556 S
C215 H196 0.929 . S
C215 C212 1.404 . S
C215 N213 1.334 . S
C216 H208 0.930 . S
C216 C211 1.418 . S
C216 C212 1.353 . S
C217 H187 0.930 . S
C217 N218 1.330 . S
C217 C219 1.446 . S
N218 Co177 2.151 . S
N218 C217 1.330 . S
N218 C222 1.418 . S
C219 H198 0.929 . S
C219 C217 1.446 . S
C219 C220 1.332 . S
C220 H200 0.931 . S
C220 C219 1.332 . S
C220 C221 1.267 . S
C221 H189 0.929 . S
C221 C220 1.267 . S
C221 C222 1.251 . S
C222 H192 0.929 . S
C222 N218 1.418 . S
C222 C221 1.251 . S
C223 H190 0.930 . S
C223 C225 1.406 . S
C223 C228 1.261 . S
C224 H191 0.930 . S
C224 N226 1.325 . S
C224 C227 1.357 . S
C225 H193 0.928 . S
C225 C223 1.406 . S
C225 N226 1.261 . S
N226 Co177 2.214 . S
N226 C224 1.325 . S
N226 C225 1.261 . S
C227 H197 0.931 . S
C227 C224 1.357 . S
C227 C228 1.312 . S
C228 H199 0.930 . S
C228 C223 1.261 . S
C228 C227 1.312 . S
C229 O201 1.214 . S
C229 O209 1.234 . S
C230 H202 0.929 . S
C230 C233 1.391 . S
C230 C235 1.391 . S
C231 H203 0.929 . S
C231 C232 1.390 . S
C231 N234 1.391 . S
C232 H204 0.930 . S
C232 C231 1.390 . S
C232 C233 1.392 . S
C233 H205 0.929 . S
C233 C230 1.391 . S
C233 C232 1.392 . S
N234 Co178 2.257 1_554 S
N234 C231 1.391 . S
N234 C235 1.388 . S
C235 H206 0.930 . S
C235 C230 1.391 . S
C235 N234 1.388 . S
Co236 O238 2.143 . S
Co236 O244 2.074 . S
Co236 O247 2.093 . S
Co236 O260 2.097 . S
Co236 N277 2.151 . S
Co236 N285 2.214 . S
Co237 O238 2.160 . S
Co237 O243 2.058 . S
Co237 O253 2.057 . S
Co237 O268 2.037 . S
Co237 N272 2.145 . S
Co237 N293 2.257 . S
O238 Co236 2.143 . S
O238 Co237 2.160 . S
C239 O240 1.278 . S
C239 O247 1.224 . S
O240 C239 1.278 . S
C241 O242 1.245 . S
C241 O253 1.232 . S
O242 C241 1.245 . S
O243 Co237 2.058 . S
O243 C269 1.269 . S
O244 Co236 2.074 . S
O244 C269 1.257 . S
H245 C270 0.930 . S
H246 C276 0.930 . S
O247 Co236 2.093 . S
O247 C239 1.224 . S
H248 C280 0.929 . S
H249 C282 0.930 . S
H250 C283 0.930 . S
H251 C281 0.929 . S
H252 C284 0.928 . S
O253 Co237 2.057 . S
O253 C241 1.232 . S
H254 C273 0.929 . S
H255 C274 0.929 . S
H256 C286 0.931 . S
H257 C278 0.929 . S
H258 C287 0.930 . S
H259 C279 0.931 . S
O260 Co236 2.097 . S
O260 C288 1.214 . S
H261 C289 0.929 . S
H262 C290 0.929 . S
H263 C291 0.930 . S
H264 C292 0.929 . S
H265 C294 0.930 . S
H266 C271 0.930 . S
H267 C275 0.930 . S
O268 Co237 2.037 . S
O268 C288 1.234 . S
C269 O243 1.269 . S
C269 O244 1.257 . S
C270 H245 0.930 . S
C270 C273 1.388 . S
C270 C275 1.418 . S
C271 H266 0.930 . S
C271 C274 1.404 . S
C271 C275 1.353 . S
N272 Co237 2.145 . S
N272 C273 1.397 . S
N272 C274 1.334 . S
C273 H254 0.929 . S
C273 C270 1.388 . S
C273 N272 1.397 . S
C274 H255 0.929 . S
C274 C271 1.404 . S
C274 N272 1.334 . S
C275 H267 0.930 . S
C275 C270 1.418 . S
C275 C271 1.353 . S
C276 H246 0.930 . S
C276 N277 1.330 . S
C276 C278 1.446 . S
N277 Co236 2.151 . S
N277 C276 1.330 . S
N277 C281 1.418 1_554 S
C278 H257 0.929 . S
C278 C276 1.446 . S
C278 C279 1.332 1_554 S
C279 H259 0.931 . S
C279 C278 1.332 1_556 S
C279 C280 1.267 . S
C280 H248 0.929 . S
C280 C279 1.267 . S
C280 C281 1.251 . S
C281 H251 0.929 . S
C281 N277 1.418 1_556 S
C281 C280 1.251 . S
C282 H249 0.930 . S
C282 C284 1.406 . S
C282 C287 1.261 . S
C283 H250 0.930 . S
C283 N285 1.325 . S
C283 C286 1.357 1_554 S
C284 H252 0.928 . S
C284 C282 1.406 . S
C284 N285 1.261 1_556 S
N285 Co236 2.214 . S
N285 C283 1.325 . S
N285 C284 1.261 1_554 S
C286 H256 0.931 . S
C286 C283 1.357 1_556 S
C286 C287 1.312 . S
C287 H258 0.930 . S
C287 C282 1.261 . S
C287 C286 1.312 . S
C288 O260 1.214 . S
C288 O268 1.234 . S
C289 H261 0.929 . S
C289 C292 1.391 . S
C289 C294 1.391 . S
C290 H262 0.929 . S
C290 C291 1.390 . S
C290 N293 1.391 . S
C291 H263 0.930 . S
C291 C290 1.390 . S
C291 C292 1.392 . S
C292 H264 0.929 . S
C292 C289 1.391 . S
C292 C291 1.392 . S
N293 Co237 2.257 . S
N293 C290 1.391 . S
N293 C294 1.388 . S
C294 H265 0.930 . S
C294 C289 1.391 . S
C294 N293 1.388 . S
Co295 O297 2.143 . S
Co295 O303 2.074 . S
Co295 O306 2.093 . S
Co295 O319 2.097 . S
Co295 N336 2.151 1_556 S
Co295 N344 2.214 1_556 S
Co296 O297 2.160 . S
Co296 O302 2.058 . S
Co296 O312 2.057 . S
Co296 O327 2.037 . S
Co296 N331 2.145 . S
Co296 N352 2.257 . S
O297 Co295 2.143 . S
O297 Co296 2.160 . S
C298 O299 1.278 . S
C298 O306 1.224 . S
O299 C298 1.278 . S
C300 O301 1.245 . S
C300 O312 1.232 . S
O301 C300 1.245 . S
O302 Co296 2.058 . S
O302 C328 1.269 . S
O303 Co295 2.074 . S
O303 C328 1.257 . S
H304 C329 0.930 . S
H305 C335 0.930 . S
O306 Co295 2.093 . S
O306 C298 1.224 . S
H307 C339 0.929 . S
H308 C341 0.930 . S
H309 C342 0.930 . S
H310 C340 0.929 . S
H311 C343 0.928 . S
O312 Co296 2.057 . S
O312 C300 1.232 . S
H313 C332 0.929 . S
H314 C333 0.929 . S
H315 C345 0.931 . S
H316 C337 0.929 . S
H317 C346 0.930 . S
H318 C338 0.931 . S
O319 Co295 2.097 . S
O319 C347 1.214 . S
H320 C348 0.929 . S
H321 C349 0.929 . S
H322 C350 0.930 . S
H323 C351 0.929 . S
H324 C353 0.930 . S
H325 C330 0.930 . S
H326 C334 0.930 . S
O327 Co296 2.037 . S
O327 C347 1.234 . S
C328 O302 1.269 . S
C328 O303 1.257 . S
C329 H304 0.930 . S
C329 C332 1.388 . S
C329 C334 1.418 . S
C330 H325 0.930 . S
C330 C333 1.404 . S
C330 C334 1.353 . S
N331 Co296 2.145 . S
N331 C332 1.397 . S
N331 C333 1.334 . S
C332 H313 0.929 . S
C332 C329 1.388 . S
C332 N331 1.397 . S
C333 H314 0.929 . S
C333 C330 1.404 . S
C333 N331 1.334 . S
C334 H326 0.930 . S
C334 C329 1.418 . S
C334 C330 1.353 . S
C335 H305 0.930 . S
C335 N336 1.330 1_556 S
C335 C337 1.446 1_556 S
N336 Co295 2.151 1_554 S
N336 C335 1.330 1_554 S
N336 C340 1.418 . S
C337 H316 0.929 . S
C337 C335 1.446 1_554 S
C337 C338 1.332 . S
C338 H318 0.931 . S
C338 C337 1.332 . S
C338 C339 1.267 . S
C339 H307 0.929 . S
C339 C338 1.267 . S
C339 C340 1.251 . S
C340 H310 0.929 . S
C340 N336 1.418 . S
C340 C339 1.251 . S
C341 H308 0.930 . S
C341 C343 1.406 . S
C341 C346 1.261 . S
C342 H309 0.930 . S
C342 N344 1.325 . S
C342 C345 1.357 . S
C343 H311 0.928 . S
C343 C341 1.406 . S
C343 N344 1.261 . S
N344 Co295 2.214 1_554 S
N344 C342 1.325 . S
N344 C343 1.261 . S
C345 H315 0.931 . S
C345 C342 1.357 . S
C345 C346 1.312 . S
C346 H317 0.930 . S
C346 C341 1.261 . S
C346 C345 1.312 . S
C347 O319 1.214 . S
C347 O327 1.234 . S
C348 H320 0.929 . S
C348 C351 1.391 . S
C348 C353 1.391 . S
C349 H321 0.929 . S
C349 C350 1.390 . S
C349 N352 1.391 . S
C350 H322 0.930 . S
C350 C349 1.390 . S
C350 C351 1.392 . S
C351 H323 0.929 . S
C351 C348 1.391 . S
C351 C350 1.392 . S
N352 Co296 2.257 . S
N352 C349 1.391 . S
N352 C353 1.388 . S
C353 H324 0.930 . S
C353 C348 1.391 . S
C353 N352 1.388 . S
Co354 O356 2.143 . S
Co354 O362 2.074 . S
Co354 O365 2.093 . S
Co354 O378 2.097 . S
Co354 N395 2.151 . S
Co354 N403 2.214 . S
Co355 O356 2.160 . S
Co355 O361 2.058 . S
Co355 O371 2.057 . S
Co355 O386 2.037 . S
Co355 N390 2.145 . S
Co355 N411 2.257 . S
O356 Co354 2.143 . S
O356 Co355 2.160 . S
C357 O358 1.278 . S
C357 O365 1.224 . S
O358 C357 1.278 . S
C359 O360 1.245 . S
C359 O371 1.232 . S
O360 C359 1.245 . S
O361 Co355 2.058 . S
O361 C387 1.269 . S
O362 Co354 2.074 . S
O362 C387 1.257 . S
H363 C388 0.930 . S
H364 C394 0.930 . S
O365 Co354 2.093 . S
O365 C357 1.224 . S
H366 C398 0.929 . S
H367 C400 0.930 . S
H368 C401 0.930 . S
H369 C399 0.929 . S
H370 C402 0.928 . S
O371 Co355 2.057 . S
O371 C359 1.232 . S
H372 C391 0.929 . S
H373 C392 0.929 . S
H374 C404 0.931 . S
H375 C396 0.929 . S
H376 C405 0.930 . S
H377 C397 0.931 . S
O378 Co354 2.097 . S
O378 C406 1.214 . S
H379 C407 0.929 . S
H380 C408 0.929 . S
H381 C409 0.930 . S
H382 C410 0.929 . S
H383 C412 0.930 . S
H384 C389 0.930 . S
H385 C393 0.930 . S
O386 Co355 2.037 . S
O386 C406 1.234 . S
C387 O361 1.269 . S
C387 O362 1.257 . S
C388 H363 0.930 . S
C388 C391 1.388 . S
C388 C393 1.418 . S
C389 H384 0.930 . S
C389 C392 1.404 . S
C389 C393 1.353 . S
N390 Co355 2.145 . S
N390 C391 1.397 . S
N390 C392 1.334 . S
C391 H372 0.929 . S
C391 C388 1.388 . S
C391 N390 1.397 . S
C392 H373 0.929 . S
C392 C389 1.404 . S
C392 N390 1.334 . S
C393 H385 0.930 . S
C393 C388 1.418 . S
C393 C389 1.353 . S
C394 H364 0.930 . S
C394 N395 1.330 . S
C394 C396 1.446 . S
N395 Co354 2.151 . S
N395 C394 1.330 . S
N395 C399 1.418 1_554 S
C396 H375 0.929 . S
C396 C394 1.446 . S
C396 C397 1.332 1_554 S
C397 H377 0.931 . S
C397 C396 1.332 1_556 S
C397 C398 1.267 . S
C398 H366 0.929 . S
C398 C397 1.267 . S
C398 C399 1.251 . S
C399 H369 0.929 . S
C399 N395 1.418 1_556 S
C399 C398 1.251 . S
C400 H367 0.930 . S
C400 C402 1.406 . S
C400 C405 1.261 . S
C401 H368 0.930 . S
C401 N403 1.325 . S
C401 C404 1.357 1_554 S
C402 H370 0.928 . S
C402 C400 1.406 . S
C402 N403 1.261 1_556 S
N403 Co354 2.214 . S
N403 C401 1.325 . S
N403 C402 1.261 1_554 S
C404 H374 0.931 . S
C404 C401 1.357 1_556 S
C404 C405 1.312 . S
C405 H376 0.930 . S
C405 C400 1.261 . S
C405 C404 1.312 . S
C406 O378 1.214 . S
C406 O386 1.234 . S
C407 H379 0.929 . S
C407 C410 1.391 . S
C407 C412 1.391 . S
C408 H380 0.929 . S
C408 C409 1.390 . S
C408 N411 1.391 . S
C409 H381 0.930 . S
C409 C408 1.390 . S
C409 C410 1.392 . S
C410 H382 0.929 . S
C410 C407 1.391 . S
C410 C409 1.392 . S
N411 Co355 2.257 . S
N411 C408 1.391 . S
N411 C412 1.388 . S
C412 H383 0.930 . S
C412 C407 1.391 . S
C412 N411 1.388 . S
Co413 O415 2.143 . S
Co413 O421 2.074 . S
Co413 O424 2.093 . S
Co413 O437 2.097 . S
Co413 N454 2.151 1_556 S
Co413 N462 2.214 1_556 S
Co414 O415 2.160 . S
Co414 O420 2.058 . S
Co414 O430 2.057 . S
Co414 O445 2.037 . S
Co414 N449 2.145 . S
Co414 N470 2.257 . S
O415 Co413 2.143 . S
O415 Co414 2.160 . S
C416 O417 1.278 . S
C416 O424 1.224 . S
O417 C416 1.278 . S
C418 O419 1.245 . S
C418 O430 1.232 . S
O419 C418 1.245 . S
O420 Co414 2.058 . S
O420 C446 1.269 . S
O421 Co413 2.074 . S
O421 C446 1.257 . S
H422 C447 0.930 . S
H423 C453 0.930 . S
O424 Co413 2.093 . S
O424 C416 1.224 . S
H425 C457 0.929 . S
H426 C459 0.930 . S
H427 C460 0.930 . S
H428 C458 0.929 . S
H429 C461 0.928 . S
O430 Co414 2.057 . S
O430 C418 1.232 . S
H431 C450 0.929 . S
H432 C451 0.929 . S
H433 C463 0.931 . S
H434 C455 0.929 . S
H435 C464 0.930 . S
H436 C456 0.931 . S
O437 Co413 2.097 . S
O437 C465 1.214 . S
H438 C466 0.929 . S
H439 C467 0.929 . S
H440 C468 0.930 . S
H441 C469 0.929 . S
H442 C471 0.930 . S
H443 C448 0.930 . S
H444 C452 0.930 . S
O445 Co414 2.037 . S
O445 C465 1.234 . S
C446 O420 1.269 . S
C446 O421 1.257 . S
C447 H422 0.930 . S
C447 C450 1.388 . S
C447 C452 1.418 . S
C448 H443 0.930 . S
C448 C451 1.404 . S
C448 C452 1.353 . S
N449 Co414 2.145 . S
N449 C450 1.397 . S
N449 C451 1.334 . S
C450 H431 0.929 . S
C450 C447 1.388 . S
C450 N449 1.397 . S
C451 H432 0.929 . S
C451 C448 1.404 . S
C451 N449 1.334 . S
C452 H444 0.930 . S
C452 C447 1.418 . S
C452 C448 1.353 . S
C453 H423 0.930 . S
C453 N454 1.330 1_556 S
C453 C455 1.446 1_556 S
N454 Co413 2.151 1_554 S
N454 C453 1.330 1_554 S
N454 C458 1.418 . S
C455 H434 0.929 . S
C455 C453 1.446 1_554 S
C455 C456 1.332 . S
C456 H436 0.931 . S
C456 C455 1.332 . S
C456 C457 1.267 . S
C457 H425 0.929 . S
C457 C456 1.267 . S
C457 C458 1.251 . S
C458 H428 0.929 . S
C458 N454 1.418 . S
C458 C457 1.251 . S
C459 H426 0.930 . S
C459 C461 1.406 . S
C459 C464 1.261 . S
C460 H427 0.930 . S
C460 N462 1.325 . S
C460 C463 1.357 . S
C461 H429 0.928 . S
C461 C459 1.406 . S
C461 N462 1.261 . S
N462 Co413 2.214 1_554 S
N462 C460 1.325 . S
N462 C461 1.261 . S
C463 H433 0.931 . S
C463 C460 1.357 . S
C463 C464 1.312 . S
C464 H435 0.930 . S
C464 C459 1.261 . S
C464 C463 1.312 . S
C465 O437 1.214 . S
C465 O445 1.234 . S
C466 H438 0.929 . S
C466 C469 1.391 . S
C466 C471 1.391 . S
C467 H439 0.929 . S
C467 C468 1.390 . S
C467 N470 1.391 . S
C468 H440 0.930 . S
C468 C467 1.390 . S
C468 C469 1.392 . S
C469 H441 0.929 . S
C469 C466 1.391 . S
C469 C468 1.392 . S
N470 Co414 2.257 . S
N470 C467 1.391 . S
N470 C471 1.388 . S
C471 H442 0.930 . S
C471 C466 1.391 . S
C471 N470 1.388 . S
Co472 O474 2.143 . S
Co472 O480 2.074 . S
Co472 O483 2.093 . S
Co472 O496 2.097 . S
Co472 N513 2.151 . S
Co472 N521 2.214 . S
Co473 O474 2.160 . S
Co473 O479 2.058 . S
Co473 O489 2.057 . S
Co473 O504 2.037 . S
Co473 N508 2.145 . S
Co473 N529 2.257 . S
O474 Co472 2.143 . S
O474 Co473 2.160 . S
C475 O476 1.278 . S
C475 O483 1.224 . S
O476 C475 1.278 . S
C477 O478 1.245 . S
C477 O489 1.232 . S
O478 C477 1.245 . S
O479 Co473 2.058 . S
O479 C505 1.269 . S
O480 Co472 2.074 . S
O480 C505 1.257 . S
H481 C506 0.930 . S
H482 C512 0.930 . S
O483 Co472 2.093 . S
O483 C475 1.224 . S
H484 C516 0.929 . S
H485 C518 0.930 . S
H486 C519 0.930 . S
H487 C517 0.929 . S
H488 C520 0.928 . S
O489 Co473 2.057 . S
O489 C477 1.232 . S
H490 C509 0.929 . S
H491 C510 0.929 . S
H492 C522 0.931 . S
H493 C514 0.929 . S
H494 C523 0.930 . S
H495 C515 0.931 . S
O496 Co472 2.097 . S
O496 C524 1.214 . S
H497 C525 0.929 . S
H498 C526 0.929 . S
H499 C527 0.930 . S
H500 C528 0.929 . S
H501 C530 0.930 . S
H502 C507 0.930 . S
H503 C511 0.930 . S
O504 Co473 2.037 . S
O504 C524 1.234 . S
C505 O479 1.269 . S
C505 O480 1.257 . S
C506 H481 0.930 . S
C506 C509 1.388 . S
C506 C511 1.418 . S
C507 H502 0.930 . S
C507 C510 1.404 . S
C507 C511 1.353 . S
N508 Co473 2.145 . S
N508 C509 1.397 . S
N508 C510 1.334 . S
C509 H490 0.929 . S
C509 C506 1.388 . S
C509 N508 1.397 . S
C510 H491 0.929 . S
C510 C507 1.404 . S
C510 N508 1.334 . S
C511 H503 0.930 . S
C511 C506 1.418 . S
C511 C507 1.353 . S
C512 H482 0.930 . S
C512 N513 1.330 . S
C512 C514 1.446 . S
N513 Co472 2.151 . S
N513 C512 1.330 . S
N513 C517 1.418 . S
C514 H493 0.929 . S
C514 C512 1.446 . S
C514 C515 1.332 . S
C515 H495 0.931 . S
C515 C514 1.332 . S
C515 C516 1.267 . S
C516 H484 0.929 . S
C516 C515 1.267 . S
C516 C517 1.251 . S
C517 H487 0.929 . S
C517 N513 1.418 . S
C517 C516 1.251 . S
C518 H485 0.930 . S
C518 C520 1.406 . S
C518 C523 1.261 . S
C519 H486 0.930 . S
C519 N521 1.325 . S
C519 C522 1.357 . S
C520 H488 0.928 . S
C520 C518 1.406 . S
C520 N521 1.261 . S
N521 Co472 2.214 . S
N521 C519 1.325 . S
N521 C520 1.261 . S
C522 H492 0.931 . S
C522 C519 1.357 . S
C522 C523 1.312 . S
C523 H494 0.930 . S
C523 C518 1.261 . S
C523 C522 1.312 . S
C524 O496 1.214 . S
C524 O504 1.234 . S
C525 H497 0.929 . S
C525 C528 1.391 . S
C525 C530 1.391 . S
C526 H498 0.929 . S
C526 C527 1.390 . S
C526 N529 1.391 . S
C527 H499 0.930 . S
C527 C526 1.390 . S
C527 C528 1.392 . S
C528 H500 0.929 . S
C528 C525 1.391 . S
C528 C527 1.392 . S
N529 Co473 2.257 . S
N529 C526 1.391 . S
N529 C530 1.388 . S
C530 H501 0.930 . S
C530 C525 1.391 . S
C530 N529 1.388 . S
Co531 O533 2.143 . S
Co531 O539 2.074 . S
Co531 O542 2.093 . S
Co531 O555 2.097 . S
Co531 N572 2.151 . S
Co531 N580 2.214 . S
Co532 O533 2.160 . S
Co532 O538 2.058 . S
Co532 O548 2.057 . S
Co532 O563 2.037 . S
Co532 N567 2.145 . S
Co532 N588 2.257 . S
O533 Co531 2.143 . S
O533 Co532 2.160 . S
C534 O535 1.278 . S
C534 O542 1.224 . S
O535 C534 1.278 . S
C536 O537 1.245 . S
C536 O548 1.232 . S
O537 C536 1.245 . S
O538 Co532 2.058 . S
O538 C564 1.269 . S
O539 Co531 2.074 . S
O539 C564 1.257 . S
H540 C565 0.930 . S
H541 C571 0.930 . S
O542 Co531 2.093 . S
O542 C534 1.224 . S
H543 C575 0.929 . S
H544 C577 0.930 . S
H545 C578 0.930 . S
H546 C576 0.929 . S
H547 C579 0.928 . S
O548 Co532 2.057 . S
O548 C536 1.232 . S
H549 C568 0.929 . S
H550 C569 0.929 . S
H551 C581 0.931 . S
H552 C573 0.929 . S
H553 C582 0.930 . S
H554 C574 0.931 . S
O555 Co531 2.097 . S
O555 C583 1.214 . S
H556 C584 0.929 . S
H557 C585 0.929 . S
H558 C586 0.930 . S
H559 C587 0.929 . S
H560 C589 0.930 . S
H561 C566 0.930 . S
H562 C570 0.930 . S
O563 Co532 2.037 . S
O563 C583 1.234 . S
C564 O538 1.269 . S
C564 O539 1.257 . S
C565 H540 0.930 . S
C565 C568 1.388 . S
C565 C570 1.418 . S
C566 H561 0.930 . S
C566 C569 1.404 . S
C566 C570 1.353 . S
N567 Co532 2.145 . S
N567 C568 1.397 . S
N567 C569 1.334 . S
C568 H549 0.929 . S
C568 C565 1.388 . S
C568 N567 1.397 . S
C569 H550 0.929 . S
C569 C566 1.404 . S
C569 N567 1.334 . S
C570 H562 0.930 . S
C570 C565 1.418 . S
C570 C566 1.353 . S
C571 H541 0.930 . S
C571 N572 1.330 . S
C571 C573 1.446 . S
N572 Co531 2.151 . S
N572 C571 1.330 . S
N572 C576 1.418 . S
C573 H552 0.929 . S
C573 C571 1.446 . S
C573 C574 1.332 . S
C574 H554 0.931 . S
C574 C573 1.332 . S
C574 C575 1.267 . S
C575 H543 0.929 . S
C575 C574 1.267 . S
C575 C576 1.251 . S
C576 H546 0.929 . S
C576 N572 1.418 . S
C576 C575 1.251 . S
C577 H544 0.930 . S
C577 C579 1.406 . S
C577 C582 1.261 . S
C578 H545 0.930 . S
C578 N580 1.325 . S
C578 C581 1.357 . S
C579 H547 0.928 . S
C579 C577 1.406 . S
C579 N580 1.261 . S
N580 Co531 2.214 . S
N580 C578 1.325 . S
N580 C579 1.261 . S
C581 H551 0.931 . S
C581 C578 1.357 . S
C581 C582 1.312 . S
C582 H553 0.930 . S
C582 C577 1.261 . S
C582 C581 1.312 . S
C583 O555 1.214 . S
C583 O563 1.234 . S
C584 H556 0.929 . S
C584 C587 1.391 . S
C584 C589 1.391 . S
C585 H557 0.929 . S
C585 C586 1.390 . S
C585 N588 1.391 . S
C586 H558 0.930 . S
C586 C585 1.390 . S
C586 C587 1.392 . S
C587 H559 0.929 . S
C587 C584 1.391 . S
C587 C586 1.392 . S
N588 Co532 2.257 . S
N588 C585 1.391 . S
N588 C589 1.388 . S
C589 H560 0.930 . S
C589 C584 1.391 . S
C589 N588 1.388 . S
Co590 O592 2.143 . S
Co590 O598 2.074 . S
Co590 O601 2.093 . S
Co590 O614 2.097 . S
Co590 N631 2.151 . S
Co590 N639 2.214 . S
Co591 O592 2.160 . S
Co591 O597 2.058 . S
Co591 O607 2.057 . S
Co591 O622 2.037 . S
Co591 N626 2.145 . S
Co591 N647 2.257 . S
O592 Co590 2.143 . S
O592 Co591 2.160 . S
C593 O594 1.278 . S
C593 O601 1.224 . S
O594 C593 1.278 . S
C595 O596 1.245 . S
C595 O607 1.232 . S
O596 C595 1.245 . S
O597 Co591 2.058 . S
O597 C623 1.269 . S
O598 Co590 2.074 . S
O598 C623 1.257 . S
H599 C624 0.930 . S
H600 C630 0.930 . S
O601 Co590 2.093 . S
O601 C593 1.224 . S
H602 C634 0.929 . S
H603 C636 0.930 . S
H604 C637 0.930 . S
H605 C635 0.929 . S
H606 C638 0.928 . S
O607 Co591 2.057 . S
O607 C595 1.232 . S
H608 C627 0.929 . S
H609 C628 0.929 . S
H610 C640 0.931 . S
H611 C632 0.929 . S
H612 C641 0.930 . S
H613 C633 0.931 . S
O614 Co590 2.097 . S
O614 C642 1.214 . S
H615 C643 0.929 . S
H616 C644 0.929 . S
H617 C645 0.930 . S
H618 C646 0.929 . S
H619 C648 0.930 . S
H620 C625 0.930 . S
H621 C629 0.930 . S
O622 Co591 2.037 . S
O622 C642 1.234 . S
C623 O597 1.269 . S
C623 O598 1.257 . S
C624 H599 0.930 . S
C624 C627 1.388 . S
C624 C629 1.418 . S
C625 H620 0.930 . S
C625 C628 1.404 . S
C625 C629 1.353 . S
N626 Co591 2.145 . S
N626 C627 1.397 . S
N626 C628 1.334 . S
C627 H608 0.929 . S
C627 C624 1.388 . S
C627 N626 1.397 . S
C628 H609 0.929 . S
C628 C625 1.404 . S
C628 N626 1.334 . S
C629 H621 0.930 . S
C629 C624 1.418 . S
C629 C625 1.353 . S
C630 H600 0.930 . S
C630 N631 1.330 . S
C630 C632 1.446 . S
N631 Co590 2.151 . S
N631 C630 1.330 . S
N631 C635 1.418 . S
C632 H611 0.929 . S
C632 C630 1.446 . S
C632 C633 1.332 . S
C633 H613 0.931 . S
C633 C632 1.332 . S
C633 C634 1.267 . S
C634 H602 0.929 . S
C634 C633 1.267 . S
C634 C635 1.251 . S
C635 H605 0.929 . S
C635 N631 1.418 . S
C635 C634 1.251 . S
C636 H603 0.930 . S
C636 C638 1.406 . S
C636 C641 1.261 . S
C637 H604 0.930 . S
C637 N639 1.325 . S
C637 C640 1.357 . S
C638 H606 0.928 . S
C638 C636 1.406 . S
C638 N639 1.261 . S
N639 Co590 2.214 . S
N639 C637 1.325 . S
N639 C638 1.261 . S
C640 H610 0.931 . S
C640 C637 1.357 . S
C640 C641 1.312 . S
C641 H612 0.930 . S
C641 C636 1.261 . S
C641 C640 1.312 . S
C642 O614 1.214 . S
C642 O622 1.234 . S
C643 H615 0.929 . S
C643 C646 1.391 . S
C643 C648 1.391 . S
C644 H616 0.929 . S
C644 C645 1.390 . S
C644 N647 1.391 . S
C645 H617 0.930 . S
C645 C644 1.390 . S
C645 C646 1.392 . S
C646 H618 0.929 . S
C646 C643 1.391 . S
C646 C645 1.392 . S
N647 Co591 2.257 . S
N647 C644 1.391 . S
N647 C648 1.388 . S
C648 H619 0.930 . S
C648 C643 1.391 . S
C648 N647 1.388 . S
Co649 O651 2.143 . S
Co649 O657 2.074 . S
Co649 O660 2.093 . S
Co649 O673 2.097 . S
Co649 N690 2.151 . S
Co649 N698 2.214 . S
Co650 O651 2.160 . S
Co650 O656 2.058 . S
Co650 O666 2.057 . S
Co650 O681 2.037 . S
Co650 N685 2.145 . S
Co650 N706 2.257 . S
O651 Co649 2.143 . S
O651 Co650 2.160 . S
C652 O653 1.278 . S
C652 O660 1.224 . S
O653 C652 1.278 . S
C654 O655 1.245 . S
C654 O666 1.232 . S
O655 C654 1.245 . S
O656 Co650 2.058 . S
O656 C682 1.269 . S
O657 Co649 2.074 . S
O657 C682 1.257 . S
H658 C683 0.930 . S
H659 C689 0.930 . S
O660 Co649 2.093 . S
O660 C652 1.224 . S
H661 C693 0.929 . S
H662 C695 0.930 . S
H663 C696 0.930 . S
H664 C694 0.929 . S
H665 C697 0.928 . S
O666 Co650 2.057 . S
O666 C654 1.232 . S
H667 C686 0.929 . S
H668 C687 0.929 . S
H669 C699 0.931 . S
H670 C691 0.929 . S
H671 C700 0.930 . S
H672 C692 0.931 . S
O673 Co649 2.097 . S
O673 C701 1.214 . S
H674 C702 0.929 . S
H675 C703 0.929 . S
H676 C704 0.930 . S
H677 C705 0.929 . S
H678 C707 0.930 . S
H679 C684 0.930 . S
H680 C688 0.930 . S
O681 Co650 2.037 . S
O681 C701 1.234 . S
C682 O656 1.269 . S
C682 O657 1.257 . S
C683 H658 0.930 . S
C683 C686 1.388 . S
C683 C688 1.418 . S
C684 H679 0.930 . S
C684 C687 1.404 . S
C684 C688 1.353 . S
N685 Co650 2.145 . S
N685 C686 1.397 . S
N685 C687 1.334 . S
C686 H667 0.929 . S
C686 C683 1.388 . S
C686 N685 1.397 . S
C687 H668 0.929 . S
C687 C684 1.404 . S
C687 N685 1.334 . S
C688 H680 0.930 . S
C688 C683 1.418 . S
C688 C684 1.353 . S
C689 H659 0.930 . S
C689 N690 1.330 . S
C689 C691 1.446 . S
N690 Co649 2.151 . S
N690 C689 1.330 . S
N690 C694 1.418 . S
C691 H670 0.929 . S
C691 C689 1.446 . S
C691 C692 1.332 . S
C692 H672 0.931 . S
C692 C691 1.332 . S
C692 C693 1.267 . S
C693 H661 0.929 . S
C693 C692 1.267 . S
C693 C694 1.251 . S
C694 H664 0.929 . S
C694 N690 1.418 . S
C694 C693 1.251 . S
C695 H662 0.930 . S
C695 C697 1.406 . S
C695 C700 1.261 . S
C696 H663 0.930 . S
C696 N698 1.325 . S
C696 C699 1.357 . S
C697 H665 0.928 . S
C697 C695 1.406 . S
C697 N698 1.261 . S
N698 Co649 2.214 . S
N698 C696 1.325 . S
N698 C697 1.261 . S
C699 H669 0.931 . S
C699 C696 1.357 . S
C699 C700 1.312 . S
C700 H671 0.930 . S
C700 C695 1.261 . S
C700 C699 1.312 . S
C701 O673 1.214 . S
C701 O681 1.234 . S
C702 H674 0.929 . S
C702 C705 1.391 . S
C702 C707 1.391 . S
C703 H675 0.929 . S
C703 C704 1.390 . S
C703 N706 1.391 . S
C704 H676 0.930 . S
C704 C703 1.390 . S
C704 C705 1.392 . S
C705 H677 0.929 . S
C705 C702 1.391 . S
C705 C704 1.392 . S
N706 Co650 2.257 . S
N706 C703 1.391 . S
N706 C707 1.388 . S
C707 H678 0.930 . S
C707 C702 1.391 . S
C707 N706 1.388 . S
Co708 O710 2.143 . S
Co708 O716 2.074 . S
Co708 O719 2.093 . S
Co708 O732 2.097 . S
Co708 N749 2.151 . S
Co708 N757 2.214 . S
Co709 O710 2.160 . S
Co709 O715 2.058 . S
Co709 O725 2.057 . S
Co709 O740 2.037 . S
Co709 N744 2.145 . S
Co709 N765 2.257 . S
O710 Co708 2.143 . S
O710 Co709 2.160 . S
C711 O712 1.278 . S
C711 O719 1.224 . S
O712 C711 1.278 . S
C713 O714 1.245 . S
C713 O725 1.232 . S
O714 C713 1.245 . S
O715 Co709 2.058 . S
O715 C741 1.269 . S
O716 Co708 2.074 . S
O716 C741 1.257 . S
H717 C742 0.930 . S
H718 C748 0.930 . S
O719 Co708 2.093 . S
O719 C711 1.224 . S
H720 C752 0.929 . S
H721 C754 0.930 . S
H722 C755 0.930 . S
H723 C753 0.929 . S
H724 C756 0.928 . S
O725 Co709 2.057 . S
O725 C713 1.232 . S
H726 C745 0.929 . S
H727 C746 0.929 . S
H728 C758 0.931 . S
H729 C750 0.929 . S
H730 C759 0.930 . S
H731 C751 0.931 . S
O732 Co708 2.097 . S
O732 C760 1.214 . S
H733 C761 0.929 . S
H734 C762 0.929 . S
H735 C763 0.930 . S
H736 C764 0.929 . S
H737 C766 0.930 . S
H738 C743 0.930 . S
H739 C747 0.930 . S
O740 Co709 2.037 . S
O740 C760 1.234 . S
C741 O715 1.269 . S
C741 O716 1.257 . S
C742 H717 0.930 . S
C742 C745 1.388 . S
C742 C747 1.418 . S
C743 H738 0.930 . S
C743 C746 1.404 . S
C743 C747 1.353 . S
N744 Co709 2.145 . S
N744 C745 1.397 . S
N744 C746 1.334 . S
C745 H726 0.929 . S
C745 C742 1.388 . S
C745 N744 1.397 . S
C746 H727 0.929 . S
C746 C743 1.404 . S
C746 N744 1.334 . S
C747 H739 0.930 . S
C747 C742 1.418 . S
C747 C743 1.353 . S
C748 H718 0.930 . S
C748 N749 1.330 . S
C748 C750 1.446 . S
N749 Co708 2.151 . S
N749 C748 1.330 . S
N749 C753 1.418 . S
C750 H729 0.929 . S
C750 C748 1.446 . S
C750 C751 1.332 . S
C751 H731 0.931 . S
C751 C750 1.332 . S
C751 C752 1.267 . S
C752 H720 0.929 . S
C752 C751 1.267 . S
C752 C753 1.251 . S
C753 H723 0.929 . S
C753 N749 1.418 . S
C753 C752 1.251 . S
C754 H721 0.930 . S
C754 C756 1.406 . S
C754 C759 1.261 . S
C755 H722 0.930 . S
C755 N757 1.325 . S
C755 C758 1.357 . S
C756 H724 0.928 . S
C756 C754 1.406 . S
C756 N757 1.261 . S
N757 Co708 2.214 . S
N757 C755 1.325 . S
N757 C756 1.261 . S
C758 H728 0.931 . S
C758 C755 1.357 . S
C758 C759 1.312 . S
C759 H730 0.930 . S
C759 C754 1.261 . S
C759 C758 1.312 . S
C760 O732 1.214 . S
C760 O740 1.234 . S
C761 H733 0.929 . S
C761 C764 1.391 . S
C761 C766 1.391 . S
C762 H734 0.929 . S
C762 C763 1.390 . S
C762 N765 1.391 . S
C763 H735 0.930 . S
C763 C762 1.390 . S
C763 C764 1.392 . S
C764 H736 0.929 . S
C764 C761 1.391 . S
C764 C763 1.392 . S
N765 Co709 2.257 . S
N765 C762 1.391 . S
N765 C766 1.388 . S
C766 H737 0.930 . S
C766 C761 1.391 . S
C766 N765 1.388 . S
Co767 O769 2.143 . S
Co767 O775 2.074 . S
Co767 O778 2.093 . S
Co767 O791 2.097 . S
Co767 N808 2.151 . S
Co767 N816 2.214 . S
Co768 O769 2.160 . S
Co768 O774 2.058 . S
Co768 O784 2.057 . S
Co768 O799 2.037 . S
Co768 N803 2.145 . S
Co768 N824 2.257 . S
O769 Co767 2.143 . S
O769 Co768 2.160 . S
C770 O771 1.278 . S
C770 O778 1.224 . S
O771 C770 1.278 . S
C772 O773 1.245 . S
C772 O784 1.232 . S
O773 C772 1.245 . S
O774 Co768 2.058 . S
O774 C800 1.269 . S
O775 Co767 2.074 . S
O775 C800 1.257 . S
H776 C801 0.930 . S
H777 C807 0.930 . S
O778 Co767 2.093 . S
O778 C770 1.224 . S
H779 C811 0.929 . S
H780 C813 0.930 . S
H781 C814 0.930 . S
H782 C812 0.929 . S
H783 C815 0.928 . S
O784 Co768 2.057 . S
O784 C772 1.232 . S
H785 C804 0.929 . S
H786 C805 0.929 . S
H787 C817 0.931 . S
H788 C809 0.929 . S
H789 C818 0.930 . S
H790 C810 0.931 . S
O791 Co767 2.097 . S
O791 C819 1.214 . S
H792 C820 0.929 . S
H793 C821 0.929 . S
H794 C822 0.930 . S
H795 C823 0.929 . S
H796 C825 0.930 . S
H797 C802 0.930 . S
H798 C806 0.930 . S
O799 Co768 2.037 . S
O799 C819 1.234 . S
C800 O774 1.269 . S
C800 O775 1.257 . S
C801 H776 0.930 . S
C801 C804 1.388 . S
C801 C806 1.418 . S
C802 H797 0.930 . S
C802 C805 1.404 . S
C802 C806 1.353 . S
N803 Co768 2.145 . S
N803 C804 1.397 . S
N803 C805 1.334 . S
C804 H785 0.929 . S
C804 C801 1.388 . S
C804 N803 1.397 . S
C805 H786 0.929 . S
C805 C802 1.404 . S
C805 N803 1.334 . S
C806 H798 0.930 . S
C806 C801 1.418 . S
C806 C802 1.353 . S
C807 H777 0.930 . S
C807 N808 1.330 . S
C807 C809 1.446 . S
N808 Co767 2.151 . S
N808 C807 1.330 . S
N808 C812 1.418 . S
C809 H788 0.929 . S
C809 C807 1.446 . S
C809 C810 1.332 . S
C810 H790 0.931 . S
C810 C809 1.332 . S
C810 C811 1.267 . S
C811 H779 0.929 . S
C811 C810 1.267 . S
C811 C812 1.251 . S
C812 H782 0.929 . S
C812 N808 1.418 . S
C812 C811 1.251 . S
C813 H780 0.930 . S
C813 C815 1.406 . S
C813 C818 1.261 . S
C814 H781 0.930 . S
C814 N816 1.325 . S
C814 C817 1.357 . S
C815 H783 0.928 . S
C815 C813 1.406 . S
C815 N816 1.261 . S
N816 Co767 2.214 . S
N816 C814 1.325 . S
N816 C815 1.261 . S
C817 H787 0.931 . S
C817 C814 1.357 . S
C817 C818 1.312 . S
C818 H789 0.930 . S
C818 C813 1.261 . S
C818 C817 1.312 . S
C819 O791 1.214 . S
C819 O799 1.234 . S
C820 H792 0.929 . S
C820 C823 1.391 . S
C820 C825 1.391 . S
C821 H793 0.929 . S
C821 C822 1.390 . S
C821 N824 1.391 . S
C822 H794 0.930 . S
C822 C821 1.390 . S
C822 C823 1.392 . S
C823 H795 0.929 . S
C823 C820 1.391 . S
C823 C822 1.392 . S
N824 Co768 2.257 . S
N824 C821 1.391 . S
N824 C825 1.388 . S
C825 H796 0.930 . S
C825 C820 1.391 . S
C825 N824 1.388 . S
Co826 O828 2.143 . S
Co826 O834 2.074 . S
Co826 O837 2.093 . S
Co826 O850 2.097 . S
Co826 N867 2.151 . S
Co826 N875 2.214 . S
Co827 O828 2.160 . S
Co827 O833 2.058 . S
Co827 O843 2.057 . S
Co827 O858 2.037 . S
Co827 N862 2.145 . S
Co827 N883 2.257 . S
O828 Co826 2.143 . S
O828 Co827 2.160 . S
C829 O830 1.278 . S
C829 O837 1.224 . S
O830 C829 1.278 . S
C831 O832 1.245 . S
C831 O843 1.232 . S
O832 C831 1.245 . S
O833 Co827 2.058 . S
O833 C859 1.269 . S
O834 Co826 2.074 . S
O834 C859 1.257 . S
H835 C860 0.930 . S
H836 C866 0.930 . S
O837 Co826 2.093 . S
O837 C829 1.224 . S
H838 C870 0.929 . S
H839 C872 0.930 . S
H840 C873 0.930 . S
H841 C871 0.929 . S
H842 C874 0.928 . S
O843 Co827 2.057 . S
O843 C831 1.232 . S
H844 C863 0.929 . S
H845 C864 0.929 . S
H846 C876 0.931 . S
H847 C868 0.929 . S
H848 C877 0.930 . S
H849 C869 0.931 . S
O850 Co826 2.097 . S
O850 C878 1.214 . S
H851 C879 0.929 . S
H852 C880 0.929 . S
H853 C881 0.930 . S
H854 C882 0.929 . S
H855 C884 0.930 . S
H856 C861 0.930 . S
H857 C865 0.930 . S
O858 Co827 2.037 . S
O858 C878 1.234 . S
C859 O833 1.269 . S
C859 O834 1.257 . S
C860 H835 0.930 . S
C860 C863 1.388 . S
C860 C865 1.418 . S
C861 H856 0.930 . S
C861 C864 1.404 . S
C861 C865 1.353 . S
N862 Co827 2.145 . S
N862 C863 1.397 . S
N862 C864 1.334 . S
C863 H844 0.929 . S
C863 C860 1.388 . S
C863 N862 1.397 . S
C864 H845 0.929 . S
C864 C861 1.404 . S
C864 N862 1.334 . S
C865 H857 0.930 . S
C865 C860 1.418 . S
C865 C861 1.353 . S
C866 H836 0.930 . S
C866 N867 1.330 . S
C866 C868 1.446 . S
N867 Co826 2.151 . S
N867 C866 1.330 . S
N867 C871 1.418 . S
C868 H847 0.929 . S
C868 C866 1.446 . S
C868 C869 1.332 . S
C869 H849 0.931 . S
C869 C868 1.332 . S
C869 C870 1.267 . S
C870 H838 0.929 . S
C870 C869 1.267 . S
C870 C871 1.251 . S
C871 H841 0.929 . S
C871 N867 1.418 . S
C871 C870 1.251 . S
C872 H839 0.930 . S
C872 C874 1.406 . S
C872 C877 1.261 . S
C873 H840 0.930 . S
C873 N875 1.325 . S
C873 C876 1.357 . S
C874 H842 0.928 . S
C874 C872 1.406 . S
C874 N875 1.261 . S
N875 Co826 2.214 . S
N875 C873 1.325 . S
N875 C874 1.261 . S
C876 H846 0.931 . S
C876 C873 1.357 . S
C876 C877 1.312 . S
C877 H848 0.930 . S
C877 C872 1.261 . S
C877 C876 1.312 . S
C878 O850 1.214 . S
C878 O858 1.234 . S
C879 H851 0.929 . S
C879 C882 1.391 . S
C879 C884 1.391 . S
C880 H852 0.929 . S
C880 C881 1.390 . S
C880 N883 1.391 . S
C881 H853 0.930 . S
C881 C880 1.390 . S
C881 C882 1.392 . S
C882 H854 0.929 . S
C882 C879 1.391 . S
C882 C881 1.392 . S
N883 Co827 2.257 . S
N883 C880 1.391 . S
N883 C884 1.388 . S
C884 H855 0.930 . S
C884 C879 1.391 . S
C884 N883 1.388 . S
Co885 O887 2.143 . S
Co885 O893 2.074 . S
Co885 O896 2.093 . S
Co885 O909 2.097 . S
Co885 N926 2.151 . S
Co885 N934 2.214 . S
Co886 O887 2.160 . S
Co886 O892 2.058 . S
Co886 O902 2.057 . S
Co886 O917 2.037 . S
Co886 N921 2.145 . S
Co886 N942 2.257 . S
O887 Co885 2.143 . S
O887 Co886 2.160 . S
C888 O889 1.278 . S
C888 O896 1.224 . S
O889 C888 1.278 . S
C890 O891 1.245 . S
C890 O902 1.232 . S
O891 C890 1.245 . S
O892 Co886 2.058 . S
O892 C918 1.269 . S
O893 Co885 2.074 . S
O893 C918 1.257 . S
H894 C919 0.930 . S
H895 C925 0.930 . S
O896 Co885 2.093 . S
O896 C888 1.224 . S
H897 C929 0.929 . S
H898 C931 0.930 . S
H899 C932 0.930 . S
H900 C930 0.929 . S
H901 C933 0.928 . S
O902 Co886 2.057 . S
O902 C890 1.232 . S
H903 C922 0.929 . S
H904 C923 0.929 . S
H905 C935 0.931 . S
H906 C927 0.929 . S
H907 C936 0.930 . S
H908 C928 0.931 . S
O909 Co885 2.097 . S
O909 C937 1.214 . S
H910 C938 0.929 . S
H911 C939 0.929 . S
H912 C940 0.930 . S
H913 C941 0.929 . S
H914 C943 0.930 . S
H915 C920 0.930 . S
H916 C924 0.930 . S
O917 Co886 2.037 . S
O917 C937 1.234 . S
C918 O892 1.269 . S
C918 O893 1.257 . S
C919 H894 0.930 . S
C919 C922 1.388 . S
C919 C924 1.418 . S
C920 H915 0.930 . S
C920 C923 1.404 . S
C920 C924 1.353 . S
N921 Co886 2.145 . S
N921 C922 1.397 . S
N921 C923 1.334 . S
C922 H903 0.929 . S
C922 C919 1.388 . S
C922 N921 1.397 . S
C923 H904 0.929 . S
C923 C920 1.404 . S
C923 N921 1.334 . S
C924 H916 0.930 . S
C924 C919 1.418 . S
C924 C920 1.353 . S
C925 H895 0.930 . S
C925 N926 1.330 . S
C925 C927 1.446 . S
N926 Co885 2.151 . S
N926 C925 1.330 . S
N926 C930 1.418 . S
C927 H906 0.929 . S
C927 C925 1.446 . S
C927 C928 1.332 . S
C928 H908 0.931 . S
C928 C927 1.332 . S
C928 C929 1.267 . S
C929 H897 0.929 . S
C929 C928 1.267 . S
C929 C930 1.251 . S
C930 H900 0.929 . S
C930 N926 1.418 . S
C930 C929 1.251 . S
C931 H898 0.930 . S
C931 C933 1.406 . S
C931 C936 1.261 . S
C932 H899 0.930 . S
C932 N934 1.325 . S
C932 C935 1.357 . S
C933 H901 0.928 . S
C933 C931 1.406 . S
C933 N934 1.261 . S
N934 Co885 2.214 . S
N934 C932 1.325 . S
N934 C933 1.261 . S
C935 H905 0.931 . S
C935 C932 1.357 . S
C935 C936 1.312 . S
C936 H907 0.930 . S
C936 C931 1.261 . S
C936 C935 1.312 . S
C937 O909 1.214 . S
C937 O917 1.234 . S
C938 H910 0.929 . S
C938 C941 1.391 . S
C938 C943 1.391 . S
C939 H911 0.929 . S
C939 C940 1.390 . S
C939 N942 1.391 . S
C940 H912 0.930 . S
C940 C939 1.390 . S
C940 C941 1.392 . S
C941 H913 0.929 . S
C941 C938 1.391 . S
C941 C940 1.392 . S
N942 Co886 2.257 . S
N942 C939 1.391 . S
N942 C943 1.388 . S
C943 H914 0.930 . S
C943 C938 1.391 . S
C943 N942 1.388 . S
H944 C962 0.951 . S
H945 C964 0.951 . S
H946 C966 0.950 . S
H947 C967 0.950 . S
H948 C969 0.950 . S
H949 C972 0.950 . S
H950 C973 0.950 . S
H951 C975 0.950 . S
H952 C976 0.950 . S
H953 C977 0.951 . S
H954 C979 0.951 . S
H955 C981 0.950 . S
H956 C982 0.950 . S
H957 C984 0.950 . S
H958 C987 0.950 . S
H959 C988 0.950 . S
H960 C990 0.950 . S
H961 C991 0.950 . S
C962 H944 0.951 . S
C962 C963 1.366 . S
C962 C964 1.388 . S
C963 C962 1.366 . S
C963 C967 1.385 . S
C964 H945 0.951 . S
C964 C962 1.388 . S
C964 C965 1.366 . S
C965 C964 1.366 . S
C965 C966 1.414 . S
C965 C968 1.499 . S
C966 H946 0.950 . S
C966 C965 1.414 . S
C966 C967 1.374 . S
C967 H947 0.950 . S
C967 C963 1.385 . S
C967 C966 1.374 . S
C968 C965 1.499 . S
C968 C969 1.373 . S
C968 C970 1.389 . S
C969 H948 0.950 . S
C969 C968 1.373 . S
C969 C985 1.377 1_565 S
C970 C968 1.389 . S
C970 C971 1.524 . S
C970 C984 1.377 . S
C971 C970 1.524 . S
C971 C972 1.397 . S
C971 C976 1.363 . S
C972 H949 0.950 . S
C972 C971 1.397 . S
C972 C973 1.334 . S
C973 H950 0.950 . S
C973 C972 1.334 . S
C973 C974 1.287 . S
C974 C973 1.287 . S
C974 C975 1.524 . S
C974 H993 0.913 . S
C975 H951 0.950 . S
C975 C974 1.524 . S
C975 C976 1.415 . S
C976 H952 0.950 . S
C976 C971 1.363 . S
C976 C975 1.415 . S
C977 H953 0.951 . S
C977 C978 1.366 . S
C977 C979 1.388 . S
C978 C977 1.366 . S
C978 C982 1.385 . S
C979 H954 0.951 . S
C979 C977 1.388 . S
C979 C980 1.366 . S
C980 C979 1.366 . S
C980 C981 1.414 . S
C980 C983 1.499 . S
C981 H955 0.950 . S
C981 C980 1.414 . S
C981 C982 1.374 . S
C982 H956 0.950 . S
C982 C978 1.385 . S
C982 C981 1.374 . S
C983 C980 1.499 . S
C983 C984 1.373 1_545 S
C983 C985 1.389 . S
C984 H957 0.950 . S
C984 C970 1.377 . S
C984 C983 1.373 1_565 S
C985 C969 1.377 1_545 S
C985 C983 1.389 . S
C985 C986 1.524 . S
C986 C985 1.524 . S
C986 C987 1.397 . S
C986 C991 1.363 . S
C987 H958 0.950 . S
C987 C986 1.397 . S
C987 C988 1.334 . S
C988 H959 0.950 . S
C988 C987 1.334 . S
C988 C989 1.287 . S
C989 C988 1.287 . S
C989 C990 1.524 . S
C989 H992 0.999 . S
C990 H960 0.950 . S
C990 C989 1.524 . S
C990 C991 1.415 . S
C991 H961 0.950 . S
C991 C986 1.363 . S
C991 C990 1.415 . S
H992 C989 0.999 . S
H993 C974 0.913 . S
H994 C1012 0.951 . S
H995 C1014 0.951 . S
H996 C1016 0.950 . S
H997 C1017 0.950 . S
H998 C1019 0.950 . S
H999 C1022 0.950 . S
H1000 C1023 0.950 . S
H1001 C1025 0.950 . S
H1002 C1026 0.950 . S
H1003 C1027 0.951 . S
H1004 C1029 0.951 . S
H1005 C1031 0.950 . S
H1006 C1032 0.950 . S
H1007 C1034 0.950 . S
H1008 C1037 0.950 . S
H1009 C1038 0.950 . S
H1010 C1040 0.950 . S
H1011 C1041 0.950 . S
C1012 H994 0.951 . S
C1012 C1013 1.366 . S
C1012 C1014 1.388 . S
C1013 C1012 1.366 . S
C1013 C1017 1.385 . S
C1014 H995 0.951 . S
C1014 C1012 1.388 . S
C1014 C1015 1.366 . S
C1015 C1014 1.366 . S
C1015 C1016 1.414 . S
C1015 C1018 1.499 . S
C1016 H996 0.950 . S
C1016 C1015 1.414 . S
C1016 C1017 1.374 . S
C1017 H997 0.950 . S
C1017 C1013 1.385 . S
C1017 C1016 1.374 . S
C1018 C1015 1.499 . S
C1018 C1019 1.373 . S
C1018 C1020 1.389 . S
C1019 H998 0.950 . S
C1019 C1018 1.373 . S
C1019 C1035 1.377 1_455 S
C1020 C1018 1.389 . S
C1020 C1021 1.524 . S
C1020 C1034 1.377 1_455 S
C1021 C1020 1.524 . S
C1021 C1022 1.397 . S
C1021 C1026 1.363 . S
C1022 H999 0.950 . S
C1022 C1021 1.397 . S
C1022 C1023 1.334 . S
C1023 H1000 0.950 . S
C1023 C1022 1.334 . S
C1023 C1024 1.287 . S
C1024 C1023 1.287 . S
C1024 C1025 1.524 . S
C1024 H1043 0.913 . S
C1025 H1001 0.950 . S
C1025 C1024 1.524 . S
C1025 C1026 1.415 . S
C1026 H1002 0.950 . S
C1026 C1021 1.363 . S
C1026 C1025 1.415 . S
C1027 H1003 0.951 . S
C1027 C1028 1.366 . S
C1027 C1029 1.388 . S
C1028 C1027 1.366 . S
C1028 C1032 1.385 . S
C1029 H1004 0.951 . S
C1029 C1027 1.388 . S
C1029 C1030 1.366 . S
C1030 C1029 1.366 . S
C1030 C1031 1.414 . S
C1030 C1033 1.499 . S
C1031 H1005 0.950 . S
C1031 C1030 1.414 . S
C1031 C1032 1.374 . S
C1032 H1006 0.950 . S
C1032 C1028 1.385 . S
C1032 C1031 1.374 . S
C1033 C1030 1.499 . S
C1033 C1034 1.373 . S
C1033 C1035 1.389 . S
C1034 H1007 0.950 . S
C1034 C1020 1.377 1_655 S
C1034 C1033 1.373 . S
C1035 C1019 1.377 1_655 S
C1035 C1033 1.389 . S
C1035 C1036 1.524 . S
C1036 C1035 1.524 . S
C1036 C1037 1.397 . S
C1036 C1041 1.363 . S
C1037 H1008 0.950 . S
C1037 C1036 1.397 . S
C1037 C1038 1.334 . S
C1038 H1009 0.950 . S
C1038 C1037 1.334 . S
C1038 C1039 1.287 . S
C1039 C1038 1.287 . S
C1039 C1040 1.524 . S
C1039 H1042 0.999 . S
C1040 H1010 0.950 . S
C1040 C1039 1.524 . S
C1040 C1041 1.415 . S
C1041 H1011 0.950 . S
C1041 C1036 1.363 . S
C1041 C1040 1.415 . S
H1042 C1039 0.999 . S
H1043 C1024 0.913 . S
H1044 C1062 0.951 . S
H1045 C1064 0.951 . S
H1046 C1066 0.950 . S
H1047 C1067 0.950 . S
H1048 C1069 0.950 . S
H1049 C1072 0.950 . S
H1050 C1073 0.950 1_556 S
H1051 C1075 0.950 . S
H1052 C1076 0.950 . S
H1053 C1077 0.951 . S
H1054 C1079 0.951 . S
H1055 C1081 0.950 . S
H1056 C1082 0.950 . S
H1057 C1084 0.950 . S
H1058 C1087 0.950 . S
H1059 C1088 0.950 . S
H1060 C1090 0.950 . S
H1061 C1091 0.950 . S
C1062 H1044 0.951 . S
C1062 C1063 1.366 . S
C1062 C1064 1.388 . S
C1063 C1062 1.366 . S
C1063 C1067 1.385 . S
C1064 H1045 0.951 . S
C1064 C1062 1.388 . S
C1064 C1065 1.366 . S
C1065 C1064 1.366 . S
C1065 C1066 1.414 . S
C1065 C1068 1.499 . S
C1066 H1046 0.950 . S
C1066 C1065 1.414 . S
C1066 C1067 1.374 . S
C1067 H1047 0.950 . S
C1067 C1063 1.385 . S
C1067 C1066 1.374 . S
C1068 C1065 1.499 . S
C1068 C1069 1.373 . S
C1068 C1070 1.389 1_565 S
C1069 H1048 0.950 . S
C1069 C1068 1.373 . S
C1069 C1085 1.377 1_565 S
C1070 C1068 1.389 1_545 S
C1070 C1071 1.524 . S
C1070 C1084 1.377 . S
C1071 C1070 1.524 . S
C1071 C1072 1.397 1_545 S
C1071 C1076 1.363 . S
C1072 H1049 0.950 . S
C1072 C1071 1.397 1_565 S
C1072 C1073 1.334 . S
C1073 H1050 0.950 1_554 S
C1073 C1072 1.334 . S
C1073 C1074 1.287 1_564 S
C1074 C1073 1.287 1_546 S
C1074 C1075 1.524 1_556 S
C1074 H1093 0.914 1_545 S
C1075 H1051 0.950 . S
C1075 C1074 1.524 1_554 S
C1075 C1076 1.415 . S
C1076 H1052 0.950 . S
C1076 C1071 1.363 . S
C1076 C1075 1.415 . S
C1077 H1053 0.951 . S
C1077 C1078 1.366 . S
C1077 C1079 1.388 . S
C1078 C1077 1.366 . S
C1078 C1082 1.385 . S
C1079 H1054 0.951 . S
C1079 C1077 1.388 . S
C1079 C1080 1.366 . S
C1080 C1079 1.366 . S
C1080 C1081 1.414 . S
C1080 C1083 1.499 . S
C1081 H1055 0.950 . S
C1081 C1080 1.414 . S
C1081 C1082 1.374 . S
C1082 H1056 0.950 . S
C1082 C1078 1.385 . S
C1082 C1081 1.374 . S
C1083 C1080 1.499 . S
C1083 C1084 1.373 . S
C1083 C1085 1.389 . S
C1084 H1057 0.950 . S
C1084 C1070 1.377 . S
C1084 C1083 1.373 . S
C1085 C1069 1.377 1_545 S
C1085 C1083 1.389 . S
C1085 C1086 1.524 . S
C1086 C1085 1.524 . S
C1086 C1087 1.397 . S
C1086 C1091 1.363 . S
C1087 H1058 0.950 . S
C1087 C1086 1.397 . S
C1087 C1088 1.334 . S
C1088 H1059 0.950 . S
C1088 C1087 1.334 . S
C1088 C1089 1.287 . S
C1089 C1088 1.287 . S
C1089 C1090 1.524 . S
C1089 H1092 0.999 . S
C1090 H1060 0.950 . S
C1090 C1089 1.524 . S
C1090 C1091 1.415 . S
C1091 H1061 0.950 . S
C1091 C1086 1.363 . S
C1091 C1090 1.415 . S
H1092 C1089 0.999 . S
H1093 C1074 0.914 1_565 S
H1094 C1112 0.951 . S
H1095 C1114 0.951 . S
H1096 C1116 0.950 . S
H1097 C1117 0.950 . S
H1098 C1119 0.950 . S
H1099 C1122 0.950 . S
H1100 C1123 0.950 . S
H1101 C1125 0.950 . S
H1102 C1126 0.950 . S
H1103 C1127 0.951 . S
H1104 C1129 0.951 . S
H1105 C1131 0.950 . S
H1106 C1132 0.950 . S
H1107 C1134 0.950 . S
H1108 C1137 0.950 . S
H1109 C1138 0.950 . S
H1110 C1140 0.950 . S
H1111 C1141 0.950 . S
C1112 H1094 0.951 . S
C1112 C1113 1.366 . S
C1112 C1114 1.388 . S
C1113 C1112 1.366 . S
C1113 C1117 1.385 . S
C1114 H1095 0.951 . S
C1114 C1112 1.388 . S
C1114 C1115 1.366 . S
C1115 C1114 1.366 . S
C1115 C1116 1.414 . S
C1115 C1118 1.499 . S
C1116 H1096 0.950 . S
C1116 C1115 1.414 . S
C1116 C1117 1.374 . S
C1117 H1097 0.950 . S
C1117 C1113 1.385 . S
C1117 C1116 1.374 . S
C1118 C1115 1.499 . S
C1118 C1119 1.373 . S
C1118 C1120 1.389 . S
C1119 H1098 0.950 . S
C1119 C1118 1.373 . S
C1119 C1135 1.377 1_455 S
C1120 C1118 1.389 . S
C1120 C1121 1.524 . S
C1120 C1134 1.377 1_455 S
C1121 C1120 1.524 . S
C1121 C1122 1.397 . S
C1121 C1126 1.363 1_455 S
C1122 H1099 0.950 . S
C1122 C1121 1.397 . S
C1122 C1123 1.334 . S
C1123 H1100 0.950 . S
C1123 C1122 1.334 . S
C1123 C1124 1.287 . S
C1124 C1123 1.287 . S
C1124 C1125 1.524 1_455 S
C1124 H1143 0.913 . S
C1125 H1101 0.950 . S
C1125 C1124 1.524 1_655 S
C1125 C1126 1.415 . S
C1126 H1102 0.950 . S
C1126 C1121 1.363 1_655 S
C1126 C1125 1.415 . S
C1127 H1103 0.951 . S
C1127 C1128 1.366 . S
C1127 C1129 1.388 . S
C1128 C1127 1.366 . S
C1128 C1132 1.385 . S
C1129 H1104 0.951 . S
C1129 C1127 1.388 . S
C1129 C1130 1.366 . S
C1130 C1129 1.366 . S
C1130 C1131 1.414 . S
C1130 C1133 1.499 . S
C1131 H1105 0.950 . S
C1131 C1130 1.414 . S
C1131 C1132 1.374 . S
C1132 H1106 0.950 . S
C1132 C1128 1.385 . S
C1132 C1131 1.374 . S
C1133 C1130 1.499 . S
C1133 C1134 1.373 . S
C1133 C1135 1.389 . S
C1134 H1107 0.950 . S
C1134 C1120 1.377 1_655 S
C1134 C1133 1.373 . S
C1135 C1119 1.377 1_655 S
C1135 C1133 1.389 . S
C1135 C1136 1.524 . S
C1136 C1135 1.524 . S
C1136 C1137 1.397 . S
C1136 C1141 1.363 1_655 S
C1137 H1108 0.950 . S
C1137 C1136 1.397 . S
C1137 C1138 1.334 . S
C1138 H1109 0.950 . S
C1138 C1137 1.334 . S
C1138 C1139 1.287 . S
C1139 C1138 1.287 . S
C1139 C1140 1.524 1_655 S
C1139 H1142 0.999 . S
C1140 H1110 0.950 . S
C1140 C1139 1.524 1_455 S
C1140 C1141 1.415 . S
C1141 H1111 0.950 . S
C1141 C1136 1.363 1_455 S
C1141 C1140 1.415 . S
H1142 C1139 0.999 . S
H1143 C1124 0.913 . S
H1144 C1162 0.951 . S
H1145 C1164 0.951 . S
H1146 C1166 0.950 1_556 S
H1147 C1167 0.950 . S
H1148 C1169 0.950 . S
H1149 C1172 0.950 . S
H1150 C1173 0.950 . S
H1151 C1175 0.950 . S
H1152 C1176 0.950 . S
H1153 C1177 0.951 . S
H1154 C1179 0.951 . S
H1155 C1181 0.950 1_554 S
H1156 C1182 0.950 . S
H1157 C1184 0.950 . S
H1158 C1187 0.950 . S
H1159 C1188 0.950 . S
H1160 C1190 0.950 . S
H1161 C1191 0.950 . S
C1162 H1144 0.951 . S
C1162 C1163 1.366 . S
C1162 C1164 1.388 . S
C1163 C1162 1.366 . S
C1163 C1167 1.385 . S
C1164 H1145 0.951 . S
C1164 C1162 1.388 . S
C1164 C1165 1.366 . S
C1165 C1164 1.366 . S
C1165 C1166 1.414 . S
C1165 C1168 1.499 . S
C1166 H1146 0.950 1_554 S
C1166 C1165 1.414 . S
C1166 C1167 1.374 . S
C1167 H1147 0.950 . S
C1167 C1163 1.385 . S
C1167 C1166 1.374 . S
C1168 C1165 1.499 . S
C1168 C1169 1.373 1_554 S
C1168 C1170 1.389 . S
C1169 H1148 0.950 . S
C1169 C1168 1.373 1_556 S
C1169 C1185 1.377 . S
C1170 C1168 1.389 . S
C1170 C1171 1.524 . S
C1170 C1184 1.377 . S
C1171 C1170 1.524 . S
C1171 C1172 1.397 . S
C1171 C1176 1.363 . S
C1172 H1149 0.950 . S
C1172 C1171 1.397 . S
C1172 C1173 1.334 . S
C1173 H1150 0.950 . S
C1173 C1172 1.334 . S
C1173 C1174 1.287 . S
C1174 C1173 1.287 . S
C1174 C1175 1.524 . S
C1174 H1193 0.913 . S
C1175 H1151 0.950 . S
C1175 C1174 1.524 . S
C1175 C1176 1.415 . S
C1176 H1152 0.950 . S
C1176 C1171 1.363 . S
C1176 C1175 1.415 . S
C1177 H1153 0.951 . S
C1177 C1178 1.366 . S
C1177 C1179 1.388 . S
C1178 C1177 1.366 . S
C1178 C1182 1.385 . S
C1179 H1154 0.951 . S
C1179 C1177 1.388 . S
C1179 C1180 1.366 . S
C1180 C1179 1.366 . S
C1180 C1181 1.414 . S
C1180 C1183 1.499 . S
C1181 H1155 0.950 1_556 S
C1181 C1180 1.414 . S
C1181 C1182 1.374 . S
C1182 H1156 0.950 . S
C1182 C1178 1.385 . S
C1182 C1181 1.374 . S
C1183 C1180 1.499 . S
C1183 C1184 1.373 1_556 S
C1183 C1185 1.389 . S
C1184 H1157 0.950 . S
C1184 C1170 1.377 . S
C1184 C1183 1.373 1_554 S
C1185 C1169 1.377 . S
C1185 C1183 1.389 . S
C1185 C1186 1.524 . S
C1186 C1185 1.524 . S
C1186 C1187 1.397 . S
C1186 C1191 1.363 . S
C1187 H1158 0.950 . S
C1187 C1186 1.397 . S
C1187 C1188 1.334 . S
C1188 H1159 0.950 . S
C1188 C1187 1.334 . S
C1188 C1189 1.287 . S
C1189 C1188 1.287 . S
C1189 C1190 1.524 . S
C1189 H1192 0.999 . S
C1190 H1160 0.950 . S
C1190 C1189 1.524 . S
C1190 C1191 1.415 . S
C1191 H1161 0.950 . S
C1191 C1186 1.363 . S
C1191 C1190 1.415 . S
H1192 C1189 0.999 . S
H1193 C1174 0.913 . S
H1194 C1212 0.951 . S
H1195 C1214 0.951 . S
H1196 C1216 0.950 . S
H1197 C1217 0.950 . S
H1198 C1219 0.950 1_556 S
H1199 C1222 0.950 . S
H1200 C1223 0.950 . S
H1201 C1225 0.950 . S
H1202 C1226 0.950 . S
H1203 C1227 0.951 . S
H1204 C1229 0.951 . S
H1205 C1231 0.950 . S
H1206 C1232 0.950 . S
H1207 C1234 0.950 . S
H1208 C1237 0.938 1_554 S
H1209 C1238 0.950 . S
H1210 C1240 0.950 . S
H1211 C1241 0.950 . S
C1212 H1194 0.951 . S
C1212 C1213 1.366 1_554 S
C1212 C1214 1.388 . S
C1213 C1212 1.366 1_556 S
C1213 C1217 1.385 . S
C1214 H1195 0.951 . S
C1214 C1212 1.388 . S
C1214 C1215 1.366 . S
C1215 C1214 1.366 . S
C1215 C1216 1.414 1_554 S
C1215 C1218 1.499 . S
C1216 H1196 0.950 . S
C1216 C1215 1.414 1_556 S
C1216 C1217 1.374 . S
C1217 H1197 0.950 . S
C1217 C1213 1.385 . S
C1217 C1216 1.374 . S
C1218 C1215 1.499 . S
C1218 C1219 1.373 . S
C1218 C1220 1.389 . S
C1219 H1198 0.950 1_554 S
C1219 C1218 1.373 . S
C1219 C1235 1.377 . S
C1220 C1218 1.389 . S
C1220 C1221 1.524 . S
C1220 C1234 1.377 . S
C1221 C1220 1.524 . S
C1221 C1222 1.397 . S
C1221 C1226 1.363 . S
C1222 H1199 0.950 . S
C1222 C1221 1.397 . S
C1222 C1223 1.334 . S
C1223 H1200 0.950 . S
C1223 C1222 1.334 . S
C1223 C1224 1.287 . S
C1224 C1223 1.287 . S
C1224 C1225 1.524 . S
C1224 H1243 0.913 . S
C1225 H1201 0.950 . S
C1225 C1224 1.524 . S
C1225 C1226 1.415 . S
C1226 H1202 0.950 . S
C1226 C1221 1.363 . S
C1226 C1225 1.415 . S
C1227 H1203 0.951 . S
C1227 C1228 1.366 . S
C1227 C1229 1.388 . S
C1228 C1227 1.366 . S
C1228 C1232 1.385 . S
C1229 H1204 0.951 . S
C1229 C1227 1.388 . S
C1229 C1230 1.366 . S
C1230 C1229 1.366 . S
C1230 C1231 1.414 . S
C1230 C1233 1.499 . S
C1231 H1205 0.950 . S
C1231 C1230 1.414 . S
C1231 C1232 1.374 . S
C1232 H1206 0.950 . S
C1232 C1228 1.385 . S
C1232 C1231 1.374 . S
C1233 C1230 1.499 . S
C1233 C1234 1.373 . S
C1233 C1235 1.389 . S
C1234 H1207 0.950 . S
C1234 C1220 1.377 . S
C1234 C1233 1.373 . S
C1235 C1219 1.377 . S
C1235 C1233 1.389 . S
C1235 C1236 1.524 1_554 S
C1236 C1235 1.524 1_556 S
C1236 C1237 1.400 . S
C1236 C1241 1.363 . S
C1237 H1208 0.938 1_556 S
C1237 C1236 1.400 . S
C1237 C1238 1.343 . S
C1238 H1209 0.950 . S
C1238 C1237 1.343 . S
C1238 C1239 1.287 . S
C1239 C1238 1.287 . S
C1239 C1240 1.524 . S
C1239 H1242 0.999 . S
C1240 H1210 0.950 . S
C1240 C1239 1.524 . S
C1240 C1241 1.415 . S
C1241 H1211 0.950 . S
C1241 C1236 1.363 . S
C1241 C1240 1.415 . S
H1242 C1239 0.999 . S
H1243 C1224 0.913 . S
H1244 C1262 0.951 . S
H1245 C1264 0.951 . S
H1246 C1266 0.950 1_554 S
H1247 C1267 0.950 . S
H1248 C1269 0.950 . S
H1249 C1272 0.950 . S
H1250 C1273 0.950 . S
H1251 C1275 0.950 . S
H1252 C1276 0.950 . S
H1253 C1277 0.951 . S
H1254 C1279 0.951 . S
H1255 C1281 0.950 1_556 S
H1256 C1282 0.954 . S
H1257 C1284 0.950 . S
H1258 C1287 0.950 1_556 S
H1259 C1288 0.950 . S
H1260 C1290 0.950 . S
H1261 C1291 0.950 . S
C1262 H1244 0.951 . S
C1262 C1263 1.366 . S
C1262 C1264 1.388 . S
C1263 C1262 1.366 . S
C1263 C1267 1.385 . S
C1264 H1245 0.951 . S
C1264 C1262 1.388 . S
C1264 C1265 1.366 . S
C1265 C1264 1.366 . S
C1265 C1266 1.414 . S
C1265 C1268 1.499 . S
C1266 H1246 0.950 1_556 S
C1266 C1265 1.414 . S
C1266 C1267 1.374 . S
C1267 H1247 0.950 . S
C1267 C1263 1.385 . S
C1267 C1266 1.374 . S
C1268 C1265 1.499 . S
C1268 C1269 1.373 1_556 S
C1268 C1270 1.389 . S
C1269 H1248 0.950 . S
C1269 C1268 1.373 1_554 S
C1269 C1285 1.377 . S
C1270 C1268 1.389 . S
C1270 C1271 1.524 . S
C1270 C1284 1.377 . S
C1271 C1270 1.524 . S
C1271 C1272 1.397 . S
C1271 C1276 1.363 . S
C1272 H1249 0.950 . S
C1272 C1271 1.397 . S
C1272 C1273 1.334 . S
C1273 H1250 0.950 . S
C1273 C1272 1.334 . S
C1273 C1274 1.287 . S
C1274 C1273 1.287 . S
C1274 C1275 1.524 . S
C1274 H1293 0.913 . S
C1275 H1251 0.950 . S
C1275 C1274 1.524 . S
C1275 C1276 1.415 . S
C1276 H1252 0.950 . S
C1276 C1271 1.363 . S
C1276 C1275 1.415 . S
C1277 H1253 0.951 . S
C1277 C1278 1.366 . S
C1277 C1279 1.388 . S
C1278 C1277 1.366 . S
C1278 C1282 1.385 . S
C1279 H1254 0.951 . S
C1279 C1277 1.388 . S
C1279 C1280 1.366 . S
C1280 C1279 1.366 . S
C1280 C1281 1.414 . S
C1280 C1283 1.499 . S
C1281 H1255 0.950 1_554 S
C1281 C1280 1.414 . S
C1281 C1282 1.374 . S
C1282 H1256 0.954 . S
C1282 C1278 1.385 . S
C1282 C1281 1.374 . S
C1283 C1280 1.499 . S
C1283 C1284 1.373 1_554 S
C1283 C1285 1.389 . S
C1284 H1257 0.950 . S
C1284 C1270 1.377 . S
C1284 C1283 1.373 1_556 S
C1285 C1269 1.377 . S
C1285 C1283 1.389 . S
C1285 C1286 1.524 . S
C1286 C1285 1.524 . S
C1286 C1287 1.397 . S
C1286 C1291 1.363 . S
C1287 H1258 0.950 1_554 S
C1287 C1286 1.397 . S
C1287 C1288 1.334 . S
C1288 H1259 0.950 . S
C1288 C1287 1.334 . S
C1288 C1289 1.287 . S
C1289 C1288 1.287 . S
C1289 C1290 1.524 . S
C1289 H1292 0.999 . S
C1290 H1260 0.950 . S
C1290 C1289 1.524 . S
C1290 C1291 1.415 . S
C1291 H1261 0.950 . S
C1291 C1286 1.363 . S
C1291 C1290 1.415 . S
H1292 C1289 0.999 . S
H1293 C1274 0.913 . S
H1294 C1312 0.951 . S
H1295 C1314 0.951 . S
H1296 C1316 0.950 . S
H1297 C1317 0.950 . S
H1298 C1319 0.950 . S
H1299 C1322 0.950 . S
H1300 C1323 0.950 . S
H1301 C1325 0.950 . S
H1302 C1326 0.950 . S
H1303 C1327 0.951 . S
H1304 C1329 0.951 . S
H1305 C1331 0.950 . S
H1306 C1332 0.950 . S
H1307 C1334 0.950 . S
H1308 C1337 0.950 1_554 S
H1309 C1338 0.950 . S
H1310 C1340 0.950 . S
H1311 C1341 0.950 . S
C1312 H1294 0.951 . S
C1312 C1313 1.366 . S
C1312 C1314 1.388 . S
C1313 C1312 1.366 . S
C1313 C1317 1.385 . S
C1314 H1295 0.951 . S
C1314 C1312 1.388 . S
C1314 C1315 1.366 . S
C1315 C1314 1.366 . S
C1315 C1316 1.414 . S
C1315 C1318 1.499 . S
C1316 H1296 0.950 . S
C1316 C1315 1.414 . S
C1316 C1317 1.374 . S
C1317 H1297 0.950 . S
C1317 C1313 1.385 . S
C1317 C1316 1.374 . S
C1318 C1315 1.499 . S
C1318 C1319 1.373 . S
C1318 C1320 1.389 . S
C1319 H1298 0.950 . S
C1319 C1318 1.373 . S
C1319 C1335 1.377 . S
C1320 C1318 1.389 . S
C1320 C1321 1.524 . S
C1320 C1334 1.377 . S
C1321 C1320 1.524 . S
C1321 C1322 1.397 . S
C1321 C1326 1.363 . S
C1322 H1299 0.950 . S
C1322 C1321 1.397 . S
C1322 C1323 1.334 . S
C1323 H1300 0.950 . S
C1323 C1322 1.334 . S
C1323 C1324 1.287 . S
C1324 C1323 1.287 . S
C1324 C1325 1.524 . S
C1324 H1343 0.913 . S
C1325 H1301 0.950 . S
C1325 C1324 1.524 . S
C1325 C1326 1.415 . S
C1326 H1302 0.950 . S
C1326 C1321 1.363 . S
C1326 C1325 1.415 . S
C1327 H1303 0.951 . S
C1327 C1328 1.366 . S
C1327 C1329 1.388 . S
C1328 C1327 1.366 . S
C1328 C1332 1.385 1_556 S
C1329 H1304 0.951 . S
C1329 C1327 1.388 . S
C1329 C1330 1.366 1_556 S
C1330 C1329 1.366 1_554 S
C1330 C1331 1.414 . S
C1330 C1333 1.499 . S
C1331 H1305 0.950 . S
C1331 C1330 1.414 . S
C1331 C1332 1.374 . S
C1332 H1306 0.950 . S
C1332 C1328 1.385 1_554 S
C1332 C1331 1.374 . S
C1333 C1330 1.499 . S
C1333 C1334 1.373 . S
C1333 C1335 1.389 . S
C1334 H1307 0.950 . S
C1334 C1320 1.377 . S
C1334 C1333 1.373 . S
C1335 C1319 1.377 . S
C1335 C1333 1.389 . S
C1335 C1336 1.524 1_554 S
C1336 C1335 1.524 1_556 S
C1336 C1337 1.397 . S
C1336 C1341 1.363 . S
C1337 H1308 0.950 1_556 S
C1337 C1336 1.397 . S
C1337 C1338 1.334 . S
C1338 H1309 0.950 . S
C1338 C1337 1.334 . S
C1338 C1339 1.287 . S
C1339 C1338 1.287 . S
C1339 C1340 1.524 . S
C1339 H1342 0.999 . S
C1340 H1310 0.950 . S
C1340 C1339 1.524 . S
C1340 C1341 1.415 . S
C1341 H1311 0.950 . S
C1341 C1336 1.363 . S
C1341 C1340 1.415 . S
H1342 C1339 0.999 . S
H1343 C1324 0.913 . S
H1344 C1362 0.951 . S
H1345 C1364 0.951 . S
H1346 C1366 0.950 . S
H1347 C1367 0.950 . S
H1348 C1369 0.950 . S
H1349 C1372 0.950 . S
H1350 C1373 0.950 . S
H1351 C1375 0.950 . S
H1352 C1376 0.950 . S
H1353 C1377 0.951 . S
H1354 C1379 0.951 . S
H1355 C1381 0.950 . S
H1356 C1382 0.950 . S
H1357 C1384 0.950 . S
H1358 C1387 0.950 . S
H1359 C1388 0.950 . S
H1360 C1390 0.950 . S
H1361 C1391 0.950 . S
C1362 H1344 0.951 . S
C1362 C1363 1.366 . S
C1362 C1364 1.388 . S
C1363 C1362 1.366 . S
C1363 C1367 1.385 . S
C1364 H1345 0.951 . S
C1364 C1362 1.388 . S
C1364 C1365 1.366 . S
C1365 C1364 1.366 . S
C1365 C1366 1.414 . S
C1365 C1368 1.499 . S
C1366 H1346 0.950 . S
C1366 C1365 1.414 . S
C1366 C1367 1.374 . S
C1367 H1347 0.950 . S
C1367 C1363 1.385 . S
C1367 C1366 1.374 . S
C1368 C1365 1.499 . S
C1368 C1369 1.373 . S
C1368 C1370 1.389 . S
C1369 H1348 0.950 . S
C1369 C1368 1.373 . S
C1369 C1385 1.377 . S
C1370 C1368 1.389 . S
C1370 C1371 1.524 . S
C1370 C1384 1.377 . S
C1371 C1370 1.524 . S
C1371 C1372 1.397 . S
C1371 C1376 1.363 . S
C1372 H1349 0.950 . S
C1372 C1371 1.397 . S
C1372 C1373 1.334 . S
C1373 H1350 0.950 . S
C1373 C1372 1.334 . S
C1373 C1374 1.287 . S
C1374 C1373 1.287 . S
C1374 C1375 1.524 . S
C1374 H1393 0.913 . S
C1375 H1351 0.950 . S
C1375 C1374 1.524 . S
C1375 C1376 1.415 . S
C1376 H1352 0.950 . S
C1376 C1371 1.363 . S
C1376 C1375 1.415 . S
C1377 H1353 0.951 . S
C1377 C1378 1.366 . S
C1377 C1379 1.388 . S
C1378 C1377 1.366 . S
C1378 C1382 1.385 . S
C1379 H1354 0.951 . S
C1379 C1377 1.388 . S
C1379 C1380 1.366 . S
C1380 C1379 1.366 . S
C1380 C1381 1.414 . S
C1380 C1383 1.499 . S
C1381 H1355 0.950 . S
C1381 C1380 1.414 . S
C1381 C1382 1.374 . S
C1382 H1356 0.950 . S
C1382 C1378 1.385 . S
C1382 C1381 1.374 . S
C1383 C1380 1.499 . S
C1383 C1384 1.373 . S
C1383 C1385 1.389 . S
C1384 H1357 0.950 . S
C1384 C1370 1.377 . S
C1384 C1383 1.373 . S
C1385 C1369 1.377 . S
C1385 C1383 1.389 . S
C1385 C1386 1.524 . S
C1386 C1385 1.524 . S
C1386 C1387 1.397 . S
C1386 C1391 1.363 . S
C1387 H1358 0.950 . S
C1387 C1386 1.397 . S
C1387 C1388 1.334 . S
C1388 H1359 0.950 . S
C1388 C1387 1.334 . S
C1388 C1389 1.287 . S
C1389 C1388 1.287 . S
C1389 C1390 1.524 . S
C1389 H1392 0.999 . S
C1390 H1360 0.950 . S
C1390 C1389 1.524 . S
C1390 C1391 1.415 . S
C1391 H1361 0.950 . S
C1391 C1386 1.363 . S
C1391 C1390 1.415 . S
H1392 C1389 0.999 . S
H1393 C1374 0.913 . S
H1394 C1412 0.951 . S
H1395 C1414 0.951 . S
H1396 C1416 0.950 . S
H1397 C1417 0.950 . S
H1398 C1419 0.950 . S
H1399 C1422 0.950 . S
H1400 C1423 0.950 . S
H1401 C1425 0.950 . S
H1402 C1426 0.950 . S
H1403 C1427 0.951 1_556 S
H1404 C1429 0.951 . S
H1405 C1431 0.950 . S
H1406 C1432 0.950 . S
H1407 C1434 0.950 . S
H1408 C1437 0.950 . S
H1409 C1438 0.950 . S
H1410 C1440 0.950 . S
H1411 C1441 0.950 . S
C1412 H1394 0.951 . S
C1412 C1413 1.366 . S
C1412 C1414 1.388 . S
C1413 C1412 1.366 . S
C1413 C1417 1.385 . S
C1414 H1395 0.951 . S
C1414 C1412 1.388 . S
C1414 C1415 1.366 . S
C1415 C1414 1.366 . S
C1415 C1416 1.414 . S
C1415 C1418 1.499 . S
C1416 H1396 0.950 . S
C1416 C1415 1.414 . S
C1416 C1417 1.374 . S
C1417 H1397 0.950 . S
C1417 C1413 1.385 . S
C1417 C1416 1.374 . S
C1418 C1415 1.499 . S
C1418 C1419 1.373 . S
C1418 C1420 1.389 . S
C1419 H1398 0.950 . S
C1419 C1418 1.373 . S
C1419 C1435 1.377 . S
C1420 C1418 1.389 . S
C1420 C1421 1.524 . S
C1420 C1434 1.377 . S
C1421 C1420 1.524 . S
C1421 C1422 1.397 . S
C1421 C1426 1.363 . S
C1422 H1399 0.950 . S
C1422 C1421 1.397 . S
C1422 C1423 1.334 . S
C1423 H1400 0.950 . S
C1423 C1422 1.334 . S
C1423 C1424 1.287 . S
C1424 C1423 1.287 . S
C1424 C1425 1.524 . S
C1424 H1443 0.913 . S
C1425 H1401 0.950 . S
C1425 C1424 1.524 . S
C1425 C1426 1.415 . S
C1426 H1402 0.950 . S
C1426 C1421 1.363 . S
C1426 C1425 1.415 . S
C1427 H1403 0.951 1_554 S
C1427 C1428 1.366 . S
C1427 C1429 1.388 . S
C1428 C1427 1.366 . S
C1428 C1432 1.385 . S
C1429 H1404 0.951 . S
C1429 C1427 1.388 . S
C1429 C1430 1.366 . S
C1430 C1429 1.366 . S
C1430 C1431 1.414 . S
C1430 C1433 1.499 . S
C1431 H1405 0.950 . S
C1431 C1430 1.414 . S
C1431 C1432 1.374 . S
C1432 H1406 0.950 . S
C1432 C1428 1.385 . S
C1432 C1431 1.374 . S
C1433 C1430 1.499 . S
C1433 C1434 1.373 . S
C1433 C1435 1.389 . S
C1434 H1407 0.950 . S
C1434 C1420 1.377 . S
C1434 C1433 1.373 . S
C1435 C1419 1.377 . S
C1435 C1433 1.389 . S
C1435 C1436 1.524 . S
C1436 C1435 1.524 . S
C1436 C1437 1.397 . S
C1436 C1441 1.363 . S
C1437 H1408 0.950 . S
C1437 C1436 1.397 . S
C1437 C1438 1.334 . S
C1438 H1409 0.950 . S
C1438 C1437 1.334 . S
C1438 C1439 1.287 1_554 S
C1439 C1438 1.287 1_556 S
C1439 C1440 1.524 . S
C1439 H1442 0.999 . S
C1440 H1410 0.950 . S
C1440 C1439 1.524 . S
C1440 C1441 1.415 1_556 S
C1441 H1411 0.950 . S
C1441 C1436 1.363 . S
C1441 C1440 1.415 1_554 S
H1442 C1439 0.999 . S
H1443 C1424 0.913 . S
H1444 C1462 0.951 . S
H1445 C1464 0.951 . S
H1446 C1466 0.950 . S
H1447 C1467 0.950 . S
H1448 C1469 0.950 . S
H1449 C1472 0.950 . S
H1450 C1473 0.950 . S
H1451 C1475 0.950 . S
H1452 C1476 0.950 . S
H1453 C1477 0.951 . S
H1454 C1479 0.951 . S
H1455 C1481 0.950 . S
H1456 C1482 0.950 . S
H1457 C1484 0.950 . S
H1458 C1487 0.950 . S
H1459 C1488 0.950 . S
H1460 C1490 0.950 . S
H1461 C1491 0.950 . S
C1462 H1444 0.951 . S
C1462 C1463 1.366 . S
C1462 C1464 1.388 . S
C1463 C1462 1.366 . S
C1463 C1467 1.385 . S
C1464 H1445 0.951 . S
C1464 C1462 1.388 . S
C1464 C1465 1.366 . S
C1465 C1464 1.366 . S
C1465 C1466 1.414 . S
C1465 C1468 1.499 . S
C1466 H1446 0.950 . S
C1466 C1465 1.414 . S
C1466 C1467 1.374 . S
C1467 H1447 0.950 . S
C1467 C1463 1.385 . S
C1467 C1466 1.374 . S
C1468 C1465 1.499 . S
C1468 C1469 1.373 . S
C1468 C1470 1.389 . S
C1469 H1448 0.950 . S
C1469 C1468 1.373 . S
C1469 C1485 1.377 . S
C1470 C1468 1.389 . S
C1470 C1471 1.524 . S
C1470 C1484 1.377 . S
C1471 C1470 1.524 . S
C1471 C1472 1.397 . S
C1471 C1476 1.363 . S
C1472 H1449 0.950 . S
C1472 C1471 1.397 . S
C1472 C1473 1.334 . S
C1473 H1450 0.950 . S
C1473 C1472 1.334 . S
C1473 C1474 1.287 . S
C1474 C1473 1.287 . S
C1474 C1475 1.524 . S
C1474 H1493 0.913 . S
C1475 H1451 0.950 . S
C1475 C1474 1.524 . S
C1475 C1476 1.415 . S
C1476 H1452 0.950 . S
C1476 C1471 1.363 . S
C1476 C1475 1.415 . S
C1477 H1453 0.951 . S
C1477 C1478 1.366 . S
C1477 C1479 1.388 . S
C1478 C1477 1.366 . S
C1478 C1482 1.385 . S
C1479 H1454 0.951 . S
C1479 C1477 1.388 . S
C1479 C1480 1.366 . S
C1480 C1479 1.366 . S
C1480 C1481 1.414 . S
C1480 C1483 1.499 . S
C1481 H1455 0.950 . S
C1481 C1480 1.414 . S
C1481 C1482 1.374 . S
C1482 H1456 0.950 . S
C1482 C1478 1.385 . S
C1482 C1481 1.374 . S
C1483 C1480 1.499 . S
C1483 C1484 1.373 . S
C1483 C1485 1.389 . S
C1484 H1457 0.950 . S
C1484 C1470 1.377 . S
C1484 C1483 1.373 . S
C1485 C1469 1.377 . S
C1485 C1483 1.389 . S
C1485 C1486 1.524 . S
C1486 C1485 1.524 . S
C1486 C1487 1.397 . S
C1486 C1491 1.363 . S
C1487 H1458 0.950 . S
C1487 C1486 1.397 . S
C1487 C1488 1.334 . S
C1488 H1459 0.950 . S
C1488 C1487 1.334 . S
C1488 C1489 1.287 . S
C1489 C1488 1.287 . S
C1489 C1490 1.524 . S
C1489 H1492 0.999 . S
C1490 H1460 0.950 . S
C1490 C1489 1.524 . S
C1490 C1491 1.415 . S
C1491 H1461 0.950 . S
C1491 C1486 1.363 . S
C1491 C1490 1.415 . S
H1492 C1489 0.999 . S
H1493 C1474 0.913 . S
H1494 C1512 0.951 . S
H1495 C1514 0.951 . S
H1496 C1516 0.950 . S
H1497 C1517 0.950 . S
H1498 C1519 0.950 . S
H1499 C1522 0.950 . S
H1500 C1523 0.950 . S
H1501 C1525 0.950 . S
H1502 C1526 0.950 . S
H1503 C1527 0.951 1_556 S
H1504 C1529 0.951 . S
H1505 C1531 0.950 . S
H1506 C1532 0.950 . S
H1507 C1534 0.950 . S
H1508 C1537 0.950 . S
H1509 C1538 0.950 . S
H1510 C1540 0.950 . S
H1511 C1541 0.950 . S
C1512 H1494 0.951 . S
C1512 C1513 1.366 . S
C1512 C1514 1.388 . S
C1513 C1512 1.366 . S
C1513 C1517 1.385 . S
C1514 H1495 0.951 . S
C1514 C1512 1.388 . S
C1514 C1515 1.366 . S
C1515 C1514 1.366 . S
C1515 C1516 1.414 . S
C1515 C1518 1.499 . S
C1516 H1496 0.950 . S
C1516 C1515 1.414 . S
C1516 C1517 1.374 . S
C1517 H1497 0.950 . S
C1517 C1513 1.385 . S
C1517 C1516 1.374 . S
C1518 C1515 1.499 . S
C1518 C1519 1.373 . S
C1518 C1520 1.389 . S
C1519 H1498 0.950 . S
C1519 C1518 1.373 . S
C1519 C1535 1.377 . S
C1520 C1518 1.389 . S
C1520 C1521 1.524 . S
C1520 C1534 1.377 . S
C1521 C1520 1.524 . S
C1521 C1522 1.397 . S
C1521 C1526 1.363 . S
C1522 H1499 0.950 . S
C1522 C1521 1.397 . S
C1522 C1523 1.334 . S
C1523 H1500 0.950 . S
C1523 C1522 1.334 . S
C1523 C1524 1.287 . S
C1524 C1523 1.287 . S
C1524 C1525 1.524 . S
C1524 H1543 0.913 . S
C1525 H1501 0.950 . S
C1525 C1524 1.524 . S
C1525 C1526 1.415 . S
C1526 H1502 0.950 . S
C1526 C1521 1.363 . S
C1526 C1525 1.415 . S
C1527 H1503 0.951 1_554 S
C1527 C1528 1.366 . S
C1527 C1529 1.388 . S
C1528 C1527 1.366 . S
C1528 C1532 1.385 . S
C1529 H1504 0.951 . S
C1529 C1527 1.388 . S
C1529 C1530 1.366 . S
C1530 C1529 1.366 . S
C1530 C1531 1.414 . S
C1530 C1533 1.499 . S
C1531 H1505 0.950 . S
C1531 C1530 1.414 . S
C1531 C1532 1.374 . S
C1532 H1506 0.950 . S
C1532 C1528 1.385 . S
C1532 C1531 1.374 . S
C1533 C1530 1.499 . S
C1533 C1534 1.373 . S
C1533 C1535 1.389 . S
C1534 H1507 0.950 . S
C1534 C1520 1.377 . S
C1534 C1533 1.373 . S
C1535 C1519 1.377 . S
C1535 C1533 1.389 . S
C1535 C1536 1.524 . S
C1536 C1535 1.524 . S
C1536 C1537 1.397 . S
C1536 C1541 1.363 . S
C1537 H1508 0.950 . S
C1537 C1536 1.397 . S
C1537 C1538 1.334 . S
C1538 H1509 0.950 . S
C1538 C1537 1.334 . S
C1538 C1539 1.287 . S
C1539 C1538 1.287 . S
C1539 C1540 1.524 . S
C1539 H1542 0.999 . S
C1540 H1510 0.950 . S
C1540 C1539 1.524 . S
C1540 C1541 1.415 . S
C1541 H1511 0.950 . S
C1541 C1536 1.363 . S
C1541 C1540 1.415 . S
H1542 C1539 0.999 . S
H1543 C1524 0.913 . S
H1544 C1562 0.951 . S
H1545 C1564 0.951 . S
H1546 C1566 0.950 . S
H1547 C1567 0.950 . S
H1548 C1569 0.950 . S
H1549 C1572 0.950 . S
H1550 C1573 0.950 . S
H1551 C1575 0.950 . S
H1552 C1576 0.950 . S
H1553 C1577 0.951 . S
H1554 C1579 0.951 . S
H1555 C1581 0.950 . S
H1556 C1582 0.950 . S
H1557 C1584 0.950 . S
H1558 C1587 0.950 . S
H1559 C1588 0.950 . S
H1560 C1590 0.950 . S
H1561 C1591 0.950 1_565 S
C1562 H1544 0.951 . S
C1562 C1563 1.366 . S
C1562 C1564 1.388 . S
C1563 C1562 1.366 . S
C1563 C1567 1.385 . S
C1564 H1545 0.951 . S
C1564 C1562 1.388 . S
C1564 C1565 1.366 . S
C1565 C1564 1.366 . S
C1565 C1566 1.414 . S
C1565 C1568 1.499 . S
C1566 H1546 0.950 . S
C1566 C1565 1.414 . S
C1566 C1567 1.374 . S
C1567 H1547 0.950 . S
C1567 C1563 1.385 . S
C1567 C1566 1.374 . S
C1568 C1565 1.499 . S
C1568 C1569 1.373 . S
C1568 C1570 1.389 1_565 S
C1569 H1548 0.950 . S
C1569 C1568 1.373 . S
C1569 C1585 1.377 1_565 S
C1570 C1568 1.389 1_545 S
C1570 C1571 1.524 . S
C1570 C1584 1.377 . S
C1571 C1570 1.524 . S
C1571 C1572 1.397 1_545 S
C1571 C1576 1.363 . S
C1572 H1549 0.950 . S
C1572 C1571 1.397 1_565 S
C1572 C1573 1.334 . S
C1573 H1550 0.950 . S
C1573 C1572 1.334 . S
C1573 C1574 1.287 . S
C1574 C1573 1.287 . S
C1574 C1575 1.524 1_565 S
C1574 H1593 0.913 . S
C1575 H1551 0.950 . S
C1575 C1574 1.524 1_545 S
C1575 C1576 1.415 . S
C1576 H1552 0.950 . S
C1576 C1571 1.363 . S
C1576 C1575 1.415 . S
C1577 H1553 0.951 . S
C1577 C1578 1.366 . S
C1577 C1579 1.388 . S
C1578 C1577 1.366 . S
C1578 C1582 1.385 . S
C1579 H1554 0.951 . S
C1579 C1577 1.388 . S
C1579 C1580 1.366 . S
C1580 C1579 1.366 . S
C1580 C1581 1.414 . S
C1580 C1583 1.499 . S
C1581 H1555 0.950 . S
C1581 C1580 1.414 . S
C1581 C1582 1.374 . S
C1582 H1556 0.950 . S
C1582 C1578 1.385 . S
C1582 C1581 1.374 . S
C1583 C1580 1.499 . S
C1583 C1584 1.373 . S
C1583 C1585 1.389 . S
C1584 H1557 0.950 . S
C1584 C1570 1.377 . S
C1584 C1583 1.373 . S
C1585 C1569 1.377 1_545 S
C1585 C1583 1.389 . S
C1585 C1586 1.524 . S
C1586 C1585 1.524 . S
C1586 C1587 1.397 . S
C1586 C1591 1.363 . S
C1587 H1558 0.950 . S
C1587 C1586 1.397 . S
C1587 C1588 1.334 . S
C1588 H1559 0.950 . S
C1588 C1587 1.334 . S
C1588 C1589 1.287 . S
C1589 C1588 1.287 . S
C1589 C1590 1.524 . S
C1589 H1592 0.999 . S
C1590 H1560 0.950 . S
C1590 C1589 1.524 . S
C1590 C1591 1.415 . S
C1591 H1561 0.950 1_545 S
C1591 C1586 1.363 . S
C1591 C1590 1.415 . S
H1592 C1589 0.999 . S
H1593 C1574 0.913 . S
H1594 C1612 0.951 . S
H1595 C1614 0.951 . S
H1596 C1616 0.950 . S
H1597 C1617 0.950 . S
H1598 C1619 0.950 . S
H1599 C1622 0.950 . S
H1600 C1623 0.950 . S
H1601 C1625 0.950 . S
H1602 C1626 0.950 . S
H1603 C1627 0.951 . S
H1604 C1629 0.951 . S
H1605 C1631 0.950 . S
H1606 C1632 0.950 . S
H1607 C1634 0.950 . S
H1608 C1637 0.950 . S
H1609 C1638 0.950 . S
H1610 C1640 0.950 . S
H1611 C1641 0.950 . S
C1612 H1594 0.951 . S
C1612 C1613 1.366 . S
C1612 C1614 1.388 . S
C1613 C1612 1.366 . S
C1613 C1617 1.385 . S
C1614 H1595 0.951 . S
C1614 C1612 1.388 . S
C1614 C1615 1.366 . S
C1615 C1614 1.366 . S
C1615 C1616 1.414 . S
C1615 C1618 1.499 . S
C1616 H1596 0.950 . S
C1616 C1615 1.414 . S
C1616 C1617 1.374 . S
C1617 H1597 0.950 . S
C1617 C1613 1.385 . S
C1617 C1616 1.374 . S
C1618 C1615 1.499 . S
C1618 C1619 1.373 . S
C1618 C1620 1.389 . S
C1619 H1598 0.950 . S
C1619 C1618 1.373 . S
C1619 C1635 1.377 1_655 S
C1620 C1618 1.389 . S
C1620 C1621 1.524 . S
C1620 C1634 1.377 1_655 S
C1621 C1620 1.524 . S
C1621 C1622 1.397 . S
C1621 C1626 1.363 1_655 S
C1622 H1599 0.950 . S
C1622 C1621 1.397 . S
C1622 C1623 1.334 . S
C1623 H1600 0.950 . S
C1623 C1622 1.334 . S
C1623 C1624 1.287 . S
C1624 C1623 1.287 . S
C1624 C1625 1.524 1_655 S
C1624 H1643 0.913 . S
C1625 H1601 0.950 . S
C1625 C1624 1.524 1_455 S
C1625 C1626 1.415 . S
C1626 H1602 0.950 . S
C1626 C1621 1.363 1_455 S
C1626 C1625 1.415 . S
C1627 H1603 0.951 . S
C1627 C1628 1.366 . S
C1627 C1629 1.388 . S
C1628 C1627 1.366 . S
C1628 C1632 1.385 . S
C1629 H1604 0.951 . S
C1629 C1627 1.388 . S
C1629 C1630 1.366 . S
C1630 C1629 1.366 . S
C1630 C1631 1.414 . S
C1630 C1633 1.499 . S
C1631 H1605 0.950 . S
C1631 C1630 1.414 . S
C1631 C1632 1.374 . S
C1632 H1606 0.950 . S
C1632 C1628 1.385 . S
C1632 C1631 1.374 . S
C1633 C1630 1.499 . S
C1633 C1634 1.373 . S
C1633 C1635 1.389 . S
C1634 H1607 0.950 . S
C1634 C1620 1.377 1_455 S
C1634 C1633 1.373 . S
C1635 C1619 1.377 1_455 S
C1635 C1633 1.389 . S
C1635 C1636 1.524 . S
C1636 C1635 1.524 . S
C1636 C1637 1.397 . S
C1636 C1641 1.363 1_455 S
C1637 H1608 0.950 . S
C1637 C1636 1.397 . S
C1637 C1638 1.334 . S
C1638 H1609 0.950 . S
C1638 C1637 1.334 . S
C1638 C1639 1.287 . S
C1639 C1638 1.287 . S
C1639 C1640 1.524 1_455 S
C1639 H1642 0.999 . S
C1640 H1610 0.950 . S
C1640 C1639 1.524 1_655 S
C1640 C1641 1.415 . S
C1641 H1611 0.950 . S
C1641 C1636 1.363 1_655 S
C1641 C1640 1.415 . S
H1642 C1639 0.999 . S
H1643 C1624 0.913 . S
H1644 C1662 0.951 . S
H1645 C1664 0.951 . S
H1646 C1666 0.950 . S
H1647 C1667 0.950 . S
H1648 C1669 0.950 . S
H1649 C1672 0.950 . S
H1650 C1673 0.950 . S
H1651 C1675 0.950 . S
H1652 C1676 0.950 . S
H1653 C1677 0.951 . S
H1654 C1679 0.951 . S
H1655 C1681 0.950 . S
H1656 C1682 0.950 . S
H1657 C1684 0.950 . S
H1658 C1687 0.950 . S
H1659 C1688 0.950 . S
H1660 C1690 0.950 . S
H1661 C1691 0.950 . S
C1662 H1644 0.951 . S
C1662 C1663 1.366 . S
C1662 C1664 1.388 . S
C1663 C1662 1.366 . S
C1663 C1667 1.385 . S
C1664 H1645 0.951 . S
C1664 C1662 1.388 . S
C1664 C1665 1.366 . S
C1665 C1664 1.366 . S
C1665 C1666 1.414 . S
C1665 C1668 1.499 . S
C1666 H1646 0.950 . S
C1666 C1665 1.414 . S
C1666 C1667 1.374 . S
C1667 H1647 0.950 . S
C1667 C1663 1.385 . S
C1667 C1666 1.374 . S
C1668 C1665 1.499 . S
C1668 C1669 1.373 . S
C1668 C1670 1.389 . S
C1669 H1648 0.950 . S
C1669 C1668 1.373 . S
C1669 C1685 1.377 1_565 S
C1670 C1668 1.389 . S
C1670 C1671 1.524 . S
C1670 C1684 1.377 . S
C1671 C1670 1.524 . S
C1671 C1672 1.397 . S
C1671 C1676 1.363 . S
C1672 H1649 0.950 . S
C1672 C1671 1.397 . S
C1672 C1673 1.334 . S
C1673 H1650 0.950 . S
C1673 C1672 1.334 . S
C1673 C1674 1.287 . S
C1674 C1673 1.287 . S
C1674 C1675 1.524 . S
C1674 H1693 0.913 . S
C1675 H1651 0.950 . S
C1675 C1674 1.524 . S
C1675 C1676 1.415 . S
C1676 H1652 0.950 . S
C1676 C1671 1.363 . S
C1676 C1675 1.415 . S
C1677 H1653 0.951 . S
C1677 C1678 1.366 . S
C1677 C1679 1.388 . S
C1678 C1677 1.366 . S
C1678 C1682 1.385 . S
C1679 H1654 0.951 . S
C1679 C1677 1.388 . S
C1679 C1680 1.366 . S
C1680 C1679 1.366 . S
C1680 C1681 1.414 . S
C1680 C1683 1.499 . S
C1681 H1655 0.950 . S
C1681 C1680 1.414 . S
C1681 C1682 1.374 . S
C1682 H1656 0.950 . S
C1682 C1678 1.385 . S
C1682 C1681 1.374 . S
C1683 C1680 1.499 . S
C1683 C1684 1.373 1_545 S
C1683 C1685 1.389 . S
C1684 H1657 0.950 . S
C1684 C1670 1.377 . S
C1684 C1683 1.373 1_565 S
C1685 C1669 1.377 1_545 S
C1685 C1683 1.389 . S
C1685 C1686 1.524 . S
C1686 C1685 1.524 . S
C1686 C1687 1.397 . S
C1686 C1691 1.363 . S
C1687 H1658 0.950 . S
C1687 C1686 1.397 . S
C1687 C1688 1.334 . S
C1688 H1659 0.950 . S
C1688 C1687 1.334 . S
C1688 C1689 1.287 . S
C1689 C1688 1.287 . S
C1689 C1690 1.524 . S
C1689 H1692 0.999 . S
C1690 H1660 0.950 . S
C1690 C1689 1.524 . S
C1690 C1691 1.415 . S
C1691 H1661 0.950 . S
C1691 C1686 1.363 . S
C1691 C1690 1.415 . S
H1692 C1689 0.999 . S
H1693 C1674 0.913 . S
H1694 C1712 0.951 . S
H1695 C1714 0.951 . S
H1696 C1716 0.950 . S
H1697 C1717 0.950 . S
H1698 C1719 0.950 . S
H1699 C1722 0.950 . S
H1700 C1723 0.950 . S
H1701 C1725 0.950 . S
H1702 C1726 0.950 . S
H1703 C1727 0.951 . S
H1704 C1729 0.951 . S
H1705 C1731 0.950 . S
H1706 C1732 0.950 . S
H1707 C1734 0.950 . S
H1708 C1737 0.950 . S
H1709 C1738 0.950 . S
H1710 C1740 0.950 . S
H1711 C1741 0.950 . S
C1712 H1694 0.951 . S
C1712 C1713 1.366 . S
C1712 C1714 1.388 . S
C1713 C1712 1.366 . S
C1713 C1717 1.385 . S
C1714 H1695 0.951 . S
C1714 C1712 1.388 . S
C1714 C1715 1.366 . S
C1715 C1714 1.366 . S
C1715 C1716 1.414 . S
C1715 C1718 1.499 . S
C1716 H1696 0.950 . S
C1716 C1715 1.414 . S
C1716 C1717 1.374 . S
C1717 H1697 0.950 . S
C1717 C1713 1.385 . S
C1717 C1716 1.374 . S
C1718 C1715 1.499 . S
C1718 C1719 1.373 . S
C1718 C1720 1.389 . S
C1719 H1698 0.950 . S
C1719 C1718 1.373 . S
C1719 C1735 1.377 1_655 S
C1720 C1718 1.389 . S
C1720 C1721 1.524 . S
C1720 C1734 1.377 1_655 S
C1721 C1720 1.524 . S
C1721 C1722 1.397 . S
C1721 C1726 1.363 . S
C1722 H1699 0.950 . S
C1722 C1721 1.397 . S
C1722 C1723 1.334 . S
C1723 H1700 0.950 . S
C1723 C1722 1.334 . S
C1723 C1724 1.287 . S
C1724 C1723 1.287 . S
C1724 C1725 1.524 . S
C1724 H1743 0.913 . S
C1725 H1701 0.950 . S
C1725 C1724 1.524 . S
C1725 C1726 1.415 . S
C1726 H1702 0.950 . S
C1726 C1721 1.363 . S
C1726 C1725 1.415 . S
C1727 H1703 0.951 . S
C1727 C1728 1.366 . S
C1727 C1729 1.388 . S
C1728 C1727 1.366 . S
C1728 C1732 1.385 . S
C1729 H1704 0.951 . S
C1729 C1727 1.388 . S
C1729 C1730 1.366 . S
C1730 C1729 1.366 . S
C1730 C1731 1.414 . S
C1730 C1733 1.499 . S
C1731 H1705 0.950 . S
C1731 C1730 1.414 . S
C1731 C1732 1.374 . S
C1732 H1706 0.950 . S
C1732 C1728 1.385 . S
C1732 C1731 1.374 . S
C1733 C1730 1.499 . S
C1733 C1734 1.373 . S
C1733 C1735 1.389 . S
C1734 H1707 0.950 . S
C1734 C1720 1.377 1_455 S
C1734 C1733 1.373 . S
C1735 C1719 1.377 1_455 S
C1735 C1733 1.389 . S
C1735 C1736 1.524 . S
C1736 C1735 1.524 . S
C1736 C1737 1.397 . S
C1736 C1741 1.363 . S
C1737 H1708 0.950 . S
C1737 C1736 1.397 . S
C1737 C1738 1.334 . S
C1738 H1709 0.950 . S
C1738 C1737 1.334 . S
C1738 C1739 1.287 . S
C1739 C1738 1.287 . S
C1739 C1740 1.524 . S
C1739 H1742 0.999 . S
C1740 H1710 0.950 . S
C1740 C1739 1.524 . S
C1740 C1741 1.415 . S
C1741 H1711 0.950 . S
C1741 C1736 1.363 . S
C1741 C1740 1.415 . S
H1742 C1739 0.999 . S
H1743 C1724 0.913 . S
H1744 C1762 0.951 . S
H1745 C1764 0.951 . S
H1746 C1766 0.950 . S
H1747 C1767 0.950 . S
H1748 C1769 0.950 . S
H1749 C1772 0.950 . S
H1750 C1773 0.950 . S
H1751 C1775 0.950 . S
H1752 C1776 0.950 . S
H1753 C1777 0.951 . S
H1754 C1779 0.951 . S
H1755 C1781 0.950 . S
H1756 C1782 0.950 . S
H1757 C1784 0.950 . S
H1758 C1787 0.950 . S
H1759 C1788 0.950 . S
H1760 C1790 0.950 . S
H1761 C1791 0.950 . S
C1762 H1744 0.951 . S
C1762 C1763 1.366 . S
C1762 C1764 1.388 . S
C1763 C1762 1.366 . S
C1763 C1767 1.385 . S
C1764 H1745 0.951 . S
C1764 C1762 1.388 . S
C1764 C1765 1.366 . S
C1765 C1764 1.366 . S
C1765 C1766 1.414 . S
C1765 C1768 1.499 . S
C1766 H1746 0.950 . S
C1766 C1765 1.414 . S
C1766 C1767 1.374 . S
C1767 H1747 0.950 . S
C1767 C1763 1.385 . S
C1767 C1766 1.374 . S
C1768 C1765 1.499 . S
C1768 C1769 1.373 . S
C1768 C1770 1.389 . S
C1769 H1748 0.950 . S
C1769 C1768 1.373 . S
C1769 C1785 1.377 . S
C1770 C1768 1.389 . S
C1770 C1771 1.524 . S
C1770 C1784 1.377 . S
C1771 C1770 1.524 . S
C1771 C1772 1.397 . S
C1771 C1776 1.363 . S
C1772 H1749 0.950 . S
C1772 C1771 1.397 . S
C1772 C1773 1.334 . S
C1773 H1750 0.950 . S
C1773 C1772 1.334 . S
C1773 C1774 1.287 . S
C1774 C1773 1.287 . S
C1774 C1775 1.524 . S
C1774 H1793 0.913 . S
C1775 H1751 0.950 . S
C1775 C1774 1.524 . S
C1775 C1776 1.415 . S
C1776 H1752 0.950 . S
C1776 C1771 1.363 . S
C1776 C1775 1.415 . S
C1777 H1753 0.951 . S
C1777 C1778 1.366 . S
C1777 C1779 1.388 . S
C1778 C1777 1.366 . S
C1778 C1782 1.385 . S
C1779 H1754 0.951 . S
C1779 C1777 1.388 . S
C1779 C1780 1.366 . S
C1780 C1779 1.366 . S
C1780 C1781 1.414 . S
C1780 C1783 1.499 . S
C1781 H1755 0.950 . S
C1781 C1780 1.414 . S
C1781 C1782 1.374 . S
C1782 H1756 0.950 . S
C1782 C1778 1.385 . S
C1782 C1781 1.374 . S
C1783 C1780 1.499 . S
C1783 C1784 1.373 . S
C1783 C1785 1.389 . S
C1784 H1757 0.950 . S
C1784 C1770 1.377 . S
C1784 C1783 1.373 . S
C1785 C1769 1.377 . S
C1785 C1783 1.389 . S
C1785 C1786 1.524 . S
C1786 C1785 1.524 . S
C1786 C1787 1.397 . S
C1786 C1791 1.363 1_554 S
C1787 H1758 0.950 . S
C1787 C1786 1.397 . S
C1787 C1788 1.334 . S
C1788 H1759 0.950 . S
C1788 C1787 1.334 . S
C1788 C1789 1.287 . S
C1789 C1788 1.287 . S
C1789 C1790 1.524 1_554 S
C1789 H1792 0.999 1_554 S
C1790 H1760 0.950 . S
C1790 C1789 1.524 1_556 S
C1790 C1791 1.415 . S
C1791 H1761 0.950 . S
C1791 C1786 1.363 1_556 S
C1791 C1790 1.415 . S
H1792 C1789 0.999 1_556 S
H1793 C1774 0.913 . S
H1794 C1812 0.951 . S
H1795 C1814 0.951 . S
H1796 C1816 0.950 . S
H1797 C1817 0.950 . S
H1798 C1819 0.950 . S
H1799 C1822 0.950 . S
H1800 C1823 0.950 . S
H1801 C1825 0.950 . S
H1802 C1826 0.950 . S
H1803 C1827 0.951 . S
H1804 C1829 0.951 . S
H1805 C1831 0.950 . S
H1806 C1832 0.950 . S
H1807 C1834 0.950 . S
H1808 C1837 0.950 . S
H1809 C1838 0.950 . S
H1810 C1840 0.950 . S
H1811 C1841 0.950 . S
C1812 H1794 0.951 . S
C1812 C1813 1.366 . S
C1812 C1814 1.388 . S
C1813 C1812 1.366 . S
C1813 C1817 1.385 . S
C1814 H1795 0.951 . S
C1814 C1812 1.388 . S
C1814 C1815 1.366 . S
C1815 C1814 1.366 . S
C1815 C1816 1.414 . S
C1815 C1818 1.499 . S
C1816 H1796 0.950 . S
C1816 C1815 1.414 . S
C1816 C1817 1.374 . S
C1817 H1797 0.950 . S
C1817 C1813 1.385 . S
C1817 C1816 1.374 . S
C1818 C1815 1.499 . S
C1818 C1819 1.373 . S
C1818 C1820 1.389 . S
C1819 H1798 0.950 . S
C1819 C1818 1.373 . S
C1819 C1835 1.377 . S
C1820 C1818 1.389 . S
C1820 C1821 1.524 . S
C1820 C1834 1.377 . S
C1821 C1820 1.524 . S
C1821 C1822 1.397 . S
C1821 C1826 1.363 . S
C1822 H1799 0.950 . S
C1822 C1821 1.397 . S
C1822 C1823 1.334 . S
C1823 H1800 0.950 . S
C1823 C1822 1.334 . S
C1823 C1824 1.287 . S
C1824 C1823 1.287 . S
C1824 C1825 1.524 . S
C1824 H1843 0.913 . S
C1825 H1801 0.950 . S
C1825 C1824 1.524 . S
C1825 C1826 1.415 . S
C1826 H1802 0.950 . S
C1826 C1821 1.363 . S
C1826 C1825 1.415 . S
C1827 H1803 0.951 . S
C1827 C1828 1.366 . S
C1827 C1829 1.388 . S
C1828 C1827 1.366 . S
C1828 C1832 1.385 . S
C1829 H1804 0.951 . S
C1829 C1827 1.388 . S
C1829 C1830 1.366 . S
C1830 C1829 1.366 . S
C1830 C1831 1.414 . S
C1830 C1833 1.499 . S
C1831 H1805 0.950 . S
C1831 C1830 1.414 . S
C1831 C1832 1.374 . S
C1832 H1806 0.950 . S
C1832 C1828 1.385 . S
C1832 C1831 1.374 . S
C1833 C1830 1.499 . S
C1833 C1834 1.373 . S
C1833 C1835 1.389 . S
C1834 H1807 0.950 . S
C1834 C1820 1.377 . S
C1834 C1833 1.373 . S
C1835 C1819 1.377 . S
C1835 C1833 1.389 . S
C1835 C1836 1.524 . S
C1836 C1835 1.524 . S
C1836 C1837 1.397 . S
C1836 C1841 1.363 1_556 S
C1837 H1808 0.950 . S
C1837 C1836 1.397 . S
C1837 C1838 1.334 1_556 S
C1838 H1809 0.950 . S
C1838 C1837 1.334 1_554 S
C1838 C1839 1.287 . S
C1839 C1838 1.287 . S
C1839 C1840 1.524 . S
C1839 H1842 0.999 . S
C1840 H1810 0.950 . S
C1840 C1839 1.524 . S
C1840 C1841 1.415 . S
C1841 H1811 0.950 . S
C1841 C1836 1.363 1_554 S
C1841 C1840 1.415 . S
H1842 C1839 0.999 . S
H1843 C1824 0.913 . S
H1844 C1862 0.951 . S
H1845 C1864 0.951 . S
H1846 C1866 0.950 . S
H1847 C1867 0.950 . S
H1848 C1869 0.950 . S
H1849 C1872 0.950 . S
H1850 C1873 0.950 . S
H1851 C1875 0.950 . S
H1852 C1876 0.950 . S
H1853 C1877 0.951 . S
H1854 C1879 0.951 . S
H1855 C1881 0.950 . S
H1856 C1882 0.950 . S
H1857 C1884 0.950 . S
H1858 C1887 0.950 . S
H1859 C1888 0.950 1_556 S
H1860 C1890 0.950 . S
H1861 C1891 0.950 . S
C1862 H1844 0.951 . S
C1862 C1863 1.366 . S
C1862 C1864 1.388 . S
C1863 C1862 1.366 . S
C1863 C1867 1.385 . S
C1864 H1845 0.951 . S
C1864 C1862 1.388 . S
C1864 C1865 1.366 . S
C1865 C1864 1.366 . S
C1865 C1866 1.414 . S
C1865 C1868 1.499 . S
C1866 H1846 0.950 . S
C1866 C1865 1.414 . S
C1866 C1867 1.374 . S
C1867 H1847 0.950 . S
C1867 C1863 1.385 . S
C1867 C1866 1.374 . S
C1868 C1865 1.499 . S
C1868 C1869 1.373 . S
C1868 C1870 1.389 . S
C1869 H1848 0.950 . S
C1869 C1868 1.373 . S
C1869 C1885 1.377 . S
C1870 C1868 1.389 . S
C1870 C1871 1.524 . S
C1870 C1884 1.377 . S
C1871 C1870 1.524 . S
C1871 C1872 1.397 . S
C1871 C1876 1.363 . S
C1872 H1849 0.950 . S
C1872 C1871 1.397 . S
C1872 C1873 1.334 . S
C1873 H1850 0.950 . S
C1873 C1872 1.334 . S
C1873 C1874 1.287 . S
C1874 C1873 1.287 . S
C1874 C1875 1.524 . S
C1874 H1893 0.913 . S
C1875 H1851 0.950 . S
C1875 C1874 1.524 . S
C1875 C1876 1.415 . S
C1876 H1852 0.950 . S
C1876 C1871 1.363 . S
C1876 C1875 1.415 . S
C1877 H1853 0.951 . S
C1877 C1878 1.366 . S
C1877 C1879 1.388 . S
C1878 C1877 1.366 . S
C1878 C1882 1.385 . S
C1879 H1854 0.951 . S
C1879 C1877 1.388 . S
C1879 C1880 1.366 . S
C1880 C1879 1.366 . S
C1880 C1881 1.414 . S
C1880 C1883 1.499 . S
C1881 H1855 0.950 . S
C1881 C1880 1.414 . S
C1881 C1882 1.374 . S
C1882 H1856 0.950 . S
C1882 C1878 1.385 . S
C1882 C1881 1.374 . S
C1883 C1880 1.499 . S
C1883 C1884 1.373 . S
C1883 C1885 1.389 . S
C1884 H1857 0.950 . S
C1884 C1870 1.377 . S
C1884 C1883 1.373 . S
C1885 C1869 1.377 . S
C1885 C1883 1.389 . S
C1885 C1886 1.524 . S
C1886 C1885 1.524 . S
C1886 C1887 1.397 . S
C1886 C1891 1.363 . S
C1887 H1858 0.950 . S
C1887 C1886 1.397 . S
C1887 C1888 1.334 . S
C1888 H1859 0.950 1_554 S
C1888 C1887 1.334 . S
C1888 C1889 1.287 . S
C1889 C1888 1.287 . S
C1889 C1890 1.524 . S
C1889 H1892 0.999 . S
C1890 H1860 0.950 . S
C1890 C1889 1.524 . S
C1890 C1891 1.415 . S
C1891 H1861 0.950 . S
C1891 C1886 1.363 . S
C1891 C1890 1.415 . S
H1892 C1889 0.999 . S
H1893 C1874 0.913 . S
H1894 C1912 0.951 . S
H1895 C1914 0.951 . S
H1896 C1916 0.950 . S
H1897 C1917 0.950 . S
H1898 C1919 0.950 . S
H1899 C1922 0.950 . S
H1900 C1923 0.950 . S
H1901 C1925 0.950 . S
H1902 C1926 0.950 . S
H1903 C1927 0.951 . S
H1904 C1929 0.951 . S
H1905 C1931 0.950 . S
H1906 C1932 0.950 . S
H1907 C1934 0.950 . S
H1908 C1937 0.950 . S
H1909 C1938 0.950 . S
H1910 C1940 0.950 . S
H1911 C1941 0.950 . S
C1912 H1894 0.951 . S
C1912 C1913 1.366 . S
C1912 C1914 1.388 . S
C1913 C1912 1.366 . S
C1913 C1917 1.385 . S
C1914 H1895 0.951 . S
C1914 C1912 1.388 . S
C1914 C1915 1.366 . S
C1915 C1914 1.366 . S
C1915 C1916 1.414 . S
C1915 C1918 1.499 . S
C1916 H1896 0.950 . S
C1916 C1915 1.414 . S
C1916 C1917 1.374 . S
C1917 H1897 0.950 . S
C1917 C1913 1.385 . S
C1917 C1916 1.374 . S
C1918 C1915 1.499 . S
C1918 C1919 1.373 . S
C1918 C1920 1.389 . S
C1919 H1898 0.950 . S
C1919 C1918 1.373 . S
C1919 C1935 1.377 . S
C1920 C1918 1.389 . S
C1920 C1921 1.524 . S
C1920 C1934 1.377 . S
C1921 C1920 1.524 . S
C1921 C1922 1.397 . S
C1921 C1926 1.363 . S
C1922 H1899 0.950 . S
C1922 C1921 1.397 . S
C1922 C1923 1.334 . S
C1923 H1900 0.950 . S
C1923 C1922 1.334 . S
C1923 C1924 1.287 . S
C1924 C1923 1.287 . S
C1924 C1925 1.524 . S
C1924 H1943 0.913 . S
C1925 H1901 0.950 . S
C1925 C1924 1.524 . S
C1925 C1926 1.415 . S
C1926 H1902 0.950 . S
C1926 C1921 1.363 . S
C1926 C1925 1.415 . S
C1927 H1903 0.951 . S
C1927 C1928 1.366 . S
C1927 C1929 1.388 . S
C1928 C1927 1.366 . S
C1928 C1932 1.385 . S
C1929 H1904 0.951 . S
C1929 C1927 1.388 . S
C1929 C1930 1.366 . S
C1930 C1929 1.366 . S
C1930 C1931 1.414 . S
C1930 C1933 1.499 . S
C1931 H1905 0.950 . S
C1931 C1930 1.414 . S
C1931 C1932 1.374 . S
C1932 H1906 0.950 . S
C1932 C1928 1.385 . S
C1932 C1931 1.374 . S
C1933 C1930 1.499 . S
C1933 C1934 1.373 . S
C1933 C1935 1.389 . S
C1934 H1907 0.950 . S
C1934 C1920 1.377 . S
C1934 C1933 1.373 . S
C1935 C1919 1.377 . S
C1935 C1933 1.389 . S
C1935 C1936 1.524 . S
C1936 C1935 1.524 . S
C1936 C1937 1.397 . S
C1936 C1941 1.363 1_556 S
C1937 H1908 0.950 . S
C1937 C1936 1.397 . S
C1937 C1938 1.334 1_556 S
C1938 H1909 0.950 . S
C1938 C1937 1.334 1_554 S
C1938 C1939 1.287 . S
C1939 C1938 1.287 . S
C1939 C1940 1.524 . S
C1939 H1942 0.999 . S
C1940 H1910 0.950 . S
C1940 C1939 1.524 . S
C1940 C1941 1.415 . S
C1941 H1911 0.950 . S
C1941 C1936 1.363 1_554 S
C1941 C1940 1.415 . S
H1942 C1939 0.999 . S
H1943 C1924 0.913 . S
H1944 C1962 0.951 . S
H1945 C1964 0.951 . S
H1946 C1966 0.950 . S
H1947 C1967 0.950 . S
H1948 C1969 0.950 . S
H1949 C1972 0.950 . S
H1950 C1973 0.950 . S
H1951 C1975 0.950 . S
H1952 C1976 0.950 . S
H1953 C1977 0.951 . S
H1954 C1979 0.951 . S
H1955 C1981 0.950 . S
H1956 C1982 0.950 . S
H1957 C1984 0.950 . S
H1958 C1987 0.950 . S
H1959 C1988 0.950 . S
H1960 C1990 0.950 . S
H1961 C1991 0.950 . S
C1962 H1944 0.951 . S
C1962 C1963 1.366 . S
C1962 C1964 1.388 . S
C1963 C1962 1.366 . S
C1963 C1967 1.385 . S
C1964 H1945 0.951 . S
C1964 C1962 1.388 . S
C1964 C1965 1.366 . S
C1965 C1964 1.366 . S
C1965 C1966 1.414 . S
C1965 C1968 1.499 . S
C1966 H1946 0.950 . S
C1966 C1965 1.414 . S
C1966 C1967 1.374 . S
C1967 H1947 0.950 . S
C1967 C1963 1.385 . S
C1967 C1966 1.374 . S
C1968 C1965 1.499 . S
C1968 C1969 1.373 . S
C1968 C1970 1.389 . S
C1969 H1948 0.950 . S
C1969 C1968 1.373 . S
C1969 C1985 1.377 . S
C1970 C1968 1.389 . S
C1970 C1971 1.524 . S
C1970 C1984 1.377 . S
C1971 C1970 1.524 . S
C1971 C1972 1.397 . S
C1971 C1976 1.363 . S
C1972 H1949 0.950 . S
C1972 C1971 1.397 . S
C1972 C1973 1.334 . S
C1973 H1950 0.950 . S
C1973 C1972 1.334 . S
C1973 C1974 1.287 . S
C1974 C1973 1.287 . S
C1974 C1975 1.524 . S
C1974 H1993 0.913 . S
C1975 H1951 0.950 . S
C1975 C1974 1.524 . S
C1975 C1976 1.415 . S
C1976 H1952 0.950 . S
C1976 C1971 1.363 . S
C1976 C1975 1.415 . S
C1977 H1953 0.951 . S
C1977 C1978 1.366 . S
C1977 C1979 1.388 . S
C1978 C1977 1.366 . S
C1978 C1982 1.385 . S
C1979 H1954 0.951 . S
C1979 C1977 1.388 . S
C1979 C1980 1.366 . S
C1980 C1979 1.366 . S
C1980 C1981 1.414 . S
C1980 C1983 1.499 . S
C1981 H1955 0.950 . S
C1981 C1980 1.414 . S
C1981 C1982 1.374 . S
C1982 H1956 0.950 . S
C1982 C1978 1.385 . S
C1982 C1981 1.374 . S
C1983 C1980 1.499 . S
C1983 C1984 1.373 . S
C1983 C1985 1.389 . S
C1984 H1957 0.950 . S
C1984 C1970 1.377 . S
C1984 C1983 1.373 . S
C1985 C1969 1.377 . S
C1985 C1983 1.389 . S
C1985 C1986 1.524 . S
C1986 C1985 1.524 . S
C1986 C1987 1.397 . S
C1986 C1991 1.363 . S
C1987 H1958 0.950 . S
C1987 C1986 1.397 . S
C1987 C1988 1.334 . S
C1988 H1959 0.950 . S
C1988 C1987 1.334 . S
C1988 C1989 1.287 . S
C1989 C1988 1.287 . S
C1989 C1990 1.524 . S
C1989 H1992 0.999 . S
C1990 H1960 0.950 . S
C1990 C1989 1.524 . S
C1990 C1991 1.415 . S
C1991 H1961 0.950 . S
C1991 C1986 1.363 . S
C1991 C1990 1.415 . S
H1992 C1989 0.999 . S
H1993 C1974 0.913 . S
H1994 C2012 0.951 . S
H1995 C2014 0.951 . S
H1996 C2016 0.950 . S
H1997 C2017 0.950 . S
H1998 C2019 0.950 . S
H1999 C2022 0.950 . S
H2000 C2023 0.950 . S
H2001 C2025 0.950 . S
H2002 C2026 0.950 . S
H2003 C2027 0.951 . S
H2004 C2029 0.951 . S
H2005 C2031 0.950 . S
H2006 C2032 0.950 . S
H2007 C2034 0.950 . S
H2008 C2037 0.950 . S
H2009 C2038 0.950 . S
H2010 C2040 0.950 . S
H2011 C2041 0.950 . S
C2012 H1994 0.951 . S
C2012 C2013 1.366 . S
C2012 C2014 1.388 . S
C2013 C2012 1.366 . S
C2013 C2017 1.385 . S
C2014 H1995 0.951 . S
C2014 C2012 1.388 . S
C2014 C2015 1.366 . S
C2015 C2014 1.366 . S
C2015 C2016 1.414 . S
C2015 C2018 1.499 . S
C2016 H1996 0.950 . S
C2016 C2015 1.414 . S
C2016 C2017 1.374 . S
C2017 H1997 0.950 . S
C2017 C2013 1.385 . S
C2017 C2016 1.374 . S
C2018 C2015 1.499 . S
C2018 C2019 1.373 . S
C2018 C2020 1.389 . S
C2019 H1998 0.950 . S
C2019 C2018 1.373 . S
C2019 C2035 1.377 . S
C2020 C2018 1.389 . S
C2020 C2021 1.524 . S
C2020 C2034 1.377 . S
C2021 C2020 1.524 . S
C2021 C2022 1.397 . S
C2021 C2026 1.363 . S
C2022 H1999 0.950 . S
C2022 C2021 1.397 . S
C2022 C2023 1.334 . S
C2023 H2000 0.950 . S
C2023 C2022 1.334 . S
C2023 C2024 1.287 . S
C2024 C2023 1.287 . S
C2024 C2025 1.524 . S
C2024 H2043 0.913 . S
C2025 H2001 0.950 . S
C2025 C2024 1.524 . S
C2025 C2026 1.415 . S
C2026 H2002 0.950 . S
C2026 C2021 1.363 . S
C2026 C2025 1.415 . S
C2027 H2003 0.951 . S
C2027 C2028 1.366 . S
C2027 C2029 1.388 . S
C2028 C2027 1.366 . S
C2028 C2032 1.385 . S
C2029 H2004 0.951 . S
C2029 C2027 1.388 . S
C2029 C2030 1.366 . S
C2030 C2029 1.366 . S
C2030 C2031 1.414 . S
C2030 C2033 1.499 . S
C2031 H2005 0.950 . S
C2031 C2030 1.414 . S
C2031 C2032 1.374 . S
C2032 H2006 0.950 . S
C2032 C2028 1.385 . S
C2032 C2031 1.374 . S
C2033 C2030 1.499 . S
C2033 C2034 1.373 . S
C2033 C2035 1.389 . S
C2034 H2007 0.950 . S
C2034 C2020 1.377 . S
C2034 C2033 1.373 . S
C2035 C2019 1.377 . S
C2035 C2033 1.389 . S
C2035 C2036 1.524 . S
C2036 C2035 1.524 . S
C2036 C2037 1.397 . S
C2036 C2041 1.363 . S
C2037 H2008 0.950 . S
C2037 C2036 1.397 . S
C2037 C2038 1.334 . S
C2038 H2009 0.950 . S
C2038 C2037 1.334 . S
C2038 C2039 1.287 . S
C2039 C2038 1.287 . S
C2039 C2040 1.524 . S
C2039 H2042 0.999 . S
C2040 H2010 0.950 . S
C2040 C2039 1.524 . S
C2040 C2041 1.415 . S
C2041 H2011 0.950 . S
C2041 C2036 1.363 . S
C2041 C2040 1.415 . S
H2042 C2039 0.999 . S
H2043 C2024 0.913 . S
H2044 C2062 0.951 . S
H2045 C2064 0.951 . S
H2046 C2066 0.950 . S
H2047 C2067 0.950 . S
H2048 C2069 0.950 . S
H2049 C2072 0.950 . S
H2050 C2073 0.950 . S
H2051 C2075 0.950 . S
H2052 C2076 0.950 . S
H2053 C2077 0.951 . S
H2054 C2079 0.951 . S
H2055 C2081 0.950 . S
H2056 C2082 0.950 . S
H2057 C2084 0.950 . S
H2058 C2087 0.950 . S
H2059 C2088 0.950 . S
H2060 C2090 0.950 . S
H2061 C2091 0.950 . S
C2062 H2044 0.951 . S
C2062 C2063 1.366 . S
C2062 C2064 1.388 . S
C2063 C2062 1.366 . S
C2063 C2067 1.385 . S
C2064 H2045 0.951 . S
C2064 C2062 1.388 . S
C2064 C2065 1.366 . S
C2065 C2064 1.366 . S
C2065 C2066 1.414 . S
C2065 C2068 1.499 . S
C2066 H2046 0.950 . S
C2066 C2065 1.414 . S
C2066 C2067 1.374 . S
C2067 H2047 0.950 . S
C2067 C2063 1.385 . S
C2067 C2066 1.374 . S
C2068 C2065 1.499 . S
C2068 C2069 1.373 . S
C2068 C2070 1.389 . S
C2069 H2048 0.950 . S
C2069 C2068 1.373 . S
C2069 C2085 1.377 . S
C2070 C2068 1.389 . S
C2070 C2071 1.524 . S
C2070 C2084 1.377 . S
C2071 C2070 1.524 . S
C2071 C2072 1.397 . S
C2071 C2076 1.363 . S
C2072 H2049 0.950 . S
C2072 C2071 1.397 . S
C2072 C2073 1.334 . S
C2073 H2050 0.950 . S
C2073 C2072 1.334 . S
C2073 C2074 1.287 . S
C2074 C2073 1.287 . S
C2074 C2075 1.524 . S
C2074 H2093 0.913 . S
C2075 H2051 0.950 . S
C2075 C2074 1.524 . S
C2075 C2076 1.415 . S
C2076 H2052 0.950 . S
C2076 C2071 1.363 . S
C2076 C2075 1.415 . S
C2077 H2053 0.951 . S
C2077 C2078 1.366 . S
C2077 C2079 1.388 . S
C2078 C2077 1.366 . S
C2078 C2082 1.385 . S
C2079 H2054 0.951 . S
C2079 C2077 1.388 . S
C2079 C2080 1.366 . S
C2080 C2079 1.366 . S
C2080 C2081 1.414 . S
C2080 C2083 1.499 . S
C2081 H2055 0.950 . S
C2081 C2080 1.414 . S
C2081 C2082 1.374 . S
C2082 H2056 0.950 . S
C2082 C2078 1.385 . S
C2082 C2081 1.374 . S
C2083 C2080 1.499 . S
C2083 C2084 1.373 . S
C2083 C2085 1.389 . S
C2084 H2057 0.950 . S
C2084 C2070 1.377 . S
C2084 C2083 1.373 . S
C2085 C2069 1.377 . S
C2085 C2083 1.389 . S
C2085 C2086 1.524 . S
C2086 C2085 1.524 . S
C2086 C2087 1.397 . S
C2086 C2091 1.363 . S
C2087 H2058 0.950 . S
C2087 C2086 1.397 . S
C2087 C2088 1.334 . S
C2088 H2059 0.950 . S
C2088 C2087 1.334 . S
C2088 C2089 1.287 . S
C2089 C2088 1.287 . S
C2089 C2090 1.524 . S
C2089 H2092 0.999 . S
C2090 H2060 0.950 . S
C2090 C2089 1.524 . S
C2090 C2091 1.415 . S
C2091 H2061 0.950 . S
C2091 C2086 1.363 . S
C2091 C2090 1.415 . S
H2092 C2089 0.999 . S
H2093 C2074 0.913 . S
H2094 C2112 0.951 . S
H2095 C2114 0.951 . S
H2096 C2116 0.950 . S
H2097 C2117 0.950 . S
H2098 C2119 0.950 . S
H2099 C2122 0.950 . S
H2100 C2123 0.950 . S
H2101 C2125 0.950 . S
H2102 C2126 0.950 . S
H2103 C2127 0.951 . S
H2104 C2129 0.951 . S
H2105 C2131 0.950 . S
H2106 C2132 0.950 . S
H2107 C2134 0.950 . S
H2108 C2137 0.950 . S
H2109 C2138 0.950 . S
H2110 C2140 0.950 . S
H2111 C2141 0.950 . S
C2112 H2094 0.951 . S
C2112 C2113 1.366 . S
C2112 C2114 1.388 . S
C2113 C2112 1.366 . S
C2113 C2117 1.385 . S
C2114 H2095 0.951 . S
C2114 C2112 1.388 . S
C2114 C2115 1.366 . S
C2115 C2114 1.366 . S
C2115 C2116 1.414 . S
C2115 C2118 1.499 . S
C2116 H2096 0.950 . S
C2116 C2115 1.414 . S
C2116 C2117 1.374 . S
C2117 H2097 0.950 . S
C2117 C2113 1.385 . S
C2117 C2116 1.374 . S
C2118 C2115 1.499 . S
C2118 C2119 1.373 . S
C2118 C2120 1.389 . S
C2119 H2098 0.950 . S
C2119 C2118 1.373 . S
C2119 C2135 1.377 . S
C2120 C2118 1.389 . S
C2120 C2121 1.524 . S
C2120 C2134 1.377 . S
C2121 C2120 1.524 . S
C2121 C2122 1.397 . S
C2121 C2126 1.363 . S
C2122 H2099 0.950 . S
C2122 C2121 1.397 . S
C2122 C2123 1.334 . S
C2123 H2100 0.950 . S
C2123 C2122 1.334 . S
C2123 C2124 1.287 . S
C2124 C2123 1.287 . S
C2124 C2125 1.524 . S
C2124 H2143 0.913 . S
C2125 H2101 0.950 . S
C2125 C2124 1.524 . S
C2125 C2126 1.415 . S
C2126 H2102 0.950 . S
C2126 C2121 1.363 . S
C2126 C2125 1.415 . S
C2127 H2103 0.951 . S
C2127 C2128 1.366 . S
C2127 C2129 1.388 . S
C2128 C2127 1.366 . S
C2128 C2132 1.385 . S
C2129 H2104 0.951 . S
C2129 C2127 1.388 . S
C2129 C2130 1.366 . S
C2130 C2129 1.366 . S
C2130 C2131 1.414 . S
C2130 C2133 1.499 . S
C2131 H2105 0.950 . S
C2131 C2130 1.414 . S
C2131 C2132 1.374 . S
C2132 H2106 0.950 . S
C2132 C2128 1.385 . S
C2132 C2131 1.374 . S
C2133 C2130 1.499 . S
C2133 C2134 1.373 . S
C2133 C2135 1.389 . S
C2134 H2107 0.950 . S
C2134 C2120 1.377 . S
C2134 C2133 1.373 . S
C2135 C2119 1.377 . S
C2135 C2133 1.389 . S
C2135 C2136 1.524 . S
C2136 C2135 1.524 . S
C2136 C2137 1.397 . S
C2136 C2141 1.363 . S
C2137 H2108 0.950 . S
C2137 C2136 1.397 . S
C2137 C2138 1.334 . S
C2138 H2109 0.950 . S
C2138 C2137 1.334 . S
C2138 C2139 1.287 . S
C2139 C2138 1.287 . S
C2139 C2140 1.524 . S
C2139 H2142 0.999 . S
C2140 H2110 0.950 . S
C2140 C2139 1.524 . S
C2140 C2141 1.415 . S
C2141 H2111 0.950 . S
C2141 C2136 1.363 . S
C2141 C2140 1.415 . S
H2142 C2139 0.999 . S
H2143 C2124 0.913 . S
H2144 C2162 0.951 . S
H2145 C2164 0.951 . S
H2146 C2166 0.950 . S
H2147 C2167 0.950 . S
H2148 C2169 0.950 . S
H2149 C2172 0.950 . S
H2150 C2173 0.950 . S
H2151 C2175 0.950 . S
H2152 C2176 0.950 . S
H2153 C2177 0.951 . S
H2154 C2179 0.951 . S
H2155 C2181 0.941 1_554 S
H2156 C2182 0.950 1_554 S
H2157 C2184 0.950 . S
H2158 C2187 0.950 . S
H2159 C2188 0.950 . S
H2160 C2190 0.950 . S
H2161 C2191 0.950 . S
C2162 H2144 0.951 . S
C2162 C2163 1.366 . S
C2162 C2164 1.388 . S
C2163 C2162 1.366 . S
C2163 C2167 1.385 . S
C2164 H2145 0.951 . S
C2164 C2162 1.388 . S
C2164 C2165 1.366 . S
C2165 C2164 1.366 . S
C2165 C2166 1.414 . S
C2165 C2168 1.499 . S
C2166 H2146 0.950 . S
C2166 C2165 1.414 . S
C2166 C2167 1.374 . S
C2167 H2147 0.950 . S
C2167 C2163 1.385 . S
C2167 C2166 1.374 . S
C2168 C2165 1.499 . S
C2168 C2169 1.373 . S
C2168 C2170 1.389 . S
C2169 H2148 0.950 . S
C2169 C2168 1.373 . S
C2169 C2185 1.377 . S
C2170 C2168 1.389 . S
C2170 C2171 1.524 . S
C2170 C2184 1.377 . S
C2171 C2170 1.524 . S
C2171 C2172 1.397 . S
C2171 C2176 1.363 1_556 S
C2172 H2149 0.950 . S
C2172 C2171 1.397 . S
C2172 C2173 1.334 . S
C2173 H2150 0.950 . S
C2173 C2172 1.334 . S
C2173 C2174 1.287 . S
C2174 C2173 1.287 . S
C2174 C2175 1.524 1_556 S
C2174 H2193 0.913 . S
C2175 H2151 0.950 . S
C2175 C2174 1.524 1_554 S
C2175 C2176 1.415 . S
C2176 H2152 0.950 . S
C2176 C2171 1.363 1_554 S
C2176 C2175 1.415 . S
C2177 H2153 0.951 . S
C2177 C2178 1.366 . S
C2177 C2179 1.388 . S
C2178 C2177 1.366 . S
C2178 C2182 1.385 . S
C2179 H2154 0.951 . S
C2179 C2177 1.388 . S
C2179 C2180 1.366 . S
C2180 C2179 1.366 . S
C2180 C2181 1.414 . S
C2180 C2183 1.499 . S
C2181 H2155 0.941 1_556 S
C2181 C2180 1.414 . S
C2181 C2182 1.374 . S
C2182 H2156 0.950 1_556 S
C2182 C2178 1.385 . S
C2182 C2181 1.374 . S
C2183 C2180 1.499 . S
C2183 C2184 1.373 . S
C2183 C2185 1.389 . S
C2184 H2157 0.950 . S
C2184 C2170 1.377 . S
C2184 C2183 1.373 . S
C2185 C2169 1.377 . S
C2185 C2183 1.389 . S
C2185 C2186 1.524 . S
C2186 C2185 1.524 . S
C2186 C2187 1.397 . S
C2186 C2191 1.363 . S
C2187 H2158 0.950 . S
C2187 C2186 1.397 . S
C2187 C2188 1.334 . S
C2188 H2159 0.950 . S
C2188 C2187 1.334 . S
C2188 C2189 1.287 . S
C2189 C2188 1.287 . S
C2189 C2190 1.524 . S
C2189 H2192 0.999 . S
C2190 H2160 0.950 . S
C2190 C2189 1.524 . S
C2190 C2191 1.415 . S
C2191 H2161 0.950 . S
C2191 C2186 1.363 . S
C2191 C2190 1.415 . S
H2192 C2189 0.999 . S
H2193 C2174 0.913 . S
H2194 C2212 0.951 . S
H2195 C2214 0.951 . S
H2196 C2216 0.950 . S
H2197 C2217 0.950 . S
H2198 C2219 0.950 . S
H2199 C2222 0.950 . S
H2200 C2223 0.950 . S
H2201 C2225 0.950 . S
H2202 C2226 0.950 . S
H2203 C2227 0.951 . S
H2204 C2229 0.951 1_556 S
H2205 C2231 0.950 . S
H2206 C2232 0.950 . S
H2207 C2234 0.950 . S
H2208 C2237 0.950 . S
H2209 C2238 0.950 . S
H2210 C2240 0.950 . S
H2211 C2241 0.950 . S
C2212 H2194 0.951 . S
C2212 C2213 1.366 . S
C2212 C2214 1.388 . S
C2213 C2212 1.366 . S
C2213 C2217 1.385 . S
C2214 H2195 0.951 . S
C2214 C2212 1.388 . S
C2214 C2215 1.366 . S
C2215 C2214 1.366 . S
C2215 C2216 1.414 . S
C2215 C2218 1.499 . S
C2216 H2196 0.950 . S
C2216 C2215 1.414 . S
C2216 C2217 1.374 . S
C2217 H2197 0.950 . S
C2217 C2213 1.385 . S
C2217 C2216 1.374 . S
C2218 C2215 1.499 . S
C2218 C2219 1.373 . S
C2218 C2220 1.389 . S
C2219 H2198 0.950 . S
C2219 C2218 1.373 . S
C2219 C2235 1.377 . S
C2220 C2218 1.389 . S
C2220 C2221 1.524 . S
C2220 C2234 1.377 . S
C2221 C2220 1.524 . S
C2221 C2222 1.397 . S
C2221 C2226 1.363 . S
C2222 H2199 0.950 . S
C2222 C2221 1.397 . S
C2222 C2223 1.334 . S
C2223 H2200 0.950 . S
C2223 C2222 1.334 . S
C2223 C2224 1.287 . S
C2224 C2223 1.287 . S
C2224 C2225 1.524 . S
C2224 H2243 0.913 . S
C2225 H2201 0.950 . S
C2225 C2224 1.524 . S
C2225 C2226 1.415 . S
C2226 H2202 0.950 . S
C2226 C2221 1.363 . S
C2226 C2225 1.415 . S
C2227 H2203 0.951 . S
C2227 C2228 1.366 1_556 S
C2227 C2229 1.388 1_556 S
C2228 C2227 1.366 1_554 S
C2228 C2232 1.385 . S
C2229 H2204 0.951 1_554 S
C2229 C2227 1.388 1_554 S
C2229 C2230 1.366 . S
C2230 C2229 1.366 . S
C2230 C2231 1.414 . S
C2230 C2233 1.499 . S
C2231 H2205 0.950 . S
C2231 C2230 1.414 . S
C2231 C2232 1.374 . S
C2232 H2206 0.950 . S
C2232 C2228 1.385 . S
C2232 C2231 1.374 . S
C2233 C2230 1.499 . S
C2233 C2234 1.373 . S
C2233 C2235 1.389 . S
C2234 H2207 0.950 . S
C2234 C2220 1.377 . S
C2234 C2233 1.373 . S
C2235 C2219 1.377 . S
C2235 C2233 1.389 . S
C2235 C2236 1.524 . S
C2236 C2235 1.524 . S
C2236 C2237 1.397 . S
C2236 C2241 1.363 . S
C2237 H2208 0.950 . S
C2237 C2236 1.397 . S
C2237 C2238 1.334 . S
C2238 H2209 0.950 . S
C2238 C2237 1.334 . S
C2238 C2239 1.287 . S
C2239 C2238 1.287 . S
C2239 C2240 1.524 . S
C2239 H2242 0.999 . S
C2240 H2210 0.950 . S
C2240 C2239 1.524 . S
C2240 C2241 1.415 . S
C2241 H2211 0.950 . S
C2241 C2236 1.363 . S
C2241 C2240 1.415 . S
H2242 C2239 0.999 . S
H2243 C2224 0.913 . S
H2244 C2262 0.951 . S
H2245 C2264 0.951 . S
H2246 C2266 0.950 . S
H2247 C2267 0.950 1_554 S
H2248 C2269 0.950 . S
H2249 C2272 0.950 . S
H2250 C2273 0.950 . S
H2251 C2275 0.950 . S
H2252 C2276 0.950 . S
H2253 C2277 0.951 . S
H2254 C2279 0.951 . S
H2255 C2281 0.950 . S
H2256 C2282 0.950 . S
H2257 C2284 0.950 . S
H2258 C2287 0.950 . S
H2259 C2288 0.950 . S
H2260 C2290 0.950 . S
H2261 C2291 0.950 . S
C2262 H2244 0.951 . S
C2262 C2263 1.366 . S
C2262 C2264 1.388 . S
C2263 C2262 1.366 . S
C2263 C2267 1.385 . S
C2264 H2245 0.951 . S
C2264 C2262 1.388 . S
C2264 C2265 1.366 . S
C2265 C2264 1.366 . S
C2265 C2266 1.414 . S
C2265 C2268 1.499 . S
C2266 H2246 0.950 . S
C2266 C2265 1.414 . S
C2266 C2267 1.374 . S
C2267 H2247 0.950 1_556 S
C2267 C2263 1.385 . S
C2267 C2266 1.374 . S
C2268 C2265 1.499 . S
C2268 C2269 1.373 . S
C2268 C2270 1.389 . S
C2269 H2248 0.950 . S
C2269 C2268 1.373 . S
C2269 C2285 1.377 . S
C2270 C2268 1.389 . S
C2270 C2271 1.524 . S
C2270 C2284 1.377 . S
C2271 C2270 1.524 . S
C2271 C2272 1.397 . S
C2271 C2276 1.363 . S
C2272 H2249 0.950 . S
C2272 C2271 1.397 . S
C2272 C2273 1.334 . S
C2273 H2250 0.950 . S
C2273 C2272 1.334 . S
C2273 C2274 1.287 . S
C2274 C2273 1.287 . S
C2274 C2275 1.524 . S
C2274 H2293 0.913 . S
C2275 H2251 0.950 . S
C2275 C2274 1.524 . S
C2275 C2276 1.415 . S
C2276 H2252 0.950 . S
C2276 C2271 1.363 . S
C2276 C2275 1.415 . S
C2277 H2253 0.951 . S
C2277 C2278 1.366 . S
C2277 C2279 1.388 . S
C2278 C2277 1.366 . S
C2278 C2282 1.385 . S
C2279 H2254 0.951 . S
C2279 C2277 1.388 . S
C2279 C2280 1.366 . S
C2280 C2279 1.366 . S
C2280 C2281 1.414 . S
C2280 C2283 1.499 . S
C2281 H2255 0.950 . S
C2281 C2280 1.414 . S
C2281 C2282 1.374 . S
C2282 H2256 0.950 . S
C2282 C2278 1.385 . S
C2282 C2281 1.374 . S
C2283 C2280 1.499 . S
C2283 C2284 1.373 . S
C2283 C2285 1.389 . S
C2284 H2257 0.950 . S
C2284 C2270 1.377 . S
C2284 C2283 1.373 . S
C2285 C2269 1.377 . S
C2285 C2283 1.389 . S
C2285 C2286 1.524 . S
C2286 C2285 1.524 . S
C2286 C2287 1.397 . S
C2286 C2291 1.363 . S
C2287 H2258 0.950 . S
C2287 C2286 1.397 . S
C2287 C2288 1.334 . S
C2288 H2259 0.950 . S
C2288 C2287 1.334 . S
C2288 C2289 1.287 . S
C2289 C2288 1.287 . S
C2289 C2290 1.524 . S
C2289 H2292 0.999 . S
C2290 H2260 0.950 . S
C2290 C2289 1.524 . S
C2290 C2291 1.415 . S
C2291 H2261 0.950 . S
C2291 C2286 1.363 . S
C2291 C2290 1.415 . S
H2292 C2289 0.999 . S
H2293 C2274 0.913 . S
H2294 C2312 0.951 . S
H2295 C2314 0.951 . S
H2296 C2316 0.950 . S
H2297 C2317 0.950 . S
H2298 C2319 0.950 . S
H2299 C2322 0.950 . S
H2300 C2323 0.950 . S
H2301 C2325 0.950 . S
H2302 C2326 0.950 . S
H2303 C2327 0.951 . S
H2304 C2329 0.951 . S
H2305 C2331 0.945 1_556 S
H2306 C2332 0.950 . S
H2307 C2334 0.950 . S
H2308 C2337 0.950 1_556 S
H2309 C2338 0.950 . S
H2310 C2340 0.950 . S
H2311 C2341 0.950 . S
C2312 H2294 0.951 . S
C2312 C2313 1.366 . S
C2312 C2314 1.388 . S
C2313 C2312 1.366 . S
C2313 C2317 1.385 . S
C2314 H2295 0.951 . S
C2314 C2312 1.388 . S
C2314 C2315 1.366 . S
C2315 C2314 1.366 . S
C2315 C2316 1.414 . S
C2315 C2318 1.499 . S
C2316 H2296 0.950 . S
C2316 C2315 1.414 . S
C2316 C2317 1.374 . S
C2317 H2297 0.950 . S
C2317 C2313 1.385 . S
C2317 C2316 1.374 . S
C2318 C2315 1.499 . S
C2318 C2319 1.373 . S
C2318 C2320 1.389 . S
C2319 H2298 0.950 . S
C2319 C2318 1.373 . S
C2319 C2335 1.377 . S
C2320 C2318 1.389 . S
C2320 C2321 1.524 . S
C2320 C2334 1.377 . S
C2321 C2320 1.524 . S
C2321 C2322 1.397 . S
C2321 C2326 1.363 . S
C2322 H2299 0.950 . S
C2322 C2321 1.397 . S
C2322 C2323 1.334 . S
C2323 H2300 0.950 . S
C2323 C2322 1.334 . S
C2323 C2324 1.287 . S
C2324 C2323 1.287 . S
C2324 C2325 1.524 . S
C2324 H2343 0.913 . S
C2325 H2301 0.950 . S
C2325 C2324 1.524 . S
C2325 C2326 1.415 . S
C2326 H2302 0.950 . S
C2326 C2321 1.363 . S
C2326 C2325 1.415 . S
C2327 H2303 0.951 . S
C2327 C2328 1.366 . S
C2327 C2329 1.388 . S
C2328 C2327 1.366 . S
C2328 C2332 1.385 1_554 S
C2329 H2304 0.951 . S
C2329 C2327 1.388 . S
C2329 C2330 1.366 . S
C2330 C2329 1.366 . S
C2330 C2331 1.414 . S
C2330 C2333 1.499 . S
C2331 H2305 0.945 1_554 S
C2331 C2330 1.414 . S
C2331 C2332 1.374 1_554 S
C2332 H2306 0.950 . S
C2332 C2328 1.385 1_556 S
C2332 C2331 1.374 1_556 S
C2333 C2330 1.499 . S
C2333 C2334 1.373 . S
C2333 C2335 1.389 . S
C2334 H2307 0.950 . S
C2334 C2320 1.377 . S
C2334 C2333 1.373 . S
C2335 C2319 1.377 . S
C2335 C2333 1.389 . S
C2335 C2336 1.524 . S
C2336 C2335 1.524 . S
C2336 C2337 1.397 . S
C2336 C2341 1.363 . S
C2337 H2308 0.950 1_554 S
C2337 C2336 1.397 . S
C2337 C2338 1.334 1_554 S
C2338 H2309 0.950 . S
C2338 C2337 1.334 1_556 S
C2338 C2339 1.287 1_556 S
C2339 C2338 1.287 1_554 S
C2339 C2340 1.524 . S
C2339 H2342 0.999 . S
C2340 H2310 0.950 . S
C2340 C2339 1.524 . S
C2340 C2341 1.415 . S
C2341 H2311 0.950 . S
C2341 C2336 1.363 . S
C2341 C2340 1.415 . S
H2342 C2339 0.999 . S
H2343 C2324 0.913 . S
H2344 C2362 0.951 . S
H2345 C2364 0.951 . S
H2346 C2366 0.950 . S
H2347 C2367 0.950 . S
H2348 C2369 0.950 . S
H2349 C2372 0.950 . S
H2350 C2373 0.950 . S
H2351 C2375 0.950 . S
H2352 C2376 0.950 . S
H2353 C2377 0.951 . S
H2354 C2379 0.951 . S
H2355 C2381 0.950 . S
H2356 C2382 0.950 . S
H2357 C2384 0.950 . S
H2358 C2387 0.950 . S
H2359 C2388 0.950 . S
H2360 C2390 0.950 . S
H2361 C2391 0.950 . S
C2362 H2344 0.951 . S
C2362 C2363 1.366 . S
C2362 C2364 1.388 . S
C2363 C2362 1.366 . S
C2363 C2367 1.385 . S
C2364 H2345 0.951 . S
C2364 C2362 1.388 . S
C2364 C2365 1.366 . S
C2365 C2364 1.366 . S
C2365 C2366 1.414 . S
C2365 C2368 1.499 . S
C2366 H2346 0.950 . S
C2366 C2365 1.414 . S
C2366 C2367 1.374 . S
C2367 H2347 0.950 . S
C2367 C2363 1.385 . S
C2367 C2366 1.374 . S
C2368 C2365 1.499 . S
C2368 C2369 1.373 . S
C2368 C2370 1.389 . S
C2369 H2348 0.950 . S
C2369 C2368 1.373 . S
C2369 C2385 1.377 . S
C2370 C2368 1.389 . S
C2370 C2371 1.524 . S
C2370 C2384 1.377 . S
C2371 C2370 1.524 . S
C2371 C2372 1.397 . S
C2371 C2376 1.363 . S
C2372 H2349 0.950 . S
C2372 C2371 1.397 . S
C2372 C2373 1.334 . S
C2373 H2350 0.950 . S
C2373 C2372 1.334 . S
C2373 C2374 1.287 . S
C2374 C2373 1.287 . S
C2374 C2375 1.524 . S
C2374 H2393 0.913 . S
C2375 H2351 0.950 . S
C2375 C2374 1.524 . S
C2375 C2376 1.415 . S
C2376 H2352 0.950 . S
C2376 C2371 1.363 . S
C2376 C2375 1.415 . S
C2377 H2353 0.951 . S
C2377 C2378 1.366 . S
C2377 C2379 1.388 . S
C2378 C2377 1.366 . S
C2378 C2382 1.385 . S
C2379 H2354 0.951 . S
C2379 C2377 1.388 . S
C2379 C2380 1.366 . S
C2380 C2379 1.366 . S
C2380 C2381 1.414 . S
C2380 C2383 1.499 . S
C2381 H2355 0.950 . S
C2381 C2380 1.414 . S
C2381 C2382 1.374 . S
C2382 H2356 0.950 . S
C2382 C2378 1.385 . S
C2382 C2381 1.374 . S
C2383 C2380 1.499 . S
C2383 C2384 1.373 . S
C2383 C2385 1.389 . S
C2384 H2357 0.950 . S
C2384 C2370 1.377 . S
C2384 C2383 1.373 . S
C2385 C2369 1.377 . S
C2385 C2383 1.389 . S
C2385 C2386 1.524 . S
C2386 C2385 1.524 . S
C2386 C2387 1.397 . S
C2386 C2391 1.363 . S
C2387 H2358 0.950 . S
C2387 C2386 1.397 . S
C2387 C2388 1.334 . S
C2388 H2359 0.950 . S
C2388 C2387 1.334 . S
C2388 C2389 1.287 . S
C2389 C2388 1.287 . S
C2389 C2390 1.524 . S
C2389 H2392 0.999 . S
C2390 H2360 0.950 . S
C2390 C2389 1.524 . S
C2390 C2391 1.415 . S
C2391 H2361 0.950 . S
C2391 C2386 1.363 . S
C2391 C2390 1.415 . S
H2392 C2389 0.999 . S
H2393 C2374 0.913 . S
H2394 C2412 0.951 . S
H2395 C2414 0.951 . S
H2396 C2416 0.950 . S
H2397 C2417 0.950 . S
H2398 C2419 0.950 . S
H2399 C2422 0.950 . S
H2400 C2423 0.950 . S
H2401 C2425 0.950 . S
H2402 C2426 0.950 . S
H2403 C2427 0.951 . S
H2404 C2429 0.951 . S
H2405 C2431 0.950 . S
H2406 C2432 0.950 . S
H2407 C2434 0.950 . S
H2408 C2437 0.950 . S
H2409 C2438 0.950 . S
H2410 C2440 0.950 . S
H2411 C2441 0.950 . S
C2412 H2394 0.951 . S
C2412 C2413 1.366 . S
C2412 C2414 1.388 . S
C2413 C2412 1.366 . S
C2413 C2417 1.385 . S
C2414 H2395 0.951 . S
C2414 C2412 1.388 . S
C2414 C2415 1.366 . S
C2415 C2414 1.366 . S
C2415 C2416 1.414 . S
C2415 C2418 1.499 . S
C2416 H2396 0.950 . S
C2416 C2415 1.414 . S
C2416 C2417 1.374 . S
C2417 H2397 0.950 . S
C2417 C2413 1.385 . S
C2417 C2416 1.374 . S
C2418 C2415 1.499 . S
C2418 C2419 1.373 . S
C2418 C2420 1.389 . S
C2419 H2398 0.950 . S
C2419 C2418 1.373 . S
C2419 C2435 1.377 . S
C2420 C2418 1.389 . S
C2420 C2421 1.524 . S
C2420 C2434 1.377 . S
C2421 C2420 1.524 . S
C2421 C2422 1.397 . S
C2421 C2426 1.363 . S
C2422 H2399 0.950 . S
C2422 C2421 1.397 . S
C2422 C2423 1.334 . S
C2423 H2400 0.950 . S
C2423 C2422 1.334 . S
C2423 C2424 1.287 . S
C2424 C2423 1.287 . S
C2424 C2425 1.524 . S
C2424 H2443 0.913 . S
C2425 H2401 0.950 . S
C2425 C2424 1.524 . S
C2425 C2426 1.415 . S
C2426 H2402 0.950 . S
C2426 C2421 1.363 . S
C2426 C2425 1.415 . S
C2427 H2403 0.951 . S
C2427 C2428 1.366 . S
C2427 C2429 1.388 . S
C2428 C2427 1.366 . S
C2428 C2432 1.385 . S
C2429 H2404 0.951 . S
C2429 C2427 1.388 . S
C2429 C2430 1.366 . S
C2430 C2429 1.366 . S
C2430 C2431 1.414 . S
C2430 C2433 1.499 . S
C2431 H2405 0.950 . S
C2431 C2430 1.414 . S
C2431 C2432 1.374 . S
C2432 H2406 0.950 . S
C2432 C2428 1.385 . S
C2432 C2431 1.374 . S
C2433 C2430 1.499 . S
C2433 C2434 1.373 . S
C2433 C2435 1.389 . S
C2434 H2407 0.950 . S
C2434 C2420 1.377 . S
C2434 C2433 1.373 . S
C2435 C2419 1.377 . S
C2435 C2433 1.389 . S
C2435 C2436 1.524 . S
C2436 C2435 1.524 . S
C2436 C2437 1.397 . S
C2436 C2441 1.363 . S
C2437 H2408 0.950 . S
C2437 C2436 1.397 . S
C2437 C2438 1.334 . S
C2438 H2409 0.950 . S
C2438 C2437 1.334 . S
C2438 C2439 1.287 . S
C2439 C2438 1.287 . S
C2439 C2440 1.524 . S
C2439 H2442 0.999 . S
C2440 H2410 0.950 . S
C2440 C2439 1.524 . S
C2440 C2441 1.415 . S
C2441 H2411 0.950 . S
C2441 C2436 1.363 . S
C2441 C2440 1.415 . S
H2442 C2439 0.999 . S
H2443 C2424 0.913 . S
H2444 C2462 0.951 . S
H2445 C2464 0.951 . S
H2446 C2466 0.950 . S
H2447 C2467 0.950 . S
H2448 C2469 0.950 . S
H2449 C2472 0.950 . S
H2450 C2473 0.950 . S
H2451 C2475 0.950 . S
H2452 C2476 0.950 . S
H2453 C2477 0.951 . S
H2454 C2479 0.951 . S
H2455 C2481 0.950 . S
H2456 C2482 0.950 . S
H2457 C2484 0.950 . S
H2458 C2487 0.950 . S
H2459 C2488 0.950 . S
H2460 C2490 0.950 . S
H2461 C2491 0.950 . S
C2462 H2444 0.951 . S
C2462 C2463 1.366 . S
C2462 C2464 1.388 . S
C2463 C2462 1.366 . S
C2463 C2467 1.385 . S
C2464 H2445 0.951 . S
C2464 C2462 1.388 . S
C2464 C2465 1.366 . S
C2465 C2464 1.366 . S
C2465 C2466 1.414 . S
C2465 C2468 1.499 . S
C2466 H2446 0.950 . S
C2466 C2465 1.414 . S
C2466 C2467 1.374 . S
C2467 H2447 0.950 . S
C2467 C2463 1.385 . S
C2467 C2466 1.374 . S
C2468 C2465 1.499 . S
C2468 C2469 1.373 . S
C2468 C2470 1.389 . S
C2469 H2448 0.950 . S
C2469 C2468 1.373 . S
C2469 C2485 1.377 . S
C2470 C2468 1.389 . S
C2470 C2471 1.524 . S
C2470 C2484 1.377 . S
C2471 C2470 1.524 . S
C2471 C2472 1.397 . S
C2471 C2476 1.363 . S
C2472 H2449 0.950 . S
C2472 C2471 1.397 . S
C2472 C2473 1.334 . S
C2473 H2450 0.950 . S
C2473 C2472 1.334 . S
C2473 C2474 1.287 . S
C2474 C2473 1.287 . S
C2474 C2475 1.524 . S
C2474 H2493 0.913 . S
C2475 H2451 0.950 . S
C2475 C2474 1.524 . S
C2475 C2476 1.415 . S
C2476 H2452 0.950 . S
C2476 C2471 1.363 . S
C2476 C2475 1.415 . S
C2477 H2453 0.951 . S
C2477 C2478 1.366 . S
C2477 C2479 1.388 . S
C2478 C2477 1.366 . S
C2478 C2482 1.385 . S
C2479 H2454 0.951 . S
C2479 C2477 1.388 . S
C2479 C2480 1.366 . S
C2480 C2479 1.366 . S
C2480 C2481 1.414 . S
C2480 C2483 1.499 . S
C2481 H2455 0.950 . S
C2481 C2480 1.414 . S
C2481 C2482 1.374 . S
C2482 H2456 0.950 . S
C2482 C2478 1.385 . S
C2482 C2481 1.374 . S
C2483 C2480 1.499 . S
C2483 C2484 1.373 . S
C2483 C2485 1.389 . S
C2484 H2457 0.950 . S
C2484 C2470 1.377 . S
C2484 C2483 1.373 . S
C2485 C2469 1.377 . S
C2485 C2483 1.389 . S
C2485 C2486 1.524 . S
C2486 C2485 1.524 . S
C2486 C2487 1.397 . S
C2486 C2491 1.363 . S
C2487 H2458 0.950 . S
C2487 C2486 1.397 . S
C2487 C2488 1.334 . S
C2488 H2459 0.950 . S
C2488 C2487 1.334 . S
C2488 C2489 1.287 . S
C2489 C2488 1.287 . S
C2489 C2490 1.524 . S
C2489 H2492 0.999 . S
C2490 H2460 0.950 . S
C2490 C2489 1.524 . S
C2490 C2491 1.415 . S
C2491 H2461 0.950 . S
C2491 C2486 1.363 . S
C2491 C2490 1.415 . S
H2492 C2489 0.999 . S
H2493 C2474 0.913 . S
H2494 C2512 0.951 . S
H2495 C2514 0.951 . S
H2496 C2516 0.950 . S
H2497 C2517 0.950 . S
H2498 C2519 0.950 . S
H2499 C2522 0.950 . S
H2500 C2523 0.950 . S
H2501 C2525 0.950 . S
H2502 C2526 0.950 . S
H2503 C2527 0.951 . S
H2504 C2529 0.951 . S
H2505 C2531 0.950 . S
H2506 C2532 0.950 . S
H2507 C2534 0.950 . S
H2508 C2537 0.950 . S
H2509 C2538 0.950 . S
H2510 C2540 0.950 . S
H2511 C2541 0.950 . S
C2512 H2494 0.951 . S
C2512 C2513 1.366 . S
C2512 C2514 1.388 . S
C2513 C2512 1.366 . S
C2513 C2517 1.385 . S
C2514 H2495 0.951 . S
C2514 C2512 1.388 . S
C2514 C2515 1.366 . S
C2515 C2514 1.366 . S
C2515 C2516 1.414 . S
C2515 C2518 1.499 . S
C2516 H2496 0.950 . S
C2516 C2515 1.414 . S
C2516 C2517 1.374 . S
C2517 H2497 0.950 . S
C2517 C2513 1.385 . S
C2517 C2516 1.374 . S
C2518 C2515 1.499 . S
C2518 C2519 1.373 . S
C2518 C2520 1.389 . S
C2519 H2498 0.950 . S
C2519 C2518 1.373 . S
C2519 C2535 1.377 . S
C2520 C2518 1.389 . S
C2520 C2521 1.524 . S
C2520 C2534 1.377 . S
C2521 C2520 1.524 . S
C2521 C2522 1.397 . S
C2521 C2526 1.363 . S
C2522 H2499 0.950 . S
C2522 C2521 1.397 . S
C2522 C2523 1.334 . S
C2523 H2500 0.950 . S
C2523 C2522 1.334 . S
C2523 C2524 1.287 . S
C2524 C2523 1.287 . S
C2524 C2525 1.524 . S
C2524 H2543 0.913 . S
C2525 H2501 0.950 . S
C2525 C2524 1.524 . S
C2525 C2526 1.415 . S
C2526 H2502 0.950 . S
C2526 C2521 1.363 . S
C2526 C2525 1.415 . S
C2527 H2503 0.951 . S
C2527 C2528 1.366 . S
C2527 C2529 1.388 . S
C2528 C2527 1.366 . S
C2528 C2532 1.385 . S
C2529 H2504 0.951 . S
C2529 C2527 1.388 . S
C2529 C2530 1.366 . S
C2530 C2529 1.366 . S
C2530 C2531 1.414 . S
C2530 C2533 1.499 . S
C2531 H2505 0.950 . S
C2531 C2530 1.414 . S
C2531 C2532 1.374 . S
C2532 H2506 0.950 . S
C2532 C2528 1.385 . S
C2532 C2531 1.374 . S
C2533 C2530 1.499 . S
C2533 C2534 1.373 . S
C2533 C2535 1.389 . S
C2534 H2507 0.950 . S
C2534 C2520 1.377 . S
C2534 C2533 1.373 . S
C2535 C2519 1.377 . S
C2535 C2533 1.389 . S
C2535 C2536 1.524 . S
C2536 C2535 1.524 . S
C2536 C2537 1.397 . S
C2536 C2541 1.363 . S
C2537 H2508 0.950 . S
C2537 C2536 1.397 . S
C2537 C2538 1.334 . S
C2538 H2509 0.950 . S
C2538 C2537 1.334 . S
C2538 C2539 1.287 . S
C2539 C2538 1.287 . S
C2539 C2540 1.524 . S
C2539 H2542 0.999 . S
C2540 H2510 0.950 . S
C2540 C2539 1.524 . S
C2540 C2541 1.415 . S
C2541 H2511 0.950 . S
C2541 C2536 1.363 . S
C2541 C2540 1.415 . S
H2542 C2539 0.999 . S
H2543 C2524 0.913 . S
C963 C701 1.294 . S
C978 C3 1.291 . S
C1013 C92 1.233 . S
C1028 C524 1.215 . S
C1063 C121 1.292 . S
C1078 C583 1.293 . S
C1113 C642 1.215 . S
C1128 C210 1.234 . S
C1163 C239 1.291 . S
C1178 C347 1.293 . S
C1213 C328 1.233 . S
C1228 C406 1.215 . S
C1263 C465 1.294 . S
C1278 C357 1.292 . S
C1313 C288 1.215 . S
C1328 C446 1.233 . S
C1363 C229 1.293 . S
C1378 C475 1.291 . S
C1413 C564 1.234 . S
C1428 C52 1.214 . S
C1463 C111 1.294 . S
C1478 C593 1.292 . S
C1513 C682 1.234 . S
C1528 C170 1.215 . S
C1563 C711 1.291 . S
C1578 C819 1.293 . S
C1613 C800 1.234 . S
C1628 C878 1.214 . S
C1663 C937 1.294 . S
C1678 C829 1.292 . S
C1713 C760 1.215 . S
C1728 C918 1.234 . S
C1763 C269 1.434 . S
C1778 C33 1.433 . S
C1813 C62 1.147 . S
C1828 C298 1.146 . S
C1863 C151 1.434 . S
C1878 C387 1.433 . S
C1913 C416 1.146 . S
C1928 C180 1.147 . S
C1963 C505 1.433 . S
C1978 C741 1.433 . S
C2013 C770 1.146 . S
C2028 C534 1.147 . S
C2063 C623 1.434 . S
C2078 C859 1.434 . S
C2113 C888 1.146 . S
C2128 C652 1.147 . S
C2163 C831 1.614 . S
C2178 C5 1.613 . S
C2213 C890 1.131 . S
C2228 C64 1.130 1_554 S
C2263 C123 1.614 . S
C2278 C713 1.614 . S
C2313 C772 1.131 . S
C2328 C182 1.131 1_554 S
C2363 C595 1.614 . S
C2378 C241 1.613 . S
C2413 C654 1.131 . S
C2428 C300 1.131 . S
C2463 C359 1.614 . S
C2478 C477 1.614 . S
C2513 C536 1.131 . S
C2528 C418 1.131 . S
