# Generated by pormake.
# Topology ukn, (4)-cn, num edge types: 1
# Building blocks:
#     Node 0, Type 0, BuildingBlock: CEKHIL_clean_sbu_0, # of connection points: 4
#     Node 1, Type 0, BuildingBlock: CEKHIL_clean_sbu_0, # of connection points: 4
#     Node 2, Type 0, BuildingBlock: CEKHIL_clean_sbu_0, # of connection points: 4
#     Node 3, Type 0, BuildingBlock: CEKHIL_clean_sbu_0, # of connection points: 4
#     Node 4, Type 0, BuildingBlock: CEKHIL_clean_sbu_0, # of connection points: 4
#     Node 5, Type 0, BuildingBlock: CEKHIL_clean_sbu_0, # of connection points: 4
#     Node 6, Type 0, BuildingBlock: CEKHIL_clean_sbu_0, # of connection points: 4
#     Node 7, Type 0, BuildingBlock: CEKHIL_clean_sbu_0, # of connection points: 4
#     Node 8, Type 0, BuildingBlock: CEKHIL_clean_sbu_0, # of connection points: 4
#     Node 9, Type 0, BuildingBlock: CEKHIL_clean_sbu_0, # of connection points: 4
#     Node 10, Type 0, BuildingBlock: CEKHIL_clean_sbu_0, # of connection points: 4
#     Node 11, Type 0, BuildingBlock: CEKHIL_clean_sbu_0, # of connection points: 4
#     Node 12, Type 0, BuildingBlock: CEKHIL_clean_sbu_0, # of connection points: 4
#     Node 13, Type 0, BuildingBlock: CEKHIL_clean_sbu_0, # of connection points: 4
#     Node 14, Type 0, BuildingBlock: CEKHIL_clean_sbu_0, # of connection points: 4
#     Node 15, Type 0, BuildingBlock: CEKHIL_clean_sbu_0, # of connection points: 4
#     Node 16, Type 0, BuildingBlock: CEKHIL_clean_sbu_0, # of connection points: 4
#     Node 17, Type 0, BuildingBlock: CEKHIL_clean_sbu_0, # of connection points: 4
#     Node 18, Type 0, BuildingBlock: CEKHIL_clean_sbu_0, # of connection points: 4
#     Node 19, Type 0, BuildingBlock: CEKHIL_clean_sbu_0, # of connection points: 4
#     Node 20, Type 0, BuildingBlock: CEKHIL_clean_sbu_0, # of connection points: 4
#     Node 21, Type 0, BuildingBlock: CEKHIL_clean_sbu_0, # of connection points: 4
#     Node 22, Type 0, BuildingBlock: CEKHIL_clean_sbu_0, # of connection points: 4
#     Node 23, Type 0, BuildingBlock: CEKHIL_clean_sbu_0, # of connection points: 4
#     Node 24, Type 0, BuildingBlock: CEKHIL_clean_sbu_0, # of connection points: 4
#     Node 25, Type 0, BuildingBlock: CEKHIL_clean_sbu_0, # of connection points: 4
#     Node 26, Type 0, BuildingBlock: CEKHIL_clean_sbu_0, # of connection points: 4
#     Node 27, Type 0, BuildingBlock: CEKHIL_clean_sbu_0, # of connection points: 4
#     Node 28, Type 0, BuildingBlock: CEKHIL_clean_sbu_0, # of connection points: 4
#     Node 29, Type 0, BuildingBlock: CEKHIL_clean_sbu_0, # of connection points: 4
#     Node 30, Type 0, BuildingBlock: CEKHIL_clean_sbu_0, # of connection points: 4
#     Node 31, Type 0, BuildingBlock: CEKHIL_clean_sbu_0, # of connection points: 4
#     Node 32, Type 0, BuildingBlock: CEKHIL_clean_sbu_0, # of connection points: 4
#     Node 33, Type 0, BuildingBlock: CEKHIL_clean_sbu_0, # of connection points: 4
#     Node 34, Type 0, BuildingBlock: CEKHIL_clean_sbu_0, # of connection points: 4
#     Node 35, Type 0, BuildingBlock: CEKHIL_clean_sbu_0, # of connection points: 4
#     Edge 36, Type (0, 0), BuildingBlock: TEMPAE_clean_linker_10, # of connection points: 2
#     Edge 37, Type (0, 0), BuildingBlock: TEMPAE_clean_linker_10, # of connection points: 2
#     Edge 38, Type (0, 0), BuildingBlock: TEMPAE_clean_linker_10, # of connection points: 2
#     Edge 39, Type (0, 0), BuildingBlock: TEMPAE_clean_linker_10, # of connection points: 2
#     Edge 40, Type (0, 0), BuildingBlock: TEMPAE_clean_linker_10, # of connection points: 2
#     Edge 41, Type (0, 0), BuildingBlock: TEMPAE_clean_linker_10, # of connection points: 2
#     Edge 42, Type (0, 0), BuildingBlock: TEMPAE_clean_linker_10, # of connection points: 2
#     Edge 43, Type (0, 0), BuildingBlock: TEMPAE_clean_linker_10, # of connection points: 2
#     Edge 44, Type (0, 0), BuildingBlock: TEMPAE_clean_linker_10, # of connection points: 2
#     Edge 45, Type (0, 0), BuildingBlock: TEMPAE_clean_linker_10, # of connection points: 2
#     Edge 46, Type (0, 0), BuildingBlock: TEMPAE_clean_linker_10, # of connection points: 2
#     Edge 47, Type (0, 0), BuildingBlock: TEMPAE_clean_linker_10, # of connection points: 2
#     Edge 48, Type (0, 0), BuildingBlock: TEMPAE_clean_linker_10, # of connection points: 2
#     Edge 49, Type (0, 0), BuildingBlock: TEMPAE_clean_linker_10, # of connection points: 2
#     Edge 50, Type (0, 0), BuildingBlock: TEMPAE_clean_linker_10, # of connection points: 2
#     Edge 51, Type (0, 0), BuildingBlock: TEMPAE_clean_linker_10, # of connection points: 2
#     Edge 52, Type (0, 0), BuildingBlock: TEMPAE_clean_linker_10, # of connection points: 2
#     Edge 53, Type (0, 0), BuildingBlock: TEMPAE_clean_linker_10, # of connection points: 2
#     Edge 54, Type (0, 0), BuildingBlock: TEMPAE_clean_linker_10, # of connection points: 2
#     Edge 55, Type (0, 0), BuildingBlock: TEMPAE_clean_linker_10, # of connection points: 2
#     Edge 56, Type (0, 0), BuildingBlock: TEMPAE_clean_linker_10, # of connection points: 2
#     Edge 57, Type (0, 0), BuildingBlock: TEMPAE_clean_linker_10, # of connection points: 2
#     Edge 58, Type (0, 0), BuildingBlock: TEMPAE_clean_linker_10, # of connection points: 2
#     Edge 59, Type (0, 0), BuildingBlock: TEMPAE_clean_linker_10, # of connection points: 2
#     Edge 60, Type (0, 0), BuildingBlock: TEMPAE_clean_linker_10, # of connection points: 2
#     Edge 61, Type (0, 0), BuildingBlock: TEMPAE_clean_linker_10, # of connection points: 2
#     Edge 62, Type (0, 0), BuildingBlock: TEMPAE_clean_linker_10, # of connection points: 2
#     Edge 63, Type (0, 0), BuildingBlock: TEMPAE_clean_linker_10, # of connection points: 2
#     Edge 64, Type (0, 0), BuildingBlock: TEMPAE_clean_linker_10, # of connection points: 2
#     Edge 65, Type (0, 0), BuildingBlock: TEMPAE_clean_linker_10, # of connection points: 2
#     Edge 66, Type (0, 0), BuildingBlock: TEMPAE_clean_linker_10, # of connection points: 2
#     Edge 67, Type (0, 0), BuildingBlock: TEMPAE_clean_linker_10, # of connection points: 2
#     Edge 68, Type (0, 0), BuildingBlock: TEMPAE_clean_linker_10, # of connection points: 2
#     Edge 69, Type (0, 0), BuildingBlock: TEMPAE_clean_linker_10, # of connection points: 2
#     Edge 70, Type (0, 0), BuildingBlock: TEMPAE_clean_linker_10, # of connection points: 2
#     Edge 71, Type (0, 0), BuildingBlock: TEMPAE_clean_linker_10, # of connection points: 2
#     Edge 72, Type (0, 0), BuildingBlock: TEMPAE_clean_linker_10, # of connection points: 2
#     Edge 73, Type (0, 0), BuildingBlock: TEMPAE_clean_linker_10, # of connection points: 2
#     Edge 74, Type (0, 0), BuildingBlock: TEMPAE_clean_linker_10, # of connection points: 2
#     Edge 75, Type (0, 0), BuildingBlock: TEMPAE_clean_linker_10, # of connection points: 2
#     Edge 76, Type (0, 0), BuildingBlock: TEMPAE_clean_linker_10, # of connection points: 2
#     Edge 77, Type (0, 0), BuildingBlock: TEMPAE_clean_linker_10, # of connection points: 2
#     Edge 78, Type (0, 0), BuildingBlock: TEMPAE_clean_linker_10, # of connection points: 2
#     Edge 79, Type (0, 0), BuildingBlock: TEMPAE_clean_linker_10, # of connection points: 2
#     Edge 80, Type (0, 0), BuildingBlock: TEMPAE_clean_linker_10, # of connection points: 2
#     Edge 81, Type (0, 0), BuildingBlock: TEMPAE_clean_linker_10, # of connection points: 2
#     Edge 82, Type (0, 0), BuildingBlock: TEMPAE_clean_linker_10, # of connection points: 2
#     Edge 83, Type (0, 0), BuildingBlock: TEMPAE_clean_linker_10, # of connection points: 2
#     Edge 84, Type (0, 0), BuildingBlock: TEMPAE_clean_linker_10, # of connection points: 2
#     Edge 85, Type (0, 0), BuildingBlock: TEMPAE_clean_linker_10, # of connection points: 2
#     Edge 86, Type (0, 0), BuildingBlock: TEMPAE_clean_linker_10, # of connection points: 2
#     Edge 87, Type (0, 0), BuildingBlock: TEMPAE_clean_linker_10, # of connection points: 2
#     Edge 88, Type (0, 0), BuildingBlock: TEMPAE_clean_linker_10, # of connection points: 2
#     Edge 89, Type (0, 0), BuildingBlock: TEMPAE_clean_linker_10, # of connection points: 2
#     Edge 90, Type (0, 0), BuildingBlock: TEMPAE_clean_linker_10, # of connection points: 2
#     Edge 91, Type (0, 0), BuildingBlock: TEMPAE_clean_linker_10, # of connection points: 2
#     Edge 92, Type (0, 0), BuildingBlock: TEMPAE_clean_linker_10, # of connection points: 2
#     Edge 93, Type (0, 0), BuildingBlock: TEMPAE_clean_linker_10, # of connection points: 2
#     Edge 94, Type (0, 0), BuildingBlock: TEMPAE_clean_linker_10, # of connection points: 2
#     Edge 95, Type (0, 0), BuildingBlock: TEMPAE_clean_linker_10, # of connection points: 2
#     Edge 96, Type (0, 0), BuildingBlock: TEMPAE_clean_linker_10, # of connection points: 2
#     Edge 97, Type (0, 0), BuildingBlock: TEMPAE_clean_linker_10, # of connection points: 2
#     Edge 98, Type (0, 0), BuildingBlock: TEMPAE_clean_linker_10, # of connection points: 2
#     Edge 99, Type (0, 0), BuildingBlock: TEMPAE_clean_linker_10, # of connection points: 2
#     Edge 100, Type (0, 0), BuildingBlock: TEMPAE_clean_linker_10, # of connection points: 2
#     Edge 101, Type (0, 0), BuildingBlock: TEMPAE_clean_linker_10, # of connection points: 2
#     Edge 102, Type (0, 0), BuildingBlock: TEMPAE_clean_linker_10, # of connection points: 2
#     Edge 103, Type (0, 0), BuildingBlock: TEMPAE_clean_linker_10, # of connection points: 2
#     Edge 104, Type (0, 0), BuildingBlock: TEMPAE_clean_linker_10, # of connection points: 2
#     Edge 105, Type (0, 0), BuildingBlock: TEMPAE_clean_linker_10, # of connection points: 2
#     Edge 106, Type (0, 0), BuildingBlock: TEMPAE_clean_linker_10, # of connection points: 2
#     Edge 107, Type (0, 0), BuildingBlock: TEMPAE_clean_linker_10, # of connection points: 2
# Relax obj value: 0.077
# Max RMSD: 0.097
# Mean RMSD: 0.097
data_MOF--net-ukn--node1-CEKHIL_clean_sbu_0--edge1-TEMPAE_clean_linker_10
_symmetry_space_group_name_H-M    P1
_symmetry_Int_Tables_number       1
_symmetry_cell_setting            triclinic
loop_
_symmetry_equiv_pos_as_xyz
'x, y, z'
_cell_length_a     106.26574
_cell_length_b     106.27154
_cell_length_c     26.722274
_cell_angle_alpha  90.000309
_cell_angle_beta   90.005352
_cell_angle_gamma 119.97045
loop_
_atom_site_label
_atom_site_type_symbol
_atom_site_fract_x
_atom_site_fract_y
_atom_site_fract_z
_atom_type_partial_charge
Co0 Co 0.08289 0.29991 0.08679 0.0
O1 O 0.06393 0.29803 0.08107 0.0
O2 O 0.0693 0.28136 0.05678 0.0
C3 C 0.08735 0.30882 0.16554 0.0
O4 O 0.10102 0.29775 0.08851 0.0
Co5 Co 0.11041 0.33045 0.10308 0.0
O6 O 0.11992 0.31876 0.11624 0.0
C7 C 0.09528 0.32278 0.00613 0.0
C8 C 0.05962 0.28539 0.06115 0.0
C9 C 0.11424 0.30544 0.10389 0.0
O10 O 0.08832 0.30928 0.01861 0.0
O11 O 0.10332 0.33303 0.03634 0.0
O12 O 0.0794 0.29488 0.15841 0.0
O13 O 0.09112 0.31667 0.12578 0.0
Co14 Co 0.71301 0.78451 0.09261 0.0
O15 O 0.71561 0.76795 0.08416 0.0
O16 O 0.73221 0.79054 0.06566 0.0
C17 C 0.70273 0.77778 0.16901 0.0
O18 O 0.71445 0.80448 0.09812 0.0
Co19 Co 0.68226 0.78095 0.10857 0.0
O20 O 0.69363 0.80138 0.13128 0.0
C21 C 0.69159 0.77723 0.00778 0.0
C22 C 0.72849 0.77687 0.06722 0.0
C23 C 0.70677 0.80955 0.1177 0.0
O24 O 0.70462 0.78157 0.02311 0.0
O25 O 0.68118 0.77545 0.03652 0.0
O26 O 0.71683 0.78479 0.16499 0.0
O27 O 0.69568 0.77463 0.12762 0.0
Co28 Co 0.23282 0.93249 0.09655 0.0
O29 O 0.2491 0.95181 0.08814 0.0
O30 O 0.22688 0.94471 0.06121 0.0
C31 C 0.23761 0.93053 0.1772 0.0
O32 O 0.21313 0.9136 0.10005 0.0
Co33 Co 0.23707 0.90649 0.12642 0.0
O34 O 0.21606 0.89692 0.14221 0.0
C35 C 0.24261 0.91753 0.02217 0.0
C36 C 0.24031 0.95511 0.06575 0.0
C37 C 0.20796 0.90123 0.12241 0.0
O38 O 0.2377 0.92619 0.03161 0.0
O39 O 0.24407 0.90969 0.0555 0.0
O40 O 0.23036 0.93702 0.16595 0.0
O41 O 0.24228 0.92629 0.14025 0.0
Co42 Co 0.30353 0.07904 0.89194 0.0
O43 O 0.30033 0.0596 0.89743 0.0
O44 O 0.28594 0.06688 0.93023 0.0
C45 C 0.30896 0.08134 0.81003 0.0
O46 O 0.30306 0.09816 0.89185 0.0
Co47 Co 0.33368 0.10471 0.8597 0.0
O48 O 0.32231 0.11459 0.84754 0.0
C49 C 0.32946 0.09285 0.96234 0.0
C50 C 0.2887 0.05638 0.92276 0.0
C51 C 0.31017 0.11048 0.8691 0.0
O52 O 0.31568 0.08484 0.9548 0.0
O53 O 0.33845 0.10067 0.92823 0.0
O54 O 0.29542 0.07486 0.82388 0.0
O55 O 0.31843 0.08522 0.84516 0.0
Co56 Co 0.93429 0.22859 0.89973 0.0
O57 O 0.9531 0.24558 0.91014 0.0
O58 O 0.94802 0.22299 0.92383 0.0
C59 C 0.93009 0.23577 0.82505 0.0
O60 O 0.91643 0.20821 0.89162 0.0
Co61 Co 0.90599 0.23031 0.88825 0.0
O62 O 0.89814 0.21059 0.85993 0.0
C63 C 0.91914 0.23318 0.98815 0.0
C64 C 0.95755 0.23679 0.9245 0.0
C65 C 0.90375 0.20283 0.87138 0.0
O66 O 0.92855 0.23008 0.97051 0.0
O67 O 0.90993 0.23453 0.96118 0.0
O68 O 0.93806 0.22965 0.82726 0.0
O69 O 0.92588 0.2381 0.86738 0.0
Co70 Co 0.7886 0.71272 0.89367 0.0
O71 O 0.77155 0.71461 0.90108 0.0
O72 O 0.79343 0.73057 0.9287 0.0
C73 C 0.78465 0.70566 0.81278 0.0
O74 O 0.80897 0.71499 0.89144 0.0
Co75 Co 0.78621 0.68294 0.8666 0.0
O76 O 0.80747 0.69496 0.85667 0.0
C77 C 0.77857 0.688 0.96803 0.0
C78 C 0.77982 0.72682 0.92384 0.0
C79 C 0.81483 0.70789 0.87312 0.0
O80 O 0.78402 0.70167 0.9589 0.0
O81 O 0.77729 0.67876 0.93478 0.0
O82 O 0.79068 0.71941 0.82369 0.0
O83 O 0.78036 0.69692 0.85021 0.0
Co84 Co 0.93494 0.70808 0.90543 0.0
O85 O 0.95452 0.71156 0.9099 0.0
O86 O 0.94812 0.72794 0.92671 0.0
C87 C 0.92968 0.69635 0.83106 0.0
O88 O 0.91588 0.70861 0.90336 0.0
Co89 Co 0.90863 0.67629 0.9013 0.0
O90 O 0.89744 0.68614 0.8865 0.0
C91 C 0.92352 0.68865 -0.00282 0.0
C92 C 0.95838 0.72465 0.92435 0.0
C93 C 0.90236 0.69966 0.89368 0.0
O94 O 0.93142 0.70127 0.97736 0.0
O95 O 0.91458 0.67733 0.9727 0.0
O96 O 0.93663 0.71049 0.83217 0.0
O97 O 0.92727 0.6901 0.87394 0.0
Co98 Co 0.30784 0.23025 0.9014 0.0
O99 O 0.30395 0.24605 0.90712 0.0
O100 O 0.28913 0.22372 0.93378 0.0
C101 C 0.31579 0.23528 0.82182 0.0
O102 O 0.308 0.21098 0.89986 0.0
Co103 Co 0.33937 0.23659 0.87868 0.0
O104 O 0.32989 0.21521 0.87307 0.0
C105 C 0.33172 0.24198 0.97952 0.0
C106 C 0.2918 0.23703 0.92859 0.0
C107 C 0.31687 0.20657 0.88692 0.0
O108 O 0.3181 0.23558 0.96821 0.0
O109 O 0.34175 0.24459 0.94778 0.0
O110 O 0.30191 0.22753 0.83046 0.0
O111 O 0.32397 0.24024 0.86049 0.0
Co112 Co 0.78471 0.08159 0.89949 0.0
O113 O 0.76825 0.06217 0.90315 0.0
O114 O 0.79078 0.06806 0.92224 0.0
C115 C 0.77901 0.08723 0.82433 0.0
O116 O 0.80459 0.10035 0.89832 0.0
Co117 Co 0.78003 0.10841 0.89453 0.0
O118 O 0.80123 0.11934 0.88328 0.0
C119 C 0.77633 0.09313 0.99021 0.0
C120 C 0.77717 0.05804 0.91883 0.0
C121 C 0.80949 0.114 0.8901 0.0
O122 O 0.78116 0.08523 0.97103 0.0
O123 O 0.77417 0.10213 0.96513 0.0
O124 O 0.78573 0.07982 0.82634 0.0
O125 O 0.77504 0.08976 0.86678 0.0
Co126 Co 0.71289 0.93338 0.0876 0.0
O127 O 0.71558 0.95266 0.08184 0.0
O128 O 0.73059 0.94594 0.05065 0.0
C129 C 0.70682 0.93036 0.16922 0.0
O130 O 0.71405 0.91464 0.08803 0.0
Co131 Co 0.68237 0.90723 0.1163 0.0
O132 O 0.69258 0.89597 0.11397 0.0
C133 C 0.68745 0.91969 0.01489 0.0
C134 C 0.72741 0.95617 0.05725 0.0
C135 C 0.70568 0.90115 0.0995 0.0
O136 O 0.70121 0.9274 0.02343 0.0
O137 O 0.67815 0.91219 0.04861 0.0
O138 O 0.72046 0.93758 0.15656 0.0
O139 O 0.69764 0.9265 0.1332 0.0
Co140 Co 0.08282 0.78527 0.0838 0.0
O141 O 0.06281 0.77008 0.08117 0.0
O142 O 0.07106 0.79228 0.05141 0.0
C143 C 0.08677 0.78139 0.16353 0.0
O144 O 0.10269 0.80391 0.08251 0.0
Co145 Co 0.10678 0.77694 0.10141 0.0
O146 O 0.11986 0.79831 0.10372 0.0
C147 C 0.09164 0.77057 0.00522 0.0
C148 C 0.0601 0.77927 0.05866 0.0
C149 C 0.11597 0.80754 0.09241 0.0
O150 O 0.08657 0.77895 0.0168 0.0
O151 O 0.09848 0.76695 0.03607 0.0
O152 O 0.08065 0.78912 0.15432 0.0
O153 O 0.08889 0.77528 0.12551 0.0
Co154 Co 0.23412 0.30423 0.09001 0.0
O155 O 0.25027 0.30076 0.08735 0.0
O156 O 0.22796 0.28504 0.06283 0.0
C157 C 0.23859 0.31389 0.16765 0.0
O158 O 0.21452 0.30377 0.08897 0.0
Co159 Co 0.23979 0.33603 0.10146 0.0
O160 O 0.21842 0.3261 0.1079 0.0
C161 C 0.24479 0.32611 0.00464 0.0
C162 C 0.24138 0.28814 0.06838 0.0
C163 C 0.2099 0.31271 0.09805 0.0
O164 O 0.23902 0.31292 0.02053 0.0
O165 O 0.24711 0.33688 0.03226 0.0
O166 O 0.23179 0.29984 0.16228 0.0
O167 O 0.2435 0.32128 0.12719 0.0
Co168 Co 0.75145 0.63805 0.41647 0.0
O169 O 0.73266 0.63642 0.408 0.0
O170 O 0.73738 0.61872 0.39309 0.0
C171 C 0.7562 0.6495 0.49112 0.0
O172 O 0.76929 0.63537 0.42284 0.0
Co173 Co 0.77993 0.668 0.42607 0.0
O174 O 0.78785 0.65607 0.45331 0.0
C175 C 0.76614 0.65755 0.32708 0.0
C176 C 0.72795 0.62313 0.39376 0.0
C177 C 0.78212 0.64268 0.44211 0.0
O178 O 0.75673 0.64515 0.34537 0.0
O179 O 0.77563 0.66811 0.35332 0.0
O180 O 0.74814 0.63542 0.48913 0.0
O181 O 0.76019 0.65601 0.44866 0.0
Co182 Co 0.3767 0.11463 0.41517 0.0
O183 O 0.38059 0.09884 0.40894 0.0
O184 O 0.39662 0.12184 0.39334 0.0
C185 C 0.36502 0.10752 0.48942 0.0
O186 O 0.37673 0.13395 0.41966 0.0
Co187 Co 0.34464 0.10838 0.42042 0.0
O188 O 0.35415 0.12909 0.43962 0.0
C189 C 0.35734 0.10734 0.32326 0.0
C190 C 0.39361 0.10836 0.3949 0.0
C191 C 0.36758 0.13806 0.43204 0.0
O192 O 0.36992 0.11185 0.3432 0.0
O193 O 0.34594 0.10451 0.34809 0.0
O194 O 0.37915 0.11486 0.48833 0.0
O195 O 0.35878 0.10383 0.44647 0.0
Co196 Co 0.89616 0.26499 0.4224 0.0
O197 O 0.91302 0.28404 0.41486 0.0
O198 O 0.89105 0.27781 0.38716 0.0
C199 C 0.90034 0.26215 0.50326 0.0
O200 O 0.87594 0.24668 0.42506 0.0
Co201 Co 0.89919 0.23797 0.44996 0.0
O202 O 0.87792 0.22844 0.45994 0.0
C203 C 0.90626 0.25034 0.34799 0.0
C204 C 0.90461 0.2878 0.39216 0.0
C205 C 0.87031 0.23375 0.44348 0.0
O206 O 0.90081 0.25856 0.35724 0.0
O207 O 0.90771 0.24248 0.38122 0.0
O208 O 0.89406 0.26963 0.49232 0.0
O209 O 0.90468 0.25774 0.46587 0.0
Co210 Co 0.97396 0.41343 0.23802 0.0
O211 O 0.97065 0.39392 0.24186 0.0
O212 O 0.95429 0.40017 0.26118 0.0
C213 C 0.98502 0.41884 0.16265 0.0
O214 O 0.97358 0.43257 0.23668 0.0
Co215 Co 1.00612 0.43907 0.23491 0.0
O216 O 0.99661 0.45097 0.22737 0.0
C217 C 0.9942 0.42226 0.32666 0.0
C218 C 0.95766 0.38998 0.25763 0.0
C219 C 0.983 0.44621 0.23144 0.0
O220 O 0.98125 0.41707 0.30932 0.0
O221 O 1.00565 0.42971 0.30048 0.0
O222 O 0.97091 0.41153 0.16505 0.0
O223 O 0.99165 0.42117 0.20479 0.0
Co224 Co 0.60238 0.56224 0.23078 0.0
O225 O 0.62108 0.57948 0.23943 0.0
O226 O 0.61545 0.55767 0.26699 0.0
C227 C 0.59984 0.56635 0.14958 0.0
O228 O 0.58445 0.54177 0.22734 0.0
Co229 Co 0.57498 0.56433 0.20069 0.0
O230 O 0.56615 0.54315 0.19008 0.0
C231 C 0.58637 0.57111 0.30405 0.0
C232 C 0.62515 0.57134 0.2624 0.0
C233 C 0.57164 0.53583 0.20774 0.0
O234 O 0.59526 0.56644 0.2953 0.0
O235 O 0.57843 0.57223 0.27031 0.0
O236 O 0.60759 0.56043 0.1614 0.0
O237 O 0.59497 0.57042 0.18642 0.0
Co238 Co 0.45177 0.04281 0.22719 0.0
O239 O 0.43632 0.04722 0.23129 0.0
O240 O 0.45853 0.06146 0.26015 0.0
C241 C 0.44749 0.03523 0.14712 0.0
O242 O 0.47063 0.042 0.22751 0.0
Co243 Co 0.44478 0.01114 0.20553 0.0
O244 O 0.46597 0.02097 0.19134 0.0
C245 C 0.4383 0.01882 0.30438 0.0
C246 C 0.44539 0.05917 0.25374 0.0
C247 C 0.47483 0.03359 0.20825 0.0
O248 O 0.44576 0.03243 0.29357 0.0
O249 O 0.43544 0.00866 0.27286 0.0
O250 O 0.45533 0.04904 0.15676 0.0
O251 O 0.44183 0.02687 0.18513 0.0
Co252 Co 0.60009 0.0421 0.23069 0.0
O253 O 0.62015 0.04712 0.23048 0.0
O254 O 0.61231 0.0619 0.2548 0.0
C255 C 0.59473 0.03139 0.15479 0.0
O256 O 0.58014 0.04065 0.23378 0.0
Co257 Co 0.57623 0.00932 0.22669 0.0
O258 O 0.56285 0.01724 0.22248 0.0
C259 C 0.59378 0.02154 0.31702 0.0
C260 C 0.6232 0.05967 0.24836 0.0
C261 C 0.56674 0.03061 0.22867 0.0
O262 O 0.59794 0.03447 0.30116 0.0
O263 O 0.58662 0.01015 0.29024 0.0
O264 O 0.60062 0.04544 0.15798 0.0
O265 O 0.5935 0.02476 0.19625 0.0
Co266 Co 0.97058 0.56058 0.21567 0.0
O267 O 0.96735 0.57681 0.22221 0.0
O268 O 0.95286 0.55496 0.25333 0.0
C269 C 0.97639 0.56416 0.13404 0.0
O270 O 0.97003 0.54097 0.21476 0.0
Co271 Co 1.00076 0.56497 0.18413 0.0
O272 O 0.9895 0.54373 0.17204 0.0
C273 C 0.99625 0.57228 0.28692 0.0
C274 C 0.95566 0.56827 0.24709 0.0
C275 C 0.97725 0.53572 0.19288 0.0
O276 O 0.9825 0.5666 0.27902 0.0
O277 O 1.00532 0.57351 0.25305 0.0
O278 O 0.96279 0.55706 0.14715 0.0
O279 O 0.9857 0.5695 0.16972 0.0
Co280 Co 0.45451 0.41289 0.23751 0.0
O281 O 0.43913 0.39296 0.23857 0.0
O282 O 0.46164 0.40052 0.26363 0.0
C283 C 0.44946 0.41793 0.16048 0.0
O284 O 0.47335 0.43254 0.2397 0.0
Co285 Co 0.44677 0.43755 0.22941 0.0
O286 O 0.46815 0.4503 0.22445 0.0
C287 C 0.44064 0.42055 0.32167 0.0
C288 C 0.44844 0.38978 0.25742 0.0
C289 C 0.47724 0.44601 0.2325 0.0
O290 O 0.44904 0.41577 0.30725 0.0
O291 O 0.43693 0.42788 0.29352 0.0
O292 O 0.45732 0.41174 0.16506 0.0
O293 O 0.4442 0.4197 0.2014 0.0
Co294 Co 0.38211 0.26568 0.42381 0.0
O295 O 0.38512 0.28505 0.41676 0.0
O296 O 0.40124 0.27856 0.39612 0.0
C297 C 0.37224 0.26211 0.50073 0.0
O298 O 0.38326 0.247 0.42716 0.0
Co299 Co 0.35154 0.23856 0.44095 0.0
O300 O 0.36299 0.22957 0.46397 0.0
C301 C 0.36025 0.2519 0.34018 0.0
C302 C 0.39785 0.28874 0.39876 0.0
C303 C 0.37592 0.23448 0.44832 0.0
O304 O 0.37334 0.26063 0.35485 0.0
O305 O 0.35006 0.24302 0.36911 0.0
O306 O 0.38632 0.26888 0.49596 0.0
O307 O 0.36492 0.25836 0.45987 0.0
Co308 Co 0.74648 0.11658 0.42198 0.0
O309 O 0.72669 0.10088 0.41793 0.0
O310 O 0.73468 0.12261 0.38463 0.0
C311 C 0.74954 0.1139 0.50378 0.0
O312 O 0.76595 0.13571 0.42024 0.0
Co313 Co 0.7714 0.11041 0.45112 0.0
O314 O 0.78371 0.13182 0.44865 0.0
C315 C 0.75835 0.10271 0.35059 0.0
C316 C 0.72385 0.10956 0.39243 0.0
C317 C 0.7793 0.14023 0.43236 0.0
O318 O 0.75139 0.10958 0.3585 0.0
O319 O 0.76569 0.10069 0.38437 0.0
O320 O 0.74316 0.12111 0.49046 0.0
O321 O 0.7526 0.1077 0.4684 0.0
Co322 Co 0.89847 0.63408 0.42833 0.0
O323 O 0.91425 0.63012 0.42427 0.0
O324 O 0.89248 0.61611 0.39174 0.0
C325 C 0.90161 0.6402 0.50986 0.0
O326 O 0.87926 0.63435 0.42705 0.0
Co327 Co 0.90458 0.66516 0.45629 0.0
O328 O 0.88315 0.65598 0.45567 0.0
C329 C 0.9123 0.65955 0.35612 0.0
C330 C 0.90561 0.61849 0.39933 0.0
C331 C 0.87473 0.64314 0.43968 0.0
O332 O 0.90524 0.64574 0.36426 0.0
O333 O 0.91444 0.66897 0.38982 0.0
O334 O 0.8942 0.62656 0.49728 0.0
O335 O 0.90759 0.64928 0.47388 0.0
Co336 Co 0.4164 0.96818 0.74919 0.0
O337 O 0.39633 0.96321 0.74977 0.0
O338 O 0.40407 0.94823 0.72686 0.0
C339 C 0.42222 0.97955 0.8242 0.0
O340 O 0.43628 0.96948 0.74605 0.0
Co341 Co 0.44039 1.00095 0.74971 0.0
O342 O 0.45374 0.99298 0.75372 0.0
C343 C 0.4226 0.988 0.66041 0.0
C344 C 0.39323 0.95053 0.73301 0.0
C345 C 0.44973 0.97953 0.74938 0.0
O346 O 0.41836 0.97521 0.67786 0.0
O347 O 0.42989 0.99963 0.68592 0.0
O348 O 0.41611 0.96546 0.82229 0.0
O349 O 0.42328 0.98582 0.78204 0.0
Co350 Co 0.04915 0.45243 0.76101 0.0
O351 O 0.05196 0.43592 0.75537 0.0
O352 O 0.06758 0.45804 0.72857 0.0
C353 C 0.04117 0.44831 0.8409 0.0
O354 O 0.05021 0.47223 0.76227 0.0
Co355 Co 0.018 0.4476 0.78044 0.0
O356 O 0.02881 0.46895 0.79085 0.0
C357 C 0.02543 0.44035 0.68288 0.0
C358 C 0.06423 0.44454 0.73359 0.0
C359 C 0.042 0.47716 0.77782 0.0
O360 O 0.03903 0.44759 0.69402 0.0
O361 O 0.01528 0.4377 0.71417 0.0
O362 O 0.05505 0.45478 0.83194 0.0
O363 O 0.0329 0.44352 0.80223 0.0
Co364 Co 0.56454 0.59812 0.75292 0.0
O365 O 0.58149 0.61655 0.73788 0.0
O366 O 0.55881 0.61195 0.73094 0.0
C367 C 0.57297 0.59454 0.82594 0.0
O368 O 0.54424 0.58053 0.76528 0.0
Co369 Co 0.56609 0.5697 0.76447 0.0
O370 O 0.54669 0.56209 0.79524 0.0
C371 C 0.56765 0.58225 0.66412 0.0
C372 C 0.57262 0.62114 0.72621 0.0
C373 C 0.53895 0.56782 0.78532 0.0
O374 O 0.5646 0.59165 0.68211 0.0
O375 O 0.56952 0.57334 0.69099 0.0
O376 O 0.567 0.60265 0.82481 0.0
O377 O 0.57445 0.58981 0.7833 0.0
Co378 Co 0.63887 0.74592 0.56942 0.0
O379 O 0.63515 0.72645 0.58057 0.0
O380 O 0.62028 0.73446 0.60278 0.0
C381 C 0.64635 0.74755 0.48992 0.0
O382 O 0.63887 0.76517 0.56302 0.0
Co383 Co 0.67022 0.77081 0.543 0.0
O384 O 0.66074 0.78267 0.5354 0.0
C385 C 0.66301 0.75964 0.64633 0.0
C386 C 0.62306 0.72385 0.60132 0.0
C387 C 0.64767 0.77829 0.54864 0.0
O388 O 0.64939 0.75207 0.63558 0.0
O389 O 0.67294 0.76673 0.6139 0.0
O390 O 0.63252 0.74139 0.49942 0.0
O391 O 0.65485 0.75143 0.52796 0.0
Co392 Co 0.26857 0.89389 0.57312 0.0
O393 O 0.28783 0.91017 0.583 0.0
O394 O 0.28152 0.8873 0.59787 0.0
C395 C 0.26511 0.90145 0.49799 0.0
O396 O 0.24992 0.87414 0.56567 0.0
Co397 Co 0.24157 0.89786 0.55991 0.0
O398 O 0.23265 0.87792 0.53237 0.0
C399 C 0.25416 0.89987 0.66068 0.0
C400 C 0.29162 0.90092 0.59797 0.0
C401 C 0.2374 0.86948 0.54486 0.0
O402 O 0.26314 0.8961 0.64362 0.0
O403 O 0.24543 0.90184 0.63313 0.0
O404 O 0.27212 0.89432 0.50056 0.0
O405 O 0.26129 0.90432 0.54013 0.0
Co406 Co 0.11945 0.37583 0.56383 0.0
O407 O 0.1031 0.37889 0.56994 0.0
O408 O 0.12573 0.39517 0.58943 0.0
C409 C 0.11372 0.36537 0.48731 0.0
O410 O 0.13918 0.37677 0.56085 0.0
Co411 Co 0.11442 0.3443 0.55496 0.0
O412 O 0.13548 0.35471 0.53882 0.0
C413 C 0.1091 0.35468 0.65007 0.0
C414 C 0.11216 0.39175 0.58687 0.0
C415 C 0.14389 0.36819 0.54758 0.0
O416 O 0.11606 0.36787 0.63419 0.0
O417 O 0.10585 0.34364 0.62242 0.0
O418 O 0.12034 0.37946 0.4912 0.0
O419 O 0.10973 0.35837 0.52887 0.0
Co420 Co 0.26932 0.37736 0.56783 0.0
O421 O 0.289 0.38101 0.5705 0.0
O422 O 0.28176 0.39565 0.60144 0.0
C423 C 0.26505 0.37008 0.48748 0.0
O424 O 0.25015 0.37765 0.57029 0.0
Co425 Co 0.24346 0.34601 0.54611 0.0
O426 O 0.2315 0.35548 0.55042 0.0
C427 C 0.25826 0.35284 0.64355 0.0
C428 C 0.2923 0.39297 0.59396 0.0
C429 C 0.23653 0.36874 0.56239 0.0
O430 O 0.26493 0.36654 0.63354 0.0
O431 O 0.25052 0.343 0.61169 0.0
O432 O 0.27209 0.38391 0.49762 0.0
O433 O 0.26217 0.36151 0.52493 0.0
Co434 Co 0.63899 0.89437 0.56451 0.0
O435 O 0.63649 0.91102 0.57311 0.0
O436 O 0.61943 0.88829 0.58731 0.0
C437 C 0.65058 0.9014 0.49008 0.0
O438 O 0.63718 0.87426 0.55814 0.0
Co439 Co 0.66952 0.89709 0.55586 0.0
O440 O 0.65823 0.87725 0.5278 0.0
C441 C 0.65853 0.89994 0.65452 0.0
C442 C 0.62329 0.902 0.58721 0.0
C443 C 0.64486 0.8692 0.5387 0.0
O444 O 0.64601 0.89642 0.63585 0.0
O445 O 0.66932 0.90146 0.62855 0.0
O446 O 0.63646 0.89492 0.49169 0.0
O447 O 0.657 0.90419 0.53279 0.0
Co448 Co 0.11909 0.74662 0.56125 0.0
O449 O 0.10329 0.72686 0.5622 0.0
O450 O 0.12581 0.7337 0.58515 0.0
C451 C 0.11414 0.75256 0.48533 0.0
O452 O 0.13828 0.76596 0.56317 0.0
Co453 Co 0.11203 0.77185 0.55809 0.0
O454 O 0.13345 0.7842 0.55283 0.0
C455 C 0.10625 0.75437 0.64874 0.0
C456 C 0.11244 0.72326 0.57967 0.0
C457 C 0.14236 0.77956 0.5582 0.0
O458 O 0.11433 0.74944 0.63217 0.0
O459 O 0.10248 0.76197 0.62231 0.0
O460 O 0.12133 0.74562 0.48831 0.0
O461 O 0.10915 0.75422 0.5271 0.0
Co462 Co 0.0441 0.5985 0.73831 0.0
O463 O 0.04751 0.61803 0.7323 0.0
O464 O 0.06378 0.61147 0.71511 0.0
C465 C 0.03274 0.59375 0.81339 0.0
O466 O 0.04474 0.57953 0.74187 0.0
Co467 Co 0.01232 0.57216 0.74553 0.0
O468 O 0.02223 0.56089 0.75744 0.0
C469 C 0.02414 0.58625 0.64808 0.0
C470 C 0.06049 0.62173 0.717 0.0
C471 C 0.03581 0.56597 0.75069 0.0
O472 O 0.03689 0.5943 0.66685 0.0
O473 O 0.01295 0.57771 0.67392 0.0
O474 O 0.04688 0.60079 0.81149 0.0
O475 O 0.02631 0.591 0.77082 0.0
Co476 Co 0.41644 0.45024 0.75922 0.0
O477 O 0.39668 0.43452 0.75678 0.0
O478 O 0.40382 0.45694 0.73194 0.0
C479 C 0.42119 0.44534 0.83668 0.0
O480 O 0.43584 0.46936 0.75847 0.0
Co481 Co 0.44152 0.44323 0.76938 0.0
O482 O 0.4539 0.46465 0.77464 0.0
C483 C 0.42498 0.43682 0.67608 0.0
C484 C 0.39327 0.44362 0.73754 0.0
C485 C 0.44933 0.47352 0.76652 0.0
O486 O 0.41991 0.44504 0.68987 0.0
O487 O 0.43231 0.43327 0.70489 0.0
O488 O 0.41474 0.45293 0.8313 0.0
O489 O 0.42335 0.44015 0.79626 0.0
Co490 Co 0.56481 0.96757 0.75197 0.0
O491 O 0.58014 0.96297 0.74886 0.0
O492 O 0.55779 0.94859 0.72124 0.0
C493 C 0.56953 0.97606 0.83097 0.0
O494 O 0.54605 0.96858 0.75124 0.0
Co495 Co 0.5723 0.99961 0.76926 0.0
O496 O 0.55115 0.99017 0.78383 0.0
C497 C 0.57846 0.99069 0.67228 0.0
C498 C 0.57093 0.95087 0.72759 0.0
C499 C 0.54209 0.97736 0.76889 0.0
O500 O 0.57063 0.97722 0.6844 0.0
O501 O 0.58166 1.0012 0.70258 0.0
O502 O 0.56155 0.96215 0.82327 0.0
O503 O 0.57501 0.98391 0.79175 0.0
C504 C 0.12808 0.29573 0.05873 0.0
C505 C 0.12398 0.29929 0.104 0.0
C506 C 0.14054 0.29429 0.05606 0.0
C507 C 0.14888 0.29625 0.09986 0.0
C508 C 0.14371 0.29817 0.14652 0.0
C509 C 0.13147 0.29992 0.14787 0.0
C510 C 0.14565 0.29234 0.00549 0.0
C511 C 0.15201 0.3 0.19435 0.0
C512 C 0.1833 0.29316 0.09966 0.0
C513 C 0.19411 0.30783 0.09553 0.0
C514 C 0.16842 0.28903 0.1 0.0
C515 C 0.16433 0.29982 0.09565 0.0
C516 C 0.17522 0.31454 0.08976 0.0
C517 C 0.18986 0.31832 0.08992 0.0
C518 C 0.15713 0.27324 0.10641 0.0
C519 C 0.17147 0.32646 0.08448 0.0
H520 H 0.12237 0.2954 0.0247 0.0
H521 H 0.12827 0.3027 0.18287 0.0
H522 H 0.15449 0.303 0.99209 0.0
H523 H 0.15009 0.28488 0.00783 0.0
H524 H 0.13675 0.28807 0.97741 0.0
H525 H 0.14522 0.29846 0.22792 0.0
H526 H 0.15603 0.29218 0.196 0.0
H527 H 0.16159 0.31111 0.19568 0.0
H528 H 0.18645 0.28496 0.10391 0.0
H529 H 0.19805 0.32967 0.08584 0.0
H530 H 0.14866 0.26982 0.07704 0.0
H531 H 0.15163 0.27166 0.14306 0.0
H532 H 0.16193 0.26605 0.10477 0.0
H533 H 0.16374 0.32398 0.0531 0.0
H534 H 0.18119 0.33726 0.07761 0.0
H535 H 0.16608 0.32715 0.1191 0.0
C536 C 0.70674 0.831 0.15511 0.0
C537 C 0.71246 0.82545 0.11975 0.0
C538 C 0.70921 0.84521 0.15144 0.0
C539 C 0.71753 0.85416 0.11112 0.0
C540 C 0.72441 0.84908 0.07785 0.0
C541 C 0.72183 0.83476 0.08264 0.0
C542 C 0.70179 0.85017 0.18828 0.0
C543 C 0.7335 0.8583 0.03474 0.0
C544 C 0.70191 0.87752 0.06932 0.0
C545 C 0.71085 0.89063 0.09407 0.0
C546 C 0.70474 0.86599 0.07121 0.0
C547 C 0.71669 0.86748 0.09944 0.0
C548 C 0.72636 0.88107 0.12178 0.0
C549 C 0.72335 0.89257 0.11862 0.0
C550 C 0.69425 0.85183 0.04602 0.0
C551 C 0.73926 0.88315 0.15194 0.0
H552 H 0.69967 0.82393 0.18436 0.0
H553 H 0.72631 0.83057 0.05519 0.0
H554 H 0.70947 0.86126 0.20207 0.0
H555 H 0.69271 0.85059 0.16935 0.0
H556 H 0.69733 0.84275 0.22093 0.0
H557 H 0.74041 0.85416 0.01885 0.0
H558 H 0.72625 0.85821 0.00472 0.0
H559 H 0.74056 0.86974 0.04661 0.0
H560 H 0.69229 0.87607 0.05003 0.0
H561 H 0.73023 0.9027 0.13802 0.0
H562 H 0.68792 0.84355 0.0749 0.0
H563 H 0.70022 0.84772 0.02361 0.0
H564 H 0.68651 0.85297 0.02106 0.0
H565 H 0.73547 0.87775 0.18881 0.0
H566 H 0.74714 0.89483 0.15848 0.0
H567 H 0.7449 0.87808 0.13291 0.0
C568 C 0.14152 0.8265 0.07501 0.0
C569 C 0.12755 0.82302 0.09051 0.0
C570 C 0.15323 0.84074 0.07802 0.0
C571 C 0.15103 0.85185 0.09798 0.0
C572 C 0.13681 0.84856 0.11168 0.0
C573 C 0.12517 0.83416 0.10739 0.0
C574 C 0.16811 0.84374 0.06199 0.0
C575 C 0.13402 0.86005 0.13333 0.0
C576 C 0.18579 0.88034 0.15909 0.0
C577 C 0.19215 0.89064 0.12073 0.0
C578 C 0.17178 0.86831 0.15392 0.0
C579 C 0.16398 0.86635 0.10888 0.0
C580 C 0.16988 0.87731 0.0716 0.0
C581 C 0.18389 0.8894 0.07812 0.0
C582 C 0.16584 0.85709 0.19512 0.0
C583 C 0.16196 0.87568 0.02306 0.0
H584 H 0.14338 0.81796 0.06128 0.0
H585 H 0.11439 0.83151 0.11955 0.0
H586 H 0.17313 0.85316 0.03616 0.0
H587 H 0.17527 0.84652 0.09524 0.0
H588 H 0.16774 0.83425 0.04303 0.0
H589 H 0.12223 0.85632 0.13552 0.0
H590 H 0.13864 0.86285 0.17162 0.0
H591 H 0.13946 0.87012 0.11062 0.0
H592 H 0.19206 0.88135 0.19239 0.0
H593 H 0.18876 0.89731 0.04828 0.0
H594 H 0.16618 0.84727 0.18297 0.0
H595 H 0.15434 0.85374 0.20308 0.0
H596 H 0.17221 0.86117 0.23027 0.0
H597 H 0.16272 0.86754 -0.00081 0.0
H598 H 0.16665 0.88608 0.00209 0.0
H599 H 0.15027 0.87168 0.0299 0.0
C600 C 0.30033 0.12413 0.91622 0.0
C601 C 0.30512 0.12118 0.87116 0.0
C602 C 0.29907 0.13666 0.92137 0.0
C603 C 0.30247 0.14628 0.88025 0.0
C604 C 0.30586 0.14248 0.83338 0.0
C605 C 0.30731 0.13009 0.82959 0.0
C606 C 0.29544 0.14027 0.97201 0.0
C607 C 0.30929 0.1522 0.78822 0.0
C608 C 0.298 0.17987 0.88132 0.0
C609 C 0.31236 0.1909 0.89003 0.0
C610 C 0.29435 0.16514 0.87981 0.0
C611 C 0.30529 0.16142 0.88795 0.0
C612 C 0.31961 0.17251 0.8994 0.0
C613 C 0.32295 0.18703 0.89993 0.0
C614 C 0.27899 0.15366 0.86736 0.0
C615 C 0.33161 0.16912 0.90919 0.0
H616 H 0.29869 0.11729 0.94851 0.0
H617 H 0.31088 0.12776 0.79455 0.0
H618 H 0.30554 0.14882 0.98992 0.0
H619 H 0.28791 0.1446 0.96839 0.0
H620 H 0.29047 0.13064 -0.00292 0.0
H621 H 0.30941 0.14665 0.75314 0.0
H622 H 0.30125 0.15589 0.78423 0.0
H623 H 0.32015 0.162 0.79307 0.0
H624 H 0.28975 0.18278 0.87373 0.0
H625 H 0.33402 0.19546 0.90762 0.0
H626 H 0.27509 0.1444 0.89375 0.0
H627 H 0.27869 0.14937 0.82927 0.0
H628 H 0.2714 0.15799 0.86848 0.0
H629 H 0.32823 0.16062 0.93842 0.0
H630 H 0.34184 0.17883 0.92147 0.0
H631 H 0.33388 0.16483 0.87459 0.0
C632 C 0.83557 0.12106 0.87181 0.0
C633 C 0.82534 0.12447 0.89101 0.0
C634 C 0.85037 0.13185 0.86769 0.0
C635 C 0.85494 0.14625 0.88366 0.0
C636 C 0.84473 0.1494 0.90585 0.0
C637 C 0.83013 0.13854 0.90896 0.0
C638 C 0.8609 0.12802 0.84402 0.0
C639 C 0.84906 0.16449 0.92425 0.0
C640 C 0.89281 0.17778 0.90741 0.0
C641 C 0.89412 0.1869 0.86742 0.0
C642 C 0.88074 0.16364 0.91086 0.0
C643 C 0.86988 0.15855 0.8732 0.0
C644 C 0.87217 0.16713 0.82992 0.0
C645 C 0.88418 0.18124 0.8278 0.0
C646 C 0.87884 0.15482 0.95736 0.0
C647 C 0.8611 0.16209 0.78828 0.0
H648 H 0.83193 0.11019 0.85797 0.0
H649 H 0.82233 0.14118 0.92474 0.0
H650 H 0.8633 0.13231 0.80524 0.0
H651 H 0.87133 0.13308 0.86481 0.0
H652 H 0.85642 0.11609 0.84251 0.0
H653 H 0.84003 0.16486 0.9439 0.0
H654 H 0.85842 0.16847 0.95022 0.0
H655 H 0.85248 0.1721 0.89209 0.0
H656 H 0.90047 0.18211 0.93819 0.0
H657 H 0.88526 0.18823 0.79655 0.0
H658 H 0.87411 0.14314 0.94818 0.0
H659 H 0.87124 0.15586 0.98322 0.0
H660 H 0.88932 0.15864 0.97723 0.0
H661 H 0.85718 0.15055 0.7789 0.0
H662 H 0.86559 0.16875 0.75391 0.0
H663 H 0.85159 0.16295 0.80071 0.0
C664 C 0.83771 0.71287 0.83161 0.0
C665 C 0.83074 0.71413 0.87421 0.0
C666 C 0.85161 0.71447 0.83473 0.0
C667 C 0.85854 0.71699 0.88192 0.0
C668 C 0.85215 0.71974 0.92409 0.0
C669 C 0.83831 0.71836 0.91965 0.0
C670 C 0.85808 0.71176 0.78852 0.0
C671 C 0.85913 0.72248 0.97507 0.0
C672 C 0.87685 0.69455 0.8997 0.0
C673 C 0.89162 0.70476 0.89317 0.0
C674 C 0.86618 0.69858 0.89788 0.0
C675 C 0.87025 0.71326 0.88885 0.0
C676 C 0.88516 0.72377 0.88347 0.0
C677 C 0.89572 0.71941 0.88594 0.0
C678 C 0.85044 0.68696 0.90442 0.0
C679 C 0.88992 0.7395 0.87365 0.0
H680 H 0.83185 0.70964 0.7964 0.0
H681 H 0.83287 0.71923 0.9527 0.0
H682 H 0.86994 0.71944 0.78657 0.0
H683 H 0.85642 0.70059 0.79003 0.0
H684 H 0.85293 0.71279 0.75377 0.0
H685 H 0.85461 0.72738 0.00106 0.0
H686 H 0.8571 0.71202 0.99129 0.0
H687 H 0.87106 0.72973 0.97248 0.0
H688 H 0.87353 0.68324 0.90619 0.0
H689 H 0.9071 0.72739 0.881 0.0
H690 H 0.84436 0.6858 0.86937 0.0
H691 H 0.84535 0.69008 0.93454 0.0
H692 H 0.84919 0.67622 0.9139 0.0
H693 H 0.88634 0.74061 0.83571 0.0
H694 H 0.9019 0.74658 0.87601 0.0
H695 H 0.88475 0.74344 0.90074 0.0
C696 C 0.85574 0.64894 0.41447 0.0
C697 C 0.85921 0.63878 0.43363 0.0
C698 C 0.84139 0.64617 0.41392 0.0
C699 C 0.83016 0.63299 0.4341 0.0
C700 C 0.83347 0.62233 0.4513 0.0
C701 C 0.848 0.62531 0.45047 0.0
C702 C 0.83842 0.65775 0.39416 0.0
C703 C 0.82185 0.60818 0.47323 0.0
C704 C 0.80139 0.64027 0.48627 0.0
C705 C 0.79166 0.63626 0.44607 0.0
C706 C 0.81318 0.63781 0.48506 0.0
C707 C 0.81551 0.63143 0.44207 0.0
C708 C 0.80497 0.62616 0.40333 0.0
C709 C 0.79308 0.62856 0.40593 0.0
C710 C 0.82392 0.64335 0.52777 0.0
C711 C 0.80696 0.61926 0.35693 0.0
H712 H 0.86438 0.65929 0.40084 0.0
H713 H 0.85067 0.61746 0.46545 0.0
H714 H 0.82926 0.65299 0.36718 0.0
H715 H 0.83524 0.66243 0.42553 0.0
H716 H 0.84804 0.66671 0.37528 0.0
H717 H 0.8256 0.60016 0.47714 0.0
H718 H 0.81881 0.61022 0.51083 0.0
H719 H 0.81192 0.6034 0.44972 0.0
H720 H 0.80026 0.64614 0.51753 0.0
H721 H 0.78563 0.62552 0.37461 0.0
H722 H 0.83388 0.6534 0.51595 0.0
H723 H 0.82715 0.63525 0.53815 0.0
H724 H 0.81945 0.64588 0.5614 0.0
H725 H 0.81515 0.62787 0.33231 0.0
H726 H 0.79667 0.61316 0.33554 0.0
H727 H 0.81105 0.61179 0.36655 0.0
C728 C 0.36165 0.15797 0.43526 0.0
C729 C 0.37227 0.1538 0.43504 0.0
C730 C 0.36539 0.17259 0.43738 0.0
C731 C 0.38019 0.1835 0.44005 0.0
C732 C 0.39106 0.17947 0.44001 0.0
C733 C 0.38698 0.16464 0.4371 0.0
C734 C 0.35338 0.17631 0.43674 0.0
C735 C 0.40694 0.1908 0.44351 0.0
C736 C 0.38413 0.21959 0.40203 0.0
C737 C 0.38148 0.22425 0.44782 0.0
C738 C 0.38517 0.20692 0.39923 0.0
C739 C 0.38387 0.199 0.44349 0.0
C740 C 0.38289 0.20468 0.49038 0.0
C741 C 0.38137 0.21708 0.49188 0.0
C742 C 0.38593 0.20117 0.34837 0.0
C743 C 0.38194 0.19688 0.53863 0.0
H744 H 0.35025 0.14978 0.4332 0.0
H745 H 0.39527 0.16154 0.43698 0.0
H746 H 0.35352 0.18185 0.47208 0.0
H747 H 0.3551 0.18389 0.40553 0.0
H748 H 0.34245 0.16655 0.43243 0.0
H749 H 0.41406 0.18591 0.44377 0.0
H750 H 0.41006 0.19841 0.41145 0.0
H751 H 0.40895 0.19731 0.4781 0.0
H752 H 0.38404 0.22507 0.3679 0.0
H753 H 0.37933 0.22072 0.52731 0.0
H754 H 0.375 0.19211 0.33816 0.0
H755 H 0.39347 0.19681 0.34871 0.0
H756 H 0.38946 0.20967 0.31898 0.0
H757 H 0.3708 0.18748 0.54291 0.0
H758 H 0.38433 0.2041 0.57161 0.0
H759 H 0.3896 0.19265 0.53835 0.0
C760 C 0.84794 0.21441 0.48369 0.0
C761 C 0.8544 0.22387 0.44319 0.0
C762 C 0.83384 0.20246 0.48023 0.0
C763 C 0.82606 0.19972 0.43473 0.0
C764 C 0.83202 0.20997 0.39522 0.0
C765 C 0.84615 0.22202 0.40002 0.0
C766 C 0.82789 0.19201 0.5237 0.0
C767 C 0.82409 0.20753 0.34622 0.0
C768 C 0.8044 0.15928 0.41056 0.0
C769 C 0.79041 0.15574 0.42608 0.0
C770 C 0.8158 0.17369 0.40984 0.0
C771 C 0.81329 0.18494 0.42598 0.0
C772 C 0.799 0.18155 0.43922 0.0
C773 C 0.78766 0.16695 0.43875 0.0
C774 C 0.83075 0.17674 0.39447 0.0
C775 C 0.79586 0.19321 0.45667 0.0
H776 H 0.85427 0.21591 0.5173 0.0
H777 H 0.85114 0.22929 0.36855 0.0
H778 H 0.81637 0.18874 0.53078 0.0
H779 H 0.82831 0.18204 0.51459 0.0
H780 H 0.83421 0.19676 0.55856 0.0
H781 H 0.82861 0.21765 0.32368 0.0
H782 H 0.82512 0.19924 0.32416 0.0
H783 H 0.81234 0.20337 0.35255 0.0
H784 H 0.80651 0.15065 0.39996 0.0
H785 H 0.77685 0.16424 0.45077 0.0
H786 H 0.83803 0.18031 0.42759 0.0
H787 H 0.83552 0.18566 0.36657 0.0
H788 H 0.83057 0.16704 0.37818 0.0
H789 H 0.80022 0.19666 0.49505 0.0
H790 H 0.78402 0.18931 0.45736 0.0
H791 H 0.80132 0.20292 0.43222 0.0
C792 C 0.97581 0.51339 0.15703 0.0
C793 C 0.97217 0.51994 0.19563 0.0
C794 C 0.97415 0.49952 0.1629 0.0
C795 C 0.96894 0.49206 0.20887 0.0
C796 C 0.96405 0.49807 0.24635 0.0
C797 C 0.96565 0.51195 0.23917 0.0
C798 C 0.97926 0.49348 0.1215 0.0
C799 C 0.95836 0.49048 0.2958 0.0
C800 C 0.96445 0.45402 0.21422 0.0
C801 C 0.97829 0.45726 0.23075 0.0
C802 C 0.96088 0.4651 0.20888 0.0
C803 C 0.97136 0.47967 0.2207 0.0
C804 C 0.98503 0.48277 0.23994 0.0
C805 C 0.98831 0.4716 0.24455 0.0
C806 C 0.94617 0.46132 0.18851 0.0
C807 C 0.99653 0.49807 0.25366 0.0
H808 H 0.98065 0.51945 0.12298 0.0
H809 H 0.96282 0.51695 0.26916 0.0
H810 H 0.98975 0.49437 0.1324 0.0
H811 H 0.97136 0.48182 0.11524 0.0
H812 H 0.98087 0.49943 0.08572 0.0
H813 H 0.95248 0.49501 0.31671 0.0
H814 H 0.95098 0.47866 0.29024 0.0
H815 H 0.9676 0.49184 0.31911 0.0
H816 H 0.95663 0.44297 0.2036 0.0
H817 H 0.99894 0.47419 0.25827 0.0
H818 H 0.94738 0.46541 0.14959 0.0
H819 H 0.94134 0.46665 0.21086 0.0
H820 H 0.93854 0.44941 0.18827 0.0
H821 H 1.00014 0.50494 0.21954 0.0
H822 H 1.00618 0.49849 0.27141 0.0
H823 H 0.99201 0.50291 0.27982 0.0
C824 C 0.55958 0.51223 0.25416 0.0
C825 C 0.56192 0.51991 0.20929 0.0
C826 C 0.54732 0.49829 0.26002 0.0
C827 C 0.53736 0.49195 0.21987 0.0
C828 C 0.54066 0.49906 0.17288 0.0
C829 C 0.55281 0.513 0.16834 0.0
C830 C 0.54429 0.49107 0.31063 0.0
C831 C 0.53054 0.49265 0.12873 0.0
C832 C 0.50386 0.45397 0.22309 0.0
C833 C 0.4929 0.45727 0.23394 0.0
C834 C 0.51855 0.46503 0.2203 0.0
C835 C 0.52233 0.47967 0.22906 0.0
C836 C 0.51135 0.48289 0.24246 0.0
C837 C 0.49684 0.47171 0.24446 0.0
C838 C 0.52992 0.46115 0.20588 0.0
C839 C 0.51483 0.49828 0.25281 0.0
H840 H 0.56657 0.51758 0.28598 0.0
H841 H 0.55468 0.51891 0.1335 0.0
H842 H 0.53597 0.49265 0.33019 0.0
H843 H 0.53992 0.47921 0.3068 0.0
H844 H 0.55421 0.49573 0.33431 0.0
H845 H 0.53577 0.49826 0.0932 0.0
H846 H 0.52686 0.48093 0.12472 0.0
H847 H 0.52077 0.49369 0.13484 0.0
H848 H 0.50091 0.44283 0.21498 0.0
H849 H 0.48849 0.47435 0.25373 0.0
H850 H 0.53951 0.46666 0.23084 0.0
H851 H 0.5337 0.46495 0.1672 0.0
H852 H 0.52565 0.44925 0.2074 0.0
H853 H 0.52354 0.50337 0.28133 0.0
H854 H 0.50521 0.49881 0.26627 0.0
H855 H 0.51886 0.50485 0.21811 0.0
C856 C 0.54119 0.02395 0.24725 0.0
C857 C 0.55504 0.03437 0.23042 0.0
C858 C 0.52945 0.02646 0.24528 0.0
C859 C 0.53147 0.03967 0.22521 0.0
C860 C 0.54555 0.05052 0.20991 0.0
C861 C 0.55723 0.04779 0.21306 0.0
C862 C 0.51471 0.01466 0.26289 0.0
C863 C 0.54814 0.06471 0.18806 0.0
C864 C 0.49613 0.03358 0.16945 0.0
C865 C 0.49044 0.03799 0.20859 0.0
C866 C 0.51009 0.03531 0.17255 0.0
C867 C 0.51847 0.0413 0.21645 0.0
C868 C 0.51316 0.04667 0.25471 0.0
C869 C 0.49922 0.04508 0.2501 0.0
C870 C 0.51541 0.02974 0.13032 0.0
C871 C 0.52167 0.05304 0.30223 0.0
H872 H 0.53945 0.01364 0.26145 0.0
H873 H 0.56791 0.05588 0.19996 0.0
H874 H 0.50998 0.01917 0.28956 0.0
H875 H 0.50721 0.01023 0.23049 0.0
H876 H 0.51522 1.00557 0.28142 0.0
H877 H 0.5599 0.07266 0.18356 0.0
H878 H 0.54287 0.0627 0.1508 0.0
H879 H 0.54319 0.06959 0.21206 0.0
H880 H 0.48943 0.02827 0.13698 0.0
H881 H 0.49484 0.04848 0.28049 0.0
H882 H 0.51511 0.01958 0.14222 0.0
H883 H 0.52684 0.03774 0.12078 0.0
H884 H 0.50864 0.02738 0.09614 0.0
H885 H 0.52123 0.04418 0.32553 0.0
H886 H 0.51724 0.05878 0.32449 0.0
H887 H 0.53326 0.06072 0.29378 0.0
C888 C 0.4596 0.96292 0.76963 0.0
C889 C 0.46135 0.97568 0.74753 0.0
C890 C 0.47137 0.96035 0.77297 0.0
C891 C 0.48508 0.97065 0.75294 0.0
C892 C 0.48657 0.98307 0.72792 0.0
C893 C 0.47476 0.98548 0.72597 0.0
C894 C 0.46936 0.94703 0.80019 0.0
C895 C 0.50086 0.99422 0.70516 0.0
C896 C 0.52136 0.97877 0.8063 0.0
C897 C 0.5265 0.9731 0.76939 0.0
C898 C 0.50736 0.97695 0.80351 0.0
C899 C 0.49833 0.9695 0.76221 0.0
C900 C 0.50311 0.96292 0.72649 0.0
C901 C 0.51713 0.9647 0.73073 0.0
C902 C 0.50265 0.9839 0.84303 0.0
C903 C 0.49387 0.95494 0.68182 0.0
H904 H 0.44925 0.95532 0.78641 0.0
H905 H 0.47611 0.99524 0.70814 0.0
H906 H 0.47402 0.94148 0.77822 0.0
H907 H 0.47525 0.95031 0.8364 0.0
H908 H 0.45773 0.93919 0.80783 0.0
H909 H 0.49984 1.00251 0.68295 0.0
H910 H 0.50895 0.99986 0.73529 0.0
H911 H 0.50518 0.98886 0.6805 0.0
H912 H 0.52849 0.98508 0.83669 0.0
H913 H 0.52106 0.9603 0.70208 0.0
H914 H 0.49147 0.97619 0.85595 0.0
H915 H 0.50255 0.99347 0.82685 0.0
H916 H 0.51003 0.98756 0.87593 0.0
H917 H 0.48246 0.94751 0.69329 0.0
H918 H 0.49803 0.94856 0.66205 0.0
H919 H 0.4938 0.9629 0.65512 0.0
C920 C 0.0316 0.54129 0.73242 0.0
C921 C 0.04097 0.55534 0.75034 0.0
C922 C 0.03525 0.53035 0.73553 0.0
C923 C 0.04857 0.53342 0.75785 0.0
C924 C 0.05845 0.54778 0.77383 0.0
C925 C 0.05457 0.55865 0.76957 0.0
C926 C 0.02443 0.5153 0.71715 0.0
C927 C 0.07275 0.55149 0.79774 0.0
C928 C 0.04285 0.49876 0.81676 0.0
C929 C 0.04741 0.49297 0.7784 0.0
C930 C 0.04469 0.51273 0.81295 0.0
C931 C 0.05101 0.52104 0.7692 0.0
C932 C 0.05687 0.51578 0.73246 0.0
C933 C 0.05507 0.50177 0.73763 0.0
C934 C 0.0385 0.51795 0.85355 0.0
C935 C 0.06378 0.52432 0.68545 0.0
H936 H 0.0212 0.53874 0.71657 0.0
H937 H 0.06186 0.56952 0.78331 0.0
H938 H 0.02981 0.51116 0.69177 0.0
H939 H 0.02005 0.50774 0.74942 0.0
H940 H 0.01518 0.51504 0.69688 0.0
H941 H 0.0802 0.56341 0.80012 0.0
H942 H 0.07077 0.54695 0.83618 0.0
H943 H 0.07819 0.54657 0.77651 0.0
H944 H 0.0371 0.49202 0.84867 0.0
H945 H 0.0586 0.49731 0.70789 0.0
H946 H 0.02823 0.51714 0.84013 0.0
H947 H 0.04612 0.5295 0.86273 0.0
H948 H 0.03612 0.51139 0.88827 0.0
H949 H 0.05515 0.5232 0.65941 0.0
H950 H 0.0704 0.52035 0.66611 0.0
H951 H 0.07077 0.53604 0.69392 0.0
C952 C 0.47449 0.49356 0.75019 0.0
C953 C 0.46032 0.48922 0.76593 0.0
C954 C 0.48559 0.50809 0.75328 0.0
C955 C 0.48258 0.51863 0.77354 0.0
C956 C 0.46816 0.51445 0.78782 0.0
C957 C 0.45714 0.49977 0.78346 0.0
C958 C 0.50071 0.51203 0.73656 0.0
C959 C 0.46451 0.52531 0.80986 0.0
C960 C 0.51739 0.54836 0.82939 0.0
C961 C 0.52305 0.55818 0.78942 0.0
C962 C 0.50338 0.5362 0.82709 0.0
C963 C 0.49495 0.53358 0.7832 0.0
C964 C 0.50005 0.54423 0.74487 0.0
C965 C 0.51404 0.55651 0.74863 0.0
C966 C 0.49827 0.52536 0.86948 0.0
C967 C 0.49145 0.54193 0.69747 0.0
H968 H 0.47698 0.4855 0.73591 0.0
H969 H 0.4462 0.49647 0.79579 0.0
H970 H 0.50505 0.52132 0.71013 0.0
H971 H 0.50809 0.51544 0.76938 0.0
H972 H 0.50099 0.50282 0.718 0.0
H973 H 0.4526 0.52091 0.81215 0.0
H974 H 0.46911 0.52825 0.84816 0.0
H975 H 0.46944 0.53544 0.7874 0.0
H976 H 0.52432 0.54968 0.86109 0.0
H977 H 0.51841 0.56402 0.71747 0.0
H978 H 0.4993 0.51586 0.85833 0.0
H979 H 0.48666 0.52136 0.87802 0.0
H980 H 0.50476 0.5301 0.90403 0.0
H981 H 0.49263 0.53413 0.6731 0.0
H982 H 0.49533 0.55223 0.67637 0.0
H983 H 0.47972 0.53724 0.70575 0.0
C984 C 0.64328 0.84788 0.49446 0.0
C985 C 0.6389 0.85333 0.53444 0.0
C986 C 0.64106 0.83371 0.49551 0.0
C987 C 0.63462 0.82489 0.53818 0.0
C988 C 0.62897 0.82988 0.57658 0.0
C989 C 0.63109 0.84405 0.57407 0.0
C990 C 0.64695 0.82877 0.45312 0.0
C991 C 0.62203 0.82086 0.62271 0.0
C992 C 0.62963 0.78669 0.53272 0.0
C993 C 0.64313 0.78937 0.55083 0.0
C994 C 0.62632 0.798 0.53001 0.0
C995 C 0.63666 0.81213 0.54674 0.0
C996 C 0.64991 0.81455 0.56786 0.0
C997 C 0.65302 0.80321 0.56908 0.0
C998 C 0.61213 0.795 0.50697 0.0
C999 C 0.66116 0.82931 0.58725 0.0
H1000 H 0.6492 0.855 0.46353 0.0
H1001 H 0.62774 0.84826 0.60515 0.0
H1002 H 0.65718 0.82926 0.46524 0.0
H1003 H 0.63915 0.81736 0.44279 0.0
H1004 H 0.64932 0.83571 0.41939 0.0
H1005 H 0.61566 0.82481 0.64373 0.0
H1006 H 0.61481 0.80928 0.61283 0.0
H1007 H 0.63065 0.82147 0.64776 0.0
H1008 H 0.62197 0.77598 0.51856 0.0
H1009 H 0.66338 0.80524 0.58385 0.0
H1010 H 0.61421 0.80001 0.46925 0.0
H1011 H 0.60697 0.79993 0.5297 0.0
H1012 H 0.60439 0.78317 0.50309 0.0
H1013 H 0.66569 0.83709 0.55564 0.0
H1014 H 0.67027 0.82903 0.6066 0.0
H1015 H 0.65612 0.83354 0.61375 0.0
C1016 C 0.1687 0.78774 0.54077 0.0
C1017 C 0.15805 0.79061 0.55953 0.0
C1018 C 0.18336 0.79888 0.53748 0.0
C1019 C 0.1874 0.81309 0.55403 0.0
C1020 C 0.17677 0.81575 0.57547 0.0
C1021 C 0.16228 0.80455 0.57758 0.0
C1022 C 0.19434 0.79561 0.51419 0.0
C1023 C 0.18057 0.83064 0.59447 0.0
C1024 C 0.22529 0.84437 0.58089 0.0
C1025 C 0.22704 0.85369 0.54103 0.0
C1026 C 0.21296 0.8304 0.5837 0.0
C1027 C 0.20231 0.82564 0.54539 0.0
C1028 C 0.20492 0.83446 0.50255 0.0
C1029 C 0.21716 0.84843 0.50116 0.0
C1030 C 0.21065 0.82137 0.62998 0.0
C1031 C 0.19407 0.82974 0.46025 0.0
H1032 H 0.16549 0.77698 0.52673 0.0
H1033 H 0.15414 0.80679 0.59288 0.0
H1034 H 0.19741 0.80073 0.47667 0.0
H1035 H 0.20439 0.80026 0.53706 0.0
H1036 H 0.19001 0.78375 0.50987 0.0
H1037 H 0.17128 0.83062 0.61365 0.0
H1038 H 0.18982 0.83474 0.621 0.0
H1039 H 0.18397 0.83838 0.56268 0.0
H1040 H 0.23289 0.84842 0.61188 0.0
H1041 H 0.21857 0.85557 0.47003 0.0
H1042 H 0.20611 0.80975 0.62021 0.0
H1043 H 0.2027 0.82217 0.65479 0.0
H1044 H 0.22091 0.82514 0.65122 0.0
H1045 H 0.19018 0.81826 0.45 0.0
H1046 H 0.19875 0.83662 0.42646 0.0
H1047 H 0.1845 0.83052 0.47244 0.0
C1048 C 0.21303 0.36479 0.59493 0.0
C1049 C 0.2258 0.37361 0.56819 0.0
C1050 C 0.20128 0.36728 0.59361 0.0
C1051 C 0.20217 0.37872 0.56384 0.0
C1052 C 0.21542 0.38831 0.53942 0.0
C1053 C 0.22717 0.38568 0.54214 0.0
C1054 C 0.18751 0.35693 0.62109 0.0
C1055 C 0.21684 0.40064 0.50742 0.0
C1056 C 0.16498 0.36731 0.51127 0.0
C1057 C 0.15972 0.37361 0.54531 0.0
C1058 C 0.17928 0.36998 0.51424 0.0
C1059 C 0.18854 0.37902 0.55278 0.0
C1060 C 0.18364 0.38631 0.58493 0.0
C1061 C 0.16927 0.38358 0.58062 0.0
C1062 C 0.18407 0.36217 0.4785 0.0
C1063 C 0.19316 0.39607 0.62634 0.0
H1064 H 0.21203 0.35551 0.6154 0.0
H1065 H 0.23703 0.39247 0.52122 0.0
H1066 H 0.18335 0.36302 0.64261 0.0
H1067 H 0.17901 0.34998 0.59366 0.0
H1068 H 0.18917 0.34977 0.64727 0.0
H1069 H 0.22837 0.40861 0.49896 0.0
H1070 H 0.21104 0.39623 0.47152 0.0
H1071 H 0.21179 0.40636 0.52604 0.0
H1072 H 0.15769 0.35975 0.48345 0.0
H1073 H 0.16524 0.38847 0.60706 0.0
H1074 H 0.18488 0.3535 0.49889 0.0
H1075 H 0.19496 0.36977 0.46303 0.0
H1076 H 0.17634 0.35709 0.44693 0.0
H1077 H 0.19356 0.3893 0.65723 0.0
H1078 H 0.18895 0.40299 0.6416 0.0
H1079 H 0.20444 0.40315 0.61297 0.0
C1080 C 0.03337 0.27807 0.0642 0.0
C1081 C 0.0445 0.27638 0.04299 0.0
C1082 C 0.01912 0.27043 0.04553 0.0
C1083 C 0.01597 0.26115 0.00364 0.0
C1084 C 0.02713 0.25922 0.98254 0.0
C1085 C 0.04124 0.26671 0.00292 0.0
C1086 C 1.00751 0.27256 0.06998 0.0
C1087 C 0.02431 0.2497 0.9372 0.0
C1088 C 0.97607 0.23441 0.97567 0.0
C1089 C 0.97267 0.2424 0.94205 0.0
C1090 C 0.99018 0.24024 -0.00449 0.0
C1091 C 1.00121 0.25425 0.98036 0.0
C1092 C 0.99792 0.26209 0.94487 0.0
C1093 C 0.98367 0.25616 0.9267 0.0
C1094 C 0.99314 0.23167 0.03406 0.0
C1095 C 0.0094 0.27691 0.92682 0.0
H1096 H 0.03583 0.28545 0.09544 0.0
H1097 H 0.04984 0.26545 0.98621 0.0
H1098 H 1.00381 0.27811 0.0436 0.0
H1099 H 0.99793 0.26189 0.07931 0.0
H1100 H 0.01143 0.27916 0.10472 0.0
H1101 H 0.03395 0.24882 0.92656 0.0
H1102 H 0.01506 0.23864 0.9443 0.0
H1103 H 0.02126 0.25422 0.90501 0.0
H1104 H 0.96758 0.2238 0.98787 0.0
H1105 H 0.98112 0.26234 0.90039 0.0
H1106 H 0.99617 0.23764 0.07013 0.0
H1107 H 1.00245 0.2304 0.02225 0.0
H1108 H 0.98358 0.22071 0.0404 0.0
H1109 H 0.01302 0.28476 0.95829 0.0
H1110 H 1.00539 0.28106 0.89621 0.0
H1111 H 0.01906 0.2765 0.9132 0.0
C1112 C 0.78112 0.74617 0.98125 0.0
C1113 C 0.77384 0.73581 0.94369 0.0
C1114 C 0.77501 0.75407 0.00226 0.0
C1115 C 0.76143 0.75174 0.98455 0.0
C1116 C 0.75431 0.74165 0.94539 0.0
C1117 C 0.76051 0.73371 0.92586 0.0
C1118 C 0.78283 0.76452 0.04453 0.0
C1119 C 0.73995 0.73898 0.92477 0.0
C1120 C 0.73601 0.75809 0.06719 0.0
C1121 C 0.73805 0.77137 0.04919 0.0
C1122 C 0.74403 0.75194 0.04801 0.0
C1123 C 0.75413 0.75907 0.0089 0.0
C1124 C 0.75648 0.77267 0.99128 0.0
C1125 C 0.74853 0.77875 0.01207 0.0
C1126 C 0.74137 0.73759 0.06868 0.0
C1127 C 0.76695 0.78049 0.94906 0.0
H1128 H 0.7914 0.74781 -0.00469 0.0
H1129 H 0.75489 0.72582 0.89651 0.0
H1130 H 0.78441 0.7754 0.03552 0.0
H1131 H 0.77612 0.76071 0.07899 0.0
H1132 H 0.79358 0.7656 0.05249 0.0
H1133 H 0.73636 0.73161 0.89185 0.0
H1134 H 0.73146 0.73408 0.95414 0.0
H1135 H 0.74074 0.74942 0.91363 0.0
H1136 H 0.72801 0.75239 0.09618 0.0
H1137 H 0.75007 0.78898 -0.00219 0.0
H1138 H 0.75181 0.73836 0.07959 0.0
H1139 H 0.73638 0.72908 0.03942 0.0
H1140 H 0.73406 0.73405 0.10176 0.0
H1141 H 0.77779 0.78193 0.95782 0.0
H1142 H 0.76815 0.79132 0.94147 0.0
H1143 H 0.76305 0.77386 0.91445 0.0
C1144 C 0.25943 0.98128 0.06061 0.0
C1145 C 0.24561 0.97006 0.04656 0.0
C1146 C 0.26511 0.9954 0.04158 0.0
C1147 C 0.25687 0.99844 0.00708 0.0
C1148 C 0.24276 0.98726 -0.00647 0.0
C1149 C 0.23725 0.9732 0.01365 0.0
C1150 C 0.28015 0.00698 0.05742 0.0
C1151 C 0.23368 0.99002 0.95655 0.0
C1152 C 0.27022 0.03864 0.98352 0.0
C1153 C 0.27934 0.04142 0.9421 0.0
C1154 C 0.26243 0.02459 0.00432 0.0
C1155 C 0.2636 0.01304 0.98257 0.0
C1156 C 0.27229 0.01572 0.93935 0.0
C1157 C 0.28013 0.02986 0.92 0.0
C1158 C 0.25344 0.02223 0.05076 0.0
C1159 C 0.27373 1.00374 0.91447 0.0
H1160 H 0.26592 0.97901 0.08638 0.0
H1161 H 0.22657 0.9646 0.00264 0.0
H1162 H 0.28757 0.01044 0.02472 0.0
H1163 H 0.27992 0.0167 0.07136 0.0
H1164 H 0.28473 1.00313 0.08716 0.0
H1165 H 0.2226 0.98048 0.95229 0.0
H1166 H 0.23272 0.9995 0.96851 0.0
H1167 H 0.23908 0.99269 0.91943 0.0
H1168 H 0.2696 0.04755 0.00082 0.0
H1169 H 0.28704 0.0319 0.88763 0.0
H1170 H 0.25833 0.01949 0.08263 0.0
H1171 H 0.24229 0.01294 0.0454 0.0
H1172 H 0.25273 0.032 0.06088 0.0
H1173 H 0.27942 0.99998 0.93997 0.0
H1174 H 0.2799 0.00733 0.87879 0.0
H1175 H 0.26284 0.99428 0.90669 0.0
C1176 C 0.98415 0.73066 0.93536 0.0
C1177 C 0.97361 0.73487 0.93983 0.0
C1178 C 0.99836 0.73951 0.95314 0.0
C1179 C 1.00222 0.75296 0.97621 0.0
C1180 C 0.99177 0.75751 0.97951 0.0
C1181 C 0.97759 0.74842 0.96123 0.0
C1182 C 1.00912 0.7342 0.94865 0.0
C1183 C 0.99544 0.77175 0.0039 0.0
C1184 C 0.03327 0.76461 0.06851 0.0
C1185 C 0.04525 0.77456 0.04031 0.0
C1186 C 0.0191 0.75828 0.04926 0.0
C1187 C 0.01687 0.76161 -0.00013 0.0
C1188 C 0.02891 0.77207 0.97183 0.0
C1189 C 0.04297 0.77859 0.9927 0.0
C1190 C 1.0066 0.74745 0.08098 0.0
C1191 C 0.02708 0.77571 0.91873 0.0
H1192 H 0.98123 0.72025 0.91873 0.0
H1193 H 0.96952 0.75177 0.96483 0.0
H1194 H 0.01924 0.74259 0.93043 0.0
H1195 H 0.01208 0.73224 0.98649 0.0
H1196 H 1.00472 0.72398 0.92676 0.0
H1197 H 0.98648 0.77421 0.00043 0.0
H1198 H 0.99774 0.77138 0.04421 0.0
H1199 H 1.00539 0.78076 0.9869 0.0
H1200 H 0.03502 0.76154 0.10544 0.0
H1201 H 0.05226 0.78616 0.97063 0.0
H1202 H 1.00222 0.7364 0.06507 0.0
H1203 H 0.99765 0.74998 0.08091 0.0
H1204 H 0.00991 0.74731 0.12032 0.0
H1205 H 0.02402 0.76615 0.89441 0.0
H1206 H 0.03718 0.78505 0.90374 0.0
H1207 H 0.01817 0.77827 0.91644 0.0
C1208 C 0.2722 0.23505 0.98664 0.0
C1209 C 0.28195 0.24212 0.94727 0.0
C1210 C 0.26411 0.24095 0.00776 0.0
C1211 C 0.26562 0.25407 0.98841 0.0
C1212 C 0.27495 0.26083 0.94712 0.0
C1213 C 0.28306 0.25486 0.92743 0.0
C1214 C 0.25442 0.2335 0.0521 0.0
C1215 C 0.27677 0.2747 0.92472 0.0
C1216 C 0.23878 0.2671 0.0171 0.0
C1217 C 0.24665 0.27823 0.05177 0.0
C1218 C 0.24455 0.25874 -0.00264 0.0
C1219 C 0.25842 0.26144 0.01326 0.0
C1220 C 0.26606 0.27221 0.05005 0.0
C1221 C 0.26015 0.28052 0.0685 0.0
C1222 C 0.23613 0.2475 0.95782 0.0
C1223 C 0.28078 0.27536 0.06859 0.0
H1224 H 0.27135 0.22524 0.00228 0.0
H1225 H 0.29048 0.26032 0.89669 0.0
H1226 H 0.25883 0.24052 0.08567 0.0
H1227 H 0.24338 0.2318 0.04541 0.0
H1228 H 0.25355 0.22284 0.06029 0.0
H1229 H 0.28352 0.27795 0.89026 0.0
H1230 H 0.26601 0.27342 0.91549 0.0
H1231 H 0.28201 0.28365 0.95238 0.0
H1232 H 0.22836 0.2653 0.00388 0.0
H1233 H 0.26625 0.28902 0.09561 0.0
H1234 H 0.23526 0.23696 0.96777 0.0
H1235 H 0.24199 0.251 0.9216 0.0
H1236 H 0.22502 0.24582 0.95259 0.0
H1237 H 0.28037 0.26516 0.08056 0.0
H1238 H 0.2847 0.28311 0.10046 0.0
H1239 H 0.28882 0.28005 0.03778 0.0
C1240 C 0.77955 0.03926 0.96871 0.0
C1241 C 0.77174 0.04278 0.93463 0.0
C1242 C 0.77359 0.02508 0.98809 0.0
C1243 C 0.75963 0.01411 0.97227 0.0
C1244 C 0.75204 0.01749 0.93603 0.0
C1245 C 0.75811 0.03178 0.91809 0.0
C1246 C 0.78195 0.02201 0.0272 0.0
C1247 C 0.73724 1.00612 0.91744 0.0
C1248 C 0.74613 0.97394 -0.00272 0.0
C1249 C 0.73654 0.97111 0.03736 0.0
C1250 C 0.75395 0.98794 0.97617 0.0
C1251 C 0.75237 0.99943 -0.00372 0.0
C1252 C 0.74311 0.9967 0.03794 0.0
C1253 C 0.73522 0.98258 0.05757 0.0
C1254 C 0.76352 0.99034 0.93131 0.0
C1255 C 0.74126 0.00863 0.06117 0.0
H1256 H 0.79005 0.04773 0.98186 0.0
H1257 H 0.75206 0.0344 0.89147 0.0
H1258 H 0.77603 0.01942 0.06334 0.0
H1259 H 0.78282 0.0124 0.01638 0.0
H1260 H 0.79306 0.03138 0.03296 0.0
H1261 H 0.73335 0.01015 0.88605 0.0
H1262 H 0.73752 0.99632 0.90475 0.0
H1263 H 0.72925 1.00273 0.94841 0.0
H1264 H 0.74715 0.96511 0.98137 0.0
H1265 H 0.72794 0.9805 0.08883 0.0
H1266 H 0.77466 0.99945 0.93843 0.0
H1267 H 0.75921 0.9934 0.89851 0.0
H1268 H 0.76415 0.9805 0.92162 0.0
H1269 H 0.75202 0.01805 0.07081 0.0
H1270 H 0.73448 1.00497 0.09553 0.0
H1271 H 0.73606 0.01249 0.03388 0.0
C1272 C 0.65127 0.59073 0.26271 0.0
C1273 C 0.64018 0.57753 0.28184 0.0
C1274 C 0.66553 0.59707 0.28108 0.0
C1275 C 0.66879 0.59023 0.32045 0.0
C1276 C 0.65766 0.57683 0.33974 0.0
C1277 C 0.64351 0.57054 0.3198 0.0
C1278 C 0.67709 0.61122 0.25871 0.0
C1279 C 0.66061 0.56933 0.38236 0.0
C1280 C 0.70887 0.60278 0.34222 0.0
C1281 C 0.71264 0.61374 0.37801 0.0
C1282 C 0.69456 0.59479 0.32381 0.0
C1283 C 0.6837 0.59756 0.34268 0.0
C1284 C 0.68737 0.60817 0.38056 0.0
C1285 C 0.70181 0.61626 0.39718 0.0
C1286 C 0.6912 0.58383 0.28264 0.0
C1287 C 0.6761 0.61125 0.40264 0.0
H1288 H 0.6488 0.59612 0.23304 0.0
H1289 H 0.63498 0.56036 0.33484 0.0
H1290 H 0.68108 0.61993 0.28738 0.0
H1291 H 0.68651 0.6102 0.24646 0.0
H1292 H 0.67301 0.61465 0.22616 0.0
H1293 H 0.6509 0.55879 0.39227 0.0
H1294 H 0.66962 0.56737 0.37245 0.0
H1295 H 0.66409 0.57645 0.41589 0.0
H1296 H 0.71723 0.60087 0.32711 0.0
H1297 H 0.70466 0.62463 0.42521 0.0
H1298 H 0.68803 0.58741 0.24824 0.0
H1299 H 0.68187 0.57315 0.29338 0.0
H1300 H 0.70063 0.58241 0.27377 0.0
H1301 H 0.67234 0.61611 0.37369 0.0
H1302 H 0.68039 0.61883 0.43493 0.0
H1303 H 0.66649 0.601 0.41517 0.0
C1304 C 0.42773 0.06812 0.25324 0.0
C1305 C 0.44048 0.06916 0.27259 0.0
C1306 C 0.42185 0.07625 0.27346 0.0
C1307 C 0.42875 0.08556 0.31468 0.0
C1308 C 0.44194 0.08707 0.33334 0.0
C1309 C 0.44772 0.07891 0.3118 0.0
C1310 C 0.40788 0.0744 0.25188 0.0
C1311 C 0.44956 0.09676 0.37751 0.0
C1312 C 0.41518 0.11186 0.34488 0.0
C1313 C 0.40405 0.1037 0.37917 0.0
C1314 C 0.4238 0.1064 0.32497 0.0
C1315 C 0.42137 0.0926 0.34046 0.0
C1316 C 0.4107 0.08475 0.3773 0.0
C1317 C 0.4021 0.09032 0.39577 0.0
C1318 C 0.43493 0.11504 0.28538 0.0
C1319 C 0.40786 0.07011 0.39554 0.0
H1320 H 0.42214 0.0607 0.22263 0.0
H1321 H 0.45755 0.07973 0.32704 0.0
H1322 H 0.39903 0.06904 0.27981 0.0
H1323 H 0.40906 0.08515 0.24323 0.0
H1324 H 0.40456 0.06773 0.21722 0.0
H1325 H 0.46035 0.09781 0.38462 0.0
H1326 H 0.45104 0.10774 0.37142 0.0
H1327 H 0.44277 0.09222 0.41152 0.0
H1328 H 0.4167 0.12218 0.33177 0.0
H1329 H 0.3936 0.08403 0.42265 0.0
H1330 H 0.43132 0.10935 0.24888 0.0
H1331 H 0.4455 0.11586 0.29449 0.0
H1332 H 0.43657 0.12616 0.28115 0.0
H1333 H 0.40308 0.06205 0.36481 0.0
H1334 H 0.40028 0.06611 0.42788 0.0
H1335 H 0.41819 0.07067 0.40669 0.0
C1336 C 0.9044 0.30554 0.33046 0.0
C1337 C 0.91038 0.30278 0.37297 0.0
C1338 C 0.91068 0.31961 0.30994 0.0
C1339 C 0.92297 0.33125 0.33334 0.0
C1340 C 0.9286 0.32857 0.37759 0.0
C1341 C 0.92238 0.31436 0.39639 0.0
C1342 C 0.90455 0.32192 0.26212 0.0
C1343 C 0.94148 0.34067 0.40442 0.0
C1344 C 0.95095 0.36387 0.25965 0.0
C1345 C 0.94769 0.3747 0.27301 0.0
C1346 C 0.9426 0.34958 0.27731 0.0
C1347 C 0.93074 0.34598 0.30974 0.0
C1348 C 0.92708 0.35674 0.32214 0.0
C1349 C 0.93555 0.37097 0.30337 0.0
C1350 C 0.94681 0.33846 0.26257 0.0
C1351 C 0.9146 0.35337 0.35692 0.0
H1352 H 0.89517 0.29659 0.31212 0.0
H1353 H 0.92694 0.3123 0.42958 0.0
H1354 H 0.90219 0.33091 0.26674 0.0
H1355 H 0.9127 0.32511 0.23174 0.0
H1356 H 0.89444 0.312 0.25026 0.0
H1357 H 0.94372 0.33705 0.44066 0.0
H1358 H 0.9513 0.3448 0.38053 0.0
H1359 H 0.93959 0.34987 0.41157 0.0
H1360 H 0.96024 0.36662 0.23589 0.0
H1361 H 0.93299 0.37928 0.31395 0.0
H1362 H 0.93724 0.32855 0.24767 0.0
H1363 H 0.95067 0.33518 0.296 0.0
H1364 H 0.95555 0.34267 0.2339 0.0
H1365 H 0.90456 0.34364 0.34372 0.0
H1366 H 0.91249 0.36258 0.36008 0.0
H1367 H 0.91704 0.35084 0.39475 0.0
C1368 C 0.69742 0.09115 0.3883 0.0
C1369 C 0.70904 0.10449 0.37234 0.0
C1370 C 0.68347 0.08556 0.3678 0.0
C1371 C 0.68102 0.09342 0.32993 0.0
C1372 C 0.69261 0.1071 0.31455 0.0
C1373 C 0.70648 0.11251 0.3361 0.0
C1374 C 0.67145 0.07098 0.38562 0.0
C1375 C 0.69048 0.11577 0.2741 0.0
C1376 C 0.64982 0.06896 0.24409 0.0
C1377 C 0.63827 0.07017 0.26407 0.0
C1378 C 0.66396 0.07713 0.26328 0.0
C1379 C 0.66663 0.08665 0.30406 0.0
C1380 C 0.65514 0.08846 0.32286 0.0
C1381 C 0.64109 0.08026 0.30237 0.0
C1382 C 0.67586 0.07496 0.24159 0.0
C1383 C 0.65751 0.09842 0.36649 0.0
H1384 H 0.69925 0.08492 0.41655 0.0
H1385 H 0.7154 0.12283 0.32355 0.0
H1386 H 0.66185 0.0718 0.39704 0.0
H1387 H 0.66797 0.06299 0.35459 0.0
H1388 H 0.67486 0.06673 0.41769 0.0
H1389 H 0.70022 0.12668 0.26905 0.0
H1390 H 0.68808 0.10981 0.23808 0.0
H1391 H 0.68103 0.11713 0.28304 0.0
H1392 H 0.64774 0.06126 0.2142 0.0
H1393 H 0.63219 0.08118 0.31815 0.0
H1394 H 0.67916 0.06941 0.26944 0.0
H1395 H 0.68559 0.08559 0.23302 0.0
H1396 H 0.67237 0.06832 0.20688 0.0
H1397 H 0.65952 0.09383 0.40086 0.0
H1398 H 0.64799 0.09987 0.37313 0.0
H1399 H 0.66723 0.10923 0.36011 0.0
C1400 C 0.92386 0.61023 0.39801 0.0
C1401 C 0.91089 0.60889 0.37948 0.0
C1402 C 0.92984 0.60222 0.37749 0.0
C1403 C 0.92281 0.59271 0.33684 0.0
C1404 C 0.90947 0.59096 0.31886 0.0
C1405 C 0.90361 0.59901 0.34062 0.0
C1406 C 0.944 0.60435 0.39825 0.0
C1407 C 0.90169 0.58103 0.27535 0.0
C1408 C 0.94834 0.58722 0.25171 0.0
C1409 C 0.94633 0.57377 0.26781 0.0
C1410 C 0.94033 0.59318 0.27249 0.0
C1411 C 0.93013 0.58561 0.3109 0.0
C1412 C 0.92778 0.57185 0.32658 0.0
C1413 C 0.93585 0.56604 0.30463 0.0
C1414 C 0.94314 0.60781 0.25427 0.0
C1415 C 0.9171 0.5635 0.36771 0.0
H1416 H 0.9295 0.61775 0.42833 0.0
H1417 H 0.8936 0.59794 0.32603 0.0
H1418 H 0.94297 0.5937 0.40755 0.0
H1419 H 0.95266 0.60956 0.36957 0.0
H1420 H 0.9475 0.61125 0.43235 0.0
H1421 H 0.89092 0.58002 0.26819 0.0
H1422 H 0.90841 0.5853 0.24106 0.0
H1423 H 0.90014 0.57006 0.28235 0.0
H1424 H 0.95632 0.59322 0.22298 0.0
H1425 H 0.93424 0.55566 0.31733 0.0
H1426 H 0.9479 0.61589 0.28496 0.0
H1427 H 0.93278 0.6072 0.24322 0.0
H1428 H 0.95068 0.61183 0.22184 0.0
H1429 H 0.92084 0.56965 0.40332 0.0
H1430 H 0.91583 0.55257 0.37343 0.0
H1431 H 0.90632 0.56223 0.35898 0.0
C1432 C 0.45078 0.37199 0.31311 0.0
C1433 C 0.44368 0.37474 0.274 0.0
C1434 C 0.44491 0.35797 0.33377 0.0
C1435 C 0.43181 0.34641 0.31419 0.0
C1436 C 0.42511 0.34902 0.27278 0.0
C1437 C 0.43104 0.36315 0.25356 0.0
C1438 C 0.4523 0.35569 0.37826 0.0
C1439 C 0.41127 0.33701 0.25013 0.0
C1440 C 0.41864 0.3067 0.34571 0.0
C1441 C 0.4076 0.30373 0.38044 0.0
C1442 C 0.42694 0.32066 0.32472 0.0
C1443 C 0.42429 0.33194 0.33952 0.0
C1444 C 0.41357 0.3291 0.37622 0.0
C1445 C 0.40529 0.31503 0.39583 0.0
C1446 C 0.43811 0.32318 0.28521 0.0
C1447 C 0.4105 0.34082 0.39366 0.0
H1448 H 0.4605 0.38093 0.32924 0.0
H1449 H 0.42556 0.36519 0.22306 0.0
H1450 H 0.44533 0.35333 0.41187 0.0
H1451 H 0.45378 0.34619 0.37204 0.0
H1452 H 0.46305 0.36537 0.38612 0.0
H1453 H 0.40824 0.34048 0.21511 0.0
H1454 H 0.41245 0.32742 0.2418 0.0
H1455 H 0.40223 0.33351 0.27728 0.0
H1456 H 0.42043 0.29799 0.33351 0.0
H1457 H 0.39686 0.31283 0.42297 0.0
H1458 H 0.44872 0.33279 0.29487 0.0
H1459 H 0.43465 0.3255 0.24883 0.0
H1460 H 0.43964 0.31364 0.28048 0.0
H1461 H 0.42071 0.35058 0.40558 0.0
H1462 H 0.40267 0.33717 0.42529 0.0
H1463 H 0.40594 0.34412 0.36229 0.0
C1464 C 0.3178 0.91995 0.60307 0.0
C1465 C 0.30665 0.90596 0.61558 0.0
C1466 C 0.33193 0.9255 0.62196 0.0
C1467 C 0.335 0.91696 0.655 0.0
C1468 C 0.32388 0.90266 0.66687 0.0
C1469 C 0.30985 0.89728 0.64666 0.0
C1470 C 0.34346 0.94071 0.60766 0.0
C1471 C 0.32665 0.89329 0.70244 0.0
C1472 C 0.37533 0.93078 0.67663 0.0
C1473 C 0.37814 0.93994 0.71798 0.0
C1474 C 0.36119 0.92268 0.6568 0.0
C1475 C 0.34958 0.92353 0.67959 0.0
C1476 C 0.35227 0.93201 0.72341 0.0
C1477 C 0.36652 0.94023 0.74162 0.0
C1478 C 0.35886 0.91398 0.60962 0.0
C1479 C 0.34021 0.93302 0.7496 0.0
H1480 H 0.31546 0.92668 0.57873 0.0
H1481 H 0.30127 0.88647 0.65662 0.0
H1482 H 0.34677 0.94783 0.64115 0.0
H1483 H 0.35327 0.9407 0.59345 0.0
H1484 H 0.33963 0.94549 0.57857 0.0
H1485 H 0.31722 0.88209 0.7051 0.0
H1486 H 0.33632 0.89267 0.69036 0.0
H1487 H 0.32902 0.89824 0.7403 0.0
H1488 H 0.38431 0.93063 0.65797 0.0
H1489 H 0.36863 0.94724 0.77379 0.0
H1490 H 0.35641 0.91925 0.57818 0.0
H1491 H 0.34941 0.90288 0.61384 0.0
H1492 H 0.36856 0.91315 0.59955 0.0
H1493 H 0.33651 0.9391 0.72574 0.0
H1494 H 0.34374 0.93865 0.78627 0.0
H1495 H 0.33074 0.92203 0.75576 0.0
C1496 C 0.07238 0.42623 0.73429 0.0
C1497 C 0.07347 0.43888 0.71379 0.0
C1498 C 0.08007 0.4199 0.71374 0.0
C1499 C 0.08882 0.42615 0.67077 0.0
C1500 C 0.09022 0.43913 0.65053 0.0
C1501 C 0.08266 0.44544 0.67267 0.0
C1502 C 0.07847 0.40624 0.73719 0.0
C1503 C 0.0992 0.44598 0.60423 0.0
C1504 C 0.1153 0.41303 0.63773 0.0
C1505 C 0.10696 0.4016 0.60464 0.0
C1506 C 0.10973 0.42142 0.65859 0.0
C1507 C 0.09558 0.41846 0.64536 0.0
C1508 C 0.08741 0.40734 0.61022 0.0
C1509 C 0.09313 0.39898 0.59068 0.0
C1510 C 0.11871 0.43303 0.6964 0.0
C1511 C 0.07239 0.40395 0.5944 0.0
H1512 H 0.06538 0.42118 0.76632 0.0
H1513 H 0.08346 0.45517 0.6565 0.0
H1514 H 0.07274 0.397 0.71092 0.0
H1515 H 0.08931 0.40752 0.74466 0.0
H1516 H 0.07227 0.40346 0.77284 0.0
H1517 H 0.09993 0.45652 0.59494 0.0
H1518 H 0.11035 0.44778 0.60924 0.0
H1519 H 0.09431 0.43852 0.57196 0.0
H1520 H 0.12597 0.41507 0.64882 0.0
H1521 H 0.08667 0.39024 0.56482 0.0
H1522 H 0.11329 0.42998 0.73347 0.0
H1523 H 0.11957 0.44351 0.68559 0.0
H1524 H 0.12983 0.43465 0.70029 0.0
H1525 H 0.06487 0.39963 0.62677 0.0
H1526 H 0.06796 0.39583 0.56368 0.0
H1527 H 0.07258 0.414 0.5818 0.0
C1528 C 0.58984 0.64195 0.6736 0.0
C1529 C 0.57816 0.63603 0.70709 0.0
C1530 C 0.59575 0.65626 0.65612 0.0
C1531 C 0.59021 0.66508 0.67412 0.0
C1532 C 0.57832 0.6591 0.70788 0.0
C1533 C 0.57225 0.64453 0.72327 0.0
C1534 C 0.60809 0.66199 0.6189 0.0
C1535 C 0.57238 0.66825 0.72909 0.0
C1536 C 0.61788 0.70537 0.66679 0.0
C1537 C 0.61339 0.70955 0.62381 0.0
C1538 C 0.60991 0.69113 0.68531 0.0
C1539 C 0.5974 0.6807 0.65919 0.0
C1540 C 0.59262 0.68504 0.61637 0.0
C1541 C 0.60063 0.69949 0.5994 0.0
C1542 C 0.61525 0.6871 0.73163 0.0
C1543 C 0.57955 0.67423 0.58681 0.0
H1544 H 0.59431 0.63531 0.66072 0.0
H1545 H 0.56326 0.63996 0.74948 0.0
H1546 H 0.60561 0.66684 0.58627 0.0
H1547 H 0.61815 0.67069 0.63649 0.0
H1548 H 0.61024 0.65337 0.60524 0.0
H1549 H 0.5628 0.66187 0.75356 0.0
H1550 H 0.58095 0.67732 0.75127 0.0
H1551 H 0.56923 0.67316 0.69844 0.0
H1552 H 0.62783 0.7132 0.68533 0.0
H1553 H 0.59733 0.70274 0.56568 0.0
H1554 H 0.61946 0.67977 0.72133 0.0
H1555 H 0.60618 0.68114 0.75838 0.0
H1556 H 0.62406 0.69678 0.75077 0.0
H1557 H 0.58191 0.66616 0.56923 0.0
H1558 H 0.57657 0.67953 0.55692 0.0
H1559 H 0.57007 0.66816 0.61184 0.0
C1560 C 0.36689 0.42514 0.73739 0.0
C1561 C 0.37821 0.43851 0.72024 0.0
C1562 C 0.3528 0.41911 0.71774 0.0
C1563 C 0.34992 0.42652 0.67938 0.0
C1564 C 0.36117 0.44029 0.66311 0.0
C1565 C 0.37518 0.44618 0.68399 0.0
C1566 C 0.34113 0.4045 0.73672 0.0
C1567 C 0.35858 0.44848 0.62206 0.0
C1568 C 0.31884 0.40132 0.59402 0.0
C1569 C 0.30724 0.40265 0.61284 0.0
C1570 C 0.33291 0.40956 0.61377 0.0
C1571 C 0.33545 0.41922 0.65402 0.0
C1572 C 0.32386 0.42091 0.67233 0.0
C1573 C 0.30991 0.41268 0.65124 0.0
C1574 C 0.34496 0.40753 0.59263 0.0
C1575 C 0.32606 0.43094 0.71558 0.0
H1576 H 0.36911 0.41919 0.76569 0.0
H1577 H 0.38389 0.45648 0.67042 0.0
H1578 H 0.33133 0.40501 0.74766 0.0
H1579 H 0.33787 0.3963 0.70647 0.0
H1580 H 0.34481 0.40071 0.76939 0.0
H1581 H 0.36805 0.45953 0.61643 0.0
H1582 H 0.35634 0.44237 0.58641 0.0
H1583 H 0.34889 0.44946 0.63071 0.0
H1584 H 0.31689 0.39368 0.56406 0.0
H1585 H 0.30098 0.41373 0.66608 0.0
H1586 H 0.34858 0.40245 0.62124 0.0
H1587 H 0.35447 0.4182 0.58287 0.0
H1588 H 0.3415 0.40054 0.55873 0.0
H1589 H 0.32864 0.4268 0.7499 0.0
H1590 H 0.31628 0.43189 0.72294 0.0
H1591 H 0.33541 0.44193 0.70816 0.0
C1592 C 0.61677 0.92152 0.59318 0.0
C1593 C 0.61344 0.90728 0.60419 0.0
C1594 C 0.60823 0.92716 0.61174 0.0
C1595 C 0.59616 0.91845 0.64286 0.0
C1596 C 0.59251 0.90393 0.65309 0.0
C1597 C 0.60113 0.89847 0.63329 0.0
C1598 C 0.61242 0.94264 0.59929 0.0
C1599 C 0.57987 0.89435 0.68664 0.0
C1600 C 0.58745 0.94064 0.73309 0.0
C1601 C 0.57575 0.94079 0.70939 0.0
C1602 C 0.59363 0.93274 0.71324 0.0
C1603 C 0.58822 0.92504 0.66778 0.0
C1604 C 0.57606 0.92472 0.64455 0.0
C1605 C 0.56985 0.93249 0.66598 0.0
C1606 C 0.60637 0.93317 0.73988 0.0
C1607 C 0.57011 0.91684 0.59569 0.0
H1608 H 0.62619 0.92836 0.57039 0.0
H1609 H 0.59851 0.88747 0.64207 0.0
H1610 H 0.6029 0.94309 0.58453 0.0
H1611 H 0.61606 0.94936 0.63374 0.0
H1612 H 0.62132 0.94755 0.57125 0.0
H1613 H 0.5778 0.88303 0.68806 0.0
H1614 H 0.5821 0.89885 0.72518 0.0
H1615 H 0.56987 0.89416 0.6736 0.0
H1616 H 0.59198 0.94697 0.76687 0.0
H1617 H 0.56089 0.93269 0.64732 0.0
H1618 H 0.61633 0.93929 0.71695 0.0
H1619 H 0.60454 0.92201 0.74481 0.0
H1620 H 0.60834 0.93843 0.77719 0.0
H1621 H 0.57826 0.92235 0.56565 0.0
H1622 H 0.55988 0.91654 0.58468 0.0
H1623 H 0.56804 0.90554 0.59824 0.0
C1624 C 0.08154 0.63975 0.66501 0.0
C1625 C 0.07058 0.63679 0.7001 0.0
C1626 C 0.08996 0.65377 0.64456 0.0
C1627 C 0.08755 0.66513 0.66037 0.0
C1628 C 0.07698 0.66231 0.69764 0.0
C1629 C 0.06854 0.64817 0.71659 0.0
C1630 C 0.10094 0.65625 0.60437 0.0
C1631 C 0.07421 0.67412 0.71631 0.0
C1632 C 0.11449 0.70511 0.63423 0.0
C1633 C 0.10737 0.70812 0.59588 0.0
C1634 C 0.10845 0.69103 0.65463 0.0
C1635 C 0.09515 0.67968 0.63548 0.0
C1636 C 0.08839 0.68254 0.59483 0.0
C1637 C 0.09449 0.69673 0.57595 0.0
C1638 C 0.11589 0.6885 0.69839 0.0
C1639 C 0.07436 0.67075 0.57258 0.0
H1640 H 0.0831 0.63097 0.6519 0.0
H1641 H 0.06017 0.64598 0.74399 0.0
H1642 H 0.09738 0.65869 0.5684 0.0
H1643 H 0.11163 0.66578 0.61377 0.0
H1644 H 0.10233 0.64665 0.59895 0.0
H1645 H 0.06657 0.67049 0.74849 0.0
H1646 H 0.08456 0.68379 0.7279 0.0
H1647 H 0.06955 0.67758 0.6857 0.0
H1648 H 0.12439 0.71389 0.65002 0.0
H1649 H 0.08899 0.69898 0.54607 0.0
H1650 H 0.11717 0.67891 0.69144 0.0
H1651 H 0.10907 0.68616 0.73237 0.0
H1652 H 0.12675 0.69806 0.70607 0.0
H1653 H 0.0753 0.66106 0.56346 0.0
H1654 H 0.07127 0.67439 0.53809 0.0
H1655 H 0.06546 0.66732 0.60028 0.0
C1656 C 0.09148 0.34127 0.71777 0.0
C1657 C 0.10548 0.3519 0.70338 0.0
C1658 C 0.08832 0.33692 0.76787 0.0
C1659 C 0.09962 0.34292 0.80375 0.0
C1660 C 0.11369 0.35403 0.78954 0.0
C1661 C 0.11639 0.35858 0.73945 0.0
C1662 C 0.07305 0.3255 0.78195 0.0
C1663 C 0.1261 0.36048 0.8265 0.0
C1664 C 0.09281 0.33868 0.94358 0.0
C1665 C 0.09471 0.32682 0.95399 0.0
C1666 C 0.09364 0.34361 0.89438 0.0
C1667 C 0.09705 0.33687 0.85519 0.0
C1668 C 0.0987 0.32468 0.86552 0.0
C1669 C 0.09724 0.31963 0.91487 0.0
C1670 C 0.09121 0.35623 0.88453 0.0
C1671 C 0.10266 0.3174 0.82487 0.0
H1672 H 0.08306 0.33619 0.68957 0.0
H1673 H 0.12725 0.36669 0.72791 0.0
H1674 H 0.07274 0.31513 0.79041 0.0
H1675 H 0.06951 0.32879 0.81615 0.0
H1676 H 0.06517 0.32351 0.75143 0.0
H1677 H 0.13621 0.36943 0.80994 0.0
H1678 H 0.12316 0.36471 0.85973 0.0
H1679 H 0.12834 0.35189 0.83979 0.0
H1680 H 0.09075 0.34414 0.97408 0.0
H1681 H 0.09882 0.31053 0.92324 0.0
H1682 H 0.08339 0.3536 0.85335 0.0
H1683 H 0.10157 0.36588 0.87306 0.0
H1684 H 0.08702 0.35914 0.91807 0.0
H1685 H 0.09446 0.31357 0.79449 0.0
H1686 H 0.10344 0.30799 0.8391 0.0
H1687 H 0.11326 0.32535 0.80815 0.0
C1688 C 0.67736 0.77642 0.9332 0.0
C1689 C 0.68817 0.77419 0.95425 0.0
C1690 C 0.67341 0.77319 0.88298 0.0
C1691 C 0.68024 0.7673 0.85333 0.0
C1692 C 0.69108 0.76488 0.87441 0.0
C1693 C 0.69508 0.76855 0.9247 0.0
C1694 C 0.66209 0.77631 0.86149 0.0
C1695 C 0.69839 0.75838 0.84392 0.0
C1696 C 0.65992 0.74984 0.73339 0.0
C1697 C 0.66763 0.76103 0.69894 0.0
C1698 C 0.66438 0.75138 0.78356 0.0
C1699 C 0.67655 0.76458 0.79951 0.0
C1700 C 0.68443 0.77583 0.76466 0.0
C1701 C 0.67996 0.77385 0.7147 0.0
C1702 C 0.65593 0.73906 0.81967 0.0
C1703 C 0.6972 0.79021 0.78047 0.0
H1704 H 0.67209 0.78089 0.95597 0.0
H1705 H 0.70333 0.76669 0.9412 0.0
H1706 H 0.66681 0.7841 0.82998 0.0
H1707 H 0.65283 0.7662 0.84637 0.0
H1708 H 0.65786 0.78094 0.88975 0.0
H1709 H 0.70607 0.75652 0.86658 0.0
H1710 H 0.69008 0.74788 0.82754 0.0
H1711 H 0.70444 0.76569 0.81234 0.0
H1712 H 0.65047 0.73987 0.72106 0.0
H1713 H 0.68589 0.78257 0.68817 0.0
H1714 H 0.65021 0.74225 0.84714 0.0
H1715 H 0.66342 0.73663 0.84102 0.0
H1716 H 0.64776 0.72901 0.80032 0.0
H1717 H 0.69349 0.79571 0.8071 0.0
H1718 H 0.70254 0.79758 0.74822 0.0
H1719 H 0.7054 0.78848 0.80017 0.0
C1720 C 0.2465 0.90329 0.95609 0.0
C1721 C 0.2462 0.91587 0.97 0.0
C1722 C 0.24904 0.90096 0.9065 0.0
C1723 C 0.25157 0.91158 0.86996 0.0
C1724 C 0.25186 0.92458 0.88397 0.0
C1725 C 0.24901 0.92652 0.93385 0.0
C1726 C 0.24832 0.88682 0.89285 0.0
C1727 C 0.25477 0.93625 0.84601 0.0
C1728 C 0.26631 0.90834 0.7439 0.0
C1729 C 0.25365 0.90212 0.71484 0.0
C1730 C 0.26589 0.91169 0.79453 0.0
C1731 C 0.25245 0.9084 0.81644 0.0
C1732 C 0.23959 0.9017 0.78747 0.0
C1733 C 0.24038 0.8988 0.73691 0.0
C1734 C 0.27983 0.91902 0.82424 0.0
C1735 C 0.22497 0.89763 0.8098 0.0
H1736 H 0.24426 0.89496 0.98373 0.0
H1737 H 0.24893 0.93632 0.94448 0.0
H1738 H 0.2389 0.88044 0.86779 0.0
H1739 H 0.25822 0.88892 0.87211 0.0
H1740 H 0.24718 0.8801 0.92625 0.0
H1741 H 0.25612 0.94631 0.86378 0.0
H1742 H 0.26471 0.939 0.82425 0.0
H1743 H 0.24561 0.9322 0.81911 0.0
H1744 H 0.27659 0.91102 0.72663 0.0
H1745 H 0.23056 0.89386 0.7145 0.0
H1746 H 0.27897 0.91237 0.85742 0.0
H1747 H 0.28175 0.92967 0.83825 0.0
H1748 H 0.28937 0.92082 0.80169 0.0
H1749 H 0.22273 0.89036 0.84245 0.0
H1750 H 0.21597 0.89207 0.78244 0.0
H1751 H 0.22503 0.90751 0.82348 0.0
C1752 C 0.32706 0.08333 0.04976 0.0
C1753 C 0.33527 0.09373 0.01335 0.0
C1754 C 0.33212 0.08479 0.09912 0.0
C1755 C 0.34556 0.09707 0.11245 0.0
C1756 C 0.35418 0.10723 0.0754 0.0
C1757 C 0.34898 0.10539 0.02625 0.0
C1758 C 0.32276 0.07357 0.13752 0.0
C1759 C 0.36846 0.12059 0.08825 0.0
C1760 C 0.3471 0.11044 0.24445 0.0
C1761 C 0.35572 0.10577 0.26865 0.0
C1762 C 0.34409 0.108 0.19335 0.0
C1763 C 0.34956 0.10037 0.16599 0.0
C1764 C 0.35855 0.09586 0.18998 0.0
C1765 C 0.3617 0.09879 0.24122 0.0
C1766 C 0.33482 0.11337 0.16891 0.0
C1767 C 0.36438 0.08751 0.16206 0.0
H1768 H 0.31656 0.07418 0.03993 0.0
H1769 H 0.35543 0.11348 -0.00162 0.0
H1770 H 0.32939 0.07028 0.16021 0.0
H1771 H 0.31809 0.07831 0.16348 0.0
H1772 H 0.31369 0.06374 0.12 0.0
H1773 H 0.37462 0.12649 0.05432 0.0
H1774 H 0.36636 0.12807 0.11107 0.0
H1775 H 0.37534 0.11764 0.11096 0.0
H1776 H 0.34261 0.11596 0.26576 0.0
H1777 H 0.36828 0.09511 0.26025 0.0
H1778 H 0.32451 0.104 0.15547 0.0
H1779 H 0.3405 0.12017 0.13587 0.0
H1780 H 0.33215 0.11986 0.19493 0.0
H1781 H 0.35521 0.07684 0.15023 0.0
H1782 H 0.37195 0.08561 0.18526 0.0
H1783 H 0.37012 0.09341 0.12761 0.0
C1784 C 0.91221 0.25935 0.25951 0.0
C1785 C 0.91047 0.24917 0.29619 0.0
C1786 C 0.91544 0.25769 0.20983 0.0
C1787 C 0.91668 0.24544 0.19662 0.0
C1788 C 0.91541 0.23542 0.23378 0.0
C1789 C 0.91242 0.23746 0.2831 0.0
C1790 C 0.91701 0.26874 0.17116 0.0
C1791 C 0.9164 0.22208 0.22104 0.0
C1792 C 0.90536 0.23101 0.06534 0.0
C1793 C 0.91876 0.23547 0.04223 0.0
C1794 C 0.90459 0.23409 0.11571 0.0
C1795 C 0.91758 0.24213 0.14331 0.0
C1796 C 0.93118 0.24657 0.12034 0.0
C1797 C 0.9316 0.24301 0.06996 0.0
C1798 C 0.88985 0.2288 0.13926 0.0
C1799 C 0.94523 0.25535 0.14858 0.0
H1800 H 0.91089 0.26852 0.26946 0.0
H1801 H 0.91109 0.22951 0.31112 0.0
H1802 H 0.92697 0.2722 0.14854 0.0
H1803 H 0.90762 0.26377 0.14515 0.0
H1804 H 0.91751 0.27849 0.18841 0.0
H1805 H 0.91636 0.21601 0.25492 0.0
H1806 H 0.90703 0.21471 0.19718 0.0
H1807 H 0.92641 0.22512 0.19937 0.0
H1808 H 0.89542 0.22509 0.04385 0.0
H1809 H 0.94197 0.24659 0.05177 0.0
H1810 H 0.88886 0.23818 0.15221 0.0
H1811 H 0.88859 0.22202 0.17255 0.0
H1812 H 0.88081 0.22228 0.11289 0.0
H1813 H 0.94617 0.26573 0.16123 0.0
H1814 H 0.95488 0.25782 0.12542 0.0
H1815 H 0.94533 0.2494 0.18256 0.0
C1816 C 0.77955 0.66798 0.24833 0.0
C1817 C 0.76622 0.66007 0.27302 0.0
C1818 C 0.78015 0.67183 0.19802 0.0
C1819 C 0.76709 0.668 0.17219 0.0
C1820 C 0.75355 0.65985 0.19678 0.0
C1821 C 0.75326 0.6558 0.24701 0.0
C1822 C 0.79478 0.68012 0.17269 0.0
C1823 C 0.73945 0.65582 0.17055 0.0
C1824 C 0.77356 0.69141 0.05744 0.0
C1825 C 0.77412 0.68253 0.01972 0.0
C1826 C 0.77033 0.68646 0.10706 0.0
C1827 C 0.76783 0.67241 0.11915 0.0
C1828 C 0.76778 0.6632 0.08094 0.0
C1829 C 0.77084 0.66834 0.03173 0.0
C1830 C 0.7702 0.69647 0.14688 0.0
C1831 C 0.76536 0.64822 0.09239 0.0
H1832 H 0.78955 0.67119 0.26859 0.0
H1833 H 0.74298 0.64982 0.2665 0.0
H1834 H 0.79499 0.67424 0.13867 0.0
H1835 H 0.79673 0.69093 0.16058 0.0
H1836 H 0.80383 0.68172 0.19762 0.0
H1837 H 0.72983 0.64909 0.19449 0.0
H1838 H 0.73932 0.66583 0.15965 0.0
H1839 H 0.73847 0.64974 0.13566 0.0
H1840 H 0.77589 0.70232 0.04843 0.0
H1841 H 0.77116 0.66132 0.00295 0.0
H1842 H 0.77979 0.7001 0.17159 0.0
H1843 H 0.76037 0.69065 0.17064 0.0
H1844 H 0.77048 0.70622 0.13061 0.0
H1845 H 0.77465 0.64921 0.11448 0.0
H1846 H 0.76428 0.64192 0.0579 0.0
H1847 H 0.75544 0.64199 0.11537 0.0
C1848 C 0.91114 0.68004 0.07833 0.0
C1849 C 0.92415 0.68686 0.05134 0.0
C1850 C 0.91098 0.67651 0.12879 0.0
C1851 C 0.92412 0.67949 0.15234 0.0
C1852 C 0.93737 0.68662 0.12539 0.0
C1853 C 0.93725 0.69041 0.07505 0.0
C1854 C 0.89668 0.66934 0.15659 0.0
C1855 C 0.95153 0.68972 0.1491 0.0
C1856 C 0.92192 0.67959 0.29324 0.0
C1857 C 0.91732 0.66502 0.30475 0.0
C1858 C 0.92504 0.6847 0.24398 0.0
C1859 C 0.92373 0.67507 0.20524 0.0
C1860 C 0.92008 0.66063 0.21689 0.0
C1861 C 0.91678 0.65572 0.26655 0.0
C1862 C 0.9287 0.70012 0.23308 0.0
C1863 C 0.9189 0.65015 0.17655 0.0
H1864 H 0.90104 0.67734 0.05963 0.0
H1865 H 0.94725 0.69551 0.05363 0.0
H1866 H 0.89393 0.65823 0.16826 0.0
H1867 H 0.89755 0.67555 0.19103 0.0
H1868 H 0.88762 0.66853 0.13347 0.0
H1869 H 0.96096 0.6961 0.12406 0.0
H1870 H 0.95331 0.69576 0.18467 0.0
H1871 H 0.95106 0.67932 0.15837 0.0
H1872 H 0.92246 0.68693 0.3224 0.0
H1873 H 0.91343 0.64451 0.27515 0.0
H1874 H 0.91944 0.69998 0.21342 0.0
H1875 H 0.93828 0.70556 0.20807 0.0
H1876 H 0.93098 0.70668 0.26773 0.0
H1877 H 0.90909 0.64706 0.15354 0.0
H1878 H 0.91809 0.6401 0.19237 0.0
H1879 H 0.92844 0.65535 0.15126 0.0
C1880 C 0.32751 0.24761 0.06709 0.0
C1881 C 0.33623 0.24566 0.0322 0.0
C1882 C 0.33169 0.25041 0.11759 0.0
C1883 C 0.34463 0.25085 0.13335 0.0
C1884 C 0.3536 0.24921 0.09801 0.0
C1885 C 0.34936 0.24679 0.04787 0.0
C1886 C 0.32206 0.25247 0.15426 0.0
C1887 C 0.3673 0.24924 0.11349 0.0
C1888 C 0.36225 0.26484 0.26004 0.0
C1889 C 0.35653 0.25187 0.28723 0.0
C1890 C 0.35796 0.26481 0.2103 0.0
C1891 C 0.34813 0.25144 0.18724 0.0
C1892 C 0.34246 0.23833 0.2146 0.0
C1893 C 0.34659 0.23874 0.2645 0.0
C1894 C 0.36394 0.27902 0.18245 0.0
C1895 C 0.33232 0.2238 0.19084 0.0
H1896 H 0.31743 0.24688 0.055 0.0
H1897 H 0.35612 0.24519 0.02117 0.0
H1898 H 0.31678 0.24296 0.17965 0.0
H1899 H 0.32864 0.2622 0.17783 0.0
H1900 H 0.31345 0.2537 0.13515 0.0
H1901 H 0.37343 0.24856 0.08091 0.0
H1902 H 0.37454 0.25923 0.13487 0.0
H1903 H 0.36448 0.23985 0.13845 0.0
H1904 H 0.36979 0.27502 0.27801 0.0
H1905 H 0.34223 0.2287 0.28561 0.0
H1906 H 0.3549 0.28014 0.16654 0.0
H1907 H 0.37074 0.27921 0.15067 0.0
H1908 H 0.37064 0.28852 0.20687 0.0
H1909 H 0.32251 0.22371 0.17625 0.0
H1910 H 0.32884 0.21464 0.21754 0.0
H1911 H 0.33778 0.22194 0.15861 0.0
C1912 C 0.76607 0.07912 0.0694 0.0
C1913 C 0.77355 0.09243 0.04428 0.0
C1914 C 0.76219 0.07862 0.12 0.0
C1915 C 0.76629 0.09176 0.14582 0.0
C1916 C 0.77428 0.10522 0.12075 0.0
C1917 C 0.77764 0.10537 0.07015 0.0
C1918 C 0.75342 0.06408 0.14539 0.0
C1919 C 0.77927 0.11951 0.14728 0.0
C1920 C 0.74882 0.09622 0.26284 0.0
C1921 C 0.75903 0.09787 0.29927 0.0
C1922 C 0.75038 0.09297 0.21305 0.0
C1923 C 0.76262 0.09176 0.19939 0.0
C1924 C 0.77254 0.09273 0.23648 0.0
C1925 C 0.77055 0.09563 0.286 0.0
C1926 C 0.73936 0.09162 0.17462 0.0
C1927 C 0.7859 0.09183 0.22336 0.0
H1928 H 0.76281 0.06913 0.04904 0.0
H1929 H 0.78353 0.11566 0.05062 0.0
H1930 H 0.75906 0.06358 0.1796 0.0
H1931 H 0.74279 0.06267 0.15734 0.0
H1932 H 0.75144 0.0549 0.12048 0.0
H1933 H 0.78593 0.12901 0.1228 0.0
H1934 H 0.76972 0.12019 0.16041 0.0
H1935 H 0.78579 0.12027 0.18075 0.0
H1936 H 0.73979 0.09773 0.273 0.0
H1937 H 0.77851 0.09689 0.31388 0.0
H1938 H 0.73628 0.08209 0.15008 0.0
H1939 H 0.74418 0.10142 0.15046 0.0
H1940 H 0.72939 0.09051 0.19227 0.0
H1941 H 0.78302 0.08227 0.19929 0.0
H1942 H 0.79161 0.09112 0.25715 0.0
H1943 H 0.79356 0.10165 0.20188 0.0
C1944 C 0.65536 0.91019 0.73458 0.0
C1945 C 0.66091 0.90257 0.70865 0.0
C1946 C 0.65907 0.91413 0.78494 0.0
C1947 C 0.6682 0.90996 0.80981 0.0
C1948 C 0.67337 0.9018 0.78407 0.0
C1949 C 0.66981 0.89838 0.73362 0.0
C1950 C 0.65358 0.92304 0.81107 0.0
C1951 C 0.68275 0.89675 0.80968 0.0
C1952 C 0.69049 0.92822 0.92574 0.0
C1953 C 0.68199 0.91835 0.96308 0.0
C1954 C 0.68567 0.92615 0.87586 0.0
C1955 C 0.67223 0.91378 0.8631 0.0
C1956 C 0.6634 0.9041 0.90092 0.0
C1957 C 0.66833 0.90657 0.95044 0.0
C1958 C 0.69522 0.93688 0.83653 0.0
C1959 C 0.64915 0.89062 0.88876 0.0
H1960 H 0.6486 0.91356 0.71497 0.0
H1961 H 0.67401 0.89239 0.71353 0.0
H1962 H 0.64754 0.91742 0.84545 0.0
H1963 H 0.66292 0.93361 0.82282 0.0
H1964 H 0.64635 0.92514 0.78675 0.0
H1965 H 0.68537 0.88999 0.78479 0.0
H1966 H 0.69308 0.90627 0.82218 0.0
H1967 H 0.67716 0.89031 0.84348 0.0
H1968 H 0.70097 0.93742 0.93532 0.0
H1969 H 0.66168 0.89884 0.97895 0.0
H1970 H 0.68874 0.94003 0.81242 0.0
H1971 H 0.69983 0.93176 0.81207 0.0
H1972 H 0.70433 0.94684 0.85327 0.0
H1973 H 0.64224 0.89339 0.86544 0.0
H1974 H 0.64298 0.88491 0.92294 0.0
H1975 H 0.65126 0.88301 0.86677 0.0
C1976 C 0.11282 0.75619 0.7387 0.0
C1977 C 0.1022 0.75259 0.70191 0.0
C1978 C 0.10985 0.75753 0.78896 0.0
C1979 C 0.09578 0.75472 0.80259 0.0
C1980 C 0.08471 0.74993 0.76597 0.0
C1981 C 0.08814 0.7492 0.71579 0.0
C1982 C 0.12202 0.76294 0.82675 0.0
C1983 C 0.06945 0.74627 0.77931 0.0
C1984 C 0.08843 0.75194 0.94221 0.0
C1985 C 0.09076 0.76585 0.95293 0.0
C1986 C 0.08927 0.74786 0.89294 0.0
C1987 C 0.0931 0.75816 0.85399 0.0
C1988 C 0.0951 0.77212 0.86457 0.0
C1989 C 0.09366 0.77571 0.91392 0.0
C1990 C 0.08646 0.7327 0.8828 0.0
C1991 C 0.09948 0.78351 0.82421 0.0
H1992 H 0.12373 0.75895 0.72768 0.0
H1993 H 0.07993 0.74635 0.68712 0.0
H1994 H 0.12458 0.77384 0.84034 0.0
H1995 H 0.11867 0.75562 0.85968 0.0
H1996 H 0.13206 0.76377 0.81077 0.0
H1997 H 0.06168 0.74051 0.74839 0.0
H1998 H 0.06568 0.73939 0.81337 0.0
H1999 H 0.06927 0.75641 0.7876 0.0
H2000 H 0.08609 0.74429 0.97251 0.0
H2001 H 0.0956 0.78652 0.9224 0.0
H2002 H 0.09676 0.73312 0.87229 0.0
H2003 H 0.07884 0.7278 0.85091 0.0
H2004 H 0.08186 0.7255 0.91594 0.0
H2005 H 0.11007 0.78594 0.80795 0.0
H2006 H 0.10047 0.79377 0.83857 0.0
H2007 H 0.09139 0.77939 0.79345 0.0
C2008 C 0.25451 0.32269 0.92355 0.0
C2009 C 0.24807 0.32917 0.95117 0.0
C2010 C 0.25815 0.32634 0.87297 0.0
C2011 C 0.25476 0.33627 0.84968 0.0
C2012 C 0.24809 0.34266 0.87757 0.0
C2013 C 0.24501 0.33917 0.92811 0.0
C2014 C 0.26561 0.31964 0.84452 0.0
C2015 C 0.24385 0.35293 0.85381 0.0
C2016 C 0.26986 0.35647 0.72801 0.0
C2017 C 0.25845 0.34801 0.69513 0.0
C2018 C 0.26942 0.35213 0.77793 0.0
C2019 C 0.25708 0.33931 0.79535 0.0
C2020 C 0.24581 0.33048 0.76175 0.0
C2021 C 0.24672 0.33486 0.71196 0.0
C2022 C 0.28182 0.36158 0.81253 0.0
C2023 C 0.23227 0.31695 0.77909 0.0
H2024 H 0.25699 0.31506 0.94176 0.0
H2025 H 0.23991 0.34408 0.94954 0.0
H2026 H 0.25854 0.31278 0.81365 0.0
H2027 H 0.27576 0.3283 0.82726 0.0
H2028 H 0.26831 0.31285 0.86889 0.0
H2029 H 0.23861 0.35682 0.88084 0.0
H2030 H 0.25359 0.3625 0.83811 0.0
H2031 H 0.23621 0.34742 0.8224 0.0
H2032 H 0.27904 0.36654 0.71489 0.0
H2033 H 0.23783 0.32828 0.68675 0.0
H2034 H 0.28484 0.35483 0.83572 0.0
H2035 H 0.27842 0.3675 0.83837 0.0
H2036 H 0.29156 0.36969 0.79163 0.0
H2037 H 0.23513 0.30981 0.80053 0.0
H2038 H 0.22513 0.31064 0.7474 0.0
H2039 H 0.226 0.32006 0.80448 0.0
C2040 C 1.00863 0.42206 0.62154 0.0
C2041 C 0.02112 0.43545 0.631 0.0
C2042 C 1.00356 0.41778 0.57255 0.0
C2043 C 0.01088 0.42738 0.53248 0.0
C2044 C 0.02371 0.44079 0.54181 0.0
C2045 C 0.02881 0.44456 0.59102 0.0
C2046 C 0.9902 0.40316 0.56384 0.0
C2047 C 0.03166 0.45145 0.50012 0.0
C2048 C 1.00596 0.41644 0.39597 0.0
C2049 C 0.99629 0.42097 0.38026 0.0
C2050 C 0.01005 0.41751 0.44635 0.0
C2051 C 1.00479 0.42384 0.4811 0.0
C2052 C 0.99455 0.42789 0.4656 0.0
C2053 C 0.99023 0.42618 0.4153 0.0
C2054 C 0.0205 0.41251 0.46184 0.0
C2055 C 0.98893 0.43497 0.50131 0.0
H2056 H 1.00277 0.41496 0.65258 0.0
H2057 H 0.03842 0.45496 0.59851 0.0
H2058 H 0.98108 0.40466 0.55151 0.0
H2059 H 0.99224 0.39723 0.53363 0.0
H2060 H 0.9868 0.39633 0.59813 0.0
H2061 H 0.04154 0.46134 0.51361 0.0
H2062 H 0.03491 0.44626 0.47076 0.0
H2063 H 0.02434 0.45478 0.48231 0.0
H2064 H 0.0106 0.41239 0.36854 0.0
H2065 H 0.98288 0.42983 0.40271 0.0
H2066 H 0.01678 0.40606 0.49687 0.0
H2067 H 0.03133 0.42208 0.46936 0.0
H2068 H 0.02174 0.40582 0.43239 0.0
H2069 H 0.98431 0.42818 0.53523 0.0
H2070 H 0.98046 0.43678 0.484 0.0
H2071 H 0.99805 0.44561 0.51365 0.0
C2072 C 0.57195 0.57526 0.36865 0.0
C2073 C 0.58452 0.57477 0.35587 0.0
C2074 C 0.56937 0.57779 0.41792 0.0
C2075 C 0.57971 0.58009 0.4553 0.0
C2076 C 0.59272 0.58024 0.44244 0.0
C2077 C 0.59491 0.57743 0.39282 0.0
C2078 C 0.55525 0.57728 0.43034 0.0
C2079 C 0.60408 0.5829 0.48138 0.0
C2080 C 0.57609 0.59454 0.58131 0.0
C2081 C 0.56961 0.58177 0.60981 0.0
C2082 C 0.57958 0.59424 0.53079 0.0
C2083 C 0.57617 0.58081 0.50847 0.0
C2084 C 0.56913 0.56784 0.53677 0.0
C2085 C 0.56606 0.56851 0.58723 0.0
C2086 C 0.58724 0.60828 0.50174 0.0
C2087 C 0.56498 0.55326 0.51395 0.0
H2088 H 0.56381 0.57316 0.3404 0.0
H2089 H 0.60471 0.57722 0.38308 0.0
H2090 H 0.54855 0.56776 0.45463 0.0
H2091 H 0.55735 0.58712 0.45147 0.0
H2092 H 0.54885 0.57643 0.39635 0.0
H2093 H 0.61421 0.58419 0.46447 0.0
H2094 H 0.60678 0.5928 0.50335 0.0
H2095 H 0.59975 0.57365 0.50794 0.0
H2096 H 0.57897 0.60482 0.59901 0.0
H2097 H 0.56094 0.55862 0.60926 0.0
H2098 H 0.58091 0.60759 0.46782 0.0
H2099 H 0.59798 0.61019 0.48895 0.0
H2100 H 0.58888 0.61776 0.52437 0.0
H2101 H 0.558 0.55129 0.48063 0.0
H2102 H 0.55907 0.54417 0.54072 0.0
H2103 H 0.57487 0.55318 0.50119 0.0
C2104 C 0.42497 0.98329 0.57101 0.0
C2105 C 0.42052 0.98977 0.60711 0.0
C2106 C 0.42618 0.98743 0.5206 0.0
C2107 C 0.42238 0.99794 0.50616 0.0
C2108 C 0.41668 1.00355 0.54203 0.0
C2109 C 0.41611 0.99962 0.5924 0.0
C2110 C 0.43257 0.98141 0.48365 0.0
C2111 C 0.41195 0.01431 0.52776 0.0
C2112 C 0.44295 0.0219 0.39598 0.0
C2113 C 0.43352 0.0145 0.35635 0.0
C2114 C 0.43934 0.0167 0.44514 0.0
C2115 C 0.42577 1.0041 0.45484 0.0
C2116 C 0.41586 0.9971 0.41521 0.0
C2117 C 0.41998 1.00223 0.36618 0.0
C2118 C 0.45032 0.0243 0.48629 0.0
C2119 C 0.40108 0.98402 0.4244 0.0
H2120 H 0.42853 0.97579 0.58271 0.0
H2121 H 0.41261 1.00456 0.62057 0.0
H2122 H 0.42553 0.97709 0.45013 0.0
H2123 H 0.44332 0.99026 0.47086 0.0
H2124 H 0.43403 0.97262 0.5001 0.0
H2125 H 0.40555 0.01568 0.55797 0.0
H2126 H 0.42165 0.02504 0.52013 0.0
H2127 H 0.40531 0.01079 0.49311 0.0
H2128 H 0.45346 0.03131 0.38819 0.0
H2129 H 0.41265 0.9966 0.33539 0.0
H2130 H 0.45337 0.01667 0.50333 0.0
H2131 H 0.44554 0.02779 0.51633 0.0
H2132 H 0.46035 0.03398 0.47249 0.0
H2133 H 0.40229 0.97463 0.43563 0.0
H2134 H 0.39406 0.98093 0.39063 0.0
H2135 H 0.39552 0.9862 0.45554 0.0
C2136 C 0.59708 1.00612 0.60951 0.0
C2137 C 0.58321 0.99446 0.62011 0.0
C2138 C 0.60117 0.011 0.56026 0.0
C2139 C 0.59091 1.00442 0.52129 0.0
C2140 C 0.57703 0.99234 0.53171 0.0
C2141 C 0.57343 0.98734 0.58107 0.0
C2142 C 0.61626 0.02349 0.55024 0.0
C2143 C 0.5657 0.98519 0.49124 0.0
C2144 C 0.59218 0.02612 0.40718 0.0
C2145 C 0.59586 0.0193 0.36989 0.0
C2146 C 0.59108 0.02176 0.45728 0.0
C2147 C 0.59422 0.01068 0.47016 0.0
C2148 C 0.59915 1.00467 0.43305 0.0
C2149 C 0.59964 0.00886 0.38306 0.0
C2150 C 0.58554 0.02825 0.49567 0.0
C2151 C 0.60317 0.99328 0.44566 0.0
H2152 H 0.60466 0.01152 0.6399 0.0
H2153 H 0.56268 0.97839 0.58952 0.0
H2154 H 0.62118 0.021 0.51783 0.0
H2155 H 0.6157 0.03335 0.54065 0.0
H2156 H 0.62352 0.02599 0.58318 0.0
H2157 H 0.55555 0.97574 0.50544 0.0
H2158 H 0.56301 0.9932 0.47526 0.0
H2159 H 0.56999 0.98145 0.46033 0.0
H2160 H 0.58914 0.03411 0.39672 0.0
H2161 H 0.60259 1.00368 0.35399 0.0
H2162 H 0.59294 0.0323 0.52837 0.0
H2163 H 0.57475 0.01974 0.50948 0.0
H2164 H 0.58442 0.03735 0.48016 0.0
H2165 H 0.61001 0.99637 0.47983 0.0
H2166 H 0.60912 0.9916 0.41454 0.0
H2167 H 0.59318 0.98279 0.4534 0.0
C2168 C 0.99421 0.58042 0.37301 0.0
C2169 C 1.00194 0.5771 0.33801 0.0
C2170 C 0.99922 0.58416 0.42236 0.0
C2171 C 0.01207 0.58424 0.43715 0.0
C2172 C 0.0202 0.58145 0.40148 0.0
C2173 C 0.0151 0.57804 0.35225 0.0
C2174 C 0.99043 0.58737 0.45924 0.0
C2175 C 0.03376 0.58111 0.416 0.0
C2176 C 0.02887 0.59878 0.56503 0.0
C2177 C 0.02207 0.58604 0.59361 0.0
C2178 C 0.02568 0.59847 0.51379 0.0
C2179 C 0.01579 0.58506 0.49097 0.0
C2180 C 0.00935 0.57214 0.51958 0.0
C2181 C 0.01245 0.57282 0.5706 0.0
C2182 C 0.03256 0.61247 0.48444 0.0
C2183 C 0.99905 0.55755 0.49645 0.0
H2184 H 0.98415 0.57992 0.362 0.0
H2185 H 0.02114 0.57548 0.32542 0.0
H2186 H 0.985 0.57823 0.48609 0.0
H2187 H 0.99761 0.59728 0.48115 0.0
H2188 H 0.98196 0.5889 0.44043 0.0
H2189 H 0.03966 0.58033 0.38288 0.0
H2190 H 0.04123 0.59096 0.43761 0.0
H2191 H 0.03078 0.57158 0.44045 0.0
H2192 H 0.03624 0.609 0.58306 0.0
H2193 H 1.00733 0.56294 0.59269 0.0
H2194 H 0.02398 0.6146 0.47036 0.0
H2195 H 0.03835 0.61157 0.45131 0.0
H2196 H 0.04035 0.62189 0.50733 0.0
H2197 H 0.98928 0.55756 0.48195 0.0
H2198 H 0.99549 0.54848 0.52358 0.0
H2199 H 1.00434 0.55544 0.46428 0.0
C2200 C 0.42203 0.41616 0.38602 0.0
C2201 C 0.43602 0.41886 0.37425 0.0
C2202 C 0.41817 0.41697 0.43555 0.0
C2203 C 0.42874 0.42111 0.4737 0.0
C2204 C 0.44268 0.42319 0.46226 0.0
C2205 C 0.44608 0.42181 0.41257 0.0
C2206 C 0.40302 0.41409 0.44658 0.0
C2207 C 0.45431 0.42782 0.50184 0.0
C2208 C 0.42713 0.44232 0.58516 0.0
C2209 C 0.42353 0.43217 0.62363 0.0
C2210 C 0.4285 0.43872 0.53573 0.0
C2211 C 0.42571 0.42451 0.52464 0.0
C2212 C 0.42102 0.41393 0.56296 0.0
C2213 C 0.42026 0.41798 0.6123 0.0
C2214 C 0.43377 0.45037 0.496 0.0
C2215 C 0.41736 0.39852 0.55225 0.0
H2216 H 0.41423 0.41377 0.35621 0.0
H2217 H 0.45693 0.42402 0.40325 0.0
H2218 H 0.39853 0.40708 0.48013 0.0
H2219 H 0.40337 0.4245 0.45472 0.0
H2220 H 0.39553 0.40879 0.41458 0.0
H2221 H 0.46432 0.42827 0.4873 0.0
H2222 H 0.45718 0.43875 0.51609 0.0
H2223 H 0.45025 0.42024 0.53405 0.0
H2224 H 0.42979 0.45332 0.59422 0.0
H2225 H 0.4174 0.41014 0.64228 0.0
H2226 H 0.4261 0.44671 0.46402 0.0
H2227 H 0.44443 0.45247 0.48142 0.0
H2228 H 0.43502 0.46074 0.51046 0.0
H2229 H 0.41022 0.39424 0.5189 0.0
H2230 H 0.41187 0.39118 0.58445 0.0
H2231 H 0.42746 0.39828 0.54388 0.0
C2232 C 0.08173 0.31185 0.25389 0.0
C2233 C 0.09185 0.31564 0.21518 0.0
C2234 C 0.08545 0.32001 0.29838 0.0
C2235 C 0.09976 0.33187 0.30468 0.0
C2236 C 0.11019 0.3352 0.26655 0.0
C2237 C 0.10601 0.32725 0.22184 0.0
C2238 C 0.07393 0.31635 0.3377 0.0
C2239 C 0.12571 0.34731 0.27255 0.0
C2240 C 0.10715 0.36224 0.39647 0.0
C2241 C 0.11122 0.3576 0.43934 0.0
C2242 C 0.10317 0.35386 0.35243 0.0
C2243 C 0.10385 0.34086 0.35097 0.0
C2244 C 0.10855 0.33649 0.39367 0.0
C2245 C 0.11187 0.34475 0.4376 0.0
C2246 C 0.09787 0.35868 0.30799 0.0
C2247 C 0.11003 0.32308 0.39308 0.0
H2248 H 0.07072 0.30301 0.24828 0.0
H2249 H 0.11383 0.33022 0.19185 0.0
H2250 H 0.07746 0.31409 0.374 0.0
H2251 H 0.07232 0.3258 0.34349 0.0
H2252 H 0.06335 0.30678 0.3272 0.0
H2253 H 0.13275 0.34763 0.24126 0.0
H2254 H 0.12608 0.35791 0.27417 0.0
H2255 H 0.13029 0.34601 0.30822 0.0
H2256 H 0.10648 0.37209 0.39804 0.0
H2257 H 0.11504 0.34113 0.47063 0.0
H2258 H 0.08675 0.35003 0.29771 0.0
H2259 H 0.10495 0.36045 0.27515 0.0
H2260 H 0.09768 0.36886 0.31553 0.0
H2261 H 0.09924 0.31328 0.3874 0.0
H2262 H 0.11475 0.32173 0.4284 0.0
H2263 H 0.11705 0.32362 0.36143 0.0
C2264 C 0.65249 0.76167 0.41094 0.0
C2265 C 0.65252 0.75068 0.43954 0.0
C2266 C 0.66096 0.76676 0.36733 0.0
C2267 C 0.6694 0.76049 0.35209 0.0
C2268 C 0.66905 0.74906 0.38039 0.0
C2269 C 0.66077 0.74445 0.42427 0.0
C2270 C 0.66122 0.77908 0.33839 0.0
C2271 C 0.67758 0.74184 0.36472 0.0
C2272 C 0.67993 0.76298 0.21593 0.0
C2273 C 0.6947 0.77362 0.21677 0.0
C2274 C 0.6716 0.75871 0.25962 0.0
C2275 C 0.67813 0.76539 0.30544 0.0
C2276 C 0.69304 0.77625 0.30674 0.0
C2277 C 0.70123 0.78017 0.26223 0.0
C2278 C 0.65585 0.7469 0.25675 0.0
C2279 C 0.70028 0.78369 0.35506 0.0
H2280 H 0.64639 0.76673 0.42396 0.0
H2281 H 0.66093 0.73613 0.4473 0.0
H2282 H 0.67248 0.7884 0.33683 0.0
H2283 H 0.65766 0.77567 0.29927 0.0
H2284 H 0.6541 0.78281 0.35538 0.0
H2285 H 0.67576 0.7328 0.39013 0.0
H2286 H 0.6745 0.73748 0.32618 0.0
H2287 H 0.68936 0.74992 0.3643 0.0
H2288 H 0.67483 0.75779 0.18089 0.0
H2289 H 0.71261 0.78846 0.26286 0.0
H2290 H 0.64876 0.75101 0.27093 0.0
H2291 H 0.65399 0.73763 0.28088 0.0
H2292 H 0.65243 0.74283 0.218 0.0
H2293 H 0.69432 0.78871 0.37215 0.0
H2294 H 0.71179 0.79224 0.34949 0.0
H2295 H 0.69991 0.7756 0.38214 0.0
C2296 C 0.22974 0.91655 0.25657 0.0
C2297 C 0.24057 0.92785 0.22838 0.0
C2298 C 0.23329 0.91182 0.30072 0.0
C2299 C 0.24796 0.9187 0.31683 0.0
C2300 C 0.25881 0.93048 0.28909 0.0
C2301 C 0.25498 0.93478 0.24478 0.0
C2302 C 0.22146 0.89914 0.3291 0.0
C2303 C 0.27451 0.93831 0.30548 0.0
C2304 C 0.25615 0.9158 0.45278 0.0
C2305 C 0.26089 0.90562 0.45085 0.0
C2306 C 0.25181 0.92003 0.40956 0.0
C2307 C 0.25203 0.91381 0.3631 0.0
C2308 C 0.25669 0.90342 0.36075 0.0
C2309 C 0.26119 0.89951 0.40477 0.0
C2310 C 0.24719 0.93132 0.41358 0.0
C2311 C 0.25693 0.89647 0.31177 0.0
H2312 H 0.21866 0.91097 0.24279 0.0
H2313 H 0.26334 0.94334 0.22208 0.0
H2314 H 0.22381 0.89007 0.32988 0.0
H2315 H 0.22116 0.90227 0.36848 0.0
H2316 H 0.21057 0.89516 0.31211 0.0
H2317 H 0.28146 0.9477 0.28096 0.0
H2318 H 0.27543 0.94229 0.34445 0.0
H2319 H 0.2788 0.9307 0.30503 0.0
H2320 H 0.25596 0.92063 0.48829 0.0
H2321 H 0.26476 0.89158 0.40323 0.0
H2322 H 0.23599 0.92689 0.39898 0.0
H2323 H 0.25441 0.94091 0.39036 0.0
H2324 H 0.24751 0.935 0.45272 0.0
H2325 H 0.24599 0.89121 0.29436 0.0
H2326 H 0.26033 0.88821 0.31651 0.0
H2327 H 0.26452 0.90491 0.28535 0.0
C2328 C 0.34105 0.09614 0.5322 0.0
C2329 C 0.35626 0.10422 0.53563 0.0
C2330 C 0.33229 0.09249 0.5749 0.0
C2331 C 0.33887 0.09702 0.62239 0.0
C2332 C 0.35422 0.10539 0.62621 0.0
C2333 C 0.36277 0.10889 0.58266 0.0
C2334 C 0.31598 0.0835 0.56924 0.0
C2335 C 0.3616 0.11043 0.67637 0.0
C2336 C 0.31624 0.09652 0.73346 0.0
C2337 C 0.31373 0.08384 0.75786 0.0
C2338 C 0.3242 0.10086 0.6886 0.0
C2339 C 0.3297 0.09226 0.66817 0.0
C2340 C 0.3266 0.0791 0.69189 0.0
C2341 C 0.31874 0.07512 0.73678 0.0
C2342 C 0.32728 0.11495 0.66439 0.0
C2343 C 0.3321 0.06953 0.67103 0.0
H2344 H 0.33591 0.09247 0.49598 0.0
H2345 H 0.3745 0.11518 0.58547 0.0
H2346 H 0.31192 0.07291 0.58845 0.0
H2347 H 0.31071 0.08908 0.58725 0.0
H2348 H 0.31255 0.08141 0.52941 0.0
H2349 H 0.37357 0.11741 0.67281 0.0
H2350 H 0.35727 0.11661 0.6964 0.0
H2351 H 0.35924 0.10089 0.69985 0.0
H2352 H 0.3126 0.10339 0.75069 0.0
H2353 H 0.31702 0.06548 0.7566 0.0
H2354 H 0.32405 0.11315 0.62441 0.0
H2355 H 0.33912 0.1228 0.66568 0.0
H2356 H 0.32149 0.1199 0.68328 0.0
H2357 H 0.32877 0.06682 0.63135 0.0
H2358 H 0.32801 0.05925 0.69242 0.0
H2359 H 0.34415 0.07543 0.67203 0.0
C2360 C 0.93342 0.24227 0.73391 0.0
C2361 C 0.92528 0.2393 0.77792 0.0
C2362 C 0.92926 0.2467 0.69036 0.0
C2363 C 0.91647 0.24777 0.69077 0.0
C2364 C 0.9081 0.24449 0.7349 0.0
C2365 C 0.91272 0.24051 0.77802 0.0
C2366 C 0.93857 0.25036 0.64405 0.0
C2367 C 0.89414 0.24501 0.73646 0.0
C2368 C 0.91044 0.26938 0.58931 0.0
C2369 C 0.90241 0.25845 0.55441 0.0
C2370 C 0.91514 0.2661 0.63415 0.0
C2371 C 0.91135 0.25153 0.6444 0.0
C2372 C 0.90258 0.24041 0.61026 0.0
C2373 C 0.89847 0.24407 0.56531 0.0
C2374 C 0.92469 0.27827 0.66937 0.0
C2375 C 0.89785 0.22467 0.6205 0.0
H2376 H 0.94321 0.2415 0.73391 0.0
H2377 H 0.90635 0.23823 0.81184 0.0
H2378 H 0.93229 0.24278 0.61334 0.0
H2379 H 0.94176 0.26149 0.63116 0.0
H2380 H 0.94856 0.24971 0.6506 0.0
H2381 H 0.88886 0.24204 0.77381 0.0
H2382 H 0.8963 0.25605 0.72674 0.0
H2383 H 0.88641 0.23742 0.70826 0.0
H2384 H 0.91375 0.28056 0.58023 0.0
H2385 H 0.8924 0.23564 0.53819 0.0
H2386 H 0.93548 0.27906 0.6722 0.0
H2387 H 0.91993 0.27599 0.70748 0.0
H2388 H 0.92626 0.28893 0.65677 0.0
H2389 H 0.90747 0.2232 0.62106 0.0
H2390 H 0.89012 0.21726 0.59187 0.0
H2391 H 0.89261 0.22141 0.6578 0.0
C2392 C 0.7869 0.68947 0.75153 0.0
C2393 C 0.7829 0.69993 0.76164 0.0
C2394 C 0.78316 0.6818 0.70637 0.0
C2395 C 0.77467 0.68424 0.67119 0.0
C2396 C 0.77085 0.69504 0.68061 0.0
C2397 C 0.77521 0.70295 0.72568 0.0
C2398 C 0.78792 0.67078 0.6971 0.0
C2399 C 0.76158 0.69774 0.64428 0.0
C2400 C 0.7737 0.67154 0.53813 0.0
C2401 C 0.76105 0.65786 0.53816 0.0
C2402 C 0.77825 0.68022 0.58111 0.0
C2403 C 0.76972 0.67528 0.62495 0.0
C2404 C 0.75686 0.66149 0.62529 0.0
C2405 C 0.75278 0.65283 0.58193 0.0
C2406 C 0.79228 0.6946 0.57972 0.0
C2407 C 0.74738 0.65598 0.67126 0.0
H2408 H 0.79271 0.68702 0.77941 0.0
H2409 H 0.77186 0.71083 0.73407 0.0
H2410 H 0.7783 0.65969 0.69657 0.0
H2411 H 0.79329 0.67267 0.66005 0.0
H2412 H 0.79556 0.67116 0.72625 0.0
H2413 H 0.76004 0.7069 0.65615 0.0
H2414 H 0.76655 0.70013 0.60648 0.0
H2415 H 0.75076 0.6878 0.64105 0.0
H2416 H 0.78018 0.67549 0.50445 0.0
H2417 H 0.74291 0.64233 0.58183 0.0
H2418 H 0.79986 0.69475 0.60858 0.0
H2419 H 0.79017 0.70357 0.58861 0.0
H2420 H 0.79772 0.69679 0.54267 0.0
H2421 H 0.75353 0.65471 0.70252 0.0
H2422 H 0.73739 0.64537 0.66467 0.0
H2423 H 0.74419 0.66399 0.68338 0.0
C2424 C 0.9182 0.65245 0.58014 0.0
C2425 C 0.90401 0.64546 0.56155 0.0
C2426 C 0.92166 0.66024 0.62511 0.0
C2427 C 0.91069 0.66134 0.6514 0.0
C2428 C 0.89621 0.65398 0.63324 0.0
C2429 C 0.89301 0.64604 0.58836 0.0
C2430 C 0.93717 0.66767 0.64358 0.0
C2431 C 0.88426 0.65502 0.66004 0.0
C2432 C 0.91876 0.67254 0.78741 0.0
C2433 C 0.92432 0.6876 0.78479 0.0
C2434 C 0.91394 0.66383 0.7445 0.0
C2435 C 0.91453 0.67029 0.6977 0.0
C2436 C 0.91977 0.68544 0.69485 0.0
C2437 C 0.9247 0.69396 0.7385 0.0
C2438 C 0.90866 0.64778 0.74908 0.0
C2439 C 0.92039 0.69266 0.64556 0.0
H2440 H 0.9267 0.65215 0.55858 0.0
H2441 H 0.88212 0.64092 0.57294 0.0
H2442 H 0.94177 0.67961 0.64325 0.0
H2443 H 0.93754 0.66444 0.68279 0.0
H2444 H 0.94419 0.66502 0.62025 0.0
H2445 H 0.87346 0.64807 0.6425 0.0
H2446 H 0.88372 0.65179 0.6998 0.0
H2447 H 0.88665 0.66645 0.65964 0.0
H2448 H 0.91843 0.66753 0.82308 0.0
H2449 H 0.92889 0.70557 0.73637 0.0
H2450 H 0.91598 0.64509 0.72784 0.0
H2451 H 0.89766 0.64135 0.73258 0.0
H2452 H 0.90826 0.64433 0.78858 0.0
H2453 H 0.9282 0.69182 0.62017 0.0
H2454 H 0.92378 0.70432 0.65014 0.0
H2455 H 0.9096 0.68704 0.62706 0.0
C2456 C 0.31908 0.22802 0.73589 0.0
C2457 C 0.32242 0.23878 0.7719 0.0
C2458 C 0.32733 0.23128 0.69166 0.0
C2459 C 0.33886 0.24566 0.68332 0.0
C2460 C 0.34183 0.25661 0.71907 0.0
C2461 C 0.33369 0.25297 0.76319 0.0
C2462 C 0.32401 0.21931 0.65455 0.0
C2463 C 0.35368 0.27216 0.71097 0.0
C2464 C 0.36943 0.25445 0.59079 0.0
C2465 C 0.36447 0.25855 0.5488 0.0
C2466 C 0.36096 0.24975 0.63464 0.0
C2467 C 0.34751 0.24955 0.63644 0.0
C2468 C 0.34268 0.25397 0.59423 0.0
C2469 C 0.35114 0.25824 0.55083 0.0
C2470 C 0.3663 0.24489 0.67883 0.0
C2471 C 0.32866 0.25437 0.59506 0.0
H2472 H 0.31053 0.21699 0.74334 0.0
H2473 H 0.33625 0.26125 0.79139 0.0
H2474 H 0.32141 0.22213 0.61748 0.0
H2475 H 0.33373 0.21811 0.64955 0.0
H2476 H 0.31476 0.20871 0.66666 0.0
H2477 H 0.35424 0.27943 0.74182 0.0
H2478 H 0.36436 0.27273 0.70797 0.0
H2479 H 0.35181 0.27633 0.6753 0.0
H2480 H 0.37964 0.25449 0.58883 0.0
H2481 H 0.34734 0.26146 0.51825 0.0
H2482 H 0.35797 0.23371 0.68991 0.0
H2483 H 0.36805 0.25206 0.71137 0.0
H2484 H 0.37663 0.24504 0.67064 0.0
H2485 H 0.3194 0.24342 0.60355 0.0
H2486 H 0.32648 0.25809 0.55892 0.0
H2487 H 0.32909 0.26178 0.62509 0.0
C2488 C 0.7783 0.0884 0.73049 0.0
C2489 C 0.77616 0.09283 0.77754 0.0
C2490 C 0.77446 0.09298 0.68652 0.0
C2491 C 0.76847 0.10226 0.68992 0.0
C2492 C 0.76679 0.10714 0.73727 0.0
C2493 C 0.77058 0.10233 0.7804 0.0
C2494 C 0.77639 0.08754 0.63654 0.0
C2495 C 0.76057 0.11713 0.74253 0.0
C2496 C 0.76765 0.12188 0.57205 0.0
C2497 C 0.75344 0.11276 0.55541 0.0
C2498 C 0.77264 0.11881 0.61652 0.0
C2499 C 0.76319 0.10623 0.64433 0.0
C2500 C 0.74864 0.09728 0.62829 0.0
C2501 C 0.74396 0.10065 0.5838 0.0
C2502 C 0.78817 0.12868 0.63262 0.0
C2503 C 0.73821 0.0838 0.65696 0.0
H2504 H 0.7826 0.08108 0.72808 0.0
H2505 H 0.76894 0.10587 0.81658 0.0
H2506 H 0.76563 0.08074 0.6187 0.0
H2507 H 0.78288 0.09683 0.61112 0.0
H2508 H 0.78186 0.08099 0.64004 0.0
H2509 H 0.76087 0.1207 0.7818 0.0
H2510 H 0.76667 0.12688 0.71867 0.0
H2511 H 0.74912 0.11148 0.72954 0.0
H2512 H 0.77503 0.13107 0.54922 0.0
H2513 H 0.73308 0.09344 0.56993 0.0
H2514 H 0.79426 0.12273 0.63045 0.0
H2515 H 0.78856 0.13207 0.67212 0.0
H2516 H 0.79378 0.13856 0.60887 0.0
H2517 H 0.74224 0.07597 0.65701 0.0
H2518 H 0.72711 0.07838 0.64064 0.0
H2519 H 0.73754 0.08658 0.69652 0.0
C2520 C 0.70152 0.93685 0.25239 0.0
C2521 C 0.70169 0.92645 0.22082 0.0
C2522 C 0.69349 0.93266 0.29708 0.0
C2523 C 0.68562 0.91776 0.31035 0.0
C2524 C 0.68641 0.90733 0.27957 0.0
C2525 C 0.69431 0.91181 0.23475 0.0
C2526 C 0.69285 0.94409 0.32877 0.0
C2527 C 0.67848 0.8914 0.29297 0.0
C2528 C 0.6738 0.90872 0.44556 0.0
C2529 C 0.65909 0.90483 0.44323 0.0
C2530 C 0.68246 0.91268 0.40253 0.0
C2531 C 0.67636 0.91305 0.35596 0.0
C2532 C 0.66148 0.90903 0.35312 0.0
C2533 C 0.65296 0.90484 0.39685 0.0
C2534 C 0.69818 0.9166 0.40702 0.0
C2535 C 0.65466 0.90943 0.30405 0.0
H2536 H 0.70699 0.94813 0.24073 0.0
H2537 H 0.69435 0.9038 0.2098 0.0
H2538 H 0.68155 0.94208 0.32951 0.0
H2539 H 0.69595 0.94347 0.36794 0.0
H2540 H 0.70011 0.95525 0.31444 0.0
H2541 H 0.68119 0.88489 0.26719 0.0
H2542 H 0.68118 0.88985 0.33177 0.0
H2543 H 0.66659 0.8871 0.29149 0.0
H2544 H 0.67864 0.90873 0.48121 0.0
H2545 H 0.64163 0.90191 0.39493 0.0
H2546 H 0.70536 0.92807 0.39567 0.0
H2547 H 0.70045 0.90975 0.38143 0.0
H2548 H 0.70109 0.91519 0.44573 0.0
H2549 H 0.66046 0.9206 0.28847 0.0
H2550 H 0.64297 0.906 0.30812 0.0
H2551 H 0.65571 0.90221 0.27646 0.0
C2552 C 0.11561 0.75525 0.39168 0.0
C2553 C 0.11178 0.75842 0.43822 0.0
C2554 C 0.11234 0.76007 0.34705 0.0
C2555 C 0.10513 0.76825 0.34924 0.0
C2556 C 0.10172 0.77189 0.39624 0.0
C2557 C 0.10504 0.7669 0.44003 0.0
C2558 C 0.11617 0.75602 0.29753 0.0
C2559 C 0.09409 0.78062 0.40029 0.0
C2560 C 0.10435 0.78889 0.23383 0.0
C2561 C 0.09074 0.77911 0.21383 0.0
C2562 C 0.10921 0.78556 0.27816 0.0
C2563 C 0.1002 0.77215 0.30259 0.0
C2564 C 0.08629 0.76242 0.28274 0.0
C2565 C 0.08178 0.76599 0.2383 0.0
C2566 C 0.1241 0.79619 0.29811 0.0
C2567 C 0.0763 0.74809 0.30783 0.0
H2568 H 0.12084 0.74874 0.39006 0.0
H2569 H 0.1021 0.76947 0.47583 0.0
H2570 H 0.10608 0.74867 0.27675 0.0
H2571 H 0.12246 0.76585 0.27418 0.0
H2572 H 0.12262 0.75048 0.30219 0.0
H2573 H 0.0931 0.78336 0.43967 0.0
H2574 H 0.10004 0.79085 0.37863 0.0
H2575 H 0.08303 0.77436 0.38402 0.0
H2576 H 0.11135 0.79889 0.21394 0.0
H2577 H 0.07136 0.75837 0.22193 0.0
H2578 H 0.13103 0.79112 0.29794 0.0
H2579 H 0.1233 0.79904 0.33748 0.0
H2580 H 0.12954 0.80634 0.27567 0.0
H2581 H 0.08152 0.7413 0.30887 0.0
H2582 H 0.0657 0.74194 0.28825 0.0
H2583 H 0.07425 0.74994 0.34712 0.0
C2584 C 0.23963 0.33421 0.21651 0.0
C2585 C 0.2402 0.32132 0.21574 0.0
C2586 C 0.24283 0.34258 0.26001 0.0
C2587 C 0.24714 0.33817 0.3035 0.0
C2588 C 0.24742 0.32496 0.3034 0.0
C2589 C 0.24373 0.31654 0.2595 0.0
C2590 C 0.24188 0.3563 0.25906 0.0
C2591 C 0.25215 0.32002 0.34903 0.0
C2592 C 0.27024 0.36712 0.39901 0.0
C2593 C 0.26016 0.36405 0.43727 0.0
C2594 C 0.26613 0.35883 0.35483 0.0
C2595 C 0.25154 0.34752 0.34879 0.0
C2596 C 0.24117 0.34503 0.38632 0.0
C2597 C 0.24568 0.35319 0.43048 0.0
C2598 C 0.27752 0.36169 0.31578 0.0
C2599 C 0.22542 0.33343 0.38062 0.0
H2600 H 0.2368 0.33788 0.18288 0.0
H2601 H 0.24431 0.30664 0.2587 0.0
H2602 H 0.235 0.35626 0.29036 0.0
H2603 H 0.25285 0.36589 0.26425 0.0
H2604 H 0.2373 0.35761 0.22334 0.0
H2605 H 0.25158 0.3094 0.34311 0.0
H2606 H 0.26349 0.32825 0.35883 0.0
H2607 H 0.24524 0.31906 0.38155 0.0
H2608 H 0.2815 0.37535 0.40493 0.0
H2609 H 0.23792 0.35081 0.46033 0.0
H2610 H 0.2741 0.36373 0.27888 0.0
H2611 H 0.27872 0.35195 0.3117 0.0
H2612 H 0.28826 0.37113 0.32551 0.0
H2613 H 0.22109 0.33468 0.34434 0.0
H2614 H 0.21854 0.33378 0.41126 0.0
H2615 H 0.22447 0.32255 0.3806 0.0
C2616 C 0.02337 0.44915 0.89877 0.0
C2617 C 0.03489 0.4465 0.89127 0.0
C2618 C 0.01584 0.44577 0.94425 0.0
C2619 C 0.01945 0.43889 0.98235 0.0
C2620 C 0.03126 0.4364 0.97536 0.0
C2621 C 0.03905 0.44051 0.93003 0.0
C2622 C 1.00375 0.4492 0.95087 0.0
C2623 C 0.03518 0.42872 0.01461 0.0
C2624 C 1.00603 0.43774 0.11483 0.0
C2625 C 0.99318 0.42425 0.11557 0.0
C2626 C 0.01457 0.44276 0.07149 0.0
C2627 C 0.01044 0.4338 0.02851 0.0
C2628 C 0.99747 0.42011 0.02917 0.0
C2629 C 0.98883 0.41561 0.07252 0.0
C2630 C 0.02794 0.45767 0.07164 0.0
C2631 C 0.99289 0.4101 0.98444 0.0
H2632 H 0.02008 0.45371 0.86879 0.0
H2633 H 0.04781 0.43825 0.92381 0.0
H2634 H 0.99313 0.43897 0.95182 0.0
H2635 H 1.00499 0.45487 0.98696 0.0
H2636 H 1.00349 0.4561 0.92011 0.0
H2637 H 0.04499 0.42812 0.00428 0.0
H2638 H 0.03715 0.43436 0.05113 0.0
H2639 H 0.02596 0.41752 0.01982 0.0
H2640 H 0.00935 0.44445 0.14813 0.0
H2641 H 0.97898 0.4051 0.07343 0.0
H2642 H 0.02732 0.4643 0.04067 0.0
H2643 H 0.03777 0.45676 0.06521 0.0
H2644 H 0.02929 0.46351 0.10748 0.0
H2645 H 0.99091 0.41534 0.95187 0.0
H2646 H 0.98287 0.39956 0.99177 0.0
H2647 H 1.00174 0.40794 0.97384 0.0
C2648 C 0.60735 0.57601 0.06314 0.0
C2649 C 0.59632 0.56827 0.09801 0.0
C2650 C 0.60424 0.5805 0.01752 0.0
C2651 C 0.58971 0.57674 0.00646 0.0
C2652 C 0.57848 0.56821 0.04058 0.0
C2653 C 0.58198 0.56434 0.08631 0.0
C2654 C 0.61653 0.58984 0.9824 0.0
C2655 C 0.56279 0.56352 0.02954 0.0
C2656 C 0.58037 0.5985 0.91614 0.0
C2657 C 0.57719 0.59015 0.87256 0.0
C2658 C 0.58505 0.59458 0.95962 0.0
C2659 C 0.58613 0.5818 0.95963 0.0
C2660 C 0.58278 0.5733 0.91579 0.0
C2661 C 0.57856 0.57769 0.87265 0.0
C2662 C 0.5888 0.60406 0.00554 0.0
C2663 C 0.58331 0.55935 0.91476 0.0
H2664 H 0.61849 0.5793 0.07279 0.0
H2665 H 0.57348 0.55848 0.11337 0.0
H2666 H 0.61424 0.58504 0.94435 0.0
H2667 H 0.61752 0.60072 0.97928 0.0
H2668 H 0.62708 0.59123 -0.00465 0.0
H2669 H 0.55527 0.55586 0.05811 0.0
H2670 H 0.56137 0.57317 0.0284 0.0
H2671 H 0.55963 0.55821 0.99232 0.0
H2672 H 0.57948 0.60823 0.91597 0.0
H2673 H 0.57613 0.57118 0.8391 0.0
H2674 H 0.59982 0.60704 0.01899 0.0
H2675 H 0.58106 0.59799 0.03613 0.0
H2676 H 0.58844 0.61417 -0.00171 0.0
H2677 H 0.59428 0.56148 0.9255 0.0
H2678 H 0.58059 0.5541 0.87733 0.0
H2679 H 0.57553 0.55159 0.9425 0.0
C2680 C 0.45666 0.03107 0.06632 0.0
C2681 C 0.44505 0.02898 0.09668 0.0
C2682 C 0.45411 0.02317 0.02154 0.0
C2683 C 0.43962 0.01332 0.00664 0.0
C2684 C 0.42791 0.0116 0.03675 0.0
C2685 C 0.43079 0.01927 0.08182 0.0
C2686 C 0.46687 0.02502 0.991 0.0
C2687 C 0.41231 1.00156 0.02163 0.0
C2688 C 0.43046 1.00262 0.87064 0.0
C2689 C 0.42744 0.98816 0.87077 0.0
C2690 C 0.43483 0.01104 0.91426 0.0
C2691 C 0.43653 1.00498 0.9591 0.0
C2692 C 0.43401 0.99055 0.95917 0.0
C2693 C 0.42932 0.98223 0.91501 0.0
C2694 C 0.43705 0.02623 0.91277 0.0
C2695 C 0.43598 0.98383 0.00612 0.0
H2696 H 0.46769 0.03835 0.07872 0.0
H2697 H 0.42186 0.01762 0.10584 0.0
H2698 H 0.46654 0.01444 0.98796 0.0
H2699 H 0.46623 0.02852 0.95244 0.0
H2700 H 0.47744 0.0331 0.0077 0.0
H2701 H 0.40448 1.00201 0.04816 0.0
H2702 H 0.4103 1.00447 0.98375 0.0
H2703 H 0.41011 0.99021 0.01987 0.0
H2704 H 0.42901 0.00727 0.83655 0.0
H2705 H 0.42713 0.97111 0.91512 0.0
H2706 H 0.44798 0.03415 0.9272 0.0
H2707 H 0.42897 0.02685 0.93737 0.0
H2708 H 0.43591 0.02955 0.87438 0.0
H2709 H 0.4468 0.99111 0.02284 0.0
H2710 H 0.43496 0.97306 -0.00112 0.0
H2711 H 0.42769 0.98243 0.03421 0.0
C2712 C 0.58594 0.99517 0.88952 0.0
C2713 C 0.5723 0.983 0.88044 0.0
C2714 C 0.58891 1.00289 0.93442 0.0
C2715 C 0.5778 0.99861 0.97063 0.0
C2716 C 0.56391 0.98634 0.96155 0.0
C2717 C 0.56137 0.97851 0.91662 0.0
C2718 C 0.604 0.01559 0.9432 0.0
C2719 C 0.55173 0.98169 -0.00113 0.0
C2720 C 0.59047 0.01022 0.10367 0.0
C2721 C 0.59011 0.02319 0.1075 0.0
C2722 C 0.58625 1.002 0.05964 0.0
C2723 C 0.58111 0.00663 0.01882 0.0
C2724 C 0.58032 0.01953 0.02291 0.0
C2725 C 0.58508 0.02783 0.0671 0.0
C2726 C 0.58777 0.98863 0.05628 0.0
C2727 C 0.57455 0.0246 0.98052 0.0
H2728 H 0.59438 0.99861 0.86135 0.0
H2729 H 0.55075 0.96923 0.90903 0.0
H2730 H 0.60353 0.02569 0.94836 0.0
H2731 H 0.60863 0.01382 0.97796 0.0
H2732 H 0.6115 0.01724 0.91169 0.0
H2733 H 0.54145 0.97221 0.98552 0.0
H2734 H 0.55479 0.9788 0.03496 0.0
H2735 H 0.54976 0.99083 0.00635 0.0
H2736 H 0.59443 0.00665 0.13491 0.0
H2737 H 0.58463 0.03777 0.07038 0.0
H2738 H 0.59552 0.99003 0.02599 0.0
H2739 H 0.57718 0.97899 0.04663 0.0
H2740 H 0.59172 0.98638 0.09179 0.0
H2741 H 0.58196 0.02765 0.94789 0.0
H2742 H 0.57344 0.0341 0.99119 0.0
H2743 H 0.56379 0.01565 0.96832 0.0
C2744 C 1.00894 0.58131 0.85712 0.0
C2745 C 0.02416 0.58842 0.86004 0.0
C2746 C 1.00028 0.57636 0.90008 0.0
C2747 C 1.00698 0.57852 0.9474 0.0
C2748 C 0.02234 0.58546 0.95076 0.0
C2749 C 0.03079 0.59038 0.90691 0.0
C2750 C 0.98397 0.56911 0.89486 0.0
C2751 C 0.02983 0.58789 0.00072 0.0
C2752 C 0.98665 0.58032 0.06134 0.0
C2753 C 0.98145 0.56653 0.08215 0.0
C2754 C 0.99473 0.58425 0.0169 0.0
C2755 C 0.99787 0.57419 -0.00662 0.0
C2756 C 0.99226 0.56006 0.01369 0.0
C2757 C 0.98407 0.55638 0.05805 0.0
C2758 C 1.00035 0.59935 -0.00384 0.0
C2759 C 0.99539 0.54905 0.98972 0.0
H2760 H 1.00369 0.57975 0.82105 0.0
H2761 H 0.04253 0.59581 0.90935 0.0
H2762 H 0.9787 0.55826 0.91295 0.0
H2763 H 0.97998 0.57568 0.91424 0.0
H2764 H 0.98045 0.56775 0.85513 0.0
H2765 H 0.04179 0.59282 -0.00317 0.0
H2766 H 0.02756 0.59515 0.02413 0.0
H2767 H 0.02552 0.57742 0.02102 0.0
H2768 H 0.98487 0.58822 0.08098 0.0
H2769 H 0.9803 0.54584 0.07513 0.0
H2770 H 0.997 0.59876 0.95652 0.0
H2771 H 0.0124 0.6054 -0.00295 0.0
H2772 H 0.99635 0.6056 0.01765 0.0
H2773 H 0.99204 0.54748 0.94984 0.0
H2774 H 0.98971 0.53836 0.00896 0.0
H2775 H 1.00724 0.55312 0.99065 0.0
C2776 C 0.4334 0.4232 0.10833 0.0
C2777 C 0.44619 0.4225 0.11241 0.0
C2778 C 0.42978 0.42757 0.06383 0.0
C2779 C 0.43939 0.43176 0.02263 0.0
C2780 C 0.4525 0.43137 0.02676 0.0
C2781 C 0.45566 0.42652 0.07154 0.0
C2782 C 0.41547 0.42734 0.06057 0.0
C2783 C 0.46316 0.43609 0.98392 0.0
C2784 C 0.42296 0.42808 0.89393 0.0
C2785 C 0.42544 0.44212 0.88525 0.0
C2786 C 0.42746 0.42459 0.93846 0.0
C2787 C 0.43513 0.43558 0.97443 0.0
C2788 C 0.4379 0.44991 0.96544 0.0
C2789 C 0.43277 0.45297 0.92112 0.0
C2790 C 0.42377 0.40907 0.94731 0.0
C2791 C 0.44639 0.46199 0.00234 0.0
H2792 H 0.42602 0.42003 0.13988 0.0
H2793 H 0.46563 0.42613 0.0749 0.0
H2794 H 0.41735 0.43831 0.05112 0.0
H2795 H 0.40873 0.41989 0.03021 0.0
H2796 H 0.40922 0.42376 0.09608 0.0
H2797 H 0.47329 0.43609 -0.00577 0.0
H2798 H 0.45813 0.42871 0.95154 0.0
H2799 H 0.46602 0.44717 0.9715 0.0
H2800 H 0.41729 0.41972 0.86594 0.0
H2801 H 0.43489 0.46389 0.91377 0.0
H2802 H 0.41729 0.40488 0.98211 0.0
H2803 H 0.43386 0.40856 0.9525 0.0
H2804 H 0.41751 0.40179 0.91586 0.0
H2805 H 0.44047 0.45957 0.03842 0.0
H2806 H 0.44832 0.47267 0.98854 0.0
H2807 H 0.45704 0.4628 0.01 0.0
loop_
_geom_bond_atom_site_label_1
_geom_bond_atom_site_label_2
_geom_bond_distance
_geom_bond_site_symmetry_2
_ccdc_geom_bond_type
Co0 O1 2.216 . S
Co0 O2 2.091 . S
Co0 O4 2.004 . S
Co0 O10 2.021 . S
Co0 O12 2.137 . S
Co0 O13 2.244 . S
O1 Co0 2.216 . S
O1 C8 1.247 . S
O2 Co0 2.091 . S
O2 C8 1.261 . S
C3 O12 1.247 . S
C3 O13 1.272 . S
O4 Co0 2.004 . S
O4 C9 1.259 . S
Co5 O6 2.061 . S
Co5 O11 2.052 . S
Co5 O13 2.135 . S
O6 Co5 2.061 . S
O6 C9 1.235 . S
C7 O10 1.238 1_556 S
C7 O11 1.241 1_556 S
C8 O1 1.247 . S
C8 O2 1.261 . S
C9 O4 1.259 . S
C9 O6 1.235 . S
O10 Co0 2.021 . S
O10 C7 1.238 1_554 S
O11 Co5 2.052 . S
O11 C7 1.241 1_554 S
O12 Co0 2.137 . S
O12 C3 1.247 . S
O13 Co0 2.244 . S
O13 C3 1.272 . S
O13 Co5 2.135 . S
Co14 O15 2.216 . S
Co14 O16 2.091 . S
Co14 O18 2.004 . S
Co14 O24 2.021 . S
Co14 O26 2.137 . S
Co14 O27 2.244 . S
O15 Co14 2.216 . S
O15 C22 1.247 . S
O16 Co14 2.091 . S
O16 C22 1.261 . S
C17 O26 1.247 . S
C17 O27 1.272 . S
O18 Co14 2.004 . S
O18 C23 1.259 . S
Co19 O20 2.061 . S
Co19 O25 2.052 . S
Co19 O27 2.135 . S
O20 Co19 2.061 . S
O20 C23 1.235 . S
C21 O24 1.238 1_556 S
C21 O25 1.241 1_556 S
C22 O15 1.247 . S
C22 O16 1.261 . S
C23 O18 1.259 . S
C23 O20 1.235 . S
O24 Co14 2.021 . S
O24 C21 1.238 1_554 S
O25 Co19 2.052 . S
O25 C21 1.241 1_554 S
O26 Co14 2.137 . S
O26 C17 1.247 . S
O27 Co14 2.244 . S
O27 C17 1.272 . S
O27 Co19 2.135 . S
Co28 O29 2.216 . S
Co28 O30 2.091 . S
Co28 O32 2.004 . S
Co28 O38 2.021 . S
Co28 O40 2.137 . S
Co28 O41 2.244 . S
O29 Co28 2.216 . S
O29 C36 1.247 . S
O30 Co28 2.091 . S
O30 C36 1.261 . S
C31 O40 1.247 . S
C31 O41 1.272 . S
O32 Co28 2.004 . S
O32 C37 1.259 . S
Co33 O34 2.061 . S
Co33 O39 2.052 . S
Co33 O41 2.135 . S
O34 Co33 2.061 . S
O34 C37 1.235 . S
C35 O38 1.238 1_556 S
C35 O39 1.241 1_556 S
C36 O29 1.247 . S
C36 O30 1.261 . S
C37 O32 1.259 . S
C37 O34 1.235 . S
O38 Co28 2.021 . S
O38 C35 1.238 1_554 S
O39 Co33 2.052 . S
O39 C35 1.241 1_554 S
O40 Co28 2.137 . S
O40 C31 1.247 . S
O41 Co28 2.244 . S
O41 C31 1.272 . S
O41 Co33 2.135 . S
Co42 O43 2.216 . S
Co42 O44 2.091 . S
Co42 O46 2.004 . S
Co42 O52 2.021 . S
Co42 O54 2.137 . S
Co42 O55 2.244 . S
O43 Co42 2.216 . S
O43 C50 1.247 . S
O44 Co42 2.091 . S
O44 C50 1.261 . S
C45 O54 1.247 . S
C45 O55 1.272 . S
O46 Co42 2.004 . S
O46 C51 1.259 . S
Co47 O48 2.061 . S
Co47 O53 2.052 . S
Co47 O55 2.135 . S
O48 Co47 2.061 . S
O48 C51 1.235 . S
C49 O52 1.238 1_554 S
C49 O53 1.241 1_554 S
C50 O43 1.247 . S
C50 O44 1.261 . S
C51 O46 1.259 . S
C51 O48 1.235 . S
O52 Co42 2.021 . S
O52 C49 1.238 1_556 S
O53 Co47 2.052 . S
O53 C49 1.241 1_556 S
O54 Co42 2.137 . S
O54 C45 1.247 . S
O55 Co42 2.244 . S
O55 C45 1.272 . S
O55 Co47 2.135 . S
Co56 O57 2.216 . S
Co56 O58 2.091 . S
Co56 O60 2.004 . S
Co56 O66 2.021 . S
Co56 O68 2.137 . S
Co56 O69 2.244 . S
O57 Co56 2.216 . S
O57 C64 1.247 . S
O58 Co56 2.091 . S
O58 C64 1.261 . S
C59 O68 1.247 . S
C59 O69 1.272 . S
O60 Co56 2.004 . S
O60 C65 1.259 . S
Co61 O62 2.061 . S
Co61 O67 2.052 . S
Co61 O69 2.135 . S
O62 Co61 2.061 . S
O62 C65 1.235 . S
C63 O66 1.238 1_554 S
C63 O67 1.241 1_554 S
C64 O57 1.247 . S
C64 O58 1.261 . S
C65 O60 1.259 . S
C65 O62 1.235 . S
O66 Co56 2.021 . S
O66 C63 1.238 1_556 S
O67 Co61 2.052 . S
O67 C63 1.241 1_556 S
O68 Co56 2.137 . S
O68 C59 1.247 . S
O69 Co56 2.244 . S
O69 C59 1.272 . S
O69 Co61 2.135 . S
Co70 O71 2.216 . S
Co70 O72 2.091 . S
Co70 O74 2.004 . S
Co70 O80 2.021 . S
Co70 O82 2.137 . S
Co70 O83 2.244 . S
O71 Co70 2.216 . S
O71 C78 1.247 . S
O72 Co70 2.091 . S
O72 C78 1.261 . S
C73 O82 1.247 . S
C73 O83 1.272 . S
O74 Co70 2.004 . S
O74 C79 1.259 . S
Co75 O76 2.061 . S
Co75 O81 2.052 . S
Co75 O83 2.135 . S
O76 Co75 2.061 . S
O76 C79 1.235 . S
C77 O80 1.238 1_554 S
C77 O81 1.241 1_554 S
C78 O71 1.247 . S
C78 O72 1.261 . S
C79 O74 1.259 . S
C79 O76 1.235 . S
O80 Co70 2.021 . S
O80 C77 1.238 1_556 S
O81 Co75 2.052 . S
O81 C77 1.241 1_556 S
O82 Co70 2.137 . S
O82 C73 1.247 . S
O83 Co70 2.244 . S
O83 C73 1.272 . S
O83 Co75 2.135 . S
Co84 O85 2.216 . S
Co84 O86 2.091 . S
Co84 O88 2.004 . S
Co84 O94 2.021 . S
Co84 O96 2.137 . S
Co84 O97 2.244 . S
O85 Co84 2.216 . S
O85 C92 1.247 . S
O86 Co84 2.091 . S
O86 C92 1.261 . S
C87 O96 1.247 . S
C87 O97 1.272 . S
O88 Co84 2.004 . S
O88 C93 1.259 . S
Co89 O90 2.061 . S
Co89 O95 2.052 . S
Co89 O97 2.135 . S
O90 Co89 2.061 . S
O90 C93 1.235 . S
C91 O94 1.238 1_554 S
C91 O95 1.241 1_554 S
C92 O85 1.247 . S
C92 O86 1.261 . S
C93 O88 1.259 . S
C93 O90 1.235 . S
O94 Co84 2.021 . S
O94 C91 1.238 1_556 S
O95 Co89 2.052 . S
O95 C91 1.241 1_556 S
O96 Co84 2.137 . S
O96 C87 1.247 . S
O97 Co84 2.244 . S
O97 C87 1.272 . S
O97 Co89 2.135 . S
Co98 O99 2.216 . S
Co98 O100 2.091 . S
Co98 O102 2.004 . S
Co98 O108 2.021 . S
Co98 O110 2.137 . S
Co98 O111 2.244 . S
O99 Co98 2.216 . S
O99 C106 1.247 . S
O100 Co98 2.091 . S
O100 C106 1.261 . S
C101 O110 1.247 . S
C101 O111 1.272 . S
O102 Co98 2.004 . S
O102 C107 1.259 . S
Co103 O104 2.061 . S
Co103 O109 2.052 . S
Co103 O111 2.135 . S
O104 Co103 2.061 . S
O104 C107 1.235 . S
C105 O108 1.238 1_554 S
C105 O109 1.241 1_554 S
C106 O99 1.247 . S
C106 O100 1.261 . S
C107 O102 1.259 . S
C107 O104 1.235 . S
O108 Co98 2.021 . S
O108 C105 1.238 1_556 S
O109 Co103 2.052 . S
O109 C105 1.241 1_556 S
O110 Co98 2.137 . S
O110 C101 1.247 . S
O111 Co98 2.244 . S
O111 C101 1.272 . S
O111 Co103 2.135 . S
Co112 O113 2.216 . S
Co112 O114 2.091 . S
Co112 O116 2.004 . S
Co112 O122 2.021 . S
Co112 O124 2.137 . S
Co112 O125 2.244 . S
O113 Co112 2.216 . S
O113 C120 1.247 . S
O114 Co112 2.091 . S
O114 C120 1.261 . S
C115 O124 1.247 . S
C115 O125 1.272 . S
O116 Co112 2.004 . S
O116 C121 1.259 . S
Co117 O118 2.061 . S
Co117 O123 2.052 . S
Co117 O125 2.135 . S
O118 Co117 2.061 . S
O118 C121 1.235 . S
C119 O122 1.238 1_554 S
C119 O123 1.241 1_554 S
C120 O113 1.247 . S
C120 O114 1.261 . S
C121 O116 1.259 . S
C121 O118 1.235 . S
O122 Co112 2.021 . S
O122 C119 1.238 1_556 S
O123 Co117 2.052 . S
O123 C119 1.241 1_556 S
O124 Co112 2.137 . S
O124 C115 1.247 . S
O125 Co112 2.244 . S
O125 C115 1.272 . S
O125 Co117 2.135 . S
Co126 O127 2.216 . S
Co126 O128 2.091 . S
Co126 O130 2.004 . S
Co126 O136 2.021 . S
Co126 O138 2.137 . S
Co126 O139 2.244 . S
O127 Co126 2.216 . S
O127 C134 1.247 . S
O128 Co126 2.091 . S
O128 C134 1.261 . S
C129 O138 1.247 . S
C129 O139 1.272 . S
O130 Co126 2.004 . S
O130 C135 1.259 . S
Co131 O132 2.061 . S
Co131 O137 2.052 . S
Co131 O139 2.135 . S
O132 Co131 2.061 . S
O132 C135 1.235 . S
C133 O136 1.238 1_556 S
C133 O137 1.241 1_556 S
C134 O127 1.247 . S
C134 O128 1.261 . S
C135 O130 1.259 . S
C135 O132 1.235 . S
O136 Co126 2.021 . S
O136 C133 1.238 1_554 S
O137 Co131 2.052 . S
O137 C133 1.241 1_554 S
O138 Co126 2.137 . S
O138 C129 1.247 . S
O139 Co126 2.244 . S
O139 C129 1.272 . S
O139 Co131 2.135 . S
Co140 O141 2.216 . S
Co140 O142 2.091 . S
Co140 O144 2.004 . S
Co140 O150 2.021 . S
Co140 O152 2.137 . S
Co140 O153 2.244 . S
O141 Co140 2.216 . S
O141 C148 1.247 . S
O142 Co140 2.091 . S
O142 C148 1.261 . S
C143 O152 1.247 . S
C143 O153 1.272 . S
O144 Co140 2.004 . S
O144 C149 1.259 . S
Co145 O146 2.061 . S
Co145 O151 2.052 . S
Co145 O153 2.135 . S
O146 Co145 2.061 . S
O146 C149 1.235 . S
C147 O150 1.238 1_556 S
C147 O151 1.241 1_556 S
C148 O141 1.247 . S
C148 O142 1.261 . S
C149 O144 1.259 . S
C149 O146 1.235 . S
O150 Co140 2.021 . S
O150 C147 1.238 1_554 S
O151 Co145 2.052 . S
O151 C147 1.241 1_554 S
O152 Co140 2.137 . S
O152 C143 1.247 . S
O153 Co140 2.244 . S
O153 C143 1.272 . S
O153 Co145 2.135 . S
Co154 O155 2.216 . S
Co154 O156 2.091 . S
Co154 O158 2.004 . S
Co154 O164 2.021 . S
Co154 O166 2.137 . S
Co154 O167 2.244 . S
O155 Co154 2.216 . S
O155 C162 1.247 . S
O156 Co154 2.091 . S
O156 C162 1.261 . S
C157 O166 1.247 . S
C157 O167 1.272 . S
O158 Co154 2.004 . S
O158 C163 1.259 . S
Co159 O160 2.061 . S
Co159 O165 2.052 . S
Co159 O167 2.135 . S
O160 Co159 2.061 . S
O160 C163 1.235 . S
C161 O164 1.238 1_556 S
C161 O165 1.241 1_556 S
C162 O155 1.247 . S
C162 O156 1.261 . S
C163 O158 1.259 . S
C163 O160 1.235 . S
O164 Co154 2.021 . S
O164 C161 1.238 1_554 S
O165 Co159 2.052 . S
O165 C161 1.241 1_554 S
O166 Co154 2.137 . S
O166 C157 1.247 . S
O167 Co154 2.244 . S
O167 C157 1.272 . S
O167 Co159 2.135 . S
Co168 O169 2.216 . S
Co168 O170 2.091 . S
Co168 O172 2.004 . S
Co168 O178 2.021 . S
Co168 O180 2.137 . S
Co168 O181 2.244 . S
O169 Co168 2.216 . S
O169 C176 1.247 . S
O170 Co168 2.091 . S
O170 C176 1.261 . S
C171 O180 1.247 . S
C171 O181 1.272 . S
O172 Co168 2.004 . S
O172 C177 1.259 . S
Co173 O174 2.061 . S
Co173 O179 2.052 . S
Co173 O181 2.135 . S
O174 Co173 2.061 . S
O174 C177 1.235 . S
C175 O178 1.238 . S
C175 O179 1.241 . S
C176 O169 1.247 . S
C176 O170 1.261 . S
C177 O172 1.259 . S
C177 O174 1.235 . S
O178 Co168 2.021 . S
O178 C175 1.238 . S
O179 Co173 2.052 . S
O179 C175 1.241 . S
O180 Co168 2.137 . S
O180 C171 1.247 . S
O181 Co168 2.244 . S
O181 C171 1.272 . S
O181 Co173 2.135 . S
Co182 O183 2.216 . S
Co182 O184 2.091 . S
Co182 O186 2.004 . S
Co182 O192 2.021 . S
Co182 O194 2.137 . S
Co182 O195 2.244 . S
O183 Co182 2.216 . S
O183 C190 1.247 . S
O184 Co182 2.091 . S
O184 C190 1.261 . S
C185 O194 1.247 . S
C185 O195 1.272 . S
O186 Co182 2.004 . S
O186 C191 1.259 . S
Co187 O188 2.061 . S
Co187 O193 2.052 . S
Co187 O195 2.135 . S
O188 Co187 2.061 . S
O188 C191 1.235 . S
C189 O192 1.238 . S
C189 O193 1.241 . S
C190 O183 1.247 . S
C190 O184 1.261 . S
C191 O186 1.259 . S
C191 O188 1.235 . S
O192 Co182 2.021 . S
O192 C189 1.238 . S
O193 Co187 2.052 . S
O193 C189 1.241 . S
O194 Co182 2.137 . S
O194 C185 1.247 . S
O195 Co182 2.244 . S
O195 C185 1.272 . S
O195 Co187 2.135 . S
Co196 O197 2.216 . S
Co196 O198 2.091 . S
Co196 O200 2.004 . S
Co196 O206 2.021 . S
Co196 O208 2.137 . S
Co196 O209 2.244 . S
O197 Co196 2.216 . S
O197 C204 1.247 . S
O198 Co196 2.091 . S
O198 C204 1.261 . S
C199 O208 1.247 . S
C199 O209 1.272 . S
O200 Co196 2.004 . S
O200 C205 1.259 . S
Co201 O202 2.061 . S
Co201 O207 2.052 . S
Co201 O209 2.135 . S
O202 Co201 2.061 . S
O202 C205 1.235 . S
C203 O206 1.238 . S
C203 O207 1.241 . S
C204 O197 1.247 . S
C204 O198 1.261 . S
C205 O200 1.259 . S
C205 O202 1.235 . S
O206 Co196 2.021 . S
O206 C203 1.238 . S
O207 Co201 2.052 . S
O207 C203 1.241 . S
O208 Co196 2.137 . S
O208 C199 1.247 . S
O209 Co196 2.244 . S
O209 C199 1.272 . S
O209 Co201 2.135 . S
Co210 O211 2.216 . S
Co210 O212 2.091 . S
Co210 O214 2.004 . S
Co210 O220 2.021 . S
Co210 O222 2.137 . S
Co210 O223 2.244 . S
O211 Co210 2.216 . S
O211 C218 1.247 . S
O212 Co210 2.091 . S
O212 C218 1.261 . S
C213 O222 1.247 . S
C213 O223 1.272 . S
O214 Co210 2.004 . S
O214 C219 1.259 . S
Co215 O216 2.061 . S
Co215 O221 2.052 . S
Co215 O223 2.135 . S
O216 Co215 2.061 . S
O216 C219 1.235 . S
C217 O220 1.238 . S
C217 O221 1.241 . S
C218 O211 1.247 . S
C218 O212 1.261 . S
C219 O214 1.259 . S
C219 O216 1.235 . S
O220 Co210 2.021 . S
O220 C217 1.238 . S
O221 Co215 2.052 . S
O221 C217 1.241 . S
O222 Co210 2.137 . S
O222 C213 1.247 . S
O223 Co210 2.244 . S
O223 C213 1.272 . S
O223 Co215 2.135 . S
Co224 O225 2.216 . S
Co224 O226 2.091 . S
Co224 O228 2.004 . S
Co224 O234 2.021 . S
Co224 O236 2.137 . S
Co224 O237 2.244 . S
O225 Co224 2.216 . S
O225 C232 1.247 . S
O226 Co224 2.091 . S
O226 C232 1.261 . S
C227 O236 1.247 . S
C227 O237 1.272 . S
O228 Co224 2.004 . S
O228 C233 1.259 . S
Co229 O230 2.061 . S
Co229 O235 2.052 . S
Co229 O237 2.135 . S
O230 Co229 2.061 . S
O230 C233 1.235 . S
C231 O234 1.238 . S
C231 O235 1.241 . S
C232 O225 1.247 . S
C232 O226 1.261 . S
C233 O228 1.259 . S
C233 O230 1.235 . S
O234 Co224 2.021 . S
O234 C231 1.238 . S
O235 Co229 2.052 . S
O235 C231 1.241 . S
O236 Co224 2.137 . S
O236 C227 1.247 . S
O237 Co224 2.244 . S
O237 C227 1.272 . S
O237 Co229 2.135 . S
Co238 O239 2.216 . S
Co238 O240 2.091 . S
Co238 O242 2.004 . S
Co238 O248 2.021 . S
Co238 O250 2.137 . S
Co238 O251 2.244 . S
O239 Co238 2.216 . S
O239 C246 1.247 . S
O240 Co238 2.091 . S
O240 C246 1.261 . S
C241 O250 1.247 . S
C241 O251 1.272 . S
O242 Co238 2.004 . S
O242 C247 1.259 . S
Co243 O244 2.061 . S
Co243 O249 2.052 . S
Co243 O251 2.135 . S
O244 Co243 2.061 . S
O244 C247 1.235 . S
C245 O248 1.238 . S
C245 O249 1.241 . S
C246 O239 1.247 . S
C246 O240 1.261 . S
C247 O242 1.259 . S
C247 O244 1.235 . S
O248 Co238 2.021 . S
O248 C245 1.238 . S
O249 Co243 2.052 . S
O249 C245 1.241 . S
O250 Co238 2.137 . S
O250 C241 1.247 . S
O251 Co238 2.244 . S
O251 C241 1.272 . S
O251 Co243 2.135 . S
Co252 O253 2.216 . S
Co252 O254 2.091 . S
Co252 O256 2.004 . S
Co252 O262 2.021 . S
Co252 O264 2.137 . S
Co252 O265 2.244 . S
O253 Co252 2.216 . S
O253 C260 1.247 . S
O254 Co252 2.091 . S
O254 C260 1.261 . S
C255 O264 1.247 . S
C255 O265 1.272 . S
O256 Co252 2.004 . S
O256 C261 1.259 . S
Co257 O258 2.061 . S
Co257 O263 2.052 . S
Co257 O265 2.135 . S
O258 Co257 2.061 . S
O258 C261 1.235 . S
C259 O262 1.238 . S
C259 O263 1.241 . S
C260 O253 1.247 . S
C260 O254 1.261 . S
C261 O256 1.259 . S
C261 O258 1.235 . S
O262 Co252 2.021 . S
O262 C259 1.238 . S
O263 Co257 2.052 . S
O263 C259 1.241 . S
O264 Co252 2.137 . S
O264 C255 1.247 . S
O265 Co252 2.244 . S
O265 C255 1.272 . S
O265 Co257 2.135 . S
Co266 O267 2.216 . S
Co266 O268 2.091 . S
Co266 O270 2.004 . S
Co266 O276 2.021 . S
Co266 O278 2.137 . S
Co266 O279 2.244 . S
O267 Co266 2.216 . S
O267 C274 1.247 . S
O268 Co266 2.091 . S
O268 C274 1.261 . S
C269 O278 1.247 . S
C269 O279 1.272 . S
O270 Co266 2.004 . S
O270 C275 1.259 . S
Co271 O272 2.061 . S
Co271 O277 2.052 . S
Co271 O279 2.135 . S
O272 Co271 2.061 . S
O272 C275 1.235 . S
C273 O276 1.238 . S
C273 O277 1.241 . S
C274 O267 1.247 . S
C274 O268 1.261 . S
C275 O270 1.259 . S
C275 O272 1.235 . S
O276 Co266 2.021 . S
O276 C273 1.238 . S
O277 Co271 2.052 . S
O277 C273 1.241 . S
O278 Co266 2.137 . S
O278 C269 1.247 . S
O279 Co266 2.244 . S
O279 C269 1.272 . S
O279 Co271 2.135 . S
Co280 O281 2.216 . S
Co280 O282 2.091 . S
Co280 O284 2.004 . S
Co280 O290 2.021 . S
Co280 O292 2.137 . S
Co280 O293 2.244 . S
O281 Co280 2.216 . S
O281 C288 1.247 . S
O282 Co280 2.091 . S
O282 C288 1.261 . S
C283 O292 1.247 . S
C283 O293 1.272 . S
O284 Co280 2.004 . S
O284 C289 1.259 . S
Co285 O286 2.061 . S
Co285 O291 2.052 . S
Co285 O293 2.135 . S
O286 Co285 2.061 . S
O286 C289 1.235 . S
C287 O290 1.238 . S
C287 O291 1.241 . S
C288 O281 1.247 . S
C288 O282 1.261 . S
C289 O284 1.259 . S
C289 O286 1.235 . S
O290 Co280 2.021 . S
O290 C287 1.238 . S
O291 Co285 2.052 . S
O291 C287 1.241 . S
O292 Co280 2.137 . S
O292 C283 1.247 . S
O293 Co280 2.244 . S
O293 C283 1.272 . S
O293 Co285 2.135 . S
Co294 O295 2.216 . S
Co294 O296 2.091 . S
Co294 O298 2.004 . S
Co294 O304 2.021 . S
Co294 O306 2.137 . S
Co294 O307 2.244 . S
O295 Co294 2.216 . S
O295 C302 1.247 . S
O296 Co294 2.091 . S
O296 C302 1.261 . S
C297 O306 1.247 . S
C297 O307 1.272 . S
O298 Co294 2.004 . S
O298 C303 1.259 . S
Co299 O300 2.061 . S
Co299 O305 2.052 . S
Co299 O307 2.135 . S
O300 Co299 2.061 . S
O300 C303 1.235 . S
C301 O304 1.238 . S
C301 O305 1.241 . S
C302 O295 1.247 . S
C302 O296 1.261 . S
C303 O298 1.259 . S
C303 O300 1.235 . S
O304 Co294 2.021 . S
O304 C301 1.238 . S
O305 Co299 2.052 . S
O305 C301 1.241 . S
O306 Co294 2.137 . S
O306 C297 1.247 . S
O307 Co294 2.244 . S
O307 C297 1.272 . S
O307 Co299 2.135 . S
Co308 O309 2.216 . S
Co308 O310 2.091 . S
Co308 O312 2.004 . S
Co308 O318 2.021 . S
Co308 O320 2.137 . S
Co308 O321 2.244 . S
O309 Co308 2.216 . S
O309 C316 1.247 . S
O310 Co308 2.091 . S
O310 C316 1.261 . S
C311 O320 1.247 . S
C311 O321 1.272 . S
O312 Co308 2.004 . S
O312 C317 1.259 . S
Co313 O314 2.061 . S
Co313 O319 2.052 . S
Co313 O321 2.135 . S
O314 Co313 2.061 . S
O314 C317 1.235 . S
C315 O318 1.238 . S
C315 O319 1.241 . S
C316 O309 1.247 . S
C316 O310 1.261 . S
C317 O312 1.259 . S
C317 O314 1.235 . S
O318 Co308 2.021 . S
O318 C315 1.238 . S
O319 Co313 2.052 . S
O319 C315 1.241 . S
O320 Co308 2.137 . S
O320 C311 1.247 . S
O321 Co308 2.244 . S
O321 C311 1.272 . S
O321 Co313 2.135 . S
Co322 O323 2.216 . S
Co322 O324 2.091 . S
Co322 O326 2.004 . S
Co322 O332 2.021 . S
Co322 O334 2.137 . S
Co322 O335 2.244 . S
O323 Co322 2.216 . S
O323 C330 1.247 . S
O324 Co322 2.091 . S
O324 C330 1.261 . S
C325 O334 1.247 . S
C325 O335 1.272 . S
O326 Co322 2.004 . S
O326 C331 1.259 . S
Co327 O328 2.061 . S
Co327 O333 2.052 . S
Co327 O335 2.135 . S
O328 Co327 2.061 . S
O328 C331 1.235 . S
C329 O332 1.238 . S
C329 O333 1.241 . S
C330 O323 1.247 . S
C330 O324 1.261 . S
C331 O326 1.259 . S
C331 O328 1.235 . S
O332 Co322 2.021 . S
O332 C329 1.238 . S
O333 Co327 2.052 . S
O333 C329 1.241 . S
O334 Co322 2.137 . S
O334 C325 1.247 . S
O335 Co322 2.244 . S
O335 C325 1.272 . S
O335 Co327 2.135 . S
Co336 O337 2.216 . S
Co336 O338 2.091 . S
Co336 O340 2.004 . S
Co336 O346 2.021 . S
Co336 O348 2.137 . S
Co336 O349 2.244 . S
O337 Co336 2.216 . S
O337 C344 1.247 . S
O338 Co336 2.091 . S
O338 C344 1.261 . S
C339 O348 1.247 . S
C339 O349 1.272 . S
O340 Co336 2.004 . S
O340 C345 1.259 . S
Co341 O342 2.061 . S
Co341 O347 2.052 . S
Co341 O349 2.135 . S
O342 Co341 2.061 . S
O342 C345 1.235 . S
C343 O346 1.238 . S
C343 O347 1.241 . S
C344 O337 1.247 . S
C344 O338 1.261 . S
C345 O340 1.259 . S
C345 O342 1.235 . S
O346 Co336 2.021 . S
O346 C343 1.238 . S
O347 Co341 2.052 . S
O347 C343 1.241 . S
O348 Co336 2.137 . S
O348 C339 1.247 . S
O349 Co336 2.244 . S
O349 C339 1.272 . S
O349 Co341 2.135 . S
Co350 O351 2.216 . S
Co350 O352 2.091 . S
Co350 O354 2.004 . S
Co350 O360 2.021 . S
Co350 O362 2.137 . S
Co350 O363 2.244 . S
O351 Co350 2.216 . S
O351 C358 1.247 . S
O352 Co350 2.091 . S
O352 C358 1.261 . S
C353 O362 1.247 . S
C353 O363 1.272 . S
O354 Co350 2.004 . S
O354 C359 1.259 . S
Co355 O356 2.061 . S
Co355 O361 2.052 . S
Co355 O363 2.135 . S
O356 Co355 2.061 . S
O356 C359 1.235 . S
C357 O360 1.238 . S
C357 O361 1.241 . S
C358 O351 1.247 . S
C358 O352 1.261 . S
C359 O354 1.259 . S
C359 O356 1.235 . S
O360 Co350 2.021 . S
O360 C357 1.238 . S
O361 Co355 2.052 . S
O361 C357 1.241 . S
O362 Co350 2.137 . S
O362 C353 1.247 . S
O363 Co350 2.244 . S
O363 C353 1.272 . S
O363 Co355 2.135 . S
Co364 O365 2.216 . S
Co364 O366 2.091 . S
Co364 O368 2.004 . S
Co364 O374 2.021 . S
Co364 O376 2.137 . S
Co364 O377 2.244 . S
O365 Co364 2.216 . S
O365 C372 1.247 . S
O366 Co364 2.091 . S
O366 C372 1.261 . S
C367 O376 1.247 . S
C367 O377 1.272 . S
O368 Co364 2.004 . S
O368 C373 1.259 . S
Co369 O370 2.061 . S
Co369 O375 2.052 . S
Co369 O377 2.135 . S
O370 Co369 2.061 . S
O370 C373 1.235 . S
C371 O374 1.238 . S
C371 O375 1.241 . S
C372 O365 1.247 . S
C372 O366 1.261 . S
C373 O368 1.259 . S
C373 O370 1.235 . S
O374 Co364 2.021 . S
O374 C371 1.238 . S
O375 Co369 2.052 . S
O375 C371 1.241 . S
O376 Co364 2.137 . S
O376 C367 1.247 . S
O377 Co364 2.244 . S
O377 C367 1.272 . S
O377 Co369 2.135 . S
Co378 O379 2.216 . S
Co378 O380 2.091 . S
Co378 O382 2.004 . S
Co378 O388 2.021 . S
Co378 O390 2.137 . S
Co378 O391 2.244 . S
O379 Co378 2.216 . S
O379 C386 1.247 . S
O380 Co378 2.091 . S
O380 C386 1.261 . S
C381 O390 1.247 . S
C381 O391 1.272 . S
O382 Co378 2.004 . S
O382 C387 1.259 . S
Co383 O384 2.061 . S
Co383 O389 2.052 . S
Co383 O391 2.135 . S
O384 Co383 2.061 . S
O384 C387 1.235 . S
C385 O388 1.238 . S
C385 O389 1.241 . S
C386 O379 1.247 . S
C386 O380 1.261 . S
C387 O382 1.259 . S
C387 O384 1.235 . S
O388 Co378 2.021 . S
O388 C385 1.238 . S
O389 Co383 2.052 . S
O389 C385 1.241 . S
O390 Co378 2.137 . S
O390 C381 1.247 . S
O391 Co378 2.244 . S
O391 C381 1.272 . S
O391 Co383 2.135 . S
Co392 O393 2.216 . S
Co392 O394 2.091 . S
Co392 O396 2.004 . S
Co392 O402 2.021 . S
Co392 O404 2.137 . S
Co392 O405 2.244 . S
O393 Co392 2.216 . S
O393 C400 1.247 . S
O394 Co392 2.091 . S
O394 C400 1.261 . S
C395 O404 1.247 . S
C395 O405 1.272 . S
O396 Co392 2.004 . S
O396 C401 1.259 . S
Co397 O398 2.061 . S
Co397 O403 2.052 . S
Co397 O405 2.135 . S
O398 Co397 2.061 . S
O398 C401 1.235 . S
C399 O402 1.238 . S
C399 O403 1.241 . S
C400 O393 1.247 . S
C400 O394 1.261 . S
C401 O396 1.259 . S
C401 O398 1.235 . S
O402 Co392 2.021 . S
O402 C399 1.238 . S
O403 Co397 2.052 . S
O403 C399 1.241 . S
O404 Co392 2.137 . S
O404 C395 1.247 . S
O405 Co392 2.244 . S
O405 C395 1.272 . S
O405 Co397 2.135 . S
Co406 O407 2.216 . S
Co406 O408 2.091 . S
Co406 O410 2.004 . S
Co406 O416 2.021 . S
Co406 O418 2.137 . S
Co406 O419 2.244 . S
O407 Co406 2.216 . S
O407 C414 1.247 . S
O408 Co406 2.091 . S
O408 C414 1.261 . S
C409 O418 1.247 . S
C409 O419 1.272 . S
O410 Co406 2.004 . S
O410 C415 1.259 . S
Co411 O412 2.061 . S
Co411 O417 2.052 . S
Co411 O419 2.135 . S
O412 Co411 2.061 . S
O412 C415 1.235 . S
C413 O416 1.238 . S
C413 O417 1.241 . S
C414 O407 1.247 . S
C414 O408 1.261 . S
C415 O410 1.259 . S
C415 O412 1.235 . S
O416 Co406 2.021 . S
O416 C413 1.238 . S
O417 Co411 2.052 . S
O417 C413 1.241 . S
O418 Co406 2.137 . S
O418 C409 1.247 . S
O419 Co406 2.244 . S
O419 C409 1.272 . S
O419 Co411 2.135 . S
Co420 O421 2.216 . S
Co420 O422 2.091 . S
Co420 O424 2.004 . S
Co420 O430 2.021 . S
Co420 O432 2.137 . S
Co420 O433 2.244 . S
O421 Co420 2.216 . S
O421 C428 1.247 . S
O422 Co420 2.091 . S
O422 C428 1.261 . S
C423 O432 1.247 . S
C423 O433 1.272 . S
O424 Co420 2.004 . S
O424 C429 1.259 . S
Co425 O426 2.061 . S
Co425 O431 2.052 . S
Co425 O433 2.135 . S
O426 Co425 2.061 . S
O426 C429 1.235 . S
C427 O430 1.238 . S
C427 O431 1.241 . S
C428 O421 1.247 . S
C428 O422 1.261 . S
C429 O424 1.259 . S
C429 O426 1.235 . S
O430 Co420 2.021 . S
O430 C427 1.238 . S
O431 Co425 2.052 . S
O431 C427 1.241 . S
O432 Co420 2.137 . S
O432 C423 1.247 . S
O433 Co420 2.244 . S
O433 C423 1.272 . S
O433 Co425 2.135 . S
Co434 O435 2.216 . S
Co434 O436 2.091 . S
Co434 O438 2.004 . S
Co434 O444 2.021 . S
Co434 O446 2.137 . S
Co434 O447 2.244 . S
O435 Co434 2.216 . S
O435 C442 1.247 . S
O436 Co434 2.091 . S
O436 C442 1.261 . S
C437 O446 1.247 . S
C437 O447 1.272 . S
O438 Co434 2.004 . S
O438 C443 1.259 . S
Co439 O440 2.061 . S
Co439 O445 2.052 . S
Co439 O447 2.135 . S
O440 Co439 2.061 . S
O440 C443 1.235 . S
C441 O444 1.238 . S
C441 O445 1.241 . S
C442 O435 1.247 . S
C442 O436 1.261 . S
C443 O438 1.259 . S
C443 O440 1.235 . S
O444 Co434 2.021 . S
O444 C441 1.238 . S
O445 Co439 2.052 . S
O445 C441 1.241 . S
O446 Co434 2.137 . S
O446 C437 1.247 . S
O447 Co434 2.244 . S
O447 C437 1.272 . S
O447 Co439 2.135 . S
Co448 O449 2.216 . S
Co448 O450 2.091 . S
Co448 O452 2.004 . S
Co448 O458 2.021 . S
Co448 O460 2.137 . S
Co448 O461 2.244 . S
O449 Co448 2.216 . S
O449 C456 1.247 . S
O450 Co448 2.091 . S
O450 C456 1.261 . S
C451 O460 1.247 . S
C451 O461 1.272 . S
O452 Co448 2.004 . S
O452 C457 1.259 . S
Co453 O454 2.061 . S
Co453 O459 2.052 . S
Co453 O461 2.135 . S
O454 Co453 2.061 . S
O454 C457 1.235 . S
C455 O458 1.238 . S
C455 O459 1.241 . S
C456 O449 1.247 . S
C456 O450 1.261 . S
C457 O452 1.259 . S
C457 O454 1.235 . S
O458 Co448 2.021 . S
O458 C455 1.238 . S
O459 Co453 2.052 . S
O459 C455 1.241 . S
O460 Co448 2.137 . S
O460 C451 1.247 . S
O461 Co448 2.244 . S
O461 C451 1.272 . S
O461 Co453 2.135 . S
Co462 O463 2.216 . S
Co462 O464 2.091 . S
Co462 O466 2.004 . S
Co462 O472 2.021 . S
Co462 O474 2.137 . S
Co462 O475 2.244 . S
O463 Co462 2.216 . S
O463 C470 1.247 . S
O464 Co462 2.091 . S
O464 C470 1.261 . S
C465 O474 1.247 . S
C465 O475 1.272 . S
O466 Co462 2.004 . S
O466 C471 1.259 . S
Co467 O468 2.061 . S
Co467 O473 2.052 . S
Co467 O475 2.135 . S
O468 Co467 2.061 . S
O468 C471 1.235 . S
C469 O472 1.238 . S
C469 O473 1.241 . S
C470 O463 1.247 . S
C470 O464 1.261 . S
C471 O466 1.259 . S
C471 O468 1.235 . S
O472 Co462 2.021 . S
O472 C469 1.238 . S
O473 Co467 2.052 . S
O473 C469 1.241 . S
O474 Co462 2.137 . S
O474 C465 1.247 . S
O475 Co462 2.244 . S
O475 C465 1.272 . S
O475 Co467 2.135 . S
Co476 O477 2.216 . S
Co476 O478 2.091 . S
Co476 O480 2.004 . S
Co476 O486 2.021 . S
Co476 O488 2.137 . S
Co476 O489 2.244 . S
O477 Co476 2.216 . S
O477 C484 1.247 . S
O478 Co476 2.091 . S
O478 C484 1.261 . S
C479 O488 1.247 . S
C479 O489 1.272 . S
O480 Co476 2.004 . S
O480 C485 1.259 . S
Co481 O482 2.061 . S
Co481 O487 2.052 . S
Co481 O489 2.135 . S
O482 Co481 2.061 . S
O482 C485 1.235 . S
C483 O486 1.238 . S
C483 O487 1.241 . S
C484 O477 1.247 . S
C484 O478 1.261 . S
C485 O480 1.259 . S
C485 O482 1.235 . S
O486 Co476 2.021 . S
O486 C483 1.238 . S
O487 Co481 2.052 . S
O487 C483 1.241 . S
O488 Co476 2.137 . S
O488 C479 1.247 . S
O489 Co476 2.244 . S
O489 C479 1.272 . S
O489 Co481 2.135 . S
Co490 O491 2.216 . S
Co490 O492 2.091 . S
Co490 O494 2.004 . S
Co490 O500 2.021 . S
Co490 O502 2.137 . S
Co490 O503 2.244 . S
O491 Co490 2.216 . S
O491 C498 1.247 . S
O492 Co490 2.091 . S
O492 C498 1.261 . S
C493 O502 1.247 . S
C493 O503 1.272 . S
O494 Co490 2.004 . S
O494 C499 1.259 . S
Co495 O496 2.061 . S
Co495 O501 2.052 . S
Co495 O503 2.135 . S
O496 Co495 2.061 . S
O496 C499 1.235 . S
C497 O500 1.238 . S
C497 O501 1.241 . S
C498 O491 1.247 . S
C498 O492 1.261 . S
C499 O494 1.259 . S
C499 O496 1.235 . S
O500 Co490 2.021 . S
O500 C497 1.238 . S
O501 Co495 2.052 . S
O501 C497 1.241 . S
O502 Co490 2.137 . S
O502 C493 1.247 . S
O503 Co490 2.244 . S
O503 C493 1.272 . S
O503 Co495 2.135 . S
C504 C505 1.391 . S
C504 C506 1.394 . S
C504 H520 0.931 . S
C505 C504 1.391 . S
C505 C509 1.376 . S
C506 C504 1.394 . S
C506 C507 1.369 . S
C506 C510 1.531 1_554 S
C507 C506 1.369 . S
C507 C508 1.410 . S
C507 C515 1.503 . S
C508 C507 1.410 . S
C508 C509 1.392 . S
C508 C511 1.511 . S
C509 C505 1.376 . S
C509 C508 1.392 . S
C509 H521 0.929 . S
C510 C506 1.531 1_556 S
C510 H522 0.960 . S
C510 H523 0.962 . S
C510 H524 0.960 . S
C511 C508 1.511 . S
C511 H525 0.961 . S
C511 H526 0.961 . S
C511 H527 0.961 . S
C512 C513 1.370 . S
C512 C514 1.363 . S
C512 H528 0.931 . S
C513 C512 1.370 . S
C513 C517 1.408 . S
C514 C512 1.363 . S
C514 C515 1.370 . S
C514 C518 1.524 . S
C515 C507 1.503 . S
C515 C514 1.370 . S
C515 C516 1.403 . S
C516 C515 1.403 . S
C516 C517 1.404 . S
C516 C519 1.539 . S
C517 C513 1.408 . S
C517 C516 1.404 . S
C517 H529 0.930 . S
C518 C514 1.524 . S
C518 H530 0.956 . S
C518 H531 0.961 . S
C518 H532 0.961 . S
C519 C516 1.539 . S
C519 H533 0.958 . S
C519 H534 0.961 . S
C519 H535 0.960 . S
H520 C504 0.931 . S
H521 C509 0.929 . S
H522 C510 0.960 . S
H523 C510 0.962 . S
H524 C510 0.960 . S
H525 C511 0.961 . S
H526 C511 0.961 . S
H527 C511 0.961 . S
H528 C512 0.931 . S
H529 C517 0.930 . S
H530 C518 0.956 . S
H531 C518 0.961 . S
H532 C518 0.961 . S
H533 C519 0.958 . S
H534 C519 0.961 . S
H535 C519 0.960 . S
C536 C537 1.391 . S
C536 C538 1.394 . S
C536 H552 0.931 . S
C537 C536 1.391 . S
C537 C541 1.376 . S
C538 C536 1.394 . S
C538 C539 1.369 . S
C538 C542 1.531 . S
C539 C538 1.369 . S
C539 C540 1.410 . S
C539 C547 1.503 . S
C540 C539 1.410 . S
C540 C541 1.392 . S
C540 C543 1.511 . S
C541 C537 1.376 . S
C541 C540 1.392 . S
C541 H553 0.929 . S
C542 C538 1.531 . S
C542 H554 0.960 . S
C542 H555 0.962 . S
C542 H556 0.960 . S
C543 C540 1.511 . S
C543 H557 0.961 . S
C543 H558 0.961 . S
C543 H559 0.961 . S
C544 C545 1.370 . S
C544 C546 1.363 . S
C544 H560 0.931 . S
C545 C544 1.370 . S
C545 C549 1.408 . S
C546 C544 1.363 . S
C546 C547 1.370 . S
C546 C550 1.524 1_554 S
C547 C539 1.503 . S
C547 C546 1.370 . S
C547 C548 1.403 . S
C548 C547 1.403 . S
C548 C549 1.404 . S
C548 C551 1.539 . S
C549 C545 1.408 . S
C549 C548 1.404 . S
C549 H561 0.930 . S
C550 C546 1.524 1_556 S
C550 H562 0.956 1_556 S
C550 H563 0.961 . S
C550 H564 0.961 . S
C551 C548 1.539 . S
C551 H565 0.958 . S
C551 H566 0.961 . S
C551 H567 0.960 . S
H552 C536 0.931 . S
H553 C541 0.929 . S
H554 C542 0.960 . S
H555 C542 0.962 . S
H556 C542 0.960 . S
H557 C543 0.961 . S
H558 C543 0.961 . S
H559 C543 0.961 . S
H560 C544 0.931 . S
H561 C549 0.930 . S
H562 C550 0.956 1_554 S
H563 C550 0.961 . S
H564 C550 0.961 . S
H565 C551 0.958 . S
H566 C551 0.961 . S
H567 C551 0.960 . S
C568 C569 1.391 . S
C568 C570 1.394 . S
C568 H584 0.931 . S
C569 C568 1.391 . S
C569 C573 1.376 . S
C570 C568 1.394 . S
C570 C571 1.369 . S
C570 C574 1.531 1_554 S
C571 C570 1.369 . S
C571 C572 1.410 . S
C571 C579 1.503 . S
C572 C571 1.410 . S
C572 C573 1.392 . S
C572 C575 1.511 . S
C573 C569 1.376 . S
C573 C572 1.392 . S
C573 H585 0.929 . S
C574 C570 1.531 1_556 S
C574 H586 0.960 . S
C574 H587 0.962 . S
C574 H588 0.960 . S
C575 C572 1.511 . S
C575 H589 0.961 . S
C575 H590 0.961 . S
C575 H591 0.961 . S
C576 C577 1.370 . S
C576 C578 1.363 . S
C576 H592 0.931 . S
C577 C576 1.370 . S
C577 C581 1.408 . S
C578 C576 1.363 . S
C578 C579 1.370 . S
C578 C582 1.524 . S
C579 C571 1.503 . S
C579 C578 1.370 . S
C579 C580 1.403 . S
C580 C579 1.403 . S
C580 C581 1.404 . S
C580 C583 1.539 . S
C581 C577 1.408 . S
C581 C580 1.404 . S
C581 H593 0.930 . S
C582 C578 1.524 . S
C582 H594 0.956 . S
C582 H595 0.961 . S
C582 H596 0.961 . S
C583 C580 1.539 . S
C583 H597 0.958 1_554 S
C583 H598 0.961 . S
C583 H599 0.960 . S
H584 C568 0.931 . S
H585 C573 0.929 . S
H586 C574 0.960 . S
H587 C574 0.962 . S
H588 C574 0.960 . S
H589 C575 0.961 . S
H590 C575 0.961 . S
H591 C575 0.961 . S
H592 C576 0.931 . S
H593 C581 0.930 . S
H594 C582 0.956 . S
H595 C582 0.961 . S
H596 C582 0.961 . S
H597 C583 0.958 1_556 S
H598 C583 0.961 . S
H599 C583 0.960 . S
C600 C601 1.391 . S
C600 C602 1.394 . S
C600 H616 0.938 . S
C601 C600 1.391 . S
C601 C605 1.376 . S
C602 C600 1.394 . S
C602 C603 1.369 . S
C602 C606 1.531 1_556 S
C603 C602 1.369 . S
C603 C604 1.410 . S
C603 C611 1.503 . S
C604 C603 1.410 . S
C604 C605 1.392 . S
C604 C607 1.511 . S
C605 C601 1.376 . S
C605 C604 1.392 . S
C605 H617 0.929 . S
C606 C602 1.531 1_554 S
C606 H618 0.960 . S
C606 H619 0.962 . S
C606 H620 0.960 . S
C607 C604 1.511 . S
C607 H621 0.961 . S
C607 H622 0.961 . S
C607 H623 0.961 . S
C608 C609 1.370 . S
C608 C610 1.363 . S
C608 H624 0.931 . S
C609 C608 1.370 . S
C609 C613 1.408 . S
C610 C608 1.363 . S
C610 C611 1.370 . S
C610 C614 1.524 . S
C611 C603 1.503 . S
C611 C610 1.370 . S
C611 C612 1.403 . S
C612 C611 1.403 . S
C612 C613 1.404 . S
C612 C615 1.539 . S
C613 C609 1.408 . S
C613 C612 1.404 . S
C613 H625 0.930 . S
C614 C610 1.524 . S
C614 H626 0.956 . S
C614 H627 0.961 . S
C614 H628 0.961 . S
C615 C612 1.539 . S
C615 H629 0.958 . S
C615 H630 0.961 . S
C615 H631 0.960 . S
H616 C600 0.938 . S
H617 C605 0.929 . S
H618 C606 0.960 . S
H619 C606 0.962 . S
H620 C606 0.960 . S
H621 C607 0.961 . S
H622 C607 0.961 . S
H623 C607 0.961 . S
H624 C608 0.931 . S
H625 C613 0.930 . S
H626 C614 0.956 . S
H627 C614 0.961 . S
H628 C614 0.961 . S
H629 C615 0.958 . S
H630 C615 0.961 . S
H631 C615 0.960 . S
C632 C633 1.391 . S
C632 C634 1.394 . S
C632 H648 0.931 . S
C633 C632 1.391 . S
C633 C637 1.376 . S
C634 C632 1.394 . S
C634 C635 1.369 . S
C634 C638 1.531 . S
C635 C634 1.369 . S
C635 C636 1.410 . S
C635 C643 1.503 . S
C636 C635 1.410 . S
C636 C637 1.392 . S
C636 C639 1.511 . S
C637 C633 1.376 . S
C637 C636 1.392 . S
C637 H649 0.929 . S
C638 C634 1.531 . S
C638 H650 0.960 . S
C638 H651 0.962 . S
C638 H652 0.960 . S
C639 C636 1.511 . S
C639 H653 0.961 . S
C639 H654 0.961 . S
C639 H655 0.961 . S
C640 C641 1.370 . S
C640 C642 1.363 . S
C640 H656 0.931 . S
C641 C640 1.370 . S
C641 C645 1.408 . S
C642 C640 1.363 . S
C642 C643 1.370 . S
C642 C646 1.524 1_556 S
C643 C635 1.503 . S
C643 C642 1.370 . S
C643 C644 1.403 . S
C644 C643 1.403 . S
C644 C645 1.404 . S
C644 C647 1.539 . S
C645 C641 1.408 . S
C645 C644 1.404 . S
C645 H657 0.930 . S
C646 C642 1.524 1_554 S
C646 H658 0.956 . S
C646 H659 0.961 . S
C646 H660 0.961 . S
C647 C644 1.539 . S
C647 H661 0.958 . S
C647 H662 0.961 . S
C647 H663 0.960 . S
H648 C632 0.931 . S
H649 C637 0.929 . S
H650 C638 0.960 . S
H651 C638 0.962 . S
H652 C638 0.960 . S
H653 C639 0.961 . S
H654 C639 0.961 . S
H655 C639 0.961 . S
H656 C640 0.931 . S
H657 C645 0.930 . S
H658 C646 0.956 . S
H659 C646 0.961 . S
H660 C646 0.961 . S
H661 C647 0.958 . S
H662 C647 0.961 . S
H663 C647 0.960 . S
C664 C665 1.391 . S
C664 C666 1.394 . S
C664 H680 0.931 . S
C665 C664 1.391 . S
C665 C669 1.376 . S
C666 C664 1.394 . S
C666 C667 1.369 . S
C666 C670 1.531 . S
C667 C666 1.369 . S
C667 C668 1.410 . S
C667 C675 1.503 . S
C668 C667 1.410 . S
C668 C669 1.392 . S
C668 C671 1.511 1_556 S
C669 C665 1.376 . S
C669 C668 1.392 . S
C669 H681 0.928 1_556 S
C670 C666 1.531 . S
C670 H682 0.960 . S
C670 H683 0.962 . S
C670 H684 0.960 . S
C671 C668 1.511 1_554 S
C671 H685 0.961 . S
C671 H686 0.961 . S
C671 H687 0.961 . S
C672 C673 1.370 . S
C672 C674 1.363 . S
C672 H688 0.931 . S
C673 C672 1.370 . S
C673 C677 1.408 . S
C674 C672 1.363 . S
C674 C675 1.370 . S
C674 C678 1.524 . S
C675 C667 1.503 . S
C675 C674 1.370 . S
C675 C676 1.403 . S
C676 C675 1.403 . S
C676 C677 1.404 . S
C676 C679 1.539 . S
C677 C673 1.408 . S
C677 C676 1.404 . S
C677 H689 0.930 . S
C678 C674 1.524 . S
C678 H690 0.956 . S
C678 H691 0.961 . S
C678 H692 0.961 . S
C679 C676 1.539 . S
C679 H693 0.958 . S
C679 H694 0.961 . S
C679 H695 0.960 . S
H680 C664 0.931 . S
H681 C669 0.928 1_554 S
H682 C670 0.960 . S
H683 C670 0.962 . S
H684 C670 0.960 . S
H685 C671 0.961 . S
H686 C671 0.961 . S
H687 C671 0.961 . S
H688 C672 0.931 . S
H689 C677 0.930 . S
H690 C678 0.956 . S
H691 C678 0.961 . S
H692 C678 0.961 . S
H693 C679 0.958 . S
H694 C679 0.961 . S
H695 C679 0.960 . S
C696 C697 1.391 . S
C696 C698 1.394 . S
C696 H712 0.931 . S
C697 C696 1.391 . S
C697 C701 1.376 . S
C698 C696 1.394 . S
C698 C699 1.369 . S
C698 C702 1.531 . S
C699 C698 1.369 . S
C699 C700 1.410 . S
C699 C707 1.503 . S
C700 C699 1.410 . S
C700 C701 1.392 . S
C700 C703 1.511 . S
C701 C697 1.376 . S
C701 C700 1.392 . S
C701 H713 0.929 . S
C702 C698 1.531 . S
C702 H714 0.960 . S
C702 H715 0.962 . S
C702 H716 0.960 . S
C703 C700 1.511 . S
C703 H717 0.961 . S
C703 H718 0.961 . S
C703 H719 0.961 . S
C704 C705 1.370 . S
C704 C706 1.363 . S
C704 H720 0.931 . S
C705 C704 1.370 . S
C705 C709 1.408 . S
C706 C704 1.363 . S
C706 C707 1.370 . S
C706 C710 1.524 . S
C707 C699 1.503 . S
C707 C706 1.370 . S
C707 C708 1.403 . S
C708 C707 1.403 . S
C708 C709 1.404 . S
C708 C711 1.539 . S
C709 C705 1.408 . S
C709 C708 1.404 . S
C709 H721 0.930 . S
C710 C706 1.524 . S
C710 H722 0.956 . S
C710 H723 0.961 . S
C710 H724 0.961 . S
C711 C708 1.539 . S
C711 H725 0.958 . S
C711 H726 0.961 . S
C711 H727 0.960 . S
H712 C696 0.931 . S
H713 C701 0.929 . S
H714 C702 0.960 . S
H715 C702 0.962 . S
H716 C702 0.960 . S
H717 C703 0.961 . S
H718 C703 0.961 . S
H719 C703 0.961 . S
H720 C704 0.931 . S
H721 C709 0.930 . S
H722 C710 0.956 . S
H723 C710 0.961 . S
H724 C710 0.961 . S
H725 C711 0.958 . S
H726 C711 0.961 . S
H727 C711 0.960 . S
C728 C729 1.391 . S
C728 C730 1.394 . S
C728 H744 0.931 . S
C729 C728 1.391 . S
C729 C733 1.376 . S
C730 C728 1.394 . S
C730 C731 1.369 . S
C730 C734 1.531 . S
C731 C730 1.369 . S
C731 C732 1.410 . S
C731 C739 1.503 . S
C732 C731 1.410 . S
C732 C733 1.392 . S
C732 C735 1.511 . S
C733 C729 1.376 . S
C733 C732 1.392 . S
C733 H745 0.929 . S
C734 C730 1.531 . S
C734 H746 0.960 . S
C734 H747 0.962 . S
C734 H748 0.960 . S
C735 C732 1.511 . S
C735 H749 0.961 . S
C735 H750 0.961 . S
C735 H751 0.961 . S
C736 C737 1.370 . S
C736 C738 1.363 . S
C736 H752 0.931 . S
C737 C736 1.370 . S
C737 C741 1.408 . S
C738 C736 1.363 . S
C738 C739 1.370 . S
C738 C742 1.524 . S
C739 C731 1.503 . S
C739 C738 1.370 . S
C739 C740 1.403 . S
C740 C739 1.403 . S
C740 C741 1.404 . S
C740 C743 1.539 . S
C741 C737 1.408 . S
C741 C740 1.404 . S
C741 H753 0.930 . S
C742 C738 1.524 . S
C742 H754 0.956 . S
C742 H755 0.961 . S
C742 H756 0.961 . S
C743 C740 1.539 . S
C743 H757 0.958 . S
C743 H758 0.961 . S
C743 H759 0.960 . S
H744 C728 0.931 . S
H745 C733 0.929 . S
H746 C734 0.960 . S
H747 C734 0.962 . S
H748 C734 0.960 . S
H749 C735 0.961 . S
H750 C735 0.961 . S
H751 C735 0.961 . S
H752 C736 0.931 . S
H753 C741 0.930 . S
H754 C742 0.956 . S
H755 C742 0.961 . S
H756 C742 0.961 . S
H757 C743 0.958 . S
H758 C743 0.961 . S
H759 C743 0.960 . S
C760 C761 1.391 . S
C760 C762 1.394 . S
C760 H776 0.931 . S
C761 C760 1.391 . S
C761 C765 1.376 . S
C762 C760 1.394 . S
C762 C763 1.369 . S
C762 C766 1.531 . S
C763 C762 1.369 . S
C763 C764 1.410 . S
C763 C771 1.503 . S
C764 C763 1.410 . S
C764 C765 1.392 . S
C764 C767 1.511 . S
C765 C761 1.376 . S
C765 C764 1.392 . S
C765 H777 0.929 . S
C766 C762 1.531 . S
C766 H778 0.960 . S
C766 H779 0.962 . S
C766 H780 0.960 . S
C767 C764 1.511 . S
C767 H781 0.961 . S
C767 H782 0.961 . S
C767 H783 0.961 . S
C768 C769 1.370 . S
C768 C770 1.363 . S
C768 H784 0.931 . S
C769 C768 1.370 . S
C769 C773 1.408 . S
C770 C768 1.363 . S
C770 C771 1.370 . S
C770 C774 1.524 . S
C771 C763 1.503 . S
C771 C770 1.370 . S
C771 C772 1.403 . S
C772 C771 1.403 . S
C772 C773 1.404 . S
C772 C775 1.539 . S
C773 C769 1.408 . S
C773 C772 1.404 . S
C773 H785 0.930 . S
C774 C770 1.524 . S
C774 H786 0.956 . S
C774 H787 0.961 . S
C774 H788 0.961 . S
C775 C772 1.539 . S
C775 H789 0.958 . S
C775 H790 0.961 . S
C775 H791 0.960 . S
H776 C760 0.931 . S
H777 C765 0.929 . S
H778 C766 0.960 . S
H779 C766 0.962 . S
H780 C766 0.960 . S
H781 C767 0.961 . S
H782 C767 0.961 . S
H783 C767 0.961 . S
H784 C768 0.931 . S
H785 C773 0.930 . S
H786 C774 0.956 . S
H787 C774 0.961 . S
H788 C774 0.961 . S
H789 C775 0.958 . S
H790 C775 0.961 . S
H791 C775 0.960 . S
C792 C793 1.391 . S
C792 C794 1.394 . S
C792 H808 0.931 . S
C793 C792 1.391 . S
C793 C797 1.376 . S
C794 C792 1.394 . S
C794 C795 1.369 . S
C794 C798 1.531 . S
C795 C794 1.369 . S
C795 C796 1.410 . S
C795 C803 1.503 . S
C796 C795 1.410 . S
C796 C797 1.392 . S
C796 C799 1.511 . S
C797 C793 1.376 . S
C797 C796 1.392 . S
C797 H809 0.929 . S
C798 C794 1.531 . S
C798 H810 0.960 . S
C798 H811 0.962 . S
C798 H812 0.960 . S
C799 C796 1.511 . S
C799 H813 0.961 . S
C799 H814 0.961 . S
C799 H815 0.961 . S
C800 C801 1.370 . S
C800 C802 1.363 . S
C800 H816 0.931 . S
C801 C800 1.370 . S
C801 C805 1.408 . S
C802 C800 1.363 . S
C802 C803 1.370 . S
C802 C806 1.524 . S
C803 C795 1.503 . S
C803 C802 1.370 . S
C803 C804 1.403 . S
C804 C803 1.403 . S
C804 C805 1.404 . S
C804 C807 1.539 . S
C805 C801 1.408 . S
C805 C804 1.404 . S
C805 H817 0.930 . S
C806 C802 1.524 . S
C806 H818 0.956 . S
C806 H819 0.961 . S
C806 H820 0.961 . S
C807 C804 1.539 . S
C807 H821 0.958 . S
C807 H822 0.961 . S
C807 H823 0.960 . S
H808 C792 0.931 . S
H809 C797 0.929 . S
H810 C798 0.960 . S
H811 C798 0.962 . S
H812 C798 0.960 . S
H813 C799 0.961 . S
H814 C799 0.961 . S
H815 C799 0.961 . S
H816 C800 0.931 . S
H817 C805 0.930 . S
H818 C806 0.956 . S
H819 C806 0.961 . S
H820 C806 0.961 . S
H821 C807 0.958 . S
H822 C807 0.961 . S
H823 C807 0.960 . S
C824 C825 1.391 . S
C824 C826 1.394 . S
C824 H840 0.931 . S
C825 C824 1.391 . S
C825 C829 1.376 . S
C826 C824 1.394 . S
C826 C827 1.369 . S
C826 C830 1.531 . S
C827 C826 1.369 . S
C827 C828 1.410 . S
C827 C835 1.503 . S
C828 C827 1.410 . S
C828 C829 1.392 . S
C828 C831 1.511 . S
C829 C825 1.376 . S
C829 C828 1.392 . S
C829 H841 0.929 . S
C830 C826 1.531 . S
C830 H842 0.960 . S
C830 H843 0.962 . S
C830 H844 0.960 . S
C831 C828 1.511 . S
C831 H845 0.961 . S
C831 H846 0.961 . S
C831 H847 0.961 . S
C832 C833 1.370 . S
C832 C834 1.363 . S
C832 H848 0.931 . S
C833 C832 1.370 . S
C833 C837 1.408 . S
C834 C832 1.363 . S
C834 C835 1.370 . S
C834 C838 1.524 . S
C835 C827 1.503 . S
C835 C834 1.370 . S
C835 C836 1.403 . S
C836 C835 1.403 . S
C836 C837 1.404 . S
C836 C839 1.539 . S
C837 C833 1.408 . S
C837 C836 1.404 . S
C837 H849 0.930 . S
C838 C834 1.524 . S
C838 H850 0.956 . S
C838 H851 0.961 . S
C838 H852 0.961 . S
C839 C836 1.539 . S
C839 H853 0.958 . S
C839 H854 0.961 . S
C839 H855 0.960 . S
H840 C824 0.931 . S
H841 C829 0.929 . S
H842 C830 0.960 . S
H843 C830 0.962 . S
H844 C830 0.960 . S
H845 C831 0.961 . S
H846 C831 0.961 . S
H847 C831 0.961 . S
H848 C832 0.931 . S
H849 C837 0.930 . S
H850 C838 0.956 . S
H851 C838 0.961 . S
H852 C838 0.961 . S
H853 C839 0.958 . S
H854 C839 0.961 . S
H855 C839 0.960 . S
C856 C857 1.391 . S
C856 C858 1.394 . S
C856 H872 0.931 . S
C857 C856 1.391 . S
C857 C861 1.376 . S
C858 C856 1.394 . S
C858 C859 1.369 . S
C858 C862 1.531 . S
C859 C858 1.369 . S
C859 C860 1.410 . S
C859 C867 1.503 . S
C860 C859 1.410 . S
C860 C861 1.392 . S
C860 C863 1.511 . S
C861 C857 1.376 . S
C861 C860 1.392 . S
C861 H873 0.929 . S
C862 C858 1.531 . S
C862 H874 0.960 . S
C862 H875 0.962 . S
C862 H876 0.960 . S
C863 C860 1.511 . S
C863 H877 0.961 . S
C863 H878 0.961 . S
C863 H879 0.961 . S
C864 C865 1.370 . S
C864 C866 1.363 . S
C864 H880 0.931 . S
C865 C864 1.370 . S
C865 C869 1.408 . S
C866 C864 1.363 . S
C866 C867 1.370 . S
C866 C870 1.524 . S
C867 C859 1.503 . S
C867 C866 1.370 . S
C867 C868 1.403 . S
C868 C867 1.403 . S
C868 C869 1.404 . S
C868 C871 1.539 . S
C869 C865 1.408 . S
C869 C868 1.404 . S
C869 H881 0.930 . S
C870 C866 1.524 . S
C870 H882 0.956 . S
C870 H883 0.961 . S
C870 H884 0.961 . S
C871 C868 1.539 . S
C871 H885 0.958 . S
C871 H886 0.961 . S
C871 H887 0.960 . S
H872 C856 0.931 . S
H873 C861 0.929 . S
H874 C862 0.960 . S
H875 C862 0.962 . S
H876 C862 0.960 . S
H877 C863 0.961 . S
H878 C863 0.961 . S
H879 C863 0.961 . S
H880 C864 0.931 . S
H881 C869 0.930 . S
H882 C870 0.956 . S
H883 C870 0.961 . S
H884 C870 0.961 . S
H885 C871 0.958 . S
H886 C871 0.961 . S
H887 C871 0.960 . S
C888 C889 1.391 . S
C888 C890 1.394 . S
C888 H904 0.931 . S
C889 C888 1.391 . S
C889 C893 1.376 . S
C890 C888 1.394 . S
C890 C891 1.369 . S
C890 C894 1.531 . S
C891 C890 1.369 . S
C891 C892 1.410 . S
C891 C899 1.503 . S
C892 C891 1.410 . S
C892 C893 1.392 . S
C892 C895 1.511 . S
C893 C889 1.376 . S
C893 C892 1.392 . S
C893 H905 0.929 . S
C894 C890 1.531 . S
C894 H906 0.960 . S
C894 H907 0.962 . S
C894 H908 0.960 . S
C895 C892 1.511 . S
C895 H909 0.961 . S
C895 H910 0.961 . S
C895 H911 0.961 . S
C896 C897 1.370 . S
C896 C898 1.363 . S
C896 H912 0.931 . S
C897 C896 1.370 . S
C897 C901 1.408 . S
C898 C896 1.363 . S
C898 C899 1.370 . S
C898 C902 1.524 . S
C899 C891 1.503 . S
C899 C898 1.370 . S
C899 C900 1.403 . S
C900 C899 1.403 . S
C900 C901 1.404 . S
C900 C903 1.539 . S
C901 C897 1.408 . S
C901 C900 1.404 . S
C901 H913 0.930 . S
C902 C898 1.524 . S
C902 H914 0.956 . S
C902 H915 0.961 . S
C902 H916 0.961 . S
C903 C900 1.539 . S
C903 H917 0.958 . S
C903 H918 0.961 . S
C903 H919 0.960 . S
H904 C888 0.931 . S
H905 C893 0.929 . S
H906 C894 0.960 . S
H907 C894 0.962 . S
H908 C894 0.960 . S
H909 C895 0.961 . S
H910 C895 0.961 . S
H911 C895 0.961 . S
H912 C896 0.931 . S
H913 C901 0.930 . S
H914 C902 0.956 . S
H915 C902 0.961 . S
H916 C902 0.961 . S
H917 C903 0.958 . S
H918 C903 0.961 . S
H919 C903 0.960 . S
C920 C921 1.391 . S
C920 C922 1.394 . S
C920 H936 0.931 . S
C921 C920 1.391 . S
C921 C925 1.376 . S
C922 C920 1.394 . S
C922 C923 1.369 . S
C922 C926 1.531 . S
C923 C922 1.369 . S
C923 C924 1.410 . S
C923 C931 1.503 . S
C924 C923 1.410 . S
C924 C925 1.392 . S
C924 C927 1.511 . S
C925 C921 1.376 . S
C925 C924 1.392 . S
C925 H937 0.929 . S
C926 C922 1.531 . S
C926 H938 0.960 . S
C926 H939 0.962 . S
C926 H940 0.960 . S
C927 C924 1.511 . S
C927 H941 0.961 . S
C927 H942 0.961 . S
C927 H943 0.961 . S
C928 C929 1.370 . S
C928 C930 1.363 . S
C928 H944 0.931 . S
C929 C928 1.370 . S
C929 C933 1.408 . S
C930 C928 1.363 . S
C930 C931 1.370 . S
C930 C934 1.524 . S
C931 C923 1.503 . S
C931 C930 1.370 . S
C931 C932 1.403 . S
C932 C931 1.403 . S
C932 C933 1.404 . S
C932 C935 1.539 . S
C933 C929 1.408 . S
C933 C932 1.404 . S
C933 H945 0.930 . S
C934 C930 1.524 . S
C934 H946 0.956 . S
C934 H947 0.961 . S
C934 H948 0.961 . S
C935 C932 1.539 . S
C935 H949 0.958 . S
C935 H950 0.961 . S
C935 H951 0.960 . S
H936 C920 0.931 . S
H937 C925 0.929 . S
H938 C926 0.960 . S
H939 C926 0.962 . S
H940 C926 0.960 . S
H941 C927 0.961 . S
H942 C927 0.961 . S
H943 C927 0.961 . S
H944 C928 0.931 . S
H945 C933 0.930 . S
H946 C934 0.956 . S
H947 C934 0.961 . S
H948 C934 0.961 . S
H949 C935 0.958 . S
H950 C935 0.961 . S
H951 C935 0.960 . S
C952 C953 1.391 . S
C952 C954 1.394 . S
C952 H968 0.931 . S
C953 C952 1.391 . S
C953 C957 1.376 . S
C954 C952 1.394 . S
C954 C955 1.369 . S
C954 C958 1.531 . S
C955 C954 1.369 . S
C955 C956 1.410 . S
C955 C963 1.503 . S
C956 C955 1.410 . S
C956 C957 1.392 . S
C956 C959 1.511 . S
C957 C953 1.376 . S
C957 C956 1.392 . S
C957 H969 0.929 . S
C958 C954 1.531 . S
C958 H970 0.960 . S
C958 H971 0.962 . S
C958 H972 0.960 . S
C959 C956 1.511 . S
C959 H973 0.961 . S
C959 H974 0.961 . S
C959 H975 0.961 . S
C960 C961 1.370 . S
C960 C962 1.363 . S
C960 H976 0.931 . S
C961 C960 1.370 . S
C961 C965 1.408 . S
C962 C960 1.363 . S
C962 C963 1.370 . S
C962 C966 1.524 . S
C963 C955 1.503 . S
C963 C962 1.370 . S
C963 C964 1.403 . S
C964 C963 1.403 . S
C964 C965 1.404 . S
C964 C967 1.539 . S
C965 C961 1.408 . S
C965 C964 1.404 . S
C965 H977 0.930 . S
C966 C962 1.524 . S
C966 H978 0.956 . S
C966 H979 0.961 . S
C966 H980 0.961 . S
C967 C964 1.539 . S
C967 H981 0.958 . S
C967 H982 0.961 . S
C967 H983 0.960 . S
H968 C952 0.931 . S
H969 C957 0.929 . S
H970 C958 0.960 . S
H971 C958 0.962 . S
H972 C958 0.960 . S
H973 C959 0.961 . S
H974 C959 0.961 . S
H975 C959 0.961 . S
H976 C960 0.931 . S
H977 C965 0.930 . S
H978 C966 0.956 . S
H979 C966 0.961 . S
H980 C966 0.961 . S
H981 C967 0.958 . S
H982 C967 0.961 . S
H983 C967 0.960 . S
C984 C985 1.391 . S
C984 C986 1.394 . S
C984 H1000 0.931 . S
C985 C984 1.391 . S
C985 C989 1.376 . S
C986 C984 1.394 . S
C986 C987 1.369 . S
C986 C990 1.531 . S
C987 C986 1.369 . S
C987 C988 1.410 . S
C987 C995 1.503 . S
C988 C987 1.410 . S
C988 C989 1.392 . S
C988 C991 1.511 . S
C989 C985 1.376 . S
C989 C988 1.392 . S
C989 H1001 0.929 . S
C990 C986 1.531 . S
C990 H1002 0.960 . S
C990 H1003 0.962 . S
C990 H1004 0.960 . S
C991 C988 1.511 . S
C991 H1005 0.961 . S
C991 H1006 0.961 . S
C991 H1007 0.961 . S
C992 C993 1.370 . S
C992 C994 1.363 . S
C992 H1008 0.931 . S
C993 C992 1.370 . S
C993 C997 1.408 . S
C994 C992 1.363 . S
C994 C995 1.370 . S
C994 C998 1.524 . S
C995 C987 1.503 . S
C995 C994 1.370 . S
C995 C996 1.403 . S
C996 C995 1.403 . S
C996 C997 1.404 . S
C996 C999 1.539 . S
C997 C993 1.408 . S
C997 C996 1.404 . S
C997 H1009 0.930 . S
C998 C994 1.524 . S
C998 H1010 0.956 . S
C998 H1011 0.961 . S
C998 H1012 0.961 . S
C999 C996 1.539 . S
C999 H1013 0.958 . S
C999 H1014 0.961 . S
C999 H1015 0.960 . S
H1000 C984 0.931 . S
H1001 C989 0.929 . S
H1002 C990 0.960 . S
H1003 C990 0.962 . S
H1004 C990 0.960 . S
H1005 C991 0.961 . S
H1006 C991 0.961 . S
H1007 C991 0.961 . S
H1008 C992 0.931 . S
H1009 C997 0.930 . S
H1010 C998 0.956 . S
H1011 C998 0.961 . S
H1012 C998 0.961 . S
H1013 C999 0.958 . S
H1014 C999 0.961 . S
H1015 C999 0.960 . S
C1016 C1017 1.391 . S
C1016 C1018 1.394 . S
C1016 H1032 0.931 . S
C1017 C1016 1.391 . S
C1017 C1021 1.376 . S
C1018 C1016 1.394 . S
C1018 C1019 1.369 . S
C1018 C1022 1.531 . S
C1019 C1018 1.369 . S
C1019 C1020 1.410 . S
C1019 C1027 1.503 . S
C1020 C1019 1.410 . S
C1020 C1021 1.392 . S
C1020 C1023 1.511 . S
C1021 C1017 1.376 . S
C1021 C1020 1.392 . S
C1021 H1033 0.929 . S
C1022 C1018 1.531 . S
C1022 H1034 0.960 . S
C1022 H1035 0.962 . S
C1022 H1036 0.960 . S
C1023 C1020 1.511 . S
C1023 H1037 0.961 . S
C1023 H1038 0.961 . S
C1023 H1039 0.961 . S
C1024 C1025 1.370 . S
C1024 C1026 1.363 . S
C1024 H1040 0.931 . S
C1025 C1024 1.370 . S
C1025 C1029 1.408 . S
C1026 C1024 1.363 . S
C1026 C1027 1.370 . S
C1026 C1030 1.524 . S
C1027 C1019 1.503 . S
C1027 C1026 1.370 . S
C1027 C1028 1.403 . S
C1028 C1027 1.403 . S
C1028 C1029 1.404 . S
C1028 C1031 1.539 . S
C1029 C1025 1.408 . S
C1029 C1028 1.404 . S
C1029 H1041 0.930 . S
C1030 C1026 1.524 . S
C1030 H1042 0.956 . S
C1030 H1043 0.961 . S
C1030 H1044 0.961 . S
C1031 C1028 1.539 . S
C1031 H1045 0.958 . S
C1031 H1046 0.961 . S
C1031 H1047 0.960 . S
H1032 C1016 0.931 . S
H1033 C1021 0.929 . S
H1034 C1022 0.960 . S
H1035 C1022 0.962 . S
H1036 C1022 0.960 . S
H1037 C1023 0.961 . S
H1038 C1023 0.961 . S
H1039 C1023 0.961 . S
H1040 C1024 0.931 . S
H1041 C1029 0.930 . S
H1042 C1030 0.956 . S
H1043 C1030 0.961 . S
H1044 C1030 0.961 . S
H1045 C1031 0.958 . S
H1046 C1031 0.961 . S
H1047 C1031 0.960 . S
C1048 C1049 1.391 . S
C1048 C1050 1.394 . S
C1048 H1064 0.931 . S
C1049 C1048 1.391 . S
C1049 C1053 1.376 . S
C1050 C1048 1.394 . S
C1050 C1051 1.369 . S
C1050 C1054 1.531 . S
C1051 C1050 1.369 . S
C1051 C1052 1.410 . S
C1051 C1059 1.503 . S
C1052 C1051 1.410 . S
C1052 C1053 1.392 . S
C1052 C1055 1.511 . S
C1053 C1049 1.376 . S
C1053 C1052 1.392 . S
C1053 H1065 0.929 . S
C1054 C1050 1.531 . S
C1054 H1066 0.960 . S
C1054 H1067 0.962 . S
C1054 H1068 0.960 . S
C1055 C1052 1.511 . S
C1055 H1069 0.961 . S
C1055 H1070 0.961 . S
C1055 H1071 0.961 . S
C1056 C1057 1.370 . S
C1056 C1058 1.363 . S
C1056 H1072 0.931 . S
C1057 C1056 1.370 . S
C1057 C1061 1.408 . S
C1058 C1056 1.363 . S
C1058 C1059 1.370 . S
C1058 C1062 1.524 . S
C1059 C1051 1.503 . S
C1059 C1058 1.370 . S
C1059 C1060 1.403 . S
C1060 C1059 1.403 . S
C1060 C1061 1.404 . S
C1060 C1063 1.539 . S
C1061 C1057 1.408 . S
C1061 C1060 1.404 . S
C1061 H1073 0.930 . S
C1062 C1058 1.524 . S
C1062 H1074 0.956 . S
C1062 H1075 0.961 . S
C1062 H1076 0.961 . S
C1063 C1060 1.539 . S
C1063 H1077 0.958 . S
C1063 H1078 0.961 . S
C1063 H1079 0.960 . S
H1064 C1048 0.931 . S
H1065 C1053 0.929 . S
H1066 C1054 0.960 . S
H1067 C1054 0.962 . S
H1068 C1054 0.960 . S
H1069 C1055 0.961 . S
H1070 C1055 0.961 . S
H1071 C1055 0.961 . S
H1072 C1056 0.931 . S
H1073 C1061 0.930 . S
H1074 C1062 0.956 . S
H1075 C1062 0.961 . S
H1076 C1062 0.961 . S
H1077 C1063 0.958 . S
H1078 C1063 0.961 . S
H1079 C1063 0.960 . S
C1080 C1081 1.391 . S
C1080 C1082 1.394 . S
C1080 H1096 0.931 . S
C1081 C1080 1.391 . S
C1081 C1085 1.376 1_554 S
C1082 C1080 1.394 . S
C1082 C1083 1.369 . S
C1082 C1086 1.531 1_455 S
C1083 C1082 1.369 . S
C1083 C1084 1.410 1_554 S
C1083 C1091 1.503 1_454 S
C1084 C1083 1.410 1_556 S
C1084 C1085 1.392 . S
C1084 C1087 1.511 . S
C1085 C1081 1.376 1_556 S
C1085 C1084 1.392 . S
C1085 H1097 0.929 . S
C1086 C1082 1.531 1_655 S
C1086 H1098 0.960 . S
C1086 H1099 0.962 . S
C1086 H1100 0.960 1_655 S
C1087 C1084 1.511 . S
C1087 H1101 0.961 . S
C1087 H1102 0.961 . S
C1087 H1103 0.961 . S
C1088 C1089 1.370 . S
C1088 C1090 1.363 . S
C1088 H1104 0.931 . S
C1089 C1088 1.370 . S
C1089 C1093 1.408 . S
C1090 C1088 1.363 . S
C1090 C1091 1.370 . S
C1090 C1094 1.524 . S
C1091 C1083 1.503 1_656 S
C1091 C1090 1.370 . S
C1091 C1092 1.403 . S
C1092 C1091 1.403 . S
C1092 C1093 1.404 . S
C1092 C1095 1.539 . S
C1093 C1089 1.408 . S
C1093 C1092 1.404 . S
C1093 H1105 0.930 . S
C1094 C1090 1.524 . S
C1094 H1106 0.956 1_556 S
C1094 H1107 0.961 1_655 S
C1094 H1108 0.961 . S
C1095 C1092 1.539 . S
C1095 H1109 0.958 1_556 S
C1095 H1110 0.961 . S
C1095 H1111 0.960 1_655 S
H1096 C1080 0.931 . S
H1097 C1085 0.929 . S
H1098 C1086 0.960 . S
H1099 C1086 0.962 . S
H1100 C1086 0.960 1_455 S
H1101 C1087 0.961 . S
H1102 C1087 0.961 . S
H1103 C1087 0.961 . S
H1104 C1088 0.931 . S
H1105 C1093 0.930 . S
H1106 C1094 0.956 1_554 S
H1107 C1094 0.961 1_455 S
H1108 C1094 0.961 . S
H1109 C1095 0.958 1_554 S
H1110 C1095 0.961 . S
H1111 C1095 0.960 1_455 S
C1112 C1113 1.391 . S
C1112 C1114 1.394 . S
C1112 H1128 0.931 . S
C1113 C1112 1.391 . S
C1113 C1117 1.376 . S
C1114 C1112 1.394 . S
C1114 C1115 1.369 . S
C1114 C1118 1.531 1_556 S
C1115 C1114 1.369 . S
C1115 C1116 1.410 . S
C1115 C1123 1.503 1_556 S
C1116 C1115 1.410 . S
C1116 C1117 1.392 . S
C1116 C1119 1.511 . S
C1117 C1113 1.376 . S
C1117 C1116 1.392 . S
C1117 H1129 0.929 . S
C1118 C1114 1.531 1_554 S
C1118 H1130 0.959 1_554 S
C1118 H1131 0.962 . S
C1118 H1132 0.960 1_554 S
C1119 C1116 1.511 . S
C1119 H1133 0.961 . S
C1119 H1134 0.961 . S
C1119 H1135 0.961 . S
C1120 C1121 1.370 . S
C1120 C1122 1.363 . S
C1120 H1136 0.931 . S
C1121 C1120 1.370 . S
C1121 C1125 1.408 1_554 S
C1122 C1120 1.363 . S
C1122 C1123 1.370 . S
C1122 C1126 1.524 . S
C1123 C1115 1.503 1_554 S
C1123 C1122 1.370 . S
C1123 C1124 1.403 1_554 S
C1124 C1123 1.403 1_556 S
C1124 C1125 1.404 . S
C1124 C1127 1.539 . S
C1125 C1121 1.408 1_556 S
C1125 C1124 1.404 . S
C1125 H1137 0.930 . S
C1126 C1122 1.524 . S
C1126 H1138 0.956 . S
C1126 H1139 0.961 . S
C1126 H1140 0.961 . S
C1127 C1124 1.539 . S
C1127 H1141 0.958 . S
C1127 H1142 0.961 . S
C1127 H1143 0.960 . S
H1128 C1112 0.931 . S
H1129 C1117 0.929 . S
H1130 C1118 0.959 1_556 S
H1131 C1118 0.962 . S
H1132 C1118 0.960 1_556 S
H1133 C1119 0.961 . S
H1134 C1119 0.961 . S
H1135 C1119 0.961 . S
H1136 C1120 0.931 . S
H1137 C1125 0.930 . S
H1138 C1126 0.956 . S
H1139 C1126 0.961 . S
H1140 C1126 0.961 . S
H1141 C1127 0.958 . S
H1142 C1127 0.961 . S
H1143 C1127 0.960 . S
C1144 C1145 1.391 . S
C1144 C1146 1.394 1_554 S
C1144 H1160 0.931 . S
C1145 C1144 1.391 . S
C1145 C1149 1.376 . S
C1146 C1144 1.394 1_556 S
C1146 C1147 1.369 . S
C1146 C1150 1.531 . S
C1147 C1146 1.369 . S
C1147 C1148 1.407 1_556 S
C1147 C1155 1.505 1_565 S
C1148 C1147 1.407 1_554 S
C1148 C1149 1.392 . S
C1148 C1151 1.511 . S
C1149 C1145 1.376 . S
C1149 C1148 1.392 . S
C1149 H1161 0.929 . S
C1150 C1146 1.531 . S
C1150 H1162 0.960 . S
C1150 H1163 0.962 . S
C1150 H1164 0.960 . S
C1151 C1148 1.511 . S
C1151 H1165 0.961 . S
C1151 H1166 0.961 1_565 S
C1151 H1167 0.961 . S
C1152 C1153 1.370 . S
C1152 C1154 1.363 1_556 S
C1152 H1168 0.931 1_556 S
C1153 C1152 1.370 . S
C1153 C1157 1.408 . S
C1154 C1152 1.363 1_554 S
C1154 C1155 1.370 1_554 S
C1154 C1158 1.524 . S
C1155 C1147 1.505 1_545 S
C1155 C1154 1.370 1_556 S
C1155 C1156 1.403 . S
C1156 C1155 1.403 . S
C1156 C1157 1.404 . S
C1156 C1159 1.539 1_545 S
C1157 C1153 1.408 . S
C1157 C1156 1.404 . S
C1157 H1169 0.930 . S
C1158 C1154 1.524 . S
C1158 H1170 0.956 . S
C1158 H1171 0.961 . S
C1158 H1172 0.961 . S
C1159 C1156 1.539 1_565 S
C1159 H1173 0.958 . S
C1159 H1174 0.961 1_565 S
C1159 H1175 0.960 . S
H1160 C1144 0.931 . S
H1161 C1149 0.929 . S
H1162 C1150 0.960 . S
H1163 C1150 0.962 . S
H1164 C1150 0.960 . S
H1165 C1151 0.961 . S
H1166 C1151 0.961 1_545 S
H1167 C1151 0.961 . S
H1168 C1152 0.931 1_554 S
H1169 C1157 0.930 . S
H1170 C1158 0.956 . S
H1171 C1158 0.961 . S
H1172 C1158 0.961 . S
H1173 C1159 0.958 . S
H1174 C1159 0.961 1_545 S
H1175 C1159 0.960 . S
C1176 C1177 1.391 . S
C1176 C1178 1.394 . S
C1176 H1192 0.931 . S
C1177 C1176 1.391 . S
C1177 C1181 1.376 . S
C1178 C1176 1.394 . S
C1178 C1179 1.369 . S
C1178 C1182 1.531 1_556 S
C1179 C1178 1.369 . S
C1179 C1180 1.410 . S
C1179 C1187 1.503 1_656 S
C1180 C1179 1.410 . S
C1180 C1181 1.392 . S
C1180 C1183 1.511 1_655 S
C1181 C1177 1.376 . S
C1181 C1180 1.392 . S
C1181 H1193 0.929 . S
C1182 C1178 1.531 1_554 S
C1182 H1194 0.960 . S
C1182 H1195 0.962 . S
C1182 H1196 0.960 . S
C1183 C1180 1.511 1_455 S
C1183 H1197 0.961 1_455 S
C1183 H1198 0.961 . S
C1183 H1199 0.961 . S
C1184 C1185 1.370 . S
C1184 C1186 1.363 . S
C1184 H1200 0.931 . S
C1185 C1184 1.370 . S
C1185 C1189 1.408 . S
C1186 C1184 1.363 . S
C1186 C1187 1.370 . S
C1186 C1190 1.524 1_455 S
C1187 C1179 1.503 1_454 S
C1187 C1186 1.370 . S
C1187 C1188 1.403 1_554 S
C1188 C1187 1.403 1_556 S
C1188 C1189 1.404 1_556 S
C1188 C1191 1.539 . S
C1189 C1185 1.408 . S
C1189 C1188 1.404 1_554 S
C1189 H1201 0.930 1_554 S
C1190 C1186 1.524 1_655 S
C1190 H1202 0.956 . S
C1190 H1203 0.961 . S
C1190 H1204 0.961 1_655 S
C1191 C1188 1.539 . S
C1191 H1205 0.958 . S
C1191 H1206 0.961 . S
C1191 H1207 0.960 . S
H1192 C1176 0.931 . S
H1193 C1181 0.929 . S
H1194 C1182 0.960 . S
H1195 C1182 0.962 . S
H1196 C1182 0.960 . S
H1197 C1183 0.961 1_655 S
H1198 C1183 0.961 . S
H1199 C1183 0.961 . S
H1200 C1184 0.931 . S
H1201 C1189 0.930 1_556 S
H1202 C1190 0.956 . S
H1203 C1190 0.961 . S
H1204 C1190 0.961 1_455 S
H1205 C1191 0.958 . S
H1206 C1191 0.961 . S
H1207 C1191 0.960 . S
C1208 C1209 1.391 1_554 S
C1208 C1210 1.394 . S
C1208 H1224 0.931 . S
C1209 C1208 1.391 1_556 S
C1209 C1213 1.376 . S
C1210 C1208 1.394 . S
C1210 C1211 1.369 1_554 S
C1210 C1214 1.531 . S
C1211 C1210 1.369 1_556 S
C1211 C1212 1.410 . S
C1211 C1219 1.503 1_556 S
C1212 C1211 1.410 . S
C1212 C1213 1.392 . S
C1212 C1215 1.511 . S
C1213 C1209 1.376 . S
C1213 C1212 1.392 . S
C1213 H1225 0.929 . S
C1214 C1210 1.531 . S
C1214 H1226 0.960 . S
C1214 H1227 0.962 . S
C1214 H1228 0.960 . S
C1215 C1212 1.511 . S
C1215 H1229 0.961 . S
C1215 H1230 0.961 . S
C1215 H1231 0.961 . S
C1216 C1217 1.370 . S
C1216 C1218 1.363 . S
C1216 H1232 0.931 . S
C1217 C1216 1.370 . S
C1217 C1221 1.408 . S
C1218 C1216 1.363 . S
C1218 C1219 1.370 . S
C1218 C1222 1.524 1_554 S
C1219 C1211 1.503 1_554 S
C1219 C1218 1.370 . S
C1219 C1220 1.403 . S
C1220 C1219 1.403 . S
C1220 C1221 1.404 . S
C1220 C1223 1.539 . S
C1221 C1217 1.408 . S
C1221 C1220 1.404 . S
C1221 H1233 0.930 . S
C1222 C1218 1.524 1_556 S
C1222 H1234 0.956 1_556 S
C1222 H1235 0.961 . S
C1222 H1236 0.961 . S
C1223 C1220 1.539 . S
C1223 H1237 0.958 . S
C1223 H1238 0.961 . S
C1223 H1239 0.960 . S
H1224 C1208 0.931 . S
H1225 C1213 0.929 . S
H1226 C1214 0.960 . S
H1227 C1214 0.962 . S
H1228 C1214 0.960 . S
H1229 C1215 0.961 . S
H1230 C1215 0.961 . S
H1231 C1215 0.961 . S
H1232 C1216 0.931 . S
H1233 C1221 0.930 . S
H1234 C1222 0.956 1_554 S
H1235 C1222 0.961 . S
H1236 C1222 0.961 . S
H1237 C1223 0.958 . S
H1238 C1223 0.961 . S
H1239 C1223 0.960 . S
C1240 C1241 1.391 . S
C1240 C1242 1.394 . S
C1240 H1256 0.931 . S
C1241 C1240 1.391 . S
C1241 C1245 1.376 . S
C1242 C1240 1.394 . S
C1242 C1243 1.367 1_556 S
C1242 C1246 1.531 1_556 S
C1243 C1242 1.367 1_554 S
C1243 C1244 1.403 1_554 S
C1243 C1251 1.510 1_545 S
C1244 C1243 1.403 1_556 S
C1244 C1245 1.392 . S
C1244 C1247 1.511 . S
C1245 C1241 1.376 . S
C1245 C1244 1.392 . S
C1245 H1257 0.929 . S
C1246 C1242 1.531 1_554 S
C1246 H1258 0.960 . S
C1246 H1259 0.962 1_554 S
C1246 H1260 0.960 . S
C1247 C1244 1.511 . S
C1247 H1261 0.961 . S
C1247 H1262 0.961 1_545 S
C1247 H1263 0.961 1_556 S
C1248 C1249 1.370 1_556 S
C1248 C1250 1.363 . S
C1248 H1264 0.931 . S
C1249 C1248 1.370 1_554 S
C1249 C1253 1.408 . S
C1250 C1248 1.363 . S
C1250 C1251 1.370 1_556 S
C1250 C1254 1.524 . S
C1251 C1243 1.510 1_565 S
C1251 C1250 1.370 1_554 S
C1251 C1252 1.403 . S
C1252 C1251 1.403 . S
C1252 C1253 1.404 . S
C1252 C1255 1.539 1_565 S
C1253 C1249 1.408 . S
C1253 C1252 1.404 . S
C1253 H1265 0.930 . S
C1254 C1250 1.524 . S
C1254 H1266 0.956 . S
C1254 H1267 0.961 . S
C1254 H1268 0.961 . S
C1255 C1252 1.539 1_545 S
C1255 H1269 0.958 . S
C1255 H1270 0.961 1_545 S
C1255 H1271 0.960 . S
H1256 C1240 0.931 . S
H1257 C1245 0.929 . S
H1258 C1246 0.960 . S
H1259 C1246 0.962 1_556 S
H1260 C1246 0.960 . S
H1261 C1247 0.961 . S
H1262 C1247 0.961 1_565 S
H1263 C1247 0.961 1_554 S
H1264 C1248 0.931 . S
H1265 C1253 0.930 . S
H1266 C1254 0.956 . S
H1267 C1254 0.961 . S
H1268 C1254 0.961 . S
H1269 C1255 0.958 . S
H1270 C1255 0.961 1_565 S
H1271 C1255 0.960 . S
C1272 C1273 1.391 . S
C1272 C1274 1.394 . S
C1272 H1288 0.931 . S
C1273 C1272 1.391 . S
C1273 C1277 1.376 . S
C1274 C1272 1.394 . S
C1274 C1275 1.369 . S
C1274 C1278 1.531 . S
C1275 C1274 1.369 . S
C1275 C1276 1.410 . S
C1275 C1283 1.503 . S
C1276 C1275 1.410 . S
C1276 C1277 1.392 . S
C1276 C1279 1.511 . S
C1277 C1273 1.376 . S
C1277 C1276 1.392 . S
C1277 H1289 0.929 . S
C1278 C1274 1.531 . S
C1278 H1290 0.960 . S
C1278 H1291 0.962 . S
C1278 H1292 0.960 . S
C1279 C1276 1.511 . S
C1279 H1293 0.961 . S
C1279 H1294 0.961 . S
C1279 H1295 0.961 . S
C1280 C1281 1.370 . S
C1280 C1282 1.363 . S
C1280 H1296 0.931 . S
C1281 C1280 1.370 . S
C1281 C1285 1.408 . S
C1282 C1280 1.363 . S
C1282 C1283 1.370 . S
C1282 C1286 1.524 . S
C1283 C1275 1.503 . S
C1283 C1282 1.370 . S
C1283 C1284 1.403 . S
C1284 C1283 1.403 . S
C1284 C1285 1.404 . S
C1284 C1287 1.539 . S
C1285 C1281 1.408 . S
C1285 C1284 1.404 . S
C1285 H1297 0.930 . S
C1286 C1282 1.524 . S
C1286 H1298 0.956 . S
C1286 H1299 0.961 . S
C1286 H1300 0.961 . S
C1287 C1284 1.539 . S
C1287 H1301 0.958 . S
C1287 H1302 0.961 . S
C1287 H1303 0.960 . S
H1288 C1272 0.931 . S
H1289 C1277 0.929 . S
H1290 C1278 0.960 . S
H1291 C1278 0.962 . S
H1292 C1278 0.960 . S
H1293 C1279 0.961 . S
H1294 C1279 0.961 . S
H1295 C1279 0.961 . S
H1296 C1280 0.931 . S
H1297 C1285 0.930 . S
H1298 C1286 0.956 . S
H1299 C1286 0.961 . S
H1300 C1286 0.961 . S
H1301 C1287 0.958 . S
H1302 C1287 0.961 . S
H1303 C1287 0.960 . S
C1304 C1305 1.391 . S
C1304 C1306 1.394 . S
C1304 H1320 0.931 . S
C1305 C1304 1.391 . S
C1305 C1309 1.376 . S
C1306 C1304 1.394 . S
C1306 C1307 1.369 . S
C1306 C1310 1.531 . S
C1307 C1306 1.369 . S
C1307 C1308 1.410 . S
C1307 C1315 1.503 . S
C1308 C1307 1.410 . S
C1308 C1309 1.392 . S
C1308 C1311 1.511 . S
C1309 C1305 1.376 . S
C1309 C1308 1.392 . S
C1309 H1321 0.929 . S
C1310 C1306 1.531 . S
C1310 H1322 0.960 . S
C1310 H1323 0.962 . S
C1310 H1324 0.960 . S
C1311 C1308 1.511 . S
C1311 H1325 0.961 . S
C1311 H1326 0.961 . S
C1311 H1327 0.961 . S
C1312 C1313 1.370 . S
C1312 C1314 1.363 . S
C1312 H1328 0.931 . S
C1313 C1312 1.370 . S
C1313 C1317 1.408 . S
C1314 C1312 1.363 . S
C1314 C1315 1.370 . S
C1314 C1318 1.524 . S
C1315 C1307 1.503 . S
C1315 C1314 1.370 . S
C1315 C1316 1.403 . S
C1316 C1315 1.403 . S
C1316 C1317 1.404 . S
C1316 C1319 1.539 . S
C1317 C1313 1.408 . S
C1317 C1316 1.404 . S
C1317 H1329 0.930 . S
C1318 C1314 1.524 . S
C1318 H1330 0.956 . S
C1318 H1331 0.961 . S
C1318 H1332 0.961 . S
C1319 C1316 1.539 . S
C1319 H1333 0.958 . S
C1319 H1334 0.961 . S
C1319 H1335 0.960 . S
H1320 C1304 0.931 . S
H1321 C1309 0.929 . S
H1322 C1310 0.960 . S
H1323 C1310 0.962 . S
H1324 C1310 0.960 . S
H1325 C1311 0.961 . S
H1326 C1311 0.961 . S
H1327 C1311 0.961 . S
H1328 C1312 0.931 . S
H1329 C1317 0.930 . S
H1330 C1318 0.956 . S
H1331 C1318 0.961 . S
H1332 C1318 0.961 . S
H1333 C1319 0.958 . S
H1334 C1319 0.961 . S
H1335 C1319 0.960 . S
C1336 C1337 1.391 . S
C1336 C1338 1.394 . S
C1336 H1352 0.931 . S
C1337 C1336 1.391 . S
C1337 C1341 1.376 . S
C1338 C1336 1.394 . S
C1338 C1339 1.369 . S
C1338 C1342 1.531 . S
C1339 C1338 1.369 . S
C1339 C1340 1.410 . S
C1339 C1347 1.503 . S
C1340 C1339 1.410 . S
C1340 C1341 1.392 . S
C1340 C1343 1.511 . S
C1341 C1337 1.376 . S
C1341 C1340 1.392 . S
C1341 H1353 0.929 . S
C1342 C1338 1.531 . S
C1342 H1354 0.960 . S
C1342 H1355 0.962 . S
C1342 H1356 0.960 . S
C1343 C1340 1.511 . S
C1343 H1357 0.961 . S
C1343 H1358 0.961 . S
C1343 H1359 0.961 . S
C1344 C1345 1.370 . S
C1344 C1346 1.363 . S
C1344 H1360 0.931 . S
C1345 C1344 1.370 . S
C1345 C1349 1.408 . S
C1346 C1344 1.363 . S
C1346 C1347 1.370 . S
C1346 C1350 1.524 . S
C1347 C1339 1.503 . S
C1347 C1346 1.370 . S
C1347 C1348 1.403 . S
C1348 C1347 1.403 . S
C1348 C1349 1.404 . S
C1348 C1351 1.539 . S
C1349 C1345 1.408 . S
C1349 C1348 1.404 . S
C1349 H1361 0.930 . S
C1350 C1346 1.524 . S
C1350 H1362 0.956 . S
C1350 H1363 0.961 . S
C1350 H1364 0.961 . S
C1351 C1348 1.539 . S
C1351 H1365 0.958 . S
C1351 H1366 0.961 . S
C1351 H1367 0.960 . S
H1352 C1336 0.931 . S
H1353 C1341 0.929 . S
H1354 C1342 0.960 . S
H1355 C1342 0.962 . S
H1356 C1342 0.960 . S
H1357 C1343 0.961 . S
H1358 C1343 0.961 . S
H1359 C1343 0.961 . S
H1360 C1344 0.931 . S
H1361 C1349 0.930 . S
H1362 C1350 0.956 . S
H1363 C1350 0.961 . S
H1364 C1350 0.961 . S
H1365 C1351 0.958 . S
H1366 C1351 0.961 . S
H1367 C1351 0.960 . S
C1368 C1369 1.391 . S
C1368 C1370 1.394 . S
C1368 H1384 0.931 . S
C1369 C1368 1.391 . S
C1369 C1373 1.376 . S
C1370 C1368 1.394 . S
C1370 C1371 1.369 . S
C1370 C1374 1.531 . S
C1371 C1370 1.369 . S
C1371 C1372 1.410 . S
C1371 C1379 1.503 . S
C1372 C1371 1.410 . S
C1372 C1373 1.392 . S
C1372 C1375 1.511 . S
C1373 C1369 1.376 . S
C1373 C1372 1.392 . S
C1373 H1385 0.929 . S
C1374 C1370 1.531 . S
C1374 H1386 0.960 . S
C1374 H1387 0.962 . S
C1374 H1388 0.960 . S
C1375 C1372 1.511 . S
C1375 H1389 0.961 . S
C1375 H1390 0.961 . S
C1375 H1391 0.961 . S
C1376 C1377 1.370 . S
C1376 C1378 1.363 . S
C1376 H1392 0.931 . S
C1377 C1376 1.370 . S
C1377 C1381 1.408 . S
C1378 C1376 1.363 . S
C1378 C1379 1.370 . S
C1378 C1382 1.524 . S
C1379 C1371 1.503 . S
C1379 C1378 1.370 . S
C1379 C1380 1.403 . S
C1380 C1379 1.403 . S
C1380 C1381 1.404 . S
C1380 C1383 1.539 . S
C1381 C1377 1.408 . S
C1381 C1380 1.404 . S
C1381 H1393 0.930 . S
C1382 C1378 1.524 . S
C1382 H1394 0.956 . S
C1382 H1395 0.961 . S
C1382 H1396 0.961 . S
C1383 C1380 1.539 . S
C1383 H1397 0.958 . S
C1383 H1398 0.961 . S
C1383 H1399 0.960 . S
H1384 C1368 0.931 . S
H1385 C1373 0.929 . S
H1386 C1374 0.960 . S
H1387 C1374 0.962 . S
H1388 C1374 0.960 . S
H1389 C1375 0.961 . S
H1390 C1375 0.961 . S
H1391 C1375 0.961 . S
H1392 C1376 0.931 . S
H1393 C1381 0.930 . S
H1394 C1382 0.956 . S
H1395 C1382 0.961 . S
H1396 C1382 0.961 . S
H1397 C1383 0.958 . S
H1398 C1383 0.961 . S
H1399 C1383 0.960 . S
C1400 C1401 1.391 . S
C1400 C1402 1.394 . S
C1400 H1416 0.931 . S
C1401 C1400 1.391 . S
C1401 C1405 1.376 . S
C1402 C1400 1.394 . S
C1402 C1403 1.369 . S
C1402 C1406 1.531 . S
C1403 C1402 1.369 . S
C1403 C1404 1.410 . S
C1403 C1411 1.503 . S
C1404 C1403 1.410 . S
C1404 C1405 1.392 . S
C1404 C1407 1.511 . S
C1405 C1401 1.376 . S
C1405 C1404 1.392 . S
C1405 H1417 0.929 . S
C1406 C1402 1.531 . S
C1406 H1418 0.960 . S
C1406 H1419 0.962 . S
C1406 H1420 0.960 . S
C1407 C1404 1.511 . S
C1407 H1421 0.961 . S
C1407 H1422 0.961 . S
C1407 H1423 0.961 . S
C1408 C1409 1.370 . S
C1408 C1410 1.363 . S
C1408 H1424 0.931 . S
C1409 C1408 1.370 . S
C1409 C1413 1.408 . S
C1410 C1408 1.363 . S
C1410 C1411 1.370 . S
C1410 C1414 1.524 . S
C1411 C1403 1.503 . S
C1411 C1410 1.370 . S
C1411 C1412 1.403 . S
C1412 C1411 1.403 . S
C1412 C1413 1.404 . S
C1412 C1415 1.539 . S
C1413 C1409 1.408 . S
C1413 C1412 1.404 . S
C1413 H1425 0.930 . S
C1414 C1410 1.524 . S
C1414 H1426 0.956 . S
C1414 H1427 0.961 . S
C1414 H1428 0.961 . S
C1415 C1412 1.539 . S
C1415 H1429 0.958 . S
C1415 H1430 0.961 . S
C1415 H1431 0.960 . S
H1416 C1400 0.931 . S
H1417 C1405 0.929 . S
H1418 C1406 0.960 . S
H1419 C1406 0.962 . S
H1420 C1406 0.960 . S
H1421 C1407 0.961 . S
H1422 C1407 0.961 . S
H1423 C1407 0.961 . S
H1424 C1408 0.931 . S
H1425 C1413 0.930 . S
H1426 C1414 0.956 . S
H1427 C1414 0.961 . S
H1428 C1414 0.961 . S
H1429 C1415 0.958 . S
H1430 C1415 0.961 . S
H1431 C1415 0.960 . S
C1432 C1433 1.391 . S
C1432 C1434 1.394 . S
C1432 H1448 0.931 . S
C1433 C1432 1.391 . S
C1433 C1437 1.376 . S
C1434 C1432 1.394 . S
C1434 C1435 1.369 . S
C1434 C1438 1.531 . S
C1435 C1434 1.369 . S
C1435 C1436 1.410 . S
C1435 C1443 1.503 . S
C1436 C1435 1.410 . S
C1436 C1437 1.392 . S
C1436 C1439 1.511 . S
C1437 C1433 1.376 . S
C1437 C1436 1.392 . S
C1437 H1449 0.929 . S
C1438 C1434 1.531 . S
C1438 H1450 0.960 . S
C1438 H1451 0.962 . S
C1438 H1452 0.960 . S
C1439 C1436 1.511 . S
C1439 H1453 0.961 . S
C1439 H1454 0.961 . S
C1439 H1455 0.961 . S
C1440 C1441 1.370 . S
C1440 C1442 1.363 . S
C1440 H1456 0.931 . S
C1441 C1440 1.370 . S
C1441 C1445 1.408 . S
C1442 C1440 1.363 . S
C1442 C1443 1.370 . S
C1442 C1446 1.524 . S
C1443 C1435 1.503 . S
C1443 C1442 1.370 . S
C1443 C1444 1.403 . S
C1444 C1443 1.403 . S
C1444 C1445 1.404 . S
C1444 C1447 1.539 . S
C1445 C1441 1.408 . S
C1445 C1444 1.404 . S
C1445 H1457 0.930 . S
C1446 C1442 1.524 . S
C1446 H1458 0.956 . S
C1446 H1459 0.961 . S
C1446 H1460 0.961 . S
C1447 C1444 1.539 . S
C1447 H1461 0.958 . S
C1447 H1462 0.961 . S
C1447 H1463 0.960 . S
H1448 C1432 0.931 . S
H1449 C1437 0.929 . S
H1450 C1438 0.960 . S
H1451 C1438 0.962 . S
H1452 C1438 0.960 . S
H1453 C1439 0.961 . S
H1454 C1439 0.961 . S
H1455 C1439 0.961 . S
H1456 C1440 0.931 . S
H1457 C1445 0.930 . S
H1458 C1446 0.956 . S
H1459 C1446 0.961 . S
H1460 C1446 0.961 . S
H1461 C1447 0.958 . S
H1462 C1447 0.961 . S
H1463 C1447 0.960 . S
C1464 C1465 1.391 . S
C1464 C1466 1.394 . S
C1464 H1480 0.931 . S
C1465 C1464 1.391 . S
C1465 C1469 1.376 . S
C1466 C1464 1.394 . S
C1466 C1467 1.369 . S
C1466 C1470 1.531 . S
C1467 C1466 1.369 . S
C1467 C1468 1.410 . S
C1467 C1475 1.503 . S
C1468 C1467 1.410 . S
C1468 C1469 1.392 . S
C1468 C1471 1.511 . S
C1469 C1465 1.376 . S
C1469 C1468 1.392 . S
C1469 H1481 0.929 . S
C1470 C1466 1.531 . S
C1470 H1482 0.960 . S
C1470 H1483 0.962 . S
C1470 H1484 0.960 . S
C1471 C1468 1.511 . S
C1471 H1485 0.961 . S
C1471 H1486 0.961 . S
C1471 H1487 0.961 . S
C1472 C1473 1.370 . S
C1472 C1474 1.363 . S
C1472 H1488 0.931 . S
C1473 C1472 1.370 . S
C1473 C1477 1.408 . S
C1474 C1472 1.363 . S
C1474 C1475 1.370 . S
C1474 C1478 1.524 . S
C1475 C1467 1.503 . S
C1475 C1474 1.370 . S
C1475 C1476 1.403 . S
C1476 C1475 1.403 . S
C1476 C1477 1.404 . S
C1476 C1479 1.539 . S
C1477 C1473 1.408 . S
C1477 C1476 1.404 . S
C1477 H1489 0.930 . S
C1478 C1474 1.524 . S
C1478 H1490 0.956 . S
C1478 H1491 0.961 . S
C1478 H1492 0.961 . S
C1479 C1476 1.539 . S
C1479 H1493 0.958 . S
C1479 H1494 0.961 . S
C1479 H1495 0.960 . S
H1480 C1464 0.931 . S
H1481 C1469 0.929 . S
H1482 C1470 0.960 . S
H1483 C1470 0.962 . S
H1484 C1470 0.960 . S
H1485 C1471 0.961 . S
H1486 C1471 0.961 . S
H1487 C1471 0.961 . S
H1488 C1472 0.931 . S
H1489 C1477 0.930 . S
H1490 C1478 0.956 . S
H1491 C1478 0.961 . S
H1492 C1478 0.961 . S
H1493 C1479 0.958 . S
H1494 C1479 0.961 . S
H1495 C1479 0.960 . S
C1496 C1497 1.391 . S
C1496 C1498 1.394 . S
C1496 H1512 0.931 . S
C1497 C1496 1.391 . S
C1497 C1501 1.376 . S
C1498 C1496 1.394 . S
C1498 C1499 1.369 . S
C1498 C1502 1.531 . S
C1499 C1498 1.369 . S
C1499 C1500 1.410 . S
C1499 C1507 1.503 . S
C1500 C1499 1.410 . S
C1500 C1501 1.392 . S
C1500 C1503 1.511 . S
C1501 C1497 1.376 . S
C1501 C1500 1.392 . S
C1501 H1513 0.929 . S
C1502 C1498 1.531 . S
C1502 H1514 0.960 . S
C1502 H1515 0.962 . S
C1502 H1516 0.960 . S
C1503 C1500 1.511 . S
C1503 H1517 0.961 . S
C1503 H1518 0.961 . S
C1503 H1519 0.961 . S
C1504 C1505 1.370 . S
C1504 C1506 1.363 . S
C1504 H1520 0.931 . S
C1505 C1504 1.370 . S
C1505 C1509 1.408 . S
C1506 C1504 1.363 . S
C1506 C1507 1.370 . S
C1506 C1510 1.524 . S
C1507 C1499 1.503 . S
C1507 C1506 1.370 . S
C1507 C1508 1.403 . S
C1508 C1507 1.403 . S
C1508 C1509 1.404 . S
C1508 C1511 1.539 . S
C1509 C1505 1.408 . S
C1509 C1508 1.404 . S
C1509 H1521 0.930 . S
C1510 C1506 1.524 . S
C1510 H1522 0.956 . S
C1510 H1523 0.961 . S
C1510 H1524 0.961 . S
C1511 C1508 1.539 . S
C1511 H1525 0.958 . S
C1511 H1526 0.961 . S
C1511 H1527 0.960 . S
H1512 C1496 0.931 . S
H1513 C1501 0.929 . S
H1514 C1502 0.960 . S
H1515 C1502 0.962 . S
H1516 C1502 0.960 . S
H1517 C1503 0.961 . S
H1518 C1503 0.961 . S
H1519 C1503 0.961 . S
H1520 C1504 0.931 . S
H1521 C1509 0.930 . S
H1522 C1510 0.956 . S
H1523 C1510 0.961 . S
H1524 C1510 0.961 . S
H1525 C1511 0.958 . S
H1526 C1511 0.961 . S
H1527 C1511 0.960 . S
C1528 C1529 1.391 . S
C1528 C1530 1.394 . S
C1528 H1544 0.931 . S
C1529 C1528 1.391 . S
C1529 C1533 1.376 . S
C1530 C1528 1.394 . S
C1530 C1531 1.369 . S
C1530 C1534 1.531 . S
C1531 C1530 1.369 . S
C1531 C1532 1.410 . S
C1531 C1539 1.503 . S
C1532 C1531 1.410 . S
C1532 C1533 1.392 . S
C1532 C1535 1.511 . S
C1533 C1529 1.376 . S
C1533 C1532 1.392 . S
C1533 H1545 0.929 . S
C1534 C1530 1.531 . S
C1534 H1546 0.960 . S
C1534 H1547 0.962 . S
C1534 H1548 0.960 . S
C1535 C1532 1.511 . S
C1535 H1549 0.961 . S
C1535 H1550 0.961 . S
C1535 H1551 0.961 . S
C1536 C1537 1.370 . S
C1536 C1538 1.363 . S
C1536 H1552 0.931 . S
C1537 C1536 1.370 . S
C1537 C1541 1.408 . S
C1538 C1536 1.363 . S
C1538 C1539 1.370 . S
C1538 C1542 1.524 . S
C1539 C1531 1.503 . S
C1539 C1538 1.370 . S
C1539 C1540 1.403 . S
C1540 C1539 1.403 . S
C1540 C1541 1.404 . S
C1540 C1543 1.539 . S
C1541 C1537 1.408 . S
C1541 C1540 1.404 . S
C1541 H1553 0.930 . S
C1542 C1538 1.524 . S
C1542 H1554 0.956 . S
C1542 H1555 0.961 . S
C1542 H1556 0.961 . S
C1543 C1540 1.539 . S
C1543 H1557 0.958 . S
C1543 H1558 0.961 . S
C1543 H1559 0.960 . S
H1544 C1528 0.931 . S
H1545 C1533 0.929 . S
H1546 C1534 0.960 . S
H1547 C1534 0.962 . S
H1548 C1534 0.960 . S
H1549 C1535 0.961 . S
H1550 C1535 0.961 . S
H1551 C1535 0.961 . S
H1552 C1536 0.931 . S
H1553 C1541 0.930 . S
H1554 C1542 0.956 . S
H1555 C1542 0.961 . S
H1556 C1542 0.961 . S
H1557 C1543 0.958 . S
H1558 C1543 0.961 . S
H1559 C1543 0.960 . S
C1560 C1561 1.391 . S
C1560 C1562 1.394 . S
C1560 H1576 0.931 . S
C1561 C1560 1.391 . S
C1561 C1565 1.376 . S
C1562 C1560 1.394 . S
C1562 C1563 1.369 . S
C1562 C1566 1.531 . S
C1563 C1562 1.369 . S
C1563 C1564 1.410 . S
C1563 C1571 1.503 . S
C1564 C1563 1.410 . S
C1564 C1565 1.392 . S
C1564 C1567 1.511 . S
C1565 C1561 1.376 . S
C1565 C1564 1.392 . S
C1565 H1577 0.929 . S
C1566 C1562 1.531 . S
C1566 H1578 0.960 . S
C1566 H1579 0.962 . S
C1566 H1580 0.960 . S
C1567 C1564 1.511 . S
C1567 H1581 0.961 . S
C1567 H1582 0.961 . S
C1567 H1583 0.961 . S
C1568 C1569 1.370 . S
C1568 C1570 1.363 . S
C1568 H1584 0.931 . S
C1569 C1568 1.370 . S
C1569 C1573 1.408 . S
C1570 C1568 1.363 . S
C1570 C1571 1.370 . S
C1570 C1574 1.524 . S
C1571 C1563 1.503 . S
C1571 C1570 1.370 . S
C1571 C1572 1.403 . S
C1572 C1571 1.403 . S
C1572 C1573 1.404 . S
C1572 C1575 1.539 . S
C1573 C1569 1.408 . S
C1573 C1572 1.404 . S
C1573 H1585 0.930 . S
C1574 C1570 1.524 . S
C1574 H1586 0.956 . S
C1574 H1587 0.961 . S
C1574 H1588 0.961 . S
C1575 C1572 1.539 . S
C1575 H1589 0.958 . S
C1575 H1590 0.961 . S
C1575 H1591 0.960 . S
H1576 C1560 0.931 . S
H1577 C1565 0.929 . S
H1578 C1566 0.960 . S
H1579 C1566 0.962 . S
H1580 C1566 0.960 . S
H1581 C1567 0.961 . S
H1582 C1567 0.961 . S
H1583 C1567 0.961 . S
H1584 C1568 0.931 . S
H1585 C1573 0.930 . S
H1586 C1574 0.956 . S
H1587 C1574 0.961 . S
H1588 C1574 0.961 . S
H1589 C1575 0.958 . S
H1590 C1575 0.961 . S
H1591 C1575 0.960 . S
C1592 C1593 1.391 . S
C1592 C1594 1.394 . S
C1592 H1608 0.931 . S
C1593 C1592 1.391 . S
C1593 C1597 1.376 . S
C1594 C1592 1.394 . S
C1594 C1595 1.369 . S
C1594 C1598 1.531 . S
C1595 C1594 1.369 . S
C1595 C1596 1.410 . S
C1595 C1603 1.503 . S
C1596 C1595 1.410 . S
C1596 C1597 1.392 . S
C1596 C1599 1.511 . S
C1597 C1593 1.376 . S
C1597 C1596 1.392 . S
C1597 H1609 0.929 . S
C1598 C1594 1.531 . S
C1598 H1610 0.960 . S
C1598 H1611 0.962 . S
C1598 H1612 0.960 . S
C1599 C1596 1.511 . S
C1599 H1613 0.961 . S
C1599 H1614 0.961 . S
C1599 H1615 0.961 . S
C1600 C1601 1.370 . S
C1600 C1602 1.363 . S
C1600 H1616 0.931 . S
C1601 C1600 1.370 . S
C1601 C1605 1.408 . S
C1602 C1600 1.363 . S
C1602 C1603 1.370 . S
C1602 C1606 1.524 . S
C1603 C1595 1.503 . S
C1603 C1602 1.370 . S
C1603 C1604 1.403 . S
C1604 C1603 1.403 . S
C1604 C1605 1.404 . S
C1604 C1607 1.539 . S
C1605 C1601 1.408 . S
C1605 C1604 1.404 . S
C1605 H1617 0.930 . S
C1606 C1602 1.524 . S
C1606 H1618 0.956 . S
C1606 H1619 0.961 . S
C1606 H1620 0.961 . S
C1607 C1604 1.539 . S
C1607 H1621 0.958 . S
C1607 H1622 0.961 . S
C1607 H1623 0.960 . S
H1608 C1592 0.931 . S
H1609 C1597 0.929 . S
H1610 C1598 0.960 . S
H1611 C1598 0.962 . S
H1612 C1598 0.960 . S
H1613 C1599 0.961 . S
H1614 C1599 0.961 . S
H1615 C1599 0.961 . S
H1616 C1600 0.931 . S
H1617 C1605 0.930 . S
H1618 C1606 0.956 . S
H1619 C1606 0.961 . S
H1620 C1606 0.961 . S
H1621 C1607 0.958 . S
H1622 C1607 0.961 . S
H1623 C1607 0.960 . S
C1624 C1625 1.391 . S
C1624 C1626 1.394 . S
C1624 H1640 0.931 . S
C1625 C1624 1.391 . S
C1625 C1629 1.376 . S
C1626 C1624 1.394 . S
C1626 C1627 1.369 . S
C1626 C1630 1.531 . S
C1627 C1626 1.369 . S
C1627 C1628 1.410 . S
C1627 C1635 1.503 . S
C1628 C1627 1.410 . S
C1628 C1629 1.392 . S
C1628 C1631 1.511 . S
C1629 C1625 1.376 . S
C1629 C1628 1.392 . S
C1629 H1641 0.929 . S
C1630 C1626 1.531 . S
C1630 H1642 0.960 . S
C1630 H1643 0.962 . S
C1630 H1644 0.960 . S
C1631 C1628 1.511 . S
C1631 H1645 0.961 . S
C1631 H1646 0.961 . S
C1631 H1647 0.961 . S
C1632 C1633 1.370 . S
C1632 C1634 1.363 . S
C1632 H1648 0.931 . S
C1633 C1632 1.370 . S
C1633 C1637 1.408 . S
C1634 C1632 1.363 . S
C1634 C1635 1.370 . S
C1634 C1638 1.524 . S
C1635 C1627 1.503 . S
C1635 C1634 1.370 . S
C1635 C1636 1.403 . S
C1636 C1635 1.403 . S
C1636 C1637 1.404 . S
C1636 C1639 1.539 . S
C1637 C1633 1.408 . S
C1637 C1636 1.404 . S
C1637 H1649 0.930 . S
C1638 C1634 1.524 . S
C1638 H1650 0.956 . S
C1638 H1651 0.961 . S
C1638 H1652 0.961 . S
C1639 C1636 1.539 . S
C1639 H1653 0.958 . S
C1639 H1654 0.961 . S
C1639 H1655 0.960 . S
H1640 C1624 0.931 . S
H1641 C1629 0.929 . S
H1642 C1630 0.960 . S
H1643 C1630 0.962 . S
H1644 C1630 0.960 . S
H1645 C1631 0.961 . S
H1646 C1631 0.961 . S
H1647 C1631 0.961 . S
H1648 C1632 0.931 . S
H1649 C1637 0.930 . S
H1650 C1638 0.956 . S
H1651 C1638 0.961 . S
H1652 C1638 0.961 . S
H1653 C1639 0.958 . S
H1654 C1639 0.961 . S
H1655 C1639 0.960 . S
C1656 C1657 1.391 . S
C1656 C1658 1.394 . S
C1656 H1672 0.931 . S
C1657 C1656 1.391 . S
C1657 C1661 1.376 . S
C1658 C1656 1.394 . S
C1658 C1659 1.369 . S
C1658 C1662 1.531 . S
C1659 C1658 1.369 . S
C1659 C1660 1.410 . S
C1659 C1667 1.503 . S
C1660 C1659 1.410 . S
C1660 C1661 1.392 . S
C1660 C1663 1.511 . S
C1661 C1657 1.376 . S
C1661 C1660 1.392 . S
C1661 H1673 0.929 . S
C1662 C1658 1.531 . S
C1662 H1674 0.960 . S
C1662 H1675 0.962 . S
C1662 H1676 0.960 . S
C1663 C1660 1.511 . S
C1663 H1677 0.961 . S
C1663 H1678 0.961 . S
C1663 H1679 0.961 . S
C1664 C1665 1.370 . S
C1664 C1666 1.363 . S
C1664 H1680 0.931 . S
C1665 C1664 1.370 . S
C1665 C1669 1.408 . S
C1666 C1664 1.363 . S
C1666 C1667 1.370 . S
C1666 C1670 1.524 . S
C1667 C1659 1.503 . S
C1667 C1666 1.370 . S
C1667 C1668 1.403 . S
C1668 C1667 1.403 . S
C1668 C1669 1.404 . S
C1668 C1671 1.539 . S
C1669 C1665 1.408 . S
C1669 C1668 1.404 . S
C1669 H1681 0.930 . S
C1670 C1666 1.524 . S
C1670 H1682 0.956 . S
C1670 H1683 0.961 . S
C1670 H1684 0.961 . S
C1671 C1668 1.539 . S
C1671 H1685 0.958 . S
C1671 H1686 0.961 . S
C1671 H1687 0.960 . S
H1672 C1656 0.931 . S
H1673 C1661 0.929 . S
H1674 C1662 0.960 . S
H1675 C1662 0.962 . S
H1676 C1662 0.960 . S
H1677 C1663 0.961 . S
H1678 C1663 0.961 . S
H1679 C1663 0.961 . S
H1680 C1664 0.931 . S
H1681 C1669 0.930 . S
H1682 C1670 0.956 . S
H1683 C1670 0.961 . S
H1684 C1670 0.961 . S
H1685 C1671 0.958 . S
H1686 C1671 0.961 . S
H1687 C1671 0.960 . S
C1688 C1689 1.391 . S
C1688 C1690 1.394 . S
C1688 H1704 0.931 . S
C1689 C1688 1.391 . S
C1689 C1693 1.376 . S
C1690 C1688 1.394 . S
C1690 C1691 1.369 . S
C1690 C1694 1.531 . S
C1691 C1690 1.369 . S
C1691 C1692 1.410 . S
C1691 C1699 1.503 . S
C1692 C1691 1.410 . S
C1692 C1693 1.392 . S
C1692 C1695 1.511 . S
C1693 C1689 1.376 . S
C1693 C1692 1.392 . S
C1693 H1705 0.929 . S
C1694 C1690 1.531 . S
C1694 H1706 0.960 . S
C1694 H1707 0.962 . S
C1694 H1708 0.960 . S
C1695 C1692 1.511 . S
C1695 H1709 0.961 . S
C1695 H1710 0.961 . S
C1695 H1711 0.961 . S
C1696 C1697 1.370 . S
C1696 C1698 1.363 . S
C1696 H1712 0.931 . S
C1697 C1696 1.370 . S
C1697 C1701 1.408 . S
C1698 C1696 1.363 . S
C1698 C1699 1.370 . S
C1698 C1702 1.524 . S
C1699 C1691 1.503 . S
C1699 C1698 1.370 . S
C1699 C1700 1.403 . S
C1700 C1699 1.403 . S
C1700 C1701 1.404 . S
C1700 C1703 1.539 . S
C1701 C1697 1.408 . S
C1701 C1700 1.404 . S
C1701 H1713 0.930 . S
C1702 C1698 1.524 . S
C1702 H1714 0.956 . S
C1702 H1715 0.961 . S
C1702 H1716 0.961 . S
C1703 C1700 1.539 . S
C1703 H1717 0.958 . S
C1703 H1718 0.961 . S
C1703 H1719 0.960 . S
H1704 C1688 0.931 . S
H1705 C1693 0.929 . S
H1706 C1694 0.960 . S
H1707 C1694 0.962 . S
H1708 C1694 0.960 . S
H1709 C1695 0.961 . S
H1710 C1695 0.961 . S
H1711 C1695 0.961 . S
H1712 C1696 0.931 . S
H1713 C1701 0.930 . S
H1714 C1702 0.956 . S
H1715 C1702 0.961 . S
H1716 C1702 0.961 . S
H1717 C1703 0.958 . S
H1718 C1703 0.961 . S
H1719 C1703 0.960 . S
C1720 C1721 1.391 . S
C1720 C1722 1.394 . S
C1720 H1736 0.931 . S
C1721 C1720 1.391 . S
C1721 C1725 1.376 . S
C1722 C1720 1.394 . S
C1722 C1723 1.369 . S
C1722 C1726 1.531 . S
C1723 C1722 1.369 . S
C1723 C1724 1.410 . S
C1723 C1731 1.503 . S
C1724 C1723 1.410 . S
C1724 C1725 1.392 . S
C1724 C1727 1.511 . S
C1725 C1721 1.376 . S
C1725 C1724 1.392 . S
C1725 H1737 0.929 . S
C1726 C1722 1.531 . S
C1726 H1738 0.960 . S
C1726 H1739 0.962 . S
C1726 H1740 0.960 . S
C1727 C1724 1.511 . S
C1727 H1741 0.961 . S
C1727 H1742 0.961 . S
C1727 H1743 0.961 . S
C1728 C1729 1.370 . S
C1728 C1730 1.363 . S
C1728 H1744 0.931 . S
C1729 C1728 1.370 . S
C1729 C1733 1.408 . S
C1730 C1728 1.363 . S
C1730 C1731 1.370 . S
C1730 C1734 1.524 . S
C1731 C1723 1.503 . S
C1731 C1730 1.370 . S
C1731 C1732 1.403 . S
C1732 C1731 1.403 . S
C1732 C1733 1.404 . S
C1732 C1735 1.539 . S
C1733 C1729 1.408 . S
C1733 C1732 1.404 . S
C1733 H1745 0.930 . S
C1734 C1730 1.524 . S
C1734 H1746 0.956 . S
C1734 H1747 0.961 . S
C1734 H1748 0.961 . S
C1735 C1732 1.539 . S
C1735 H1749 0.958 . S
C1735 H1750 0.961 . S
C1735 H1751 0.960 . S
H1736 C1720 0.931 . S
H1737 C1725 0.929 . S
H1738 C1726 0.960 . S
H1739 C1726 0.962 . S
H1740 C1726 0.960 . S
H1741 C1727 0.961 . S
H1742 C1727 0.961 . S
H1743 C1727 0.961 . S
H1744 C1728 0.931 . S
H1745 C1733 0.930 . S
H1746 C1734 0.956 . S
H1747 C1734 0.961 . S
H1748 C1734 0.961 . S
H1749 C1735 0.958 . S
H1750 C1735 0.961 . S
H1751 C1735 0.960 . S
C1752 C1753 1.391 . S
C1752 C1754 1.394 . S
C1752 H1768 0.931 . S
C1753 C1752 1.391 . S
C1753 C1757 1.376 . S
C1754 C1752 1.394 . S
C1754 C1755 1.369 . S
C1754 C1758 1.531 . S
C1755 C1754 1.369 . S
C1755 C1756 1.410 . S
C1755 C1763 1.503 . S
C1756 C1755 1.410 . S
C1756 C1757 1.392 . S
C1756 C1759 1.511 . S
C1757 C1753 1.376 . S
C1757 C1756 1.392 . S
C1757 H1769 0.929 . S
C1758 C1754 1.531 . S
C1758 H1770 0.960 . S
C1758 H1771 0.962 . S
C1758 H1772 0.960 . S
C1759 C1756 1.511 . S
C1759 H1773 0.961 . S
C1759 H1774 0.961 . S
C1759 H1775 0.961 . S
C1760 C1761 1.370 . S
C1760 C1762 1.363 . S
C1760 H1776 0.931 . S
C1761 C1760 1.370 . S
C1761 C1765 1.408 . S
C1762 C1760 1.363 . S
C1762 C1763 1.370 . S
C1762 C1766 1.524 . S
C1763 C1755 1.503 . S
C1763 C1762 1.370 . S
C1763 C1764 1.403 . S
C1764 C1763 1.403 . S
C1764 C1765 1.404 . S
C1764 C1767 1.539 . S
C1765 C1761 1.408 . S
C1765 C1764 1.404 . S
C1765 H1777 0.930 . S
C1766 C1762 1.524 . S
C1766 H1778 0.956 . S
C1766 H1779 0.961 . S
C1766 H1780 0.961 . S
C1767 C1764 1.539 . S
C1767 H1781 0.958 . S
C1767 H1782 0.961 . S
C1767 H1783 0.960 . S
H1768 C1752 0.931 . S
H1769 C1757 0.929 . S
H1770 C1758 0.960 . S
H1771 C1758 0.962 . S
H1772 C1758 0.960 . S
H1773 C1759 0.961 . S
H1774 C1759 0.961 . S
H1775 C1759 0.961 . S
H1776 C1760 0.931 . S
H1777 C1765 0.930 . S
H1778 C1766 0.956 . S
H1779 C1766 0.961 . S
H1780 C1766 0.961 . S
H1781 C1767 0.958 . S
H1782 C1767 0.961 . S
H1783 C1767 0.960 . S
C1784 C1785 1.391 . S
C1784 C1786 1.394 . S
C1784 H1800 0.931 . S
C1785 C1784 1.391 . S
C1785 C1789 1.376 . S
C1786 C1784 1.394 . S
C1786 C1787 1.369 . S
C1786 C1790 1.531 . S
C1787 C1786 1.369 . S
C1787 C1788 1.410 . S
C1787 C1795 1.503 . S
C1788 C1787 1.410 . S
C1788 C1789 1.392 . S
C1788 C1791 1.511 . S
C1789 C1785 1.376 . S
C1789 C1788 1.392 . S
C1789 H1801 0.929 . S
C1790 C1786 1.531 . S
C1790 H1802 0.960 . S
C1790 H1803 0.962 . S
C1790 H1804 0.960 . S
C1791 C1788 1.511 . S
C1791 H1805 0.961 . S
C1791 H1806 0.961 . S
C1791 H1807 0.961 . S
C1792 C1793 1.370 . S
C1792 C1794 1.363 . S
C1792 H1808 0.931 . S
C1793 C1792 1.370 . S
C1793 C1797 1.408 . S
C1794 C1792 1.363 . S
C1794 C1795 1.370 . S
C1794 C1798 1.524 . S
C1795 C1787 1.503 . S
C1795 C1794 1.370 . S
C1795 C1796 1.403 . S
C1796 C1795 1.403 . S
C1796 C1797 1.404 . S
C1796 C1799 1.539 . S
C1797 C1793 1.408 . S
C1797 C1796 1.404 . S
C1797 H1809 0.930 . S
C1798 C1794 1.524 . S
C1798 H1810 0.956 . S
C1798 H1811 0.961 . S
C1798 H1812 0.961 . S
C1799 C1796 1.539 . S
C1799 H1813 0.958 . S
C1799 H1814 0.961 . S
C1799 H1815 0.960 . S
H1800 C1784 0.931 . S
H1801 C1789 0.929 . S
H1802 C1790 0.960 . S
H1803 C1790 0.962 . S
H1804 C1790 0.960 . S
H1805 C1791 0.961 . S
H1806 C1791 0.961 . S
H1807 C1791 0.961 . S
H1808 C1792 0.931 . S
H1809 C1797 0.930 . S
H1810 C1798 0.956 . S
H1811 C1798 0.961 . S
H1812 C1798 0.961 . S
H1813 C1799 0.958 . S
H1814 C1799 0.961 . S
H1815 C1799 0.960 . S
C1816 C1817 1.391 . S
C1816 C1818 1.394 . S
C1816 H1832 0.931 . S
C1817 C1816 1.391 . S
C1817 C1821 1.376 . S
C1818 C1816 1.394 . S
C1818 C1819 1.369 . S
C1818 C1822 1.531 . S
C1819 C1818 1.369 . S
C1819 C1820 1.410 . S
C1819 C1827 1.503 . S
C1820 C1819 1.410 . S
C1820 C1821 1.392 . S
C1820 C1823 1.511 . S
C1821 C1817 1.376 . S
C1821 C1820 1.392 . S
C1821 H1833 0.929 . S
C1822 C1818 1.531 . S
C1822 H1834 0.960 . S
C1822 H1835 0.962 . S
C1822 H1836 0.960 . S
C1823 C1820 1.511 . S
C1823 H1837 0.961 . S
C1823 H1838 0.961 . S
C1823 H1839 0.961 . S
C1824 C1825 1.370 . S
C1824 C1826 1.363 . S
C1824 H1840 0.931 . S
C1825 C1824 1.370 . S
C1825 C1829 1.408 . S
C1826 C1824 1.363 . S
C1826 C1827 1.370 . S
C1826 C1830 1.524 . S
C1827 C1819 1.503 . S
C1827 C1826 1.370 . S
C1827 C1828 1.403 . S
C1828 C1827 1.403 . S
C1828 C1829 1.404 . S
C1828 C1831 1.539 . S
C1829 C1825 1.408 . S
C1829 C1828 1.404 . S
C1829 H1841 0.930 . S
C1830 C1826 1.524 . S
C1830 H1842 0.956 . S
C1830 H1843 0.961 . S
C1830 H1844 0.961 . S
C1831 C1828 1.539 . S
C1831 H1845 0.958 . S
C1831 H1846 0.961 . S
C1831 H1847 0.960 . S
H1832 C1816 0.931 . S
H1833 C1821 0.929 . S
H1834 C1822 0.960 . S
H1835 C1822 0.962 . S
H1836 C1822 0.960 . S
H1837 C1823 0.961 . S
H1838 C1823 0.961 . S
H1839 C1823 0.961 . S
H1840 C1824 0.931 . S
H1841 C1829 0.930 . S
H1842 C1830 0.956 . S
H1843 C1830 0.961 . S
H1844 C1830 0.961 . S
H1845 C1831 0.958 . S
H1846 C1831 0.961 . S
H1847 C1831 0.960 . S
C1848 C1849 1.391 . S
C1848 C1850 1.394 . S
C1848 H1864 0.931 . S
C1849 C1848 1.391 . S
C1849 C1853 1.376 . S
C1850 C1848 1.394 . S
C1850 C1851 1.369 . S
C1850 C1854 1.531 . S
C1851 C1850 1.369 . S
C1851 C1852 1.410 . S
C1851 C1859 1.503 . S
C1852 C1851 1.410 . S
C1852 C1853 1.392 . S
C1852 C1855 1.511 . S
C1853 C1849 1.376 . S
C1853 C1852 1.392 . S
C1853 H1865 0.929 . S
C1854 C1850 1.531 . S
C1854 H1866 0.960 . S
C1854 H1867 0.962 . S
C1854 H1868 0.960 . S
C1855 C1852 1.511 . S
C1855 H1869 0.961 . S
C1855 H1870 0.961 . S
C1855 H1871 0.961 . S
C1856 C1857 1.370 . S
C1856 C1858 1.363 . S
C1856 H1872 0.931 . S
C1857 C1856 1.370 . S
C1857 C1861 1.408 . S
C1858 C1856 1.363 . S
C1858 C1859 1.370 . S
C1858 C1862 1.524 . S
C1859 C1851 1.503 . S
C1859 C1858 1.370 . S
C1859 C1860 1.403 . S
C1860 C1859 1.403 . S
C1860 C1861 1.404 . S
C1860 C1863 1.539 . S
C1861 C1857 1.408 . S
C1861 C1860 1.404 . S
C1861 H1873 0.930 . S
C1862 C1858 1.524 . S
C1862 H1874 0.956 . S
C1862 H1875 0.961 . S
C1862 H1876 0.961 . S
C1863 C1860 1.539 . S
C1863 H1877 0.958 . S
C1863 H1878 0.961 . S
C1863 H1879 0.960 . S
H1864 C1848 0.931 . S
H1865 C1853 0.929 . S
H1866 C1854 0.960 . S
H1867 C1854 0.962 . S
H1868 C1854 0.960 . S
H1869 C1855 0.961 . S
H1870 C1855 0.961 . S
H1871 C1855 0.961 . S
H1872 C1856 0.931 . S
H1873 C1861 0.930 . S
H1874 C1862 0.956 . S
H1875 C1862 0.961 . S
H1876 C1862 0.961 . S
H1877 C1863 0.958 . S
H1878 C1863 0.961 . S
H1879 C1863 0.960 . S
C1880 C1881 1.391 . S
C1880 C1882 1.394 . S
C1880 H1896 0.931 . S
C1881 C1880 1.391 . S
C1881 C1885 1.376 . S
C1882 C1880 1.394 . S
C1882 C1883 1.369 . S
C1882 C1886 1.531 . S
C1883 C1882 1.369 . S
C1883 C1884 1.410 . S
C1883 C1891 1.503 . S
C1884 C1883 1.410 . S
C1884 C1885 1.392 . S
C1884 C1887 1.511 . S
C1885 C1881 1.376 . S
C1885 C1884 1.392 . S
C1885 H1897 0.929 . S
C1886 C1882 1.531 . S
C1886 H1898 0.960 . S
C1886 H1899 0.962 . S
C1886 H1900 0.960 . S
C1887 C1884 1.511 . S
C1887 H1901 0.961 . S
C1887 H1902 0.961 . S
C1887 H1903 0.961 . S
C1888 C1889 1.370 . S
C1888 C1890 1.363 . S
C1888 H1904 0.931 . S
C1889 C1888 1.370 . S
C1889 C1893 1.408 . S
C1890 C1888 1.363 . S
C1890 C1891 1.370 . S
C1890 C1894 1.524 . S
C1891 C1883 1.503 . S
C1891 C1890 1.370 . S
C1891 C1892 1.403 . S
C1892 C1891 1.403 . S
C1892 C1893 1.404 . S
C1892 C1895 1.539 . S
C1893 C1889 1.408 . S
C1893 C1892 1.404 . S
C1893 H1905 0.930 . S
C1894 C1890 1.524 . S
C1894 H1906 0.956 . S
C1894 H1907 0.961 . S
C1894 H1908 0.961 . S
C1895 C1892 1.539 . S
C1895 H1909 0.958 . S
C1895 H1910 0.961 . S
C1895 H1911 0.960 . S
H1896 C1880 0.931 . S
H1897 C1885 0.929 . S
H1898 C1886 0.960 . S
H1899 C1886 0.962 . S
H1900 C1886 0.960 . S
H1901 C1887 0.961 . S
H1902 C1887 0.961 . S
H1903 C1887 0.961 . S
H1904 C1888 0.931 . S
H1905 C1893 0.930 . S
H1906 C1894 0.956 . S
H1907 C1894 0.961 . S
H1908 C1894 0.961 . S
H1909 C1895 0.958 . S
H1910 C1895 0.961 . S
H1911 C1895 0.960 . S
C1912 C1913 1.391 . S
C1912 C1914 1.394 . S
C1912 H1928 0.931 . S
C1913 C1912 1.391 . S
C1913 C1917 1.376 . S
C1914 C1912 1.394 . S
C1914 C1915 1.369 . S
C1914 C1918 1.531 . S
C1915 C1914 1.369 . S
C1915 C1916 1.410 . S
C1915 C1923 1.503 . S
C1916 C1915 1.410 . S
C1916 C1917 1.392 . S
C1916 C1919 1.511 . S
C1917 C1913 1.376 . S
C1917 C1916 1.392 . S
C1917 H1929 0.929 . S
C1918 C1914 1.531 . S
C1918 H1930 0.960 . S
C1918 H1931 0.962 . S
C1918 H1932 0.960 . S
C1919 C1916 1.511 . S
C1919 H1933 0.961 . S
C1919 H1934 0.961 . S
C1919 H1935 0.961 . S
C1920 C1921 1.370 . S
C1920 C1922 1.363 . S
C1920 H1936 0.931 . S
C1921 C1920 1.370 . S
C1921 C1925 1.408 . S
C1922 C1920 1.363 . S
C1922 C1923 1.370 . S
C1922 C1926 1.524 . S
C1923 C1915 1.503 . S
C1923 C1922 1.370 . S
C1923 C1924 1.403 . S
C1924 C1923 1.403 . S
C1924 C1925 1.404 . S
C1924 C1927 1.539 . S
C1925 C1921 1.408 . S
C1925 C1924 1.404 . S
C1925 H1937 0.930 . S
C1926 C1922 1.524 . S
C1926 H1938 0.956 . S
C1926 H1939 0.961 . S
C1926 H1940 0.961 . S
C1927 C1924 1.539 . S
C1927 H1941 0.958 . S
C1927 H1942 0.961 . S
C1927 H1943 0.960 . S
H1928 C1912 0.931 . S
H1929 C1917 0.929 . S
H1930 C1918 0.960 . S
H1931 C1918 0.962 . S
H1932 C1918 0.960 . S
H1933 C1919 0.961 . S
H1934 C1919 0.961 . S
H1935 C1919 0.961 . S
H1936 C1920 0.931 . S
H1937 C1925 0.930 . S
H1938 C1926 0.956 . S
H1939 C1926 0.961 . S
H1940 C1926 0.961 . S
H1941 C1927 0.958 . S
H1942 C1927 0.961 . S
H1943 C1927 0.960 . S
C1944 C1945 1.391 . S
C1944 C1946 1.394 . S
C1944 H1960 0.931 . S
C1945 C1944 1.391 . S
C1945 C1949 1.376 . S
C1946 C1944 1.394 . S
C1946 C1947 1.369 . S
C1946 C1950 1.531 . S
C1947 C1946 1.369 . S
C1947 C1948 1.410 . S
C1947 C1955 1.503 . S
C1948 C1947 1.410 . S
C1948 C1949 1.392 . S
C1948 C1951 1.511 . S
C1949 C1945 1.376 . S
C1949 C1948 1.392 . S
C1949 H1961 0.929 . S
C1950 C1946 1.531 . S
C1950 H1962 0.960 . S
C1950 H1963 0.962 . S
C1950 H1964 0.960 . S
C1951 C1948 1.511 . S
C1951 H1965 0.961 . S
C1951 H1966 0.961 . S
C1951 H1967 0.961 . S
C1952 C1953 1.370 . S
C1952 C1954 1.363 . S
C1952 H1968 0.931 . S
C1953 C1952 1.370 . S
C1953 C1957 1.408 . S
C1954 C1952 1.363 . S
C1954 C1955 1.370 . S
C1954 C1958 1.524 . S
C1955 C1947 1.503 . S
C1955 C1954 1.370 . S
C1955 C1956 1.403 . S
C1956 C1955 1.403 . S
C1956 C1957 1.404 . S
C1956 C1959 1.539 . S
C1957 C1953 1.408 . S
C1957 C1956 1.404 . S
C1957 H1969 0.930 . S
C1958 C1954 1.524 . S
C1958 H1970 0.956 . S
C1958 H1971 0.961 . S
C1958 H1972 0.961 . S
C1959 C1956 1.539 . S
C1959 H1973 0.958 . S
C1959 H1974 0.961 . S
C1959 H1975 0.960 . S
H1960 C1944 0.931 . S
H1961 C1949 0.929 . S
H1962 C1950 0.960 . S
H1963 C1950 0.962 . S
H1964 C1950 0.960 . S
H1965 C1951 0.961 . S
H1966 C1951 0.961 . S
H1967 C1951 0.961 . S
H1968 C1952 0.931 . S
H1969 C1957 0.930 . S
H1970 C1958 0.956 . S
H1971 C1958 0.961 . S
H1972 C1958 0.961 . S
H1973 C1959 0.958 . S
H1974 C1959 0.961 . S
H1975 C1959 0.960 . S
C1976 C1977 1.391 . S
C1976 C1978 1.394 . S
C1976 H1992 0.931 . S
C1977 C1976 1.391 . S
C1977 C1981 1.376 . S
C1978 C1976 1.394 . S
C1978 C1979 1.369 . S
C1978 C1982 1.531 . S
C1979 C1978 1.369 . S
C1979 C1980 1.410 . S
C1979 C1987 1.503 . S
C1980 C1979 1.410 . S
C1980 C1981 1.392 . S
C1980 C1983 1.511 . S
C1981 C1977 1.376 . S
C1981 C1980 1.392 . S
C1981 H1993 0.929 . S
C1982 C1978 1.531 . S
C1982 H1994 0.960 . S
C1982 H1995 0.962 . S
C1982 H1996 0.960 . S
C1983 C1980 1.511 . S
C1983 H1997 0.961 . S
C1983 H1998 0.961 . S
C1983 H1999 0.961 . S
C1984 C1985 1.370 . S
C1984 C1986 1.363 . S
C1984 H2000 0.931 . S
C1985 C1984 1.370 . S
C1985 C1989 1.408 . S
C1986 C1984 1.363 . S
C1986 C1987 1.370 . S
C1986 C1990 1.524 . S
C1987 C1979 1.503 . S
C1987 C1986 1.370 . S
C1987 C1988 1.403 . S
C1988 C1987 1.403 . S
C1988 C1989 1.404 . S
C1988 C1991 1.539 . S
C1989 C1985 1.408 . S
C1989 C1988 1.404 . S
C1989 H2001 0.930 . S
C1990 C1986 1.524 . S
C1990 H2002 0.956 . S
C1990 H2003 0.961 . S
C1990 H2004 0.961 . S
C1991 C1988 1.539 . S
C1991 H2005 0.958 . S
C1991 H2006 0.961 . S
C1991 H2007 0.960 . S
H1992 C1976 0.931 . S
H1993 C1981 0.929 . S
H1994 C1982 0.960 . S
H1995 C1982 0.962 . S
H1996 C1982 0.960 . S
H1997 C1983 0.961 . S
H1998 C1983 0.961 . S
H1999 C1983 0.961 . S
H2000 C1984 0.931 . S
H2001 C1989 0.930 . S
H2002 C1990 0.956 . S
H2003 C1990 0.961 . S
H2004 C1990 0.961 . S
H2005 C1991 0.958 . S
H2006 C1991 0.961 . S
H2007 C1991 0.960 . S
C2008 C2009 1.391 . S
C2008 C2010 1.394 . S
C2008 H2024 0.931 . S
C2009 C2008 1.391 . S
C2009 C2013 1.376 . S
C2010 C2008 1.394 . S
C2010 C2011 1.369 . S
C2010 C2014 1.531 . S
C2011 C2010 1.369 . S
C2011 C2012 1.410 . S
C2011 C2019 1.503 . S
C2012 C2011 1.410 . S
C2012 C2013 1.392 . S
C2012 C2015 1.511 . S
C2013 C2009 1.376 . S
C2013 C2012 1.392 . S
C2013 H2025 0.929 . S
C2014 C2010 1.531 . S
C2014 H2026 0.960 . S
C2014 H2027 0.962 . S
C2014 H2028 0.960 . S
C2015 C2012 1.511 . S
C2015 H2029 0.961 . S
C2015 H2030 0.961 . S
C2015 H2031 0.961 . S
C2016 C2017 1.370 . S
C2016 C2018 1.363 . S
C2016 H2032 0.931 . S
C2017 C2016 1.370 . S
C2017 C2021 1.408 . S
C2018 C2016 1.363 . S
C2018 C2019 1.370 . S
C2018 C2022 1.524 . S
C2019 C2011 1.503 . S
C2019 C2018 1.370 . S
C2019 C2020 1.403 . S
C2020 C2019 1.403 . S
C2020 C2021 1.404 . S
C2020 C2023 1.539 . S
C2021 C2017 1.408 . S
C2021 C2020 1.404 . S
C2021 H2033 0.930 . S
C2022 C2018 1.524 . S
C2022 H2034 0.956 . S
C2022 H2035 0.961 . S
C2022 H2036 0.961 . S
C2023 C2020 1.539 . S
C2023 H2037 0.958 . S
C2023 H2038 0.961 . S
C2023 H2039 0.960 . S
H2024 C2008 0.931 . S
H2025 C2013 0.929 . S
H2026 C2014 0.960 . S
H2027 C2014 0.962 . S
H2028 C2014 0.960 . S
H2029 C2015 0.961 . S
H2030 C2015 0.961 . S
H2031 C2015 0.961 . S
H2032 C2016 0.931 . S
H2033 C2021 0.930 . S
H2034 C2022 0.956 . S
H2035 C2022 0.961 . S
H2036 C2022 0.961 . S
H2037 C2023 0.958 . S
H2038 C2023 0.961 . S
H2039 C2023 0.960 . S
C2040 C2041 1.391 . S
C2040 C2042 1.394 1_455 S
C2040 H2056 0.931 1_455 S
C2041 C2040 1.391 . S
C2041 C2045 1.376 . S
C2042 C2040 1.394 1_655 S
C2042 C2043 1.369 1_655 S
C2042 C2046 1.531 . S
C2043 C2042 1.369 1_455 S
C2043 C2044 1.410 . S
C2043 C2051 1.503 1_455 S
C2044 C2043 1.410 . S
C2044 C2045 1.392 . S
C2044 C2047 1.511 . S
C2045 C2041 1.376 . S
C2045 C2044 1.392 . S
C2045 H2057 0.929 . S
C2046 C2042 1.531 . S
C2046 H2058 0.960 . S
C2046 H2059 0.962 . S
C2046 H2060 0.960 . S
C2047 C2044 1.511 . S
C2047 H2061 0.961 . S
C2047 H2062 0.961 . S
C2047 H2063 0.961 . S
C2048 C2049 1.370 . S
C2048 C2050 1.363 . S
C2048 H2064 0.931 . S
C2049 C2048 1.370 . S
C2049 C2053 1.408 . S
C2050 C2048 1.363 . S
C2050 C2051 1.370 . S
C2050 C2054 1.524 1_655 S
C2051 C2043 1.503 1_655 S
C2051 C2050 1.370 . S
C2051 C2052 1.403 . S
C2052 C2051 1.403 . S
C2052 C2053 1.404 . S
C2052 C2055 1.539 . S
C2053 C2049 1.408 . S
C2053 C2052 1.404 . S
C2053 H2065 0.930 . S
C2054 C2050 1.524 1_455 S
C2054 H2066 0.956 1_455 S
C2054 H2067 0.961 . S
C2054 H2068 0.961 . S
C2055 C2052 1.539 . S
C2055 H2069 0.958 . S
C2055 H2070 0.961 . S
C2055 H2071 0.987 . S
H2056 C2040 0.931 1_655 S
H2057 C2045 0.929 . S
H2058 C2046 0.960 . S
H2059 C2046 0.962 . S
H2060 C2046 0.960 . S
H2061 C2047 0.961 . S
H2062 C2047 0.961 . S
H2063 C2047 0.961 . S
H2064 C2048 0.931 . S
H2065 C2053 0.930 . S
H2066 C2054 0.956 1_655 S
H2067 C2054 0.961 . S
H2068 C2054 0.961 . S
H2069 C2055 0.958 . S
H2070 C2055 0.961 . S
H2071 C2055 0.987 . S
C2072 C2073 1.391 . S
C2072 C2074 1.394 . S
C2072 H2088 0.931 . S
C2073 C2072 1.391 . S
C2073 C2077 1.376 . S
C2074 C2072 1.394 . S
C2074 C2075 1.369 . S
C2074 C2078 1.531 . S
C2075 C2074 1.369 . S
C2075 C2076 1.410 . S
C2075 C2083 1.503 . S
C2076 C2075 1.410 . S
C2076 C2077 1.392 . S
C2076 C2079 1.511 . S
C2077 C2073 1.376 . S
C2077 C2076 1.392 . S
C2077 H2089 0.929 . S
C2078 C2074 1.531 . S
C2078 H2090 0.960 . S
C2078 H2091 0.962 . S
C2078 H2092 0.960 . S
C2079 C2076 1.511 . S
C2079 H2093 0.961 . S
C2079 H2094 0.961 . S
C2079 H2095 0.961 . S
C2080 C2081 1.370 . S
C2080 C2082 1.363 . S
C2080 H2096 0.931 . S
C2081 C2080 1.370 . S
C2081 C2085 1.408 . S
C2082 C2080 1.363 . S
C2082 C2083 1.370 . S
C2082 C2086 1.524 . S
C2083 C2075 1.503 . S
C2083 C2082 1.370 . S
C2083 C2084 1.403 . S
C2084 C2083 1.403 . S
C2084 C2085 1.404 . S
C2084 C2087 1.539 . S
C2085 C2081 1.408 . S
C2085 C2084 1.404 . S
C2085 H2097 0.930 . S
C2086 C2082 1.524 . S
C2086 H2098 0.956 . S
C2086 H2099 0.961 . S
C2086 H2100 0.961 . S
C2087 C2084 1.539 . S
C2087 H2101 0.958 . S
C2087 H2102 0.961 . S
C2087 H2103 0.960 . S
H2088 C2072 0.931 . S
H2089 C2077 0.929 . S
H2090 C2078 0.960 . S
H2091 C2078 0.962 . S
H2092 C2078 0.960 . S
H2093 C2079 0.961 . S
H2094 C2079 0.961 . S
H2095 C2079 0.961 . S
H2096 C2080 0.931 . S
H2097 C2085 0.930 . S
H2098 C2086 0.956 . S
H2099 C2086 0.961 . S
H2100 C2086 0.961 . S
H2101 C2087 0.958 . S
H2102 C2087 0.961 . S
H2103 C2087 0.960 . S
C2104 C2105 1.391 . S
C2104 C2106 1.394 . S
C2104 H2120 0.931 . S
C2105 C2104 1.391 . S
C2105 C2109 1.376 . S
C2106 C2104 1.394 . S
C2106 C2107 1.369 . S
C2106 C2110 1.531 . S
C2107 C2106 1.369 . S
C2107 C2108 1.410 . S
C2107 C2115 1.503 1_565 S
C2108 C2107 1.410 . S
C2108 C2109 1.392 . S
C2108 C2111 1.511 1_565 S
C2109 C2105 1.376 . S
C2109 C2108 1.392 . S
C2109 H2121 0.929 . S
C2110 C2106 1.531 . S
C2110 H2122 0.960 . S
C2110 H2123 0.962 . S
C2110 H2124 0.960 . S
C2111 C2108 1.511 1_545 S
C2111 H2125 0.961 . S
C2111 H2126 0.961 . S
C2111 H2127 0.961 1_545 S
C2112 C2113 1.370 . S
C2112 C2114 1.363 . S
C2112 H2128 0.931 . S
C2113 C2112 1.370 . S
C2113 C2117 1.408 . S
C2114 C2112 1.363 . S
C2114 C2115 1.370 . S
C2114 C2118 1.524 . S
C2115 C2107 1.503 1_545 S
C2115 C2114 1.370 . S
C2115 C2116 1.403 1_545 S
C2116 C2115 1.403 1_565 S
C2116 C2117 1.404 1_565 S
C2116 C2119 1.539 . S
C2117 C2113 1.408 . S
C2117 C2116 1.404 1_545 S
C2117 H2129 0.930 1_545 S
C2118 C2114 1.524 . S
C2118 H2130 0.956 . S
C2118 H2131 0.961 . S
C2118 H2132 0.961 . S
C2119 C2116 1.539 . S
C2119 H2133 0.958 . S
C2119 H2134 0.961 . S
C2119 H2135 0.960 . S
H2120 C2104 0.931 . S
H2121 C2109 0.929 . S
H2122 C2110 0.960 . S
H2123 C2110 0.962 . S
H2124 C2110 0.960 . S
H2125 C2111 0.961 . S
H2126 C2111 0.961 . S
H2127 C2111 0.961 1_565 S
H2128 C2112 0.931 . S
H2129 C2117 0.930 1_565 S
H2130 C2118 0.956 . S
H2131 C2118 0.961 . S
H2132 C2118 0.961 . S
H2133 C2119 0.958 . S
H2134 C2119 0.961 . S
H2135 C2119 0.960 . S
C2136 C2137 1.391 . S
C2136 C2138 1.394 1_565 S
C2136 H2152 0.939 . S
C2137 C2136 1.391 . S
C2137 C2141 1.376 . S
C2138 C2136 1.394 1_545 S
C2138 C2139 1.369 1_545 S
C2138 C2142 1.531 . S
C2139 C2138 1.369 1_565 S
C2139 C2140 1.410 . S
C2139 C2147 1.503 1_565 S
C2140 C2139 1.410 . S
C2140 C2141 1.392 . S
C2140 C2143 1.511 . S
C2141 C2137 1.376 . S
C2141 C2140 1.392 . S
C2141 H2153 0.929 . S
C2142 C2138 1.531 . S
C2142 H2154 0.960 . S
C2142 H2155 0.962 . S
C2142 H2156 0.960 . S
C2143 C2140 1.511 . S
C2143 H2157 0.961 . S
C2143 H2158 0.961 . S
C2143 H2159 0.961 . S
C2144 C2145 1.370 . S
C2144 C2146 1.363 . S
C2144 H2160 0.931 . S
C2145 C2144 1.370 . S
C2145 C2149 1.408 . S
C2146 C2144 1.363 . S
C2146 C2147 1.370 . S
C2146 C2150 1.524 . S
C2147 C2139 1.503 1_545 S
C2147 C2146 1.370 . S
C2147 C2148 1.401 1_545 S
C2148 C2147 1.401 1_565 S
C2148 C2149 1.402 1_565 S
C2148 C2151 1.543 . S
C2149 C2145 1.408 . S
C2149 C2148 1.402 1_545 S
C2149 H2161 0.930 . S
C2150 C2146 1.524 . S
C2150 H2162 0.956 . S
C2150 H2163 0.961 . S
C2150 H2164 0.961 . S
C2151 C2148 1.543 . S
C2151 H2165 0.958 . S
C2151 H2166 0.961 . S
C2151 H2167 0.960 . S
H2152 C2136 0.939 . S
H2153 C2141 0.929 . S
H2154 C2142 0.960 . S
H2155 C2142 0.962 . S
H2156 C2142 0.960 . S
H2157 C2143 0.961 . S
H2158 C2143 0.961 . S
H2159 C2143 0.961 . S
H2160 C2144 0.931 . S
H2161 C2149 0.930 . S
H2162 C2150 0.956 . S
H2163 C2150 0.961 . S
H2164 C2150 0.961 . S
H2165 C2151 0.958 . S
H2166 C2151 0.961 . S
H2167 C2151 0.960 . S
C2168 C2169 1.391 . S
C2168 C2170 1.394 . S
C2168 H2184 0.931 . S
C2169 C2168 1.391 . S
C2169 C2173 1.376 . S
C2170 C2168 1.394 . S
C2170 C2171 1.369 . S
C2170 C2174 1.531 . S
C2171 C2170 1.369 . S
C2171 C2172 1.401 1_655 S
C2171 C2179 1.503 1_655 S
C2172 C2171 1.401 1_455 S
C2172 C2173 1.387 1_455 S
C2172 C2175 1.526 . S
C2173 C2169 1.376 . S
C2173 C2172 1.387 1_655 S
C2173 H2185 0.929 . S
C2174 C2170 1.531 . S
C2174 H2186 0.960 . S
C2174 H2187 0.962 . S
C2174 H2188 0.960 . S
C2175 C2172 1.526 . S
C2175 H2189 0.961 . S
C2175 H2190 0.961 . S
C2175 H2191 0.961 . S
C2176 C2177 1.370 . S
C2176 C2178 1.363 . S
C2176 H2192 0.931 . S
C2177 C2176 1.370 . S
C2177 C2181 1.408 . S
C2178 C2176 1.363 . S
C2178 C2179 1.370 . S
C2178 C2182 1.524 . S
C2179 C2171 1.503 1_455 S
C2179 C2178 1.370 . S
C2179 C2180 1.403 1_455 S
C2180 C2179 1.403 1_655 S
C2180 C2181 1.404 1_655 S
C2180 C2183 1.539 . S
C2181 C2177 1.408 . S
C2181 C2180 1.404 1_455 S
C2181 H2193 0.930 . S
C2182 C2178 1.524 . S
C2182 H2194 0.956 . S
C2182 H2195 0.961 . S
C2182 H2196 0.961 . S
C2183 C2180 1.539 . S
C2183 H2197 0.958 . S
C2183 H2198 0.961 . S
C2183 H2199 0.960 . S
H2184 C2168 0.931 . S
H2185 C2173 0.929 . S
H2186 C2174 0.960 . S
H2187 C2174 0.962 . S
H2188 C2174 0.960 . S
H2189 C2175 0.961 . S
H2190 C2175 0.961 . S
H2191 C2175 0.961 . S
H2192 C2176 0.931 . S
H2193 C2181 0.930 . S
H2194 C2182 0.956 . S
H2195 C2182 0.961 . S
H2196 C2182 0.961 . S
H2197 C2183 0.958 . S
H2198 C2183 0.961 . S
H2199 C2183 0.960 . S
C2200 C2201 1.391 . S
C2200 C2202 1.394 . S
C2200 H2216 0.931 . S
C2201 C2200 1.391 . S
C2201 C2205 1.376 . S
C2202 C2200 1.394 . S
C2202 C2203 1.369 . S
C2202 C2206 1.531 . S
C2203 C2202 1.369 . S
C2203 C2204 1.410 . S
C2203 C2211 1.503 . S
C2204 C2203 1.410 . S
C2204 C2205 1.392 . S
C2204 C2207 1.511 . S
C2205 C2201 1.376 . S
C2205 C2204 1.392 . S
C2205 H2217 0.929 . S
C2206 C2202 1.531 . S
C2206 H2218 0.960 . S
C2206 H2219 0.962 . S
C2206 H2220 0.960 . S
C2207 C2204 1.511 . S
C2207 H2221 0.961 . S
C2207 H2222 0.961 . S
C2207 H2223 0.961 . S
C2208 C2209 1.370 . S
C2208 C2210 1.363 . S
C2208 H2224 0.931 . S
C2209 C2208 1.370 . S
C2209 C2213 1.408 . S
C2210 C2208 1.363 . S
C2210 C2211 1.370 . S
C2210 C2214 1.524 . S
C2211 C2203 1.503 . S
C2211 C2210 1.370 . S
C2211 C2212 1.403 . S
C2212 C2211 1.403 . S
C2212 C2213 1.404 . S
C2212 C2215 1.539 . S
C2213 C2209 1.408 . S
C2213 C2212 1.404 . S
C2213 H2225 0.930 . S
C2214 C2210 1.524 . S
C2214 H2226 0.956 . S
C2214 H2227 0.961 . S
C2214 H2228 0.961 . S
C2215 C2212 1.539 . S
C2215 H2229 0.958 . S
C2215 H2230 0.961 . S
C2215 H2231 0.960 . S
H2216 C2200 0.931 . S
H2217 C2205 0.929 . S
H2218 C2206 0.960 . S
H2219 C2206 0.962 . S
H2220 C2206 0.960 . S
H2221 C2207 0.961 . S
H2222 C2207 0.961 . S
H2223 C2207 0.961 . S
H2224 C2208 0.931 . S
H2225 C2213 0.930 . S
H2226 C2214 0.956 . S
H2227 C2214 0.961 . S
H2228 C2214 0.961 . S
H2229 C2215 0.958 . S
H2230 C2215 0.961 . S
H2231 C2215 0.960 . S
C2232 C2233 1.391 . S
C2232 C2234 1.394 . S
C2232 H2248 0.931 . S
C2233 C2232 1.391 . S
C2233 C2237 1.376 . S
C2234 C2232 1.394 . S
C2234 C2235 1.369 . S
C2234 C2238 1.531 . S
C2235 C2234 1.369 . S
C2235 C2236 1.410 . S
C2235 C2243 1.503 . S
C2236 C2235 1.410 . S
C2236 C2237 1.392 . S
C2236 C2239 1.511 . S
C2237 C2233 1.376 . S
C2237 C2236 1.392 . S
C2237 H2249 0.929 . S
C2238 C2234 1.531 . S
C2238 H2250 0.960 . S
C2238 H2251 0.962 . S
C2238 H2252 0.960 . S
C2239 C2236 1.511 . S
C2239 H2253 0.961 . S
C2239 H2254 0.961 . S
C2239 H2255 0.961 . S
C2240 C2241 1.370 . S
C2240 C2242 1.363 . S
C2240 H2256 0.931 . S
C2241 C2240 1.370 . S
C2241 C2245 1.408 . S
C2242 C2240 1.363 . S
C2242 C2243 1.370 . S
C2242 C2246 1.524 . S
C2243 C2235 1.503 . S
C2243 C2242 1.370 . S
C2243 C2244 1.403 . S
C2244 C2243 1.403 . S
C2244 C2245 1.404 . S
C2244 C2247 1.539 . S
C2245 C2241 1.408 . S
C2245 C2244 1.404 . S
C2245 H2257 0.930 . S
C2246 C2242 1.524 . S
C2246 H2258 0.956 . S
C2246 H2259 0.961 . S
C2246 H2260 0.961 . S
C2247 C2244 1.539 . S
C2247 H2261 0.958 . S
C2247 H2262 0.961 . S
C2247 H2263 0.960 . S
H2248 C2232 0.931 . S
H2249 C2237 0.929 . S
H2250 C2238 0.960 . S
H2251 C2238 0.962 . S
H2252 C2238 0.960 . S
H2253 C2239 0.961 . S
H2254 C2239 0.961 . S
H2255 C2239 0.961 . S
H2256 C2240 0.931 . S
H2257 C2245 0.930 . S
H2258 C2246 0.956 . S
H2259 C2246 0.961 . S
H2260 C2246 0.961 . S
H2261 C2247 0.958 . S
H2262 C2247 0.961 . S
H2263 C2247 0.960 . S
C2264 C2265 1.391 . S
C2264 C2266 1.394 . S
C2264 H2280 0.931 . S
C2265 C2264 1.391 . S
C2265 C2269 1.376 . S
C2266 C2264 1.394 . S
C2266 C2267 1.369 . S
C2266 C2270 1.531 . S
C2267 C2266 1.369 . S
C2267 C2268 1.410 . S
C2267 C2275 1.503 . S
C2268 C2267 1.410 . S
C2268 C2269 1.392 . S
C2268 C2271 1.511 . S
C2269 C2265 1.376 . S
C2269 C2268 1.392 . S
C2269 H2281 0.929 . S
C2270 C2266 1.531 . S
C2270 H2282 0.960 . S
C2270 H2283 0.962 . S
C2270 H2284 0.960 . S
C2271 C2268 1.511 . S
C2271 H2285 0.961 . S
C2271 H2286 0.961 . S
C2271 H2287 0.961 . S
C2272 C2273 1.370 . S
C2272 C2274 1.363 . S
C2272 H2288 0.931 . S
C2273 C2272 1.370 . S
C2273 C2277 1.408 . S
C2274 C2272 1.363 . S
C2274 C2275 1.370 . S
C2274 C2278 1.524 . S
C2275 C2267 1.503 . S
C2275 C2274 1.370 . S
C2275 C2276 1.403 . S
C2276 C2275 1.403 . S
C2276 C2277 1.404 . S
C2276 C2279 1.539 . S
C2277 C2273 1.408 . S
C2277 C2276 1.404 . S
C2277 H2289 0.930 . S
C2278 C2274 1.524 . S
C2278 H2290 0.956 . S
C2278 H2291 0.961 . S
C2278 H2292 0.961 . S
C2279 C2276 1.539 . S
C2279 H2293 0.958 . S
C2279 H2294 0.961 . S
C2279 H2295 0.960 . S
H2280 C2264 0.931 . S
H2281 C2269 0.929 . S
H2282 C2270 0.960 . S
H2283 C2270 0.962 . S
H2284 C2270 0.960 . S
H2285 C2271 0.961 . S
H2286 C2271 0.961 . S
H2287 C2271 0.961 . S
H2288 C2272 0.931 . S
H2289 C2277 0.930 . S
H2290 C2278 0.956 . S
H2291 C2278 0.961 . S
H2292 C2278 0.961 . S
H2293 C2279 0.958 . S
H2294 C2279 0.961 . S
H2295 C2279 0.960 . S
C2296 C2297 1.391 . S
C2296 C2298 1.394 . S
C2296 H2312 0.931 . S
C2297 C2296 1.391 . S
C2297 C2301 1.376 . S
C2298 C2296 1.394 . S
C2298 C2299 1.369 . S
C2298 C2302 1.531 . S
C2299 C2298 1.369 . S
C2299 C2300 1.410 . S
C2299 C2307 1.503 . S
C2300 C2299 1.410 . S
C2300 C2301 1.392 . S
C2300 C2303 1.511 . S
C2301 C2297 1.376 . S
C2301 C2300 1.392 . S
C2301 H2313 0.929 . S
C2302 C2298 1.531 . S
C2302 H2314 0.960 . S
C2302 H2315 0.962 . S
C2302 H2316 0.960 . S
C2303 C2300 1.511 . S
C2303 H2317 0.961 . S
C2303 H2318 0.961 . S
C2303 H2319 0.961 . S
C2304 C2305 1.370 . S
C2304 C2306 1.363 . S
C2304 H2320 0.931 . S
C2305 C2304 1.370 . S
C2305 C2309 1.408 . S
C2306 C2304 1.363 . S
C2306 C2307 1.370 . S
C2306 C2310 1.524 . S
C2307 C2299 1.503 . S
C2307 C2306 1.370 . S
C2307 C2308 1.403 . S
C2308 C2307 1.403 . S
C2308 C2309 1.404 . S
C2308 C2311 1.539 . S
C2309 C2305 1.408 . S
C2309 C2308 1.404 . S
C2309 H2321 0.930 . S
C2310 C2306 1.524 . S
C2310 H2322 0.956 . S
C2310 H2323 0.961 . S
C2310 H2324 0.961 . S
C2311 C2308 1.539 . S
C2311 H2325 0.958 . S
C2311 H2326 0.961 . S
C2311 H2327 0.960 . S
H2312 C2296 0.931 . S
H2313 C2301 0.929 . S
H2314 C2302 0.960 . S
H2315 C2302 0.962 . S
H2316 C2302 0.960 . S
H2317 C2303 0.961 . S
H2318 C2303 0.961 . S
H2319 C2303 0.961 . S
H2320 C2304 0.931 . S
H2321 C2309 0.930 . S
H2322 C2310 0.956 . S
H2323 C2310 0.961 . S
H2324 C2310 0.961 . S
H2325 C2311 0.958 . S
H2326 C2311 0.961 . S
H2327 C2311 0.960 . S
C2328 C2329 1.391 . S
C2328 C2330 1.394 . S
C2328 H2344 0.931 . S
C2329 C2328 1.391 . S
C2329 C2333 1.376 . S
C2330 C2328 1.394 . S
C2330 C2331 1.369 . S
C2330 C2334 1.531 . S
C2331 C2330 1.369 . S
C2331 C2332 1.410 . S
C2331 C2339 1.503 . S
C2332 C2331 1.410 . S
C2332 C2333 1.392 . S
C2332 C2335 1.511 . S
C2333 C2329 1.376 . S
C2333 C2332 1.392 . S
C2333 H2345 0.929 . S
C2334 C2330 1.531 . S
C2334 H2346 0.960 . S
C2334 H2347 0.962 . S
C2334 H2348 0.960 . S
C2335 C2332 1.511 . S
C2335 H2349 0.961 . S
C2335 H2350 0.961 . S
C2335 H2351 0.961 . S
C2336 C2337 1.370 . S
C2336 C2338 1.363 . S
C2336 H2352 0.931 . S
C2337 C2336 1.370 . S
C2337 C2341 1.408 . S
C2338 C2336 1.363 . S
C2338 C2339 1.370 . S
C2338 C2342 1.524 . S
C2339 C2331 1.503 . S
C2339 C2338 1.370 . S
C2339 C2340 1.403 . S
C2340 C2339 1.403 . S
C2340 C2341 1.404 . S
C2340 C2343 1.539 . S
C2341 C2337 1.408 . S
C2341 C2340 1.404 . S
C2341 H2353 0.930 . S
C2342 C2338 1.524 . S
C2342 H2354 0.956 . S
C2342 H2355 0.961 . S
C2342 H2356 0.961 . S
C2343 C2340 1.539 . S
C2343 H2357 0.958 . S
C2343 H2358 0.961 . S
C2343 H2359 0.960 . S
H2344 C2328 0.931 . S
H2345 C2333 0.929 . S
H2346 C2334 0.960 . S
H2347 C2334 0.962 . S
H2348 C2334 0.960 . S
H2349 C2335 0.961 . S
H2350 C2335 0.961 . S
H2351 C2335 0.961 . S
H2352 C2336 0.931 . S
H2353 C2341 0.930 . S
H2354 C2342 0.956 . S
H2355 C2342 0.961 . S
H2356 C2342 0.961 . S
H2357 C2343 0.958 . S
H2358 C2343 0.961 . S
H2359 C2343 0.960 . S
C2360 C2361 1.391 . S
C2360 C2362 1.394 . S
C2360 H2376 0.931 . S
C2361 C2360 1.391 . S
C2361 C2365 1.376 . S
C2362 C2360 1.394 . S
C2362 C2363 1.369 . S
C2362 C2366 1.531 . S
C2363 C2362 1.369 . S
C2363 C2364 1.410 . S
C2363 C2371 1.503 . S
C2364 C2363 1.410 . S
C2364 C2365 1.392 . S
C2364 C2367 1.511 . S
C2365 C2361 1.376 . S
C2365 C2364 1.392 . S
C2365 H2377 0.929 . S
C2366 C2362 1.531 . S
C2366 H2378 0.960 . S
C2366 H2379 0.962 . S
C2366 H2380 0.960 . S
C2367 C2364 1.511 . S
C2367 H2381 0.961 . S
C2367 H2382 0.961 . S
C2367 H2383 0.961 . S
C2368 C2369 1.370 . S
C2368 C2370 1.363 . S
C2368 H2384 0.931 . S
C2369 C2368 1.370 . S
C2369 C2373 1.408 . S
C2370 C2368 1.363 . S
C2370 C2371 1.370 . S
C2370 C2374 1.524 . S
C2371 C2363 1.503 . S
C2371 C2370 1.370 . S
C2371 C2372 1.403 . S
C2372 C2371 1.403 . S
C2372 C2373 1.404 . S
C2372 C2375 1.539 . S
C2373 C2369 1.408 . S
C2373 C2372 1.404 . S
C2373 H2385 0.930 . S
C2374 C2370 1.524 . S
C2374 H2386 0.956 . S
C2374 H2387 0.961 . S
C2374 H2388 0.961 . S
C2375 C2372 1.539 . S
C2375 H2389 0.958 . S
C2375 H2390 0.961 . S
C2375 H2391 0.960 . S
H2376 C2360 0.931 . S
H2377 C2365 0.929 . S
H2378 C2366 0.960 . S
H2379 C2366 0.962 . S
H2380 C2366 0.960 . S
H2381 C2367 0.961 . S
H2382 C2367 0.961 . S
H2383 C2367 0.961 . S
H2384 C2368 0.931 . S
H2385 C2373 0.930 . S
H2386 C2374 0.956 . S
H2387 C2374 0.961 . S
H2388 C2374 0.961 . S
H2389 C2375 0.958 . S
H2390 C2375 0.961 . S
H2391 C2375 0.960 . S
C2392 C2393 1.391 . S
C2392 C2394 1.394 . S
C2392 H2408 0.931 . S
C2393 C2392 1.391 . S
C2393 C2397 1.376 . S
C2394 C2392 1.394 . S
C2394 C2395 1.369 . S
C2394 C2398 1.531 . S
C2395 C2394 1.369 . S
C2395 C2396 1.410 . S
C2395 C2403 1.503 . S
C2396 C2395 1.410 . S
C2396 C2397 1.392 . S
C2396 C2399 1.511 . S
C2397 C2393 1.376 . S
C2397 C2396 1.392 . S
C2397 H2409 0.929 . S
C2398 C2394 1.531 . S
C2398 H2410 0.960 . S
C2398 H2411 0.962 . S
C2398 H2412 0.960 . S
C2399 C2396 1.511 . S
C2399 H2413 0.961 . S
C2399 H2414 0.961 . S
C2399 H2415 0.961 . S
C2400 C2401 1.370 . S
C2400 C2402 1.363 . S
C2400 H2416 0.931 . S
C2401 C2400 1.370 . S
C2401 C2405 1.408 . S
C2402 C2400 1.363 . S
C2402 C2403 1.370 . S
C2402 C2406 1.524 . S
C2403 C2395 1.503 . S
C2403 C2402 1.370 . S
C2403 C2404 1.403 . S
C2404 C2403 1.403 . S
C2404 C2405 1.404 . S
C2404 C2407 1.539 . S
C2405 C2401 1.408 . S
C2405 C2404 1.404 . S
C2405 H2417 0.930 . S
C2406 C2402 1.524 . S
C2406 H2418 0.956 . S
C2406 H2419 0.961 . S
C2406 H2420 0.961 . S
C2407 C2404 1.539 . S
C2407 H2421 0.958 . S
C2407 H2422 0.961 . S
C2407 H2423 0.960 . S
H2408 C2392 0.931 . S
H2409 C2397 0.929 . S
H2410 C2398 0.960 . S
H2411 C2398 0.962 . S
H2412 C2398 0.960 . S
H2413 C2399 0.961 . S
H2414 C2399 0.961 . S
H2415 C2399 0.961 . S
H2416 C2400 0.931 . S
H2417 C2405 0.930 . S
H2418 C2406 0.956 . S
H2419 C2406 0.961 . S
H2420 C2406 0.961 . S
H2421 C2407 0.958 . S
H2422 C2407 0.961 . S
H2423 C2407 0.960 . S
C2424 C2425 1.391 . S
C2424 C2426 1.394 . S
C2424 H2440 0.931 . S
C2425 C2424 1.391 . S
C2425 C2429 1.376 . S
C2426 C2424 1.394 . S
C2426 C2427 1.369 . S
C2426 C2430 1.531 . S
C2427 C2426 1.369 . S
C2427 C2428 1.410 . S
C2427 C2435 1.503 . S
C2428 C2427 1.410 . S
C2428 C2429 1.392 . S
C2428 C2431 1.511 . S
C2429 C2425 1.376 . S
C2429 C2428 1.392 . S
C2429 H2441 0.929 . S
C2430 C2426 1.531 . S
C2430 H2442 0.960 . S
C2430 H2443 0.962 . S
C2430 H2444 0.960 . S
C2431 C2428 1.511 . S
C2431 H2445 0.961 . S
C2431 H2446 0.961 . S
C2431 H2447 0.961 . S
C2432 C2433 1.370 . S
C2432 C2434 1.363 . S
C2432 H2448 0.931 . S
C2433 C2432 1.370 . S
C2433 C2437 1.408 . S
C2434 C2432 1.363 . S
C2434 C2435 1.370 . S
C2434 C2438 1.524 . S
C2435 C2427 1.503 . S
C2435 C2434 1.370 . S
C2435 C2436 1.403 . S
C2436 C2435 1.403 . S
C2436 C2437 1.404 . S
C2436 C2439 1.539 . S
C2437 C2433 1.408 . S
C2437 C2436 1.404 . S
C2437 H2449 0.930 . S
C2438 C2434 1.524 . S
C2438 H2450 0.956 . S
C2438 H2451 0.961 . S
C2438 H2452 0.961 . S
C2439 C2436 1.539 . S
C2439 H2453 0.958 . S
C2439 H2454 0.961 . S
C2439 H2455 0.960 . S
H2440 C2424 0.931 . S
H2441 C2429 0.929 . S
H2442 C2430 0.960 . S
H2443 C2430 0.962 . S
H2444 C2430 0.960 . S
H2445 C2431 0.961 . S
H2446 C2431 0.961 . S
H2447 C2431 0.961 . S
H2448 C2432 0.931 . S
H2449 C2437 0.930 . S
H2450 C2438 0.956 . S
H2451 C2438 0.961 . S
H2452 C2438 0.961 . S
H2453 C2439 0.958 . S
H2454 C2439 0.961 . S
H2455 C2439 0.960 . S
C2456 C2457 1.391 . S
C2456 C2458 1.394 . S
C2456 H2472 0.931 . S
C2457 C2456 1.391 . S
C2457 C2461 1.376 . S
C2458 C2456 1.394 . S
C2458 C2459 1.369 . S
C2458 C2462 1.531 . S
C2459 C2458 1.369 . S
C2459 C2460 1.410 . S
C2459 C2467 1.503 . S
C2460 C2459 1.410 . S
C2460 C2461 1.392 . S
C2460 C2463 1.511 . S
C2461 C2457 1.376 . S
C2461 C2460 1.392 . S
C2461 H2473 0.929 . S
C2462 C2458 1.531 . S
C2462 H2474 0.960 . S
C2462 H2475 0.962 . S
C2462 H2476 0.960 . S
C2463 C2460 1.511 . S
C2463 H2477 0.961 . S
C2463 H2478 0.961 . S
C2463 H2479 0.961 . S
C2464 C2465 1.370 . S
C2464 C2466 1.363 . S
C2464 H2480 0.931 . S
C2465 C2464 1.370 . S
C2465 C2469 1.408 . S
C2466 C2464 1.363 . S
C2466 C2467 1.370 . S
C2466 C2470 1.524 . S
C2467 C2459 1.503 . S
C2467 C2466 1.370 . S
C2467 C2468 1.403 . S
C2468 C2467 1.403 . S
C2468 C2469 1.404 . S
C2468 C2471 1.539 . S
C2469 C2465 1.408 . S
C2469 C2468 1.404 . S
C2469 H2481 0.930 . S
C2470 C2466 1.524 . S
C2470 H2482 0.956 . S
C2470 H2483 0.961 . S
C2470 H2484 0.961 . S
C2471 C2468 1.539 . S
C2471 H2485 0.958 . S
C2471 H2486 0.961 . S
C2471 H2487 0.960 . S
H2472 C2456 0.931 . S
H2473 C2461 0.929 . S
H2474 C2462 0.960 . S
H2475 C2462 0.962 . S
H2476 C2462 0.960 . S
H2477 C2463 0.961 . S
H2478 C2463 0.961 . S
H2479 C2463 0.961 . S
H2480 C2464 0.931 . S
H2481 C2469 0.930 . S
H2482 C2470 0.956 . S
H2483 C2470 0.961 . S
H2484 C2470 0.961 . S
H2485 C2471 0.958 . S
H2486 C2471 0.961 . S
H2487 C2471 0.960 . S
C2488 C2489 1.391 . S
C2488 C2490 1.394 . S
C2488 H2504 0.931 . S
C2489 C2488 1.391 . S
C2489 C2493 1.376 . S
C2490 C2488 1.394 . S
C2490 C2491 1.369 . S
C2490 C2494 1.531 . S
C2491 C2490 1.369 . S
C2491 C2492 1.410 . S
C2491 C2499 1.503 . S
C2492 C2491 1.410 . S
C2492 C2493 1.392 . S
C2492 C2495 1.511 . S
C2493 C2489 1.376 . S
C2493 C2492 1.392 . S
C2493 H2505 0.929 . S
C2494 C2490 1.531 . S
C2494 H2506 0.960 . S
C2494 H2507 0.962 . S
C2494 H2508 0.960 . S
C2495 C2492 1.511 . S
C2495 H2509 0.961 . S
C2495 H2510 0.961 . S
C2495 H2511 0.961 . S
C2496 C2497 1.370 . S
C2496 C2498 1.363 . S
C2496 H2512 0.931 . S
C2497 C2496 1.370 . S
C2497 C2501 1.408 . S
C2498 C2496 1.363 . S
C2498 C2499 1.370 . S
C2498 C2502 1.524 . S
C2499 C2491 1.503 . S
C2499 C2498 1.370 . S
C2499 C2500 1.403 . S
C2500 C2499 1.403 . S
C2500 C2501 1.404 . S
C2500 C2503 1.539 . S
C2501 C2497 1.408 . S
C2501 C2500 1.404 . S
C2501 H2513 0.930 . S
C2502 C2498 1.524 . S
C2502 H2514 0.956 . S
C2502 H2515 0.961 . S
C2502 H2516 0.961 . S
C2503 C2500 1.539 . S
C2503 H2517 0.958 . S
C2503 H2518 0.961 . S
C2503 H2519 0.960 . S
H2504 C2488 0.931 . S
H2505 C2493 0.929 . S
H2506 C2494 0.960 . S
H2507 C2494 0.962 . S
H2508 C2494 0.960 . S
H2509 C2495 0.961 . S
H2510 C2495 0.961 . S
H2511 C2495 0.961 . S
H2512 C2496 0.931 . S
H2513 C2501 0.930 . S
H2514 C2502 0.956 . S
H2515 C2502 0.961 . S
H2516 C2502 0.961 . S
H2517 C2503 0.958 . S
H2518 C2503 0.961 . S
H2519 C2503 0.960 . S
C2520 C2521 1.391 . S
C2520 C2522 1.394 . S
C2520 H2536 0.931 . S
C2521 C2520 1.391 . S
C2521 C2525 1.376 . S
C2522 C2520 1.394 . S
C2522 C2523 1.369 . S
C2522 C2526 1.531 . S
C2523 C2522 1.369 . S
C2523 C2524 1.410 . S
C2523 C2531 1.503 . S
C2524 C2523 1.410 . S
C2524 C2525 1.392 . S
C2524 C2527 1.511 . S
C2525 C2521 1.376 . S
C2525 C2524 1.392 . S
C2525 H2537 0.929 . S
C2526 C2522 1.531 . S
C2526 H2538 0.960 . S
C2526 H2539 0.962 . S
C2526 H2540 0.960 . S
C2527 C2524 1.511 . S
C2527 H2541 0.961 . S
C2527 H2542 0.961 . S
C2527 H2543 0.961 . S
C2528 C2529 1.370 . S
C2528 C2530 1.363 . S
C2528 H2544 0.931 . S
C2529 C2528 1.370 . S
C2529 C2533 1.408 . S
C2530 C2528 1.363 . S
C2530 C2531 1.370 . S
C2530 C2534 1.524 . S
C2531 C2523 1.503 . S
C2531 C2530 1.370 . S
C2531 C2532 1.403 . S
C2532 C2531 1.403 . S
C2532 C2533 1.404 . S
C2532 C2535 1.539 . S
C2533 C2529 1.408 . S
C2533 C2532 1.404 . S
C2533 H2545 0.930 . S
C2534 C2530 1.524 . S
C2534 H2546 0.956 . S
C2534 H2547 0.961 . S
C2534 H2548 0.961 . S
C2535 C2532 1.539 . S
C2535 H2549 0.958 . S
C2535 H2550 0.961 . S
C2535 H2551 0.960 . S
H2536 C2520 0.931 . S
H2537 C2525 0.929 . S
H2538 C2526 0.960 . S
H2539 C2526 0.962 . S
H2540 C2526 0.960 . S
H2541 C2527 0.961 . S
H2542 C2527 0.961 . S
H2543 C2527 0.961 . S
H2544 C2528 0.931 . S
H2545 C2533 0.930 . S
H2546 C2534 0.956 . S
H2547 C2534 0.961 . S
H2548 C2534 0.961 . S
H2549 C2535 0.958 . S
H2550 C2535 0.961 . S
H2551 C2535 0.960 . S
C2552 C2553 1.391 . S
C2552 C2554 1.394 . S
C2552 H2568 0.931 . S
C2553 C2552 1.391 . S
C2553 C2557 1.376 . S
C2554 C2552 1.394 . S
C2554 C2555 1.369 . S
C2554 C2558 1.531 . S
C2555 C2554 1.369 . S
C2555 C2556 1.410 . S
C2555 C2563 1.503 . S
C2556 C2555 1.410 . S
C2556 C2557 1.392 . S
C2556 C2559 1.511 . S
C2557 C2553 1.376 . S
C2557 C2556 1.392 . S
C2557 H2569 0.929 . S
C2558 C2554 1.531 . S
C2558 H2570 0.960 . S
C2558 H2571 0.962 . S
C2558 H2572 0.960 . S
C2559 C2556 1.511 . S
C2559 H2573 0.961 . S
C2559 H2574 0.961 . S
C2559 H2575 0.961 . S
C2560 C2561 1.370 . S
C2560 C2562 1.363 . S
C2560 H2576 0.931 . S
C2561 C2560 1.370 . S
C2561 C2565 1.408 . S
C2562 C2560 1.363 . S
C2562 C2563 1.370 . S
C2562 C2566 1.524 . S
C2563 C2555 1.503 . S
C2563 C2562 1.370 . S
C2563 C2564 1.403 . S
C2564 C2563 1.403 . S
C2564 C2565 1.404 . S
C2564 C2567 1.539 . S
C2565 C2561 1.408 . S
C2565 C2564 1.404 . S
C2565 H2577 0.930 . S
C2566 C2562 1.524 . S
C2566 H2578 0.956 . S
C2566 H2579 0.961 . S
C2566 H2580 0.961 . S
C2567 C2564 1.539 . S
C2567 H2581 0.958 . S
C2567 H2582 0.961 . S
C2567 H2583 0.960 . S
H2568 C2552 0.931 . S
H2569 C2557 0.929 . S
H2570 C2558 0.960 . S
H2571 C2558 0.962 . S
H2572 C2558 0.960 . S
H2573 C2559 0.961 . S
H2574 C2559 0.961 . S
H2575 C2559 0.961 . S
H2576 C2560 0.931 . S
H2577 C2565 0.930 . S
H2578 C2566 0.956 . S
H2579 C2566 0.961 . S
H2580 C2566 0.961 . S
H2581 C2567 0.958 . S
H2582 C2567 0.961 . S
H2583 C2567 0.960 . S
C2584 C2585 1.391 . S
C2584 C2586 1.394 . S
C2584 H2600 0.931 . S
C2585 C2584 1.391 . S
C2585 C2589 1.376 . S
C2586 C2584 1.394 . S
C2586 C2587 1.369 . S
C2586 C2590 1.531 . S
C2587 C2586 1.369 . S
C2587 C2588 1.410 . S
C2587 C2595 1.503 . S
C2588 C2587 1.410 . S
C2588 C2589 1.392 . S
C2588 C2591 1.511 . S
C2589 C2585 1.376 . S
C2589 C2588 1.392 . S
C2589 H2601 0.929 . S
C2590 C2586 1.531 . S
C2590 H2602 0.960 . S
C2590 H2603 0.962 . S
C2590 H2604 0.960 . S
C2591 C2588 1.511 . S
C2591 H2605 0.961 . S
C2591 H2606 0.961 . S
C2591 H2607 0.961 . S
C2592 C2593 1.370 . S
C2592 C2594 1.363 . S
C2592 H2608 0.931 . S
C2593 C2592 1.370 . S
C2593 C2597 1.408 . S
C2594 C2592 1.363 . S
C2594 C2595 1.370 . S
C2594 C2598 1.524 . S
C2595 C2587 1.503 . S
C2595 C2594 1.370 . S
C2595 C2596 1.403 . S
C2596 C2595 1.403 . S
C2596 C2597 1.404 . S
C2596 C2599 1.539 . S
C2597 C2593 1.408 . S
C2597 C2596 1.404 . S
C2597 H2609 0.930 . S
C2598 C2594 1.524 . S
C2598 H2610 0.956 . S
C2598 H2611 0.961 . S
C2598 H2612 0.961 . S
C2599 C2596 1.539 . S
C2599 H2613 0.958 . S
C2599 H2614 0.961 . S
C2599 H2615 0.960 . S
H2600 C2584 0.931 . S
H2601 C2589 0.929 . S
H2602 C2590 0.960 . S
H2603 C2590 0.962 . S
H2604 C2590 0.960 . S
H2605 C2591 0.961 . S
H2606 C2591 0.961 . S
H2607 C2591 0.961 . S
H2608 C2592 0.931 . S
H2609 C2597 0.930 . S
H2610 C2598 0.956 . S
H2611 C2598 0.961 . S
H2612 C2598 0.961 . S
H2613 C2599 0.958 . S
H2614 C2599 0.961 . S
H2615 C2599 0.960 . S
C2616 C2617 1.391 . S
C2616 C2618 1.394 1_455 S
C2616 H2632 0.931 . S
C2617 C2616 1.391 . S
C2617 C2621 1.376 . S
C2618 C2616 1.394 1_655 S
C2618 C2619 1.369 1_655 S
C2618 C2622 1.531 . S
C2619 C2618 1.369 1_455 S
C2619 C2620 1.410 . S
C2619 C2627 1.503 1_456 S
C2620 C2619 1.410 . S
C2620 C2621 1.392 . S
C2620 C2623 1.511 1_556 S
C2621 C2617 1.376 . S
C2621 C2620 1.392 . S
C2621 H2633 0.929 . S
C2622 C2618 1.531 . S
C2622 H2634 0.960 . S
C2622 H2635 0.962 . S
C2622 H2636 0.960 . S
C2623 C2620 1.511 1_554 S
C2623 H2637 0.961 1_554 S
C2623 H2638 0.961 . S
C2623 H2639 0.961 1_554 S
C2624 C2625 1.370 . S
C2624 C2626 1.366 1_655 S
C2624 H2640 0.931 . S
C2625 C2624 1.370 . S
C2625 C2629 1.408 . S
C2626 C2624 1.366 1_455 S
C2626 C2627 1.371 1_455 S
C2626 C2630 1.522 . S
C2627 C2619 1.503 1_654 S
C2627 C2626 1.371 1_655 S
C2627 C2628 1.403 . S
C2628 C2627 1.403 . S
C2628 C2629 1.404 . S
C2628 C2631 1.539 1_554 S
C2629 C2625 1.408 . S
C2629 C2628 1.404 . S
C2629 H2641 0.930 . S
C2630 C2626 1.522 . S
C2630 H2642 0.956 . S
C2630 H2643 0.961 . S
C2630 H2644 0.961 . S
C2631 C2628 1.539 1_556 S
C2631 H2645 0.958 . S
C2631 H2646 0.961 1_556 S
C2631 H2647 0.960 . S
H2632 C2616 0.931 . S
H2633 C2621 0.929 . S
H2634 C2622 0.960 . S
H2635 C2622 0.962 . S
H2636 C2622 0.960 . S
H2637 C2623 0.961 1_556 S
H2638 C2623 0.961 . S
H2639 C2623 0.961 1_556 S
H2640 C2624 0.931 . S
H2641 C2629 0.930 . S
H2642 C2630 0.956 . S
H2643 C2630 0.961 . S
H2644 C2630 0.961 . S
H2645 C2631 0.958 . S
H2646 C2631 0.961 1_554 S
H2647 C2631 0.960 . S
C2648 C2649 1.391 . S
C2648 C2650 1.394 . S
C2648 H2664 0.931 . S
C2649 C2648 1.391 . S
C2649 C2653 1.376 . S
C2650 C2648 1.394 . S
C2650 C2651 1.369 . S
C2650 C2654 1.531 1_554 S
C2651 C2650 1.369 . S
C2651 C2652 1.410 . S
C2651 C2659 1.503 1_554 S
C2652 C2651 1.410 . S
C2652 C2653 1.392 . S
C2652 C2655 1.511 . S
C2653 C2649 1.376 . S
C2653 C2652 1.392 . S
C2653 H2665 0.929 . S
C2654 C2650 1.531 1_556 S
C2654 H2666 0.960 . S
C2654 H2667 0.962 . S
C2654 H2668 0.960 . S
C2655 C2652 1.511 . S
C2655 H2669 0.961 . S
C2655 H2670 0.961 . S
C2655 H2671 0.961 . S
C2656 C2657 1.370 . S
C2656 C2658 1.363 . S
C2656 H2672 0.931 . S
C2657 C2656 1.370 . S
C2657 C2661 1.408 . S
C2658 C2656 1.363 . S
C2658 C2659 1.370 . S
C2658 C2662 1.524 1_556 S
C2659 C2651 1.503 1_556 S
C2659 C2658 1.370 . S
C2659 C2660 1.403 . S
C2660 C2659 1.403 . S
C2660 C2661 1.404 . S
C2660 C2663 1.539 . S
C2661 C2657 1.408 . S
C2661 C2660 1.404 . S
C2661 H2673 0.930 . S
C2662 C2658 1.524 1_554 S
C2662 H2674 0.956 . S
C2662 H2675 0.961 . S
C2662 H2676 0.961 1_554 S
C2663 C2660 1.539 . S
C2663 H2677 0.958 . S
C2663 H2678 0.961 . S
C2663 H2679 0.960 . S
H2664 C2648 0.931 . S
H2665 C2653 0.929 . S
H2666 C2654 0.960 . S
H2667 C2654 0.962 . S
H2668 C2654 0.960 . S
H2669 C2655 0.961 . S
H2670 C2655 0.961 . S
H2671 C2655 0.961 . S
H2672 C2656 0.931 . S
H2673 C2661 0.930 . S
H2674 C2662 0.956 . S
H2675 C2662 0.961 . S
H2676 C2662 0.961 1_556 S
H2677 C2663 0.958 . S
H2678 C2663 0.961 . S
H2679 C2663 0.960 . S
C2680 C2681 1.391 . S
C2680 C2682 1.394 . S
C2680 H2696 0.931 . S
C2681 C2680 1.391 . S
C2681 C2685 1.376 . S
C2682 C2680 1.394 . S
C2682 C2683 1.369 . S
C2682 C2686 1.531 . S
C2683 C2682 1.369 . S
C2683 C2684 1.419 1_545 S
C2683 C2691 1.503 1_544 S
C2684 C2683 1.419 1_565 S
C2684 C2685 1.379 1_565 S
C2684 C2687 1.515 . S
C2685 C2681 1.376 . S
C2685 C2684 1.379 1_545 S
C2685 H2697 0.929 . S
C2686 C2682 1.531 . S
C2686 H2698 0.960 1_554 S
C2686 H2699 0.962 1_554 S
C2686 H2700 0.960 . S
C2687 C2684 1.515 . S
C2687 H2701 0.961 . S
C2687 H2702 0.961 . S
C2687 H2703 0.961 . S
C2688 C2689 1.370 . S
C2688 C2690 1.363 1_565 S
C2688 H2704 0.931 1_565 S
C2689 C2688 1.370 . S
C2689 C2693 1.408 . S
C2690 C2688 1.363 1_545 S
C2690 C2691 1.370 1_545 S
C2690 C2694 1.524 . S
C2691 C2683 1.503 1_566 S
C2691 C2690 1.370 1_565 S
C2691 C2692 1.403 . S
C2692 C2691 1.403 . S
C2692 C2693 1.404 . S
C2692 C2695 1.539 1_556 S
C2693 C2689 1.408 . S
C2693 C2692 1.404 . S
C2693 H2705 0.930 . S
C2694 C2690 1.524 . S
C2694 H2706 0.956 . S
C2694 H2707 0.961 . S
C2694 H2708 0.961 . S
C2695 C2692 1.539 1_554 S
C2695 H2709 0.958 . S
C2695 H2710 0.961 . S
C2695 H2711 0.960 . S
H2696 C2680 0.931 . S
H2697 C2685 0.929 . S
H2698 C2686 0.960 1_556 S
H2699 C2686 0.962 1_556 S
H2700 C2686 0.960 . S
H2701 C2687 0.961 . S
H2702 C2687 0.961 . S
H2703 C2687 0.961 . S
H2704 C2688 0.931 1_545 S
H2705 C2693 0.930 . S
H2706 C2694 0.956 . S
H2707 C2694 0.961 . S
H2708 C2694 0.961 . S
H2709 C2695 0.958 . S
H2710 C2695 0.961 . S
H2711 C2695 0.960 . S
C2712 C2713 1.391 . S
C2712 C2714 1.394 1_565 S
C2712 H2728 0.930 1_565 S
C2713 C2712 1.391 . S
C2713 C2717 1.376 . S
C2714 C2712 1.394 1_545 S
C2714 C2715 1.369 1_545 S
C2714 C2718 1.531 . S
C2715 C2714 1.369 1_565 S
C2715 C2716 1.410 . S
C2715 C2723 1.503 1_566 S
C2716 C2715 1.410 . S
C2716 C2717 1.392 . S
C2716 C2719 1.511 1_556 S
C2717 C2713 1.376 . S
C2717 C2716 1.392 . S
C2717 H2729 0.929 . S
C2718 C2714 1.531 . S
C2718 H2730 0.960 . S
C2718 H2731 0.962 . S
C2718 H2732 0.960 . S
C2719 C2716 1.511 1_554 S
C2719 H2733 0.961 . S
C2719 H2734 0.961 . S
C2719 H2735 0.961 . S
C2720 C2721 1.370 . S
C2720 C2722 1.363 . S
C2720 H2736 0.931 . S
C2721 C2720 1.370 . S
C2721 C2725 1.408 . S
C2722 C2720 1.363 . S
C2722 C2723 1.370 . S
C2722 C2726 1.524 1_545 S
C2723 C2715 1.503 1_544 S
C2723 C2722 1.370 . S
C2723 C2724 1.403 . S
C2724 C2723 1.403 . S
C2724 C2725 1.404 . S
C2724 C2727 1.539 . S
C2725 C2721 1.408 . S
C2725 C2724 1.404 . S
C2725 H2737 0.930 . S
C2726 C2722 1.524 1_565 S
C2726 H2738 0.956 . S
C2726 H2739 0.961 . S
C2726 H2740 0.961 . S
C2727 C2724 1.539 . S
C2727 H2741 0.958 1_554 S
C2727 H2742 0.961 . S
C2727 H2743 0.960 1_554 S
H2728 C2712 0.930 1_545 S
H2729 C2717 0.929 . S
H2730 C2718 0.960 . S
H2731 C2718 0.962 . S
H2732 C2718 0.960 . S
H2733 C2719 0.961 . S
H2734 C2719 0.961 . S
H2735 C2719 0.961 . S
H2736 C2720 0.931 . S
H2737 C2725 0.930 . S
H2738 C2726 0.956 . S
H2739 C2726 0.961 . S
H2740 C2726 0.961 . S
H2741 C2727 0.958 1_556 S
H2742 C2727 0.961 . S
H2743 C2727 0.960 1_556 S
C2744 C2745 1.391 . S
C2744 C2746 1.394 1_455 S
C2744 H2760 0.931 1_455 S
C2745 C2744 1.391 . S
C2745 C2749 1.376 . S
C2746 C2744 1.394 1_655 S
C2746 C2747 1.369 1_655 S
C2746 C2750 1.531 . S
C2747 C2746 1.369 1_455 S
C2747 C2748 1.410 . S
C2747 C2755 1.503 1_456 S
C2748 C2747 1.410 . S
C2748 C2749 1.392 . S
C2748 C2751 1.511 1_556 S
C2749 C2745 1.376 . S
C2749 C2748 1.392 . S
C2749 H2761 0.929 . S
C2750 C2746 1.531 . S
C2750 H2762 0.960 . S
C2750 H2763 0.962 . S
C2750 H2764 0.960 . S
C2751 C2748 1.511 1_554 S
C2751 H2765 0.961 . S
C2751 H2766 0.961 . S
C2751 H2767 0.961 . S
C2752 C2753 1.370 . S
C2752 C2754 1.363 . S
C2752 H2768 0.931 . S
C2753 C2752 1.370 . S
C2753 C2757 1.408 . S
C2754 C2752 1.363 . S
C2754 C2755 1.370 . S
C2754 C2758 1.528 1_655 S
C2755 C2747 1.503 1_654 S
C2755 C2754 1.370 . S
C2755 C2756 1.403 . S
C2756 C2755 1.403 . S
C2756 C2757 1.404 . S
C2756 C2759 1.539 . S
C2757 C2753 1.408 . S
C2757 C2756 1.404 . S
C2757 H2769 0.930 . S
C2758 C2754 1.528 1_455 S
C2758 H2770 0.939 1_454 S
C2758 H2771 0.989 . S
C2758 H2772 0.927 1_455 S
C2759 C2756 1.539 . S
C2759 H2773 0.958 . S
C2759 H2774 0.961 . S
C2759 H2775 0.960 1_655 S
H2760 C2744 0.931 1_655 S
H2761 C2749 0.929 . S
H2762 C2750 0.960 . S
H2763 C2750 0.962 . S
H2764 C2750 0.960 . S
H2765 C2751 0.961 . S
H2766 C2751 0.961 . S
H2767 C2751 0.961 . S
H2768 C2752 0.931 . S
H2769 C2757 0.930 . S
H2770 C2758 0.939 1_656 S
H2771 C2758 0.989 . S
H2772 C2758 0.927 1_655 S
H2773 C2759 0.958 . S
H2774 C2759 0.961 . S
H2775 C2759 0.960 1_455 S
C2776 C2777 1.391 . S
C2776 C2778 1.394 . S
C2776 H2792 0.931 . S
C2777 C2776 1.391 . S
C2777 C2781 1.376 . S
C2778 C2776 1.394 . S
C2778 C2779 1.369 . S
C2778 C2782 1.531 . S
C2779 C2778 1.369 . S
C2779 C2780 1.410 . S
C2779 C2787 1.503 1_554 S
C2780 C2779 1.410 . S
C2780 C2781 1.392 . S
C2780 C2783 1.511 1_554 S
C2781 C2777 1.376 . S
C2781 C2780 1.392 . S
C2781 H2793 0.929 . S
C2782 C2778 1.531 . S
C2782 H2794 0.960 . S
C2782 H2795 0.962 . S
C2782 H2796 0.960 . S
C2783 C2780 1.511 1_556 S
C2783 H2797 0.961 . S
C2783 H2798 0.961 . S
C2783 H2799 0.961 . S
C2784 C2785 1.370 . S
C2784 C2786 1.363 . S
C2784 H2800 0.931 . S
C2785 C2784 1.370 . S
C2785 C2789 1.408 . S
C2786 C2784 1.363 . S
C2786 C2787 1.370 . S
C2786 C2790 1.524 . S
C2787 C2779 1.503 1_556 S
C2787 C2786 1.370 . S
C2787 C2788 1.403 . S
C2788 C2787 1.403 . S
C2788 C2789 1.404 . S
C2788 C2791 1.539 . S
C2789 C2785 1.408 . S
C2789 C2788 1.404 . S
C2789 H2801 0.930 . S
C2790 C2786 1.524 . S
C2790 H2802 0.956 . S
C2790 H2803 0.961 . S
C2790 H2804 0.961 . S
C2791 C2788 1.539 . S
C2791 H2805 0.958 1_556 S
C2791 H2806 0.961 . S
C2791 H2807 0.960 1_556 S
H2792 C2776 0.931 . S
H2793 C2781 0.929 . S
H2794 C2782 0.960 . S
H2795 C2782 0.962 . S
H2796 C2782 0.960 . S
H2797 C2783 0.961 . S
H2798 C2783 0.961 . S
H2799 C2783 0.961 . S
H2800 C2784 0.931 . S
H2801 C2789 0.930 . S
H2802 C2790 0.956 . S
H2803 C2790 0.961 . S
H2804 C2790 0.961 . S
H2805 C2791 0.958 1_554 S
H2806 C2791 0.961 . S
H2807 C2791 0.960 1_554 S
C505 C9 1.302 . S
C513 C163 1.323 . S
C537 C23 1.342 . S
C545 C135 1.340 . S
C569 C149 1.358 . S
C577 C37 1.347 . S
C601 C51 1.301 . S
C609 C107 1.322 . S
C633 C121 1.322 . S
C641 C65 1.329 . S
C665 C79 1.360 . S
C673 C93 1.346 . S
C697 C331 1.355 . S
C705 C177 1.345 . S
C729 C191 1.339 . S
C737 C303 1.340 . S
C761 C205 1.351 . S
C769 C317 1.344 . S
C793 C275 1.301 . S
C801 C219 1.321 . S
C825 C233 1.302 . S
C833 C289 1.322 . S
C857 C261 1.330 . S
C865 C247 1.336 . S
C889 C345 1.352 . S
C897 C499 1.342 . S
C921 C471 1.353 . S
C929 C359 1.344 . S
C953 C485 1.348 . S
C961 C373 1.343 . S
C985 C443 1.308 . S
C993 C387 1.326 . S
C1017 C457 1.316 . S
C1025 C401 1.327 . S
C1049 C429 1.356 . S
C1057 C415 1.345 . S
C1081 C8 1.360 . S
C1089 C64 1.368 . S
C1113 C78 1.379 . S
C1121 C22 1.362 . S
C1145 C36 1.354 . S
C1153 C50 1.374 . S
C1177 C92 1.373 . S
C1185 C148 1.362 . S
C1209 C106 1.357 . S
C1217 C162 1.368 . S
C1241 C120 1.351 . S
C1249 C134 1.373 . S
C1273 C232 1.352 . S
C1281 C176 1.374 . S
C1305 C246 1.351 . S
C1313 C190 1.373 . S
C1337 C204 1.361 . S
C1345 C218 1.372 . S
C1369 C316 1.378 . S
C1377 C260 1.363 . S
C1401 C330 1.377 . S
C1409 C274 1.366 . S
C1433 C288 1.354 . S
C1441 C302 1.369 . S
C1465 C400 1.354 . S
C1473 C344 1.374 . S
C1497 C358 1.367 . S
C1505 C414 1.365 . S
C1529 C372 1.359 . S
C1537 C386 1.373 . S
C1561 C484 1.376 . S
C1569 C428 1.363 . S
C1593 C442 1.375 . S
C1601 C498 1.362 . S
C1625 C470 1.351 . S
C1633 C456 1.372 . S
C1657 C413 0.983 . S
C1665 C7 1.014 . S
C1689 C21 1.006 . S
C1697 C385 1.005 . S
C1721 C35 0.999 . S
C1729 C399 1.005 . S
C1753 C49 1.037 . S
C1761 C189 1.032 . S
C1785 C203 1.036 . S
C1793 C63 1.032 . S
C1817 C175 1.039 . S
C1825 C77 1.012 . S
C1849 C91 0.996 . S
C1857 C329 1.029 . S
C1881 C105 0.999 . S
C1889 C301 1.007 . S
C1913 C119 1.020 . S
C1921 C315 1.005 . S
C1945 C441 1.029 . S
C1953 C133 1.006 . S
C1977 C455 0.983 . S
C1985 C147 1.018 . S
C2009 C161 1.022 . S
C2017 C427 1.005 . S
C2041 C357 0.988 . S
C2049 C217 1.008 . S
C2073 C231 1.010 . S
C2081 C371 1.005 . S
C2105 C343 1.047 . S
C2113 C245 1.018 . S
C2137 C497 1.049 . S
C2145 C259 1.020 . S
C2169 C273 1.011 . S
C2177 C469 1.005 . S
C2201 C287 1.046 . S
C2209 C483 1.025 . S
C2233 C3 1.684 . S
C2241 C409 1.692 . S
C2265 C381 1.689 . S
C2273 C17 1.694 . S
C2297 C31 1.689 . S
C2305 C395 1.694 . S
C2329 C185 1.695 . S
C2337 C45 1.696 . S
C2361 C59 1.685 . S
C2369 C199 1.692 . S
C2393 C73 1.693 . S
C2401 C171 1.695 . S
C2425 C325 1.688 . S
C2433 C87 1.692 . S
C2457 C101 1.693 . S
C2465 C297 1.696 . S
C2489 C115 1.695 . S
C2497 C311 1.696 . S
C2521 C129 1.692 . S
C2529 C437 1.694 . S
C2553 C451 1.695 . S
C2561 C143 1.696 . S
C2585 C157 1.686 . S
C2593 C423 1.693 . S
C2617 C353 1.694 . S
C2625 C213 1.695 . S
C2649 C227 1.685 . S
C2657 C367 1.692 . S
C2681 C241 1.688 . S
C2689 C339 1.693 . S
C2713 C493 1.685 . S
C2721 C255 1.692 . S
C2745 C465 1.684 . S
C2753 C269 1.691 . S
C2777 C283 1.685 . S
C2785 C479 1.692 . S
