# Generated by pormake.
# Topology zfl, (5)-cn, num edge types: 1
# Building blocks:
#     Node 0, Type 0, BuildingBlock: XOMCOT_clean_sbu_0, # of connection points: 5
#     Node 1, Type 0, BuildingBlock: XOMCOT_clean_sbu_0, # of connection points: 5
#     Node 2, Type 0, BuildingBlock: XOMCOT_clean_sbu_0, # of connection points: 5
#     Node 3, Type 0, BuildingBlock: XOMCOT_clean_sbu_0, # of connection points: 5
#     Node 4, Type 0, BuildingBlock: XOMCOT_clean_sbu_0, # of connection points: 5
#     Node 5, Type 0, BuildingBlock: XOMCOT_clean_sbu_0, # of connection points: 5
#     Node 6, Type 0, BuildingBlock: XOMCOT_clean_sbu_0, # of connection points: 5
#     Node 7, Type 0, BuildingBlock: XOMCOT_clean_sbu_0, # of connection points: 5
#     Node 8, Type 0, BuildingBlock: XOMCOT_clean_sbu_0, # of connection points: 5
#     Node 9, Type 0, BuildingBlock: XOMCOT_clean_sbu_0, # of connection points: 5
#     Node 10, Type 0, BuildingBlock: XOMCOT_clean_sbu_0, # of connection points: 5
#     Node 11, Type 0, BuildingBlock: XOMCOT_clean_sbu_0, # of connection points: 5
#     Node 12, Type 0, BuildingBlock: XOMCOT_clean_sbu_0, # of connection points: 5
#     Node 13, Type 0, BuildingBlock: XOMCOT_clean_sbu_0, # of connection points: 5
#     Node 14, Type 0, BuildingBlock: XOMCOT_clean_sbu_0, # of connection points: 5
#     Node 15, Type 0, BuildingBlock: XOMCOT_clean_sbu_0, # of connection points: 5
#     Edge 16, Type (0, 0), BuildingBlock: CIFDUS_clean_linker_0, # of connection points: 2
#     Edge 17, Type (0, 0), BuildingBlock: CIFDUS_clean_linker_0, # of connection points: 2
#     Edge 18, Type (0, 0), BuildingBlock: CIFDUS_clean_linker_0, # of connection points: 2
#     Edge 19, Type (0, 0), BuildingBlock: CIFDUS_clean_linker_0, # of connection points: 2
#     Edge 20, Type (0, 0), BuildingBlock: CIFDUS_clean_linker_0, # of connection points: 2
#     Edge 21, Type (0, 0), BuildingBlock: CIFDUS_clean_linker_0, # of connection points: 2
#     Edge 22, Type (0, 0), BuildingBlock: CIFDUS_clean_linker_0, # of connection points: 2
#     Edge 23, Type (0, 0), BuildingBlock: CIFDUS_clean_linker_0, # of connection points: 2
#     Edge 24, Type (0, 0), BuildingBlock: CIFDUS_clean_linker_0, # of connection points: 2
#     Edge 25, Type (0, 0), BuildingBlock: CIFDUS_clean_linker_0, # of connection points: 2
#     Edge 26, Type (0, 0), BuildingBlock: CIFDUS_clean_linker_0, # of connection points: 2
#     Edge 27, Type (0, 0), BuildingBlock: CIFDUS_clean_linker_0, # of connection points: 2
#     Edge 28, Type (0, 0), BuildingBlock: CIFDUS_clean_linker_0, # of connection points: 2
#     Edge 29, Type (0, 0), BuildingBlock: CIFDUS_clean_linker_0, # of connection points: 2
#     Edge 30, Type (0, 0), BuildingBlock: CIFDUS_clean_linker_0, # of connection points: 2
#     Edge 31, Type (0, 0), BuildingBlock: CIFDUS_clean_linker_0, # of connection points: 2
#     Edge 32, Type (0, 0), BuildingBlock: CIFDUS_clean_linker_0, # of connection points: 2
#     Edge 33, Type (0, 0), BuildingBlock: CIFDUS_clean_linker_0, # of connection points: 2
#     Edge 34, Type (0, 0), BuildingBlock: CIFDUS_clean_linker_0, # of connection points: 2
#     Edge 35, Type (0, 0), BuildingBlock: CIFDUS_clean_linker_0, # of connection points: 2
#     Edge 36, Type (0, 0), BuildingBlock: CIFDUS_clean_linker_0, # of connection points: 2
#     Edge 37, Type (0, 0), BuildingBlock: CIFDUS_clean_linker_0, # of connection points: 2
#     Edge 38, Type (0, 0), BuildingBlock: CIFDUS_clean_linker_0, # of connection points: 2
#     Edge 39, Type (0, 0), BuildingBlock: CIFDUS_clean_linker_0, # of connection points: 2
#     Edge 40, Type (0, 0), BuildingBlock: CIFDUS_clean_linker_0, # of connection points: 2
#     Edge 41, Type (0, 0), BuildingBlock: CIFDUS_clean_linker_0, # of connection points: 2
#     Edge 42, Type (0, 0), BuildingBlock: CIFDUS_clean_linker_0, # of connection points: 2
#     Edge 43, Type (0, 0), BuildingBlock: CIFDUS_clean_linker_0, # of connection points: 2
#     Edge 44, Type (0, 0), BuildingBlock: CIFDUS_clean_linker_0, # of connection points: 2
#     Edge 45, Type (0, 0), BuildingBlock: CIFDUS_clean_linker_0, # of connection points: 2
#     Edge 46, Type (0, 0), BuildingBlock: CIFDUS_clean_linker_0, # of connection points: 2
#     Edge 47, Type (0, 0), BuildingBlock: CIFDUS_clean_linker_0, # of connection points: 2
#     Edge 48, Type (0, 0), BuildingBlock: CIFDUS_clean_linker_0, # of connection points: 2
#     Edge 49, Type (0, 0), BuildingBlock: CIFDUS_clean_linker_0, # of connection points: 2
#     Edge 50, Type (0, 0), BuildingBlock: CIFDUS_clean_linker_0, # of connection points: 2
#     Edge 51, Type (0, 0), BuildingBlock: CIFDUS_clean_linker_0, # of connection points: 2
#     Edge 52, Type (0, 0), BuildingBlock: CIFDUS_clean_linker_0, # of connection points: 2
#     Edge 53, Type (0, 0), BuildingBlock: CIFDUS_clean_linker_0, # of connection points: 2
#     Edge 54, Type (0, 0), BuildingBlock: CIFDUS_clean_linker_0, # of connection points: 2
#     Edge 55, Type (0, 0), BuildingBlock: CIFDUS_clean_linker_0, # of connection points: 2
# Relax obj value: 0.235
# Max RMSD: 0.259
# Mean RMSD: 0.259
data_MOF--net-zfl--node1-XOMCOT_clean_sbu_0--edge1-CIFDUS_clean_linker_0
_symmetry_space_group_name_H-M    P1
_symmetry_Int_Tables_number       1
_symmetry_cell_setting            triclinic
loop_
_symmetry_equiv_pos_as_xyz
'x, y, z'
_cell_length_a     28.488941
_cell_length_b     28.607309
_cell_length_c     52.479137
_cell_angle_alpha  89.87508
_cell_angle_beta   90.208732
_cell_angle_gamma 89.885509
loop_
_atom_site_label
_atom_site_type_symbol
_atom_site_fract_x
_atom_site_fract_y
_atom_site_fract_z
_atom_type_partial_charge
Co0 Co 0.58491 0.10789 0.13994 0.0
C1 C 0.61573 0.01033 0.14219 0.0
C2 C 0.66796 0.05338 0.12498 0.0
C3 C 0.67846 1.00715 0.1199 0.0
N4 N 0.62824 0.05535 0.13891 0.0
N5 N 0.64481 0.98033 0.13038 0.0
H6 H 0.58331 0.99943 0.15055 0.0
H7 H 0.685 0.08343 0.11659 0.0
C8 C 0.67346 0.14255 0.16402 0.0
O9 O 0.67487 0.10264 0.17645 0.0
N10 N 0.54049 0.15869 0.14033 0.0
C11 C 0.49542 0.15435 0.14754 0.0
C12 C 0.47341 0.19665 0.14468 0.0
C13 C 0.54545 0.20362 0.13296 0.0
N14 N 0.50466 0.22765 0.13539 0.0
C15 C 0.53883 0.05835 0.18036 0.0
C16 C 0.56234 0.11803 0.21954 0.0
C17 C 0.53503 0.07846 0.2251 0.0
C18 C 0.52337 0.04857 0.20494 0.0
C19 C 0.57783 0.12605 0.19458 0.0
N20 N 0.56802 0.09508 0.17546 0.0
H21 H 0.52525 0.03715 0.16513 0.0
H22 H 0.59604 0.15825 0.19063 0.0
H23 H 0.47945 0.12241 0.15427 0.0
H24 H 0.57774 0.21799 0.12553 0.0
O25 O 0.53865 0.06916 0.12285 0.0
O26 O 0.59096 0.11337 0.10329 0.0
O27 O 0.6382 0.15183 0.14962 0.0
C28 C 0.55727 0.08288 0.10154 0.0
H29 H 0.70558 0.99475 0.10718 0.0
H30 H 0.43717 0.20399 0.14932 0.0
H31 H 0.57051 0.14346 0.23414 0.0
H32 H 0.50192 0.01787 0.20789 0.0
Co33 Co 0.39425 0.56574 0.59059 0.0
C34 C 0.48663 0.59682 0.60684 0.0
C35 C 0.45898 0.64322 0.57848 0.0
C36 C 0.50601 0.65283 0.58178 0.0
N37 N 0.44658 0.60845 0.59456 0.0
N38 N 0.5234 0.62302 0.59937 0.0
H39 H 0.48977 0.56665 0.61916 0.0
H40 H 0.43646 0.65779 0.56383 0.0
C41 C 0.34824 0.65921 0.60403 0.0
O42 O 0.3891 0.67796 0.60921 0.0
N43 N 0.34356 0.52076 0.58622 0.0
C44 C 0.3441 0.48235 0.57133 0.0
C45 C 0.30319 0.45804 0.57467 0.0
C46 C 0.30203 0.51883 0.59865 0.0
N47 N 0.27649 0.48086 0.59179 0.0
C48 C 0.41321 0.50116 0.63074 0.0
C49 C 0.41692 0.56569 0.66982 0.0
C50 C 0.43293 0.52002 0.67452 0.0
C51 C 0.42929 0.48715 0.65481 0.0
C52 C 0.40078 0.57817 0.64551 0.0
N53 N 0.40079 0.54651 0.62608 0.0
H54 H 0.41337 0.47612 0.61535 0.0
H55 H 0.39139 0.61403 0.64211 0.0
H56 H 0.37258 0.47139 0.55921 0.0
H57 H 0.29102 0.54444 0.61254 0.0
O58 O 0.43884 0.52291 0.5753 0.0
O59 O 0.3967 0.57538 0.5541 0.0
O60 O 0.34496 0.61555 0.59866 0.0
C61 C 0.42908 0.5432 0.55366 0.0
H62 H 0.52664 0.67666 0.57036 0.0
H63 H 0.29463 0.42512 0.56569 0.0
H64 H 0.41829 0.59204 0.68458 0.0
H65 H 0.4413 0.45153 0.6575 0.0
Co66 Co 0.94408 0.40349 0.12826 0.0
C67 C 0.91832 0.50104 0.13189 0.0
C68 C 0.86507 0.46241 0.11212 0.0
C69 C 0.8587 0.50948 0.10726 0.0
N70 N 0.90304 0.45723 0.12725 0.0
N71 N 0.89235 0.53353 0.11971 0.0
H72 H 0.95198 0.50853 0.14059 0.0
H73 H 0.84737 0.43401 0.10251 0.0
C74 C 0.88425 0.32775 0.15265 0.0
O75 O 0.91935 0.31632 0.16777 0.0
N76 N 0.9875 0.35062 0.12869 0.0
C77 C 0.0345 0.35429 0.13097 0.0
C78 C 0.05453 0.31112 0.12844 0.0
C79 C 0.97997 0.30476 0.12364 0.0
N80 N 0.02039 0.27952 0.12414 0.0
C81 C 1.0013 0.4365 0.16951 0.0
C82 C 0.93588 0.42683 0.20782 0.0
C83 C 0.98091 0.44301 0.21399 0.0
C84 C 0.01347 0.44867 0.19438 0.0
C85 C 0.92487 0.4159 0.18248 0.0
N86 N 0.95831 0.41804 0.16387 0.0
H87 H 0.02626 0.44363 0.15471 0.0
H88 H 0.88914 0.40672 0.17791 0.0
H89 H 0.05393 0.38634 0.13281 0.0
H90 H 0.94587 0.29034 0.11928 0.0
O91 O 0.99149 0.44141 0.11175 0.0
O92 O 0.93896 0.39811 0.09159 0.0
O93 O 0.88857 0.36187 0.137 0.0
C94 C 0.97318 0.42804 0.09024 0.0
H95 H 0.83453 0.52441 0.09349 0.0
H96 H 0.09187 0.30427 0.12864 0.0
H97 H 0.90912 0.42382 0.22234 0.0
H98 H 0.04823 0.46231 0.19821 0.0
Co99 Co 0.108 0.95403 0.5788 0.0
C100 C 0.01623 0.92766 0.59912 0.0
C101 C 0.03717 0.88032 0.56972 0.0
C102 C 0.99106 0.87131 0.57588 0.0
N103 N 0.05338 0.91502 0.58477 0.0
N104 N 0.97789 0.90155 0.59419 0.0
H105 H 0.01614 0.95771 0.61157 0.0
H106 H 0.05659 0.86465 0.55425 0.0
C107 C 0.15014 0.85813 0.59235 0.0
O108 O 0.10867 0.84098 0.59763 0.0
N109 N 0.16146 0.99485 0.57276 0.0
C110 C 0.1657 0.02886 0.55507 0.0
C111 C 0.2076 0.05161 0.55874 0.0
C112 C 0.2011 0.9976 0.58695 0.0
N113 N 0.23006 0.0321 0.57882 0.0
C114 C 0.09524 0.01936 0.61888 0.0
C115 C 0.09743 0.95586 0.65855 0.0
C116 C 0.08034 1.00115 0.66323 0.0
C117 C 0.08129 0.03363 0.64316 0.0
C118 C 0.11026 0.94284 0.63391 0.0
N119 N 0.10709 0.97392 0.61422 0.0
H120 H 0.0934 0.04416 0.60335 0.0
H121 H 0.11958 0.90699 0.63064 0.0
H122 H 0.13991 0.03786 0.54076 0.0
H123 H 0.20811 0.97506 0.6031 0.0
O124 O 0.06514 1.00011 0.56504 0.0
O125 O 0.09963 0.94484 0.54231 0.0
O126 O 0.15478 0.90126 0.58602 0.0
C127 C 0.06979 0.97945 0.54316 0.0
H128 H 0.96799 0.84705 0.56622 0.0
H129 H 0.21963 0.08137 0.54784 0.0
H130 H 0.09892 0.92988 0.67357 0.0
H131 H 0.0686 0.069 0.64566 0.0
Co132 Co 0.57876 0.40949 0.89452 0.0
C133 C 0.60625 0.50626 0.88522 0.0
C134 C 0.66649 0.46419 0.89396 0.0
C135 C 0.6793 0.51067 0.89464 0.0
N136 N 0.62046 0.46163 0.88833 0.0
N137 N 0.641 0.53727 0.8897 0.0
H138 H 0.56982 0.51581 0.88267 0.0
H139 H 0.68825 0.43489 0.89956 0.0
C140 C 0.64001 0.33176 0.8726 0.0
O141 O 0.60677 0.3207 0.85627 0.0
N142 N 0.53542 0.35791 0.90181 0.0
C143 C 0.48997 0.36363 0.90864 0.0
C144 C 0.47049 0.32128 0.91413 0.0
C145 C 0.54298 0.31124 0.90416 0.0
N146 N 0.50365 0.28828 0.91137 0.0
C147 C 0.5133 0.41228 0.85286 0.0
C148 C 0.57786 0.42349 0.81419 0.0
C149 C 0.52984 0.42354 0.80815 0.0
C150 C 0.49755 0.41753 0.82785 0.0
C151 C 0.59229 0.41684 0.83959 0.0
N152 N 0.56007 0.4107 0.8586 0.0
H153 H 0.4874 0.41161 0.86763 0.0
H154 H 0.62936 0.41758 0.84404 0.0
H155 H 0.47133 0.39645 0.90976 0.0
H156 H 0.57647 0.29424 0.90177 0.0
O157 O 0.53288 0.45321 0.90747 0.0
O158 O 0.58747 0.4184 0.93092 0.0
O159 O 0.63329 0.36476 0.88861 0.0
C160 C 0.55246 0.44773 0.9297 0.0
H161 H 0.71335 0.52358 0.90042 0.0
H162 H 0.43437 0.3152 0.91954 0.0
H163 H 0.60389 0.42871 0.79948 0.0
H164 H 0.46014 0.4189 0.82408 0.0
Co165 Co 0.1047 0.58148 0.43483 0.0
C166 C 1.00838 0.61472 0.42577 0.0
C167 C 0.04495 0.66013 0.4513 0.0
C168 C 0.9976 0.67059 0.45222 0.0
N169 N 0.05169 0.62459 0.4348 0.0
N170 N 0.97482 0.64185 0.43607 0.0
H171 H 1.00001 0.58426 0.41472 0.0
H172 H 0.07174 0.67405 0.4638 0.0
C173 C 0.14215 0.67368 0.41571 0.0
O174 O 0.10126 0.68233 0.40506 0.0
N175 N 0.15592 0.53648 0.43495 0.0
C176 C 0.14986 0.48987 0.4364 0.0
C177 C 0.192 0.46803 0.4324 0.0
C178 C 0.20212 0.54228 0.42974 0.0
N179 N 0.22519 0.50075 0.42821 0.0
C180 C 0.06008 0.5317 0.39417 0.0
C181 C 0.11005 0.56945 0.35428 0.0
C182 C 0.07289 0.53878 0.34871 0.0
C183 C 0.04831 0.51943 0.36928 0.0
C184 C 0.11987 0.58175 0.37958 0.0
N185 N 0.09325 0.56488 0.39916 0.0
H186 H 0.04094 0.51538 0.40947 0.0
H187 H 0.14956 0.60403 0.38313 0.0
H188 H 0.11658 0.47242 0.43888 0.0
H189 H 0.21822 0.57592 0.42647 0.0
O190 O 0.06386 0.53663 0.45171 0.0
O191 O 0.10905 0.58753 0.47159 0.0
O192 O 0.15006 0.63398 0.42627 0.0
C193 C 0.07771 0.55471 0.47315 0.0
H194 H 0.98084 0.69434 0.46541 0.0
H195 H 0.19695 0.4306 0.43136 0.0
H196 H 0.13189 0.58359 0.3393 0.0
H197 H 0.01936 0.49558 0.36641 0.0
Co198 Co 0.94895 0.11778 0.8841 0.0
C199 C 0.92261 0.01846 0.88627 0.0
C200 C 0.86823 0.06192 0.90108 0.0
C201 C 0.85885 0.01617 0.90772 0.0
N202 N 0.90827 0.06343 0.88738 0.0
N203 N 0.89372 0.98907 0.8987 0.0
H204 H 0.95611 0.00767 0.87912 0.0
H205 H 0.84987 0.09229 0.9082 0.0
C206 C 0.85636 0.15047 0.86413 0.0
O207 O 0.85637 0.11147 0.85093 0.0
N208 N 0.99059 0.17063 0.88172 0.0
C209 C 0.03314 0.16936 0.87064 0.0
C210 C 0.05474 0.21164 0.87415 0.0
C211 C 0.98683 0.21364 0.89202 0.0
N212 N 0.02585 0.23944 0.88769 0.0
C213 C 0.9831 0.06959 0.84013 0.0
C214 C 0.95904 0.13596 0.80412 0.0
C215 C 0.98265 0.09538 0.79631 0.0
C216 C 0.99479 0.0622 0.81477 0.0
C217 C 0.94733 0.1417 0.8299 0.0
N218 N 0.95782 0.10778 0.84751 0.0
H219 H 0.99766 0.04588 0.85388 0.0
H220 H 0.93153 0.17426 0.83577 0.0
H221 H 0.04782 0.13936 0.86101 0.0
H222 H 0.95696 0.22519 0.90305 0.0
O223 O 1.001 0.08057 0.8964 0.0
O224 O 0.95213 0.11945 0.92121 0.0
O225 O 0.89178 0.15995 0.87838 0.0
C226 C 0.9876 0.09074 0.91932 0.0
H227 H 0.83133 1.00459 0.92041 0.0
H228 H 0.08915 0.22115 0.86719 0.0
H229 H 0.95031 0.16321 0.79054 0.0
H230 H 0.01541 0.03166 0.80988 0.0
Co231 Co 0.40089 0.94108 0.44014 0.0
C232 C 0.49417 0.91922 0.42021 0.0
C233 C 0.47479 0.8709 0.44957 0.0
C234 C 0.52138 0.86394 0.44382 0.0
N235 N 0.45735 0.90485 0.4343 0.0
N236 N 0.53354 0.89477 0.42556 0.0
H237 H 0.49306 0.94928 0.40768 0.0
H238 H 0.4557 0.8543 0.46489 0.0
C239 C 0.36558 0.84324 0.42662 0.0
O240 O 0.40784 0.8307 0.41956 0.0
N241 N 0.34561 0.97929 0.44628 0.0
C242 C 0.34109 0.0152 0.46278 0.0
C243 C 0.29826 0.03631 0.45897 0.0
C244 C 0.30518 0.97908 0.43273 0.0
N245 N 0.27582 0.0137 0.44005 0.0
C246 C 0.40766 1.00728 0.40005 0.0
C247 C 0.40535 0.94543 0.35971 0.0
C248 C 0.41642 0.99238 0.35502 0.0
C249 C 0.41651 0.02366 0.37547 0.0
C250 C 0.39753 0.93029 0.3847 0.0
N251 N 0.39996 0.9609 0.4046 0.0
H252 H 0.4089 0.03172 0.41569 0.0
H253 H 0.39177 0.89372 0.38786 0.0
H254 H 0.36724 0.02663 0.47632 0.0
H255 H 0.29825 0.95536 0.41713 0.0
O256 O 0.44141 0.98942 0.45325 0.0
O257 O 0.41048 0.93296 0.47666 0.0
O258 O 0.35712 0.88544 0.43358 0.0
C259 C 0.43838 0.96898 0.47531 0.0
H260 H 0.5453 0.84065 0.45371 0.0
H261 H 0.28477 0.06619 0.46925 0.0
H262 H 0.40504 0.92019 0.34435 0.0
H263 H 0.42424 0.06034 0.37254 0.0
Co264 Co 0.46089 0.89902 0.94299 0.0
C265 C 0.43876 0.99567 0.9311 0.0
C266 C 0.38436 0.96551 0.95379 0.0
C267 C 0.37744 0.01309 0.95265 0.0
N268 N 0.42232 0.95445 0.93978 0.0
N269 N 0.41225 0.03225 0.93867 0.0
H270 H 0.47259 0.99905 0.92204 0.0
H271 H 0.36516 0.94118 0.96562 0.0
C272 C 0.36665 0.86026 0.92347 0.0
O273 O 0.34929 0.90212 0.91944 0.0
N274 N 0.501 0.84445 0.9464 0.0
C275 C 0.53075 0.8332 0.96552 0.0
C276 C 0.55396 0.79263 0.95927 0.0
C277 C 0.5065 0.81041 0.92886 0.0
N278 N 0.53889 0.77841 0.93615 0.0
C279 C 0.53189 0.91569 0.90607 0.0
C280 C 0.47317 0.92899 0.86465 0.0
C281 C 0.52136 0.93773 0.86182 0.0
C282 C 0.55095 0.92989 0.88281 0.0
C283 C 0.45557 0.91454 0.88823 0.0
N284 N 0.48474 0.90889 0.90869 0.0
H285 H 0.55489 0.91161 0.92235 0.0
H286 H 0.41831 0.91012 0.89019 0.0
H287 H 0.5359 0.85286 0.98284 0.0
H288 H 0.48795 0.80989 0.91084 0.0
O289 O 0.50537 0.93742 0.9614 0.0
O290 O 0.44739 0.89766 0.97921 0.0
O291 O 0.40926 0.85488 0.93091 0.0
C292 C 0.48185 0.92719 0.98188 0.0
H293 H 0.35053 0.03204 0.9628 0.0
H294 H 0.57962 0.7748 0.97105 0.0
H295 H 0.44906 0.93402 0.84887 0.0
H296 H 0.5883 0.93648 0.8816 0.0
Co297 Co 0.61892 0.43207 0.40059 0.0
C298 C 0.51587 0.43102 0.39477 0.0
C299 C 0.54505 0.36235 0.39026 0.0
C300 C 0.49683 0.35886 0.39122 0.0
N301 N 0.55702 0.40761 0.3927 0.0
N302 N 0.47851 0.40204 0.39446 0.0
H303 H 0.51338 0.46803 0.39868 0.0
H304 H 0.56951 0.33344 0.38965 0.0
C305 C 0.68903 0.3686 0.37629 0.0
O306 O 0.70881 0.4067 0.36738 0.0
N307 N 0.68074 0.45596 0.40987 0.0
C308 C 0.70766 0.43491 0.42776 0.0
C309 C 0.74665 0.46164 0.4324 0.0
C310 C 0.70454 0.49533 0.40354 0.0
N311 N 0.74464 0.49951 0.41723 0.0
C312 C 0.61528 0.50747 0.36425 0.0
C313 C 0.60442 0.45201 0.32158 0.0
C314 C 0.60102 0.50063 0.31882 0.0
C315 C 0.60722 0.52849 0.3405 0.0
C316 C 0.61351 0.43246 0.34559 0.0
N317 N 0.61974 0.46008 0.36659 0.0
H318 H 0.61601 0.52938 0.38097 0.0
H319 H 0.61288 0.39489 0.34743 0.0
H320 H 0.69917 0.40229 0.4371 0.0
H321 H 0.69327 0.52084 0.38969 0.0
O322 O 0.5898 0.48284 0.41921 0.0
O323 O 0.60944 0.41436 0.43586 0.0
O324 O 0.65045 0.37183 0.38871 0.0
C325 C 0.59035 0.45528 0.43897 0.0
H326 H 0.47706 0.3266 0.39098 0.0
H327 H 0.77471 0.45367 0.4457 0.0
H328 H 0.59906 0.42916 0.3054 0.0
H329 H 0.60347 0.56613 0.33934 0.0
Co330 Co 0.07321 0.61919 0.93474 0.0
C331 C 0.09957 0.52688 0.91698 0.0
C332 C 0.14963 0.55134 0.94434 0.0
C333 C 0.15727 0.5043 0.94036 0.0
N334 N 0.11382 0.56574 0.92929 0.0
N335 N 0.12515 0.48897 0.92344 0.0
H336 H 0.06817 0.52539 0.90539 0.0
H337 H 0.16637 0.57255 0.95878 0.0
C338 C 0.16707 0.66295 0.91917 0.0
O339 O 0.18513 0.62188 0.91402 0.0
N340 N 0.03028 0.67093 0.94045 0.0
C341 C 0.99175 0.67137 0.95541 0.0
C342 C 0.96944 0.71372 0.95282 0.0
C343 C 0.03052 0.71311 0.92885 0.0
N344 N 0.99381 0.73988 0.93614 0.0
C345 C 1.0047 0.6022 0.89602 0.0
C346 C 0.06373 0.61079 0.85459 0.0
C347 C 0.01735 0.59621 0.8505 0.0
C348 C 0.98755 0.59235 0.87159 0.0
C349 C 0.0797 0.61949 0.87936 0.0
N350 N 0.05045 0.6147 0.89976 0.0
H351 H 0.98151 0.59846 0.91215 0.0
H352 H 0.11603 0.62827 0.88199 0.0
H353 H 0.97973 0.64291 0.96723 0.0
H354 H 0.05616 0.72354 0.9148 0.0
O355 O 0.03037 0.57601 0.95113 0.0
O356 O 0.0862 0.61601 0.97088 0.0
O357 O 0.12378 0.66685 0.92552 0.0
C358 C 0.05268 0.58528 0.97224 0.0
H359 H 0.18154 0.48231 0.95087 0.0
H360 H 0.93786 0.72455 0.96261 0.0
H361 H 0.08804 0.61377 0.83885 0.0
H362 H 0.95136 0.58161 0.86923 0.0
Co363 Co 0.90388 0.06302 0.37697 0.0
C364 C 1.00347 0.08927 0.37947 0.0
C365 C 0.95953 0.14373 0.39366 0.0
C366 C 1.00513 0.15246 0.40121 0.0
N367 N 0.95833 0.1039 0.37991 0.0
N368 N 0.03259 0.1175 0.39264 0.0
H369 H 0.01431 0.05587 0.3724 0.0
H370 H 0.92884 0.16209 0.40048 0.0
C371 C 0.86935 0.15486 0.35682 0.0
O372 O 0.90825 0.15612 0.34344 0.0
N373 N 0.85097 0.02142 0.37495 0.0
C374 C 0.85192 0.9785 0.36448 0.0
C375 C 0.80904 0.9578 0.36798 0.0
C376 C 0.80763 0.02635 0.38484 0.0
N377 N 0.78125 0.98772 0.38087 0.0
C378 C 0.95241 0.02597 0.33379 0.0
C379 C 0.88626 0.04795 0.29715 0.0
C380 C 0.92582 0.02165 0.29004 0.0
C381 C 0.95935 0.01152 0.30881 0.0
C382 C 0.88095 0.06243 0.32256 0.0
N383 N 0.91447 0.05236 0.34054 0.0
H384 H 0.97625 0.01265 0.34789 0.0
H385 H 0.84868 0.07953 0.32794 0.0
H386 H 0.88205 0.963 0.35528 0.0
H387 H 0.79626 0.0568 0.39538 0.0
O388 O 0.94136 0.01209 0.39042 0.0
O389 O 0.90128 0.06206 0.41398 0.0
O390 O 0.86085 0.11904 0.37072 0.0
C391 C 0.93044 0.02695 0.413 0.0
H392 H 0.0161 0.17948 0.41434 0.0
H393 H 0.79914 0.92327 0.36154 0.0
H394 H 0.85866 0.05557 0.28351 0.0
H395 H 0.99047 0.99127 0.30449 0.0
Co396 Co 0.46247 0.61091 0.09639 0.0
C397 C 0.43265 0.51885 0.11288 0.0
C398 C 0.38752 0.54435 0.08325 0.0
C399 C 0.37919 0.49732 0.08651 0.0
N400 N 0.42058 0.55812 0.10014 0.0
N401 N 0.40824 0.48127 0.10488 0.0
H402 H 0.4622 0.51692 0.12583 0.0
H403 H 0.37364 0.56595 0.06803 0.0
C404 C 0.36584 0.65593 0.10539 0.0
O405 O 0.347 0.61526 0.11057 0.0
N406 N 0.50665 0.66209 0.09216 0.0
C407 C 0.54727 0.66131 0.07892 0.0
C408 C 0.56984 0.70321 0.08193 0.0
C409 C 0.50537 0.70476 0.10314 0.0
N410 N 0.54363 0.73048 0.09717 0.0
C411 C 0.52322 0.60141 0.13943 0.0
C412 C 0.45422 0.5956 0.17617 0.0
C413 C 0.50086 0.58581 0.18316 0.0
C414 C 0.53574 0.59034 0.16455 0.0
C415 C 0.44327 0.60723 0.15088 0.0
N416 N 0.47741 0.60857 0.1327 0.0
H417 H 0.55022 0.60187 0.12502 0.0
H418 H 0.40701 0.61215 0.14577 0.0
H419 H 0.56067 0.63229 0.06803 0.0
H420 H 0.47776 0.71625 0.11578 0.0
O421 O 0.50876 0.56656 0.08435 0.0
O422 O 0.45802 0.60436 0.05967 0.0
O423 O 0.41016 0.65944 0.10129 0.0
C424 C 0.49152 0.57345 0.06163 0.0
H425 H 0.35708 0.4758 0.07452 0.0
H426 H 0.60291 0.71295 0.07335 0.0
H427 H 0.42618 0.59287 0.18998 0.0
H428 H 0.57212 0.58274 0.16899 0.0
Co429 Co 0.8976 0.44721 0.63112 0.0
C430 C 0.9939 0.41206 0.63166 0.0
C431 C 0.94728 0.36177 0.61546 0.0
C432 C 0.99279 0.34921 0.60965 0.0
N433 N 0.9479 0.40129 0.62943 0.0
N434 N 0.02211 0.38149 0.61955 0.0
H435 H 1.0063 0.44528 0.6384 0.0
H436 H 0.91594 0.34613 0.60753 0.0
C437 C 0.85159 0.3576 0.65044 0.0
O438 O 0.89156 0.34327 0.66029 0.0
N439 N 0.84916 0.4941 0.63221 0.0
C440 C 0.85464 0.53857 0.63997 0.0
C441 C 0.81232 0.56137 0.6377 0.0
C442 C 0.80381 0.4903 0.62517 0.0
N443 N 0.78036 0.53104 0.62838 0.0
C444 C 0.9493 0.48803 0.67255 0.0
C445 C 0.89045 0.4611 0.71152 0.0
C446 C 0.93037 0.4877 0.71757 0.0
C447 C 0.95991 0.501 0.69753 0.0
C448 C 0.88139 0.44833 0.68618 0.0
N449 N 0.91149 0.4605 0.66702 0.0
H450 H 0.97095 0.50189 0.65759 0.0
H451 H 0.84904 0.43038 0.68212 0.0
H452 H 0.88719 0.55342 0.64681 0.0
H453 H 0.7886 0.45865 0.61752 0.0
O454 O 0.93926 0.49184 0.61473 0.0
O455 O 0.89163 0.44371 0.59438 0.0
O456 O 0.8487 0.39771 0.63964 0.0
C457 C 0.92407 0.47553 0.59311 0.0
H458 H 1.00295 0.32099 0.59713 0.0
H459 H 0.80554 0.59733 0.64289 0.0
H460 H 0.86549 0.45138 0.7261 0.0
H461 H 0.99107 0.52169 0.70094 0.0
Co462 Co 0.06724 0.89311 0.07745 0.0
C463 C 0.08404 0.983 0.10226 0.0
C464 C 0.14042 0.96571 0.07704 0.0
C465 C 0.14626 0.01111 0.08506 0.0
N466 N 0.1022 0.94749 0.08848 0.0
N467 N 0.11047 0.02191 0.10067 0.0
H468 H 0.05019 0.98167 0.11152 0.0
H469 H 0.16074 0.94827 0.0625 0.0
C470 C 0.16362 0.85143 0.09288 0.0
O471 O 0.17844 0.89133 0.1021 0.0
N472 N 0.03087 0.83947 0.06587 0.0
C473 C 0.01043 0.83366 0.04284 0.0
C474 C 0.98973 0.79043 0.04194 0.0
C475 C 0.02228 0.79916 0.07863 0.0
N476 N 0.99713 0.76862 0.06438 0.0
C477 C 0.9956 0.89259 0.11499 0.0
C478 C 0.05381 0.88803 0.15715 0.0
C479 C 1.00627 0.89903 0.1606 0.0
C480 C 0.97677 0.90003 0.13921 0.0
C481 C 0.07139 0.88172 0.13256 0.0
N482 N 0.04263 0.88544 0.11178 0.0
H483 H 0.97274 0.89525 0.09857 0.0
H484 H 0.10853 0.87699 0.13038 0.0
H485 H 0.01043 0.8586 0.02739 0.0
H486 H 0.03488 0.79202 0.09773 0.0
O487 O 0.01998 0.93583 0.06484 0.0
O488 O 0.08038 0.91093 0.04222 0.0
O489 O 0.12174 0.84754 0.08392 0.0
C490 C 0.04344 0.93792 0.04372 0.0
H491 H 0.17235 0.03556 0.07825 0.0
H492 H 0.9702 0.77636 0.02598 0.0
H493 H 0.07781 0.88717 0.17321 0.0
H494 H 0.93973 0.90783 0.14112 0.0
Co495 Co 0.60644 0.06735 0.63739 0.0
C496 C 0.50842 0.09808 0.63048 0.0
C497 C 0.55634 0.15045 0.61789 0.0
C498 C 0.51205 0.1616 0.609 0.0
N499 N 0.55424 0.11063 0.6317 0.0
N500 N 0.482 0.12822 0.61679 0.0
H501 H 0.49554 0.06412 0.63584 0.0
H502 H 0.58844 0.16737 0.61203 0.0
C503 C 0.65087 0.16021 0.65259 0.0
O504 O 0.61203 0.1733 0.66397 0.0
N505 N 0.65738 0.02376 0.64198 0.0
C506 C 0.65551 0.98186 0.65367 0.0
C507 C 0.69868 0.96046 0.65144 0.0
C508 C 0.7013 0.02741 0.63277 0.0
N509 N 0.72737 0.98919 0.63832 0.0
C510 C 0.55238 0.04484 0.68148 0.0
C511 C 0.61892 0.06701 0.71786 0.0
C512 C 0.57536 0.04937 0.72567 0.0
C513 C 0.54202 0.03832 0.70711 0.0
C514 C 0.62749 0.0742 0.69178 0.0
N515 N 0.59386 0.06408 0.67392 0.0
H516 H 0.5276 0.03198 0.6678 0.0
H517 H 0.66177 0.08614 0.68597 0.0
H518 H 0.62475 0.96769 0.66289 0.0
H519 H 0.71343 0.05683 0.62161 0.0
O520 O 0.56691 0.01644 0.62617 0.0
O521 O 0.61045 0.06023 0.60074 0.0
O522 O 0.65328 0.12036 0.64162 0.0
C523 C 0.57966 0.02689 0.60311 0.0
H524 H 0.50357 0.18977 0.59597 0.0
H525 H 0.70821 0.92647 0.65896 0.0
H526 H 0.64605 0.0748 0.73171 0.0
H527 H 0.50872 0.02281 0.71232 0.0
H528 H 0.45114 0.0397 0.23921 0.0
H529 H 0.57982 0.09524 0.27063 0.0
H530 H 0.55296 0.07636 0.31351 0.0
H531 H 0.49477 0.04029 0.34205 0.0
H532 H 0.36963 0.97884 0.31022 0.0
H533 H 0.39396 1.00263 0.2674 0.0
C534 C 0.47382 0.04717 0.25531 0.0
C535 C 0.51776 0.06869 0.25143 0.0
C536 C 0.45888 0.03482 0.27988 0.0
C537 C 0.54565 0.07927 0.27285 0.0
C538 C 0.53049 0.0681 0.29744 0.0
C539 C 0.47269 0.03255 0.32571 0.0
C540 C 0.43036 0.00811 0.32921 0.0
C541 C 0.4874 0.04547 0.30116 0.0
C542 C 0.40239 0.99753 0.30792 0.0
C543 C 0.41625 0.0112 0.2835 0.0
H544 H 0.54804 0.49819 0.77761 0.0
H545 H 0.4708 0.36898 0.78042 0.0
H546 H 0.43455 0.38665 0.73913 0.0
H547 H 0.42193 0.44072 0.70312 0.0
H548 H 0.49705 0.57145 0.70113 0.0
H549 H 0.53636 0.55175 0.74116 0.0
C550 C 0.52386 0.47365 0.76891 0.0
C551 C 0.51239 0.43216 0.78185 0.0
C552 C 0.50214 0.48471 0.74549 0.0
C553 C 0.48027 0.40104 0.77069 0.0
C554 C 0.45941 0.41123 0.74716 0.0
C555 C 0.44711 0.46476 0.71138 0.0
C556 C 0.45615 0.50768 0.69918 0.0
C557 C 0.46956 0.45327 0.73453 0.0
C558 C 0.48867 0.53857 0.7103 0.0
C559 C 0.51153 0.52717 0.73312 0.0
H560 H 0.02105 0.52297 0.2313 0.0
H561 H 0.97058 0.38851 0.25616 0.0
H562 H 0.9966 0.4052 0.29972 0.0
H563 H 0.0354 0.457 0.33021 0.0
H564 H 0.07938 0.59473 0.30613 0.0
H565 H 0.05592 0.57688 0.2626 0.0
C566 C 0.01576 0.49741 0.24631 0.0
C567 C 0.9941 0.45453 0.2406 0.0
C568 C 0.0303 0.5075 0.27132 0.0
C569 C 0.9869 0.42187 0.26019 0.0
C570 C 1.00203 0.4313 0.28503 0.0
C571 C 0.03922 0.48368 0.31569 0.0
C572 C 0.05942 0.52728 0.32182 0.0
C573 C 0.0239 0.47396 0.29078 0.0
C574 C 0.06502 0.56049 0.3022 0.0
C575 C 0.05105 0.55055 0.27723 0.0
H576 H 0.08156 0.08491 0.689 0.0
H577 H 0.02694 0.94426 0.69325 0.0
H578 H 0.99007 0.962 0.73374 0.0
H579 H 0.97435 0.01641 0.76851 0.0
H580 H 0.02634 0.15762 0.76449 0.0
H581 H 0.06129 0.14129 0.72282 0.0
C582 C 0.06126 0.05821 0.69861 0.0
C583 C 0.05807 0.01294 0.68812 0.0
C584 C 0.03901 0.06891 0.7218 0.0
C585 C 0.03157 0.97892 0.70109 0.0
C586 C 0.00982 0.98917 0.72417 0.0
C587 C 0.99311 0.04371 0.75842 0.0
C588 C 0.99798 0.08805 0.7696 0.0
C589 C 0.01358 0.03387 0.73477 0.0
C590 C 0.02177 0.1233 0.75618 0.0
C591 C 0.04217 0.11381 0.73249 0.0
H592 H 0.48363 1.00593 0.8319 0.0
H593 H 0.60224 0.91241 0.83719 0.0
H594 H 0.63258 0.94265 0.79686 0.0
H595 H 0.62256 0.99226 0.75849 0.0
H596 H 0.50203 0.08296 0.75277 0.0
H597 H 0.47542 0.05758 0.79483 0.0
C598 C 0.51596 0.99191 0.82416 0.0
C599 C 0.54031 0.95657 0.83745 0.0
C600 C 0.53302 0.00922 0.8009 0.0
C601 C 0.5828 0.93968 0.82742 0.0
C602 C 0.60014 0.95689 0.8043 0.0
C603 C 0.59107 1.0071 0.76679 0.0
C604 C 0.56437 0.03959 0.75273 0.0
C605 C 0.57531 0.99135 0.79073 0.0
C606 C 0.52315 0.05803 0.76338 0.0
C607 C 0.50781 0.04333 0.78732 0.0
H608 H 0.52851 0.47726 0.28755 0.0
H609 H 0.64471 0.57269 0.29428 0.0
H610 H 0.62405 0.60801 0.25313 0.0
H611 H 0.5731 0.61114 0.21486 0.0
H612 H 0.4552 0.51732 0.20925 0.0
H613 H 0.47601 0.48238 0.25027 0.0
C614 C 0.54943 0.50562 0.2799 0.0
C615 C 0.58838 0.52203 0.29381 0.0
C616 C 0.53681 0.52627 0.25647 0.0
C617 C 0.61461 0.55943 0.28392 0.0
C618 C 0.60282 0.57958 0.26039 0.0
C619 C 0.55197 0.5831 0.22267 0.0
C620 C 0.51254 0.567 0.20898 0.0
C621 C 0.56401 0.56325 0.24645 0.0
C622 C 0.48531 0.53086 0.21949 0.0
C623 C 0.4974 0.51059 0.24289 0.0
H624 H 0.97038 0.51791 0.83557 0.0
H625 H 0.02795 0.64691 0.80688 0.0
H626 H 1.0043 0.62575 0.76358 0.0
H627 H 0.96866 0.57023 0.73386 0.0
H628 H 0.91554 0.43862 0.76194 0.0
H629 H 0.93483 0.46176 0.80547 0.0
C630 C 0.97728 0.54154 0.81984 0.0
C631 C 1.00082 0.58398 0.82443 0.0
C632 C 0.96427 0.52875 0.79489 0.0
C633 C 0.01014 0.61396 0.80382 0.0
C634 C 0.99654 0.6019 0.77908 0.0
C635 C 0.96175 0.54618 0.74937 0.0
C636 C 0.94082 0.50248 0.74435 0.0
C637 C 0.974 0.5592 0.77435 0.0
C638 C 0.93107 0.47265 0.76504 0.0
C639 C 0.94244 0.48572 0.79001 0.0
H640 H 0.95631 0.97679 0.17298 0.0
H641 H 0.01779 0.85225 0.20547 0.0
H642 H 0.99475 0.87764 0.24812 0.0
H643 H 0.96068 0.93659 0.27618 0.0
H644 H 0.90431 0.06428 0.2444 0.0
H645 H 0.92038 0.03563 0.20139 0.0
C646 C 0.96399 0.95496 0.18941 0.0
C647 C 0.98862 0.91263 0.18613 0.0
C648 C 0.95157 0.97034 0.21394 0.0
C649 C 0.99904 0.885 0.20756 0.0
C650 C 0.98586 0.8995 0.23191 0.0
C651 C 0.95226 0.95853 0.25992 0.0
C652 C 0.93194 1.00299 0.26368 0.0
C653 C 0.96285 0.94245 0.23535 0.0
C654 C 0.91981 0.02995 0.24219 0.0
C655 C 0.92933 0.0137 0.21757 0.0
H656 H 0.68916 0.22401 0.13742 0.0
H657 H 0.74936 0.13494 0.19552 0.0
H658 H 0.81847 0.18467 0.1977 0.0
H659 H 0.86377 0.2517 0.18214 0.0
H660 H 0.8048 0.34089 0.12379 0.0
H661 H 0.73377 0.29318 0.12281 0.0
C662 C 0.71721 0.21568 0.1507 0.0
C663 C 0.7138 0.17551 0.16622 0.0
C664 C 0.75745 0.24444 0.15178 0.0
C665 C 0.75076 0.16539 0.18326 0.0
C666 C 0.79052 0.19387 0.18453 0.0
C667 C 0.83535 0.26096 0.16929 0.0
C668 C 0.83998 0.29993 0.15303 0.0
C669 C 0.79453 0.23319 0.16871 0.0
C670 C 0.8025 0.31115 0.13652 0.0
C671 C 0.76174 0.28379 0.13592 0.0
H672 H 0.15195 0.76315 0.59696 0.0
H673 H 0.24288 0.88354 0.59351 0.0
H674 H 0.31156 0.83274 0.5979 0.0
H675 H 0.34592 0.75423 0.60209 0.0
H676 H 0.25542 0.63344 0.60372 0.0
H677 H 0.18646 0.68439 0.6008 0.0
C678 C 0.18676 0.77839 0.59725 0.0
C679 C 0.19208 0.82729 0.59497 0.0
C680 C 0.22621 0.74887 0.59949 0.0
C681 C 0.2376 0.84617 0.59517 0.0
C682 C 0.27694 0.81709 0.59773 0.0
C683 C 0.31113 0.73893 0.60201 0.0
C684 C 0.30598 0.68992 0.6033 0.0
C685 C 0.27168 0.76841 0.59986 0.0
C686 C 0.26053 0.67092 0.60281 0.0
C687 C 0.22105 0.70009 0.60111 0.0
H688 H 0.83598 0.22979 0.8921 0.0
H689 H 0.78213 0.14242 0.83174 0.0
H690 H 0.71194 0.19049 0.82878 0.0
H691 H 0.66418 0.25626 0.84361 0.0
H692 H 0.71622 0.34409 0.90412 0.0
H693 H 0.78802 0.29731 0.90659 0.0
C694 C 0.809 0.22142 0.87822 0.0
C695 C 0.81471 0.18221 0.86224 0.0
C696 C 0.76797 0.24934 0.87663 0.0
C697 C 0.77906 0.17208 0.84442 0.0
C698 C 0.73864 0.19965 0.84266 0.0
C699 C 0.6912 0.26538 0.85732 0.0
C700 C 0.6844 0.3038 0.87365 0.0
C701 C 0.73248 0.23818 0.85874 0.0
C702 C 0.72014 0.31478 0.89128 0.0
C703 C 0.76139 0.28796 0.89273 0.0
H704 H 0.23585 0.66419 0.42564 0.0
H705 H 0.13032 0.7673 0.40722 0.0
H706 H 0.18893 0.82935 0.41009 0.0
H707 H 0.27095 0.85477 0.41794 0.0
H708 H 0.37648 0.7503 0.43394 0.0
H709 H 0.3174 0.68891 0.4321 0.0
C710 C 0.22564 0.70019 0.4222 0.0
C711 C 0.17864 0.71088 0.41624 0.0
C712 C 0.25967 0.73576 0.42358 0.0
C713 C 0.16625 0.75786 0.41169 0.0
C714 C 0.19976 0.79351 0.41345 0.0
C715 C 0.28082 0.81859 0.42115 0.0
C716 C 0.32808 0.80723 0.42616 0.0
C717 C 0.24665 0.78297 0.41945 0.0
C718 C 0.34042 0.76007 0.42996 0.0
C719 C 0.30663 0.72483 0.42893 0.0
H720 H 0.26254 0.66536 0.91653 0.0
H721 H 0.14093 0.75537 0.91977 0.0
H722 H 0.19183 0.82409 0.91993 0.0
H723 H 0.271 0.85863 0.92079 0.0
H724 H 0.39251 0.76828 0.9197 0.0
H725 H 0.34152 0.69983 0.91696 0.0
C726 C 0.24703 0.69999 0.91706 0.0
C727 C 0.19778 0.705 0.91805 0.0
C728 C 0.27659 0.73938 0.91762 0.0
C729 C 0.17857 0.75029 0.919 0.0
C730 C 0.20773 0.78968 0.9191 0.0
C731 C 0.28641 0.82401 0.91972 0.0
C732 C 0.33567 0.81876 0.92039 0.0
C733 C 0.2568 0.78465 0.91864 0.0
C734 C 0.35483 0.77348 0.91927 0.0
C735 C 0.32564 0.73426 0.9177 0.0
H736 H 0.78545 0.16782 0.38235 0.0
H737 H 0.88079 0.23588 0.33037 0.0
H738 H 0.83261 0.30602 0.33091 0.0
H739 H 0.76571 0.35002 0.34729 0.0
H740 H 0.66903 0.28403 0.39913 0.0
H741 H 0.71494 0.21151 0.39724 0.0
C742 C 0.79552 0.19789 0.37102 0.0
C743 C 0.83714 0.19624 0.35644 0.0
C744 C 0.76736 0.23877 0.37137 0.0
C745 C 0.84928 0.23574 0.34185 0.0
C746 C 0.82167 0.27614 0.34213 0.0
C747 C 0.75431 0.31976 0.35809 0.0
C748 C 0.7139 0.32284 0.37343 0.0
C749 C 0.78098 0.2783 0.35701 0.0
C750 C 0.69985 0.28289 0.38711 0.0
C751 C 0.72628 0.24136 0.38612 0.0
H752 H 0.2587 0.85058 0.09985 0.0
H753 H 0.1403 0.75876 0.08898 0.0
H754 H 0.19218 0.6908 0.09249 0.0
H755 H 0.271 0.65727 0.09885 0.0
H756 H 0.39014 0.74881 0.10764 0.0
H757 H 0.33816 0.81696 0.10477 0.0
C758 C 0.24415 0.81571 0.09827 0.0
C759 C 0.19541 0.80996 0.09428 0.0
C760 C 0.27438 0.77668 0.09999 0.0
C761 C 0.17749 0.7644 0.092 0.0
C762 C 0.2072 0.72545 0.09408 0.0
C763 C 0.2857 0.69211 0.10027 0.0
C764 C 0.33456 0.69774 0.10372 0.0
C765 C 0.25565 0.73115 0.09815 0.0
C766 C 0.35282 0.74329 0.10507 0.0
C767 C 0.32303 0.78231 0.10344 0.0
H768 H 0.65359 0.25588 0.65432 0.0
H769 H 0.74281 0.13411 0.65098 0.0
H770 H 0.81244 0.1839 0.65126 0.0
H771 H 0.84846 0.26232 0.65191 0.0
H772 H 0.75944 0.38437 0.65149 0.0
H773 H 0.6897 0.3346 0.65323 0.0
C774 C 0.6883 0.24029 0.65377 0.0
C775 C 0.69287 0.19123 0.65279 0.0
C776 C 0.72838 0.26932 0.65323 0.0
C777 C 0.73816 0.17168 0.65168 0.0
C778 C 0.77808 0.20019 0.6519 0.0
C779 C 0.81379 0.27801 0.65237 0.0
C780 C 0.8093 0.32709 0.65182 0.0
C781 C 0.7737 0.24907 0.65262 0.0
C782 C 0.76401 0.34677 0.65193 0.0
C783 C 0.72405 0.31827 0.65295 0.0
H784 H 0.62985 0.76674 0.10439 0.0
H785 H 0.48221 0.80012 0.10707 0.0
H786 H 0.50093 0.88119 0.1176 0.0
H787 H 0.55887 0.94246 0.12436 0.0
H788 H 0.70677 0.91005 0.12243 0.0
H789 H 0.68833 0.82838 0.11233 0.0
C790 C 0.60179 0.7918 0.1072 0.0
C791 C 0.55465 0.77749 0.10487 0.0
C792 C 0.61287 0.8383 0.11314 0.0
C793 C 0.51867 0.81015 0.10901 0.0
C794 C 0.52939 0.85652 0.11485 0.0
C795 C 0.58724 0.91751 0.12235 0.0
C796 C 0.63429 0.9322 0.12464 0.0
C797 C 0.57632 0.87093 0.11685 0.0
C798 C 0.6704 0.89955 0.12082 0.0
C799 C 0.65981 0.85294 0.11516 0.0
H800 H 0.74107 0.61462 0.61725 0.0
H801 H 0.70906 0.46849 0.62802 0.0
H802 H 0.62616 0.48435 0.61998 0.0
H803 H 0.56307 0.53943 0.6099 0.0
H804 H 0.59405 0.68589 0.60014 0.0
H805 H 0.67743 0.67018 0.60793 0.0
C806 C 0.71598 0.58627 0.61812 0.0
C807 C 0.73144 0.54039 0.62328 0.0
C808 C 0.66826 0.59571 0.6137 0.0
C809 C 0.69838 0.50399 0.62378 0.0
C810 C 0.65087 0.51309 0.61936 0.0
C811 C 0.58779 0.56814 0.60992 0.0
C812 C 0.57223 0.61396 0.60474 0.0
C813 C 0.63545 0.55881 0.61438 0.0
C814 C 0.60519 0.65038 0.60404 0.0
C815 C 0.65277 0.64139 0.60853 0.0
H816 H 0.9161 0.56514 0.07362 0.0
H817 H 0.90852 0.60357 0.15265 0.0
H818 H 0.94218 0.68065 0.14284 0.0
H819 H 0.97328 0.73714 0.1113 0.0
H820 H 0.98406 0.69572 0.03253 0.0
H821 H 0.95017 0.61982 0.04258 0.0
C822 C 0.92116 0.59088 0.08852 0.0
C823 C 0.90876 0.57969 0.11367 0.0
C824 C 0.94154 0.6343 0.08277 0.0
C825 C 0.91705 0.61223 0.13311 0.0
C826 C 0.9365 0.65599 0.12749 0.0
C827 C 0.96861 0.71132 0.09643 0.0
C828 C 0.98065 0.7225 0.07113 0.0
C829 C 0.94899 0.66743 0.10236 0.0
C830 C 0.97421 0.68856 0.05205 0.0
C831 C 0.9549 0.64501 0.05778 0.0
H832 H 0.76683 0.90554 0.6282 0.0
H833 H 0.79602 0.05322 0.63214 0.0
H834 H 0.87715 0.03889 0.61935 0.0
H835 H 0.93921 0.98462 0.60627 0.0
H836 H 0.91031 0.83701 0.60176 0.0
H837 H 0.8295 0.85096 0.61563 0.0
C838 C 0.79108 0.9345 0.62652 0.0
C839 C 0.77537 0.9804 0.63113 0.0
C840 C 0.83762 0.92599 0.61902 0.0
C841 C 0.80706 0.01766 0.62842 0.0
C842 C 0.85351 0.00945 0.62123 0.0
C843 C 0.9155 0.9554 0.60869 0.0
C844 C 0.93085 0.90973 0.60319 0.0
C845 C 0.86912 0.9638 0.61641 0.0
C846 C 0.89922 0.87244 0.60579 0.0
C847 C 0.85311 0.88042 0.61376 0.0
H848 H 0.56875 0.593 0.87486 0.0
H849 H 0.69765 0.59323 0.91854 0.0
H850 H 0.67871 0.67012 0.93506 0.0
H851 H 0.62202 0.73368 0.94083 0.0
H852 H 0.49008 0.73047 0.90021 0.0
H853 H 0.51362 0.65828 0.87911 0.0
C854 C 0.5928 0.60959 0.88804 0.0
C855 C 0.63416 0.58621 0.89575 0.0
C856 C 0.58085 0.65327 0.89836 0.0
C857 C 0.66552 0.60964 0.91212 0.0
C858 C 0.65449 0.65371 0.92187 0.0
C859 C 0.59824 0.71717 0.92747 0.0
C860 C 0.55404 0.73738 0.92244 0.0
C861 C 0.61158 0.67512 0.91578 0.0
C862 C 0.52435 0.716 0.90445 0.0
C863 C 0.53771 0.6745 0.89244 0.0
H864 H 0.78382 0.54428 0.45656 0.0
H865 H 0.78485 0.53404 0.37479 0.0
H866 H 0.8549 0.58384 0.37297 0.0
H867 H 0.92158 0.62118 0.39544 0.0
H868 H 0.91936 0.63193 0.47725 0.0
H869 H 0.84359 0.59196 0.47847 0.0
C870 C 0.79902 0.55385 0.43838 0.0
C871 C 0.77983 0.53537 0.41584 0.0
C872 C 0.83902 0.58243 0.43759 0.0
C873 C 0.79918 0.54812 0.3923 0.0
C874 C 0.8393 0.57626 0.39132 0.0
C875 C 0.90365 0.61587 0.4134 0.0
C876 C 0.92586 0.62944 0.43621 0.0
C877 C 0.86033 0.5924 0.41391 0.0
C878 C 0.90264 0.62237 0.45946 0.0
C879 C 0.85961 0.599 0.46016 0.0
H880 H 0.97968 0.95011 0.90448 0.0
H881 H 0.83153 0.92041 0.90955 0.0
H882 H 0.84951 0.83961 0.92182 0.0
H883 H 0.90765 0.77753 0.93057 0.0
H884 H 0.05532 0.80776 0.92382 0.0
H885 H 0.03709 0.88837 0.91178 0.0
C886 C 0.95108 0.92596 0.90763 0.0
C887 C 0.90413 0.94129 0.90566 0.0
C888 C 0.96167 0.87967 0.91426 0.0
C889 C 0.86787 0.90956 0.91095 0.0
C890 C 0.87816 0.86336 0.91786 0.0
C891 C 0.93577 0.80186 0.92654 0.0
C892 C 0.98279 0.78679 0.92812 0.0
C893 C 0.92496 0.84807 0.91954 0.0
C894 C 0.01891 0.81843 0.92246 0.0
C895 C 1.00849 0.86453 0.91574 0.0
H896 H 0.56968 0.97916 0.4137 0.0
H897 H 0.60307 0.83231 0.41851 0.0
H898 H 0.68369 0.84843 0.40537 0.0
H899 H 0.74443 0.90417 0.39295 0.0
H900 H 0.71172 0.05115 0.38793 0.0
H901 H 0.63087 0.03521 0.40099 0.0
C902 C 0.59442 0.95064 0.41152 0.0
C903 C 0.58039 0.90449 0.41687 0.0
C904 C 0.64076 0.96028 0.40415 0.0
C905 C 0.61318 0.86806 0.41458 0.0
C906 C 0.65916 0.87727 0.40704 0.0
C907 C 0.71955 0.93271 0.39444 0.0
C908 C 0.73401 0.97876 0.38928 0.0
C909 C 0.67332 0.92323 0.40184 0.0
C910 C 0.70156 0.01546 0.39196 0.0
C911 C 0.65529 1.00631 0.39927 0.0
H912 H 0.44696 0.24832 0.94557 0.0
H913 H 0.54378 0.21739 0.885 0.0
H914 H 0.52318 0.13423 0.88771 0.0
H915 H 0.47406 0.0718 0.90574 0.0
H916 H 0.37844 0.10438 0.96708 0.0
H917 H 0.40074 0.18591 0.96473 0.0
C918 C 0.46355 0.22337 0.93295 0.0
C919 C 0.49647 0.23892 0.91495 0.0
C920 C 0.45105 0.17616 0.93438 0.0
C921 C 0.51855 0.20612 0.89911 0.0
C922 C 0.5064 0.15876 0.9005 0.0
C923 C 0.45835 0.0964 0.91885 0.0
C924 C 0.42435 0.08122 0.93655 0.0
C925 C 0.47212 0.14352 0.91783 0.0
C926 C 0.40403 0.11441 0.95296 0.0
C927 C 0.41713 0.16128 0.95184 0.0
H928 H 0.27416 0.42126 0.4369 0.0
H929 H 0.28698 0.55943 0.40446 0.0
H930 H 0.36717 0.54127 0.39117 0.0
H931 H 0.43298 0.4846 0.38738 0.0
H932 H 0.41664 0.34594 0.41872 0.0
H933 H 0.33789 0.36541 0.4328 0.0
C934 C 0.29389 0.44746 0.42662 0.0
C935 C 0.27373 0.49158 0.42151 0.0
C936 C 0.33942 0.4364 0.41844 0.0
C937 C 0.30117 0.52525 0.40886 0.0
C938 C 0.34708 0.51473 0.40104 0.0
C939 C 0.41217 0.45869 0.3973 0.0
C940 C 0.43089 0.41361 0.40168 0.0
C941 C 0.36645 0.4702 0.40551 0.0
C942 C 0.40316 0.38048 0.4145 0.0
C943 C 0.35811 0.39176 0.42285 0.0
H944 H 0.11094 0.27545 0.8982 0.0
H945 H 0.96343 0.30944 0.8957 0.0
H946 H 0.98129 0.39052 0.90692 0.0
H947 H 0.03911 0.45188 0.91624 0.0
H948 H 0.18662 0.41792 0.9181 0.0
H949 H 0.16853 0.33632 0.90813 0.0
C950 C 0.08267 0.30063 0.8999 0.0
C951 C 0.03591 0.28649 0.89583 0.0
C952 C 0.09327 0.34708 0.90612 0.0
C953 C 0.99964 0.31933 0.89885 0.0
C954 C 0.00989 0.36573 0.90508 0.0
C955 C 0.06736 0.42679 0.91413 0.0
C956 C 0.1143 0.44103 0.91751 0.0
C957 C 0.05662 0.38007 0.90848 0.0
C958 C 0.15033 0.40773 0.91554 0.0
C959 C 0.13997 0.3612 0.90981 0.0
H960 H 0.23918 0.09993 0.43441 0.0
H961 H 0.21067 0.95377 0.4221 0.0
H962 H 0.1322 0.97319 0.40607 0.0
H963 H 0.07146 0.03112 0.39726 0.0
H964 H 0.10029 0.17801 0.40767 0.0
H965 H 0.17893 0.15873 0.42347 0.0
C966 C 0.21568 0.07239 0.42827 0.0
C967 C 0.23051 0.02543 0.42956 0.0
C968 C 0.17083 0.08391 0.41892 0.0
C969 C 0.2001 0.99011 0.42111 0.0
C970 C 0.15524 1.00123 0.41209 0.0
C971 C 0.09498 0.05928 0.40232 0.0
C972 C 0.07978 0.10624 0.40093 0.0
C973 C 0.14022 0.04798 0.41101 0.0
C974 C 0.11083 0.14168 0.40861 0.0
C975 C 0.15586 0.13066 0.41756 0.0
H976 H 0.42122 0.26512 0.12223 0.0
H977 H 0.56687 0.2994 0.13487 0.0
H978 H 0.54967 0.38189 0.12662 0.0
H979 H 0.49294 0.44403 0.1164 0.0
H980 H 0.34706 0.40957 0.10494 0.0
H981 H 0.3646 0.32694 0.11252 0.0
C982 C 0.44921 0.29057 0.1235 0.0
C983 C 0.49524 0.27601 0.12941 0.0
C984 C 0.43893 0.33782 0.11908 0.0
C985 C 0.53123 0.30951 0.1302 0.0
C986 C 0.52133 0.35672 0.12567 0.0
C987 C 0.46481 0.41862 0.11599 0.0
C988 C 0.41854 0.43298 0.1104 0.0
C989 C 0.47523 0.37128 0.12029 0.0
C990 C 0.38285 0.39931 0.10917 0.0
C991 C 0.39289 0.35217 0.11352 0.0
H992 H 0.21506 0.42406 0.56775 0.0
H993 H 0.23457 0.50418 0.63657 0.0
H994 H 0.1583 0.4777 0.65209 0.0
H995 H 0.0859 0.43201 0.64595 0.0
H996 H 0.06714 0.35295 0.57667 0.0
H997 H 0.14447 0.37692 0.56219 0.0
C998 C 0.2032 0.43535 0.58632 0.0
C999 C 0.23099 0.46609 0.60095 0.0
C1000 C 0.15962 0.41955 0.59526 0.0
C1001 C 0.21399 0.48104 0.62471 0.0
C1002 C 0.17047 0.46555 0.63372 0.0
C1003 C 0.0987 0.41994 0.62769 0.0
C1004 C 0.07029 0.39068 0.61248 0.0
C1005 C 0.14296 0.43484 0.61912 0.0
C1006 C 0.08804 0.37485 0.58904 0.0
C1007 C 0.13221 0.38905 0.58056 0.0
H1008 H 0.097 0.22866 0.13699 0.0
H1009 H 0.95913 0.21686 0.10309 0.0
H1010 H 0.97338 0.13399 0.09495 0.0
H1011 H 0.02755 0.06587 0.0948 0.0
H1012 H 0.16736 0.08135 0.12499 0.0
H1013 H 0.15019 0.16234 0.13687 0.0
C1014 C 0.07004 0.20857 0.12747 0.0
C1015 C 0.02726 0.22983 0.1203 0.0
C1016 C 0.079 0.16143 0.12214 0.0
C1017 C 0.99242 0.20195 0.10886 0.0
C1018 C 1.00064 0.15443 0.10407 0.0
C1019 C 0.05381 0.087 0.10433 0.0
C1020 C 0.09854 0.06798 0.10931 0.0
C1021 C 0.04407 0.13396 0.11031 0.0
C1022 C 0.1328 0.09559 0.12113 0.0
C1023 C 0.12296 0.14172 0.12784 0.0
H1024 H 0.4134 0.08085 0.64078 0.0
H1025 H 0.44585 0.15242 0.57062 0.0
H1026 H 0.37046 0.12874 0.55269 0.0
H1027 H 0.2973 0.08455 0.55609 0.0
H1028 H 0.264 0.01336 0.6264 0.0
H1029 H 0.33842 0.03869 0.64469 0.0
C1030 C 0.40387 0.09139 0.6216 0.0
C1031 C 0.43539 0.11853 0.60716 0.0
C1032 C 0.36063 0.07704 0.61124 0.0
C1033 C 0.42222 0.13226 0.58239 0.0
C1034 C 0.37922 0.11825 0.57199 0.0
C1035 C 0.30571 0.07492 0.57553 0.0
C1036 C 0.27448 0.04685 0.5897 0.0
C1037 C 0.34838 0.09024 0.58615 0.0
C1038 C 0.28715 0.03426 0.61476 0.0
C1039 C 0.32972 0.0491 0.62537 0.0
H1040 H 0.53497 1.00437 0.98978 0.0
H1041 H 0.45099 0.90214 0.02926 0.0
H1042 H 0.46562 0.94216 0.0697 0.0
H1043 H 0.5023 1.00639 0.09381 0.0
H1044 H 0.58564 0.10885 0.05401 0.0
H1045 H 0.57069 0.06891 0.0137 0.0
C1046 C 0.5201 0.99065 1.00726 0.0
C1047 C 0.49221 0.95012 1.00654 0.0
C1048 C 0.52806 0.01424 0.03034 0.0
C1049 C 0.47268 0.93319 0.0293 0.0
C1050 C 0.48093 0.95615 0.05242 0.0
C1051 C 0.51675 0.02029 0.07627 0.0
C1052 C 0.54479 0.0608 0.07691 0.0
C1053 C 0.50838 0.99685 0.05315 0.0
C1054 C 0.56376 0.07792 0.05406 0.0
C1055 C 0.55539 0.05498 0.031 0.0
H1056 H 0.49762 0.47778 0.54743 0.0
H1057 H 0.41858 0.58316 0.50676 0.0
H1058 H 0.46294 0.56673 0.46806 0.0
H1059 H 0.52411 0.52236 0.44565 0.0
H1060 H 0.60157 0.41532 0.48582 0.0
H1061 H 0.5583 0.43276 0.52487 0.0
C1062 C 0.48999 0.49704 0.53008 0.0
C1063 C 0.45474 0.53158 0.53 0.0
C1064 C 0.51566 0.48739 0.50785 0.0
C1065 C 0.44538 0.55627 0.50735 0.0
C1066 C 0.47087 0.54702 0.48521 0.0
C1067 C 0.53186 0.5032 0.46303 0.0
C1068 C 0.5663 0.4679 0.46293 0.0
C1069 C 0.50619 0.51279 0.48525 0.0
C1070 C 0.57535 0.44279 0.48546 0.0
C1071 C 0.55053 0.45266 0.50776 0.0
H1072 H 0.02596 0.5059 0.08352 0.0
H1073 H 0.9486 0.40079 0.04222 0.0
H1074 H 0.96536 0.44084 1.00207 0.0
H1075 H 1.00137 0.50624 0.97872 0.0
H1076 H 0.0786 0.61124 0.02016 0.0
H1077 H 0.06202 0.57106 0.06025 0.0
C1078 C 0.01326 0.49142 0.06571 0.0
C1079 C 0.9865 0.45014 0.06582 0.0
C1080 C 0.02255 0.51492 0.04275 0.0
C1081 C 0.96956 0.43233 0.04263 0.0
C1082 C 0.97896 0.45532 0.01967 0.0
C1083 C 0.01439 0.52038 0.99655 0.0
C1084 C 0.04117 0.56162 0.99648 0.0
C1085 C 1.00519 0.49678 0.01951 0.0
C1086 C 0.05809 0.57941 0.01969 0.0
C1087 C 0.04868 0.55643 0.04263 0.0
H1088 H 0.93092 0.06393 0.46079 0.0
H1089 H 0.98874 0.9515 0.41605 0.0
H1090 H 0.03773 0.92726 0.45201 0.0
H1091 H 0.06566 0.93898 0.49607 0.0
H1092 H 1.00845 0.05229 0.54043 0.0
H1093 H 0.95818 0.07517 0.50483 0.0
C1094 C 0.9537 0.0337 0.45903 0.0
C1095 C 0.95574 0.00933 0.43582 0.0
C1096 C 0.98242 0.02035 0.47969 0.0
C1097 C 0.98612 0.97069 0.43376 0.0
C1098 C 0.0144 0.95692 0.45429 0.0
C1099 C 0.04235 0.96879 0.49789 0.0
C1100 C 0.04106 0.99395 0.52088 0.0
C1101 C 0.0132 0.98174 0.4773 0.0
C1102 C 0.01037 0.03234 0.52295 0.0
C1103 C 0.98141 0.04542 0.5026 0.0
H1104 H 0.58506 0.44331 0.97866 0.0
H1105 H 0.483 0.51306 0.93088 0.0
H1106 H 0.45575 0.55857 0.96718 0.0
H1107 H 0.46032 0.57848 0.01262 0.0
H1108 H 0.56191 0.5087 0.06064 0.0
H1109 H 0.58983 0.46354 0.02425 0.0
C1110 C 0.55682 0.46841 0.97622 0.0
C1111 C 0.53604 0.47458 0.95209 0.0
C1112 C 0.54122 0.49461 0.99725 0.0
C1113 C 0.49954 0.50739 0.94925 0.0
C1114 C 0.48393 0.53356 0.97001 0.0
C1115 C 0.48868 0.55352 0.0151 0.0
C1116 C 0.50904 0.5471 0.03931 0.0
C1117 C 0.50445 0.52746 0.9941 0.0
C1118 C 0.54565 0.51444 0.04221 0.0
C1119 C 0.56162 0.48851 0.0214 0.0
H1120 H 0.99758 0.505 0.48064 0.0
H1121 H 0.10799 0.57694 0.52099 0.0
H1122 H 0.06957 0.56015 0.56157 0.0
H1123 H 1.00425 0.52542 0.58567 0.0
H1124 H 0.89364 0.45388 0.54523 0.0
H1125 H 0.93213 0.47059 0.5047 0.0
C1126 C 0.01346 0.51665 0.49833 0.0
C1127 C 0.05581 0.54189 0.49778 0.0
C1128 C 0.9908 0.50743 0.5216 0.0
C1129 C 0.07553 0.55729 0.52087 0.0
C1130 C 0.05348 0.54784 0.54409 0.0
C1131 C 0.98833 0.51387 0.56797 0.0
C1132 C 0.94591 0.48871 0.5685 0.0
C1133 C 0.01095 0.52318 0.54469 0.0
C1134 C 0.92613 0.47348 0.54539 0.0
C1135 C 0.94823 0.48287 0.52218 0.0
H1136 H 0.08472 0.95194 0.99726 0.0
H1137 H 0.96854 0.99694 0.04376 0.0
H1138 H 0.94306 0.05081 1.01045 0.0
H1139 H 0.95188 0.08368 0.96736 0.0
H1140 H 0.06706 0.03787 0.92044 0.0
H1141 H 0.09482 0.98656 0.95453 0.0
C1142 C 0.05384 0.97352 1.00007 0.0
C1143 C 0.02849 0.97005 0.02295 0.0
C1144 C 0.03923 1.00469 0.98075 0.0
C1145 C 0.98865 0.99854 0.0263 0.0
C1146 C 0.97404 0.02958 1.00727 0.0
C1147 C 0.98352 0.06311 0.96478 0.0
C1148 C 1.00748 0.06496 0.94144 0.0
C1149 C 0.99891 0.03289 0.98435 0.0
C1150 C 0.04801 0.03739 0.93827 0.0
C1151 C 0.06384 0.00777 0.95773 0.0
H1152 H 0.44601 0.93 0.52279 0.0
H1153 H 0.49609 0.04439 0.47659 0.0
H1154 H 0.5467 0.07027 0.51127 0.0
H1155 H 0.57618 0.06148 0.55497 0.0
H1156 H 0.52506 0.94876 0.6019 0.0
H1157 H 0.47609 0.92093 0.56672 0.0
C1158 C 0.46784 0.96069 0.52039 0.0
C1159 C 0.46705 0.98527 0.49714 0.0
C1160 C 0.49715 0.97547 0.54048 0.0
C1161 C 0.4958 0.02485 0.49429 0.0
C1162 C 0.52497 0.03965 0.5141 0.0
C1163 C 0.55491 0.03038 0.55736 0.0
C1164 C 0.55467 1.00693 0.58091 0.0
C1165 C 0.52604 0.01521 0.53725 0.0
C1166 C 0.52615 0.96724 0.58388 0.0
C1167 C 0.49792 0.95145 0.56381 0.0
loop_
_geom_bond_atom_site_label_1
_geom_bond_atom_site_label_2
_geom_bond_distance
_geom_bond_site_symmetry_2
_ccdc_geom_bond_type
Co0 N4 2.148 . S
Co0 N10 2.128 . S
Co0 N20 2.194 . S
Co0 O25 2.351 . S
Co0 O26 2.155 . S
Co0 O27 2.096 . S
C1 N4 1.301 . S
C1 N5 1.328 1_545 S
C1 H6 0.930 . S
C2 C3 1.333 . S
C2 N4 1.317 . S
C2 H7 0.930 . S
C3 C2 1.333 . S
C3 N5 1.350 1_545 S
C3 H29 0.931 1_545 S
N4 Co0 2.148 . S
N4 C1 1.301 . S
N4 C2 1.317 . S
N5 C1 1.328 1_565 S
N5 C3 1.350 1_565 S
H6 C1 0.930 . S
H7 C2 0.930 . S
C8 O9 1.224 . S
C8 O27 1.247 . S
O9 C8 1.224 . S
N10 Co0 2.128 . S
N10 C11 1.355 . S
N10 C13 1.311 . S
C11 N10 1.355 . S
C11 C12 1.363 . S
C11 H23 0.929 . S
C12 C11 1.363 . S
C12 N14 1.375 . S
C12 H30 0.931 . S
C13 N10 1.311 . S
C13 N14 1.347 . S
C13 H24 0.929 . S
N14 C12 1.375 . S
N14 C13 1.347 . S
C15 C18 1.365 . S
C15 N20 1.328 . S
C15 H21 0.929 . S
C16 C17 1.362 . S
C16 C19 1.378 . S
C16 H31 0.929 . S
C17 C16 1.362 . S
C17 C18 1.366 . S
C18 C15 1.365 . S
C18 C17 1.366 . S
C18 H32 0.930 . S
C19 C16 1.378 . S
C19 N20 1.315 . S
C19 H22 0.930 . S
N20 Co0 2.194 . S
N20 C15 1.328 . S
N20 C19 1.315 . S
H21 C15 0.929 . S
H22 C19 0.930 . S
H23 C11 0.929 . S
H24 C13 0.929 . S
O25 Co0 2.351 . S
O25 C28 1.244 . S
O26 Co0 2.155 . S
O26 C28 1.240 . S
O27 Co0 2.096 . S
O27 C8 1.247 . S
C28 O25 1.244 . S
C28 O26 1.240 . S
H29 C3 0.931 1_565 S
H30 C12 0.931 . S
H31 C16 0.929 . S
H32 C18 0.930 . S
Co33 N37 2.148 . S
Co33 N43 2.128 . S
Co33 N53 2.194 . S
Co33 O58 2.351 . S
Co33 O59 2.155 . S
Co33 O60 2.096 . S
C34 N37 1.301 . S
C34 N38 1.328 . S
C34 H39 0.930 . S
C35 C36 1.333 . S
C35 N37 1.317 . S
C35 H40 0.930 . S
C36 C35 1.333 . S
C36 N38 1.350 . S
C36 H62 0.931 . S
N37 Co33 2.148 . S
N37 C34 1.301 . S
N37 C35 1.317 . S
N38 C34 1.328 . S
N38 C36 1.350 . S
H39 C34 0.930 . S
H40 C35 0.930 . S
C41 O42 1.224 . S
C41 O60 1.247 . S
O42 C41 1.224 . S
N43 Co33 2.128 . S
N43 C44 1.355 . S
N43 C46 1.311 . S
C44 N43 1.355 . S
C44 C45 1.363 . S
C44 H56 0.929 . S
C45 C44 1.363 . S
C45 N47 1.375 . S
C45 H63 0.931 . S
C46 N43 1.311 . S
C46 N47 1.347 . S
C46 H57 0.929 . S
N47 C45 1.375 . S
N47 C46 1.347 . S
C48 C51 1.365 . S
C48 N53 1.328 . S
C48 H54 0.929 . S
C49 C50 1.362 . S
C49 C52 1.378 . S
C49 H64 0.929 . S
C50 C49 1.362 . S
C50 C51 1.366 . S
C51 C48 1.365 . S
C51 C50 1.366 . S
C51 H65 0.930 . S
C52 C49 1.378 . S
C52 N53 1.315 . S
C52 H55 0.930 . S
N53 Co33 2.194 . S
N53 C48 1.328 . S
N53 C52 1.315 . S
H54 C48 0.929 . S
H55 C52 0.930 . S
H56 C44 0.929 . S
H57 C46 0.929 . S
O58 Co33 2.351 . S
O58 C61 1.244 . S
O59 Co33 2.155 . S
O59 C61 1.240 . S
O60 Co33 2.096 . S
O60 C41 1.247 . S
C61 O58 1.244 . S
C61 O59 1.240 . S
H62 C36 0.931 . S
H63 C45 0.931 . S
H64 C49 0.929 . S
H65 C51 0.930 . S
Co66 N70 2.148 . S
Co66 N76 2.130 . S
Co66 N86 2.194 1_655 S
Co66 O91 2.351 1_655 S
Co66 O92 2.155 . S
Co66 O93 2.096 . S
C67 N70 1.301 . S
C67 N71 1.328 . S
C67 H72 0.930 . S
C68 C69 1.333 . S
C68 N70 1.317 . S
C68 H73 0.930 . S
C69 C68 1.333 . S
C69 N71 1.350 . S
C69 H95 0.931 . S
N70 Co66 2.148 . S
N70 C67 1.301 . S
N70 C68 1.317 . S
N71 C67 1.328 . S
N71 C69 1.350 . S
H72 C67 0.930 . S
H73 C68 0.930 . S
C74 O75 1.224 . S
C74 O93 1.247 . S
O75 C74 1.224 . S
N76 Co66 2.130 . S
N76 C77 1.352 1_655 S
N76 C79 1.312 . S
C77 N76 1.352 1_455 S
C77 C78 1.363 . S
C77 H89 0.929 . S
C78 C77 1.363 . S
C78 N80 1.375 . S
C78 H96 0.931 . S
C79 N76 1.312 . S
C79 N80 1.347 1_655 S
C79 H90 0.929 . S
N80 C78 1.375 . S
N80 C79 1.347 1_455 S
C81 C84 1.365 . S
C81 N86 1.328 . S
C81 H87 0.929 . S
C82 C83 1.362 . S
C82 C85 1.378 1_455 S
C82 H97 0.929 1_455 S
C83 C82 1.362 . S
C83 C84 1.366 . S
C84 C81 1.365 . S
C84 C83 1.366 . S
C84 H98 0.930 . S
C85 C82 1.378 1_655 S
C85 N86 1.315 1_655 S
C85 H88 0.930 . S
N86 Co66 2.194 1_455 S
N86 C81 1.328 . S
N86 C85 1.315 1_455 S
H87 C81 0.929 . S
H88 C85 0.930 . S
H89 C77 0.929 . S
H90 C79 0.929 . S
O91 Co66 2.351 1_455 S
O91 C94 1.244 . S
O92 Co66 2.155 . S
O92 C94 1.240 1_655 S
O93 Co66 2.096 . S
O93 C74 1.247 . S
C94 O91 1.244 . S
C94 O92 1.240 1_455 S
H95 C69 0.931 . S
H96 C78 0.931 . S
H97 C82 0.929 1_655 S
H98 C84 0.930 . S
Co99 N103 2.148 . S
Co99 N109 2.130 . S
Co99 N119 2.194 1_565 S
Co99 O124 2.351 1_565 S
Co99 O125 2.155 . S
Co99 O126 2.096 . S
C100 N103 1.301 . S
C100 N104 1.328 1_455 S
C100 H105 0.930 . S
C101 C102 1.333 . S
C101 N103 1.317 . S
C101 H106 0.930 . S
C102 C101 1.333 . S
C102 N104 1.350 1_455 S
C102 H128 0.931 1_455 S
N103 Co99 2.148 . S
N103 C100 1.301 . S
N103 C101 1.317 . S
N104 C100 1.328 1_655 S
N104 C102 1.350 1_655 S
H105 C100 0.930 . S
H106 C101 0.930 . S
C107 O108 1.224 . S
C107 O126 1.247 . S
O108 C107 1.224 . S
N109 Co99 2.130 . S
N109 C110 1.352 1_565 S
N109 C112 1.312 . S
C110 N109 1.352 1_545 S
C110 C111 1.363 . S
C110 H122 0.929 . S
C111 C110 1.363 . S
C111 N113 1.375 . S
C111 H129 0.931 . S
C112 N109 1.312 . S
C112 N113 1.347 1_565 S
C112 H123 0.929 . S
N113 C111 1.375 . S
N113 C112 1.347 1_545 S
C114 C117 1.365 . S
C114 N119 1.328 . S
C114 H120 0.929 . S
C115 C116 1.362 . S
C115 C118 1.378 1_545 S
C115 H130 0.929 1_545 S
C116 C115 1.362 . S
C116 C117 1.366 . S
C117 C114 1.365 . S
C117 C116 1.366 . S
C117 H131 0.930 . S
C118 C115 1.378 1_565 S
C118 N119 1.315 1_565 S
C118 H121 0.930 . S
N119 Co99 2.194 1_545 S
N119 C114 1.328 . S
N119 C118 1.315 1_545 S
H120 C114 0.929 . S
H121 C118 0.930 . S
H122 C110 0.929 . S
H123 C112 0.929 . S
O124 Co99 2.351 1_545 S
O124 C127 1.244 . S
O125 Co99 2.155 . S
O125 C127 1.240 1_565 S
O126 Co99 2.096 . S
O126 C107 1.247 . S
C127 O124 1.244 . S
C127 O125 1.240 1_545 S
H128 C102 0.931 1_655 S
H129 C111 0.931 . S
H130 C115 0.929 1_565 S
H131 C117 0.930 . S
Co132 N136 2.148 . S
Co132 N142 2.128 . S
Co132 N152 2.194 . S
Co132 O157 2.351 . S
Co132 O158 2.155 . S
Co132 O159 2.096 . S
C133 N136 1.301 . S
C133 N137 1.328 . S
C133 H138 0.930 . S
C134 C135 1.333 . S
C134 N136 1.317 . S
C134 H139 0.930 . S
C135 C134 1.333 . S
C135 N137 1.350 . S
C135 H161 0.931 . S
N136 Co132 2.148 . S
N136 C133 1.301 . S
N136 C134 1.317 . S
N137 C133 1.328 . S
N137 C135 1.350 . S
H138 C133 0.930 . S
H139 C134 0.930 . S
C140 O141 1.224 . S
C140 O159 1.247 . S
O141 C140 1.224 . S
N142 Co132 2.128 . S
N142 C143 1.355 . S
N142 C145 1.311 . S
C143 N142 1.355 . S
C143 C144 1.363 . S
C143 H155 0.929 . S
C144 C143 1.363 . S
C144 N146 1.375 . S
C144 H162 0.931 . S
C145 N142 1.311 . S
C145 N146 1.347 . S
C145 H156 0.929 . S
N146 C144 1.375 . S
N146 C145 1.347 . S
C147 C150 1.365 . S
C147 N152 1.328 . S
C147 H153 0.929 . S
C148 C149 1.362 . S
C148 C151 1.378 . S
C148 H163 0.929 . S
C149 C148 1.362 . S
C149 C150 1.366 . S
C150 C147 1.365 . S
C150 C149 1.366 . S
C150 H164 0.930 . S
C151 C148 1.378 . S
C151 N152 1.315 . S
C151 H154 0.930 . S
N152 Co132 2.194 . S
N152 C147 1.328 . S
N152 C151 1.315 . S
H153 C147 0.929 . S
H154 C151 0.930 . S
H155 C143 0.929 . S
H156 C145 0.929 . S
O157 Co132 2.351 . S
O157 C160 1.244 . S
O158 Co132 2.155 . S
O158 C160 1.240 . S
O159 Co132 2.096 . S
O159 C140 1.247 . S
C160 O157 1.244 . S
C160 O158 1.240 . S
H161 C135 0.931 . S
H162 C144 0.931 . S
H163 C148 0.929 . S
H164 C150 0.930 . S
Co165 N169 2.148 . S
Co165 N175 2.128 . S
Co165 N185 2.194 . S
Co165 O190 2.351 . S
Co165 O191 2.155 . S
Co165 O192 2.096 . S
C166 N169 1.301 . S
C166 N170 1.328 1_455 S
C166 H171 0.930 . S
C167 C168 1.333 . S
C167 N169 1.317 . S
C167 H172 0.930 . S
C168 C167 1.333 . S
C168 N170 1.350 1_455 S
C168 H194 0.931 1_455 S
N169 Co165 2.148 . S
N169 C166 1.301 . S
N169 C167 1.317 . S
N170 C166 1.328 1_655 S
N170 C168 1.350 1_655 S
H171 C166 0.930 . S
H172 C167 0.930 . S
C173 O174 1.224 . S
C173 O192 1.247 . S
O174 C173 1.224 . S
N175 Co165 2.128 . S
N175 C176 1.355 . S
N175 C178 1.311 . S
C176 N175 1.355 . S
C176 C177 1.363 . S
C176 H188 0.929 . S
C177 C176 1.363 . S
C177 N179 1.375 . S
C177 H195 0.931 . S
C178 N175 1.311 . S
C178 N179 1.347 . S
C178 H189 0.929 . S
N179 C177 1.375 . S
N179 C178 1.347 . S
C180 C183 1.365 . S
C180 N185 1.328 . S
C180 H186 0.929 . S
C181 C182 1.362 . S
C181 C184 1.378 . S
C181 H196 0.929 . S
C182 C181 1.362 . S
C182 C183 1.366 . S
C183 C180 1.365 . S
C183 C182 1.366 . S
C183 H197 0.930 . S
C184 C181 1.378 . S
C184 N185 1.315 . S
C184 H187 0.930 . S
N185 Co165 2.194 . S
N185 C180 1.328 . S
N185 C184 1.315 . S
H186 C180 0.929 . S
H187 C184 0.930 . S
H188 C176 0.929 . S
H189 C178 0.929 . S
O190 Co165 2.351 . S
O190 C193 1.244 . S
O191 Co165 2.155 . S
O191 C193 1.240 . S
O192 Co165 2.096 . S
O192 C173 1.247 . S
C193 O190 1.244 . S
C193 O191 1.240 . S
H194 C168 0.931 1_655 S
H195 C177 0.931 . S
H196 C181 0.929 . S
H197 C183 0.930 . S
Co198 N202 2.148 . S
Co198 N208 2.130 . S
Co198 N218 2.194 1_655 S
Co198 O223 2.351 1_655 S
Co198 O224 2.155 . S
Co198 O225 2.096 . S
C199 N202 1.301 . S
C199 N203 1.328 1_545 S
C199 H204 0.930 . S
C200 C201 1.333 . S
C200 N202 1.317 . S
C200 H205 0.930 . S
C201 C200 1.333 . S
C201 N203 1.350 1_545 S
C201 H227 0.931 1_545 S
N202 Co198 2.148 . S
N202 C199 1.301 . S
N202 C200 1.317 . S
N203 C199 1.328 1_565 S
N203 C201 1.350 1_565 S
H204 C199 0.930 . S
H205 C200 0.930 . S
C206 O207 1.224 . S
C206 O225 1.247 . S
O207 C206 1.224 . S
N208 Co198 2.130 . S
N208 C209 1.352 1_655 S
N208 C211 1.312 . S
C209 N208 1.352 1_455 S
C209 C210 1.363 . S
C209 H221 0.929 . S
C210 C209 1.363 . S
C210 N212 1.375 . S
C210 H228 0.931 . S
C211 N208 1.312 . S
C211 N212 1.347 1_655 S
C211 H222 0.929 . S
N212 C210 1.375 . S
N212 C211 1.347 1_455 S
C213 C216 1.365 . S
C213 N218 1.328 . S
C213 H219 0.929 . S
C214 C215 1.362 . S
C214 C217 1.378 1_455 S
C214 H229 0.929 1_455 S
C215 C214 1.362 . S
C215 C216 1.366 . S
C216 C213 1.365 . S
C216 C215 1.366 . S
C216 H230 0.930 . S
C217 C214 1.378 1_655 S
C217 N218 1.315 1_655 S
C217 H220 0.930 . S
N218 Co198 2.194 1_455 S
N218 C213 1.328 . S
N218 C217 1.315 1_455 S
H219 C213 0.929 . S
H220 C217 0.930 . S
H221 C209 0.929 . S
H222 C211 0.929 . S
O223 Co198 2.351 1_455 S
O223 C226 1.244 . S
O224 Co198 2.155 . S
O224 C226 1.240 1_655 S
O225 Co198 2.096 . S
O225 C206 1.247 . S
C226 O223 1.244 . S
C226 O224 1.240 1_455 S
H227 C201 0.931 1_565 S
H228 C210 0.931 . S
H229 C214 0.929 1_655 S
H230 C216 0.930 . S
Co231 N235 2.148 . S
Co231 N241 2.130 . S
Co231 N251 2.194 1_565 S
Co231 O256 2.351 1_565 S
Co231 O257 2.155 . S
Co231 O258 2.096 . S
C232 N235 1.301 . S
C232 N236 1.328 . S
C232 H237 0.930 . S
C233 C234 1.333 . S
C233 N235 1.317 . S
C233 H238 0.930 . S
C234 C233 1.333 . S
C234 N236 1.350 . S
C234 H260 0.931 . S
N235 Co231 2.148 . S
N235 C232 1.301 . S
N235 C233 1.317 . S
N236 C232 1.328 . S
N236 C234 1.350 . S
H237 C232 0.930 . S
H238 C233 0.930 . S
C239 O240 1.224 . S
C239 O258 1.247 . S
O240 C239 1.224 . S
N241 Co231 2.130 . S
N241 C242 1.352 1_565 S
N241 C244 1.312 . S
C242 N241 1.352 1_545 S
C242 C243 1.363 . S
C242 H254 0.929 . S
C243 C242 1.363 . S
C243 N245 1.375 . S
C243 H261 0.931 . S
C244 N241 1.312 . S
C244 N245 1.347 1_565 S
C244 H255 0.929 . S
N245 C243 1.375 . S
N245 C244 1.347 1_545 S
C246 C249 1.365 . S
C246 N251 1.328 . S
C246 H252 0.929 . S
C247 C248 1.362 . S
C247 C250 1.378 1_545 S
C247 H262 0.929 1_545 S
C248 C247 1.362 . S
C248 C249 1.366 . S
C249 C246 1.365 . S
C249 C248 1.366 . S
C249 H263 0.930 . S
C250 C247 1.378 1_565 S
C250 N251 1.315 1_565 S
C250 H253 0.930 . S
N251 Co231 2.194 1_545 S
N251 C246 1.328 . S
N251 C250 1.315 1_545 S
H252 C246 0.929 . S
H253 C250 0.930 . S
H254 C242 0.929 . S
H255 C244 0.929 . S
O256 Co231 2.351 1_545 S
O256 C259 1.244 . S
O257 Co231 2.155 . S
O257 C259 1.240 1_565 S
O258 Co231 2.096 . S
O258 C239 1.247 . S
C259 O256 1.244 . S
C259 O257 1.240 1_545 S
H260 C234 0.931 . S
H261 C243 0.931 . S
H262 C247 0.929 1_565 S
H263 C249 0.930 . S
Co264 N268 2.148 . S
Co264 N274 2.128 . S
Co264 N284 2.194 . S
Co264 O289 2.351 . S
Co264 O290 2.155 . S
Co264 O291 2.096 . S
C265 N268 1.301 . S
C265 N269 1.328 1_565 S
C265 H270 0.930 . S
C266 C267 1.333 . S
C266 N268 1.317 . S
C266 H271 0.930 . S
C267 C266 1.333 . S
C267 N269 1.350 1_565 S
C267 H293 0.931 1_565 S
N268 Co264 2.148 . S
N268 C265 1.301 . S
N268 C266 1.317 . S
N269 C265 1.328 1_545 S
N269 C267 1.350 1_545 S
H270 C265 0.930 . S
H271 C266 0.930 . S
C272 O273 1.224 . S
C272 O291 1.247 . S
O273 C272 1.224 . S
N274 Co264 2.128 . S
N274 C275 1.355 . S
N274 C277 1.311 . S
C275 N274 1.355 . S
C275 C276 1.363 . S
C275 H287 0.929 . S
C276 C275 1.363 . S
C276 N278 1.375 . S
C276 H294 0.931 . S
C277 N274 1.311 . S
C277 N278 1.347 . S
C277 H288 0.929 . S
N278 C276 1.375 . S
N278 C277 1.347 . S
C279 C282 1.365 . S
C279 N284 1.328 . S
C279 H285 0.929 . S
C280 C281 1.362 . S
C280 C283 1.378 . S
C280 H295 0.929 . S
C281 C280 1.362 . S
C281 C282 1.366 . S
C282 C279 1.365 . S
C282 C281 1.366 . S
C282 H296 0.930 . S
C283 C280 1.378 . S
C283 N284 1.315 . S
C283 H286 0.930 . S
N284 Co264 2.194 . S
N284 C279 1.328 . S
N284 C283 1.315 . S
H285 C279 0.929 . S
H286 C283 0.930 . S
H287 C275 0.929 . S
H288 C277 0.929 . S
O289 Co264 2.351 . S
O289 C292 1.244 . S
O290 Co264 2.155 . S
O290 C292 1.240 . S
O291 Co264 2.096 . S
O291 C272 1.247 . S
C292 O289 1.244 . S
C292 O290 1.240 . S
H293 C267 0.931 1_545 S
H294 C276 0.931 . S
H295 C280 0.929 . S
H296 C282 0.930 . S
Co297 N301 2.148 . S
Co297 N307 2.128 . S
Co297 N317 2.194 . S
Co297 O322 2.351 . S
Co297 O323 2.155 . S
Co297 O324 2.096 . S
C298 N301 1.301 . S
C298 N302 1.328 . S
C298 H303 0.930 . S
C299 C300 1.333 . S
C299 N301 1.317 . S
C299 H304 0.930 . S
C300 C299 1.333 . S
C300 N302 1.350 . S
C300 H326 0.931 . S
N301 Co297 2.148 . S
N301 C298 1.301 . S
N301 C299 1.317 . S
N302 C298 1.328 . S
N302 C300 1.350 . S
H303 C298 0.930 . S
H304 C299 0.930 . S
C305 O306 1.224 . S
C305 O324 1.247 . S
O306 C305 1.224 . S
N307 Co297 2.128 . S
N307 C308 1.355 . S
N307 C310 1.311 . S
C308 N307 1.355 . S
C308 C309 1.363 . S
C308 H320 0.929 . S
C309 C308 1.363 . S
C309 N311 1.375 . S
C309 H327 0.931 . S
C310 N307 1.311 . S
C310 N311 1.347 . S
C310 H321 0.929 . S
N311 C309 1.375 . S
N311 C310 1.347 . S
C312 C315 1.365 . S
C312 N317 1.328 . S
C312 H318 0.929 . S
C313 C314 1.362 . S
C313 C316 1.378 . S
C313 H328 0.929 . S
C314 C313 1.362 . S
C314 C315 1.366 . S
C315 C312 1.365 . S
C315 C314 1.366 . S
C315 H329 0.930 . S
C316 C313 1.378 . S
C316 N317 1.315 . S
C316 H319 0.930 . S
N317 Co297 2.194 . S
N317 C312 1.328 . S
N317 C316 1.315 . S
H318 C312 0.929 . S
H319 C316 0.930 . S
H320 C308 0.929 . S
H321 C310 0.929 . S
O322 Co297 2.351 . S
O322 C325 1.244 . S
O323 Co297 2.155 . S
O323 C325 1.240 . S
O324 Co297 2.096 . S
O324 C305 1.247 . S
C325 O322 1.244 . S
C325 O323 1.240 . S
H326 C300 0.931 . S
H327 C309 0.931 . S
H328 C313 0.929 . S
H329 C315 0.930 . S
Co330 N334 2.148 . S
Co330 N340 2.130 . S
Co330 N350 2.194 1_455 S
Co330 O355 2.351 1_455 S
Co330 O356 2.155 . S
Co330 O357 2.096 . S
C331 N334 1.301 . S
C331 N335 1.328 . S
C331 H336 0.930 . S
C332 C333 1.333 . S
C332 N334 1.317 . S
C332 H337 0.930 . S
C333 C332 1.333 . S
C333 N335 1.350 . S
C333 H359 0.931 . S
N334 Co330 2.148 . S
N334 C331 1.301 . S
N334 C332 1.317 . S
N335 C331 1.328 . S
N335 C333 1.350 . S
H336 C331 0.930 . S
H337 C332 0.930 . S
C338 O339 1.224 . S
C338 O357 1.247 . S
O339 C338 1.224 . S
N340 Co330 2.130 . S
N340 C341 1.352 1_455 S
N340 C343 1.312 . S
C341 N340 1.352 1_655 S
C341 C342 1.363 . S
C341 H353 0.929 . S
C342 C341 1.363 . S
C342 N344 1.375 . S
C342 H360 0.931 . S
C343 N340 1.312 . S
C343 N344 1.347 1_455 S
C343 H354 0.929 . S
N344 C342 1.375 . S
N344 C343 1.347 1_655 S
C345 C348 1.365 . S
C345 N350 1.328 . S
C345 H351 0.929 . S
C346 C347 1.362 . S
C346 C349 1.378 1_655 S
C346 H361 0.929 1_655 S
C347 C346 1.362 . S
C347 C348 1.366 . S
C348 C345 1.365 . S
C348 C347 1.366 . S
C348 H362 0.930 . S
C349 C346 1.378 1_455 S
C349 N350 1.315 1_455 S
C349 H352 0.930 . S
N350 Co330 2.194 1_655 S
N350 C345 1.328 . S
N350 C349 1.315 1_655 S
H351 C345 0.929 . S
H352 C349 0.930 . S
H353 C341 0.929 . S
H354 C343 0.929 . S
O355 Co330 2.351 1_655 S
O355 C358 1.244 . S
O356 Co330 2.155 . S
O356 C358 1.240 1_455 S
O357 Co330 2.096 . S
O357 C338 1.247 . S
C358 O355 1.244 . S
C358 O356 1.240 1_655 S
H359 C333 0.931 . S
H360 C342 0.931 . S
H361 C346 0.929 1_455 S
H362 C348 0.930 . S
Co363 N367 2.148 . S
Co363 N373 2.130 . S
Co363 N383 2.194 1_545 S
Co363 O388 2.351 1_545 S
Co363 O389 2.155 . S
Co363 O390 2.096 . S
C364 N367 1.301 . S
C364 N368 1.328 1_655 S
C364 H369 0.930 . S
C365 C366 1.333 . S
C365 N367 1.317 . S
C365 H370 0.930 . S
C366 C365 1.333 . S
C366 N368 1.350 1_655 S
C366 H392 0.931 1_655 S
N367 Co363 2.148 . S
N367 C364 1.301 . S
N367 C365 1.317 . S
N368 C364 1.328 1_455 S
N368 C366 1.350 1_455 S
H369 C364 0.930 . S
H370 C365 0.930 . S
C371 O372 1.224 . S
C371 O390 1.247 . S
O372 C371 1.224 . S
N373 Co363 2.130 . S
N373 C374 1.352 1_545 S
N373 C376 1.312 . S
C374 N373 1.352 1_565 S
C374 C375 1.363 . S
C374 H386 0.929 . S
C375 C374 1.363 . S
C375 N377 1.375 . S
C375 H393 0.931 . S
C376 N373 1.312 . S
C376 N377 1.347 1_545 S
C376 H387 0.929 . S
N377 C375 1.375 . S
N377 C376 1.347 1_565 S
C378 C381 1.365 . S
C378 N383 1.328 . S
C378 H384 0.929 . S
C379 C380 1.362 . S
C379 C382 1.378 1_565 S
C379 H394 0.929 1_565 S
C380 C379 1.362 . S
C380 C381 1.366 . S
C381 C378 1.365 . S
C381 C380 1.366 . S
C381 H395 0.930 . S
C382 C379 1.378 1_545 S
C382 N383 1.315 1_545 S
C382 H385 0.930 . S
N383 Co363 2.194 1_565 S
N383 C378 1.328 . S
N383 C382 1.315 1_565 S
H384 C378 0.929 . S
H385 C382 0.930 . S
H386 C374 0.929 . S
H387 C376 0.929 . S
O388 Co363 2.351 1_565 S
O388 C391 1.244 . S
O389 Co363 2.155 . S
O389 C391 1.240 1_545 S
O390 Co363 2.096 . S
O390 C371 1.247 . S
C391 O388 1.244 . S
C391 O389 1.240 1_565 S
H392 C366 0.931 1_455 S
H393 C375 0.931 . S
H394 C379 0.929 1_545 S
H395 C381 0.930 . S
Co396 N400 2.148 . S
Co396 N406 2.128 . S
Co396 N416 2.194 . S
Co396 O421 2.351 . S
Co396 O422 2.155 . S
Co396 O423 2.096 . S
C397 N400 1.301 . S
C397 N401 1.328 . S
C397 H402 0.930 . S
C398 C399 1.333 . S
C398 N400 1.317 . S
C398 H403 0.930 . S
C399 C398 1.333 . S
C399 N401 1.350 . S
C399 H425 0.931 . S
N400 Co396 2.148 . S
N400 C397 1.301 . S
N400 C398 1.317 . S
N401 C397 1.328 . S
N401 C399 1.350 . S
H402 C397 0.930 . S
H403 C398 0.930 . S
C404 O405 1.224 . S
C404 O423 1.247 . S
O405 C404 1.224 . S
N406 Co396 2.128 . S
N406 C407 1.355 . S
N406 C409 1.311 . S
C407 N406 1.355 . S
C407 C408 1.363 . S
C407 H419 0.929 . S
C408 C407 1.363 . S
C408 N410 1.375 . S
C408 H426 0.931 . S
C409 N406 1.311 . S
C409 N410 1.347 . S
C409 H420 0.929 . S
N410 C408 1.375 . S
N410 C409 1.347 . S
C411 C414 1.365 . S
C411 N416 1.328 . S
C411 H417 0.929 . S
C412 C413 1.362 . S
C412 C415 1.378 . S
C412 H427 0.929 . S
C413 C412 1.362 . S
C413 C414 1.366 . S
C414 C411 1.365 . S
C414 C413 1.366 . S
C414 H428 0.930 . S
C415 C412 1.378 . S
C415 N416 1.315 . S
C415 H418 0.930 . S
N416 Co396 2.194 . S
N416 C411 1.328 . S
N416 C415 1.315 . S
H417 C411 0.929 . S
H418 C415 0.930 . S
H419 C407 0.929 . S
H420 C409 0.929 . S
O421 Co396 2.351 . S
O421 C424 1.244 . S
O422 Co396 2.155 . S
O422 C424 1.240 . S
O423 Co396 2.096 . S
O423 C404 1.247 . S
C424 O421 1.244 . S
C424 O422 1.240 . S
H425 C399 0.931 . S
H426 C408 0.931 . S
H427 C412 0.929 . S
H428 C414 0.930 . S
Co429 N433 2.148 . S
Co429 N439 2.128 . S
Co429 N449 2.194 . S
Co429 O454 2.351 . S
Co429 O455 2.155 . S
Co429 O456 2.096 . S
C430 N433 1.301 . S
C430 N434 1.328 1_655 S
C430 H435 0.930 . S
C431 C432 1.333 . S
C431 N433 1.317 . S
C431 H436 0.930 . S
C432 C431 1.333 . S
C432 N434 1.350 1_655 S
C432 H458 0.931 1_655 S
N433 Co429 2.148 . S
N433 C430 1.301 . S
N433 C431 1.317 . S
N434 C430 1.328 1_455 S
N434 C432 1.350 1_455 S
H435 C430 0.930 . S
H436 C431 0.930 . S
C437 O438 1.224 . S
C437 O456 1.247 . S
O438 C437 1.224 . S
N439 Co429 2.128 . S
N439 C440 1.355 . S
N439 C442 1.311 . S
C440 N439 1.355 . S
C440 C441 1.363 . S
C440 H452 0.929 . S
C441 C440 1.363 . S
C441 N443 1.375 . S
C441 H459 0.931 . S
C442 N439 1.311 . S
C442 N443 1.347 . S
C442 H453 0.929 . S
N443 C441 1.375 . S
N443 C442 1.347 . S
C444 C447 1.365 . S
C444 N449 1.328 . S
C444 H450 0.929 . S
C445 C446 1.362 . S
C445 C448 1.378 . S
C445 H460 0.929 . S
C446 C445 1.362 . S
C446 C447 1.366 . S
C447 C444 1.365 . S
C447 C446 1.366 . S
C447 H461 0.930 . S
C448 C445 1.378 . S
C448 N449 1.315 . S
C448 H451 0.930 . S
N449 Co429 2.194 . S
N449 C444 1.328 . S
N449 C448 1.315 . S
H450 C444 0.929 . S
H451 C448 0.930 . S
H452 C440 0.929 . S
H453 C442 0.929 . S
O454 Co429 2.351 . S
O454 C457 1.244 . S
O455 Co429 2.155 . S
O455 C457 1.240 . S
O456 Co429 2.096 . S
O456 C437 1.247 . S
C457 O454 1.244 . S
C457 O455 1.240 . S
H458 C432 0.931 1_455 S
H459 C441 0.931 . S
H460 C445 0.929 . S
H461 C447 0.930 . S
Co462 N466 2.148 . S
Co462 N472 2.130 . S
Co462 N482 2.194 1_455 S
Co462 O487 2.351 1_455 S
Co462 O488 2.155 . S
Co462 O489 2.096 . S
C463 N466 1.301 . S
C463 N467 1.328 1_565 S
C463 H468 0.930 . S
C464 C465 1.333 . S
C464 N466 1.317 . S
C464 H469 0.930 . S
C465 C464 1.333 . S
C465 N467 1.350 1_565 S
C465 H491 0.931 1_565 S
N466 Co462 2.148 . S
N466 C463 1.301 . S
N466 C464 1.317 . S
N467 C463 1.328 1_545 S
N467 C465 1.350 1_545 S
H468 C463 0.930 . S
H469 C464 0.930 . S
C470 O471 1.224 . S
C470 O489 1.247 . S
O471 C470 1.224 . S
N472 Co462 2.130 . S
N472 C473 1.352 1_455 S
N472 C475 1.312 . S
C473 N472 1.352 1_655 S
C473 C474 1.363 . S
C473 H485 0.929 . S
C474 C473 1.363 . S
C474 N476 1.375 . S
C474 H492 0.931 . S
C475 N472 1.312 . S
C475 N476 1.347 1_455 S
C475 H486 0.929 . S
N476 C474 1.375 . S
N476 C475 1.347 1_655 S
C477 C480 1.365 . S
C477 N482 1.328 . S
C477 H483 0.929 . S
C478 C479 1.362 . S
C478 C481 1.378 1_655 S
C478 H493 0.929 1_655 S
C479 C478 1.362 . S
C479 C480 1.366 . S
C480 C477 1.365 . S
C480 C479 1.366 . S
C480 H494 0.930 . S
C481 C478 1.378 1_455 S
C481 N482 1.315 1_455 S
C481 H484 0.930 . S
N482 Co462 2.194 1_655 S
N482 C477 1.328 . S
N482 C481 1.315 1_655 S
H483 C477 0.929 . S
H484 C481 0.930 . S
H485 C473 0.929 . S
H486 C475 0.929 . S
O487 Co462 2.351 1_655 S
O487 C490 1.244 . S
O488 Co462 2.155 . S
O488 C490 1.240 1_455 S
O489 Co462 2.096 . S
O489 C470 1.247 . S
C490 O487 1.244 . S
C490 O488 1.240 1_655 S
H491 C465 0.931 1_545 S
H492 C474 0.931 . S
H493 C478 0.929 1_455 S
H494 C480 0.930 . S
Co495 N499 2.148 . S
Co495 N505 2.130 . S
Co495 N515 2.194 1_545 S
Co495 O520 2.351 1_545 S
Co495 O521 2.155 . S
Co495 O522 2.096 . S
C496 N499 1.301 . S
C496 N500 1.328 . S
C496 H501 0.930 . S
C497 C498 1.333 . S
C497 N499 1.317 . S
C497 H502 0.930 . S
C498 C497 1.333 . S
C498 N500 1.350 . S
C498 H524 0.931 . S
N499 Co495 2.148 . S
N499 C496 1.301 . S
N499 C497 1.317 . S
N500 C496 1.328 . S
N500 C498 1.350 . S
H501 C496 0.930 . S
H502 C497 0.930 . S
C503 O504 1.224 . S
C503 O522 1.247 . S
O504 C503 1.224 . S
N505 Co495 2.130 . S
N505 C506 1.352 1_545 S
N505 C508 1.312 . S
C506 N505 1.352 1_565 S
C506 C507 1.363 . S
C506 H518 0.929 . S
C507 C506 1.363 . S
C507 N509 1.375 . S
C507 H525 0.931 . S
C508 N505 1.312 . S
C508 N509 1.347 1_545 S
C508 H519 0.929 . S
N509 C507 1.375 . S
N509 C508 1.347 1_565 S
C510 C513 1.365 . S
C510 N515 1.328 . S
C510 H516 0.929 . S
C511 C512 1.362 . S
C511 C514 1.378 1_565 S
C511 H526 0.929 1_565 S
C512 C511 1.362 . S
C512 C513 1.366 . S
C513 C510 1.365 . S
C513 C512 1.366 . S
C513 H527 0.930 . S
C514 C511 1.378 1_545 S
C514 N515 1.315 1_545 S
C514 H517 0.930 . S
N515 Co495 2.194 1_565 S
N515 C510 1.328 . S
N515 C514 1.315 1_565 S
H516 C510 0.929 . S
H517 C514 0.930 . S
H518 C506 0.929 . S
H519 C508 0.929 . S
O520 Co495 2.351 1_565 S
O520 C523 1.244 . S
O521 Co495 2.155 . S
O521 C523 1.240 1_545 S
O522 Co495 2.096 . S
O522 C503 1.247 . S
C523 O520 1.244 . S
C523 O521 1.240 1_565 S
H524 C498 0.931 . S
H525 C507 0.931 . S
H526 C511 0.929 1_545 S
H527 C513 0.930 . S
H528 C534 0.930 . S
H529 C537 0.930 . S
H530 C538 0.930 . S
H531 C539 0.930 . S
H532 C542 0.930 . S
H533 C543 0.930 . S
C534 H528 0.930 . S
C534 C535 1.355 . S
C534 C536 1.415 . S
C535 C534 1.355 . S
C535 C537 1.419 . S
C536 C534 1.415 . S
C536 C541 1.425 . S
C536 C543 1.409 . S
C537 H529 0.930 . S
C537 C535 1.419 . S
C537 C538 1.362 . S
C538 H530 0.930 . S
C538 C537 1.362 . S
C538 C541 1.409 . S
C539 H531 0.930 . S
C539 C540 1.355 . S
C539 C541 1.415 . S
C540 C539 1.355 . S
C540 C542 1.419 . S
C541 C536 1.425 . S
C541 C538 1.409 . S
C541 C539 1.415 . S
C542 H532 0.930 . S
C542 C540 1.419 . S
C542 C543 1.362 . S
C543 H533 0.930 . S
C543 C536 1.409 . S
C543 C542 1.362 . S
H544 C550 0.930 . S
H545 C553 0.930 . S
H546 C554 0.930 . S
H547 C555 0.930 . S
H548 C558 0.930 . S
H549 C559 0.930 . S
C550 H544 0.930 . S
C550 C551 1.355 . S
C550 C552 1.415 . S
C551 C550 1.355 . S
C551 C553 1.419 . S
C552 C550 1.415 . S
C552 C557 1.425 . S
C552 C559 1.409 . S
C553 H545 0.930 . S
C553 C551 1.419 . S
C553 C554 1.362 . S
C554 H546 0.930 . S
C554 C553 1.362 . S
C554 C557 1.409 . S
C555 H547 0.930 . S
C555 C556 1.355 . S
C555 C557 1.415 . S
C556 C555 1.355 . S
C556 C558 1.419 . S
C557 C552 1.425 . S
C557 C554 1.409 . S
C557 C555 1.415 . S
C558 H548 0.930 . S
C558 C556 1.419 . S
C558 C559 1.362 . S
C559 H549 0.930 . S
C559 C552 1.409 . S
C559 C558 1.362 . S
H560 C566 0.930 . S
H561 C569 0.930 . S
H562 C570 0.930 . S
H563 C571 0.930 . S
H564 C574 0.930 . S
H565 C575 0.930 . S
C566 H560 0.930 . S
C566 C567 1.355 . S
C566 C568 1.415 . S
C567 C566 1.355 . S
C567 C569 1.419 . S
C568 C566 1.415 . S
C568 C573 1.425 . S
C568 C575 1.409 . S
C569 H561 0.930 . S
C569 C567 1.419 . S
C569 C570 1.362 . S
C570 H562 0.930 . S
C570 C569 1.362 . S
C570 C573 1.409 . S
C571 H563 0.930 . S
C571 C572 1.355 . S
C571 C573 1.415 . S
C572 C571 1.355 . S
C572 C574 1.419 . S
C573 C568 1.425 . S
C573 C570 1.409 . S
C573 C571 1.415 . S
C574 H564 0.930 . S
C574 C572 1.419 . S
C574 C575 1.362 . S
C575 H565 0.930 . S
C575 C568 1.409 . S
C575 C574 1.362 . S
H576 C582 0.930 . S
H577 C585 0.930 . S
H578 C586 0.930 . S
H579 C587 0.930 . S
H580 C590 0.930 . S
H581 C591 0.930 . S
C582 H576 0.930 . S
C582 C583 1.355 . S
C582 C584 1.415 . S
C583 C582 1.355 . S
C583 C585 1.419 . S
C584 C582 1.415 . S
C584 C589 1.425 . S
C584 C591 1.409 . S
C585 H577 0.930 . S
C585 C583 1.419 . S
C585 C586 1.362 . S
C586 H578 0.930 . S
C586 C585 1.362 . S
C586 C589 1.409 . S
C587 H579 0.930 . S
C587 C588 1.355 . S
C587 C589 1.415 . S
C588 C587 1.355 . S
C588 C590 1.419 . S
C589 C584 1.425 . S
C589 C586 1.409 . S
C589 C587 1.415 . S
C590 H580 0.930 . S
C590 C588 1.419 . S
C590 C591 1.362 . S
C591 H581 0.930 . S
C591 C584 1.409 . S
C591 C590 1.362 . S
H592 C598 0.930 . S
H593 C601 0.930 . S
H594 C602 0.930 . S
H595 C603 0.930 . S
H596 C606 0.930 . S
H597 C607 0.930 . S
C598 H592 0.930 . S
C598 C599 1.355 . S
C598 C600 1.415 . S
C599 C598 1.355 . S
C599 C601 1.419 . S
C600 C598 1.415 . S
C600 C605 1.425 . S
C600 C607 1.409 . S
C601 H593 0.930 . S
C601 C599 1.419 . S
C601 C602 1.362 . S
C602 H594 0.930 . S
C602 C601 1.362 . S
C602 C605 1.409 . S
C603 H595 0.930 . S
C603 C604 1.355 . S
C603 C605 1.415 . S
C604 C603 1.355 . S
C604 C606 1.419 . S
C605 C600 1.425 . S
C605 C602 1.409 . S
C605 C603 1.415 . S
C606 H596 0.930 . S
C606 C604 1.419 . S
C606 C607 1.362 . S
C607 H597 0.930 . S
C607 C600 1.409 . S
C607 C606 1.362 . S
H608 C614 0.930 . S
H609 C617 0.930 . S
H610 C618 0.930 . S
H611 C619 0.930 . S
H612 C622 0.930 . S
H613 C623 0.930 . S
C614 H608 0.930 . S
C614 C615 1.355 . S
C614 C616 1.415 . S
C615 C614 1.355 . S
C615 C617 1.419 . S
C616 C614 1.415 . S
C616 C621 1.425 . S
C616 C623 1.409 . S
C617 H609 0.930 . S
C617 C615 1.419 . S
C617 C618 1.362 . S
C618 H610 0.930 . S
C618 C617 1.362 . S
C618 C621 1.409 . S
C619 H611 0.930 . S
C619 C620 1.355 . S
C619 C621 1.415 . S
C620 C619 1.355 . S
C620 C622 1.419 . S
C621 C616 1.425 . S
C621 C618 1.409 . S
C621 C619 1.415 . S
C622 H612 0.930 . S
C622 C620 1.419 . S
C622 C623 1.362 . S
C623 H613 0.930 . S
C623 C616 1.409 . S
C623 C622 1.362 . S
H624 C630 0.930 . S
H625 C633 0.930 . S
H626 C634 0.930 . S
H627 C635 0.930 . S
H628 C638 0.930 . S
H629 C639 0.930 . S
C630 H624 0.930 . S
C630 C631 1.355 . S
C630 C632 1.415 . S
C631 C630 1.355 . S
C631 C633 1.419 . S
C632 C630 1.415 . S
C632 C637 1.425 . S
C632 C639 1.409 . S
C633 H625 0.930 . S
C633 C631 1.419 . S
C633 C634 1.362 . S
C634 H626 0.930 . S
C634 C633 1.362 . S
C634 C637 1.409 . S
C635 H627 0.930 . S
C635 C636 1.355 . S
C635 C637 1.415 . S
C636 C635 1.355 . S
C636 C638 1.419 . S
C637 C632 1.425 . S
C637 C634 1.409 . S
C637 C635 1.415 . S
C638 H628 0.930 . S
C638 C636 1.419 . S
C638 C639 1.362 . S
C639 H629 0.930 . S
C639 C632 1.409 . S
C639 C638 1.362 . S
H640 C646 0.930 . S
H641 C649 0.930 . S
H642 C650 0.930 . S
H643 C651 0.930 . S
H644 C654 0.930 1_545 S
H645 C655 0.930 1_545 S
C646 H640 0.930 . S
C646 C647 1.355 . S
C646 C648 1.415 . S
C647 C646 1.355 . S
C647 C649 1.419 . S
C648 C646 1.415 . S
C648 C653 1.425 . S
C648 C655 1.409 . S
C649 H641 0.930 . S
C649 C647 1.419 . S
C649 C650 1.362 . S
C650 H642 0.930 . S
C650 C649 1.362 . S
C650 C653 1.409 . S
C651 H643 0.930 . S
C651 C652 1.355 . S
C651 C653 1.415 . S
C652 C651 1.355 . S
C652 C654 1.419 . S
C653 C648 1.425 . S
C653 C650 1.409 . S
C653 C651 1.415 . S
C654 H644 0.930 1_565 S
C654 C652 1.419 . S
C654 C655 1.362 . S
C655 H645 0.930 1_565 S
C655 C648 1.409 . S
C655 C654 1.362 . S
H656 C662 0.930 . S
H657 C665 0.930 . S
H658 C666 0.930 . S
H659 C667 0.930 . S
H660 C670 0.930 . S
H661 C671 0.930 . S
C662 H656 0.930 . S
C662 C663 1.355 . S
C662 C664 1.415 . S
C663 C662 1.355 . S
C663 C665 1.419 . S
C664 C662 1.415 . S
C664 C669 1.425 . S
C664 C671 1.409 . S
C665 H657 0.930 . S
C665 C663 1.419 . S
C665 C666 1.362 . S
C666 H658 0.930 . S
C666 C665 1.362 . S
C666 C669 1.409 . S
C667 H659 0.930 . S
C667 C668 1.355 . S
C667 C669 1.415 . S
C668 C667 1.355 . S
C668 C670 1.419 . S
C669 C664 1.425 . S
C669 C666 1.409 . S
C669 C667 1.415 . S
C670 H660 0.930 . S
C670 C668 1.419 . S
C670 C671 1.362 . S
C671 H661 0.930 . S
C671 C664 1.409 . S
C671 C670 1.362 . S
H672 C678 0.930 . S
H673 C681 0.930 . S
H674 C682 0.930 . S
H675 C683 0.930 . S
H676 C686 0.930 . S
H677 C687 0.930 . S
C678 H672 0.930 . S
C678 C679 1.355 . S
C678 C680 1.415 . S
C679 C678 1.355 . S
C679 C681 1.419 . S
C680 C678 1.415 . S
C680 C685 1.425 . S
C680 C687 1.409 . S
C681 H673 0.930 . S
C681 C679 1.419 . S
C681 C682 1.362 . S
C682 H674 0.930 . S
C682 C681 1.362 . S
C682 C685 1.409 . S
C683 H675 0.930 . S
C683 C684 1.355 . S
C683 C685 1.415 . S
C684 C683 1.355 . S
C684 C686 1.419 . S
C685 C680 1.425 . S
C685 C682 1.409 . S
C685 C683 1.415 . S
C686 H676 0.930 . S
C686 C684 1.419 . S
C686 C687 1.362 . S
C687 H677 0.930 . S
C687 C680 1.409 . S
C687 C686 1.362 . S
H688 C694 0.930 . S
H689 C697 0.930 . S
H690 C698 0.930 . S
H691 C699 0.930 . S
H692 C702 0.930 . S
H693 C703 0.930 . S
C694 H688 0.930 . S
C694 C695 1.355 . S
C694 C696 1.415 . S
C695 C694 1.355 . S
C695 C697 1.419 . S
C696 C694 1.415 . S
C696 C701 1.425 . S
C696 C703 1.409 . S
C697 H689 0.930 . S
C697 C695 1.419 . S
C697 C698 1.362 . S
C698 H690 0.930 . S
C698 C697 1.362 . S
C698 C701 1.409 . S
C699 H691 0.930 . S
C699 C700 1.355 . S
C699 C701 1.415 . S
C700 C699 1.355 . S
C700 C702 1.419 . S
C701 C696 1.425 . S
C701 C698 1.409 . S
C701 C699 1.415 . S
C702 H692 0.930 . S
C702 C700 1.419 . S
C702 C703 1.362 . S
C703 H693 0.930 . S
C703 C696 1.409 . S
C703 C702 1.362 . S
H704 C710 0.930 . S
H705 C713 0.930 . S
H706 C714 0.930 . S
H707 C715 0.930 . S
H708 C718 0.930 . S
H709 C719 0.930 . S
C710 H704 0.930 . S
C710 C711 1.355 . S
C710 C712 1.415 . S
C711 C710 1.355 . S
C711 C713 1.419 . S
C712 C710 1.415 . S
C712 C717 1.425 . S
C712 C719 1.409 . S
C713 H705 0.930 . S
C713 C711 1.419 . S
C713 C714 1.362 . S
C714 H706 0.930 . S
C714 C713 1.362 . S
C714 C717 1.409 . S
C715 H707 0.930 . S
C715 C716 1.355 . S
C715 C717 1.415 . S
C716 C715 1.355 . S
C716 C718 1.419 . S
C717 C712 1.425 . S
C717 C714 1.409 . S
C717 C715 1.415 . S
C718 H708 0.930 . S
C718 C716 1.419 . S
C718 C719 1.362 . S
C719 H709 0.930 . S
C719 C712 1.409 . S
C719 C718 1.362 . S
H720 C726 0.930 . S
H721 C729 0.930 . S
H722 C730 0.930 . S
H723 C731 0.930 . S
H724 C734 0.930 . S
H725 C735 0.930 . S
C726 H720 0.930 . S
C726 C727 1.355 . S
C726 C728 1.415 . S
C727 C726 1.355 . S
C727 C729 1.419 . S
C728 C726 1.415 . S
C728 C733 1.425 . S
C728 C735 1.409 . S
C729 H721 0.930 . S
C729 C727 1.419 . S
C729 C730 1.362 . S
C730 H722 0.930 . S
C730 C729 1.362 . S
C730 C733 1.409 . S
C731 H723 0.930 . S
C731 C732 1.355 . S
C731 C733 1.415 . S
C732 C731 1.355 . S
C732 C734 1.419 . S
C733 C728 1.425 . S
C733 C730 1.409 . S
C733 C731 1.415 . S
C734 H724 0.930 . S
C734 C732 1.419 . S
C734 C735 1.362 . S
C735 H725 0.930 . S
C735 C728 1.409 . S
C735 C734 1.362 . S
H736 C742 0.930 . S
H737 C745 0.930 . S
H738 C746 0.930 . S
H739 C747 0.930 . S
H740 C750 0.930 . S
H741 C751 0.930 . S
C742 H736 0.930 . S
C742 C743 1.355 . S
C742 C744 1.415 . S
C743 C742 1.355 . S
C743 C745 1.419 . S
C744 C742 1.415 . S
C744 C749 1.425 . S
C744 C751 1.409 . S
C745 H737 0.930 . S
C745 C743 1.419 . S
C745 C746 1.362 . S
C746 H738 0.930 . S
C746 C745 1.362 . S
C746 C749 1.409 . S
C747 H739 0.930 . S
C747 C748 1.355 . S
C747 C749 1.415 . S
C748 C747 1.355 . S
C748 C750 1.419 . S
C749 C744 1.425 . S
C749 C746 1.409 . S
C749 C747 1.415 . S
C750 H740 0.930 . S
C750 C748 1.419 . S
C750 C751 1.362 . S
C751 H741 0.930 . S
C751 C744 1.409 . S
C751 C750 1.362 . S
H752 C758 0.930 . S
H753 C761 0.930 . S
H754 C762 0.930 . S
H755 C763 0.930 . S
H756 C766 0.930 . S
H757 C767 0.930 . S
C758 H752 0.930 . S
C758 C759 1.355 . S
C758 C760 1.415 . S
C759 C758 1.355 . S
C759 C761 1.419 . S
C760 C758 1.415 . S
C760 C765 1.425 . S
C760 C767 1.409 . S
C761 H753 0.930 . S
C761 C759 1.419 . S
C761 C762 1.362 . S
C762 H754 0.930 . S
C762 C761 1.362 . S
C762 C765 1.409 . S
C763 H755 0.930 . S
C763 C764 1.355 . S
C763 C765 1.415 . S
C764 C763 1.355 . S
C764 C766 1.419 . S
C765 C760 1.425 . S
C765 C762 1.409 . S
C765 C763 1.415 . S
C766 H756 0.930 . S
C766 C764 1.419 . S
C766 C767 1.362 . S
C767 H757 0.930 . S
C767 C760 1.409 . S
C767 C766 1.362 . S
H768 C774 0.930 . S
H769 C777 0.930 . S
H770 C778 0.930 . S
H771 C779 0.930 . S
H772 C782 0.930 . S
H773 C783 0.930 . S
C774 H768 0.930 . S
C774 C775 1.355 . S
C774 C776 1.415 . S
C775 C774 1.355 . S
C775 C777 1.419 . S
C776 C774 1.415 . S
C776 C781 1.425 . S
C776 C783 1.409 . S
C777 H769 0.930 . S
C777 C775 1.419 . S
C777 C778 1.362 . S
C778 H770 0.930 . S
C778 C777 1.362 . S
C778 C781 1.409 . S
C779 H771 0.930 . S
C779 C780 1.355 . S
C779 C781 1.415 . S
C780 C779 1.355 . S
C780 C782 1.419 . S
C781 C776 1.425 . S
C781 C778 1.409 . S
C781 C779 1.415 . S
C782 H772 0.930 . S
C782 C780 1.419 . S
C782 C783 1.362 . S
C783 H773 0.930 . S
C783 C776 1.409 . S
C783 C782 1.362 . S
H784 C790 0.930 . S
H785 C793 0.930 . S
H786 C794 0.930 . S
H787 C795 0.930 . S
H788 C798 0.930 . S
H789 C799 0.930 . S
C790 H784 0.930 . S
C790 C791 1.355 . S
C790 C792 1.415 . S
C791 C790 1.355 . S
C791 C793 1.419 . S
C792 C790 1.415 . S
C792 C797 1.425 . S
C792 C799 1.409 . S
C793 H785 0.930 . S
C793 C791 1.419 . S
C793 C794 1.362 . S
C794 H786 0.930 . S
C794 C793 1.362 . S
C794 C797 1.409 . S
C795 H787 0.930 . S
C795 C796 1.355 . S
C795 C797 1.415 . S
C796 C795 1.355 . S
C796 C798 1.419 . S
C797 C792 1.425 . S
C797 C794 1.409 . S
C797 C795 1.415 . S
C798 H788 0.930 . S
C798 C796 1.419 . S
C798 C799 1.362 . S
C799 H789 0.930 . S
C799 C792 1.409 . S
C799 C798 1.362 . S
H800 C806 0.930 . S
H801 C809 0.930 . S
H802 C810 0.930 . S
H803 C811 0.930 . S
H804 C814 0.930 . S
H805 C815 0.930 . S
C806 H800 0.930 . S
C806 C807 1.355 . S
C806 C808 1.415 . S
C807 C806 1.355 . S
C807 C809 1.419 . S
C808 C806 1.415 . S
C808 C813 1.425 . S
C808 C815 1.409 . S
C809 H801 0.930 . S
C809 C807 1.419 . S
C809 C810 1.362 . S
C810 H802 0.930 . S
C810 C809 1.362 . S
C810 C813 1.409 . S
C811 H803 0.930 . S
C811 C812 1.355 . S
C811 C813 1.415 . S
C812 C811 1.355 . S
C812 C814 1.419 . S
C813 C808 1.425 . S
C813 C810 1.409 . S
C813 C811 1.415 . S
C814 H804 0.930 . S
C814 C812 1.419 . S
C814 C815 1.362 . S
C815 H805 0.930 . S
C815 C808 1.409 . S
C815 C814 1.362 . S
H816 C822 0.930 . S
H817 C825 0.930 . S
H818 C826 0.930 . S
H819 C827 0.930 . S
H820 C830 0.930 . S
H821 C831 0.930 . S
C822 H816 0.930 . S
C822 C823 1.355 . S
C822 C824 1.415 . S
C823 C822 1.355 . S
C823 C825 1.419 . S
C824 C822 1.415 . S
C824 C829 1.425 . S
C824 C831 1.409 . S
C825 H817 0.930 . S
C825 C823 1.419 . S
C825 C826 1.362 . S
C826 H818 0.930 . S
C826 C825 1.362 . S
C826 C829 1.409 . S
C827 H819 0.930 . S
C827 C828 1.355 . S
C827 C829 1.415 . S
C828 C827 1.355 . S
C828 C830 1.419 . S
C829 C824 1.425 . S
C829 C826 1.409 . S
C829 C827 1.415 . S
C830 H820 0.930 . S
C830 C828 1.419 . S
C830 C831 1.362 . S
C831 H821 0.930 . S
C831 C824 1.409 . S
C831 C830 1.362 . S
H832 C838 0.930 . S
H833 C841 0.930 . S
H834 C842 0.930 . S
H835 C843 0.930 . S
H836 C846 0.930 1_545 S
H837 C847 0.930 . S
C838 H832 0.930 . S
C838 C839 1.355 1_545 S
C838 C840 1.415 1_545 S
C839 C838 1.355 1_565 S
C839 C841 1.419 . S
C840 C838 1.415 1_565 S
C840 C845 1.425 . S
C840 C847 1.409 1_565 S
C841 H833 0.930 . S
C841 C839 1.419 . S
C841 C842 1.362 . S
C842 H834 0.930 . S
C842 C841 1.362 . S
C842 C845 1.409 . S
C843 H835 0.930 . S
C843 C844 1.355 . S
C843 C845 1.415 . S
C844 C843 1.355 . S
C844 C846 1.419 . S
C845 C840 1.425 . S
C845 C842 1.409 . S
C845 C843 1.415 . S
C846 H836 0.930 1_565 S
C846 C844 1.419 . S
C846 C847 1.362 1_565 S
C847 H837 0.930 . S
C847 C840 1.409 1_545 S
C847 C846 1.362 1_545 S
H848 C854 0.930 . S
H849 C857 0.930 . S
H850 C858 0.930 . S
H851 C859 0.930 . S
H852 C862 0.930 . S
H853 C863 0.930 . S
C854 H848 0.930 . S
C854 C855 1.355 . S
C854 C856 1.415 . S
C855 C854 1.355 . S
C855 C857 1.419 . S
C856 C854 1.415 . S
C856 C861 1.425 . S
C856 C863 1.409 . S
C857 H849 0.930 . S
C857 C855 1.419 . S
C857 C858 1.362 . S
C858 H850 0.930 . S
C858 C857 1.362 . S
C858 C861 1.409 . S
C859 H851 0.930 . S
C859 C860 1.355 . S
C859 C861 1.415 . S
C860 C859 1.355 . S
C860 C862 1.419 . S
C861 C856 1.425 . S
C861 C858 1.409 . S
C861 C859 1.415 . S
C862 H852 0.930 . S
C862 C860 1.419 . S
C862 C863 1.362 . S
C863 H853 0.930 . S
C863 C856 1.409 . S
C863 C862 1.362 . S
H864 C870 0.930 . S
H865 C873 0.930 . S
H866 C874 0.930 . S
H867 C875 0.930 . S
H868 C878 0.930 . S
H869 C879 0.930 . S
C870 H864 0.930 . S
C870 C871 1.355 . S
C870 C872 1.415 . S
C871 C870 1.355 . S
C871 C873 1.419 . S
C872 C870 1.415 . S
C872 C877 1.425 . S
C872 C879 1.409 . S
C873 H865 0.930 . S
C873 C871 1.419 . S
C873 C874 1.362 . S
C874 H866 0.930 . S
C874 C873 1.362 . S
C874 C877 1.409 . S
C875 H867 0.930 . S
C875 C876 1.355 . S
C875 C877 1.415 . S
C876 C875 1.355 . S
C876 C878 1.419 . S
C877 C872 1.425 . S
C877 C874 1.409 . S
C877 C875 1.415 . S
C878 H868 0.930 . S
C878 C876 1.419 . S
C878 C879 1.362 . S
C879 H869 0.930 . S
C879 C872 1.409 . S
C879 C878 1.362 . S
H880 C886 0.930 . S
H881 C889 0.930 1_455 S
H882 C890 0.930 . S
H883 C891 0.930 . S
H884 C894 0.930 . S
H885 C895 0.930 . S
C886 H880 0.930 . S
C886 C887 1.355 . S
C886 C888 1.415 . S
C887 C886 1.355 . S
C887 C889 1.419 . S
C888 C886 1.415 . S
C888 C893 1.425 . S
C888 C895 1.409 . S
C889 H881 0.930 1_655 S
C889 C887 1.419 . S
C889 C890 1.362 1_655 S
C890 H882 0.930 . S
C890 C889 1.362 1_455 S
C890 C893 1.409 1_455 S
C891 H883 0.930 . S
C891 C892 1.355 1_455 S
C891 C893 1.415 1_455 S
C892 C891 1.355 1_655 S
C892 C894 1.419 . S
C893 C888 1.425 . S
C893 C890 1.409 1_655 S
C893 C891 1.415 1_655 S
C894 H884 0.930 . S
C894 C892 1.419 . S
C894 C895 1.362 . S
C895 H885 0.930 . S
C895 C888 1.409 . S
C895 C894 1.362 . S
H896 C902 0.930 . S
H897 C905 0.930 . S
H898 C906 0.930 . S
H899 C907 0.930 . S
H900 C910 0.930 . S
H901 C911 0.930 . S
C902 H896 0.930 . S
C902 C903 1.355 . S
C902 C904 1.415 . S
C903 C902 1.355 . S
C903 C905 1.419 . S
C904 C902 1.415 . S
C904 C909 1.425 . S
C904 C911 1.409 . S
C905 H897 0.930 . S
C905 C903 1.419 . S
C905 C906 1.362 1_565 S
C906 H898 0.930 . S
C906 C905 1.362 1_545 S
C906 C909 1.409 1_545 S
C907 H899 0.930 . S
C907 C908 1.355 1_545 S
C907 C909 1.415 1_545 S
C908 C907 1.355 1_565 S
C908 C910 1.419 . S
C909 C904 1.425 . S
C909 C906 1.409 1_565 S
C909 C907 1.415 1_565 S
C910 H900 0.930 . S
C910 C908 1.419 . S
C910 C911 1.362 . S
C911 H901 0.930 . S
C911 C904 1.409 . S
C911 C910 1.362 . S
H912 C918 0.930 . S
H913 C921 0.930 . S
H914 C922 0.930 . S
H915 C923 0.930 . S
H916 C926 0.930 . S
H917 C927 0.930 . S
C918 H912 0.930 . S
C918 C919 1.355 . S
C918 C920 1.415 . S
C919 C918 1.355 . S
C919 C921 1.419 . S
C920 C918 1.415 . S
C920 C925 1.425 . S
C920 C927 1.409 . S
C921 H913 0.930 . S
C921 C919 1.419 . S
C921 C922 1.362 . S
C922 H914 0.930 . S
C922 C921 1.362 . S
C922 C925 1.409 . S
C923 H915 0.930 . S
C923 C924 1.355 . S
C923 C925 1.415 . S
C924 C923 1.355 . S
C924 C926 1.419 . S
C925 C920 1.425 . S
C925 C922 1.409 . S
C925 C923 1.415 . S
C926 H916 0.930 . S
C926 C924 1.419 . S
C926 C927 1.362 . S
C927 H917 0.930 . S
C927 C920 1.409 . S
C927 C926 1.362 . S
H928 C934 0.930 . S
H929 C937 0.930 . S
H930 C938 0.930 . S
H931 C939 0.930 . S
H932 C942 0.930 . S
H933 C943 0.930 . S
C934 H928 0.930 . S
C934 C935 1.355 . S
C934 C936 1.415 . S
C935 C934 1.355 . S
C935 C937 1.419 . S
C936 C934 1.415 . S
C936 C941 1.425 . S
C936 C943 1.409 . S
C937 H929 0.930 . S
C937 C935 1.419 . S
C937 C938 1.362 . S
C938 H930 0.930 . S
C938 C937 1.362 . S
C938 C941 1.409 . S
C939 H931 0.930 . S
C939 C940 1.355 . S
C939 C941 1.415 . S
C940 C939 1.355 . S
C940 C942 1.419 . S
C941 C936 1.425 . S
C941 C938 1.409 . S
C941 C939 1.415 . S
C942 H932 0.930 . S
C942 C940 1.419 . S
C942 C943 1.362 . S
C943 H933 0.930 . S
C943 C936 1.409 . S
C943 C942 1.362 . S
H944 C950 0.930 . S
H945 C953 0.930 . S
H946 C954 0.930 . S
H947 C955 0.930 . S
H948 C958 0.930 . S
H949 C959 0.911 1_655 S
C950 H944 0.930 . S
C950 C951 1.355 1_655 S
C950 C952 1.415 1_655 S
C951 C950 1.355 1_455 S
C951 C953 1.419 . S
C952 C950 1.415 1_455 S
C952 C957 1.425 . S
C952 C959 1.416 . S
C953 H945 0.930 . S
C953 C951 1.419 . S
C953 C954 1.362 . S
C954 H946 0.930 . S
C954 C953 1.362 . S
C954 C957 1.409 . S
C955 H947 0.930 . S
C955 C956 1.355 . S
C955 C957 1.415 . S
C956 C955 1.355 . S
C956 C958 1.419 . S
C957 C952 1.425 . S
C957 C954 1.409 . S
C957 C955 1.415 . S
C958 H948 0.930 . S
C958 C956 1.419 . S
C958 C959 1.374 . S
C959 H949 0.911 1_455 S
C959 C952 1.416 . S
C959 C958 1.374 . S
H960 C966 0.930 . S
H961 C969 0.930 . S
H962 C970 0.930 . S
H963 C971 0.923 1_565 S
H964 C974 0.930 . S
H965 C975 0.930 . S
C966 H960 0.930 . S
C966 C967 1.355 1_545 S
C966 C968 1.415 . S
C967 C966 1.355 1_565 S
C967 C969 1.419 . S
C968 C966 1.415 . S
C968 C973 1.425 . S
C968 C975 1.409 . S
C969 H961 0.930 . S
C969 C967 1.419 . S
C969 C970 1.362 . S
C970 H962 0.930 . S
C970 C969 1.362 . S
C970 C973 1.409 1_565 S
C971 H963 0.923 1_545 S
C971 C972 1.355 . S
C971 C973 1.415 . S
C972 C971 1.355 . S
C972 C974 1.419 . S
C973 C968 1.425 . S
C973 C970 1.409 1_545 S
C973 C971 1.415 . S
C974 H964 0.930 . S
C974 C972 1.419 . S
C974 C975 1.362 . S
C975 H965 0.930 . S
C975 C968 1.409 . S
C975 C974 1.362 . S
H976 C982 0.930 . S
H977 C985 0.930 . S
H978 C986 0.930 . S
H979 C987 0.930 . S
H980 C990 0.930 . S
H981 C991 0.930 . S
C982 H976 0.930 . S
C982 C983 1.355 . S
C982 C984 1.415 . S
C983 C982 1.355 . S
C983 C985 1.419 . S
C984 C982 1.415 . S
C984 C989 1.425 . S
C984 C991 1.409 . S
C985 H977 0.930 . S
C985 C983 1.419 . S
C985 C986 1.362 . S
C986 H978 0.930 . S
C986 C985 1.362 . S
C986 C989 1.409 . S
C987 H979 0.930 . S
C987 C988 1.355 . S
C987 C989 1.415 . S
C988 C987 1.355 . S
C988 C990 1.419 . S
C989 C984 1.425 . S
C989 C986 1.409 . S
C989 C987 1.415 . S
C990 H980 0.930 . S
C990 C988 1.419 . S
C990 C991 1.362 . S
C991 H981 0.930 . S
C991 C984 1.409 . S
C991 C990 1.362 . S
H992 C998 0.930 . S
H993 C1001 0.930 . S
H994 C1002 0.930 . S
H995 C1003 0.930 . S
H996 C1006 0.930 . S
H997 C1007 0.930 . S
C998 H992 0.930 . S
C998 C999 1.355 . S
C998 C1000 1.415 . S
C999 C998 1.355 . S
C999 C1001 1.419 . S
C1000 C998 1.415 . S
C1000 C1005 1.425 . S
C1000 C1007 1.409 . S
C1001 H993 0.930 . S
C1001 C999 1.419 . S
C1001 C1002 1.362 . S
C1002 H994 0.930 . S
C1002 C1001 1.362 . S
C1002 C1005 1.409 . S
C1003 H995 0.930 . S
C1003 C1004 1.355 . S
C1003 C1005 1.415 . S
C1004 C1003 1.355 . S
C1004 C1006 1.419 . S
C1005 C1000 1.425 . S
C1005 C1002 1.409 . S
C1005 C1003 1.415 . S
C1006 H996 0.930 . S
C1006 C1004 1.419 . S
C1006 C1007 1.362 . S
C1007 H997 0.930 . S
C1007 C1000 1.409 . S
C1007 C1006 1.362 . S
H1008 C1014 0.930 . S
H1009 C1017 0.930 . S
H1010 C1018 0.930 . S
H1011 C1019 0.930 . S
H1012 C1022 0.930 . S
H1013 C1023 0.930 . S
C1014 H1008 0.930 . S
C1014 C1015 1.365 . S
C1014 C1016 1.415 . S
C1015 C1014 1.365 . S
C1015 C1017 1.412 1_455 S
C1016 C1014 1.415 . S
C1016 C1021 1.425 . S
C1016 C1023 1.409 . S
C1017 H1009 0.930 . S
C1017 C1015 1.412 1_655 S
C1017 C1018 1.362 . S
C1018 H1010 0.930 . S
C1018 C1017 1.362 . S
C1018 C1021 1.409 1_655 S
C1019 H1011 0.930 . S
C1019 C1020 1.355 . S
C1019 C1021 1.415 . S
C1020 C1019 1.355 . S
C1020 C1022 1.419 . S
C1021 C1016 1.425 . S
C1021 C1018 1.409 1_455 S
C1021 C1019 1.415 . S
C1022 H1012 0.930 . S
C1022 C1020 1.419 . S
C1022 C1023 1.362 . S
C1023 H1013 0.930 . S
C1023 C1016 1.409 . S
C1023 C1022 1.362 . S
H1024 C1030 0.930 . S
H1025 C1033 0.930 . S
H1026 C1034 0.930 . S
H1027 C1035 0.930 . S
H1028 C1038 0.930 . S
H1029 C1039 0.930 . S
C1030 H1024 0.930 . S
C1030 C1031 1.355 . S
C1030 C1032 1.415 . S
C1031 C1030 1.355 . S
C1031 C1033 1.419 . S
C1032 C1030 1.415 . S
C1032 C1037 1.425 . S
C1032 C1039 1.409 . S
C1033 H1025 0.930 . S
C1033 C1031 1.419 . S
C1033 C1034 1.362 . S
C1034 H1026 0.930 . S
C1034 C1033 1.362 . S
C1034 C1037 1.409 . S
C1035 H1027 0.930 . S
C1035 C1036 1.355 . S
C1035 C1037 1.415 . S
C1036 C1035 1.355 . S
C1036 C1038 1.419 . S
C1037 C1032 1.425 . S
C1037 C1034 1.409 . S
C1037 C1035 1.415 . S
C1038 H1028 0.930 . S
C1038 C1036 1.419 . S
C1038 C1039 1.362 . S
C1039 H1029 0.930 . S
C1039 C1032 1.409 . S
C1039 C1038 1.362 . S
H1040 C1046 0.930 . S
H1041 C1049 0.930 . S
H1042 C1050 0.930 1_554 S
H1043 C1051 0.930 . S
H1044 C1054 0.930 . S
H1045 C1055 0.930 1_556 S
C1046 H1040 0.930 . S
C1046 C1047 1.355 . S
C1046 C1048 1.415 1_565 S
C1047 C1046 1.355 . S
C1047 C1049 1.419 . S
C1048 C1046 1.415 1_545 S
C1048 C1053 1.425 1_546 S
C1048 C1055 1.409 1_556 S
C1049 H1041 0.930 . S
C1049 C1047 1.419 . S
C1049 C1050 1.362 . S
C1050 H1042 0.930 1_556 S
C1050 C1049 1.362 . S
C1050 C1053 1.409 1_556 S
C1051 H1043 0.930 . S
C1051 C1052 1.355 . S
C1051 C1053 1.415 1_545 S
C1052 C1051 1.355 . S
C1052 C1054 1.419 . S
C1053 C1048 1.425 1_564 S
C1053 C1050 1.409 1_554 S
C1053 C1051 1.415 1_565 S
C1054 H1044 0.930 . S
C1054 C1052 1.419 . S
C1054 C1055 1.362 . S
C1055 H1045 0.930 1_554 S
C1055 C1048 1.409 1_554 S
C1055 C1054 1.362 . S
H1056 C1062 0.930 . S
H1057 C1065 0.930 . S
H1058 C1066 0.930 . S
H1059 C1067 0.930 . S
H1060 C1070 0.930 . S
H1061 C1071 0.930 . S
C1062 H1056 0.930 . S
C1062 C1063 1.355 . S
C1062 C1064 1.415 . S
C1063 C1062 1.355 . S
C1063 C1065 1.419 . S
C1064 C1062 1.415 . S
C1064 C1069 1.425 . S
C1064 C1071 1.409 . S
C1065 H1057 0.930 . S
C1065 C1063 1.419 . S
C1065 C1066 1.362 . S
C1066 H1058 0.930 . S
C1066 C1065 1.362 . S
C1066 C1069 1.409 . S
C1067 H1059 0.930 . S
C1067 C1068 1.355 . S
C1067 C1069 1.415 . S
C1068 C1067 1.355 . S
C1068 C1070 1.419 . S
C1069 C1064 1.425 . S
C1069 C1066 1.409 . S
C1069 C1067 1.415 . S
C1070 H1060 0.930 . S
C1070 C1068 1.419 . S
C1070 C1071 1.362 . S
C1071 H1061 0.930 . S
C1071 C1064 1.409 . S
C1071 C1070 1.362 . S
H1072 C1078 0.930 . S
H1073 C1081 0.930 . S
H1074 C1082 0.930 . S
H1075 C1083 0.930 . S
H1076 C1086 0.930 . S
H1077 C1087 0.930 . S
C1078 H1072 0.930 . S
C1078 C1079 1.355 . S
C1078 C1080 1.415 1_554 S
C1079 C1078 1.355 . S
C1079 C1081 1.419 1_455 S
C1080 C1078 1.415 1_556 S
C1080 C1085 1.425 1_456 S
C1080 C1087 1.409 . S
C1081 H1073 0.930 . S
C1081 C1079 1.419 1_655 S
C1081 C1082 1.362 . S
C1082 H1074 0.930 . S
C1082 C1081 1.362 . S
C1082 C1085 1.409 . S
C1083 H1075 0.930 . S
C1083 C1084 1.355 . S
C1083 C1085 1.415 1_556 S
C1084 C1083 1.355 . S
C1084 C1086 1.419 1_655 S
C1085 C1080 1.425 1_654 S
C1085 C1082 1.409 . S
C1085 C1083 1.415 1_554 S
C1086 H1076 0.930 . S
C1086 C1084 1.419 1_455 S
C1086 C1087 1.362 . S
C1087 H1077 0.930 . S
C1087 C1080 1.409 . S
C1087 C1086 1.362 . S
H1088 C1094 0.930 . S
H1089 C1097 0.930 . S
H1090 C1098 0.930 . S
H1091 C1099 0.930 . S
H1092 C1102 0.930 . S
H1093 C1103 0.930 . S
C1094 H1088 0.930 . S
C1094 C1095 1.355 . S
C1094 C1096 1.415 . S
C1095 C1094 1.355 . S
C1095 C1097 1.419 1_565 S
C1096 C1094 1.415 . S
C1096 C1101 1.425 1_665 S
C1096 C1103 1.409 . S
C1097 H1089 0.930 . S
C1097 C1095 1.419 1_545 S
C1097 C1098 1.362 1_655 S
C1098 H1090 0.930 . S
C1098 C1097 1.362 1_455 S
C1098 C1101 1.409 . S
C1099 H1091 0.930 . S
C1099 C1100 1.355 . S
C1099 C1101 1.415 . S
C1100 C1099 1.355 . S
C1100 C1102 1.419 1_545 S
C1101 C1096 1.425 1_445 S
C1101 C1098 1.409 . S
C1101 C1099 1.415 . S
C1102 H1092 0.930 . S
C1102 C1100 1.419 1_565 S
C1102 C1103 1.362 1_455 S
C1103 H1093 0.930 . S
C1103 C1096 1.409 . S
C1103 C1102 1.362 1_655 S
H1104 C1110 0.930 . S
H1105 C1113 0.930 . S
H1106 C1114 0.930 . S
H1107 C1115 0.930 . S
H1108 C1118 0.930 . S
H1109 C1119 0.930 . S
C1110 H1104 0.930 . S
C1110 C1111 1.355 . S
C1110 C1112 1.401 1_556 S
C1111 C1110 1.355 . S
C1111 C1113 1.419 . S
C1112 C1110 1.401 1_554 S
C1112 C1117 1.424 1_554 S
C1112 C1119 1.424 . S
C1113 H1105 0.930 . S
C1113 C1111 1.419 . S
C1113 C1114 1.362 . S
C1114 H1106 0.930 . S
C1114 C1113 1.362 . S
C1114 C1117 1.424 . S
C1115 H1107 0.930 . S
C1115 C1116 1.355 . S
C1115 C1117 1.401 1_554 S
C1116 C1115 1.355 . S
C1116 C1118 1.419 . S
C1117 C1112 1.424 1_556 S
C1117 C1114 1.424 . S
C1117 C1115 1.401 1_556 S
C1118 H1108 0.930 . S
C1118 C1116 1.419 . S
C1118 C1119 1.362 . S
C1119 H1109 0.930 . S
C1119 C1112 1.424 . S
C1119 C1118 1.362 . S
H1120 C1126 0.930 . S
H1121 C1129 0.930 . S
H1122 C1130 0.930 . S
H1123 C1131 0.930 . S
H1124 C1134 0.930 . S
H1125 C1135 0.930 . S
C1126 H1120 0.930 . S
C1126 C1127 1.355 . S
C1126 C1128 1.415 . S
C1127 C1126 1.355 . S
C1127 C1129 1.419 . S
C1128 C1126 1.415 . S
C1128 C1133 1.425 1_455 S
C1128 C1135 1.409 1_455 S
C1129 H1121 0.930 . S
C1129 C1127 1.419 . S
C1129 C1130 1.362 . S
C1130 H1122 0.930 . S
C1130 C1129 1.362 . S
C1130 C1133 1.409 1_455 S
C1131 H1123 0.930 . S
C1131 C1132 1.355 . S
C1131 C1133 1.415 . S
C1132 C1131 1.355 . S
C1132 C1134 1.419 . S
C1133 C1128 1.425 1_655 S
C1133 C1130 1.409 1_655 S
C1133 C1131 1.415 . S
C1134 H1124 0.930 . S
C1134 C1132 1.419 . S
C1134 C1135 1.362 . S
C1135 H1125 0.930 . S
C1135 C1128 1.409 1_655 S
C1135 C1134 1.362 . S
H1136 C1142 0.930 . S
H1137 C1145 0.930 . S
H1138 C1146 0.930 . S
H1139 C1147 0.930 . S
H1140 C1150 0.930 . S
H1141 C1151 0.930 . S
C1142 H1136 0.930 . S
C1142 C1143 1.355 1_455 S
C1142 C1144 1.411 1_554 S
C1143 C1142 1.355 1_655 S
C1143 C1145 1.419 . S
C1144 C1142 1.411 1_556 S
C1144 C1149 1.425 1_466 S
C1144 C1151 1.413 . S
C1145 H1137 0.930 . S
C1145 C1143 1.419 . S
C1145 C1146 1.362 1_565 S
C1146 H1138 0.930 . S
C1146 C1145 1.362 1_545 S
C1146 C1149 1.413 . S
C1147 H1139 0.930 . S
C1147 C1148 1.355 1_655 S
C1147 C1149 1.411 1_556 S
C1148 C1147 1.355 1_455 S
C1148 C1150 1.419 . S
C1149 C1144 1.425 1_644 S
C1149 C1146 1.413 . S
C1149 C1147 1.411 1_554 S
C1150 H1140 0.930 . S
C1150 C1148 1.419 . S
C1150 C1151 1.362 1_545 S
C1151 H1141 0.930 . S
C1151 C1144 1.413 . S
C1151 C1150 1.362 1_565 S
H1152 C1158 0.930 . S
H1153 C1161 0.930 . S
H1154 C1162 0.930 . S
H1155 C1163 0.930 . S
H1156 C1166 0.930 . S
H1157 C1167 0.930 . S
C1158 H1152 0.930 . S
C1158 C1159 1.355 . S
C1158 C1160 1.415 . S
C1159 C1158 1.355 . S
C1159 C1161 1.419 . S
C1160 C1158 1.415 . S
C1160 C1165 1.425 1_545 S
C1160 C1167 1.409 . S
C1161 H1153 0.930 . S
C1161 C1159 1.419 . S
C1161 C1162 1.362 1_545 S
C1162 H1154 0.930 . S
C1162 C1161 1.362 1_565 S
C1162 C1165 1.409 . S
C1163 H1155 0.930 . S
C1163 C1164 1.355 . S
C1163 C1165 1.415 . S
C1164 C1163 1.355 . S
C1164 C1166 1.419 . S
C1165 C1160 1.425 1_565 S
C1165 C1162 1.409 . S
C1165 C1163 1.415 . S
C1166 H1156 0.930 . S
C1166 C1164 1.419 . S
C1166 C1167 1.362 1_565 S
C1167 H1157 0.930 . S
C1167 C1160 1.409 . S
C1167 C1166 1.362 1_545 S
C535 C17 1.573 . S
C540 C248 1.619 . S
C551 C149 1.621 . S
C556 C50 1.578 . S
C567 C83 1.618 . S
C572 C182 1.573 . S
C583 C116 1.590 . S
C588 C215 1.590 . S
C599 C281 1.614 . S
C604 C512 1.591 . S
C615 C314 1.617 . S
C620 C413 1.573 . S
C631 C347 1.598 . S
C636 C446 1.583 . S
C647 C479 1.598 . S
C652 C380 1.583 . S
C663 C8 2.166 . S
C668 C74 2.163 . S
C679 C107 2.149 . S
C684 C41 2.149 . S
C695 C206 2.169 . S
C700 C140 2.169 . S
C711 C173 2.169 . S
C716 C239 2.167 . S
C727 C338 2.157 . S
C732 C272 2.153 . S
C743 C371 2.166 . S
C748 C305 2.169 . S
C759 C470 2.150 . S
C764 C404 2.149 . S
C775 C503 2.160 . S
C780 C437 2.156 . S
C791 N410 0.857 . S
C796 N5 0.820 . S
C807 N443 0.835 . S
C812 N38 0.812 . S
C823 N71 0.802 . S
C828 N476 0.785 . S
C839 N509 0.733 . S
C844 N104 0.786 . S
C855 N137 0.818 . S
C860 N278 0.853 . S
C871 N311 0.721 . S
C876 N170 0.780 . S
C887 N203 0.781 . S
C892 N344 0.725 . S
C903 N236 0.783 . S
C908 N377 0.739 . S
C919 N146 0.865 . S
C924 N269 0.824 . S
C935 N179 0.827 . S
C940 N302 0.809 . S
C951 N212 0.736 . S
C956 N335 0.786 . S
C967 N245 0.860 1_565 S
C972 N368 0.824 . S
C983 N14 0.863 . S
C988 N401 0.824 . S
C999 N47 0.750 . S
C1004 N434 0.786 . S
C1015 N80 0.836 . S
C1020 N467 0.816 . S
C1031 N500 0.787 . S
C1036 N113 0.753 . S
C1047 C292 1.758 . S
C1052 C28 1.758 . S
C1063 C61 1.731 . S
C1068 C325 1.731 . S
C1079 C94 1.727 . S
C1084 C358 1.727 . S
C1095 C391 1.727 . S
C1100 C127 1.727 . S
C1111 C160 1.799 . S
C1116 C424 1.799 . S
C1127 C193 1.727 . S
C1132 C457 1.727 . S
C1143 C490 1.776 . S
C1148 C226 1.776 . S
C1159 C259 1.752 . S
C1164 C523 1.752 . S
