# Generated by pormake.
# Topology vby, (6)-cn, num edge types: 1
# Building blocks:
#     Node 0, Type 0, BuildingBlock: UKALOJ_clean_sbu_0, # of connection points: 6
#     Node 1, Type 0, BuildingBlock: UKALOJ_clean_sbu_0, # of connection points: 6
#     Node 2, Type 0, BuildingBlock: UKALOJ_clean_sbu_0, # of connection points: 6
#     Node 3, Type 0, BuildingBlock: UKALOJ_clean_sbu_0, # of connection points: 6
#     Node 4, Type 0, BuildingBlock: UKALOJ_clean_sbu_0, # of connection points: 6
#     Node 5, Type 0, BuildingBlock: UKALOJ_clean_sbu_0, # of connection points: 6
#     Node 6, Type 0, BuildingBlock: UKALOJ_clean_sbu_0, # of connection points: 6
#     Node 7, Type 0, BuildingBlock: UKALOJ_clean_sbu_0, # of connection points: 6
#     Edge 8, Type (0, 0), BuildingBlock: UVAHIK_clean_linker_0, # of connection points: 2
#     Edge 9, Type (0, 0), BuildingBlock: UVAHIK_clean_linker_0, # of connection points: 2
#     Edge 10, Type (0, 0), BuildingBlock: UVAHIK_clean_linker_0, # of connection points: 2
#     Edge 11, Type (0, 0), BuildingBlock: UVAHIK_clean_linker_0, # of connection points: 2
#     Edge 12, Type (0, 0), BuildingBlock: UVAHIK_clean_linker_0, # of connection points: 2
#     Edge 13, Type (0, 0), BuildingBlock: UVAHIK_clean_linker_0, # of connection points: 2
#     Edge 14, Type (0, 0), BuildingBlock: UVAHIK_clean_linker_0, # of connection points: 2
#     Edge 15, Type (0, 0), BuildingBlock: UVAHIK_clean_linker_0, # of connection points: 2
#     Edge 16, Type (0, 0), BuildingBlock: UVAHIK_clean_linker_0, # of connection points: 2
#     Edge 17, Type (0, 0), BuildingBlock: UVAHIK_clean_linker_0, # of connection points: 2
#     Edge 18, Type (0, 0), BuildingBlock: UVAHIK_clean_linker_0, # of connection points: 2
#     Edge 19, Type (0, 0), BuildingBlock: UVAHIK_clean_linker_0, # of connection points: 2
#     Edge 20, Type (0, 0), BuildingBlock: UVAHIK_clean_linker_0, # of connection points: 2
#     Edge 21, Type (0, 0), BuildingBlock: UVAHIK_clean_linker_0, # of connection points: 2
#     Edge 22, Type (0, 0), BuildingBlock: UVAHIK_clean_linker_0, # of connection points: 2
#     Edge 23, Type (0, 0), BuildingBlock: UVAHIK_clean_linker_0, # of connection points: 2
#     Edge 24, Type (0, 0), BuildingBlock: UVAHIK_clean_linker_0, # of connection points: 2
#     Edge 25, Type (0, 0), BuildingBlock: UVAHIK_clean_linker_0, # of connection points: 2
#     Edge 26, Type (0, 0), BuildingBlock: UVAHIK_clean_linker_0, # of connection points: 2
#     Edge 27, Type (0, 0), BuildingBlock: UVAHIK_clean_linker_0, # of connection points: 2
#     Edge 28, Type (0, 0), BuildingBlock: UVAHIK_clean_linker_0, # of connection points: 2
#     Edge 29, Type (0, 0), BuildingBlock: UVAHIK_clean_linker_0, # of connection points: 2
#     Edge 30, Type (0, 0), BuildingBlock: UVAHIK_clean_linker_0, # of connection points: 2
#     Edge 31, Type (0, 0), BuildingBlock: UVAHIK_clean_linker_0, # of connection points: 2
# Relax obj value: 0.070
# Max RMSD: 0.109
# Mean RMSD: 0.109
data_MOF--net-vby--node1-UKALOJ_clean_sbu_0--edge1-UVAHIK_clean_linker_0
_symmetry_space_group_name_H-M    P1
_symmetry_Int_Tables_number       1
_symmetry_cell_setting            triclinic
loop_
_symmetry_equiv_pos_as_xyz
'x, y, z'
_cell_length_a     19.566424
_cell_length_b     74.444897
_cell_length_c     49.40446
_cell_angle_alpha  90.003851
_cell_angle_beta   90.141881
_cell_angle_gamma 90.341363
loop_
_atom_site_label
_atom_site_type_symbol
_atom_site_fract_x
_atom_site_fract_y
_atom_site_fract_z
_atom_type_partial_charge
Zn0 Zn 0.02829 0.37411 0.98834 0.0
O1 O 0.13344 0.37895 0.98531 0.0
C2 C 0.05363 0.33638 0.99904 0.0
Zn3 Zn 0.0321 0.36994 0.03295 0.0
C4 C 0.16735 0.37832 1.00725 0.0
O5 O 0.13694 0.37499 0.0294 0.0
C6 C 0.89297 0.36565 0.01392 0.0
O7 O 0.01669 0.39729 0.04238 0.0
O8 O 0.01323 0.40146 0.99848 0.0
N9 N 0.0468 0.36357 0.07271 0.0
C10 C 0.01946 0.36948 0.09609 0.0
C11 C 0.0914 0.34912 0.10611 0.0
N12 N 0.09152 0.35096 0.07903 0.0
N13 N 0.04686 0.36062 0.11737 0.0
C14 C 0.03272 0.37414 0.9247 0.0
C15 C 0.9646 0.39574 0.91657 0.0
N16 N 0.01209 0.38072 0.94876 0.0
N17 N 0.96986 0.39413 0.94357 0.0
N18 N 0.00329 0.38333 0.90415 0.0
H19 H 0.12025 0.35948 0.93888 0.0
H20 H 0.11286 0.36105 0.90239 0.0
H21 H 0.05695 0.34634 0.92117 0.0
C22 C 0.08405 0.35947 0.92157 0.0
C23 C 0.96379 0.38316 0.09785 0.0
H24 H 0.93305 0.38341 0.07901 0.0
H25 H -0.01285 0.39664 0.10072 0.0
H26 H 0.92983 0.38031 0.1153 0.0
O27 O 0.92694 0.36491 0.03581 0.0
O28 O 0.92337 0.36913 0.99185 0.0
C29 C 0.01077 0.40783 0.02232 0.0
O30 O 0.0449 0.3468 0.97898 0.0
O31 O 0.04919 0.34265 0.02291 0.0
Zn32 Zn 0.93884 0.63692 0.03524 0.0
O33 O 0.95888 0.60971 0.044 0.0
C34 C 0.07745 0.64254 0.01525 0.0
Zn35 Zn 0.94208 0.63305 0.99052 0.0
C36 C 0.96669 0.59937 0.0238 0.0
O37 O 0.96241 0.60581 1.00004 0.0
C38 C 0.91019 0.67037 1.00203 0.0
O39 O 0.83706 0.62718 0.9884 0.0
O40 O 0.83421 0.63095 0.03251 0.0
N41 N 0.95612 0.62691 0.95059 0.0
C42 C 0.93014 0.63286 0.92692 0.0
C43 C 0.00324 0.61268 0.91759 0.0
N44 N 0.00151 0.61441 0.94465 0.0
N45 N 0.95916 0.62414 0.90588 0.0
C46 C 0.95678 0.63699 0.09831 0.0
C47 C 0.882 0.65627 0.10964 0.0
N48 N 0.92639 0.64277 0.07538 0.0
N49 N 0.87993 0.65471 0.08253 0.0
N50 N 0.92958 0.64525 0.12014 0.0
H51 H 0.04385 0.62423 0.07983 0.0
H52 H -0.00557 0.61024 0.10203 0.0
H53 H 0.0502 0.62719 0.11607 0.0
C54 C 0.01502 0.62401 0.09907 0.0
C55 C 0.87434 0.64646 0.92469 0.0
H56 H 0.84173 0.64623 0.943 0.0
H57 H 0.8424 0.64388 0.90649 0.0
H58 H 0.89758 0.66003 0.92286 0.0
O59 O 0.92047 0.66021 0.98179 0.0
O60 O 0.91683 0.66406 0.02581 0.0
C61 C 0.80351 0.62752 1.0104 0.0
O62 O 0.04389 0.6429 0.03721 0.0
O63 O 0.04674 0.63901 0.9932 0.0
Zn64 Zn 0.0357 0.63447 0.49053 0.0
O65 O 0.03748 0.60681 0.48082 0.0
C66 C 0.89747 0.6316 0.50879 0.0
Zn67 Zn 0.03438 0.62914 0.53501 0.0
C68 C 0.03847 0.59575 0.5004 0.0
O69 O 0.03726 0.60164 0.52454 0.0
C70 C 0.03541 0.66787 0.52507 0.0
O71 O 0.1396 0.62929 0.53864 0.0
O72 O 0.14094 0.63438 0.49475 0.0
N73 N 0.02139 0.62183 0.57463 0.0
C74 C 0.03645 0.62947 0.59871 0.0
C75 C -0.01863 0.60529 0.60679 0.0
N76 N -0.01267 0.6068 0.57979 0.0
N77 N 0.01139 0.61938 0.61925 0.0
C78 C 0.02261 0.63462 0.42731 0.0
C79 C 0.08233 0.65772 0.41736 0.0
N80 N 0.04696 0.6415 0.45073 0.0
N81 N 0.08417 0.6558 0.44443 0.0
N82 N 0.04435 0.64455 0.40605 0.0
H83 H 0.00524 0.60653 0.42159 0.0
H84 H 0.9382 0.62058 0.40858 0.0
H85 H 0.94655 0.61686 0.4446 0.0
C86 C 0.97499 0.61882 0.42549 0.0
C87 C 0.07851 0.6462 0.60191 0.0
H88 H 0.11461 0.6477 0.58478 0.0
H89 H 0.10752 0.64594 0.62123 0.0
H90 H 0.04408 0.65797 0.60208 0.0
O91 O 0.03301 0.65679 0.54462 0.0
O92 O 0.03537 0.66198 0.50091 0.0
C93 C 0.17254 0.63213 0.51694 0.0
O94 O 0.9303 0.63469 0.48718 0.0
O95 O 0.92926 0.62899 0.53081 0.0
Zn96 Zn 0.95582 0.37243 0.53246 0.0
O97 O 0.85111 0.37836 0.5342 0.0
C98 C 0.92335 0.33483 0.52163 0.0
Zn99 Zn 0.95185 0.36797 0.48792 0.0
C100 C 0.8172 0.37762 0.51224 0.0
O101 O 0.84739 0.37378 0.49027 0.0
C102 C 0.09051 0.36276 0.50824 0.0
O103 O 0.97263 0.3951 0.47875 0.0
O104 O 0.97799 0.39955 0.52256 0.0
N105 N 0.93952 0.36183 0.44791 0.0
C106 C 0.96963 0.36781 0.42507 0.0
C107 C 0.89615 0.34796 0.41354 0.0
N108 N 0.89386 0.34953 0.44066 0.0
N109 N 0.943 0.35936 0.40322 0.0
C110 C 0.9432 0.3727 0.5958 0.0
C111 C 0.01578 0.39318 0.60559 0.0
N112 N 0.9695 0.37882 0.5723 0.0
N113 N 0.01453 0.39152 0.5785 0.0
N114 N 0.97173 0.38148 0.61699 0.0
H115 H 0.85468 0.35916 0.57942 0.0
H116 H 0.8556 0.36124 0.61595 0.0
H117 H 0.91074 0.3454 0.59942 0.0
C118 C 0.88744 0.35891 0.59775 0.0
C119 C 0.02725 0.38116 0.42437 0.0
H120 H 0.00595 0.39482 0.42162 0.0
H121 H 0.0621 0.37833 0.40723 0.0
H122 H 0.05669 0.38098 0.44352 0.0
O123 O 0.05676 0.36217 0.48627 0.0
O124 O 0.06011 0.36644 0.53021 0.0
C125 C -0.01774 0.40564 0.49859 0.0
O126 O 0.93316 0.34531 0.54159 0.0
O127 O 0.92978 0.34088 0.4977 0.0
Zn128 Zn 0.51448 0.87278 0.99025 0.0
O129 O 0.61954 0.87811 0.98765 0.0
C130 C 0.54265 0.83522 1.0014 0.0
Zn131 Zn 0.51807 0.86878 0.03498 0.0
C132 C 0.65326 0.87764 1.00966 0.0
O133 O 0.62275 0.87426 0.03178 0.0
C134 C 0.37924 0.86384 0.0154 0.0
O135 O 0.50055 0.89609 0.04405 0.0
O136 O 0.49673 0.90008 1.00011 0.0
N137 N 0.53176 0.86268 0.07501 0.0
C138 C 0.50306 0.86859 0.09814 0.0
C139 C 0.57561 0.84855 0.10891 0.0
N140 N 0.57686 0.85027 0.0818 0.0
N141 N 0.52996 0.85995 0.11973 0.0
C142 C 0.51878 0.87243 0.9264 0.0
C143 C 0.45099 0.89406 0.91815 0.0
N144 N 0.49872 0.87919 0.95044 0.0
N145 N 0.4567 0.89262 0.94516 0.0
N146 N 0.48917 0.88153 0.90578 0.0
H147 H 0.60654 0.85784 0.94046 0.0
H148 H 0.59795 0.85902 0.90398 0.0
H149 H 0.54246 0.84457 0.9234 0.0
C150 C 0.56976 0.85767 0.92334 0.0
C151 C 0.44655 0.88206 0.09935 0.0
H152 H 0.41662 0.88211 0.08031 0.0
H153 H 0.46903 0.89565 0.10222 0.0
H154 H 0.41199 0.87917 0.1166 0.0
O155 O 0.41293 0.86333 0.03739 0.0
O156 O 0.40983 0.8673 0.99337 0.0
C157 C 0.49338 0.9065 0.0239 0.0
O158 O 0.5334 0.84555 0.98126 0.0
O159 O 0.53729 0.84151 0.02523 0.0
Zn160 Zn 0.43373 0.13608 0.03483 0.0
O161 O 0.45156 0.10873 0.04362 0.0
C162 C 0.57226 0.14102 0.01511 0.0
Zn163 Zn 0.4366 0.13219 0.99013 0.0
C164 C 0.45735 0.09832 0.02341 0.0
O165 O 0.45362 0.10481 0.99966 0.0
C166 C 0.40808 0.1697 1.00158 0.0
O167 O 0.3314 0.12701 0.98769 0.0
O168 O 0.32905 0.13056 0.03186 0.0
N169 N 0.45076 0.12599 0.95024 0.0
C170 C 0.42728 0.13256 0.92654 0.0
C171 C 0.49642 0.11143 0.91724 0.0
N172 N 0.49367 0.11289 0.94433 0.0
N173 N 0.4555 0.12366 0.90552 0.0
C174 C 0.44983 0.13601 0.09794 0.0
C175 C 0.37738 0.15599 0.10891 0.0
N176 N 0.42089 0.14204 0.07487 0.0
N177 N 0.37586 0.15442 0.0818 0.0
N178 N 0.42314 0.14454 0.11961 0.0
H179 H 0.53614 0.12262 0.07998 0.0
H180 H 0.48391 0.10893 0.10166 0.0
H181 H 0.54103 0.12532 0.11632 0.0
C182 C 0.50635 0.12253 0.099 0.0
C183 C 0.37443 0.14694 0.9242 0.0
H184 H 0.3402 0.14677 0.94205 0.0
H185 H 0.34367 0.14516 0.90549 0.0
H186 H 0.40041 0.16021 0.92331 0.0
O187 O 0.41794 0.15948 0.98138 0.0
O188 O 0.41371 0.16334 0.02536 0.0
C189 C 0.2981 0.12734 1.00973 0.0
O190 O 0.53885 0.14159 0.03709 0.0
O191 O 0.5414 0.1375 0.99309 0.0
Zn192 Zn 0.53292 0.13455 0.48976 0.0
O193 O 0.5129 0.10732 0.4809 0.0
C194 C 0.39464 0.13981 0.50962 0.0
Zn195 Zn 0.52977 0.13072 0.53449 0.0
C196 C 0.5053 0.09698 0.50111 0.0
O197 O 0.50976 0.10344 0.52486 0.0
C198 C 0.56104 0.16812 0.523 0.0
O199 O 0.63462 0.12522 0.53684 0.0
O200 O 0.63731 0.12884 0.49267 0.0
N201 N 0.51491 0.12441 0.57433 0.0
C202 C 0.53641 0.13112 0.59829 0.0
C203 C 0.46756 0.10957 0.6068 0.0
N204 N 0.47224 0.11103 0.57978 0.0
N205 N 0.50709 0.12204 0.61901 0.0
C206 C 0.51523 0.13452 0.42679 0.0
C207 C 0.5887 0.15435 0.41534 0.0
N208 N 0.54561 0.14047 0.44967 0.0
N209 N 0.59131 0.15275 0.44245 0.0
N210 N 0.54164 0.143 0.40496 0.0
H211 H 0.47877 0.10755 0.42296 0.0
H212 H 0.42219 0.12415 0.40905 0.0
H213 H 0.42875 0.1212 0.44528 0.0
C214 C 0.45757 0.12118 0.42603 0.0
C215 C 0.58845 0.14582 0.60114 0.0
H216 H 0.6172 0.14444 0.62041 0.0
H217 H 0.56199 0.15895 0.60114 0.0
H218 H 0.62461 0.14558 0.58389 0.0
O219 O 0.55091 0.15795 0.54326 0.0
O220 O 0.55477 0.16173 0.49924 0.0
C221 C 0.66801 0.12553 0.51479 0.0
O222 O 0.42806 0.14025 0.48763 0.0
O223 O 0.42535 0.13634 0.53165 0.0
Zn224 Zn 0.41699 0.87189 0.53445 0.0
O225 O 0.31206 0.87735 0.53634 0.0
C226 C 0.38406 0.83456 0.52279 0.0
Zn227 Zn 0.41343 0.86798 0.4897 0.0
C228 C 0.27854 0.8771 0.51426 0.0
O229 O 0.30913 0.87387 0.49215 0.0
C230 C 0.55184 0.86261 0.51005 0.0
O231 O 0.43429 0.89526 0.48117 0.0
O232 O 0.43673 0.89916 0.52514 0.0
N233 N 0.40143 0.8622 0.44945 0.0
C234 C 0.43248 0.86818 0.42678 0.0
C235 C 0.35888 0.84849 0.41477 0.0
N236 N 0.35567 0.85001 0.44189 0.0
N237 N 0.40642 0.8598 0.40474 0.0
C238 C 0.40642 0.87138 0.59804 0.0
C239 C 0.47685 0.89237 0.6078 0.0
N240 N 0.43077 0.87797 0.57449 0.0
N241 N 0.47447 0.89099 0.58069 0.0
N242 N 0.43488 0.88017 0.61926 0.0
H243 H 0.3216 0.85887 0.61865 0.0
H244 H 0.37758 0.84377 0.601 0.0
H245 H 0.3186 0.85736 0.58205 0.0
C246 C 0.35254 0.85708 0.60005 0.0
C247 C 0.49046 0.88142 0.42645 0.0
H248 H 0.46966 0.89509 0.42333 0.0
H249 H 0.52621 0.87843 0.40967 0.0
H250 H 0.51876 0.88131 0.44587 0.0
O251 O 0.51819 0.86206 0.48805 0.0
O252 O 0.52144 0.86629 0.532 0.0
C253 C 0.44125 0.90562 0.50141 0.0
O254 O 0.3957 0.84473 0.54295 0.0
O255 O 0.39017 0.84083 0.49897 0.0
C256 C 0.2779 0.38085 0.03182 0.0
C257 C 0.24219 0.37995 1.00715 0.0
C258 C 0.34885 0.37997 0.03225 0.0
C259 C 0.48919 0.36165 0.9931 0.0
H260 H 0.60225 0.3902 0.04151 0.0
C261 C 0.78241 0.36308 0.98935 0.0
C262 C 0.81815 0.36393 0.01401 0.0
C263 C 0.71142 0.36384 0.98896 0.0
C264 C 0.57108 0.38196 0.0282 0.0
H265 H 0.25254 0.37837 0.9635 0.0
H266 H 0.37727 0.37697 0.96428 0.0
H267 H 0.47989 0.39601 0.03868 0.0
H268 H 0.80784 0.36531 0.05769 0.0
H269 H 0.68308 0.36654 0.05696 0.0
H270 H 0.58042 0.34762 0.98259 0.0
C271 C 0.35 0.37811 0.98325 0.0
C272 C 0.5013 0.38536 0.02646 0.0
C273 C 0.27883 0.37905 0.9828 0.0
C274 C 0.78153 0.36467 0.03839 0.0
C275 C 0.71034 0.36551 0.03797 0.0
C276 C 0.55898 0.35826 0.99483 0.0
C277 C 0.3854 0.37816 1.00803 0.0
C278 C 0.45979 0.37524 1.00889 0.0
C279 C 0.67489 0.3655 0.0132 0.0
C280 C 0.60048 0.36838 0.01239 0.0
H281 H 0.25098 0.38163 0.05092 0.0
H282 H 0.37485 0.37992 0.05163 0.0
H283 H 0.45802 0.35342 0.97979 0.0
H284 H 0.80931 0.36241 0.97024 0.0
H285 H 0.68536 0.36393 0.96958 0.0
C286 C 0.1892 0.64375 0.0398 0.0
C287 C 0.15241 0.64432 0.01537 0.0
C288 C 0.26037 0.64264 0.03951 0.0
C289 C 0.41239 0.64853 0.9963 0.0
H290 H 0.48937 0.61145 0.04215 0.0
C291 C 0.69176 0.62657 0.98583 0.0
C292 C 0.72852 0.62584 1.01025 0.0
C293 C 0.62061 0.62779 0.98612 0.0
C294 C 0.46862 0.62192 0.02937 0.0
H295 H 0.16125 0.6453 0.97159 0.0
H296 H 0.28515 0.64334 0.97115 0.0
H297 H 0.36737 0.61779 0.04439 0.0
H298 H 0.71966 0.62475 0.05403 0.0
H299 H 0.59584 0.62692 0.05448 0.0
H300 H 0.51366 0.65267 0.98128 0.0
C301 C 0.25921 0.64376 0.99049 0.0
C302 C 0.39896 0.62562 0.03076 0.0
C303 C 0.18819 0.6448 0.99075 0.0
C304 C 0.69274 0.62536 0.03487 0.0
C305 C 0.62176 0.62652 0.03514 0.0
C306 C 0.48206 0.64484 0.99491 0.0
C307 C 0.29583 0.6422 0.01482 0.0
C308 C 0.37022 0.63896 0.01424 0.0
C309 C 0.58517 0.62821 1.01082 0.0
C310 C 0.5108 0.63149 1.01143 0.0
H311 H 0.16298 0.64339 0.05908 0.0
H312 H 0.28759 0.64173 0.05858 0.0
H313 H 0.39162 0.65899 0.9835 0.0
H314 H 0.71799 0.62695 0.96655 0.0
H315 H 0.59343 0.6288 0.96706 0.0
C316 C 0.78592 0.63559 0.48539 0.0
C317 C 0.82293 0.63102 0.50872 0.0
C318 C 0.71487 0.6355 0.48596 0.0
C319 C 0.56935 0.61713 0.52276 0.0
H320 H 0.47459 0.65926 0.49619 0.0
C321 C 0.28396 0.62855 0.54058 0.0
C322 C 0.24705 0.63294 0.51715 0.0
C323 C 0.35501 0.62889 0.54018 0.0
C324 C 0.50064 0.64741 0.50354 0.0
H325 H 0.81549 0.62239 0.55068 0.0
H326 H 0.69161 0.62239 0.55159 0.0
H327 H 0.59885 0.65775 0.49264 0.0
H328 H 0.25465 0.64158 0.4752 0.0
H329 H 0.37857 0.642 0.47456 0.0
H330 H 0.47117 0.60678 0.53364 0.0
C331 C 0.7174 0.62591 0.53292 0.0
C332 C 0.57125 0.64651 0.50138 0.0
C333 C 0.78816 0.62604 0.53241 0.0
C334 C 0.28191 0.63803 0.49353 0.0
C335 C 0.35268 0.63842 0.49318 0.0
C336 C 0.49876 0.61803 0.52492 0.0
C337 C 0.68041 0.63076 0.50979 0.0
C338 C 0.60589 0.63137 0.51099 0.0
C339 C 0.38957 0.63371 0.5164 0.0
C340 C 0.46411 0.63317 0.5153 0.0
H341 H 0.81171 0.6394 0.46686 0.0
H342 H 0.68686 0.63914 0.46784 0.0
H343 H 0.59536 0.60527 0.53008 0.0
H344 H 0.25811 0.62467 0.55907 0.0
H345 H 0.38294 0.62535 0.55835 0.0
C346 C 0.70616 0.37949 0.48776 0.0
C347 C 0.74234 0.37939 0.51236 0.0
C348 C 0.6351 0.37846 0.48759 0.0
C349 C 0.4952 0.361 0.52861 0.0
H350 H 0.38103 0.38733 0.47827 0.0
C351 C 0.20146 0.36097 0.53282 0.0
C352 C 0.1654 0.36106 0.50819 0.0
C353 C 0.2725 0.36209 0.53305 0.0
C354 C 0.41247 0.3797 0.49215 0.0
H355 H 0.73254 0.37913 0.5561 0.0
H356 H 0.60786 0.37749 0.55576 0.0
H357 H 0.50341 0.39364 0.4802 0.0
H358 H 0.17544 0.3614 0.46446 0.0
H359 H 0.30009 0.36319 0.4649 0.0
H360 H 0.40428 0.34705 0.54055 0.0
C361 C 0.63477 0.3781 0.53665 0.0
C362 C 0.48233 0.38339 0.49337 0.0
C363 C 0.70599 0.37919 0.53683 0.0
C364 C 0.20188 0.36134 0.48375 0.0
C365 C 0.27309 0.36252 0.484 0.0
C366 C 0.42535 0.35731 0.52739 0.0
C367 C 0.59886 0.37729 0.51201 0.0
C368 C 0.52432 0.37407 0.5116 0.0
C369 C 0.30885 0.36335 0.50867 0.0
C370 C 0.38336 0.36662 0.50914 0.0
H371 H 0.73278 0.3797 0.46856 0.0
H372 H 0.60878 0.37775 0.4683 0.0
H373 H 0.52665 0.35336 0.54248 0.0
H374 H 0.17474 0.3607 0.552 0.0
H375 H 0.2987 0.36281 0.55237 0.0
C376 C 0.765 0.87812 0.98537 0.0
C377 C 0.72814 0.8793 1.00964 0.0
C378 C 0.83614 0.87698 0.98594 0.0
C379 C 0.9731 0.86203 0.03093 0.0
H380 H 0.0921 0.88621 0.97979 0.0
C381 C 0.2674 0.8632 0.03963 0.0
C382 C 0.30438 0.86211 0.01538 0.0
C383 C 0.19624 0.86426 0.03903 0.0
C384 C 0.05932 0.87919 0.99398 0.0
H385 H 0.73662 0.88147 0.05337 0.0
H386 H 0.86066 0.87976 0.05425 0.0
H387 H 0.96948 0.89181 0.97841 0.0
H388 H 0.29609 0.86002 0.97164 0.0
H389 H 0.17202 0.86159 0.97069 0.0
H390 H 0.06295 0.84941 0.0465 0.0
C391 C 0.83461 0.87927 0.03489 0.0
C392 C -0.01069 0.88245 0.99322 0.0
C393 C 0.76368 0.88035 0.03434 0.0
C394 C 0.26894 0.86106 0.99066 0.0
C395 C 0.198 0.86208 0.99007 0.0
C396 C 0.04312 0.85877 0.03168 0.0
C397 C 0.87131 0.87707 1.01078 0.0
C398 C 0.94563 0.87392 0.01172 0.0
C399 C 0.16116 0.86419 0.01417 0.0
C400 C 0.08681 0.86731 0.01319 0.0
H401 H 0.73886 0.87724 0.96606 0.0
H402 H 0.8633 0.87523 0.96705 0.0
H403 H 0.94032 0.85502 0.04512 0.0
H404 H 0.29346 0.86406 0.05897 0.0
H405 H 0.169 0.86596 0.05791 0.0
C406 C 0.1861 0.12686 0.98544 0.0
C407 C 0.22322 0.12572 1.00973 0.0
C408 C 0.11498 0.12801 0.98599 0.0
C409 C 0.97849 0.14309 0.03078 0.0
H410 H 0.85909 0.11866 0.97982 0.0
C411 C 0.68432 0.14181 0.03936 0.0
C412 C 0.6471 0.14277 0.01508 0.0
C413 C 0.75548 0.14079 0.0388 0.0
C414 C 0.89198 0.12575 0.99395 0.0
H415 H 0.21523 0.12368 0.05346 0.0
H416 H 0.09119 0.12543 0.05431 0.0
H417 H -0.01829 0.11308 0.97856 0.0
H418 H 0.65491 0.14471 0.97134 0.0
H419 H 0.77899 0.14323 0.97045 0.0
H420 H 0.88874 0.15576 0.04618 0.0
C421 C 0.11705 0.12586 0.03495 0.0
C422 C 0.96198 0.12251 0.99327 0.0
C423 C 0.18796 0.12475 0.03442 0.0
C424 C 0.68226 0.14375 0.99037 0.0
C425 C 0.75321 0.1428 0.98982 0.0
C426 C 0.90847 0.14634 0.03147 0.0
C427 C 0.08009 0.12799 1.01081 0.0
C428 C 0.0058 0.13113 0.0117 0.0
C429 C 0.7903 0.1408 0.01396 0.0
C430 C 0.86464 0.13771 0.01303 0.0
H431 H 0.21201 0.12767 0.96612 0.0
H432 H 0.08762 0.12971 0.96708 0.0
H433 H 0.01139 0.15017 0.04492 0.0
H434 H 0.65847 0.141 0.0587 0.0
H435 H 0.78293 0.13919 0.0577 0.0
C436 C 0.2846 0.14247 0.53432 0.0
C437 C 0.31983 0.14153 0.50962 0.0
C438 C 0.21361 0.14138 0.53484 0.0
C439 C 0.05847 0.14459 0.49307 0.0
H440 H -0.01588 0.11142 0.54617 0.0
C441 C 0.7781 0.12284 0.49014 0.0
C442 C 0.74283 0.12384 0.51482 0.0
C443 C 0.84909 0.12395 0.48963 0.0
C444 C 0.00415 0.12082 0.5314 0.0
H445 H 0.30848 0.13969 0.46601 0.0
H446 H 0.18399 0.13766 0.46696 0.0
H447 H 0.1069 0.11716 0.54495 0.0
H448 H 0.75412 0.12581 0.55842 0.0
H449 H 0.8786 0.12786 0.55749 0.0
H450 H 0.95571 0.14824 0.47951 0.0
C451 C 0.21142 0.13933 0.48588 0.0
C452 C 0.07427 0.12415 0.53074 0.0
C453 C 0.28261 0.14047 0.48533 0.0
C454 C 0.78001 0.12498 0.53911 0.0
C455 C 0.8512 0.12613 0.53858 0.0
C456 C -0.01165 0.14125 0.49372 0.0
C457 C 0.1765 0.13929 0.5107 0.0
C458 C 0.10203 0.13609 0.51159 0.0
C459 C 0.88615 0.12611 0.51376 0.0
C460 C 0.9606 0.12932 0.51287 0.0
H461 H 0.31193 0.14348 0.55336 0.0
H462 H 0.1878 0.14178 0.55421 0.0
H463 H 0.07849 0.15399 0.4783 0.0
H464 H 0.75081 0.12176 0.47109 0.0
H465 H 0.87494 0.1235 0.47027 0.0
C466 C 0.66215 0.85994 0.53479 0.0
C467 C 0.62661 0.86073 0.51008 0.0
C468 C 0.73319 0.86087 0.53527 0.0
C469 C 0.88777 0.85716 0.49349 0.0
H470 H 0.96297 0.89089 0.54574 0.0
C471 C 0.16783 0.87928 0.48965 0.0
C472 C 0.20365 0.87864 0.51431 0.0
C473 C 0.09686 0.87798 0.48925 0.0
C474 C 0.94272 0.88133 0.53121 0.0
H475 H 0.6374 0.86211 0.46643 0.0
H476 H 0.76193 0.86388 0.46731 0.0
H477 H 0.84025 0.88508 0.54482 0.0
H478 H 0.19327 0.87708 0.55797 0.0
H479 H 0.0689 0.87472 0.55723 0.0
H480 H -0.00971 0.85344 0.47986 0.0
C481 C 0.73474 0.86245 0.48627 0.0
C482 C 0.87262 0.87795 0.53073 0.0
C483 C 0.66351 0.86146 0.48577 0.0
C484 C 0.16698 0.87765 0.53866 0.0
C485 C 0.09584 0.87631 0.53825 0.0
C486 C 0.95789 0.86054 0.49397 0.0
C487 C 0.77001 0.86266 0.51108 0.0
C488 C 0.84453 0.86582 0.51188 0.0
C489 C 0.06037 0.87599 0.51349 0.0
C490 C -0.01406 0.87269 0.5128 0.0
H491 H 0.63506 0.85917 0.55386 0.0
H492 H 0.75927 0.86061 0.55463 0.0
H493 H 0.86749 0.84761 0.47894 0.0
H494 H 0.1947 0.88021 0.47055 0.0
H495 H 0.07059 0.87815 0.46992 0.0
C496 C 0.97763 0.57205 0.05338 0.0
C497 C 0.97888 0.57995 0.02753 0.0
C498 C -0.01356 0.55349 0.05637 0.0
C499 C 0.05213 0.51366 0.02016 0.0
H500 H 0.92608 0.48657 0.06512 0.0
C501 C 0.0051 0.43887 1.00356 0.0
C502 C 0.00514 0.42747 0.02622 0.0
C503 C 0.00504 0.45745 1.00679 0.0
C504 C 0.96222 0.49399 0.0528 0.0
H505 H -0.00878 0.57461 0.98462 0.0
H506 H 0.00596 0.54248 0.98981 0.0
H507 H 0.92283 0.51945 0.06545 0.0
H508 H 0.00286 0.42666 0.07011 0.0
H509 H 0.00207 0.45939 0.07573 0.0
H510 H 0.09014 0.48829 1.00688 0.0
C511 C -0.00096 0.55055 1.00783 0.0
C512 C 0.9605 0.51279 0.05302 0.0
C513 C -0.00992 0.56899 1.00484 0.0
C514 C 0.00299 0.4351 0.05226 0.0
C515 C 0.00243 0.45379 0.05549 0.0
C516 C 0.05363 0.49495 0.01986 0.0
C517 C -0.00289 0.54256 0.03358 0.0
C518 C 0.00431 0.52279 0.03615 0.0
C519 C 0.00469 0.46512 0.03275 0.0
C520 C 0.00758 0.48492 0.03563 0.0
H521 H 0.96912 0.58014 0.07126 0.0
H522 H -0.01488 0.54772 0.07649 0.0
H523 H 0.08761 0.52098 1.00742 0.0
H524 H 0.00635 0.43348 0.9832 0.0
H525 H 0.00543 0.46586 0.98889 0.0
C526 C -0.00417 0.43242 0.46811 0.0
C527 C -0.00164 0.42483 0.49416 0.0
C528 C 0.00964 0.45072 0.46436 0.0
C529 C 0.09158 0.48984 0.49753 0.0
H530 H 0.96123 0.51817 0.4568 0.0
C531 C 0.05213 0.56448 0.51745 0.0
C532 C 0.04206 0.5762 0.49555 0.0
C533 C 0.05548 0.546 0.51332 0.0
C534 C -0.00117 0.51041 0.4678 0.0
H535 H 0.01847 0.4304 0.53658 0.0
H536 H 0.04212 0.46215 0.53005 0.0
H537 H 0.95193 0.48542 0.45656 0.0
H538 H 0.0279 0.57773 0.45204 0.0
H539 H 0.0332 0.5452 0.44485 0.0
H540 H 0.13711 0.51479 0.50952 0.0
C541 C 0.03014 0.454 0.51248 0.0
C542 C -0.00648 0.49167 0.46766 0.0
C543 C 0.01598 0.43581 0.51625 0.0
C544 C 0.03565 0.56902 0.46932 0.0
C545 C 0.03851 0.55043 0.46521 0.0
C546 C 0.09686 0.50852 0.49768 0.0
C547 C 0.02686 0.46168 0.48654 0.0
C548 C 0.03857 0.48124 0.48322 0.0
C549 C 0.04858 0.53876 0.4872 0.0
C550 C 0.04926 0.51902 0.48351 0.0
H551 H -0.01753 0.42429 0.45068 0.0
H552 H 0.00701 0.45629 0.44413 0.0
H553 H 0.12791 0.48212 0.50925 0.0
H554 H 0.05732 0.56954 0.53792 0.0
H555 H 0.06208 0.53734 0.53074 0.0
C556 C 0.48505 0.9339 0.05352 0.0
C557 C 0.48296 0.926 0.02766 0.0
C558 C 0.47779 0.9525 0.0565 0.0
C559 C 0.41472 0.99265 0.02018 0.0
H560 H 0.54216 0.0192 0.0655 0.0
C561 C 0.46404 0.0674 1.00426 0.0
C562 C 0.46383 0.07869 0.02706 0.0
C563 C 0.46417 0.0488 1.00729 0.0
C564 C 0.50568 0.01192 0.05306 0.0
H565 H 0.47088 0.93143 0.98473 0.0
H566 H 0.45884 0.96363 0.98992 0.0
H567 H 0.54359 0.98629 0.06574 0.0
H568 H 0.46616 0.07927 0.07096 0.0
H569 H 0.46705 0.04652 0.0762 0.0
H570 H 0.37811 0.01817 1.0069 0.0
C571 C 0.4652 0.95552 1.00794 0.0
C572 C 0.50635 0.99311 0.05323 0.0
C573 C 0.47259 0.93703 1.00496 0.0
C574 C 0.46616 0.07092 0.05301 0.0
C575 C 0.46677 0.05221 0.05603 0.0
C576 C 0.41428 0.01136 0.01992 0.0
C577 C 0.46785 0.9635 0.0337 0.0
C578 C 0.46196 0.9833 0.03626 0.0
C579 C 0.46441 0.041 0.03316 0.0
C580 C 0.46083 0.02119 0.03584 0.0
H581 H 0.49298 0.92575 0.0714 0.0
H582 H 0.47965 0.95827 0.07662 0.0
H583 H 0.3788 0.98548 1.00736 0.0
H584 H 0.46269 0.07289 0.98397 0.0
H585 H 0.4637 0.04047 0.98929 0.0
C586 C 0.49266 0.06967 0.47155 0.0
C587 C 0.49268 0.07754 0.49743 0.0
C588 C 0.48274 0.05113 0.46857 0.0
C589 C 0.4148 0.0115 0.50494 0.0
H590 H 0.53693 0.98403 0.45934 0.0
C591 C 0.45272 0.93645 0.5206 0.0
C592 C 0.45036 0.9252 0.49779 0.0
C593 C 0.45561 0.95503 0.51761 0.0
C594 C 0.50189 0.99157 0.47185 0.0
H595 H 0.48179 0.07216 0.5404 0.0
H596 H 0.46511 0.04005 0.53522 0.0
H597 H 0.54358 0.0169 0.45919 0.0
H598 H 0.45171 0.92462 0.45387 0.0
H599 H 0.45738 0.95735 0.44869 0.0
H600 H 0.3744 0.98627 0.51819 0.0
C601 C 0.47185 0.04814 0.51718 0.0
C602 C 0.50556 0.01035 0.47173 0.0
C603 C 0.4819 0.06657 0.52016 0.0
C604 C 0.45331 0.93295 0.47184 0.0
C605 C 0.45667 0.95164 0.46886 0.0
C606 C 0.41135 0.99281 0.50513 0.0
C607 C 0.47221 0.04019 0.4914 0.0
C608 C 0.46316 0.02047 0.48881 0.0
C609 C 0.4565 0.96284 0.49175 0.0
C610 C 0.45596 0.98264 0.48911 0.0
H611 H 0.50085 0.07778 0.45364 0.0
H612 H 0.4829 0.04537 0.44843 0.0
H613 H 0.38037 0.01894 0.51785 0.0
H614 H 0.451 0.93095 0.54089 0.0
H615 H 0.45681 0.96334 0.53562 0.0
C616 C 0.08554 0.30645 0.01771 0.0
C617 C 0.07632 0.31764 0.99511 0.0
C618 C 0.1163 0.28972 0.01496 0.0
C619 C 0.2356 0.26542 0.97091 0.0
H620 H 0.186 0.22556 0.01756 0.0
C621 C 0.366 0.19474 0.97184 0.0
C622 C 0.38071 0.18803 0.99783 0.0
C623 C 0.32922 0.2107 0.96876 0.0
C624 C 0.20052 0.23661 1.00447 0.0
H625 H 0.08935 0.31963 0.95163 0.0
H626 H 0.14222 0.29013 0.94674 0.0
H627 H 0.11389 0.25209 0.01615 0.0
H628 H 0.37194 0.19342 0.04089 0.0
H629 H 0.30794 0.22108 0.03542 0.0
H630 H 0.32245 0.2497 0.95931 0.0
C631 C 0.12658 0.29451 0.96667 0.0
C632 C 0.15929 0.25181 1.00365 0.0
C633 C 0.09571 0.31133 0.96944 0.0
C634 C 0.36121 0.19811 0.02057 0.0
C635 C 0.32407 0.2139 0.01748 0.0
C636 C 0.2766 0.25007 0.97154 0.0
C637 C 0.13843 0.28366 0.98951 0.0
C638 C 0.17723 0.2666 0.98743 0.0
C639 C 0.30608 0.22008 0.99161 0.0
C640 C 0.2603 0.23574 0.98887 0.0
H641 H 0.07132 0.31088 0.03781 0.0
H642 H 0.12538 0.28188 0.03307 0.0
H643 H 0.25128 0.27663 0.95837 0.0
H644 H 0.38036 0.18731 0.95392 0.0
H645 H 0.31613 0.21524 0.94858 0.0
C646 C 0.5787 0.80565 0.02024 0.0
C647 C 0.56704 0.81661 0.99757 0.0
C648 C 0.61086 0.7891 0.01743 0.0
C649 C 0.72915 0.76514 0.97242 0.0
H650 H 0.68586 0.72532 0.0201 0.0
C651 C 0.86422 0.69506 0.97252 0.0
C652 C 0.88135 0.68855 0.9984 0.0
C653 C 0.82619 0.71084 0.96971 0.0
C654 C 0.69863 0.73636 1.00671 0.0
H655 H 0.57726 0.81838 0.95394 0.0
H656 H 0.63248 0.7892 0.94896 0.0
H657 H 0.61187 0.75149 0.01924 0.0
H658 H 0.87552 0.69414 0.04149 0.0
H659 H 0.80936 0.72147 0.03649 0.0
H660 H 0.81612 0.74977 0.95995 0.0
C661 C 0.61773 0.79362 0.96899 0.0
C662 C 0.65632 0.75136 1.00622 0.0
C663 C 0.58551 0.81026 0.97181 0.0
C664 C 0.86292 0.69866 0.02125 0.0
C665 C 0.82456 0.71427 0.01844 0.0
C666 C 0.77122 0.74999 0.97272 0.0
C667 C 0.63195 0.78301 0.99186 0.0
C668 C 0.67197 0.76615 0.98961 0.0
C669 C 0.8042 0.72023 0.99273 0.0
C670 C 0.75721 0.73568 0.99039 0.0
H671 H 0.5653 0.81012 0.04039 0.0
H672 H 0.62176 0.78144 0.03556 0.0
H673 H 0.7431 0.77635 0.95956 0.0
H674 H 0.87765 0.68759 0.95451 0.0
H675 H 0.81126 0.71522 0.94965 0.0
C676 C 0.06667 0.6934 0.5559 0.0
C677 C 0.04848 0.68717 0.52999 0.0
C678 C 0.09303 0.71075 0.55935 0.0
C679 C 0.12128 0.75437 0.52383 0.0
H680 H 0.28954 0.75567 0.56556 0.0
C681 C 0.32848 0.80695 0.50423 0.0
C682 C 0.35337 0.81655 0.52672 0.0
C683 C 0.2883 0.79162 0.50779 0.0
C684 C 0.24222 0.75556 0.55413 0.0
H685 H 0.03842 0.69475 0.48776 0.0
H686 H 0.08476 0.72474 0.49365 0.0
H687 H 0.21669 0.72893 0.567 0.0
H688 H 0.35916 0.81689 0.57059 0.0
H689 H 0.28972 0.78974 0.57674 0.0
H690 H 0.14858 0.78069 0.51003 0.0
C691 C 0.07856 0.71637 0.51142 0.0
C692 C 0.2002 0.74032 0.55506 0.0
C693 C 0.05225 0.69908 0.50799 0.0
C694 C 0.34065 0.80982 0.55286 0.0
C695 C 0.30086 0.79432 0.5564 0.0
C696 C 0.16355 0.7695 0.52271 0.0
C697 C 0.10148 0.72221 0.53696 0.0
C698 C 0.14008 0.73938 0.53938 0.0
C699 C 0.27265 0.78543 0.53389 0.0
C700 C 0.22521 0.77005 0.53731 0.0
H701 H 0.06411 0.68458 0.57329 0.0
H702 H 0.10907 0.71497 0.57937 0.0
H703 H 0.07468 0.75425 0.51195 0.0
H704 H 0.33741 0.81169 0.48381 0.0
H705 H 0.2683 0.78477 0.49009 0.0
C706 C 0.87949 0.31008 0.55163 0.0
C707 C 0.89796 0.31628 0.52576 0.0
C708 C 0.84734 0.29336 0.55474 0.0
C709 C 0.81065 0.25062 0.51834 0.0
H710 H 0.65041 0.24839 0.56437 0.0
C711 C 0.6066 0.1967 0.50366 0.0
C712 C 0.58893 0.18649 0.52657 0.0
C713 C 0.64398 0.21258 0.50639 0.0
C714 C 0.69545 0.2488 0.55168 0.0
H715 H 0.8994 0.30951 0.48303 0.0
H716 H 0.84308 0.28068 0.48838 0.0
H717 H 0.72221 0.27545 0.56438 0.0
H718 H 0.59281 0.18563 0.57045 0.0
H719 H 0.65755 0.21374 0.57516 0.0
H720 H 0.7825 0.22429 0.50491 0.0
C721 C 0.85399 0.28852 0.50636 0.0
C722 C 0.73679 0.26422 0.55175 0.0
C723 C 0.88605 0.30515 0.50327 0.0
C724 C 0.60571 0.19316 0.55241 0.0
C725 C 0.64278 0.20922 0.55514 0.0
C726 C 0.76909 0.23536 0.51807 0.0
C727 C 0.83325 0.28252 0.53206 0.0
C728 C 0.79406 0.26544 0.53462 0.0
C729 C 0.66409 0.21872 0.53206 0.0
C730 C 0.71035 0.23445 0.53428 0.0
H731 H 0.88795 0.31834 0.56936 0.0
H732 H 0.83275 0.28902 0.57485 0.0
H733 H 0.85522 0.25093 0.50539 0.0
H734 H 0.59417 0.19205 0.48345 0.0
H735 H 0.65871 0.21985 0.4883 0.0
C736 C 0.02945 0.34641 0.16164 0.0
C737 C 0.03313 0.36205 0.14586 0.0
C738 C 0.02161 0.34749 0.18963 0.0
C739 C 0.96836 0.37735 0.24518 0.0
H740 H 0.07383 0.34409 0.28869 0.0
C741 C 0.96686 0.378 0.36282 0.0
C742 C 0.9599 0.36105 0.37504 0.0
C743 C 0.97958 0.3794 0.33502 0.0
C744 C 0.04377 0.3534 0.27682 0.0
H745 H 0.03304 0.39112 0.147 0.0
H746 H 0.01867 0.39309 0.19616 0.0
H747 H 0.08731 0.34424 0.23972 0.0
H748 H 0.95978 0.33239 0.36802 0.0
H749 H -0.01807 0.33473 0.31955 0.0
H750 H 0.92447 0.38638 0.28247 0.0
C751 C 0.02054 0.37996 0.18674 0.0
C752 C 0.05136 0.35346 0.24876 0.0
C753 C 0.02834 0.37886 0.15862 0.0
C754 C 0.96562 0.34558 0.35904 0.0
C755 C 0.9787 0.34695 0.33138 0.0
C756 C 0.96084 0.3773 0.27335 0.0
C757 C 0.01797 0.36427 0.20258 0.0
C758 C 0.01285 0.36519 0.23255 0.0
C759 C -0.01435 0.36386 0.31902 0.0
C760 C -0.00238 0.3651 0.28941 0.0
H761 H 0.03301 0.33332 0.15222 0.0
H762 H 0.01852 0.33513 0.20115 0.0
H763 H 0.93771 0.38648 0.23325 0.0
H764 H 0.96082 0.39013 0.37461 0.0
H765 H -0.01529 0.39261 0.32606 0.0
C766 C 0.94599 0.65919 0.16475 0.0
C767 C 0.94589 0.64374 0.14847 0.0
C768 C 0.95619 0.65793 0.19263 0.0
C769 C 0.02335 0.62892 0.24679 0.0
H770 H 0.90712 0.65825 0.29216 0.0
C771 C 0.03122 0.62621 0.36445 0.0
C772 C 0.02902 0.64291 0.37765 0.0
C773 C 0.01887 0.62502 0.33656 0.0
C774 C 0.94036 0.65007 0.27979 0.0
H775 H 0.95479 0.61475 0.14877 0.0
H776 H 0.97392 0.61252 0.19766 0.0
H777 H 0.89151 0.65859 0.24328 0.0
H778 H 0.01371 0.67142 0.37213 0.0
H779 H -0.00729 0.66946 0.32356 0.0
H780 H 0.07277 0.62059 0.28345 0.0
C781 C 0.96722 0.62566 0.18868 0.0
C782 C 0.93143 0.65028 0.25177 0.0
C783 C 0.95677 0.62694 0.16067 0.0
C784 C 0.01501 0.65838 0.36244 0.0
C785 C 0.00252 0.65721 0.33469 0.0
C786 C 0.03241 0.62874 0.27493 0.0
C787 C 0.96611 0.64114 0.205 0.0
C788 C 0.9735 0.63994 0.23489 0.0
C789 C 0.0042 0.64052 0.32138 0.0
C790 C -0.00832 0.63955 0.2917 0.0
H791 H 0.93768 0.67228 0.15583 0.0
H792 H 0.95616 0.67014 0.20455 0.0
H793 H 0.05677 0.62088 0.23431 0.0
H794 H 0.0439 0.61415 0.37555 0.0
H795 H 0.02055 0.61196 0.32691 0.0
C796 C 0.94646 0.64278 0.86459 0.0
C797 C 0.94909 0.62586 0.87714 0.0
C798 C 0.94565 0.64414 0.83628 0.0
C799 C 0.91799 0.617 0.77375 0.0
H800 H 0.04031 0.65162 0.74031 0.0
C801 C 0.01456 0.6077 0.66571 0.0
C802 C 0.01041 0.62243 0.64805 0.0
C803 C 0.00434 0.60988 0.69343 0.0
C804 C 0.00538 0.64203 0.74938 0.0
H805 H 0.95221 0.59721 0.87015 0.0
H806 H 0.95145 0.59946 0.82106 0.0
H807 H 0.02238 0.65239 0.78933 0.0
H808 H -0.00842 0.65106 0.64575 0.0
H809 H 0.97599 0.655 0.69456 0.0
H810 H 0.90287 0.60625 0.73402 0.0
C811 C 0.94863 0.61171 0.8328 0.0
C812 C -0.00519 0.6425 0.77741 0.0
C813 C 0.94951 0.61039 0.86094 0.0
C814 C -0.00253 0.63955 0.65888 0.0
C815 C -0.01221 0.64178 0.68678 0.0
C816 C 0.929 0.61644 0.74588 0.0
C817 C 0.94754 0.6286 0.82005 0.0
C818 C 0.95217 0.62971 0.79001 0.0
C819 C -0.01034 0.62687 0.70423 0.0
C820 C 0.97396 0.62868 0.73347 0.0
H821 H 0.94795 0.65493 0.87658 0.0
H822 H 0.94457 0.65734 0.8271 0.0
H823 H 0.88355 0.60722 0.78265 0.0
H824 H 0.02427 0.59437 0.65789 0.0
H825 H 0.0071 0.59819 0.70644 0.0
C826 C 0.96076 0.36233 0.65773 0.0
C827 C 0.9615 0.37941 0.64562 0.0
C828 C 0.95913 0.36066 0.68597 0.0
C829 C 0.92259 0.38631 0.74866 0.0
H830 H 0.05204 0.35401 0.78254 0.0
C831 C 0.00581 0.39598 0.85837 0.0
C832 C 0.00654 0.38086 0.87531 0.0
C833 C -0.00122 0.39406 0.83044 0.0
C834 C 0.01508 0.36292 0.77336 0.0
H835 H 0.96055 0.40799 0.65321 0.0
H836 H 0.9578 0.4052 0.70232 0.0
H837 H 0.03735 0.35357 0.73332 0.0
H838 H 0.00047 0.3518 0.87628 0.0
H839 H -0.01029 0.34836 0.82709 0.0
H840 H 0.90155 0.396 0.78848 0.0
C841 C 0.95737 0.39307 0.69022 0.0
C842 C 0.00644 0.36263 0.74521 0.0
C843 C 0.95932 0.39471 0.66213 0.0
C844 C 0.0021 0.36366 0.86365 0.0
C845 C -0.00469 0.36171 0.83555 0.0
C846 C 0.9314 0.38664 0.77667 0.0
C847 C 0.95808 0.37604 0.70252 0.0
C848 C 0.96122 0.37463 0.73251 0.0
C849 C -0.00804 0.37694 0.81876 0.0
C850 C 0.97888 0.37526 0.78927 0.0
H851 H 0.96423 0.35034 0.64545 0.0
H852 H 0.95957 0.34736 0.69485 0.0
H853 H 0.88627 0.39545 0.73957 0.0
H854 H 0.00908 0.40936 0.86689 0.0
H855 H -0.00234 0.40603 0.81799 0.0
C856 C 0.51064 0.84581 0.16397 0.0
C857 C 0.51459 0.86141 0.14811 0.0
C858 C 0.5008 0.84693 0.19187 0.0
C859 C 0.44266 0.87697 0.24664 0.0
H860 H 0.54406 0.84373 0.29167 0.0
C861 C 0.43324 0.8782 0.36432 0.0
C862 C 0.42497 0.86133 0.37668 0.0
C863 C 0.44769 0.87943 0.33662 0.0
C864 C 0.5151 0.85304 0.27937 0.0
H865 H 0.51302 0.89047 0.14906 0.0
H866 H 0.49533 0.89253 0.19803 0.0
H867 H 0.56134 0.84369 0.2429 0.0
H868 H 0.42442 0.83264 0.36996 0.0
H869 H 0.44971 0.83469 0.32169 0.0
H870 H 0.39624 0.88622 0.28333 0.0
C871 C 0.49844 0.87938 0.18875 0.0
C872 C 0.52485 0.85299 0.2514 0.0
C873 C 0.50818 0.87823 0.16071 0.0
C874 C 0.43119 0.84577 0.36089 0.0
C875 C 0.44607 0.84697 0.33334 0.0
C876 C 0.43304 0.87705 0.27473 0.0
C877 C 0.49542 0.86373 0.20469 0.0
C878 C 0.48787 0.86472 0.23462 0.0
C879 C 0.45431 0.86381 0.32084 0.0
C880 C 0.46834 0.86486 0.29133 0.0
H881 H 0.51543 0.8327 0.15469 0.0
H882 H 0.49741 0.83459 0.20341 0.0
H883 H 0.41308 0.8861 0.23429 0.0
H884 H 0.42693 0.8904 0.37593 0.0
H885 H 0.45379 0.89259 0.32756 0.0
C886 C 0.44229 0.15833 0.16412 0.0
C887 C 0.43847 0.14286 0.14798 0.0
C888 C 0.45171 0.15699 0.19203 0.0
C889 C 0.50885 0.12661 0.24656 0.0
H890 H 0.40548 0.15934 0.29155 0.0
C891 C 0.51604 0.12474 0.36425 0.0
C892 C 0.52367 0.14156 0.37681 0.0
C893 C 0.50209 0.12361 0.33648 0.0
C894 C 0.43497 0.15017 0.27926 0.0
H895 H 0.43994 0.11379 0.14841 0.0
H896 H 0.45698 0.11135 0.19741 0.0
H897 H 0.38934 0.15969 0.24268 0.0
H898 H 0.52364 0.17029 0.3704 0.0
H899 H 0.49926 0.16842 0.32201 0.0
H900 H 0.55473 0.1172 0.28334 0.0
C901 C 0.45404 0.12456 0.18834 0.0
C902 C 0.42587 0.15039 0.25125 0.0
C903 C 0.4447 0.12594 0.16029 0.0
C904 C 0.51735 0.15719 0.36117 0.0
C905 C 0.50299 0.15609 0.33355 0.0
C906 C 0.51785 0.12636 0.27468 0.0
C907 C 0.45679 0.14009 0.20457 0.0
C908 C 0.4636 0.13886 0.23449 0.0
C909 C 0.49535 0.1393 0.32084 0.0
C910 C 0.48185 0.13837 0.29128 0.0
H911 H 0.43764 0.17152 0.15506 0.0
H912 H 0.45491 0.16924 0.20382 0.0
H913 H 0.53895 0.11762 0.23421 0.0
H914 H 0.52244 0.1125 0.37576 0.0
H915 H 0.49646 0.11048 0.32725 0.0
C916 C 0.44447 0.11086 0.86 0.0
C917 C 0.44779 0.12603 0.87679 0.0
C918 C 0.44535 0.11268 0.83193 0.0
C919 C 0.50372 0.14305 0.77804 0.0
H920 H 0.39857 0.11038 0.73293 0.0
C921 C 0.50669 0.14195 0.65927 0.0
C922 C 0.51063 0.12469 0.64783 0.0
C923 C 0.49888 0.14404 0.68731 0.0
C924 C 0.42848 0.11955 0.74527 0.0
H925 H 0.45548 0.15505 0.87745 0.0
H926 H 0.45567 0.15836 0.82804 0.0
H927 H 0.37887 0.11096 0.78154 0.0
H928 H 0.51177 0.09624 0.65663 0.0
H929 H 0.49839 0.09982 0.70538 0.0
H930 H 0.55359 0.1515 0.74145 0.0
C931 C 0.4522 0.14502 0.83669 0.0
C932 C 0.41718 0.11989 0.77311 0.0
C933 C 0.45104 0.14317 0.86493 0.0
C934 C 0.50887 0.10967 0.66497 0.0
C935 C 0.50075 0.11173 0.6928 0.0
C936 C 0.51476 0.14278 0.75002 0.0
C937 C 0.45002 0.12976 0.81988 0.0
C938 C 0.45589 0.13128 0.78996 0.0
C939 C 0.49395 0.1289 0.70422 0.0
C940 C 0.47849 0.13066 0.73349 0.0
H941 H 0.44268 0.09752 0.86871 0.0
H942 H 0.44485 0.10062 0.81968 0.0
H943 H 0.53473 0.15191 0.79046 0.0
H944 H 0.50595 0.15375 0.6465 0.0
H945 H 0.49343 0.15743 0.69559 0.0
C946 C 0.4289 0.86054 0.6597 0.0
C947 C 0.4266 0.87772 0.64794 0.0
C948 C 0.42977 0.85861 0.68793 0.0
C949 C 0.39577 0.88357 0.75162 0.0
H950 H 0.53113 0.852 0.78336 0.0
C951 C 0.48946 0.89386 0.85978 0.0
C952 C 0.49134 0.87885 0.87694 0.0
C953 C 0.48043 0.89178 0.83196 0.0
C954 C 0.49257 0.8607 0.77478 0.0
H955 H 0.42274 0.9062 0.65619 0.0
H956 H 0.42431 0.90296 0.70521 0.0
H957 H 0.51196 0.85162 0.73433 0.0
H958 H 0.48569 0.84979 0.87831 0.0
H959 H 0.47166 0.84607 0.82926 0.0
H960 H 0.37777 0.89305 0.79181 0.0
C961 C 0.42434 0.89093 0.69289 0.0
C962 C 0.48135 0.86045 0.74674 0.0
C963 C 0.4238 0.89283 0.66482 0.0
C964 C 0.48641 0.86158 0.86552 0.0
C965 C 0.47772 0.85947 0.8375 0.0
C966 C 0.40723 0.88389 0.77949 0.0
C967 C 0.42818 0.87382 0.70484 0.0
C968 C 0.43396 0.87222 0.73479 0.0
C969 C 0.47284 0.8746 0.82057 0.0
C970 C 0.4569 0.8728 0.7913 0.0
H971 H 0.43289 0.8487 0.64712 0.0
H972 H 0.43259 0.84525 0.69652 0.0
H973 H 0.35779 0.89251 0.74317 0.0
H974 H 0.49309 0.9073 0.86808 0.0
H975 H 0.47813 0.90368 0.81938 0.0
loop_
_geom_bond_atom_site_label_1
_geom_bond_atom_site_label_2
_geom_bond_distance
_geom_bond_site_symmetry_2
_ccdc_geom_bond_type
Zn0 O1 2.055 . S
Zn0 O8 2.046 . S
Zn0 N16 2.036 . S
Zn0 O28 2.053 1_455 S
Zn0 O30 2.066 . S
O1 Zn0 2.055 . S
O1 C4 1.268 . S
C2 O30 1.256 . S
C2 O31 1.244 1_556 S
Zn3 O5 2.046 . S
Zn3 O7 2.055 . S
Zn3 N9 2.036 . S
Zn3 O27 2.066 1_455 S
Zn3 O31 2.053 . S
C4 O1 1.268 . S
C4 O5 1.245 1_556 S
O5 Zn3 2.046 . S
O5 C4 1.245 1_554 S
C6 O27 1.256 . S
C6 O28 1.244 1_554 S
O7 Zn3 2.055 . S
O7 C29 1.259 . S
O8 Zn0 2.046 . S
O8 C29 1.254 1_556 S
N9 Zn3 2.036 . S
N9 C10 1.298 . S
N9 N12 1.398 . S
C10 N9 1.298 . S
C10 N13 1.367 . S
C10 C23 1.481 . S
C11 N12 1.299 . S
C11 N13 1.379 . S
N12 N9 1.398 . S
N12 C11 1.299 . S
N13 C10 1.367 . S
N13 C11 1.379 . S
C14 N16 1.298 . S
C14 N18 1.367 . S
C14 C22 1.481 . S
C15 N17 1.299 . S
C15 N18 1.379 1_655 S
N16 Zn0 2.036 . S
N16 C14 1.298 . S
N16 N17 1.398 1_455 S
N17 C15 1.299 . S
N17 N16 1.398 1_655 S
N18 C14 1.367 . S
N18 C15 1.379 1_455 S
H19 C22 0.980 . S
H20 C22 0.981 . S
H21 C22 0.981 . S
C22 C14 1.481 . S
C22 H19 0.980 . S
C22 H20 0.981 . S
C22 H21 0.981 . S
C23 C10 1.481 . S
C23 H24 0.980 . S
C23 H25 0.981 . S
C23 H26 0.981 1_455 S
H24 C23 0.980 . S
H25 C23 0.981 . S
H26 C23 0.981 1_655 S
O27 Zn3 2.066 1_655 S
O27 C6 1.256 . S
O28 Zn0 2.053 1_655 S
O28 C6 1.244 1_556 S
C29 O7 1.259 . S
C29 O8 1.254 1_554 S
O30 Zn0 2.066 . S
O30 C2 1.256 . S
O31 C2 1.244 1_554 S
O31 Zn3 2.053 . S
Zn32 O33 2.055 . S
Zn32 O40 2.046 . S
Zn32 N48 2.036 . S
Zn32 O60 2.053 . S
Zn32 O62 2.066 1_655 S
O33 Zn32 2.055 . S
O33 C36 1.259 . S
C34 O62 1.256 . S
C34 O63 1.244 1_554 S
Zn35 O37 2.046 . S
Zn35 O39 2.055 . S
Zn35 N41 2.036 . S
Zn35 O59 2.066 . S
Zn35 O63 2.053 1_655 S
C36 O33 1.259 . S
C36 O37 1.254 1_554 S
O37 Zn35 2.046 . S
O37 C36 1.254 1_556 S
C38 O59 1.256 . S
C38 O60 1.244 1_556 S
O39 Zn35 2.055 . S
O39 C61 1.268 . S
O40 Zn32 2.046 . S
O40 C61 1.245 1_554 S
N41 Zn35 2.036 . S
N41 C42 1.298 . S
N41 N44 1.398 1_655 S
C42 N41 1.298 . S
C42 N45 1.367 . S
C42 C55 1.481 . S
C43 N44 1.299 . S
C43 N45 1.379 1_455 S
N44 N41 1.398 1_455 S
N44 C43 1.299 . S
N45 C42 1.367 . S
N45 C43 1.379 1_655 S
C46 N48 1.298 . S
C46 N50 1.367 . S
C46 C54 1.481 . S
C47 N49 1.299 . S
C47 N50 1.379 . S
N48 Zn32 2.036 . S
N48 C46 1.298 . S
N48 N49 1.398 . S
N49 C47 1.299 . S
N49 N48 1.398 . S
N50 C46 1.367 . S
N50 C47 1.379 . S
H51 C54 0.980 . S
H52 C54 0.981 . S
H53 C54 0.981 1_455 S
C54 C46 1.481 . S
C54 H51 0.980 . S
C54 H52 0.981 . S
C54 H53 0.981 1_655 S
C55 C42 1.481 . S
C55 H56 0.980 . S
C55 H57 0.981 . S
C55 H58 0.981 . S
H56 C55 0.980 . S
H57 C55 0.981 . S
H58 C55 0.981 . S
O59 Zn35 2.066 . S
O59 C38 1.256 . S
O60 Zn32 2.053 . S
O60 C38 1.244 1_554 S
C61 O39 1.268 . S
C61 O40 1.245 1_556 S
O62 Zn32 2.066 1_455 S
O62 C34 1.256 . S
O63 C34 1.244 1_556 S
O63 Zn35 2.053 1_455 S
Zn64 O65 2.055 . S
Zn64 O72 2.046 . S
Zn64 N80 2.036 . S
Zn64 O92 2.053 . S
Zn64 O94 2.066 1_455 S
O65 Zn64 2.055 . S
O65 C68 1.259 . S
C66 O94 1.256 . S
C66 O95 1.244 . S
Zn67 O69 2.046 . S
Zn67 O71 2.055 . S
Zn67 N73 2.036 . S
Zn67 O91 2.066 . S
Zn67 O95 2.053 1_455 S
C68 O65 1.259 . S
C68 O69 1.254 . S
O69 Zn67 2.046 . S
O69 C68 1.254 . S
C70 O91 1.256 . S
C70 O92 1.244 . S
O71 Zn67 2.055 . S
O71 C93 1.259 . S
O72 Zn64 2.046 . S
O72 C93 1.254 . S
N73 Zn67 2.036 . S
N73 C74 1.298 . S
N73 N76 1.398 1_455 S
C74 N73 1.298 . S
C74 N77 1.367 . S
C74 C87 1.481 . S
C75 N76 1.299 . S
C75 N77 1.379 1_655 S
N76 N73 1.398 1_655 S
N76 C75 1.299 . S
N77 C74 1.367 . S
N77 C75 1.379 1_455 S
C78 N80 1.298 . S
C78 N82 1.367 . S
C78 C86 1.481 . S
C79 N81 1.299 . S
C79 N82 1.379 . S
N80 Zn64 2.036 . S
N80 C78 1.298 . S
N80 N81 1.398 . S
N81 C79 1.299 . S
N81 N80 1.398 . S
N82 C78 1.367 . S
N82 C79 1.379 . S
H83 C86 0.980 . S
H84 C86 0.981 . S
H85 C86 0.981 1_655 S
C86 C78 1.481 . S
C86 H83 0.980 . S
C86 H84 0.981 . S
C86 H85 0.981 1_455 S
C87 C74 1.481 . S
C87 H88 0.980 . S
C87 H89 0.981 . S
C87 H90 0.981 . S
H88 C87 0.980 . S
H89 C87 0.981 . S
H90 C87 0.981 . S
O91 Zn67 2.066 . S
O91 C70 1.256 . S
O92 Zn64 2.053 . S
O92 C70 1.244 . S
C93 O71 1.259 . S
C93 O72 1.254 . S
O94 Zn64 2.066 1_655 S
O94 C66 1.256 . S
O95 C66 1.244 . S
O95 Zn67 2.053 1_655 S
Zn96 O97 2.055 . S
Zn96 O104 2.046 . S
Zn96 N112 2.036 . S
Zn96 O124 2.053 1_655 S
Zn96 O126 2.066 . S
O97 Zn96 2.055 . S
O97 C100 1.259 . S
C98 O126 1.256 . S
C98 O127 1.244 . S
Zn99 O101 2.046 . S
Zn99 O103 2.055 . S
Zn99 N105 2.036 . S
Zn99 O123 2.066 1_655 S
Zn99 O127 2.053 . S
C100 O97 1.259 . S
C100 O101 1.254 . S
O101 Zn99 2.046 . S
O101 C100 1.254 . S
C102 O123 1.256 . S
C102 O124 1.244 . S
O103 Zn99 2.055 . S
O103 C125 1.259 . S
O104 Zn96 2.046 . S
O104 C125 1.254 . S
N105 Zn99 2.036 . S
N105 C106 1.298 . S
N105 N108 1.398 . S
C106 N105 1.298 . S
C106 N109 1.367 . S
C106 C119 1.481 . S
C107 N108 1.299 . S
C107 N109 1.379 . S
N108 N105 1.398 . S
N108 C107 1.299 . S
N109 C106 1.367 . S
N109 C107 1.379 . S
C110 N112 1.298 . S
C110 N114 1.367 . S
C110 C118 1.481 . S
C111 N113 1.299 . S
C111 N114 1.379 1_455 S
N112 Zn96 2.036 . S
N112 C110 1.298 . S
N112 N113 1.398 1_655 S
N113 C111 1.299 . S
N113 N112 1.398 1_455 S
N114 C110 1.367 . S
N114 C111 1.379 1_655 S
H115 C118 0.980 . S
H116 C118 0.981 . S
H117 C118 0.981 . S
C118 C110 1.481 . S
C118 H115 0.980 . S
C118 H116 0.981 . S
C118 H117 0.981 . S
C119 C106 1.481 . S
C119 H120 0.980 . S
C119 H121 0.981 . S
C119 H122 0.981 1_655 S
H120 C119 0.980 . S
H121 C119 0.981 . S
H122 C119 0.981 1_455 S
O123 Zn99 2.066 1_455 S
O123 C102 1.256 . S
O124 Zn96 2.053 1_455 S
O124 C102 1.244 . S
C125 O103 1.259 . S
C125 O104 1.254 . S
O126 Zn96 2.066 . S
O126 C98 1.256 . S
O127 C98 1.244 . S
O127 Zn99 2.053 . S
Zn128 O129 2.055 . S
Zn128 O136 2.046 . S
Zn128 N144 2.036 . S
Zn128 O156 2.053 . S
Zn128 O158 2.066 . S
O129 Zn128 2.055 . S
O129 C132 1.268 . S
C130 O158 1.256 . S
C130 O159 1.244 1_556 S
Zn131 O133 2.046 . S
Zn131 O135 2.055 . S
Zn131 N137 2.036 . S
Zn131 O155 2.066 . S
Zn131 O159 2.053 . S
C132 O129 1.268 . S
C132 O133 1.245 1_556 S
O133 Zn131 2.046 . S
O133 C132 1.245 1_554 S
C134 O155 1.256 . S
C134 O156 1.244 1_554 S
O135 Zn131 2.055 . S
O135 C157 1.259 . S
O136 Zn128 2.046 . S
O136 C157 1.254 1_556 S
N137 Zn131 2.036 . S
N137 C138 1.298 . S
N137 N140 1.398 . S
C138 N137 1.298 . S
C138 N141 1.367 . S
C138 C151 1.481 . S
C139 N140 1.299 . S
C139 N141 1.379 . S
N140 N137 1.398 . S
N140 C139 1.299 . S
N141 C138 1.367 . S
N141 C139 1.379 . S
C142 N144 1.298 . S
C142 N146 1.367 . S
C142 C150 1.481 . S
C143 N145 1.299 . S
C143 N146 1.379 . S
N144 Zn128 2.036 . S
N144 C142 1.298 . S
N144 N145 1.398 . S
N145 C143 1.299 . S
N145 N144 1.398 . S
N146 C142 1.367 . S
N146 C143 1.379 . S
H147 C150 0.980 . S
H148 C150 0.981 . S
H149 C150 0.981 . S
C150 C142 1.481 . S
C150 H147 0.980 . S
C150 H148 0.981 . S
C150 H149 0.981 . S
C151 C138 1.481 . S
C151 H152 0.980 . S
C151 H153 0.981 . S
C151 H154 0.981 . S
H152 C151 0.980 . S
H153 C151 0.981 . S
H154 C151 0.981 . S
O155 Zn131 2.066 . S
O155 C134 1.256 . S
O156 Zn128 2.053 . S
O156 C134 1.244 1_556 S
C157 O135 1.259 . S
C157 O136 1.254 1_554 S
O158 Zn128 2.066 . S
O158 C130 1.256 . S
O159 C130 1.244 1_554 S
O159 Zn131 2.053 . S
Zn160 O161 2.055 . S
Zn160 O168 2.046 . S
Zn160 N176 2.036 . S
Zn160 O188 2.053 . S
Zn160 O190 2.066 . S
O161 Zn160 2.055 . S
O161 C164 1.259 . S
C162 O190 1.256 . S
C162 O191 1.244 1_554 S
Zn163 O165 2.046 . S
Zn163 O167 2.055 . S
Zn163 N169 2.036 . S
Zn163 O187 2.066 . S
Zn163 O191 2.053 . S
C164 O161 1.259 . S
C164 O165 1.254 1_554 S
O165 Zn163 2.046 . S
O165 C164 1.254 1_556 S
C166 O187 1.256 . S
C166 O188 1.244 1_556 S
O167 Zn163 2.055 . S
O167 C189 1.268 . S
O168 Zn160 2.046 . S
O168 C189 1.245 1_554 S
N169 Zn163 2.036 . S
N169 C170 1.298 . S
N169 N172 1.398 . S
C170 N169 1.298 . S
C170 N173 1.367 . S
C170 C183 1.481 . S
C171 N172 1.299 . S
C171 N173 1.379 . S
N172 N169 1.398 . S
N172 C171 1.299 . S
N173 C170 1.367 . S
N173 C171 1.379 . S
C174 N176 1.298 . S
C174 N178 1.367 . S
C174 C182 1.481 . S
C175 N177 1.299 . S
C175 N178 1.379 . S
N176 Zn160 2.036 . S
N176 C174 1.298 . S
N176 N177 1.398 . S
N177 C175 1.299 . S
N177 N176 1.398 . S
N178 C174 1.367 . S
N178 C175 1.379 . S
H179 C182 0.980 . S
H180 C182 0.981 . S
H181 C182 0.981 . S
C182 C174 1.481 . S
C182 H179 0.980 . S
C182 H180 0.981 . S
C182 H181 0.981 . S
C183 C170 1.481 . S
C183 H184 0.980 . S
C183 H185 0.981 . S
C183 H186 0.981 . S
H184 C183 0.980 . S
H185 C183 0.981 . S
H186 C183 0.981 . S
O187 Zn163 2.066 . S
O187 C166 1.256 . S
O188 Zn160 2.053 . S
O188 C166 1.244 1_554 S
C189 O167 1.268 . S
C189 O168 1.245 1_556 S
O190 Zn160 2.066 . S
O190 C162 1.256 . S
O191 C162 1.244 1_556 S
O191 Zn163 2.053 . S
Zn192 O193 2.055 . S
Zn192 O200 2.046 . S
Zn192 N208 2.036 . S
Zn192 O220 2.053 . S
Zn192 O222 2.066 . S
O193 Zn192 2.055 . S
O193 C196 1.259 . S
C194 O222 1.256 . S
C194 O223 1.244 . S
Zn195 O197 2.046 . S
Zn195 O199 2.055 . S
Zn195 N201 2.036 . S
Zn195 O219 2.066 . S
Zn195 O223 2.053 . S
C196 O193 1.259 . S
C196 O197 1.254 . S
O197 Zn195 2.046 . S
O197 C196 1.254 . S
C198 O219 1.256 . S
C198 O220 1.244 . S
O199 Zn195 2.055 . S
O199 C221 1.259 . S
O200 Zn192 2.046 . S
O200 C221 1.254 . S
N201 Zn195 2.036 . S
N201 C202 1.298 . S
N201 N204 1.398 . S
C202 N201 1.298 . S
C202 N205 1.367 . S
C202 C215 1.481 . S
C203 N204 1.299 . S
C203 N205 1.379 . S
N204 N201 1.398 . S
N204 C203 1.299 . S
N205 C202 1.367 . S
N205 C203 1.379 . S
C206 N208 1.298 . S
C206 N210 1.367 . S
C206 C214 1.481 . S
C207 N209 1.299 . S
C207 N210 1.379 . S
N208 Zn192 2.036 . S
N208 C206 1.298 . S
N208 N209 1.398 . S
N209 C207 1.299 . S
N209 N208 1.398 . S
N210 C206 1.367 . S
N210 C207 1.379 . S
H211 C214 0.980 . S
H212 C214 0.981 . S
H213 C214 0.981 . S
C214 C206 1.481 . S
C214 H211 0.980 . S
C214 H212 0.981 . S
C214 H213 0.981 . S
C215 C202 1.481 . S
C215 H216 0.980 . S
C215 H217 0.981 . S
C215 H218 0.981 . S
H216 C215 0.980 . S
H217 C215 0.981 . S
H218 C215 0.981 . S
O219 Zn195 2.066 . S
O219 C198 1.256 . S
O220 Zn192 2.053 . S
O220 C198 1.244 . S
C221 O199 1.259 . S
C221 O200 1.254 . S
O222 Zn192 2.066 . S
O222 C194 1.256 . S
O223 C194 1.244 . S
O223 Zn195 2.053 . S
Zn224 O225 2.055 . S
Zn224 O232 2.046 . S
Zn224 N240 2.036 . S
Zn224 O252 2.053 . S
Zn224 O254 2.066 . S
O225 Zn224 2.055 . S
O225 C228 1.259 . S
C226 O254 1.256 . S
C226 O255 1.244 . S
Zn227 O229 2.046 . S
Zn227 O231 2.055 . S
Zn227 N233 2.036 . S
Zn227 O251 2.066 . S
Zn227 O255 2.053 . S
C228 O225 1.259 . S
C228 O229 1.254 . S
O229 Zn227 2.046 . S
O229 C228 1.254 . S
C230 O251 1.256 . S
C230 O252 1.244 . S
O231 Zn227 2.055 . S
O231 C253 1.259 . S
O232 Zn224 2.046 . S
O232 C253 1.254 . S
N233 Zn227 2.036 . S
N233 C234 1.298 . S
N233 N236 1.398 . S
C234 N233 1.298 . S
C234 N237 1.367 . S
C234 C247 1.481 . S
C235 N236 1.299 . S
C235 N237 1.379 . S
N236 N233 1.398 . S
N236 C235 1.299 . S
N237 C234 1.367 . S
N237 C235 1.379 . S
C238 N240 1.298 . S
C238 N242 1.367 . S
C238 C246 1.481 . S
C239 N241 1.299 . S
C239 N242 1.379 . S
N240 Zn224 2.036 . S
N240 C238 1.298 . S
N240 N241 1.398 . S
N241 C239 1.299 . S
N241 N240 1.398 . S
N242 C238 1.367 . S
N242 C239 1.379 . S
H243 C246 0.980 . S
H244 C246 0.981 . S
H245 C246 0.981 . S
C246 C238 1.481 . S
C246 H243 0.980 . S
C246 H244 0.981 . S
C246 H245 0.981 . S
C247 C234 1.481 . S
C247 H248 0.980 . S
C247 H249 0.981 . S
C247 H250 0.981 . S
H248 C247 0.980 . S
H249 C247 0.981 . S
H250 C247 0.981 . S
O251 Zn227 2.066 . S
O251 C230 1.256 . S
O252 Zn224 2.053 . S
O252 C230 1.244 . S
C253 O231 1.259 . S
C253 O232 1.254 . S
O254 Zn224 2.066 . S
O254 C226 1.256 . S
O255 C226 1.244 . S
O255 Zn227 2.053 . S
C256 C257 1.322 1_554 S
C256 C258 1.327 . S
C256 H281 0.950 . S
C257 C256 1.322 1_556 S
C257 C273 1.375 . S
C258 C256 1.327 . S
C258 C277 1.452 . S
C258 H282 0.950 . S
C259 C276 1.574 . S
C259 C278 1.368 1_556 S
C259 H283 0.949 . S
H260 C264 0.949 . S
C261 C262 1.349 1_556 S
C261 C263 1.327 . S
C261 H284 0.950 . S
C262 C261 1.349 1_554 S
C262 C274 1.349 . S
C263 C261 1.327 . S
C263 C279 1.429 1_556 S
C263 H285 0.950 . S
C264 H260 0.949 . S
C264 C272 1.574 . S
C264 C280 1.368 . S
H265 C273 0.950 . S
H266 C271 0.950 . S
H267 C272 0.949 . S
H268 C274 0.950 . S
H269 C275 0.950 . S
H270 C276 0.949 . S
C271 H266 0.950 . S
C271 C273 1.327 . S
C271 C277 1.404 1_556 S
C272 C264 1.574 . S
C272 H267 0.949 . S
C272 C278 1.368 . S
C273 C257 1.375 . S
C273 H265 0.950 . S
C273 C271 1.327 . S
C274 C262 1.349 . S
C274 H268 0.950 . S
C274 C275 1.327 . S
C275 H269 0.950 . S
C275 C274 1.327 . S
C275 C279 1.429 . S
C276 C259 1.574 . S
C276 H270 0.949 . S
C276 C280 1.368 1_556 S
C277 C258 1.452 . S
C277 C271 1.404 1_554 S
C277 C278 1.524 . S
C278 C259 1.368 1_554 S
C278 C272 1.368 . S
C278 C277 1.524 . S
C279 C263 1.429 1_554 S
C279 C275 1.429 . S
C279 C280 1.523 . S
C280 C264 1.368 . S
C280 C276 1.368 1_554 S
C280 C279 1.523 . S
H281 C256 0.950 . S
H282 C258 0.950 . S
H283 C259 0.949 . S
H284 C261 0.950 . S
H285 C263 0.950 . S
C286 C287 1.349 . S
C286 C288 1.327 . S
C286 H311 0.950 . S
C287 C286 1.349 . S
C287 C303 1.349 1_554 S
C288 C286 1.327 . S
C288 C307 1.429 . S
C288 H312 0.950 . S
C289 C306 1.574 . S
C289 C308 1.368 1_556 S
C289 H313 0.949 . S
H290 C294 0.949 . S
C291 C292 1.378 . S
C291 C293 1.327 . S
C291 H314 0.950 . S
C292 C291 1.378 . S
C292 C304 1.319 1_556 S
C293 C291 1.327 . S
C293 C309 1.402 1_556 S
C293 H315 0.950 . S
C294 H290 0.949 . S
C294 C302 1.574 . S
C294 C310 1.368 . S
H295 C303 0.950 . S
H296 C301 0.950 . S
H297 C302 0.949 . S
H298 C304 0.950 . S
H299 C305 0.950 . S
H300 C306 0.949 . S
C301 H296 0.950 . S
C301 C303 1.327 . S
C301 C307 1.429 1_556 S
C302 C294 1.574 . S
C302 H297 0.949 . S
C302 C308 1.368 . S
C303 C287 1.349 1_556 S
C303 H295 0.950 . S
C303 C301 1.327 . S
C304 C292 1.319 1_554 S
C304 H298 0.950 . S
C304 C305 1.327 . S
C305 H299 0.950 . S
C305 C304 1.327 . S
C305 C309 1.454 . S
C306 C289 1.574 . S
C306 H300 0.949 . S
C306 C310 1.368 1_556 S
C307 C288 1.429 . S
C307 C301 1.429 1_554 S
C307 C308 1.523 . S
C308 C289 1.368 1_554 S
C308 C302 1.368 . S
C308 C307 1.523 . S
C309 C293 1.402 1_554 S
C309 C305 1.454 . S
C309 C310 1.524 . S
C310 C294 1.368 . S
C310 C306 1.368 1_554 S
C310 C309 1.524 . S
H311 C286 0.950 . S
H312 C288 0.950 . S
H313 C289 0.949 . S
H314 C291 0.950 . S
H315 C293 0.950 . S
C316 C317 1.349 . S
C316 C318 1.327 . S
C316 H341 0.950 . S
C317 C316 1.349 . S
C317 C333 1.349 . S
C318 C316 1.327 . S
C318 C337 1.429 . S
C318 H342 0.950 . S
C319 C336 1.574 . S
C319 C338 1.368 . S
C319 H343 0.949 . S
H320 C324 0.949 . S
C321 C322 1.349 . S
C321 C323 1.327 . S
C321 H344 0.950 . S
C322 C321 1.349 . S
C322 C334 1.349 . S
C323 C321 1.327 . S
C323 C339 1.429 . S
C323 H345 0.950 . S
C324 H320 0.949 . S
C324 C332 1.574 . S
C324 C340 1.368 . S
H325 C333 0.950 . S
H326 C331 0.950 . S
H327 C332 0.949 . S
H328 C334 0.950 . S
H329 C335 0.950 . S
H330 C336 0.949 . S
C331 H326 0.950 . S
C331 C333 1.327 . S
C331 C337 1.429 . S
C332 C324 1.574 . S
C332 H327 0.949 . S
C332 C338 1.368 . S
C333 C317 1.349 . S
C333 H325 0.950 . S
C333 C331 1.327 . S
C334 C322 1.349 . S
C334 H328 0.950 . S
C334 C335 1.327 . S
C335 H329 0.950 . S
C335 C334 1.327 . S
C335 C339 1.429 . S
C336 C319 1.574 . S
C336 H330 0.949 . S
C336 C340 1.368 . S
C337 C318 1.429 . S
C337 C331 1.429 . S
C337 C338 1.523 . S
C338 C319 1.368 . S
C338 C332 1.368 . S
C338 C337 1.523 . S
C339 C323 1.429 . S
C339 C335 1.429 . S
C339 C340 1.523 . S
C340 C324 1.368 . S
C340 C336 1.368 . S
C340 C339 1.523 . S
H341 C316 0.950 . S
H342 C318 0.950 . S
H343 C319 0.949 . S
H344 C321 0.950 . S
H345 C323 0.950 . S
C346 C347 1.349 . S
C346 C348 1.327 . S
C346 H371 0.950 . S
C347 C346 1.349 . S
C347 C363 1.349 . S
C348 C346 1.327 . S
C348 C367 1.429 . S
C348 H372 0.950 . S
C349 C366 1.574 . S
C349 C368 1.368 . S
C349 H373 0.949 . S
H350 C354 0.949 . S
C351 C352 1.349 . S
C351 C353 1.327 . S
C351 H374 0.950 . S
C352 C351 1.349 . S
C352 C364 1.349 . S
C353 C351 1.327 . S
C353 C369 1.429 . S
C353 H375 0.950 . S
C354 H350 0.949 . S
C354 C362 1.574 . S
C354 C370 1.368 . S
H355 C363 0.950 . S
H356 C361 0.950 . S
H357 C362 0.949 . S
H358 C364 0.950 . S
H359 C365 0.950 . S
H360 C366 0.949 . S
C361 H356 0.950 . S
C361 C363 1.327 . S
C361 C367 1.429 . S
C362 C354 1.574 . S
C362 H357 0.949 . S
C362 C368 1.368 . S
C363 C347 1.349 . S
C363 H355 0.950 . S
C363 C361 1.327 . S
C364 C352 1.349 . S
C364 H358 0.950 . S
C364 C365 1.327 . S
C365 H359 0.950 . S
C365 C364 1.327 . S
C365 C369 1.429 . S
C366 C349 1.574 . S
C366 H360 0.949 . S
C366 C370 1.368 . S
C367 C348 1.429 . S
C367 C361 1.429 . S
C367 C368 1.523 . S
C368 C349 1.368 . S
C368 C362 1.368 . S
C368 C367 1.523 . S
C369 C353 1.429 . S
C369 C365 1.429 . S
C369 C370 1.523 . S
C370 C354 1.368 . S
C370 C366 1.368 . S
C370 C369 1.523 . S
H371 C346 0.950 . S
H372 C348 0.950 . S
H373 C349 0.949 . S
H374 C351 0.950 . S
H375 C353 0.950 . S
C376 C377 1.379 . S
C376 C378 1.327 . S
C376 H401 0.950 . S
C377 C376 1.379 . S
C377 C393 1.318 1_556 S
C378 C376 1.327 . S
C378 C397 1.401 1_556 S
C378 H402 0.950 . S
C379 C396 1.574 . S
C379 C398 1.368 . S
C379 H403 0.950 1_455 S
H380 C384 0.949 . S
C381 C382 1.349 . S
C381 C383 1.327 . S
C381 H404 0.950 . S
C382 C381 1.349 . S
C382 C394 1.349 1_554 S
C383 C381 1.327 . S
C383 C399 1.429 . S
C383 H405 0.950 . S
C384 H380 0.949 . S
C384 C392 1.574 . S
C384 C400 1.368 1_556 S
H385 C393 0.950 . S
H386 C391 0.950 . S
H387 C392 0.949 . S
H388 C394 0.950 . S
H389 C395 0.950 . S
H390 C396 0.949 . S
C391 H386 0.950 . S
C391 C393 1.327 . S
C391 C397 1.455 . S
C392 C384 1.574 . S
C392 H387 0.949 . S
C392 C398 1.368 1_556 S
C393 C377 1.318 1_554 S
C393 H385 0.950 . S
C393 C391 1.327 . S
C394 C382 1.349 1_556 S
C394 H388 0.950 . S
C394 C395 1.327 . S
C395 H389 0.950 . S
C395 C394 1.327 . S
C395 C399 1.429 1_556 S
C396 C379 1.574 . S
C396 H390 0.949 . S
C396 C400 1.368 . S
C397 C378 1.401 1_554 S
C397 C391 1.455 . S
C397 C398 1.524 1_655 S
C398 C379 1.368 . S
C398 C392 1.368 1_554 S
C398 C397 1.524 1_455 S
C399 C383 1.429 . S
C399 C395 1.429 1_554 S
C399 C400 1.523 . S
C400 C384 1.368 1_554 S
C400 C396 1.368 . S
C400 C399 1.523 . S
H401 C376 0.950 . S
H402 C378 0.950 . S
H403 C379 0.950 1_655 S
H404 C381 0.950 . S
H405 C383 0.950 . S
C406 C407 1.363 . S
C406 C408 1.327 . S
C406 H431 0.950 . S
C407 C406 1.363 . S
C407 C423 1.334 1_556 S
C408 C406 1.327 . S
C408 C427 1.415 1_556 S
C408 H432 0.950 . S
C409 C426 1.574 . S
C409 C428 1.368 . S
C409 H433 0.949 1_655 S
H410 C414 0.949 . S
C411 C412 1.349 . S
C411 C413 1.327 . S
C411 H434 0.950 . S
C412 C411 1.349 . S
C412 C424 1.349 1_554 S
C413 C411 1.327 . S
C413 C429 1.429 . S
C413 H435 0.950 . S
C414 H410 0.949 . S
C414 C422 1.574 . S
C414 C430 1.368 1_556 S
H415 C423 0.950 . S
H416 C421 0.950 . S
H417 C422 0.949 . S
H418 C424 0.950 . S
H419 C425 0.950 . S
H420 C426 0.949 . S
C421 H416 0.950 . S
C421 C423 1.327 . S
C421 C427 1.441 . S
C422 C414 1.574 . S
C422 H417 0.949 . S
C422 C428 1.368 1_556 S
C423 C407 1.334 1_554 S
C423 H415 0.950 . S
C423 C421 1.327 . S
C424 C412 1.349 1_556 S
C424 H418 0.950 . S
C424 C425 1.327 . S
C425 H419 0.950 . S
C425 C424 1.327 . S
C425 C429 1.429 1_556 S
C426 C409 1.574 . S
C426 H420 0.949 . S
C426 C430 1.368 . S
C427 C408 1.415 1_554 S
C427 C421 1.441 . S
C427 C428 1.524 1_455 S
C428 C409 1.368 . S
C428 C422 1.368 1_554 S
C428 C427 1.524 1_655 S
C429 C413 1.429 . S
C429 C425 1.429 1_554 S
C429 C430 1.523 . S
C430 C414 1.368 1_554 S
C430 C426 1.368 . S
C430 C429 1.523 . S
H431 C406 0.950 . S
H432 C408 0.950 . S
H433 C409 0.949 1_455 S
H434 C411 0.950 . S
H435 C413 0.950 . S
C436 C437 1.349 . S
C436 C438 1.327 . S
C436 H461 0.950 . S
C437 C436 1.349 . S
C437 C453 1.349 . S
C438 C436 1.327 . S
C438 C457 1.429 . S
C438 H462 0.950 . S
C439 C456 1.574 . S
C439 C458 1.368 . S
C439 H463 0.949 . S
H440 C444 0.944 1_655 S
C441 C442 1.349 . S
C441 C443 1.327 . S
C441 H464 0.950 . S
C442 C441 1.349 . S
C442 C454 1.349 . S
C443 C441 1.327 . S
C443 C459 1.429 . S
C443 H465 0.950 . S
C444 H440 0.944 1_455 S
C444 C452 1.574 . S
C444 C460 1.368 . S
H445 C453 0.950 . S
H446 C451 0.950 . S
H447 C452 0.949 . S
H448 C454 0.950 . S
H449 C455 0.950 . S
H450 C456 0.949 . S
C451 H446 0.950 . S
C451 C453 1.327 . S
C451 C457 1.429 . S
C452 C444 1.574 . S
C452 H447 0.949 . S
C452 C458 1.368 . S
C453 C437 1.349 . S
C453 H445 0.950 . S
C453 C451 1.327 . S
C454 C442 1.349 . S
C454 H448 0.950 . S
C454 C455 1.327 . S
C455 H449 0.950 . S
C455 C454 1.327 . S
C455 C459 1.429 . S
C456 C439 1.574 . S
C456 H450 0.949 . S
C456 C460 1.368 . S
C457 C438 1.429 . S
C457 C451 1.429 . S
C457 C458 1.523 . S
C458 C439 1.368 . S
C458 C452 1.368 . S
C458 C457 1.523 . S
C459 C443 1.429 . S
C459 C455 1.429 . S
C459 C460 1.523 1_655 S
C460 C444 1.368 . S
C460 C456 1.368 . S
C460 C459 1.523 1_455 S
H461 C436 0.950 . S
H462 C438 0.950 . S
H463 C439 0.949 . S
H464 C441 0.950 . S
H465 C443 0.950 . S
C466 C467 1.349 . S
C466 C468 1.327 . S
C466 H491 0.950 . S
C467 C466 1.349 . S
C467 C483 1.349 . S
C468 C466 1.327 . S
C468 C487 1.429 . S
C468 H492 0.950 . S
C469 C486 1.574 . S
C469 C488 1.368 . S
C469 H493 0.949 . S
H470 C474 0.944 1_455 S
C471 C472 1.349 . S
C471 C473 1.327 . S
C471 H494 0.950 . S
C472 C471 1.349 . S
C472 C484 1.349 . S
C473 C471 1.327 . S
C473 C489 1.429 . S
C473 H495 0.950 . S
C474 H470 0.944 1_655 S
C474 C482 1.574 . S
C474 C490 1.368 . S
H475 C483 0.950 . S
H476 C481 0.950 . S
H477 C482 0.949 . S
H478 C484 0.950 . S
H479 C485 0.950 . S
H480 C486 0.949 . S
C481 H476 0.950 . S
C481 C483 1.327 . S
C481 C487 1.429 . S
C482 C474 1.574 . S
C482 H477 0.949 . S
C482 C488 1.368 . S
C483 C467 1.349 . S
C483 H475 0.950 . S
C483 C481 1.327 . S
C484 C472 1.349 . S
C484 H478 0.950 . S
C484 C485 1.327 . S
C485 H479 0.950 . S
C485 C484 1.327 . S
C485 C489 1.429 . S
C486 C469 1.574 . S
C486 H480 0.949 . S
C486 C490 1.368 . S
C487 C468 1.429 . S
C487 C481 1.429 . S
C487 C488 1.523 . S
C488 C469 1.368 . S
C488 C482 1.368 . S
C488 C487 1.523 . S
C489 C473 1.429 . S
C489 C485 1.429 . S
C489 C490 1.523 1_455 S
C490 C474 1.368 . S
C490 C486 1.368 . S
C490 C489 1.523 1_655 S
H491 C466 0.950 . S
H492 C468 0.950 . S
H493 C469 0.949 . S
H494 C471 0.950 . S
H495 C473 0.950 . S
C496 C497 1.349 . S
C496 C498 1.327 . S
C496 H521 0.950 . S
C497 C496 1.349 . S
C497 C513 1.349 1_654 S
C498 C496 1.327 . S
C498 C517 1.429 . S
C498 H522 0.950 . S
C499 C516 1.574 . S
C499 C518 1.368 1_456 S
C499 H523 0.949 . S
H500 C504 0.949 . S
C501 C502 1.349 1_556 S
C501 C503 1.327 . S
C501 H524 0.950 . S
C502 C501 1.349 1_554 S
C502 C514 1.349 1_455 S
C503 C501 1.327 . S
C503 C519 1.429 1_556 S
C503 H525 0.950 . S
C504 H500 0.949 . S
C504 C512 1.574 . S
C504 C520 1.368 1_655 S
H505 C513 0.950 . S
H506 C511 0.950 . S
H507 C512 0.949 . S
H508 C514 0.950 . S
H509 C515 0.950 . S
H510 C516 0.949 . S
C511 H506 0.950 . S
C511 C513 1.327 . S
C511 C517 1.429 1_456 S
C512 C504 1.574 . S
C512 H507 0.949 . S
C512 C518 1.368 . S
C513 C497 1.349 1_456 S
C513 H505 0.950 . S
C513 C511 1.327 . S
C514 C502 1.349 1_655 S
C514 H508 0.950 . S
C514 C515 1.327 . S
C515 H509 0.950 . S
C515 C514 1.327 . S
C515 C519 1.429 1_655 S
C516 C499 1.574 . S
C516 H510 0.949 . S
C516 C520 1.368 1_556 S
C517 C498 1.429 . S
C517 C511 1.429 1_654 S
C517 C518 1.523 . S
C518 C499 1.368 1_654 S
C518 C512 1.368 . S
C518 C517 1.523 . S
C519 C503 1.429 1_554 S
C519 C515 1.429 1_455 S
C519 C520 1.523 . S
C520 C504 1.368 1_455 S
C520 C516 1.368 1_554 S
C520 C519 1.523 . S
H521 C496 0.950 . S
H522 C498 0.950 . S
H523 C499 0.949 . S
H524 C501 0.950 . S
H525 C503 0.950 . S
C526 C527 1.349 . S
C526 C528 1.327 . S
C526 H551 0.950 . S
C527 C526 1.349 . S
C527 C543 1.349 1_655 S
C528 C526 1.327 . S
C528 C547 1.429 . S
C528 H552 0.950 . S
C529 C546 1.574 . S
C529 C548 1.368 1_455 S
C529 H553 0.949 . S
H530 C534 0.949 . S
C531 C532 1.349 . S
C531 C533 1.327 . S
C531 H554 0.950 . S
C532 C531 1.349 . S
C532 C544 1.349 1_455 S
C533 C531 1.327 . S
C533 C549 1.429 . S
C533 H555 0.950 . S
C534 H530 0.949 . S
C534 C542 1.574 . S
C534 C550 1.368 1_655 S
H535 C543 0.950 . S
H536 C541 0.950 . S
H537 C542 0.949 . S
H538 C544 0.950 . S
H539 C545 0.950 . S
H540 C546 0.949 . S
C541 H536 0.950 . S
C541 C543 1.327 . S
C541 C547 1.429 1_455 S
C542 C534 1.574 . S
C542 H537 0.949 . S
C542 C548 1.368 . S
C543 C527 1.349 1_455 S
C543 H535 0.950 . S
C543 C541 1.327 . S
C544 C532 1.349 1_655 S
C544 H538 0.950 . S
C544 C545 1.327 . S
C545 H539 0.950 . S
C545 C544 1.327 . S
C545 C549 1.429 1_655 S
C546 C529 1.574 . S
C546 H540 0.949 . S
C546 C550 1.368 . S
C547 C528 1.429 . S
C547 C541 1.429 1_655 S
C547 C548 1.523 . S
C548 C529 1.368 1_655 S
C548 C542 1.368 . S
C548 C547 1.523 . S
C549 C533 1.429 . S
C549 C545 1.429 1_455 S
C549 C550 1.523 . S
C550 C534 1.368 1_455 S
C550 C546 1.368 . S
C550 C549 1.523 . S
H551 C526 0.950 . S
H552 C528 0.950 . S
H553 C529 0.949 . S
H554 C531 0.950 . S
H555 C533 0.950 . S
C556 C557 1.349 . S
C556 C558 1.327 . S
C556 H581 0.950 . S
C557 C556 1.349 . S
C557 C573 1.349 1_554 S
C558 C556 1.327 . S
C558 C577 1.429 . S
C558 H582 0.950 . S
C559 C576 1.574 1_565 S
C559 C578 1.368 1_556 S
C559 H583 0.949 . S
H560 C564 0.949 . S
C561 C562 1.349 1_556 S
C561 C563 1.327 . S
C561 H584 0.950 . S
C562 C561 1.349 1_554 S
C562 C574 1.349 . S
C563 C561 1.327 . S
C563 C579 1.429 1_556 S
C563 H585 0.950 . S
C564 H560 0.949 . S
C564 C572 1.574 1_545 S
C564 C580 1.368 . S
H565 C573 0.950 . S
H566 C571 0.950 . S
H567 C572 0.949 . S
H568 C574 0.950 . S
H569 C575 0.950 . S
H570 C576 0.949 . S
C571 H566 0.950 . S
C571 C573 1.327 . S
C571 C577 1.429 1_556 S
C572 C564 1.574 1_565 S
C572 H567 0.949 . S
C572 C578 1.368 . S
C573 C557 1.349 1_556 S
C573 H565 0.950 . S
C573 C571 1.327 . S
C574 C562 1.349 . S
C574 H568 0.950 . S
C574 C575 1.327 . S
C575 H569 0.950 . S
C575 C574 1.327 . S
C575 C579 1.429 . S
C576 C559 1.574 1_545 S
C576 H570 0.949 . S
C576 C580 1.368 1_556 S
C577 C558 1.429 . S
C577 C571 1.429 1_554 S
C577 C578 1.523 . S
C578 C559 1.368 1_554 S
C578 C572 1.368 . S
C578 C577 1.523 . S
C579 C563 1.429 1_554 S
C579 C575 1.429 . S
C579 C580 1.523 . S
C580 C564 1.368 . S
C580 C576 1.368 1_554 S
C580 C579 1.523 . S
H581 C556 0.950 . S
H582 C558 0.950 . S
H583 C559 0.949 . S
H584 C561 0.950 . S
H585 C563 0.950 . S
C586 C587 1.349 . S
C586 C588 1.327 . S
C586 H611 0.950 . S
C587 C586 1.349 . S
C587 C603 1.349 . S
C588 C586 1.327 . S
C588 C607 1.429 . S
C588 H612 0.950 . S
C589 C606 1.574 1_545 S
C589 C608 1.368 . S
C589 H613 0.949 . S
H590 C594 0.949 . S
C591 C592 1.349 . S
C591 C593 1.327 . S
C591 H614 0.950 . S
C592 C591 1.349 . S
C592 C604 1.349 . S
C593 C591 1.327 . S
C593 C609 1.429 . S
C593 H615 0.950 . S
C594 H590 0.949 . S
C594 C602 1.574 1_565 S
C594 C610 1.368 . S
H595 C603 0.950 . S
H596 C601 0.950 . S
H597 C602 0.949 . S
H598 C604 0.950 . S
H599 C605 0.950 . S
H600 C606 0.949 . S
C601 H596 0.950 . S
C601 C603 1.327 . S
C601 C607 1.429 . S
C602 C594 1.574 1_545 S
C602 H597 0.949 . S
C602 C608 1.368 . S
C603 C587 1.349 . S
C603 H595 0.950 . S
C603 C601 1.327 . S
C604 C592 1.349 . S
C604 H598 0.950 . S
C604 C605 1.327 . S
C605 H599 0.950 . S
C605 C604 1.327 . S
C605 C609 1.429 . S
C606 C589 1.574 1_565 S
C606 H600 0.949 . S
C606 C610 1.368 . S
C607 C588 1.429 . S
C607 C601 1.429 . S
C607 C608 1.523 . S
C608 C589 1.368 . S
C608 C602 1.368 . S
C608 C607 1.523 . S
C609 C593 1.429 . S
C609 C605 1.429 . S
C609 C610 1.523 . S
C610 C594 1.368 . S
C610 C606 1.368 . S
C610 C609 1.523 . S
H611 C586 0.950 . S
H612 C588 0.950 . S
H613 C589 0.949 . S
H614 C591 0.950 . S
H615 C593 0.950 . S
C616 C617 1.349 1_554 S
C616 C618 1.327 . S
C616 H641 0.950 . S
C617 C616 1.349 1_556 S
C617 C633 1.349 . S
C618 C616 1.327 . S
C618 C637 1.429 1_554 S
C618 H642 0.950 . S
C619 C636 1.574 . S
C619 C638 1.368 . S
C619 H643 0.949 . S
H620 C624 0.949 . S
C621 C622 1.349 . S
C621 C623 1.327 . S
C621 H644 0.950 . S
C622 C621 1.349 . S
C622 C634 1.349 1_556 S
C623 C621 1.327 . S
C623 C639 1.429 . S
C623 H645 0.950 . S
C624 H620 0.949 . S
C624 C632 1.574 . S
C624 C640 1.368 1_554 S
H625 C633 0.950 . S
H626 C631 0.950 . S
H627 C632 0.949 . S
H628 C634 0.950 . S
H629 C635 0.950 . S
H630 C636 0.949 . S
C631 H626 0.950 . S
C631 C633 1.327 . S
C631 C637 1.429 . S
C632 C624 1.574 . S
C632 H627 0.949 . S
C632 C638 1.368 1_554 S
C633 C617 1.349 . S
C633 H625 0.950 . S
C633 C631 1.327 . S
C634 C622 1.349 1_554 S
C634 H628 0.950 . S
C634 C635 1.327 . S
C635 H629 0.950 . S
C635 C634 1.327 . S
C635 C639 1.429 1_554 S
C636 C619 1.574 . S
C636 H630 0.949 . S
C636 C640 1.368 . S
C637 C618 1.429 1_556 S
C637 C631 1.429 . S
C637 C638 1.523 . S
C638 C619 1.368 . S
C638 C632 1.368 1_556 S
C638 C637 1.523 . S
C639 C623 1.429 . S
C639 C635 1.429 1_556 S
C639 C640 1.523 . S
C640 C624 1.368 1_556 S
C640 C636 1.368 . S
C640 C639 1.523 . S
H641 C616 0.950 . S
H642 C618 0.950 . S
H643 C619 0.949 . S
H644 C621 0.950 . S
H645 C623 0.950 . S
C646 C647 1.349 1_554 S
C646 C648 1.327 . S
C646 H671 0.950 . S
C647 C646 1.349 1_556 S
C647 C663 1.349 . S
C648 C646 1.327 . S
C648 C667 1.429 1_554 S
C648 H672 0.950 . S
C649 C666 1.574 . S
C649 C668 1.368 . S
C649 H673 0.949 . S
H650 C654 0.949 . S
C651 C652 1.349 . S
C651 C653 1.327 . S
C651 H674 0.950 . S
C652 C651 1.349 . S
C652 C664 1.349 1_556 S
C653 C651 1.327 . S
C653 C669 1.429 . S
C653 H675 0.950 . S
C654 H650 0.949 . S
C654 C662 1.574 . S
C654 C670 1.368 1_554 S
H655 C663 0.950 . S
H656 C661 0.950 . S
H657 C662 0.949 . S
H658 C664 0.950 . S
H659 C665 0.950 . S
H660 C666 0.949 . S
C661 H656 0.950 . S
C661 C663 1.327 . S
C661 C667 1.429 . S
C662 C654 1.574 . S
C662 H657 0.949 . S
C662 C668 1.368 1_554 S
C663 C647 1.349 . S
C663 H655 0.950 . S
C663 C661 1.327 . S
C664 C652 1.349 1_554 S
C664 H658 0.950 . S
C664 C665 1.327 . S
C665 H659 0.950 . S
C665 C664 1.327 . S
C665 C669 1.429 1_554 S
C666 C649 1.574 . S
C666 H660 0.949 . S
C666 C670 1.368 . S
C667 C648 1.429 1_556 S
C667 C661 1.429 . S
C667 C668 1.523 . S
C668 C649 1.368 . S
C668 C662 1.368 1_556 S
C668 C667 1.523 . S
C669 C653 1.429 . S
C669 C665 1.429 1_556 S
C669 C670 1.523 . S
C670 C654 1.368 1_556 S
C670 C666 1.368 . S
C670 C669 1.523 . S
H671 C646 0.950 . S
H672 C648 0.950 . S
H673 C649 0.949 . S
H674 C651 0.950 . S
H675 C653 0.950 . S
C676 C677 1.349 . S
C676 C678 1.327 . S
C676 H701 0.950 . S
C677 C676 1.349 . S
C677 C693 1.349 . S
C678 C676 1.327 . S
C678 C697 1.429 . S
C678 H702 0.950 . S
C679 C696 1.574 . S
C679 C698 1.368 . S
C679 H703 0.949 . S
H680 C684 0.949 . S
C681 C682 1.349 . S
C681 C683 1.327 . S
C681 H704 0.950 . S
C682 C681 1.349 . S
C682 C694 1.349 . S
C683 C681 1.327 . S
C683 C699 1.429 . S
C683 H705 0.950 . S
C684 H680 0.949 . S
C684 C692 1.574 . S
C684 C700 1.368 . S
H685 C693 0.950 . S
H686 C691 0.950 . S
H687 C692 0.949 . S
H688 C694 0.950 . S
H689 C695 0.950 . S
H690 C696 0.949 . S
C691 H686 0.950 . S
C691 C693 1.327 . S
C691 C697 1.429 . S
C692 C684 1.574 . S
C692 H687 0.949 . S
C692 C698 1.368 . S
C693 C677 1.349 . S
C693 H685 0.950 . S
C693 C691 1.327 . S
C694 C682 1.349 . S
C694 H688 0.950 . S
C694 C695 1.327 . S
C695 H689 0.950 . S
C695 C694 1.327 . S
C695 C699 1.429 . S
C696 C679 1.574 . S
C696 H690 0.949 . S
C696 C700 1.368 . S
C697 C678 1.429 . S
C697 C691 1.429 . S
C697 C698 1.523 . S
C698 C679 1.368 . S
C698 C692 1.368 . S
C698 C697 1.523 . S
C699 C683 1.429 . S
C699 C695 1.429 . S
C699 C700 1.523 . S
C700 C684 1.368 . S
C700 C696 1.368 . S
C700 C699 1.523 . S
H701 C676 0.950 . S
H702 C678 0.950 . S
H703 C679 0.949 . S
H704 C681 0.950 . S
H705 C683 0.950 . S
C706 C707 1.349 . S
C706 C708 1.327 . S
C706 H731 0.950 . S
C707 C706 1.349 . S
C707 C723 1.349 . S
C708 C706 1.327 . S
C708 C727 1.429 . S
C708 H732 0.950 . S
C709 C726 1.574 . S
C709 C728 1.368 . S
C709 H733 0.949 . S
H710 C714 0.949 . S
C711 C712 1.349 . S
C711 C713 1.327 . S
C711 H734 0.950 . S
C712 C711 1.349 . S
C712 C724 1.349 . S
C713 C711 1.327 . S
C713 C729 1.429 . S
C713 H735 0.950 . S
C714 H710 0.949 . S
C714 C722 1.574 . S
C714 C730 1.368 . S
H715 C723 0.950 . S
H716 C721 0.950 . S
H717 C722 0.949 . S
H718 C724 0.950 . S
H719 C725 0.950 . S
H720 C726 0.949 . S
C721 H716 0.950 . S
C721 C723 1.327 . S
C721 C727 1.429 . S
C722 C714 1.574 . S
C722 H717 0.949 . S
C722 C728 1.368 . S
C723 C707 1.349 . S
C723 H715 0.950 . S
C723 C721 1.327 . S
C724 C712 1.349 . S
C724 H718 0.950 . S
C724 C725 1.327 . S
C725 H719 0.950 . S
C725 C724 1.327 . S
C725 C729 1.429 . S
C726 C709 1.574 . S
C726 H720 0.949 . S
C726 C730 1.368 . S
C727 C708 1.429 . S
C727 C721 1.429 . S
C727 C728 1.523 . S
C728 C709 1.368 . S
C728 C722 1.368 . S
C728 C727 1.523 . S
C729 C713 1.429 . S
C729 C725 1.429 . S
C729 C730 1.523 . S
C730 C714 1.368 . S
C730 C726 1.368 . S
C730 C729 1.523 . S
H731 C706 0.950 . S
H732 C708 0.950 . S
H733 C709 0.949 . S
H734 C711 0.950 . S
H735 C713 0.950 . S
C736 C737 1.349 . S
C736 C738 1.327 . S
C736 H761 0.950 . S
C737 C736 1.349 . S
C737 C753 1.349 1_455 S
C738 C736 1.327 . S
C738 C757 1.429 . S
C738 H762 0.950 . S
C739 C756 1.574 . S
C739 C758 1.368 1_655 S
C739 H763 0.949 . S
H740 C744 0.949 . S
C741 C742 1.349 . S
C741 C743 1.327 . S
C741 H764 0.950 . S
C742 C741 1.349 . S
C742 C754 1.349 1_655 S
C743 C741 1.327 . S
C743 C759 1.429 . S
C743 H765 0.950 . S
C744 H740 0.949 . S
C744 C752 1.574 . S
C744 C760 1.368 1_455 S
H745 C753 0.950 . S
H746 C751 0.950 . S
H747 C752 0.949 . S
H748 C754 0.950 . S
H749 C755 0.950 . S
H750 C756 0.949 . S
C751 H746 0.950 . S
C751 C753 1.327 . S
C751 C757 1.429 1_655 S
C752 C744 1.574 . S
C752 H747 0.949 . S
C752 C758 1.368 . S
C753 C737 1.349 1_655 S
C753 H745 0.950 . S
C753 C751 1.327 . S
C754 C742 1.349 1_455 S
C754 H748 0.950 . S
C754 C755 1.327 . S
C755 H749 0.950 . S
C755 C754 1.327 . S
C755 C759 1.429 1_455 S
C756 C739 1.574 . S
C756 H750 0.949 . S
C756 C760 1.368 . S
C757 C738 1.429 . S
C757 C751 1.429 1_455 S
C757 C758 1.523 . S
C758 C739 1.368 1_455 S
C758 C752 1.368 . S
C758 C757 1.523 . S
C759 C743 1.429 . S
C759 C755 1.429 1_655 S
C759 C760 1.523 . S
C760 C744 1.368 1_655 S
C760 C756 1.368 . S
C760 C759 1.523 . S
H761 C736 0.950 . S
H762 C738 0.950 . S
H763 C739 0.949 . S
H764 C741 0.950 . S
H765 C743 0.950 . S
C766 C767 1.349 . S
C766 C768 1.327 . S
C766 H791 0.950 . S
C767 C766 1.349 . S
C767 C783 1.349 1_655 S
C768 C766 1.327 . S
C768 C787 1.429 . S
C768 H792 0.950 . S
C769 C786 1.574 . S
C769 C788 1.368 1_455 S
C769 H793 0.949 . S
H770 C774 0.949 . S
C771 C772 1.349 . S
C771 C773 1.327 . S
C771 H794 0.950 . S
C772 C771 1.349 . S
C772 C784 1.349 1_455 S
C773 C771 1.327 . S
C773 C789 1.429 . S
C773 H795 0.950 . S
C774 H770 0.949 . S
C774 C782 1.574 . S
C774 C790 1.368 1_655 S
H775 C783 0.950 . S
H776 C781 0.950 . S
H777 C782 0.949 . S
H778 C784 0.950 . S
H779 C785 0.950 . S
H780 C786 0.949 . S
C781 H776 0.950 . S
C781 C783 1.327 . S
C781 C787 1.429 1_455 S
C782 C774 1.574 . S
C782 H777 0.949 . S
C782 C788 1.368 . S
C783 C767 1.349 1_455 S
C783 H775 0.950 . S
C783 C781 1.327 . S
C784 C772 1.349 1_655 S
C784 H778 0.950 . S
C784 C785 1.327 . S
C785 H779 0.950 . S
C785 C784 1.327 . S
C785 C789 1.429 1_655 S
C786 C769 1.574 . S
C786 H780 0.949 . S
C786 C790 1.368 . S
C787 C768 1.429 . S
C787 C781 1.429 1_655 S
C787 C788 1.523 . S
C788 C769 1.368 1_655 S
C788 C782 1.368 . S
C788 C787 1.523 . S
C789 C773 1.429 . S
C789 C785 1.429 1_455 S
C789 C790 1.523 . S
C790 C774 1.368 1_455 S
C790 C786 1.368 . S
C790 C789 1.523 . S
H791 C766 0.950 . S
H792 C768 0.950 . S
H793 C769 0.949 . S
H794 C771 0.950 . S
H795 C773 0.950 . S
C796 C797 1.349 . S
C796 C798 1.327 . S
C796 H821 0.950 . S
C797 C796 1.349 . S
C797 C813 1.349 . S
C798 C796 1.327 . S
C798 C817 1.429 . S
C798 H822 0.950 1_655 S
C799 C816 1.574 . S
C799 C818 1.368 . S
C799 H823 0.949 . S
H800 C804 0.949 . S
C801 C802 1.349 . S
C801 C803 1.327 . S
C801 H824 0.950 . S
C802 C801 1.349 . S
C802 C814 1.349 . S
C803 C801 1.327 . S
C803 C819 1.429 . S
C803 H825 0.950 1_455 S
C804 H800 0.949 . S
C804 C812 1.574 . S
C804 C820 1.368 . S
H805 C813 0.950 . S
H806 C811 0.950 . S
H807 C812 0.949 . S
H808 C814 0.950 . S
H809 C815 0.950 . S
H810 C816 0.949 . S
C811 H806 0.950 . S
C811 C813 1.327 . S
C811 C817 1.429 . S
C812 C804 1.574 . S
C812 H807 0.949 . S
C812 C818 1.368 1_455 S
C813 C797 1.349 . S
C813 H805 0.950 . S
C813 C811 1.327 . S
C814 C802 1.349 . S
C814 H808 0.950 . S
C814 C815 1.327 . S
C815 H809 0.950 . S
C815 C814 1.327 . S
C815 C819 1.429 . S
C816 C799 1.574 . S
C816 H810 0.949 . S
C816 C820 1.368 1_655 S
C817 C798 1.429 . S
C817 C811 1.429 . S
C817 C818 1.523 . S
C818 C799 1.368 . S
C818 C812 1.368 1_655 S
C818 C817 1.523 . S
C819 C803 1.429 . S
C819 C815 1.429 . S
C819 C820 1.523 . S
C820 C804 1.368 . S
C820 C816 1.368 1_455 S
C820 C819 1.523 . S
H821 C796 0.950 . S
H822 C798 0.950 1_455 S
H823 C799 0.949 . S
H824 C801 0.950 . S
H825 C803 0.950 1_655 S
C826 C827 1.349 . S
C826 C828 1.327 . S
C826 H851 0.950 . S
C827 C826 1.349 . S
C827 C843 1.349 . S
C828 C826 1.327 . S
C828 C847 1.429 . S
C828 H852 0.950 1_655 S
C829 C846 1.574 . S
C829 C848 1.368 . S
C829 H853 0.949 . S
H830 C834 0.949 . S
C831 C832 1.349 . S
C831 C833 1.327 . S
C831 H854 0.950 . S
C832 C831 1.349 . S
C832 C844 1.349 . S
C833 C831 1.327 . S
C833 C849 1.429 . S
C833 H855 0.950 1_455 S
C834 H830 0.949 . S
C834 C842 1.574 . S
C834 C850 1.368 . S
H835 C843 0.950 . S
H836 C841 0.950 . S
H837 C842 0.949 . S
H838 C844 0.950 . S
H839 C845 0.950 . S
H840 C846 0.949 . S
C841 H836 0.950 . S
C841 C843 1.327 . S
C841 C847 1.429 . S
C842 C834 1.574 . S
C842 H837 0.949 . S
C842 C848 1.368 1_455 S
C843 C827 1.349 . S
C843 H835 0.950 . S
C843 C841 1.327 . S
C844 C832 1.349 . S
C844 H838 0.950 . S
C844 C845 1.327 . S
C845 H839 0.950 . S
C845 C844 1.327 . S
C845 C849 1.429 . S
C846 C829 1.574 . S
C846 H840 0.949 . S
C846 C850 1.368 1_655 S
C847 C828 1.429 . S
C847 C841 1.429 . S
C847 C848 1.523 . S
C848 C829 1.368 . S
C848 C842 1.368 1_655 S
C848 C847 1.523 . S
C849 C833 1.429 . S
C849 C845 1.429 . S
C849 C850 1.523 . S
C850 C834 1.368 . S
C850 C846 1.368 1_455 S
C850 C849 1.523 . S
H851 C826 0.950 . S
H852 C828 0.950 1_455 S
H853 C829 0.949 . S
H854 C831 0.950 . S
H855 C833 0.950 1_655 S
C856 C857 1.349 . S
C856 C858 1.327 . S
C856 H881 0.950 . S
C857 C856 1.349 . S
C857 C873 1.349 . S
C858 C856 1.327 . S
C858 C877 1.429 . S
C858 H882 0.950 . S
C859 C876 1.574 . S
C859 C878 1.368 . S
C859 H883 0.949 . S
H860 C864 0.949 . S
C861 C862 1.349 . S
C861 C863 1.327 . S
C861 H884 0.950 . S
C862 C861 1.349 . S
C862 C874 1.349 . S
C863 C861 1.327 . S
C863 C879 1.429 . S
C863 H885 0.950 . S
C864 H860 0.949 . S
C864 C872 1.574 . S
C864 C880 1.368 . S
H865 C873 0.950 . S
H866 C871 0.950 . S
H867 C872 0.949 . S
H868 C874 0.950 . S
H869 C875 0.950 . S
H870 C876 0.949 . S
C871 H866 0.950 . S
C871 C873 1.327 . S
C871 C877 1.429 . S
C872 C864 1.574 . S
C872 H867 0.949 . S
C872 C878 1.368 . S
C873 C857 1.349 . S
C873 H865 0.950 . S
C873 C871 1.327 . S
C874 C862 1.349 . S
C874 H868 0.950 . S
C874 C875 1.327 . S
C875 H869 0.950 . S
C875 C874 1.327 . S
C875 C879 1.429 . S
C876 C859 1.574 . S
C876 H870 0.949 . S
C876 C880 1.368 . S
C877 C858 1.429 . S
C877 C871 1.429 . S
C877 C878 1.523 . S
C878 C859 1.368 . S
C878 C872 1.368 . S
C878 C877 1.523 . S
C879 C863 1.429 . S
C879 C875 1.429 . S
C879 C880 1.523 . S
C880 C864 1.368 . S
C880 C876 1.368 . S
C880 C879 1.523 . S
H881 C856 0.950 . S
H882 C858 0.950 . S
H883 C859 0.949 . S
H884 C861 0.950 . S
H885 C863 0.950 . S
C886 C887 1.349 . S
C886 C888 1.327 . S
C886 H911 0.950 . S
C887 C886 1.349 . S
C887 C903 1.349 . S
C888 C886 1.327 . S
C888 C907 1.429 . S
C888 H912 0.950 . S
C889 C906 1.574 . S
C889 C908 1.368 . S
C889 H913 0.949 . S
H890 C894 0.949 . S
C891 C892 1.349 . S
C891 C893 1.327 . S
C891 H914 0.950 . S
C892 C891 1.349 . S
C892 C904 1.349 . S
C893 C891 1.327 . S
C893 C909 1.429 . S
C893 H915 0.950 . S
C894 H890 0.949 . S
C894 C902 1.574 . S
C894 C910 1.368 . S
H895 C903 0.950 . S
H896 C901 0.950 . S
H897 C902 0.949 . S
H898 C904 0.950 . S
H899 C905 0.950 . S
H900 C906 0.949 . S
C901 H896 0.950 . S
C901 C903 1.327 . S
C901 C907 1.429 . S
C902 C894 1.574 . S
C902 H897 0.949 . S
C902 C908 1.368 . S
C903 C887 1.349 . S
C903 H895 0.950 . S
C903 C901 1.327 . S
C904 C892 1.349 . S
C904 H898 0.950 . S
C904 C905 1.327 . S
C905 H899 0.950 . S
C905 C904 1.327 . S
C905 C909 1.429 . S
C906 C889 1.574 . S
C906 H900 0.949 . S
C906 C910 1.368 . S
C907 C888 1.429 . S
C907 C901 1.429 . S
C907 C908 1.523 . S
C908 C889 1.368 . S
C908 C902 1.368 . S
C908 C907 1.523 . S
C909 C893 1.429 . S
C909 C905 1.429 . S
C909 C910 1.523 . S
C910 C894 1.368 . S
C910 C906 1.368 . S
C910 C909 1.523 . S
H911 C886 0.950 . S
H912 C888 0.950 . S
H913 C889 0.949 . S
H914 C891 0.950 . S
H915 C893 0.950 . S
C916 C917 1.349 . S
C916 C918 1.327 . S
C916 H941 0.950 . S
C917 C916 1.349 . S
C917 C933 1.349 . S
C918 C916 1.327 . S
C918 C937 1.429 . S
C918 H942 0.950 . S
C919 C936 1.574 . S
C919 C938 1.368 . S
C919 H943 0.949 . S
H920 C924 0.949 . S
C921 C922 1.349 . S
C921 C923 1.327 . S
C921 H944 0.950 . S
C922 C921 1.349 . S
C922 C934 1.349 . S
C923 C921 1.327 . S
C923 C939 1.429 . S
C923 H945 0.950 . S
C924 H920 0.949 . S
C924 C932 1.574 . S
C924 C940 1.368 . S
H925 C933 0.950 . S
H926 C931 0.950 . S
H927 C932 0.949 . S
H928 C934 0.950 . S
H929 C935 0.950 . S
H930 C936 0.949 . S
C931 H926 0.950 . S
C931 C933 1.327 . S
C931 C937 1.429 . S
C932 C924 1.574 . S
C932 H927 0.949 . S
C932 C938 1.368 . S
C933 C917 1.349 . S
C933 H925 0.950 . S
C933 C931 1.327 . S
C934 C922 1.349 . S
C934 H928 0.950 . S
C934 C935 1.327 . S
C935 H929 0.950 . S
C935 C934 1.327 . S
C935 C939 1.429 . S
C936 C919 1.574 . S
C936 H930 0.949 . S
C936 C940 1.368 . S
C937 C918 1.429 . S
C937 C931 1.429 . S
C937 C938 1.523 . S
C938 C919 1.368 . S
C938 C932 1.368 . S
C938 C937 1.523 . S
C939 C923 1.429 . S
C939 C935 1.429 . S
C939 C940 1.523 . S
C940 C924 1.368 . S
C940 C936 1.368 . S
C940 C939 1.523 . S
H941 C916 0.950 . S
H942 C918 0.950 . S
H943 C919 0.949 . S
H944 C921 0.950 . S
H945 C923 0.950 . S
C946 C947 1.349 . S
C946 C948 1.327 . S
C946 H971 0.950 . S
C947 C946 1.349 . S
C947 C963 1.349 . S
C948 C946 1.327 . S
C948 C967 1.429 . S
C948 H972 0.950 . S
C949 C966 1.574 . S
C949 C968 1.368 . S
C949 H973 0.949 . S
H950 C954 0.949 . S
C951 C952 1.349 . S
C951 C953 1.327 . S
C951 H974 0.950 . S
C952 C951 1.349 . S
C952 C964 1.349 . S
C953 C951 1.327 . S
C953 C969 1.429 . S
C953 H975 0.950 . S
C954 H950 0.949 . S
C954 C962 1.574 . S
C954 C970 1.368 . S
H955 C963 0.950 . S
H956 C961 0.950 . S
H957 C962 0.949 . S
H958 C964 0.950 . S
H959 C965 0.950 . S
H960 C966 0.949 . S
C961 H956 0.950 . S
C961 C963 1.327 . S
C961 C967 1.429 . S
C962 C954 1.574 . S
C962 H957 0.949 . S
C962 C968 1.368 . S
C963 C947 1.349 . S
C963 H955 0.950 . S
C963 C961 1.327 . S
C964 C952 1.349 . S
C964 H958 0.950 . S
C964 C965 1.327 . S
C965 H959 0.950 . S
C965 C964 1.327 . S
C965 C969 1.429 . S
C966 C949 1.574 . S
C966 H960 0.949 . S
C966 C970 1.368 . S
C967 C948 1.429 . S
C967 C961 1.429 . S
C967 C968 1.523 . S
C968 C949 1.368 . S
C968 C962 1.368 . S
C968 C967 1.523 . S
C969 C953 1.429 . S
C969 C965 1.429 . S
C969 C970 1.523 . S
C970 C954 1.368 . S
C970 C966 1.368 . S
C970 C969 1.523 . S
H971 C946 0.950 . S
H972 C948 0.950 . S
H973 C949 0.949 . S
H974 C951 0.950 . S
H975 C953 0.950 . S
C257 C4 1.239 . S
C262 C6 1.241 . S
C287 C34 1.241 . S
C292 C61 1.239 . S
C317 C66 1.241 . S
C322 C93 1.240 . S
C347 C100 1.240 . S
C352 C102 1.241 . S
C377 C132 1.239 . S
C382 C134 1.241 . S
C407 C189 1.239 . S
C412 C162 1.241 . S
C437 C194 1.241 . S
C442 C221 1.240 . S
C467 C230 1.241 . S
C472 C228 1.240 . S
C497 C36 1.534 . S
C502 C29 1.534 . S
C527 C125 1.534 . S
C532 C68 1.534 . S
C557 C157 1.534 . S
C562 C164 1.534 . S
C587 C196 1.534 . S
C592 C253 1.534 . S
C617 C2 1.603 . S
C622 C166 1.603 . S
C647 C130 1.603 . S
C652 C38 1.603 . S
C677 C70 1.603 . S
C682 C226 1.603 . S
C707 C98 1.603 . S
C712 C198 1.603 . S
C737 N13 1.477 . S
C742 N109 1.477 . S
C767 N50 1.477 . S
C772 N82 1.477 . S
C797 N45 1.551 . S
C802 N77 1.551 . S
C827 N114 1.551 . S
C832 N18 1.551 . S
C857 N141 1.477 . S
C862 N237 1.477 . S
C887 N178 1.477 . S
C892 N210 1.477 . S
C917 N173 1.551 . S
C922 N205 1.551 . S
C947 N242 1.551 . S
C952 N146 1.551 . S
