# Generated by pormake.
# Topology wjg, (4)-cn, num edge types: 1
# Building blocks:
#     Node 0, Type 0, BuildingBlock: UXUYUI_clean_sbu_0, # of connection points: 4
#     Node 1, Type 0, BuildingBlock: UXUYUI_clean_sbu_0, # of connection points: 4
#     Node 2, Type 0, BuildingBlock: UXUYUI_clean_sbu_0, # of connection points: 4
#     Node 3, Type 0, BuildingBlock: UXUYUI_clean_sbu_0, # of connection points: 4
#     Node 4, Type 0, BuildingBlock: UXUYUI_clean_sbu_0, # of connection points: 4
#     Node 5, Type 0, BuildingBlock: UXUYUI_clean_sbu_0, # of connection points: 4
#     Node 6, Type 0, BuildingBlock: UXUYUI_clean_sbu_0, # of connection points: 4
#     Node 7, Type 0, BuildingBlock: UXUYUI_clean_sbu_0, # of connection points: 4
#     Node 8, Type 0, BuildingBlock: UXUYUI_clean_sbu_0, # of connection points: 4
#     Node 9, Type 0, BuildingBlock: UXUYUI_clean_sbu_0, # of connection points: 4
#     Node 10, Type 0, BuildingBlock: UXUYUI_clean_sbu_0, # of connection points: 4
#     Node 11, Type 0, BuildingBlock: UXUYUI_clean_sbu_0, # of connection points: 4
#     Edge 12, Type (0, 0), BuildingBlock: EZIPEK_clean_linker_0, # of connection points: 2
#     Edge 13, Type (0, 0), BuildingBlock: EZIPEK_clean_linker_0, # of connection points: 2
#     Edge 14, Type (0, 0), BuildingBlock: EZIPEK_clean_linker_0, # of connection points: 2
#     Edge 15, Type (0, 0), BuildingBlock: EZIPEK_clean_linker_0, # of connection points: 2
#     Edge 16, Type (0, 0), BuildingBlock: EZIPEK_clean_linker_0, # of connection points: 2
#     Edge 17, Type (0, 0), BuildingBlock: EZIPEK_clean_linker_0, # of connection points: 2
#     Edge 18, Type (0, 0), BuildingBlock: EZIPEK_clean_linker_0, # of connection points: 2
#     Edge 19, Type (0, 0), BuildingBlock: EZIPEK_clean_linker_0, # of connection points: 2
#     Edge 20, Type (0, 0), BuildingBlock: EZIPEK_clean_linker_0, # of connection points: 2
#     Edge 21, Type (0, 0), BuildingBlock: EZIPEK_clean_linker_0, # of connection points: 2
#     Edge 22, Type (0, 0), BuildingBlock: EZIPEK_clean_linker_0, # of connection points: 2
#     Edge 23, Type (0, 0), BuildingBlock: EZIPEK_clean_linker_0, # of connection points: 2
#     Edge 24, Type (0, 0), BuildingBlock: EZIPEK_clean_linker_0, # of connection points: 2
#     Edge 25, Type (0, 0), BuildingBlock: EZIPEK_clean_linker_0, # of connection points: 2
#     Edge 26, Type (0, 0), BuildingBlock: EZIPEK_clean_linker_0, # of connection points: 2
#     Edge 27, Type (0, 0), BuildingBlock: EZIPEK_clean_linker_0, # of connection points: 2
#     Edge 28, Type (0, 0), BuildingBlock: EZIPEK_clean_linker_0, # of connection points: 2
#     Edge 29, Type (0, 0), BuildingBlock: EZIPEK_clean_linker_0, # of connection points: 2
#     Edge 30, Type (0, 0), BuildingBlock: EZIPEK_clean_linker_0, # of connection points: 2
#     Edge 31, Type (0, 0), BuildingBlock: EZIPEK_clean_linker_0, # of connection points: 2
#     Edge 32, Type (0, 0), BuildingBlock: EZIPEK_clean_linker_0, # of connection points: 2
#     Edge 33, Type (0, 0), BuildingBlock: EZIPEK_clean_linker_0, # of connection points: 2
#     Edge 34, Type (0, 0), BuildingBlock: EZIPEK_clean_linker_0, # of connection points: 2
#     Edge 35, Type (0, 0), BuildingBlock: EZIPEK_clean_linker_0, # of connection points: 2
# Relax obj value: 0.406
# Max RMSD: 0.171
# Mean RMSD: 0.170
data_MOF--net-wjg--node1-UXUYUI_clean_sbu_0--edge1-EZIPEK_clean_linker_0
_symmetry_space_group_name_H-M    P1
_symmetry_Int_Tables_number       1
_symmetry_cell_setting            triclinic
loop_
_symmetry_equiv_pos_as_xyz
'x, y, z'
_cell_length_a     42.549372
_cell_length_b     42.511152
_cell_length_c     43.346888
_cell_angle_alpha  90.001414
_cell_angle_beta   90.006192
_cell_angle_gamma 120.03
loop_
_atom_site_label
_atom_site_type_symbol
_atom_site_fract_x
_atom_site_fract_y
_atom_site_fract_z
_atom_type_partial_charge
Li0 Li 0.20081 0.44444 0.30478 0.0
Li1 Li 0.15816 0.3964 0.34114 0.0
Li2 Li 0.1875 0.38113 0.30028 0.0
Li3 Li 0.1411 0.39477 0.28754 0.0
C4 C 0.2424 0.41773 0.34062 0.0
N5 N 0.30782 0.42149 0.35334 0.0
C6 C 0.24514 0.39788 0.3651 0.0
C7 C 0.27279 0.43905 0.32226 0.0
C8 C 0.27845 0.40018 0.37121 0.0
C9 C 0.30567 0.44072 0.32916 0.0
C10 C 0.13073 0.44516 0.33218 0.0
C11 C 0.07203 0.43791 0.34387 0.0
N12 N 0.08845 0.46948 0.36017 0.0
C13 C 0.14704 0.47781 0.34863 0.0
C14 C 0.09294 0.42527 0.32941 0.0
C15 C 0.1252 0.48953 0.3628 0.0
C16 C 0.25236 0.51517 0.28081 0.0
N17 N 0.237 0.49379 0.30597 0.0
C18 C 0.27774 0.54087 0.3398 0.0
C19 C 0.24867 0.50602 0.33504 0.0
C20 C 0.2947 0.56324 0.31435 0.0
C21 C 0.28153 0.55055 0.28454 0.0
H22 H 0.24262 0.50447 0.25796 0.0
H23 H 0.2359 0.48818 0.35451 0.0
C24 C 0.14576 0.35704 0.39485 0.0
N25 N 0.15043 0.38908 0.3839 0.0
C26 C 0.15514 0.35459 0.42522 0.0
C27 C 0.17099 0.4172 0.43307 0.0
C28 C 0.16173 0.4186 0.40243 0.0
C29 C 0.16937 0.38544 0.44408 0.0
H30 H 0.13848 0.33463 0.37918 0.0
H31 H 0.16716 0.44421 0.39272 0.0
C32 C 0.1846 0.39781 0.23829 0.0
N33 N 0.17229 0.3648 0.1812 0.0
C34 C 0.16495 0.35994 0.23593 0.0
C35 C 0.19799 0.41889 0.21163 0.0
C36 C 0.15902 0.34377 0.20685 0.0
C37 C 0.19149 0.40169 0.18297 0.0
C38 C 0.10176 0.3267 0.31865 0.0
C39 C 0.08977 0.29211 0.30641 0.0
C40 C 0.07831 0.33296 0.33679 0.0
C41 C 0.05409 0.26457 0.31181 0.0
C42 C 0.04284 0.30471 0.34171 0.0
N43 N 0.03154 0.2714 0.32917 0.0
C44 C 0.19952 0.32801 0.32062 0.0
C45 C 0.23433 0.35559 0.27562 0.0
C46 C 0.21775 0.30897 0.32554 0.0
N47 N 0.20878 0.3515 0.29659 0.0
C48 C 0.25255 0.33604 0.27913 0.0
C49 C 0.24509 0.31341 0.30501 0.0
H50 H 0.17942 0.32582 0.33708 0.0
H51 H 0.24154 0.37498 0.25703 0.0
C52 C 0.09937 0.41294 0.24908 0.0
N53 N 0.10313 0.38473 0.25927 0.0
C54 C 0.07371 0.40729 0.22642 0.0
C55 C 0.05627 0.34369 0.22537 0.0
C56 C 0.0823 0.35058 0.24789 0.0
C57 C 0.05208 0.37231 0.21434 0.0
H58 H 0.1168 0.43993 0.25817 0.0
H59 H 0.08658 0.32889 0.25554 0.0
O60 O 0.21001 0.41597 0.33449 0.0
O61 O 0.15181 0.43363 0.31779 0.0
O62 O 0.19005 0.41439 0.2664 0.0
O63 O 0.13669 0.35381 0.31364 0.0
H64 H 0.22164 0.38057 0.37903 0.0
H65 H 0.27102 0.45402 0.30281 0.0
H66 H 0.28095 0.38498 0.39014 0.0
H67 H 0.32945 0.45723 0.31523 0.0
H68 H 0.04275 0.42269 0.34202 0.0
H69 H 0.17627 0.49387 0.35059 0.0
H70 H 0.07982 0.40048 0.31604 0.0
H71 H 0.13746 0.51461 0.37581 0.0
H72 H 0.2875 0.55001 0.36301 0.0
H73 H 0.29441 0.56736 0.26451 0.0
H74 H 0.15409 0.3299 0.43312 0.0
H75 H 0.18242 0.44153 0.44712 0.0
H76 H 0.15413 0.34317 0.25625 0.0
H77 H 0.2131 0.44825 0.21309 0.0
H78 H 0.14377 0.3145 0.20469 0.0
H79 H 0.20164 0.41766 0.16213 0.0
H80 H 0.10781 0.28673 0.29265 0.0
H81 H 0.08753 0.35915 0.34734 0.0
H82 H 0.04435 0.23775 0.30225 0.0
H83 H 0.02436 0.30922 0.35563 0.0
H84 H 0.21136 0.29176 0.3457 0.0
H85 H 0.27347 0.33987 0.26282 0.0
H86 H 0.07113 0.42989 0.21805 0.0
H87 H 0.04014 0.3165 0.21611 0.0
Li88 Li 0.75275 0.21325 0.62936 0.0
Li89 Li 0.759 0.16952 0.6637 0.0
Li90 Li 0.80358 0.20104 0.62368 0.0
Li91 Li 0.74419 0.15322 0.61105 0.0
C92 C 0.82106 0.25176 0.66882 0.0
N93 N 0.88279 0.31247 0.6901 0.0
C94 C 0.83976 0.24913 0.69427 0.0
C95 C 0.8339 0.28518 0.654 0.0
C96 C 0.87092 0.28013 0.70469 0.0
C97 C 0.86514 0.31558 0.66515 0.0
C98 C 0.69042 0.148 0.66534 0.0
C99 C 0.6556 0.0987 0.70059 0.0
N100 N 0.64289 0.11889 0.71435 0.0
C101 C 0.6768 0.16817 0.67966 0.0
C102 C 0.67955 0.11289 0.6757 0.0
C103 C 0.65287 0.153 0.70447 0.0
C104 C 0.72354 0.25702 0.60645 0.0
N105 N 0.73859 0.24889 0.63064 0.0
C106 C 0.73784 0.29488 0.66165 0.0
C107 C 0.7451 0.26662 0.65806 0.0
C108 C 0.72341 0.3046 0.63688 0.0
C109 C 0.71564 0.28515 0.6091 0.0
H110 H 0.71841 0.2422 0.58501 0.0
H111 H 0.7564 0.25906 0.67707 0.0
C112 C 0.77335 0.13909 0.71577 0.0
N113 N 0.75864 0.15927 0.70585 0.0
C114 C 0.78511 0.14211 0.7463 0.0
C115 C 0.76465 0.18514 0.75573 0.0
C116 C 0.7532 0.18121 0.7252 0.0
C117 C 0.78207 0.16657 0.76607 0.0
H118 H 0.77862 0.12303 0.69946 0.0
H119 H 0.74301 0.19813 0.71622 0.0
C120 C 0.7948 0.22426 0.5683 0.0
N121 N 0.84148 0.26822 0.52264 0.0
C122 C 0.81109 0.21082 0.54831 0.0
C123 C 0.80231 0.2601 0.56509 0.0
C124 C 0.8346 0.23347 0.52538 0.0
C125 C 0.82597 0.28188 0.54186 0.0
C126 C 0.78176 0.12051 0.62436 0.0
C127 C 0.80838 0.12523 0.60299 0.0
C128 C 0.75545 0.08547 0.63328 0.0
C129 C 0.80788 0.09468 0.59052 0.0
C130 C 0.75579 0.05561 0.62019 0.0
N131 N 0.78177 0.0608 0.59925 0.0
C132 C 0.86814 0.21041 0.64308 0.0
C133 C 0.87805 0.25306 0.60365 0.0
C134 C 0.90517 0.2272 0.64912 0.0
N135 N 0.85522 0.22372 0.62101 0.0
C136 C 0.91558 0.27012 0.60831 0.0
C137 C 0.92928 0.25768 0.63189 0.0
H138 H 0.84939 0.18777 0.65721 0.0
H139 H 0.86739 0.26435 0.58724 0.0
C140 C 0.67973 0.0927 0.58858 0.0
N141 N 0.71614 0.11363 0.58394 0.0
C142 C 0.65887 0.06292 0.56945 0.0
C143 C 0.71338 0.07684 0.54124 0.0
C144 C 0.73302 0.10658 0.56056 0.0
C145 C 0.67597 0.05465 0.54575 0.0
H146 H 0.66692 0.09908 0.60717 0.0
H147 H 0.76181 0.12373 0.55713 0.0
O148 O 0.79018 0.22177 0.6586 0.0
O149 O 0.71434 0.16257 0.64135 0.0
O150 O 0.77101 0.20226 0.59041 0.0
O151 O 0.78152 0.15005 0.63654 0.0
H152 H 0.83036 0.22337 0.70572 0.0
H153 H 0.81988 0.28761 0.63413 0.0
H154 H 0.88568 0.27849 0.72437 0.0
H155 H 0.87536 0.34165 0.65396 0.0
H156 H 0.64713 0.07164 0.70897 0.0
H157 H 0.68469 0.19527 0.67179 0.0
H158 H 0.68971 0.09689 0.66476 0.0
H159 H 0.64224 0.16836 0.71587 0.0
H160 H 0.74397 0.30944 0.68335 0.0
H161 H 0.70449 0.29225 0.58962 0.0
H162 H 0.79856 0.12753 0.75381 0.0
H163 H 0.76209 0.20426 0.77057 0.0
H164 H 0.80598 0.18337 0.55065 0.0
H165 H 0.79014 0.27106 0.5804 0.0
H166 H 0.84747 0.22344 0.50981 0.0
H167 H 0.83204 0.30966 0.53914 0.0
H168 H 0.82891 0.15217 0.59579 0.0
H169 H 0.73485 0.08137 0.64996 0.0
H170 H 0.82815 0.0979 0.57379 0.0
H171 H 0.7354 0.02832 0.62666 0.0
H172 H 0.91486 0.21709 0.6676 0.0
H173 H 0.93359 0.2938 0.59477 0.0
H174 H 0.62992 0.04631 0.57324 0.0
H175 H 0.72718 0.07117 0.52294 0.0
Li176 Li 0.59579 0.74899 0.01223 0.0
Li177 Li 0.54843 0.74571 0.97879 0.0
Li178 Li 0.60009 0.74277 0.95723 0.0
Li179 Li 0.60901 0.80009 0.97731 0.0
C180 C 0.5588 0.67733 -0.00043 0.0
N181 N 0.55325 0.61649 0.02787 0.0
C182 C 0.53063 0.65726 0.02036 0.0
C183 C 0.58379 0.66609 0.9928 0.0
C184 C 0.52839 0.62669 0.03455 0.0
C185 C 0.58062 0.63536 0.00744 0.0
C186 C 0.55749 0.7998 0.01833 0.0
C187 C 0.53386 0.83829 0.0023 0.0
N188 N 0.52371 0.83923 0.03188 0.0
C189 C 0.54666 0.80099 0.04852 0.0
C190 C 0.55085 0.8184 0.99495 0.0
C191 C 0.52967 0.82111 0.05493 0.0
C192 C 0.63882 0.76555 0.06478 0.0
N193 N 0.60456 0.74399 0.05388 0.0
C194 C 0.57917 0.74305 0.10309 0.0
C195 C 0.57505 0.73139 0.07256 0.0
C196 C 0.61387 0.76801 0.11397 0.0
C197 C 0.64417 0.77776 0.09523 0.0
H198 H 0.66158 0.77689 0.04914 0.0
H199 H 0.54813 0.71623 0.06281 0.0
C200 C 0.482 0.73769 0.95595 0.0
N201 N 0.49862 0.73079 0.97962 0.0
C202 C 0.44723 0.73275 0.96002 0.0
C203 C 0.44731 0.71283 0.01234 0.0
C204 C 0.48192 0.71804 0.00725 0.0
C205 C 0.43006 0.72098 0.98875 0.0
H206 H 0.49641 0.7487 0.93455 0.0
H207 H 0.4964 0.71398 0.02589 0.0
C208 C 0.672 0.78118 0.98497 0.0
N209 N 0.74058 0.78931 0.98277 0.0
C210 C 0.70155 0.81392 0.97495 0.0
C211 C 0.67743 0.75279 0.99432 0.0
C212 C 0.73598 0.81743 0.97388 0.0
C213 C 0.71228 0.75738 0.99292 0.0
C214 C 0.59357 0.78859 0.91415 0.0
C215 C 0.63119 0.8055 0.91058 0.0
C216 C 0.57212 0.7879 0.88945 0.0
C217 C 0.6468 0.82151 0.88234 0.0
C218 C 0.58875 0.80426 0.86157 0.0
N219 N 0.62543 0.82056 0.85861 0.0
C220 C 0.58637 0.69103 0.91171 0.0
C221 C 0.64869 0.73572 0.91578 0.0
C222 C 0.59387 0.67401 0.88759 0.0
N223 N 0.61367 0.72122 0.92529 0.0
C224 C 0.65745 0.71939 0.89201 0.0
C225 C 0.62981 0.68827 0.87773 0.0
H226 H 0.55874 0.68035 0.91957 0.0
H227 H 0.66984 0.76022 0.9262 0.0
C228 C 0.64741 0.86214 0.00916 0.0
N229 N 0.63536 0.85133 0.97989 0.0
C230 C 0.66516 0.89877 0.01695 0.0
C231 C 0.6592 0.91288 0.96392 0.0
C232 C 0.64068 0.87568 0.95728 0.0
C233 C 0.67129 0.92457 0.99417 0.0
H234 H 0.64246 0.84201 0.02665 0.0
H235 H 0.63013 0.86637 0.93436 0.0
O236 O 0.56139 0.70735 0.98549 0.0
O237 O 0.57417 0.7802 0.01169 0.0
O238 O 0.63811 0.77732 0.98597 0.0
O239 O 0.57753 0.77202 0.94137 0.0
H240 H 0.51069 0.66518 0.0255 0.0
H241 H 0.60534 0.6808 0.97635 0.0
H242 H 0.50684 0.61104 0.05082 0.0
H243 H 0.59987 0.62646 0.00249 0.0
H244 H 0.52862 0.85287 0.98446 0.0
H245 H 0.55125 0.78645 0.06682 0.0
H246 H 0.55865 0.81744 0.97137 0.0
H247 H 0.5212 0.82232 0.07822 0.0
H248 H 0.55534 0.73557 0.11707 0.0
H249 H 0.67118 0.79742 0.10306 0.0
H250 H 0.43456 0.73959 0.94155 0.0
H251 H 0.43481 0.70415 0.03484 0.0
H252 H 0.69791 0.83635 0.96801 0.0
H253 H 0.65509 0.72768 0.0029 0.0
H254 H 0.75905 0.84253 0.96601 0.0
H255 H 0.71685 0.7356 1e-05 0.0
H256 H 0.64816 0.80638 0.92942 0.0
H257 H 0.54292 0.77476 0.89176 0.0
H258 H 0.6759 0.83468 0.8793 0.0
H259 H 0.57248 0.80392 0.84226 0.0
H260 H 0.57201 0.65009 0.87674 0.0
H261 H 0.68539 0.73115 0.88452 0.0
H262 H 0.674 0.90695 0.0405 0.0
H263 H 0.66345 0.93228 0.94591 0.0
Li264 Li 0.85098 0.6011 0.34775 0.0
Li265 Li 0.80747 0.55028 0.3165 0.0
Li266 Li 0.86059 0.60175 0.29513 0.0
Li267 Li 0.81307 0.61223 0.31105 0.0
C268 C 0.87978 0.56052 0.34579 0.0
N269 N 0.92216 0.55205 0.38957 0.0
C270 C 0.86669 0.52741 0.36119 0.0
C271 C 0.91464 0.58911 0.35227 0.0
C272 C 0.88846 0.52372 0.38336 0.0
C273 C 0.9356 0.58436 0.37458 0.0
C274 C 0.76206 0.56369 0.35358 0.0
C275 C 0.6998 0.53778 0.33712 0.0
N276 N 0.68918 0.53397 0.36713 0.0
C277 C 0.75052 0.55942 0.38424 0.0
C278 C 0.7365 0.55265 0.32979 0.0
C279 C 0.71357 0.54437 0.39063 0.0
C280 C 0.87763 0.64867 0.39677 0.0
N281 N 0.8645 0.61326 0.38902 0.0
C282 C 0.83749 0.59341 0.43848 0.0
C283 C 0.84638 0.58588 0.40956 0.0
C284 C 0.84708 0.62923 0.44571 0.0
C285 C 0.86929 0.65741 0.42551 0.0
H286 H 0.89043 0.66959 0.37942 0.0
H287 H 0.83455 0.55796 0.4021 0.0
C288 C 0.75158 0.48103 0.29537 0.0
N289 N 0.77242 0.50055 0.31968 0.0
C290 C 0.72166 0.44644 0.30021 0.0
C291 C 0.73596 0.45269 0.35472 0.0
C292 C 0.76559 0.48697 0.34884 0.0
C293 C 0.71335 0.4325 0.3303 0.0
H294 H 0.7571 0.49299 0.27259 0.0
H295 H 0.78209 0.50364 0.36776 0.0
C296 C 0.8903 0.67392 0.30671 0.0
N297 N 0.94178 0.7375 0.27887 0.0
C298 C 0.87953 0.69349 0.28782 0.0
C299 C 0.92723 0.68702 0.31189 0.0
C300 C 0.90598 0.72551 0.27386 0.0
C301 C 0.95284 0.7191 0.29745 0.0
C302 C 0.81541 0.57516 0.24809 0.0
C303 C 0.81386 0.59878 0.22652 0.0
C304 C 0.82448 0.54932 0.2385 0.0
C305 C 0.82192 0.59644 0.19565 0.0
C306 C 0.83243 0.54791 0.20743 0.0
N307 N 0.83101 0.57131 0.18683 0.0
C308 C 0.91774 0.59864 0.26485 0.0
C309 C 0.90246 0.64025 0.24265 0.0
C310 C 0.9447 0.60745 0.24269 0.0
N311 N 0.89741 0.61518 0.2645 0.0
C312 C 0.92925 0.65008 0.22028 0.0
C313 C 0.95068 0.63362 0.22028 0.0
H314 H 0.91286 0.57845 0.2822 0.0
H315 H 0.8855 0.65243 0.24237 0.0
C316 C 0.79027 0.6537 0.33892 0.0
N317 N 0.7867 0.6369 0.31142 0.0
C318 C 0.77066 0.67112 0.34492 0.0
C319 C 0.74454 0.65441 0.29376 0.0
C320 C 0.76447 0.63681 0.28885 0.0
C321 C 0.74748 0.67151 0.32222 0.0
H322 H 0.80793 0.65284 0.35645 0.0
H323 H 0.76176 0.62265 0.26743 0.0
O324 O 0.85884 0.56481 0.32414 0.0
O325 O 0.79824 0.57878 0.34697 0.0
O326 O 0.86478 0.6426 0.32066 0.0
O327 O 0.80837 0.57751 0.2785 0.0
H328 H 0.84004 0.50478 0.35605 0.0
H329 H 0.92533 0.61469 0.34023 0.0
H330 H 0.87861 0.49831 0.39558 0.0
H331 H 0.96255 0.60635 0.37996 0.0
H332 H 0.67975 0.52919 0.31894 0.0
H333 H 0.76987 0.56762 0.40293 0.0
H334 H 0.74486 0.5556 0.30591 0.0
H335 H 0.70428 0.54098 0.41427 0.0
H336 H 0.82008 0.57119 0.45367 0.0
H337 H 0.87679 0.68525 0.43059 0.0
H338 H 0.70422 0.43148 0.28104 0.0
H339 H 0.7298 0.44269 0.3782 0.0
H340 H 0.85108 0.68387 0.28365 0.0
H341 H 0.93604 0.67259 0.32685 0.0
H342 H 0.89805 0.74077 0.25898 0.0
H343 H 0.98152 0.7294 0.30106 0.0
H344 H 0.80707 0.61905 0.23364 0.0
H345 H 0.82591 0.53094 0.25499 0.0
H346 H 0.82112 0.61473 0.17873 0.0
H347 H 0.83984 0.5283 0.1997 0.0
H348 H 0.96074 0.59413 0.24301 0.0
H349 H 0.93314 0.67016 0.20304 0.0
H350 H 0.77335 0.68401 0.36709 0.0
H351 H 0.72672 0.6543 0.27587 0.0
Li352 Li 0.23193 0.83779 0.67543 0.0
Li353 Li 0.24088 0.79698 0.63955 0.0
Li354 Li 0.25045 0.85664 0.62263 0.0
Li355 Li 0.19014 0.80872 0.63254 0.0
C356 C 0.30862 0.86827 0.67009 0.0
N357 N 0.37244 0.91296 0.70123 0.0
C358 C 0.3257 0.85328 0.6873 0.0
C359 C 0.32444 0.90602 0.6682 0.0
C360 C 0.35781 0.87631 0.70305 0.0
C361 C 0.35659 0.92814 0.68424 0.0
C362 C 0.17023 0.75344 0.67268 0.0
C363 C 0.13158 0.68972 0.66154 0.0
N364 N 0.10821 0.68769 0.68389 0.0
C365 C 0.14562 0.75082 0.69524 0.0
C366 C 0.16302 0.72275 0.65542 0.0
C367 C 0.11444 0.71733 0.70063 0.0
C368 C 0.20215 0.84876 0.72844 0.0
N369 N 0.22974 0.84413 0.71813 0.0
C370 C 0.23527 0.82219 0.76729 0.0
C371 C 0.24702 0.83208 0.73698 0.0
C372 C 0.20511 0.8241 0.77771 0.0
C373 C 0.18931 0.83887 0.75853 0.0
H374 H 0.18772 0.85655 0.71246 0.0
H375 H 0.26736 0.82665 0.72768 0.0
C376 C 0.26065 0.74516 0.61736 0.0
N377 N 0.25481 0.7615 0.6419 0.0
C378 C 0.26658 0.71598 0.62219 0.0
C379 C 0.26088 0.72183 0.6772 0.0
C380 C 0.25536 0.75087 0.67136 0.0
C381 C 0.26601 0.70382 0.65242 0.0
H382 H 0.25956 0.75399 0.59418 0.0
H383 H 0.25023 0.76428 0.69028 0.0
C384 C 0.21708 0.89316 0.65171 0.0
N385 N 0.22703 0.96174 0.66175 0.0
C386 C 0.19409 0.90353 0.63767 0.0
C387 C 0.24457 0.91734 0.67142 0.0
C388 C 0.19973 0.93842 0.64285 0.0
C389 C 0.24931 0.95197 0.67606 0.0
C390 C 0.21402 0.81399 0.57156 0.0
C391 C 0.19479 0.83249 0.56814 0.0
C392 C 0.22435 0.80215 0.54541 0.0
C393 C 0.1862 0.83884 0.53855 0.0
C394 C 0.21523 0.80903 0.5162 0.0
N395 N 0.19652 0.82709 0.51341 0.0
C396 C 0.31271 0.90178 0.58757 0.0
C397 C 0.26555 0.91596 0.58353 0.0
C398 C 0.33375 0.92886 0.56621 0.0
N399 N 0.27933 0.89594 0.59576 0.0
C400 C 0.28566 0.94333 0.56227 0.0
C401 C 0.31997 0.94974 0.55335 0.0
H402 H 0.32268 0.88499 0.59729 0.0
H403 H 0.23858 0.91007 0.58956 0.0
C404 C 0.1234 0.79657 0.64819 0.0
N405 N 0.13951 0.78654 0.6263 0.0
C406 C 0.08583 0.77831 0.65095 0.0
C407 C 0.08178 0.74133 0.60699 0.0
C408 C 0.11975 0.75984 0.60554 0.0
C409 C 0.06464 0.74992 0.63057 0.0
H410 H 0.13995 0.81751 0.66465 0.0
H411 H 0.13341 0.75206 0.58874 0.0
O412 O 0.27741 0.84603 0.65421 0.0
O413 O 0.20111 0.78596 0.66739 0.0
O414 O 0.21165 0.85898 0.64697 0.0
O415 O 0.22352 0.80814 0.60023 0.0
H416 H 0.31419 0.82414 0.6886 0.0
H417 H 0.31227 0.9182 0.65429 0.0
H418 H 0.37114 0.86505 0.71665 0.0
H419 H 0.36903 0.95739 0.68306 0.0
H420 H 0.12574 0.66571 0.64848 0.0
H421 H 0.15042 0.77452 0.70827 0.0
H422 H 0.18137 0.72439 0.63742 0.0
H423 H 0.09518 0.71493 0.71808 0.0
H424 H 0.24752 0.8103 0.78157 0.0
H425 H 0.16562 0.84008 0.76596 0.0
H426 H 0.27025 0.70224 0.60267 0.0
H427 H 0.26014 0.71284 0.7007 0.0
H428 H 0.17231 0.88488 0.62271 0.0
H429 H 0.26167 0.90928 0.6834 0.0
H430 H 0.18236 0.94693 0.6319 0.0
H431 H 0.27058 0.97101 0.69118 0.0
H432 H 0.18684 0.84214 0.58807 0.0
H433 H 0.2394 0.78794 0.54769 0.0
H434 H 0.17143 0.85323 0.53558 0.0
H435 H 0.2231 0.80007 0.49576 0.0
H436 H 0.36011 0.93314 0.55945 0.0
H437 H 0.27427 0.95883 0.55233 0.0
H438 H 0.07342 0.78557 0.66935 0.0
H439 H 0.06601 0.71956 0.59087 0.0
Li440 Li 0.45213 0.24407 0.96759 0.0
Li441 Li 0.40029 0.2324 0.00263 0.0
Li442 Li 0.39097 0.19214 0.96053 0.0
Li443 Li 0.39908 0.25079 0.94945 0.0
C444 C 0.42686 0.17387 0.00099 0.0
N445 N 0.43273 0.11316 0.01268 0.0
C446 C 0.40533 0.14909 0.02367 0.0
C447 C 0.45096 0.16749 0.98386 0.0
C448 C 0.40875 0.11859 0.0293 0.0
C449 C 0.45361 0.13669 0.99019 0.0
C450 C 0.44692 0.30984 -0.00168 0.0
C451 C 0.43908 0.36012 0.01346 0.0
N452 N 0.46953 0.37341 0.03109 0.0
C453 C 0.47846 0.32435 0.0162 0.0
C454 C 0.42733 0.32815 0.99658 0.0
C455 C 0.48931 0.35635 0.03276 0.0
C456 C 0.52461 0.27081 0.94437 0.0
N457 N 0.50227 0.26073 0.96932 0.0
C458 C 0.54952 0.26637 0.00252 0.0
C459 C 0.51411 0.25898 -0.00196 0.0
C460 C 0.57279 0.2756 0.97716 0.0
C461 C 0.56048 0.2785 0.94783 0.0
H462 H 0.51429 0.27172 0.92179 0.0
H463 H 0.49551 0.2506 0.01734 0.0
C464 C 0.35709 0.20103 0.0541 0.0
N465 N 0.38969 0.22927 0.0451 0.0
C466 C 0.35208 0.18841 0.08441 0.0
C467 C 0.41349 0.23563 0.09599 0.0
C468 C 0.41745 0.24713 0.06538 0.0
C469 C 0.38099 0.20511 0.10527 0.0
H470 H 0.33617 0.18617 0.03715 0.0
H471 H 0.44363 0.26804 0.05727 0.0
C472 C 0.41644 0.20619 0.90254 0.0
N473 N 0.40114 0.16406 0.85013 0.0
C474 C 0.38283 0.19257 0.88794 0.0
C475 C 0.44233 0.1985 0.8905 0.0
C476 C 0.37559 0.17126 0.86148 0.0
C477 C 0.43407 0.17714 0.86395 0.0
C478 C 0.33126 0.21738 0.97902 0.0
C479 C 0.2969 0.19431 0.9666 0.0
C480 C 0.33665 0.2465 -0.0024 0.0
C481 C 0.26869 0.20132 0.97239 0.0
C482 C 0.30776 0.25261 0.0029 0.0
N483 N 0.27466 0.23012 0.99025 0.0
C484 C 0.33631 0.12537 0.97545 0.0
C485 C 0.37202 0.12036 0.93584 0.0
C486 C 0.3169 0.08787 0.97917 0.0
N487 N 0.3637 0.1409 0.95452 0.0
C488 C 0.35243 0.08243 0.93818 0.0
C489 C 0.32528 0.06601 0.96077 0.0
H490 H 0.33089 0.14233 0.99056 0.0
H491 H 0.39469 0.13319 0.92017 0.0
C492 C 0.41273 0.31284 0.91542 0.0
N493 N 0.38693 0.27823 0.92262 0.0
C494 C 0.40496 0.33304 0.89453 0.0
C495 C 0.34425 0.2816 0.88907 0.0
C496 C 0.35328 0.26234 0.9098 0.0
C497 C 0.37034 0.31722 0.88122 0.0
H498 H 0.43946 0.32452 0.92562 0.0
H499 H 0.33368 0.23447 0.91513 0.0
O500 O 0.42438 0.20425 0.99563 0.0
O501 O 0.43624 0.27881 0.98155 0.0
O502 O 0.42411 0.22722 0.92834 0.0
O503 O 0.35907 0.21074 0.97346 0.0
H504 H 0.38605 0.15332 0.03665 0.0
H505 H 0.46737 0.18605 0.96582 0.0
H506 H 0.39231 0.09923 0.04686 0.0
H507 H 0.47225 0.13148 0.97723 0.0
H508 H 0.42406 0.37444 0.01243 0.0
H509 H 0.49432 0.31093 0.01743 0.0
H510 H 0.40344 0.318 0.98219 0.0
H511 H 0.5135 0.36768 0.04689 0.0
H512 H 0.55832 0.26368 0.02533 0.0
H513 H 0.57796 0.28528 0.92784 0.0
H514 H 0.32692 0.16444 0.09095 0.0
H515 H 0.43639 0.24857 0.1116 0.0
H516 H 0.36247 0.19814 0.89711 0.0
H517 H 0.46843 0.20876 0.90163 0.0
H518 H 0.34964 0.16041 0.84999 0.0
H519 H 0.45379 0.17089 0.85439 0.0
H520 H 0.29222 0.1714 0.9524 0.0
H521 H 0.36267 0.26385 0.0082 0.0
H522 H 0.24204 0.18386 0.96272 0.0
H523 H 0.3116 0.27512 0.0172 0.0
H524 H 0.29619 0.07606 0.99686 0.0
H525 H 0.35953 0.06617 0.92367 0.0
H526 H 0.42568 0.36044 0.88855 0.0
H527 H 0.31748 0.26863 0.87873 0.0
Li528 Li 0.58941 0.85004 0.38183 0.0
Li529 Li 0.60087 0.80276 0.36335 0.0
Li530 Li 0.5888 0.83998 0.32681 0.0
Li531 Li 0.53997 0.79483 0.35855 0.0
C532 C 0.66244 0.88625 0.35577 0.0
N533 N 0.72896 0.94954 0.35734 0.0
C534 C 0.69313 0.88572 0.36657 0.0
C535 C 0.66567 0.91886 0.34538 0.0
C536 C 0.72649 0.91804 0.36729 0.0
C537 C 0.69951 0.95059 0.34646 0.0
C538 C 0.58222 0.79837 0.42547 0.0
C539 C 0.57588 0.77975 0.47873 0.0
N540 N 0.61256 0.79948 0.48211 0.0
C541 C 0.61983 0.81842 0.42947 0.0
C542 C 0.56002 0.77886 0.45027 0.0
C543 C 0.63466 0.81866 0.45828 0.0
C544 C 0.5736 0.88898 0.42562 0.0
N545 N 0.60106 0.88528 0.41347 0.0
C546 C 0.64427 0.93225 0.44615 0.0
C547 C 0.63579 0.9058 0.42366 0.0
C548 C 0.61662 0.93704 0.45865 0.0
C549 C 0.58078 0.91477 0.44862 0.0
H550 H 0.54617 0.87198 0.4173 0.0
H551 H 0.65699 0.90166 0.41456 0.0
C552 C 0.64742 0.78581 0.33654 0.0
N553 N 0.62847 0.77923 0.36327 0.0
C554 C 0.66697 0.76834 0.33039 0.0
C555 C 0.64782 0.73806 0.37983 0.0
C556 C 0.62815 0.75589 0.38489 0.0
C557 C 0.66715 0.7441 0.35212 0.0
H558 H 0.64656 0.80411 0.31965 0.0
H559 H 0.61212 0.75052 0.40562 0.0
C560 C 0.54827 0.87216 0.33682 0.0
N561 N 0.53986 0.92519 0.30744 0.0
C562 C 0.52063 0.86247 0.31512 0.0
C563 C 0.57119 0.90879 0.34402 0.0
C564 C 0.51696 0.88968 0.30037 0.0
C565 C 0.56662 0.9352 0.32881 0.0
C566 C 0.55391 0.75124 0.3206 0.0
C567 C 0.54749 0.73963 0.28992 0.0
C568 C 0.5451 0.72581 0.34424 0.0
C569 C 0.53268 0.70271 0.28335 0.0
C570 C 0.53042 0.68915 0.33673 0.0
N571 N 0.52457 0.67845 0.30669 0.0
C572 C 0.63432 0.86694 0.27552 0.0
C573 C 0.57095 0.83697 0.26566 0.0
C574 C 0.6411 0.86058 0.24534 0.0
N575 N 0.59958 0.85392 0.28526 0.0
C576 C 0.57649 0.82989 0.23537 0.0
C577 C 0.61171 0.8401 0.22566 0.0
H578 H 0.65639 0.87832 0.29186 0.0
H579 H 0.5436 0.8249 0.27448 0.0
C580 C 0.4715 0.73635 0.37872 0.0
N581 N 0.49055 0.75914 0.35522 0.0
C582 C 0.43736 0.7061 0.37301 0.0
C583 C 0.44311 0.72417 0.31939 0.0
C584 C 0.47686 0.75408 0.32615 0.0
C585 C 0.42345 0.69951 0.34286 0.0
H586 H 0.48355 0.74067 0.40141 0.0
H587 H 0.49319 0.77218 0.30785 0.0
O588 O 0.62957 0.85483 0.35515 0.0
O589 O 0.56694 0.79809 0.39762 0.0
O590 O 0.55213 0.84582 0.35156 0.0
O591 O 0.56848 0.78734 0.32737 0.0
H592 H 0.69117 0.86062 0.37442 0.0
H593 H 0.64245 0.91956 0.33619 0.0
H594 H 0.75043 0.91807 0.37574 0.0
H595 H 0.70239 0.97603 0.33853 0.0
H596 H 0.55902 0.76479 0.49814 0.0
H597 H 0.63743 0.83357 0.41057 0.0
H598 H 0.53083 0.76327 0.44757 0.0
H599 H 0.66373 0.83409 0.46167 0.0
H600 H 0.67209 0.94874 0.45386 0.0
H601 H 0.55887 0.91773 0.45815 0.0
H602 H 0.68154 0.7734 0.30879 0.0
H603 H 0.64746 0.71932 0.39694 0.0
H604 H 0.50218 0.83422 0.3097 0.0
H605 H 0.59217 0.91682 0.36126 0.0
H606 H 0.49582 0.88255 0.28338 0.0
H607 H 0.58428 0.96366 0.33407 0.0
H608 H 0.55374 0.75891 0.27139 0.0
H609 H 0.54949 0.73426 0.36814 0.0
H610 H 0.52763 0.69335 0.2597 0.0
H611 H 0.52355 0.66918 0.35478 0.0
H612 H 0.6685 0.8683 0.23843 0.0
H613 H 0.55333 0.81358 0.22067 0.0
H614 H 0.4228 0.68712 0.39144 0.0
H615 H 0.43314 0.71941 0.29588 0.0
Li616 Li 0.78803 0.61117 0.67989 0.0
Li617 Li 0.73103 0.59921 0.6999 0.0
Li618 Li 0.73239 0.54831 0.67684 0.0
Li619 Li 0.73541 0.59804 0.64672 0.0
C620 C 0.75338 0.57273 0.74433 0.0
N621 N 0.73645 0.56616 0.80636 0.0
C622 C 0.77933 0.59559 0.76576 0.0
C623 C 0.71896 0.54625 0.75443 0.0
C624 C 0.77021 0.59188 0.79703 0.0
C625 C 0.71088 0.54346 0.7859 0.0
C626 C 0.77041 0.67117 0.68741 0.0
C627 C 0.75136 0.71435 0.70008 0.0
N628 N 0.7823 0.73391 0.71674 0.0
C629 C 0.80222 0.69192 0.70436 0.0
C630 C 0.74497 0.68269 0.68491 0.0
C631 C 0.80767 0.72349 0.71911 0.0
C632 C 0.8494 0.65239 0.64802 0.0
N633 N 0.83899 0.63731 0.67647 0.0
C634 C 0.90054 0.65845 0.69073 0.0
C635 C 0.86349 0.6399 0.69791 0.0
C636 C 0.91182 0.67359 0.66118 0.0
C637 C 0.88583 0.67039 0.63968 0.0
H638 H 0.82906 0.64976 0.63165 0.0
H639 H 0.8543 0.62721 0.72022 0.0
C640 C 0.67324 0.59642 0.73432 0.0
N641 N 0.71002 0.61255 0.73272 0.0
C642 C 0.65698 0.60597 0.75768 0.0
C643 C 0.71675 0.64841 0.7773 0.0
C644 C 0.73179 0.63775 0.75385 0.0
C645 C 0.679 0.63253 0.77919 0.0
H646 H 0.65653 0.57619 0.71745 0.0
H647 H 0.76087 0.64966 0.75249 0.0
C648 C 0.7878 0.56208 0.63608 0.0
N649 N 0.83025 0.53265 0.61898 0.0
C650 C 0.79045 0.55474 0.60507 0.0
C651 C 0.80644 0.55405 0.65844 0.0
C652 C 0.81208 0.53991 0.59687 0.0
C653 C 0.82788 0.53935 0.64932 0.0
C654 C 0.66669 0.55549 0.65255 0.0
C655 C 0.64599 0.52163 0.63844 0.0
C656 C 0.65906 0.58325 0.64646 0.0
C657 C 0.61849 0.51638 0.61787 0.0
C658 C 0.63135 0.57696 0.62576 0.0
N659 N 0.61184 0.54394 0.61197 0.0
C660 C 0.72414 0.48054 0.69664 0.0
C661 C 0.70926 0.48446 0.64452 0.0
C662 C 0.7205 0.44648 0.69107 0.0
N663 N 0.71896 0.49885 0.67331 0.0
C664 C 0.7054 0.45063 0.63794 0.0
C665 C 0.71183 0.43177 0.66125 0.0
H666 H 0.73289 0.49315 0.71904 0.0
H667 H 0.70651 0.50024 0.62625 0.0
C668 C 0.75085 0.64522 0.59805 0.0
N669 N 0.73014 0.60964 0.60602 0.0
C670 C 0.76657 0.65448 0.56879 0.0
C671 C 0.73579 0.59052 0.55574 0.0
C672 C 0.72068 0.58248 0.5852 0.0
C673 C 0.76087 0.62665 0.54826 0.0
H674 H 0.7592 0.66604 0.61554 0.0
H675 H 0.70582 0.55449 0.59273 0.0
O676 O 0.76147 0.57644 0.71356 0.0
O677 O 0.76462 0.64017 0.67284 0.0
O678 O 0.76711 0.57711 0.64441 0.0
O679 O 0.69387 0.56128 0.67263 0.0
H680 H 0.80603 0.61631 0.75826 0.0
H681 H 0.69857 0.52843 0.73806 0.0
H682 H 0.78992 0.60956 0.81388 0.0
H683 H 0.68425 0.52334 0.79404 0.0
H684 H 0.73174 0.72339 0.69858 0.0
H685 H 0.82229 0.68354 0.70646 0.0
H686 H 0.72051 0.66732 0.67151 0.0
H687 H 0.83201 0.73964 0.73252 0.0
H688 H 0.92011 0.66049 0.70775 0.0
H689 H 0.8937 0.68172 0.61671 0.0
H690 H 0.62769 0.59318 0.7588 0.0
H691 H 0.73431 0.66879 0.79381 0.0
H692 H 0.77599 0.56045 0.58747 0.0
H693 H 0.8045 0.55921 0.6826 0.0
H694 H 0.81445 0.53422 0.57293 0.0
H695 H 0.84256 0.53316 0.66637 0.0
H696 H 0.65094 0.49958 0.64342 0.0
H697 H 0.67447 0.6094 0.65754 0.0
H698 H 0.60237 0.49037 0.60667 0.0
H699 H 0.62533 0.59831 0.62067 0.0
H700 H 0.72613 0.43261 0.70934 0.0
H701 H 0.69924 0.44009 0.61463 0.0
H702 H 0.78611 0.68255 0.56357 0.0
H703 H 0.73127 0.56857 0.54034 0.0
Li704 Li 0.18858 0.79261 0.02272 0.0
Li705 Li 0.14523 0.73661 0.04569 0.0
Li706 Li 0.19894 0.73899 0.02494 0.0
Li707 Li 0.15114 0.73672 0.99264 0.0
C708 C 0.19308 0.76582 0.09023 0.0
N709 N 0.18135 0.75591 0.15303 0.0
C710 C 0.19274 0.79288 0.10827 0.0
C711 C 0.18782 0.73387 0.10412 0.0
C712 C 0.18672 0.78733 0.14 0.0
C713 C 0.1818 0.72932 0.13591 0.0
C714 C 0.11027 0.77267 0.02825 0.0
C715 C 0.04758 0.75342 0.03894 0.0
N716 N 0.05814 0.7855 0.05355 0.0
C717 C 0.12049 0.80563 0.04306 0.0
C718 C 0.07351 0.74651 0.02582 0.0
C719 C 0.09373 0.81154 0.0558 0.0
C720 C 0.20774 0.85123 0.98652 0.0
N721 N 0.21205 0.84312 0.01598 0.0
C722 C 0.25135 0.90584 0.02746 0.0
C723 C 0.23326 0.86937 0.03655 0.0
C724 C 0.24788 0.91478 0.9969 0.0
C725 C 0.22582 0.88706 0.97631 0.0
H726 H 0.19085 0.82956 0.97075 0.0
H727 H 0.23663 0.862 0.05967 0.0
C728 C 0.0937 0.67977 0.08289 0.0
N729 N 0.11083 0.71636 0.07857 0.0
C730 C 0.06804 0.66355 0.10634 0.0
C731 C 0.07841 0.723 0.12066 0.0
C732 C 0.10406 0.73806 0.09717 0.0
C733 C 0.06 0.68535 0.12521 0.0
H734 H 0.09998 0.66315 0.06816 0.0
H735 H 0.11863 0.7671 0.09388 0.0
C736 C 0.23854 0.79232 0.9809 0.0
N737 N 0.30943 0.83795 0.96258 0.0
C738 C 0.24741 0.79722 0.94956 0.0
C739 C 0.26574 0.81067 0.00293 0.0
C740 C 0.2834 0.82041 0.94076 0.0
C741 C 0.3014 0.83359 0.9932 0.0
C742 C 0.12652 0.66934 0.00341 0.0
C743 C 0.14028 0.64898 0.98969 0.0
C744 C 0.09028 0.65955 -0.00136 0.0
C745 C 0.11767 0.61955 0.97085 0.0
C746 C 0.06853 0.62995 0.97967 0.0
N747 N 0.08258 0.61075 0.96624 0.0
C748 C 0.25931 0.7342 0.04814 0.0
C749 C 0.24148 0.71591 0.9963 0.0
C750 C 0.2899 0.73047 0.0443 0.0
N751 N 0.23616 0.72722 0.02414 0.0
C752 C 0.27161 0.71187 0.99145 0.0
C753 C 0.29643 0.71982 0.01548 0.0
H754 H 0.25489 0.74413 0.06974 0.0
H755 H 0.22314 0.71167 0.97743 0.0
C756 C 0.1154 0.74248 0.94154 0.0
N757 N 0.13417 0.72653 0.95203 0.0
C758 C 0.11898 0.75359 0.91082 0.0
C759 C 0.1582 0.72836 0.90209 0.0
C760 C 0.15377 0.71763 0.93286 0.0
C761 C 0.14251 0.74851 0.89154 0.0
H762 H 0.10142 0.75062 0.95768 0.0
H763 H 0.16982 0.70668 0.9423 0.0
O764 O 0.19811 0.77036 0.05905 0.0
O765 O 0.13609 0.76648 0.01549 0.0
O766 O 0.20332 0.76997 0.98985 0.0
O767 O 0.14826 0.69849 0.02168 0.0
H768 H 0.19648 0.81763 0.09782 0.0
H769 H 0.18782 0.71259 0.09039 0.0
H770 H 0.18609 0.80791 0.15423 0.0
H771 H 0.17734 0.7046 0.14695 0.0
H772 H 0.01904 0.7333 0.03744 0.0
H773 H 0.14878 0.82626 0.04505 0.0
H774 H 0.06506 0.72115 0.01396 0.0
H775 H 0.10126 0.83679 0.06755 0.0
H776 H 0.2684 0.92677 0.04379 0.0
H777 H 0.2228 0.89311 0.95258 0.0
H778 H 0.05436 0.63439 0.10957 0.0
H779 H 0.07291 0.74048 0.13512 0.0
H780 H 0.22674 0.78332 0.93221 0.0
H781 H 0.2594 0.80733 0.02729 0.0
H782 H 0.29063 0.82447 0.91658 0.0
H783 H 0.32271 0.84792 0.01 0.0
H784 H 0.16806 0.65575 0.99357 0.0
H785 H 0.07913 0.67472 0.00945 0.0
H786 H 0.12801 0.60367 0.95995 0.0
H787 H 0.04048 0.62221 0.97564 0.0
H788 H 0.30898 0.73717 0.06311 0.0
H789 H 0.2763 0.70404 0.96889 0.0
H790 H 0.10675 0.76926 0.90313 0.0
H791 H 0.17664 0.72433 0.88761 0.0
Li792 Li 0.39643 0.19055 0.36197 0.0
Li793 Li 0.40932 0.14555 0.38201 0.0
Li794 Li 0.45961 0.20372 0.35988 0.0
Li795 Li 0.4106 0.15576 0.32754 0.0
C796 C 0.42166 0.21337 0.42029 0.0
N797 N 0.40569 0.2468 0.46746 0.0
C798 C 0.38931 0.19408 0.43683 0.0
C799 C 0.44596 0.24962 0.42774 0.0
C800 C 0.38171 0.21148 0.46059 0.0
C801 C 0.43737 0.26605 0.45167 0.0
C802 C 0.34298 0.1021 0.351 0.0
C803 C 0.32663 0.03913 0.34701 0.0
N804 N 0.29149 0.02993 0.34208 0.0
C805 C 0.30667 0.09201 0.34611 0.0
C806 C 0.35305 0.07546 0.3516 0.0
C807 C 0.28105 0.0554 0.34154 0.0
C808 C 0.34508 0.1996 0.33433 0.0
N809 N 0.36618 0.21158 0.36003 0.0
C810 C 0.346 0.25385 0.37028 0.0
C811 C 0.36699 0.23812 0.37813 0.0
C812 C 0.32519 0.24287 0.34311 0.0
C813 C 0.32469 0.21527 0.32514 0.0
H814 H 0.34559 0.17897 0.32007 0.0
H815 H 0.38467 0.24804 0.39792 0.0
C816 C 0.42367 0.10287 0.42346 0.0
N817 N 0.3982 0.11114 0.41393 0.0
C818 C 0.41534 0.07693 0.44657 0.0
C819 C 0.35488 0.06876 0.44946 0.0
C820 C 0.36439 0.09488 0.42647 0.0
C821 C 0.38052 0.05962 0.45959 0.0
H822 H 0.45031 0.11627 0.41296 0.0
H823 H 0.34467 0.10193 0.41836 0.0
C824 C 0.43287 0.23964 0.31755 0.0
N825 N 0.43596 0.30279 0.29746 0.0
C826 C 0.41766 0.24041 0.2892 0.0
C827 C 0.44961 0.27098 0.33573 0.0
C828 C 0.41945 0.27258 0.27944 0.0
C829 C 0.45092 0.30265 0.32516 0.0
C830 C 0.46663 0.14366 0.3303 0.0
C831 C 0.50405 0.16584 0.32603 0.0
C832 C 0.44765 0.11221 0.31243 0.0
C833 C 0.52156 0.15698 0.30328 0.0
C834 C 0.46612 0.1043 0.28987 0.0
N835 N 0.50238 0.1267 0.28576 0.0
C836 C 0.52943 0.25539 0.38441 0.0
C837 C 0.52092 0.25585 0.3303 0.0
C838 C 0.5645 0.28532 0.38189 0.0
N839 N 0.50843 0.24173 0.3588 0.0
C840 C 0.55552 0.28577 0.32677 0.0
C841 C 0.57741 0.30096 0.3528 0.0
H842 H 0.5187 0.24352 0.40675 0.0
H843 H 0.50366 0.24415 0.31035 0.0
C844 C 0.36769 0.12079 0.27388 0.0
N845 N 0.40166 0.14238 0.2854 0.0
C846 C 0.36052 0.12351 0.24285 0.0
C847 C 0.4238 0.16878 0.23597 0.0
C848 C 0.42982 0.16496 0.26693 0.0
C849 C 0.38849 0.14918 0.22418 0.0
H850 H 0.34552 0.10381 0.28902 0.0
H851 H 0.45622 0.18266 0.27694 0.0
O852 O 0.42979 0.19675 0.39717 0.0
O853 O 0.36821 0.13787 0.35565 0.0
O854 O 0.43079 0.20816 0.32769 0.0
O855 O 0.44914 0.15206 0.35261 0.0
H856 H 0.37015 0.16611 0.43121 0.0
H857 H 0.47114 0.26493 0.41518 0.0
H858 H 0.35672 0.19693 0.47354 0.0
H859 H 0.45588 0.2941 0.45768 0.0
H860 H 0.33405 0.01823 0.34751 0.0
H861 H 0.29841 0.11231 0.34575 0.0
H862 H 0.38082 0.08265 0.35608 0.0
H863 H 0.25287 0.04722 0.3376 0.0
H864 H 0.34704 0.27528 0.38453 0.0
H865 H 0.30916 0.2064 0.30394 0.0
H866 H 0.43558 0.07023 0.45404 0.0
H867 H 0.32778 0.0557 0.45917 0.0
H868 H 0.40436 0.21631 0.27503 0.0
H869 H 0.46119 0.27075 0.35788 0.0
H870 H 0.40767 0.27349 0.25758 0.0
H871 H 0.46372 0.32709 0.33901 0.0
H872 H 0.51962 0.18935 0.34044 0.0
H873 H 0.41885 0.09431 0.31543 0.0
H874 H 0.55047 0.17408 0.29968 0.0
H875 H 0.45161 0.08035 0.27563 0.0
H876 H 0.58097 0.29674 0.40236 0.0
H877 H 0.56491 0.29738 0.30407 0.0
H878 H 0.33302 0.10802 0.23417 0.0
H879 H 0.44587 0.18877 0.22196 0.0
Li880 Li 0.26006 0.40839 0.71334 0.0
Li881 Li 0.20265 0.39402 0.69262 0.0
Li882 Li 0.25724 0.41371 0.66015 0.0
Li883 Li 0.25525 0.45884 0.6935 0.0
C884 C 0.22488 0.33684 0.69495 0.0
N885 N 0.21481 0.27155 0.71727 0.0
C886 C 0.19281 0.31293 0.71039 0.0
C887 C 0.25151 0.32724 0.69034 0.0
C888 C 0.18831 0.28012 0.72162 0.0
C889 C 0.24601 0.29422 0.70199 0.0
C890 C 0.23127 0.42491 0.75937 0.0
C891 C 0.2679 0.44971 0.80503 0.0
N892 N 0.24275 0.42088 0.82159 0.0
C893 C 0.20568 0.39562 0.77684 0.0
C894 C 0.26252 0.45232 0.77354 0.0
C895 C 0.21201 0.39406 0.80828 0.0
C896 C 0.31901 0.41727 0.74968 0.0
N897 N 0.2827 0.39543 0.74515 0.0
C898 C 0.27967 0.35551 0.78528 0.0
C899 C 0.26284 0.36542 0.76284 0.0
C900 C 0.31712 0.37713 0.78988 0.0
C901 C 0.33692 0.40867 0.77224 0.0
H902 H 0.33409 0.44137 0.73575 0.0
H903 H 0.23389 0.34918 0.75967 0.0
C904 C 0.14286 0.3525 0.6584 0.0
N905 N 0.15201 0.36583 0.68754 0.0
C906 C 0.10671 0.33428 0.64918 0.0
C907 C 0.08975 0.34244 0.70063 0.0
C908 C 0.12651 0.3612 0.70874 0.0
C909 C 0.07976 0.32925 0.67037 0.0
H910 H 0.16396 0.35709 0.64205 0.0
H911 H 0.13471 0.37274 0.73155 0.0
C912 C 0.32523 0.4576 0.6698 0.0
N913 N 0.38368 0.47315 0.63222 0.0
C914 C 0.34423 0.49135 0.65518 0.0
C915 C 0.33627 0.43199 0.66569 0.0
C916 C 0.37361 0.49863 0.63615 0.0
C917 C 0.3658 0.44029 0.64651 0.0
C918 C 0.19909 0.44266 0.65132 0.0
C919 C 0.19192 0.44495 0.6202 0.0
C920 C 0.18158 0.45171 0.67399 0.0
C921 C 0.16729 0.45624 0.61224 0.0
C922 C 0.15716 0.46292 0.66509 0.0
N923 N 0.15057 0.46492 0.63466 0.0
C924 C 0.24978 0.37327 0.60763 0.0
C925 C 0.27439 0.43676 0.60053 0.0
C926 C 0.23841 0.36668 0.57692 0.0
N927 N 0.2659 0.40771 0.61891 0.0
C928 C 0.26331 0.43139 0.56984 0.0
C929 C 0.24325 0.39588 0.55849 0.0
H930 H 0.24192 0.35066 0.62319 0.0
H931 H 0.28548 0.46349 0.61058 0.0
C932 C 0.26152 0.52539 0.71608 0.0
N933 N 0.26611 0.50759 0.692 0.0
C934 C 0.26459 0.55938 0.71134 0.0
C935 C 0.27753 0.55586 0.65746 0.0
C936 C 0.27451 0.52228 0.66325 0.0
C937 C 0.27193 0.57436 0.68156 0.0
H938 H 0.254 0.5126 0.73851 0.0
H939 H 0.27715 0.50701 0.64449 0.0
O940 O 0.22962 0.36893 0.68357 0.0
O941 O 0.22599 0.42652 0.72844 0.0
O942 O 0.29615 0.44974 0.68827 0.0
O943 O 0.22283 0.43121 0.65947 0.0
H944 H 0.17181 0.3198 0.71401 0.0
H945 H 0.27612 0.34504 0.67788 0.0
H946 H 0.16377 0.26149 0.73384 0.0
H947 H 0.26651 0.28656 0.69879 0.0
H948 H 0.29211 0.47054 0.81627 0.0
H949 H 0.1815 0.37404 0.76613 0.0
H950 H 0.28267 0.47506 0.76025 0.0
H951 H 0.19259 0.37142 0.82206 0.0
H952 H 0.26371 0.33126 0.79893 0.0
H953 H 0.36587 0.42599 0.77559 0.0
H954 H 0.09982 0.32459 0.62566 0.0
H955 H 0.06942 0.33904 0.7174 0.0
H956 H 0.33639 0.5117 0.65846 0.0
H957 H 0.3222 0.406 0.67724 0.0
H958 H 0.38845 0.52456 0.62455 0.0
H959 H 0.37454 0.42064 0.64302 0.0
H960 H 0.20521 0.43804 0.60237 0.0
H961 H 0.1867 0.45002 0.6982 0.0
H962 H 0.16146 0.45808 0.58823 0.0
H963 H 0.14343 0.47 0.68238 0.0
H964 H 0.22288 0.33901 0.56859 0.0
H965 H 0.26726 0.45433 0.55602 0.0
H966 H 0.25976 0.57307 0.73025 0.0
H967 H 0.28288 0.56671 0.63423 0.0
Li968 Li 0.80827 0.20386 0.02732 0.0
Li969 Li 0.85807 0.26156 0.04202 0.0
Li970 Li 0.80105 0.25683 0.01887 0.0
Li971 Li 0.84429 0.24567 0.98757 0.0
C972 C 0.7916 0.21591 0.08414 0.0
N973 N 0.75992 0.17176 0.13479 0.0
C974 C 0.80964 0.20076 0.09965 0.0
C975 C 0.75745 0.20865 0.09436 0.0
C976 C 0.79316 0.17846 0.1252 0.0
C977 C 0.7419 0.18628 0.12004 0.0
C978 C 0.89441 0.22805 0.01596 0.0
C979 C 0.95563 0.26289 0.99675 0.0
N980 N 0.96407 0.23945 0.01079 0.0
C981 C 0.90351 0.20401 0.02983 0.0
C982 C 0.92051 0.25747 -0.00102 0.0
C983 C 0.93894 0.21035 0.02711 0.0
C984 C 0.7964 0.13676 0.01304 0.0
N985 N 0.78282 0.15243 0.03213 0.0
C986 C 0.73307 0.09417 0.04576 0.0
C987 C 0.75175 0.13206 0.04846 0.0
C988 C 0.74586 0.07762 0.02514 0.0
C989 C 0.77811 0.0993 0.00895 0.0
H990 H 0.82057 0.15363 -0.0003 0.0
H991 H 0.74061 0.14503 0.06252 0.0
C992 C 0.90469 0.32197 0.07903 0.0
N993 N 0.89483 0.28706 0.07187 0.0
C994 C 0.93091 0.34064 0.10171 0.0
C995 C 0.93601 0.28697 0.10921 0.0
C996 C 0.90969 0.26936 0.08656 0.0
C997 C 0.9467 0.32291 0.11695 0.0
H998 H 0.89199 0.33517 0.06727 0.0
H999 H 0.90075 0.24139 0.08105 0.0
C1000 C 0.7589 0.18808 0.98293 0.0
N1001 N 0.69321 0.12837 0.96703 0.0
C1002 C 0.75752 0.16356 0.96079 0.0
C1003 C 0.72694 0.18188 0.99744 0.0
C1004 C 0.72404 0.13359 0.95298 0.0
C1005 C 0.69398 0.15161 0.98898 0.0
C1006 C 0.87584 0.32301 0.99358 0.0
C1007 C 0.86144 0.33905 0.97436 0.0
C1008 C 0.91339 0.34024 -0.00191 0.0
C1009 C 0.8849 0.37152 0.95924 0.0
C1010 C 0.93595 0.37271 0.9826 0.0
N1011 N 0.92136 0.38751 0.96362 0.0
C1012 C 0.75136 0.28031 0.03793 0.0
C1013 C 0.75795 0.27378 0.98429 0.0
C1014 C 0.72193 0.28554 0.03221 0.0
N1015 N 0.76794 0.27366 0.01406 0.0
C1016 C 0.72887 0.27894 0.97755 0.0
C1017 C 0.71 0.28383 0.00175 0.0
H1018 H 0.75978 0.27977 0.06136 0.0
H1019 H 0.77139 0.26786 0.9659 0.0
C1020 C 0.85963 0.21491 0.93779 0.0
N1021 N 0.85621 0.24396 0.94592 0.0
C1022 C 0.85388 0.20281 0.9073 0.0
C1023 C 0.84406 0.25247 0.8938 0.0
C1024 C 0.84959 0.26338 0.92462 0.0
C1025 C 0.84457 0.22091 0.88535 0.0
H1026 H 0.8631 0.19892 0.95543 0.0
H1027 H 0.845 0.28502 0.93192 0.0
O1028 O 0.80732 0.23786 0.05915 0.0
O1029 O 0.85979 0.22208 0.0185 0.0
O1030 O 0.79139 0.21794 0.99041 0.0
O1031 O 0.85318 0.29149 0.00894 0.0
H1032 H 0.83587 0.20579 0.09181 0.0
H1033 H 0.74298 0.21993 0.08246 0.0
H1034 H 0.80674 0.16642 0.13736 0.0
H1035 H 0.71546 0.18035 0.12819 0.0
H1036 H 0.97614 0.28563 0.98372 0.0
H1037 H 0.88345 0.18086 0.0428 0.0
H1038 H 0.91361 0.27559 0.98726 0.0
H1039 H 0.94644 0.19213 0.03795 0.0
H1040 H 0.70811 0.07808 0.05848 0.0
H1041 H 0.78858 0.08737 0.99276 0.0
H1042 H 0.93863 0.36839 0.10744 0.0
H1043 H 0.94764 0.27262 0.12085 0.0
H1044 H 0.78211 0.16753 0.9499 0.0
H1045 H 0.72754 0.2001 0.01513 0.0
H1046 H 0.72258 0.11444 0.9358 0.0
H1047 H 0.66902 0.14658 -0.00011 0.0
H1048 H 0.83245 0.32647 0.97099 0.0
H1049 H 0.92505 0.32887 0.01356 0.0
H1050 H 0.8741 0.38404 0.9441 0.0
H1051 H 0.96505 0.38621 0.98578 0.0
H1052 H 0.70751 0.28898 0.05131 0.0
H1053 H 0.71994 0.27716 0.95388 0.0
H1054 H 0.85386 0.17803 0.90141 0.0
H1055 H 0.83629 0.26651 0.87732 0.0
C1056 C 0.3622 0.60142 0.31814 0.0
C1057 C 0.32773 0.599 0.3193 0.0
C1058 C 0.3562 0.66327 0.33389 0.0
C1059 C 0.3903 0.6649 0.33499 0.0
N1060 N 0.42637 0.63581 0.33061 0.0
N1061 N 0.29061 0.62572 0.33025 0.0
C1062 C 0.39349 0.63404 0.32769 0.0
C1063 C 0.32436 0.62947 0.32762 0.0
N1064 N 0.36495 0.57255 0.30755 0.0
N1065 N 0.35448 0.69423 0.33832 0.0
H1066 H 0.26685 0.60183 0.32446 0.0
H1067 H 0.28579 0.64544 0.33964 0.0
H1068 H 0.3771 0.71912 0.34406 0.0
H1069 H 0.33126 0.69599 0.33456 0.0
H1070 H 0.38946 0.57369 0.30279 0.0
H1071 H 0.34252 0.5477 0.30145 0.0
H1072 H 0.42997 0.61339 0.32921 0.0
H1073 H 0.45021 0.6596 0.33636 0.0
C1074 C 0.74802 0.37145 0.63259 0.0
C1075 C 0.71857 0.3366 0.64 0.0
C1076 C 0.68294 0.36391 0.65803 0.0
C1077 C 0.71369 0.39882 0.65346 0.0
N1078 N 0.77662 0.43667 0.63933 0.0
N1079 N 0.65897 0.29879 0.66152 0.0
C1080 C 0.74651 0.40284 0.64136 0.0
C1081 C 0.68617 0.33255 0.65308 0.0
N1082 N 0.7773 0.37443 0.6169 0.0
N1083 N 0.65059 0.36086 0.66655 0.0
H1084 H 0.65985 0.27513 0.65703 0.0
H1085 H 0.63645 0.29425 0.67441 0.0
H1086 H 0.64759 0.38335 0.67096 0.0
H1087 H 0.62617 0.33634 0.66721 0.0
H1088 H 0.79784 0.39872 0.60778 0.0
H1089 H 0.77981 0.35206 0.6108 0.0
H1090 H 0.80246 0.44126 0.63416 0.0
H1091 H 0.77644 0.46042 0.64497 0.0
C1092 C 0.39633 0.75378 0.00043 0.0
C1093 C 0.39564 0.72047 0.99528 0.0
C1094 C 0.3306 0.68659 0.00709 0.0
C1095 C 0.33074 0.71994 0.00941 0.0
N1096 N 0.36203 0.7851 0.00301 0.0
N1097 N 0.36192 0.65537 0.98949 0.0
C1098 C 0.36315 0.75353 0.00462 0.0
C1099 C 0.36268 0.68686 0.99746 0.0
N1100 N 0.42878 0.78555 0.00236 0.0
N1101 N 0.30006 0.65482 0.01484 0.0
H1102 H 0.38499 0.65463 0.98247 0.0
H1103 H 0.33809 0.63043 0.98745 0.0
H1104 H 0.27606 0.65369 0.02185 0.0
H1105 H 0.29929 0.63003 0.01675 0.0
H1106 H 0.43115 0.81002 0.00955 0.0
H1107 H 0.45376 0.78696 -0.00065 0.0
H1108 H 0.38401 0.80979 0.99605 0.0
H1109 H 0.33828 0.78619 0.00608 0.0
C1110 C 0.61487 0.3687 0.35216 0.0
C1111 C 0.61301 0.33456 0.34935 0.0
C1112 C 0.67781 0.36474 0.33653 0.0
C1113 C 0.67889 0.39862 0.33685 0.0
N1114 N 0.6486 0.4335 0.34202 0.0
N1115 N 0.64089 0.29891 0.33666 0.0
C1116 C 0.64746 0.4008 0.34397 0.0
C1117 C 0.64404 0.33223 0.34102 0.0
N1118 N 0.58553 0.37035 0.36302 0.0
N1119 N 0.70922 0.36383 0.33251 0.0
H1120 H 0.61695 0.27457 0.34102 0.0
H1121 H 0.66122 0.29513 0.32715 0.0
H1122 H 0.73421 0.38708 0.3283 0.0
H1123 H 0.71117 0.34055 0.33528 0.0
H1124 H 0.58627 0.39443 0.36894 0.0
H1125 H 0.56077 0.34735 0.36828 0.0
H1126 H 0.6258 0.43645 0.34337 0.0
H1127 H 0.67222 0.45781 0.33696 0.0
C1128 C 0.30175 0.67378 0.66704 0.0
C1129 C 0.26811 0.67065 0.65847 0.0
C1130 C 0.23673 0.60491 0.6675 0.0
C1131 C 0.27064 0.6078 0.67467 0.0
N1132 N 0.33582 0.64328 0.67829 0.0
N1133 N 0.20421 0.63383 0.6473 0.0
C1134 C 0.30331 0.64181 0.67361 0.0
C1135 C 0.23575 0.63633 0.65775 0.0
N1136 N 0.33197 0.70746 0.66954 0.0
N1137 N 0.20543 0.57214 0.67057 0.0
H1138 H 0.20206 0.65638 0.64111 0.0
H1139 H 0.18058 0.6094 0.64284 0.0
H1140 H 0.2051 0.54819 0.67645 0.0
H1141 H 0.17951 0.56875 0.66918 0.0
H1142 H 0.35639 0.71215 0.67906 0.0
H1143 H 0.33214 0.73132 0.66357 0.0
H1144 H 0.36093 0.66635 0.67445 0.0
H1145 H 0.33782 0.62062 0.68442 0.0
C1146 C 0.64348 0.24795 0.9911 0.0
C1147 C 0.67514 0.28237 0.99526 0.0
C1148 C 0.63982 0.31285 0.98723 0.0
C1149 C 0.6087 0.27857 0.98129 0.0
N1150 N 0.58153 0.21412 0.97248 0.0
N1151 N 0.70533 0.34771 0.99338 0.0
C1152 C 0.61076 0.24628 0.98168 0.0
C1153 C 0.67387 0.31493 0.9922 0.0
N1154 N 0.64449 0.21685 0.99711 0.0
N1155 N 0.63652 0.34319 0.98895 0.0
H1156 H 0.73058 0.35011 -0.00233 0.0
H1157 H 0.70691 0.37233 0.98807 0.0
H1158 H 0.6122 0.34274 0.98448 0.0
H1159 H 0.65714 0.36833 0.99659 0.0
H1160 H 0.62149 0.19114 -0.00205 0.0
H1161 H 0.66804 0.21683 0.00374 0.0
H1162 H 0.58252 0.19042 0.96893 0.0
H1163 H 0.55682 0.21167 0.96588 0.0
C1164 C 0.24846 0.25703 0.31481 0.0
C1165 C 0.26657 0.2954 0.31194 0.0
C1166 C 0.32408 0.29861 0.32516 0.0
C1167 C 0.30497 0.26105 0.33259 0.0
N1168 N 0.2476 0.2058 0.33988 0.0
N1169 N 0.32085 0.3535 0.32041 0.0
C1170 C 0.26673 0.24053 0.32887 0.0
C1171 C 0.30424 0.3165 0.31867 0.0
N1172 N 0.21408 0.23627 0.3035 0.0
N1173 N 0.36111 0.31703 0.32326 0.0
H1174 H 0.30734 0.36789 0.31657 0.0
H1175 H 0.34725 0.36966 0.32856 0.0
H1176 H 0.37671 0.30475 0.327 0.0
H1177 H 0.376 0.3435 0.31489 0.0
H1178 H 0.20089 0.20801 0.30242 0.0
H1179 H 0.20024 0.24743 0.29224 0.0
H1180 H 0.21934 0.19097 0.34044 0.0
H1181 H 0.25982 0.19312 0.35134 0.0
C1182 C 0.98536 0.31303 0.65183 0.0
C1183 C 0.96854 0.27712 0.63983 0.0
C1184 C 0.02338 0.27415 0.6512 0.0
C1185 C 0.04128 0.31117 0.6603 0.0
N1186 N 0.04188 0.36825 0.66235 0.0
N1187 N 0.97429 0.22656 0.62171 0.0
C1188 C 0.02304 0.33137 0.65859 0.0
C1189 C 0.98841 0.25857 0.63759 0.0
N1190 N 0.96519 0.32913 0.65811 0.0
N1191 N 0.03919 0.25349 0.65653 0.0
H1192 H 0.9491 0.21481 0.61073 0.0
H1193 H 0.98905 0.21366 0.6168 0.0
H1194 H 0.06447 0.26372 0.6671 0.0
H1195 H 0.02574 0.22546 0.65321 0.0
H1196 H 0.97543 0.3536 0.67004 0.0
H1197 H 0.9374 0.31657 0.654 0.0
H1198 H 0.03059 0.38465 0.65813 0.0
H1199 H 0.06972 0.38291 0.6667 0.0
C1200 C 0.74211 0.01685 0.02529 0.0
C1201 C 0.7253 0.03782 0.0193 0.0
C1202 C 0.67109 0.98328 0.00054 0.0
C1203 C 0.68997 0.96371 0.00242 0.0
N1204 N 0.74619 0.96399 0.01115 0.0
N1205 N 0.67616 0.04224 0.9956 0.0
C1206 C 0.72629 0.98108 0.01332 0.0
C1207 C 0.69036 0.0214 0.00543 0.0
N1208 N 0.7727 0.03079 0.04308 0.0
N1209 N 0.63454 0.96538 0.99513 0.0
H1210 H 0.68955 0.07035 -0.00184 0.0
H1211 H 0.65264 0.03199 0.98234 0.0
H1212 H 0.61918 0.9373 0.99216 0.0
H1213 H 0.61891 0.97792 0.99666 0.0
H1214 H 0.78408 0.0154 0.05059 0.0
H1215 H 0.78449 0.05659 0.05299 0.0
H1216 H 0.77388 0.97688 0.01594 0.0
H1217 H 0.73596 0.93816 0.00161 0.0
C1218 C 0.72592 0.7452 0.34363 0.0
C1219 C 0.68748 0.72498 0.34532 0.0
C1220 C 0.68835 0.66906 0.33354 0.0
C1221 C 0.7264 0.6899 0.32874 0.0
N1222 N 0.78055 0.74849 0.32347 0.0
N1223 N 0.63143 0.66893 0.33625 0.0
C1224 C 0.74497 0.72823 0.33212 0.0
C1225 C 0.66844 0.68721 0.33871 0.0
N1226 N 0.74428 0.78031 0.35392 0.0
N1227 N 0.67141 0.63197 0.33428 0.0
H1228 H 0.61582 0.68128 0.33963 0.0
H1229 H 0.61649 0.64233 0.3282 0.0
H1230 H 0.68505 0.6176 0.33076 0.0
H1231 H 0.64448 0.61557 0.34103 0.0
H1232 H 0.77241 0.79517 0.3562 0.0
H1233 H 0.73125 0.79352 0.36297 0.0
H1234 H 0.79442 0.77676 0.32244 0.0
H1235 H 0.79529 0.73702 0.3145 0.0
C1236 C 0.0045 0.74709 0.63308 0.0
C1237 C 0.02469 0.72888 0.63518 0.0
C1238 C 0.96944 0.67289 0.65004 0.0
C1239 C 0.95075 0.6926 0.65234 0.0
N1240 N 0.95233 0.75018 0.6511 0.0
N1241 N 0.02761 0.67575 0.6507 0.0
C1242 C 0.96875 0.73021 0.64517 0.0
C1243 C 0.00751 0.69204 0.64491 0.0
N1244 N 0.01929 0.78024 0.61898 0.0
N1245 N 0.95075 0.6358 0.65181 0.0
H1246 H 0.05559 0.68873 0.64752 0.0
H1247 H 0.01694 0.65039 0.66121 0.0
H1248 H 0.92271 0.62068 0.655 0.0
H1249 H 0.96252 0.61993 0.6471 0.0
H1250 H 0.00457 0.79321 0.61419 0.0
H1251 H 0.04519 0.79303 0.60924 0.0
H1252 H 0.96569 0.77839 0.64923 0.0
H1253 H 0.9265 0.73906 0.6608 0.0
C1254 C 0.3255 0.00956 0.97846 0.0
C1255 C 0.30623 0.02621 0.96657 0.0
C1256 C 0.2486 0.97049 0.97649 0.0
C1257 C 0.26795 0.95302 0.98608 0.0
N1258 N 0.32472 0.9532 0.98865 0.0
N1259 N 0.25017 0.01972 0.94716 0.0
C1260 C 0.30641 0.97172 0.98476 0.0
C1261 C 0.26795 0.00572 0.96333 0.0
N1262 N 0.36162 0.03 0.98525 0.0
N1263 N 0.21198 0.95415 0.98116 0.0
H1264 H 0.26369 0.04518 0.93659 0.0
H1265 H 0.2227 0.00466 0.94158 0.0
H1266 H 0.19688 0.92872 0.9915 0.0
H1267 H 0.19718 0.96729 0.97749 0.0
H1268 H 0.37584 0.01983 0.99726 0.0
H1269 H 0.37674 0.05787 0.98137 0.0
H1270 H 0.35252 0.96486 0.98479 0.0
H1271 H 0.31168 0.92528 0.9927 0.0
C1272 C 0.01145 0.35815 0.13395 0.0
C1273 C 0.97409 0.34132 0.14152 0.0
C1274 C 0.98914 0.35319 0.19644 0.0
C1275 C 0.02595 0.36544 0.18912 0.0
N1276 N 0.07286 0.37879 0.15163 0.0
N1277 N 0.92638 0.32131 0.17939 0.0
C1278 C 0.03742 0.36811 0.15801 0.0
C1279 C 0.96264 0.3388 0.17262 0.0
N1280 N 0.02197 0.36475 0.10372 0.0
N1281 N 0.97971 0.35555 0.22615 0.0
H1282 H 0.90625 0.31156 0.16246 0.0
H1283 H 0.91603 0.31463 0.20168 0.0
H1284 H 0.99848 0.36546 0.24417 0.0
H1285 H 0.95403 0.35047 0.23263 0.0
H1286 H 0.04888 0.38009 0.09664 0.0
H1287 H 0.00349 0.35731 0.08555 0.0
H1288 H 0.08218 0.37714 0.12983 0.0
H1289 H 0.0929 0.38753 0.16859 0.0
C1290 C 0.64728 0.98799 0.53482 0.0
C1291 C 0.65504 0.02306 0.52514 0.0
C1292 C 0.63007 -0.00051 0.47377 0.0
C1293 C 0.62578 0.96537 0.48249 0.0
N1294 N 0.62847 0.92564 0.52068 0.0
N1295 N 0.65356 0.0631 0.48659 0.0
C1296 C 0.63346 0.95908 0.51302 0.0
C1297 C 0.6459 0.02894 0.49502 0.0
N1298 N 0.65333 0.98257 0.56486 0.0
N1299 N 0.61912 0.00362 0.4451 0.0
H1300 H 0.6632 0.08473 0.50211 0.0
H1301 H 0.65166 0.07071 0.46419 0.0
H1302 H 0.60894 0.98316 0.42847 0.0
H1303 H 0.61813 0.02647 0.43802 0.0
H1304 H 0.64547 0.95729 0.57445 0.0
H1305 H 0.66477 0.00344 0.5811 0.0
H1306 H 0.63707 0.91981 0.54124 0.0
H1307 H 0.61635 0.90336 0.50583 0.0
C1308 C 0.64471 0.64196 0.85777 0.0
C1309 C 0.63875 0.6714 0.85183 0.0
C1310 C 0.65371 0.67133 0.7972 0.0
C1311 C 0.66281 0.64414 0.80374 0.0
N1312 N 0.66879 0.60414 0.83962 0.0
N1313 N 0.6384 0.71543 0.81701 0.0
C1314 C 0.65856 0.6294 0.83384 0.0
C1315 C 0.64322 0.68628 0.82176 0.0
N1316 N 0.6368 0.62593 0.88625 0.0
N1317 N 0.65496 0.68261 0.76742 0.0
H1318 H 0.62893 0.72592 0.83408 0.0
H1319 H 0.64533 0.7305 0.79672 0.0
H1320 H 0.664 0.6734 0.74902 0.0
H1321 H 0.64504 0.6994 0.76038 0.0
H1322 H 0.63683 0.60205 0.89138 0.0
H1323 H 0.62783 0.63525 0.90461 0.0
H1324 H 0.67058 0.59533 0.86159 0.0
H1325 H 0.67734 0.593 0.82236 0.0
C1326 C 0.04297 0.67511 0.18108 0.0
C1327 C 0.03212 0.66898 0.1497 0.0
C1328 C 0.96844 0.63327 0.16535 0.0
C1329 C 0.97902 0.64372 0.1964 0.0
N1330 N 0.02589 0.6783 0.23378 0.0
N1331 N 0.98447 0.64639 0.11144 0.0
C1332 C 0.01621 0.66548 0.20435 0.0
C1333 C 0.99482 0.64897 0.14163 0.0
N1334 N 0.07878 0.68951 0.18862 0.0
N1335 N 0.93331 0.60786 0.15865 0.0
H1336 H 0.00292 0.65772 0.09331 0.0
H1337 H 0.95757 0.63565 0.10455 0.0
H1338 H 0.91331 0.59558 0.17555 0.0
H1339 H 0.92478 0.59646 0.13684 0.0
H1340 H 0.08792 0.69123 0.21118 0.0
H1341 H 0.0991 0.69667 0.17211 0.0
H1342 H 0.05227 0.69758 0.24007 0.0
H1343 H 0.0071 0.67197 0.25152 0.0
C1344 C 0.37595 0.04164 0.5152 0.0
C1345 C 0.37023 0.03142 0.48365 0.0
C1346 C 0.33476 0.96714 0.49785 0.0
C1347 C 0.34043 0.97735 0.52942 0.0
N1348 N 0.37175 0.02261 0.56861 0.0
N1349 N 0.35107 0.98523 0.44447 0.0
C1350 C 0.36287 0.01415 0.53823 0.0
C1351 C 0.35187 0.99432 0.47484 0.0
N1352 N 0.39258 0.07759 0.52307 0.0
N1353 N 0.31187 0.93164 0.48995 0.0
H1354 H 0.3629 0.00456 0.42699 0.0
H1355 H 0.34134 0.95876 0.43674 0.0
H1356 H 0.29988 0.91077 0.50617 0.0
H1357 H 0.30303 0.92299 0.46753 0.0
H1358 H 0.39382 0.08686 0.5455 0.0
H1359 H 0.40358 0.09847 0.5068 0.0
H1360 H 0.3908 0.04841 0.57637 0.0
H1361 H 0.3621 0.00307 0.58604 0.0
C1362 C 0.34791 0.35975 0.86726 0.0
C1363 C 0.36155 0.33694 0.85773 0.0
C1364 C 0.35255 0.34659 0.80343 0.0
C1365 C 0.33533 0.36616 0.8131 0.0
N1366 N 0.31577 0.39153 0.85339 0.0
N1367 N 0.37682 0.30764 0.81761 0.0
C1368 C 0.33307 0.37308 0.84482 0.0
C1369 C 0.36424 0.33041 0.826 0.0
N1370 N 0.34943 0.36874 0.89774 0.0
N1371 N 0.35768 0.34357 0.77264 0.0
H1372 H 0.38734 0.29678 0.83339 0.0
H1373 H 0.37544 0.29801 0.7953 0.0
H1374 H 0.34802 0.35362 0.75539 0.0
H1375 H 0.37344 0.33318 0.76398 0.0
H1376 H 0.34326 0.38796 0.90607 0.0
H1377 H 0.3593 0.35866 0.91482 0.0
H1378 H 0.30923 0.39394 0.87606 0.0
H1379 H 0.30633 0.40334 0.83751 0.0
C1380 C 0.22553 0.39832 0.47312 0.0
C1381 C 0.18773 0.38624 0.47332 0.0
C1382 C 0.18591 0.37872 0.5292 0.0
C1383 C 0.22345 0.38955 0.52902 0.0
N1384 N 0.27744 0.40315 0.5007 0.0
N1385 N 0.13139 0.3637 0.50116 0.0
C1386 C 0.24281 0.3974 0.50088 0.0
C1387 C 0.16779 0.37572 0.50116 0.0
N1388 N 0.2452 0.41217 0.44666 0.0
N1389 N 0.16657 0.37162 0.55589 0.0
H1390 H 0.1168 0.36129 0.48109 0.0
H1391 H 0.11585 0.35581 0.52131 0.0
H1392 H 0.17728 0.37353 0.57791 0.0
H1393 H 0.17728 0.37353 0.57791 0.0
H1394 H 0.27339 0.425 0.44568 0.0
H1395 H 0.2336 0.41364 0.42596 0.0
H1396 H 0.2918 0.40522 0.48065 0.0
H1397 H 0.29082 0.40273 0.52074 0.0
C1398 C 0.85279 0.21199 0.82937 0.0
C1399 C 0.82953 0.20368 0.85514 0.0
C1400 C 0.77702 0.1631 0.82337 0.0
C1401 C 0.7994 0.1754 0.79689 0.0
N1402 N 0.85824 0.21326 0.77369 0.0
N1403 N 0.76911 0.17401 0.8768 0.0
C1404 C 0.83733 0.19999 0.79961 0.0
C1405 C 0.79152 0.17971 0.85225 0.0
N1406 N 0.88958 0.23121 0.83342 0.0
N1407 N 0.74197 0.13527 0.8208 0.0
H1408 H 0.77866 0.18561 0.89839 0.0
H1409 H 0.74091 0.16014 0.87525 0.0
H1410 H 0.7307 0.12256 0.79983 0.0
H1411 H 0.72521 0.12255 0.83967 0.0
H1412 H 0.90811 0.23493 0.81613 0.0
H1413 H 0.90166 0.24114 0.85486 0.0
H1414 H 0.88495 0.23463 0.77391 0.0
H1415 H 0.84828 0.20437 0.75153 0.0
C1416 C 0.61811 0.79124 0.19905 0.0
C1417 C 0.61682 0.82403 0.19718 0.0
C1418 C 0.61683 0.82151 0.14098 0.0
C1419 C 0.61754 0.78845 0.1426 0.0
N1420 N 0.62529 0.74496 0.17221 0.0
N1421 N 0.61712 0.87171 0.16677 0.0
C1422 C 0.62014 0.77424 0.17142 0.0
C1423 C 0.61713 0.83961 0.16832 0.0
N1424 N 0.61574 0.77559 0.22718 0.0
N1425 N 0.61564 0.83654 0.11353 0.0
H1426 H 0.61781 0.88638 0.18632 0.0
H1427 H 0.61701 0.88384 0.14586 0.0
H1428 H 0.61547 0.82557 0.09195 0.0
H1429 H 0.61547 0.82557 0.09195 0.0
H1430 H 0.61199 0.74964 0.23011 0.0
H1431 H 0.61554 0.78776 0.248 0.0
H1432 H 0.63111 0.73529 0.19219 0.0
H1433 H 0.62635 0.7317 0.15232 0.0
C1434 C 0.79606 0.6366 0.46635 0.0
C1435 C 0.82868 0.6358 0.47179 0.0
C1436 C 0.81927 0.63448 0.52732 0.0
C1437 C 0.786 0.634 0.52214 0.0
N1438 N 0.74619 0.64208 0.48787 0.0
N1439 N 0.87331 0.63751 0.50709 0.0
C1440 C 0.77552 0.63749 0.49192 0.0
C1441 C 0.84101 0.63631 0.50212 0.0
N1442 N 0.78381 0.63452 0.43682 0.0
N1443 N 0.83084 0.63254 0.55619 0.0
H1444 H 0.89059 0.63944 0.48918 0.0
H1445 H 0.88306 0.63742 0.52918 0.0
H1446 H 0.81685 0.63091 0.57643 0.0
H1447 H 0.81685 0.63091 0.57643 0.0
H1448 H 0.75824 0.63045 0.4313 0.0
H1449 H 0.7985 0.63492 0.41744 0.0
H1450 H 0.73889 0.64827 0.46679 0.0
H1451 H 0.73057 0.64248 0.50627 0.0
C1452 C 0.18349 0.80603 0.86287 0.0
C1453 C 0.15557 0.7689 0.8623 0.0
C1454 C 0.15973 0.76826 0.80605 0.0
C1455 C 0.18695 0.80563 0.80673 0.0
N1456 N 0.2238 0.86079 0.83541 0.0
N1457 N 0.11238 0.71646 0.83366 0.0
C1458 C 0.19817 0.82472 0.83496 0.0
C1459 C 0.14222 0.75055 0.83391 0.0
N1460 N 0.19732 0.82442 0.88978 0.0
N1461 N 0.15194 0.7493 0.77898 0.0
H1462 H 0.09917 0.70275 0.85379 0.0
H1463 H 0.09887 0.70296 0.81363 0.0
H1464 H 0.16442 0.76129 0.75819 0.0
H1465 H 0.13538 0.72124 0.7774 0.0
H1466 H 0.18894 0.81318 0.91171 0.0
H1467 H 0.18894 0.81318 0.91171 0.0
H1468 H 0.23284 0.87568 0.85586 0.0
H1469 H 0.23551 0.87582 0.81541 0.0
C1470 C 0.39278 0.14831 0.16689 0.0
C1471 C 0.38081 0.15873 0.19335 0.0
C1472 C 0.36388 0.19564 0.16126 0.0
C1473 C 0.37912 0.18783 0.13536 0.0
N1474 N 0.4068 0.15474 0.11341 0.0
N1475 N 0.35685 0.19389 0.21688 0.0
C1476 C 0.39296 0.16367 0.13806 0.0
C1477 C 0.36635 0.18245 0.19083 0.0
N1478 N 0.4048 0.124 0.16924 0.0
N1479 N 0.34671 0.2153 0.15744 0.0
H1480 H 0.35681 0.18382 0.23879 0.0
H1481 H 0.35076 0.21473 0.2172 0.0
H1482 H 0.34549 0.22632 0.13628 0.0
H1483 H 0.33151 0.21867 0.17457 0.0
H1484 H 0.41425 0.11601 0.15027 0.0
H1485 H 0.40437 0.11121 0.18992 0.0
H1486 H 0.40839 0.16467 0.09113 0.0
H1487 H 0.40839 0.16467 0.09113 0.0
loop_
_geom_bond_atom_site_label_1
_geom_bond_atom_site_label_2
_geom_bond_distance
_geom_bond_site_symmetry_2
_ccdc_geom_bond_type
Li0 N17 1.990 . S
Li0 O60 1.956 . S
Li0 O61 1.970 . S
Li0 O62 1.961 . S
Li1 N25 1.990 . S
Li1 O60 1.970 . S
Li1 O61 1.956 . S
Li1 O63 1.961 . S
Li2 N47 1.990 . S
Li2 O60 1.961 . S
Li2 O62 1.956 . S
Li2 O63 1.970 . S
Li3 N53 1.990 . S
Li3 O61 1.961 . S
Li3 O62 1.970 . S
Li3 O63 1.956 . S
C4 C6 1.348 . S
C4 C7 1.356 . S
C4 O60 1.325 . S
N5 C8 1.314 . S
N5 C9 1.279 . S
C6 C4 1.348 . S
C6 C8 1.353 . S
C6 H64 0.929 . S
C7 C4 1.356 . S
C7 C9 1.358 . S
C7 H65 0.930 . S
C8 N5 1.314 . S
C8 C6 1.353 . S
C8 H66 0.930 . S
C9 N5 1.279 . S
C9 C7 1.358 . S
C9 H67 0.930 . S
C10 C13 1.348 . S
C10 C14 1.356 . S
C10 O61 1.325 . S
C11 N12 1.279 . S
C11 C14 1.358 . S
C11 H68 0.930 . S
N12 C11 1.279 . S
N12 C15 1.314 . S
C13 C10 1.348 . S
C13 C15 1.353 . S
C13 H69 0.929 . S
C14 C10 1.356 . S
C14 C11 1.358 . S
C14 H70 0.930 . S
C15 N12 1.314 . S
C15 C13 1.353 . S
C15 H71 0.930 . S
C16 N17 1.314 . S
C16 C21 1.353 . S
C16 H22 0.930 . S
N17 Li0 1.990 . S
N17 C16 1.314 . S
N17 C19 1.279 . S
C18 C19 1.358 . S
C18 C20 1.356 . S
C18 H72 0.930 . S
C19 N17 1.279 . S
C19 C18 1.358 . S
C19 H23 0.930 . S
C20 C18 1.356 . S
C20 C21 1.348 . S
C21 C16 1.353 . S
C21 C20 1.348 . S
C21 H73 0.929 . S
H22 C16 0.930 . S
H23 C19 0.930 . S
C24 N25 1.314 . S
C24 C26 1.353 . S
C24 H30 0.930 . S
N25 Li1 1.990 . S
N25 C24 1.314 . S
N25 C28 1.279 . S
C26 C24 1.353 . S
C26 C29 1.348 . S
C26 H74 0.929 . S
C27 C28 1.358 . S
C27 C29 1.356 . S
C27 H75 0.930 . S
C28 N25 1.279 . S
C28 C27 1.358 . S
C28 H31 0.930 . S
C29 C26 1.348 . S
C29 C27 1.356 . S
H30 C24 0.930 . S
H31 C28 0.930 . S
C32 C34 1.348 . S
C32 C35 1.356 . S
C32 O62 1.325 . S
N33 C36 1.314 . S
N33 C37 1.279 . S
C34 C32 1.348 . S
C34 C36 1.353 . S
C34 H76 0.929 . S
C35 C32 1.356 . S
C35 C37 1.358 . S
C35 H77 0.930 . S
C36 N33 1.314 . S
C36 C34 1.353 . S
C36 H78 0.930 . S
C37 N33 1.279 . S
C37 C35 1.358 . S
C37 H79 0.930 . S
C38 C39 1.348 . S
C38 C40 1.356 . S
C38 O63 1.325 . S
C39 C38 1.348 . S
C39 C41 1.353 . S
C39 H80 0.929 . S
C40 C38 1.356 . S
C40 C42 1.358 . S
C40 H81 0.930 . S
C41 C39 1.353 . S
C41 N43 1.314 . S
C41 H82 0.930 . S
C42 C40 1.358 . S
C42 N43 1.279 . S
C42 H83 0.930 . S
N43 C41 1.314 . S
N43 C42 1.279 . S
C44 C46 1.353 . S
C44 N47 1.314 . S
C44 H50 0.930 . S
C45 N47 1.279 . S
C45 C48 1.358 . S
C45 H51 0.930 . S
C46 C44 1.353 . S
C46 C49 1.348 . S
C46 H84 0.929 . S
N47 Li2 1.990 . S
N47 C44 1.314 . S
N47 C45 1.279 . S
C48 C45 1.358 . S
C48 C49 1.356 . S
C48 H85 0.930 . S
C49 C46 1.348 . S
C49 C48 1.356 . S
H50 C44 0.930 . S
H51 C45 0.930 . S
C52 N53 1.314 . S
C52 C54 1.353 . S
C52 H58 0.930 . S
N53 Li3 1.990 . S
N53 C52 1.314 . S
N53 C56 1.279 . S
C54 C52 1.353 . S
C54 C57 1.348 . S
C54 H86 0.929 . S
C55 C56 1.358 . S
C55 C57 1.356 . S
C55 H87 0.930 . S
C56 N53 1.279 . S
C56 C55 1.358 . S
C56 H59 0.930 . S
C57 C54 1.348 . S
C57 C55 1.356 . S
H58 C52 0.930 . S
H59 C56 0.930 . S
O60 Li0 1.956 . S
O60 Li1 1.970 . S
O60 Li2 1.961 . S
O60 C4 1.325 . S
O61 Li0 1.970 . S
O61 Li1 1.956 . S
O61 Li3 1.961 . S
O61 C10 1.325 . S
O62 Li0 1.961 . S
O62 Li2 1.956 . S
O62 Li3 1.970 . S
O62 C32 1.325 . S
O63 Li1 1.961 . S
O63 Li2 1.970 . S
O63 Li3 1.956 . S
O63 C38 1.325 . S
H64 C6 0.929 . S
H65 C7 0.930 . S
H66 C8 0.930 . S
H67 C9 0.930 . S
H68 C11 0.930 . S
H69 C13 0.929 . S
H70 C14 0.930 . S
H71 C15 0.930 . S
H72 C18 0.930 . S
H73 C21 0.929 . S
H74 C26 0.929 . S
H75 C27 0.930 . S
H76 C34 0.929 . S
H77 C35 0.930 . S
H78 C36 0.930 . S
H79 C37 0.930 . S
H80 C39 0.929 . S
H81 C40 0.930 . S
H82 C41 0.930 . S
H83 C42 0.930 . S
H84 C46 0.929 . S
H85 C48 0.930 . S
H86 C54 0.929 . S
H87 C55 0.930 . S
Li88 N105 1.990 . S
Li88 O148 1.956 . S
Li88 O149 1.970 . S
Li88 O150 1.961 . S
Li89 N113 1.990 . S
Li89 O148 1.970 . S
Li89 O149 1.956 . S
Li89 O151 1.961 . S
Li90 N135 1.990 . S
Li90 O148 1.961 . S
Li90 O150 1.956 . S
Li90 O151 1.970 . S
Li91 N141 1.990 . S
Li91 O149 1.961 . S
Li91 O150 1.970 . S
Li91 O151 1.956 . S
C92 C94 1.348 . S
C92 C95 1.356 . S
C92 O148 1.325 . S
N93 C96 1.314 . S
N93 C97 1.279 . S
C94 C92 1.348 . S
C94 C96 1.353 . S
C94 H152 0.929 . S
C95 C92 1.356 . S
C95 C97 1.358 . S
C95 H153 0.930 . S
C96 N93 1.314 . S
C96 C94 1.353 . S
C96 H154 0.930 . S
C97 N93 1.279 . S
C97 C95 1.358 . S
C97 H155 0.930 . S
C98 C101 1.348 . S
C98 C102 1.356 . S
C98 O149 1.325 . S
C99 N100 1.279 . S
C99 C102 1.358 . S
C99 H156 0.930 . S
N100 C99 1.279 . S
N100 C103 1.314 . S
C101 C98 1.348 . S
C101 C103 1.353 . S
C101 H157 0.929 . S
C102 C98 1.356 . S
C102 C99 1.358 . S
C102 H158 0.930 . S
C103 N100 1.314 . S
C103 C101 1.353 . S
C103 H159 0.930 . S
C104 N105 1.314 . S
C104 C109 1.353 . S
C104 H110 0.930 . S
N105 Li88 1.990 . S
N105 C104 1.314 . S
N105 C107 1.279 . S
C106 C107 1.358 . S
C106 C108 1.356 . S
C106 H160 0.930 . S
C107 N105 1.279 . S
C107 C106 1.358 . S
C107 H111 0.930 . S
C108 C106 1.356 . S
C108 C109 1.348 . S
C109 C104 1.353 . S
C109 C108 1.348 . S
C109 H161 0.929 . S
H110 C104 0.930 . S
H111 C107 0.930 . S
C112 N113 1.314 . S
C112 C114 1.353 . S
C112 H118 0.930 . S
N113 Li89 1.990 . S
N113 C112 1.314 . S
N113 C116 1.279 . S
C114 C112 1.353 . S
C114 C117 1.348 . S
C114 H162 0.929 . S
C115 C116 1.358 . S
C115 C117 1.356 . S
C115 H163 0.930 . S
C116 N113 1.279 . S
C116 C115 1.358 . S
C116 H119 0.930 . S
C117 C114 1.348 . S
C117 C115 1.356 . S
H118 C112 0.930 . S
H119 C116 0.930 . S
C120 C122 1.348 . S
C120 C123 1.356 . S
C120 O150 1.325 . S
N121 C124 1.314 . S
N121 C125 1.279 . S
C122 C120 1.348 . S
C122 C124 1.353 . S
C122 H164 0.929 . S
C123 C120 1.356 . S
C123 C125 1.358 . S
C123 H165 0.930 . S
C124 N121 1.314 . S
C124 C122 1.353 . S
C124 H166 0.930 . S
C125 N121 1.279 . S
C125 C123 1.358 . S
C125 H167 0.930 . S
C126 C127 1.348 . S
C126 C128 1.356 . S
C126 O151 1.325 . S
C127 C126 1.348 . S
C127 C129 1.353 . S
C127 H168 0.929 . S
C128 C126 1.356 . S
C128 C130 1.358 . S
C128 H169 0.930 . S
C129 C127 1.353 . S
C129 N131 1.314 . S
C129 H170 0.930 . S
C130 C128 1.358 . S
C130 N131 1.279 . S
C130 H171 0.930 . S
N131 C129 1.314 . S
N131 C130 1.279 . S
C132 C134 1.353 . S
C132 N135 1.314 . S
C132 H138 0.930 . S
C133 N135 1.279 . S
C133 C136 1.358 . S
C133 H139 0.930 . S
C134 C132 1.353 . S
C134 C137 1.348 . S
C134 H172 0.929 . S
N135 Li90 1.990 . S
N135 C132 1.314 . S
N135 C133 1.279 . S
C136 C133 1.358 . S
C136 C137 1.356 . S
C136 H173 0.930 . S
C137 C134 1.348 . S
C137 C136 1.356 . S
H138 C132 0.930 . S
H139 C133 0.930 . S
C140 N141 1.314 . S
C140 C142 1.353 . S
C140 H146 0.930 . S
N141 Li91 1.990 . S
N141 C140 1.314 . S
N141 C144 1.279 . S
C142 C140 1.353 . S
C142 C145 1.348 . S
C142 H174 0.929 . S
C143 C144 1.358 . S
C143 C145 1.356 . S
C143 H175 0.930 . S
C144 N141 1.279 . S
C144 C143 1.358 . S
C144 H147 0.930 . S
C145 C142 1.348 . S
C145 C143 1.356 . S
H146 C140 0.930 . S
H147 C144 0.930 . S
O148 Li88 1.956 . S
O148 Li89 1.970 . S
O148 Li90 1.961 . S
O148 C92 1.325 . S
O149 Li88 1.970 . S
O149 Li89 1.956 . S
O149 Li91 1.961 . S
O149 C98 1.325 . S
O150 Li88 1.961 . S
O150 Li90 1.956 . S
O150 Li91 1.970 . S
O150 C120 1.325 . S
O151 Li89 1.961 . S
O151 Li90 1.970 . S
O151 Li91 1.956 . S
O151 C126 1.325 . S
H152 C94 0.929 . S
H153 C95 0.930 . S
H154 C96 0.930 . S
H155 C97 0.930 . S
H156 C99 0.930 . S
H157 C101 0.929 . S
H158 C102 0.930 . S
H159 C103 0.930 . S
H160 C106 0.930 . S
H161 C109 0.929 . S
H162 C114 0.929 . S
H163 C115 0.930 . S
H164 C122 0.929 . S
H165 C123 0.930 . S
H166 C124 0.930 . S
H167 C125 0.930 . S
H168 C127 0.929 . S
H169 C128 0.930 . S
H170 C129 0.930 . S
H171 C130 0.930 . S
H172 C134 0.929 . S
H173 C136 0.930 . S
H174 C142 0.929 . S
H175 C143 0.930 . S
Li176 N193 1.990 . S
Li176 O236 1.956 . S
Li176 O237 1.970 . S
Li176 O238 1.961 . S
Li177 N201 1.990 . S
Li177 O236 1.970 1_556 S
Li177 O237 1.956 1_556 S
Li177 O239 1.961 . S
Li178 N223 1.990 . S
Li178 O236 1.961 1_556 S
Li178 O238 1.956 1_556 S
Li178 O239 1.970 . S
Li179 N229 1.990 . S
Li179 O237 1.961 1_556 S
Li179 O238 1.970 1_556 S
Li179 O239 1.956 . S
C180 C182 1.348 . S
C180 C183 1.356 . S
C180 O236 1.325 . S
N181 C184 1.314 . S
N181 C185 1.279 . S
C182 C180 1.348 . S
C182 C184 1.353 . S
C182 H240 0.929 . S
C183 C180 1.356 . S
C183 C185 1.358 . S
C183 H241 0.930 . S
C184 N181 1.314 . S
C184 C182 1.353 . S
C184 H242 0.930 . S
C185 N181 1.279 . S
C185 C183 1.358 . S
C185 H243 0.930 . S
C186 C189 1.348 . S
C186 C190 1.356 . S
C186 O237 1.325 . S
C187 N188 1.279 . S
C187 C190 1.358 . S
C187 H244 0.930 . S
N188 C187 1.279 . S
N188 C191 1.314 . S
C189 C186 1.348 . S
C189 C191 1.353 . S
C189 H245 0.929 . S
C190 C186 1.356 . S
C190 C187 1.358 . S
C190 H246 0.930 . S
C191 N188 1.314 . S
C191 C189 1.353 . S
C191 H247 0.930 . S
C192 N193 1.314 . S
C192 C197 1.353 . S
C192 H198 0.930 . S
N193 Li176 1.990 . S
N193 C192 1.314 . S
N193 C195 1.279 . S
C194 C195 1.358 . S
C194 C196 1.356 . S
C194 H248 0.930 . S
C195 N193 1.279 . S
C195 C194 1.358 . S
C195 H199 0.930 . S
C196 C194 1.356 . S
C196 C197 1.348 . S
C197 C192 1.353 . S
C197 C196 1.348 . S
C197 H249 0.929 . S
H198 C192 0.930 . S
H199 C195 0.930 . S
C200 N201 1.314 . S
C200 C202 1.353 . S
C200 H206 0.930 . S
N201 Li177 1.990 . S
N201 C200 1.314 . S
N201 C204 1.279 1_556 S
C202 C200 1.353 . S
C202 C205 1.348 . S
C202 H250 0.929 . S
C203 C204 1.358 1_556 S
C203 C205 1.356 . S
C203 H251 0.930 1_556 S
C204 N201 1.279 1_554 S
C204 C203 1.358 1_554 S
C204 H207 0.930 . S
C205 C202 1.348 . S
C205 C203 1.356 . S
H206 C200 0.930 . S
H207 C204 0.930 . S
C208 C210 1.348 . S
C208 C211 1.356 . S
C208 O238 1.325 . S
N209 C212 1.314 . S
N209 C213 1.279 . S
C210 C208 1.348 . S
C210 C212 1.353 . S
C210 H252 0.929 1_554 S
C211 C208 1.356 . S
C211 C213 1.358 . S
C211 H253 0.930 . S
C212 N209 1.314 . S
C212 C210 1.353 . S
C212 H254 0.930 . S
C213 N209 1.279 . S
C213 C211 1.358 . S
C213 H255 0.930 . S
C214 C215 1.348 . S
C214 C216 1.356 . S
C214 O239 1.325 . S
C215 C214 1.348 . S
C215 C217 1.353 . S
C215 H256 0.929 . S
C216 C214 1.356 . S
C216 C218 1.358 . S
C216 H257 0.930 . S
C217 C215 1.353 . S
C217 N219 1.314 . S
C217 H258 0.930 . S
C218 C216 1.358 . S
C218 N219 1.279 . S
C218 H259 0.930 . S
N219 C217 1.314 . S
N219 C218 1.279 . S
C220 C222 1.353 . S
C220 N223 1.314 . S
C220 H226 0.930 . S
C221 N223 1.279 . S
C221 C224 1.358 . S
C221 H227 0.930 . S
C222 C220 1.353 . S
C222 C225 1.348 . S
C222 H260 0.929 . S
N223 Li178 1.990 . S
N223 C220 1.314 . S
N223 C221 1.279 . S
C224 C221 1.358 . S
C224 C225 1.356 . S
C224 H261 0.930 . S
C225 C222 1.348 . S
C225 C224 1.356 . S
H226 C220 0.930 . S
H227 C221 0.930 . S
C228 N229 1.314 1_554 S
C228 C230 1.353 . S
C228 H234 0.930 . S
N229 Li179 1.990 . S
N229 C228 1.314 1_556 S
N229 C232 1.279 . S
C230 C228 1.353 . S
C230 C233 1.348 1_554 S
C230 H262 0.929 . S
C231 C232 1.358 . S
C231 C233 1.356 . S
C231 H263 0.930 . S
C232 N229 1.279 . S
C232 C231 1.358 . S
C232 H235 0.930 . S
C233 C230 1.348 1_556 S
C233 C231 1.356 . S
H234 C228 0.930 . S
H235 C232 0.930 . S
O236 Li176 1.956 . S
O236 Li177 1.970 1_554 S
O236 Li178 1.961 1_554 S
O236 C180 1.325 . S
O237 Li176 1.970 . S
O237 Li177 1.956 1_554 S
O237 Li179 1.961 1_554 S
O237 C186 1.325 . S
O238 Li176 1.961 . S
O238 Li178 1.956 1_554 S
O238 Li179 1.970 1_554 S
O238 C208 1.325 . S
O239 Li177 1.961 . S
O239 Li178 1.970 . S
O239 Li179 1.956 . S
O239 C214 1.325 . S
H240 C182 0.929 . S
H241 C183 0.930 . S
H242 C184 0.930 . S
H243 C185 0.930 . S
H244 C187 0.930 . S
H245 C189 0.929 . S
H246 C190 0.930 . S
H247 C191 0.930 . S
H248 C194 0.930 . S
H249 C197 0.929 . S
H250 C202 0.929 . S
H251 C203 0.930 1_554 S
H252 C210 0.929 1_556 S
H253 C211 0.930 . S
H254 C212 0.930 . S
H255 C213 0.930 . S
H256 C215 0.929 . S
H257 C216 0.930 . S
H258 C217 0.930 . S
H259 C218 0.930 . S
H260 C222 0.929 . S
H261 C224 0.930 . S
H262 C230 0.929 . S
H263 C231 0.930 . S
Li264 N281 1.990 . S
Li264 O324 1.956 . S
Li264 O325 1.970 . S
Li264 O326 1.961 . S
Li265 N289 1.990 . S
Li265 O324 1.970 . S
Li265 O325 1.956 . S
Li265 O327 1.961 . S
Li266 N311 1.990 . S
Li266 O324 1.961 . S
Li266 O326 1.956 . S
Li266 O327 1.970 . S
Li267 N317 1.990 . S
Li267 O325 1.961 . S
Li267 O326 1.970 . S
Li267 O327 1.956 . S
C268 C270 1.348 . S
C268 C271 1.356 . S
C268 O324 1.325 . S
N269 C272 1.314 . S
N269 C273 1.279 . S
C270 C268 1.348 . S
C270 C272 1.353 . S
C270 H328 0.929 . S
C271 C268 1.356 . S
C271 C273 1.358 . S
C271 H329 0.930 . S
C272 N269 1.314 . S
C272 C270 1.353 . S
C272 H330 0.930 . S
C273 N269 1.279 . S
C273 C271 1.358 . S
C273 H331 0.930 . S
C274 C277 1.348 . S
C274 C278 1.356 . S
C274 O325 1.325 . S
C275 N276 1.279 . S
C275 C278 1.358 . S
C275 H332 0.930 . S
N276 C275 1.279 . S
N276 C279 1.314 . S
C277 C274 1.348 . S
C277 C279 1.353 . S
C277 H333 0.929 . S
C278 C274 1.356 . S
C278 C275 1.358 . S
C278 H334 0.930 . S
C279 N276 1.314 . S
C279 C277 1.353 . S
C279 H335 0.930 . S
C280 N281 1.314 . S
C280 C285 1.353 . S
C280 H286 0.930 . S
N281 Li264 1.990 . S
N281 C280 1.314 . S
N281 C283 1.279 . S
C282 C283 1.358 . S
C282 C284 1.356 . S
C282 H336 0.930 . S
C283 N281 1.279 . S
C283 C282 1.358 . S
C283 H287 0.930 . S
C284 C282 1.356 . S
C284 C285 1.348 . S
C285 C280 1.353 . S
C285 C284 1.348 . S
C285 H337 0.929 . S
H286 C280 0.930 . S
H287 C283 0.930 . S
C288 N289 1.314 . S
C288 C290 1.353 . S
C288 H294 0.930 . S
N289 Li265 1.990 . S
N289 C288 1.314 . S
N289 C292 1.279 . S
C290 C288 1.353 . S
C290 C293 1.348 . S
C290 H338 0.929 . S
C291 C292 1.358 . S
C291 C293 1.356 . S
C291 H339 0.930 . S
C292 N289 1.279 . S
C292 C291 1.358 . S
C292 H295 0.930 . S
C293 C290 1.348 . S
C293 C291 1.356 . S
H294 C288 0.930 . S
H295 C292 0.930 . S
C296 C298 1.348 . S
C296 C299 1.356 . S
C296 O326 1.325 . S
N297 C300 1.314 . S
N297 C301 1.279 . S
C298 C296 1.348 . S
C298 C300 1.353 . S
C298 H340 0.929 . S
C299 C296 1.356 . S
C299 C301 1.358 . S
C299 H341 0.930 . S
C300 N297 1.314 . S
C300 C298 1.353 . S
C300 H342 0.930 . S
C301 N297 1.279 . S
C301 C299 1.358 . S
C301 H343 0.930 . S
C302 C303 1.348 . S
C302 C304 1.356 . S
C302 O327 1.325 . S
C303 C302 1.348 . S
C303 C305 1.353 . S
C303 H344 0.929 . S
C304 C302 1.356 . S
C304 C306 1.358 . S
C304 H345 0.930 . S
C305 C303 1.353 . S
C305 N307 1.314 . S
C305 H346 0.930 . S
C306 C304 1.358 . S
C306 N307 1.279 . S
C306 H347 0.930 . S
N307 C305 1.314 . S
N307 C306 1.279 . S
C308 C310 1.353 . S
C308 N311 1.314 . S
C308 H314 0.930 . S
C309 N311 1.279 . S
C309 C312 1.358 . S
C309 H315 0.930 . S
C310 C308 1.353 . S
C310 C313 1.348 . S
C310 H348 0.929 . S
N311 Li266 1.990 . S
N311 C308 1.314 . S
N311 C309 1.279 . S
C312 C309 1.358 . S
C312 C313 1.356 . S
C312 H349 0.930 . S
C313 C310 1.348 . S
C313 C312 1.356 . S
H314 C308 0.930 . S
H315 C309 0.930 . S
C316 N317 1.314 . S
C316 C318 1.353 . S
C316 H322 0.930 . S
N317 Li267 1.990 . S
N317 C316 1.314 . S
N317 C320 1.279 . S
C318 C316 1.353 . S
C318 C321 1.348 . S
C318 H350 0.929 . S
C319 C320 1.358 . S
C319 C321 1.356 . S
C319 H351 0.930 . S
C320 N317 1.279 . S
C320 C319 1.358 . S
C320 H323 0.930 . S
C321 C318 1.348 . S
C321 C319 1.356 . S
H322 C316 0.930 . S
H323 C320 0.930 . S
O324 Li264 1.956 . S
O324 Li265 1.970 . S
O324 Li266 1.961 . S
O324 C268 1.325 . S
O325 Li264 1.970 . S
O325 Li265 1.956 . S
O325 Li267 1.961 . S
O325 C274 1.325 . S
O326 Li264 1.961 . S
O326 Li266 1.956 . S
O326 Li267 1.970 . S
O326 C296 1.325 . S
O327 Li265 1.961 . S
O327 Li266 1.970 . S
O327 Li267 1.956 . S
O327 C302 1.325 . S
H328 C270 0.929 . S
H329 C271 0.930 . S
H330 C272 0.930 . S
H331 C273 0.930 . S
H332 C275 0.930 . S
H333 C277 0.929 . S
H334 C278 0.930 . S
H335 C279 0.930 . S
H336 C282 0.930 . S
H337 C285 0.929 . S
H338 C290 0.929 . S
H339 C291 0.930 . S
H340 C298 0.929 . S
H341 C299 0.930 . S
H342 C300 0.930 . S
H343 C301 0.930 . S
H344 C303 0.929 . S
H345 C304 0.930 . S
H346 C305 0.930 . S
H347 C306 0.930 . S
H348 C310 0.929 . S
H349 C312 0.930 . S
H350 C318 0.929 . S
H351 C319 0.930 . S
Li352 N369 1.990 . S
Li352 O412 1.956 . S
Li352 O413 1.970 . S
Li352 O414 1.961 . S
Li353 N377 1.990 . S
Li353 O412 1.970 . S
Li353 O413 1.956 . S
Li353 O415 1.961 . S
Li354 N399 1.990 . S
Li354 O412 1.961 . S
Li354 O414 1.956 . S
Li354 O415 1.970 . S
Li355 N405 1.990 . S
Li355 O413 1.961 . S
Li355 O414 1.970 . S
Li355 O415 1.956 . S
C356 C358 1.348 . S
C356 C359 1.356 . S
C356 O412 1.325 . S
N357 C360 1.314 . S
N357 C361 1.279 . S
C358 C356 1.348 . S
C358 C360 1.353 . S
C358 H416 0.929 . S
C359 C356 1.356 . S
C359 C361 1.358 . S
C359 H417 0.930 . S
C360 N357 1.314 . S
C360 C358 1.353 . S
C360 H418 0.930 . S
C361 N357 1.279 . S
C361 C359 1.358 . S
C361 H419 0.930 . S
C362 C365 1.348 . S
C362 C366 1.356 . S
C362 O413 1.325 . S
C363 N364 1.279 . S
C363 C366 1.358 . S
C363 H420 0.930 . S
N364 C363 1.279 . S
N364 C367 1.314 . S
C365 C362 1.348 . S
C365 C367 1.353 . S
C365 H421 0.929 . S
C366 C362 1.356 . S
C366 C363 1.358 . S
C366 H422 0.930 . S
C367 N364 1.314 . S
C367 C365 1.353 . S
C367 H423 0.930 . S
C368 N369 1.314 . S
C368 C373 1.353 . S
C368 H374 0.930 . S
N369 Li352 1.990 . S
N369 C368 1.314 . S
N369 C371 1.279 . S
C370 C371 1.358 . S
C370 C372 1.356 . S
C370 H424 0.930 . S
C371 N369 1.279 . S
C371 C370 1.358 . S
C371 H375 0.930 . S
C372 C370 1.356 . S
C372 C373 1.348 . S
C373 C368 1.353 . S
C373 C372 1.348 . S
C373 H425 0.929 . S
H374 C368 0.930 . S
H375 C371 0.930 . S
C376 N377 1.314 . S
C376 C378 1.353 . S
C376 H382 0.930 . S
N377 Li353 1.990 . S
N377 C376 1.314 . S
N377 C380 1.279 . S
C378 C376 1.353 . S
C378 C381 1.348 . S
C378 H426 0.929 . S
C379 C380 1.358 . S
C379 C381 1.356 . S
C379 H427 0.930 . S
C380 N377 1.279 . S
C380 C379 1.358 . S
C380 H383 0.930 . S
C381 C378 1.348 . S
C381 C379 1.356 . S
H382 C376 0.930 . S
H383 C380 0.930 . S
C384 C386 1.348 . S
C384 C387 1.356 . S
C384 O414 1.325 . S
N385 C388 1.314 . S
N385 C389 1.279 . S
C386 C384 1.348 . S
C386 C388 1.353 . S
C386 H428 0.929 . S
C387 C384 1.356 . S
C387 C389 1.358 . S
C387 H429 0.930 . S
C388 N385 1.314 . S
C388 C386 1.353 . S
C388 H430 0.930 . S
C389 N385 1.279 . S
C389 C387 1.358 . S
C389 H431 0.930 . S
C390 C391 1.348 . S
C390 C392 1.356 . S
C390 O415 1.325 . S
C391 C390 1.348 . S
C391 C393 1.353 . S
C391 H432 0.929 . S
C392 C390 1.356 . S
C392 C394 1.358 . S
C392 H433 0.930 . S
C393 C391 1.353 . S
C393 N395 1.314 . S
C393 H434 0.930 . S
C394 C392 1.358 . S
C394 N395 1.279 . S
C394 H435 0.930 . S
N395 C393 1.314 . S
N395 C394 1.279 . S
C396 C398 1.353 . S
C396 N399 1.314 . S
C396 H402 0.930 . S
C397 N399 1.279 . S
C397 C400 1.358 . S
C397 H403 0.930 . S
C398 C396 1.353 . S
C398 C401 1.348 . S
C398 H436 0.929 . S
N399 Li354 1.990 . S
N399 C396 1.314 . S
N399 C397 1.279 . S
C400 C397 1.358 . S
C400 C401 1.356 . S
C400 H437 0.930 . S
C401 C398 1.348 . S
C401 C400 1.356 . S
H402 C396 0.930 . S
H403 C397 0.930 . S
C404 N405 1.314 . S
C404 C406 1.353 . S
C404 H410 0.930 . S
N405 Li355 1.990 . S
N405 C404 1.314 . S
N405 C408 1.279 . S
C406 C404 1.353 . S
C406 C409 1.348 . S
C406 H438 0.929 . S
C407 C408 1.358 . S
C407 C409 1.356 . S
C407 H439 0.930 . S
C408 N405 1.279 . S
C408 C407 1.358 . S
C408 H411 0.930 . S
C409 C406 1.348 . S
C409 C407 1.356 . S
H410 C404 0.930 . S
H411 C408 0.930 . S
O412 Li352 1.956 . S
O412 Li353 1.970 . S
O412 Li354 1.961 . S
O412 C356 1.325 . S
O413 Li352 1.970 . S
O413 Li353 1.956 . S
O413 Li355 1.961 . S
O413 C362 1.325 . S
O414 Li352 1.961 . S
O414 Li354 1.956 . S
O414 Li355 1.970 . S
O414 C384 1.325 . S
O415 Li353 1.961 . S
O415 Li354 1.970 . S
O415 Li355 1.956 . S
O415 C390 1.325 . S
H416 C358 0.929 . S
H417 C359 0.930 . S
H418 C360 0.930 . S
H419 C361 0.930 . S
H420 C363 0.930 . S
H421 C365 0.929 . S
H422 C366 0.930 . S
H423 C367 0.930 . S
H424 C370 0.930 . S
H425 C373 0.929 . S
H426 C378 0.929 . S
H427 C379 0.930 . S
H428 C386 0.929 . S
H429 C387 0.930 . S
H430 C388 0.930 . S
H431 C389 0.930 . S
H432 C391 0.929 . S
H433 C392 0.930 . S
H434 C393 0.930 . S
H435 C394 0.930 . S
H436 C398 0.929 . S
H437 C400 0.930 . S
H438 C406 0.929 . S
H439 C407 0.930 . S
Li440 N457 1.990 . S
Li440 O500 1.956 1_556 S
Li440 O501 1.970 1_556 S
Li440 O502 1.961 . S
Li441 N465 1.990 . S
Li441 O500 1.970 . S
Li441 O501 1.956 . S
Li441 O503 1.961 . S
Li442 N487 1.990 . S
Li442 O500 1.961 1_556 S
Li442 O502 1.956 . S
Li442 O503 1.970 1_556 S
Li443 N493 1.990 . S
Li443 O501 1.961 1_556 S
Li443 O502 1.970 . S
Li443 O503 1.956 1_556 S
C444 C446 1.348 . S
C444 C447 1.356 . S
C444 O500 1.325 . S
N445 C448 1.314 . S
N445 C449 1.279 . S
C446 C444 1.348 . S
C446 C448 1.353 . S
C446 H504 0.929 . S
C447 C444 1.356 . S
C447 C449 1.358 . S
C447 H505 0.930 . S
C448 N445 1.314 . S
C448 C446 1.353 . S
C448 H506 0.930 . S
C449 N445 1.279 . S
C449 C447 1.358 . S
C449 H507 0.930 . S
C450 C453 1.348 . S
C450 C454 1.356 . S
C450 O501 1.325 . S
C451 N452 1.279 . S
C451 C454 1.358 . S
C451 H508 0.930 . S
N452 C451 1.279 . S
N452 C455 1.314 . S
C453 C450 1.348 . S
C453 C455 1.353 . S
C453 H509 0.929 . S
C454 C450 1.356 . S
C454 C451 1.358 . S
C454 H510 0.930 . S
C455 N452 1.314 . S
C455 C453 1.353 . S
C455 H511 0.930 . S
C456 N457 1.314 . S
C456 C461 1.353 . S
C456 H462 0.930 . S
N457 Li440 1.990 . S
N457 C456 1.314 . S
N457 C459 1.279 1_556 S
C458 C459 1.358 1_556 S
C458 C460 1.356 . S
C458 H512 0.930 1_556 S
C459 N457 1.279 1_554 S
C459 C458 1.358 1_554 S
C459 H463 0.930 . S
C460 C458 1.356 . S
C460 C461 1.348 . S
C461 C456 1.353 . S
C461 C460 1.348 . S
C461 H513 0.929 . S
H462 C456 0.930 . S
H463 C459 0.930 . S
C464 N465 1.314 . S
C464 C466 1.353 . S
C464 H470 0.930 . S
N465 Li441 1.990 . S
N465 C464 1.314 . S
N465 C468 1.279 . S
C466 C464 1.353 . S
C466 C469 1.348 . S
C466 H514 0.929 . S
C467 C468 1.358 . S
C467 C469 1.356 . S
C467 H515 0.930 . S
C468 N465 1.279 . S
C468 C467 1.358 . S
C468 H471 0.930 . S
C469 C466 1.348 . S
C469 C467 1.356 . S
H470 C464 0.930 . S
H471 C468 0.930 . S
C472 C474 1.348 . S
C472 C475 1.356 . S
C472 O502 1.325 . S
N473 C476 1.314 . S
N473 C477 1.279 . S
C474 C472 1.348 . S
C474 C476 1.353 . S
C474 H516 0.929 . S
C475 C472 1.356 . S
C475 C477 1.358 . S
C475 H517 0.930 . S
C476 N473 1.314 . S
C476 C474 1.353 . S
C476 H518 0.930 . S
C477 N473 1.279 . S
C477 C475 1.358 . S
C477 H519 0.930 . S
C478 C479 1.348 . S
C478 C480 1.356 . S
C478 O503 1.325 . S
C479 C478 1.348 . S
C479 C481 1.353 . S
C479 H520 0.929 1_554 S
C480 C478 1.356 . S
C480 C482 1.358 . S
C480 H521 0.930 . S
C481 C479 1.353 . S
C481 N483 1.314 . S
C481 H522 0.930 . S
C482 C480 1.358 . S
C482 N483 1.279 . S
C482 H523 0.930 . S
N483 C481 1.314 . S
N483 C482 1.279 . S
C484 C486 1.353 . S
C484 N487 1.314 1_554 S
C484 H490 0.930 . S
C485 N487 1.279 . S
C485 C488 1.358 . S
C485 H491 0.930 . S
C486 C484 1.353 . S
C486 C489 1.348 1_554 S
C486 H524 0.929 . S
N487 Li442 1.990 . S
N487 C484 1.314 1_556 S
N487 C485 1.279 . S
C488 C485 1.358 . S
C488 C489 1.356 . S
C488 H525 0.930 . S
C489 C486 1.348 1_556 S
C489 C488 1.356 . S
H490 C484 0.930 . S
H491 C485 0.930 . S
C492 N493 1.314 . S
C492 C494 1.353 . S
C492 H498 0.930 . S
N493 Li443 1.990 . S
N493 C492 1.314 . S
N493 C496 1.279 . S
C494 C492 1.353 . S
C494 C497 1.348 . S
C494 H526 0.929 . S
C495 C496 1.358 . S
C495 C497 1.356 . S
C495 H527 0.930 . S
C496 N493 1.279 . S
C496 C495 1.358 . S
C496 H499 0.930 . S
C497 C494 1.348 . S
C497 C495 1.356 . S
H498 C492 0.930 . S
H499 C496 0.930 . S
O500 Li440 1.956 1_554 S
O500 Li441 1.970 . S
O500 Li442 1.961 1_554 S
O500 C444 1.325 . S
O501 Li440 1.970 1_554 S
O501 Li441 1.956 . S
O501 Li443 1.961 1_554 S
O501 C450 1.325 . S
O502 Li440 1.961 . S
O502 Li442 1.956 . S
O502 Li443 1.970 . S
O502 C472 1.325 . S
O503 Li441 1.961 . S
O503 Li442 1.970 1_554 S
O503 Li443 1.956 1_554 S
O503 C478 1.325 . S
H504 C446 0.929 . S
H505 C447 0.930 . S
H506 C448 0.930 . S
H507 C449 0.930 . S
H508 C451 0.930 . S
H509 C453 0.929 . S
H510 C454 0.930 . S
H511 C455 0.930 . S
H512 C458 0.930 1_554 S
H513 C461 0.929 . S
H514 C466 0.929 . S
H515 C467 0.930 . S
H516 C474 0.929 . S
H517 C475 0.930 . S
H518 C476 0.930 . S
H519 C477 0.930 . S
H520 C479 0.929 1_556 S
H521 C480 0.930 . S
H522 C481 0.930 . S
H523 C482 0.930 . S
H524 C486 0.929 . S
H525 C488 0.930 . S
H526 C494 0.929 . S
H527 C495 0.930 . S
Li528 N545 1.990 . S
Li528 O588 1.956 . S
Li528 O589 1.970 . S
Li528 O590 1.961 . S
Li529 N553 1.990 . S
Li529 O588 1.970 . S
Li529 O589 1.956 . S
Li529 O591 1.961 . S
Li530 N575 1.990 . S
Li530 O588 1.961 . S
Li530 O590 1.956 . S
Li530 O591 1.970 . S
Li531 N581 1.990 . S
Li531 O589 1.961 . S
Li531 O590 1.970 . S
Li531 O591 1.956 . S
C532 C534 1.348 . S
C532 C535 1.356 . S
C532 O588 1.325 . S
N533 C536 1.314 . S
N533 C537 1.279 . S
C534 C532 1.348 . S
C534 C536 1.353 . S
C534 H592 0.929 . S
C535 C532 1.356 . S
C535 C537 1.358 . S
C535 H593 0.930 . S
C536 N533 1.314 . S
C536 C534 1.353 . S
C536 H594 0.930 . S
C537 N533 1.279 . S
C537 C535 1.358 . S
C537 H595 0.930 . S
C538 C541 1.348 . S
C538 C542 1.356 . S
C538 O589 1.325 . S
C539 N540 1.279 . S
C539 C542 1.358 . S
C539 H596 0.930 . S
N540 C539 1.279 . S
N540 C543 1.314 . S
C541 C538 1.348 . S
C541 C543 1.353 . S
C541 H597 0.929 . S
C542 C538 1.356 . S
C542 C539 1.358 . S
C542 H598 0.930 . S
C543 N540 1.314 . S
C543 C541 1.353 . S
C543 H599 0.930 . S
C544 N545 1.314 . S
C544 C549 1.353 . S
C544 H550 0.930 . S
N545 Li528 1.990 . S
N545 C544 1.314 . S
N545 C547 1.279 . S
C546 C547 1.358 . S
C546 C548 1.356 . S
C546 H600 0.930 . S
C547 N545 1.279 . S
C547 C546 1.358 . S
C547 H551 0.930 . S
C548 C546 1.356 . S
C548 C549 1.348 . S
C549 C544 1.353 . S
C549 C548 1.348 . S
C549 H601 0.929 . S
H550 C544 0.930 . S
H551 C547 0.930 . S
C552 N553 1.314 . S
C552 C554 1.353 . S
C552 H558 0.930 . S
N553 Li529 1.990 . S
N553 C552 1.314 . S
N553 C556 1.279 . S
C554 C552 1.353 . S
C554 C557 1.348 . S
C554 H602 0.929 . S
C555 C556 1.358 . S
C555 C557 1.356 . S
C555 H603 0.930 . S
C556 N553 1.279 . S
C556 C555 1.358 . S
C556 H559 0.930 . S
C557 C554 1.348 . S
C557 C555 1.356 . S
H558 C552 0.930 . S
H559 C556 0.930 . S
C560 C562 1.348 . S
C560 C563 1.356 . S
C560 O590 1.325 . S
N561 C564 1.314 . S
N561 C565 1.279 . S
C562 C560 1.348 . S
C562 C564 1.353 . S
C562 H604 0.929 . S
C563 C560 1.356 . S
C563 C565 1.358 . S
C563 H605 0.930 . S
C564 N561 1.314 . S
C564 C562 1.353 . S
C564 H606 0.930 . S
C565 N561 1.279 . S
C565 C563 1.358 . S
C565 H607 0.930 . S
C566 C567 1.348 . S
C566 C568 1.356 . S
C566 O591 1.325 . S
C567 C566 1.348 . S
C567 C569 1.353 . S
C567 H608 0.929 . S
C568 C566 1.356 . S
C568 C570 1.358 . S
C568 H609 0.930 . S
C569 C567 1.353 . S
C569 N571 1.314 . S
C569 H610 0.930 . S
C570 C568 1.358 . S
C570 N571 1.279 . S
C570 H611 0.930 . S
N571 C569 1.314 . S
N571 C570 1.279 . S
C572 C574 1.353 . S
C572 N575 1.314 . S
C572 H578 0.930 . S
C573 N575 1.279 . S
C573 C576 1.358 . S
C573 H579 0.930 . S
C574 C572 1.353 . S
C574 C577 1.348 . S
C574 H612 0.929 . S
N575 Li530 1.990 . S
N575 C572 1.314 . S
N575 C573 1.279 . S
C576 C573 1.358 . S
C576 C577 1.356 . S
C576 H613 0.930 . S
C577 C574 1.348 . S
C577 C576 1.356 . S
H578 C572 0.930 . S
H579 C573 0.930 . S
C580 N581 1.314 . S
C580 C582 1.353 . S
C580 H586 0.930 . S
N581 Li531 1.990 . S
N581 C580 1.314 . S
N581 C584 1.279 . S
C582 C580 1.353 . S
C582 C585 1.348 . S
C582 H614 0.929 . S
C583 C584 1.358 . S
C583 C585 1.356 . S
C583 H615 0.930 . S
C584 N581 1.279 . S
C584 C583 1.358 . S
C584 H587 0.930 . S
C585 C582 1.348 . S
C585 C583 1.356 . S
H586 C580 0.930 . S
H587 C584 0.930 . S
O588 Li528 1.956 . S
O588 Li529 1.970 . S
O588 Li530 1.961 . S
O588 C532 1.325 . S
O589 Li528 1.970 . S
O589 Li529 1.956 . S
O589 Li531 1.961 . S
O589 C538 1.325 . S
O590 Li528 1.961 . S
O590 Li530 1.956 . S
O590 Li531 1.970 . S
O590 C560 1.325 . S
O591 Li529 1.961 . S
O591 Li530 1.970 . S
O591 Li531 1.956 . S
O591 C566 1.325 . S
H592 C534 0.929 . S
H593 C535 0.930 . S
H594 C536 0.930 . S
H595 C537 0.930 . S
H596 C539 0.930 . S
H597 C541 0.929 . S
H598 C542 0.930 . S
H599 C543 0.930 . S
H600 C546 0.930 . S
H601 C549 0.929 . S
H602 C554 0.929 . S
H603 C555 0.930 . S
H604 C562 0.929 . S
H605 C563 0.930 . S
H606 C564 0.930 . S
H607 C565 0.930 . S
H608 C567 0.929 . S
H609 C568 0.930 . S
H610 C569 0.930 . S
H611 C570 0.930 . S
H612 C574 0.929 . S
H613 C576 0.930 . S
H614 C582 0.929 . S
H615 C583 0.930 . S
Li616 N633 1.990 . S
Li616 O676 1.956 . S
Li616 O677 1.970 . S
Li616 O678 1.961 . S
Li617 N641 1.990 . S
Li617 O676 1.970 . S
Li617 O677 1.956 . S
Li617 O679 1.961 . S
Li618 N663 1.990 . S
Li618 O676 1.961 . S
Li618 O678 1.956 . S
Li618 O679 1.970 . S
Li619 N669 1.990 . S
Li619 O677 1.961 . S
Li619 O678 1.970 . S
Li619 O679 1.956 . S
C620 C622 1.348 . S
C620 C623 1.356 . S
C620 O676 1.325 . S
N621 C624 1.314 . S
N621 C625 1.279 . S
C622 C620 1.348 . S
C622 C624 1.353 . S
C622 H680 0.929 . S
C623 C620 1.356 . S
C623 C625 1.358 . S
C623 H681 0.930 . S
C624 N621 1.314 . S
C624 C622 1.353 . S
C624 H682 0.930 . S
C625 N621 1.279 . S
C625 C623 1.358 . S
C625 H683 0.930 . S
C626 C629 1.348 . S
C626 C630 1.356 . S
C626 O677 1.325 . S
C627 N628 1.279 . S
C627 C630 1.358 . S
C627 H684 0.930 . S
N628 C627 1.279 . S
N628 C631 1.314 . S
C629 C626 1.348 . S
C629 C631 1.353 . S
C629 H685 0.929 . S
C630 C626 1.356 . S
C630 C627 1.358 . S
C630 H686 0.930 . S
C631 N628 1.314 . S
C631 C629 1.353 . S
C631 H687 0.930 . S
C632 N633 1.314 . S
C632 C637 1.353 . S
C632 H638 0.930 . S
N633 Li616 1.990 . S
N633 C632 1.314 . S
N633 C635 1.279 . S
C634 C635 1.358 . S
C634 C636 1.356 . S
C634 H688 0.930 . S
C635 N633 1.279 . S
C635 C634 1.358 . S
C635 H639 0.930 . S
C636 C634 1.356 . S
C636 C637 1.348 . S
C637 C632 1.353 . S
C637 C636 1.348 . S
C637 H689 0.929 . S
H638 C632 0.930 . S
H639 C635 0.930 . S
C640 N641 1.314 . S
C640 C642 1.353 . S
C640 H646 0.930 . S
N641 Li617 1.990 . S
N641 C640 1.314 . S
N641 C644 1.279 . S
C642 C640 1.353 . S
C642 C645 1.348 . S
C642 H690 0.929 . S
C643 C644 1.358 . S
C643 C645 1.356 . S
C643 H691 0.930 . S
C644 N641 1.279 . S
C644 C643 1.358 . S
C644 H647 0.930 . S
C645 C642 1.348 . S
C645 C643 1.356 . S
H646 C640 0.930 . S
H647 C644 0.930 . S
C648 C650 1.348 . S
C648 C651 1.356 . S
C648 O678 1.325 . S
N649 C652 1.314 . S
N649 C653 1.279 . S
C650 C648 1.348 . S
C650 C652 1.353 . S
C650 H692 0.929 . S
C651 C648 1.356 . S
C651 C653 1.358 . S
C651 H693 0.930 . S
C652 N649 1.314 . S
C652 C650 1.353 . S
C652 H694 0.930 . S
C653 N649 1.279 . S
C653 C651 1.358 . S
C653 H695 0.930 . S
C654 C655 1.348 . S
C654 C656 1.356 . S
C654 O679 1.325 . S
C655 C654 1.348 . S
C655 C657 1.353 . S
C655 H696 0.929 . S
C656 C654 1.356 . S
C656 C658 1.358 . S
C656 H697 0.930 . S
C657 C655 1.353 . S
C657 N659 1.314 . S
C657 H698 0.930 . S
C658 C656 1.358 . S
C658 N659 1.279 . S
C658 H699 0.930 . S
N659 C657 1.314 . S
N659 C658 1.279 . S
C660 C662 1.353 . S
C660 N663 1.314 . S
C660 H666 0.930 . S
C661 N663 1.279 . S
C661 C664 1.358 . S
C661 H667 0.930 . S
C662 C660 1.353 . S
C662 C665 1.348 . S
C662 H700 0.929 . S
N663 Li618 1.990 . S
N663 C660 1.314 . S
N663 C661 1.279 . S
C664 C661 1.358 . S
C664 C665 1.356 . S
C664 H701 0.930 . S
C665 C662 1.348 . S
C665 C664 1.356 . S
H666 C660 0.930 . S
H667 C661 0.930 . S
C668 N669 1.314 . S
C668 C670 1.353 . S
C668 H674 0.930 . S
N669 Li619 1.990 . S
N669 C668 1.314 . S
N669 C672 1.279 . S
C670 C668 1.353 . S
C670 C673 1.348 . S
C670 H702 0.929 . S
C671 C672 1.358 . S
C671 C673 1.356 . S
C671 H703 0.930 . S
C672 N669 1.279 . S
C672 C671 1.358 . S
C672 H675 0.930 . S
C673 C670 1.348 . S
C673 C671 1.356 . S
H674 C668 0.930 . S
H675 C672 0.930 . S
O676 Li616 1.956 . S
O676 Li617 1.970 . S
O676 Li618 1.961 . S
O676 C620 1.325 . S
O677 Li616 1.970 . S
O677 Li617 1.956 . S
O677 Li619 1.961 . S
O677 C626 1.325 . S
O678 Li616 1.961 . S
O678 Li618 1.956 . S
O678 Li619 1.970 . S
O678 C648 1.325 . S
O679 Li617 1.961 . S
O679 Li618 1.970 . S
O679 Li619 1.956 . S
O679 C654 1.325 . S
H680 C622 0.929 . S
H681 C623 0.930 . S
H682 C624 0.930 . S
H683 C625 0.930 . S
H684 C627 0.930 . S
H685 C629 0.929 . S
H686 C630 0.930 . S
H687 C631 0.930 . S
H688 C634 0.930 . S
H689 C637 0.929 . S
H690 C642 0.929 . S
H691 C643 0.930 . S
H692 C650 0.929 . S
H693 C651 0.930 . S
H694 C652 0.930 . S
H695 C653 0.930 . S
H696 C655 0.929 . S
H697 C656 0.930 . S
H698 C657 0.930 . S
H699 C658 0.930 . S
H700 C662 0.929 . S
H701 C664 0.930 . S
H702 C670 0.929 . S
H703 C671 0.930 . S
Li704 N721 1.990 . S
Li704 O764 1.956 . S
Li704 O765 1.970 1_554 S
Li704 O766 1.961 1_554 S
Li705 N729 1.990 . S
Li705 O764 1.970 . S
Li705 O765 1.956 1_554 S
Li705 O767 1.961 1_554 S
Li706 N751 1.990 . S
Li706 O764 1.961 . S
Li706 O766 1.956 1_554 S
Li706 O767 1.970 1_554 S
Li707 N757 1.990 . S
Li707 O765 1.961 . S
Li707 O766 1.970 . S
Li707 O767 1.956 . S
C708 C710 1.348 . S
C708 C711 1.356 . S
C708 O764 1.325 . S
N709 C712 1.314 . S
N709 C713 1.279 . S
C710 C708 1.348 . S
C710 C712 1.353 . S
C710 H768 0.929 . S
C711 C708 1.356 . S
C711 C713 1.358 . S
C711 H769 0.930 . S
C712 N709 1.314 . S
C712 C710 1.353 . S
C712 H770 0.930 . S
C713 N709 1.279 . S
C713 C711 1.358 . S
C713 H771 0.930 . S
C714 C717 1.348 . S
C714 C718 1.356 . S
C714 O765 1.325 . S
C715 N716 1.279 . S
C715 C718 1.358 . S
C715 H772 0.930 . S
N716 C715 1.279 . S
N716 C719 1.314 . S
C717 C714 1.348 . S
C717 C719 1.353 . S
C717 H773 0.929 1_556 S
C718 C714 1.356 . S
C718 C715 1.358 . S
C718 H774 0.930 . S
C719 N716 1.314 . S
C719 C717 1.353 . S
C719 H775 0.930 . S
C720 N721 1.314 1_556 S
C720 C725 1.353 . S
C720 H726 0.930 . S
N721 Li704 1.990 . S
N721 C720 1.314 1_554 S
N721 C723 1.279 . S
C722 C723 1.358 . S
C722 C724 1.356 . S
C722 H776 0.930 . S
C723 N721 1.279 . S
C723 C722 1.358 . S
C723 H727 0.930 . S
C724 C722 1.356 . S
C724 C725 1.348 1_554 S
C725 C720 1.353 . S
C725 C724 1.348 1_556 S
C725 H777 0.929 . S
H726 C720 0.930 . S
H727 C723 0.930 . S
C728 N729 1.314 . S
C728 C730 1.353 . S
C728 H734 0.930 . S
N729 Li705 1.990 . S
N729 C728 1.314 . S
N729 C732 1.279 . S
C730 C728 1.353 . S
C730 C733 1.348 . S
C730 H778 0.929 . S
C731 C732 1.358 . S
C731 C733 1.356 . S
C731 H779 0.930 . S
C732 N729 1.279 . S
C732 C731 1.358 . S
C732 H735 0.930 . S
C733 C730 1.348 . S
C733 C731 1.356 . S
H734 C728 0.930 . S
H735 C732 0.930 . S
C736 C738 1.348 . S
C736 C739 1.356 . S
C736 O766 1.325 . S
N737 C740 1.314 . S
N737 C741 1.279 . S
C738 C736 1.348 . S
C738 C740 1.353 . S
C738 H780 0.929 . S
C739 C736 1.356 . S
C739 C741 1.358 . S
C739 H781 0.930 . S
C740 N737 1.314 . S
C740 C738 1.353 . S
C740 H782 0.930 . S
C741 N737 1.279 . S
C741 C739 1.358 . S
C741 H783 0.930 . S
C742 C743 1.348 . S
C742 C744 1.356 . S
C742 O767 1.325 . S
C743 C742 1.348 . S
C743 C745 1.353 . S
C743 H784 0.929 . S
C744 C742 1.356 . S
C744 C746 1.358 . S
C744 H785 0.930 . S
C745 C743 1.353 . S
C745 N747 1.314 . S
C745 H786 0.930 . S
C746 C744 1.358 . S
C746 N747 1.279 . S
C746 H787 0.930 . S
N747 C745 1.314 . S
N747 C746 1.279 . S
C748 C750 1.353 . S
C748 N751 1.314 . S
C748 H754 0.930 . S
C749 N751 1.279 1_556 S
C749 C752 1.358 1_556 S
C749 H755 0.930 . S
C750 C748 1.353 . S
C750 C753 1.348 . S
C750 H788 0.929 . S
N751 Li706 1.990 . S
N751 C748 1.314 . S
N751 C749 1.279 1_554 S
C752 C749 1.358 1_554 S
C752 C753 1.356 . S
C752 H789 0.930 1_554 S
C753 C750 1.348 . S
C753 C752 1.356 . S
H754 C748 0.930 . S
H755 C749 0.930 . S
C756 N757 1.314 . S
C756 C758 1.353 . S
C756 H762 0.930 . S
N757 Li707 1.990 . S
N757 C756 1.314 . S
N757 C760 1.279 . S
C758 C756 1.353 . S
C758 C761 1.348 . S
C758 H790 0.929 . S
C759 C760 1.358 . S
C759 C761 1.356 . S
C759 H791 0.930 . S
C760 N757 1.279 . S
C760 C759 1.358 . S
C760 H763 0.930 . S
C761 C758 1.348 . S
C761 C759 1.356 . S
H762 C756 0.930 . S
H763 C760 0.930 . S
O764 Li704 1.956 . S
O764 Li705 1.970 . S
O764 Li706 1.961 . S
O764 C708 1.325 . S
O765 Li704 1.970 1_556 S
O765 Li705 1.956 1_556 S
O765 Li707 1.961 . S
O765 C714 1.325 . S
O766 Li704 1.961 1_556 S
O766 Li706 1.956 1_556 S
O766 Li707 1.970 . S
O766 C736 1.325 . S
O767 Li705 1.961 1_556 S
O767 Li706 1.970 1_556 S
O767 Li707 1.956 . S
O767 C742 1.325 . S
H768 C710 0.929 . S
H769 C711 0.930 . S
H770 C712 0.930 . S
H771 C713 0.930 . S
H772 C715 0.930 . S
H773 C717 0.929 1_554 S
H774 C718 0.930 . S
H775 C719 0.930 . S
H776 C722 0.930 . S
H777 C725 0.929 . S
H778 C730 0.929 . S
H779 C731 0.930 . S
H780 C738 0.929 . S
H781 C739 0.930 . S
H782 C740 0.930 . S
H783 C741 0.930 . S
H784 C743 0.929 . S
H785 C744 0.930 . S
H786 C745 0.930 . S
H787 C746 0.930 . S
H788 C750 0.929 . S
H789 C752 0.930 1_556 S
H790 C758 0.929 . S
H791 C759 0.930 . S
Li792 N809 1.990 . S
Li792 O852 1.956 . S
Li792 O853 1.970 . S
Li792 O854 1.961 . S
Li793 N817 1.990 . S
Li793 O852 1.970 . S
Li793 O853 1.956 . S
Li793 O855 1.961 . S
Li794 N839 1.990 . S
Li794 O852 1.961 . S
Li794 O854 1.956 . S
Li794 O855 1.970 . S
Li795 N845 1.990 . S
Li795 O853 1.961 . S
Li795 O854 1.970 . S
Li795 O855 1.956 . S
C796 C798 1.348 . S
C796 C799 1.356 . S
C796 O852 1.325 . S
N797 C800 1.314 . S
N797 C801 1.279 . S
C798 C796 1.348 . S
C798 C800 1.353 . S
C798 H856 0.929 . S
C799 C796 1.356 . S
C799 C801 1.358 . S
C799 H857 0.930 . S
C800 N797 1.314 . S
C800 C798 1.353 . S
C800 H858 0.930 . S
C801 N797 1.279 . S
C801 C799 1.358 . S
C801 H859 0.930 . S
C802 C805 1.348 . S
C802 C806 1.356 . S
C802 O853 1.325 . S
C803 N804 1.279 . S
C803 C806 1.358 . S
C803 H860 0.930 . S
N804 C803 1.279 . S
N804 C807 1.314 . S
C805 C802 1.348 . S
C805 C807 1.353 . S
C805 H861 0.929 . S
C806 C802 1.356 . S
C806 C803 1.358 . S
C806 H862 0.930 . S
C807 N804 1.314 . S
C807 C805 1.353 . S
C807 H863 0.930 . S
C808 N809 1.314 . S
C808 C813 1.353 . S
C808 H814 0.930 . S
N809 Li792 1.990 . S
N809 C808 1.314 . S
N809 C811 1.279 . S
C810 C811 1.358 . S
C810 C812 1.356 . S
C810 H864 0.930 . S
C811 N809 1.279 . S
C811 C810 1.358 . S
C811 H815 0.930 . S
C812 C810 1.356 . S
C812 C813 1.348 . S
C813 C808 1.353 . S
C813 C812 1.348 . S
C813 H865 0.929 . S
H814 C808 0.930 . S
H815 C811 0.930 . S
C816 N817 1.314 . S
C816 C818 1.353 . S
C816 H822 0.930 . S
N817 Li793 1.990 . S
N817 C816 1.314 . S
N817 C820 1.279 . S
C818 C816 1.353 . S
C818 C821 1.348 . S
C818 H866 0.929 . S
C819 C820 1.358 . S
C819 C821 1.356 . S
C819 H867 0.930 . S
C820 N817 1.279 . S
C820 C819 1.358 . S
C820 H823 0.930 . S
C821 C818 1.348 . S
C821 C819 1.356 . S
H822 C816 0.930 . S
H823 C820 0.930 . S
C824 C826 1.348 . S
C824 C827 1.356 . S
C824 O854 1.325 . S
N825 C828 1.314 . S
N825 C829 1.279 . S
C826 C824 1.348 . S
C826 C828 1.353 . S
C826 H868 0.929 . S
C827 C824 1.356 . S
C827 C829 1.358 . S
C827 H869 0.930 . S
C828 N825 1.314 . S
C828 C826 1.353 . S
C828 H870 0.930 . S
C829 N825 1.279 . S
C829 C827 1.358 . S
C829 H871 0.930 . S
C830 C831 1.348 . S
C830 C832 1.356 . S
C830 O855 1.325 . S
C831 C830 1.348 . S
C831 C833 1.353 . S
C831 H872 0.929 . S
C832 C830 1.356 . S
C832 C834 1.358 . S
C832 H873 0.930 . S
C833 C831 1.353 . S
C833 N835 1.314 . S
C833 H874 0.930 . S
C834 C832 1.358 . S
C834 N835 1.279 . S
C834 H875 0.930 . S
N835 C833 1.314 . S
N835 C834 1.279 . S
C836 C838 1.353 . S
C836 N839 1.314 . S
C836 H842 0.930 . S
C837 N839 1.279 . S
C837 C840 1.358 . S
C837 H843 0.930 . S
C838 C836 1.353 . S
C838 C841 1.348 . S
C838 H876 0.929 . S
N839 Li794 1.990 . S
N839 C836 1.314 . S
N839 C837 1.279 . S
C840 C837 1.358 . S
C840 C841 1.356 . S
C840 H877 0.930 . S
C841 C838 1.348 . S
C841 C840 1.356 . S
H842 C836 0.930 . S
H843 C837 0.930 . S
C844 N845 1.314 . S
C844 C846 1.353 . S
C844 H850 0.930 . S
N845 Li795 1.990 . S
N845 C844 1.314 . S
N845 C848 1.279 . S
C846 C844 1.353 . S
C846 C849 1.348 . S
C846 H878 0.929 . S
C847 C848 1.358 . S
C847 C849 1.356 . S
C847 H879 0.930 . S
C848 N845 1.279 . S
C848 C847 1.358 . S
C848 H851 0.930 . S
C849 C846 1.348 . S
C849 C847 1.356 . S
H850 C844 0.930 . S
H851 C848 0.930 . S
O852 Li792 1.956 . S
O852 Li793 1.970 . S
O852 Li794 1.961 . S
O852 C796 1.325 . S
O853 Li792 1.970 . S
O853 Li793 1.956 . S
O853 Li795 1.961 . S
O853 C802 1.325 . S
O854 Li792 1.961 . S
O854 Li794 1.956 . S
O854 Li795 1.970 . S
O854 C824 1.325 . S
O855 Li793 1.961 . S
O855 Li794 1.970 . S
O855 Li795 1.956 . S
O855 C830 1.325 . S
H856 C798 0.929 . S
H857 C799 0.930 . S
H858 C800 0.930 . S
H859 C801 0.930 . S
H860 C803 0.930 . S
H861 C805 0.929 . S
H862 C806 0.930 . S
H863 C807 0.930 . S
H864 C810 0.930 . S
H865 C813 0.929 . S
H866 C818 0.929 . S
H867 C819 0.930 . S
H868 C826 0.929 . S
H869 C827 0.930 . S
H870 C828 0.930 . S
H871 C829 0.930 . S
H872 C831 0.929 . S
H873 C832 0.930 . S
H874 C833 0.930 . S
H875 C834 0.930 . S
H876 C838 0.929 . S
H877 C840 0.930 . S
H878 C846 0.929 . S
H879 C847 0.930 . S
Li880 N897 1.990 . S
Li880 O940 1.956 . S
Li880 O941 1.970 . S
Li880 O942 1.961 . S
Li881 N905 1.990 . S
Li881 O940 1.970 . S
Li881 O941 1.956 . S
Li881 O943 1.961 . S
Li882 N927 1.990 . S
Li882 O940 1.961 . S
Li882 O942 1.956 . S
Li882 O943 1.970 . S
Li883 N933 1.990 . S
Li883 O941 1.961 . S
Li883 O942 1.970 . S
Li883 O943 1.956 . S
C884 C886 1.348 . S
C884 C887 1.356 . S
C884 O940 1.325 . S
N885 C888 1.314 . S
N885 C889 1.279 . S
C886 C884 1.348 . S
C886 C888 1.353 . S
C886 H944 0.929 . S
C887 C884 1.356 . S
C887 C889 1.358 . S
C887 H945 0.930 . S
C888 N885 1.314 . S
C888 C886 1.353 . S
C888 H946 0.930 . S
C889 N885 1.279 . S
C889 C887 1.358 . S
C889 H947 0.930 . S
C890 C893 1.348 . S
C890 C894 1.356 . S
C890 O941 1.325 . S
C891 N892 1.279 . S
C891 C894 1.358 . S
C891 H948 0.930 . S
N892 C891 1.279 . S
N892 C895 1.314 . S
C893 C890 1.348 . S
C893 C895 1.353 . S
C893 H949 0.929 . S
C894 C890 1.356 . S
C894 C891 1.358 . S
C894 H950 0.930 . S
C895 N892 1.314 . S
C895 C893 1.353 . S
C895 H951 0.930 . S
C896 N897 1.314 . S
C896 C901 1.353 . S
C896 H902 0.930 . S
N897 Li880 1.990 . S
N897 C896 1.314 . S
N897 C899 1.279 . S
C898 C899 1.358 . S
C898 C900 1.356 . S
C898 H952 0.930 . S
C899 N897 1.279 . S
C899 C898 1.358 . S
C899 H903 0.930 . S
C900 C898 1.356 . S
C900 C901 1.348 . S
C901 C896 1.353 . S
C901 C900 1.348 . S
C901 H953 0.929 . S
H902 C896 0.930 . S
H903 C899 0.930 . S
C904 N905 1.314 . S
C904 C906 1.353 . S
C904 H910 0.930 . S
N905 Li881 1.990 . S
N905 C904 1.314 . S
N905 C908 1.279 . S
C906 C904 1.353 . S
C906 C909 1.348 . S
C906 H954 0.929 . S
C907 C908 1.358 . S
C907 C909 1.356 . S
C907 H955 0.930 . S
C908 N905 1.279 . S
C908 C907 1.358 . S
C908 H911 0.930 . S
C909 C906 1.348 . S
C909 C907 1.356 . S
H910 C904 0.930 . S
H911 C908 0.930 . S
C912 C914 1.348 . S
C912 C915 1.356 . S
C912 O942 1.325 . S
N913 C916 1.314 . S
N913 C917 1.279 . S
C914 C912 1.348 . S
C914 C916 1.353 . S
C914 H956 0.929 . S
C915 C912 1.356 . S
C915 C917 1.358 . S
C915 H957 0.930 . S
C916 N913 1.314 . S
C916 C914 1.353 . S
C916 H958 0.930 . S
C917 N913 1.279 . S
C917 C915 1.358 . S
C917 H959 0.930 . S
C918 C919 1.348 . S
C918 C920 1.356 . S
C918 O943 1.325 . S
C919 C918 1.348 . S
C919 C921 1.353 . S
C919 H960 0.929 . S
C920 C918 1.356 . S
C920 C922 1.358 . S
C920 H961 0.930 . S
C921 C919 1.353 . S
C921 N923 1.314 . S
C921 H962 0.930 . S
C922 C920 1.358 . S
C922 N923 1.279 . S
C922 H963 0.930 . S
N923 C921 1.314 . S
N923 C922 1.279 . S
C924 C926 1.353 . S
C924 N927 1.314 . S
C924 H930 0.930 . S
C925 N927 1.279 . S
C925 C928 1.358 . S
C925 H931 0.930 . S
C926 C924 1.353 . S
C926 C929 1.348 . S
C926 H964 0.929 . S
N927 Li882 1.990 . S
N927 C924 1.314 . S
N927 C925 1.279 . S
C928 C925 1.358 . S
C928 C929 1.356 . S
C928 H965 0.930 . S
C929 C926 1.348 . S
C929 C928 1.356 . S
H930 C924 0.930 . S
H931 C925 0.930 . S
C932 N933 1.314 . S
C932 C934 1.353 . S
C932 H938 0.930 . S
N933 Li883 1.990 . S
N933 C932 1.314 . S
N933 C936 1.279 . S
C934 C932 1.353 . S
C934 C937 1.348 . S
C934 H966 0.929 . S
C935 C936 1.358 . S
C935 C937 1.356 . S
C935 H967 0.930 . S
C936 N933 1.279 . S
C936 C935 1.358 . S
C936 H939 0.930 . S
C937 C934 1.348 . S
C937 C935 1.356 . S
H938 C932 0.930 . S
H939 C936 0.930 . S
O940 Li880 1.956 . S
O940 Li881 1.970 . S
O940 Li882 1.961 . S
O940 C884 1.325 . S
O941 Li880 1.970 . S
O941 Li881 1.956 . S
O941 Li883 1.961 . S
O941 C890 1.325 . S
O942 Li880 1.961 . S
O942 Li882 1.956 . S
O942 Li883 1.970 . S
O942 C912 1.325 . S
O943 Li881 1.961 . S
O943 Li882 1.970 . S
O943 Li883 1.956 . S
O943 C918 1.325 . S
H944 C886 0.929 . S
H945 C887 0.930 . S
H946 C888 0.930 . S
H947 C889 0.930 . S
H948 C891 0.930 . S
H949 C893 0.929 . S
H950 C894 0.930 . S
H951 C895 0.930 . S
H952 C898 0.930 . S
H953 C901 0.929 . S
H954 C906 0.929 . S
H955 C907 0.930 . S
H956 C914 0.929 . S
H957 C915 0.930 . S
H958 C916 0.930 . S
H959 C917 0.930 . S
H960 C919 0.929 . S
H961 C920 0.930 . S
H962 C921 0.930 . S
H963 C922 0.930 . S
H964 C926 0.929 . S
H965 C928 0.930 . S
H966 C934 0.929 . S
H967 C935 0.930 . S
Li968 N985 1.990 . S
Li968 O1028 1.956 . S
Li968 O1029 1.970 1_554 S
Li968 O1030 1.961 1_554 S
Li969 N993 1.990 . S
Li969 O1028 1.970 . S
Li969 O1029 1.956 1_554 S
Li969 O1031 1.961 1_554 S
Li970 N1015 1.990 . S
Li970 O1028 1.961 . S
Li970 O1030 1.956 1_554 S
Li970 O1031 1.970 1_554 S
Li971 N1021 1.990 . S
Li971 O1029 1.961 . S
Li971 O1030 1.970 . S
Li971 O1031 1.956 . S
C972 C974 1.348 . S
C972 C975 1.356 . S
C972 O1028 1.325 . S
N973 C976 1.314 . S
N973 C977 1.279 . S
C974 C972 1.348 . S
C974 C976 1.353 . S
C974 H1032 0.929 . S
C975 C972 1.356 . S
C975 C977 1.358 . S
C975 H1033 0.930 . S
C976 N973 1.314 . S
C976 C974 1.353 . S
C976 H1034 0.930 . S
C977 N973 1.279 . S
C977 C975 1.358 . S
C977 H1035 0.930 . S
C978 C981 1.348 . S
C978 C982 1.356 . S
C978 O1029 1.325 . S
C979 N980 1.279 . S
C979 C982 1.358 . S
C979 H1036 0.930 . S
N980 C979 1.279 . S
N980 C983 1.314 . S
C981 C978 1.348 . S
C981 C983 1.353 . S
C981 H1037 0.929 1_556 S
C982 C978 1.356 . S
C982 C979 1.358 . S
C982 H1038 0.930 . S
C983 N980 1.314 . S
C983 C981 1.353 . S
C983 H1039 0.930 . S
C984 N985 1.314 1_556 S
C984 C989 1.353 . S
C984 H990 0.930 . S
N985 Li968 1.990 . S
N985 C984 1.314 1_554 S
N985 C987 1.279 . S
C986 C987 1.358 . S
C986 C988 1.356 . S
C986 H1040 0.930 . S
C987 N985 1.279 . S
C987 C986 1.358 . S
C987 H991 0.930 . S
C988 C986 1.356 . S
C988 C989 1.348 1_554 S
C989 C984 1.353 . S
C989 C988 1.348 1_556 S
C989 H1041 0.929 . S
H990 C984 0.930 . S
H991 C987 0.930 . S
C992 N993 1.314 . S
C992 C994 1.353 . S
C992 H998 0.930 . S
N993 Li969 1.990 . S
N993 C992 1.314 . S
N993 C996 1.279 . S
C994 C992 1.353 . S
C994 C997 1.348 . S
C994 H1042 0.929 . S
C995 C996 1.358 . S
C995 C997 1.356 . S
C995 H1043 0.930 . S
C996 N993 1.279 . S
C996 C995 1.358 . S
C996 H999 0.930 . S
C997 C994 1.348 . S
C997 C995 1.356 . S
H998 C992 0.930 . S
H999 C996 0.930 . S
C1000 C1002 1.348 . S
C1000 C1003 1.356 . S
C1000 O1030 1.325 . S
N1001 C1004 1.314 . S
N1001 C1005 1.279 . S
C1002 C1000 1.348 . S
C1002 C1004 1.353 . S
C1002 H1044 0.929 . S
C1003 C1000 1.356 . S
C1003 C1005 1.358 . S
C1003 H1045 0.930 . S
C1004 N1001 1.314 . S
C1004 C1002 1.353 . S
C1004 H1046 0.930 . S
C1005 N1001 1.279 . S
C1005 C1003 1.358 . S
C1005 H1047 0.930 . S
C1006 C1007 1.348 . S
C1006 C1008 1.356 . S
C1006 O1031 1.325 . S
C1007 C1006 1.348 . S
C1007 C1009 1.353 . S
C1007 H1048 0.929 . S
C1008 C1006 1.356 . S
C1008 C1010 1.358 . S
C1008 H1049 0.930 . S
C1009 C1007 1.353 . S
C1009 N1011 1.314 . S
C1009 H1050 0.930 . S
C1010 C1008 1.358 . S
C1010 N1011 1.279 . S
C1010 H1051 0.930 . S
N1011 C1009 1.314 . S
N1011 C1010 1.279 . S
C1012 C1014 1.353 . S
C1012 N1015 1.314 . S
C1012 H1018 0.930 . S
C1013 N1015 1.279 1_556 S
C1013 C1016 1.358 1_556 S
C1013 H1019 0.930 . S
C1014 C1012 1.353 . S
C1014 C1017 1.348 . S
C1014 H1052 0.929 . S
N1015 Li970 1.990 . S
N1015 C1012 1.314 . S
N1015 C1013 1.279 1_554 S
C1016 C1013 1.358 1_554 S
C1016 C1017 1.356 . S
C1016 H1053 0.930 1_554 S
C1017 C1014 1.348 . S
C1017 C1016 1.356 . S
H1018 C1012 0.930 . S
H1019 C1013 0.930 . S
C1020 N1021 1.314 . S
C1020 C1022 1.353 . S
C1020 H1026 0.930 . S
N1021 Li971 1.990 . S
N1021 C1020 1.314 . S
N1021 C1024 1.279 . S
C1022 C1020 1.353 . S
C1022 C1025 1.348 . S
C1022 H1054 0.929 . S
C1023 C1024 1.358 . S
C1023 C1025 1.356 . S
C1023 H1055 0.930 . S
C1024 N1021 1.279 . S
C1024 C1023 1.358 . S
C1024 H1027 0.930 . S
C1025 C1022 1.348 . S
C1025 C1023 1.356 . S
H1026 C1020 0.930 . S
H1027 C1024 0.930 . S
O1028 Li968 1.956 . S
O1028 Li969 1.970 . S
O1028 Li970 1.961 . S
O1028 C972 1.325 . S
O1029 Li968 1.970 1_556 S
O1029 Li969 1.956 1_556 S
O1029 Li971 1.961 . S
O1029 C978 1.325 . S
O1030 Li968 1.961 1_556 S
O1030 Li970 1.956 1_556 S
O1030 Li971 1.970 . S
O1030 C1000 1.325 . S
O1031 Li969 1.961 1_556 S
O1031 Li970 1.970 1_556 S
O1031 Li971 1.956 . S
O1031 C1006 1.325 . S
H1032 C974 0.929 . S
H1033 C975 0.930 . S
H1034 C976 0.930 . S
H1035 C977 0.930 . S
H1036 C979 0.930 . S
H1037 C981 0.929 1_554 S
H1038 C982 0.930 . S
H1039 C983 0.930 . S
H1040 C986 0.930 . S
H1041 C989 0.929 . S
H1042 C994 0.929 . S
H1043 C995 0.930 . S
H1044 C1002 0.929 . S
H1045 C1003 0.930 . S
H1046 C1004 0.930 . S
H1047 C1005 0.930 . S
H1048 C1007 0.929 . S
H1049 C1008 0.930 . S
H1050 C1009 0.930 . S
H1051 C1010 0.930 . S
H1052 C1014 0.929 . S
H1053 C1016 0.930 1_556 S
H1054 C1022 0.929 . S
H1055 C1023 0.930 . S
C1056 C1057 1.363 . S
C1056 C1062 1.379 . S
C1056 N1064 1.356 . S
C1057 C1056 1.363 . S
C1057 C1063 1.363 . S
C1058 C1059 1.363 . S
C1058 C1063 1.379 . S
C1058 N1065 1.356 . S
C1059 C1058 1.363 . S
C1059 C1062 1.363 . S
N1060 C1062 1.356 . S
N1060 H1072 0.984 . S
N1060 H1073 0.985 . S
N1061 C1063 1.356 . S
N1061 H1066 0.984 . S
N1061 H1067 0.985 . S
C1062 C1056 1.379 . S
C1062 C1059 1.363 . S
C1062 N1060 1.356 . S
C1063 C1057 1.363 . S
C1063 C1058 1.379 . S
C1063 N1061 1.356 . S
N1064 C1056 1.356 . S
N1064 H1070 0.984 . S
N1064 H1071 0.984 . S
N1065 C1058 1.356 . S
N1065 H1068 0.984 . S
N1065 H1069 0.985 . S
H1066 N1061 0.984 . S
H1067 N1061 0.985 . S
H1068 N1065 0.984 . S
H1069 N1065 0.985 . S
H1070 N1064 0.984 . S
H1071 N1064 0.984 . S
H1072 N1060 0.984 . S
H1073 N1060 0.985 . S
C1074 C1075 1.363 . S
C1074 C1080 1.379 . S
C1074 N1082 1.356 . S
C1075 C1074 1.363 . S
C1075 C1081 1.363 . S
C1076 C1077 1.363 . S
C1076 C1081 1.379 . S
C1076 N1083 1.356 . S
C1077 C1076 1.363 . S
C1077 C1080 1.363 . S
N1078 C1080 1.356 . S
N1078 H1090 0.984 . S
N1078 H1091 0.985 . S
N1079 C1081 1.356 . S
N1079 H1084 0.984 . S
N1079 H1085 0.985 . S
C1080 C1074 1.379 . S
C1080 C1077 1.363 . S
C1080 N1078 1.356 . S
C1081 C1075 1.363 . S
C1081 C1076 1.379 . S
C1081 N1079 1.356 . S
N1082 C1074 1.356 . S
N1082 H1088 0.984 . S
N1082 H1089 0.984 . S
N1083 C1076 1.356 . S
N1083 H1086 0.984 . S
N1083 H1087 0.985 . S
H1084 N1079 0.984 . S
H1085 N1079 0.985 . S
H1086 N1083 0.984 . S
H1087 N1083 0.985 . S
H1088 N1082 0.984 . S
H1089 N1082 0.984 . S
H1090 N1078 0.984 . S
H1091 N1078 0.985 . S
C1092 C1093 1.363 1_554 S
C1092 C1098 1.379 . S
C1092 N1100 1.356 . S
C1093 C1092 1.363 1_556 S
C1093 C1099 1.363 . S
C1094 C1095 1.363 1_556 S
C1094 C1099 1.379 . S
C1094 N1101 1.356 . S
C1095 C1094 1.363 1_554 S
C1095 C1098 1.363 . S
N1096 C1098 1.356 . S
N1096 H1108 0.984 . S
N1096 H1109 0.985 . S
N1097 C1099 1.356 . S
N1097 H1102 0.984 . S
N1097 H1103 0.985 . S
C1098 C1092 1.379 . S
C1098 C1095 1.363 . S
C1098 N1096 1.356 . S
C1099 C1093 1.363 . S
C1099 C1094 1.379 . S
C1099 N1097 1.356 . S
N1100 C1092 1.356 . S
N1100 H1106 0.984 . S
N1100 H1107 0.984 1_554 S
N1101 C1094 1.356 . S
N1101 H1104 0.984 1_556 S
N1101 H1105 0.985 . S
H1102 N1097 0.984 . S
H1103 N1097 0.985 . S
H1104 N1101 0.984 1_554 S
H1105 N1101 0.985 . S
H1106 N1100 0.984 . S
H1107 N1100 0.984 1_556 S
H1108 N1096 0.984 . S
H1109 N1096 0.985 . S
C1110 C1111 1.363 . S
C1110 C1116 1.379 . S
C1110 N1118 1.356 . S
C1111 C1110 1.363 . S
C1111 C1117 1.363 . S
C1112 C1113 1.363 . S
C1112 C1117 1.379 . S
C1112 N1119 1.356 . S
C1113 C1112 1.363 . S
C1113 C1116 1.363 . S
N1114 C1116 1.356 . S
N1114 H1126 0.984 . S
N1114 H1127 0.985 . S
N1115 C1117 1.356 . S
N1115 H1120 0.984 . S
N1115 H1121 0.985 . S
C1116 C1110 1.379 . S
C1116 C1113 1.363 . S
C1116 N1114 1.356 . S
C1117 C1111 1.363 . S
C1117 C1112 1.379 . S
C1117 N1115 1.356 . S
N1118 C1110 1.356 . S
N1118 H1124 0.984 . S
N1118 H1125 0.984 . S
N1119 C1112 1.356 . S
N1119 H1122 0.984 . S
N1119 H1123 0.985 . S
H1120 N1115 0.984 . S
H1121 N1115 0.985 . S
H1122 N1119 0.984 . S
H1123 N1119 0.985 . S
H1124 N1118 0.984 . S
H1125 N1118 0.984 . S
H1126 N1114 0.984 . S
H1127 N1114 0.985 . S
C1128 C1129 1.363 . S
C1128 C1134 1.379 . S
C1128 N1136 1.356 . S
C1129 C1128 1.363 . S
C1129 C1135 1.363 . S
C1130 C1131 1.363 . S
C1130 C1135 1.379 . S
C1130 N1137 1.356 . S
C1131 C1130 1.363 . S
C1131 C1134 1.363 . S
N1132 C1134 1.356 . S
N1132 H1144 0.984 . S
N1132 H1145 0.985 . S
N1133 C1135 1.356 . S
N1133 H1138 0.984 . S
N1133 H1139 0.985 . S
C1134 C1128 1.379 . S
C1134 C1131 1.363 . S
C1134 N1132 1.356 . S
C1135 C1129 1.363 . S
C1135 C1130 1.379 . S
C1135 N1133 1.356 . S
N1136 C1128 1.356 . S
N1136 H1142 0.984 . S
N1136 H1143 0.984 . S
N1137 C1130 1.356 . S
N1137 H1140 0.984 . S
N1137 H1141 0.985 . S
H1138 N1133 0.984 . S
H1139 N1133 0.985 . S
H1140 N1137 0.984 . S
H1141 N1137 0.985 . S
H1142 N1136 0.984 . S
H1143 N1136 0.984 . S
H1144 N1132 0.984 . S
H1145 N1132 0.985 . S
C1146 C1147 1.363 1_556 S
C1146 C1152 1.379 . S
C1146 N1154 1.356 . S
C1147 C1146 1.363 1_554 S
C1147 C1153 1.363 . S
C1148 C1149 1.363 1_554 S
C1148 C1153 1.379 . S
C1148 N1155 1.356 . S
C1149 C1148 1.363 1_556 S
C1149 C1152 1.363 . S
N1150 C1152 1.356 . S
N1150 H1162 0.984 . S
N1150 H1163 0.985 . S
N1151 C1153 1.356 . S
N1151 H1156 0.984 . S
N1151 H1157 0.985 . S
C1152 C1146 1.379 . S
C1152 C1149 1.363 . S
C1152 N1150 1.356 . S
C1153 C1147 1.363 . S
C1153 C1148 1.379 . S
C1153 N1151 1.356 . S
N1154 C1146 1.356 . S
N1154 H1160 0.984 . S
N1154 H1161 0.984 1_556 S
N1155 C1148 1.356 . S
N1155 H1158 0.984 1_554 S
N1155 H1159 0.985 . S
H1156 N1151 0.984 . S
H1157 N1151 0.985 . S
H1158 N1155 0.984 1_556 S
H1159 N1155 0.985 . S
H1160 N1154 0.984 . S
H1161 N1154 0.984 1_554 S
H1162 N1150 0.984 . S
H1163 N1150 0.985 . S
C1164 C1165 1.363 . S
C1164 C1170 1.379 . S
C1164 N1172 1.356 . S
C1165 C1164 1.363 . S
C1165 C1171 1.363 . S
C1166 C1167 1.363 . S
C1166 C1171 1.379 . S
C1166 N1173 1.356 . S
C1167 C1166 1.363 . S
C1167 C1170 1.363 . S
N1168 C1170 1.356 . S
N1168 H1180 0.984 . S
N1168 H1181 0.985 . S
N1169 C1171 1.356 . S
N1169 H1174 0.984 . S
N1169 H1175 0.985 . S
C1170 C1164 1.379 . S
C1170 C1167 1.363 . S
C1170 N1168 1.356 . S
C1171 C1165 1.363 . S
C1171 C1166 1.379 . S
C1171 N1169 1.356 . S
N1172 C1164 1.356 . S
N1172 H1178 0.984 . S
N1172 H1179 0.984 . S
N1173 C1166 1.356 . S
N1173 H1176 0.984 . S
N1173 H1177 0.985 . S
H1174 N1169 0.984 . S
H1175 N1169 0.985 . S
H1176 N1173 0.984 . S
H1177 N1173 0.985 . S
H1178 N1172 0.984 . S
H1179 N1172 0.984 . S
H1180 N1168 0.984 . S
H1181 N1168 0.985 . S
C1182 C1183 1.363 . S
C1182 C1188 1.379 1_655 S
C1182 N1190 1.356 . S
C1183 C1182 1.363 . S
C1183 C1189 1.369 . S
C1184 C1185 1.363 . S
C1184 C1189 1.374 1_455 S
C1184 N1191 1.356 . S
C1185 C1184 1.363 . S
C1185 C1188 1.363 . S
N1186 C1188 1.356 . S
N1186 H1198 0.984 1_455 S
N1186 H1199 0.985 . S
N1187 C1189 1.357 . S
N1187 H1192 0.984 . S
N1187 H1193 0.985 1_655 S
C1188 C1182 1.379 1_455 S
C1188 C1185 1.363 . S
C1188 N1186 1.356 . S
C1189 C1183 1.369 . S
C1189 C1184 1.374 1_655 S
C1189 N1187 1.357 . S
N1190 C1182 1.356 . S
N1190 H1196 0.984 . S
N1190 H1197 0.984 . S
N1191 C1184 1.356 . S
N1191 H1194 0.984 . S
N1191 H1195 0.985 . S
H1192 N1187 0.984 . S
H1193 N1187 0.985 1_455 S
H1194 N1191 0.984 . S
H1195 N1191 0.985 . S
H1196 N1190 0.984 . S
H1197 N1190 0.984 . S
H1198 N1186 0.984 1_655 S
H1199 N1186 0.985 . S
C1200 C1201 1.363 1_565 S
C1200 C1206 1.379 . S
C1200 N1208 1.356 1_565 S
C1201 C1200 1.363 1_545 S
C1201 C1207 1.363 1_554 S
C1202 C1203 1.363 1_545 S
C1202 C1207 1.379 . S
C1202 N1209 1.356 1_545 S
C1203 C1202 1.363 1_565 S
C1203 C1206 1.363 1_556 S
N1204 C1206 1.356 . S
N1204 H1216 0.984 . S
N1204 H1217 0.985 1_554 S
N1205 C1207 1.356 . S
N1205 H1210 0.984 1_556 S
N1205 H1211 0.985 . S
C1206 C1200 1.379 . S
C1206 C1203 1.363 1_554 S
C1206 N1204 1.356 . S
C1207 C1201 1.363 1_556 S
C1207 C1202 1.379 . S
C1207 N1205 1.356 . S
N1208 C1200 1.356 1_545 S
N1208 H1214 0.984 1_545 S
N1208 H1215 0.984 . S
N1209 C1202 1.356 1_565 S
N1209 H1212 0.984 . S
N1209 H1213 0.985 1_565 S
H1210 N1205 0.984 1_554 S
H1211 N1205 0.985 . S
H1212 N1209 0.984 . S
H1213 N1209 0.985 1_545 S
H1214 N1208 0.984 1_565 S
H1215 N1208 0.984 . S
H1216 N1204 0.984 . S
H1217 N1204 0.985 1_556 S
C1218 C1219 1.363 . S
C1218 C1224 1.379 . S
C1218 N1226 1.356 . S
C1219 C1218 1.363 . S
C1219 C1225 1.363 . S
C1220 C1221 1.363 . S
C1220 C1225 1.379 . S
C1220 N1227 1.356 . S
C1221 C1220 1.363 . S
C1221 C1224 1.363 . S
N1222 C1224 1.356 . S
N1222 H1234 0.984 . S
N1222 H1235 0.985 . S
N1223 C1225 1.356 . S
N1223 H1228 0.984 . S
N1223 H1229 0.985 . S
C1224 C1218 1.379 . S
C1224 C1221 1.363 . S
C1224 N1222 1.356 . S
C1225 C1219 1.363 . S
C1225 C1220 1.379 . S
C1225 N1223 1.356 . S
N1226 C1218 1.356 . S
N1226 H1232 0.984 . S
N1226 H1233 0.984 . S
N1227 C1220 1.356 . S
N1227 H1230 0.984 . S
N1227 H1231 0.985 . S
H1228 N1223 0.984 . S
H1229 N1223 0.985 . S
H1230 N1227 0.984 . S
H1231 N1227 0.985 . S
H1232 N1226 0.984 . S
H1233 N1226 0.984 . S
H1234 N1222 0.984 . S
H1235 N1222 0.985 . S
C1236 C1237 1.363 1_655 S
C1236 C1242 1.379 . S
C1236 N1244 1.356 1_655 S
C1237 C1236 1.363 1_455 S
C1237 C1243 1.363 . S
C1238 C1239 1.363 1_455 S
C1238 C1243 1.379 . S
C1238 N1245 1.356 1_455 S
C1239 C1238 1.363 1_655 S
C1239 C1242 1.363 . S
N1240 C1242 1.356 . S
N1240 H1252 0.984 . S
N1240 H1253 0.985 . S
N1241 C1243 1.356 . S
N1241 H1246 0.984 . S
N1241 H1247 0.985 . S
C1242 C1236 1.379 . S
C1242 C1239 1.363 . S
C1242 N1240 1.356 . S
C1243 C1237 1.363 . S
C1243 C1238 1.379 . S
C1243 N1241 1.356 . S
N1244 C1236 1.356 1_455 S
N1244 H1250 0.984 1_455 S
N1244 H1251 0.984 . S
N1245 C1238 1.356 1_655 S
N1245 H1248 0.984 . S
N1245 H1249 0.985 1_655 S
H1246 N1241 0.984 . S
H1247 N1241 0.985 . S
H1248 N1245 0.984 . S
H1249 N1245 0.985 1_455 S
H1250 N1244 0.984 1_655 S
H1251 N1244 0.984 . S
H1252 N1240 0.984 . S
H1253 N1240 0.985 . S
C1254 C1255 1.363 1_554 S
C1254 C1260 1.379 . S
C1254 N1262 1.356 . S
C1255 C1254 1.363 1_556 S
C1255 C1261 1.363 1_545 S
C1256 C1257 1.363 1_556 S
C1256 C1261 1.379 . S
C1256 N1263 1.356 . S
C1257 C1256 1.363 1_554 S
C1257 C1260 1.363 1_565 S
N1258 C1260 1.356 1_565 S
N1258 H1270 0.984 1_565 S
N1258 H1271 0.985 . S
N1259 C1261 1.356 1_545 S
N1259 H1264 0.984 . S
N1259 H1265 0.985 1_545 S
C1260 C1254 1.379 . S
C1260 C1257 1.363 1_545 S
C1260 N1258 1.356 1_545 S
C1261 C1255 1.363 1_565 S
C1261 C1256 1.379 . S
C1261 N1259 1.356 1_565 S
N1262 C1254 1.356 . S
N1262 H1268 0.984 . S
N1262 H1269 0.984 1_554 S
N1263 C1256 1.356 . S
N1263 H1266 0.984 1_556 S
N1263 H1267 0.985 . S
H1264 N1259 0.984 . S
H1265 N1259 0.985 1_565 S
H1266 N1263 0.984 1_554 S
H1267 N1263 0.985 . S
H1268 N1262 0.984 . S
H1269 N1262 0.984 1_556 S
H1270 N1258 0.984 1_545 S
H1271 N1258 0.985 . S
C1272 C1273 1.363 1_455 S
C1272 C1278 1.379 . S
C1272 N1280 1.356 . S
C1273 C1272 1.363 1_655 S
C1273 C1279 1.363 . S
C1274 C1275 1.363 1_655 S
C1274 C1279 1.379 . S
C1274 N1281 1.356 . S
C1275 C1274 1.363 1_455 S
C1275 C1278 1.363 . S
N1276 C1278 1.356 . S
N1276 H1288 0.984 . S
N1276 H1289 0.985 . S
N1277 C1279 1.356 . S
N1277 H1282 0.984 . S
N1277 H1283 0.985 . S
C1278 C1272 1.379 . S
C1278 C1275 1.363 . S
C1278 N1276 1.356 . S
C1279 C1273 1.363 . S
C1279 C1274 1.379 . S
C1279 N1277 1.356 . S
N1280 C1272 1.356 . S
N1280 H1286 0.984 . S
N1280 H1287 0.984 . S
N1281 C1274 1.356 . S
N1281 H1284 0.984 . S
N1281 H1285 0.985 . S
H1282 N1277 0.984 . S
H1283 N1277 0.985 . S
H1284 N1281 0.984 . S
H1285 N1281 0.985 . S
H1286 N1280 0.984 . S
H1287 N1280 0.984 . S
H1288 N1276 0.984 . S
H1289 N1276 0.985 . S
C1290 C1291 1.363 1_565 S
C1290 C1296 1.379 . S
C1290 N1298 1.356 . S
C1291 C1290 1.363 1_545 S
C1291 C1297 1.363 . S
C1292 C1293 1.363 1_545 S
C1292 C1297 1.379 . S
C1292 N1299 1.356 . S
C1293 C1292 1.363 1_565 S
C1293 C1296 1.363 . S
N1294 C1296 1.356 . S
N1294 H1306 0.984 . S
N1294 H1307 0.985 . S
N1295 C1297 1.356 . S
N1295 H1300 0.984 . S
N1295 H1301 0.985 . S
C1296 C1290 1.379 . S
C1296 C1293 1.363 . S
C1296 N1294 1.356 . S
C1297 C1291 1.363 . S
C1297 C1292 1.379 . S
C1297 N1295 1.356 . S
N1298 C1290 1.356 . S
N1298 H1304 0.984 . S
N1298 H1305 0.984 . S
N1299 C1292 1.356 . S
N1299 H1302 0.984 . S
N1299 H1303 0.985 . S
H1300 N1295 0.984 . S
H1301 N1295 0.985 . S
H1302 N1299 0.984 . S
H1303 N1299 0.985 . S
H1304 N1298 0.984 . S
H1305 N1298 0.984 . S
H1306 N1294 0.984 . S
H1307 N1294 0.985 . S
C1308 C1309 1.363 . S
C1308 C1314 1.379 . S
C1308 N1316 1.356 . S
C1309 C1308 1.363 . S
C1309 C1315 1.363 . S
C1310 C1311 1.363 . S
C1310 C1315 1.379 . S
C1310 N1317 1.356 . S
C1311 C1310 1.363 . S
C1311 C1314 1.363 . S
N1312 C1314 1.356 . S
N1312 H1324 0.984 . S
N1312 H1325 0.985 . S
N1313 C1315 1.356 . S
N1313 H1318 0.984 . S
N1313 H1319 0.985 . S
C1314 C1308 1.379 . S
C1314 C1311 1.363 . S
C1314 N1312 1.356 . S
C1315 C1309 1.363 . S
C1315 C1310 1.379 . S
C1315 N1313 1.356 . S
N1316 C1308 1.356 . S
N1316 H1322 0.984 . S
N1316 H1323 0.984 . S
N1317 C1310 1.356 . S
N1317 H1320 0.984 . S
N1317 H1321 0.985 . S
H1318 N1313 0.984 . S
H1319 N1313 0.985 . S
H1320 N1317 0.984 . S
H1321 N1317 0.985 . S
H1322 N1316 0.984 . S
H1323 N1316 0.984 . S
H1324 N1312 0.984 . S
H1325 N1312 0.985 . S
C1326 C1327 1.363 . S
C1326 C1332 1.379 . S
C1326 N1334 1.356 . S
C1327 C1326 1.363 . S
C1327 C1333 1.363 1_455 S
C1328 C1329 1.363 . S
C1328 C1333 1.379 . S
C1328 N1335 1.356 . S
C1329 C1328 1.363 . S
C1329 C1332 1.363 1_655 S
N1330 C1332 1.356 . S
N1330 H1342 0.984 . S
N1330 H1343 0.985 . S
N1331 C1333 1.356 . S
N1331 H1336 0.984 . S
N1331 H1337 0.985 . S
C1332 C1326 1.379 . S
C1332 C1329 1.363 1_455 S
C1332 N1330 1.356 . S
C1333 C1327 1.363 1_655 S
C1333 C1328 1.379 . S
C1333 N1331 1.356 . S
N1334 C1326 1.356 . S
N1334 H1340 0.984 . S
N1334 H1341 0.984 . S
N1335 C1328 1.356 . S
N1335 H1338 0.984 . S
N1335 H1339 0.985 . S
H1336 N1331 0.984 . S
H1337 N1331 0.985 . S
H1338 N1335 0.984 . S
H1339 N1335 0.985 . S
H1340 N1334 0.984 . S
H1341 N1334 0.984 . S
H1342 N1330 0.984 . S
H1343 N1330 0.985 . S
C1344 C1345 1.363 . S
C1344 C1350 1.379 . S
C1344 N1352 1.356 . S
C1345 C1344 1.363 . S
C1345 C1351 1.363 1_545 S
C1346 C1347 1.363 . S
C1346 C1351 1.379 . S
C1346 N1353 1.356 . S
C1347 C1346 1.363 . S
C1347 C1350 1.363 1_565 S
N1348 C1350 1.356 . S
N1348 H1360 0.984 . S
N1348 H1361 0.985 . S
N1349 C1351 1.356 . S
N1349 H1354 0.984 . S
N1349 H1355 0.985 . S
C1350 C1344 1.379 . S
C1350 C1347 1.363 1_545 S
C1350 N1348 1.356 . S
C1351 C1345 1.363 1_565 S
C1351 C1346 1.379 . S
C1351 N1349 1.356 . S
N1352 C1344 1.356 . S
N1352 H1358 0.984 . S
N1352 H1359 0.984 . S
N1353 C1346 1.356 . S
N1353 H1356 0.984 . S
N1353 H1357 0.985 . S
H1354 N1349 0.984 . S
H1355 N1349 0.985 . S
H1356 N1353 0.984 . S
H1357 N1353 0.985 . S
H1358 N1352 0.984 . S
H1359 N1352 0.984 . S
H1360 N1348 0.984 . S
H1361 N1348 0.985 . S
C1362 C1363 1.363 . S
C1362 C1368 1.379 . S
C1362 N1370 1.356 . S
C1363 C1362 1.363 . S
C1363 C1369 1.363 . S
C1364 C1365 1.363 . S
C1364 C1369 1.379 . S
C1364 N1371 1.356 . S
C1365 C1364 1.363 . S
C1365 C1368 1.363 . S
N1366 C1368 1.356 . S
N1366 H1378 0.984 . S
N1366 H1379 0.985 . S
N1367 C1369 1.356 . S
N1367 H1372 0.984 . S
N1367 H1373 0.985 . S
C1368 C1362 1.379 . S
C1368 C1365 1.363 . S
C1368 N1366 1.356 . S
C1369 C1363 1.363 . S
C1369 C1364 1.379 . S
C1369 N1367 1.356 . S
N1370 C1362 1.356 . S
N1370 H1376 0.984 . S
N1370 H1377 0.984 . S
N1371 C1364 1.356 . S
N1371 H1374 0.984 . S
N1371 H1375 0.985 . S
H1372 N1367 0.984 . S
H1373 N1367 0.985 . S
H1374 N1371 0.984 . S
H1375 N1371 0.985 . S
H1376 N1370 0.984 . S
H1377 N1370 0.984 . S
H1378 N1366 0.984 . S
H1379 N1366 0.985 . S
C1380 C1381 1.363 . S
C1380 C1386 1.379 . S
C1380 N1388 1.356 . S
C1381 C1380 1.363 . S
C1381 C1387 1.363 . S
C1382 C1383 1.363 . S
C1382 C1387 1.379 . S
C1382 N1389 1.356 . S
C1383 C1382 1.363 . S
C1383 C1386 1.363 . S
N1384 C1386 1.356 . S
N1384 H1396 0.984 . S
N1384 H1397 0.985 . S
N1385 C1387 1.356 . S
N1385 H1390 0.984 . S
N1385 H1391 0.985 . S
C1386 C1380 1.379 . S
C1386 C1383 1.363 . S
C1386 N1384 1.356 . S
C1387 C1381 1.363 . S
C1387 C1382 1.379 . S
C1387 N1385 1.356 . S
N1388 C1380 1.356 . S
N1388 H1394 0.984 . S
N1388 H1395 0.984 . S
N1389 C1382 1.356 . S
N1389 H1392 0.984 . S
N1389 H1393 0.985 . S
H1390 N1385 0.984 . S
H1391 N1385 0.985 . S
H1392 N1389 0.984 . S
H1393 N1389 0.985 . S
H1394 N1388 0.984 . S
H1395 N1388 0.984 . S
H1396 N1384 0.984 . S
H1397 N1384 0.985 . S
C1398 C1399 1.363 . S
C1398 C1404 1.379 . S
C1398 N1406 1.356 . S
C1399 C1398 1.363 . S
C1399 C1405 1.363 . S
C1400 C1401 1.363 . S
C1400 C1405 1.379 . S
C1400 N1407 1.356 . S
C1401 C1400 1.363 . S
C1401 C1404 1.363 . S
N1402 C1404 1.356 . S
N1402 H1414 0.984 . S
N1402 H1415 0.985 . S
N1403 C1405 1.356 . S
N1403 H1408 0.984 . S
N1403 H1409 0.985 . S
C1404 C1398 1.379 . S
C1404 C1401 1.363 . S
C1404 N1402 1.356 . S
C1405 C1399 1.363 . S
C1405 C1400 1.379 . S
C1405 N1403 1.356 . S
N1406 C1398 1.356 . S
N1406 H1412 0.984 . S
N1406 H1413 0.984 . S
N1407 C1400 1.356 . S
N1407 H1410 0.984 . S
N1407 H1411 0.985 . S
H1408 N1403 0.984 . S
H1409 N1403 0.985 . S
H1410 N1407 0.984 . S
H1411 N1407 0.985 . S
H1412 N1406 0.984 . S
H1413 N1406 0.984 . S
H1414 N1402 0.984 . S
H1415 N1402 0.985 . S
C1416 C1417 1.363 . S
C1416 C1422 1.379 . S
C1416 N1424 1.356 . S
C1417 C1416 1.363 . S
C1417 C1423 1.363 . S
C1418 C1419 1.363 . S
C1418 C1423 1.379 . S
C1418 N1425 1.356 . S
C1419 C1418 1.363 . S
C1419 C1422 1.363 . S
N1420 C1422 1.356 . S
N1420 H1432 0.984 . S
N1420 H1433 0.985 . S
N1421 C1423 1.356 . S
N1421 H1426 0.984 . S
N1421 H1427 0.985 . S
C1422 C1416 1.379 . S
C1422 C1419 1.363 . S
C1422 N1420 1.356 . S
C1423 C1417 1.363 . S
C1423 C1418 1.379 . S
C1423 N1421 1.356 . S
N1424 C1416 1.356 . S
N1424 H1430 0.984 . S
N1424 H1431 0.984 . S
N1425 C1418 1.356 . S
N1425 H1428 0.984 . S
N1425 H1429 0.985 . S
H1426 N1421 0.984 . S
H1427 N1421 0.985 . S
H1428 N1425 0.984 . S
H1429 N1425 0.985 . S
H1430 N1424 0.984 . S
H1431 N1424 0.984 . S
H1432 N1420 0.984 . S
H1433 N1420 0.985 . S
C1434 C1435 1.363 . S
C1434 C1440 1.379 . S
C1434 N1442 1.356 . S
C1435 C1434 1.363 . S
C1435 C1441 1.363 . S
C1436 C1437 1.363 . S
C1436 C1441 1.379 . S
C1436 N1443 1.356 . S
C1437 C1436 1.363 . S
C1437 C1440 1.363 . S
N1438 C1440 1.356 . S
N1438 H1450 0.984 . S
N1438 H1451 0.985 . S
N1439 C1441 1.356 . S
N1439 H1444 0.984 . S
N1439 H1445 0.985 . S
C1440 C1434 1.379 . S
C1440 C1437 1.363 . S
C1440 N1438 1.356 . S
C1441 C1435 1.363 . S
C1441 C1436 1.379 . S
C1441 N1439 1.356 . S
N1442 C1434 1.356 . S
N1442 H1448 0.984 . S
N1442 H1449 0.984 . S
N1443 C1436 1.356 . S
N1443 H1446 0.984 . S
N1443 H1447 0.985 . S
H1444 N1439 0.984 . S
H1445 N1439 0.985 . S
H1446 N1443 0.984 . S
H1447 N1443 0.985 . S
H1448 N1442 0.984 . S
H1449 N1442 0.984 . S
H1450 N1438 0.984 . S
H1451 N1438 0.985 . S
C1452 C1453 1.363 . S
C1452 C1458 1.379 . S
C1452 N1460 1.356 . S
C1453 C1452 1.363 . S
C1453 C1459 1.363 . S
C1454 C1455 1.363 . S
C1454 C1459 1.379 . S
C1454 N1461 1.356 . S
C1455 C1454 1.363 . S
C1455 C1458 1.363 . S
N1456 C1458 1.356 . S
N1456 H1468 0.984 . S
N1456 H1469 0.985 . S
N1457 C1459 1.356 . S
N1457 H1462 0.984 . S
N1457 H1463 0.985 . S
C1458 C1452 1.379 . S
C1458 C1455 1.363 . S
C1458 N1456 1.356 . S
C1459 C1453 1.363 . S
C1459 C1454 1.379 . S
C1459 N1457 1.356 . S
N1460 C1452 1.356 . S
N1460 H1466 0.984 . S
N1460 H1467 0.984 . S
N1461 C1454 1.356 . S
N1461 H1464 0.984 . S
N1461 H1465 0.985 . S
H1462 N1457 0.984 . S
H1463 N1457 0.985 . S
H1464 N1461 0.984 . S
H1465 N1461 0.985 . S
H1466 N1460 0.984 . S
H1467 N1460 0.984 . S
H1468 N1456 0.984 . S
H1469 N1456 0.985 . S
C1470 C1471 1.363 . S
C1470 C1476 1.379 . S
C1470 N1478 1.356 . S
C1471 C1470 1.363 . S
C1471 C1477 1.363 . S
C1472 C1473 1.363 . S
C1472 C1477 1.379 . S
C1472 N1479 1.356 . S
C1473 C1472 1.363 . S
C1473 C1476 1.363 . S
N1474 C1476 1.356 . S
N1474 H1486 0.984 . S
N1474 H1487 0.985 . S
N1475 C1477 1.356 . S
N1475 H1480 0.984 . S
N1475 H1481 0.985 . S
C1476 C1470 1.379 . S
C1476 C1473 1.363 . S
C1476 N1474 1.356 . S
C1477 C1471 1.363 . S
C1477 C1472 1.379 . S
C1477 N1475 1.356 . S
N1478 C1470 1.356 . S
N1478 H1484 0.984 . S
N1478 H1485 0.984 . S
N1479 C1472 1.356 . S
N1479 H1482 0.984 . S
N1479 H1483 0.985 . S
H1480 N1475 0.984 . S
H1481 N1475 0.985 . S
H1482 N1479 0.984 . S
H1483 N1479 0.985 . S
H1484 N1478 0.984 . S
H1485 N1478 0.984 . S
H1486 N1474 0.984 . S
H1487 N1474 0.985 . S
C1057 C20 1.616 . S
C1059 C585 1.618 . S
C1075 C108 1.618 . S
C1077 C665 1.616 . S
C1093 C205 1.628 . S
C1095 C753 1.630 . S
C1111 C841 1.618 . S
C1113 C293 1.616 . S
C1129 C381 1.618 . S
C1131 C937 1.616 . S
C1147 C1017 1.628 . S
C1149 C460 1.630 . S
C1165 C49 0.845 . S
C1167 C812 0.845 . S
C1183 C137 0.845 . S
C1185 C909 0.845 . S
C1201 C988 0.868 . S
C1203 C233 0.868 . S
C1219 C557 0.845 . S
C1221 C321 0.845 . S
C1237 C409 0.845 . S
C1239 C636 0.845 . S
C1255 C489 0.868 . S
C1257 C724 0.868 . S
C1273 C997 2.183 . S
C1275 C57 2.178 . S
C1291 C145 2.219 . S
C1293 C548 2.219 . S
C1309 C225 2.183 . S
C1311 C645 2.178 . S
C1327 C733 2.183 . S
C1329 C313 2.178 . S
C1345 C821 2.219 . S
C1347 C401 2.219 . S
C1363 C497 2.183 . S
C1365 C900 2.178 . S
C1381 C29 1.932 . S
C1383 C929 1.932 . S
C1399 C1025 1.943 . S
C1401 C117 1.946 . S
C1417 C577 1.945 . S
C1419 C196 1.946 . S
C1435 C284 1.932 . S
C1437 C673 1.932 . S
C1453 C761 1.943 . S
C1455 C372 1.946 . S
C1471 C849 1.944 . S
C1473 C469 1.945 . S
