# Generated by pormake.
# Topology smu, (6)-cn, num edge types: 1
# Building blocks:
#     Node 0, Type 0, BuildingBlock: BETDAH_clean_sbu_0, # of connection points: 6
#     Node 1, Type 0, BuildingBlock: BETDAH_clean_sbu_0, # of connection points: 6
#     Node 2, Type 0, BuildingBlock: BETDAH_clean_sbu_0, # of connection points: 6
#     Node 3, Type 0, BuildingBlock: BETDAH_clean_sbu_0, # of connection points: 6
#     Node 4, Type 0, BuildingBlock: BETDAH_clean_sbu_0, # of connection points: 6
#     Node 5, Type 0, BuildingBlock: BETDAH_clean_sbu_0, # of connection points: 6
#     Edge 6, Type (0, 0), BuildingBlock: XUDNAN_clean_linker_2, # of connection points: 2
#     Edge 7, Type (0, 0), BuildingBlock: XUDNAN_clean_linker_2, # of connection points: 2
#     Edge 8, Type (0, 0), BuildingBlock: XUDNAN_clean_linker_2, # of connection points: 2
#     Edge 9, Type (0, 0), BuildingBlock: XUDNAN_clean_linker_2, # of connection points: 2
#     Edge 10, Type (0, 0), BuildingBlock: XUDNAN_clean_linker_2, # of connection points: 2
#     Edge 11, Type (0, 0), BuildingBlock: XUDNAN_clean_linker_2, # of connection points: 2
#     Edge 12, Type (0, 0), BuildingBlock: XUDNAN_clean_linker_2, # of connection points: 2
#     Edge 13, Type (0, 0), BuildingBlock: XUDNAN_clean_linker_2, # of connection points: 2
#     Edge 14, Type (0, 0), BuildingBlock: XUDNAN_clean_linker_2, # of connection points: 2
#     Edge 15, Type (0, 0), BuildingBlock: XUDNAN_clean_linker_2, # of connection points: 2
#     Edge 16, Type (0, 0), BuildingBlock: XUDNAN_clean_linker_2, # of connection points: 2
#     Edge 17, Type (0, 0), BuildingBlock: XUDNAN_clean_linker_2, # of connection points: 2
#     Edge 18, Type (0, 0), BuildingBlock: XUDNAN_clean_linker_2, # of connection points: 2
#     Edge 19, Type (0, 0), BuildingBlock: XUDNAN_clean_linker_2, # of connection points: 2
#     Edge 20, Type (0, 0), BuildingBlock: XUDNAN_clean_linker_2, # of connection points: 2
#     Edge 21, Type (0, 0), BuildingBlock: XUDNAN_clean_linker_2, # of connection points: 2
#     Edge 22, Type (0, 0), BuildingBlock: XUDNAN_clean_linker_2, # of connection points: 2
#     Edge 23, Type (0, 0), BuildingBlock: XUDNAN_clean_linker_2, # of connection points: 2
# Relax obj value: 0.218
# Max RMSD: 0.313
# Mean RMSD: 0.313
data_MOF--net-smu--node1-BETDAH_clean_sbu_0--edge1-XUDNAN_clean_linker_2
_symmetry_space_group_name_H-M    P1
_symmetry_Int_Tables_number       1
_symmetry_cell_setting            triclinic
loop_
_symmetry_equiv_pos_as_xyz
'x, y, z'
_cell_length_a     38.514654
_cell_length_b     38.629282
_cell_length_c     25.828558
_cell_angle_alpha  89.89607
_cell_angle_beta   89.788535
_cell_angle_gamma 119.41707
loop_
_atom_site_label
_atom_site_type_symbol
_atom_site_fract_x
_atom_site_fract_y
_atom_site_fract_z
_atom_type_partial_charge
Ho0 Ho 0.40446 0.08275 0.29698 0.0
Ho1 Ho 0.35318 0.12277 0.31348 0.0
C2 C 0.4475 0.17719 0.31896 0.0
C3 C 0.45703 0.0617 0.2745 0.0
C4 C 0.49934 0.08002 0.25882 0.0
C5 C 0.52595 0.12054 0.26748 0.0
C6 C 0.56728 0.13539 0.26468 0.0
C7 C 0.58254 0.10981 0.25344 0.0
C8 C 0.55568 0.07006 0.2405 0.0
C9 C 0.51451 0.05532 0.24332 0.0
C10 C 0.37075 0.07014 0.39183 0.0
C11 C 0.30908 0.03036 0.29594 0.0
C12 C 0.32067 0.16557 0.33733 0.0
C13 C 0.29265 0.17902 0.3193 0.0
C14 C 0.25376 0.16202 0.33948 0.0
C15 C 0.22955 0.17879 0.32845 0.0
C16 C 0.24381 0.21318 0.29739 0.0
C17 C 0.28229 0.2294 0.27601 0.0
C18 C 0.30639 0.21263 0.28689 0.0
C19 C 0.36147 0.10568 0.2134 0.0
O20 O 0.45142 0.14784 0.29896 0.0
O21 O 0.41292 0.17169 0.33572 0.0
O22 O 0.45092 0.07088 0.32105 0.0
O23 O 0.43112 0.06053 0.2408 0.0
O24 O 0.3768 0.04474 0.36663 0.0
O25 O 0.38471 0.10263 0.36685 0.0
O26 O 0.30876 0.05892 0.32378 0.0
O27 O 0.34227 0.03488 0.27332 0.0
O28 O 0.35386 0.17858 0.31106 0.0
O29 O 0.30658 0.12885 0.35367 0.0
O30 O 0.32989 0.10499 0.23186 0.0
O31 O 0.38768 0.11826 0.24804 0.0
H32 H 0.51488 0.1401 0.27964 0.0
H33 H 0.58713 0.16609 0.27499 0.0
H34 H 0.56653 0.04974 0.23097 0.0
H35 H 0.49458 0.02398 0.23655 0.0
H36 H 0.24243 0.13647 0.36505 0.0
H37 H 0.19982 0.16511 0.34495 0.0
H38 H 0.29454 0.25613 0.25257 0.0
H39 H 0.33644 0.22706 0.27136 0.0
Ho40 Ho 0.73871 0.65242 0.2929 0.0
Ho41 Ho 0.82751 0.70932 0.30054 0.0
C42 C 0.79821 0.61559 0.30313 0.0
C43 C 0.66947 0.59301 0.26936 0.0
C44 C 0.65154 0.54957 0.27555 0.0
C45 C 0.61923 0.52385 0.24473 0.0
C46 C 0.60261 0.4826 0.24984 0.0
C47 C 0.61845 0.46641 0.28537 0.0
C48 C 0.65089 0.4923 0.31608 0.0
C49 C 0.66701 0.53346 0.31157 0.0
C50 C 0.75985 0.68427 0.38748 0.0
C51 C 0.77042 0.7464 0.29469 0.0
C52 C 0.90229 0.74717 0.32489 0.0
C53 C 0.94213 0.78142 0.31482 0.0
C54 C 0.9697 0.79517 0.35535 0.0
C55 C 1.00991 0.82188 0.34567 0.0
C56 C 1.02353 0.83559 0.29508 0.0
C57 C 0.99541 0.82312 0.25478 0.0
C58 C 0.95507 0.79622 0.26454 0.0
C59 C 0.797 0.70782 0.20484 0.0
O60 O 0.76126 0.609 0.30753 0.0
O61 O 0.82828 0.65179 0.2977 0.0
O62 O 0.67669 0.61326 0.31212 0.0
O63 O 0.69908 0.60964 0.23655 0.0
O64 O 0.72664 0.67528 0.36464 0.0
O65 O 0.78089 0.67371 0.35997 0.0
O66 O 0.8035 0.75028 0.3153 0.0
O67 O 0.74188 0.71188 0.27648 0.0
O68 O 0.88731 0.72047 0.28844 0.0
O69 O 0.87541 0.75268 0.349 0.0
O70 O 0.82802 0.73837 0.22375 0.0
O71 O 0.78684 0.6788 0.23563 0.0
H72 H 0.60689 0.53567 0.21668 0.0
H73 H 0.5777 0.46333 0.22553 0.0
H74 H 0.66335 0.48069 0.34424 0.0
H75 H 0.6915 0.55269 0.33638 0.0
H76 H 0.96048 0.78367 0.39427 0.0
H77 H 1.03058 0.83028 0.37763 0.0
H78 H 1.00467 0.83356 0.21552 0.0
H79 H 0.93433 0.78585 0.23253 0.0
Ho80 Ho 0.96288 0.29974 0.28125 0.0
Ho81 Ho 0.95432 0.21865 0.30914 0.0
C82 C 0.87434 0.22514 0.28905 0.0
C83 C 0.97319 0.36769 0.24778 0.0
C84 C 0.95082 0.38952 0.25597 0.0
C85 C 0.96185 0.42526 0.22953 0.0
C86 C 0.94046 0.44574 0.23681 0.0
C87 C 0.90738 0.43092 0.27073 0.0
C88 C 0.89671 0.39511 0.29739 0.0
C89 C 0.91808 0.37469 0.29004 0.0
C90 C 0.95501 0.28125 0.38496 0.0
C91 C 0.04023 0.29043 0.30092 0.0
C92 C 0.93791 0.15159 0.35177 0.0
C93 C 0.91054 0.10892 0.34267 0.0
C94 C 0.87156 0.09478 0.32425 0.0
C95 C 0.84676 0.05409 0.31485 0.0
C96 C 0.86073 0.02702 0.32306 0.0
C97 C 0.89967 0.04144 0.34182 0.0
C98 C 0.92423 0.08189 0.35155 0.0
C99 C 0.97393 0.23855 0.20877 0.0
O100 O 0.89592 0.26264 0.27419 0.0
O101 O 0.89076 0.20402 0.3047 0.0
O102 O 0.99133 0.36387 0.28829 0.0
O103 O 0.9548 0.33466 0.22142 0.0
O104 O 0.93964 0.30043 0.36206 0.0
O105 O 0.97407 0.27395 0.35153 0.0
O106 O 1.01655 0.26113 0.33224 0.0
O107 O 1.0253 0.3075 0.27018 0.0
O108 O 0.92209 0.17318 0.36685 0.0
O109 O 0.96614 0.16965 0.31726 0.0
O110 O 0.98086 0.21392 0.23471 0.0
O111 O 0.95098 0.24677 0.23529 0.0
H112 H 0.98691 0.43725 0.20291 0.0
H113 H 0.94943 0.47282 0.21502 0.0
H114 H 0.87196 0.3829 0.32445 0.0
H115 H 0.90897 0.34721 0.31099 0.0
H116 H 0.86043 0.11514 0.3167 0.0
H117 H 0.81701 0.04394 0.30016 0.0
H118 H 0.91115 1.02134 0.34935 0.0
H119 H 0.95414 0.09215 0.36578 0.0
Ho120 Ho 0.14079 0.33892 0.79981 0.0
Ho121 Ho 0.10841 0.39628 0.7807 0.0
C122 C 0.0478 0.30229 0.79114 0.0
C123 C 0.17874 0.30408 0.83437 0.0
C124 C 0.18745 0.27114 0.83009 0.0
C125 C 0.1984 0.25864 0.87505 0.0
C126 C 0.21654 0.23507 0.87168 0.0
C127 C 0.22412 0.22361 0.82318 0.0
C128 C 0.21047 0.23376 0.77829 0.0
C129 C 0.19236 0.25748 0.78169 0.0
C130 C 0.11365 0.33634 0.70196 0.0
C131 C 0.20339 0.43327 0.79491 0.0
C132 C 0.09698 0.45234 0.74365 0.0
C133 C 0.11229 0.49495 0.75437 0.0
C134 C 0.15337 0.52174 0.75898 0.0
C135 C 0.16697 0.56181 0.77032 0.0
C136 C 0.13975 0.57572 0.77765 0.0
C137 C 0.09876 0.54893 0.77219 0.0
C138 C 0.08522 0.50901 0.7606 0.0
C139 C 0.10025 0.37172 0.87955 0.0
O140 O 0.07634 0.29983 0.81622 0.0
O141 O 0.05407 0.33546 0.76712 0.0
O142 O 0.19128 0.3298 0.79634 0.0
O143 O 0.14467 0.29759 0.85413 0.0
O144 O 0.11429 0.30653 0.72428 0.0
O145 O 0.13133 0.36638 0.73078 0.0
O146 O 0.17319 0.4405 0.79728 0.0
O147 O 0.19751 0.39676 0.79254 0.0
O148 O 0.07447 0.42745 0.77948 0.0
O149 O 0.12215 0.44252 0.72379 0.0
O150 O 0.07703 0.38222 0.8566 0.0
O151 O 0.13007 0.37915 0.85062 0.0
H152 H 0.19508 0.26903 0.9127 0.0
H153 H 0.22588 0.22696 0.90703 0.0
H154 H 0.21583 0.22532 0.74039 0.0
H155 H 0.18432 0.26696 0.7464 0.0
H156 H 0.17497 0.51173 0.75434 0.0
H157 H 0.19868 0.58165 0.77464 0.0
H158 H 0.07707 0.55885 0.77689 0.0
H159 H 0.05348 0.48899 0.75689 0.0
Ho160 Ho 0.24027 0.943 0.8323 0.0
Ho161 Ho 0.31935 0.95258 0.79135 0.0
C162 C 0.30926 0.0288 0.8112 0.0
C163 C 0.17588 0.92707 0.88248 0.0
C164 C 0.13266 0.9015 0.87386 0.0
C165 C 0.10779 0.91835 0.8776 0.0
C166 C 0.06704 0.89559 0.86784 0.0
C167 C 0.04994 0.85515 0.85458 0.0
C168 C 0.07497 0.83825 0.85077 0.0
C169 C 0.11597 0.86123 0.86019 0.0
C170 C 0.2485 0.95385 0.72869 0.0
C171 C 0.24909 0.86441 0.81422 0.0
C172 C 0.38433 0.96297 0.74715 0.0
C173 C 0.40787 0.94177 0.7506 0.0
C174 C 0.39926 0.90934 0.71811 0.0
C175 C 0.42012 0.88828 0.72279 0.0
C176 C 0.4504 0.89911 0.75989 0.0
C177 C 0.45972 0.93219 0.7915 0.0
C178 C 0.43878 0.95324 0.78688 0.0
C179 C 0.31079 0.94903 0.89705 0.0
O180 O 0.28286 1.00696 0.84686 0.0
O181 O 0.32352 1.01272 0.77796 0.0
O182 O 0.19692 0.90954 0.89202 0.0
O183 O 0.19393 0.95721 0.85076 0.0
O184 O 0.22591 0.96186 0.75749 0.0
O185 O 0.2611 0.93466 0.75529 0.0
O186 O 0.2836 0.88584 0.79027 0.0
O187 O 0.22922 0.88054 0.83536 0.0
O188 O 0.38396 0.98278 0.78801 0.0
O189 O 0.34917 0.94368 0.72565 0.0
O190 O 0.32904 0.93405 0.871 0.0
O191 O 0.29961 0.96612 0.86544 0.0
H192 H 0.12004 0.94942 0.88752 0.0
H193 H 0.04903 0.91 0.86998 0.0
H194 H 0.06286 0.80719 0.84103 0.0
H195 H 0.13454 0.8475 0.8566 0.0
H196 H 0.37609 0.89992 0.6892 0.0
H197 H 0.41259 0.86354 0.69701 0.0
H198 H 0.48263 0.94134 0.82072 0.0
H199 H 0.44652 0.97824 0.81229 0.0
Ho200 Ho 0.73185 0.82747 0.81051 0.0
Ho201 Ho 0.67496 0.73509 0.78396 0.0
C202 C 0.76731 0.76855 0.81296 0.0
C203 C 0.76407 0.89914 0.84639 0.0
C204 C 0.79579 0.94078 0.84019 0.0
C205 C 0.79879 0.96824 0.87776 0.0
C206 C 0.8228 1.00902 0.86917 0.0
C207 C 0.84456 0.02328 0.82283 0.0
C208 C 0.84312 0.99564 0.78618 0.0
C209 C 0.81862 0.95464 0.7946 0.0
C210 C 0.74167 0.80466 0.71479 0.0
C211 C 0.63611 0.79265 0.79682 0.0
C212 C 0.62364 0.66993 0.73978 0.0
C213 C 0.5799 0.64697 0.74877 0.0
C214 C 0.5548 0.61582 0.71586 0.0
C215 C 0.51315 0.59629 0.72284 0.0
C216 C 0.49573 0.60789 0.76248 0.0
C217 C 0.52119 0.63877 0.79572 0.0
C218 C 0.56264 0.6579 0.78906 0.0
C219 C 0.67994 0.7475 0.88893 0.0
O220 O 0.7666 0.79871 0.83651 0.0
O221 O 0.73744 0.74269 0.78326 0.0
O222 O 0.73721 0.88546 0.80989 0.0
O223 O 0.77306 0.87259 0.86382 0.0
O224 O 0.76888 0.83518 0.73929 0.0
O225 O 0.7091 0.7911 0.7397 0.0
O226 O 0.63066 0.75712 0.78478 0.0
O227 O 0.67116 0.82233 0.81019 0.0
O228 O 0.64615 0.67082 0.77828 0.0
O229 O 0.63651 0.70509 0.71896 0.0
O230 O 0.65909 0.71331 0.86698 0.0
O231 O 0.69456 0.77274 0.85283 0.0
H232 H 0.78113 0.95818 0.91296 0.0
H233 H 0.82377 0.0295 0.89849 0.0
H234 H 0.85954 1.00575 0.75009 0.0
H235 H 0.81628 0.93393 0.76478 0.0
H236 H 0.56734 0.60702 0.68429 0.0
H237 H 0.49453 0.57285 0.69628 0.0
H238 H 0.50906 0.64818 0.82711 0.0
H239 H 0.58127 0.68172 0.81514 0.0
H240 H 0.26797 0.96635 0.96626 0.0
H241 H 0.38156 0.97033 0.94498 0.0
H242 H 0.40705 1.01089 1.02417 0.0
H243 H 0.3031 0.06239 1.00943 0.0
H244 H 0.26531 0.0511 0.0581 0.0
H245 H 0.25444 1.01935 1.00261 0.0
H246 H 0.23398 0.95838 0.06238 0.0
H247 H 0.24408 0.9897 0.1183 0.0
H248 H 0.26815 0.96006 0.11112 0.0
H249 H 0.42324 0.05991 0.09748 0.0
H250 H 0.42479 0.10264 0.16986 0.0
H251 H 0.29872 0.06073 0.1494 0.0
C252 C 0.29776 0.97473 0.97934 0.0
C253 C 0.32271 0.96497 0.9499 0.0
C254 C 0.36176 0.97695 0.96748 0.0
C255 C 0.3766 1.00031 1.01214 0.0
C256 C 0.3517 1.01063 1.03939 0.0
C257 C 0.31268 0.99717 1.0246 0.0
C258 C 0.29217 1.01259 0.06059 0.0
C259 C 0.27793 0.03786 1.03089 0.0
C260 C 0.25755 0.97814 0.08983 0.0
C261 C 0.32613 0.03791 0.09681 0.0
C262 C 0.36033 0.0367 0.08366 0.0
C263 C 0.39628 0.05999 0.10921 0.0
C264 C 0.3969 0.08403 0.15037 0.0
C265 C 0.36166 0.08383 0.16644 0.0
C266 C 0.32603 0.06097 0.13859 0.0
H267 H 0.69086 0.75168 0.64141 0.0
H268 H 0.81456 0.81507 0.68872 0.0
H269 H 0.83313 0.78718 0.61459 0.0
H270 H 0.69089 0.66233 0.59252 0.0
H271 H 0.65899 0.65709 0.53874 0.0
H272 H 0.65515 0.67947 0.59809 0.0
H273 H 0.66676 0.74219 0.54715 0.0
H274 H 0.67057 0.71996 0.48778 0.0
H275 H 0.7105 0.76791 0.50679 0.0
H276 H 0.83891 0.7544 0.5305 0.0
H277 H 0.83041 0.72232 0.4443 0.0
H278 H 0.7037 0.68187 0.4527 0.0
C279 C 0.72169 0.75911 0.63658 0.0
C280 C 0.75116 0.78546 0.67107 0.0
C281 C 0.79138 0.79506 0.66273 0.0
C282 C 0.80227 0.77919 0.62077 0.0
C283 C 0.7727 0.75374 0.58689 0.0
C284 C 0.7332 0.74384 0.59436 0.0
C285 C 0.70752 0.71784 0.55072 0.0
C286 C 0.6763 0.67674 0.57125 0.0
C287 C 0.68769 0.7382 0.52139 0.0
C288 C 0.73867 0.7151 0.51741 0.0
C289 C 0.77612 0.73558 0.53888 0.0
C290 C 0.80957 0.73801 0.51357 0.0
C291 C 0.80458 0.71961 0.46472 0.0
C292 C 0.76651 0.69946 0.44163 0.0
C293 C 0.73333 0.6969 0.46912 0.0
H294 H 0.96472 0.2872 0.13516 0.0
H295 H 0.03964 0.23668 0.17713 0.0
H296 H 0.08247 0.26848 0.10184 0.0
H297 H 0.9686 0.27251 0.99841 0.0
H298 H 0.96971 0.31801 0.9797 0.0
H299 H 0.94606 0.29375 1.03953 0.0
H300 H 0.99124 0.35846 0.08978 0.0
H301 H 1.01506 0.38287 1.03 0.0
H302 H 0.04462 0.38142 0.08302 0.0
H303 H 0.11739 0.30438 1.02022 0.0
H304 H 0.13846 0.33899 0.93526 0.0
H305 H 0.04028 0.36384 0.94293 0.0
C306 C 0.99031 0.28321 0.12862 0.0
C307 C 0.99873 0.25953 0.16254 0.0
C308 C 1.03227 0.25456 0.15196 0.0
C309 C 0.05712 0.2727 0.10922 0.0
C310 C 0.04808 0.29558 0.07633 0.0
C311 C 1.01536 0.30071 0.08511 0.0
C312 C 1.01136 0.325 1.04164 0.0
C313 C 0.97157 0.30087 1.01314 0.0
C314 C 1.01584 0.36427 0.06236 0.0
C315 C 0.04657 0.33222 1.00738 0.0
C316 C 0.06768 0.3154 1.02836 0.0
C317 C 0.10109 0.31775 1.00332 0.0
C318 C 0.11292 0.3374 0.9551 0.0
C319 C 0.09106 0.35395 0.93231 0.0
C320 C 0.05775 0.35154 0.95931 0.0
H321 H 0.37252 1.01849 0.46173 0.0
H322 H 0.32903 0.10186 0.43991 0.0
H323 H 0.29267 0.08008 0.52369 0.0
H324 H 0.28643 0.94032 0.5183 0.0
H325 H 0.3123 0.92635 0.56462 0.0
H326 H 0.33611 0.9494 0.50431 0.0
H327 H 0.39592 1.00473 0.55393 0.0
H328 H 0.37252 0.98148 0.61441 0.0
H329 H 0.38705 0.03286 0.6027 0.0
H330 H 0.25561 0.04385 0.60387 0.0
H331 H 0.22819 1.00412 0.68279 0.0
H332 H 0.30052 0.94786 0.65793 0.0
C333 C 0.35576 0.03257 0.47499 0.0
C334 C 0.35332 0.06179 0.44446 0.0
C335 C 0.33133 0.07964 0.46293 0.0
C336 C 0.3105 0.06725 0.51024 0.0
C337 C 0.31282 0.03768 0.53884 0.0
C338 C 0.33566 1.02124 0.52256 0.0
C339 C 0.33353 0.99031 0.5609 0.0
C340 C 0.31604 0.94916 0.5355 0.0
C341 C 0.3747 1.00312 0.58438 0.0
C342 C 0.30517 0.99124 0.601 0.0
C343 C 0.29335 1.01852 0.587 0.0
C344 C 0.26548 0.02322 0.61583 0.0
C345 C 0.25009 1.00038 0.66077 0.0
C346 C 0.26322 0.97374 0.67773 0.0
C347 C 0.29072 0.96867 0.64683 0.0
H348 H 0.75621 0.78119 0.93106 0.0
H349 H 0.63052 0.7152 0.96975 0.0
H350 H 0.64696 0.69963 0.0558 0.0
H351 H 0.77934 0.71251 0.98888 0.0
H352 H 0.82805 0.74893 1.01105 0.0
H353 H 0.80655 0.75909 0.95521 0.0
H354 H 0.81598 0.82386 0.9994 0.0
H355 H 0.83737 0.81316 0.05495 0.0
H356 H 0.79496 0.82059 0.06293 0.0
H357 H 0.67561 0.68127 0.13056 0.0
H358 H 0.71542 0.67152 0.1968 0.0
H359 H 0.82384 0.7517 0.11464 0.0
C360 C 0.73231 0.76524 0.95846 0.0
C361 C 0.69196 0.75044 0.94404 0.0
C362 C 0.66157 0.72778 0.98044 0.0
C363 C 0.67063 0.71841 1.02926 0.0
C364 C 0.71042 0.73179 1.04144 0.0
C365 C 0.74093 0.75539 1.00766 0.0
C366 C 0.7809 0.76317 1.02921 0.0
C367 C 0.79986 0.74488 0.99399 0.0
C368 C 0.80897 0.80786 1.03711 0.0
C369 C 0.7681 0.74092 0.08056 0.0
C370 C 0.72717 0.72221 0.08598 0.0
C371 C 0.70777 0.69652 0.12722 0.0
C372 C 0.73075 0.69059 0.16455 0.0
C373 C 0.77286 0.71075 0.16156 0.0
C374 C 0.79169 0.73624 0.11862 0.0
H375 H 0.9922 0.24747 0.43841 0.0
H376 H 0.95014 0.33257 0.45384 0.0
H377 H 0.98496 0.35443 0.53759 0.0
H378 H 0.98568 0.22254 0.5796 0.0
H379 H 1.02978 0.21756 0.57681 0.0
H380 H 0.99818 0.20589 0.52085 0.0
H381 H 0.059 0.25527 0.46657 0.0
H382 H 0.09081 0.26823 0.5223 0.0
H383 H 0.08724 0.30644 0.48647 0.0
H384 H 1.03122 0.37308 0.61305 0.0
H385 H 0.07781 0.38078 0.68247 0.0
H386 H 0.08838 0.28191 0.6222 0.0
C387 C 0.98945 0.26996 0.46016 0.0
C388 C 0.96837 0.28831 0.43963 0.0
C389 C 0.96575 0.31786 0.46893 0.0
C390 C 0.98568 0.33064 0.51641 0.0
C391 C 1.00755 0.31311 0.5345 0.0
C392 C 1.00877 0.28271 0.50799 0.0
C393 C 1.03526 0.26961 0.53557 0.0
C394 C 1.01076 0.22633 0.55432 0.0
C395 C 0.07014 0.27525 0.50064 0.0
C396 C 0.04972 0.29825 0.58087 0.0
C397 C 1.03343 0.32314 0.57918 0.0
C398 C 0.04375 0.35344 0.61503 0.0
C399 C 0.07086 0.35806 0.65407 0.0
C400 C 0.08721 0.33243 0.6578 0.0
C401 C 0.0763 0.30197 0.62058 0.0
H402 H 0.65053 0.17928 0.22202 0.0
H403 H 0.6111 0.06919 0.30751 0.0
H404 H 0.68067 0.08844 0.32654 0.0
H405 H 0.73823 0.18195 0.16525 0.0
H406 H 0.7692 0.23508 0.1702 0.0
H407 H 0.71603 0.21356 0.16333 0.0
H408 H 0.71339 0.2491 0.24691 0.0
H409 H 0.76655 0.27063 0.25411 0.0
H410 H 0.73361 0.24168 0.30607 0.0
H411 H 0.75239 0.11793 0.33735 0.0
H412 H 0.82507 0.15542 0.33702 0.0
H413 H 0.82255 0.24799 0.24363 0.0
C414 C 0.65671 0.15935 0.2447 0.0
C415 C 0.62528 0.12239 0.2627 0.0
C416 C 0.63455 0.09715 0.29232 0.0
C417 C 0.67401 0.10797 0.30375 0.0
C418 C 0.70418 0.14423 0.28531 0.0
C419 C 0.69636 0.16961 0.25622 0.0
C420 C 0.73513 0.20646 0.24053 0.0
C421 C 0.73993 0.20943 0.18131 0.0
C422 C 0.73728 0.2442 0.26327 0.0
C423 C 0.7657 0.19758 0.26549 0.0
C424 C 0.74674 0.16151 0.29121 0.0
C425 C 0.76768 0.14614 0.31717 0.0
C426 C 0.80921 0.16781 0.31649 0.0
C427 C 0.82996 0.20468 0.2898 0.0
C428 C 0.80773 0.21998 0.26435 0.0
H429 H 0.53963 0.41137 0.29652 0.0
H430 H 0.65727 0.42289 0.28792 0.0
H431 H 0.6273 0.34986 0.2976 0.0
H432 H 0.50048 0.33427 0.39348 0.0
H433 H 0.45127 0.30924 0.36585 0.0
H434 H 0.48225 0.36211 0.35764 0.0
H435 H 0.47476 0.35405 0.25798 0.0
H436 H 0.44361 0.3012 0.26598 0.0
H437 H 0.48763 0.32048 0.22582 0.0
H438 H 0.5828 0.27401 0.30457 0.0
H439 H 0.52865 0.20395 0.31228 0.0
H440 H 0.44182 0.2445 0.3205 0.0
C441 C 0.55905 0.39849 0.29636 0.0
C442 C 0.60071 0.42267 0.29113 0.0
C443 C 0.62524 0.40481 0.29202 0.0
C444 C 0.60848 0.3634 0.29737 0.0
C445 C 0.56719 0.34034 0.30245 0.0
C446 C 0.54291 0.35742 0.30239 0.0
C447 C 0.49957 0.32647 0.30928 0.0
C448 C 0.4824 0.33345 0.35956 0.0
C449 C 0.47496 0.3255 0.26194 0.0
C450 C 0.50309 0.28923 0.3128 0.0
C451 C 0.54218 0.29755 0.30847 0.0
C452 C 0.55212 0.26727 0.30849 0.0
C453 C 0.52121 0.22755 0.31279 0.0
C454 C 0.48103 0.21864 0.31762 0.0
C455 C 0.47224 0.25015 0.31796 0.0
H456 H 0.93446 0.51222 0.27323 0.0
H457 H 0.82613 0.39799 0.2835 0.0
H458 H 0.78692 0.43218 0.29564 0.0
H459 H 0.90693 0.56296 0.36807 0.0
H460 H 0.92931 0.60937 0.33297 0.0
H461 H 0.94911 0.57597 0.32609 0.0
H462 H 0.94007 0.57523 0.2267 0.0
H463 H 0.9204 0.60875 0.23329 0.0
H464 H 0.89175 0.56194 0.20071 0.0
H465 H 0.75875 0.47939 0.30544 0.0
H466 H 0.74474 0.53524 0.31078 0.0
H467 H 0.87105 0.61862 0.29301 0.0
C468 C 0.90247 0.49426 0.27767 0.0
C469 C 0.88368 0.45212 0.27769 0.0
C470 C 0.84164 0.43015 0.28427 0.0
C471 C 0.81894 0.44937 0.29089 0.0
C472 C 0.83843 0.4908 0.29085 0.0
C473 C 0.87928 0.51299 0.28431 0.0
C474 C 0.89291 0.55717 0.28524 0.0
C475 C 0.92124 0.57756 0.33081 0.0
C476 C 0.91243 0.57693 0.2334 0.0
C477 C 0.85339 0.55638 0.2931 0.0
C478 C 0.8223 0.51781 0.29635 0.0
C479 C 0.78298 0.50969 0.30306 0.0
C480 C 0.77526 0.54172 0.30616 0.0
C481 C 0.80661 0.58159 0.30257 0.0
C482 C 0.84622 0.58867 0.29619 0.0
H483 H 0.20259 0.64434 0.73714 0.0
H484 H 0.10815 0.60163 0.85259 0.0
H485 H 0.12847 0.67067 0.87648 0.0
H486 H 0.27621 0.72988 0.81184 0.0
H487 H 0.29537 0.76176 0.7558 0.0
H488 H 0.27502 0.70885 0.74917 0.0
H489 H 0.2259 0.70727 0.67976 0.0
H490 H 0.24604 0.7601 0.68624 0.0
H491 H 0.19336 0.72707 0.69504 0.0
H492 H 0.15596 0.7429 0.88538 0.0
H493 H 0.18932 0.81558 0.87935 0.0
H494 H 0.26751 0.81389 0.75877 0.0
C495 C 0.18659 0.6496 0.76791 0.0
C496 C 0.1536 0.61757 0.79285 0.0
C497 C 0.1331 0.62565 0.83247 0.0
C498 C 0.1446 0.66476 0.84658 0.0
C499 C 0.17679 0.69559 0.82086 0.0
C500 C 0.19766 0.68866 0.78247 0.0
C501 C 0.23022 0.72756 0.75987 0.0
C502 C 0.27166 0.73228 0.76978 0.0
C503 C 0.22346 0.73067 0.70179 0.0
C504 C 0.22389 0.75729 0.79113 0.0
C505 C 0.193 0.73796 0.8262 0.0
C506 C 0.18036 0.75845 0.85833 0.0
C507 C 0.19951 0.79985 0.85438 0.0
C508 C 0.23111 0.82063 0.81852 0.0
C509 C 0.24371 0.79896 0.78683 0.0
H510 H 0.53043 0.92663 0.77903 0.0
H511 H 0.41845 0.81802 0.75494 0.0
H512 H 0.4531 0.77894 0.76351 0.0
H513 H 0.59206 0.8976 0.70878 0.0
H514 H 0.63352 0.92113 0.75261 0.0
H515 H 0.59979 0.94052 0.74529 0.0
H516 H 0.58643 0.93386 0.84418 0.0
H517 H 0.62013 0.91442 0.85177 0.0
H518 H 0.56958 0.88639 0.8753 0.0
H519 H 0.50057 0.75143 0.77302 0.0
H520 H 0.55682 0.73821 0.78253 0.0
H521 H 0.63749 0.86454 0.80259 0.0
C522 C 0.51304 0.8946 0.7761 0.0
C523 C 0.47158 0.87557 0.76601 0.0
C524 C 0.45027 0.83353 0.76176 0.0
C525 C 0.46966 0.81096 0.76696 0.0
C526 C 0.5105 0.83069 0.77662 0.0
C527 C 0.53194 0.87158 0.78123 0.0
C528 C 0.57569 0.88556 0.79091 0.0
C529 C 0.6018 0.91281 0.74677 0.0
C530 C 0.58871 0.90628 0.84368 0.0
C531 C 0.57554 0.8462 0.79089 0.0
C532 C 0.53765 0.81487 0.78259 0.0
C533 C 0.53032 0.77577 0.77977 0.0
C534 C 0.56254 0.76853 0.78522 0.0
C535 C 0.60173 0.80021 0.79359 0.0
C536 C 0.60797 0.8395 0.79675 0.0
H537 H 0.27087 0.42778 0.77748 0.0
H538 H 0.23207 0.514 0.80821 0.0
H539 H 0.30237 0.56807 0.80327 0.0
H540 H 0.36169 0.4752 0.8508 0.0
H541 H 0.38909 0.46241 0.8052 0.0
H542 H 0.336 0.431 0.81205 0.0
H543 H 0.32735 0.43763 0.71378 0.0
H544 H 0.38038 0.46919 0.70661 0.0
H545 H 0.34691 0.48637 0.68531 0.0
H546 H 0.37813 0.61287 0.79498 0.0
H547 H 0.45107 0.64411 0.78293 0.0
H548 H 0.43953 0.52806 0.75646 0.0
C549 C 0.27692 0.45797 0.78351 0.0
C550 C 0.24559 0.46644 0.79346 0.0
C551 C 0.25529 0.50657 0.80056 0.0
C552 C 0.29523 0.5375 0.79785 0.0
C553 C 0.32524 0.52794 0.78776 0.0
C554 C 0.31642 0.48906 0.78063 0.0
C555 C 0.35381 0.48644 0.76958 0.0
C556 C 0.36054 0.46234 0.81193 0.0
C557 C 0.35199 0.46887 0.71561 0.0
C558 C 0.38531 0.52998 0.77155 0.0
C559 C 0.3683 0.55347 0.78231 0.0
C560 C 0.3916 0.59463 0.78661 0.0
C561 C 0.43314 0.61212 0.77993 0.0
C562 C 0.45133 0.58866 0.7688 0.0
C563 C 0.42674 0.54698 0.76438 0.0
H564 H 0.19597 0.22312 0.36805 0.0
H565 H 0.23662 0.24874 0.20846 0.0
H566 H 0.19699 0.2826 0.196 0.0
H567 H 0.09691 0.19838 0.343 0.0
H568 H 0.09088 0.21936 0.40238 0.0
H569 H 0.12589 0.20137 0.39918 0.0
H570 H 0.18182 0.27038 0.42947 0.0
H571 H 0.14687 0.28869 0.43147 0.0
H572 H 0.19176 0.31424 0.39317 0.0
H573 H 0.14799 0.30909 0.19924 0.0
H574 H 0.08994 0.31886 0.21585 0.0
H575 H 0.08214 0.27534 0.3726 0.0
C576 C 0.19662 0.23579 0.3304 0.0
C577 C 0.2196 0.23327 0.28931 0.0
C578 C 0.21976 0.25072 0.24085 0.0
C579 C 0.19736 0.2701 0.23338 0.0
C580 C 0.1751 0.27207 0.27482 0.0
C581 C 0.17449 0.25516 0.32231 0.0
C582 C 0.1458 0.25839 0.35948 0.0
C583 C 0.11293 0.21692 0.37699 0.0
C584 C 0.1679 0.28449 0.40615 0.0
C585 C 0.12942 0.27865 0.32507 0.0
C586 C 0.14706 0.28704 0.27661 0.0
C587 C 0.13435 0.30308 0.23728 0.0
C588 C 0.10151 0.30879 0.24707 0.0
C589 C 0.08148 0.29767 0.29537 0.0
C590 C 0.09701 0.28433 0.33536 0.0
H591 H 0.07886 0.89599 0.3552 0.0
H592 H 0.06714 0.83317 0.2115 0.0
H593 H 0.13987 0.87361 0.19699 0.0
H594 H 0.15424 0.99147 0.31267 0.0
H595 H 0.17971 1.00393 0.37393 0.0
H596 H 0.12689 0.97015 0.37178 0.0
H597 H 0.1372 0.91726 0.42087 0.0
H598 H 0.19014 0.95079 0.42262 0.0
H599 H 0.17111 0.90205 0.39488 0.0
H600 H 0.21559 0.92242 0.19883 0.0
H601 H 0.28469 0.97662 0.21522 0.0
H602 H 0.24482 1.00336 0.35935 0.0
C603 C 0.09146 0.89037 0.32081 0.0
C604 C 0.06705 0.86126 0.28458 0.0
C605 C 0.08498 0.85564 0.23959 0.0
C606 C 0.12639 0.87821 0.23123 0.0
C607 C 0.14959 0.90619 0.2683 0.0
C608 C 0.13257 0.91232 0.3121 0.0
C609 C 0.16356 0.94436 0.34596 0.0
C610 C 0.15562 0.97956 0.35137 0.0
C611 C 0.16561 0.9276 0.39922 0.0
C612 C 0.20071 0.95559 0.31433 0.0
C613 C 0.1924 0.93332 0.26969 0.0
C614 C 0.22239 0.93977 0.23393 0.0
C615 C 0.26159 0.97035 0.24367 0.0
C616 C 0.27015 0.99403 0.28862 0.0
C617 C 0.2393 0.98576 0.32462 0.0
H618 H 0.88279 0.97844 0.27349 0.0
H619 H 0.78168 0.97799 0.34838 0.0
H620 H 0.74229 0.90492 0.33735 0.0
H621 H 0.82508 0.89631 0.1811 0.0
H622 H 0.85941 0.87749 0.18737 0.0
H623 H 0.87696 0.92995 0.19411 0.0
H624 H 0.90579 0.92914 0.28447 0.0
H625 H 0.8886 0.87694 0.27779 0.0
H626 H 0.87348 0.89477 0.33315 0.0
H627 H 0.71711 0.82994 0.32762 0.0
H628 H 0.71054 0.7626 0.32256 0.0
H629 H 0.82855 0.81424 0.25469 0.0
C630 C 0.85217 0.96308 0.28696 0.0
C631 C 0.83534 0.98389 0.3119 0.0
C632 C 0.79508 0.96269 0.32868 0.0
C633 C 0.7725 0.92118 0.32258 0.0
C634 C 0.79043 0.90141 0.29892 0.0
C635 C 0.82935 0.92192 0.28101 0.0
C636 C 0.84321 0.89402 0.26092 0.0
C637 C 0.85166 0.8998 0.2024 0.0
C638 C 0.87991 0.89901 0.29089 0.0
C639 C 0.80676 0.85446 0.27243 0.0
C640 C 0.77615 0.85898 0.29338 0.0
C641 C 0.74065 0.82613 0.31035 0.0
C642 C 0.73699 0.788 0.30713 0.0
C643 C 0.76891 0.7835 0.28784 0.0
C644 C 0.80354 0.817 0.26906 0.0
H645 H 0.21073 0.1599 0.76235 0.0
H646 H 0.29219 0.24158 0.87618 0.0
H647 H 0.33109 0.20648 0.87374 0.0
H648 H 0.20669 0.07499 0.81309 0.0
H649 H 0.20415 0.05191 0.75158 0.0
H650 H 0.1862 0.08676 0.75748 0.0
H651 H 0.23349 0.12865 0.68267 0.0
H652 H 0.25198 0.09401 0.67738 0.0
H653 H 0.28619 0.14604 0.68762 0.0
H654 H 0.35545 0.15732 0.86828 0.0
H655 H 0.3611 0.09622 0.86201 0.0
H656 H 0.26626 0.04863 0.74966 0.0
C657 C 0.23729 0.17094 0.78581 0.0
C658 C 0.24835 0.20338 0.81955 0.0
C659 C 0.28283 0.21643 0.85053 0.0
C660 C 0.30543 0.19701 0.84894 0.0
C661 C 0.29347 0.1648 0.81575 0.0
C662 C 0.26022 0.15188 0.78466 0.0
C663 C 0.25144 0.11419 0.75632 0.0
C664 C 0.20967 0.07996 0.7705 0.0
C665 C 0.25606 0.12116 0.6975 0.0
C666 C 0.28403 0.10722 0.77777 0.0
C667 C 0.30841 0.13704 0.81141 0.0
C668 C 0.33748 0.13446 0.84072 0.0
C669 C 0.34077 0.09992 0.83673 0.0
C670 C 0.3154 0.06891 0.80339 0.0
C671 C 0.28749 0.07307 0.77283 0.0
H672 H 0.98985 0.85928 0.90613 0.0
H673 H 1.0108 0.79715 0.78066 0.0
H674 H 0.93851 0.76133 0.7618 0.0
H675 H 0.89203 0.77984 0.94846 0.0
H676 H 0.87582 0.81568 0.96088 0.0
H677 H 0.92762 0.83 0.96659 0.0
H678 H 0.94328 0.88788 0.90172 0.0
H679 H 0.89099 0.87131 0.895 0.0
H680 H 0.92073 0.87626 0.83851 0.0
H681 H 0.8633 0.73696 0.75195 0.0
H682 H 0.79507 0.72852 0.75142 0.0
H683 H 0.82639 0.80824 0.88257 0.0
C684 C 0.97943 0.83808 0.87472 0.0
C685 C 1.00622 0.83118 0.84492 0.0
C686 C 0.99091 0.80267 0.80461 0.0
C687 C 0.94985 0.78225 0.79347 0.0
C688 C 0.92444 0.79051 0.82309 0.0
C689 C 0.93887 0.81783 0.86291 0.0
C690 C 0.9065 0.82401 0.88672 0.0
C691 C 0.90009 0.81156 0.94404 0.0
C692 C 0.91594 0.86742 0.88005 0.0
C693 C 0.87143 0.79609 0.85399 0.0
C694 C 0.88199 0.77674 0.81755 0.0
C695 C 0.85463 0.75153 0.7809 0.0
C696 C 0.81587 0.74672 0.78099 0.0
C697 C 0.8051 0.76731 0.81725 0.0
C698 C 0.83326 0.79158 0.85462 0.0
H699 H 0.03924 0.23066 0.76754 0.0
H700 H 0.97132 0.28937 0.8053 0.0
H701 H 0.90965 0.22351 0.81087 0.0
H702 H 0.96003 0.14886 0.68994 0.0
H703 H 0.97438 0.11361 0.71291 0.0
H704 H 1.01128 0.16533 0.70607 0.0
H705 H 1.03105 0.16672 0.80212 0.0
H706 H 0.994 0.11529 0.80957 0.0
H707 H 0.99341 0.15206 0.85188 0.0
H708 H 0.85787 0.15048 0.82389 0.0
H709 H 0.81925 0.07764 0.83629 0.0
H710 H 0.92157 0.06744 0.78699 0.0
C711 C 1.01116 0.22966 0.77582 0.0
C712 C 1.00974 0.26486 0.78598 0.0
C713 C 0.97273 0.26264 0.79683 0.0
C714 C 0.93774 0.22539 0.80026 0.0
C715 C 0.94042 0.19102 0.79161 0.0
C716 C 0.97617 0.19301 0.77856 0.0
C717 C 0.97185 0.15202 0.77333 0.0
C718 C 0.97985 0.14451 0.71723 0.0
C719 C 0.99919 0.14621 0.81151 0.0
C720 C 0.92837 0.12634 0.7877 0.0
C721 C 0.91064 0.14932 0.79781 0.0
C722 C 0.87134 0.13229 0.81522 0.0
C723 C 0.84974 0.09091 0.82253 0.0
C724 C 0.86737 0.06685 0.81246 0.0
C725 C 0.90708 0.08494 0.79418 0.0
loop_
_geom_bond_atom_site_label_1
_geom_bond_atom_site_label_2
_geom_bond_distance
_geom_bond_site_symmetry_2
_ccdc_geom_bond_type
Ho0 C3 2.811 . S
Ho0 O20 2.322 . S
Ho0 O22 2.378 . S
Ho0 O23 2.524 . S
Ho0 O24 2.381 . S
Ho0 O25 2.669 . S
Ho0 O27 2.346 . S
Ho0 O31 2.305 . S
Ho1 C12 2.811 . S
Ho1 O21 2.346 . S
Ho1 O25 2.305 . S
Ho1 O26 2.322 . S
Ho1 O28 2.378 . S
Ho1 O29 2.524 . S
Ho1 O30 2.381 . S
Ho1 O31 2.669 . S
C2 O20 1.259 . S
C2 O21 1.268 . S
C3 Ho0 2.811 . S
C3 C4 1.488 . S
C3 O22 1.215 . S
C3 O23 1.289 . S
C4 C3 1.488 . S
C4 C5 1.348 . S
C4 C9 1.413 . S
C5 C4 1.348 . S
C5 C6 1.442 . S
C5 H32 0.930 . S
C6 C5 1.442 . S
C6 C7 1.381 . S
C6 H33 0.931 . S
C7 C6 1.381 . S
C7 C8 1.321 . S
C8 C7 1.321 . S
C8 C9 1.403 . S
C8 H34 0.934 . S
C9 C4 1.413 . S
C9 C8 1.403 . S
C9 H35 0.930 . S
C10 O24 1.275 . S
C10 O25 1.256 . S
C11 O26 1.259 . S
C11 O27 1.268 . S
C12 Ho1 2.811 . S
C12 C13 1.488 . S
C12 O28 1.215 . S
C12 O29 1.289 . S
C13 C12 1.488 . S
C13 C14 1.348 . S
C13 C18 1.413 . S
C14 C13 1.348 . S
C14 C15 1.442 . S
C14 H36 0.930 . S
C15 C14 1.442 . S
C15 C16 1.381 . S
C15 H37 0.931 . S
C16 C15 1.381 . S
C16 C17 1.321 . S
C17 C16 1.321 . S
C17 C18 1.403 . S
C17 H38 0.934 . S
C18 C13 1.413 . S
C18 C17 1.403 . S
C18 H39 0.930 . S
C19 O30 1.275 . S
C19 O31 1.256 . S
O20 Ho0 2.322 . S
O20 C2 1.259 . S
O21 Ho1 2.346 . S
O21 C2 1.268 . S
O22 Ho0 2.378 . S
O22 C3 1.215 . S
O23 Ho0 2.524 . S
O23 C3 1.289 . S
O24 Ho0 2.381 . S
O24 C10 1.275 . S
O25 Ho0 2.669 . S
O25 Ho1 2.305 . S
O25 C10 1.256 . S
O26 Ho1 2.322 . S
O26 C11 1.259 . S
O27 Ho0 2.346 . S
O27 C11 1.268 . S
O28 Ho1 2.378 . S
O28 C12 1.215 . S
O29 Ho1 2.524 . S
O29 C12 1.289 . S
O30 Ho1 2.381 . S
O30 C19 1.275 . S
O31 Ho0 2.305 . S
O31 Ho1 2.669 . S
O31 C19 1.256 . S
H32 C5 0.930 . S
H33 C6 0.931 . S
H34 C8 0.934 . S
H35 C9 0.930 . S
H36 C14 0.930 . S
H37 C15 0.931 . S
H38 C17 0.934 . S
H39 C18 0.930 . S
Ho40 C43 2.811 . S
Ho40 O60 2.322 . S
Ho40 O62 2.378 . S
Ho40 O63 2.524 . S
Ho40 O64 2.381 . S
Ho40 O65 2.669 . S
Ho40 O67 2.346 . S
Ho40 O71 2.305 . S
Ho41 C52 2.811 . S
Ho41 O61 2.346 . S
Ho41 O65 2.305 . S
Ho41 O66 2.322 . S
Ho41 O68 2.378 . S
Ho41 O69 2.524 . S
Ho41 O70 2.381 . S
Ho41 O71 2.669 . S
C42 O60 1.259 . S
C42 O61 1.268 . S
C43 Ho40 2.811 . S
C43 C44 1.488 . S
C43 O62 1.215 . S
C43 O63 1.289 . S
C44 C43 1.488 . S
C44 C45 1.348 . S
C44 C49 1.413 . S
C45 C44 1.348 . S
C45 C46 1.442 . S
C45 H72 0.930 . S
C46 C45 1.442 . S
C46 C47 1.381 . S
C46 H73 0.931 . S
C47 C46 1.381 . S
C47 C48 1.321 . S
C48 C47 1.321 . S
C48 C49 1.403 . S
C48 H74 0.934 . S
C49 C44 1.413 . S
C49 C48 1.403 . S
C49 H75 0.930 . S
C50 O64 1.275 . S
C50 O65 1.256 . S
C51 O66 1.259 . S
C51 O67 1.268 . S
C52 Ho41 2.811 . S
C52 C53 1.488 . S
C52 O68 1.215 . S
C52 O69 1.289 . S
C53 C52 1.488 . S
C53 C54 1.348 . S
C53 C58 1.413 . S
C54 C53 1.348 . S
C54 C55 1.442 . S
C54 H76 0.930 . S
C55 C54 1.442 . S
C55 C56 1.381 . S
C55 H77 0.931 . S
C56 C55 1.381 . S
C56 C57 1.321 . S
C57 C56 1.321 . S
C57 C58 1.403 . S
C57 H78 0.934 1_655 S
C58 C53 1.413 . S
C58 C57 1.403 . S
C58 H79 0.930 . S
C59 O70 1.275 . S
C59 O71 1.256 . S
O60 Ho40 2.322 . S
O60 C42 1.259 . S
O61 Ho41 2.346 . S
O61 C42 1.268 . S
O62 Ho40 2.378 . S
O62 C43 1.215 . S
O63 Ho40 2.524 . S
O63 C43 1.289 . S
O64 Ho40 2.381 . S
O64 C50 1.275 . S
O65 Ho40 2.669 . S
O65 Ho41 2.305 . S
O65 C50 1.256 . S
O66 Ho41 2.322 . S
O66 C51 1.259 . S
O67 Ho40 2.346 . S
O67 C51 1.268 . S
O68 Ho41 2.378 . S
O68 C52 1.215 . S
O69 Ho41 2.524 . S
O69 C52 1.289 . S
O70 Ho41 2.381 . S
O70 C59 1.275 . S
O71 Ho40 2.305 . S
O71 Ho41 2.669 . S
O71 C59 1.256 . S
H72 C45 0.930 . S
H73 C46 0.931 . S
H74 C48 0.934 . S
H75 C49 0.930 . S
H76 C54 0.930 . S
H77 C55 0.931 . S
H78 C57 0.934 1_455 S
H79 C58 0.930 . S
Ho80 C83 2.811 . S
Ho80 O100 2.322 . S
Ho80 O102 2.378 . S
Ho80 O103 2.524 . S
Ho80 O104 2.381 . S
Ho80 O105 2.669 . S
Ho80 O107 2.346 . S
Ho80 O111 2.305 . S
Ho81 C92 2.811 . S
Ho81 O101 2.346 . S
Ho81 O105 2.305 . S
Ho81 O106 2.322 . S
Ho81 O108 2.378 . S
Ho81 O109 2.524 . S
Ho81 O110 2.381 . S
Ho81 O111 2.669 . S
C82 O100 1.259 . S
C82 O101 1.268 . S
C83 Ho80 2.811 . S
C83 C84 1.488 . S
C83 O102 1.215 . S
C83 O103 1.289 . S
C84 C83 1.488 . S
C84 C85 1.348 . S
C84 C89 1.413 . S
C85 C84 1.348 . S
C85 C86 1.442 . S
C85 H112 0.930 . S
C86 C85 1.442 . S
C86 C87 1.381 . S
C86 H113 0.931 . S
C87 C86 1.381 . S
C87 C88 1.321 . S
C88 C87 1.321 . S
C88 C89 1.403 . S
C88 H114 0.934 . S
C89 C84 1.413 . S
C89 C88 1.403 . S
C89 H115 0.930 . S
C90 O104 1.275 . S
C90 O105 1.256 . S
C91 O106 1.259 . S
C91 O107 1.268 . S
C92 Ho81 2.811 . S
C92 C93 1.488 . S
C92 O108 1.215 . S
C92 O109 1.289 . S
C93 C92 1.488 . S
C93 C94 1.348 . S
C93 C98 1.413 . S
C94 C93 1.348 . S
C94 C95 1.442 . S
C94 H116 0.930 . S
C95 C94 1.442 . S
C95 C96 1.381 . S
C95 H117 0.931 . S
C96 C95 1.381 . S
C96 C97 1.321 . S
C97 C96 1.321 . S
C97 C98 1.403 . S
C97 H118 0.934 1_545 S
C98 C93 1.413 . S
C98 C97 1.403 . S
C98 H119 0.930 . S
C99 O110 1.275 . S
C99 O111 1.256 . S
O100 Ho80 2.322 . S
O100 C82 1.259 . S
O101 Ho81 2.346 . S
O101 C82 1.268 . S
O102 Ho80 2.378 . S
O102 C83 1.215 . S
O103 Ho80 2.524 . S
O103 C83 1.289 . S
O104 Ho80 2.381 . S
O104 C90 1.275 . S
O105 Ho80 2.669 . S
O105 Ho81 2.305 . S
O105 C90 1.256 . S
O106 Ho81 2.322 . S
O106 C91 1.259 . S
O107 Ho80 2.346 . S
O107 C91 1.268 . S
O108 Ho81 2.378 . S
O108 C92 1.215 . S
O109 Ho81 2.524 . S
O109 C92 1.289 . S
O110 Ho81 2.381 . S
O110 C99 1.275 . S
O111 Ho80 2.305 . S
O111 Ho81 2.669 . S
O111 C99 1.256 . S
H112 C85 0.930 . S
H113 C86 0.931 . S
H114 C88 0.934 . S
H115 C89 0.930 . S
H116 C94 0.930 . S
H117 C95 0.931 . S
H118 C97 0.934 1_565 S
H119 C98 0.930 . S
Ho120 C123 2.811 . S
Ho120 O140 2.322 . S
Ho120 O142 2.378 . S
Ho120 O143 2.524 . S
Ho120 O144 2.381 . S
Ho120 O145 2.669 . S
Ho120 O147 2.346 . S
Ho120 O151 2.305 . S
Ho121 C132 2.811 . S
Ho121 O141 2.346 . S
Ho121 O145 2.305 . S
Ho121 O146 2.322 . S
Ho121 O148 2.378 . S
Ho121 O149 2.524 . S
Ho121 O150 2.381 . S
Ho121 O151 2.669 . S
C122 O140 1.259 . S
C122 O141 1.268 . S
C123 Ho120 2.811 . S
C123 C124 1.488 . S
C123 O142 1.215 . S
C123 O143 1.289 . S
C124 C123 1.488 . S
C124 C125 1.348 . S
C124 C129 1.413 . S
C125 C124 1.348 . S
C125 C126 1.442 . S
C125 H152 0.930 . S
C126 C125 1.442 . S
C126 C127 1.381 . S
C126 H153 0.931 . S
C127 C126 1.381 . S
C127 C128 1.321 . S
C128 C127 1.321 . S
C128 C129 1.403 . S
C128 H154 0.934 . S
C129 C124 1.413 . S
C129 C128 1.403 . S
C129 H155 0.930 . S
C130 O144 1.275 . S
C130 O145 1.256 . S
C131 O146 1.259 . S
C131 O147 1.268 . S
C132 Ho121 2.811 . S
C132 C133 1.488 . S
C132 O148 1.215 . S
C132 O149 1.289 . S
C133 C132 1.488 . S
C133 C134 1.348 . S
C133 C138 1.413 . S
C134 C133 1.348 . S
C134 C135 1.442 . S
C134 H156 0.930 . S
C135 C134 1.442 . S
C135 C136 1.381 . S
C135 H157 0.931 . S
C136 C135 1.381 . S
C136 C137 1.321 . S
C137 C136 1.321 . S
C137 C138 1.403 . S
C137 H158 0.934 . S
C138 C133 1.413 . S
C138 C137 1.403 . S
C138 H159 0.930 . S
C139 O150 1.275 . S
C139 O151 1.256 . S
O140 Ho120 2.322 . S
O140 C122 1.259 . S
O141 Ho121 2.346 . S
O141 C122 1.268 . S
O142 Ho120 2.378 . S
O142 C123 1.215 . S
O143 Ho120 2.524 . S
O143 C123 1.289 . S
O144 Ho120 2.381 . S
O144 C130 1.275 . S
O145 Ho120 2.669 . S
O145 Ho121 2.305 . S
O145 C130 1.256 . S
O146 Ho121 2.322 . S
O146 C131 1.259 . S
O147 Ho120 2.346 . S
O147 C131 1.268 . S
O148 Ho121 2.378 . S
O148 C132 1.215 . S
O149 Ho121 2.524 . S
O149 C132 1.289 . S
O150 Ho121 2.381 . S
O150 C139 1.275 . S
O151 Ho120 2.305 . S
O151 Ho121 2.669 . S
O151 C139 1.256 . S
H152 C125 0.930 . S
H153 C126 0.931 . S
H154 C128 0.934 . S
H155 C129 0.930 . S
H156 C134 0.930 . S
H157 C135 0.931 . S
H158 C137 0.934 . S
H159 C138 0.930 . S
Ho160 C163 2.811 . S
Ho160 O180 2.322 . S
Ho160 O182 2.378 . S
Ho160 O183 2.524 . S
Ho160 O184 2.381 . S
Ho160 O185 2.669 . S
Ho160 O187 2.346 . S
Ho160 O191 2.305 . S
Ho161 C172 2.811 . S
Ho161 O181 2.346 . S
Ho161 O185 2.305 . S
Ho161 O186 2.322 . S
Ho161 O188 2.378 . S
Ho161 O189 2.524 . S
Ho161 O190 2.381 . S
Ho161 O191 2.669 . S
C162 O180 1.259 . S
C162 O181 1.268 . S
C163 Ho160 2.811 . S
C163 C164 1.488 . S
C163 O182 1.215 . S
C163 O183 1.289 . S
C164 C163 1.488 . S
C164 C165 1.348 . S
C164 C169 1.413 . S
C165 C164 1.348 . S
C165 C166 1.442 . S
C165 H192 0.930 . S
C166 C165 1.442 . S
C166 C167 1.381 . S
C166 H193 0.931 . S
C167 C166 1.381 . S
C167 C168 1.321 . S
C168 C167 1.321 . S
C168 C169 1.403 . S
C168 H194 0.934 1_455 S
C169 C164 1.413 . S
C169 C168 1.403 . S
C169 H195 0.930 . S
C170 O184 1.275 . S
C170 O185 1.256 . S
C171 O186 1.259 . S
C171 O187 1.268 . S
C172 Ho161 2.811 . S
C172 C173 1.488 . S
C172 O188 1.215 . S
C172 O189 1.289 . S
C173 C172 1.488 . S
C173 C174 1.348 . S
C173 C178 1.413 . S
C174 C173 1.348 . S
C174 C175 1.442 . S
C174 H196 0.930 . S
C175 C174 1.442 . S
C175 C176 1.381 . S
C175 H197 0.931 . S
C176 C175 1.381 . S
C176 C177 1.321 . S
C177 C176 1.321 . S
C177 C178 1.403 . S
C177 H198 0.934 . S
C178 C173 1.413 . S
C178 C177 1.403 . S
C178 H199 0.930 . S
C179 O190 1.275 . S
C179 O191 1.256 . S
O180 Ho160 2.322 . S
O180 C162 1.259 . S
O181 Ho161 2.346 . S
O181 C162 1.268 . S
O182 Ho160 2.378 . S
O182 C163 1.215 . S
O183 Ho160 2.524 . S
O183 C163 1.289 . S
O184 Ho160 2.381 . S
O184 C170 1.275 . S
O185 Ho160 2.669 . S
O185 Ho161 2.305 . S
O185 C170 1.256 . S
O186 Ho161 2.322 . S
O186 C171 1.259 . S
O187 Ho160 2.346 . S
O187 C171 1.268 . S
O188 Ho161 2.378 . S
O188 C172 1.215 . S
O189 Ho161 2.524 . S
O189 C172 1.289 . S
O190 Ho161 2.381 . S
O190 C179 1.275 . S
O191 Ho160 2.305 . S
O191 Ho161 2.669 . S
O191 C179 1.256 . S
H192 C165 0.930 . S
H193 C166 0.931 . S
H194 C168 0.934 1_655 S
H195 C169 0.930 . S
H196 C174 0.930 . S
H197 C175 0.931 . S
H198 C177 0.934 . S
H199 C178 0.930 . S
Ho200 C203 2.811 . S
Ho200 O220 2.322 . S
Ho200 O222 2.378 . S
Ho200 O223 2.524 . S
Ho200 O224 2.381 . S
Ho200 O225 2.669 . S
Ho200 O227 2.346 . S
Ho200 O231 2.305 . S
Ho201 C212 2.811 . S
Ho201 O221 2.346 . S
Ho201 O225 2.305 . S
Ho201 O226 2.322 . S
Ho201 O228 2.378 . S
Ho201 O229 2.524 . S
Ho201 O230 2.381 . S
Ho201 O231 2.669 . S
C202 O220 1.259 . S
C202 O221 1.268 . S
C203 Ho200 2.811 . S
C203 C204 1.488 . S
C203 O222 1.215 . S
C203 O223 1.289 . S
C204 C203 1.488 . S
C204 C205 1.348 . S
C204 C209 1.413 . S
C205 C204 1.348 . S
C205 C206 1.442 . S
C205 H232 0.930 . S
C206 C205 1.442 . S
C206 C207 1.381 . S
C206 H233 0.931 . S
C207 C206 1.381 . S
C207 C208 1.321 . S
C208 C207 1.321 . S
C208 C209 1.403 . S
C208 H234 0.934 1_565 S
C209 C204 1.413 . S
C209 C208 1.403 . S
C209 H235 0.930 . S
C210 O224 1.275 . S
C210 O225 1.256 . S
C211 O226 1.259 . S
C211 O227 1.268 . S
C212 Ho201 2.811 . S
C212 C213 1.488 . S
C212 O228 1.215 . S
C212 O229 1.289 . S
C213 C212 1.488 . S
C213 C214 1.348 . S
C213 C218 1.413 . S
C214 C213 1.348 . S
C214 C215 1.442 . S
C214 H236 0.930 . S
C215 C214 1.442 . S
C215 C216 1.381 . S
C215 H237 0.931 . S
C216 C215 1.381 . S
C216 C217 1.321 . S
C217 C216 1.321 . S
C217 C218 1.403 . S
C217 H238 0.934 . S
C218 C213 1.413 . S
C218 C217 1.403 . S
C218 H239 0.930 . S
C219 O230 1.275 . S
C219 O231 1.256 . S
O220 Ho200 2.322 . S
O220 C202 1.259 . S
O221 Ho201 2.346 . S
O221 C202 1.268 . S
O222 Ho200 2.378 . S
O222 C203 1.215 . S
O223 Ho200 2.524 . S
O223 C203 1.289 . S
O224 Ho200 2.381 . S
O224 C210 1.275 . S
O225 Ho200 2.669 . S
O225 Ho201 2.305 . S
O225 C210 1.256 . S
O226 Ho201 2.322 . S
O226 C211 1.259 . S
O227 Ho200 2.346 . S
O227 C211 1.268 . S
O228 Ho201 2.378 . S
O228 C212 1.215 . S
O229 Ho201 2.524 . S
O229 C212 1.289 . S
O230 Ho201 2.381 . S
O230 C219 1.275 . S
O231 Ho200 2.305 . S
O231 Ho201 2.669 . S
O231 C219 1.256 . S
H232 C205 0.930 . S
H233 C206 0.931 . S
H234 C208 0.934 1_545 S
H235 C209 0.930 . S
H236 C214 0.930 . S
H237 C215 0.931 . S
H238 C217 0.934 . S
H239 C218 0.930 . S
H240 C252 0.930 . S
H241 C254 0.930 . S
H242 C255 0.930 . S
H243 C259 0.959 . S
H244 C259 0.959 . S
H245 C259 0.961 . S
H246 C260 0.960 . S
H247 C260 0.961 . S
H248 C260 0.959 . S
H249 C263 0.929 1_556 S
H250 C264 0.931 . S
H251 C266 0.930 . S
C252 H240 0.930 . S
C252 C253 1.399 . S
C252 C257 1.399 . S
C253 C252 1.399 . S
C253 C254 1.376 . S
C254 H241 0.930 . S
C254 C253 1.376 . S
C254 C255 1.388 1_565 S
C255 H242 0.930 . S
C255 C254 1.388 1_545 S
C255 C256 1.390 . S
C256 C255 1.390 . S
C256 C257 1.394 1_545 S
C256 C262 1.465 1_556 S
C257 C252 1.399 . S
C257 C256 1.394 1_565 S
C257 C258 1.516 1_556 S
C258 C257 1.516 1_554 S
C258 C259 1.502 . S
C258 C260 1.561 . S
C258 C261 1.526 1_565 S
C259 H243 0.959 . S
C259 H244 0.959 . S
C259 H245 0.961 . S
C259 C258 1.502 . S
C260 H246 0.960 . S
C260 H247 0.961 . S
C260 H248 0.959 . S
C260 C258 1.561 . S
C261 C258 1.526 1_545 S
C261 C262 1.396 . S
C261 C266 1.390 . S
C262 C256 1.465 1_554 S
C262 C261 1.396 . S
C262 C263 1.399 . S
C263 H249 0.929 1_554 S
C263 C262 1.399 . S
C263 C264 1.385 . S
C264 H250 0.931 . S
C264 C263 1.385 . S
C264 C265 1.389 . S
C265 C264 1.389 . S
C265 C266 1.387 . S
C266 H251 0.930 . S
C266 C261 1.390 . S
C266 C265 1.387 . S
H267 C279 0.930 . S
H268 C281 0.930 . S
H269 C282 0.930 . S
H270 C286 0.959 . S
H271 C286 0.959 . S
H272 C286 0.961 . S
H273 C287 0.960 . S
H274 C287 0.961 . S
H275 C287 0.959 . S
H276 C290 0.929 . S
H277 C291 0.931 . S
H278 C293 0.930 . S
C279 H267 0.930 . S
C279 C280 1.399 . S
C279 C284 1.399 . S
C280 C279 1.399 . S
C280 C281 1.376 . S
C281 H268 0.930 . S
C281 C280 1.376 . S
C281 C282 1.388 . S
C282 H269 0.930 . S
C282 C281 1.388 . S
C282 C283 1.390 . S
C283 C282 1.390 . S
C283 C284 1.394 . S
C283 C289 1.465 . S
C284 C279 1.399 . S
C284 C283 1.394 . S
C284 C285 1.516 . S
C285 C284 1.516 . S
C285 C286 1.502 . S
C285 C287 1.561 . S
C285 C288 1.526 . S
C286 H270 0.959 . S
C286 H271 0.959 . S
C286 H272 0.961 . S
C286 C285 1.502 . S
C287 H273 0.960 . S
C287 H274 0.961 . S
C287 H275 0.959 . S
C287 C285 1.561 . S
C288 C285 1.526 . S
C288 C289 1.396 . S
C288 C293 1.390 . S
C289 C283 1.465 . S
C289 C288 1.396 . S
C289 C290 1.399 . S
C290 H276 0.929 . S
C290 C289 1.399 . S
C290 C291 1.385 . S
C291 H277 0.931 . S
C291 C290 1.385 . S
C291 C292 1.389 . S
C292 C291 1.389 . S
C292 C293 1.387 . S
C293 H278 0.930 . S
C293 C288 1.390 . S
C293 C292 1.387 . S
H294 C306 0.930 . S
H295 C308 0.930 . S
H296 C309 0.930 1_455 S
H297 C313 0.959 . S
H298 C313 0.959 . S
H299 C313 0.961 . S
H300 C314 0.965 1_554 S
H301 C314 0.961 1_455 S
H302 C314 0.955 1_454 S
H303 C317 0.929 1_554 S
H304 C318 0.931 . S
H305 C320 0.930 . S
C306 H294 0.930 . S
C306 C307 1.399 . S
C306 C311 1.399 . S
C307 C306 1.399 . S
C307 C308 1.376 . S
C308 H295 0.930 . S
C308 C307 1.376 . S
C308 C309 1.388 . S
C309 H296 0.930 1_655 S
C309 C308 1.388 . S
C309 C310 1.390 . S
C310 C309 1.390 . S
C310 C311 1.394 . S
C310 C316 1.465 1_654 S
C311 C306 1.399 . S
C311 C310 1.394 . S
C311 C312 1.516 1_554 S
C312 C311 1.516 1_556 S
C312 C313 1.502 . S
C312 C314 1.561 . S
C312 C315 1.526 1_655 S
C313 H297 0.959 . S
C313 H298 0.959 . S
C313 H299 0.961 . S
C313 C312 1.502 . S
C314 H300 0.965 1_556 S
C314 H301 0.961 1_655 S
C314 H302 0.955 1_656 S
C314 C312 1.561 . S
C315 C312 1.526 1_455 S
C315 C316 1.396 . S
C315 C320 1.390 . S
C316 C310 1.465 1_456 S
C316 C315 1.396 . S
C316 C317 1.399 . S
C317 H303 0.929 1_556 S
C317 C316 1.399 . S
C317 C318 1.385 . S
C318 H304 0.931 . S
C318 C317 1.385 . S
C318 C319 1.389 . S
C319 C318 1.389 . S
C319 C320 1.387 . S
C320 H305 0.930 . S
C320 C315 1.390 . S
C320 C319 1.387 . S
H321 C333 0.930 . S
H322 C335 0.930 . S
H323 C336 0.930 . S
H324 C340 0.959 . S
H325 C340 0.959 . S
H326 C340 0.961 . S
H327 C341 0.960 . S
H328 C341 0.961 . S
H329 C341 0.959 . S
H330 C344 0.929 . S
H331 C345 0.931 . S
H332 C347 0.930 . S
C333 H321 0.930 . S
C333 C334 1.399 . S
C333 C338 1.399 . S
C334 C333 1.399 . S
C334 C335 1.376 . S
C335 H322 0.930 . S
C335 C334 1.376 . S
C335 C336 1.388 1_545 S
C336 H323 0.930 . S
C336 C335 1.388 1_565 S
C336 C337 1.390 . S
C337 C336 1.390 . S
C337 C338 1.396 1_565 S
C337 C343 1.463 . S
C338 C333 1.399 . S
C338 C337 1.396 1_545 S
C338 C339 1.516 . S
C339 C338 1.516 . S
C339 C340 1.502 . S
C339 C341 1.561 . S
C339 C342 1.526 1_545 S
C340 H324 0.959 . S
C340 H325 0.959 . S
C340 H326 0.961 . S
C340 C339 1.502 . S
C341 H327 0.960 . S
C341 H328 0.961 . S
C341 H329 0.959 . S
C341 C339 1.561 . S
C342 C339 1.526 1_565 S
C342 C343 1.396 . S
C342 C347 1.390 . S
C343 C337 1.463 . S
C343 C342 1.396 . S
C343 C344 1.399 . S
C344 H330 0.929 . S
C344 C343 1.399 . S
C344 C345 1.385 . S
C345 H331 0.931 . S
C345 C344 1.385 . S
C345 C346 1.389 . S
C346 C345 1.389 . S
C346 C347 1.387 . S
C347 H332 0.930 . S
C347 C342 1.390 . S
C347 C346 1.387 . S
H348 C360 0.930 . S
H349 C362 0.930 . S
H350 C363 0.930 . S
H351 C367 0.959 . S
H352 C367 0.959 1_554 S
H353 C367 0.961 . S
H354 C368 0.960 . S
H355 C368 0.961 . S
H356 C368 0.959 . S
H357 C371 0.929 . S
H358 C372 0.931 . S
H359 C374 0.930 . S
C360 H348 0.930 . S
C360 C361 1.399 . S
C360 C365 1.399 . S
C361 C360 1.399 . S
C361 C362 1.376 . S
C362 H349 0.930 . S
C362 C361 1.376 . S
C362 C363 1.388 . S
C363 H350 0.930 . S
C363 C362 1.388 . S
C363 C364 1.390 . S
C364 C363 1.390 . S
C364 C365 1.394 . S
C364 C370 1.465 1_556 S
C365 C360 1.399 . S
C365 C364 1.394 . S
C365 C366 1.516 1_556 S
C366 C365 1.516 1_554 S
C366 C367 1.502 1_554 S
C366 C368 1.561 . S
C366 C369 1.526 . S
C367 H351 0.959 . S
C367 H352 0.959 1_556 S
C367 H353 0.961 . S
C367 C366 1.502 1_556 S
C368 H354 0.960 . S
C368 H355 0.961 . S
C368 H356 0.959 . S
C368 C366 1.561 . S
C369 C366 1.526 . S
C369 C370 1.396 . S
C369 C374 1.390 . S
C370 C364 1.465 1_554 S
C370 C369 1.396 . S
C370 C371 1.399 . S
C371 H357 0.929 . S
C371 C370 1.399 . S
C371 C372 1.385 . S
C372 H358 0.931 . S
C372 C371 1.385 . S
C372 C373 1.389 . S
C373 C372 1.389 . S
C373 C374 1.387 . S
C374 H359 0.930 . S
C374 C369 1.390 . S
C374 C373 1.387 . S
H375 C387 0.930 . S
H376 C389 0.930 . S
H377 C390 0.930 1_455 S
H378 C394 0.959 . S
H379 C394 0.959 . S
H380 C394 0.961 . S
H381 C395 0.960 1_655 S
H382 C395 0.961 . S
H383 C395 0.959 . S
H384 C398 0.929 . S
H385 C399 0.931 . S
H386 C401 0.930 . S
C387 H375 0.930 . S
C387 C388 1.399 . S
C387 C392 1.399 . S
C388 C387 1.399 . S
C388 C389 1.376 . S
C389 H376 0.930 . S
C389 C388 1.376 . S
C389 C390 1.388 . S
C390 H377 0.930 1_655 S
C390 C389 1.388 . S
C390 C391 1.390 . S
C391 C390 1.390 . S
C391 C392 1.394 . S
C391 C397 1.465 1_655 S
C392 C387 1.399 . S
C392 C391 1.394 . S
C392 C393 1.516 . S
C393 C392 1.516 . S
C393 C394 1.502 . S
C393 C395 1.561 1_655 S
C393 C396 1.526 1_655 S
C394 H378 0.959 . S
C394 H379 0.959 . S
C394 H380 0.961 . S
C394 C393 1.502 . S
C395 H381 0.960 1_455 S
C395 H382 0.961 . S
C395 H383 0.959 . S
C395 C393 1.561 1_455 S
C396 C393 1.526 1_455 S
C396 C397 1.396 . S
C396 C401 1.390 . S
C397 C391 1.465 1_455 S
C397 C396 1.396 . S
C397 C398 1.399 . S
C398 H384 0.929 . S
C398 C397 1.399 . S
C398 C399 1.385 . S
C399 H385 0.931 . S
C399 C398 1.385 . S
C399 C400 1.389 . S
C400 C399 1.389 . S
C400 C401 1.387 . S
C401 H386 0.930 . S
C401 C396 1.390 . S
C401 C400 1.387 . S
H402 C414 0.930 . S
H403 C416 0.930 . S
H404 C417 0.930 . S
H405 C421 0.959 . S
H406 C421 0.959 . S
H407 C421 0.961 . S
H408 C422 0.960 . S
H409 C422 0.961 . S
H410 C422 0.959 . S
H411 C425 0.929 . S
H412 C426 0.931 . S
H413 C428 0.930 . S
C414 H402 0.930 . S
C414 C415 1.399 . S
C414 C419 1.399 . S
C415 C414 1.399 . S
C415 C416 1.376 . S
C416 H403 0.930 . S
C416 C415 1.376 . S
C416 C417 1.388 . S
C417 H404 0.930 . S
C417 C416 1.388 . S
C417 C418 1.390 . S
C418 C417 1.390 . S
C418 C419 1.394 . S
C418 C424 1.465 . S
C419 C414 1.399 . S
C419 C418 1.394 . S
C419 C420 1.516 . S
C420 C419 1.516 . S
C420 C421 1.502 . S
C420 C422 1.561 . S
C420 C423 1.526 . S
C421 H405 0.959 . S
C421 H406 0.959 . S
C421 H407 0.961 . S
C421 C420 1.502 . S
C422 H408 0.960 . S
C422 H409 0.961 . S
C422 H410 0.959 . S
C422 C420 1.561 . S
C423 C420 1.526 . S
C423 C424 1.396 . S
C423 C428 1.390 . S
C424 C418 1.465 . S
C424 C423 1.396 . S
C424 C425 1.399 . S
C425 H411 0.929 . S
C425 C424 1.399 . S
C425 C426 1.385 . S
C426 H412 0.931 . S
C426 C425 1.385 . S
C426 C427 1.389 . S
C427 C426 1.389 . S
C427 C428 1.387 . S
C428 H413 0.930 . S
C428 C423 1.390 . S
C428 C427 1.387 . S
H429 C441 0.930 . S
H430 C443 0.930 . S
H431 C444 0.930 . S
H432 C448 0.959 . S
H433 C448 0.959 . S
H434 C448 0.961 . S
H435 C449 0.960 . S
H436 C449 0.961 . S
H437 C449 0.959 . S
H438 C452 0.929 . S
H439 C453 0.931 . S
H440 C455 0.930 . S
C441 H429 0.930 . S
C441 C442 1.399 . S
C441 C446 1.399 . S
C442 C441 1.399 . S
C442 C443 1.376 . S
C443 H430 0.930 . S
C443 C442 1.376 . S
C443 C444 1.388 . S
C444 H431 0.930 . S
C444 C443 1.388 . S
C444 C445 1.390 . S
C445 C444 1.390 . S
C445 C446 1.394 . S
C445 C451 1.465 . S
C446 C441 1.399 . S
C446 C445 1.394 . S
C446 C447 1.516 . S
C447 C446 1.516 . S
C447 C448 1.502 . S
C447 C449 1.561 . S
C447 C450 1.526 . S
C448 H432 0.959 . S
C448 H433 0.959 . S
C448 H434 0.961 . S
C448 C447 1.502 . S
C449 H435 0.960 . S
C449 H436 0.961 . S
C449 H437 0.959 . S
C449 C447 1.561 . S
C450 C447 1.526 . S
C450 C451 1.396 . S
C450 C455 1.390 . S
C451 C445 1.465 . S
C451 C450 1.396 . S
C451 C452 1.399 . S
C452 H438 0.929 . S
C452 C451 1.399 . S
C452 C453 1.385 . S
C453 H439 0.931 . S
C453 C452 1.385 . S
C453 C454 1.389 . S
C454 C453 1.389 . S
C454 C455 1.387 . S
C455 H440 0.930 . S
C455 C450 1.390 . S
C455 C454 1.387 . S
H456 C468 0.930 . S
H457 C470 0.930 . S
H458 C471 0.930 . S
H459 C475 0.959 . S
H460 C475 0.959 . S
H461 C475 0.961 . S
H462 C476 0.960 . S
H463 C476 0.961 . S
H464 C476 0.959 . S
H465 C479 0.929 . S
H466 C480 0.931 . S
H467 C482 0.930 . S
C468 H456 0.930 . S
C468 C469 1.399 . S
C468 C473 1.399 . S
C469 C468 1.399 . S
C469 C470 1.376 . S
C470 H457 0.930 . S
C470 C469 1.376 . S
C470 C471 1.388 . S
C471 H458 0.930 . S
C471 C470 1.388 . S
C471 C472 1.390 . S
C472 C471 1.390 . S
C472 C473 1.394 . S
C472 C478 1.465 . S
C473 C468 1.399 . S
C473 C472 1.394 . S
C473 C474 1.516 . S
C474 C473 1.516 . S
C474 C475 1.502 . S
C474 C476 1.561 . S
C474 C477 1.526 . S
C475 H459 0.959 . S
C475 H460 0.959 . S
C475 H461 0.961 . S
C475 C474 1.502 . S
C476 H462 0.960 . S
C476 H463 0.961 . S
C476 H464 0.959 . S
C476 C474 1.561 . S
C477 C474 1.526 . S
C477 C478 1.396 . S
C477 C482 1.390 . S
C478 C472 1.465 . S
C478 C477 1.396 . S
C478 C479 1.399 . S
C479 H465 0.929 . S
C479 C478 1.399 . S
C479 C480 1.385 . S
C480 H466 0.931 . S
C480 C479 1.385 . S
C480 C481 1.389 . S
C481 C480 1.389 . S
C481 C482 1.387 . S
C482 H467 0.930 . S
C482 C477 1.390 . S
C482 C481 1.387 . S
H483 C495 0.930 . S
H484 C497 0.930 . S
H485 C498 0.930 . S
H486 C502 0.959 . S
H487 C502 0.959 . S
H488 C502 0.961 . S
H489 C503 0.960 . S
H490 C503 0.961 . S
H491 C503 0.959 . S
H492 C506 0.929 . S
H493 C507 0.931 . S
H494 C509 0.930 . S
C495 H483 0.930 . S
C495 C496 1.399 . S
C495 C500 1.399 . S
C496 C495 1.399 . S
C496 C497 1.376 . S
C497 H484 0.930 . S
C497 C496 1.376 . S
C497 C498 1.388 . S
C498 H485 0.930 . S
C498 C497 1.388 . S
C498 C499 1.390 . S
C499 C498 1.390 . S
C499 C500 1.394 . S
C499 C505 1.465 . S
C500 C495 1.399 . S
C500 C499 1.394 . S
C500 C501 1.516 . S
C501 C500 1.516 . S
C501 C502 1.502 . S
C501 C503 1.561 . S
C501 C504 1.526 . S
C502 H486 0.959 . S
C502 H487 0.959 . S
C502 H488 0.961 . S
C502 C501 1.502 . S
C503 H489 0.960 . S
C503 H490 0.961 . S
C503 H491 0.959 . S
C503 C501 1.561 . S
C504 C501 1.526 . S
C504 C505 1.396 . S
C504 C509 1.390 . S
C505 C499 1.465 . S
C505 C504 1.396 . S
C505 C506 1.399 . S
C506 H492 0.929 . S
C506 C505 1.399 . S
C506 C507 1.385 . S
C507 H493 0.931 . S
C507 C506 1.385 . S
C507 C508 1.389 . S
C508 C507 1.389 . S
C508 C509 1.387 . S
C509 H494 0.930 . S
C509 C504 1.390 . S
C509 C508 1.387 . S
H510 C522 0.930 . S
H511 C524 0.930 . S
H512 C525 0.930 . S
H513 C529 0.959 . S
H514 C529 0.959 . S
H515 C529 0.961 . S
H516 C530 0.960 . S
H517 C530 0.961 . S
H518 C530 0.959 . S
H519 C533 0.929 . S
H520 C534 0.931 . S
H521 C536 0.930 . S
C522 H510 0.930 . S
C522 C523 1.399 . S
C522 C527 1.399 . S
C523 C522 1.399 . S
C523 C524 1.376 . S
C524 H511 0.930 . S
C524 C523 1.376 . S
C524 C525 1.388 . S
C525 H512 0.930 . S
C525 C524 1.388 . S
C525 C526 1.390 . S
C526 C525 1.390 . S
C526 C527 1.394 . S
C526 C532 1.465 . S
C527 C522 1.399 . S
C527 C526 1.394 . S
C527 C528 1.516 . S
C528 C527 1.516 . S
C528 C529 1.502 . S
C528 C530 1.561 . S
C528 C531 1.526 . S
C529 H513 0.959 . S
C529 H514 0.959 . S
C529 H515 0.961 . S
C529 C528 1.502 . S
C530 H516 0.960 . S
C530 H517 0.961 . S
C530 H518 0.959 . S
C530 C528 1.561 . S
C531 C528 1.526 . S
C531 C532 1.396 . S
C531 C536 1.390 . S
C532 C526 1.465 . S
C532 C531 1.396 . S
C532 C533 1.399 . S
C533 H519 0.929 . S
C533 C532 1.399 . S
C533 C534 1.385 . S
C534 H520 0.931 . S
C534 C533 1.385 . S
C534 C535 1.389 . S
C535 C534 1.389 . S
C535 C536 1.387 . S
C536 H521 0.930 . S
C536 C531 1.390 . S
C536 C535 1.387 . S
H537 C549 0.930 . S
H538 C551 0.930 . S
H539 C552 0.930 . S
H540 C556 0.959 . S
H541 C556 0.959 . S
H542 C556 0.961 . S
H543 C557 0.960 . S
H544 C557 0.961 . S
H545 C557 0.959 . S
H546 C560 0.929 . S
H547 C561 0.931 . S
H548 C563 0.930 . S
C549 H537 0.930 . S
C549 C550 1.399 . S
C549 C554 1.399 . S
C550 C549 1.399 . S
C550 C551 1.376 . S
C551 H538 0.930 . S
C551 C550 1.376 . S
C551 C552 1.388 . S
C552 H539 0.930 . S
C552 C551 1.388 . S
C552 C553 1.390 . S
C553 C552 1.390 . S
C553 C554 1.394 . S
C553 C559 1.465 . S
C554 C549 1.399 . S
C554 C553 1.394 . S
C554 C555 1.516 . S
C555 C554 1.516 . S
C555 C556 1.502 . S
C555 C557 1.561 . S
C555 C558 1.526 . S
C556 H540 0.959 . S
C556 H541 0.959 . S
C556 H542 0.961 . S
C556 C555 1.502 . S
C557 H543 0.960 . S
C557 H544 0.961 . S
C557 H545 0.959 . S
C557 C555 1.561 . S
C558 C555 1.526 . S
C558 C559 1.396 . S
C558 C563 1.390 . S
C559 C553 1.465 . S
C559 C558 1.396 . S
C559 C560 1.399 . S
C560 H546 0.929 . S
C560 C559 1.399 . S
C560 C561 1.385 . S
C561 H547 0.931 . S
C561 C560 1.385 . S
C561 C562 1.389 . S
C562 C561 1.389 . S
C562 C563 1.387 . S
C563 H548 0.930 . S
C563 C558 1.390 . S
C563 C562 1.387 . S
H564 C576 0.930 . S
H565 C578 0.930 . S
H566 C579 0.930 . S
H567 C583 0.959 . S
H568 C583 0.959 . S
H569 C583 0.961 . S
H570 C584 0.960 . S
H571 C584 0.961 . S
H572 C584 0.959 . S
H573 C587 0.929 . S
H574 C588 0.931 . S
H575 C590 0.930 . S
C576 H564 0.930 . S
C576 C577 1.399 . S
C576 C581 1.399 . S
C577 C576 1.399 . S
C577 C578 1.376 . S
C578 H565 0.930 . S
C578 C577 1.376 . S
C578 C579 1.388 . S
C579 H566 0.930 . S
C579 C578 1.388 . S
C579 C580 1.390 . S
C580 C579 1.390 . S
C580 C581 1.394 . S
C580 C586 1.465 . S
C581 C576 1.399 . S
C581 C580 1.394 . S
C581 C582 1.516 . S
C582 C581 1.516 . S
C582 C583 1.502 1_455 S
C582 C584 1.561 . S
C582 C585 1.526 . S
C583 H567 0.959 . S
C583 H568 0.959 . S
C583 H569 0.961 . S
C583 C582 1.502 1_655 S
C584 H570 0.960 . S
C584 H571 0.961 . S
C584 H572 0.959 . S
C584 C582 1.561 . S
C585 C582 1.526 . S
C585 C586 1.396 . S
C585 C590 1.390 1_455 S
C586 C580 1.465 . S
C586 C585 1.396 . S
C586 C587 1.399 . S
C587 H573 0.929 . S
C587 C586 1.399 . S
C587 C588 1.385 . S
C588 H574 0.931 . S
C588 C587 1.385 . S
C588 C589 1.389 1_455 S
C589 C588 1.389 1_655 S
C589 C590 1.387 . S
C590 H575 0.930 . S
C590 C585 1.390 1_655 S
C590 C589 1.387 . S
H591 C603 0.930 . S
H592 C605 0.930 . S
H593 C606 0.930 . S
H594 C610 0.959 . S
H595 C610 0.959 . S
H596 C610 0.961 . S
H597 C611 0.960 . S
H598 C611 0.961 . S
H599 C611 0.959 1_565 S
H600 C614 0.929 . S
H601 C615 0.931 . S
H602 C617 0.930 . S
C603 H591 0.930 . S
C603 C604 1.399 . S
C603 C608 1.399 . S
C604 C603 1.399 . S
C604 C605 1.376 . S
C605 H592 0.930 . S
C605 C604 1.376 . S
C605 C606 1.388 . S
C606 H593 0.930 . S
C606 C605 1.388 . S
C606 C607 1.390 . S
C607 C606 1.390 . S
C607 C608 1.394 . S
C607 C613 1.465 . S
C608 C603 1.399 . S
C608 C607 1.394 . S
C608 C609 1.516 1_565 S
C609 C608 1.516 1_545 S
C609 C610 1.502 . S
C609 C611 1.561 . S
C609 C612 1.526 1_545 S
C610 H594 0.959 . S
C610 H595 0.959 . S
C610 H596 0.961 . S
C610 C609 1.502 . S
C611 H597 0.960 . S
C611 H598 0.961 . S
C611 H599 0.959 1_545 S
C611 C609 1.561 . S
C612 C609 1.526 1_565 S
C612 C613 1.396 . S
C612 C617 1.390 1_565 S
C613 C607 1.465 . S
C613 C612 1.396 . S
C613 C614 1.399 . S
C614 H600 0.929 . S
C614 C613 1.399 . S
C614 C615 1.385 . S
C615 H601 0.931 . S
C615 C614 1.385 . S
C615 C616 1.389 1_565 S
C616 C615 1.389 1_545 S
C616 C617 1.387 . S
C617 H602 0.930 . S
C617 C612 1.390 1_545 S
C617 C616 1.387 . S
H618 C630 0.930 . S
H619 C632 0.930 . S
H620 C633 0.930 . S
H621 C637 0.959 . S
H622 C637 0.959 . S
H623 C637 0.961 . S
H624 C638 0.960 . S
H625 C638 0.961 . S
H626 C638 0.959 . S
H627 C641 0.929 . S
H628 C642 0.931 . S
H629 C644 0.930 . S
C630 H618 0.930 . S
C630 C631 1.399 . S
C630 C635 1.399 . S
C631 C630 1.399 . S
C631 C632 1.376 . S
C632 H619 0.930 . S
C632 C631 1.376 . S
C632 C633 1.388 . S
C633 H620 0.930 . S
C633 C632 1.388 . S
C633 C634 1.390 . S
C634 C633 1.390 . S
C634 C635 1.394 . S
C634 C640 1.465 . S
C635 C630 1.399 . S
C635 C634 1.394 . S
C635 C636 1.516 . S
C636 C635 1.516 . S
C636 C637 1.502 . S
C636 C638 1.561 . S
C636 C639 1.526 . S
C637 H621 0.959 . S
C637 H622 0.959 . S
C637 H623 0.961 . S
C637 C636 1.502 . S
C638 H624 0.960 . S
C638 H625 0.961 . S
C638 H626 0.959 . S
C638 C636 1.561 . S
C639 C636 1.526 . S
C639 C640 1.396 . S
C639 C644 1.390 . S
C640 C634 1.465 . S
C640 C639 1.396 . S
C640 C641 1.399 . S
C641 H627 0.929 . S
C641 C640 1.399 . S
C641 C642 1.385 . S
C642 H628 0.931 . S
C642 C641 1.385 . S
C642 C643 1.389 . S
C643 C642 1.389 . S
C643 C644 1.387 . S
C644 H629 0.930 . S
C644 C639 1.390 . S
C644 C643 1.387 . S
H645 C657 0.930 . S
H646 C659 0.930 . S
H647 C660 0.930 . S
H648 C664 0.959 . S
H649 C664 0.959 . S
H650 C664 0.961 . S
H651 C665 0.960 . S
H652 C665 0.961 . S
H653 C665 0.959 . S
H654 C668 0.929 . S
H655 C669 0.931 . S
H656 C671 0.930 . S
C657 H645 0.930 . S
C657 C658 1.399 . S
C657 C662 1.399 . S
C658 C657 1.399 . S
C658 C659 1.376 . S
C659 H646 0.930 . S
C659 C658 1.376 . S
C659 C660 1.388 . S
C660 H647 0.930 . S
C660 C659 1.388 . S
C660 C661 1.390 . S
C661 C660 1.390 . S
C661 C662 1.394 . S
C661 C667 1.465 . S
C662 C657 1.399 . S
C662 C661 1.394 . S
C662 C663 1.516 . S
C663 C662 1.516 . S
C663 C664 1.502 1_545 S
C663 C665 1.561 . S
C663 C666 1.526 . S
C664 H648 0.959 . S
C664 H649 0.959 . S
C664 H650 0.961 . S
C664 C663 1.502 1_565 S
C665 H651 0.960 . S
C665 H652 0.961 . S
C665 H653 0.959 . S
C665 C663 1.561 . S
C666 C663 1.526 . S
C666 C667 1.396 . S
C666 C671 1.390 1_545 S
C667 C661 1.465 . S
C667 C666 1.396 . S
C667 C668 1.399 . S
C668 H654 0.929 . S
C668 C667 1.399 . S
C668 C669 1.385 . S
C669 H655 0.931 . S
C669 C668 1.385 . S
C669 C670 1.389 1_545 S
C670 C669 1.389 1_565 S
C670 C671 1.387 . S
C671 H656 0.930 . S
C671 C666 1.390 1_565 S
C671 C670 1.387 . S
H672 C684 0.930 . S
H673 C686 0.930 . S
H674 C687 0.930 . S
H675 C691 0.959 . S
H676 C691 0.959 . S
H677 C691 0.961 . S
H678 C692 0.960 . S
H679 C692 0.961 . S
H680 C692 0.959 . S
H681 C695 0.929 . S
H682 C696 0.931 . S
H683 C698 0.930 . S
C684 H672 0.930 . S
C684 C685 1.399 . S
C684 C689 1.399 . S
C685 C684 1.399 . S
C685 C686 1.376 . S
C686 H673 0.930 . S
C686 C685 1.376 . S
C686 C687 1.388 . S
C687 H674 0.930 . S
C687 C686 1.388 . S
C687 C688 1.390 . S
C688 C687 1.390 . S
C688 C689 1.394 . S
C688 C694 1.465 . S
C689 C684 1.399 . S
C689 C688 1.394 . S
C689 C690 1.516 . S
C690 C689 1.516 . S
C690 C691 1.502 . S
C690 C692 1.561 . S
C690 C693 1.526 . S
C691 H675 0.959 . S
C691 H676 0.959 . S
C691 H677 0.961 . S
C691 C690 1.502 . S
C692 H678 0.960 . S
C692 H679 0.961 . S
C692 H680 0.959 . S
C692 C690 1.561 . S
C693 C690 1.526 . S
C693 C694 1.396 . S
C693 C698 1.390 . S
C694 C688 1.465 . S
C694 C693 1.396 . S
C694 C695 1.399 . S
C695 H681 0.929 . S
C695 C694 1.399 . S
C695 C696 1.385 . S
C696 H682 0.931 . S
C696 C695 1.385 . S
C696 C697 1.389 . S
C697 C696 1.389 . S
C697 C698 1.387 . S
C698 H683 0.930 . S
C698 C693 1.390 . S
C698 C697 1.387 . S
H699 C711 0.930 . S
H700 C713 0.930 . S
H701 C714 0.930 . S
H702 C718 0.959 . S
H703 C718 0.959 . S
H704 C718 0.961 . S
H705 C719 0.960 1_455 S
H706 C719 0.961 . S
H707 C719 0.959 1_455 S
H708 C722 0.929 . S
H709 C723 0.931 . S
H710 C725 0.930 . S
C711 H699 0.930 . S
C711 C712 1.399 1_655 S
C711 C716 1.399 . S
C712 C711 1.399 1_455 S
C712 C713 1.376 . S
C713 H700 0.930 . S
C713 C712 1.376 . S
C713 C714 1.388 . S
C714 H701 0.930 . S
C714 C713 1.388 . S
C714 C715 1.390 1_455 S
C715 C714 1.390 1_655 S
C715 C716 1.394 . S
C715 C721 1.465 . S
C716 C711 1.399 . S
C716 C715 1.394 . S
C716 C717 1.516 . S
C717 C716 1.516 . S
C717 C718 1.502 . S
C717 C719 1.561 . S
C717 C720 1.526 . S
C718 H702 0.959 . S
C718 H703 0.959 . S
C718 H704 0.961 . S
C718 C717 1.502 . S
C719 H705 0.960 1_655 S
C719 H706 0.961 . S
C719 H707 0.959 1_655 S
C719 C717 1.561 . S
C720 C717 1.526 . S
C720 C721 1.396 . S
C720 C725 1.390 . S
C721 C715 1.465 . S
C721 C720 1.396 . S
C721 C722 1.399 . S
C722 H708 0.929 . S
C722 C721 1.399 . S
C722 C723 1.385 . S
C723 H709 0.931 . S
C723 C722 1.385 . S
C723 C724 1.389 . S
C724 C723 1.389 . S
C724 C725 1.387 . S
C725 H710 0.930 . S
C725 C720 1.390 . S
C725 C724 1.387 . S
C253 C179 2.276 . S
C265 C19 2.504 . S
C280 C210 2.452 . S
C292 C50 2.353 . S
C307 C99 2.450 . S
C319 C139 2.356 . S
C334 C10 2.310 . S
C346 C170 2.485 . S
C361 C219 2.311 . S
C373 C59 2.497 . S
C388 C90 2.276 . S
C400 C130 2.506 . S
C415 C7 1.877 . S
C427 C82 1.831 . S
C442 C47 1.873 . S
C454 C2 1.858 . S
C469 C87 1.872 . S
C481 C42 1.852 . S
C496 C136 1.902 . S
C508 C171 1.810 . S
C523 C176 1.877 . S
C535 C211 1.866 . S
C550 C131 1.846 . S
C562 C216 1.881 . S
C577 C16 1.166 . S
C589 C91 1.252 . S
C604 C56 1.157 1_455 S
C616 C11 1.279 . S
C631 C96 1.258 1_565 S
C643 C51 1.250 . S
C658 C127 1.178 . S
C670 C162 1.281 . S
C685 C167 1.253 1_655 S
C697 C202 1.218 . S
C712 C122 1.246 . S
C724 C207 1.236 1_545 S
