# Generated by pormake.
# Topology smu, (6)-cn, num edge types: 1
# Building blocks:
#     Node 0, Type 0, BuildingBlock: BETDEL_clean_sbu_0, # of connection points: 6
#     Node 1, Type 0, BuildingBlock: BETDEL_clean_sbu_0, # of connection points: 6
#     Node 2, Type 0, BuildingBlock: BETDEL_clean_sbu_0, # of connection points: 6
#     Node 3, Type 0, BuildingBlock: BETDEL_clean_sbu_0, # of connection points: 6
#     Node 4, Type 0, BuildingBlock: BETDEL_clean_sbu_0, # of connection points: 6
#     Node 5, Type 0, BuildingBlock: BETDEL_clean_sbu_0, # of connection points: 6
#     Edge 6, Type (0, 0), BuildingBlock: MIFKUJ_clean_linker_0, # of connection points: 2
#     Edge 7, Type (0, 0), BuildingBlock: MIFKUJ_clean_linker_0, # of connection points: 2
#     Edge 8, Type (0, 0), BuildingBlock: MIFKUJ_clean_linker_0, # of connection points: 2
#     Edge 9, Type (0, 0), BuildingBlock: MIFKUJ_clean_linker_0, # of connection points: 2
#     Edge 10, Type (0, 0), BuildingBlock: MIFKUJ_clean_linker_0, # of connection points: 2
#     Edge 11, Type (0, 0), BuildingBlock: MIFKUJ_clean_linker_0, # of connection points: 2
#     Edge 12, Type (0, 0), BuildingBlock: MIFKUJ_clean_linker_0, # of connection points: 2
#     Edge 13, Type (0, 0), BuildingBlock: MIFKUJ_clean_linker_0, # of connection points: 2
#     Edge 14, Type (0, 0), BuildingBlock: MIFKUJ_clean_linker_0, # of connection points: 2
#     Edge 15, Type (0, 0), BuildingBlock: MIFKUJ_clean_linker_0, # of connection points: 2
#     Edge 16, Type (0, 0), BuildingBlock: MIFKUJ_clean_linker_0, # of connection points: 2
#     Edge 17, Type (0, 0), BuildingBlock: MIFKUJ_clean_linker_0, # of connection points: 2
#     Edge 18, Type (0, 0), BuildingBlock: MIFKUJ_clean_linker_0, # of connection points: 2
#     Edge 19, Type (0, 0), BuildingBlock: MIFKUJ_clean_linker_0, # of connection points: 2
#     Edge 20, Type (0, 0), BuildingBlock: MIFKUJ_clean_linker_0, # of connection points: 2
#     Edge 21, Type (0, 0), BuildingBlock: MIFKUJ_clean_linker_0, # of connection points: 2
#     Edge 22, Type (0, 0), BuildingBlock: MIFKUJ_clean_linker_0, # of connection points: 2
#     Edge 23, Type (0, 0), BuildingBlock: MIFKUJ_clean_linker_0, # of connection points: 2
# Relax obj value: 0.186
# Max RMSD: 0.260
# Mean RMSD: 0.260
data_MOF--net-smu--node1-BETDEL_clean_sbu_0--edge1-MIFKUJ_clean_linker_0
_symmetry_space_group_name_H-M    P1
_symmetry_Int_Tables_number       1
_symmetry_cell_setting            triclinic
loop_
_symmetry_equiv_pos_as_xyz
'x, y, z'
_cell_length_a     40.451346
_cell_length_b     40.544705
_cell_length_c     35.130519
_cell_angle_alpha  89.597483
_cell_angle_beta   90.292116
_cell_angle_gamma 119.81766
loop_
_atom_site_label
_atom_site_type_symbol
_atom_site_fract_x
_atom_site_fract_y
_atom_site_fract_z
_atom_type_partial_charge
Dy0 Dy 0.36185 0.08487 0.29069 0.0
C1 C 0.25043 0.13141 0.30802 0.0
C2 C 0.42101 0.07328 0.2717 0.0
Dy3 Dy 0.2978 0.10297 0.29317 0.0
O4 O 0.4009 0.0609 0.3027 0.0
O5 O 0.40692 0.08951 0.25036 0.0
O6 O 0.38032 0.10863 0.3499 0.0
O7 O 0.32338 0.08309 0.33575 0.0
C8 C 0.3467 0.09988 0.36225 0.0
C9 C 0.30367 0.07591 0.22604 0.0
O10 O 0.3473 0.16177 0.28648 0.0
O11 O 0.39609 0.14787 0.28215 0.0
O12 O 0.28358 0.14314 0.32365 0.0
O13 O 0.24268 0.10331 0.28534 0.0
O14 O 0.27214 0.07197 0.23956 0.0
O15 O 0.3317 0.09848 0.2467 0.0
O16 O 0.3097 0.0262 0.2869 0.0
O17 O 0.26984 0.04402 0.31664 0.0
C18 C 0.38365 0.17243 0.28234 0.0
C19 C 0.27691 0.01742 0.30379 0.0
Dy20 Dy 0.73109 0.63766 0.28161 0.0
C21 C 0.88873 0.74484 0.29623 0.0
C22 C 0.66568 0.56891 0.27618 0.0
Dy23 Dy 0.8122 0.69906 0.28644 0.0
O24 O 0.69163 0.57879 0.3022 0.0
O25 O 0.67475 0.59735 0.25279 0.0
O26 O 0.71645 0.65609 0.33536 0.0
O27 O 0.7714 0.66271 0.33008 0.0
C28 C 0.74983 0.66968 0.35064 0.0
C29 C 0.78281 0.69368 0.21652 0.0
O30 O 0.82065 0.64927 0.29473 0.0
O31 O 0.76151 0.60425 0.27332 0.0
O32 O 0.87266 0.71713 0.27222 0.0
O33 O 0.86289 0.74794 0.31539 0.0
O34 O 0.80961 0.72467 0.23123 0.0
O35 O 0.77535 0.66553 0.2381 0.0
O36 O 0.72541 0.68897 0.26768 0.0
O37 O 0.78197 0.73118 0.2982 0.0
C38 C 0.79671 0.61435 0.2838 0.0
C39 C 0.74881 0.72283 0.28265 0.0
Dy40 Dy 0.91298 0.26962 0.28108 0.0
C41 C 0.86571 0.11135 0.29219 0.0
C42 C 0.92646 0.34176 0.2649 0.0
Dy43 Dy 0.89278 0.18771 0.2831 0.0
O44 O 0.93787 0.33197 0.29542 0.0
O45 O 0.91025 0.31272 0.24239 0.0
O46 O 0.88926 0.26354 0.34032 0.0
O47 O 0.91529 0.23261 0.32588 0.0
C48 C 0.89898 0.23932 0.3527 0.0
C49 C 0.9192 0.22126 0.21539 0.0
O50 O 0.8345 0.18025 0.28613 0.0
O51 O 0.84948 0.24185 0.27243 0.0
O52 O 0.88237 0.1312 0.26211 0.0
O53 O 0.86445 0.13341 0.31815 0.0
O54 O 0.92415 0.19444 0.22949 0.0
O55 O 0.89695 0.22678 0.23655 0.0
O56 O 0.97159 0.27434 0.27672 0.0
O57 O 0.95243 0.215 0.30363 0.0
C58 C 0.82417 0.20574 0.27884 0.0
C59 C 0.97967 0.24886 0.29195 0.0
Dy60 Dy 0.05695 0.30068 0.78033 0.0
C61 C 0.21423 0.41407 0.78303 0.0
C62 C 0.98455 0.24261 0.76644 0.0
Dy63 Dy 0.13738 0.36381 0.77841 0.0
O64 O 0.99684 0.25941 0.79896 0.0
O65 O 0.01129 0.25897 0.7413 0.0
O66 O 0.0662 0.28409 0.83804 0.0
O67 O 0.09334 0.34198 0.82402 0.0
C68 C 0.08809 0.31828 0.85046 0.0
C69 C 0.1018 0.34359 0.7101 0.0
O70 O 0.14553 0.31486 0.79413 0.0
O71 O 0.0873 0.26747 0.77275 0.0
O72 O 0.19713 0.39053 0.75544 0.0
O73 O 0.18928 0.41032 0.80839 0.0
O74 O 0.12553 0.37852 0.71932 0.0
O75 O 0.09993 0.32186 0.73673 0.0
O76 O 0.04983 0.35271 0.77124 0.0
O77 O 0.11113 0.39922 0.78828 0.0
C78 C 0.12265 0.27922 0.78415 0.0
C79 C 0.07552 0.3886 0.77951 0.0
Dy80 Dy 0.24171 0.93715 0.79152 0.0
C81 C 0.2019 0.78207 0.79148 0.0
C82 C 0.25694 0.01099 0.78785 0.0
Dy83 Dy 0.22666 0.85865 0.78696 0.0
O84 O 0.25465 0.99227 0.81865 0.0
O85 O 0.25276 0.98988 0.75858 0.0
O86 O 0.21321 0.92262 0.84802 0.0
O87 O 0.24826 0.90037 0.83423 0.0
C88 C 0.22841 0.90311 0.86058 0.0
C89 C 0.24102 0.89559 0.71915 0.0
O90 O 0.16747 0.8481 0.79569 0.0
O91 O 0.17892 0.90793 0.77916 0.0
O92 O 0.19546 0.80141 0.81675 0.0
O93 O 0.22243 0.80472 0.76433 0.0
O94 O 0.25249 0.87183 0.72798 0.0
O95 O 0.22079 0.89661 0.74569 0.0
O96 O 0.30097 0.94479 0.78173 0.0
O97 O 0.28684 0.88574 0.80502 0.0
C98 C 0.15502 0.87185 0.78754 0.0
C99 C 0.31183 0.92031 0.7935 0.0
Dy100 Dy 0.69721 0.75336 0.78335 0.0
C101 C 0.58647 0.80087 0.7871 0.0
C102 C 0.75328 0.73657 0.76836 0.0
Dy103 Dy 0.6412 0.78006 0.78123 0.0
O104 O 0.73175 0.72522 0.79853 0.0
O105 O 0.74184 0.75422 0.74556 0.0
O106 O 0.72166 0.78517 0.83692 0.0
O107 O 0.66297 0.75941 0.82891 0.0
C108 C 0.68984 0.77829 0.85225 0.0
C109 C 0.66869 0.77393 0.71244 0.0
O110 O 0.69315 0.83377 0.79556 0.0
O111 O 0.73157 0.81541 0.76588 0.0
O112 O 0.58775 0.77915 0.76082 0.0
O113 O 0.61466 0.81057 0.81062 0.0
O114 O 0.66314 0.80183 0.72106 0.0
O115 O 0.65869 0.75136 0.74002 0.0
O116 O 0.64303 0.69582 0.78573 0.0
O117 O 0.60184 0.7196 0.79578 0.0
C118 C 0.72595 0.84237 0.7801 0.0
C119 C 0.60856 0.69092 0.79325 0.0
H120 H 0.30088 0.93999 0.88899 0.0
H121 H 0.31977 0.96652 0.95291 0.0
H122 H 0.20176 0.90748 0.98741 0.0
H123 H 0.18292 0.88307 0.92273 0.0
H124 H 0.22896 0.97469 1.00791 0.0
H125 H 0.27691 0.88795 1.02193 0.0
H126 H 0.3146 0.85774 1.00433 0.0
H127 H 0.41763 0.96562 1.01136 0.0
H128 H 0.3805 0.99657 1.02856 0.0
H129 H 0.24574 0.00987 0.20118 0.0
H130 H 0.24006 0.97721 0.14171 0.0
H131 H 0.35552 0.06088 0.1127 0.0
H132 H 0.36173 0.09358 0.17375 0.0
H133 H 0.3349 0.9857 0.08868 0.0
H134 H 0.28437 0.07089 0.07621 0.0
H135 H 0.24518 0.09839 0.09725 0.0
H136 H 0.14439 0.98875 0.0897 0.0
H137 H 0.18305 0.96051 0.06901 0.0
C138 C 0.27913 0.93157 0.91065 0.0
C139 C 0.24041 0.90889 0.90105 0.0
C140 C 0.28995 0.94689 0.94735 0.0
C141 C 0.26234 0.93911 0.97558 0.0
C142 C 0.2238 0.91433 0.96641 0.0
C143 C 0.21297 0.89983 0.92953 0.0
C144 C 0.2728 0.95937 1.01319 0.0
C145 C 0.2518 0.9764 1.02562 0.0
C146 C 0.30351 0.96322 0.03622 0.0
C147 C 0.32588 0.94462 1.02616 0.0
C148 C 0.30758 0.90527 1.01947 0.0
C149 C 0.32885 0.88801 1.00961 0.0
C150 C 0.36847 0.90976 1.00663 0.0
C151 C 0.38693 0.94881 1.01364 0.0
C152 C 0.36579 0.96622 1.02348 0.0
C153 C 0.27021 0.02121 0.18245 0.0
C154 C 0.30402 0.05468 0.1919 0.0
C155 C 0.26689 0.00243 0.14834 0.0
C156 C 0.29699 0.01696 0.12213 0.0
C157 C 0.33177 0.04922 0.13234 0.0
C158 C 0.33533 0.06793 0.16713 0.0
C159 C 0.29036 0.99978 0.08331 0.0
C160 C 0.31214 0.98374 0.07067 0.0
C161 C 0.2601 0.99639 0.06008 0.0
C162 C 0.23663 0.01358 0.07117 0.0
C163 C 0.25386 0.05265 0.07908 0.0
C164 C 0.23174 0.06835 0.09097 0.0
C165 C 0.19232 0.04532 0.09482 0.0
C166 C 0.17492 0.00656 0.08663 0.0
C167 C 0.1969 0.9907 0.07475 0.0
H168 H 0.17526 0.05751 0.10415 0.0
H169 H 0.38488 0.89635 0.99897 0.0
H170 H 0.67066 0.71076 0.6909 0.0
H171 H 0.6922 0.69837 0.63088 0.0
H172 H 0.72192 0.81058 0.59074 0.0
H173 H 0.69873 0.82252 0.65085 0.0
H174 H 0.69008 0.76418 0.53536 0.0
H175 H 0.79959 0.78579 0.61061 0.0
H176 H 0.83461 0.77971 0.66522 0.0
H177 H 0.77097 0.65805 0.65599 0.0
H178 H 0.73689 0.66363 0.59989 0.0
H179 H 0.78014 0.74354 0.37168 0.0
H180 H 0.77408 0.76648 0.43415 0.0
H181 H 0.72553 0.65267 0.47945 0.0
H182 H 0.73175 0.6298 0.41685 0.0
H183 H 0.77205 0.70522 0.53148 0.0
H184 H 0.66906 0.68786 0.44836 0.0
H185 H 0.64172 0.69866 0.38987 0.0
H186 H 0.69736 0.81819 0.41361 0.0
H187 H 0.72546 0.80815 0.47202 0.0
C188 C 0.68193 0.73295 0.66939 0.0
C189 C 0.68299 0.76767 0.67573 0.0
C190 C 0.69473 0.72596 0.63505 0.0
C191 C 0.70972 0.75377 0.60617 0.0
C192 C 0.71075 0.7886 0.61243 0.0
C193 C 0.69751 0.79547 0.64684 0.0
C194 C 0.72244 0.74549 0.56905 0.0
C195 C 0.70863 0.752 0.53463 0.0
C196 C 0.74609 0.72889 0.56744 0.0
C197 C 0.7654 0.72512 0.60161 0.0
C198 C 0.79293 0.75776 0.62044 0.0
C199 C 0.81273 0.75439 0.6515 0.0
C200 C 0.80452 0.71847 0.66457 0.0
C201 C 0.7771 0.68584 0.646 0.0
C202 C 0.75784 0.68909 0.61431 0.0
C203 C 0.76959 0.72372 0.39533 0.0
C204 C 0.75736 0.68505 0.38969 0.0
C205 C 0.76557 0.73675 0.43094 0.0
C206 C 0.74874 0.71124 0.46153 0.0
C207 C 0.73859 0.67296 0.45642 0.0
C208 C 0.74251 0.65994 0.42075 0.0
C209 C 0.73957 0.72374 0.49803 0.0
C210 C 0.75383 0.71778 0.53227 0.0
C211 C 0.71674 0.74128 0.4993 0.0
C212 C 0.69959 0.74729 0.46439 0.0
C213 C 0.67563 0.71647 0.44099 0.0
C214 C 0.65995 0.72244 0.4079 0.0
C215 C 0.66773 0.75907 0.39809 0.0
C216 C 0.69127 0.78982 0.42132 0.0
C217 C 0.70707 0.784 0.45442 0.0
H218 H 0.65558 0.76363 0.37243 0.0
H219 H 0.81945 0.71589 0.68899 0.0
H220 H 0.96824 0.20947 0.17434 0.0
H221 H 1.00066 0.23949 0.11568 0.0
H222 H 0.94659 0.30817 0.11439 0.0
H223 H 0.91289 0.27717 0.17413 0.0
H224 H 0.94707 0.27919 0.04259 0.0
H225 H 0.03983 0.34902 0.13676 0.0
H226 H 0.07886 0.35953 0.19435 0.0
H227 H 0.12918 0.29864 0.14427 0.0
H228 H 0.09002 0.28719 0.08658 0.0
H229 H 0.06739 0.36759 0.88088 0.0
H230 H 0.04323 0.36467 0.94562 0.0
H231 H 0.07275 0.27931 0.97602 0.0
H232 H 0.09616 0.28167 0.91135 0.0
H233 H 0.08685 0.3311 1.03519 0.0
H234 H 0.9858 0.25232 0.94707 0.0
H235 H 0.9471 0.24128 0.8891 0.0
H236 H 0.91284 0.31984 0.9284 0.0
H237 H 0.9519 0.33181 0.98636 0.0
C238 C 0.963 0.23096 0.16185 0.0
C239 C 0.93793 0.24095 0.1792 0.0
C240 C 0.98191 0.24835 0.12819 0.0
C241 C 0.97681 0.27669 0.11072 0.0
C242 C 0.95128 0.28656 0.12745 0.0
C243 C 0.93211 0.26895 0.16161 0.0
C244 C 0.99816 0.29488 0.07482 0.0
C245 C 0.97776 0.29153 0.04121 0.0
C246 C 0.03825 0.31049 0.0726 0.0
C247 C 0.06189 0.3172 0.10731 0.0
C248 C 0.05903 0.33764 0.1381 0.0
C249 C 0.0812 0.3438 0.17076 0.0
C250 C 0.10654 0.32986 0.17291 0.0
C251 C 0.10961 0.30953 0.1425 0.0
C252 C 0.08747 0.30324 0.10978 0.0
C253 C 0.07 0.34924 0.9018 0.0
C254 C 0.08408 0.32513 0.89118 0.0
C255 C 0.05576 0.34726 0.93869 0.0
C256 C 0.05574 0.32144 0.9657 0.0
C257 C 0.07243 0.29947 0.95583 0.0
C258 C 0.08603 0.30098 0.91889 0.0
C259 C 0.03567 0.31462 1.00304 0.0
C260 C 0.05632 0.31981 0.03682 0.0
C261 C 0.9959 0.30082 1.00539 0.0
C262 C 0.97214 0.29334 0.97079 0.0
C263 C 0.97027 0.26749 0.94319 0.0
C264 C 0.94824 0.26102 0.91036 0.0
C265 C 0.92762 0.27994 0.90501 0.0
C266 C 0.92891 0.30528 0.93254 0.0
C267 C 0.95098 0.31192 0.96538 0.0
H268 H 0.91057 0.2749 0.87958 0.0
H269 H 0.12391 0.33494 0.19808 0.0
H270 H 0.39325 0.11125 0.42401 0.0
H271 H 0.37415 0.08038 0.48667 0.0
H272 H 0.25601 0.02978 0.45418 0.0
H273 H 0.2748 0.06085 0.39192 0.0
H274 H 0.3272 0.07814 0.54699 0.0
H275 H 0.21176 0.9357 0.48537 0.0
H276 H 0.19519 0.9002 0.42496 0.0
H277 H 0.31316 0.95778 0.39285 0.0
H278 H 0.33049 0.99311 0.4533 0.0
H279 H 0.2186 0.94652 0.69679 0.0
H280 H 0.23617 0.98514 0.6384 0.0
H281 H 0.30156 0.93368 0.6015 0.0
H282 H 0.28465 0.8956 0.6601 0.0
H283 H 0.25718 0.93712 0.54369 0.0
H284 H 0.34584 0.02185 0.63733 0.0
H285 H 0.36445 0.05714 0.6978 0.0
H286 H 0.30372 0.11495 0.66602 0.0
H287 H 0.28423 0.07955 0.60558 0.0
C288 C 0.36319 0.09432 0.43053 0.0
C289 C 0.33562 0.08827 0.40268 0.0
C290 C 0.35229 0.07659 0.46639 0.0
C291 C 0.31363 0.05216 0.47502 0.0
C292 C 0.28602 0.04803 0.44811 0.0
C293 C 0.29686 0.06598 0.41247 0.0
C294 C 0.30231 0.02894 0.51082 0.0
C295 C 0.31171 0.04732 0.54624 0.0
C296 C 0.28234 0.98863 0.51006 0.0
C297 C 0.27235 0.96729 0.47374 0.0
C298 C 0.23417 0.94065 0.46549 0.0
C299 C 0.22466 0.92052 0.43127 0.0
C300 C 0.25312 0.92668 0.40514 0.0
C301 C 0.29115 0.95303 0.41313 0.0
C302 C 0.30083 0.97314 0.44735 0.0
C303 C 0.23692 0.94363 0.67634 0.0
C304 C 0.25048 0.91821 0.68325 0.0
C305 C 0.24693 0.96571 0.64291 0.0
C306 C 0.27046 0.96261 0.6155 0.0
C307 C 0.28339 0.93666 0.6221 0.0
C308 C 0.27374 0.91491 0.65567 0.0
C309 C 0.28169 0.98627 0.57995 0.0
C310 C 0.27231 0.96794 0.5445 0.0
C311 C 0.30168 0.02658 0.58073 0.0
C312 C 0.31333 0.04783 0.61707 0.0
C313 C 0.33621 0.04187 0.64336 0.0
C314 C 0.34698 0.06195 0.67759 0.0
C315 C 0.33535 0.08833 0.6857 0.0
C316 C 0.31284 0.09462 0.65963 0.0
C317 C 0.30189 0.07453 0.6254 0.0
H318 H 0.34368 0.10381 0.71224 0.0
H319 H 0.24569 0.9111 0.37865 0.0
H320 H 0.74158 0.82056 0.90575 0.0
H321 H 0.74717 0.8 0.96982 0.0
H322 H 0.6378 0.69874 0.95707 0.0
H323 H 0.63203 0.71929 0.89251 0.0
H324 H 0.65813 0.73339 0.03644 0.0
H325 H 0.70564 0.68787 0.93488 0.0
H326 H 0.74297 0.69668 0.87659 0.0
H327 H 0.84538 0.77585 0.93483 0.0
H328 H 0.80856 0.76806 0.99327 0.0
H329 H 0.71175 0.64399 0.18607 0.0
H330 H 0.68592 0.65168 0.12479 0.0
H331 H 0.79395 0.75124 0.09988 0.0
H332 H 0.81927 0.74394 0.16027 0.0
H333 H 0.76579 0.70739 0.03768 0.0
H334 H 0.72285 0.7602 0.13466 0.0
H335 H 0.68962 0.75874 0.19377 0.0
H336 H 0.58341 0.67356 0.1462 0.0
H337 H 0.6162 0.67387 0.08699 0.0
C338 C 0.71802 0.79462 0.9171 0.0
C339 C 0.68643 0.77157 0.89402 0.0
C340 C 0.72134 0.78278 0.95369 0.0
C341 C 0.6932 0.74753 0.96807 0.0
C342 C 0.65987 0.72603 0.94657 0.0
C343 C 0.6565 0.73793 0.90973 0.0
C344 C 0.70144 0.73142 1.00282 0.0
C345 C 0.68109 0.72687 0.03658 0.0
C346 C 0.73194 0.72365 1.00325 0.0
C347 C 0.75428 0.72755 0.9684 0.0
C348 C 0.73608 0.70732 0.9352 0.0
C349 C 0.75715 0.71213 0.90212 0.0
C350 C 0.79651 0.73685 0.90199 0.0
C351 C 0.81489 0.75672 0.93497 0.0
C352 C 0.79394 0.75209 0.96808 0.0
C353 C 0.73003 0.66697 0.16705 0.0
C354 C 0.76757 0.69323 0.17788 0.0
C355 C 0.71522 0.67158 0.13224 0.0
C356 C 0.73795 0.70223 0.10768 0.0
C357 C 0.77581 0.72735 0.11808 0.0
C358 C 0.79027 0.7231 0.15274 0.0
C359 C 0.72282 0.70966 0.07166 0.0
C360 C 0.74213 0.71288 0.0375 0.0
C361 C 0.69184 0.71677 0.07114 0.0
C362 C 0.67206 0.71662 0.10661 0.0
C363 C 0.69248 0.74083 0.13694 0.0
C364 C 0.67373 0.74024 0.17046 0.0
C365 C 0.63446 0.71599 0.1738 0.0
C366 C 0.61385 0.69227 0.1436 0.0
C367 C 0.63251 0.69259 0.11007 0.0
H368 H 0.61998 0.71569 0.19973 0.0
H369 H 0.81278 0.74058 0.87638 0.0
H370 H 0.94396 0.21222 0.38123 0.0
H371 H 0.97575 0.22585 0.44317 0.0
H372 H 0.91552 0.28345 0.47754 0.0
H373 H 0.88426 0.27076 0.41499 0.0
H374 H 0.02419 0.29826 0.47206 0.0
H375 H 0.90276 0.26917 0.57718 0.0
H376 H 0.83344 0.22642 0.58375 0.0
H377 H 0.83993 0.14332 0.51396 0.0
H378 H 0.90932 0.1853 0.50743 0.0
H379 H 0.09735 0.3874 0.65271 0.0
H380 H 0.06054 0.36574 0.5933 0.0
H381 H 0.02011 0.24924 0.62625 0.0
H382 H 0.05777 0.27076 0.6849 0.0
H383 H 0.96164 0.26063 0.59842 0.0
H384 H 0.08681 0.28743 0.56175 0.0
H385 H 0.15659 0.32715 0.55627 0.0
H386 H 0.14332 0.40868 0.48903 0.0
H387 H 0.07341 0.36972 0.49464 0.0
C388 C 0.93702 0.22737 0.40206 0.0
C389 C 0.91176 0.24069 0.39287 0.0
C390 C 0.95541 0.23529 0.43749 0.0
C391 C 0.94835 0.25596 0.46503 0.0
C392 C 0.92146 0.26742 0.45683 0.0
C393 C 0.90346 0.26 0.42107 0.0
C394 C 0.97057 0.26715 0.5014 0.0
C395 C 0.01043 0.29009 0.49966 0.0
C396 C 0.95287 0.2562 0.53753 0.0
C397 C 0.91117 0.23065 0.5414 0.0
C398 C 0.88939 0.24176 0.56328 0.0
C399 C 0.85009 0.21766 0.56699 0.0
C400 C 0.83225 0.1823 0.54906 0.0
C401 C 0.85373 0.17085 0.52758 0.0
C402 C 0.89304 0.19481 0.52382 0.0
C403 C 0.08073 0.35719 0.64719 0.0
C404 C 0.08012 0.33079 0.67376 0.0
C405 C 0.05964 0.34482 0.61325 0.0
C406 C 0.03736 0.30579 0.60525 0.0
C407 C 0.03674 0.27944 0.63183 0.0
C408 C 0.0582 0.29181 0.66546 0.0
C409 C 0.01511 0.29238 0.56903 0.0
C410 C 0.97532 0.26902 0.5708 0.0
C411 C 0.03288 0.30267 0.53289 0.0
C412 C 0.07488 0.32588 0.52901 0.0
C413 C 0.09877 0.314 0.54609 0.0
C414 C 0.13835 0.33637 0.54296 0.0
C415 C 0.15439 0.37054 0.52252 0.0
C416 C 0.13086 0.38229 0.505 0.0
C417 C 0.09126 0.36006 0.50811 0.0
H418 H 0.18504 0.38779 0.52007 0.0
H419 H 0.80183 0.16367 0.552 0.0
H420 H 0.45649 0.04204 0.31307 0.0
H421 H 0.52438 0.06144 0.31192 0.0
H422 H 0.54225 0.14103 0.22126 0.0
H423 H 0.47437 0.12 0.22081 0.0
H424 H 0.58707 0.1166 0.20908 0.0
H425 H 0.56053 0.16592 0.32108 0.0
H426 H 0.52844 0.1635 0.38141 0.0
H427 H 0.5677 0.09192 0.43079 0.0
H428 H 0.59963 0.09353 0.37057 0.0
H429 H 0.78758 0.2405 0.24531 0.0
H430 H 0.71854 0.21635 0.24215 0.0
H431 H 0.69829 0.1177 0.30756 0.0
H432 H 0.76671 0.14114 0.31038 0.0
H433 H 0.65593 0.15274 0.33249 0.0
H434 H 0.6845 0.1075 0.21659 0.0
H435 H 0.71856 0.11597 0.15609 0.0
H436 H 0.6774 0.18875 0.11422 0.0
H437 H 0.64351 0.1811 0.17472 0.0
C438 C 0.47482 0.06297 0.29231 0.0
C439 C 0.46011 0.0795 0.26708 0.0
C440 C 0.51378 0.07449 0.29198 0.0
C441 C 0.53898 0.10366 0.26727 0.0
C442 C 0.52375 0.11867 0.24077 0.0
C443 C 0.48478 0.10655 0.2405 0.0
C444 C 0.5812 0.11967 0.26977 0.0
C445 C 0.60201 0.12485 0.23612 0.0
C446 C 0.60119 0.13047 0.30493 0.0
C447 C 0.58212 0.12952 0.3412 0.0
C448 C 0.5621 0.14946 0.34473 0.0
C449 C 0.54397 0.14826 0.37891 0.0
C450 C 0.54594 0.12748 0.40987 0.0
C451 C 0.56614 0.10794 0.40676 0.0
C452 C 0.58428 0.10901 0.37262 0.0
C453 C 0.76841 0.21375 0.25913 0.0
C454 C 0.78271 0.19269 0.27791 0.0
C455 C 0.72898 0.19993 0.2572 0.0
C456 C 0.70325 0.1651 0.27448 0.0
C457 C 0.71756 0.14459 0.29401 0.0
C458 C 0.75676 0.15802 0.29543 0.0
C459 C 0.66133 0.14951 0.27195 0.0
C460 C 0.64074 0.14446 0.30558 0.0
C461 C 0.6417 0.13971 0.23676 0.0
C462 C 0.66179 0.14403 0.2003 0.0
C463 C 0.68297 0.12555 0.1946 0.0
C464 C 0.70219 0.13015 0.16029 0.0
C465 C 0.70023 0.15297 0.13137 0.0
C466 C 0.67894 0.17113 0.13666 0.0
C467 C 0.65969 0.16664 0.17094 0.0
H468 H 0.71514 0.1565 0.10483 0.0
H469 H 0.53189 0.12658 0.43631 0.0
H470 H 0.6015 0.54126 0.23049 0.0
H471 H 0.55004 0.47436 0.22541 0.0
H472 H 0.60786 0.4414 0.30766 0.0
H473 H 0.65814 0.50733 0.31353 0.0
H474 H 0.58364 0.39651 0.23847 0.0
H475 H 0.53761 0.44643 0.33814 0.0
H476 H 0.51754 0.49036 0.36332 0.0
H477 H 0.4305 0.45405 0.27756 0.0
H478 H 0.45045 0.41026 0.25154 0.0
H479 H 0.45912 0.21024 0.3014 0.0
H480 H 0.50416 0.27821 0.29532 0.0
H481 H 0.41618 0.29509 0.24465 0.0
H482 H 0.37047 0.22741 0.25297 0.0
H483 H 0.45338 0.34996 0.28871 0.0
H484 H 0.4935 0.29558 0.19191 0.0
H485 H 0.51279 0.25177 0.16475 0.0
H486 H 0.60989 0.29672 0.23922 0.0
H487 H 0.59093 0.34047 0.26718 0.0
C488 C 0.60295 0.51965 0.24753 0.0
C489 C 0.6337 0.5295 0.27248 0.0
C490 C 0.57368 0.48157 0.24461 0.0
C491 C 0.5753 0.45297 0.2661 0.0
C492 C 0.60613 0.46294 0.29073 0.0
C493 C 0.63476 0.50074 0.29416 0.0
C494 C 0.54522 0.41241 0.26353 0.0
C495 C 0.55511 0.3862 0.24943 0.0
C496 C 0.50781 0.39921 0.27693 0.0
C497 C 0.49586 0.42549 0.29258 0.0
C498 C 0.51446 0.44811 0.32441 0.0
C499 C 0.50305 0.47292 0.33889 0.0
C500 C 0.47286 0.4751 0.32196 0.0
C501 C 0.45394 0.4524 0.29058 0.0
C502 C 0.46528 0.42758 0.27597 0.0
C503 C 0.44945 0.22845 0.28883 0.0
C504 C 0.41132 0.21345 0.27749 0.0
C505 C 0.47532 0.26736 0.28508 0.0
C506 C 0.46402 0.29198 0.26861 0.0
C507 C 0.42581 0.27691 0.25733 0.0
C508 C 0.39969 0.23814 0.262 0.0
C509 C 0.49176 0.33347 0.26407 0.0
C510 C 0.48155 0.35999 0.27695 0.0
C511 C 0.5288 0.34702 0.24896 0.0
C512 C 0.54063 0.32114 0.23181 0.0
C513 C 0.51887 0.296 0.20262 0.0
C514 C 0.52976 0.27119 0.18707 0.0
C515 C 0.5625 0.27141 0.2003 0.0
C516 C 0.58452 0.29656 0.22901 0.0
C517 C 0.57376 0.32142 0.24467 0.0
H518 H 0.57085 0.25214 0.18827 0.0
H519 H 0.46404 0.49431 0.33322 0.0
H520 H 0.88085 0.35221 0.21515 0.0
H521 H 0.86188 0.40047 0.21732 0.0
H522 H 0.94076 0.45599 0.30972 0.0
H523 H 0.95805 0.40592 0.30907 0.0
H524 H 0.87959 0.45387 0.32717 0.0
H525 H 0.95223 0.4935 0.21268 0.0
H526 H 0.97303 0.48679 0.14875 0.0
H527 H 0.86107 0.45075 0.10453 0.0
H528 H 0.83945 0.45676 0.16831 0.0
H529 H 0.86128 0.62055 0.31597 0.0
H530 H 0.88555 0.57625 0.31152 0.0
H531 H 0.78865 0.50111 0.24296 0.0
H532 H 0.76377 0.54519 0.24763 0.0
H533 H 0.86091 0.51586 0.21333 0.0
H534 H 0.79018 0.47693 0.33102 0.0
H535 H 0.77302 0.48753 0.39522 0.0
H536 H 0.88784 0.52808 0.43329 0.0
H537 H 0.90583 0.51822 0.36913 0.0
C538 C 0.8948 0.37514 0.23542 0.0
C539 C 0.9212 0.37539 0.26176 0.0
C540 C 0.88398 0.40297 0.23657 0.0
C541 C 0.90016 0.43256 0.26332 0.0
C542 C 0.92771 0.4336 0.28877 0.0
C543 C 0.93792 0.40518 0.28817 0.0
C544 C 0.88649 0.46073 0.26626 0.0
C545 C 0.87627 0.46788 0.30223 0.0
C546 C 0.8812 0.47874 0.23383 0.0
C547 C 0.89415 0.47529 0.19536 0.0
C548 C 0.93198 0.48391 0.18937 0.0
C549 C 0.94392 0.48027 0.15315 0.0
C550 C 0.91837 0.46828 0.12261 0.0
C551 C 0.88083 0.46001 0.12821 0.0
C552 C 0.86873 0.46358 0.16439 0.0
C553 C 0.84493 0.59453 0.30006 0.0
C554 C 0.81047 0.58646 0.28219 0.0
C555 C 0.85889 0.56919 0.2976 0.0
C556 C 0.83892 0.5353 0.27697 0.0
C557 C 0.80456 0.52712 0.259 0.0
C558 C 0.79028 0.55226 0.26187 0.0
C559 C 0.85417 0.50865 0.27401 0.0
C560 C 0.86458 0.50187 0.23811 0.0
C561 C 0.8603 0.49155 0.3065 0.0
C562 C 0.84943 0.49717 0.34517 0.0
C563 C 0.81185 0.48839 0.35299 0.0
C564 C 0.80195 0.49421 0.3894 0.0
C565 C 0.82935 0.50856 0.41829 0.0
C566 C 0.86666 0.51701 0.41087 0.0
C567 C 0.87671 0.51127 0.37451 0.0
H568 H 0.82164 0.51306 0.44645 0.0
H569 H 0.92766 0.46545 0.0946 0.0
H570 H 0.08438 0.43182 0.71787 0.0
H571 H 0.098 0.4978 0.71983 0.0
H572 H 0.06622 0.48396 0.83826 0.0
H573 H 0.05318 0.41799 0.8364 0.0
H574 H 0.04732 0.53509 0.79291 0.0
H575 H 0.15175 0.51417 0.82536 0.0
H576 H 0.195 0.48856 0.81511 0.0
H577 H 0.23285 0.5507 0.70994 0.0
H578 H 0.18948 0.57632 0.71935 0.0
H579 H 0.15676 0.73058 0.84567 0.0
H580 H 0.12775 0.66116 0.84379 0.0
H581 H 0.18043 0.66992 0.73486 0.0
H582 H 0.21004 0.73916 0.73712 0.0
H583 H 0.18668 0.62005 0.7772 0.0
H584 H 0.08395 0.6422 0.74433 0.0
H585 H 0.04019 0.66741 0.75301 0.0
H586 H 0.99847 0.60317 0.85661 0.0
H587 H 0.04238 0.57795 0.84881 0.0
C588 C 0.07825 0.44224 0.74369 0.0
C589 C 0.06682 0.41965 0.77673 0.0
C590 C 0.08653 0.48007 0.74495 0.0
C591 C 0.08351 0.49588 0.77931 0.0
C592 C 0.06855 0.47227 0.81144 0.0
C593 C 0.06068 0.43448 0.81027 0.0
C594 C 0.10102 0.53779 0.78291 0.0
C595 C 0.07781 0.55373 0.78991 0.0
C596 C 0.14077 0.56207 0.77847 0.0
C597 C 0.16704 0.54683 0.77285 0.0
C598 C 0.16905 0.52211 0.79988 0.0
C599 C 0.19366 0.50766 0.79427 0.0
C600 C 0.21663 0.51795 0.76187 0.0
C601 C 0.21506 0.54275 0.73504 0.0
C602 C 0.1905 0.55727 0.74051 0.0
C603 C 0.16227 0.71764 0.82147 0.0
C604 C 0.18565 0.74027 0.79154 0.0
C605 C 0.14546 0.67793 0.82025 0.0
C606 C 0.15137 0.66009 0.78889 0.0
C607 C 0.17531 0.68286 0.75934 0.0
C608 C 0.19222 0.72248 0.76064 0.0
C609 C 0.13301 0.6178 0.78678 0.0
C610 C 0.15615 0.60163 0.7802 0.0
C611 C 0.09319 0.59342 0.79145 0.0
C612 C 0.06675 0.60851 0.79619 0.0
C613 C 0.06567 0.63368 0.76912 0.0
C614 C 0.0408 0.64794 0.77385 0.0
C615 C 0.01664 0.63699 0.80539 0.0
C616 C 0.01724 0.61168 0.83222 0.0
C617 C 0.0421 0.59737 0.82765 0.0
H618 H 0.9974 0.64804 0.809 0.0
H619 H 0.2357 0.50678 0.75761 0.0
H620 H 0.36056 0.93053 0.85114 0.0
H621 H 0.4144 0.91878 0.84748 0.0
H622 H 0.4019 0.90933 0.72546 0.0
H623 H 0.34878 0.92225 0.72906 0.0
H624 H 0.39324 0.84234 0.76776 0.0
H625 H 0.47957 0.97696 0.75436 0.0
H626 H 0.50791 0.04415 0.77305 0.0
H627 H 0.54239 0.01932 0.88028 0.0
H628 H 0.51376 0.95183 0.86245 0.0
H629 H 0.53645 0.79496 0.73171 0.0
H630 H 0.49459 0.82239 0.73128 0.0
H631 H 0.5328 0.86625 0.84436 0.0
H632 H 0.57599 0.84018 0.84408 0.0
H633 H 0.52914 0.91786 0.80544 0.0
H634 H 0.44236 0.78603 0.82491 0.0
H635 H 0.41097 0.71709 0.8129 0.0
H636 H 0.37325 0.73337 0.70353 0.0
H637 H 0.40482 0.80249 0.71467 0.0
C638 C 0.37078 0.92809 0.82343 0.0
C639 C 0.35134 0.92832 0.79029 0.0
C640 C 0.40121 0.92094 0.82137 0.0
C641 C 0.41201 0.91301 0.78621 0.0
C642 C 0.3941 0.91555 0.75284 0.0
C643 C 0.36418 0.92349 0.75485 0.0
C644 C 0.43831 0.89737 0.78495 0.0
C645 C 0.42317 0.85899 0.77527 0.0
C646 C 0.4768 0.91866 0.7965 0.0
C647 C 0.4942 0.95926 0.80719 0.0
C648 C 0.49289 0.98575 0.78206 0.0
C649 C 0.50908 0.02391 0.79247 0.0
C650 C 0.52686 0.03598 0.82787 0.0
C651 C 0.52858 0.00993 0.85288 0.0
C652 C 0.51241 0.97172 0.84262 0.0
C653 C 0.5357 0.81024 0.75657 0.0
C654 C 0.55929 0.81527 0.78802 0.0
C655 C 0.51163 0.82582 0.75639 0.0
C656 C 0.50997 0.84603 0.78802 0.0
C657 C 0.53347 0.85086 0.81957 0.0
C658 C 0.55799 0.83575 0.81951 0.0
C659 C 0.48424 0.86263 0.78791 0.0
C660 C 0.49932 0.90112 0.79761 0.0
C661 C 0.44531 0.84112 0.77733 0.0
C662 C 0.42633 0.79953 0.77046 0.0
C663 C 0.42764 0.77496 0.79816 0.0
C664 C 0.40976 0.73584 0.79154 0.0
C665 C 0.39024 0.72088 0.75743 0.0
C666 C 0.38845 0.74501 0.72992 0.0
C667 C 0.4063 0.78416 0.73638 0.0
H668 H 0.37645 0.6906 0.75234 0.0
H669 H 0.53938 0.06554 0.83587 0.0
H670 H 0.25415 0.46812 0.83686 0.0
H671 H 0.32331 0.51101 0.8399 0.0
H672 H 0.33714 0.46211 0.7367 0.0
H673 H 0.26822 0.41908 0.7338 0.0
H674 H 0.39044 0.47108 0.78745 0.0
H675 H 0.34311 0.54817 0.73509 0.0
H676 H 0.30333 0.57837 0.7304 0.0
H677 H 0.34946 0.63624 0.83593 0.0
H678 H 0.38929 0.60603 0.8415 0.0
H679 H 0.58051 0.62927 0.7458 0.0
H680 H 0.51445 0.57599 0.74592 0.0
H681 H 0.494 0.61589 0.8519 0.0
H682 H 0.55937 0.66883 0.85159 0.0
H683 H 0.44441 0.61051 0.797 0.0
H684 H 0.49293 0.5318 0.84731 0.0
H685 H 0.53399 0.50282 0.84759 0.0
H686 H 0.48673 0.44954 0.74039 0.0
H687 H 0.44573 0.47865 0.73922 0.0
C688 C 0.272 0.46656 0.81489 0.0
C689 C 0.25584 0.44033 0.7851 0.0
C690 C 0.31149 0.49114 0.81654 0.0
C691 C 0.33551 0.49 0.78837 0.0
C692 C 0.31931 0.46352 0.7588 0.0
C693 C 0.27988 0.43906 0.75708 0.0
C694 C 0.37745 0.51656 0.78955 0.0
C695 C 0.40226 0.50162 0.78913 0.0
C696 C 0.39299 0.55641 0.79196 0.0
C697 C 0.36883 0.57441 0.78896 0.0
C698 C 0.34448 0.567 0.75753 0.0
C699 C 0.32195 0.58417 0.75468 0.0
C700 C 0.32362 0.60897 0.783 0.0
C701 C 0.34804 0.61685 0.81412 0.0
C702 C 0.37064 0.59975 0.81711 0.0
C703 C 0.56232 0.62554 0.76988 0.0
C704 C 0.57499 0.6529 0.79882 0.0
C705 C 0.5245 0.59534 0.7698 0.0
C706 C 0.49909 0.59216 0.79876 0.0
C707 C 0.51288 0.61788 0.82912 0.0
C708 C 0.55036 0.6479 0.82911 0.0
C709 C 0.4574 0.56503 0.79576 0.0
C710 C 0.4326 0.57996 0.79553 0.0
C711 C 0.44201 0.52532 0.79226 0.0
C712 C 0.46656 0.50773 0.79299 0.0
C713 C 0.49153 0.51418 0.82364 0.0
C714 C 0.51474 0.49767 0.82399 0.0
C715 C 0.51305 0.47444 0.79398 0.0
C716 C 0.48805 0.46759 0.76359 0.0
C717 C 0.4648 0.48406 0.76309 0.0
H718 H 0.53104 0.46169 0.7943 0.0
H719 H 0.30616 0.62224 0.78072 0.0
H720 H 0.17775 0.10559 0.2836 0.0
H721 H 0.14287 0.14045 0.28135 0.0
H722 H 0.23883 0.23758 0.33255 0.0
H723 H 0.27308 0.20198 0.33641 0.0
H724 H 0.17888 0.2324 0.36063 0.0
H725 H 0.21795 0.23345 0.23405 0.0
H726 H 0.22756 0.2077 0.17437 0.0
H727 H 0.10647 0.139 0.15991 0.0
H728 H 0.0961 0.1639 0.21979 0.0
H729 H 0.04255 0.28949 0.2459 0.0
H730 H 0.10257 0.28771 0.24961 0.0
H731 H 0.06275 0.22013 0.35221 0.0
H732 H 0.00489 0.22354 0.34971 0.0
H733 H 0.11097 0.23013 0.24182 0.0
H734 H 0.12636 0.2205 0.40683 0.0
H735 H 0.11945 0.25124 0.46418 0.0
H736 H 0.1417 0.34961 0.39812 0.0
H737 H 0.1493 0.31976 0.3404 0.0
C738 C 0.19118 0.13422 0.29477 0.0
C739 C 0.22807 0.15111 0.31017 0.0
C740 C 0.17143 0.15435 0.29307 0.0
C741 C 0.18855 0.19216 0.30579 0.0
C742 C 0.22503 0.20861 0.32229 0.0
C743 C 0.24456 0.18822 0.32458 0.0
C744 C 0.16802 0.21409 0.30224 0.0
C745 C 0.16432 0.23219 0.33456 0.0
C746 C 0.15025 0.21538 0.26779 0.0
C747 C 0.15627 0.20043 0.23156 0.0
C748 C 0.19336 0.21269 0.21826 0.0
C749 C 0.19895 0.19825 0.18438 0.0
C750 C 0.16765 0.17169 0.16339 0.0
C751 C 0.13069 0.15958 0.1762 0.0
C752 C 0.12494 0.17389 0.21009 0.0
C753 C 0.04759 0.27578 0.27003 0.0
C754 C 0.01913 0.25669 0.29752 0.0
C755 C 0.08162 0.27439 0.27194 0.0
C756 C 0.0876 0.25413 0.30143 0.0
C757 C 0.05975 0.2369 0.32976 0.0
C758 C 0.02628 0.23855 0.32807 0.0
C759 C 0.12012 0.24658 0.3008 0.0
C760 C 0.12622 0.23118 0.26768 0.0
C761 C 0.14103 0.24886 0.33419 0.0
C762 C 0.1383 0.26778 0.36919 0.0
C763 C 0.13024 0.24887 0.40456 0.0
C764 C 0.12606 0.26609 0.43712 0.0
C765 C 0.13002 0.30228 0.43473 0.0
C766 C 0.13852 0.32151 0.39987 0.0
C767 C 0.14275 0.30445 0.36722 0.0
H768 H 0.12642 0.31537 0.45986 0.0
H769 H 0.17203 0.16053 0.13718 0.0
H770 H 0.94224 0.72809 0.27289 0.0
H771 H 0.01158 0.76842 0.27583 0.0
H772 H 0.99871 0.85685 0.3291 0.0
H773 H 0.92891 0.81599 0.32722 0.0
H774 H 0.05196 0.87671 0.25914 0.0
H775 H 0.02352 0.81813 0.38511 0.0
H776 H 0.99467 0.76309 0.42884 0.0
H777 H 0.05934 0.71776 0.3768 0.0
H778 H 0.08815 0.7723 0.33236 0.0
H779 H 0.23155 0.98561 0.36468 0.0
H780 H 0.16854 0.92895 0.36411 0.0
H781 H 0.18768 0.90488 0.24946 0.0
H782 H 0.2514 0.96166 0.2502 0.0
H783 H 0.13193 0.84959 0.34742 0.0
H784 H 0.1089 0.89262 0.20049 0.0
H785 H 0.14012 0.9473 0.15635 0.0
H786 H 0.17914 0.02405 0.25101 0.0
H787 H 0.14779 0.96986 0.2956 0.0
C788 C 0.95419 0.75605 0.28545 0.0
C789 C 0.93036 0.76901 0.29992 0.0
C790 C 0.99372 0.779 0.28704 0.0
C791 C 0.01008 0.81553 0.30251 0.0
C792 C 0.98642 0.82869 0.31694 0.0
C793 C 0.94673 0.80535 0.31608 0.0
C794 C 0.05199 0.83983 0.30359 0.0
C795 C 0.06945 0.87074 0.27835 0.0
C796 C 0.07473 0.83164 0.32828 0.0
C797 C 0.05764 0.79904 0.35515 0.0
C798 C 0.0313 0.79623 0.38275 0.0
C799 C 0.01502 0.76518 0.40772 0.0
C800 C 0.02508 0.73688 0.40552 0.0
C801 C 0.05153 0.73966 0.37843 0.0
C802 C 0.06786 0.77065 0.35337 0.0
C803 C 0.22289 0.96735 0.33993 0.0
C804 C 0.24599 0.97791 0.30739 0.0
C805 C 0.18695 0.93496 0.33967 0.0
C806 C 0.17331 0.91314 0.30657 0.0
C807 C 0.19779 0.92153 0.27524 0.0
C808 C 0.23417 0.95376 0.27574 0.0
C809 C 0.13191 0.88649 0.30305 0.0
C810 C 0.11447 0.85519 0.32781 0.0
C811 C 0.10917 0.89426 0.27784 0.0
C812 C 0.12621 0.92719 0.25131 0.0
C813 C 0.12386 0.9212 0.21181 0.0
C814 C 0.14164 0.95209 0.18673 0.0
C815 C 0.16162 0.98912 0.20086 0.0
C816 C 0.16367 0.99536 0.24009 0.0
C817 C 0.1459 0.96457 0.26528 0.0
H818 H 0.17556 0.01297 0.18141 0.0
H819 H 0.01244 0.71286 0.42488 0.0
H820 H 0.82098 0.06341 0.3491 0.0
H821 H 0.78815 0.99356 0.34932 0.0
H822 H 0.83704 0.99567 0.23981 0.0
H823 H 0.86917 0.06498 0.23925 0.0
H824 H 0.76281 0.94317 0.24098 0.0
H825 H 0.87242 0.98031 0.32364 0.0
H826 H 0.91297 0.01178 0.37946 0.0
H827 H 0.81848 0.94572 0.45389 0.0
H828 H 0.77724 0.91421 0.39845 0.0
H829 H 0.76378 0.77063 0.22357 0.0
H830 H 0.77053 0.83381 0.22675 0.0
H831 H 0.72438 0.80962 0.3406 0.0
H832 H 0.71946 0.74686 0.33785 0.0
H833 H 0.78629 0.87141 0.3422 0.0
H834 H 0.6783 0.82791 0.26062 0.0
H835 H 0.63779 0.79501 0.20523 0.0
H836 H 0.72681 0.87073 0.12964 0.0
H837 H 0.76794 0.90403 0.18457 0.0
C838 C 0.82484 0.04885 0.32527 0.0
C839 C 0.84773 0.06953 0.29425 0.0
C840 C 0.80606 0.00901 0.32536 0.0
C841 C 0.81017 0.98933 0.29457 0.0
C842 C 0.8332 0.01014 0.26375 0.0
C843 C 0.85179 0.04978 0.2636 0.0
C844 C 0.79116 0.94712 0.29425 0.0
C845 C 0.76797 0.92741 0.26305 0.0
C846 C 0.79681 0.92638 0.32363 0.0
C847 C 0.82165 0.94529 0.3569 0.0
C848 C 0.86022 0.97274 0.3519 0.0
C849 C 0.88334 0.99053 0.38347 0.0
C850 C 0.86827 0.98086 0.42019 0.0
C851 C 0.83009 0.95327 0.42543 0.0
C852 C 0.80684 0.93543 0.39395 0.0
C853 C 0.75357 0.77832 0.24858 0.0
C854 C 0.74033 0.75389 0.28014 0.0
C855 C 0.7574 0.81447 0.25047 0.0
C856 C 0.74755 0.82656 0.28384 0.0
C857 C 0.73196 0.80095 0.31452 0.0
C858 C 0.72871 0.76499 0.31282 0.0
C859 C 0.75838 0.86723 0.28847 0.0
C860 C 0.7802 0.88679 0.32046 0.0
C861 C 0.75122 0.88773 0.25992 0.0
C862 C 0.72625 0.8684 0.22676 0.0
C863 C 0.68926 0.83753 0.23219 0.0
C864 C 0.66616 0.81886 0.20087 0.0
C865 C 0.67972 0.83076 0.16395 0.0
C866 C 0.71632 0.86156 0.15826 0.0
C867 C 0.73949 0.88046 0.18949 0.0
H868 H 0.66189 0.81608 0.13974 0.0
H869 H 0.88622 0.99466 0.4446 0.0
H870 H 0.08315 0.20149 0.77678 0.0
H871 H 0.10923 0.15835 0.7769 0.0
H872 H 0.22267 0.25406 0.7899 0.0
H873 H 0.19685 0.29695 0.79109 0.0
H874 H 0.15498 0.14855 0.73306 0.0
H875 H 0.27806 0.23131 0.84177 0.0
H876 H 0.29093 0.27147 0.89853 0.0
H877 H 0.17085 0.22012 0.91961 0.0
H878 H 0.15729 0.1793 0.86336 0.0
H879 H 0.26396 0.05657 0.72696 0.0
H880 H 0.24795 0.1075 0.72514 0.0
H881 H 0.21919 0.08885 0.84463 0.0
H882 H 0.23889 0.04123 0.8471 0.0
H883 H 0.24428 0.15636 0.83453 0.0
H884 H 0.15051 0.04812 0.76398 0.0
H885 H 0.12872 0.99941 0.71376 0.0
H886 H 0.17344 0.08684 0.628 0.0
H887 H 0.19575 0.13605 0.67776 0.0
C888 C 0.11363 0.21328 0.77988 0.0
C889 C 0.13784 0.25263 0.78435 0.0
C890 C 0.12853 0.18861 0.77975 0.0
C891 C 0.16792 0.20284 0.7839 0.0
C892 C 0.19213 0.24222 0.78751 0.0
C893 C 0.17726 0.26677 0.78812 0.0
C894 C 0.18384 0.17668 0.78472 0.0
C895 C 0.17444 0.1502 0.7553 0.0
C896 C 0.20873 0.17823 0.81404 0.0
C897 C 0.21669 0.20258 0.84807 0.0
C898 C 0.25442 0.22853 0.85858 0.0
C899 C 0.26183 0.25141 0.89066 0.0
C900 C 0.23172 0.24845 0.91257 0.0
C901 C 0.19414 0.22251 0.90253 0.0
C902 C 0.18658 0.19953 0.87052 0.0
C903 C 0.25549 0.06445 0.75297 0.0
C904 C 0.25294 0.04522 0.78715 0.0
C905 C 0.24559 0.09302 0.75185 0.0
C906 C 0.23111 0.10145 0.78451 0.0
C907 C 0.23017 0.08316 0.81895 0.0
C908 C 0.24143 0.05576 0.82035 0.0
C909 C 0.21527 0.1278 0.78299 0.0
C910 C 0.22485 0.1546 0.81221 0.0
C911 C 0.1891 0.12522 0.7545 0.0
C912 C 0.17505 0.09571 0.72456 0.0
C913 C 0.15576 0.05691 0.7344 0.0
C914 C 0.14333 0.02923 0.70604 0.0
C915 C 0.14978 0.04003 0.66772 0.0
C916 C 0.1685 0.07852 0.65768 0.0
C917 C 0.18099 0.10631 0.68594 0.0
H918 H 0.14021 0.01856 0.6458 0.0
H919 H 0.23752 0.2662 0.93738 0.0
H920 H 0.11588 0.90336 0.75372 0.0
H921 H 0.04677 0.87688 0.75137 0.0
H922 H 0.03117 0.78087 0.81896 0.0
H923 H 0.09993 0.80637 0.82006 0.0
H924 H 0.98134 0.75612 0.7655 0.0
H925 H 0.02125 0.85662 0.85606 0.0
H926 H 0.05901 0.92209 0.88014 0.0
H927 H 0.01485 0.96236 0.79099 0.0
H928 H 0.97718 0.89718 0.76607 0.0
H929 H 0.78385 0.69963 0.80883 0.0
H930 H 0.85188 0.71863 0.81312 0.0
H931 H 0.87864 0.8082 0.73129 0.0
H932 H 0.81155 0.78962 0.7271 0.0
H933 H 0.9216 0.83375 0.79674 0.0
H934 H 0.88633 0.73352 0.70401 0.0
H935 H 0.84819 0.6677 0.68069 0.0
H936 H 0.88338 0.6269 0.77708 0.0
H937 H 0.92125 0.69245 0.80119 0.0
C938 C 0.0977 0.8767 0.7682 0.0
C939 C 0.11338 0.85701 0.7871 0.0
C940 C 0.05817 0.86163 0.767 0.0
C941 C 0.03362 0.82706 0.78548 0.0
C942 C 0.04937 0.8075 0.80444 0.0
C943 C 0.08877 0.82222 0.80512 0.0
C944 C 0.99154 0.8109 0.78457 0.0
C945 C 0.96832 0.773 0.77296 0.0
C946 C 0.97432 0.83285 0.79386 0.0
C947 C 0.99664 0.87205 0.80901 0.0
C948 C 0.01977 0.87947 0.84145 0.0
C949 C 0.04113 0.91653 0.85527 0.0
C950 C 0.0394 0.94638 0.83706 0.0
C951 C 0.01619 0.93921 0.80505 0.0
C952 C 0.99479 0.90221 0.79109 0.0
C953 C 0.80427 0.7227 0.79112 0.0
C954 C 0.79237 0.74262 0.76701 0.0
C955 C 0.84304 0.73361 0.79364 0.0
C956 C 0.8703 0.76484 0.77245 0.0
C957 C 0.85816 0.78405 0.74787 0.0
C958 C 0.81968 0.77306 0.74517 0.0
C959 C 0.91175 0.77937 0.7772 0.0
C960 C 0.93477 0.81692 0.78964 0.0
C961 C 0.92871 0.75705 0.76903 0.0
C962 C 0.90609 0.71772 0.75463 0.0
C963 C 0.88554 0.71041 0.7204 0.0
C964 C 0.86408 0.6732 0.70701 0.0
C965 C 0.86323 0.64311 0.72748 0.0
C966 C 0.88397 0.65021 0.76132 0.0
C967 C 0.90544 0.68738 0.77484 0.0
H968 H 0.8466 0.61432 0.71707 0.0
H969 H 0.05599 0.97505 0.84778 0.0
H970 H 0.96856 0.19528 0.70629 0.0
H971 H 0.92358 0.12717 0.70505 0.0
H972 H 0.88076 0.13458 0.81512 0.0
H973 H 0.92724 0.20266 0.8172 0.0
H974 H 0.8965 0.0806 0.81681 0.0
H975 H 0.82768 0.11475 0.72803 0.0
H976 H 0.81961 0.14565 0.67079 0.0
H977 H 0.85168 0.08038 0.59988 0.0
H978 H 0.86044 0.04942 0.65673 0.0
H979 H 0.73223 0.89955 0.82449 0.0
H980 H 0.77684 0.9674 0.81804 0.0
H981 H 0.83039 0.9457 0.72312 0.0
H982 H 0.78555 0.877 0.72961 0.0
H983 H 0.81142 0.00531 0.71082 0.0
H984 H 0.87782 0.96987 0.8007 0.0
H985 H 0.88438 0.93872 0.85848 0.0
H986 H 0.85469 0.00681 0.92794 0.0
H987 H 0.8474 0.038 0.87051 0.0
C988 C 0.94887 0.18257 0.72979 0.0
C989 C 0.95137 0.20419 0.76189 0.0
C990 C 0.92305 0.14354 0.72902 0.0
C991 C 0.89856 0.12555 0.75994 0.0
C992 C 0.89947 0.14771 0.79099 0.0
C993 C 0.92576 0.18666 0.79204 0.0
C994 C 0.87458 0.08336 0.76149 0.0
C995 C 0.87746 0.06431 0.79381 0.0
C996 C 0.85074 0.06176 0.73094 0.0
C997 C 0.84503 0.08 0.69669 0.0
C998 C 0.83324 0.10715 0.70025 0.0
C999 C 0.82852 0.12465 0.66788 0.0
C1000 C 0.83522 0.11504 0.63175 0.0
C1001 C 0.84654 0.08781 0.6279 0.0
C1002 C 0.85134 0.07024 0.66018 0.0
C1003 C 0.75363 0.90907 0.80236 0.0
C1004 C 0.75541 0.88295 0.77753 0.0
C1005 C 0.77914 0.94789 0.79876 0.0
C1006 C 0.8069 0.96154 0.77015 0.0
C1007 C 0.80909 0.93563 0.74538 0.0
C1008 C 0.78373 0.89648 0.74929 0.0
C1009 C 0.83301 0.00306 0.76631 0.0
C1010 C 0.83058 0.02184 0.73363 0.0
C1011 C 0.85709 0.02454 0.79659 0.0
C1012 C 0.86177 0.00606 0.83125 0.0
C1013 C 0.8724 0.978 0.82827 0.0
C1014 C 0.8763 0.96037 0.86097 0.0
C1015 C 0.86987 0.97072 0.89685 0.0
C1016 C 0.85963 0.9988 0.90012 0.0
C1017 C 0.85566 0.0165 0.8675 0.0
H1018 H 0.8729 0.95702 0.92214 0.0
H1019 H 0.83155 0.1286 0.60674 0.0
loop_
_geom_bond_atom_site_label_1
_geom_bond_atom_site_label_2
_geom_bond_distance
_geom_bond_site_symmetry_2
_ccdc_geom_bond_type
Dy0 O4 2.398 . S
Dy0 O5 2.491 . S
Dy0 O6 2.403 . S
Dy0 O7 2.664 . S
Dy0 O11 2.326 . S
Dy0 O15 2.310 . S
Dy0 O16 2.351 . S
C1 O12 1.185 . S
C1 O13 1.355 . S
C2 O4 1.185 . S
C2 O5 1.355 . S
Dy3 O7 2.310 . S
Dy3 O10 2.351 . S
Dy3 O12 2.398 . S
Dy3 O13 2.491 . S
Dy3 O14 2.403 . S
Dy3 O15 2.664 . S
Dy3 O17 2.326 . S
O4 Dy0 2.398 . S
O4 C2 1.185 . S
O5 Dy0 2.491 . S
O5 C2 1.355 . S
O6 Dy0 2.403 . S
O6 C8 1.254 . S
O7 Dy0 2.664 . S
O7 Dy3 2.310 . S
O7 C8 1.268 . S
C8 O6 1.254 . S
C8 O7 1.268 . S
C9 O14 1.254 . S
C9 O15 1.268 . S
O10 Dy3 2.351 . S
O10 C18 1.249 . S
O11 Dy0 2.326 . S
O11 C18 1.267 . S
O12 C1 1.185 . S
O12 Dy3 2.398 . S
O13 C1 1.355 . S
O13 Dy3 2.491 . S
O14 Dy3 2.403 . S
O14 C9 1.254 . S
O15 Dy0 2.310 . S
O15 Dy3 2.664 . S
O15 C9 1.268 . S
O16 Dy0 2.351 . S
O16 C19 1.249 . S
O17 Dy3 2.326 . S
O17 C19 1.267 . S
C18 O10 1.249 . S
C18 O11 1.267 . S
C19 O16 1.249 . S
C19 O17 1.267 . S
Dy20 O24 2.398 . S
Dy20 O25 2.491 . S
Dy20 O26 2.403 . S
Dy20 O27 2.664 . S
Dy20 O31 2.326 . S
Dy20 O35 2.310 . S
Dy20 O36 2.351 . S
C21 O32 1.185 . S
C21 O33 1.355 . S
C22 O24 1.185 . S
C22 O25 1.355 . S
Dy23 O27 2.310 . S
Dy23 O30 2.351 . S
Dy23 O32 2.398 . S
Dy23 O33 2.491 . S
Dy23 O34 2.403 . S
Dy23 O35 2.664 . S
Dy23 O37 2.326 . S
O24 Dy20 2.398 . S
O24 C22 1.185 . S
O25 Dy20 2.491 . S
O25 C22 1.355 . S
O26 Dy20 2.403 . S
O26 C28 1.254 . S
O27 Dy20 2.664 . S
O27 Dy23 2.310 . S
O27 C28 1.268 . S
C28 O26 1.254 . S
C28 O27 1.268 . S
C29 O34 1.254 . S
C29 O35 1.268 . S
O30 Dy23 2.351 . S
O30 C38 1.249 . S
O31 Dy20 2.326 . S
O31 C38 1.267 . S
O32 C21 1.185 . S
O32 Dy23 2.398 . S
O33 C21 1.355 . S
O33 Dy23 2.491 . S
O34 Dy23 2.403 . S
O34 C29 1.254 . S
O35 Dy20 2.310 . S
O35 Dy23 2.664 . S
O35 C29 1.268 . S
O36 Dy20 2.351 . S
O36 C39 1.249 . S
O37 Dy23 2.326 . S
O37 C39 1.267 . S
C38 O30 1.249 . S
C38 O31 1.267 . S
C39 O36 1.249 . S
C39 O37 1.267 . S
Dy40 O44 2.398 . S
Dy40 O45 2.491 . S
Dy40 O46 2.403 . S
Dy40 O47 2.664 . S
Dy40 O51 2.326 . S
Dy40 O55 2.310 . S
Dy40 O56 2.351 . S
C41 O52 1.185 . S
C41 O53 1.355 . S
C42 O44 1.185 . S
C42 O45 1.355 . S
Dy43 O47 2.310 . S
Dy43 O50 2.351 . S
Dy43 O52 2.398 . S
Dy43 O53 2.491 . S
Dy43 O54 2.403 . S
Dy43 O55 2.664 . S
Dy43 O57 2.326 . S
O44 Dy40 2.398 . S
O44 C42 1.185 . S
O45 Dy40 2.491 . S
O45 C42 1.355 . S
O46 Dy40 2.403 . S
O46 C48 1.254 . S
O47 Dy40 2.664 . S
O47 Dy43 2.310 . S
O47 C48 1.268 . S
C48 O46 1.254 . S
C48 O47 1.268 . S
C49 O54 1.254 . S
C49 O55 1.268 . S
O50 Dy43 2.351 . S
O50 C58 1.249 . S
O51 Dy40 2.326 . S
O51 C58 1.267 . S
O52 C41 1.185 . S
O52 Dy43 2.398 . S
O53 C41 1.355 . S
O53 Dy43 2.491 . S
O54 Dy43 2.403 . S
O54 C49 1.254 . S
O55 Dy40 2.310 . S
O55 Dy43 2.664 . S
O55 C49 1.268 . S
O56 Dy40 2.351 . S
O56 C59 1.249 . S
O57 Dy43 2.326 . S
O57 C59 1.267 . S
C58 O50 1.249 . S
C58 O51 1.267 . S
C59 O56 1.249 . S
C59 O57 1.267 . S
Dy60 O64 2.398 1_455 S
Dy60 O65 2.491 . S
Dy60 O66 2.403 . S
Dy60 O67 2.664 . S
Dy60 O71 2.326 . S
Dy60 O75 2.310 . S
Dy60 O76 2.351 . S
C61 O72 1.185 . S
C61 O73 1.355 . S
C62 O64 1.185 . S
C62 O65 1.355 1_655 S
Dy63 O67 2.310 . S
Dy63 O70 2.351 . S
Dy63 O72 2.398 . S
Dy63 O73 2.491 . S
Dy63 O74 2.403 . S
Dy63 O75 2.664 . S
Dy63 O77 2.326 . S
O64 Dy60 2.398 1_655 S
O64 C62 1.185 . S
O65 Dy60 2.491 . S
O65 C62 1.355 1_455 S
O66 Dy60 2.403 . S
O66 C68 1.254 . S
O67 Dy60 2.664 . S
O67 Dy63 2.310 . S
O67 C68 1.268 . S
C68 O66 1.254 . S
C68 O67 1.268 . S
C69 O74 1.254 . S
C69 O75 1.268 . S
O70 Dy63 2.351 . S
O70 C78 1.249 . S
O71 Dy60 2.326 . S
O71 C78 1.267 . S
O72 C61 1.185 . S
O72 Dy63 2.398 . S
O73 C61 1.355 . S
O73 Dy63 2.491 . S
O74 Dy63 2.403 . S
O74 C69 1.254 . S
O75 Dy60 2.310 . S
O75 Dy63 2.664 . S
O75 C69 1.268 . S
O76 Dy60 2.351 . S
O76 C79 1.249 . S
O77 Dy63 2.326 . S
O77 C79 1.267 . S
C78 O70 1.249 . S
C78 O71 1.267 . S
C79 O76 1.249 . S
C79 O77 1.267 . S
Dy80 O84 2.398 1_565 S
Dy80 O85 2.491 . S
Dy80 O86 2.403 . S
Dy80 O87 2.664 . S
Dy80 O91 2.326 . S
Dy80 O95 2.310 . S
Dy80 O96 2.351 . S
C81 O92 1.185 . S
C81 O93 1.355 . S
C82 O84 1.185 . S
C82 O85 1.355 1_545 S
Dy83 O87 2.310 . S
Dy83 O90 2.351 . S
Dy83 O92 2.398 . S
Dy83 O93 2.491 . S
Dy83 O94 2.403 . S
Dy83 O95 2.664 . S
Dy83 O97 2.326 . S
O84 Dy80 2.398 1_545 S
O84 C82 1.185 . S
O85 Dy80 2.491 . S
O85 C82 1.355 1_565 S
O86 Dy80 2.403 . S
O86 C88 1.254 . S
O87 Dy80 2.664 . S
O87 Dy83 2.310 . S
O87 C88 1.268 . S
C88 O86 1.254 . S
C88 O87 1.268 . S
C89 O94 1.254 . S
C89 O95 1.268 . S
O90 Dy83 2.351 . S
O90 C98 1.249 . S
O91 Dy80 2.326 . S
O91 C98 1.267 . S
O92 C81 1.185 . S
O92 Dy83 2.398 . S
O93 C81 1.355 . S
O93 Dy83 2.491 . S
O94 Dy83 2.403 . S
O94 C89 1.254 . S
O95 Dy80 2.310 . S
O95 Dy83 2.664 . S
O95 C89 1.268 . S
O96 Dy80 2.351 . S
O96 C99 1.249 . S
O97 Dy83 2.326 . S
O97 C99 1.267 . S
C98 O90 1.249 . S
C98 O91 1.267 . S
C99 O96 1.249 . S
C99 O97 1.267 . S
Dy100 O104 2.398 . S
Dy100 O105 2.491 . S
Dy100 O106 2.403 . S
Dy100 O107 2.664 . S
Dy100 O111 2.326 . S
Dy100 O115 2.310 . S
Dy100 O116 2.351 . S
C101 O112 1.185 . S
C101 O113 1.355 . S
C102 O104 1.185 . S
C102 O105 1.355 . S
Dy103 O107 2.310 . S
Dy103 O110 2.351 . S
Dy103 O112 2.398 . S
Dy103 O113 2.491 . S
Dy103 O114 2.403 . S
Dy103 O115 2.664 . S
Dy103 O117 2.326 . S
O104 Dy100 2.398 . S
O104 C102 1.185 . S
O105 Dy100 2.491 . S
O105 C102 1.355 . S
O106 Dy100 2.403 . S
O106 C108 1.254 . S
O107 Dy100 2.664 . S
O107 Dy103 2.310 . S
O107 C108 1.268 . S
C108 O106 1.254 . S
C108 O107 1.268 . S
C109 O114 1.254 . S
C109 O115 1.268 . S
O110 Dy103 2.351 . S
O110 C118 1.249 . S
O111 Dy100 2.326 . S
O111 C118 1.267 . S
O112 C101 1.185 . S
O112 Dy103 2.398 . S
O113 C101 1.355 . S
O113 Dy103 2.491 . S
O114 Dy103 2.403 . S
O114 C109 1.254 . S
O115 Dy100 2.310 . S
O115 Dy103 2.664 . S
O115 C109 1.268 . S
O116 Dy100 2.351 . S
O116 C119 1.249 . S
O117 Dy103 2.326 . S
O117 C119 1.267 . S
C118 O110 1.249 . S
C118 O111 1.267 . S
C119 O116 1.249 . S
C119 O117 1.267 . S
H120 C138 0.951 . S
H121 C140 0.951 1_545 S
H122 C142 0.950 . S
H123 C143 0.950 . S
H124 C145 0.950 . S
H125 C148 0.950 . S
H126 C149 0.950 . S
H127 C151 0.950 . S
H128 C152 0.950 . S
H129 C153 0.951 . S
H130 C155 0.951 1_565 S
H131 C157 0.950 . S
H132 C158 0.950 . S
H133 C160 0.950 . S
H134 C163 0.950 . S
H135 C164 0.950 . S
H136 C166 0.950 . S
H137 C167 0.950 . S
C138 H120 0.951 . S
C138 C139 1.366 . S
C138 C140 1.388 . S
C139 C138 1.366 . S
C139 C143 1.385 . S
C140 H121 0.951 1_565 S
C140 C138 1.388 . S
C140 C141 1.366 . S
C141 C140 1.366 . S
C141 C142 1.414 . S
C141 C144 1.499 . S
C142 H122 0.950 . S
C142 C141 1.414 . S
C142 C143 1.374 . S
C143 H123 0.950 . S
C143 C139 1.385 . S
C143 C142 1.374 . S
C144 C141 1.499 . S
C144 C145 1.373 . S
C144 C146 1.389 1_565 S
C145 H124 0.950 . S
C145 C144 1.373 . S
C145 C161 1.377 1_556 S
C146 C144 1.389 1_545 S
C146 C147 1.524 . S
C146 C160 1.377 1_556 S
C147 C146 1.524 . S
C147 C148 1.397 1_545 S
C147 C152 1.363 . S
C148 H125 0.950 . S
C148 C147 1.397 1_565 S
C148 C149 1.334 . S
C149 H126 0.950 . S
C149 C148 1.334 . S
C149 C150 1.287 1_565 S
C150 C149 1.287 1_545 S
C150 C151 1.524 . S
C150 H169 0.913 . S
C151 H127 0.950 . S
C151 C150 1.524 . S
C151 C152 1.415 . S
C152 H128 0.950 . S
C152 C147 1.363 . S
C152 C151 1.415 . S
C153 H129 0.951 . S
C153 C154 1.366 . S
C153 C155 1.388 . S
C154 C153 1.366 . S
C154 C158 1.385 . S
C155 H130 0.951 1_545 S
C155 C153 1.388 . S
C155 C156 1.366 . S
C156 C155 1.366 . S
C156 C157 1.414 . S
C156 C159 1.499 . S
C157 H131 0.950 . S
C157 C156 1.414 . S
C157 C158 1.374 . S
C158 H132 0.950 . S
C158 C154 1.385 . S
C158 C157 1.374 . S
C159 C156 1.499 . S
C159 C160 1.373 . S
C159 C161 1.389 1_545 S
C160 H133 0.950 . S
C160 C146 1.377 1_554 S
C160 C159 1.373 . S
C161 C145 1.377 1_554 S
C161 C159 1.389 1_565 S
C161 C162 1.524 . S
C162 C161 1.524 . S
C162 C163 1.397 1_565 S
C162 C167 1.363 . S
C163 H134 0.950 . S
C163 C162 1.397 1_545 S
C163 C164 1.334 . S
C164 H135 0.950 . S
C164 C163 1.334 . S
C164 C165 1.287 1_545 S
C165 C164 1.287 1_565 S
C165 C166 1.524 . S
C165 H168 0.999 . S
C166 H136 0.950 . S
C166 C165 1.524 . S
C166 C167 1.415 . S
C167 H137 0.950 . S
C167 C162 1.363 . S
C167 C166 1.415 . S
H168 C165 0.999 . S
H169 C150 0.913 . S
H170 C188 0.951 . S
H171 C190 0.951 . S
H172 C192 0.950 . S
H173 C193 0.950 . S
H174 C195 0.950 . S
H175 C198 0.950 . S
H176 C199 0.950 . S
H177 C201 0.950 . S
H178 C202 0.950 . S
H179 C203 0.951 . S
H180 C205 0.951 . S
H181 C207 0.950 . S
H182 C208 0.950 . S
H183 C210 0.950 . S
H184 C213 0.950 . S
H185 C214 0.950 . S
H186 C216 0.950 . S
H187 C217 0.950 . S
C188 H170 0.951 . S
C188 C189 1.366 . S
C188 C190 1.388 . S
C189 C188 1.366 . S
C189 C193 1.385 . S
C190 H171 0.951 . S
C190 C188 1.388 . S
C190 C191 1.366 . S
C191 C190 1.366 . S
C191 C192 1.414 . S
C191 C194 1.499 . S
C192 H172 0.950 . S
C192 C191 1.414 . S
C192 C193 1.374 . S
C193 H173 0.950 . S
C193 C189 1.385 . S
C193 C192 1.374 . S
C194 C191 1.499 . S
C194 C195 1.373 . S
C194 C196 1.389 . S
C195 H174 0.950 . S
C195 C194 1.373 . S
C195 C211 1.377 . S
C196 C194 1.389 . S
C196 C197 1.524 . S
C196 C210 1.377 . S
C197 C196 1.524 . S
C197 C198 1.397 . S
C197 C202 1.363 . S
C198 H175 0.950 . S
C198 C197 1.397 . S
C198 C199 1.334 . S
C199 H176 0.950 . S
C199 C198 1.334 . S
C199 C200 1.287 . S
C200 C199 1.287 . S
C200 C201 1.524 . S
C200 H219 0.913 . S
C201 H177 0.950 . S
C201 C200 1.524 . S
C201 C202 1.415 . S
C202 H178 0.950 . S
C202 C197 1.363 . S
C202 C201 1.415 . S
C203 H179 0.951 . S
C203 C204 1.366 . S
C203 C205 1.388 . S
C204 C203 1.366 . S
C204 C208 1.385 . S
C205 H180 0.951 . S
C205 C203 1.388 . S
C205 C206 1.366 . S
C206 C205 1.366 . S
C206 C207 1.414 . S
C206 C209 1.499 . S
C207 H181 0.950 . S
C207 C206 1.414 . S
C207 C208 1.374 . S
C208 H182 0.950 . S
C208 C204 1.385 . S
C208 C207 1.374 . S
C209 C206 1.499 . S
C209 C210 1.373 . S
C209 C211 1.389 . S
C210 H183 0.950 . S
C210 C196 1.377 . S
C210 C209 1.373 . S
C211 C195 1.377 . S
C211 C209 1.389 . S
C211 C212 1.524 . S
C212 C211 1.524 . S
C212 C213 1.397 . S
C212 C217 1.363 . S
C213 H184 0.950 . S
C213 C212 1.397 . S
C213 C214 1.334 . S
C214 H185 0.950 . S
C214 C213 1.334 . S
C214 C215 1.287 . S
C215 C214 1.287 . S
C215 C216 1.524 . S
C215 H218 0.999 . S
C216 H186 0.950 . S
C216 C215 1.524 . S
C216 C217 1.415 . S
C217 H187 0.950 . S
C217 C212 1.363 . S
C217 C216 1.415 . S
H218 C215 0.999 . S
H219 C200 0.913 . S
H220 C238 0.951 . S
H221 C240 0.951 . S
H222 C242 0.950 . S
H223 C243 0.950 . S
H224 C245 0.950 . S
H225 C248 0.950 . S
H226 C249 0.950 . S
H227 C251 0.950 . S
H228 C252 0.950 . S
H229 C253 0.951 . S
H230 C255 0.951 . S
H231 C257 0.950 . S
H232 C258 0.950 . S
H233 C260 0.950 . S
H234 C263 0.950 . S
H235 C264 0.950 . S
H236 C266 0.950 . S
H237 C267 0.950 . S
C238 H220 0.951 . S
C238 C239 1.366 . S
C238 C240 1.388 . S
C239 C238 1.366 . S
C239 C243 1.385 . S
C240 H221 0.951 . S
C240 C238 1.388 . S
C240 C241 1.366 . S
C241 C240 1.366 . S
C241 C242 1.414 . S
C241 C244 1.499 . S
C242 H222 0.950 . S
C242 C241 1.414 . S
C242 C243 1.374 . S
C243 H223 0.950 . S
C243 C239 1.385 . S
C243 C242 1.374 . S
C244 C241 1.499 . S
C244 C245 1.373 . S
C244 C246 1.389 1_655 S
C245 H224 0.950 . S
C245 C244 1.373 . S
C245 C261 1.377 1_554 S
C246 C244 1.389 1_455 S
C246 C247 1.524 . S
C246 C260 1.377 1_554 S
C247 C246 1.524 . S
C247 C248 1.397 . S
C247 C252 1.363 . S
C248 H225 0.950 . S
C248 C247 1.397 . S
C248 C249 1.334 . S
C249 H226 0.950 . S
C249 C248 1.334 . S
C249 C250 1.287 . S
C250 C249 1.287 . S
C250 C251 1.524 . S
C250 H269 0.913 . S
C251 H227 0.950 . S
C251 C250 1.524 . S
C251 C252 1.415 . S
C252 H228 0.950 . S
C252 C247 1.363 . S
C252 C251 1.415 . S
C253 H229 0.951 . S
C253 C254 1.366 . S
C253 C255 1.388 . S
C254 C253 1.366 . S
C254 C258 1.385 . S
C255 H230 0.951 . S
C255 C253 1.388 . S
C255 C256 1.366 . S
C256 C255 1.366 . S
C256 C257 1.414 . S
C256 C259 1.499 . S
C257 H231 0.950 . S
C257 C256 1.414 . S
C257 C258 1.374 . S
C258 H232 0.950 . S
C258 C254 1.385 . S
C258 C257 1.374 . S
C259 C256 1.499 . S
C259 C260 1.373 . S
C259 C261 1.389 1_455 S
C260 H233 0.950 . S
C260 C246 1.377 1_556 S
C260 C259 1.373 . S
C261 C245 1.377 1_556 S
C261 C259 1.389 1_655 S
C261 C262 1.524 . S
C262 C261 1.524 . S
C262 C263 1.397 . S
C262 C267 1.363 . S
C263 H234 0.950 . S
C263 C262 1.397 . S
C263 C264 1.334 . S
C264 H235 0.950 . S
C264 C263 1.334 . S
C264 C265 1.287 . S
C265 C264 1.287 . S
C265 C266 1.524 . S
C265 H268 0.999 . S
C266 H236 0.950 . S
C266 C265 1.524 . S
C266 C267 1.415 . S
C267 H237 0.950 . S
C267 C262 1.363 . S
C267 C266 1.415 . S
H268 C265 0.999 . S
H269 C250 0.913 . S
H270 C288 0.951 . S
H271 C290 0.951 . S
H272 C292 0.950 . S
H273 C293 0.950 . S
H274 C295 0.950 . S
H275 C298 0.950 . S
H276 C299 0.950 . S
H277 C301 0.950 . S
H278 C302 0.950 . S
H279 C303 0.951 . S
H280 C305 0.951 . S
H281 C307 0.950 . S
H282 C308 0.950 . S
H283 C310 0.950 . S
H284 C313 0.950 . S
H285 C314 0.950 . S
H286 C316 0.950 . S
H287 C317 0.950 . S
C288 H270 0.951 . S
C288 C289 1.366 . S
C288 C290 1.388 . S
C289 C288 1.366 . S
C289 C293 1.385 . S
C290 H271 0.951 . S
C290 C288 1.388 . S
C290 C291 1.366 . S
C291 C290 1.366 . S
C291 C292 1.414 . S
C291 C294 1.499 . S
C292 H272 0.950 . S
C292 C291 1.414 . S
C292 C293 1.374 . S
C293 H273 0.950 . S
C293 C289 1.385 . S
C293 C292 1.374 . S
C294 C291 1.499 . S
C294 C295 1.373 . S
C294 C296 1.389 1_545 S
C295 H274 0.950 . S
C295 C294 1.373 . S
C295 C311 1.377 . S
C296 C294 1.389 1_565 S
C296 C297 1.524 . S
C296 C310 1.377 . S
C297 C296 1.524 . S
C297 C298 1.397 . S
C297 C302 1.363 . S
C298 H275 0.950 . S
C298 C297 1.397 . S
C298 C299 1.334 . S
C299 H276 0.950 . S
C299 C298 1.334 . S
C299 C300 1.287 . S
C300 C299 1.287 . S
C300 C301 1.524 . S
C300 H319 0.913 . S
C301 H277 0.950 . S
C301 C300 1.524 . S
C301 C302 1.415 . S
C302 H278 0.950 . S
C302 C297 1.363 . S
C302 C301 1.415 . S
C303 H279 0.951 . S
C303 C304 1.366 . S
C303 C305 1.388 . S
C304 C303 1.366 . S
C304 C308 1.385 . S
C305 H280 0.951 . S
C305 C303 1.388 . S
C305 C306 1.366 . S
C306 C305 1.366 . S
C306 C307 1.414 . S
C306 C309 1.499 . S
C307 H281 0.950 . S
C307 C306 1.414 . S
C307 C308 1.374 . S
C308 H282 0.950 . S
C308 C304 1.385 . S
C308 C307 1.374 . S
C309 C306 1.499 . S
C309 C310 1.373 . S
C309 C311 1.389 1_565 S
C310 H283 0.950 . S
C310 C296 1.377 . S
C310 C309 1.373 . S
C311 C295 1.377 . S
C311 C309 1.389 1_545 S
C311 C312 1.524 . S
C312 C311 1.524 . S
C312 C313 1.397 . S
C312 C317 1.363 . S
C313 H284 0.950 . S
C313 C312 1.397 . S
C313 C314 1.334 . S
C314 H285 0.950 . S
C314 C313 1.334 . S
C314 C315 1.287 . S
C315 C314 1.287 . S
C315 C316 1.524 . S
C315 H318 0.999 . S
C316 H286 0.950 . S
C316 C315 1.524 . S
C316 C317 1.415 . S
C317 H287 0.950 . S
C317 C312 1.363 . S
C317 C316 1.415 . S
H318 C315 0.999 . S
H319 C300 0.913 . S
H320 C338 0.951 . S
H321 C340 0.951 . S
H322 C342 0.950 . S
H323 C343 0.950 . S
H324 C345 0.950 . S
H325 C348 0.950 . S
H326 C349 0.950 . S
H327 C351 0.950 1_554 S
H328 C352 0.966 . S
H329 C353 0.951 . S
H330 C355 0.951 . S
H331 C357 0.950 . S
H332 C358 0.950 . S
H333 C360 0.950 . S
H334 C363 0.950 . S
H335 C364 0.950 . S
H336 C366 0.950 1_556 S
H337 C367 0.967 . S
C338 H320 0.951 . S
C338 C339 1.366 . S
C338 C340 1.388 . S
C339 C338 1.366 . S
C339 C343 1.385 . S
C340 H321 0.951 . S
C340 C338 1.388 . S
C340 C341 1.366 . S
C341 C340 1.366 . S
C341 C342 1.414 . S
C341 C344 1.499 . S
C342 H322 0.950 . S
C342 C341 1.414 . S
C342 C343 1.374 . S
C343 H323 0.950 . S
C343 C339 1.385 . S
C343 C342 1.374 . S
C344 C341 1.499 . S
C344 C345 1.373 . S
C344 C346 1.389 . S
C345 H324 0.950 . S
C345 C344 1.373 . S
C345 C361 1.377 1_556 S
C346 C344 1.389 . S
C346 C347 1.524 . S
C346 C360 1.377 1_556 S
C347 C346 1.524 . S
C347 C348 1.397 . S
C347 C352 1.352 1_556 S
C348 H325 0.950 . S
C348 C347 1.397 . S
C348 C349 1.334 . S
C349 H326 0.950 . S
C349 C348 1.334 . S
C349 C350 1.287 . S
C350 C349 1.287 . S
C350 C351 1.524 . S
C350 H369 0.913 . S
C351 H327 0.950 1_556 S
C351 C350 1.524 . S
C351 C352 1.410 1_556 S
C352 H328 0.966 . S
C352 C347 1.352 1_554 S
C352 C351 1.410 1_554 S
C353 H329 0.951 . S
C353 C354 1.366 . S
C353 C355 1.388 . S
C354 C353 1.366 . S
C354 C358 1.385 . S
C355 H330 0.951 . S
C355 C353 1.388 . S
C355 C356 1.366 . S
C356 C355 1.366 . S
C356 C357 1.414 . S
C356 C359 1.499 . S
C357 H331 0.950 . S
C357 C356 1.414 . S
C357 C358 1.374 . S
C358 H332 0.950 . S
C358 C354 1.385 . S
C358 C357 1.374 . S
C359 C356 1.499 . S
C359 C360 1.373 . S
C359 C361 1.389 . S
C360 H333 0.950 . S
C360 C346 1.377 1_554 S
C360 C359 1.373 . S
C361 C345 1.377 1_554 S
C361 C359 1.389 . S
C361 C362 1.524 . S
C362 C361 1.524 . S
C362 C363 1.397 . S
C362 C367 1.352 1_554 S
C363 H334 0.950 . S
C363 C362 1.397 . S
C363 C364 1.334 . S
C364 H335 0.950 . S
C364 C363 1.334 . S
C364 C365 1.287 . S
C365 C364 1.287 . S
C365 C366 1.524 . S
C365 H368 0.999 . S
C366 H336 0.950 1_554 S
C366 C365 1.524 . S
C366 C367 1.410 1_554 S
C367 H337 0.967 . S
C367 C362 1.352 1_556 S
C367 C366 1.410 1_556 S
H368 C365 0.999 . S
H369 C350 0.913 . S
H370 C388 0.951 . S
H371 C390 0.951 . S
H372 C392 0.950 . S
H373 C393 0.950 . S
H374 C395 0.950 . S
H375 C398 0.950 . S
H376 C399 0.950 . S
H377 C401 0.950 . S
H378 C402 0.950 . S
H379 C403 0.951 . S
H380 C405 0.951 . S
H381 C407 0.964 . S
H382 C408 0.950 . S
H383 C410 0.950 . S
H384 C413 0.950 . S
H385 C414 0.950 . S
H386 C416 0.950 . S
H387 C417 0.950 . S
C388 H370 0.951 . S
C388 C389 1.366 . S
C388 C390 1.388 . S
C389 C388 1.366 . S
C389 C393 1.385 . S
C390 H371 0.951 . S
C390 C388 1.388 . S
C390 C391 1.366 . S
C391 C390 1.366 . S
C391 C392 1.414 . S
C391 C394 1.499 . S
C392 H372 0.950 . S
C392 C391 1.414 . S
C392 C393 1.374 . S
C393 H373 0.950 . S
C393 C389 1.385 . S
C393 C392 1.374 . S
C394 C391 1.499 . S
C394 C395 1.373 1_655 S
C394 C396 1.389 . S
C395 H374 0.950 . S
C395 C394 1.373 1_455 S
C395 C411 1.377 . S
C396 C394 1.389 . S
C396 C397 1.524 . S
C396 C410 1.377 . S
C397 C396 1.524 . S
C397 C398 1.397 . S
C397 C402 1.363 . S
C398 H375 0.950 . S
C398 C397 1.397 . S
C398 C399 1.334 . S
C399 H376 0.950 . S
C399 C398 1.334 . S
C399 C400 1.287 . S
C400 C399 1.287 . S
C400 C401 1.524 . S
C400 H419 0.913 . S
C401 H377 0.950 . S
C401 C400 1.524 . S
C401 C402 1.415 . S
C402 H378 0.950 . S
C402 C397 1.363 . S
C402 C401 1.415 . S
C403 H379 0.951 . S
C403 C404 1.366 . S
C403 C405 1.388 . S
C404 C403 1.366 . S
C404 C408 1.385 . S
C405 H380 0.951 . S
C405 C403 1.388 . S
C405 C406 1.366 . S
C406 C405 1.366 . S
C406 C407 1.414 . S
C406 C409 1.499 . S
C407 H381 0.964 . S
C407 C406 1.414 . S
C407 C408 1.374 . S
C408 H382 0.950 . S
C408 C404 1.385 . S
C408 C407 1.374 . S
C409 C406 1.499 . S
C409 C410 1.373 1_455 S
C409 C411 1.389 . S
C410 H383 0.950 . S
C410 C396 1.377 . S
C410 C409 1.373 1_655 S
C411 C395 1.377 . S
C411 C409 1.389 . S
C411 C412 1.524 . S
C412 C411 1.524 . S
C412 C413 1.397 . S
C412 C417 1.363 . S
C413 H384 0.950 . S
C413 C412 1.397 . S
C413 C414 1.334 . S
C414 H385 0.950 . S
C414 C413 1.334 . S
C414 C415 1.287 . S
C415 C414 1.287 . S
C415 C416 1.524 . S
C415 H418 0.999 . S
C416 H386 0.950 . S
C416 C415 1.524 . S
C416 C417 1.415 . S
C417 H387 0.950 . S
C417 C412 1.363 . S
C417 C416 1.415 . S
H418 C415 0.999 . S
H419 C400 0.913 . S
H420 C438 0.951 . S
H421 C440 0.951 . S
H422 C442 0.950 . S
H423 C443 0.950 . S
H424 C445 0.950 . S
H425 C448 0.950 . S
H426 C449 0.950 . S
H427 C451 0.950 . S
H428 C452 0.950 . S
H429 C453 0.951 . S
H430 C455 0.951 . S
H431 C457 0.950 . S
H432 C458 0.950 . S
H433 C460 0.950 . S
H434 C463 0.950 . S
H435 C464 0.950 . S
H436 C466 0.950 . S
H437 C467 0.950 . S
C438 H420 0.951 . S
C438 C439 1.366 . S
C438 C440 1.388 . S
C439 C438 1.366 . S
C439 C443 1.385 . S
C440 H421 0.951 . S
C440 C438 1.388 . S
C440 C441 1.366 . S
C441 C440 1.366 . S
C441 C442 1.414 . S
C441 C444 1.499 . S
C442 H422 0.950 . S
C442 C441 1.414 . S
C442 C443 1.374 . S
C443 H423 0.950 . S
C443 C439 1.385 . S
C443 C442 1.374 . S
C444 C441 1.499 . S
C444 C445 1.373 . S
C444 C446 1.389 . S
C445 H424 0.950 . S
C445 C444 1.373 . S
C445 C461 1.377 . S
C446 C444 1.389 . S
C446 C447 1.524 . S
C446 C460 1.377 . S
C447 C446 1.524 . S
C447 C448 1.397 . S
C447 C452 1.363 . S
C448 H425 0.950 . S
C448 C447 1.397 . S
C448 C449 1.334 . S
C449 H426 0.950 . S
C449 C448 1.334 . S
C449 C450 1.287 . S
C450 C449 1.287 . S
C450 C451 1.524 . S
C450 H469 0.913 . S
C451 H427 0.950 . S
C451 C450 1.524 . S
C451 C452 1.415 . S
C452 H428 0.950 . S
C452 C447 1.363 . S
C452 C451 1.415 . S
C453 H429 0.951 . S
C453 C454 1.366 . S
C453 C455 1.388 . S
C454 C453 1.366 . S
C454 C458 1.385 . S
C455 H430 0.951 . S
C455 C453 1.388 . S
C455 C456 1.366 . S
C456 C455 1.366 . S
C456 C457 1.414 . S
C456 C459 1.499 . S
C457 H431 0.950 . S
C457 C456 1.414 . S
C457 C458 1.374 . S
C458 H432 0.950 . S
C458 C454 1.385 . S
C458 C457 1.374 . S
C459 C456 1.499 . S
C459 C460 1.373 . S
C459 C461 1.389 . S
C460 H433 0.950 . S
C460 C446 1.377 . S
C460 C459 1.373 . S
C461 C445 1.377 . S
C461 C459 1.389 . S
C461 C462 1.524 . S
C462 C461 1.524 . S
C462 C463 1.397 . S
C462 C467 1.363 . S
C463 H434 0.950 . S
C463 C462 1.397 . S
C463 C464 1.334 . S
C464 H435 0.950 . S
C464 C463 1.334 . S
C464 C465 1.287 . S
C465 C464 1.287 . S
C465 C466 1.524 . S
C465 H468 0.999 . S
C466 H436 0.950 . S
C466 C465 1.524 . S
C466 C467 1.415 . S
C467 H437 0.950 . S
C467 C462 1.363 . S
C467 C466 1.415 . S
H468 C465 0.999 . S
H469 C450 0.913 . S
H470 C488 0.951 . S
H471 C490 0.951 . S
H472 C492 0.950 . S
H473 C493 0.950 . S
H474 C495 0.950 . S
H475 C498 0.950 . S
H476 C499 0.950 . S
H477 C501 0.950 . S
H478 C502 0.950 . S
H479 C503 0.951 . S
H480 C505 0.951 . S
H481 C507 0.950 . S
H482 C508 0.950 . S
H483 C510 0.950 . S
H484 C513 0.950 . S
H485 C514 0.950 . S
H486 C516 0.950 . S
H487 C517 0.950 . S
C488 H470 0.951 . S
C488 C489 1.366 . S
C488 C490 1.388 . S
C489 C488 1.366 . S
C489 C493 1.385 . S
C490 H471 0.951 . S
C490 C488 1.388 . S
C490 C491 1.366 . S
C491 C490 1.366 . S
C491 C492 1.414 . S
C491 C494 1.499 . S
C492 H472 0.950 . S
C492 C491 1.414 . S
C492 C493 1.374 . S
C493 H473 0.950 . S
C493 C489 1.385 . S
C493 C492 1.374 . S
C494 C491 1.499 . S
C494 C495 1.373 . S
C494 C496 1.389 . S
C495 H474 0.950 . S
C495 C494 1.373 . S
C495 C511 1.377 . S
C496 C494 1.389 . S
C496 C497 1.524 . S
C496 C510 1.377 . S
C497 C496 1.524 . S
C497 C498 1.397 . S
C497 C502 1.363 . S
C498 H475 0.950 . S
C498 C497 1.397 . S
C498 C499 1.334 . S
C499 H476 0.950 . S
C499 C498 1.334 . S
C499 C500 1.287 . S
C500 C499 1.287 . S
C500 C501 1.524 . S
C500 H519 0.913 . S
C501 H477 0.950 . S
C501 C500 1.524 . S
C501 C502 1.415 . S
C502 H478 0.950 . S
C502 C497 1.363 . S
C502 C501 1.415 . S
C503 H479 0.951 . S
C503 C504 1.366 . S
C503 C505 1.388 . S
C504 C503 1.366 . S
C504 C508 1.385 . S
C505 H480 0.951 . S
C505 C503 1.388 . S
C505 C506 1.366 . S
C506 C505 1.366 . S
C506 C507 1.414 . S
C506 C509 1.499 . S
C507 H481 0.950 . S
C507 C506 1.414 . S
C507 C508 1.374 . S
C508 H482 0.950 . S
C508 C504 1.385 . S
C508 C507 1.374 . S
C509 C506 1.499 . S
C509 C510 1.373 . S
C509 C511 1.389 . S
C510 H483 0.950 . S
C510 C496 1.377 . S
C510 C509 1.373 . S
C511 C495 1.377 . S
C511 C509 1.389 . S
C511 C512 1.524 . S
C512 C511 1.524 . S
C512 C513 1.397 . S
C512 C517 1.363 . S
C513 H484 0.950 . S
C513 C512 1.397 . S
C513 C514 1.334 . S
C514 H485 0.950 . S
C514 C513 1.334 . S
C514 C515 1.287 . S
C515 C514 1.287 . S
C515 C516 1.524 . S
C515 H518 0.999 . S
C516 H486 0.950 . S
C516 C515 1.524 . S
C516 C517 1.415 . S
C517 H487 0.950 . S
C517 C512 1.363 . S
C517 C516 1.415 . S
H518 C515 0.999 . S
H519 C500 0.913 . S
H520 C538 0.951 . S
H521 C540 0.951 . S
H522 C542 0.950 . S
H523 C543 0.950 . S
H524 C545 0.950 . S
H525 C548 0.950 . S
H526 C549 0.950 . S
H527 C551 0.950 . S
H528 C552 0.950 . S
H529 C553 0.951 . S
H530 C555 0.951 . S
H531 C557 0.950 . S
H532 C558 0.950 . S
H533 C560 0.950 . S
H534 C563 0.950 . S
H535 C564 0.950 . S
H536 C566 0.950 . S
H537 C567 0.950 . S
C538 H520 0.951 . S
C538 C539 1.366 . S
C538 C540 1.388 . S
C539 C538 1.366 . S
C539 C543 1.385 . S
C540 H521 0.951 . S
C540 C538 1.388 . S
C540 C541 1.366 . S
C541 C540 1.366 . S
C541 C542 1.414 . S
C541 C544 1.499 . S
C542 H522 0.950 . S
C542 C541 1.414 . S
C542 C543 1.374 . S
C543 H523 0.950 . S
C543 C539 1.385 . S
C543 C542 1.374 . S
C544 C541 1.499 . S
C544 C545 1.373 . S
C544 C546 1.389 . S
C545 H524 0.950 . S
C545 C544 1.373 . S
C545 C561 1.377 . S
C546 C544 1.389 . S
C546 C547 1.524 . S
C546 C560 1.377 . S
C547 C546 1.524 . S
C547 C548 1.397 . S
C547 C552 1.363 . S
C548 H525 0.950 . S
C548 C547 1.397 . S
C548 C549 1.334 . S
C549 H526 0.950 . S
C549 C548 1.334 . S
C549 C550 1.287 . S
C550 C549 1.287 . S
C550 C551 1.524 . S
C550 H569 0.913 . S
C551 H527 0.950 . S
C551 C550 1.524 . S
C551 C552 1.415 . S
C552 H528 0.950 . S
C552 C547 1.363 . S
C552 C551 1.415 . S
C553 H529 0.951 . S
C553 C554 1.366 . S
C553 C555 1.388 . S
C554 C553 1.366 . S
C554 C558 1.385 . S
C555 H530 0.951 . S
C555 C553 1.388 . S
C555 C556 1.366 . S
C556 C555 1.366 . S
C556 C557 1.414 . S
C556 C559 1.499 . S
C557 H531 0.950 . S
C557 C556 1.414 . S
C557 C558 1.374 . S
C558 H532 0.950 . S
C558 C554 1.385 . S
C558 C557 1.374 . S
C559 C556 1.499 . S
C559 C560 1.373 . S
C559 C561 1.389 . S
C560 H533 0.950 . S
C560 C546 1.377 . S
C560 C559 1.373 . S
C561 C545 1.377 . S
C561 C559 1.389 . S
C561 C562 1.524 . S
C562 C561 1.524 . S
C562 C563 1.397 . S
C562 C567 1.363 . S
C563 H534 0.950 . S
C563 C562 1.397 . S
C563 C564 1.334 . S
C564 H535 0.950 . S
C564 C563 1.334 . S
C564 C565 1.287 . S
C565 C564 1.287 . S
C565 C566 1.524 . S
C565 H568 0.999 . S
C566 H536 0.950 . S
C566 C565 1.524 . S
C566 C567 1.415 . S
C567 H537 0.950 . S
C567 C562 1.363 . S
C567 C566 1.415 . S
H568 C565 0.999 . S
H569 C550 0.913 . S
H570 C588 0.951 . S
H571 C590 0.951 . S
H572 C592 0.950 . S
H573 C593 0.950 . S
H574 C595 0.950 . S
H575 C598 0.950 . S
H576 C599 0.950 . S
H577 C601 0.950 . S
H578 C602 0.950 . S
H579 C603 0.951 . S
H580 C605 0.951 . S
H581 C607 0.950 . S
H582 C608 0.950 . S
H583 C610 0.950 . S
H584 C613 0.950 . S
H585 C614 0.950 . S
H586 C616 0.950 . S
H587 C617 0.950 . S
C588 H570 0.951 . S
C588 C589 1.366 . S
C588 C590 1.388 . S
C589 C588 1.366 . S
C589 C593 1.385 . S
C590 H571 0.951 . S
C590 C588 1.388 . S
C590 C591 1.366 . S
C591 C590 1.366 . S
C591 C592 1.414 . S
C591 C594 1.499 . S
C592 H572 0.950 . S
C592 C591 1.414 . S
C592 C593 1.374 . S
C593 H573 0.950 . S
C593 C589 1.385 . S
C593 C592 1.374 . S
C594 C591 1.499 . S
C594 C595 1.373 . S
C594 C596 1.389 . S
C595 H574 0.950 . S
C595 C594 1.373 . S
C595 C611 1.377 . S
C596 C594 1.389 . S
C596 C597 1.524 . S
C596 C610 1.377 . S
C597 C596 1.524 . S
C597 C598 1.397 . S
C597 C602 1.363 . S
C598 H575 0.950 . S
C598 C597 1.397 . S
C598 C599 1.334 . S
C599 H576 0.950 . S
C599 C598 1.334 . S
C599 C600 1.287 . S
C600 C599 1.287 . S
C600 C601 1.524 . S
C600 H619 0.913 . S
C601 H577 0.950 . S
C601 C600 1.524 . S
C601 C602 1.415 . S
C602 H578 0.950 . S
C602 C597 1.363 . S
C602 C601 1.415 . S
C603 H579 0.951 . S
C603 C604 1.366 . S
C603 C605 1.388 . S
C604 C603 1.366 . S
C604 C608 1.385 . S
C605 H580 0.951 . S
C605 C603 1.388 . S
C605 C606 1.366 . S
C606 C605 1.366 . S
C606 C607 1.414 . S
C606 C609 1.499 . S
C607 H581 0.950 . S
C607 C606 1.414 . S
C607 C608 1.374 . S
C608 H582 0.950 . S
C608 C604 1.385 . S
C608 C607 1.374 . S
C609 C606 1.499 . S
C609 C610 1.373 . S
C609 C611 1.389 . S
C610 H583 0.950 . S
C610 C596 1.377 . S
C610 C609 1.373 . S
C611 C595 1.377 . S
C611 C609 1.389 . S
C611 C612 1.524 . S
C612 C611 1.524 . S
C612 C613 1.397 . S
C612 C617 1.363 . S
C613 H584 0.950 . S
C613 C612 1.397 . S
C613 C614 1.334 . S
C614 H585 0.950 . S
C614 C613 1.334 . S
C614 C615 1.287 . S
C615 C614 1.287 . S
C615 C616 1.524 . S
C615 H618 0.999 . S
C616 H586 0.950 . S
C616 C615 1.524 . S
C616 C617 1.415 . S
C617 H587 0.950 . S
C617 C612 1.363 . S
C617 C616 1.415 . S
H618 C615 0.999 . S
H619 C600 0.913 . S
H620 C638 0.951 . S
H621 C640 0.951 . S
H622 C642 0.950 . S
H623 C643 0.950 . S
H624 C645 0.950 . S
H625 C648 0.950 . S
H626 C649 0.950 . S
H627 C651 0.950 1_545 S
H628 C652 0.950 . S
H629 C653 0.951 . S
H630 C655 0.951 . S
H631 C657 0.950 . S
H632 C658 0.950 . S
H633 C660 0.950 . S
H634 C663 0.950 . S
H635 C664 0.950 . S
H636 C666 0.950 . S
H637 C667 0.950 . S
C638 H620 0.951 . S
C638 C639 1.366 . S
C638 C640 1.388 . S
C639 C638 1.366 . S
C639 C643 1.385 . S
C640 H621 0.951 . S
C640 C638 1.388 . S
C640 C641 1.366 . S
C641 C640 1.366 . S
C641 C642 1.414 . S
C641 C644 1.499 . S
C642 H622 0.950 . S
C642 C641 1.414 . S
C642 C643 1.374 . S
C643 H623 0.950 . S
C643 C639 1.385 . S
C643 C642 1.374 . S
C644 C641 1.499 . S
C644 C645 1.373 . S
C644 C646 1.389 . S
C645 H624 0.950 . S
C645 C644 1.373 . S
C645 C661 1.377 . S
C646 C644 1.389 . S
C646 C647 1.524 . S
C646 C660 1.377 . S
C647 C646 1.524 . S
C647 C648 1.397 . S
C647 C652 1.363 . S
C648 H625 0.950 . S
C648 C647 1.397 . S
C648 C649 1.334 . S
C649 H626 0.950 . S
C649 C648 1.334 . S
C649 C650 1.287 . S
C650 C649 1.287 . S
C650 C651 1.524 . S
C650 H669 0.913 1_565 S
C651 H627 0.950 1_565 S
C651 C650 1.524 . S
C651 C652 1.415 . S
C652 H628 0.950 . S
C652 C647 1.363 . S
C652 C651 1.415 . S
C653 H629 0.951 . S
C653 C654 1.366 . S
C653 C655 1.388 . S
C654 C653 1.366 . S
C654 C658 1.385 . S
C655 H630 0.951 . S
C655 C653 1.388 . S
C655 C656 1.366 . S
C656 C655 1.366 . S
C656 C657 1.414 . S
C656 C659 1.499 . S
C657 H631 0.950 . S
C657 C656 1.414 . S
C657 C658 1.374 . S
C658 H632 0.950 . S
C658 C654 1.385 . S
C658 C657 1.374 . S
C659 C656 1.499 . S
C659 C660 1.373 . S
C659 C661 1.389 . S
C660 H633 0.950 . S
C660 C646 1.377 . S
C660 C659 1.373 . S
C661 C645 1.377 . S
C661 C659 1.389 . S
C661 C662 1.524 . S
C662 C661 1.524 . S
C662 C663 1.397 . S
C662 C667 1.363 . S
C663 H634 0.950 . S
C663 C662 1.397 . S
C663 C664 1.334 . S
C664 H635 0.950 . S
C664 C663 1.334 . S
C664 C665 1.287 . S
C665 C664 1.287 . S
C665 C666 1.524 . S
C665 H668 0.999 . S
C666 H636 0.950 . S
C666 C665 1.524 . S
C666 C667 1.415 . S
C667 H637 0.950 . S
C667 C662 1.363 . S
C667 C666 1.415 . S
H668 C665 0.999 . S
H669 C650 0.913 1_545 S
H670 C688 0.951 . S
H671 C690 0.951 . S
H672 C692 0.950 . S
H673 C693 0.950 . S
H674 C695 0.950 . S
H675 C698 0.950 . S
H676 C699 0.950 . S
H677 C701 0.950 . S
H678 C702 0.950 . S
H679 C703 0.951 . S
H680 C705 0.951 . S
H681 C707 0.950 . S
H682 C708 0.950 . S
H683 C710 0.950 . S
H684 C713 0.950 . S
H685 C714 0.950 . S
H686 C716 0.950 . S
H687 C717 0.950 . S
C688 H670 0.951 . S
C688 C689 1.366 . S
C688 C690 1.388 . S
C689 C688 1.366 . S
C689 C693 1.385 . S
C690 H671 0.951 . S
C690 C688 1.388 . S
C690 C691 1.366 . S
C691 C690 1.366 . S
C691 C692 1.414 . S
C691 C694 1.499 . S
C692 H672 0.950 . S
C692 C691 1.414 . S
C692 C693 1.374 . S
C693 H673 0.950 . S
C693 C689 1.385 . S
C693 C692 1.374 . S
C694 C691 1.499 . S
C694 C695 1.373 . S
C694 C696 1.389 . S
C695 H674 0.950 . S
C695 C694 1.373 . S
C695 C711 1.377 . S
C696 C694 1.389 . S
C696 C697 1.524 . S
C696 C710 1.377 . S
C697 C696 1.524 . S
C697 C698 1.397 . S
C697 C702 1.363 . S
C698 H675 0.950 . S
C698 C697 1.397 . S
C698 C699 1.334 . S
C699 H676 0.950 . S
C699 C698 1.334 . S
C699 C700 1.287 . S
C700 C699 1.287 . S
C700 C701 1.524 . S
C700 H719 0.913 . S
C701 H677 0.950 . S
C701 C700 1.524 . S
C701 C702 1.415 . S
C702 H678 0.950 . S
C702 C697 1.363 . S
C702 C701 1.415 . S
C703 H679 0.951 . S
C703 C704 1.366 . S
C703 C705 1.388 . S
C704 C703 1.366 . S
C704 C708 1.385 . S
C705 H680 0.951 . S
C705 C703 1.388 . S
C705 C706 1.366 . S
C706 C705 1.366 . S
C706 C707 1.414 . S
C706 C709 1.499 . S
C707 H681 0.950 . S
C707 C706 1.414 . S
C707 C708 1.374 . S
C708 H682 0.950 . S
C708 C704 1.385 . S
C708 C707 1.374 . S
C709 C706 1.499 . S
C709 C710 1.373 . S
C709 C711 1.389 . S
C710 H683 0.950 . S
C710 C696 1.377 . S
C710 C709 1.373 . S
C711 C695 1.377 . S
C711 C709 1.389 . S
C711 C712 1.524 . S
C712 C711 1.524 . S
C712 C713 1.397 . S
C712 C717 1.363 . S
C713 H684 0.950 . S
C713 C712 1.397 . S
C713 C714 1.334 . S
C714 H685 0.950 . S
C714 C713 1.334 . S
C714 C715 1.287 . S
C715 C714 1.287 . S
C715 C716 1.524 . S
C715 H718 0.999 . S
C716 H686 0.950 . S
C716 C715 1.524 . S
C716 C717 1.415 . S
C717 H687 0.950 . S
C717 C712 1.363 . S
C717 C716 1.415 . S
H718 C715 0.999 . S
H719 C700 0.913 . S
H720 C738 0.951 . S
H721 C740 0.951 . S
H722 C742 0.950 . S
H723 C743 0.950 . S
H724 C745 0.950 . S
H725 C748 0.950 . S
H726 C749 0.950 . S
H727 C751 0.950 1_655 S
H728 C752 0.950 . S
H729 C753 0.951 . S
H730 C755 0.951 . S
H731 C757 0.950 . S
H732 C758 0.950 . S
H733 C760 0.950 . S
H734 C763 0.950 . S
H735 C764 0.950 . S
H736 C766 0.950 . S
H737 C767 0.950 . S
C738 H720 0.951 . S
C738 C739 1.366 . S
C738 C740 1.388 . S
C739 C738 1.366 . S
C739 C743 1.385 . S
C740 H721 0.951 . S
C740 C738 1.388 . S
C740 C741 1.366 . S
C741 C740 1.366 . S
C741 C742 1.414 . S
C741 C744 1.499 . S
C742 H722 0.950 . S
C742 C741 1.414 . S
C742 C743 1.374 . S
C743 H723 0.950 . S
C743 C739 1.385 . S
C743 C742 1.374 . S
C744 C741 1.499 . S
C744 C745 1.373 . S
C744 C746 1.389 . S
C745 H724 0.950 . S
C745 C744 1.373 . S
C745 C761 1.377 . S
C746 C744 1.389 . S
C746 C747 1.524 . S
C746 C760 1.377 . S
C747 C746 1.524 . S
C747 C748 1.397 . S
C747 C752 1.363 . S
C748 H725 0.950 . S
C748 C747 1.397 . S
C748 C749 1.334 . S
C749 H726 0.950 . S
C749 C748 1.334 . S
C749 C750 1.287 . S
C750 C749 1.287 . S
C750 C751 1.524 . S
C750 H769 0.913 . S
C751 H727 0.950 1_455 S
C751 C750 1.524 . S
C751 C752 1.415 . S
C752 H728 0.950 . S
C752 C747 1.363 . S
C752 C751 1.415 . S
C753 H729 0.951 . S
C753 C754 1.366 1_455 S
C753 C755 1.388 . S
C754 C753 1.366 1_655 S
C754 C758 1.385 . S
C755 H730 0.951 . S
C755 C753 1.388 . S
C755 C756 1.366 . S
C756 C755 1.366 . S
C756 C757 1.414 1_455 S
C756 C759 1.499 . S
C757 H731 0.950 . S
C757 C756 1.414 1_655 S
C757 C758 1.374 . S
C758 H732 0.950 . S
C758 C754 1.385 . S
C758 C757 1.374 . S
C759 C756 1.499 . S
C759 C760 1.373 . S
C759 C761 1.389 . S
C760 H733 0.950 . S
C760 C746 1.377 . S
C760 C759 1.373 . S
C761 C745 1.377 . S
C761 C759 1.389 . S
C761 C762 1.524 . S
C762 C761 1.524 . S
C762 C763 1.397 . S
C762 C767 1.363 . S
C763 H734 0.950 . S
C763 C762 1.397 . S
C763 C764 1.334 . S
C764 H735 0.950 . S
C764 C763 1.334 . S
C764 C765 1.287 . S
C765 C764 1.287 . S
C765 C766 1.524 . S
C765 H768 0.999 . S
C766 H736 0.950 . S
C766 C765 1.524 . S
C766 C767 1.415 . S
C767 H737 0.950 . S
C767 C762 1.363 . S
C767 C766 1.415 . S
H768 C765 0.999 . S
H769 C750 0.913 . S
H770 C788 0.951 . S
H771 C790 0.951 . S
H772 C792 0.950 . S
H773 C793 0.950 . S
H774 C795 0.950 . S
H775 C798 0.950 . S
H776 C799 0.950 . S
H777 C801 0.950 . S
H778 C802 0.950 . S
H779 C803 0.951 . S
H780 C805 0.942 1_545 S
H781 C807 0.950 . S
H782 C808 0.950 . S
H783 C810 0.950 . S
H784 C813 0.950 . S
H785 C814 0.950 . S
H786 C816 0.950 . S
H787 C817 0.950 . S
C788 H770 0.951 . S
C788 C789 1.366 . S
C788 C790 1.388 . S
C789 C788 1.366 . S
C789 C793 1.385 . S
C790 H771 0.951 . S
C790 C788 1.388 . S
C790 C791 1.366 . S
C791 C790 1.366 . S
C791 C792 1.414 . S
C791 C794 1.499 1_655 S
C792 H772 0.950 . S
C792 C791 1.414 . S
C792 C793 1.374 . S
C793 H773 0.950 . S
C793 C789 1.385 . S
C793 C792 1.374 . S
C794 C791 1.499 1_455 S
C794 C795 1.373 . S
C794 C796 1.389 . S
C795 H774 0.950 . S
C795 C794 1.373 . S
C795 C811 1.377 . S
C796 C794 1.389 . S
C796 C797 1.524 . S
C796 C810 1.377 . S
C797 C796 1.524 . S
C797 C798 1.397 . S
C797 C802 1.363 . S
C798 H775 0.950 . S
C798 C797 1.397 . S
C798 C799 1.334 1_455 S
C799 H776 0.950 . S
C799 C798 1.334 1_655 S
C799 C800 1.287 1_655 S
C800 C799 1.287 1_455 S
C800 C801 1.524 . S
C800 H819 0.913 1_455 S
C801 H777 0.950 . S
C801 C800 1.524 . S
C801 C802 1.415 . S
C802 H778 0.950 . S
C802 C797 1.363 . S
C802 C801 1.415 . S
C803 H779 0.951 . S
C803 C804 1.366 . S
C803 C805 1.385 1_545 S
C804 C803 1.366 . S
C804 C808 1.385 1_545 S
C805 H780 0.942 1_565 S
C805 C803 1.385 1_565 S
C805 C806 1.377 . S
C806 C805 1.377 . S
C806 C807 1.414 . S
C806 C809 1.499 . S
C807 H781 0.950 . S
C807 C806 1.414 . S
C807 C808 1.374 . S
C808 H782 0.950 . S
C808 C804 1.385 1_565 S
C808 C807 1.374 . S
C809 C806 1.499 . S
C809 C810 1.373 . S
C809 C811 1.389 . S
C810 H783 0.950 . S
C810 C796 1.377 . S
C810 C809 1.373 . S
C811 C795 1.377 . S
C811 C809 1.389 . S
C811 C812 1.524 . S
C812 C811 1.524 . S
C812 C813 1.397 . S
C812 C817 1.363 . S
C813 H784 0.950 . S
C813 C812 1.397 . S
C813 C814 1.334 . S
C814 H785 0.950 . S
C814 C813 1.334 . S
C814 C815 1.287 . S
C815 C814 1.287 . S
C815 C816 1.524 . S
C815 H818 0.999 . S
C816 H786 0.950 . S
C816 C815 1.524 . S
C816 C817 1.415 . S
C817 H787 0.950 . S
C817 C812 1.363 . S
C817 C816 1.415 . S
H818 C815 0.999 . S
H819 C800 0.913 1_655 S
H820 C838 0.951 . S
H821 C840 0.951 . S
H822 C842 0.950 . S
H823 C843 0.950 . S
H824 C845 0.950 . S
H825 C848 0.950 . S
H826 C849 0.950 . S
H827 C851 0.950 . S
H828 C852 0.950 . S
H829 C853 0.951 . S
H830 C855 0.951 . S
H831 C857 0.950 . S
H832 C858 0.950 . S
H833 C860 0.950 . S
H834 C863 0.950 . S
H835 C864 0.950 . S
H836 C866 0.950 . S
H837 C867 0.950 . S
C838 H820 0.951 . S
C838 C839 1.366 . S
C838 C840 1.388 . S
C839 C838 1.366 . S
C839 C843 1.385 . S
C840 H821 0.951 . S
C840 C838 1.388 . S
C840 C841 1.366 . S
C841 C840 1.366 . S
C841 C842 1.414 . S
C841 C844 1.499 1_545 S
C842 H822 0.950 . S
C842 C841 1.414 . S
C842 C843 1.374 . S
C843 H823 0.950 . S
C843 C839 1.385 . S
C843 C842 1.374 . S
C844 C841 1.499 1_565 S
C844 C845 1.373 . S
C844 C846 1.389 . S
C845 H824 0.950 . S
C845 C844 1.373 . S
C845 C861 1.377 . S
C846 C844 1.389 . S
C846 C847 1.524 . S
C846 C860 1.377 . S
C847 C846 1.524 . S
C847 C848 1.397 . S
C847 C852 1.363 . S
C848 H825 0.950 . S
C848 C847 1.397 . S
C848 C849 1.334 1_565 S
C849 H826 0.950 . S
C849 C848 1.334 1_545 S
C849 C850 1.287 1_545 S
C850 C849 1.287 1_565 S
C850 C851 1.524 . S
C850 H869 0.913 1_565 S
C851 H827 0.950 . S
C851 C850 1.524 . S
C851 C852 1.415 . S
C852 H828 0.950 . S
C852 C847 1.363 . S
C852 C851 1.415 . S
C853 H829 0.951 . S
C853 C854 1.366 . S
C853 C855 1.388 . S
C854 C853 1.366 . S
C854 C858 1.385 . S
C855 H830 0.951 . S
C855 C853 1.388 . S
C855 C856 1.366 . S
C856 C855 1.366 . S
C856 C857 1.414 . S
C856 C859 1.499 . S
C857 H831 0.950 . S
C857 C856 1.414 . S
C857 C858 1.374 . S
C858 H832 0.950 . S
C858 C854 1.385 . S
C858 C857 1.374 . S
C859 C856 1.499 . S
C859 C860 1.373 . S
C859 C861 1.389 . S
C860 H833 0.950 . S
C860 C846 1.377 . S
C860 C859 1.373 . S
C861 C845 1.377 . S
C861 C859 1.389 . S
C861 C862 1.524 . S
C862 C861 1.524 . S
C862 C863 1.397 . S
C862 C867 1.363 . S
C863 H834 0.950 . S
C863 C862 1.397 . S
C863 C864 1.334 . S
C864 H835 0.950 . S
C864 C863 1.334 . S
C864 C865 1.287 . S
C865 C864 1.287 . S
C865 C866 1.524 . S
C865 H868 0.999 . S
C866 H836 0.950 . S
C866 C865 1.524 . S
C866 C867 1.415 . S
C867 H837 0.950 . S
C867 C862 1.363 . S
C867 C866 1.415 . S
H868 C865 0.999 . S
H869 C850 0.913 1_545 S
H870 C888 0.951 . S
H871 C890 0.951 . S
H872 C892 0.950 . S
H873 C893 0.950 . S
H874 C895 0.950 . S
H875 C898 0.950 . S
H876 C899 0.950 . S
H877 C901 0.950 . S
H878 C902 0.950 . S
H879 C903 0.951 . S
H880 C905 0.951 . S
H881 C907 0.950 . S
H882 C908 0.950 1_565 S
H883 C910 0.950 . S
H884 C913 0.950 . S
H885 C914 0.950 . S
H886 C916 0.950 . S
H887 C917 0.950 . S
C888 H870 0.951 . S
C888 C889 1.366 . S
C888 C890 1.388 . S
C889 C888 1.366 . S
C889 C893 1.385 . S
C890 H871 0.951 . S
C890 C888 1.388 . S
C890 C891 1.366 . S
C891 C890 1.366 . S
C891 C892 1.414 . S
C891 C894 1.499 . S
C892 H872 0.950 . S
C892 C891 1.414 . S
C892 C893 1.374 . S
C893 H873 0.950 . S
C893 C889 1.385 . S
C893 C892 1.374 . S
C894 C891 1.499 . S
C894 C895 1.373 . S
C894 C896 1.389 . S
C895 H874 0.950 . S
C895 C894 1.373 . S
C895 C911 1.377 . S
C896 C894 1.389 . S
C896 C897 1.524 . S
C896 C910 1.377 . S
C897 C896 1.524 . S
C897 C898 1.397 . S
C897 C902 1.363 . S
C898 H875 0.950 . S
C898 C897 1.397 . S
C898 C899 1.334 . S
C899 H876 0.950 . S
C899 C898 1.334 . S
C899 C900 1.287 . S
C900 C899 1.287 . S
C900 C901 1.524 . S
C900 H919 0.913 . S
C901 H877 0.950 . S
C901 C900 1.524 . S
C901 C902 1.415 . S
C902 H878 0.950 . S
C902 C897 1.363 . S
C902 C901 1.415 . S
C903 H879 0.951 . S
C903 C904 1.366 . S
C903 C905 1.388 . S
C904 C903 1.366 . S
C904 C908 1.385 . S
C905 H880 0.951 . S
C905 C903 1.388 . S
C905 C906 1.366 . S
C906 C905 1.366 . S
C906 C907 1.414 . S
C906 C909 1.499 . S
C907 H881 0.950 . S
C907 C906 1.414 . S
C907 C908 1.374 . S
C908 H882 0.950 1_545 S
C908 C904 1.385 . S
C908 C907 1.374 . S
C909 C906 1.499 . S
C909 C910 1.373 . S
C909 C911 1.389 . S
C910 H883 0.950 . S
C910 C896 1.377 . S
C910 C909 1.373 . S
C911 C895 1.377 . S
C911 C909 1.389 . S
C911 C912 1.524 . S
C912 C911 1.524 . S
C912 C913 1.397 . S
C912 C917 1.363 . S
C913 H884 0.950 . S
C913 C912 1.397 . S
C913 C914 1.334 . S
C914 H885 0.950 . S
C914 C913 1.334 . S
C914 C915 1.287 . S
C915 C914 1.287 . S
C915 C916 1.524 . S
C915 H918 0.999 . S
C916 H886 0.950 . S
C916 C915 1.524 . S
C916 C917 1.415 . S
C917 H887 0.950 . S
C917 C912 1.363 . S
C917 C916 1.415 . S
H918 C915 0.999 . S
H919 C900 0.913 . S
H920 C938 0.951 . S
H921 C940 0.951 . S
H922 C942 0.950 . S
H923 C943 0.950 . S
H924 C945 0.950 . S
H925 C948 0.950 . S
H926 C949 0.950 . S
H927 C951 0.950 . S
H928 C952 0.950 1_655 S
H929 C953 0.951 . S
H930 C955 0.951 . S
H931 C957 0.950 . S
H932 C958 0.950 . S
H933 C960 0.950 . S
H934 C963 0.950 . S
H935 C964 0.950 . S
H936 C966 0.950 . S
H937 C967 0.950 . S
C938 H920 0.951 . S
C938 C939 1.366 . S
C938 C940 1.388 . S
C939 C938 1.366 . S
C939 C943 1.385 . S
C940 H921 0.951 . S
C940 C938 1.388 . S
C940 C941 1.366 . S
C941 C940 1.366 . S
C941 C942 1.414 . S
C941 C944 1.499 . S
C942 H922 0.950 . S
C942 C941 1.414 . S
C942 C943 1.374 . S
C943 H923 0.950 . S
C943 C939 1.385 . S
C943 C942 1.374 . S
C944 C941 1.499 . S
C944 C945 1.373 1_455 S
C944 C946 1.389 1_455 S
C945 H924 0.950 . S
C945 C944 1.373 1_655 S
C945 C961 1.377 . S
C946 C944 1.389 1_655 S
C946 C947 1.524 1_655 S
C946 C960 1.377 . S
C947 C946 1.524 1_455 S
C947 C948 1.397 . S
C947 C952 1.363 . S
C948 H925 0.950 . S
C948 C947 1.397 . S
C948 C949 1.334 . S
C949 H926 0.950 . S
C949 C948 1.334 . S
C949 C950 1.287 . S
C950 C949 1.287 . S
C950 C951 1.524 . S
C950 H969 0.913 . S
C951 H927 0.950 . S
C951 C950 1.524 . S
C951 C952 1.415 . S
C952 H928 0.950 1_455 S
C952 C947 1.363 . S
C952 C951 1.415 . S
C953 H929 0.951 . S
C953 C954 1.366 . S
C953 C955 1.388 . S
C954 C953 1.366 . S
C954 C958 1.385 . S
C955 H930 0.951 . S
C955 C953 1.388 . S
C955 C956 1.366 . S
C956 C955 1.366 . S
C956 C957 1.414 . S
C956 C959 1.499 . S
C957 H931 0.950 . S
C957 C956 1.414 . S
C957 C958 1.374 . S
C958 H932 0.950 . S
C958 C954 1.385 . S
C958 C957 1.374 . S
C959 C956 1.499 . S
C959 C960 1.373 . S
C959 C961 1.389 . S
C960 H933 0.950 . S
C960 C946 1.377 . S
C960 C959 1.373 . S
C961 C945 1.377 . S
C961 C959 1.389 . S
C961 C962 1.524 . S
C962 C961 1.524 . S
C962 C963 1.397 . S
C962 C967 1.363 . S
C963 H934 0.950 . S
C963 C962 1.397 . S
C963 C964 1.334 . S
C964 H935 0.950 . S
C964 C963 1.334 . S
C964 C965 1.287 . S
C965 C964 1.287 . S
C965 C966 1.524 . S
C965 H968 0.999 . S
C966 H936 0.950 . S
C966 C965 1.524 . S
C966 C967 1.415 . S
C967 H937 0.950 . S
C967 C962 1.363 . S
C967 C966 1.415 . S
H968 C965 0.999 . S
H969 C950 0.913 . S
H970 C988 0.951 1_455 S
H971 C990 0.951 . S
H972 C992 0.950 . S
H973 C993 0.950 . S
H974 C995 0.950 . S
H975 C998 0.950 . S
H976 C999 0.950 . S
H977 C1001 0.950 . S
H978 C1002 0.950 . S
H979 C1003 0.951 . S
H980 C1005 0.951 . S
H981 C1007 0.950 . S
H982 C1008 0.950 . S
H983 C1010 0.950 1_565 S
H984 C1013 0.950 . S
H985 C1014 0.950 . S
H986 C1016 0.950 1_545 S
H987 C1017 0.950 . S
C988 H970 0.951 1_655 S
C988 C989 1.366 . S
C988 C990 1.388 . S
C989 C988 1.366 . S
C989 C993 1.385 . S
C990 H971 0.951 . S
C990 C988 1.388 . S
C990 C991 1.366 . S
C991 C990 1.366 . S
C991 C992 1.414 . S
C991 C994 1.499 . S
C992 H972 0.950 . S
C992 C991 1.414 . S
C992 C993 1.374 . S
C993 H973 0.950 . S
C993 C989 1.385 . S
C993 C992 1.374 . S
C994 C991 1.499 . S
C994 C995 1.373 . S
C994 C996 1.389 . S
C995 H974 0.950 . S
C995 C994 1.373 . S
C995 C1011 1.377 . S
C996 C994 1.389 . S
C996 C997 1.524 . S
C996 C1010 1.377 . S
C997 C996 1.524 . S
C997 C998 1.397 . S
C997 C1002 1.363 . S
C998 H975 0.950 . S
C998 C997 1.397 . S
C998 C999 1.334 . S
C999 H976 0.950 . S
C999 C998 1.334 . S
C999 C1000 1.287 . S
C1000 C999 1.287 . S
C1000 C1001 1.524 . S
C1000 H1019 0.913 . S
C1001 H977 0.950 . S
C1001 C1000 1.524 . S
C1001 C1002 1.415 . S
C1002 H978 0.950 . S
C1002 C997 1.363 . S
C1002 C1001 1.415 . S
C1003 H979 0.951 . S
C1003 C1004 1.366 . S
C1003 C1005 1.388 . S
C1004 C1003 1.366 . S
C1004 C1008 1.385 . S
C1005 H980 0.951 . S
C1005 C1003 1.388 . S
C1005 C1006 1.366 . S
C1006 C1005 1.366 . S
C1006 C1007 1.414 . S
C1006 C1009 1.499 . S
C1007 H981 0.950 . S
C1007 C1006 1.414 . S
C1007 C1008 1.374 . S
C1008 H982 0.950 . S
C1008 C1004 1.385 . S
C1008 C1007 1.374 . S
C1009 C1006 1.499 . S
C1009 C1010 1.373 1_565 S
C1009 C1011 1.389 1_565 S
C1010 H983 0.950 1_545 S
C1010 C996 1.377 . S
C1010 C1009 1.373 1_545 S
C1011 C995 1.377 . S
C1011 C1009 1.389 1_545 S
C1011 C1012 1.524 1_545 S
C1012 C1011 1.524 1_565 S
C1012 C1013 1.397 . S
C1012 C1017 1.363 1_565 S
C1013 H984 0.950 . S
C1013 C1012 1.397 . S
C1013 C1014 1.334 . S
C1014 H985 0.950 . S
C1014 C1013 1.334 . S
C1014 C1015 1.287 . S
C1015 C1014 1.287 . S
C1015 C1016 1.523 . S
C1015 H1018 0.999 . S
C1016 H986 0.950 1_565 S
C1016 C1015 1.523 . S
C1016 C1017 1.415 1_565 S
C1017 H987 0.950 . S
C1017 C1012 1.363 1_545 S
C1017 C1016 1.415 1_545 S
H1018 C1015 0.999 . S
H1019 C1000 0.913 . S
C139 C88 2.009 . S
C154 C9 2.210 . S
C189 C109 2.201 . S
C204 C28 2.015 . S
C239 C49 2.210 . S
C254 C68 2.010 . S
C289 C8 2.015 . S
C304 C89 2.201 . S
C339 C108 2.009 . S
C354 C29 2.209 . S
C389 C48 2.015 . S
C404 C69 2.201 . S
C439 C2 1.688 . S
C454 C58 1.646 . S
C489 C22 1.688 . S
C504 C18 1.645 . S
C539 C42 1.688 . S
C554 C38 1.646 . S
C589 C79 1.668 . S
C604 C81 1.605 . S
C639 C99 1.668 . S
C654 C101 1.604 . S
C689 C61 1.604 . S
C704 C119 1.667 . S
C739 C1 0.855 . S
C754 C59 0.871 . S
C789 C21 0.855 . S
C804 C19 0.872 . S
C839 C41 0.855 . S
C854 C39 0.872 . S
C889 C78 0.866 . S
C904 C82 0.877 . S
C939 C98 0.866 . S
C954 C102 0.877 . S
C989 C62 0.877 . S
C1004 C118 0.866 . S
