# Generated by pormake.
# Topology lcy-e, (6)-cn, num edge types: 1
# Building blocks:
#     Node 0, Type 0, BuildingBlock: BETDIP_clean_sbu_0, # of connection points: 6
#     Node 1, Type 0, BuildingBlock: BETDIP_clean_sbu_0, # of connection points: 6
#     Node 2, Type 0, BuildingBlock: BETDIP_clean_sbu_0, # of connection points: 6
#     Node 3, Type 0, BuildingBlock: BETDIP_clean_sbu_0, # of connection points: 6
#     Node 4, Type 0, BuildingBlock: BETDIP_clean_sbu_0, # of connection points: 6
#     Node 5, Type 0, BuildingBlock: BETDIP_clean_sbu_0, # of connection points: 6
#     Node 6, Type 0, BuildingBlock: BETDIP_clean_sbu_0, # of connection points: 6
#     Node 7, Type 0, BuildingBlock: BETDIP_clean_sbu_0, # of connection points: 6
#     Node 8, Type 0, BuildingBlock: BETDIP_clean_sbu_0, # of connection points: 6
#     Node 9, Type 0, BuildingBlock: BETDIP_clean_sbu_0, # of connection points: 6
#     Node 10, Type 0, BuildingBlock: BETDIP_clean_sbu_0, # of connection points: 6
#     Node 11, Type 0, BuildingBlock: BETDIP_clean_sbu_0, # of connection points: 6
#     Edge 12, Type (0, 0), BuildingBlock: ZUJKAS_clean_linker_0, # of connection points: 2
#     Edge 13, Type (0, 0), BuildingBlock: ZUJKAS_clean_linker_0, # of connection points: 2
#     Edge 14, Type (0, 0), BuildingBlock: ZUJKAS_clean_linker_0, # of connection points: 2
#     Edge 15, Type (0, 0), BuildingBlock: ZUJKAS_clean_linker_0, # of connection points: 2
#     Edge 16, Type (0, 0), BuildingBlock: ZUJKAS_clean_linker_0, # of connection points: 2
#     Edge 17, Type (0, 0), BuildingBlock: ZUJKAS_clean_linker_0, # of connection points: 2
#     Edge 18, Type (0, 0), BuildingBlock: ZUJKAS_clean_linker_0, # of connection points: 2
#     Edge 19, Type (0, 0), BuildingBlock: ZUJKAS_clean_linker_0, # of connection points: 2
#     Edge 20, Type (0, 0), BuildingBlock: ZUJKAS_clean_linker_0, # of connection points: 2
#     Edge 21, Type (0, 0), BuildingBlock: ZUJKAS_clean_linker_0, # of connection points: 2
#     Edge 22, Type (0, 0), BuildingBlock: ZUJKAS_clean_linker_0, # of connection points: 2
#     Edge 23, Type (0, 0), BuildingBlock: ZUJKAS_clean_linker_0, # of connection points: 2
#     Edge 24, Type (0, 0), BuildingBlock: ZUJKAS_clean_linker_0, # of connection points: 2
#     Edge 25, Type (0, 0), BuildingBlock: ZUJKAS_clean_linker_0, # of connection points: 2
#     Edge 26, Type (0, 0), BuildingBlock: ZUJKAS_clean_linker_0, # of connection points: 2
#     Edge 27, Type (0, 0), BuildingBlock: ZUJKAS_clean_linker_0, # of connection points: 2
#     Edge 28, Type (0, 0), BuildingBlock: ZUJKAS_clean_linker_0, # of connection points: 2
#     Edge 29, Type (0, 0), BuildingBlock: ZUJKAS_clean_linker_0, # of connection points: 2
#     Edge 30, Type (0, 0), BuildingBlock: ZUJKAS_clean_linker_0, # of connection points: 2
#     Edge 31, Type (0, 0), BuildingBlock: ZUJKAS_clean_linker_0, # of connection points: 2
#     Edge 32, Type (0, 0), BuildingBlock: ZUJKAS_clean_linker_0, # of connection points: 2
#     Edge 33, Type (0, 0), BuildingBlock: ZUJKAS_clean_linker_0, # of connection points: 2
#     Edge 34, Type (0, 0), BuildingBlock: ZUJKAS_clean_linker_0, # of connection points: 2
#     Edge 35, Type (0, 0), BuildingBlock: ZUJKAS_clean_linker_0, # of connection points: 2
#     Edge 36, Type (0, 0), BuildingBlock: ZUJKAS_clean_linker_0, # of connection points: 2
#     Edge 37, Type (0, 0), BuildingBlock: ZUJKAS_clean_linker_0, # of connection points: 2
#     Edge 38, Type (0, 0), BuildingBlock: ZUJKAS_clean_linker_0, # of connection points: 2
#     Edge 39, Type (0, 0), BuildingBlock: ZUJKAS_clean_linker_0, # of connection points: 2
#     Edge 40, Type (0, 0), BuildingBlock: ZUJKAS_clean_linker_0, # of connection points: 2
#     Edge 41, Type (0, 0), BuildingBlock: ZUJKAS_clean_linker_0, # of connection points: 2
#     Edge 42, Type (0, 0), BuildingBlock: ZUJKAS_clean_linker_0, # of connection points: 2
#     Edge 43, Type (0, 0), BuildingBlock: ZUJKAS_clean_linker_0, # of connection points: 2
#     Edge 44, Type (0, 0), BuildingBlock: ZUJKAS_clean_linker_0, # of connection points: 2
#     Edge 45, Type (0, 0), BuildingBlock: ZUJKAS_clean_linker_0, # of connection points: 2
#     Edge 46, Type (0, 0), BuildingBlock: ZUJKAS_clean_linker_0, # of connection points: 2
#     Edge 47, Type (0, 0), BuildingBlock: ZUJKAS_clean_linker_0, # of connection points: 2
# Relax obj value: 0.204
# Max RMSD: 0.293
# Mean RMSD: 0.271
data_MOF--net-lcy-e--node1-BETDIP_clean_sbu_0--edge1-ZUJKAS_clean_linker_0
_symmetry_space_group_name_H-M    P1
_symmetry_Int_Tables_number       1
_symmetry_cell_setting            triclinic
loop_
_symmetry_equiv_pos_as_xyz
'x, y, z'
_cell_length_a     51.37158
_cell_length_b     55.832771
_cell_length_c     55.81995
_cell_angle_alpha  91.017646
_cell_angle_beta   90.532341
_cell_angle_gamma 88.371883
loop_
_atom_site_label
_atom_site_type_symbol
_atom_site_fract_x
_atom_site_fract_y
_atom_site_fract_z
_atom_type_partial_charge
Tb0 Tb 0.15479 0.24863 0.55469 0.0
Tb1 Tb 0.13528 0.28017 0.51485 0.0
C2 C 0.15891 0.22246 0.59086 0.0
C3 C 0.14864 0.19941 0.59855 0.0
C4 C 0.12223 0.19401 0.59562 0.0
C5 C 0.11289 0.17231 0.60375 0.0
C6 C 0.12979 0.15555 0.61493 0.0
C7 C 0.15631 0.16089 0.61736 0.0
C8 C 0.16559 0.18259 0.60931 0.0
C9 C 0.18339 0.24626 0.51593 0.0
C10 C 0.10658 0.23239 0.52127 0.0
C11 C 0.13089 0.30451 0.47736 0.0
C12 C 0.14637 0.31764 0.45984 0.0
C13 C 0.16484 0.30575 0.44504 0.0
C14 C 0.17612 0.31768 0.42602 0.0
C15 C 0.1692 0.34175 0.42136 0.0
C16 C 0.15171 0.35387 0.43696 0.0
C17 C 0.14037 0.34193 0.45588 0.0
C18 C 0.10963 0.28464 0.55598 0.0
C19 C 0.18087 0.29778 0.54884 0.0
O20 O 0.14218 0.24048 0.5891 0.0
O21 O 0.17529 0.22139 0.57305 0.0
O22 O 0.15874 0.24782 0.51627 0.0
O23 O 0.19236 0.24441 0.5376 0.0
O24 O 0.12111 0.22881 0.54072 0.0
O25 O 0.10989 0.25081 0.50727 0.0
O26 O 0.13388 0.28116 0.47747 0.0
O27 O 0.1283 0.31376 0.49897 0.0
O28 O 0.13353 0.28134 0.55288 0.0
O29 O 0.09883 0.28777 0.53511 0.0
O30 O 0.17149 0.2971 0.52662 0.0
O31 O 0.17392 0.28183 0.56475 0.0
H32 H 0.10871 0.20666 0.58733 0.0
H33 H 0.09232 0.16894 0.60177 0.0
H34 H 0.16999 0.14826 0.62546 0.0
H35 H 0.18606 0.18632 0.61161 0.0
H36 H 0.16988 0.28699 0.44753 0.0
H37 H 0.18938 0.30768 0.41436 0.0
H38 H 0.14634 0.37253 0.43429 0.0
H39 H 0.12616 0.3515 0.46694 0.0
Tb40 Tb 0.0083 0.90067 0.7423 0.0
Tb41 Tb 0.05417 0.91187 0.77481 0.0
C42 C 0.96763 0.90171 0.71665 0.0
C43 C 0.95926 0.91061 0.693 0.0
C44 C 0.96943 0.9314 0.68336 0.0
C45 C 0.96119 0.9393 0.66075 0.0
C46 C 0.94244 0.92663 0.6475 0.0
C47 C 0.93241 0.90577 0.65727 0.0
C48 C 0.94078 0.89785 0.67974 0.0
C49 C 0.04825 0.87058 0.73837 0.0
C50 C 0.04836 0.9414 0.72814 0.0
C51 C 0.09522 0.91041 0.79987 0.0
C52 C 0.11282 0.89388 0.81335 0.0
C53 C 0.12922 0.87694 0.80155 0.0
C54 C 0.14843 0.86406 0.81433 0.0
C55 C 0.15169 0.86783 0.83916 0.0
C56 C 0.1346 0.88412 0.85102 0.0
C57 C 0.11549 0.89703 0.83826 0.0
C58 C 0.01234 0.94054 0.77956 0.0
C59 C 0.01468 0.87278 0.78966 0.0
O60 O 0.97278 0.91778 0.73326 0.0
O61 O 0.98468 0.88389 0.71647 0.0
O62 O 0.04951 0.89299 0.74151 0.0
O63 O 0.0242 0.86478 0.73552 0.0
O64 O 0.02605 0.93061 0.72374 0.0
O65 O 0.06373 0.93556 0.74631 0.0
O66 O 0.0948 0.90826 0.77647 0.0
O67 O 0.07207 0.91521 0.80871 0.0
O68 O 0.013 0.91836 0.77571 0.0
O69 O 0.03591 0.94701 0.78418 0.0
O70 O 0.03944 0.87865 0.78906 0.0
O71 O 0.9972 0.88275 0.775 0.0
H72 H 0.98357 0.94161 0.69338 0.0
H73 H 0.9691 0.95555 0.65386 0.0
H74 H 0.91821 0.89542 0.64742 0.0
H75 H 0.93277 0.8817 0.68681 0.0
H76 H 0.12782 0.87412 0.78235 0.0
H77 H 0.16102 0.85142 0.80467 0.0
H78 H 0.13672 0.88771 0.87006 0.0
H79 H 0.10339 0.91018 0.84778 0.0
Tb80 Tb 0.37786 0.79307 0.04499 0.0
Tb81 Tb 0.39693 0.76372 1.00235 0.0
C82 C 0.37466 0.81702 0.0835 0.0
C83 C 0.38493 0.83976 0.09268 0.0
C84 C 0.38877 0.84296 0.11739 0.0
C85 C 0.39864 0.86435 0.12654 0.0
C86 C 0.40483 0.88297 0.11111 0.0
C87 C 0.40109 0.87963 0.08628 0.0
C88 C 0.3913 0.85816 0.07713 0.0
C89 C 0.3481 0.79619 1.00665 0.0
C90 C 0.42395 0.81217 1.01237 0.0
C91 C 0.40135 0.74137 0.96298 0.0
C92 C 0.38627 0.72835 0.94439 0.0
C93 C 0.37111 0.7409 0.92734 0.0
C94 C 0.36085 0.72893 0.90733 0.0
C95 C 0.36543 0.70418 0.90395 0.0
C96 C 0.3794 0.69143 0.92161 0.0
C97 C 0.38985 0.70343 0.94155 0.0
C98 C 0.4246 0.75892 0.04231 0.0
C99 C 0.35336 0.74345 0.03582 0.0
O100 O 0.39198 0.79976 0.07979 0.0
O101 O 0.35745 0.81854 0.06611 0.0
O102 O 0.37272 0.79519 1.00684 0.0
O103 O 0.3396 0.79724 0.02843 0.0
O104 O 0.41013 0.81448 0.03226 0.0
O105 O 0.42067 0.79437 0.99689 0.0
O106 O 0.39698 0.76453 0.96501 0.0
O107 O 0.40512 0.73125 0.98378 0.0
O108 O 0.40042 0.76125 0.04013 0.0
O109 O 0.43456 0.75708 0.02107 0.0
O110 O 0.36209 0.74483 0.01358 0.0
O111 O 0.3602 0.75916 0.05264 0.0
H112 H 0.38404 0.82891 0.12964 0.0
H113 H 0.40101 0.86646 0.14576 0.0
H114 H 0.40595 0.89352 0.07393 0.0
H115 H 0.3887 0.85594 0.05795 0.0
H116 H 0.36801 0.76013 0.92887 0.0
H117 H 0.34988 0.73917 0.89416 0.0
H118 H 0.38343 0.67237 0.91941 0.0
H119 H 0.4017 0.69334 0.9542 0.0
Tb120 Tb 0.51882 0.14094 0.24652 0.0
Tb121 Tb 0.47385 0.12862 0.27898 0.0
C122 C 0.5609 0.14598 0.22488 0.0
C123 C 0.56949 0.14111 0.20008 0.0
C124 C 0.55221 0.13201 0.18276 0.0
C125 C 0.56103 0.12567 0.15976 0.0
C126 C 0.58735 0.12818 0.15367 0.0
C127 C 0.60443 0.13774 0.17103 0.0
C128 C 0.59557 0.14411 0.194 0.0
C129 C 0.4726 0.15976 0.23444 0.0
C130 C 0.48197 0.0995 0.23147 0.0
C131 C 0.43293 0.1281 0.30341 0.0
C132 C 0.41506 0.14362 0.3181 0.0
C133 C 0.3982 0.1609 0.30766 0.0
C134 C 0.37909 0.17302 0.32142 0.0
C135 C 0.37639 0.16818 0.34594 0.0
C136 C 0.39379 0.1514 0.35643 0.0
C137 C 0.41278 0.13925 0.34268 0.0
C138 C 0.51678 0.10106 0.28216 0.0
C139 C 0.51173 0.16928 0.29608 0.0
O140 O 0.55554 0.12688 0.23706 0.0
O141 O 0.54349 0.16341 0.22798 0.0
O142 O 0.48159 0.15705 0.25525 0.0
O143 O 0.49036 0.15265 0.21941 0.0
O144 O 0.50625 0.1068 0.2314 0.0
O145 O 0.46441 0.10911 0.24617 0.0
O146 O 0.43315 0.13143 0.28018 0.0
O147 O 0.45621 0.12318 0.3122 0.0
O148 O 0.51487 0.12313 0.27919 0.0
O149 O 0.49354 0.09317 0.28505 0.0
O150 O 0.48871 0.15954 0.29839 0.0
O151 O 0.5275 0.16365 0.27796 0.0
H152 H 0.53202 0.12934 0.18721 0.0
H153 H 0.5474 0.11814 0.14698 0.0
H154 H 0.62471 0.14025 0.1669 0.0
H155 H 0.60921 0.15102 0.20714 0.0
H156 H 0.39928 0.16466 0.28873 0.0
H157 H 0.36625 0.18602 0.3128 0.0
H158 H 0.39211 0.14691 0.37513 0.0
H159 H 0.42518 0.1258 0.35116 0.0
Tb160 Tb 0.64163 0.26179 0.56686 0.0
Tb161 Tb 0.64816 0.30427 0.53345 0.0
C162 C 0.64088 0.22253 0.58846 0.0
C163 C 0.64576 0.21442 0.61318 0.0
C164 C 0.65859 0.22898 0.63005 0.0
C165 C 0.66525 0.22019 0.65274 0.0
C166 C 0.65911 0.19671 0.65905 0.0
C167 C 0.6457 0.18244 0.64221 0.0
C168 C 0.63917 0.19121 0.61951 0.0
C169 C 0.61457 0.30123 0.57773 0.0
C170 C 0.68233 0.30005 0.58177 0.0
C171 C 0.64813 0.34597 0.51674 0.0
C172 C 0.63282 0.36364 0.50231 0.0
C173 C 0.61698 0.38136 0.51362 0.0
C174 C 0.60608 0.40045 0.50057 0.0
C175 C 0.6109 0.4024 0.4759 0.0
C176 C 0.62583 0.38411 0.46445 0.0
C177 C 0.63673 0.36505 0.47748 0.0
C178 C 0.67494 0.26501 0.52135 0.0
C179 C 0.61026 0.26559 0.51712 0.0
O180 O 0.66127 0.23034 0.57745 0.0
O181 O 0.62008 0.23616 0.5848 0.0
O182 O 0.61892 0.29287 0.55706 0.0
O183 O 0.62394 0.28638 0.59337 0.0
O184 O 0.67348 0.27854 0.58584 0.0
O185 O 0.67457 0.31291 0.56317 0.0
O186 O 0.63967 0.34106 0.53814 0.0
O187 O 0.65819 0.32704 0.50569 0.0
O188 O 0.6701 0.27256 0.54232 0.0
O189 O 0.66745 0.28123 0.50625 0.0
O190 O 0.61397 0.28893 0.51734 0.0
O191 O 0.62152 0.25126 0.53322 0.0
H192 H 0.66389 0.24697 0.62552 0.0
H193 H 0.67526 0.23178 0.66533 0.0
H194 H 0.64093 0.1642 0.64628 0.0
H195 H 0.62946 0.17963 0.60669 0.0
H196 H 0.61384 0.38104 0.53277 0.0
H197 H 0.59489 0.41426 0.51007 0.0
H198 H 0.62958 0.38475 0.44541 0.0
H199 H 0.649 0.35189 0.46818 0.0
Tb200 Tb 0.98431 0.40351 0.79443 0.0
Tb201 Tb 0.02127 0.38546 0.83322 0.0
C202 C 0.96122 0.415 0.75635 0.0
C203 C 0.93497 0.41163 0.74664 0.0
C204 C 0.92984 0.41638 0.7225 0.0
C205 C 0.9062 0.40992 0.71203 0.0
C206 C 0.88733 0.39851 0.72557 0.0
C207 C 0.89223 0.39465 0.75008 0.0
C208 C 0.91591 0.40109 0.76051 0.0
C209 C 0.97302 0.419 0.83858 0.0
C210 C 0.9694 0.35882 0.82343 0.0
C211 C 0.04767 0.37839 0.87071 0.0
C212 C 0.06125 0.39065 0.89065 0.0
C213 C 0.05101 0.41175 0.90151 0.0
C214 C 0.0624 0.42105 0.92249 0.0
C215 C 0.08403 0.40925 0.93311 0.0
C216 C 0.09471 0.38863 0.92167 0.0
C217 C 0.08344 0.37946 0.90067 0.0
C218 C 0.02425 0.36256 0.79094 0.0
C219 C 0.03747 0.43017 0.8038 0.0
O220 O 0.97491 0.39505 0.7589 0.0
O221 O 0.96327 0.42954 0.77494 0.0
O222 O 0.99524 0.41572 0.82963 0.0
O223 O 0.95597 0.41381 0.82215 0.0
O224 O 0.96805 0.36882 0.80215 0.0
O225 O 0.98597 0.36618 0.84003 0.0
O226 O 0.02219 0.38071 0.8702 0.0
O227 O 0.058 0.37891 0.84932 0.0
O228 O 0.02026 0.38436 0.79519 0.0
O229 O 0.02892 0.35236 0.81127 0.0
O230 O 0.0413 0.41776 0.82358 0.0
O231 O 0.01746 0.4265 0.78914 0.0
H232 H 0.94452 0.42423 0.71151 0.0
H233 H 0.90323 0.41285 0.69307 0.0
H234 H 0.878 0.38617 0.76106 0.0
H235 H 0.91972 0.39712 0.77917 0.0
H236 H 0.03373 0.42057 0.89429 0.0
H237 H 0.05365 0.43691 0.9309 0.0
H238 H 0.11163 0.37935 0.92915 0.0
H239 H 0.0916 0.36312 0.89267 0.0
Tb240 Tb 0.90656 0.77977 0.05903 0.0
Tb241 Tb 0.88795 0.73845 0.02804 0.0
C242 C 0.90952 0.81705 0.08487 0.0
C243 C 0.89858 0.82588 0.10787 0.0
C244 C 0.87262 0.8219 0.11408 0.0
C245 C 0.86276 0.83047 0.13602 0.0
C246 C 0.87866 0.84318 0.1522 0.0
C247 C 0.90465 0.84705 0.14588 0.0
C248 C 0.91447 0.83848 0.12396 0.0
C249 C 0.93649 0.74097 0.06033 0.0
C250 C 0.86013 0.74715 0.07683 0.0
C251 C 0.88304 0.70001 1.00427 0.0
C252 C 0.89671 0.68123 0.98976 0.0
C253 C 0.92035 0.67039 0.99734 0.0
C254 C 0.93044 0.64992 0.98535 0.0
C255 C 0.91711 0.63989 0.96557 0.0
C256 C 0.89405 0.65148 0.95751 0.0
C257 C 0.884 0.67187 0.96948 0.0
C258 C 0.86048 0.77931 0.0249 0.0
C259 C 0.9317 0.772 1.00886 0.0
O260 O 0.89321 0.81484 0.06685 0.0
O261 O 0.92614 0.79892 0.08611 0.0
O262 O 0.91185 0.74142 0.05951 0.0
O263 O 0.94479 0.76262 0.06218 0.0
O264 O 0.87373 0.76682 0.07974 0.0
O265 O 0.86386 0.73218 0.05859 0.0
O266 O 0.88862 0.70104 0.02719 0.0
O267 O 0.8793 0.72126 0.99505 0.0
O268 O 0.88458 0.77642 0.02716 0.0
O269 O 0.85048 0.75834 0.02224 0.0
O270 O 0.92295 0.74986 1.0094 0.0
O271 O 0.9248 0.78832 0.02534 0.0
H272 H 0.85994 0.8122 0.10198 0.0
H273 H 0.84276 0.82693 0.1404 0.0
H274 H 0.91734 0.85707 0.1577 0.0
H275 H 0.93452 0.84181 0.11951 0.0
H276 H 0.93057 0.67722 0.01297 0.0
H277 H 0.94845 0.64172 0.99183 0.0
H278 H 0.88303 0.64419 0.94259 0.0
H279 H 0.86561 0.67975 0.96348 0.0
Tb280 Tb 0.51314 0.65737 0.31879 0.0
Tb281 Tb 0.55877 0.63725 0.29108 0.0
C282 C 0.47287 0.66405 0.34357 0.0
C283 C 0.46217 0.65342 0.3652 0.0
C284 C 0.4642 0.62866 0.3692 0.0
C285 C 0.45473 0.6192 0.39036 0.0
C286 C 0.44312 0.63433 0.40792 0.0
C287 C 0.44119 0.65911 0.40374 0.0
C288 C 0.45058 0.66852 0.38259 0.0
C289 C 0.55423 0.68418 0.31998 0.0
C290 C 0.54834 0.61362 0.33962 0.0
C291 C 0.60064 0.63133 0.26845 0.0
C292 C 0.61799 0.64481 0.25313 0.0
C293 C 0.6218 0.66944 0.2568 0.0
C294 C 0.64035 0.68118 0.2434 0.0
C295 C 0.65536 0.66848 0.22614 0.0
C296 C 0.65069 0.64403 0.22201 0.0
C297 C 0.63225 0.63234 0.23541 0.0
C298 C 0.51528 0.61289 0.28716 0.0
C299 C 0.52214 0.67781 0.26818 0.0
O300 O 0.47373 0.65054 0.32416 0.0
O301 O 0.49419 0.67597 0.34688 0.0
O302 O 0.55468 0.66152 0.32105 0.0
O303 O 0.5304 0.6923 0.31962 0.0
O304 O 0.52606 0.62622 0.34019 0.0
O305 O 0.56588 0.61689 0.32302 0.0
O306 O 0.5994 0.63818 0.29098 0.0
O307 O 0.57785 0.62601 0.25948 0.0
O308 O 0.51762 0.63512 0.28818 0.0
O309 O 0.53841 0.60296 0.28642 0.0
O310 O 0.54608 0.66845 0.27006 0.0
O311 O 0.50407 0.67326 0.28418 0.0
H312 H 0.47316 0.61665 0.35603 0.0
H313 H 0.45631 0.60002 0.39286 0.0
H314 H 0.43282 0.67136 0.41702 0.0
H315 H 0.44905 0.68769 0.37992 0.0
H316 H 0.61092 0.67944 0.27039 0.0
H317 H 0.64352 0.69998 0.24711 0.0
H318 H 0.66148 0.63383 0.20852 0.0
H319 H 0.6295 0.61337 0.23226 0.0
Tb320 Tb 0.27815 0.47924 0.16474 0.0
Tb321 Tb 0.23068 0.51015 0.17698 0.0
C322 C 0.32033 0.45512 0.16561 0.0
C323 C 0.32861 0.43037 0.1712 0.0
C324 C 0.31305 0.41572 0.185 0.0
C325 C 0.32126 0.39219 0.18999 0.0
C326 C 0.345 0.38282 0.18099 0.0
C327 C 0.36039 0.39757 0.16704 0.0
C328 C 0.35228 0.42112 0.16226 0.0
C329 C 0.23804 0.47266 0.13632 0.0
C330 C 0.24036 0.46454 0.20756 0.0
C331 C 0.18771 0.533 0.17714 0.0
C332 C 0.16839 0.54507 0.16145 0.0
C333 C 0.142 0.54369 0.16722 0.0
C334 C 0.12294 0.55575 0.15371 0.0
C335 C 0.12983 0.56953 0.13401 0.0
C336 C 0.15637 0.57058 0.12797 0.0
C337 C 0.17551 0.5584 0.14156 0.0
C338 C 0.27335 0.51798 0.20296 0.0
C339 C 0.26828 0.52593 0.13626 0.0
O340 O 0.3119 0.4685 0.18357 0.0
O341 O 0.30579 0.45764 0.14642 0.0
O342 O 0.2369 0.47649 0.15868 0.0
O343 O 0.26207 0.47005 0.1299 0.0
O344 O 0.2623 0.46053 0.19561 0.0
O345 O 0.22387 0.48221 0.20222 0.0
O346 O 0.18994 0.50967 0.17481 0.0
O347 O 0.21022 0.54308 0.1805 0.0
O348 O 0.27173 0.51309 0.18109 0.0
O349 O 0.24989 0.52091 0.21114 0.0
O350 O 0.24366 0.52447 0.14283 0.0
O351 O 0.28676 0.51227 0.14633 0.0
H352 H 0.29454 0.4224 0.1918 0.0
H353 H 0.30885 0.38121 0.20058 0.0
H354 H 0.37891 0.39098 0.16008 0.0
H355 H 0.36452 0.43215 0.15153 0.0
H356 H 0.13612 0.53356 0.18255 0.0
H357 H 0.10284 0.55483 0.15919 0.0
H358 H 0.16233 0.58083 0.11278 0.0
H359 H 0.19579 0.55962 0.1367 0.0
Tb360 Tb 0.77141 0.05608 0.91809 0.0
Tb361 Tb 0.72482 0.028 0.90271 0.0
C362 C 0.81225 0.07998 0.91974 0.0
C363 C 0.82166 0.10244 0.90959 0.0
C364 C 0.82161 0.10645 0.88478 0.0
C365 C 0.83131 0.1277 0.8758 0.0
C366 C 0.84117 0.14543 0.89143 0.0
C367 C 0.84071 0.14143 0.91625 0.0
C368 C 0.8312 0.12017 0.92518 0.0
C369 C 0.73171 0.06025 0.94717 0.0
C370 C 0.73279 0.0755 0.87631 0.0
C371 C 0.68295 1.00567 0.90029 0.0
C372 C 0.66638 0.98975 0.91399 0.0
C373 C 0.66027 0.99431 0.93818 0.0
C374 C 0.6419 0.98048 0.94967 0.0
C375 C 0.62931 0.96193 0.93714 0.0
C376 C 0.63637 0.95689 0.91325 0.0
C377 C 0.65464 0.97067 0.90182 0.0
C378 C 0.7672 0.02184 0.87618 0.0
C379 C 0.76371 1.00675 0.94205 0.0
O380 O 0.80882 0.06183 0.90496 0.0
O381 O 0.79354 0.08237 0.9354 0.0
O382 O 0.73017 0.0595 0.92449 0.0
O383 O 0.7559 0.06027 0.95387 0.0
O384 O 0.75567 0.07673 0.88746 0.0
O385 O 0.71602 0.05893 0.88131 0.0
O386 O 0.68457 0.02789 0.90796 0.0
O387 O 0.70524 0.99675 0.89259 0.0
O388 O 0.76579 0.02414 0.89844 0.0
O389 O 0.7437 0.02131 0.86751 0.0
O390 O 0.73926 1.00865 0.93429 0.0
O391 O 0.78143 0.02205 0.93522 0.0
H392 H 0.81429 0.09313 0.87229 0.0
H393 H 0.83153 0.13 0.85659 0.0
H394 H 0.84758 0.1548 0.9289 0.0
H395 H 0.83133 0.11757 0.94437 0.0
H396 H 0.66908 1.00896 0.94799 0.0
H397 H 0.63687 0.98488 0.96805 0.0
H398 H 0.62748 0.94244 0.90321 0.0
H399 H 0.65909 0.96682 0.88318 0.0
Tb400 Tb 0.75776 0.9839 0.4092 0.0
Tb401 Tb 0.80454 0.01369 0.39807 0.0
C402 C 0.71705 0.9598 0.40611 0.0
C403 C 0.70983 0.936 0.39671 0.0
C404 C 0.68346 0.93084 0.39374 0.0
C405 C 0.67606 0.90821 0.38544 0.0
C406 C 0.69492 0.8902 0.37988 0.0
C407 C 0.72143 0.89556 0.38272 0.0
C408 C 0.72881 0.91826 0.39102 0.0
C409 C 0.7966 0.97927 0.43964 0.0
C410 C 0.79904 0.96623 0.3688 0.0
C411 C 0.84582 0.03713 0.39998 0.0
C412 C 0.86201 0.05222 0.41617 0.0
C413 C 0.88275 0.04183 0.42939 0.0
C414 C 0.90059 0.05619 0.44167 0.0
C415 C 0.89829 0.08136 0.44097 0.0
C416 C 0.87693 0.0917 0.42851 0.0
C417 C 0.85911 0.07734 0.4162 0.0
C418 C 0.76303 0.01943 0.36995 0.0
C419 C 0.76319 0.03278 0.43623 0.0
O420 O 0.7236 0.97546 0.39021 0.0
O421 O 0.73253 0.95995 0.42486 0.0
O422 O 0.79876 0.98144 0.41722 0.0
O423 O 0.7723 0.97749 0.44512 0.0
O424 O 0.77631 0.96355 0.37941 0.0
O425 O 0.81469 0.98375 0.37474 0.0
O426 O 0.84474 0.01428 0.40466 0.0
O427 O 0.8234 0.04603 0.3924 0.0
O428 O 0.76374 0.01652 0.39206 0.0
O429 O 0.78674 0.02091 0.36238 0.0
O430 O 0.78816 0.03113 0.43039 0.0
O431 O 0.74614 0.01771 0.4269 0.0
H432 H 0.66853 0.94427 0.39808 0.0
H433 H 0.65549 0.90469 0.38384 0.0
H434 H 0.73649 0.88227 0.37835 0.0
H435 H 0.74931 0.92191 0.39313 0.0
H436 H 0.88583 0.02256 0.42952 0.0
H437 H 0.91687 0.04751 0.45081 0.0
H438 H 0.87422 0.11099 0.42789 0.0
H439 H 0.84353 0.08599 0.40607 0.0
Tb440 Tb 0.30608 0.528 0.66474 0.0
Tb441 Tb 0.27024 0.57003 0.65407 0.0
C442 C 0.32784 0.48767 0.67098 0.0
C443 C 0.35138 0.47539 0.66145 0.0
C444 C 0.35848 0.47754 0.63734 0.0
C445 C 0.3811 0.46595 0.62873 0.0
C446 C 0.39714 0.45227 0.64414 0.0
C447 C 0.39004 0.45032 0.66828 0.0
C448 C 0.36732 0.46174 0.67682 0.0
C449 C 0.3163 0.5683 0.68819 0.0
C450 C 0.32305 0.56084 0.62378 0.0
C451 C 0.25311 0.61229 0.6488 0.0
C452 C 0.24105 0.63258 0.66224 0.0
C453 C 0.24693 0.65586 0.65555 0.0
C454 C 0.23543 0.67571 0.66725 0.0
C455 C 0.21771 0.67273 0.68594 0.0
C456 C 0.2121 0.64929 0.69287 0.0
C457 C 0.22376 0.62934 0.68117 0.0
C458 C 0.25899 0.52992 0.63115 0.0
C459 C 0.25246 0.53596 0.69275 0.0
O460 O 0.30867 0.49143 0.65579 0.0
O461 O 0.33181 0.5063 0.68491 0.0
O462 O 0.29425 0.56015 0.68359 0.0
O463 O 0.33388 0.55305 0.6804 0.0
O464 O 0.32687 0.53968 0.63364 0.0
O465 O 0.30324 0.57533 0.63001 0.0
O466 O 0.27732 0.6068 0.65441 0.0
O467 O 0.23911 0.59333 0.64485 0.0
O468 O 0.28128 0.53761 0.63568 0.0
O469 O 0.24169 0.54612 0.6375 0.0
O470 O 0.25224 0.55874 0.68674 0.0
O471 O 0.27003 0.52037 0.68398 0.0
H472 H 0.34663 0.48822 0.62517 0.0
H473 H 0.38622 0.46795 0.61011 0.0
H474 H 0.40186 0.43969 0.6805 0.0
H475 H 0.3622 0.45994 0.69548 0.0
H476 H 0.26024 0.65871 0.64099 0.0
H477 H 0.23991 0.69343 0.66117 0.0
H478 H 0.19872 0.64637 0.70735 0.0
H479 H 0.21913 0.61149 0.68676 0.0
H480 H 0.20278 0.33137 0.52082 0.0
H481 H 0.22114 0.36941 0.53382 0.0
H482 H 0.20942 0.35111 0.60761 0.0
H483 H 0.19164 0.31279 0.59478 0.0
H484 H 0.19558 0.40453 0.55702 0.0
H485 H 0.28142 0.37736 0.61173 0.0
H486 H 0.26491 0.35664 0.59204 0.0
H487 H 0.25224 0.36367 0.62138 0.0
C488 C 0.20465 0.33517 0.53985 0.0
C489 C 0.19577 0.31896 0.55675 0.0
C490 C 0.2151 0.357 0.54726 0.0
C491 C 0.21691 0.36314 0.57172 0.0
C492 C 0.20884 0.34663 0.58866 0.0
H493 H 0.21275 0.50741 0.63181 0.0
H494 H 0.2034 0.46704 0.61686 0.0
C495 C 0.19857 0.3247 0.58127 0.0
C496 C 0.22492 0.38761 0.57933 0.0
H497 H 0.26608 0.4181 0.61659 0.0
C498 C 0.21117 0.40746 0.56988 0.0
C499 C 0.24544 0.39156 0.59593 0.0
C500 C 0.26203 0.37118 0.60567 0.0
C501 C 0.2169 0.43102 0.57696 0.0
C502 C 0.23653 0.43492 0.59445 0.0
C503 C 0.2508 0.41513 0.60342 0.0
C504 C 0.24235 0.45937 0.60377 0.0
C505 C 0.20201 0.4515 0.56539 0.0
C506 C 0.26754 0.46833 0.60201 0.0
C507 C 0.27295 0.49137 0.61072 0.0
C508 C 0.25331 0.50578 0.62148 0.0
C509 C 0.22819 0.49677 0.62336 0.0
C510 C 0.22281 0.47373 0.61475 0.0
H511 H 0.19371 0.44607 0.54772 0.0
H512 H 0.18559 0.45732 0.57709 0.0
H513 H 0.21463 0.46705 0.5628 0.0
H514 H 0.28296 0.45758 0.59369 0.0
H515 H 0.29247 0.49793 0.60895 0.0
H516 H 0.77536 0.01649 0.8276 0.0
H517 H 0.81656 1.00454 0.8077 0.0
H518 H 0.85511 1.00102 0.87652 0.0
H519 H 0.81451 0.01266 0.89629 0.0
H520 H 0.86918 0.02724 0.8125 0.0
H521 H 0.86774 0.93351 0.8439 0.0
H522 H 0.83887 0.95271 0.84279 0.0
H523 H 0.86205 0.95599 0.86684 0.0
C524 C 0.79269 0.0132 0.83838 0.0
C525 C 0.7917 0.01549 0.86348 0.0
C526 C 0.81617 1.00645 0.82703 0.0
C527 C 0.83882 1.00166 0.84068 0.0
C528 C 0.83784 1.00437 0.86566 0.0
H529 H 0.9972 0.9491 0.82538 0.0
H530 H 0.95499 0.9658 0.83894 0.0
C531 C 0.81459 1.01115 0.87692 0.0
C532 C 0.86358 0.9934 0.82927 0.0
H533 H 0.90765 0.94644 0.82813 0.0
C534 C 0.87751 1.00949 0.81561 0.0
C535 C 0.87443 0.97028 0.83349 0.0
C536 C 0.85995 0.952 0.84738 0.0
C537 C 0.90249 1.00334 0.80682 0.0
C538 C 0.91358 0.98035 0.81151 0.0
C539 C 0.89929 0.96412 0.82469 0.0
C540 C 0.94005 0.97265 0.80323 0.0
C541 C 0.91717 0.0218 0.7934 0.0
C542 C 0.9459 0.97125 0.77869 0.0
C543 C 0.97007 0.96189 0.77101 0.0
C544 C 0.98868 0.95365 0.7877 0.0
C545 C 0.98319 0.95562 0.81223 0.0
C546 C 0.95906 0.965 0.81993 0.0
H547 H 0.90902 0.0402 0.79668 0.0
H548 H 0.9381 0.02136 0.79857 0.0
H549 H 0.91574 0.01782 0.77389 0.0
H550 H 0.93147 0.97663 0.76542 0.0
H551 H 0.97401 0.96063 0.752 0.0
H552 H 0.34123 0.72995 0.08104 0.0
H553 H 0.32335 0.69215 0.09319 0.0
H554 H 0.31457 0.67056 0.01904 0.0
H555 H 0.33333 0.7082 1.00666 0.0
H556 H 0.27832 0.67056 0.08604 0.0
H557 H 0.35801 0.61535 0.04452 0.0
H558 H 0.35908 0.64754 0.0471 0.0
H559 H 0.33993 0.63373 0.02381 0.0
C560 C 0.33528 0.71732 0.06723 0.0
C561 C 0.33897 0.72205 0.04285 0.0
C562 C 0.32506 0.69565 0.07424 0.0
C563 C 0.31816 0.67822 0.05707 0.0
C564 C 0.32044 0.68342 0.03265 0.0
H565 H 0.23636 0.55206 0.10647 0.0
H566 H 0.24722 0.58783 0.08434 0.0
C567 C 0.33095 0.70505 0.02559 0.0
C568 C 0.30933 0.65451 0.06504 0.0
H569 H 0.32477 0.59455 0.06336 0.0
C570 C 0.28837 0.65391 0.08097 0.0
C571 C 0.32271 0.63281 0.05869 0.0
C572 C 0.34633 0.6323 0.04278 0.0
C573 C 0.28071 0.63237 0.09106 0.0
C574 C 0.29387 0.61063 0.08447 0.0
C575 C 0.31454 0.61116 0.06822 0.0
C576 C 0.28769 0.58743 0.09553 0.0
C577 C 0.25939 0.63335 0.10953 0.0
C578 C 0.30714 0.57445 0.10802 0.0
C579 C 0.30112 0.55372 0.12028 0.0
C580 C 0.27545 0.54565 0.12042 0.0
C581 C 0.25626 0.558 0.10696 0.0
C582 C 0.26239 0.57856 0.09444 0.0
H583 H 0.25621 0.65174 0.11707 0.0
H584 H 0.24088 0.62779 0.101 0.0
H585 H 0.26402 0.62108 0.12451 0.0
H586 H 0.32685 0.58084 0.10902 0.0
H587 H 0.31635 0.54466 0.13051 0.0
H588 H 0.56316 0.12086 0.29153 0.0
H589 H 0.60474 0.1009 0.30003 0.0
H590 H 0.56961 0.03207 0.29015 0.0
H591 H 0.52711 0.05233 0.28281 0.0
H592 H 0.59953 0.02998 0.32683 0.0
H593 H 0.65755 0.07145 0.25757 0.0
H594 H 0.64239 0.09492 0.27516 0.0
H595 H 0.62251 0.0746 0.25793 0.0
C596 C 0.56426 0.10145 0.29097 0.0
C597 C 0.5419 0.08813 0.2864 0.0
C598 C 0.58822 0.09001 0.29555 0.0
C599 C 0.59074 0.0649 0.29498 0.0
C600 C 0.56834 0.05146 0.29042 0.0
H601 H 0.75404 0.01533 0.32127 0.0
H602 H 0.71212 0.02181 0.30014 0.0
C603 C 0.54407 0.063 0.28625 0.0
C604 C 0.61639 0.05309 0.301 0.0
H605 H 0.68188 0.05869 0.29332 0.0
C606 C 0.61748 0.03593 0.3191 0.0
C607 C 0.64001 0.06004 0.29051 0.0
C608 C 0.64048 0.07604 0.26902 0.0
C609 C 0.64139 0.02704 0.32821 0.0
C610 C 0.66497 0.03634 0.31978 0.0
C611 C 0.66393 0.052 0.30037 0.0
C612 C 0.69047 0.03165 0.33216 0.0
C613 C 0.64098 1.00788 0.34693 0.0
C614 C 0.69254 0.03555 0.357 0.0
C615 C 0.71615 0.0315 0.36898 0.0
C616 C 0.7386 0.02413 0.35637 0.0
C617 C 0.73699 0.02099 0.33139 0.0
C618 C 0.71305 0.02463 0.31937 0.0
H619 H 0.62404 0.99619 0.34411 0.0
H620 H 0.65905 0.99649 0.34672 0.0
H621 H 0.6389 0.01647 0.36492 0.0
H622 H 0.67589 0.04198 0.36724 0.0
H623 H 0.71685 0.03446 0.3882 0.0
H624 H 0.65855 0.22141 0.53561 0.0
H625 H 0.67555 0.18186 0.52396 0.0
H626 H 0.72994 0.21422 0.47684 0.0
H627 H 0.71325 0.25425 0.48931 0.0
H628 H 0.70163 0.17639 0.45577 0.0
H629 H 0.74578 0.14927 0.54263 0.0
H630 H 0.71258 0.1601 0.54459 0.0
H631 H 0.73747 0.18009 0.53586 0.0
C632 C 0.67494 0.22026 0.52377 0.0
C633 C 0.68552 0.24099 0.51447 0.0
C634 C 0.68439 0.19754 0.51675 0.0
C635 C 0.70453 0.19506 0.50004 0.0
C636 C 0.71467 0.21574 0.49008 0.0
H637 H 0.79261 0.06585 0.45994 0.0
H638 H 0.77797 0.10474 0.47638 0.0
C639 C 0.70517 0.23854 0.4972 0.0
C640 C 0.71399 0.17081 0.49224 0.0
H641 H 0.74161 0.11859 0.5128 0.0
C642 C 0.71049 0.16378 0.46819 0.0
C643 C 0.72567 0.15445 0.50847 0.0
C644 C 0.73085 0.16136 0.53429 0.0
C645 C 0.71792 0.14066 0.46003 0.0
C646 C 0.72887 0.12405 0.47642 0.0
C647 C 0.73287 0.13124 0.50035 0.0
C648 C 0.73717 0.09944 0.46873 0.0
C649 C 0.71432 0.13429 0.43384 0.0
C650 C 0.71897 0.08316 0.45982 0.0
C651 C 0.72724 0.06081 0.45047 0.0
C652 C 0.75391 0.05437 0.44986 0.0
C653 C 0.77193 0.07024 0.46001 0.0
C654 C 0.76362 0.09252 0.46942 0.0
H655 H 0.71115 0.15047 0.42277 0.0
H656 H 0.73153 0.12396 0.4269 0.0
H657 H 0.69704 0.12294 0.43165 0.0
H658 H 0.6984 0.088 0.45952 0.0
H659 H 0.71284 0.04905 0.44281 0.0
H660 H 0.04562 0.44716 0.75916 0.0
H661 H 0.08262 0.46956 0.74578 0.0
H662 H 0.11165 0.47404 0.81846 0.0
H663 H 0.0751 0.45062 0.8319 0.0
H664 H 0.10154 0.51229 0.75468 0.0
H665 H 0.17292 0.44262 0.78562 0.0
H666 H 0.13831 0.43825 0.78572 0.0
H667 H 0.15335 0.45585 0.80907 0.0
C668 C 0.05968 0.45314 0.77239 0.0
C669 C 0.05762 0.44687 0.79655 0.0
C670 C 0.08087 0.46595 0.76469 0.0
C671 C 0.10027 0.47298 0.78101 0.0
C672 C 0.09735 0.46815 0.80543 0.0
H673 H 0.22321 0.56267 0.72457 0.0
H674 H 0.1875 0.54905 0.74918 0.0
C675 C 0.07636 0.45494 0.81311 0.0
C676 C 0.12396 0.48431 0.772 0.0
H677 H 0.18988 0.47635 0.76733 0.0
C678 C 0.1209 0.50454 0.75756 0.0
C679 C 0.14917 0.47396 0.77554 0.0
C680 C 0.15371 0.45135 0.78963 0.0
C681 C 0.14216 0.51429 0.74595 0.0
C682 C 0.16739 0.50404 0.74963 0.0
C683 C 0.17056 0.48427 0.76467 0.0
C684 C 0.1904 0.5122 0.73649 0.0
C685 C 0.13711 0.53464 0.72891 0.0
C686 C 0.20478 0.49578 0.72217 0.0
C687 C 0.22558 0.50338 0.70859 0.0
C688 C 0.23219 0.52761 0.7089 0.0
C689 C 0.21831 0.54393 0.72379 0.0
C690 C 0.19779 0.53621 0.73771 0.0
H691 H 0.11628 0.53612 0.72344 0.0
H692 H 0.14225 0.55177 0.7379 0.0
H693 H 0.14907 0.53233 0.71253 0.0
H694 H 0.19949 0.47715 0.72099 0.0
H695 H 0.23585 0.49042 0.69721 0.0
H696 H 0.73263 0.97145 0.95793 0.0
H697 H 0.74617 0.93359 0.97611 0.0
H698 H 0.8262 0.95475 0.97521 0.0
H699 H 0.81287 0.99281 0.95702 0.0
H700 H 0.78023 0.89945 0.9547 0.0
H701 H 0.81779 0.92936 0.04345 0.0
H702 H 0.7968 0.94812 0.02509 0.0
H703 H 0.83092 0.94483 0.01854 0.0
C704 C 0.75311 0.9683 0.96192 0.0
C705 C 0.77167 0.98526 0.95596 0.0
C706 C 0.7608 0.94657 0.9723 0.0
C707 C 0.78716 0.94137 0.97719 0.0
C708 C 0.80569 0.95853 0.97197 0.0
H709 H 0.88386 0.82165 0.01866 0.0
H710 H 0.86378 0.86018 1.00831 0.0
C711 C 0.79803 0.98028 0.96151 0.0
C712 C 0.79542 0.91734 0.98608 0.0
H713 H 0.82788 0.88899 0.03164 0.0
C714 C 0.79041 0.8971 0.97165 0.0
C715 C 0.80869 0.91432 1.00818 0.0
C716 C 0.8137 0.93527 0.02486 0.0
C717 C 0.79918 0.87404 0.97825 0.0
C718 C 0.81287 0.87104 1.00017 0.0
C719 C 0.81735 0.89125 0.01486 0.0
C720 C 0.8244 0.84744 1.00736 0.0
C721 C 0.79472 0.85326 0.96117 0.0
C722 C 0.80894 0.82735 1.01062 0.0
C723 C 0.82047 0.8051 0.01654 0.0
C724 C 0.8476 0.80268 0.01952 0.0
C725 C 0.86288 0.82292 0.01669 0.0
C726 C 0.85142 0.84501 1.01073 0.0
H727 H 0.78928 0.85937 0.94292 0.0
H728 H 0.81241 0.84143 0.95986 0.0
H729 H 0.7786 0.84249 0.96791 0.0
H730 H 0.78798 0.82888 1.00856 0.0
H731 H 0.80823 0.78982 0.01872 0.0
H732 H 0.46813 0.6347 0.28011 0.0
H733 H 0.42681 0.61646 0.27051 0.0
H734 H 0.46449 0.54641 0.27077 0.0
H735 H 0.50606 0.56475 0.28167 0.0
H736 H 0.41527 0.59241 0.23125 0.0
H737 H 0.39981 0.53402 0.30888 0.0
H738 H 0.42401 0.55686 0.30911 0.0
H739 H 0.43044 0.52847 0.29429 0.0
C740 C 0.46758 0.61536 0.27877 0.0
C741 C 0.4903 0.60114 0.28202 0.0
C742 C 0.44391 0.60494 0.27308 0.0
C743 C 0.44232 0.58 0.2702 0.0
C744 C 0.46501 0.56564 0.27346 0.0
H745 H 0.32182 0.51533 0.18428 0.0
H746 H 0.36233 0.52885 0.20214 0.0
C747 C 0.48881 0.57613 0.27946 0.0
C748 C 0.41727 0.56962 0.26199 0.0
H749 H 0.37099 0.52918 0.27548 0.0
C750 C 0.4056 0.57865 0.24103 0.0
C751 C 0.40437 0.55188 0.27486 0.0
C752 C 0.41513 0.54238 0.29816 0.0
C753 C 0.38166 0.57037 0.23247 0.0
C754 C 0.36925 0.55197 0.24477 0.0
C755 C 0.38063 0.54313 0.26595 0.0
C756 C 0.34485 0.54142 0.23533 0.0
C757 C 0.36972 0.58174 0.21046 0.0
C758 C 0.3216 0.54292 0.24847 0.0
C759 C 0.29824 0.53473 0.23836 0.0
C760 C 0.29788 0.52495 0.21499 0.0
C761 C 0.32138 0.52274 0.20232 0.0
C762 C 0.34459 0.53066 0.21245 0.0
H763 H 0.37735 0.59988 0.20756 0.0
H764 H 0.37463 0.57047 0.19447 0.0
H765 H 0.34818 0.58329 0.21181 0.0
H766 H 0.32138 0.55106 0.26623 0.0
H767 H 0.28044 0.5366 0.24855 0.0
H768 H 0.48255 0.19193 0.33064 0.0
H769 H 0.49808 0.21062 0.36775 0.0
H770 H 0.5775 0.19828 0.34525 0.0
H771 H 0.56208 0.17991 0.30778 0.0
H772 H 0.52712 0.18756 0.40145 0.0
H773 H 0.57914 0.2668 0.37037 0.0
H774 H 0.55707 0.25043 0.35128 0.0
H775 H 0.58981 0.23918 0.35618 0.0
C776 C 0.50333 0.19366 0.33332 0.0
C777 C 0.52109 0.18444 0.31624 0.0
C778 C 0.51217 0.20428 0.3546 0.0
C779 C 0.53894 0.20592 0.35929 0.0
C780 C 0.55674 0.19761 0.34185 0.0
H781 H 0.61149 0.21911 0.50052 0.0
H782 H 0.59295 0.20395 0.46283 0.0
C783 C 0.5479 0.18711 0.32042 0.0
C784 C 0.54805 0.21458 0.38315 0.0
H785 H 0.58558 0.25626 0.41117 0.0
C786 C 0.5398 0.20267 0.40359 0.0
C787 C 0.56444 0.23438 0.38594 0.0
C788 C 0.57296 0.2486 0.36481 0.0
C789 C 0.54764 0.20988 0.42672 0.0
C790 C 0.56461 0.22926 0.42947 0.0
C791 C 0.57269 0.2413 0.40904 0.0
C792 C 0.574 0.23765 0.45333 0.0
C793 C 0.53727 0.19698 0.448 0.0
C794 C 0.56948 0.26158 0.46058 0.0
C795 C 0.58017 0.2703 0.48199 0.0
C796 C 0.59562 0.25526 0.49664 0.0
C797 C 0.59936 0.23105 0.48982 0.0
C798 C 0.58878 0.22237 0.46826 0.0
H799 H 0.51927 0.18728 0.44335 0.0
H800 H 0.55213 0.18361 0.45417 0.0
H801 H 0.53298 0.20966 0.46308 0.0
H802 H 0.55812 0.27368 0.44937 0.0
H803 H 0.57691 0.28904 0.48671 0.0
H804 H 0.05848 0.29638 0.56686 0.0
H805 H 0.04092 0.30832 0.60641 0.0
H806 H 0.11719 0.29767 0.63799 0.0
H807 H 0.1348 0.28675 0.59887 0.0
H808 H 0.03953 0.28534 0.65076 0.0
H809 H 0.09922 0.3662 0.65777 0.0
H810 H 0.09556 0.34941 0.63009 0.0
H811 H 0.11856 0.3394 0.65257 0.0
C812 C 0.07141 0.29658 0.58229 0.0
C813 C 0.09802 0.29061 0.5797 0.0
C814 C 0.06137 0.30332 0.60488 0.0
C815 C 0.07782 0.30429 0.62518 0.0
C816 C 0.10418 0.29756 0.62261 0.0
H817 H 0.03774 0.31602 0.77781 0.0
H818 H 0.04924 0.30088 0.73749 0.0
C819 C 0.11418 0.29106 0.60018 0.0
C820 C 0.06794 0.31284 0.64899 0.0
H821 H 0.07901 0.3541 0.69361 0.0
C822 C 0.048 0.30048 0.66008 0.0
C823 C 0.07874 0.33279 0.6611 0.0
C824 C 0.09901 0.34787 0.64968 0.0
C825 C 0.03902 0.30721 0.68312 0.0
C826 C 0.05064 0.32655 0.69562 0.0
C827 C 0.07024 0.33911 0.68427 0.0
C828 C 0.04229 0.33487 0.72005 0.0
C829 C 0.01686 0.29384 0.69362 0.0
C830 C 0.03506 0.35906 0.72394 0.0
C831 C 0.02901 0.36774 0.7469 0.0
C832 C 0.02975 0.35245 0.76666 0.0
C833 C 0.03673 0.32816 0.76289 0.0
C834 C 0.04309 0.31947 0.7398 0.0
H835 H 1.00548 0.28438 0.67951 0.0
H836 H 0.02484 0.28019 0.70612 0.0
H837 H 1.00347 0.30615 0.70377 0.0
H838 H 0.03443 0.3714 0.70917 0.0
H839 H 0.02425 0.38665 0.7492 0.0
H840 H 0.96607 0.8697 0.80884 0.0
H841 H 0.95454 0.84895 0.84539 0.0
H842 H 0.03296 0.81973 0.8509 0.0
H843 H 0.04481 0.84098 0.81487 0.0
H844 H 0.95514 0.80287 0.85979 0.0
H845 H 0.02546 0.85463 0.91441 0.0
H846 H 0.01744 0.86196 0.88384 0.0
H847 H 0.04034 0.83787 0.89022 0.0
C848 C 0.98074 0.85857 0.81765 0.0
C849 C 1.00642 0.8572 0.80916 0.0
C850 C 0.97416 0.84677 0.83857 0.0
C851 C 0.99308 0.83331 0.85125 0.0
C852 C 0.01825 0.83061 0.84185 0.0
H853 H 0.95148 0.74384 0.97218 0.0
H854 H 0.96863 0.75727 0.93408 0.0
C855 C 0.02494 0.84263 0.82115 0.0
C856 C 0.98673 0.82294 0.87475 0.0
H857 H 1.00392 0.82376 0.93404 0.0
C858 C 0.96583 0.80737 0.87603 0.0
C859 C 1.00045 0.82915 0.896 0.0
C860 C 0.022 0.84699 0.89618 0.0
C861 C 0.95823 0.79787 0.89795 0.0
C862 C 0.97238 0.8036 0.9191 0.0
C863 C 0.99332 0.81911 0.91779 0.0
C864 C 0.96465 0.79508 0.94301 0.0
C865 C 0.93453 0.78252 0.89835 0.0
C866 C 0.95818 0.81178 0.96124 0.0
C867 C 0.94886 0.80417 0.98318 0.0
C868 C 0.9457 0.77965 0.98733 0.0
C869 C 0.95347 0.76286 0.96951 0.0
C870 C 0.96303 0.77052 0.94761 0.0
H871 H 0.9222 0.78492 0.88206 0.0
H872 H 0.94086 0.76338 0.89904 0.0
H873 H 0.92245 0.78677 0.91435 0.0
H874 H 0.95946 0.83082 0.95818 0.0
H875 H 0.94307 0.81761 0.99646 0.0
H876 H 0.55413 0.69057 0.23188 0.0
H877 H 0.54159 0.70892 0.1939 0.0
H878 H 0.46158 0.71357 0.21659 0.0
H879 H 0.47393 0.69546 0.25474 0.0
H880 H 0.50769 0.68979 0.16066 0.0
H881 H 0.47206 0.78007 0.18996 0.0
H882 H 0.49171 0.76085 0.20902 0.0
H883 H 0.45731 0.75634 0.20578 0.0
C884 C 0.5339 0.69585 0.229 0.0
C885 C 0.51502 0.69151 0.24642 0.0
C886 C 0.52678 0.70631 0.20723 0.0
C887 C 0.5007 0.71285 0.20246 0.0
C888 C 0.48191 0.70914 0.22004 0.0
H889 H 0.40214 0.75173 0.08526 0.0
H890 H 0.42335 0.74205 0.12324 0.0
C891 C 0.48901 0.69867 0.24184 0.0
C892 C 0.4928 0.72177 0.17846 0.0
H893 H 0.46 0.76744 0.15026 0.0
C894 C 0.49759 0.70692 0.15831 0.0
C895 C 0.47966 0.74414 0.17542 0.0
C896 C 0.47509 0.76139 0.19616 0.0
C897 C 0.48855 0.71332 0.13539 0.0
C898 C 0.47471 0.73536 0.13248 0.0
C899 C 0.47061 0.75054 0.15252 0.0
C900 C 0.46247 0.74211 0.10924 0.0
C901 C 0.49281 0.69594 0.11469 0.0
C902 C 0.47743 0.74563 0.08869 0.0
C903 C 0.46527 0.75126 0.0668 0.0
C904 C 0.43801 0.75358 0.06524 0.0
C905 C 0.4232 0.75031 0.08591 0.0
C906 C 0.43529 0.74473 0.10766 0.0
H907 H 0.49923 0.67787 0.1208 0.0
H908 H 0.47469 0.69419 0.10387 0.0
H909 H 0.50809 0.70274 0.10288 0.0
H910 H 0.49848 0.74403 0.08958 0.0
H911 H 0.47713 0.75376 0.05114 0.0
H912 H 0.14228 0.3725 0.3918 0.0
H913 H 0.15759 0.39168 0.35583 0.0
H914 H 0.23306 0.35715 0.36484 0.0
H915 H 0.21804 0.33807 0.40123 0.0
H916 H 0.19991 0.42267 0.35125 0.0
H917 H 0.2128 0.34013 0.29484 0.0
H918 H 0.19413 0.3408 0.3221 0.0
H919 H 0.22907 0.33993 0.3235 0.0
C920 C 0.16226 0.36915 0.38639 0.0
C921 C 0.17893 0.35375 0.39959 0.0
C922 C 0.17091 0.38003 0.36567 0.0
C923 C 0.19635 0.37564 0.35745 0.0
C924 C 0.21318 0.36044 0.37058 0.0
H925 H 0.27235 0.43152 0.23033 0.0
H926 H 0.26308 0.40943 0.26671 0.0
C927 C 0.20455 0.34956 0.39141 0.0
C928 C 0.20518 0.38747 0.3354 0.0
H929 H 0.22417 0.37664 0.27755 0.0
C930 C 0.20528 0.4126 0.33516 0.0
C931 C 0.21235 0.37431 0.31446 0.0
C932 C 0.21195 0.3473 0.31352 0.0
C933 C 0.21217 0.42493 0.31454 0.0
C934 C 0.2186 0.41182 0.29337 0.0
C935 C 0.21914 0.38666 0.29375 0.0
C936 C 0.22384 0.42402 0.27049 0.0
C937 C 0.21266 0.45194 0.31571 0.0
C938 C 0.20463 0.43899 0.2601 0.0
C939 C 0.20982 0.45159 0.23935 0.0
C940 C 0.23432 0.44937 0.22832 0.0
C941 C 0.25325 0.43362 0.23824 0.0
C942 C 0.24801 0.42102 0.2591 0.0
H943 H 0.21479 0.45872 0.33444 0.0
H944 H 0.22886 0.45874 0.30493 0.0
H945 H 0.19406 0.45944 0.30839 0.0
H946 H 0.18562 0.44115 0.26823 0.0
H947 H 0.19466 0.46335 0.23215 0.0
H948 H 0.89228 0.92883 0.63089 0.0
H949 H 0.87648 0.94184 0.59163 0.0
H950 H 0.95483 0.95719 0.57111 0.0
H951 H 0.971 0.94394 0.61047 0.0
H952 H 0.89367 0.99327 0.56802 0.0
H953 H 0.91456 0.90694 0.51928 0.0
H954 H 0.90653 0.90684 0.55071 0.0
H955 H 0.9369 0.91853 0.54152 0.0
C956 C 0.90623 0.93481 0.61801 0.0
C957 C 0.93293 0.93521 0.62378 0.0
C958 C 0.89714 0.94235 0.59565 0.0
C959 C 0.91452 0.95035 0.57852 0.0
C960 C 0.94116 0.95102 0.58415 0.0
H961 H 0.84978 0.97435 0.43271 0.0
H962 H 0.8837 0.97084 0.46417 0.0
C963 C 0.9503 0.94357 0.60664 0.0
C964 C 0.90434 0.95793 0.55486 0.0
H965 H 0.88734 0.93542 0.49982 0.0
C966 C 0.89275 0.98084 0.55289 0.0
C967 C 0.90347 0.94177 0.53513 0.0
C968 C 0.91603 0.91709 0.53651 0.0
C969 C 0.87898 0.98754 0.5321 0.0
C970 C 0.87623 0.97066 0.51307 0.0
C971 C 0.88939 0.94832 0.51442 0.0
C972 C 0.85667 0.97445 0.49364 0.0
C973 C 0.86673 0.01238 0.53104 0.0
C974 C 0.83036 0.97743 0.49975 0.0
C975 C 0.81123 0.9794 0.48202 0.0
C976 C 0.81784 0.97829 0.45766 0.0
C977 C 0.8442 0.9755 0.45136 0.0
C978 C 0.86352 0.97342 0.46928 0.0
H979 H 0.87786 0.02531 0.54217 0.0
H980 H 0.86561 0.01887 0.51236 0.0
H981 H 0.84669 1.01205 0.53826 0.0
H982 H 0.8245 0.97767 0.51835 0.0
H983 H 0.79109 0.98149 0.48747 0.0
H984 H 0.36303 0.58383 0.7052 0.0
H985 H 0.3705 0.60955 0.74051 0.0
H986 H 0.28752 0.61788 0.75049 0.0
H987 H 0.27998 0.59301 0.71477 0.0
H988 H 0.31092 0.65898 0.76001 0.0
H989 H 0.36337 0.58558 0.80756 0.0
H990 H 0.37842 0.5929 0.77987 0.0
H991 H 0.34633 0.58074 0.77959 0.0
C992 C 0.34642 0.59142 0.71478 0.0
C993 C 0.32095 0.58616 0.70747 0.0
C994 C 0.35069 0.60591 0.73507 0.0
C995 C 0.32958 0.61505 0.7486 0.0
C996 C 0.30413 0.61084 0.74052 0.0
H997 H 0.34199 0.66092 0.89816 0.0
H998 H 0.33147 0.6401 0.86042 0.0
C999 C 0.29984 0.59659 0.72011 0.0
C1000 C 0.33389 0.62837 0.77154 0.0
H1001 H 0.36335 0.62397 0.82645 0.0
C1002 C 0.32235 0.65131 0.77456 0.0
C1003 C 0.3483 0.61815 0.79076 0.0
C1004 C 0.35958 0.5929 0.78944 0.0
C1005 C 0.32514 0.66446 0.7961 0.0
C1006 C 0.34052 0.65466 0.81491 0.0
C1007 C 0.35175 0.63159 0.81199 0.0
C1008 C 0.34541 0.66799 0.83774 0.0
C1009 C 0.31108 0.68846 0.79862 0.0
C1010 C 0.35677 0.69057 0.8376 0.0
C1011 C 0.36252 0.70256 0.85911 0.0
C1012 C 0.35747 0.69205 0.88124 0.0
C1013 C 0.34614 0.66944 0.88138 0.0
C1014 C 0.34011 0.65756 0.85984 0.0
H1015 H 0.29402 0.68979 0.78628 0.0
H1016 H 0.30425 0.69174 0.81724 0.0
H1017 H 0.32454 0.70283 0.79399 0.0
H1018 H 0.3618 0.69869 0.82086 0.0
H1019 H 0.37176 0.71973 0.85841 0.0
H1020 H 0.6331 0.10399 0.14335 0.0
H1021 H 0.64959 0.0911 0.10415 0.0
H1022 H 0.58028 0.12036 0.07027 0.0
H1023 H 0.56382 0.13389 0.1095 0.0
H1024 H 0.62606 0.05974 0.06969 0.0
H1025 H 0.64029 0.1507 0.03342 0.0
H1026 H 0.6361 0.14576 0.06501 0.0
H1027 H 0.60863 0.14463 0.04498 0.0
C1028 C 0.62145 0.10798 0.12757 0.0
C1029 C 0.59721 0.1202 0.12963 0.0
C1030 C 0.63083 0.10041 0.10517 0.0
C1031 C 0.61632 0.10496 0.08423 0.0
C1032 C 0.59198 0.11692 0.08614 0.0
H1033 H 0.68071 0.07556 0.93894 0.0
H1034 H 0.64739 0.08461 0.9697 0.0
C1035 C 0.58251 0.12446 0.10862 0.0
C1036 C 0.62693 0.09701 0.06057 0.0
H1037 H 0.65372 0.11779 1.00934 0.0
C1038 C 0.63178 0.07243 0.05636 0.0
C1039 C 0.63415 0.11353 0.04302 0.0
C1040 C 0.62974 0.14016 0.04673 0.0
C1041 C 0.64456 0.064 0.03558 0.0
C1042 C 0.65319 0.0806 0.01872 0.0
C1043 C 0.64706 0.10508 0.02225 0.0
C1044 C 0.67181 0.07332 0.99949 0.0
C1045 C 0.64933 0.03738 0.03212 0.0
C1046 C 0.69642 0.06397 1.006 0.0
C1047 C 0.71528 0.05903 0.98868 0.0
C1048 C 0.71007 0.06332 0.96435 0.0
C1049 C 0.68517 0.072 0.95757 0.0
C1050 C 0.66622 0.07722 0.9751 0.0
H1051 H 0.63456 0.02703 0.04163 0.0
H1052 H 0.649 0.03215 0.01283 0.0
H1053 H 0.66875 0.03233 0.03965 0.0
H1054 H 0.7014 0.0612 0.02467 0.0
H1055 H 0.73427 0.05232 0.99446 0.0
H1056 H 0.70545 0.20244 0.68322 0.0
H1057 H 0.71955 0.18433 0.72101 0.0
H1058 H 0.64549 0.15049 0.7264 0.0
H1059 H 0.63124 0.16851 0.68872 0.0
H1060 H 0.69947 0.18702 0.76729 0.0
H1061 H 0.69695 0.09393 0.7314 0.0
H1062 H 0.69512 0.11968 0.7123 0.0
H1063 H 0.66663 0.11025 0.72767 0.0
C1064 C 0.69203 0.19135 0.69256 0.0
C1065 C 0.66726 0.18679 0.68275 0.0
C1066 C 0.70019 0.18092 0.71414 0.0
C1067 C 0.6838 0.16565 0.72635 0.0
C1068 C 0.65876 0.1617 0.71702 0.0
H1069 H 0.68615 0.08057 0.85285 0.0
H1070 H 0.67597 0.1041 0.8175 0.0
C1071 C 0.65063 0.17204 0.69544 0.0
C1072 C 0.69288 0.15361 0.74867 0.0
H1073 H 0.70166 0.0985 0.77366 0.0
C1074 C 0.70016 0.16766 0.76865 0.0
C1075 C 0.69402 0.12833 0.7504 0.0
C1076 C 0.68802 0.11214 0.72924 0.0
C1077 C 0.70751 0.15713 0.79055 0.0
C1078 C 0.70789 0.13188 0.79243 0.0
C1079 C 0.70121 0.11786 0.77228 0.0
C1080 C 0.71402 0.11946 0.81529 0.0
C1081 C 0.71397 0.1731 0.81173 0.0
C1082 C 0.7388 0.12046 0.82614 0.0
C1083 C 0.74477 0.10694 0.84657 0.0
C1084 C 0.72609 0.09206 0.85641 0.0
C1085 C 0.70111 0.09171 0.84581 0.0
C1086 C 0.69521 0.10517 0.82552 0.0
H1087 H 0.70768 0.19203 0.80879 0.0
H1088 H 0.7046 0.16674 0.82821 0.0
H1089 H 0.73536 0.17253 0.81478 0.0
H1090 H 0.75378 0.13108 0.81838 0.0
H1091 H 0.76423 0.10755 0.85414 0.0
H1092 H 0.23991 0.48502 0.09024 0.0
H1093 H 0.20774 0.47794 0.05882 0.0
H1094 H 0.1552 0.45075 0.11102 0.0
H1095 H 0.18753 0.45856 0.143 0.0
H1096 H 0.19306 0.43223 0.04862 0.0
H1097 H 0.10648 0.49142 0.06735 0.0
H1098 H 0.13818 0.49686 0.08031 0.0
H1099 H 0.11853 0.47374 0.09193 0.0
C1100 C 0.22127 0.47801 0.09515 0.0
C1101 C 0.21625 0.47206 0.11896 0.0
C1102 C 0.20289 0.474 0.07716 0.0
C1103 C 0.17909 0.46372 0.08248 0.0
C1104 C 0.17331 0.45897 0.10652 0.0
H1105 H 0.09815 0.38227 0.97164 0.0
H1106 H 0.11858 0.39552 1.00911 0.0
C1107 C 0.19176 0.46335 0.12476 0.0
C1108 C 0.16229 0.45547 0.06231 0.0
H1109 H 0.10298 0.46362 0.03488 0.0
C1110 C 0.17332 0.43906 0.04568 0.0
C1111 C 0.13665 0.46454 0.05839 0.0
C1112 C 0.12421 0.48276 0.07529 0.0
C1113 C 0.15966 0.4317 0.02512 0.0
C1114 C 0.13387 0.44045 0.0213 0.0
C1115 C 0.12268 0.4568 0.03795 0.0
C1116 C 0.11868 0.43296 0.99979 0.0
C1117 C 0.17333 0.41513 1.00731 0.0
C1118 C 0.11101 0.44974 0.98245 0.0
C1119 C 0.09921 0.4422 0.96096 0.0
C1120 C 0.09498 0.41773 0.95644 0.0
C1121 C 0.10172 0.40116 0.97431 0.0
C1122 C 0.1133 0.40872 0.99578 0.0
H1123 H 0.19482 0.41508 1.00975 0.0
H1124 H 0.16682 0.39657 1.00983 0.0
H1125 H 0.1686 0.42033 0.98862 0.0
H1126 H 0.11495 0.46855 0.98519 0.0
H1127 H 0.09422 0.4554 0.94757 0.0
H1128 H 0.84379 0.96653 0.34268 0.0
H1129 H 0.85457 0.94278 0.30688 0.0
H1130 H 0.78265 0.90547 0.31259 0.0
H1131 H 0.77155 0.92921 0.34866 0.0
H1132 H 0.82875 0.87547 0.30096 0.0
H1133 H 0.81588 0.95396 0.2419 0.0
H1134 H 0.83712 0.95869 0.2672 0.0
H1135 H 0.80319 0.95361 0.27196 0.0
C1136 C 0.83027 0.95317 0.33654 0.0
C1137 C 0.80666 0.94996 0.34853 0.0
C1138 C 0.83646 0.93966 0.31596 0.0
C1139 C 0.81922 0.92266 0.30686 0.0
C1140 C 0.79615 0.91862 0.31926 0.0
H1141 H 0.83085 0.86464 0.16074 0.0
H1142 H 0.81446 0.8818 0.19854 0.0
C1143 C 0.78986 0.93221 0.33989 0.0
C1144 C 0.82513 0.90973 0.28399 0.0
H1145 H 0.83576 0.9189 0.22459 0.0
C1146 C 0.83011 0.88489 0.28421 0.0
C1147 C 0.82652 0.92201 0.26211 0.0
C1148 C 0.82018 0.94851 0.26061 0.0
C1149 C 0.83733 0.87214 0.26321 0.0
C1150 C 0.83988 0.88464 0.24154 0.0
C1151 C 0.83402 0.90935 0.24122 0.0
C1152 C 0.84915 0.87266 0.21906 0.0
C1153 C 0.84208 0.8454 0.2644 0.0
C1154 C 0.87412 0.86182 0.218 0.0
C1155 C 0.88351 0.85191 0.19644 0.0
C1156 C 0.86818 0.85273 0.17542 0.0
C1157 C 0.84305 0.8634 0.17662 0.0
C1158 C 0.8337 0.87334 0.19819 0.0
H1159 H 0.83233 0.83772 0.28008 0.0
H1160 H 0.83503 0.83626 0.24785 0.0
H1161 H 0.8633 0.84154 0.26622 0.0
H1162 H 0.88661 0.86147 0.23373 0.0
H1163 H 0.90284 0.84366 0.19624 0.0
H1164 H 0.36493 0.53591 0.60447 0.0
H1165 H 0.39068 0.54679 0.56977 0.0
H1166 H 0.34398 0.6117 0.56244 0.0
H1167 H 0.31864 0.60136 0.59719 0.0
H1168 H 0.37392 0.55338 0.52382 0.0
H1169 H 0.41653 0.63704 0.55866 0.0
H1170 H 0.4013 0.61601 0.57791 0.0
H1171 H 0.38179 0.63763 0.56158 0.0
C1172 C 0.36037 0.55266 0.59566 0.0
C1173 C 0.33976 0.5678 0.6037 0.0
C1174 C 0.37508 0.55882 0.57581 0.0
C1175 C 0.36955 0.58026 0.56375 0.0
C1176 C 0.34907 0.59539 0.57182 0.0
H1177 H 0.3987 0.64788 0.43191 0.0
H1178 H 0.38338 0.63313 0.47007 0.0
C1179 C 0.33445 0.58933 0.59165 0.0
C1180 C 0.384 0.58631 0.54188 0.0
H1181 H 0.41601 0.63168 0.51573 0.0
C1182 C 0.38354 0.57031 0.52217 0.0
C1183 C 0.39664 0.60836 0.53978 0.0
C1184 C 0.39935 0.62561 0.56071 0.0
C1185 C 0.3942 0.57635 0.50007 0.0
C1186 C 0.40565 0.59887 0.49771 0.0
C1187 C 0.40699 0.61449 0.51761 0.0
C1188 C 0.41503 0.60718 0.4744 0.0
C1189 C 0.39225 0.5591 0.47906 0.0
C1190 C 0.43794 0.59743 0.46427 0.0
C1191 C 0.44696 0.60601 0.44253 0.0
C1192 C 0.43318 0.62449 0.43059 0.0
C1193 C 0.41005 0.63394 0.44078 0.0
C1194 C 0.40116 0.62545 0.46252 0.0
H1195 H 0.3803 0.54343 0.48316 0.0
H1196 H 0.38359 0.56837 0.46332 0.0
H1197 H 0.41206 0.55248 0.47402 0.0
H1198 H 0.44902 0.58345 0.47335 0.0
H1199 H 0.46502 0.59854 0.43539 0.0
H1200 H 0.23584 0.24471 0.51536 0.0
H1201 H 0.26453 0.23395 0.48217 0.0
H1202 H 0.19806 0.2274 0.43502 0.0
H1203 H 0.16886 0.23838 0.46859 0.0
H1204 H 0.26106 0.18888 0.45678 0.0
H1205 H 0.25161 0.26718 0.39649 0.0
H1206 H 0.24339 0.2694 0.42788 0.0
H1207 H 0.22224 0.2543 0.40725 0.0
C1208 C 0.22723 0.24125 0.49789 0.0
C1209 C 0.20006 0.24219 0.49463 0.0
C1210 C 0.24371 0.23512 0.47891 0.0
C1211 C 0.23352 0.22987 0.45611 0.0
C1212 C 0.20638 0.23161 0.45244 0.0
H1213 H 0.32541 0.17705 0.33241 0.0
H1214 H 0.28947 0.19245 0.35742 0.0
C1215 C 0.18972 0.2378 0.4716 0.0
C1216 C 0.25157 0.2208 0.4371 0.0
H1217 H 0.28129 0.23604 0.38515 0.0
C1218 C 0.26531 0.19911 0.44101 0.0
C1219 C 0.257 0.23408 0.41647 0.0
C1220 C 0.24296 0.25761 0.41165 0.0
C1221 C 0.28472 0.1906 0.42524 0.0
C1222 C 0.29104 0.20436 0.40516 0.0
C1223 C 0.27661 0.22562 0.40066 0.0
C1224 C 0.31317 0.19715 0.38927 0.0
C1225 C 0.29838 0.1669 0.43028 0.0
C1226 C 0.33861 0.19536 0.39863 0.0
C1227 C 0.35919 0.18665 0.38441 0.0
C1228 C 0.35488 0.17962 0.36039 0.0
C1229 C 0.32954 0.18243 0.35076 0.0
C1230 C 0.30891 0.19115 0.36505 0.0
H1231 H 0.28664 0.15566 0.44207 0.0
H1232 H 0.30253 0.15672 0.41341 0.0
H1233 H 0.31718 0.17022 0.43955 0.0
H1234 H 0.34248 0.20036 0.41714 0.0
H1235 H 0.37849 0.18522 0.39231 0.0
H1236 H 0.0929 0.12611 0.59518 0.0
H1237 H 0.0759 0.08948 0.61197 0.0
H1238 H 0.12769 0.09654 0.67275 0.0
H1239 H 0.14394 0.13354 0.65673 0.0
H1240 H 0.10109 0.04665 0.62346 0.0
H1241 H 0.05784 0.08928 0.70464 0.0
H1242 H 0.06826 0.10642 0.67954 0.0
H1243 H 0.09159 0.09587 0.70148 0.0
C1244 C 0.10044 0.12004 0.61228 0.0
C1245 C 0.11974 0.1329 0.62463 0.0
C1246 C 0.09083 0.099 0.62175 0.0
C1247 C 0.1002 0.09049 0.64381 0.0
C1248 C 0.11976 0.10302 0.65594 0.0
H1249 H 0.08898 0.97117 0.73559 0.0
H1250 H 0.0999 1.00635 0.71297 0.0
C1251 C 0.12931 0.12405 0.64656 0.0
C1252 C 0.0899 0.06835 0.65414 0.0
H1253 H 0.06347 0.04657 0.70499 0.0
C1254 C 0.09254 0.04664 0.64115 0.0
C1255 C 0.07856 0.06841 0.67716 0.0
C1256 C 0.07363 0.09128 0.69142 0.0
C1257 C 0.08527 0.02484 0.65105 0.0
C1258 C 0.07497 0.02485 0.67445 0.0
C1259 C 0.07156 0.04663 0.6871 0.0
C1260 C 0.06898 1.0024 0.6868 0.0
C1261 C 0.08956 1.00184 0.63689 0.0
C1262 C 0.04804 0.98833 0.67943 0.0
C1263 C 0.04164 0.96806 0.69241 0.0
C1264 C 0.05606 0.96159 0.71298 0.0
C1265 C 0.0774 0.9755 0.71986 0.0
C1266 C 0.08368 0.99571 0.70699 0.0
H1267 H 0.10114 1.0045 0.62048 0.0
H1268 H 0.09973 0.98819 0.64809 0.0
H1269 H 0.07043 0.99466 0.63143 0.0
H1270 H 0.03629 0.99333 0.66401 0.0
H1271 H 0.02522 0.95773 0.6865 0.0
H1272 H 0.15106 0.84837 0.88394 0.0
H1273 H 0.18806 0.83239 0.90718 0.0
H1274 H 0.23904 0.84413 0.84787 0.0
H1275 H 0.20226 0.8607 0.8247 0.0
H1276 H 0.22411 0.79352 0.8971 0.0
H1277 H 0.27286 0.88119 0.90419 0.0
H1278 H 0.23927 0.87877 0.89491 0.0
H1279 H 0.26494 0.87077 0.87442 0.0
C1280 C 0.17014 0.84759 0.87583 0.0
C1281 C 0.17368 0.856 0.8525 0.0
C1282 C 0.19125 0.83832 0.88908 0.0
C1283 C 0.21638 0.83739 0.87939 0.0
C1284 C 0.21988 0.845 0.85584 0.0
H1285 H 0.36177 0.80421 0.95988 0.0
H1286 H 0.33196 0.8114 0.92576 0.0
C1287 C 0.19876 0.85423 0.84253 0.0
C1288 C 0.23888 0.82905 0.89431 0.0
H1289 H 0.29337 0.84855 0.92342 0.0
C1290 C 0.23938 0.80549 0.90268 0.0
C1291 C 0.25892 0.84462 0.90144 0.0
C1292 C 0.25904 0.87031 0.89347 0.0
C1293 C 0.25904 0.79725 0.91844 0.0
C1294 C 0.27842 0.81313 0.9264 0.0
C1295 C 0.27854 0.83638 0.91726 0.0
C1296 C 0.29685 0.80689 0.94617 0.0
C1297 C 0.25871 0.77166 0.92664 0.0
C1298 C 0.28704 0.80203 0.96888 0.0
C1299 C 0.3039 0.79803 0.98822 0.0
C1300 C 0.331 0.79889 0.98536 0.0
C1301 C 0.34097 0.80333 0.96255 0.0
C1302 C 0.32398 0.80748 0.9431 0.0
H1303 H 0.24844 0.76003 0.91349 0.0
H1304 H 0.27878 0.76424 0.92944 0.0
H1305 H 0.24821 0.77103 0.94389 0.0
H1306 H 0.26623 0.80199 0.97183 0.0
H1307 H 0.29564 0.79467 1.00558 0.0
H1308 H 0.51368 0.0702 0.20377 0.0
H1309 H 0.50138 0.0346 0.18061 0.0
H1310 H 0.42109 0.04723 0.20025 0.0
H1311 H 0.43321 0.0825 0.22377 0.0
H1312 H 0.43738 1.00154 0.20826 0.0
H1313 H 0.46422 0.02728 0.1164 0.0
H1314 H 0.49027 0.02975 0.13789 0.0
H1315 H 0.46157 0.04873 0.1409 0.0
C1316 C 0.49335 0.06559 0.20292 0.0
C1317 C 0.47445 0.07918 0.2157 0.0
C1318 C 0.48633 0.04529 0.18955 0.0
C1319 C 0.46026 0.03839 0.18848 0.0
C1320 C 0.44131 0.05224 0.20078 0.0
H1321 H 0.39044 0.92861 0.09831 0.0
H1322 H 0.40471 0.96632 0.11654 0.0
C1323 C 0.4483 0.07242 0.21423 0.0
C1324 C 0.45286 0.01588 0.17596 0.0
H1325 H 0.45347 0.9865 0.12174 0.0
C1326 C 0.44083 0.99829 0.18932 0.0
C1327 C 0.45713 1.01176 0.1512 0.0
C1328 C 0.46878 0.03045 0.13567 0.0
C1329 C 0.43316 0.97663 0.1787 0.0
C1330 C 0.4382 0.97217 0.15412 0.0
C1331 C 0.44992 0.98985 0.14064 0.0
C1332 C 0.43093 0.94939 0.14208 0.0
C1333 C 0.41927 0.95893 0.19382 0.0
C1334 C 0.44144 0.92741 0.14999 0.0
C1335 C 0.43329 0.90587 0.13967 0.0
C1336 C 0.41467 0.9059 0.12104 0.0
C1337 C 0.40491 0.92799 0.11254 0.0
C1338 C 0.41299 0.94954 0.12297 0.0
H1339 H 0.41083 0.96761 0.21016 0.0
H1340 H 0.40339 0.95032 0.18349 0.0
H1341 H 0.43335 0.94471 0.19961 0.0
H1342 H 0.45578 0.9269 0.16433 0.0
H1343 H 0.44155 0.88917 0.1463 0.0
H1344 H 0.86455 0.35557 0.73278 0.0
H1345 H 0.82758 0.33881 0.71109 0.0
H1346 H 0.82013 0.40278 0.66912 0.0
H1347 H 0.85655 0.42011 0.69135 0.0
H1348 H 0.77226 0.38559 0.68472 0.0
H1349 H 0.83339 0.31338 0.64197 0.0
H1350 H 0.8352 0.31451 0.67412 0.0
H1351 H 0.84717 0.33891 0.65719 0.0
C1352 C 0.85476 0.3663 0.71926 0.0
C1353 C 0.86359 0.38916 0.71372 0.0
C1354 C 0.83384 0.35655 0.70668 0.0
C1355 C 0.8215 0.36937 0.68821 0.0
C1356 C 0.82959 0.39252 0.6832 0.0
H1357 H 0.70377 0.34427 0.58045 0.0
H1358 H 0.7365 0.36078 0.60753 0.0
C1359 C 0.85048 0.40233 0.6958 0.0
C1360 C 0.80051 0.35846 0.67373 0.0
H1361 H 0.78802 0.31226 0.6348 0.0
C1362 C 0.77566 0.36956 0.6738 0.0
C1363 C 0.80509 0.33755 0.65952 0.0
C1364 C 0.83169 0.32546 0.65795 0.0
C1365 C 0.75516 0.36018 0.66011 0.0
C1366 C 0.7598 0.3394 0.64577 0.0
C1367 C 0.78455 0.32815 0.64591 0.0
C1368 C 0.73949 0.32949 0.6298 0.0
C1369 C 0.72864 0.37245 0.66126 0.0
C1370 C 0.73075 0.30621 0.63308 0.0
C1371 C 0.71208 0.29662 0.61756 0.0
C1372 C 0.70204 0.3101 0.59833 0.0
C1373 C 0.71102 0.33339 0.59507 0.0
C1374 C 0.7296 0.34295 0.61063 0.0
H1375 H 0.72659 0.38413 0.6775 0.0
H1376 H 0.72578 0.38385 0.64532 0.0
H1377 H 0.71299 0.35912 0.6612 0.0
H1378 H 0.73833 0.2955 0.6477 0.0
H1379 H 0.70564 0.27863 0.62059 0.0
H1380 H 0.00853 0.44258 0.86593 0.0
H1381 H 1.00086 0.47768 0.89199 0.0
H1382 H 0.91837 0.47436 0.87761 0.0
H1383 H 0.92592 0.43862 0.85232 0.0
H1384 H 0.98193 0.51976 0.87763 0.0
H1385 H 0.91797 0.48742 0.94864 0.0
H1386 H 0.93576 0.46723 0.92871 0.0
H1387 H 0.90542 0.48109 0.91918 0.0
C1388 C 0.98868 0.4488 0.86903 0.0
C1389 C 0.96781 0.43765 0.85729 0.0
C1390 C 0.98432 0.46905 0.88374 0.0
C1391 C 0.959 0.47866 0.88699 0.0
C1392 C 0.93802 0.46705 0.8759 0.0
H1393 H 0.91652 0.62711 0.91778 0.0
H1394 H 0.92781 0.58811 0.89965 0.0
C1395 C 0.94237 0.44665 0.86133 0.0
C1396 C 0.95488 0.50196 0.90008 0.0
H1397 H 0.91952 0.53002 0.9445 0.0
C1398 C 0.96846 0.52191 0.89241 0.0
C1399 C 0.93754 0.50484 0.91956 0.0
C1400 C 0.92355 0.48395 0.92968 0.0
C1401 C 0.96469 0.54467 0.9032 0.0
C1402 C 0.94638 0.54779 0.92186 0.0
C1403 C 0.93334 0.52773 0.93001 0.0
C1404 C 0.94015 0.57175 0.9329 0.0
C1405 C 0.98061 0.56509 0.89461 0.0
C1406 C 0.94285 0.57555 0.95772 0.0
C1407 C 0.93605 0.59781 0.96823 0.0
C1408 C 0.92624 0.61677 0.95415 0.0
C1409 C 0.92381 0.61293 0.92924 0.0
C1410 C 0.93055 0.59067 0.91877 0.0
H1411 H 0.99887 0.55846 0.88591 0.0
H1412 H 0.96912 0.57538 0.88115 0.0
H1413 H 0.98573 0.57745 0.90962 0.0
H1414 H 0.95006 0.5612 0.96903 0.0
H1415 H 0.93778 0.59991 0.9875 0.0
H1416 H 0.82703 0.7097 0.07538 0.0
H1417 H 0.79188 0.70162 0.10279 0.0
H1418 H 0.8105 0.76438 0.14495 0.0
H1419 H 0.8462 0.77252 0.1177 0.0
H1420 H 0.80203 0.72402 0.1725 0.0
H1421 H 0.72183 0.73809 0.10688 0.0
H1422 H 0.74644 0.71719 0.09621 0.0
H1423 H 0.75447 0.74796 0.10182 0.0
C1424 C 0.82377 0.72186 0.09045 0.0
C1425 C 0.83941 0.74191 0.09418 0.0
C1426 C 0.80348 0.71728 0.10603 0.0
C1427 C 0.7982 0.73268 0.1256 0.0
C1428 C 0.81408 0.75241 0.12978 0.0
H1429 H 0.65469 0.71354 0.20698 0.0
H1430 H 0.68946 0.73225 0.18472 0.0
C1431 C 0.83446 0.75704 0.11416 0.0
C1432 C 0.77646 0.72763 0.14191 0.0
H1433 H 0.71137 0.71679 0.14232 0.0
C1434 C 0.78214 0.72274 0.166 0.0
C1435 C 0.75043 0.7264 0.13354 0.0
C1436 C 0.74283 0.73293 0.10825 0.0
C1437 C 0.76271 0.71543 0.18161 0.0
C1438 C 0.73704 0.71258 0.17277 0.0
C1439 C 0.73111 0.71869 0.14902 0.0
C1440 C 0.71646 0.70193 0.18738 0.0
C1441 C 0.76992 0.71064 0.20738 0.0
C1442 C 0.72002 0.67865 0.1961 0.0
C1443 C 0.70031 0.668 0.20886 0.0
C1444 C 0.67643 0.68029 0.213 0.0
C1445 C 0.67292 0.70368 0.20431 0.0
C1446 C 0.69271 0.71435 0.1915 0.0
H1447 H 0.78728 0.72078 0.21309 0.0
H1448 H 0.75357 0.7155 0.21956 0.0
H1449 H 0.77476 0.69127 0.20934 0.0
H1450 H 0.73794 0.66852 0.1927 0.0
H1451 H 0.70384 0.65009 0.21553 0.0
H1452 H 0.56406 0.4276 0.47954 0.0
H1453 H 0.55006 0.46365 0.45786 0.0
H1454 H 0.62322 0.46254 0.42061 0.0
H1455 H 0.6374 0.42681 0.44218 0.0
H1456 H 0.5724 0.50872 0.45629 0.0
H1457 H 0.57053 0.46658 0.36578 0.0
H1458 H 0.57206 0.44924 0.39276 0.0
H1459 H 0.60108 0.46182 0.38103 0.0
C1460 C 0.57719 0.43504 0.46675 0.0
C1461 C 0.60177 0.42405 0.46245 0.0
C1462 C 0.56911 0.45563 0.45432 0.0
C1463 C 0.58538 0.46559 0.43726 0.0
C1464 C 0.61002 0.45486 0.4332 0.0
H1465 H 0.59244 0.58554 0.3445 0.0
H1466 H 0.59928 0.55064 0.36959 0.0
C1467 C 0.61809 0.43433 0.44555 0.0
C1468 C 0.57702 0.48746 0.42397 0.0
H1469 H 0.56963 0.50937 0.36746 0.0
C1470 C 0.57147 0.50883 0.43688 0.0
C1471 C 0.57567 0.4876 0.39863 0.0
C1472 C 0.57989 0.46503 0.38373 0.0
C1473 C 0.56581 0.5305 0.42509 0.0
C1474 C 0.56539 0.53075 0.39974 0.0
C1475 C 0.57015 0.50924 0.38689 0.0
C1476 C 0.56133 0.55322 0.386 0.0
C1477 C 0.56135 0.55313 0.43982 0.0
C1478 C 0.53773 0.56658 0.38702 0.0
C1479 C 0.53371 0.58676 0.37262 0.0
C1480 C 0.55317 0.59386 0.35683 0.0
C1481 C 0.57695 0.58069 0.35635 0.0
C1482 C 0.58093 0.56063 0.37069 0.0
H1483 H 0.56757 0.55087 0.45878 0.0
H1484 H 0.57205 0.56818 0.43218 0.0
H1485 H 0.54028 0.5581 0.43957 0.0
H1486 H 0.52215 0.56103 0.39842 0.0
H1487 H 0.51512 0.59634 0.3734 0.0
H1488 H 0.344 0.35963 0.22383 0.0
H1489 H 0.36122 0.31929 0.23261 0.0
H1490 H 0.3827 0.30917 0.15854 0.0
H1491 H 0.36582 0.34948 0.14971 0.0
H1492 H 0.34996 0.27379 0.21475 0.0
H1493 H 0.45136 0.29697 0.19354 0.0
H1494 H 0.42562 0.31938 0.19707 0.0
H1495 H 0.42882 0.30257 0.1694 0.0
C1496 C 0.3522 0.34871 0.20938 0.0
C1497 C 0.35387 0.35784 0.18614 0.0
C1498 C 0.36205 0.32569 0.21444 0.0
C1499 C 0.37371 0.3114 0.19634 0.0
C1500 C 0.3744 0.32011 0.17292 0.0
H1501 H 0.45864 0.17559 0.19017 0.0
H1502 H 0.43115 0.21078 0.18088 0.0
C1503 C 0.36475 0.34314 0.1679 0.0
C1504 C 0.38588 0.2877 0.20201 0.0
H1505 H 0.44362 0.25595 0.19986 0.0
C1506 C 0.37045 0.26987 0.21158 0.0
C1507 C 0.41267 0.28268 0.19803 0.0
C1508 C 0.43066 0.30147 0.18918 0.0
C1509 C 0.38101 0.24697 0.21671 0.0
C1510 C 0.40768 0.24191 0.21232 0.0
C1511 C 0.42309 0.25979 0.20295 0.0
C1512 C 0.42045 0.21842 0.21768 0.0
C1513 C 0.3635 0.22826 0.22637 0.0
C1514 C 0.42299 0.21066 0.24141 0.0
C1515 C 0.4387 0.19052 0.24676 0.0
C1516 C 0.45225 0.17797 0.22848 0.0
C1517 C 0.44848 0.18495 0.20462 0.0
C1518 C 0.43282 0.20507 0.19929 0.0
H1519 H 0.34259 0.23298 0.22331 0.0
H1520 H 0.36792 0.21045 0.21797 0.0
H1521 H 0.36682 0.22678 0.24597 0.0
H1522 H 0.41396 0.22087 0.25593 0.0
H1523 H 0.44128 0.18554 0.26532 0.0
H1524 H 0.93163 0.33844 0.79495 0.0
H1525 H 0.90528 0.30382 0.80408 0.0
H1526 H 0.9436 0.29797 0.87286 0.0
H1527 H 0.96948 0.33253 0.86419 0.0
H1528 H 0.92107 0.25754 0.81373 0.0
H1529 H 0.86799 0.29618 0.89166 0.0
H1530 H 0.88578 0.31438 0.87141 0.0
H1531 H 0.90254 0.29869 0.89518 0.0
C1532 C 0.93425 0.32992 0.81211 0.0
C1533 C 0.95259 0.33842 0.82888 0.0
C1534 C 0.9192 0.31011 0.81729 0.0
C1535 C 0.92209 0.29854 0.83935 0.0
C1536 C 0.94048 0.30694 0.856 0.0
H1537 H 0.8835 0.16958 0.90839 0.0
H1538 H 0.90074 0.20695 0.89403 0.0
C1539 C 0.95542 0.3267 0.8509 0.0
C1540 C 0.90687 0.27704 0.84481 0.0
H1541 H 0.86899 0.25316 0.88785 0.0
C1542 C 0.90931 0.2567 0.82971 0.0
C1543 C 0.89141 0.27595 0.86563 0.0
C1544 C 0.88654 0.29756 0.88175 0.0
C1545 C 0.89779 0.23501 0.83552 0.0
C1546 C 0.88342 0.23369 0.8569 0.0
C1547 C 0.88021 0.2542 0.87156 0.0
C1548 C 0.87277 0.21084 0.8651 0.0
C1549 C 0.90189 0.21335 0.81934 0.0
C1550 C 0.85121 0.20068 0.85363 0.0
C1551 C 0.84098 0.1794 0.86201 0.0
C1552 C 0.85218 0.16787 0.88203 0.0
C1553 C 0.87399 0.17811 0.89326 0.0
C1554 C 0.88403 0.19941 0.88497 0.0
H1555 H 0.9159 0.21661 0.80479 0.0
H1556 H 0.90917 0.19783 0.8299 0.0
H1557 H 0.88301 0.20842 0.81107 0.0
H1558 H 0.84208 0.20938 0.83839 0.0
H1559 H 0.824 0.17227 0.85309 0.0
H1560 H 0.08067 0.55568 0.1212 0.0
H1561 H 0.04557 0.58021 0.10344 0.0
H1562 H 0.09717 0.63949 0.09906 0.0
H1563 H 0.13227 0.61525 0.11714 0.0
H1564 H 0.02516 0.62314 0.12327 0.0
H1565 H 0.06312 0.63744 0.03221 0.0
H1566 H 0.07574 0.61399 0.05135 0.0
H1567 H 0.08598 0.64431 0.0557 0.0
C1568 C 0.08463 0.57391 0.11637 0.0
C1569 C 0.10934 0.5835 0.12071 0.0
C1570 C 0.06455 0.58786 0.1061 0.0
C1571 C 0.06879 0.6116 0.09969 0.0
C1572 C 0.09359 0.62105 0.10339 0.0
H1573 H 0.989 0.74002 0.06202 0.0
H1574 H 0.0185 0.70602 0.06953 0.0
C1575 C 0.11367 0.60714 0.11372 0.0
C1576 C 0.04686 0.6271 0.09086 0.0
H1577 H 0.02824 0.66379 0.04511 0.0
C1578 C 0.02558 0.63176 0.10602 0.0
C1579 C 0.04744 0.63825 0.06833 0.0
C1580 C 0.06917 0.6331 0.05084 0.0
C1581 C 1.0056 0.64832 0.09986 0.0
C1582 C 1.00664 0.66015 0.07768 0.0
C1583 C 0.02741 0.65472 0.0621 0.0
C1584 C 0.98811 0.6801 0.0715 0.0
C1585 C 0.98433 0.65396 0.11774 0.0
C1586 C 0.96109 0.67684 0.0696 0.0
C1587 C 0.94401 0.69646 0.06547 0.0
C1588 C 0.95379 0.71953 0.06299 0.0
C1589 C 0.98084 0.72249 0.06402 0.0
C1590 C 0.99778 0.70303 0.06822 0.0
H1591 H 0.98916 0.64683 0.13575 0.0
H1592 H 0.98069 0.67361 0.11948 0.0
H1593 H 0.96603 0.64572 0.11145 0.0
H1594 H 0.9532 0.65922 0.07159 0.0
H1595 H 0.92325 0.69367 0.06469 0.0
H1596 H 0.65537 0.87911 0.34863 0.0
H1597 H 0.64019 0.83946 0.33697 0.0
H1598 H 0.70122 0.80648 0.37964 0.0
H1599 H 0.71607 0.84617 0.39206 0.0
H1600 H 0.66566 0.80057 0.31359 0.0
H1601 H 0.63544 0.77656 0.40543 0.0
H1602 H 0.64295 0.80681 0.39768 0.0
H1603 H 0.66873 0.78493 0.40222 0.0
C1604 C 0.66549 0.86346 0.35572 0.0
C1605 C 0.68679 0.86593 0.37153 0.0
C1606 C 0.6569 0.84077 0.34886 0.0
C1607 C 0.6693 0.81995 0.35768 0.0
C1608 C 0.69105 0.82226 0.3729 0.0
H1609 H 0.6032 0.67546 0.33946 0.0
H1610 H 0.63686 0.70548 0.34706 0.0
C1611 C 0.69969 0.845 0.37979 0.0
C1612 C 0.65888 0.79603 0.35123 0.0
H1613 H 0.62704 0.74884 0.37442 0.0
C1614 C 0.65752 0.78912 0.32694 0.0
C1615 C 0.64842 0.78094 0.36864 0.0
C1616 C 0.64871 0.78765 0.39495 0.0
C1617 C 0.64518 0.76805 0.31954 0.0
C1618 C 0.63352 0.75364 0.33682 0.0
C1619 C 0.63609 0.75984 0.3612 0.0
C1620 C 0.61532 0.73441 0.32986 0.0
C1621 C 0.64414 0.76166 0.29318 0.0
C1622 C 0.59229 0.74063 0.31753 0.0
C1623 C 0.57318 0.72376 0.31347 0.0
C1624 C 0.57663 0.70019 0.32155 0.0
C1625 C 0.60016 0.69349 0.33294 0.0
C1626 C 0.61929 0.71061 0.33734 0.0
H1627 H 0.66066 0.76935 0.28348 0.0
H1628 H 0.64453 0.74193 0.29019 0.0
H1629 H 0.62581 0.76918 0.28533 0.0
H1630 H 0.58853 0.7589 0.31195 0.0
H1631 H 0.55525 0.72941 0.30459 0.0
H1632 H 0.58713 0.32929 0.54618 0.0
H1633 H 0.55218 0.35868 0.55561 0.0
H1634 H 0.56382 0.34614 0.63102 0.0
H1635 H 0.59876 0.31681 0.62174 0.0
H1636 H 0.51168 0.34078 0.61357 0.0
H1637 H 0.55348 0.42707 0.58676 0.0
H1638 H 0.55588 0.40277 0.56522 0.0
H1639 H 0.57351 0.40076 0.59304 0.0
C1640 C 0.58253 0.33313 0.56477 0.0
C1641 C 0.59555 0.32076 0.58326 0.0
C1642 C 0.56264 0.34997 0.57012 0.0
C1643 C 0.55556 0.35465 0.59401 0.0
C1644 C 0.56908 0.3428 0.61248 0.0
H1645 H 0.44544 0.45049 0.66509 0.0
H1646 H 0.48417 0.42773 0.65132 0.0
C1647 C 0.589 0.32608 0.60716 0.0
C1648 C 0.53267 0.37031 0.59978 0.0
H1649 H 0.50922 0.42816 0.59858 0.0
C1650 C 0.51112 0.35987 0.61028 0.0
C1651 C 0.53209 0.39519 0.59543 0.0
C1652 C 0.555 0.40726 0.58465 0.0
C1653 C 0.48894 0.37368 0.61656 0.0
C1654 C 0.48832 0.39852 0.61221 0.0
C1655 C 0.50982 0.40904 0.60173 0.0
C1656 C 0.46565 0.4138 0.61927 0.0
C1657 C 0.46635 0.36177 0.6281 0.0
C1658 C 0.44263 0.41363 0.60558 0.0
C1659 C 0.42051 0.42659 0.61337 0.0
C1660 C 0.42105 0.43975 0.63507 0.0
C1661 C 0.44437 0.44027 0.64845 0.0
C1662 C 0.46653 0.42746 0.64054 0.0
H1663 H 0.47089 0.34273 0.63233 0.0
H1664 H 0.46081 0.37152 0.64489 0.0
H1665 H 0.44924 0.36249 0.61582 0.0
H1666 H 0.44166 0.40308 0.58913 0.0
H1667 H 0.40277 0.4257 0.60279 0.0
H1668 H 0.16639 0.67827 0.69837 0.0
H1669 H 0.14378 0.71469 0.71312 0.0
H1670 H 0.21605 0.75209 0.71346 0.0
H1671 H 0.23891 0.71567 0.69891 0.0
H1672 H 0.15266 0.74496 0.75492 0.0
H1673 H 0.16723 0.79224 0.66922 0.0
H1674 H 0.17195 0.76021 0.67167 0.0
H1675 H 0.1959 0.77999 0.68373 0.0
C1676 C 0.17759 0.69409 0.70198 0.0
C1677 C 0.20443 0.69409 0.69723 0.0
C1678 C 0.16461 0.71494 0.71032 0.0
C1679 C 0.17816 0.73619 0.714 0.0
C1680 C 0.20513 0.73601 0.71027 0.0
H1681 H 0.10101 0.87843 0.73688 0.0
H1682 H 0.13634 0.84766 0.73476 0.0
C1683 C 0.21814 0.71518 0.70194 0.0
C1684 C 0.16373 0.75866 0.7208 0.0
H1685 H 0.14257 0.81258 0.69877 0.0
C1686 C 0.15068 0.75987 0.74277 0.0
C1687 C 0.16141 0.77821 0.70503 0.0
C1688 C 0.17468 0.7777 0.68101 0.0
C1689 C 0.1347 0.77978 0.74907 0.0
C1690 C 0.13121 0.79872 0.73272 0.0
C1691 C 0.14529 0.79806 0.71128 0.0
C1692 C 0.11061 0.81765 0.73604 0.0
C1693 C 0.12134 0.78017 0.77304 0.0
C1694 C 0.08456 0.81101 0.73731 0.0
C1695 C 0.0646 0.82839 0.73849 0.0
C1696 C 0.07016 0.85287 0.73829 0.0
C1697 C 0.09623 0.85968 0.73726 0.0
C1698 C 0.11636 0.84215 0.736 0.0
H1699 H 0.13257 0.76937 0.78632 0.0
H1700 H 0.1187 0.79875 0.78021 0.0
H1701 H 0.10188 0.77223 0.77094 0.0
H1702 H 0.07956 0.79229 0.73674 0.0
H1703 H 0.04468 0.82258 0.73923 0.0
H1704 H 0.43784 0.85168 0.03936 0.0
H1705 H 0.47276 0.87941 0.03123 0.0
H1706 H 0.49117 0.84001 0.96617 0.0
H1707 H 0.45665 0.81228 0.97407 0.0
H1708 H 0.53499 0.84988 0.99584 0.0
H1709 H 0.47305 0.93133 0.97882 0.0
H1710 H 0.46765 0.9161 1.00639 0.0
H1711 H 0.46011 0.90159 0.97834 0.0
C1712 C 0.4492 0.84901 0.02324 0.0
C1713 C 0.44431 0.82975 1.00734 0.0
C1714 C 0.46912 0.86492 0.0186 0.0
C1715 C 0.48445 0.86186 0.99801 0.0
C1716 C 0.47958 0.84271 0.98217 0.0
H1717 H 0.58311 0.94899 0.91682 0.0
H1718 H 0.54887 0.92565 0.93435 0.0
C1719 C 0.45972 0.82689 0.98671 0.0
C1720 C 0.50592 0.87821 0.99284 0.0
H1721 H 0.51841 0.93513 0.97559 0.0
C1722 C 0.53145 0.8686 0.99166 0.0
C1723 C 0.50117 0.90255 0.98723 0.0
C1724 C 0.47403 0.9136 0.98755 0.0
C1725 C 0.55227 0.88251 0.9845 0.0
C1726 C 0.54749 0.9068 0.97861 0.0
C1727 C 0.52205 0.91655 0.98028 0.0
C1728 C 0.56818 0.92173 0.96871 0.0
C1729 C 0.57903 0.87086 0.98229 0.0
C1730 C 0.59033 0.92756 0.98232 0.0
C1731 C 0.61013 0.94082 0.97225 0.0
C1732 C 0.60812 0.94844 0.94838 0.0
C1733 C 0.58558 0.94299 0.93507 0.0
C1734 C 0.56585 0.92983 0.94514 0.0
H1735 H 0.57847 0.85101 0.98318 0.0
H1736 H 0.58816 0.8757 0.96515 0.0
H1737 H 0.59161 0.87735 0.99717 0.0
H1738 H 0.59237 0.92175 1.00066 0.0
H1739 H 0.62722 0.94469 0.98298 0.0
H1740 H 0.91835 0.12244 0.42328 0.0
H1741 H 0.95308 0.14662 0.44024 0.0
H1742 H 0.96024 0.0992 0.50018 0.0
H1743 H 0.92519 0.07498 0.48348 0.0
H1744 H 0.95632 0.17073 0.48469 0.0
H1745 H 0.03521 0.10103 0.47544 0.0
H1746 H 1.00415 0.09861 0.46033 0.0
H1747 H 0.00708 0.09229 0.4917 0.0
C1748 C 0.927 0.11725 0.44023 0.0
C1749 C 0.91885 0.09666 0.45196 0.0
C1750 C 0.94704 0.13105 0.44983 0.0
C1751 C 0.95959 0.12456 0.4713 0.0
C1752 C 0.95126 0.10429 0.48332 0.0
H1753 H 0.09167 0.19231 0.54535 0.0
H1754 H 0.05568 0.16588 0.53512 0.0
C1755 C 0.93117 0.09046 0.47374 0.0
C1756 C 0.9812 0.13924 0.48103 0.0
H1757 H 0.04654 0.13782 0.49364 0.0
C1758 C 0.97602 0.1635 0.4867 0.0
C1759 C 1.00692 0.12979 0.48382 0.0
C1760 C 0.01386 0.10406 0.47735 0.0
C1761 C 0.99581 0.17858 0.49491 0.0
C1762 C 0.02167 0.16933 0.49705 0.0
C1763 C 0.02675 0.14492 0.49197 0.0
C1764 C 0.04383 0.18503 0.50328 0.0
C1765 C 0.98876 0.20431 0.50132 0.0
C1766 C 0.04953 0.20426 0.48856 0.0
C1767 C 0.07 0.21936 0.49433 0.0
C1768 C 0.08548 0.21555 0.51495 0.0
C1769 C 0.08013 0.19591 0.52943 0.0
C1770 C 0.05956 0.18075 0.52359 0.0
H1771 H 0.96777 0.20663 0.50569 0.0
H1772 H 1.00047 0.21075 0.51685 0.0
H1773 H 0.99273 0.21575 0.4858 0.0
H1774 H 0.03813 0.20762 0.47248 0.0
H1775 H 0.07355 0.23414 0.4826 0.0
loop_
_geom_bond_atom_site_label_1
_geom_bond_atom_site_label_2
_geom_bond_distance
_geom_bond_site_symmetry_2
_ccdc_geom_bond_type
Tb0 C2 2.809 . S
Tb0 O20 2.484 . S
Tb0 O21 2.440 . S
Tb0 O22 2.658 . S
Tb0 O23 2.409 . S
Tb0 O24 2.378 . S
Tb0 O28 2.325 . S
Tb0 O31 2.341 . S
Tb1 C11 2.809 . S
Tb1 O22 2.325 . S
Tb1 O25 2.341 . S
Tb1 O26 2.484 . S
Tb1 O27 2.440 . S
Tb1 O28 2.658 . S
Tb1 O29 2.409 . S
Tb1 O30 2.378 . S
C2 Tb0 2.809 . S
C2 C3 1.514 . S
C2 O20 1.248 . S
C2 O21 1.266 . S
C3 C2 1.514 . S
C3 C4 1.359 . S
C3 C8 1.348 . S
C4 C3 1.359 . S
C4 C5 1.380 . S
C4 H32 0.929 . S
C5 C4 1.380 . S
C5 C6 1.347 . S
C5 H33 0.931 . S
C6 C5 1.347 . S
C6 C7 1.369 . S
C7 C6 1.369 . S
C7 C8 1.408 . S
C7 H34 0.930 . S
C8 C3 1.348 . S
C8 C7 1.408 . S
C8 H35 0.930 . S
C9 O22 1.281 . S
C9 O23 1.254 . S
C10 O24 1.236 . S
C10 O25 1.266 . S
C11 Tb1 2.809 . S
C11 C12 1.514 . S
C11 O26 1.248 . S
C11 O27 1.266 . S
C12 C11 1.514 . S
C12 C13 1.359 . S
C12 C17 1.348 . S
C13 C12 1.359 . S
C13 C14 1.380 . S
C13 H36 0.929 . S
C14 C13 1.380 . S
C14 C15 1.347 . S
C14 H37 0.931 . S
C15 C14 1.347 . S
C15 C16 1.369 . S
C16 C15 1.369 . S
C16 C17 1.408 . S
C16 H38 0.930 . S
C17 C12 1.348 . S
C17 C16 1.408 . S
C17 H39 0.930 . S
C18 O28 1.281 . S
C18 O29 1.254 . S
C19 O30 1.236 . S
C19 O31 1.266 . S
O20 Tb0 2.484 . S
O20 C2 1.248 . S
O21 Tb0 2.440 . S
O21 C2 1.266 . S
O22 Tb0 2.658 . S
O22 Tb1 2.325 . S
O22 C9 1.281 . S
O23 Tb0 2.409 . S
O23 C9 1.254 . S
O24 Tb0 2.378 . S
O24 C10 1.236 . S
O25 Tb1 2.341 . S
O25 C10 1.266 . S
O26 Tb1 2.484 . S
O26 C11 1.248 . S
O27 Tb1 2.440 . S
O27 C11 1.266 . S
O28 Tb0 2.325 . S
O28 Tb1 2.658 . S
O28 C18 1.281 . S
O29 Tb1 2.409 . S
O29 C18 1.254 . S
O30 Tb1 2.378 . S
O30 C19 1.236 . S
O31 Tb0 2.341 . S
O31 C19 1.266 . S
H32 C4 0.929 . S
H33 C5 0.931 . S
H34 C7 0.930 . S
H35 C8 0.930 . S
H36 C13 0.929 . S
H37 C14 0.931 . S
H38 C16 0.930 . S
H39 C17 0.930 . S
Tb40 C42 2.809 . S
Tb40 O60 2.484 . S
Tb40 O61 2.440 . S
Tb40 O62 2.658 1_655 S
Tb40 O63 2.409 1_655 S
Tb40 O64 2.378 1_655 S
Tb40 O68 2.325 . S
Tb40 O71 2.341 . S
Tb41 C51 2.809 . S
Tb41 O62 2.325 . S
Tb41 O65 2.341 . S
Tb41 O66 2.484 . S
Tb41 O67 2.440 . S
Tb41 O68 2.658 1_455 S
Tb41 O69 2.409 . S
Tb41 O70 2.378 . S
C42 Tb40 2.809 . S
C42 C43 1.514 . S
C42 O60 1.248 . S
C42 O61 1.266 . S
C43 C42 1.514 . S
C43 C44 1.359 . S
C43 C48 1.348 . S
C44 C43 1.359 . S
C44 C45 1.380 . S
C44 H72 0.929 . S
C45 C44 1.380 . S
C45 C46 1.347 . S
C45 H73 0.931 . S
C46 C45 1.347 . S
C46 C47 1.369 . S
C47 C46 1.369 . S
C47 C48 1.408 . S
C47 H74 0.930 . S
C48 C43 1.348 . S
C48 C47 1.408 . S
C48 H75 0.930 . S
C49 O62 1.281 . S
C49 O63 1.254 . S
C50 O64 1.236 . S
C50 O65 1.266 . S
C51 Tb41 2.809 . S
C51 C52 1.514 . S
C51 O66 1.248 . S
C51 O67 1.266 . S
C52 C51 1.514 . S
C52 C53 1.359 . S
C52 C57 1.348 . S
C53 C52 1.359 . S
C53 C54 1.380 . S
C53 H76 0.929 . S
C54 C53 1.380 . S
C54 C55 1.347 . S
C54 H77 0.931 . S
C55 C54 1.347 . S
C55 C56 1.369 . S
C56 C55 1.369 . S
C56 C57 1.408 . S
C56 H78 0.930 . S
C57 C52 1.348 . S
C57 C56 1.408 . S
C57 H79 0.930 . S
C58 O68 1.281 . S
C58 O69 1.254 1_655 S
C59 O70 1.236 1_655 S
C59 O71 1.266 . S
O60 Tb40 2.484 . S
O60 C42 1.248 . S
O61 Tb40 2.440 . S
O61 C42 1.266 . S
O62 Tb40 2.658 1_455 S
O62 Tb41 2.325 . S
O62 C49 1.281 . S
O63 Tb40 2.409 1_455 S
O63 C49 1.254 . S
O64 Tb40 2.378 1_455 S
O64 C50 1.236 . S
O65 Tb41 2.341 . S
O65 C50 1.266 . S
O66 Tb41 2.484 . S
O66 C51 1.248 . S
O67 Tb41 2.440 . S
O67 C51 1.266 . S
O68 Tb40 2.325 . S
O68 Tb41 2.658 1_655 S
O68 C58 1.281 . S
O69 Tb41 2.409 . S
O69 C58 1.254 1_455 S
O70 Tb41 2.378 . S
O70 C59 1.236 1_455 S
O71 Tb40 2.341 . S
O71 C59 1.266 . S
H72 C44 0.929 . S
H73 C45 0.931 . S
H74 C47 0.930 . S
H75 C48 0.930 . S
H76 C53 0.929 . S
H77 C54 0.931 . S
H78 C56 0.930 . S
H79 C57 0.930 . S
Tb80 C82 2.809 . S
Tb80 O100 2.484 . S
Tb80 O101 2.440 . S
Tb80 O102 2.658 1_554 S
Tb80 O103 2.409 1_554 S
Tb80 O104 2.378 1_554 S
Tb80 O108 2.325 . S
Tb80 O111 2.341 . S
Tb81 C91 2.809 . S
Tb81 O102 2.325 . S
Tb81 O105 2.341 . S
Tb81 O106 2.484 . S
Tb81 O107 2.440 . S
Tb81 O108 2.658 1_556 S
Tb81 O109 2.409 1_556 S
Tb81 O110 2.378 . S
C82 Tb80 2.809 . S
C82 C83 1.514 . S
C82 O100 1.248 . S
C82 O101 1.266 . S
C83 C82 1.514 . S
C83 C84 1.359 . S
C83 C88 1.348 . S
C84 C83 1.359 . S
C84 C85 1.380 . S
C84 H112 0.929 . S
C85 C84 1.380 . S
C85 C86 1.347 . S
C85 H113 0.931 . S
C86 C85 1.347 . S
C86 C87 1.369 . S
C87 C86 1.369 . S
C87 C88 1.408 . S
C87 H114 0.930 . S
C88 C83 1.348 . S
C88 C87 1.408 . S
C88 H115 0.930 . S
C89 O102 1.281 . S
C89 O103 1.254 . S
C90 O104 1.236 . S
C90 O105 1.266 . S
C91 Tb81 2.809 . S
C91 C92 1.514 . S
C91 O106 1.248 . S
C91 O107 1.266 . S
C92 C91 1.514 . S
C92 C93 1.359 . S
C92 C97 1.348 . S
C93 C92 1.359 . S
C93 C94 1.380 . S
C93 H116 0.929 . S
C94 C93 1.380 . S
C94 C95 1.347 . S
C94 H117 0.931 . S
C95 C94 1.347 . S
C95 C96 1.369 . S
C96 C95 1.369 . S
C96 C97 1.408 . S
C96 H118 0.930 . S
C97 C92 1.348 . S
C97 C96 1.408 . S
C97 H119 0.930 . S
C98 O108 1.281 . S
C98 O109 1.254 . S
C99 O110 1.236 1_554 S
C99 O111 1.266 . S
O100 Tb80 2.484 . S
O100 C82 1.248 . S
O101 Tb80 2.440 . S
O101 C82 1.266 . S
O102 Tb80 2.658 1_556 S
O102 Tb81 2.325 . S
O102 C89 1.281 . S
O103 Tb80 2.409 1_556 S
O103 C89 1.254 . S
O104 Tb80 2.378 1_556 S
O104 C90 1.236 . S
O105 Tb81 2.341 . S
O105 C90 1.266 . S
O106 Tb81 2.484 . S
O106 C91 1.248 . S
O107 Tb81 2.440 . S
O107 C91 1.266 . S
O108 Tb80 2.325 . S
O108 Tb81 2.658 1_554 S
O108 C98 1.281 . S
O109 Tb81 2.409 1_554 S
O109 C98 1.254 . S
O110 Tb81 2.378 . S
O110 C99 1.236 1_556 S
O111 Tb80 2.341 . S
O111 C99 1.266 . S
H112 C84 0.929 . S
H113 C85 0.931 . S
H114 C87 0.930 . S
H115 C88 0.930 . S
H116 C93 0.929 . S
H117 C94 0.931 . S
H118 C96 0.930 . S
H119 C97 0.930 . S
Tb120 C122 2.809 . S
Tb120 O140 2.484 . S
Tb120 O141 2.440 . S
Tb120 O142 2.658 . S
Tb120 O143 2.409 . S
Tb120 O144 2.378 . S
Tb120 O148 2.325 . S
Tb120 O151 2.341 . S
Tb121 C131 2.809 . S
Tb121 O142 2.325 . S
Tb121 O145 2.341 . S
Tb121 O146 2.484 . S
Tb121 O147 2.440 . S
Tb121 O148 2.658 . S
Tb121 O149 2.409 . S
Tb121 O150 2.378 . S
C122 Tb120 2.809 . S
C122 C123 1.514 . S
C122 O140 1.248 . S
C122 O141 1.266 . S
C123 C122 1.514 . S
C123 C124 1.359 . S
C123 C128 1.348 . S
C124 C123 1.359 . S
C124 C125 1.380 . S
C124 H152 0.929 . S
C125 C124 1.380 . S
C125 C126 1.347 . S
C125 H153 0.931 . S
C126 C125 1.347 . S
C126 C127 1.369 . S
C127 C126 1.369 . S
C127 C128 1.408 . S
C127 H154 0.930 . S
C128 C123 1.348 . S
C128 C127 1.408 . S
C128 H155 0.930 . S
C129 O142 1.281 . S
C129 O143 1.254 . S
C130 O144 1.236 . S
C130 O145 1.266 . S
C131 Tb121 2.809 . S
C131 C132 1.514 . S
C131 O146 1.248 . S
C131 O147 1.266 . S
C132 C131 1.514 . S
C132 C133 1.359 . S
C132 C137 1.348 . S
C133 C132 1.359 . S
C133 C134 1.380 . S
C133 H156 0.929 . S
C134 C133 1.380 . S
C134 C135 1.347 . S
C134 H157 0.931 . S
C135 C134 1.347 . S
C135 C136 1.369 . S
C136 C135 1.369 . S
C136 C137 1.408 . S
C136 H158 0.930 . S
C137 C132 1.348 . S
C137 C136 1.408 . S
C137 H159 0.930 . S
C138 O148 1.281 . S
C138 O149 1.254 . S
C139 O150 1.236 . S
C139 O151 1.266 . S
O140 Tb120 2.484 . S
O140 C122 1.248 . S
O141 Tb120 2.440 . S
O141 C122 1.266 . S
O142 Tb120 2.658 . S
O142 Tb121 2.325 . S
O142 C129 1.281 . S
O143 Tb120 2.409 . S
O143 C129 1.254 . S
O144 Tb120 2.378 . S
O144 C130 1.236 . S
O145 Tb121 2.341 . S
O145 C130 1.266 . S
O146 Tb121 2.484 . S
O146 C131 1.248 . S
O147 Tb121 2.440 . S
O147 C131 1.266 . S
O148 Tb120 2.325 . S
O148 Tb121 2.658 . S
O148 C138 1.281 . S
O149 Tb121 2.409 . S
O149 C138 1.254 . S
O150 Tb121 2.378 . S
O150 C139 1.236 . S
O151 Tb120 2.341 . S
O151 C139 1.266 . S
H152 C124 0.929 . S
H153 C125 0.931 . S
H154 C127 0.930 . S
H155 C128 0.930 . S
H156 C133 0.929 . S
H157 C134 0.931 . S
H158 C136 0.930 . S
H159 C137 0.930 . S
Tb160 C162 2.809 . S
Tb160 O180 2.484 . S
Tb160 O181 2.440 . S
Tb160 O182 2.658 . S
Tb160 O183 2.409 . S
Tb160 O184 2.378 . S
Tb160 O188 2.325 . S
Tb160 O191 2.341 . S
Tb161 C171 2.809 . S
Tb161 O182 2.325 . S
Tb161 O185 2.341 . S
Tb161 O186 2.484 . S
Tb161 O187 2.440 . S
Tb161 O188 2.658 . S
Tb161 O189 2.409 . S
Tb161 O190 2.378 . S
C162 Tb160 2.809 . S
C162 C163 1.514 . S
C162 O180 1.248 . S
C162 O181 1.266 . S
C163 C162 1.514 . S
C163 C164 1.359 . S
C163 C168 1.348 . S
C164 C163 1.359 . S
C164 C165 1.380 . S
C164 H192 0.929 . S
C165 C164 1.380 . S
C165 C166 1.347 . S
C165 H193 0.931 . S
C166 C165 1.347 . S
C166 C167 1.369 . S
C167 C166 1.369 . S
C167 C168 1.408 . S
C167 H194 0.930 . S
C168 C163 1.348 . S
C168 C167 1.408 . S
C168 H195 0.930 . S
C169 O182 1.281 . S
C169 O183 1.254 . S
C170 O184 1.236 . S
C170 O185 1.266 . S
C171 Tb161 2.809 . S
C171 C172 1.514 . S
C171 O186 1.248 . S
C171 O187 1.266 . S
C172 C171 1.514 . S
C172 C173 1.359 . S
C172 C177 1.348 . S
C173 C172 1.359 . S
C173 C174 1.380 . S
C173 H196 0.929 . S
C174 C173 1.380 . S
C174 C175 1.347 . S
C174 H197 0.931 . S
C175 C174 1.347 . S
C175 C176 1.369 . S
C176 C175 1.369 . S
C176 C177 1.408 . S
C176 H198 0.930 . S
C177 C172 1.348 . S
C177 C176 1.408 . S
C177 H199 0.930 . S
C178 O188 1.281 . S
C178 O189 1.254 . S
C179 O190 1.236 . S
C179 O191 1.266 . S
O180 Tb160 2.484 . S
O180 C162 1.248 . S
O181 Tb160 2.440 . S
O181 C162 1.266 . S
O182 Tb160 2.658 . S
O182 Tb161 2.325 . S
O182 C169 1.281 . S
O183 Tb160 2.409 . S
O183 C169 1.254 . S
O184 Tb160 2.378 . S
O184 C170 1.236 . S
O185 Tb161 2.341 . S
O185 C170 1.266 . S
O186 Tb161 2.484 . S
O186 C171 1.248 . S
O187 Tb161 2.440 . S
O187 C171 1.266 . S
O188 Tb160 2.325 . S
O188 Tb161 2.658 . S
O188 C178 1.281 . S
O189 Tb161 2.409 . S
O189 C178 1.254 . S
O190 Tb161 2.378 . S
O190 C179 1.236 . S
O191 Tb160 2.341 . S
O191 C179 1.266 . S
H192 C164 0.929 . S
H193 C165 0.931 . S
H194 C167 0.930 . S
H195 C168 0.930 . S
H196 C173 0.929 . S
H197 C174 0.931 . S
H198 C176 0.930 . S
H199 C177 0.930 . S
Tb200 C202 2.809 . S
Tb200 O220 2.484 . S
Tb200 O221 2.440 . S
Tb200 O222 2.658 . S
Tb200 O223 2.409 . S
Tb200 O224 2.378 . S
Tb200 O228 2.325 1_655 S
Tb200 O231 2.341 1_655 S
Tb201 C211 2.809 . S
Tb201 O222 2.325 1_455 S
Tb201 O225 2.341 1_455 S
Tb201 O226 2.484 . S
Tb201 O227 2.440 . S
Tb201 O228 2.658 . S
Tb201 O229 2.409 . S
Tb201 O230 2.378 . S
C202 Tb200 2.809 . S
C202 C203 1.514 . S
C202 O220 1.248 . S
C202 O221 1.266 . S
C203 C202 1.514 . S
C203 C204 1.359 . S
C203 C208 1.348 . S
C204 C203 1.359 . S
C204 C205 1.380 . S
C204 H232 0.929 . S
C205 C204 1.380 . S
C205 C206 1.347 . S
C205 H233 0.931 . S
C206 C205 1.347 . S
C206 C207 1.369 . S
C207 C206 1.369 . S
C207 C208 1.408 . S
C207 H234 0.930 . S
C208 C203 1.348 . S
C208 C207 1.408 . S
C208 H235 0.930 . S
C209 O222 1.281 . S
C209 O223 1.254 . S
C210 O224 1.236 . S
C210 O225 1.266 . S
C211 Tb201 2.809 . S
C211 C212 1.514 . S
C211 O226 1.248 . S
C211 O227 1.266 . S
C212 C211 1.514 . S
C212 C213 1.359 . S
C212 C217 1.348 . S
C213 C212 1.359 . S
C213 C214 1.380 . S
C213 H236 0.929 . S
C214 C213 1.380 . S
C214 C215 1.347 . S
C214 H237 0.931 . S
C215 C214 1.347 . S
C215 C216 1.369 . S
C216 C215 1.369 . S
C216 C217 1.408 . S
C216 H238 0.930 . S
C217 C212 1.348 . S
C217 C216 1.408 . S
C217 H239 0.930 . S
C218 O228 1.281 . S
C218 O229 1.254 . S
C219 O230 1.236 . S
C219 O231 1.266 . S
O220 Tb200 2.484 . S
O220 C202 1.248 . S
O221 Tb200 2.440 . S
O221 C202 1.266 . S
O222 Tb200 2.658 . S
O222 Tb201 2.325 1_655 S
O222 C209 1.281 . S
O223 Tb200 2.409 . S
O223 C209 1.254 . S
O224 Tb200 2.378 . S
O224 C210 1.236 . S
O225 Tb201 2.341 1_655 S
O225 C210 1.266 . S
O226 Tb201 2.484 . S
O226 C211 1.248 . S
O227 Tb201 2.440 . S
O227 C211 1.266 . S
O228 Tb200 2.325 1_455 S
O228 Tb201 2.658 . S
O228 C218 1.281 . S
O229 Tb201 2.409 . S
O229 C218 1.254 . S
O230 Tb201 2.378 . S
O230 C219 1.236 . S
O231 Tb200 2.341 1_455 S
O231 C219 1.266 . S
H232 C204 0.929 . S
H233 C205 0.931 . S
H234 C207 0.930 . S
H235 C208 0.930 . S
H236 C213 0.929 . S
H237 C214 0.931 . S
H238 C216 0.930 . S
H239 C217 0.930 . S
Tb240 C242 2.809 . S
Tb240 O260 2.484 . S
Tb240 O261 2.440 . S
Tb240 O262 2.658 . S
Tb240 O263 2.409 . S
Tb240 O264 2.378 . S
Tb240 O268 2.325 . S
Tb240 O271 2.341 . S
Tb241 C251 2.809 1_554 S
Tb241 O262 2.325 . S
Tb241 O265 2.341 . S
Tb241 O266 2.484 1_554 S
Tb241 O267 2.440 1_554 S
Tb241 O268 2.658 . S
Tb241 O269 2.409 1_554 S
Tb241 O270 2.378 1_554 S
C242 Tb240 2.809 . S
C242 C243 1.514 . S
C242 O260 1.248 . S
C242 O261 1.266 . S
C243 C242 1.514 . S
C243 C244 1.359 . S
C243 C248 1.348 . S
C244 C243 1.359 . S
C244 C245 1.380 . S
C244 H272 0.929 . S
C245 C244 1.380 . S
C245 C246 1.347 . S
C245 H273 0.931 . S
C246 C245 1.347 . S
C246 C247 1.369 . S
C247 C246 1.369 . S
C247 C248 1.408 . S
C247 H274 0.930 . S
C248 C243 1.348 . S
C248 C247 1.408 . S
C248 H275 0.930 . S
C249 O262 1.281 . S
C249 O263 1.254 . S
C250 O264 1.236 . S
C250 O265 1.266 . S
C251 Tb241 2.809 1_556 S
C251 C252 1.514 . S
C251 O266 1.248 . S
C251 O267 1.266 . S
C252 C251 1.514 . S
C252 C253 1.359 . S
C252 C257 1.348 . S
C253 C252 1.359 . S
C253 C254 1.380 . S
C253 H276 0.929 . S
C254 C253 1.380 . S
C254 C255 1.347 . S
C254 H277 0.931 . S
C255 C254 1.347 . S
C255 C256 1.369 . S
C256 C255 1.369 . S
C256 C257 1.408 . S
C256 H278 0.930 . S
C257 C252 1.348 . S
C257 C256 1.408 . S
C257 H279 0.930 . S
C258 O268 1.281 . S
C258 O269 1.254 1_554 S
C259 O270 1.236 . S
C259 O271 1.266 1_556 S
O260 Tb240 2.484 . S
O260 C242 1.248 . S
O261 Tb240 2.440 . S
O261 C242 1.266 . S
O262 Tb240 2.658 . S
O262 Tb241 2.325 . S
O262 C249 1.281 . S
O263 Tb240 2.409 . S
O263 C249 1.254 . S
O264 Tb240 2.378 . S
O264 C250 1.236 . S
O265 Tb241 2.341 . S
O265 C250 1.266 . S
O266 Tb241 2.484 1_556 S
O266 C251 1.248 . S
O267 Tb241 2.440 1_556 S
O267 C251 1.266 . S
O268 Tb240 2.325 . S
O268 Tb241 2.658 . S
O268 C258 1.281 . S
O269 Tb241 2.409 1_556 S
O269 C258 1.254 1_556 S
O270 Tb241 2.378 1_556 S
O270 C259 1.236 . S
O271 Tb240 2.341 . S
O271 C259 1.266 1_554 S
H272 C244 0.929 . S
H273 C245 0.931 . S
H274 C247 0.930 . S
H275 C248 0.930 . S
H276 C253 0.929 . S
H277 C254 0.931 . S
H278 C256 0.930 . S
H279 C257 0.930 . S
Tb280 C282 2.809 . S
Tb280 O300 2.484 . S
Tb280 O301 2.440 . S
Tb280 O302 2.658 . S
Tb280 O303 2.409 . S
Tb280 O304 2.378 . S
Tb280 O308 2.325 . S
Tb280 O311 2.341 . S
Tb281 C291 2.809 . S
Tb281 O302 2.325 . S
Tb281 O305 2.341 . S
Tb281 O306 2.484 . S
Tb281 O307 2.440 . S
Tb281 O308 2.658 . S
Tb281 O309 2.409 . S
Tb281 O310 2.378 . S
C282 Tb280 2.809 . S
C282 C283 1.514 . S
C282 O300 1.248 . S
C282 O301 1.266 . S
C283 C282 1.514 . S
C283 C284 1.359 . S
C283 C288 1.348 . S
C284 C283 1.359 . S
C284 C285 1.380 . S
C284 H312 0.929 . S
C285 C284 1.380 . S
C285 C286 1.347 . S
C285 H313 0.931 . S
C286 C285 1.347 . S
C286 C287 1.369 . S
C287 C286 1.369 . S
C287 C288 1.408 . S
C287 H314 0.930 . S
C288 C283 1.348 . S
C288 C287 1.408 . S
C288 H315 0.930 . S
C289 O302 1.281 . S
C289 O303 1.254 . S
C290 O304 1.236 . S
C290 O305 1.266 . S
C291 Tb281 2.809 . S
C291 C292 1.514 . S
C291 O306 1.248 . S
C291 O307 1.266 . S
C292 C291 1.514 . S
C292 C293 1.359 . S
C292 C297 1.348 . S
C293 C292 1.359 . S
C293 C294 1.380 . S
C293 H316 0.929 . S
C294 C293 1.380 . S
C294 C295 1.347 . S
C294 H317 0.931 . S
C295 C294 1.347 . S
C295 C296 1.369 . S
C296 C295 1.369 . S
C296 C297 1.408 . S
C296 H318 0.930 . S
C297 C292 1.348 . S
C297 C296 1.408 . S
C297 H319 0.930 . S
C298 O308 1.281 . S
C298 O309 1.254 . S
C299 O310 1.236 . S
C299 O311 1.266 . S
O300 Tb280 2.484 . S
O300 C282 1.248 . S
O301 Tb280 2.440 . S
O301 C282 1.266 . S
O302 Tb280 2.658 . S
O302 Tb281 2.325 . S
O302 C289 1.281 . S
O303 Tb280 2.409 . S
O303 C289 1.254 . S
O304 Tb280 2.378 . S
O304 C290 1.236 . S
O305 Tb281 2.341 . S
O305 C290 1.266 . S
O306 Tb281 2.484 . S
O306 C291 1.248 . S
O307 Tb281 2.440 . S
O307 C291 1.266 . S
O308 Tb280 2.325 . S
O308 Tb281 2.658 . S
O308 C298 1.281 . S
O309 Tb281 2.409 . S
O309 C298 1.254 . S
O310 Tb281 2.378 . S
O310 C299 1.236 . S
O311 Tb280 2.341 . S
O311 C299 1.266 . S
H312 C284 0.929 . S
H313 C285 0.931 . S
H314 C287 0.930 . S
H315 C288 0.930 . S
H316 C293 0.929 . S
H317 C294 0.931 . S
H318 C296 0.930 . S
H319 C297 0.930 . S
Tb320 C322 2.809 . S
Tb320 O340 2.484 . S
Tb320 O341 2.440 . S
Tb320 O342 2.658 . S
Tb320 O343 2.409 . S
Tb320 O344 2.378 . S
Tb320 O348 2.325 . S
Tb320 O351 2.341 . S
Tb321 C331 2.809 . S
Tb321 O342 2.325 . S
Tb321 O345 2.341 . S
Tb321 O346 2.484 . S
Tb321 O347 2.440 . S
Tb321 O348 2.658 . S
Tb321 O349 2.409 . S
Tb321 O350 2.378 . S
C322 Tb320 2.809 . S
C322 C323 1.514 . S
C322 O340 1.248 . S
C322 O341 1.266 . S
C323 C322 1.514 . S
C323 C324 1.359 . S
C323 C328 1.348 . S
C324 C323 1.359 . S
C324 C325 1.380 . S
C324 H352 0.929 . S
C325 C324 1.380 . S
C325 C326 1.347 . S
C325 H353 0.931 . S
C326 C325 1.347 . S
C326 C327 1.369 . S
C327 C326 1.369 . S
C327 C328 1.408 . S
C327 H354 0.930 . S
C328 C323 1.348 . S
C328 C327 1.408 . S
C328 H355 0.930 . S
C329 O342 1.281 . S
C329 O343 1.254 . S
C330 O344 1.236 . S
C330 O345 1.266 . S
C331 Tb321 2.809 . S
C331 C332 1.514 . S
C331 O346 1.248 . S
C331 O347 1.266 . S
C332 C331 1.514 . S
C332 C333 1.359 . S
C332 C337 1.348 . S
C333 C332 1.359 . S
C333 C334 1.380 . S
C333 H356 0.929 . S
C334 C333 1.380 . S
C334 C335 1.347 . S
C334 H357 0.931 . S
C335 C334 1.347 . S
C335 C336 1.369 . S
C336 C335 1.369 . S
C336 C337 1.408 . S
C336 H358 0.930 . S
C337 C332 1.348 . S
C337 C336 1.408 . S
C337 H359 0.930 . S
C338 O348 1.281 . S
C338 O349 1.254 . S
C339 O350 1.236 . S
C339 O351 1.266 . S
O340 Tb320 2.484 . S
O340 C322 1.248 . S
O341 Tb320 2.440 . S
O341 C322 1.266 . S
O342 Tb320 2.658 . S
O342 Tb321 2.325 . S
O342 C329 1.281 . S
O343 Tb320 2.409 . S
O343 C329 1.254 . S
O344 Tb320 2.378 . S
O344 C330 1.236 . S
O345 Tb321 2.341 . S
O345 C330 1.266 . S
O346 Tb321 2.484 . S
O346 C331 1.248 . S
O347 Tb321 2.440 . S
O347 C331 1.266 . S
O348 Tb320 2.325 . S
O348 Tb321 2.658 . S
O348 C338 1.281 . S
O349 Tb321 2.409 . S
O349 C338 1.254 . S
O350 Tb321 2.378 . S
O350 C339 1.236 . S
O351 Tb320 2.341 . S
O351 C339 1.266 . S
H352 C324 0.929 . S
H353 C325 0.931 . S
H354 C327 0.930 . S
H355 C328 0.930 . S
H356 C333 0.929 . S
H357 C334 0.931 . S
H358 C336 0.930 . S
H359 C337 0.930 . S
Tb360 C362 2.809 . S
Tb360 O380 2.484 . S
Tb360 O381 2.440 . S
Tb360 O382 2.658 . S
Tb360 O383 2.409 . S
Tb360 O384 2.378 . S
Tb360 O388 2.325 . S
Tb360 O391 2.341 . S
Tb361 C371 2.809 1_545 S
Tb361 O382 2.325 . S
Tb361 O385 2.341 . S
Tb361 O386 2.484 1_545 S
Tb361 O387 2.440 1_545 S
Tb361 O388 2.658 . S
Tb361 O389 2.409 1_545 S
Tb361 O390 2.378 1_545 S
C362 Tb360 2.809 . S
C362 C363 1.514 . S
C362 O380 1.248 . S
C362 O381 1.266 . S
C363 C362 1.514 . S
C363 C364 1.359 . S
C363 C368 1.348 . S
C364 C363 1.359 . S
C364 C365 1.380 . S
C364 H392 0.929 . S
C365 C364 1.380 . S
C365 C366 1.347 . S
C365 H393 0.931 . S
C366 C365 1.347 . S
C366 C367 1.369 . S
C367 C366 1.369 . S
C367 C368 1.408 . S
C367 H394 0.930 . S
C368 C363 1.348 . S
C368 C367 1.408 . S
C368 H395 0.930 . S
C369 O382 1.281 . S
C369 O383 1.254 . S
C370 O384 1.236 . S
C370 O385 1.266 . S
C371 Tb361 2.809 1_565 S
C371 C372 1.514 . S
C371 O386 1.248 . S
C371 O387 1.266 . S
C372 C371 1.514 . S
C372 C373 1.359 . S
C372 C377 1.348 . S
C373 C372 1.359 . S
C373 C374 1.380 . S
C373 H396 0.929 . S
C374 C373 1.380 . S
C374 C375 1.347 . S
C374 H397 0.931 . S
C375 C374 1.347 . S
C375 C376 1.369 . S
C376 C375 1.369 . S
C376 C377 1.408 . S
C376 H398 0.930 . S
C377 C372 1.348 . S
C377 C376 1.408 . S
C377 H399 0.930 . S
C378 O388 1.281 . S
C378 O389 1.254 1_545 S
C379 O390 1.236 . S
C379 O391 1.266 1_565 S
O380 Tb360 2.484 . S
O380 C362 1.248 . S
O381 Tb360 2.440 . S
O381 C362 1.266 . S
O382 Tb360 2.658 . S
O382 Tb361 2.325 . S
O382 C369 1.281 . S
O383 Tb360 2.409 . S
O383 C369 1.254 . S
O384 Tb360 2.378 . S
O384 C370 1.236 . S
O385 Tb361 2.341 . S
O385 C370 1.266 . S
O386 Tb361 2.484 1_565 S
O386 C371 1.248 . S
O387 Tb361 2.440 1_565 S
O387 C371 1.266 . S
O388 Tb360 2.325 . S
O388 Tb361 2.658 . S
O388 C378 1.281 . S
O389 Tb361 2.409 1_565 S
O389 C378 1.254 1_565 S
O390 Tb361 2.378 1_565 S
O390 C379 1.236 . S
O391 Tb360 2.341 . S
O391 C379 1.266 1_545 S
H392 C364 0.929 . S
H393 C365 0.931 . S
H394 C367 0.930 . S
H395 C368 0.930 . S
H396 C373 0.929 . S
H397 C374 0.931 . S
H398 C376 0.930 . S
H399 C377 0.930 . S
Tb400 C402 2.809 . S
Tb400 O420 2.484 . S
Tb400 O421 2.440 . S
Tb400 O422 2.658 . S
Tb400 O423 2.409 . S
Tb400 O424 2.378 . S
Tb400 O428 2.325 . S
Tb400 O431 2.341 1_565 S
Tb401 C411 2.809 . S
Tb401 O422 2.325 1_545 S
Tb401 O425 2.341 1_545 S
Tb401 O426 2.484 . S
Tb401 O427 2.440 . S
Tb401 O428 2.658 1_545 S
Tb401 O429 2.409 . S
Tb401 O430 2.378 . S
C402 Tb400 2.809 . S
C402 C403 1.514 . S
C402 O420 1.248 . S
C402 O421 1.266 . S
C403 C402 1.514 . S
C403 C404 1.359 . S
C403 C408 1.348 . S
C404 C403 1.359 . S
C404 C405 1.380 . S
C404 H432 0.929 . S
C405 C404 1.380 . S
C405 C406 1.347 . S
C405 H433 0.931 . S
C406 C405 1.347 . S
C406 C407 1.369 . S
C407 C406 1.369 . S
C407 C408 1.408 . S
C407 H434 0.930 . S
C408 C403 1.348 . S
C408 C407 1.408 . S
C408 H435 0.930 . S
C409 O422 1.281 . S
C409 O423 1.254 . S
C410 O424 1.236 . S
C410 O425 1.266 . S
C411 Tb401 2.809 . S
C411 C412 1.514 . S
C411 O426 1.248 . S
C411 O427 1.266 . S
C412 C411 1.514 . S
C412 C413 1.359 . S
C412 C417 1.348 . S
C413 C412 1.359 . S
C413 C414 1.380 . S
C413 H436 0.929 . S
C414 C413 1.380 . S
C414 C415 1.347 . S
C414 H437 0.931 . S
C415 C414 1.347 . S
C415 C416 1.369 . S
C416 C415 1.369 . S
C416 C417 1.408 . S
C416 H438 0.930 . S
C417 C412 1.348 . S
C417 C416 1.408 . S
C417 H439 0.930 . S
C418 O428 1.281 1_545 S
C418 O429 1.254 . S
C419 O430 1.236 . S
C419 O431 1.266 . S
O420 Tb400 2.484 . S
O420 C402 1.248 . S
O421 Tb400 2.440 . S
O421 C402 1.266 . S
O422 Tb400 2.658 . S
O422 Tb401 2.325 1_565 S
O422 C409 1.281 . S
O423 Tb400 2.409 . S
O423 C409 1.254 . S
O424 Tb400 2.378 . S
O424 C410 1.236 . S
O425 Tb401 2.341 1_565 S
O425 C410 1.266 . S
O426 Tb401 2.484 . S
O426 C411 1.248 . S
O427 Tb401 2.440 . S
O427 C411 1.266 . S
O428 Tb400 2.325 . S
O428 Tb401 2.658 1_565 S
O428 C418 1.281 1_565 S
O429 Tb401 2.409 . S
O429 C418 1.254 . S
O430 Tb401 2.378 . S
O430 C419 1.236 . S
O431 Tb400 2.341 1_545 S
O431 C419 1.266 . S
H432 C404 0.929 . S
H433 C405 0.931 . S
H434 C407 0.930 . S
H435 C408 0.930 . S
H436 C413 0.929 . S
H437 C414 0.931 . S
H438 C416 0.930 . S
H439 C417 0.930 . S
Tb440 C442 2.809 . S
Tb440 O460 2.484 . S
Tb440 O461 2.440 . S
Tb440 O462 2.658 . S
Tb440 O463 2.409 . S
Tb440 O464 2.378 . S
Tb440 O468 2.325 . S
Tb440 O471 2.341 . S
Tb441 C451 2.809 . S
Tb441 O462 2.325 . S
Tb441 O465 2.341 . S
Tb441 O466 2.484 . S
Tb441 O467 2.440 . S
Tb441 O468 2.658 . S
Tb441 O469 2.409 . S
Tb441 O470 2.378 . S
C442 Tb440 2.809 . S
C442 C443 1.514 . S
C442 O460 1.248 . S
C442 O461 1.266 . S
C443 C442 1.514 . S
C443 C444 1.359 . S
C443 C448 1.348 . S
C444 C443 1.359 . S
C444 C445 1.380 . S
C444 H472 0.929 . S
C445 C444 1.380 . S
C445 C446 1.347 . S
C445 H473 0.931 . S
C446 C445 1.347 . S
C446 C447 1.369 . S
C447 C446 1.369 . S
C447 C448 1.408 . S
C447 H474 0.930 . S
C448 C443 1.348 . S
C448 C447 1.408 . S
C448 H475 0.930 . S
C449 O462 1.281 . S
C449 O463 1.254 . S
C450 O464 1.236 . S
C450 O465 1.266 . S
C451 Tb441 2.809 . S
C451 C452 1.514 . S
C451 O466 1.248 . S
C451 O467 1.266 . S
C452 C451 1.514 . S
C452 C453 1.359 . S
C452 C457 1.348 . S
C453 C452 1.359 . S
C453 C454 1.380 . S
C453 H476 0.929 . S
C454 C453 1.380 . S
C454 C455 1.347 . S
C454 H477 0.931 . S
C455 C454 1.347 . S
C455 C456 1.369 . S
C456 C455 1.369 . S
C456 C457 1.408 . S
C456 H478 0.930 . S
C457 C452 1.348 . S
C457 C456 1.408 . S
C457 H479 0.930 . S
C458 O468 1.281 . S
C458 O469 1.254 . S
C459 O470 1.236 . S
C459 O471 1.266 . S
O460 Tb440 2.484 . S
O460 C442 1.248 . S
O461 Tb440 2.440 . S
O461 C442 1.266 . S
O462 Tb440 2.658 . S
O462 Tb441 2.325 . S
O462 C449 1.281 . S
O463 Tb440 2.409 . S
O463 C449 1.254 . S
O464 Tb440 2.378 . S
O464 C450 1.236 . S
O465 Tb441 2.341 . S
O465 C450 1.266 . S
O466 Tb441 2.484 . S
O466 C451 1.248 . S
O467 Tb441 2.440 . S
O467 C451 1.266 . S
O468 Tb440 2.325 . S
O468 Tb441 2.658 . S
O468 C458 1.281 . S
O469 Tb441 2.409 . S
O469 C458 1.254 . S
O470 Tb441 2.378 . S
O470 C459 1.236 . S
O471 Tb440 2.341 . S
O471 C459 1.266 . S
H472 C444 0.929 . S
H473 C445 0.931 . S
H474 C447 0.930 . S
H475 C448 0.930 . S
H476 C453 0.929 . S
H477 C454 0.931 . S
H478 C456 0.930 . S
H479 C457 0.930 . S
H480 C488 0.929 . S
H481 C490 0.930 . S
H482 C492 0.930 . S
H483 C495 0.929 . S
H484 C498 0.930 . S
H485 C500 0.960 . S
H486 C500 0.960 . S
H487 C500 0.960 . S
C488 H480 0.929 . S
C488 C489 1.377 . S
C488 C490 1.384 . S
C489 C488 1.377 . S
C489 C495 1.390 . S
C490 H481 0.930 . S
C490 C488 1.384 . S
C490 C491 1.372 . S
C491 C490 1.372 . S
C491 C492 1.400 . S
C491 C496 1.490 . S
C492 H482 0.930 . S
C492 C491 1.400 . S
C492 C495 1.386 . S
H493 C509 0.930 . S
H494 C510 0.931 . S
C495 H483 0.929 . S
C495 C489 1.390 . S
C495 C492 1.386 . S
C496 C491 1.490 . S
C496 C498 1.395 . S
C496 C499 1.403 . S
H497 C503 0.930 . S
C498 H484 0.930 . S
C498 C496 1.395 . S
C498 C501 1.403 . S
C499 C496 1.403 . S
C499 C500 1.524 . S
C499 C503 1.400 . S
C500 H485 0.960 . S
C500 H486 0.960 . S
C500 H487 0.960 . S
C500 C499 1.524 . S
C501 C498 1.403 . S
C501 C502 1.392 . S
C501 C505 1.495 . S
C502 C501 1.392 . S
C502 C503 1.385 . S
C502 C504 1.478 . S
C503 H497 0.930 . S
C503 C499 1.400 . S
C503 C502 1.385 . S
C504 C502 1.478 . S
C504 C506 1.381 . S
C504 C510 1.383 . S
C505 C501 1.495 . S
C505 H511 0.959 . S
C505 H512 0.961 . S
C505 H513 0.960 . S
C506 C504 1.381 . S
C506 C507 1.394 . S
C506 H514 0.930 . S
C507 C506 1.394 . S
C507 C508 1.383 . S
C507 H515 0.929 . S
C508 C507 1.383 . S
C508 C509 1.377 . S
C509 H493 0.930 . S
C509 C508 1.377 . S
C509 C510 1.379 . S
C510 H494 0.931 . S
C510 C504 1.383 . S
C510 C509 1.379 . S
H511 C505 0.959 . S
H512 C505 0.961 . S
H513 C505 0.960 . S
H514 C506 0.930 . S
H515 C507 0.929 . S
H516 C524 0.919 1_545 S
H517 C526 0.930 . S
H518 C528 0.930 . S
H519 C531 0.929 . S
H520 C534 0.930 . S
H521 C536 0.960 . S
H522 C536 0.960 . S
H523 C536 0.960 . S
C524 H516 0.919 1_565 S
C524 C525 1.380 . S
C524 C526 1.384 . S
C525 C524 1.380 . S
C525 C531 1.395 . S
C526 H517 0.930 . S
C526 C524 1.384 . S
C526 C527 1.372 . S
C527 C526 1.372 . S
C527 C528 1.400 . S
C527 C532 1.490 . S
C528 H518 0.930 . S
C528 C527 1.400 . S
C528 C531 1.386 . S
H529 C545 0.930 . S
H530 C546 0.931 . S
C531 H519 0.929 . S
C531 C525 1.395 . S
C531 C528 1.386 . S
C532 C527 1.490 . S
C532 C534 1.395 . S
C532 C535 1.403 . S
H533 C539 0.930 . S
C534 H520 0.930 . S
C534 C532 1.395 . S
C534 C537 1.403 . S
C535 C532 1.403 . S
C535 C536 1.524 . S
C535 C539 1.400 . S
C536 H521 0.960 . S
C536 H522 0.960 . S
C536 H523 0.960 . S
C536 C535 1.524 . S
C537 C534 1.403 . S
C537 C538 1.392 . S
C537 C541 1.495 . S
C538 C537 1.392 . S
C538 C539 1.385 . S
C538 C540 1.478 . S
C539 H533 0.930 . S
C539 C535 1.400 . S
C539 C538 1.385 . S
C540 C538 1.478 . S
C540 C542 1.381 . S
C540 C546 1.383 . S
C541 C537 1.495 . S
C541 H547 0.959 . S
C541 H548 0.961 . S
C541 H549 0.960 . S
C542 C540 1.381 . S
C542 C543 1.394 . S
C542 H550 0.930 . S
C543 C542 1.394 . S
C543 C544 1.383 . S
C543 H551 0.929 . S
C544 C543 1.383 . S
C544 C545 1.377 . S
C545 H529 0.930 . S
C545 C544 1.377 . S
C545 C546 1.379 . S
C546 H530 0.931 . S
C546 C540 1.383 . S
C546 C545 1.379 . S
H547 C541 0.959 . S
H548 C541 0.961 . S
H549 C541 0.960 . S
H550 C542 0.930 . S
H551 C543 0.929 . S
H552 C560 0.929 . S
H553 C562 0.930 . S
H554 C564 0.930 . S
H555 C567 0.929 1_556 S
H556 C570 0.930 . S
H557 C572 0.960 . S
H558 C572 0.960 . S
H559 C572 0.958 1_556 S
C560 H552 0.929 . S
C560 C561 1.377 . S
C560 C562 1.384 . S
C561 C560 1.377 . S
C561 C567 1.390 . S
C562 H553 0.930 . S
C562 C560 1.384 . S
C562 C563 1.372 . S
C563 C562 1.372 . S
C563 C564 1.400 . S
C563 C568 1.490 . S
C564 H554 0.930 . S
C564 C563 1.400 . S
C564 C567 1.386 . S
H565 C581 0.930 . S
H566 C582 0.931 . S
C567 H555 0.929 1_554 S
C567 C561 1.390 . S
C567 C564 1.386 . S
C568 C563 1.490 . S
C568 C570 1.395 . S
C568 C571 1.403 . S
H569 C575 0.930 . S
C570 H556 0.930 . S
C570 C568 1.395 . S
C570 C573 1.403 . S
C571 C568 1.403 . S
C571 C572 1.524 . S
C571 C575 1.400 . S
C572 H557 0.960 . S
C572 H558 0.960 . S
C572 H559 0.958 1_554 S
C572 C571 1.524 . S
C573 C570 1.403 . S
C573 C574 1.392 . S
C573 C577 1.495 . S
C574 C573 1.392 . S
C574 C575 1.385 . S
C574 C576 1.478 . S
C575 H569 0.930 . S
C575 C571 1.400 . S
C575 C574 1.385 . S
C576 C574 1.478 . S
C576 C578 1.381 . S
C576 C582 1.383 . S
C577 C573 1.495 . S
C577 H583 0.959 . S
C577 H584 0.961 . S
C577 H585 0.960 . S
C578 C576 1.381 . S
C578 C579 1.394 . S
C578 H586 0.930 . S
C579 C578 1.394 . S
C579 C580 1.383 . S
C579 H587 0.929 . S
C580 C579 1.383 . S
C580 C581 1.377 . S
C581 H565 0.930 . S
C581 C580 1.377 . S
C581 C582 1.379 . S
C582 H566 0.931 . S
C582 C576 1.383 . S
C582 C581 1.379 . S
H583 C577 0.959 . S
H584 C577 0.961 . S
H585 C577 0.960 . S
H586 C578 0.930 . S
H587 C579 0.929 . S
H588 C596 0.929 . S
H589 C598 0.930 . S
H590 C600 0.930 . S
H591 C603 0.929 . S
H592 C606 0.930 . S
H593 C608 0.960 . S
H594 C608 0.960 . S
H595 C608 0.960 . S
C596 H588 0.929 . S
C596 C597 1.377 . S
C596 C598 1.384 . S
C597 C596 1.377 . S
C597 C603 1.390 . S
C598 H589 0.930 . S
C598 C596 1.384 . S
C598 C599 1.372 . S
C599 C598 1.372 . S
C599 C600 1.400 . S
C599 C604 1.490 . S
C600 H590 0.930 . S
C600 C599 1.400 . S
C600 C603 1.386 . S
H601 C617 0.930 1_565 S
H602 C618 0.931 . S
C603 H591 0.929 . S
C603 C597 1.390 . S
C603 C600 1.386 . S
C604 C599 1.490 . S
C604 C606 1.395 . S
C604 C607 1.403 . S
H605 C611 0.930 . S
C606 H592 0.930 . S
C606 C604 1.395 . S
C606 C609 1.403 . S
C607 C604 1.403 . S
C607 C608 1.524 . S
C607 C611 1.400 . S
C608 H593 0.960 . S
C608 H594 0.960 . S
C608 H595 0.960 . S
C608 C607 1.524 . S
C609 C606 1.403 . S
C609 C610 1.392 . S
C609 C613 1.495 . S
C610 C609 1.392 . S
C610 C611 1.385 . S
C610 C612 1.478 . S
C611 H605 0.930 . S
C611 C607 1.400 . S
C611 C610 1.385 . S
C612 C610 1.478 . S
C612 C614 1.381 . S
C612 C618 1.383 . S
C613 C609 1.495 . S
C613 H619 0.959 . S
C613 H620 0.961 . S
C613 H621 0.960 . S
C614 C612 1.381 . S
C614 C615 1.394 . S
C614 H622 0.930 . S
C615 C614 1.394 . S
C615 C616 1.383 . S
C615 H623 0.929 . S
C616 C615 1.383 . S
C616 C617 1.377 . S
C617 H601 0.930 1_545 S
C617 C616 1.377 . S
C617 C618 1.379 . S
C618 H602 0.931 . S
C618 C612 1.383 . S
C618 C617 1.379 . S
H619 C613 0.959 . S
H620 C613 0.961 . S
H621 C613 0.960 . S
H622 C614 0.930 . S
H623 C615 0.929 . S
H624 C632 0.929 . S
H625 C634 0.930 . S
H626 C636 0.930 . S
H627 C639 0.929 . S
H628 C642 0.930 . S
H629 C644 0.960 . S
H630 C644 0.960 . S
H631 C644 0.960 . S
C632 H624 0.929 . S
C632 C633 1.377 . S
C632 C634 1.384 . S
C633 C632 1.377 . S
C633 C639 1.390 . S
C634 H625 0.930 . S
C634 C632 1.384 . S
C634 C635 1.372 . S
C635 C634 1.372 . S
C635 C636 1.400 . S
C635 C640 1.490 . S
C636 H626 0.930 . S
C636 C635 1.400 . S
C636 C639 1.386 . S
H637 C653 0.930 . S
H638 C654 0.931 . S
C639 H627 0.929 . S
C639 C633 1.390 . S
C639 C636 1.386 . S
C640 C635 1.490 . S
C640 C642 1.395 . S
C640 C643 1.403 . S
H641 C647 0.930 . S
C642 H628 0.930 . S
C642 C640 1.395 . S
C642 C645 1.403 . S
C643 C640 1.403 . S
C643 C644 1.524 . S
C643 C647 1.400 . S
C644 H629 0.960 . S
C644 H630 0.960 . S
C644 H631 0.960 . S
C644 C643 1.524 . S
C645 C642 1.403 . S
C645 C646 1.392 . S
C645 C649 1.495 . S
C646 C645 1.392 . S
C646 C647 1.385 . S
C646 C648 1.478 . S
C647 H641 0.930 . S
C647 C643 1.400 . S
C647 C646 1.385 . S
C648 C646 1.478 . S
C648 C650 1.381 . S
C648 C654 1.383 . S
C649 C645 1.495 . S
C649 H655 0.959 . S
C649 H656 0.961 . S
C649 H657 0.960 . S
C650 C648 1.381 . S
C650 C651 1.394 . S
C650 H658 0.930 . S
C651 C650 1.394 . S
C651 C652 1.383 . S
C651 H659 0.929 . S
C652 C651 1.383 . S
C652 C653 1.377 . S
C653 H637 0.930 . S
C653 C652 1.377 . S
C653 C654 1.379 . S
C654 H638 0.931 . S
C654 C648 1.383 . S
C654 C653 1.379 . S
H655 C649 0.959 . S
H656 C649 0.961 . S
H657 C649 0.960 . S
H658 C650 0.930 . S
H659 C651 0.929 . S
H660 C668 0.929 . S
H661 C670 0.930 . S
H662 C672 0.930 . S
H663 C675 0.929 . S
H664 C678 0.930 . S
H665 C680 0.960 . S
H666 C680 0.960 . S
H667 C680 0.960 . S
C668 H660 0.929 . S
C668 C669 1.377 . S
C668 C670 1.384 . S
C669 C668 1.377 . S
C669 C675 1.390 . S
C670 H661 0.930 . S
C670 C668 1.384 . S
C670 C671 1.372 . S
C671 C670 1.372 . S
C671 C672 1.400 . S
C671 C676 1.490 . S
C672 H662 0.930 . S
C672 C671 1.400 . S
C672 C675 1.386 . S
H673 C689 0.930 . S
H674 C690 0.931 . S
C675 H663 0.929 . S
C675 C669 1.390 . S
C675 C672 1.386 . S
C676 C671 1.490 . S
C676 C678 1.395 . S
C676 C679 1.403 . S
H677 C683 0.930 . S
C678 H664 0.930 . S
C678 C676 1.395 . S
C678 C681 1.403 . S
C679 C676 1.403 . S
C679 C680 1.524 . S
C679 C683 1.400 . S
C680 H665 0.960 . S
C680 H666 0.960 . S
C680 H667 0.960 . S
C680 C679 1.524 . S
C681 C678 1.403 . S
C681 C682 1.392 . S
C681 C685 1.495 . S
C682 C681 1.392 . S
C682 C683 1.385 . S
C682 C684 1.478 . S
C683 H677 0.930 . S
C683 C679 1.400 . S
C683 C682 1.385 . S
C684 C682 1.478 . S
C684 C686 1.381 . S
C684 C690 1.383 . S
C685 C681 1.495 . S
C685 H691 0.959 . S
C685 H692 0.961 . S
C685 H693 0.960 . S
C686 C684 1.381 . S
C686 C687 1.394 . S
C686 H694 0.930 . S
C687 C686 1.394 . S
C687 C688 1.383 . S
C687 H695 0.929 . S
C688 C687 1.383 . S
C688 C689 1.377 . S
C689 H673 0.930 . S
C689 C688 1.377 . S
C689 C690 1.379 . S
C690 H674 0.931 . S
C690 C684 1.383 . S
C690 C689 1.379 . S
H691 C685 0.959 . S
H692 C685 0.961 . S
H693 C685 0.960 . S
H694 C686 0.930 . S
H695 C687 0.929 . S
H696 C704 0.929 . S
H697 C706 0.930 . S
H698 C708 0.930 . S
H699 C711 0.929 . S
H700 C714 0.930 . S
H701 C716 0.960 . S
H702 C716 0.960 . S
H703 C716 0.960 . S
C704 H696 0.929 . S
C704 C705 1.377 . S
C704 C706 1.384 . S
C705 C704 1.377 . S
C705 C711 1.390 . S
C706 H697 0.930 . S
C706 C704 1.384 . S
C706 C707 1.372 . S
C707 C706 1.372 . S
C707 C708 1.400 . S
C707 C712 1.490 . S
C708 H698 0.930 . S
C708 C707 1.400 . S
C708 C711 1.386 . S
H709 C725 0.930 1_554 S
H710 C726 0.931 . S
C711 H699 0.929 . S
C711 C705 1.390 . S
C711 C708 1.386 . S
C712 C707 1.490 . S
C712 C714 1.395 . S
C712 C715 1.403 . S
H713 C719 0.930 1_554 S
C714 H700 0.930 . S
C714 C712 1.395 . S
C714 C717 1.403 . S
C715 C712 1.403 . S
C715 C716 1.524 1_556 S
C715 C719 1.400 . S
C716 H701 0.960 . S
C716 H702 0.960 . S
C716 H703 0.960 . S
C716 C715 1.524 1_554 S
C717 C714 1.403 . S
C717 C718 1.392 . S
C717 C721 1.495 . S
C718 C717 1.392 . S
C718 C719 1.385 . S
C718 C720 1.478 . S
C719 H713 0.930 1_556 S
C719 C715 1.400 . S
C719 C718 1.385 . S
C720 C718 1.478 . S
C720 C722 1.381 . S
C720 C726 1.383 . S
C721 C717 1.495 . S
C721 H727 0.959 . S
C721 H728 0.961 . S
C721 H729 0.960 . S
C722 C720 1.381 . S
C722 C723 1.394 . S
C722 H730 0.930 . S
C723 C722 1.394 . S
C723 C724 1.383 . S
C723 H731 0.929 . S
C724 C723 1.383 . S
C724 C725 1.377 . S
C725 H709 0.930 1_556 S
C725 C724 1.377 . S
C725 C726 1.379 . S
C726 H710 0.931 . S
C726 C720 1.383 . S
C726 C725 1.379 . S
H727 C721 0.959 . S
H728 C721 0.961 . S
H729 C721 0.960 . S
H730 C722 0.930 . S
H731 C723 0.929 . S
H732 C740 0.929 . S
H733 C742 0.930 . S
H734 C744 0.930 . S
H735 C747 0.929 . S
H736 C750 0.930 . S
H737 C752 0.960 . S
H738 C752 0.960 . S
H739 C752 0.960 . S
C740 H732 0.929 . S
C740 C741 1.377 . S
C740 C742 1.384 . S
C741 C740 1.377 . S
C741 C747 1.390 . S
C742 H733 0.930 . S
C742 C740 1.384 . S
C742 C743 1.372 . S
C743 C742 1.372 . S
C743 C744 1.400 . S
C743 C748 1.490 . S
C744 H734 0.930 . S
C744 C743 1.400 . S
C744 C747 1.386 . S
H745 C761 0.930 . S
H746 C762 0.931 . S
C747 H735 0.929 . S
C747 C741 1.390 . S
C747 C744 1.386 . S
C748 C743 1.490 . S
C748 C750 1.395 . S
C748 C751 1.403 . S
H749 C755 0.930 . S
C750 H736 0.930 . S
C750 C748 1.395 . S
C750 C753 1.403 . S
C751 C748 1.403 . S
C751 C752 1.524 . S
C751 C755 1.400 . S
C752 H737 0.960 . S
C752 H738 0.960 . S
C752 H739 0.960 . S
C752 C751 1.524 . S
C753 C750 1.403 . S
C753 C754 1.392 . S
C753 C757 1.495 . S
C754 C753 1.392 . S
C754 C755 1.385 . S
C754 C756 1.478 . S
C755 H749 0.930 . S
C755 C751 1.400 . S
C755 C754 1.385 . S
C756 C754 1.478 . S
C756 C758 1.381 . S
C756 C762 1.383 . S
C757 C753 1.495 . S
C757 H763 0.959 . S
C757 H764 0.961 . S
C757 H765 0.960 . S
C758 C756 1.381 . S
C758 C759 1.394 . S
C758 H766 0.930 . S
C759 C758 1.394 . S
C759 C760 1.383 . S
C759 H767 0.929 . S
C760 C759 1.383 . S
C760 C761 1.377 . S
C761 H745 0.930 . S
C761 C760 1.377 . S
C761 C762 1.379 . S
C762 H746 0.931 . S
C762 C756 1.383 . S
C762 C761 1.379 . S
H763 C757 0.959 . S
H764 C757 0.961 . S
H765 C757 0.960 . S
H766 C758 0.930 . S
H767 C759 0.929 . S
H768 C776 0.929 . S
H769 C778 0.930 . S
H770 C780 0.930 . S
H771 C783 0.929 . S
H772 C786 0.930 . S
H773 C788 0.960 . S
H774 C788 0.960 . S
H775 C788 0.960 . S
C776 H768 0.929 . S
C776 C777 1.377 . S
C776 C778 1.384 . S
C777 C776 1.377 . S
C777 C783 1.390 . S
C778 H769 0.930 . S
C778 C776 1.384 . S
C778 C779 1.372 . S
C779 C778 1.372 . S
C779 C780 1.400 . S
C779 C784 1.490 . S
C780 H770 0.930 . S
C780 C779 1.400 . S
C780 C783 1.386 . S
H781 C797 0.930 . S
H782 C798 0.931 . S
C783 H771 0.929 . S
C783 C777 1.390 . S
C783 C780 1.386 . S
C784 C779 1.490 . S
C784 C786 1.395 . S
C784 C787 1.403 . S
H785 C791 0.930 . S
C786 H772 0.930 . S
C786 C784 1.395 . S
C786 C789 1.403 . S
C787 C784 1.403 . S
C787 C788 1.524 . S
C787 C791 1.400 . S
C788 H773 0.960 . S
C788 H774 0.960 . S
C788 H775 0.960 . S
C788 C787 1.524 . S
C789 C786 1.403 . S
C789 C790 1.392 . S
C789 C793 1.495 . S
C790 C789 1.392 . S
C790 C791 1.385 . S
C790 C792 1.478 . S
C791 H785 0.930 . S
C791 C787 1.400 . S
C791 C790 1.385 . S
C792 C790 1.478 . S
C792 C794 1.381 . S
C792 C798 1.383 . S
C793 C789 1.495 . S
C793 H799 0.959 . S
C793 H800 0.961 . S
C793 H801 0.960 . S
C794 C792 1.381 . S
C794 C795 1.394 . S
C794 H802 0.930 . S
C795 C794 1.394 . S
C795 C796 1.383 . S
C795 H803 0.929 . S
C796 C795 1.383 . S
C796 C797 1.377 . S
C797 H781 0.930 . S
C797 C796 1.377 . S
C797 C798 1.379 . S
C798 H782 0.931 . S
C798 C792 1.383 . S
C798 C797 1.379 . S
H799 C793 0.959 . S
H800 C793 0.961 . S
H801 C793 0.960 . S
H802 C794 0.930 . S
H803 C795 0.929 . S
H804 C812 0.929 . S
H805 C814 0.930 . S
H806 C816 0.930 . S
H807 C819 0.929 . S
H808 C822 0.930 . S
H809 C824 0.960 . S
H810 C824 0.960 . S
H811 C824 0.960 . S
C812 H804 0.929 . S
C812 C813 1.377 . S
C812 C814 1.384 . S
C813 C812 1.377 . S
C813 C819 1.390 . S
C814 H805 0.930 . S
C814 C812 1.384 . S
C814 C815 1.372 . S
C815 C814 1.372 . S
C815 C816 1.400 . S
C815 C820 1.490 . S
C816 H806 0.930 . S
C816 C815 1.400 . S
C816 C819 1.386 . S
H817 C833 0.930 . S
H818 C834 0.931 . S
C819 H807 0.929 . S
C819 C813 1.390 . S
C819 C816 1.386 . S
C820 C815 1.490 . S
C820 C822 1.395 . S
C820 C823 1.403 . S
H821 C827 0.930 . S
C822 H808 0.930 . S
C822 C820 1.395 . S
C822 C825 1.403 . S
C823 C820 1.403 . S
C823 C824 1.524 . S
C823 C827 1.400 . S
C824 H809 0.960 . S
C824 H810 0.960 . S
C824 H811 0.960 . S
C824 C823 1.524 . S
C825 C822 1.403 . S
C825 C826 1.392 . S
C825 C829 1.495 . S
C826 C825 1.392 . S
C826 C827 1.385 . S
C826 C828 1.478 . S
C827 H821 0.930 . S
C827 C823 1.400 . S
C827 C826 1.385 . S
C828 C826 1.478 . S
C828 C830 1.381 . S
C828 C834 1.383 . S
C829 C825 1.495 . S
C829 H835 0.959 1_455 S
C829 H836 0.961 1_455 S
C829 H837 0.960 . S
C830 C828 1.381 . S
C830 C831 1.394 . S
C830 H838 0.930 . S
C831 C830 1.394 . S
C831 C832 1.383 . S
C831 H839 0.929 . S
C832 C831 1.383 . S
C832 C833 1.377 . S
C833 H817 0.930 . S
C833 C832 1.377 . S
C833 C834 1.379 . S
C834 H818 0.931 . S
C834 C828 1.383 . S
C834 C833 1.379 . S
H835 C829 0.959 1_655 S
H836 C829 0.961 1_655 S
H837 C829 0.960 . S
H838 C830 0.930 . S
H839 C831 0.929 . S
H840 C848 0.929 . S
H841 C850 0.930 . S
H842 C852 0.930 . S
H843 C855 0.929 . S
H844 C858 0.930 . S
H845 C860 0.960 . S
H846 C860 0.960 . S
H847 C860 0.960 . S
C848 H840 0.929 . S
C848 C849 1.377 . S
C848 C850 1.384 . S
C849 C848 1.377 . S
C849 C855 1.390 . S
C850 H841 0.930 . S
C850 C848 1.384 . S
C850 C851 1.372 . S
C851 C850 1.372 . S
C851 C852 1.400 . S
C851 C856 1.490 . S
C852 H842 0.930 . S
C852 C851 1.400 . S
C852 C855 1.386 . S
H853 C869 0.930 . S
H854 C870 0.931 . S
C855 H843 0.929 . S
C855 C849 1.390 . S
C855 C852 1.386 . S
C856 C851 1.490 . S
C856 C858 1.395 . S
C856 C859 1.403 . S
H857 C863 0.930 . S
C858 H844 0.930 . S
C858 C856 1.395 . S
C858 C861 1.403 . S
C859 C856 1.403 . S
C859 C860 1.524 1_655 S
C859 C863 1.400 . S
C860 H845 0.960 . S
C860 H846 0.960 . S
C860 H847 0.960 . S
C860 C859 1.524 1_455 S
C861 C858 1.403 . S
C861 C862 1.392 . S
C861 C865 1.495 . S
C862 C861 1.392 . S
C862 C863 1.385 . S
C862 C864 1.478 . S
C863 H857 0.930 . S
C863 C859 1.400 . S
C863 C862 1.385 . S
C864 C862 1.478 . S
C864 C866 1.381 . S
C864 C870 1.383 . S
C865 C861 1.495 . S
C865 H871 0.959 . S
C865 H872 0.961 . S
C865 H873 0.960 . S
C866 C864 1.381 . S
C866 C867 1.394 . S
C866 H874 0.930 . S
C867 C866 1.394 . S
C867 C868 1.383 . S
C867 H875 0.929 . S
C868 C867 1.383 . S
C868 C869 1.377 . S
C869 H853 0.930 . S
C869 C868 1.377 . S
C869 C870 1.379 . S
C870 H854 0.931 . S
C870 C864 1.383 . S
C870 C869 1.379 . S
H871 C865 0.959 . S
H872 C865 0.961 . S
H873 C865 0.960 . S
H874 C866 0.930 . S
H875 C867 0.929 . S
H876 C884 0.929 . S
H877 C886 0.930 . S
H878 C888 0.930 . S
H879 C891 0.929 . S
H880 C894 0.930 . S
H881 C896 0.960 . S
H882 C896 0.960 . S
H883 C896 0.960 . S
C884 H876 0.929 . S
C884 C885 1.377 . S
C884 C886 1.384 . S
C885 C884 1.377 . S
C885 C891 1.390 . S
C886 H877 0.930 . S
C886 C884 1.384 . S
C886 C887 1.372 . S
C887 C886 1.372 . S
C887 C888 1.400 . S
C887 C892 1.490 . S
C888 H878 0.930 . S
C888 C887 1.400 . S
C888 C891 1.386 . S
H889 C905 0.930 . S
H890 C906 0.931 . S
C891 H879 0.929 . S
C891 C885 1.390 . S
C891 C888 1.386 . S
C892 C887 1.490 . S
C892 C894 1.395 . S
C892 C895 1.403 . S
H893 C899 0.930 . S
C894 H880 0.930 . S
C894 C892 1.395 . S
C894 C897 1.403 . S
C895 C892 1.403 . S
C895 C896 1.524 . S
C895 C899 1.400 . S
C896 H881 0.960 . S
C896 H882 0.960 . S
C896 H883 0.960 . S
C896 C895 1.524 . S
C897 C894 1.403 . S
C897 C898 1.392 . S
C897 C901 1.495 . S
C898 C897 1.392 . S
C898 C899 1.385 . S
C898 C900 1.478 . S
C899 H893 0.930 . S
C899 C895 1.400 . S
C899 C898 1.385 . S
C900 C898 1.478 . S
C900 C902 1.381 . S
C900 C906 1.383 . S
C901 C897 1.495 . S
C901 H907 0.959 . S
C901 H908 0.961 . S
C901 H909 0.960 . S
C902 C900 1.381 . S
C902 C903 1.394 . S
C902 H910 0.930 . S
C903 C902 1.394 . S
C903 C904 1.383 . S
C903 H911 0.929 . S
C904 C903 1.383 . S
C904 C905 1.377 . S
C905 H889 0.930 . S
C905 C904 1.377 . S
C905 C906 1.379 . S
C906 H890 0.931 . S
C906 C900 1.383 . S
C906 C905 1.379 . S
H907 C901 0.959 . S
H908 C901 0.961 . S
H909 C901 0.960 . S
H910 C902 0.930 . S
H911 C903 0.929 . S
H912 C920 0.929 . S
H913 C922 0.930 . S
H914 C924 0.930 . S
H915 C927 0.929 . S
H916 C930 0.930 . S
H917 C932 0.960 . S
H918 C932 0.960 . S
H919 C932 0.960 . S
C920 H912 0.929 . S
C920 C921 1.377 . S
C920 C922 1.384 . S
C921 C920 1.377 . S
C921 C927 1.390 . S
C922 H913 0.930 . S
C922 C920 1.384 . S
C922 C923 1.372 . S
C923 C922 1.372 . S
C923 C924 1.400 . S
C923 C928 1.490 . S
C924 H914 0.930 . S
C924 C923 1.400 . S
C924 C927 1.386 . S
H925 C941 0.930 . S
H926 C942 0.931 . S
C927 H915 0.929 . S
C927 C921 1.390 . S
C927 C924 1.386 . S
C928 C923 1.490 . S
C928 C930 1.395 . S
C928 C931 1.403 . S
H929 C935 0.930 . S
C930 H916 0.930 . S
C930 C928 1.395 . S
C930 C933 1.403 . S
C931 C928 1.403 . S
C931 C932 1.524 . S
C931 C935 1.400 . S
C932 H917 0.960 . S
C932 H918 0.960 . S
C932 H919 0.960 . S
C932 C931 1.524 . S
C933 C930 1.403 . S
C933 C934 1.392 . S
C933 C937 1.495 . S
C934 C933 1.392 . S
C934 C935 1.385 . S
C934 C936 1.478 . S
C935 H929 0.930 . S
C935 C931 1.400 . S
C935 C934 1.385 . S
C936 C934 1.478 . S
C936 C938 1.381 . S
C936 C942 1.383 . S
C937 C933 1.495 . S
C937 H943 0.959 . S
C937 H944 0.961 . S
C937 H945 0.960 . S
C938 C936 1.381 . S
C938 C939 1.394 . S
C938 H946 0.930 . S
C939 C938 1.394 . S
C939 C940 1.383 . S
C939 H947 0.929 . S
C940 C939 1.383 . S
C940 C941 1.377 . S
C941 H925 0.930 . S
C941 C940 1.377 . S
C941 C942 1.379 . S
C942 H926 0.931 . S
C942 C936 1.383 . S
C942 C941 1.379 . S
H943 C937 0.959 . S
H944 C937 0.961 . S
H945 C937 0.960 . S
H946 C938 0.930 . S
H947 C939 0.929 . S
H948 C956 0.929 . S
H949 C958 0.930 . S
H950 C960 0.930 . S
H951 C963 0.929 . S
H952 C966 0.930 . S
H953 C968 0.960 . S
H954 C968 0.960 . S
H955 C968 0.960 . S
C956 H948 0.929 . S
C956 C957 1.377 . S
C956 C958 1.384 . S
C957 C956 1.377 . S
C957 C963 1.390 . S
C958 H949 0.930 . S
C958 C956 1.384 . S
C958 C959 1.372 . S
C959 C958 1.372 . S
C959 C960 1.400 . S
C959 C964 1.490 . S
C960 H950 0.930 . S
C960 C959 1.400 . S
C960 C963 1.386 . S
H961 C977 0.930 . S
H962 C978 0.931 . S
C963 H951 0.929 . S
C963 C957 1.390 . S
C963 C960 1.386 . S
C964 C959 1.490 . S
C964 C966 1.395 . S
C964 C967 1.403 . S
H965 C971 0.930 . S
C966 H952 0.930 . S
C966 C964 1.395 . S
C966 C969 1.403 . S
C967 C964 1.403 . S
C967 C968 1.524 . S
C967 C971 1.400 . S
C968 H953 0.960 . S
C968 H954 0.960 . S
C968 H955 0.960 . S
C968 C967 1.524 . S
C969 C966 1.403 . S
C969 C970 1.392 . S
C969 C973 1.495 . S
C970 C969 1.392 . S
C970 C971 1.385 . S
C970 C972 1.478 . S
C971 H965 0.930 . S
C971 C967 1.400 . S
C971 C970 1.385 . S
C972 C970 1.478 . S
C972 C974 1.381 . S
C972 C978 1.383 . S
C973 C969 1.495 . S
C973 H979 0.959 . S
C973 H980 0.961 . S
C973 H981 0.960 . S
C974 C972 1.381 . S
C974 C975 1.394 . S
C974 H982 0.930 . S
C975 C974 1.394 . S
C975 C976 1.383 . S
C975 H983 0.929 . S
C976 C975 1.383 . S
C976 C977 1.377 . S
C977 H961 0.930 . S
C977 C976 1.377 . S
C977 C978 1.379 . S
C978 H962 0.931 . S
C978 C972 1.383 . S
C978 C977 1.379 . S
H979 C973 0.959 . S
H980 C973 0.961 . S
H981 C973 0.960 . S
H982 C974 0.930 . S
H983 C975 0.929 . S
H984 C992 0.929 . S
H985 C994 0.930 . S
H986 C996 0.930 . S
H987 C999 0.929 . S
H988 C1002 0.930 . S
H989 C1004 0.960 . S
H990 C1004 0.960 . S
H991 C1004 0.960 . S
C992 H984 0.929 . S
C992 C993 1.377 . S
C992 C994 1.384 . S
C993 C992 1.377 . S
C993 C999 1.390 . S
C994 H985 0.930 . S
C994 C992 1.384 . S
C994 C995 1.372 . S
C995 C994 1.372 . S
C995 C996 1.400 . S
C995 C1000 1.490 . S
C996 H986 0.930 . S
C996 C995 1.400 . S
C996 C999 1.386 . S
H997 C1013 0.930 . S
H998 C1014 0.931 . S
C999 H987 0.929 . S
C999 C993 1.390 . S
C999 C996 1.386 . S
C1000 C995 1.490 . S
C1000 C1002 1.395 . S
C1000 C1003 1.403 . S
H1001 C1007 0.930 . S
C1002 H988 0.930 . S
C1002 C1000 1.395 . S
C1002 C1005 1.403 . S
C1003 C1000 1.403 . S
C1003 C1004 1.524 . S
C1003 C1007 1.400 . S
C1004 H989 0.960 . S
C1004 H990 0.960 . S
C1004 H991 0.960 . S
C1004 C1003 1.524 . S
C1005 C1002 1.403 . S
C1005 C1006 1.392 . S
C1005 C1009 1.495 . S
C1006 C1005 1.392 . S
C1006 C1007 1.385 . S
C1006 C1008 1.478 . S
C1007 H1001 0.930 . S
C1007 C1003 1.400 . S
C1007 C1006 1.385 . S
C1008 C1006 1.478 . S
C1008 C1010 1.381 . S
C1008 C1014 1.383 . S
C1009 C1005 1.495 . S
C1009 H1015 0.959 . S
C1009 H1016 0.961 . S
C1009 H1017 0.960 . S
C1010 C1008 1.381 . S
C1010 C1011 1.394 . S
C1010 H1018 0.930 . S
C1011 C1010 1.394 . S
C1011 C1012 1.383 . S
C1011 H1019 0.929 . S
C1012 C1011 1.383 . S
C1012 C1013 1.377 . S
C1013 H997 0.930 . S
C1013 C1012 1.377 . S
C1013 C1014 1.379 . S
C1014 H998 0.931 . S
C1014 C1008 1.383 . S
C1014 C1013 1.379 . S
H1015 C1009 0.959 . S
H1016 C1009 0.961 . S
H1017 C1009 0.960 . S
H1018 C1010 0.930 . S
H1019 C1011 0.929 . S
H1020 C1028 0.929 . S
H1021 C1030 0.930 . S
H1022 C1032 0.930 . S
H1023 C1035 0.929 . S
H1024 C1038 0.930 . S
H1025 C1040 0.960 . S
H1026 C1040 0.960 . S
H1027 C1040 0.960 . S
C1028 H1020 0.929 . S
C1028 C1029 1.377 . S
C1028 C1030 1.384 . S
C1029 C1028 1.377 . S
C1029 C1035 1.390 . S
C1030 H1021 0.930 . S
C1030 C1028 1.384 . S
C1030 C1031 1.372 . S
C1031 C1030 1.372 . S
C1031 C1032 1.400 . S
C1031 C1036 1.490 . S
C1032 H1022 0.930 . S
C1032 C1031 1.400 . S
C1032 C1035 1.386 . S
H1033 C1049 0.930 . S
H1034 C1050 0.931 . S
C1035 H1023 0.929 . S
C1035 C1029 1.390 . S
C1035 C1032 1.386 . S
C1036 C1031 1.490 . S
C1036 C1038 1.395 . S
C1036 C1039 1.403 . S
H1037 C1043 0.930 1_556 S
C1038 H1024 0.930 . S
C1038 C1036 1.395 . S
C1038 C1041 1.403 . S
C1039 C1036 1.403 . S
C1039 C1040 1.524 . S
C1039 C1043 1.400 . S
C1040 H1025 0.960 . S
C1040 H1026 0.960 . S
C1040 H1027 0.960 . S
C1040 C1039 1.524 . S
C1041 C1038 1.403 . S
C1041 C1042 1.392 . S
C1041 C1045 1.495 . S
C1042 C1041 1.392 . S
C1042 C1043 1.385 . S
C1042 C1044 1.478 1_554 S
C1043 H1037 0.930 1_554 S
C1043 C1039 1.400 . S
C1043 C1042 1.385 . S
C1044 C1042 1.478 1_556 S
C1044 C1046 1.381 . S
C1044 C1050 1.383 . S
C1045 C1041 1.495 . S
C1045 H1051 0.959 . S
C1045 H1052 0.961 . S
C1045 H1053 0.960 . S
C1046 C1044 1.381 . S
C1046 C1047 1.394 . S
C1046 H1054 0.930 . S
C1047 C1046 1.394 . S
C1047 C1048 1.383 . S
C1047 H1055 0.929 . S
C1048 C1047 1.383 . S
C1048 C1049 1.377 . S
C1049 H1033 0.930 . S
C1049 C1048 1.377 . S
C1049 C1050 1.379 . S
C1050 H1034 0.931 . S
C1050 C1044 1.383 . S
C1050 C1049 1.379 . S
H1051 C1045 0.959 . S
H1052 C1045 0.961 . S
H1053 C1045 0.960 . S
H1054 C1046 0.930 . S
H1055 C1047 0.929 . S
H1056 C1064 0.929 . S
H1057 C1066 0.930 . S
H1058 C1068 0.930 . S
H1059 C1071 0.929 . S
H1060 C1074 0.930 . S
H1061 C1076 0.960 . S
H1062 C1076 0.960 . S
H1063 C1076 0.960 . S
C1064 H1056 0.929 . S
C1064 C1065 1.377 . S
C1064 C1066 1.384 . S
C1065 C1064 1.377 . S
C1065 C1071 1.390 . S
C1066 H1057 0.930 . S
C1066 C1064 1.384 . S
C1066 C1067 1.372 . S
C1067 C1066 1.372 . S
C1067 C1068 1.400 . S
C1067 C1072 1.490 . S
C1068 H1058 0.930 . S
C1068 C1067 1.400 . S
C1068 C1071 1.386 . S
H1069 C1085 0.930 . S
H1070 C1086 0.931 . S
C1071 H1059 0.929 . S
C1071 C1065 1.390 . S
C1071 C1068 1.386 . S
C1072 C1067 1.490 . S
C1072 C1074 1.395 . S
C1072 C1075 1.403 . S
H1073 C1079 0.930 . S
C1074 H1060 0.930 . S
C1074 C1072 1.395 . S
C1074 C1077 1.403 . S
C1075 C1072 1.403 . S
C1075 C1076 1.524 . S
C1075 C1079 1.400 . S
C1076 H1061 0.960 . S
C1076 H1062 0.960 . S
C1076 H1063 0.960 . S
C1076 C1075 1.524 . S
C1077 C1074 1.403 . S
C1077 C1078 1.392 . S
C1077 C1081 1.495 . S
C1078 C1077 1.392 . S
C1078 C1079 1.385 . S
C1078 C1080 1.478 . S
C1079 H1073 0.930 . S
C1079 C1075 1.400 . S
C1079 C1078 1.385 . S
C1080 C1078 1.478 . S
C1080 C1082 1.381 . S
C1080 C1086 1.383 . S
C1081 C1077 1.495 . S
C1081 H1087 0.959 . S
C1081 H1088 0.961 . S
C1081 H1089 0.960 . S
C1082 C1080 1.381 . S
C1082 C1083 1.394 . S
C1082 H1090 0.930 . S
C1083 C1082 1.394 . S
C1083 C1084 1.383 . S
C1083 H1091 0.929 . S
C1084 C1083 1.383 . S
C1084 C1085 1.377 . S
C1085 H1069 0.930 . S
C1085 C1084 1.377 . S
C1085 C1086 1.379 . S
C1086 H1070 0.931 . S
C1086 C1080 1.383 . S
C1086 C1085 1.379 . S
H1087 C1081 0.959 . S
H1088 C1081 0.961 . S
H1089 C1081 0.960 . S
H1090 C1082 0.930 . S
H1091 C1083 0.929 . S
H1092 C1100 0.929 . S
H1093 C1102 0.930 . S
H1094 C1104 0.930 . S
H1095 C1107 0.929 . S
H1096 C1110 0.930 . S
H1097 C1112 0.960 . S
H1098 C1112 0.960 . S
H1099 C1112 0.960 . S
C1100 H1092 0.929 . S
C1100 C1101 1.377 . S
C1100 C1102 1.384 . S
C1101 C1100 1.377 . S
C1101 C1107 1.390 . S
C1102 H1093 0.930 . S
C1102 C1100 1.384 . S
C1102 C1103 1.372 . S
C1103 C1102 1.372 . S
C1103 C1104 1.400 . S
C1103 C1108 1.490 . S
C1104 H1094 0.930 . S
C1104 C1103 1.400 . S
C1104 C1107 1.386 . S
H1105 C1121 0.930 . S
H1106 C1122 0.931 . S
C1107 H1095 0.929 . S
C1107 C1101 1.390 . S
C1107 C1104 1.386 . S
C1108 C1103 1.490 . S
C1108 C1110 1.395 . S
C1108 C1111 1.403 . S
H1109 C1115 0.930 . S
C1110 H1096 0.930 . S
C1110 C1108 1.395 . S
C1110 C1113 1.403 1_554 S
C1111 C1108 1.403 . S
C1111 C1112 1.524 . S
C1111 C1115 1.400 1_554 S
C1112 H1097 0.960 . S
C1112 H1098 0.960 . S
C1112 H1099 0.960 . S
C1112 C1111 1.524 . S
C1113 C1110 1.403 1_556 S
C1113 C1114 1.392 . S
C1113 C1117 1.495 . S
C1114 C1113 1.392 . S
C1114 C1115 1.385 . S
C1114 C1116 1.478 . S
C1115 H1109 0.930 . S
C1115 C1111 1.400 1_556 S
C1115 C1114 1.385 . S
C1116 C1114 1.478 . S
C1116 C1118 1.381 . S
C1116 C1122 1.383 . S
C1117 C1113 1.495 . S
C1117 H1123 0.959 . S
C1117 H1124 0.961 . S
C1117 H1125 0.960 . S
C1118 C1116 1.381 . S
C1118 C1119 1.394 . S
C1118 H1126 0.930 . S
C1119 C1118 1.394 . S
C1119 C1120 1.383 . S
C1119 H1127 0.929 . S
C1120 C1119 1.383 . S
C1120 C1121 1.377 . S
C1121 H1105 0.930 . S
C1121 C1120 1.377 . S
C1121 C1122 1.379 . S
C1122 H1106 0.931 . S
C1122 C1116 1.383 . S
C1122 C1121 1.379 . S
H1123 C1117 0.959 . S
H1124 C1117 0.961 . S
H1125 C1117 0.960 . S
H1126 C1118 0.930 . S
H1127 C1119 0.929 . S
H1128 C1136 0.929 . S
H1129 C1138 0.930 . S
H1130 C1140 0.930 . S
H1131 C1143 0.929 . S
H1132 C1146 0.930 . S
H1133 C1148 0.960 . S
H1134 C1148 0.960 . S
H1135 C1148 0.960 . S
C1136 H1128 0.929 . S
C1136 C1137 1.377 . S
C1136 C1138 1.384 . S
C1137 C1136 1.377 . S
C1137 C1143 1.390 . S
C1138 H1129 0.930 . S
C1138 C1136 1.384 . S
C1138 C1139 1.372 . S
C1139 C1138 1.372 . S
C1139 C1140 1.400 . S
C1139 C1144 1.490 . S
C1140 H1130 0.930 . S
C1140 C1139 1.400 . S
C1140 C1143 1.386 . S
H1141 C1157 0.930 . S
H1142 C1158 0.931 . S
C1143 H1131 0.929 . S
C1143 C1137 1.390 . S
C1143 C1140 1.386 . S
C1144 C1139 1.490 . S
C1144 C1146 1.395 . S
C1144 C1147 1.403 . S
H1145 C1151 0.930 . S
C1146 H1132 0.930 . S
C1146 C1144 1.395 . S
C1146 C1149 1.403 . S
C1147 C1144 1.403 . S
C1147 C1148 1.524 . S
C1147 C1151 1.400 . S
C1148 H1133 0.960 . S
C1148 H1134 0.960 . S
C1148 H1135 0.960 . S
C1148 C1147 1.524 . S
C1149 C1146 1.403 . S
C1149 C1150 1.392 . S
C1149 C1153 1.495 . S
C1150 C1149 1.392 . S
C1150 C1151 1.385 . S
C1150 C1152 1.478 . S
C1151 H1145 0.930 . S
C1151 C1147 1.400 . S
C1151 C1150 1.385 . S
C1152 C1150 1.478 . S
C1152 C1154 1.381 . S
C1152 C1158 1.383 . S
C1153 C1149 1.495 . S
C1153 H1159 0.959 . S
C1153 H1160 0.961 . S
C1153 H1161 0.960 . S
C1154 C1152 1.381 . S
C1154 C1155 1.394 . S
C1154 H1162 0.930 . S
C1155 C1154 1.394 . S
C1155 C1156 1.383 . S
C1155 H1163 0.929 . S
C1156 C1155 1.383 . S
C1156 C1157 1.377 . S
C1157 H1141 0.930 . S
C1157 C1156 1.377 . S
C1157 C1158 1.379 . S
C1158 H1142 0.931 . S
C1158 C1152 1.383 . S
C1158 C1157 1.379 . S
H1159 C1153 0.959 . S
H1160 C1153 0.961 . S
H1161 C1153 0.960 . S
H1162 C1154 0.930 . S
H1163 C1155 0.929 . S
H1164 C1172 0.929 . S
H1165 C1174 0.930 . S
H1166 C1176 0.930 . S
H1167 C1179 0.929 . S
H1168 C1182 0.930 . S
H1169 C1184 0.960 . S
H1170 C1184 0.960 . S
H1171 C1184 0.960 . S
C1172 H1164 0.929 . S
C1172 C1173 1.377 . S
C1172 C1174 1.384 . S
C1173 C1172 1.377 . S
C1173 C1179 1.390 . S
C1174 H1165 0.930 . S
C1174 C1172 1.384 . S
C1174 C1175 1.372 . S
C1175 C1174 1.372 . S
C1175 C1176 1.400 . S
C1175 C1180 1.490 . S
C1176 H1166 0.930 . S
C1176 C1175 1.400 . S
C1176 C1179 1.386 . S
H1177 C1193 0.930 . S
H1178 C1194 0.931 . S
C1179 H1167 0.929 . S
C1179 C1173 1.390 . S
C1179 C1176 1.386 . S
C1180 C1175 1.490 . S
C1180 C1182 1.395 . S
C1180 C1183 1.403 . S
H1181 C1187 0.930 . S
C1182 H1168 0.930 . S
C1182 C1180 1.395 . S
C1182 C1185 1.403 . S
C1183 C1180 1.403 . S
C1183 C1184 1.524 . S
C1183 C1187 1.400 . S
C1184 H1169 0.960 . S
C1184 H1170 0.960 . S
C1184 H1171 0.960 . S
C1184 C1183 1.524 . S
C1185 C1182 1.403 . S
C1185 C1186 1.392 . S
C1185 C1189 1.495 . S
C1186 C1185 1.392 . S
C1186 C1187 1.385 . S
C1186 C1188 1.478 . S
C1187 H1181 0.930 . S
C1187 C1183 1.400 . S
C1187 C1186 1.385 . S
C1188 C1186 1.478 . S
C1188 C1190 1.381 . S
C1188 C1194 1.383 . S
C1189 C1185 1.495 . S
C1189 H1195 0.959 . S
C1189 H1196 0.961 . S
C1189 H1197 0.960 . S
C1190 C1188 1.381 . S
C1190 C1191 1.394 . S
C1190 H1198 0.930 . S
C1191 C1190 1.394 . S
C1191 C1192 1.383 . S
C1191 H1199 0.929 . S
C1192 C1191 1.383 . S
C1192 C1193 1.377 . S
C1193 H1177 0.930 . S
C1193 C1192 1.377 . S
C1193 C1194 1.379 . S
C1194 H1178 0.931 . S
C1194 C1188 1.383 . S
C1194 C1193 1.379 . S
H1195 C1189 0.959 . S
H1196 C1189 0.961 . S
H1197 C1189 0.960 . S
H1198 C1190 0.930 . S
H1199 C1191 0.929 . S
H1200 C1208 0.929 . S
H1201 C1210 0.930 . S
H1202 C1212 0.930 . S
H1203 C1215 0.929 . S
H1204 C1218 0.930 . S
H1205 C1220 0.960 . S
H1206 C1220 0.960 . S
H1207 C1220 0.960 . S
C1208 H1200 0.929 . S
C1208 C1209 1.377 . S
C1208 C1210 1.384 . S
C1209 C1208 1.377 . S
C1209 C1215 1.390 . S
C1210 H1201 0.930 . S
C1210 C1208 1.384 . S
C1210 C1211 1.372 . S
C1211 C1210 1.372 . S
C1211 C1212 1.400 . S
C1211 C1216 1.490 . S
C1212 H1202 0.930 . S
C1212 C1211 1.400 . S
C1212 C1215 1.386 . S
H1213 C1229 0.930 . S
H1214 C1230 0.931 . S
C1215 H1203 0.929 . S
C1215 C1209 1.390 . S
C1215 C1212 1.386 . S
C1216 C1211 1.490 . S
C1216 C1218 1.395 . S
C1216 C1219 1.403 . S
H1217 C1223 0.930 . S
C1218 H1204 0.930 . S
C1218 C1216 1.395 . S
C1218 C1221 1.403 . S
C1219 C1216 1.403 . S
C1219 C1220 1.524 . S
C1219 C1223 1.400 . S
C1220 H1205 0.960 . S
C1220 H1206 0.960 . S
C1220 H1207 0.960 . S
C1220 C1219 1.524 . S
C1221 C1218 1.403 . S
C1221 C1222 1.392 . S
C1221 C1225 1.495 . S
C1222 C1221 1.392 . S
C1222 C1223 1.385 . S
C1222 C1224 1.478 . S
C1223 H1217 0.930 . S
C1223 C1219 1.400 . S
C1223 C1222 1.385 . S
C1224 C1222 1.478 . S
C1224 C1226 1.381 . S
C1224 C1230 1.383 . S
C1225 C1221 1.495 . S
C1225 H1231 0.959 . S
C1225 H1232 0.961 . S
C1225 H1233 0.960 . S
C1226 C1224 1.381 . S
C1226 C1227 1.394 . S
C1226 H1234 0.930 . S
C1227 C1226 1.394 . S
C1227 C1228 1.383 . S
C1227 H1235 0.929 . S
C1228 C1227 1.383 . S
C1228 C1229 1.377 . S
C1229 H1213 0.930 . S
C1229 C1228 1.377 . S
C1229 C1230 1.379 . S
C1230 H1214 0.931 . S
C1230 C1224 1.383 . S
C1230 C1229 1.379 . S
H1231 C1225 0.959 . S
H1232 C1225 0.961 . S
H1233 C1225 0.960 . S
H1234 C1226 0.930 . S
H1235 C1227 0.929 . S
H1236 C1244 0.929 . S
H1237 C1246 0.930 . S
H1238 C1248 0.930 . S
H1239 C1251 0.929 . S
H1240 C1254 0.930 . S
H1241 C1256 0.960 . S
H1242 C1256 0.960 . S
H1243 C1256 0.960 . S
C1244 H1236 0.929 . S
C1244 C1245 1.377 . S
C1244 C1246 1.384 . S
C1245 C1244 1.377 . S
C1245 C1251 1.390 . S
C1246 H1237 0.930 . S
C1246 C1244 1.384 . S
C1246 C1247 1.372 . S
C1247 C1246 1.372 . S
C1247 C1248 1.400 . S
C1247 C1252 1.490 . S
C1248 H1238 0.930 . S
C1248 C1247 1.400 . S
C1248 C1251 1.386 . S
H1249 C1265 0.930 . S
H1250 C1266 0.931 . S
C1251 H1239 0.929 . S
C1251 C1245 1.390 . S
C1251 C1248 1.386 . S
C1252 C1247 1.490 . S
C1252 C1254 1.395 . S
C1252 C1255 1.403 . S
H1253 C1259 0.913 1_565 S
C1254 H1240 0.930 . S
C1254 C1252 1.395 . S
C1254 C1257 1.403 . S
C1255 C1252 1.403 . S
C1255 C1256 1.524 . S
C1255 C1259 1.433 . S
C1256 H1241 0.960 . S
C1256 H1242 0.960 . S
C1256 H1243 0.960 . S
C1256 C1255 1.524 . S
C1257 C1254 1.403 . S
C1257 C1258 1.392 1_545 S
C1257 C1261 1.495 1_545 S
C1258 C1257 1.392 1_565 S
C1258 C1259 1.370 1_565 S
C1258 C1260 1.478 . S
C1259 H1253 0.913 1_545 S
C1259 C1255 1.433 . S
C1259 C1258 1.370 1_545 S
C1260 C1258 1.478 . S
C1260 C1262 1.381 . S
C1260 C1266 1.383 . S
C1261 C1257 1.495 1_565 S
C1261 H1267 0.959 1_565 S
C1261 H1268 0.961 . S
C1261 H1269 0.960 . S
C1262 C1260 1.381 . S
C1262 C1263 1.394 . S
C1262 H1270 0.930 . S
C1263 C1262 1.394 . S
C1263 C1264 1.383 . S
C1263 H1271 0.929 . S
C1264 C1263 1.383 . S
C1264 C1265 1.377 . S
C1265 H1249 0.930 . S
C1265 C1264 1.377 . S
C1265 C1266 1.379 . S
C1266 H1250 0.931 . S
C1266 C1260 1.383 . S
C1266 C1265 1.379 . S
H1267 C1261 0.959 1_545 S
H1268 C1261 0.961 . S
H1269 C1261 0.960 . S
H1270 C1262 0.930 . S
H1271 C1263 0.929 . S
H1272 C1280 0.929 . S
H1273 C1282 0.930 . S
H1274 C1284 0.930 . S
H1275 C1287 0.929 . S
H1276 C1290 0.930 . S
H1277 C1292 0.960 . S
H1278 C1292 0.960 . S
H1279 C1292 0.960 . S
C1280 H1272 0.929 . S
C1280 C1281 1.377 . S
C1280 C1282 1.384 . S
C1281 C1280 1.377 . S
C1281 C1287 1.390 . S
C1282 H1273 0.930 . S
C1282 C1280 1.384 . S
C1282 C1283 1.372 . S
C1283 C1282 1.372 . S
C1283 C1284 1.400 . S
C1283 C1288 1.490 . S
C1284 H1274 0.930 . S
C1284 C1283 1.400 . S
C1284 C1287 1.386 . S
H1285 C1301 0.930 . S
H1286 C1302 0.931 . S
C1287 H1275 0.929 . S
C1287 C1281 1.390 . S
C1287 C1284 1.386 . S
C1288 C1283 1.490 . S
C1288 C1290 1.395 . S
C1288 C1291 1.403 . S
H1289 C1295 0.930 . S
C1290 H1276 0.930 . S
C1290 C1288 1.395 . S
C1290 C1293 1.403 . S
C1291 C1288 1.403 . S
C1291 C1292 1.524 . S
C1291 C1295 1.400 . S
C1292 H1277 0.960 . S
C1292 H1278 0.960 . S
C1292 H1279 0.960 . S
C1292 C1291 1.524 . S
C1293 C1290 1.403 . S
C1293 C1294 1.392 . S
C1293 C1297 1.495 . S
C1294 C1293 1.392 . S
C1294 C1295 1.385 . S
C1294 C1296 1.478 . S
C1295 H1289 0.930 . S
C1295 C1291 1.400 . S
C1295 C1294 1.385 . S
C1296 C1294 1.478 . S
C1296 C1298 1.381 . S
C1296 C1302 1.383 . S
C1297 C1293 1.495 . S
C1297 H1303 0.959 . S
C1297 H1304 0.961 . S
C1297 H1305 0.960 . S
C1298 C1296 1.381 . S
C1298 C1299 1.394 . S
C1298 H1306 0.930 . S
C1299 C1298 1.394 . S
C1299 C1300 1.383 . S
C1299 H1307 0.929 . S
C1300 C1299 1.383 . S
C1300 C1301 1.377 . S
C1301 H1285 0.930 . S
C1301 C1300 1.377 . S
C1301 C1302 1.379 . S
C1302 H1286 0.931 . S
C1302 C1296 1.383 . S
C1302 C1301 1.379 . S
H1303 C1297 0.959 . S
H1304 C1297 0.961 . S
H1305 C1297 0.960 . S
H1306 C1298 0.930 . S
H1307 C1299 0.929 . S
H1308 C1316 0.929 . S
H1309 C1318 0.930 . S
H1310 C1320 0.930 . S
H1311 C1323 0.929 . S
H1312 C1326 0.930 . S
H1313 C1328 0.960 . S
H1314 C1328 0.960 . S
H1315 C1328 0.960 . S
C1316 H1308 0.929 . S
C1316 C1317 1.377 . S
C1316 C1318 1.384 . S
C1317 C1316 1.377 . S
C1317 C1323 1.390 . S
C1318 H1309 0.930 . S
C1318 C1316 1.384 . S
C1318 C1319 1.372 . S
C1319 C1318 1.372 . S
C1319 C1320 1.400 . S
C1319 C1324 1.490 . S
C1320 H1310 0.930 . S
C1320 C1319 1.400 . S
C1320 C1323 1.386 . S
H1321 C1337 0.930 . S
H1322 C1338 0.931 . S
C1323 H1311 0.929 . S
C1323 C1317 1.390 . S
C1323 C1320 1.386 . S
C1324 C1319 1.490 . S
C1324 C1326 1.395 . S
C1324 C1327 1.403 . S
H1325 C1331 0.930 . S
C1326 H1312 0.930 . S
C1326 C1324 1.395 . S
C1326 C1329 1.403 1_545 S
C1327 C1324 1.403 . S
C1327 C1328 1.524 . S
C1327 C1331 1.400 1_545 S
C1328 H1313 0.960 . S
C1328 H1314 0.960 . S
C1328 H1315 0.960 . S
C1328 C1327 1.524 . S
C1329 C1326 1.403 1_565 S
C1329 C1330 1.392 . S
C1329 C1333 1.495 . S
C1330 C1329 1.392 . S
C1330 C1331 1.385 . S
C1330 C1332 1.478 . S
C1331 H1325 0.930 . S
C1331 C1327 1.400 1_565 S
C1331 C1330 1.385 . S
C1332 C1330 1.478 . S
C1332 C1334 1.381 . S
C1332 C1338 1.383 . S
C1333 C1329 1.495 . S
C1333 H1339 0.959 . S
C1333 H1340 0.961 . S
C1333 H1341 0.960 . S
C1334 C1332 1.381 . S
C1334 C1335 1.394 . S
C1334 H1342 0.930 . S
C1335 C1334 1.394 . S
C1335 C1336 1.383 . S
C1335 H1343 0.929 . S
C1336 C1335 1.383 . S
C1336 C1337 1.377 . S
C1337 H1321 0.930 . S
C1337 C1336 1.377 . S
C1337 C1338 1.379 . S
C1338 H1322 0.931 . S
C1338 C1332 1.383 . S
C1338 C1337 1.379 . S
H1339 C1333 0.959 . S
H1340 C1333 0.961 . S
H1341 C1333 0.960 . S
H1342 C1334 0.930 . S
H1343 C1335 0.929 . S
H1344 C1352 0.929 . S
H1345 C1354 0.930 . S
H1346 C1356 0.930 . S
H1347 C1359 0.929 . S
H1348 C1362 0.930 . S
H1349 C1364 0.960 . S
H1350 C1364 0.960 . S
H1351 C1364 0.960 . S
C1352 H1344 0.929 . S
C1352 C1353 1.377 . S
C1352 C1354 1.384 . S
C1353 C1352 1.377 . S
C1353 C1359 1.390 . S
C1354 H1345 0.930 . S
C1354 C1352 1.384 . S
C1354 C1355 1.372 . S
C1355 C1354 1.372 . S
C1355 C1356 1.400 . S
C1355 C1360 1.490 . S
C1356 H1346 0.930 . S
C1356 C1355 1.400 . S
C1356 C1359 1.386 . S
H1357 C1373 0.930 . S
H1358 C1374 0.931 . S
C1359 H1347 0.929 . S
C1359 C1353 1.390 . S
C1359 C1356 1.386 . S
C1360 C1355 1.490 . S
C1360 C1362 1.395 . S
C1360 C1363 1.403 . S
H1361 C1367 0.930 . S
C1362 H1348 0.930 . S
C1362 C1360 1.395 . S
C1362 C1365 1.403 . S
C1363 C1360 1.403 . S
C1363 C1364 1.524 . S
C1363 C1367 1.400 . S
C1364 H1349 0.960 . S
C1364 H1350 0.960 . S
C1364 H1351 0.960 . S
C1364 C1363 1.524 . S
C1365 C1362 1.403 . S
C1365 C1366 1.392 . S
C1365 C1369 1.495 . S
C1366 C1365 1.392 . S
C1366 C1367 1.385 . S
C1366 C1368 1.478 . S
C1367 H1361 0.930 . S
C1367 C1363 1.400 . S
C1367 C1366 1.385 . S
C1368 C1366 1.478 . S
C1368 C1370 1.381 . S
C1368 C1374 1.383 . S
C1369 C1365 1.495 . S
C1369 H1375 0.959 . S
C1369 H1376 0.961 . S
C1369 H1377 0.960 . S
C1370 C1368 1.381 . S
C1370 C1371 1.394 . S
C1370 H1378 0.930 . S
C1371 C1370 1.394 . S
C1371 C1372 1.383 . S
C1371 H1379 0.929 . S
C1372 C1371 1.383 . S
C1372 C1373 1.377 . S
C1373 H1357 0.930 . S
C1373 C1372 1.377 . S
C1373 C1374 1.379 . S
C1374 H1358 0.931 . S
C1374 C1368 1.383 . S
C1374 C1373 1.379 . S
H1375 C1369 0.959 . S
H1376 C1369 0.961 . S
H1377 C1369 0.960 . S
H1378 C1370 0.930 . S
H1379 C1371 0.929 . S
H1380 C1388 0.929 . S
H1381 C1390 0.930 . S
H1382 C1392 0.930 . S
H1383 C1395 0.929 . S
H1384 C1398 0.930 . S
H1385 C1400 0.960 . S
H1386 C1400 0.960 . S
H1387 C1400 0.960 . S
C1388 H1380 0.929 . S
C1388 C1389 1.377 . S
C1388 C1390 1.384 . S
C1389 C1388 1.377 . S
C1389 C1395 1.390 . S
C1390 H1381 0.930 . S
C1390 C1388 1.384 . S
C1390 C1391 1.372 . S
C1391 C1390 1.372 . S
C1391 C1392 1.400 . S
C1391 C1396 1.490 . S
C1392 H1382 0.930 . S
C1392 C1391 1.400 . S
C1392 C1395 1.386 . S
H1393 C1409 0.930 . S
H1394 C1410 0.931 . S
C1395 H1383 0.929 . S
C1395 C1389 1.390 . S
C1395 C1392 1.386 . S
C1396 C1391 1.490 . S
C1396 C1398 1.395 . S
C1396 C1399 1.403 . S
H1397 C1403 0.930 . S
C1398 H1384 0.930 . S
C1398 C1396 1.395 . S
C1398 C1401 1.403 . S
C1399 C1396 1.403 . S
C1399 C1400 1.524 . S
C1399 C1403 1.400 . S
C1400 H1385 0.960 . S
C1400 H1386 0.960 . S
C1400 H1387 0.960 . S
C1400 C1399 1.524 . S
C1401 C1398 1.403 . S
C1401 C1402 1.392 . S
C1401 C1405 1.495 . S
C1402 C1401 1.392 . S
C1402 C1403 1.385 . S
C1402 C1404 1.478 . S
C1403 H1397 0.930 . S
C1403 C1399 1.400 . S
C1403 C1402 1.385 . S
C1404 C1402 1.478 . S
C1404 C1406 1.381 . S
C1404 C1410 1.383 . S
C1405 C1401 1.495 . S
C1405 H1411 0.959 . S
C1405 H1412 0.961 . S
C1405 H1413 0.960 . S
C1406 C1404 1.381 . S
C1406 C1407 1.394 . S
C1406 H1414 0.930 . S
C1407 C1406 1.394 . S
C1407 C1408 1.383 . S
C1407 H1415 0.929 . S
C1408 C1407 1.383 . S
C1408 C1409 1.377 . S
C1409 H1393 0.930 . S
C1409 C1408 1.377 . S
C1409 C1410 1.379 . S
C1410 H1394 0.931 . S
C1410 C1404 1.383 . S
C1410 C1409 1.379 . S
H1411 C1405 0.959 . S
H1412 C1405 0.961 . S
H1413 C1405 0.960 . S
H1414 C1406 0.930 . S
H1415 C1407 0.929 . S
H1416 C1424 0.929 . S
H1417 C1426 0.930 . S
H1418 C1428 0.930 . S
H1419 C1431 0.929 . S
H1420 C1434 0.930 . S
H1421 C1436 0.960 . S
H1422 C1436 0.960 . S
H1423 C1436 0.960 . S
C1424 H1416 0.929 . S
C1424 C1425 1.377 . S
C1424 C1426 1.384 . S
C1425 C1424 1.377 . S
C1425 C1431 1.390 . S
C1426 H1417 0.930 . S
C1426 C1424 1.384 . S
C1426 C1427 1.372 . S
C1427 C1426 1.372 . S
C1427 C1428 1.400 . S
C1427 C1432 1.490 . S
C1428 H1418 0.930 . S
C1428 C1427 1.400 . S
C1428 C1431 1.386 . S
H1429 C1445 0.930 . S
H1430 C1446 0.931 . S
C1431 H1419 0.929 . S
C1431 C1425 1.390 . S
C1431 C1428 1.386 . S
C1432 C1427 1.490 . S
C1432 C1434 1.395 . S
C1432 C1435 1.403 . S
H1433 C1439 0.930 . S
C1434 H1420 0.930 . S
C1434 C1432 1.395 . S
C1434 C1437 1.403 . S
C1435 C1432 1.403 . S
C1435 C1436 1.524 . S
C1435 C1439 1.400 . S
C1436 H1421 0.960 . S
C1436 H1422 0.960 . S
C1436 H1423 0.960 . S
C1436 C1435 1.524 . S
C1437 C1434 1.403 . S
C1437 C1438 1.392 . S
C1437 C1441 1.495 . S
C1438 C1437 1.392 . S
C1438 C1439 1.385 . S
C1438 C1440 1.478 . S
C1439 H1433 0.930 . S
C1439 C1435 1.400 . S
C1439 C1438 1.385 . S
C1440 C1438 1.478 . S
C1440 C1442 1.381 . S
C1440 C1446 1.383 . S
C1441 C1437 1.495 . S
C1441 H1447 0.959 . S
C1441 H1448 0.961 . S
C1441 H1449 0.960 . S
C1442 C1440 1.381 . S
C1442 C1443 1.394 . S
C1442 H1450 0.930 . S
C1443 C1442 1.394 . S
C1443 C1444 1.383 . S
C1443 H1451 0.929 . S
C1444 C1443 1.383 . S
C1444 C1445 1.377 . S
C1445 H1429 0.930 . S
C1445 C1444 1.377 . S
C1445 C1446 1.379 . S
C1446 H1430 0.931 . S
C1446 C1440 1.383 . S
C1446 C1445 1.379 . S
H1447 C1441 0.959 . S
H1448 C1441 0.961 . S
H1449 C1441 0.960 . S
H1450 C1442 0.930 . S
H1451 C1443 0.929 . S
H1452 C1460 0.929 . S
H1453 C1462 0.930 . S
H1454 C1464 0.930 . S
H1455 C1467 0.929 . S
H1456 C1470 0.930 . S
H1457 C1472 0.960 . S
H1458 C1472 0.960 . S
H1459 C1472 0.960 . S
C1460 H1452 0.929 . S
C1460 C1461 1.377 . S
C1460 C1462 1.384 . S
C1461 C1460 1.377 . S
C1461 C1467 1.390 . S
C1462 H1453 0.930 . S
C1462 C1460 1.384 . S
C1462 C1463 1.372 . S
C1463 C1462 1.372 . S
C1463 C1464 1.400 . S
C1463 C1468 1.490 . S
C1464 H1454 0.930 . S
C1464 C1463 1.400 . S
C1464 C1467 1.386 . S
H1465 C1481 0.930 . S
H1466 C1482 0.931 . S
C1467 H1455 0.929 . S
C1467 C1461 1.390 . S
C1467 C1464 1.386 . S
C1468 C1463 1.490 . S
C1468 C1470 1.395 . S
C1468 C1471 1.403 . S
H1469 C1475 0.930 . S
C1470 H1456 0.930 . S
C1470 C1468 1.395 . S
C1470 C1473 1.403 . S
C1471 C1468 1.403 . S
C1471 C1472 1.524 . S
C1471 C1475 1.400 . S
C1472 H1457 0.960 . S
C1472 H1458 0.960 . S
C1472 H1459 0.960 . S
C1472 C1471 1.524 . S
C1473 C1470 1.403 . S
C1473 C1474 1.392 . S
C1473 C1477 1.495 . S
C1474 C1473 1.392 . S
C1474 C1475 1.385 . S
C1474 C1476 1.478 . S
C1475 H1469 0.930 . S
C1475 C1471 1.400 . S
C1475 C1474 1.385 . S
C1476 C1474 1.478 . S
C1476 C1478 1.381 . S
C1476 C1482 1.383 . S
C1477 C1473 1.495 . S
C1477 H1483 0.959 . S
C1477 H1484 0.961 . S
C1477 H1485 0.960 . S
C1478 C1476 1.381 . S
C1478 C1479 1.394 . S
C1478 H1486 0.930 . S
C1479 C1478 1.394 . S
C1479 C1480 1.383 . S
C1479 H1487 0.929 . S
C1480 C1479 1.383 . S
C1480 C1481 1.377 . S
C1481 H1465 0.930 . S
C1481 C1480 1.377 . S
C1481 C1482 1.379 . S
C1482 H1466 0.931 . S
C1482 C1476 1.383 . S
C1482 C1481 1.379 . S
H1483 C1477 0.959 . S
H1484 C1477 0.961 . S
H1485 C1477 0.960 . S
H1486 C1478 0.930 . S
H1487 C1479 0.929 . S
H1488 C1496 0.929 . S
H1489 C1498 0.930 . S
H1490 C1500 0.930 . S
H1491 C1503 0.929 . S
H1492 C1506 0.930 . S
H1493 C1508 0.960 . S
H1494 C1508 0.960 . S
H1495 C1508 0.960 . S
C1496 H1488 0.929 . S
C1496 C1497 1.377 . S
C1496 C1498 1.384 . S
C1497 C1496 1.377 . S
C1497 C1503 1.390 . S
C1498 H1489 0.930 . S
C1498 C1496 1.384 . S
C1498 C1499 1.372 . S
C1499 C1498 1.372 . S
C1499 C1500 1.400 . S
C1499 C1504 1.490 . S
C1500 H1490 0.930 . S
C1500 C1499 1.400 . S
C1500 C1503 1.386 . S
H1501 C1517 0.930 . S
H1502 C1518 0.931 . S
C1503 H1491 0.929 . S
C1503 C1497 1.390 . S
C1503 C1500 1.386 . S
C1504 C1499 1.490 . S
C1504 C1506 1.395 . S
C1504 C1507 1.403 . S
H1505 C1511 0.930 . S
C1506 H1492 0.930 . S
C1506 C1504 1.395 . S
C1506 C1509 1.403 . S
C1507 C1504 1.403 . S
C1507 C1508 1.524 . S
C1507 C1511 1.400 . S
C1508 H1493 0.960 . S
C1508 H1494 0.960 . S
C1508 H1495 0.960 . S
C1508 C1507 1.524 . S
C1509 C1506 1.403 . S
C1509 C1510 1.392 . S
C1509 C1513 1.495 . S
C1510 C1509 1.392 . S
C1510 C1511 1.385 . S
C1510 C1512 1.478 . S
C1511 H1505 0.930 . S
C1511 C1507 1.400 . S
C1511 C1510 1.385 . S
C1512 C1510 1.478 . S
C1512 C1514 1.381 . S
C1512 C1518 1.383 . S
C1513 C1509 1.495 . S
C1513 H1519 0.959 . S
C1513 H1520 0.961 . S
C1513 H1521 0.960 . S
C1514 C1512 1.381 . S
C1514 C1515 1.394 . S
C1514 H1522 0.930 . S
C1515 C1514 1.394 . S
C1515 C1516 1.383 . S
C1515 H1523 0.929 . S
C1516 C1515 1.383 . S
C1516 C1517 1.377 . S
C1517 H1501 0.930 . S
C1517 C1516 1.377 . S
C1517 C1518 1.379 . S
C1518 H1502 0.931 . S
C1518 C1512 1.383 . S
C1518 C1517 1.379 . S
H1519 C1513 0.959 . S
H1520 C1513 0.961 . S
H1521 C1513 0.960 . S
H1522 C1514 0.930 . S
H1523 C1515 0.929 . S
H1524 C1532 0.929 . S
H1525 C1534 0.930 . S
H1526 C1536 0.930 . S
H1527 C1539 0.929 . S
H1528 C1542 0.930 . S
H1529 C1544 0.960 . S
H1530 C1544 0.960 . S
H1531 C1544 0.960 . S
C1532 H1524 0.929 . S
C1532 C1533 1.377 . S
C1532 C1534 1.384 . S
C1533 C1532 1.377 . S
C1533 C1539 1.390 . S
C1534 H1525 0.930 . S
C1534 C1532 1.384 . S
C1534 C1535 1.372 . S
C1535 C1534 1.372 . S
C1535 C1536 1.400 . S
C1535 C1540 1.490 . S
C1536 H1526 0.930 . S
C1536 C1535 1.400 . S
C1536 C1539 1.386 . S
H1537 C1553 0.930 . S
H1538 C1554 0.931 . S
C1539 H1527 0.929 . S
C1539 C1533 1.390 . S
C1539 C1536 1.386 . S
C1540 C1535 1.490 . S
C1540 C1542 1.395 . S
C1540 C1543 1.403 . S
H1541 C1547 0.930 . S
C1542 H1528 0.930 . S
C1542 C1540 1.395 . S
C1542 C1545 1.403 . S
C1543 C1540 1.403 . S
C1543 C1544 1.524 . S
C1543 C1547 1.400 . S
C1544 H1529 0.960 . S
C1544 H1530 0.960 . S
C1544 H1531 0.960 . S
C1544 C1543 1.524 . S
C1545 C1542 1.403 . S
C1545 C1546 1.392 . S
C1545 C1549 1.495 . S
C1546 C1545 1.392 . S
C1546 C1547 1.385 . S
C1546 C1548 1.478 . S
C1547 H1541 0.930 . S
C1547 C1543 1.400 . S
C1547 C1546 1.385 . S
C1548 C1546 1.478 . S
C1548 C1550 1.381 . S
C1548 C1554 1.383 . S
C1549 C1545 1.495 . S
C1549 H1555 0.959 . S
C1549 H1556 0.961 . S
C1549 H1557 0.960 . S
C1550 C1548 1.381 . S
C1550 C1551 1.394 . S
C1550 H1558 0.930 . S
C1551 C1550 1.394 . S
C1551 C1552 1.383 . S
C1551 H1559 0.929 . S
C1552 C1551 1.383 . S
C1552 C1553 1.377 . S
C1553 H1537 0.930 . S
C1553 C1552 1.377 . S
C1553 C1554 1.379 . S
C1554 H1538 0.931 . S
C1554 C1548 1.383 . S
C1554 C1553 1.379 . S
H1555 C1549 0.959 . S
H1556 C1549 0.961 . S
H1557 C1549 0.960 . S
H1558 C1550 0.930 . S
H1559 C1551 0.929 . S
H1560 C1568 0.929 . S
H1561 C1570 0.930 . S
H1562 C1572 0.930 . S
H1563 C1575 0.929 . S
H1564 C1578 0.930 . S
H1565 C1580 0.960 . S
H1566 C1580 0.960 . S
H1567 C1580 0.960 . S
C1568 H1560 0.929 . S
C1568 C1569 1.377 . S
C1568 C1570 1.384 . S
C1569 C1568 1.377 . S
C1569 C1575 1.390 . S
C1570 H1561 0.930 . S
C1570 C1568 1.384 . S
C1570 C1571 1.372 . S
C1571 C1570 1.372 . S
C1571 C1572 1.400 . S
C1571 C1576 1.490 . S
C1572 H1562 0.930 . S
C1572 C1571 1.400 . S
C1572 C1575 1.386 . S
H1573 C1589 0.930 . S
H1574 C1590 0.931 . S
C1575 H1563 0.929 . S
C1575 C1569 1.390 . S
C1575 C1572 1.386 . S
C1576 C1571 1.490 . S
C1576 C1578 1.395 . S
C1576 C1579 1.403 . S
H1577 C1583 0.930 . S
C1578 H1564 0.930 . S
C1578 C1576 1.395 . S
C1578 C1581 1.403 . S
C1579 C1576 1.403 . S
C1579 C1580 1.524 . S
C1579 C1583 1.400 . S
C1580 H1565 0.960 . S
C1580 H1566 0.960 . S
C1580 H1567 0.960 . S
C1580 C1579 1.524 . S
C1581 C1578 1.403 . S
C1581 C1582 1.392 . S
C1581 C1585 1.495 . S
C1582 C1581 1.392 . S
C1582 C1583 1.385 . S
C1582 C1584 1.478 1_455 S
C1583 H1577 0.930 . S
C1583 C1579 1.400 . S
C1583 C1582 1.385 . S
C1584 C1582 1.478 1_655 S
C1584 C1586 1.381 . S
C1584 C1590 1.383 . S
C1585 C1581 1.495 . S
C1585 H1591 0.959 . S
C1585 H1592 0.961 1_455 S
C1585 H1593 0.961 . S
C1586 C1584 1.381 . S
C1586 C1587 1.394 . S
C1586 H1594 0.930 . S
C1587 C1586 1.394 . S
C1587 C1588 1.383 . S
C1587 H1595 0.929 . S
C1588 C1587 1.383 . S
C1588 C1589 1.377 . S
C1589 H1573 0.930 . S
C1589 C1588 1.377 . S
C1589 C1590 1.379 . S
C1590 H1574 0.931 . S
C1590 C1584 1.383 . S
C1590 C1589 1.379 . S
H1591 C1585 0.959 . S
H1592 C1585 0.961 1_655 S
H1593 C1585 0.961 . S
H1594 C1586 0.930 . S
H1595 C1587 0.929 . S
H1596 C1604 0.929 . S
H1597 C1606 0.930 . S
H1598 C1608 0.930 . S
H1599 C1611 0.929 . S
H1600 C1614 0.930 . S
H1601 C1616 0.960 . S
H1602 C1616 0.960 . S
H1603 C1616 0.960 . S
C1604 H1596 0.929 . S
C1604 C1605 1.377 . S
C1604 C1606 1.384 . S
C1605 C1604 1.377 . S
C1605 C1611 1.390 . S
C1606 H1597 0.930 . S
C1606 C1604 1.384 . S
C1606 C1607 1.372 . S
C1607 C1606 1.372 . S
C1607 C1608 1.400 . S
C1607 C1612 1.490 . S
C1608 H1598 0.930 . S
C1608 C1607 1.400 . S
C1608 C1611 1.386 . S
H1609 C1625 0.930 . S
H1610 C1626 0.931 . S
C1611 H1599 0.929 . S
C1611 C1605 1.390 . S
C1611 C1608 1.386 . S
C1612 C1607 1.490 . S
C1612 C1614 1.395 . S
C1612 C1615 1.403 . S
H1613 C1619 0.930 . S
C1614 H1600 0.930 . S
C1614 C1612 1.395 . S
C1614 C1617 1.403 . S
C1615 C1612 1.403 . S
C1615 C1616 1.524 . S
C1615 C1619 1.400 . S
C1616 H1601 0.960 . S
C1616 H1602 0.960 . S
C1616 H1603 0.960 . S
C1616 C1615 1.524 . S
C1617 C1614 1.403 . S
C1617 C1618 1.392 . S
C1617 C1621 1.495 . S
C1618 C1617 1.392 . S
C1618 C1619 1.385 . S
C1618 C1620 1.478 . S
C1619 H1613 0.930 . S
C1619 C1615 1.400 . S
C1619 C1618 1.385 . S
C1620 C1618 1.478 . S
C1620 C1622 1.381 . S
C1620 C1626 1.383 . S
C1621 C1617 1.495 . S
C1621 H1627 0.959 . S
C1621 H1628 0.961 . S
C1621 H1629 0.960 . S
C1622 C1620 1.381 . S
C1622 C1623 1.394 . S
C1622 H1630 0.930 . S
C1623 C1622 1.394 . S
C1623 C1624 1.383 . S
C1623 H1631 0.929 . S
C1624 C1623 1.383 . S
C1624 C1625 1.377 . S
C1625 H1609 0.930 . S
C1625 C1624 1.377 . S
C1625 C1626 1.379 . S
C1626 H1610 0.931 . S
C1626 C1620 1.383 . S
C1626 C1625 1.379 . S
H1627 C1621 0.959 . S
H1628 C1621 0.961 . S
H1629 C1621 0.960 . S
H1630 C1622 0.930 . S
H1631 C1623 0.929 . S
H1632 C1640 0.929 . S
H1633 C1642 0.930 . S
H1634 C1644 0.930 . S
H1635 C1647 0.929 . S
H1636 C1650 0.930 . S
H1637 C1652 0.960 . S
H1638 C1652 0.960 . S
H1639 C1652 0.960 . S
C1640 H1632 0.929 . S
C1640 C1641 1.377 . S
C1640 C1642 1.384 . S
C1641 C1640 1.377 . S
C1641 C1647 1.390 . S
C1642 H1633 0.930 . S
C1642 C1640 1.384 . S
C1642 C1643 1.372 . S
C1643 C1642 1.372 . S
C1643 C1644 1.400 . S
C1643 C1648 1.490 . S
C1644 H1634 0.930 . S
C1644 C1643 1.400 . S
C1644 C1647 1.386 . S
H1645 C1661 0.930 . S
H1646 C1662 0.931 . S
C1647 H1635 0.929 . S
C1647 C1641 1.390 . S
C1647 C1644 1.386 . S
C1648 C1643 1.490 . S
C1648 C1650 1.395 . S
C1648 C1651 1.403 . S
H1649 C1655 0.930 . S
C1650 H1636 0.930 . S
C1650 C1648 1.395 . S
C1650 C1653 1.403 . S
C1651 C1648 1.403 . S
C1651 C1652 1.524 . S
C1651 C1655 1.400 . S
C1652 H1637 0.960 . S
C1652 H1638 0.960 . S
C1652 H1639 0.960 . S
C1652 C1651 1.524 . S
C1653 C1650 1.403 . S
C1653 C1654 1.392 . S
C1653 C1657 1.495 . S
C1654 C1653 1.392 . S
C1654 C1655 1.385 . S
C1654 C1656 1.478 . S
C1655 H1649 0.930 . S
C1655 C1651 1.400 . S
C1655 C1654 1.385 . S
C1656 C1654 1.478 . S
C1656 C1658 1.381 . S
C1656 C1662 1.383 . S
C1657 C1653 1.495 . S
C1657 H1663 0.959 . S
C1657 H1664 0.961 . S
C1657 H1665 0.960 . S
C1658 C1656 1.381 . S
C1658 C1659 1.394 . S
C1658 H1666 0.930 . S
C1659 C1658 1.394 . S
C1659 C1660 1.383 . S
C1659 H1667 0.929 . S
C1660 C1659 1.383 . S
C1660 C1661 1.377 . S
C1661 H1645 0.930 . S
C1661 C1660 1.377 . S
C1661 C1662 1.379 . S
C1662 H1646 0.931 . S
C1662 C1656 1.383 . S
C1662 C1661 1.379 . S
H1663 C1657 0.959 . S
H1664 C1657 0.961 . S
H1665 C1657 0.960 . S
H1666 C1658 0.930 . S
H1667 C1659 0.929 . S
H1668 C1676 0.929 . S
H1669 C1678 0.930 . S
H1670 C1680 0.930 . S
H1671 C1683 0.929 . S
H1672 C1686 0.930 . S
H1673 C1688 0.960 . S
H1674 C1688 0.960 . S
H1675 C1688 0.960 . S
C1676 H1668 0.929 . S
C1676 C1677 1.377 . S
C1676 C1678 1.384 . S
C1677 C1676 1.377 . S
C1677 C1683 1.390 . S
C1678 H1669 0.930 . S
C1678 C1676 1.384 . S
C1678 C1679 1.372 . S
C1679 C1678 1.372 . S
C1679 C1680 1.400 . S
C1679 C1684 1.490 . S
C1680 H1670 0.930 . S
C1680 C1679 1.400 . S
C1680 C1683 1.386 . S
H1681 C1697 0.930 . S
H1682 C1698 0.931 . S
C1683 H1671 0.929 . S
C1683 C1677 1.390 . S
C1683 C1680 1.386 . S
C1684 C1679 1.490 . S
C1684 C1686 1.395 . S
C1684 C1687 1.403 . S
H1685 C1691 0.930 . S
C1686 H1672 0.930 . S
C1686 C1684 1.395 . S
C1686 C1689 1.403 . S
C1687 C1684 1.403 . S
C1687 C1688 1.524 . S
C1687 C1691 1.400 . S
C1688 H1673 0.960 . S
C1688 H1674 0.960 . S
C1688 H1675 0.960 . S
C1688 C1687 1.524 . S
C1689 C1686 1.403 . S
C1689 C1690 1.392 . S
C1689 C1693 1.495 . S
C1690 C1689 1.392 . S
C1690 C1691 1.385 . S
C1690 C1692 1.478 . S
C1691 H1685 0.930 . S
C1691 C1687 1.400 . S
C1691 C1690 1.385 . S
C1692 C1690 1.478 . S
C1692 C1694 1.381 . S
C1692 C1698 1.383 . S
C1693 C1689 1.495 . S
C1693 H1699 0.959 . S
C1693 H1700 0.961 . S
C1693 H1701 0.960 . S
C1694 C1692 1.381 . S
C1694 C1695 1.394 . S
C1694 H1702 0.930 . S
C1695 C1694 1.394 . S
C1695 C1696 1.383 . S
C1695 H1703 0.929 . S
C1696 C1695 1.383 . S
C1696 C1697 1.377 . S
C1697 H1681 0.930 . S
C1697 C1696 1.377 . S
C1697 C1698 1.379 . S
C1698 H1682 0.931 . S
C1698 C1692 1.383 . S
C1698 C1697 1.379 . S
H1699 C1693 0.959 . S
H1700 C1693 0.961 . S
H1701 C1693 0.960 . S
H1702 C1694 0.930 . S
H1703 C1695 0.929 . S
H1704 C1712 0.929 1_554 S
H1705 C1714 0.904 1_554 S
H1706 C1716 0.930 . S
H1707 C1719 0.929 . S
H1708 C1722 0.930 . S
H1709 C1724 0.960 . S
H1710 C1724 0.960 . S
H1711 C1724 0.960 . S
C1712 H1704 0.929 1_556 S
C1712 C1713 1.377 . S
C1712 C1714 1.384 . S
C1713 C1712 1.377 . S
C1713 C1719 1.390 . S
C1714 H1705 0.904 1_556 S
C1714 C1712 1.384 . S
C1714 C1715 1.372 . S
C1715 C1714 1.372 . S
C1715 C1716 1.400 . S
C1715 C1720 1.490 . S
C1716 H1706 0.930 . S
C1716 C1715 1.400 . S
C1716 C1719 1.386 . S
H1717 C1733 0.930 . S
H1718 C1734 0.931 . S
C1719 H1707 0.929 . S
C1719 C1713 1.390 . S
C1719 C1716 1.386 . S
C1720 C1715 1.490 . S
C1720 C1722 1.395 . S
C1720 C1723 1.403 . S
H1721 C1727 0.930 . S
C1722 H1708 0.930 . S
C1722 C1720 1.395 . S
C1722 C1725 1.403 . S
C1723 C1720 1.403 . S
C1723 C1724 1.524 . S
C1723 C1727 1.400 . S
C1724 H1709 0.960 . S
C1724 H1710 0.960 . S
C1724 H1711 0.960 . S
C1724 C1723 1.524 . S
C1725 C1722 1.403 . S
C1725 C1726 1.392 . S
C1725 C1729 1.495 . S
C1726 C1725 1.392 . S
C1726 C1727 1.385 . S
C1726 C1728 1.478 . S
C1727 H1721 0.930 . S
C1727 C1723 1.400 . S
C1727 C1726 1.385 . S
C1728 C1726 1.478 . S
C1728 C1730 1.381 . S
C1728 C1734 1.383 . S
C1729 C1725 1.495 . S
C1729 H1735 0.959 . S
C1729 H1736 0.961 . S
C1729 H1737 0.960 . S
C1730 C1728 1.381 . S
C1730 C1731 1.394 . S
C1730 H1738 0.930 . S
C1731 C1730 1.394 . S
C1731 C1732 1.383 . S
C1731 H1739 0.929 . S
C1732 C1731 1.383 . S
C1732 C1733 1.377 . S
C1733 H1717 0.930 . S
C1733 C1732 1.377 . S
C1733 C1734 1.379 . S
C1734 H1718 0.931 . S
C1734 C1728 1.383 . S
C1734 C1733 1.379 . S
H1735 C1729 0.959 . S
H1736 C1729 0.961 . S
H1737 C1729 0.960 . S
H1738 C1730 0.930 . S
H1739 C1731 0.929 . S
H1740 C1748 0.929 . S
H1741 C1750 0.930 . S
H1742 C1752 0.930 . S
H1743 C1755 0.929 . S
H1744 C1758 0.930 . S
H1745 C1760 0.960 . S
H1746 C1760 0.960 . S
H1747 C1760 0.960 . S
C1748 H1740 0.929 . S
C1748 C1749 1.377 . S
C1748 C1750 1.384 . S
C1749 C1748 1.377 . S
C1749 C1755 1.390 . S
C1750 H1741 0.930 . S
C1750 C1748 1.384 . S
C1750 C1751 1.372 . S
C1751 C1750 1.372 . S
C1751 C1752 1.400 . S
C1751 C1756 1.490 . S
C1752 H1742 0.930 . S
C1752 C1751 1.400 . S
C1752 C1755 1.386 . S
H1753 C1769 0.930 . S
H1754 C1770 0.931 . S
C1755 H1743 0.929 . S
C1755 C1749 1.390 . S
C1755 C1752 1.386 . S
C1756 C1751 1.490 . S
C1756 C1758 1.395 . S
C1756 C1759 1.403 . S
H1757 C1763 0.928 1_455 S
C1758 H1744 0.930 . S
C1758 C1756 1.395 . S
C1758 C1761 1.403 . S
C1759 C1756 1.403 . S
C1759 C1760 1.524 . S
C1759 C1763 1.400 . S
C1760 H1745 0.960 . S
C1760 H1746 0.960 . S
C1760 H1747 0.960 . S
C1760 C1759 1.524 . S
C1761 C1758 1.403 . S
C1761 C1762 1.408 . S
C1761 C1765 1.495 . S
C1762 C1761 1.408 . S
C1762 C1763 1.396 . S
C1762 C1764 1.451 1_655 S
C1763 H1757 0.928 1_655 S
C1763 C1759 1.400 . S
C1763 C1762 1.396 . S
C1764 C1762 1.451 1_455 S
C1764 C1766 1.381 . S
C1764 C1770 1.383 . S
C1765 C1761 1.495 . S
C1765 H1771 0.959 . S
C1765 H1772 0.961 . S
C1765 H1773 0.960 1_655 S
C1766 C1764 1.381 . S
C1766 C1767 1.394 . S
C1766 H1774 0.930 . S
C1767 C1766 1.394 . S
C1767 C1768 1.383 . S
C1767 H1775 0.929 . S
C1768 C1767 1.383 . S
C1768 C1769 1.377 . S
C1769 H1753 0.930 . S
C1769 C1768 1.377 . S
C1769 C1770 1.379 . S
C1770 H1754 0.931 . S
C1770 C1764 1.383 . S
C1770 C1769 1.379 . S
H1771 C1765 0.959 . S
H1772 C1765 0.961 . S
H1773 C1765 0.960 1_455 S
H1774 C1766 0.930 . S
H1775 C1767 0.929 . S
C489 C19 1.560 . S
C508 C458 1.613 . S
C525 C378 1.573 1_565 S
C544 C58 1.582 . S
C561 C99 1.310 . S
C580 C339 1.300 . S
C597 C138 1.548 . S
C616 C418 1.547 . S
C633 C178 2.031 . S
C652 C419 1.930 . S
C669 C219 1.221 . S
C688 C459 1.201 . S
C705 C379 1.709 . S
C724 C258 1.770 1_556 S
C741 C298 1.161 . S
C760 C338 1.154 . S
C777 C139 1.917 . S
C796 C179 1.914 . S
C813 C18 1.656 . S
C832 C218 1.666 . S
C849 C59 1.377 . S
C868 C259 1.358 . S
C885 C299 1.657 . S
C904 C98 1.698 . S
C921 C15 2.700 . S
C940 C330 2.777 . S
C957 C46 0.935 . S
C976 C409 0.859 . S
C993 C449 1.462 . S
C1012 C95 1.491 . S
C1029 C126 1.318 . S
C1048 C369 1.221 . S
C1065 C166 1.482 . S
C1084 C370 1.482 . S
C1101 C329 1.576 . S
C1120 C215 1.649 . S
C1137 C410 2.022 . S
C1156 C246 2.033 . S
C1173 C450 1.825 . S
C1192 C286 1.841 . S
C1209 C9 1.401 . S
C1228 C135 1.462 . S
C1245 C6 2.362 . S
C1264 C50 2.343 . S
C1281 C55 1.925 . S
C1300 C89 1.839 . S
C1317 C130 2.004 . S
C1336 C86 2.009 . S
C1353 C206 0.895 . S
C1372 C170 0.864 . S
C1389 C209 1.535 . S
C1408 C255 1.571 . S
C1425 C250 1.109 . S
C1444 C295 1.062 . S
C1461 C175 1.638 . S
C1480 C290 1.692 . S
C1497 C326 1.079 . S
C1516 C129 1.028 . S
C1533 C210 1.680 . S
C1552 C366 1.693 . S
C1569 C335 1.833 . S
C1588 C249 1.800 . S
C1605 C406 1.566 . S
C1624 C289 1.497 . S
C1641 C169 0.556 . S
C1660 C446 0.507 . S
C1677 C455 1.376 . S
C1696 C49 1.306 . S
C1713 C90 1.199 . S
C1732 C375 1.204 . S
C1749 C415 1.779 . S
C1768 C10 1.809 . S
