# Generated by pormake.
# Topology whh, (6)-cn, num edge types: 1
# Building blocks:
#     Node 0, Type 0, BuildingBlock: MAKGUD_clean_sbu_1, # of connection points: 6
#     Node 1, Type 0, BuildingBlock: MAKGUD_clean_sbu_1, # of connection points: 6
#     Node 2, Type 0, BuildingBlock: MAKGUD_clean_sbu_1, # of connection points: 6
#     Node 3, Type 0, BuildingBlock: MAKGUD_clean_sbu_1, # of connection points: 6
#     Node 4, Type 0, BuildingBlock: MAKGUD_clean_sbu_1, # of connection points: 6
#     Node 5, Type 0, BuildingBlock: MAKGUD_clean_sbu_1, # of connection points: 6
#     Node 6, Type 0, BuildingBlock: MAKGUD_clean_sbu_1, # of connection points: 6
#     Node 7, Type 0, BuildingBlock: MAKGUD_clean_sbu_1, # of connection points: 6
#     Node 8, Type 0, BuildingBlock: MAKGUD_clean_sbu_1, # of connection points: 6
#     Node 9, Type 0, BuildingBlock: MAKGUD_clean_sbu_1, # of connection points: 6
#     Node 10, Type 0, BuildingBlock: MAKGUD_clean_sbu_1, # of connection points: 6
#     Node 11, Type 0, BuildingBlock: MAKGUD_clean_sbu_1, # of connection points: 6
#     Node 12, Type 0, BuildingBlock: MAKGUD_clean_sbu_1, # of connection points: 6
#     Node 13, Type 0, BuildingBlock: MAKGUD_clean_sbu_1, # of connection points: 6
#     Node 14, Type 0, BuildingBlock: MAKGUD_clean_sbu_1, # of connection points: 6
#     Node 15, Type 0, BuildingBlock: MAKGUD_clean_sbu_1, # of connection points: 6
#     Edge 16, Type (0, 0), BuildingBlock: XUDNAN_clean_linker_2, # of connection points: 2
#     Edge 17, Type (0, 0), BuildingBlock: XUDNAN_clean_linker_2, # of connection points: 2
#     Edge 18, Type (0, 0), BuildingBlock: XUDNAN_clean_linker_2, # of connection points: 2
#     Edge 19, Type (0, 0), BuildingBlock: XUDNAN_clean_linker_2, # of connection points: 2
#     Edge 20, Type (0, 0), BuildingBlock: XUDNAN_clean_linker_2, # of connection points: 2
#     Edge 21, Type (0, 0), BuildingBlock: XUDNAN_clean_linker_2, # of connection points: 2
#     Edge 22, Type (0, 0), BuildingBlock: XUDNAN_clean_linker_2, # of connection points: 2
#     Edge 23, Type (0, 0), BuildingBlock: XUDNAN_clean_linker_2, # of connection points: 2
#     Edge 24, Type (0, 0), BuildingBlock: XUDNAN_clean_linker_2, # of connection points: 2
#     Edge 25, Type (0, 0), BuildingBlock: XUDNAN_clean_linker_2, # of connection points: 2
#     Edge 26, Type (0, 0), BuildingBlock: XUDNAN_clean_linker_2, # of connection points: 2
#     Edge 27, Type (0, 0), BuildingBlock: XUDNAN_clean_linker_2, # of connection points: 2
#     Edge 28, Type (0, 0), BuildingBlock: XUDNAN_clean_linker_2, # of connection points: 2
#     Edge 29, Type (0, 0), BuildingBlock: XUDNAN_clean_linker_2, # of connection points: 2
#     Edge 30, Type (0, 0), BuildingBlock: XUDNAN_clean_linker_2, # of connection points: 2
#     Edge 31, Type (0, 0), BuildingBlock: XUDNAN_clean_linker_2, # of connection points: 2
#     Edge 32, Type (0, 0), BuildingBlock: XUDNAN_clean_linker_2, # of connection points: 2
#     Edge 33, Type (0, 0), BuildingBlock: XUDNAN_clean_linker_2, # of connection points: 2
#     Edge 34, Type (0, 0), BuildingBlock: XUDNAN_clean_linker_2, # of connection points: 2
#     Edge 35, Type (0, 0), BuildingBlock: XUDNAN_clean_linker_2, # of connection points: 2
#     Edge 36, Type (0, 0), BuildingBlock: XUDNAN_clean_linker_2, # of connection points: 2
#     Edge 37, Type (0, 0), BuildingBlock: XUDNAN_clean_linker_2, # of connection points: 2
#     Edge 38, Type (0, 0), BuildingBlock: XUDNAN_clean_linker_2, # of connection points: 2
#     Edge 39, Type (0, 0), BuildingBlock: XUDNAN_clean_linker_2, # of connection points: 2
#     Edge 40, Type (0, 0), BuildingBlock: XUDNAN_clean_linker_2, # of connection points: 2
#     Edge 41, Type (0, 0), BuildingBlock: XUDNAN_clean_linker_2, # of connection points: 2
#     Edge 42, Type (0, 0), BuildingBlock: XUDNAN_clean_linker_2, # of connection points: 2
#     Edge 43, Type (0, 0), BuildingBlock: XUDNAN_clean_linker_2, # of connection points: 2
#     Edge 44, Type (0, 0), BuildingBlock: XUDNAN_clean_linker_2, # of connection points: 2
#     Edge 45, Type (0, 0), BuildingBlock: XUDNAN_clean_linker_2, # of connection points: 2
#     Edge 46, Type (0, 0), BuildingBlock: XUDNAN_clean_linker_2, # of connection points: 2
#     Edge 47, Type (0, 0), BuildingBlock: XUDNAN_clean_linker_2, # of connection points: 2
#     Edge 48, Type (0, 0), BuildingBlock: XUDNAN_clean_linker_2, # of connection points: 2
#     Edge 49, Type (0, 0), BuildingBlock: XUDNAN_clean_linker_2, # of connection points: 2
#     Edge 50, Type (0, 0), BuildingBlock: XUDNAN_clean_linker_2, # of connection points: 2
#     Edge 51, Type (0, 0), BuildingBlock: XUDNAN_clean_linker_2, # of connection points: 2
#     Edge 52, Type (0, 0), BuildingBlock: XUDNAN_clean_linker_2, # of connection points: 2
#     Edge 53, Type (0, 0), BuildingBlock: XUDNAN_clean_linker_2, # of connection points: 2
#     Edge 54, Type (0, 0), BuildingBlock: XUDNAN_clean_linker_2, # of connection points: 2
#     Edge 55, Type (0, 0), BuildingBlock: XUDNAN_clean_linker_2, # of connection points: 2
#     Edge 56, Type (0, 0), BuildingBlock: XUDNAN_clean_linker_2, # of connection points: 2
#     Edge 57, Type (0, 0), BuildingBlock: XUDNAN_clean_linker_2, # of connection points: 2
#     Edge 58, Type (0, 0), BuildingBlock: XUDNAN_clean_linker_2, # of connection points: 2
#     Edge 59, Type (0, 0), BuildingBlock: XUDNAN_clean_linker_2, # of connection points: 2
#     Edge 60, Type (0, 0), BuildingBlock: XUDNAN_clean_linker_2, # of connection points: 2
#     Edge 61, Type (0, 0), BuildingBlock: XUDNAN_clean_linker_2, # of connection points: 2
#     Edge 62, Type (0, 0), BuildingBlock: XUDNAN_clean_linker_2, # of connection points: 2
#     Edge 63, Type (0, 0), BuildingBlock: XUDNAN_clean_linker_2, # of connection points: 2
# Relax obj value: 0.312
# Max RMSD: 0.214
# Mean RMSD: 0.214
data_MOF--net-whh--node1-MAKGUD_clean_sbu_1--edge1-XUDNAN_clean_linker_2
_symmetry_space_group_name_H-M    P1
_symmetry_Int_Tables_number       1
_symmetry_cell_setting            triclinic
loop_
_symmetry_equiv_pos_as_xyz
'x, y, z'
_cell_length_a     40.682418
_cell_length_b     40.861702
_cell_length_c     34.494194
_cell_angle_alpha  90.062228
_cell_angle_beta   90.053663
_cell_angle_gamma 90.371376
loop_
_atom_site_label
_atom_site_type_symbol
_atom_site_fract_x
_atom_site_fract_y
_atom_site_fract_z
_atom_type_partial_charge
O0 O 0.15592 0.72394 0.0595 0.0
Tb1 Tb 0.11361 0.69717 0.08542 0.0
C2 C 0.06761 0.70829 0.15879 0.0
O3 O 0.05257 0.66457 0.06186 0.0
Tb4 Tb 1.03024 0.65314 0.11642 0.0
C5 C 0.06057 0.60931 0.16085 0.0
O6 O 0.10414 0.64972 0.05467 0.0
O7 O 0.97923 0.63753 0.11028 0.0
C8 C 0.95865 0.64935 0.0845 0.0
O9 O 0.96723 0.67493 0.06371 0.0
O10 O 0.0963 0.69728 0.14604 0.0
O11 O 0.03945 0.70095 0.14154 0.0
O12 O 0.07951 0.73677 0.07063 0.0
C13 C 0.07288 0.64305 0.04787 0.0
C14 C 0.17612 0.72055 0.08871 0.0
O15 O 0.05598 0.60644 0.12363 0.0
O16 O 0.04826 0.63682 0.17259 0.0
C17 C 0.08218 0.76484 0.08952 0.0
O18 O 0.10629 0.76815 0.11463 0.0
O19 O 0.16133 0.70293 0.11497 0.0
O20 O 0.85594 0.16184 0.0221 0.0
Tb21 Tb 0.87707 0.12224 0.05859 0.0
C22 C 0.86255 0.07496 0.13089 0.0
O23 O 0.9173 0.05843 0.04025 0.0
Tb24 Tb 0.91922 0.03368 0.09514 0.0
C25 C 0.96141 0.05709 0.14769 0.0
O26 O 0.92802 0.11228 0.03817 0.0
O27 O 0.92798 0.98109 0.08653 0.0
C28 C 0.94989 0.96642 0.10876 0.0
O29 O 0.96243 0.98298 0.13793 0.0
O30 O 0.86927 0.10534 0.11893 0.0
O31 O 0.86917 0.04873 0.10961 0.0
O32 O 0.83882 0.0875 0.04043 0.0
C33 C 0.93836 0.08187 0.03316 0.0
C34 C 0.85602 0.18534 0.04785 0.0
O35 O 0.96841 0.05132 0.11149 0.0
O36 O 0.93077 0.04972 0.15398 0.0
C37 C 0.80834 0.0937 0.05118 0.0
O38 O 0.80264 0.12139 0.0693 0.0
O39 O 0.86748 0.17259 0.07984 0.0
O40 O 0.53542 0.94361 0.15371 0.0
Tb41 Tb 0.54355 0.92476 0.09578 0.0
C42 C 0.48995 0.92053 0.033 0.0
O43 O 0.48168 0.87825 0.11471 0.0
Tb44 Tb 0.45159 0.86375 0.06425 0.0
C45 C 0.3901 0.841 0.0783 0.0
O46 O 0.5377 0.8774 0.1236 0.0
O47 O 0.48295 0.82291 0.0486 0.0
C48 C 0.47646 0.79382 0.06309 0.0
O49 O 0.44979 0.78999 0.08409 0.0
O50 O 0.50906 0.90362 0.05546 0.0
O51 O 0.46017 0.90813 0.02816 0.0
O52 O 0.5932 0.93762 0.0757 0.0
C53 C 0.50868 0.86244 0.12514 0.0
C54 C 0.51993 0.96992 0.14313 0.0
O55 O 0.41 0.85416 0.10376 0.0
O56 O 0.40456 0.84185 0.04452 0.0
C57 C 0.60123 0.96899 0.07393 0.0
O58 O 0.57865 0.99059 0.0826 0.0
O59 O 0.51759 0.97091 0.10539 0.0
O60 O 0.74376 0.42034 0.02806 0.0
Tb61 Tb 0.70844 0.45658 0.05114 0.0
C62 C 0.71331 0.49715 0.12854 0.0
O63 O 0.6692 0.50953 0.0568 0.0
Tb64 Tb 0.65165 0.53684 0.10525 0.0
C65 C 0.60642 0.50795 0.14902 0.0
O66 O 0.66431 0.46912 0.01599 0.0
O67 O 0.63919 0.58776 0.09362 0.0
C68 C 0.60955 0.59733 0.10379 0.0
O69 O 0.5907 0.57664 0.12269 0.0
O70 O 0.69763 0.47269 0.11095 0.0
O71 O 0.69949 0.52647 0.13062 0.0
O72 O 0.74558 0.49474 0.04292 0.0
C73 C 0.65164 0.49651 0.02917 0.0
C74 C 0.73427 0.39564 0.04933 0.0
O75 O 0.60476 0.51051 0.11132 0.0
O76 O 0.63345 0.52158 0.16147 0.0
C77 C 0.77453 0.49283 0.05993 0.0
O78 O 0.78142 0.46669 0.08045 0.0
O79 O 0.70945 0.40516 0.07041 0.0
O80 O 0.15706 0.82568 0.48315 0.0
Tb81 Tb 0.12211 0.85921 0.45456 0.0
C82 C 0.0733 0.85381 0.38341 0.0
O83 O 0.06586 0.90168 0.4573 0.0
Tb84 Tb 0.0359 0.91786 0.41026 0.0
C85 C 0.05708 0.96552 0.36395 0.0
O86 O 0.11395 0.90609 0.4858 0.0
O87 O 0.98381 0.92492 0.42277 0.0
C88 C 0.96681 0.94356 0.39899 0.0
O89 O 0.98137 0.95448 0.36755 0.0
O90 O 0.10167 0.86688 0.39548 0.0
O91 O 0.04504 0.87001 0.38502 0.0
O92 O 0.08399 0.822 0.46478 0.0
C93 C 0.08553 0.91995 0.47793 0.0
C94 C 0.183 0.83219 0.46226 0.0
O95 O 0.05321 0.96814 0.40138 0.0
O96 O 0.04999 0.93575 0.35319 0.0
C97 C 0.08615 0.7931 0.4477 0.0
O98 O 0.1126 0.78666 0.42731 0.0
O99 O 0.17431 0.85379 0.43625 0.0
O100 O 0.73194 0.1412 0.46838 0.0
Tb101 Tb 0.70056 0.10624 0.4352 0.0
C102 C 0.71725 0.06442 0.36135 0.0
O103 O 0.65831 0.04276 0.45707 0.0
Tb104 Tb 0.65731 1.02658 0.39775 0.0
C105 C 0.61231 0.05655 0.35398 0.0
O106 O 0.65052 0.09699 0.45927 0.0
O107 O 0.64961 0.97352 0.39804 0.0
C108 C 0.62067 0.96063 0.38933 0.0
O109 O 0.59711 0.97987 0.37724 0.0
O110 O 0.70694 0.0935 0.37344 0.0
O111 O 0.70732 0.03683 0.37794 0.0
O112 O 0.7378 0.06995 0.4498 0.0
C113 C 0.63924 0.0671 0.46642 0.0
C114 C 0.72485 0.16733 0.44845 0.0
O115 O 0.6072 0.04423 0.38812 0.0
O116 O 0.64285 0.05203 0.34465 0.0
C117 C 0.76696 0.0744 0.43384 0.0
O118 O 0.77174 0.101 0.41316 0.0
O119 O 0.70322 0.15905 0.42216 0.0
O120 O 0.43058 0.72595 0.42526 0.0
Tb121 Tb 0.46842 0.69164 0.40487 0.0
C122 C 0.50476 0.69797 0.32422 0.0
O123 O 0.53175 0.65909 0.44175 0.0
Tb124 Tb 0.5397 0.65086 0.38101 0.0
C125 C 0.51565 0.5939 0.35566 0.0
O126 O 0.47838 0.64716 0.4407 0.0
O127 O 0.59186 0.64729 0.37097 0.0
C128 C 0.612 0.63955 0.3992 0.0
O129 O 0.6012 0.63953 0.43507 0.0
O130 O 0.47654 0.69237 0.34199 0.0
O131 O 0.5331 0.68972 0.33949 0.0
O132 O 0.4988 0.73518 0.41872 0.0
C133 C 0.50766 0.6421 0.45605 0.0
C134 C 0.40535 0.71038 0.41104 0.0
O135 O 0.54341 0.59826 0.37361 0.0
O136 O 0.50074 0.62195 0.35288 0.0
C137 C 0.53118 0.73731 0.41645 0.0
O138 O 0.5485 0.71137 0.40835 0.0
O139 O 0.41551 0.68353 0.39481 0.0
O140 O 0.81838 0.4314 0.45232 0.0
Tb141 Tb 0.85938 0.46042 0.42881 0.0
C142 C 0.86728 0.49691 0.34842 0.0
O143 O 0.89797 0.51521 0.42919 0.0
Tb144 Tb 0.9248 0.5383 0.38331 0.0
C145 C 0.97604 0.50574 0.35545 0.0
O146 O 0.89736 0.47499 0.47117 0.0
O147 O 0.94045 0.58965 0.38725 0.0
C148 C 0.92584 0.61302 0.40696 0.0
O149 O 0.89667 0.60756 0.42202 0.0
O150 O 0.87868 0.47265 0.37037 0.0
O151 O 0.88208 0.52607 0.34806 0.0
O152 O 0.8215 0.49712 0.42366 0.0
C153 C 0.91138 0.50228 0.45976 0.0
C154 C 0.8273 0.40317 0.43856 0.0
O155 O 0.97283 0.51533 0.39133 0.0
O156 O 0.95004 0.51417 0.336 0.0
C157 C 0.7973 0.49053 0.39961 0.0
O158 O 0.79702 0.46223 0.38151 0.0
O159 O 0.85521 0.4069 0.42018 0.0
O160 O 0.92177 0.32324 0.97045 0.0
Tb161 Tb 0.95737 0.35831 0.94405 0.0
C162 C 0.99578 0.35591 0.86571 0.0
O163 O 1.01895 0.40039 0.95227 0.0
Tb164 Tb 0.03801 0.41484 0.89655 0.0
C165 C 1.0076 0.46338 0.85971 0.0
O166 O 0.96856 0.40344 0.97728 0.0
O167 O 0.09065 0.42571 0.89511 0.0
C168 C 0.1101 0.42111 0.92513 0.0
O169 O 0.09873 0.40542 0.95556 0.0
O170 O 0.97118 0.37031 0.88409 0.0
O171 O 1.0259 0.3686 0.8674 0.0
O172 O 0.99439 0.32006 0.94726 0.0
C173 C 0.99746 0.41767 0.97162 0.0
C174 C 0.89606 0.33214 0.95061 0.0
O175 O 1.0197 0.46517 0.89463 0.0
O176 O 1.01203 0.43401 0.84634 0.0
C177 C 0.98779 0.29193 0.93017 0.0
O178 O 0.95899 0.2881 0.91342 0.0
O179 O 0.90477 0.35655 0.92841 0.0
O180 O 0.19512 0.88836 0.92913 0.0
Tb181 Tb 0.20433 0.94159 0.92226 0.0
C182 C 0.20306 0.98232 0.84546 0.0
O183 O 0.16651 0.99664 0.92074 0.0
Tb184 Tb 0.14557 1.02505 0.87537 0.0
C185 C 0.09593 0.99827 0.83649 0.0
O186 O 0.16473 0.95724 0.96304 0.0
O187 O 0.13704 0.07667 0.88827 0.0
C188 C 0.10622 0.08544 0.89344 0.0
O189 O 0.08339 0.06268 0.89185 0.0
O190 O 0.18795 0.95843 0.86462 0.0
O191 O 0.1903 1.01218 0.8446 0.0
O192 O 0.24322 0.97665 0.93811 0.0
C193 C 0.15151 0.9847 0.95085 0.0
C194 C 0.22476 0.87829 0.92112 0.0
O195 O 0.09753 1.00035 0.87423 0.0
O196 O 0.12207 1.01151 0.82128 0.0
C197 C 0.26963 0.97998 0.91609 0.0
O198 O 0.2731 0.96049 0.8861 0.0
O199 O 0.24286 0.90402 0.91456 0.0
O200 O 0.63204 0.23092 0.94223 0.0
Tb201 Tb 0.60098 0.19739 0.9081 0.0
C202 C 0.55983 0.20308 0.83073 0.0
O203 O 0.54135 0.15669 0.93642 0.0
Tb204 Tb 0.52389 0.14802 0.87837 0.0
C205 C 0.5537 0.10001 0.83925 0.0
O206 O 0.59571 0.14977 0.93682 0.0
O207 O 0.47182 0.13467 0.87988 0.0
C208 C 0.45419 0.13807 0.91164 0.0
O209 O 0.46656 0.1546 0.94095 0.0
O210 O 0.58942 0.19817 0.84597 0.0
O211 O 0.53216 0.19459 0.84862 0.0
O212 O 0.55906 0.2297 0.91854 0.0
C213 C 0.56648 0.13947 0.94777 0.0
C214 C 0.65966 0.22554 0.92425 0.0
O215 O 0.54159 0.09753 0.87396 0.0
O216 O 0.54965 0.12977 0.82725 0.0
C217 C 0.5621 0.26169 0.91438 0.0
O218 O 0.59105 0.27435 0.90643 0.0
O219 O 0.65422 0.20419 0.89681 0.0
O220 O 0.33303 0.63604 0.93629 0.0
Tb221 Tb 0.36896 0.60411 0.90725 0.0
C222 C 0.35955 0.56043 0.83225 0.0
O223 O 0.41078 0.54509 0.94295 0.0
Tb224 Tb 0.41142 0.52557 0.88501 0.0
C225 C 0.46498 0.54613 0.84746 0.0
O226 O 0.41783 0.59956 0.93546 0.0
O227 O 0.41358 0.47193 0.88455 0.0
C228 C 0.422 0.45542 0.91583 0.0
O229 O 0.4235 0.47078 0.9492 0.0
O230 O 0.36696 0.58996 0.84588 0.0
O231 O 0.36719 0.53308 0.85067 0.0
O232 O 0.33475 0.56488 0.92337 0.0
C233 C 0.42872 0.57134 0.9492 0.0
C234 C 0.33791 0.6624 0.91575 0.0
O235 O 0.46291 0.5202 0.86905 0.0
O236 O 0.43667 0.56073 0.84712 0.0
C237 C 0.30546 0.56447 0.90679 0.0
O238 O 0.29836 0.58786 0.88208 0.0
O239 O 0.36124 0.65616 0.89091 0.0
O240 O 0.89885 0.20866 0.53313 0.0
Tb241 Tb 0.94306 0.18941 0.56303 0.0
C242 C 0.98561 0.20916 0.63732 0.0
O243 O 1.00681 0.16528 0.54604 0.0
Tb244 Tb 1.03314 0.15907 0.59918 0.0
C245 C 1.01196 0.11023 0.64394 0.0
O246 O 0.95848 0.14301 0.53506 0.0
O247 O 0.08498 0.15342 0.58492 0.0
C248 C 0.10285 0.13297 0.60534 0.0
O249 O 0.09025 0.12044 0.63711 0.0
O250 O 0.96029 0.19164 0.62391 0.0
O251 O 1.01607 0.2047 0.62471 0.0
O252 O 0.97424 0.2313 0.54604 0.0
C253 C 0.99053 0.14032 0.53205 0.0
C254 C 0.87747 0.20189 0.56025 0.0
O255 O 1.01411 0.10917 0.6064 0.0
O256 O 1.02205 0.13865 0.65621 0.0
C257 C 0.97253 0.25983 0.56414 0.0
O258 O 0.94981 0.26383 0.59074 0.0
O259 O 0.89338 0.18811 0.58866 0.0
O260 O 0.32389 0.90793 0.51165 0.0
Tb261 Tb 0.34981 0.9487 0.54262 0.0
C262 C 0.35322 0.98669 0.62278 0.0
O263 O 0.39419 0.99969 0.54921 0.0
Tb264 Tb 0.41306 1.02928 0.59511 0.0
C265 C 0.46213 1.00489 0.63642 0.0
O266 O 0.39753 0.95713 0.51128 0.0
O267 O 0.41988 0.08107 0.58128 0.0
C268 C 0.4496 0.09384 0.5848 0.0
O269 O 0.47336 0.07511 0.5975 0.0
O270 O 0.36643 0.96277 0.6018 0.0
O271 O 0.36745 1.01608 0.6244 0.0
O272 O 0.315 0.98827 0.5325 0.0
C273 C 0.41179 0.98435 0.52367 0.0
C274 C 0.31407 0.89184 0.54236 0.0
O275 O 0.4623 1.00779 0.59874 0.0
O276 O 0.43473 1.01612 0.65036 0.0
C277 C 0.28918 0.98978 0.55542 0.0
O278 O 0.2852 0.96689 0.58171 0.0
O279 O 0.32609 0.90701 0.57246 0.0
O280 O 0.65626 0.33798 0.52537 0.0
Tb281 Tb 0.6084 0.35302 0.55029 0.0
C282 C 0.5559 0.35663 0.61663 0.0
O283 O 0.55081 0.40128 0.54269 0.0
Tb284 Tb 0.52423 0.42122 0.59136 0.0
C285 C 0.55484 0.46645 0.63377 0.0
O286 O 0.60217 0.40056 0.51959 0.0
O287 O 0.47275 0.43545 0.58613 0.0
C288 C 0.45605 0.43364 0.55352 0.0
O289 O 0.46922 0.41898 0.52346 0.0
O290 O 0.58259 0.37078 0.60212 0.0
O291 O 0.52839 0.37366 0.61911 0.0
O292 O 0.578 0.3101 0.53691 0.0
C293 C 0.57433 0.41677 0.52451 0.0
C294 C 0.6708 0.33099 0.55807 0.0
O295 O 0.54621 0.47001 0.59763 0.0
O296 O 0.54672 0.4372 0.64533 0.0
C297 C 0.54595 0.31098 0.53161 0.0
O298 O 0.53119 0.33932 0.52895 0.0
O299 O 0.65037 0.33765 0.58621 0.0
O300 O 0.21506 0.65624 0.53291 0.0
Tb301 Tb 0.19542 0.61176 0.56112 0.0
C302 C 0.19611 0.55689 0.62537 0.0
O303 O 0.14987 0.55313 0.55409 0.0
Tb304 Tb 0.1298 0.52456 0.60112 0.0
C305 C 0.0872 0.55488 0.64696 0.0
O306 O 0.14952 0.60321 0.52854 0.0
O307 O 0.11381 0.47329 0.59423 0.0
C308 C 0.11907 0.45509 0.56326 0.0
O309 O 0.13805 0.46651 0.53554 0.0
O310 O 0.18207 0.58471 0.61447 0.0
O311 O 0.17878 0.5292 0.62607 0.0
O312 O 0.23634 0.58031 0.54438 0.0
C313 C 0.13381 0.57537 0.53471 0.0
C314 C 0.21095 0.67649 0.56173 0.0
O315 O 0.08213 0.54793 0.61056 0.0
O316 O 0.11619 0.54478 0.65714 0.0
C317 C 0.26458 0.58099 0.56321 0.0
O318 O 0.26885 0.60261 0.59101 0.0
O319 O 0.19839 0.65996 0.5907 0.0
H320 H 0.83739 0.49511 0.08898 0.0
H321 H 0.76584 0.55319 0.02653 0.0
H322 H 0.80516 0.59961 0.02504 0.0
H323 H 0.87121 0.5598 0.14825 0.0
H324 H 0.91212 0.54352 0.14534 0.0
H325 H 0.87722 0.51641 0.14124 0.0
H326 H 0.9016 0.49639 0.07546 0.0
H327 H 0.93501 0.52543 0.07876 0.0
H328 H 0.90824 0.52558 0.0371 0.0
H329 H 0.85263 0.64041 0.03173 0.0
H330 H 0.90387 0.6714 0.04583 0.0
H331 H 0.9436 0.58615 0.10378 0.0
C332 C 0.82996 0.51752 0.07485 0.0
C333 C 0.79846 0.52043 0.05781 0.0
C334 C 0.78983 0.55027 0.03965 0.0
C335 C 0.81201 0.57681 0.0387 0.0
C336 C 0.84282 0.57313 0.05588 0.0
C337 C 0.8518 0.54416 0.0735 0.0
C338 C 0.8864 0.54634 0.08966 0.0
C339 C 0.88671 0.54116 0.13376 0.0
C340 C 0.90917 0.522 0.06902 0.0
C341 C 0.89515 0.58134 0.07942 0.0
C342 C 0.86989 0.59638 0.05962 0.0
C343 C 0.87252 0.62882 0.04727 0.0
C344 C 0.90166 0.64627 0.05547 0.0
C345 C 0.92758 0.63138 0.07631 0.0
C346 C 0.9241 0.59846 0.08827 0.0
H347 H 0.07795 0.82083 0.13278 0.0
H348 H 1.03118 0.77033 0.03658 0.0
H349 H 0.99129 0.81583 0.03057 0.0
H350 H 1.0046 0.85153 0.17615 0.0
H351 H 1.02332 0.88977 0.19057 0.0
H352 H 0.04804 0.85357 0.18626 0.0
H353 H 0.08675 0.88384 0.13832 0.0
H354 H 0.06209 0.92009 0.14272 0.0
H355 H 0.06967 0.90264 0.09559 0.0
H356 H 0.95668 0.8693 0.03509 0.0
H357 H 0.93114 0.9228 0.05082 0.0
H358 H 1.00024 0.93529 0.14549 0.0
C359 C 0.05945 0.81923 0.11024 0.0
C360 C 0.05794 0.79192 0.08495 0.0
C361 C 1.033 0.79095 0.05622 0.0
C362 C 1.01022 0.81674 0.05262 0.0
C363 C 1.0125 0.84332 0.07811 0.0
C364 C 0.03654 0.84452 0.10645 0.0
C365 C 0.03387 0.87534 0.13069 0.0
C366 C 1.02704 0.86704 0.17344 0.0
C367 C 0.06494 0.89673 0.12656 0.0
C368 C 1.00447 0.89138 0.11184 0.0
C369 C 0.99248 0.87289 0.08133 0.0
C370 C 0.96587 0.88374 0.05914 0.0
C371 C 0.9514 0.91415 0.06832 0.0
C372 C 0.96336 0.93332 0.09965 0.0
C373 C 0.99016 0.92136 0.12157 0.0
H374 H 0.62368 0.03202 0.07566 0.0
H375 H 0.65569 0.93303 0.05148 0.0
H376 H 0.71211 0.9541 0.03878 0.0
H377 H 0.67375 0.07353 0.0043 0.0
H378 H 0.68155 0.10814 0.03552 0.0
H379 H 0.64386 0.0851 0.04024 0.0
H380 H 0.65638 0.07526 0.11304 0.0
H381 H 0.69403 0.09829 0.10859 0.0
H382 H 0.69488 0.05698 0.1268 0.0
H383 H 0.76648 0.98737 0.03106 0.0
H384 H 0.81206 1.02811 0.03159 0.0
H385 H 0.74277 0.10404 0.06226 0.0
C386 C 0.64236 1.01461 0.06735 0.0
C387 C 0.63508 0.98076 0.06447 0.0
C388 C 0.66055 0.95904 0.05381 0.0
C389 C 0.69268 0.97084 0.0465 0.0
C390 C 0.69898 1.00443 0.05002 0.0
C391 C 0.67435 1.02588 0.0603 0.0
C392 C 0.68724 0.06059 0.06394 0.0
C393 C 0.67062 0.08316 0.03423 0.0
C394 C 0.68287 0.07352 0.10556 0.0
C395 C 0.72315 0.05553 0.0544 0.0
C396 C 0.72962 1.02309 0.04613 0.0
C397 C 0.76149 1.01281 0.03734 0.0
C398 C 0.78726 0.03615 0.03756 0.0
C399 C 0.7811 0.06935 0.04684 0.0
C400 C 0.74846 0.07894 0.05491 0.0
H401 H 0.46968 0.73158 0.09078 0.0
H402 H 0.53846 0.79554 0.03112 0.0
H403 H 0.58039 0.75188 0.03316 0.0
H404 H 0.52677 0.69623 0.15474 0.0
H405 H 0.50752 0.65645 0.15372 0.0
H406 H 0.48335 0.6925 0.14518 0.0
H407 H 0.46439 0.66762 0.07901 0.0
H408 H 0.48918 0.63198 0.08761 0.0
H409 H 0.49492 0.65557 0.04402 0.0
H410 H 0.61587 0.70094 0.04507 0.0
H411 H 0.64039 0.64791 0.06453 0.0
H412 H 0.54744 0.6192 0.11636 0.0
C413 C 0.49335 0.73633 0.07753 0.0
C414 C 0.50069 0.76693 0.06054 0.0
C415 C 0.53215 0.77216 0.04397 0.0
C416 C 0.55617 0.74754 0.04511 0.0
C417 C 0.54823 0.71777 0.06266 0.0
C418 C 0.51742 0.7121 0.07827 0.0
C419 C 0.51508 0.67856 0.09652 0.0
C420 C 0.50769 0.68109 0.14013 0.0
C421 C 0.48937 0.65718 0.07553 0.0
C422 C 0.54953 0.66634 0.08939 0.0
C423 C 0.56838 0.68907 0.06965 0.0
C424 C 0.60123 0.68297 0.06046 0.0
C425 C 0.615 0.65287 0.07172 0.0
C426 C 0.59597 0.62946 0.09217 0.0
C427 C 0.56283 0.63652 0.10091 0.0
H428 H 0.93405 0.99366 0.36455 0.0
H429 H 0.92518 0.92281 0.45754 0.0
H430 H 0.87158 0.94698 0.47608 0.0
H431 H 0.90307 0.06045 0.4178 0.0
H432 H 0.88259 0.07865 0.37686 0.0
H433 H 0.91857 0.05404 0.36947 0.0
H434 H 0.88615 1.01644 0.32206 0.0
H435 H 0.85035 0.04142 0.32892 0.0
H436 H 0.84808 0.99797 0.33774 0.0
H437 H 0.81816 0.98067 0.48433 0.0
H438 H 0.77297 1.02134 0.4832 0.0
H439 H 0.82007 0.0703 0.38635 0.0
C440 C 0.92068 0.98273 0.38844 0.0
C441 C 0.93364 0.95596 0.40923 0.0
C442 C 0.91558 0.94308 0.44091 0.0
C443 C 0.88513 0.95669 0.45164 0.0
C444 C 0.87323 0.98332 0.43058 0.0
C445 C 0.89067 0.99619 0.39971 0.0
C446 C 0.87392 1.02591 0.38292 0.0
C447 C 0.89584 0.05657 0.38703 0.0
C448 C 0.86403 1.02006 0.3404 0.0
C449 C 0.84411 1.02783 0.40894 0.0
C450 C 0.84381 1.00304 0.43616 0.0
C451 C 0.81832 1.00019 0.46315 0.0
C452 C 0.79273 1.02335 0.46232 0.0
C453 C 0.79312 0.04922 0.43503 0.0
C454 C 0.81916 0.05113 0.40799 0.0
H455 H 0.56216 0.92801 0.37782 0.0
H456 H 0.66263 0.91344 0.41641 0.0
H457 H 0.64963 0.85547 0.43045 0.0
H458 H 0.52369 0.87713 0.44948 0.0
H459 H 0.49274 0.86097 0.41715 0.0
H460 H 0.50961 0.90124 0.40906 0.0
H461 H 0.5266 0.88531 0.33945 0.0
H462 H 0.50916 0.84516 0.34665 0.0
H463 H 0.55143 0.84949 0.33182 0.0
H464 H 0.62609 0.79892 0.43895 0.0
H465 H 0.59413 0.74741 0.44026 0.0
H466 H 0.50816 0.79889 0.39856 0.0
C467 C 0.58154 0.91264 0.38907 0.0
C468 C 0.61353 0.92535 0.39593 0.0
C469 C 0.63802 0.90434 0.41081 0.0
C470 C 0.63082 0.87139 0.41901 0.0
C471 C 0.59896 0.85982 0.41236 0.0
C472 C 0.57471 0.87978 0.39765 0.0
C473 C 0.54248 0.86121 0.39298 0.0
C474 C 0.51555 0.87602 0.41872 0.0
C475 C 0.5318 0.86023 0.35019 0.0
C476 C 0.55241 0.82757 0.40723 0.0
C477 C 0.58513 0.82736 0.4182 0.0
C478 C 0.60042 0.79887 0.43073 0.0
C479 C 0.58203 0.76973 0.43141 0.0
C480 C 0.54856 0.76919 0.41996 0.0
C481 C 0.53347 0.79868 0.40829 0.0
H482 H 0.66408 0.62661 0.44754 0.0
H483 H 0.62895 0.61345 0.32952 0.0
H484 H 0.67498 0.57658 0.31608 0.0
H485 H 0.75373 0.6239 0.42212 0.0
H486 H 0.76389 0.60233 0.46605 0.0
H487 H 0.73 0.63055 0.46551 0.0
H488 H 0.69131 0.58464 0.49059 0.0
H489 H 0.72488 0.55618 0.49074 0.0
H490 H 0.68799 0.54685 0.46381 0.0
H491 H 0.71688 0.53369 0.3193 0.0
H492 H 0.76191 0.49535 0.33331 0.0
H493 H 0.77383 0.53878 0.4474 0.0
C494 C 0.66669 0.61669 0.41858 0.0
C495 C 0.64299 0.62295 0.38959 0.0
C496 C 0.64695 0.6093 0.35212 0.0
C497 C 0.67294 0.58816 0.3442 0.0
C498 C 0.69519 0.58156 0.37375 0.0
C499 C 0.693 0.59604 0.40986 0.0
C500 C 0.71983 0.58382 0.43666 0.0
C501 C 0.74326 0.61182 0.44826 0.0
C502 C 0.70511 0.56687 0.47256 0.0
C503 C 0.73667 0.55948 0.41024 0.0
C504 C 0.72172 0.55841 0.37428 0.0
C505 C 0.73012 0.53534 0.34643 0.0
C506 C 0.75532 0.51341 0.35492 0.0
C507 C 0.77167 0.51465 0.39112 0.0
C508 C 0.76233 0.53805 0.41908 0.0
H509 H 0.08257 0.73315 0.41138 0.0
H510 H 1.0256 0.79963 0.48242 0.0
H511 H 0.9781 0.7616 0.47864 0.0
H512 H 1.01604 0.70722 0.34787 0.0
H513 H 1.03111 0.66604 0.34485 0.0
H514 H 0.0594 0.69944 0.35311 0.0
H515 H 0.07992 0.66885 0.41466 0.0
H516 H 0.05029 0.6365 0.40719 0.0
H517 H 0.05104 0.65867 0.4524 0.0
H518 H 0.93626 0.71601 0.46634 0.0
H519 H 0.90461 0.66634 0.44858 0.0
H520 H 0.98912 0.62972 0.38565 0.0
C521 C 0.06021 0.73969 0.42645 0.0
C522 C 0.05801 0.76944 0.4475 0.0
C523 C 1.02809 0.77699 0.46638 0.0
C524 C 1.00089 0.75556 0.46423 0.0
C525 C 1.00386 0.72659 0.44303 0.0
C526 C 1.03284 0.71861 0.42453 0.0
C527 C 1.02978 0.68589 0.40381 0.0
C528 C 0.03439 0.68992 0.35982 0.0
C529 C 0.0542 0.661 0.42052 0.0
C530 C 0.99455 0.67664 0.41356 0.0
C531 C 0.97996 0.70047 0.43608 0.0
C532 C 0.9475 0.69726 0.44868 0.0
C533 C 0.92963 0.66894 0.43833 0.0
C534 C 0.94413 0.64403 0.4155 0.0
C535 C 0.97706 0.64826 0.40289 0.0
H536 H 0.13388 0.47073 0.87914 0.0
H537 H 0.16098 0.40761 0.97485 0.0
H538 H 0.21475 0.43602 0.97965 0.0
H539 H 0.21459 0.4779 0.83471 0.0
H540 H 0.20934 0.52046 0.82268 0.0
H541 H 0.17407 0.49368 0.82535 0.0
H542 H 0.14712 0.53255 0.87536 0.0
H543 H 0.18234 0.55938 0.87293 0.0
H544 H 0.16915 0.54318 0.91899 0.0
H545 H 0.26583 0.47262 0.97446 0.0
H546 H 0.30824 0.51496 0.96103 0.0
H547 H 0.24628 0.55492 0.87043 0.0
C548 C 0.15133 0.46244 0.90067 0.0
C549 C 0.14333 0.43657 0.92627 0.0
C550 C 0.1666 0.42717 0.9547 0.0
C551 C 0.19723 0.44319 0.95766 0.0
C552 C 0.20421 0.46882 0.9322 0.0
C553 C 0.1818 0.47844 0.90434 0.0
C554 C 0.19446 0.50776 0.88182 0.0
C555 C 0.19835 0.49944 0.83858 0.0
C556 C 0.17193 0.53747 0.88764 0.0
C557 C 0.22756 0.51304 0.90114 0.0
C558 C 0.23289 0.4903 0.93003 0.0
C559 C 0.26184 0.49053 0.95188 0.0
C560 C 0.28583 0.51466 0.94405 0.0
C561 C 0.28066 0.53839 0.91481 0.0
C562 C 0.25108 0.53728 0.89312 0.0
H563 H 0.97586 0.22824 0.91152 0.0
H564 H 0.05458 0.29488 0.9441 0.0
H565 H 0.09469 0.24963 0.93776 0.0
H566 H 1.00619 0.15906 0.96334 0.0
H567 H 0.99294 0.12983 0.92732 0.0
H568 H 0.97086 0.16752 0.93353 0.0
H569 H 0.97917 0.18173 0.86092 0.0
H570 H 1.00082 0.14387 0.85414 0.0
H571 H 1.0201 0.18211 0.84094 0.0
H572 H 0.12641 0.19574 0.9254 0.0
H573 H 0.14525 0.13901 0.91232 0.0
H574 H 0.04423 0.1094 0.89109 0.0
C575 C 1.00153 0.23344 0.91736 0.0
C576 C 1.01211 0.26511 0.92826 0.0
C577 C 0.04591 0.27073 0.9359 0.0
C578 C 0.06886 0.24521 0.93219 0.0
C579 C 0.05751 0.21422 0.92116 0.0
C580 C 1.02451 0.20835 0.9142 0.0
C581 C 1.01811 0.17298 0.90361 0.0
C582 C 0.99569 0.15636 0.93374 0.0
C583 C 1.00371 0.17002 0.86246 0.0
C584 C 0.05264 0.15974 0.90544 0.0
C585 C 0.07524 0.18372 0.9153 0.0
C586 C 0.1088 0.17681 0.91786 0.0
C587 C 0.11932 0.14459 0.91031 0.0
C588 C 0.09627 0.11975 0.90072 0.0
C589 C 0.06259 0.1277 0.89841 0.0
H590 H 0.32931 0.9884 0.8801 0.0
H591 H 0.26615 0.03162 0.96732 0.0
H592 H 0.3062 0.07701 0.97564 0.0
H593 H 0.406 1.00965 0.92888 0.0
H594 H 0.42817 1.01751 0.88457 0.0
H595 H 0.39516 0.98791 0.88527 0.0
H596 H 0.36641 1.01766 0.8303 0.0
H597 H 0.39829 0.04821 0.82818 0.0
H598 H 0.3562 0.0605 0.83488 0.0
H599 H 0.3534 0.11857 0.97333 0.0
H600 H 0.40356 0.15172 0.96136 0.0
H601 H 0.43492 0.08156 0.8748 0.0
C602 C 0.32389 1.00728 0.90116 0.0
C603 C 0.29444 1.00636 0.92309 0.0
C604 C 0.28851 0.03162 0.95032 0.0
C605 C 0.31113 0.05757 0.95517 0.0
C606 C 0.33973 0.05785 0.9328 0.0
C607 C 0.34627 0.03316 0.90657 0.0
C608 C 0.37894 0.03894 0.88636 0.0
C609 C 0.40354 1.01192 0.89691 0.0
C610 C 0.37464 0.04154 0.84227 0.0
C611 C 0.38904 0.07149 0.90386 0.0
C612 C 0.36645 0.08176 0.93113 0.0
C613 C 0.3711 0.11076 0.95189 0.0
C614 C 0.39959 0.12952 0.94476 0.0
C615 C 0.42284 0.11962 0.9166 0.0
C616 C 0.41722 0.09027 0.89579 0.0
H617 H 0.55204 0.31539 0.95955 0.0
H618 H 0.50824 0.2579 0.86732 0.0
H619 H 0.46484 0.29978 0.85926 0.0
H620 H 0.47238 0.34418 0.00078 0.0
H621 H 0.4896 0.38355 0.01335 0.0
H622 H 0.51529 0.34779 0.01329 0.0
H623 H 0.55552 0.37635 0.96532 0.0
H624 H 0.52978 0.41183 0.96638 0.0
H625 H 0.53961 0.39293 0.92066 0.0
H626 H 0.43112 0.35273 0.85554 0.0
H627 H 0.40614 0.40775 0.86222 0.0
H628 H 0.46884 0.4273 0.96124 0.0
C629 C 0.53274 0.31128 0.9384 0.0
C630 C 0.53314 0.28337 0.91432 0.0
C631 C 0.50791 0.27889 0.88652 0.0
C632 C 0.48333 0.30266 0.8816 0.0
C633 C 0.48392 0.33036 0.90539 0.0
C634 C 0.50754 0.33425 0.93395 0.0
C635 C 0.50313 0.36624 0.95547 0.0
C636 C 0.49458 0.36006 -0.00174 0.0
C637 C 0.53386 0.3881 0.95165 0.0
C638 C 0.47415 0.38043 0.93372 0.0
C639 C 0.46344 0.35954 0.90475 0.0
C640 C 0.4388 0.36886 0.87878 0.0
C641 C 0.42479 0.40017 0.88269 0.0
C642 C 0.43503 0.42159 0.91272 0.0
C643 C 0.45983 0.41124 0.93864 0.0
H644 H 0.14981 0.10019 0.64569 0.0
H645 H 0.12625 0.13493 0.53033 0.0
H646 H 0.17427 0.10507 0.50408 0.0
H647 H 0.23731 0.10757 0.63139 0.0
H648 H 0.2498 0.0716 0.65665 0.0
H649 H 0.21429 0.09402 0.67312 0.0
H650 H 0.17334 0.04718 0.66709 0.0
H651 H 0.20714 1.02035 0.6572 0.0
H652 H 0.17289 1.02202 0.62413 0.0
H653 H 0.2237 0.06657 0.49046 0.0
H654 H 0.26786 1.02468 0.49166 0.0
H655 H 0.257 1.01639 0.61617 0.0
C656 C 0.15496 0.10198 0.61496 0.0
C657 C 0.13421 0.1198 0.59007 0.0
C658 C 0.14197 0.1216 0.55005 0.0
C659 C 0.16914 0.1046 0.53486 0.0
C660 C 0.18862 0.08643 0.5602 0.0
C661 C 0.18196 0.08552 0.5995 0.0
C662 C 0.20622 0.06435 0.62086 0.0
C663 C 0.22809 0.08565 0.64719 0.0
C664 C 0.18885 0.03686 0.64365 0.0
C665 C 0.22585 0.05105 0.58732 0.0
C666 C 0.21628 0.06476 0.55253 0.0
C667 C 0.23139 0.0559 0.51768 0.0
C668 C 0.25647 0.03218 0.51858 0.0
C669 C 0.26555 1.01717 0.55395 0.0
C670 C 0.25027 1.02719 0.58862 0.0
H671 H 0.56573 0.25034 0.55652 0.0
H672 H 0.48096 0.30256 0.51262 0.0
H673 H 0.44688 0.25272 0.52068 0.0
H674 H 0.54682 0.17146 0.51309 0.0
H675 H 0.56097 0.1487 0.5545 0.0
H676 H 0.57886 0.18806 0.5436 0.0
H677 H 0.56421 0.20866 0.6129 0.0
H678 H 0.54672 0.16911 0.62372 0.0
H679 H 0.52233 0.20541 0.62951 0.0
H680 H 0.42158 0.19687 0.53511 0.0
H681 H 0.40773 0.14001 0.5544 0.0
H682 H 0.50902 0.12531 0.58964 0.0
C683 C 0.54013 0.25119 0.54796 0.0
C684 C 0.52614 0.28033 0.53346 0.0
C685 C 0.49232 0.2805 0.52351 0.0
C686 C 0.47273 0.2523 0.52805 0.0
C687 C 0.48722 0.2241 0.54282 0.0
C688 C 0.52018 0.22337 0.55262 0.0
C689 C 0.52958 0.19033 0.56903 0.0
C690 C 0.55559 0.17367 0.54353 0.0
C691 C 0.54141 0.19359 0.61128 0.0
C692 C 0.49684 0.17255 0.56674 0.0
C693 C 0.47266 0.19236 0.55158 0.0
C694 C 0.44037 0.18115 0.54698 0.0
C695 C 0.43269 0.14884 0.55806 0.0
C696 C 0.45718 0.12815 0.57359 0.0
C697 C 0.48962 0.1404 0.5779 0.0
H698 H 0.32059 0.56835 0.60546 0.0
H699 H 0.26701 0.53728 0.50283 0.0
H700 H 0.30934 0.49554 0.48991 0.0
H701 H 0.40215 0.55814 0.56598 0.0
H702 H 0.41928 0.54345 0.61086 0.0
H703 H 0.38494 0.57105 0.61162 0.0
H704 H 0.35194 0.52959 0.65294 0.0
H705 H 0.38601 0.5017 0.65215 0.0
H706 H 0.34612 0.48832 0.63552 0.0
H707 H 0.35861 0.45787 0.48724 0.0
H708 H 0.40996 0.42664 0.49594 0.0
H709 H 0.43042 0.4809 0.60153 0.0
C710 C 0.31782 0.55293 0.5801 0.0
C711 C 0.29048 0.55633 0.55497 0.0
C712 C 0.28769 0.53529 0.52244 0.0
C713 C 0.31165 0.51146 0.51487 0.0
C714 C 0.33822 0.50872 0.54023 0.0
C715 C 0.34139 0.52884 0.57227 0.0
C716 C 0.37219 0.52073 0.59512 0.0
C717 C 0.39605 0.55009 0.59592 0.0
C718 C 0.36353 0.5094 0.63637 0.0
C719 C 0.38583 0.49286 0.57101 0.0
C720 C 0.36599 0.48645 0.53932 0.0
C721 C 0.37416 0.46253 0.51214 0.0
C722 C 0.40339 0.44487 0.51734 0.0
C723 C 0.42409 0.45093 0.54966 0.0
C724 C 0.41491 0.47519 0.57688 0.0
H725 H 0.06712 0.42986 0.60595 0.0
H726 H 0.13061 0.40772 0.50851 0.0
H727 H 0.10035 0.35583 0.49794 0.0
H728 H 0.05701 0.34719 0.64215 0.0
H729 H 1.01427 0.35277 0.65409 0.0
H730 H 0.04205 0.38725 0.65483 0.0
H731 H 1.00365 0.41769 0.60727 0.0
H732 H 0.97617 0.38296 0.606 0.0
H733 H 0.9931 0.39894 0.56155 0.0
H734 H 0.06292 0.30546 0.49822 0.0
H735 H 1.02108 0.2621 0.50856 0.0
H736 H 0.98051 0.31797 0.60407 0.0
C737 C 0.07492 0.41399 0.5826 0.0
C738 C 0.1016 0.42296 0.55828 0.0
C739 C 0.11046 0.40153 0.5277 0.0
C740 C 0.09335 0.37192 0.52142 0.0
C741 C 0.06704 0.36398 0.54567 0.0
C742 C 0.05778 0.3845 0.57557 0.0
C743 C 1.02791 0.37079 0.59663 0.0
C744 C 0.03583 0.3641 0.63947 0.0
C745 C 0.99847 0.39397 0.59261 0.0
C746 C 1.02216 0.3391 0.57439 0.0
C747 C 0.045 0.33561 0.54509 0.0
C748 C 0.04487 0.30808 0.52101 0.0
C749 C 1.02095 0.2835 0.5271 0.0
C750 C 0.99722 0.28649 0.55694 0.0
C751 C 0.99801 0.31488 0.58073 0.0
H752 H 0.1134 0.74888 0.1938 0.0
H753 H 1.01785 0.70339 0.21116 0.0
H754 H 1.01338 0.73033 0.27478 0.0
H755 H 0.1406 0.74794 0.29646 0.0
H756 H 0.15962 0.78782 0.29351 0.0
H757 H 0.15761 0.76199 0.25114 0.0
H758 H 0.12816 0.80798 0.21308 0.0
H759 H 0.1304 0.83399 0.25516 0.0
H760 H 0.09122 0.82558 0.23271 0.0
H761 H 1.01617 0.76542 0.33273 0.0
H762 H 1.02493 0.80873 0.3811 0.0
H763 H 0.11846 0.83349 0.32811 0.0
C764 C 0.09182 0.74425 0.21135 0.0
C765 C 0.066 0.72394 0.19754 0.0
C766 C 0.03786 0.71893 0.22099 0.0
C767 C 0.03521 0.73392 0.25736 0.0
C768 C 0.0608 0.75409 0.26995 0.0
C769 C 0.08852 0.75953 0.24769 0.0
C770 C 0.1109 0.78482 0.26674 0.0
C771 C 0.14416 0.76973 0.2776 0.0
C772 C 0.11542 0.81487 0.24036 0.0
C773 C 0.09108 0.79317 0.30275 0.0
C774 C 0.06248 0.77469 0.30406 0.0
C775 C 0.03879 0.77946 0.33251 0.0
C776 C 0.04396 0.80423 0.35984 0.0
C777 C 0.07258 0.82411 0.35877 0.0
C778 C 0.09686 0.818 0.33034 0.0
H779 H 0.73638 0.11127 0.30667 0.0
H780 H 0.75575 1.01195 0.34477 0.0
H781 H 0.79591 1.0055 0.2923 0.0
H782 H 0.74139 0.09426 0.20463 0.0
H783 H 0.76139 0.13228 0.19215 0.0
H784 H 0.7349 0.13022 0.2339 0.0
H785 H 0.78223 0.15206 0.27725 0.0
H786 H 0.80887 0.15415 0.23558 0.0
H787 H 0.82106 0.13104 0.27764 0.0
H788 H 0.83246 1.00818 0.23487 0.0
H789 H 0.863 1.01978 0.17484 0.0
H790 H 0.82194 0.11757 0.17187 0.0
C791 C 0.74933 0.08831 0.30418 0.0
C792 C 0.74257 0.06208 0.33004 0.0
C793 C 0.76001 0.03237 0.32539 0.0
C794 C 0.78311 1.02846 0.29567 0.0
C795 C 0.78893 0.05448 0.27054 0.0
C796 C 0.77264 0.08387 0.27431 0.0
C797 C 0.78299 0.10737 0.24217 0.0
C798 C 0.7534 0.11657 0.21671 0.0
C799 C 0.79979 0.13797 0.25918 0.0
C800 C 0.80739 0.08644 0.21978 0.0
C801 C 0.81037 0.05606 0.23692 0.0
C802 C 0.83043 0.03193 0.22127 0.0
C803 C 0.84766 0.03877 0.187 0.0
C804 C 0.84507 0.06961 0.16847 0.0
C805 C 0.82483 0.0939 0.18548 0.0
H806 H 0.46082 0.83678 0.17233 0.0
H807 H 0.55427 0.81484 0.11831 0.0
H808 H 0.55812 0.76418 0.15667 0.0
H809 H 0.48373 0.81708 0.26358 0.0
H810 H 0.44555 0.79888 0.27934 0.0
H811 H 0.44549 0.82884 0.24125 0.0
H812 H 0.41561 0.78805 0.19546 0.0
H813 H 0.41516 0.75795 0.23368 0.0
H814 H 0.43289 0.74813 0.18725 0.0
H815 H 0.55832 0.72396 0.20933 0.0
H816 H 0.55266 0.69287 0.26986 0.0
H817 H 0.45923 0.73991 0.29228 0.0
C818 C 0.48134 0.82052 0.16755 0.0
C819 C 0.50709 0.82938 0.14212 0.0
C820 C 0.53425 0.8083 0.13755 0.0
C821 C 0.53659 0.77945 0.15913 0.0
C822 C 0.51167 0.77215 0.18546 0.0
C823 C 0.48432 0.79178 0.18953 0.0
C824 C 0.46329 0.78051 0.22341 0.0
C825 C 0.45931 0.80796 0.25366 0.0
C826 C 0.42974 0.7679 0.20909 0.0
C827 C 0.48409 0.75275 0.23902 0.0
C828 C 0.5116 0.74814 0.21621 0.0
C829 C 0.53639 0.7266 0.22677 0.0
C830 C 0.53306 0.70922 0.26143 0.0
C831 C 0.50534 0.71372 0.28562 0.0
C832 C 0.48024 0.73534 0.27384 0.0
H833 H 0.75166 0.54075 0.16904 0.0
H834 H 0.73411 0.43669 0.15325 0.0
H835 H 0.77199 0.42493 0.20745 0.0
H836 H 0.83994 0.53284 0.19758 0.0
H837 H 0.8364 0.56701 0.2303 0.0
H838 H 0.81132 0.56523 0.18721 0.0
H839 H 0.76118 0.57264 0.23185 0.0
H840 H 0.78475 0.56997 0.27596 0.0
H841 H 0.75145 0.54162 0.26693 0.0
H842 H 0.80925 0.42493 0.26684 0.0
H843 H 0.84536 0.43659 0.32299 0.0
H844 H 0.83697 0.54068 0.30026 0.0
C845 C 0.75613 0.51543 0.17653 0.0
C846 C 0.73964 0.48968 0.15702 0.0
C847 C 0.74636 0.45689 0.16772 0.0
C848 C 0.76781 0.44996 0.19859 0.0
C849 C 0.78265 0.47602 0.21817 0.0
C850 C 0.77755 0.50808 0.20705 0.0
C851 C 0.79575 0.53174 0.23335 0.0
C852 C 0.82242 0.55037 0.21074 0.0
C853 C 0.7719 0.55542 0.25326 0.0
C854 C 0.81095 0.5081 0.26189 0.0
C855 C 0.80352 0.47604 0.25242 0.0
C856 C 0.81533 0.44996 0.27436 0.0
C857 C 0.83576 0.45683 0.30631 0.0
C858 C 0.84406 0.48955 0.31619 0.0
C859 C 0.83117 0.51538 0.29364 0.0
H860 H 1.03269 0.24107 0.68187 0.0
H861 H 0.92735 0.22491 0.6726 0.0
H862 H 0.91889 0.25837 0.7313 0.0
H863 H 0.03645 0.2377 0.78709 0.0
H864 H 0.0675 0.2692 0.79081 0.0
H865 H 0.06558 0.24357 0.74831 0.0
H866 H 0.06077 0.2951 0.70418 0.0
H867 H 0.06382 0.32036 0.74688 0.0
H868 H 1.02931 0.32471 0.71463 0.0
H869 H 0.92167 0.29418 0.79104 0.0
H870 H 0.93524 0.33142 0.84511 0.0
H871 H 0.03881 0.32448 0.81608 0.0
C872 C 1.0078 0.2445 0.6921 0.0
C873 C 0.98069 0.23007 0.67242 0.0
C874 C 0.94859 0.23541 0.68704 0.0
C875 C 0.94351 0.2544 0.72049 0.0
C876 C 0.97073 0.26796 0.73931 0.0
C877 C 1.00226 0.26332 0.72561 0.0
C878 C 1.02725 0.28092 0.75108 0.0
C879 C 0.05057 0.25638 0.77046 0.0
C880 C 0.04643 0.30679 0.72778 0.0
C881 C 1.00481 0.29676 0.78074 0.0
C882 C 0.97233 0.28869 0.77363 0.0
C883 C 0.94704 0.30065 0.79681 0.0
C884 C 0.95505 0.32185 0.82756 0.0
C885 C 0.98811 0.3312 0.83497 0.0
C886 C 1.01328 0.31797 0.81136 0.0
H887 H 0.32725 1.02839 0.67694 0.0
H888 H 0.32676 0.92634 0.64193 0.0
H889 H 0.28987 0.9131 0.69656 0.0
H890 H 0.33174 1.00889 0.77824 0.0
H891 H 0.30762 0.04338 0.79394 0.0
H892 H 0.33231 0.04629 0.75065 0.0
H893 H 0.28199 0.06166 0.71029 0.0
H894 H 0.25659 0.0601 0.75279 0.0
H895 H 0.24567 0.03573 0.71115 0.0
H896 H 0.25242 0.91143 0.75635 0.0
H897 H 0.21661 0.92224 0.81293 0.0
H898 H 0.2454 1.02458 0.81011 0.0
C899 C 0.31924 1.00324 0.68033 0.0
C900 C 0.32953 0.97853 0.65432 0.0
C901 C 0.31871 0.9459 0.66063 0.0
C902 C 0.29796 0.93807 0.69193 0.0
C903 C 0.28875 0.96301 0.71725 0.0
C904 C 0.29919 0.99491 0.71178 0.0
C905 C 0.28737 1.01695 0.74411 0.0
C906 C 0.31651 1.02969 0.76818 0.0
C907 C 0.26662 0.04528 0.72857 0.0
C908 C 0.26685 0.99305 0.76723 0.0
C909 C 0.26842 0.96185 0.75191 0.0
C910 C 0.2511 0.93581 0.76851 0.0
C911 C 0.23092 0.94215 0.80076 0.0
C912 C 0.22798 0.97434 0.81568 0.0
C913 C 0.2469 0.99979 0.79915 0.0
H914 H 0.60417 0.24467 0.79473 0.0
H915 H 0.50916 0.19758 0.77927 0.0
H916 H 0.50271 0.22531 0.71632 0.0
H917 H 0.58066 0.32085 0.75958 0.0
H918 H 0.61895 0.33033 0.7357 0.0
H919 H 0.61847 0.30307 0.77658 0.0
H920 H 0.64691 0.25857 0.7351 0.0
H921 H 0.64715 0.28569 0.69388 0.0
H922 H 0.62844 0.24572 0.69001 0.0
H923 H 0.50308 0.26262 0.65945 0.0
H924 H 0.50878 0.30954 0.61498 0.0
H925 H 0.60371 0.33296 0.66519 0.0
C926 C 0.58236 0.23967 0.77766 0.0
C927 C 0.55723 0.21876 0.79193 0.0
C928 C 0.52871 0.2135 0.7691 0.0
C929 C 0.52494 0.22895 0.73308 0.0
C930 C 0.54987 0.24973 0.72007 0.0
C931 C 0.57803 0.25523 0.74165 0.0
C932 C 0.59946 0.28134 0.72279 0.0
C933 C 0.60467 0.31063 0.75029 0.0
C934 C 0.63245 0.26696 0.70967 0.0
C935 C 0.57836 0.29052 0.68812 0.0
C936 C 0.55015 0.27146 0.68677 0.0
C937 C 0.52536 0.27723 0.65975 0.0
C938 C 0.52883 0.30389 0.6345 0.0
C939 C 0.55696 0.32439 0.63609 0.0
C940 C 0.58251 0.31695 0.66243 0.0
H941 H 0.22126 0.60328 0.67559 0.0
H942 H 0.24166 0.50899 0.62351 0.0
H943 H 0.28948 0.50245 0.66674 0.0
H944 H 0.30925 0.6275 0.69523 0.0
H945 H 0.29883 0.64607 0.74099 0.0
H946 H 0.26949 0.64591 0.70178 0.0
H947 H 0.22668 0.61782 0.74653 0.0
H948 H 0.25593 0.61756 0.78568 0.0
H949 H 0.237 0.57981 0.76997 0.0
H950 H 0.32946 0.5021 0.72125 0.0
H951 H 0.36137 0.50936 0.78148 0.0
H952 H 0.31648 0.60426 0.79907 0.0
C953 C 0.23662 0.5819 0.67236 0.0
C954 C 0.22809 0.55679 0.64585 0.0
C955 C 0.24798 0.52858 0.64341 0.0
C956 C 0.27522 0.52469 0.66781 0.0
C957 C 0.28235 0.54925 0.69461 0.0
C958 C 0.2639 0.57751 0.69685 0.0
C959 C 0.2751 0.59863 0.73073 0.0
C960 C 0.289 0.63148 0.71632 0.0
C961 C 0.247 0.60374 0.75994 0.0
C962 C 0.302 0.5774 0.74777 0.0
C963 C 0.30583 0.54912 0.72628 0.0
C964 C 0.32717 0.52444 0.73786 0.0
C965 C 0.34505 0.52871 0.77229 0.0
C966 C 0.34167 0.55748 0.79484 0.0
C967 C 0.3201 0.5823 0.78205 0.0
H968 H 0.21882 0.74642 0.03322 0.0
H969 H 0.20719 0.73374 0.15715 0.0
H970 H 0.25928 0.76388 0.16839 0.0
H971 H 0.30781 0.73364 0.03558 0.0
H972 H 0.31486 0.76137 -0.00392 0.0
H973 H 0.27615 0.73995 0.00015 0.0
H974 H 0.28407 0.81627 0.99404 0.0
H975 H 0.25792 0.82774 0.03387 0.0
H976 H 0.24448 0.7968 0.00048 0.0
H977 H 0.31269 0.79814 0.16593 0.0
H978 H 0.36403 0.82801 0.14986 0.0
H979 H 0.34364 0.81512 0.0274 0.0
C980 C 0.22721 0.75006 0.06272 0.0
C981 C 0.20859 0.73772 0.09431 0.0
C982 C 0.22087 0.74275 0.1324 0.0
C983 C 0.25047 0.76006 0.13911 0.0
C984 C 0.26821 0.77197 0.10742 0.0
C985 C 0.25722 0.76677 0.06999 0.0
C986 C 0.28195 0.7803 0.041 0.0
C987 C 0.29607 0.75223 0.01666 0.0
C988 C 0.26624 0.80685 0.01575 0.0
C989 C 0.308 0.79491 0.06762 0.0
C990 C 0.29955 0.78997 0.10597 0.0
C991 C 0.31945 0.80191 0.13592 0.0
C992 C 0.3486 0.81906 0.12649 0.0
C993 C 0.35805 0.82416 0.08737 0.0
C994 C 0.33727 0.81177 0.05762 0.0
H995 H 0.86493 0.24629 0.0114 0.0
H996 H 0.79852 0.19182 0.08418 0.0
H997 H 0.75981 0.23725 0.08336 0.0
H998 H 0.84183 0.3169 0.05935 0.0
H999 H 0.8518 0.34714 0.02565 0.0
H1000 H 0.87138 0.30749 0.02469 0.0
H1001 H 0.84179 0.30231 0.89237 0.0
H1002 H 0.82115 0.3371 0.89534 0.0
H1003 H 0.80072 0.30239 0.89103 0.0
H1004 H 0.72857 0.28473 0.08008 0.0
H1005 H 0.70754 0.34084 0.08126 0.0
H1006 H 0.79344 0.37398 0.01927 0.0
C1007 C 0.841 0.24413 0.02464 0.0
C1008 C 0.83405 0.215 0.04636 0.0
C1009 C 0.80435 0.21325 0.06698 0.0
C1010 C 0.78187 0.23891 0.06598 0.0
C1011 C 0.78837 0.26651 0.04321 0.0
C1012 C 0.8169 0.27001 0.02128 0.0
C1013 C 0.81882 0.30596 -0.00085 0.0
C1014 C 0.8475 0.32034 0.02791 0.0
C1015 C 0.82085 0.31244 0.91018 0.0
C1016 C 0.7882 0.32068 0.02472 0.0
C1017 C 0.77058 0.29682 0.04417 0.0
C1018 C 0.742 0.30382 0.0651 0.0
C1019 C 0.73041 0.336 0.06632 0.0
C1020 C 0.74826 0.36168 0.04893 0.0
C1021 C 0.77865 0.35416 0.0308 0.0
H1022 H 0.38154 0.77294 0.40484 0.0
H1023 H 0.3513 0.67223 0.421 0.0
H1024 H 0.29392 0.68987 0.4307 0.0
H1025 H 0.34668 0.81706 0.46195 0.0
H1026 H 0.32853 0.84965 0.43368 0.0
H1027 H 0.36305 0.82753 0.41561 0.0
H1028 H 0.33534 0.81206 0.35455 0.0
H1029 H 0.29953 0.83514 0.36829 0.0
H1030 H 0.2956 0.79275 0.35424 0.0
H1031 H 0.2323 0.71508 0.44718 0.0
H1032 H 0.18158 0.75907 0.46877 0.0
H1033 H 0.25583 0.85148 0.43972 0.0
C1034 C 0.36241 0.75491 0.40981 0.0
C1035 C 0.37063 0.72133 0.41295 0.0
C1036 C 0.34542 0.69796 0.4186 0.0
C1037 C 0.31275 0.70773 0.42366 0.0
C1038 C 0.30526 0.74089 0.42139 0.0
C1039 C 0.32931 0.7648 0.41346 0.0
C1040 C 0.31634 0.80053 0.41245 0.0
C1041 C 0.33986 0.82501 0.43235 0.0
C1042 C 0.31137 0.81073 0.36993 0.0
C1043 C 0.28291 0.79733 0.43222 0.0
C1044 C 0.27512 0.75636 0.43355 0.0
C1045 C 0.23726 0.74109 0.44866 0.0
C1046 C 0.2058 0.76845 0.46181 0.0
C1047 C 0.21301 0.8109 0.46055 0.0
C1048 C 0.25197 0.82558 0.44463 0.0
H1049 H 0.85137 0.34125 0.44153 0.0
H1050 H 0.76123 0.39688 0.44119 0.0
H1051 H 0.72579 0.34875 0.44965 0.0
H1052 H 0.82549 0.23904 0.40115 0.0
H1053 H 0.85916 0.23373 0.42854 0.0
H1054 H 0.85436 0.27261 0.40458 0.0
H1055 H 0.87298 0.2518 0.48359 0.0
H1056 H 0.85512 0.28013 0.51384 0.0
H1057 H 0.87132 0.29298 0.46997 0.0
H1058 H 0.69548 0.27677 0.45901 0.0
H1059 H 0.68535 0.21807 0.45316 0.0
H1060 H 0.78873 0.19171 0.45797 0.0
C1061 C 0.82501 0.34216 0.44543 0.0
C1062 C 0.80812 0.37212 0.44313 0.0
C1063 C 0.77304 0.37345 0.44532 0.0
C1064 C 0.75218 0.34601 0.45131 0.0
C1065 C 0.76594 0.31584 0.46023 0.0
C1066 C 0.80768 0.31381 0.45508 0.0
C1067 C 0.82314 0.26861 0.45826 0.0
C1068 C 0.84125 0.25323 0.42121 0.0
C1069 C 0.85625 0.27319 0.48322 0.0
C1070 C 0.77933 0.24323 0.46617 0.0
C1071 C 0.74736 0.27144 0.46621 0.0
C1072 C 0.71576 0.25989 0.4613 0.0
C1073 C 0.7106 0.22598 0.45728 0.0
C1074 C 0.73584 0.20182 0.45688 0.0
C1075 C 0.77 0.2102 0.46115 0.0
H1076 H 0.72505 0.2052 0.91886 0.0
H1077 H 0.66401 0.28879 0.94533 0.0
H1078 H 0.71349 0.32253 0.95666 0.0
H1079 H 0.78092 0.21334 0.98963 0.0
H1080 H 0.8183 0.20278 0.96394 0.0
H1081 H 0.77914 0.18682 0.94862 0.0
H1082 H 0.78429 0.20749 0.88237 0.0
H1083 H 0.82458 0.22441 0.89163 0.0
H1084 H 0.79239 0.24968 0.87215 0.0
H1085 H 0.77066 0.35835 0.95295 0.0
H1086 H 0.83769 0.376 0.95964 0.0
H1087 H 0.86728 0.25988 0.94592 0.0
C1088 C 0.72249 0.23068 0.92687 0.0
C1089 C 0.69066 0.24457 0.93087 0.0
C1090 C 0.68797 0.27771 0.94196 0.0
C1091 C 0.71594 0.29713 0.94821 0.0
C1092 C 0.7468 0.28308 0.94434 0.0
C1093 C 0.75091 0.25003 0.93461 0.0
C1094 C 0.78736 0.23844 0.93426 0.0
C1095 C 0.79183 0.2087 0.9608 0.0
C1096 C 0.7978 0.22956 0.89271 0.0
C1097 C 0.80645 0.26859 0.94856 0.0
C1098 C 0.77804 0.29858 0.95172 0.0
C1099 C 0.78924 0.33957 0.95485 0.0
C1100 C 0.83077 0.35041 0.95862 0.0
C1101 C 0.86139 0.32025 0.95562 0.0
C1102 C 0.84909 0.27846 0.95162 0.0
H1103 H 0.35228 0.7275 0.8952 0.0
H1104 H 0.27407 0.66464 0.93785 0.0
H1105 H 0.23623 0.71157 0.93846 0.0
H1106 H 0.33332 0.79941 0.95287 0.0
H1107 H 0.34301 0.82737 0.91445 0.0
H1108 H 0.36248 0.78795 0.91609 0.0
H1109 H 0.34165 0.77856 0.84544 0.0
H1110 H 0.32079 0.81735 0.84606 0.0
H1111 H 0.29819 0.78033 0.83549 0.0
H1112 H 0.20648 0.76549 0.93616 0.0
H1113 H 0.18868 0.82323 0.93699 0.0
H1114 H 0.28601 0.85371 0.90003 0.0
C1115 C 0.32717 0.72371 0.90464 0.0
C1116 C 0.31623 0.6921 0.91649 0.0
C1117 C 0.28319 0.68838 0.92877 0.0
C1118 C 0.26134 0.71495 0.92888 0.0
C1119 C 0.27283 0.74575 0.91758 0.0
C1120 C 0.30509 0.75047 0.9061 0.0
C1121 C 0.31113 0.78661 0.8968 0.0
C1122 C 0.33913 0.80111 0.92155 0.0
C1123 C 0.31837 0.79096 0.85337 0.0
C1124 C 0.27795 0.80155 0.90729 0.0
C1125 C 0.25594 0.77727 0.91785 0.0
C1126 C 0.22357 0.78467 0.92797 0.0
C1127 C 0.21366 0.81767 0.92854 0.0
C1128 C 0.23588 0.84327 0.91913 0.0
C1129 C 0.26843 0.83485 0.90787 0.0
H1130 H 0.83369 0.2198 0.50268 0.0
H1131 H 0.83931 0.20684 0.62491 0.0
H1132 H 0.78724 0.23603 0.63171 0.0
H1133 H 0.81002 0.3137 0.56104 0.0
H1134 H 0.79174 0.3392 0.52579 0.0
H1135 H 0.83133 0.32388 0.51949 0.0
H1136 H 0.7994 0.28981 0.39483 0.0
H1137 H 0.75911 0.28987 0.40113 0.0
H1138 H 0.77626 0.25392 0.401 0.0
H1139 H 0.73785 0.26174 0.62837 0.0
H1140 H 0.6897 0.29607 0.62047 0.0
H1141 H 0.72163 0.32459 0.5081 0.0
C1142 C 0.82623 0.22847 0.53077 0.0
C1143 C 0.84302 0.21496 0.56302 0.0
C1144 C 0.82821 0.21778 0.59953 0.0
C1145 C 0.79898 0.23514 0.60363 0.0
C1146 C 0.78687 0.2531 0.57207 0.0
C1147 C 0.80221 0.25403 0.53609 0.0
C1148 C 0.78856 0.28476 0.50868 0.0
C1149 C 0.80653 0.31654 0.52921 0.0
C1150 C 0.7812 0.27823 0.41537 0.0
C1151 C 0.75528 0.28944 0.53655 0.0
C1152 C 0.75796 0.27279 0.57163 0.0
C1153 C 0.73497 0.27527 0.60167 0.0
C1154 C 0.70752 0.29506 0.59718 0.0
C1155 C 0.70247 0.31245 0.56274 0.0
C1156 C 0.72669 0.3103 0.53306 0.0
H1157 H 0.30098 0.84187 0.49064 0.0
H1158 H 0.27066 0.87982 0.60062 0.0
H1159 H 0.23124 0.83455 0.60753 0.0
H1160 H 0.2056 0.78977 0.39844 0.0
H1161 H 0.23361 0.76211 0.38629 0.0
H1162 H 0.24263 0.80183 0.38388 0.0
H1163 H 0.31401 0.78149 0.49125 0.0
H1164 H 0.29574 0.74185 0.49871 0.0
H1165 H 0.29753 0.77066 0.53547 0.0
H1166 H 0.2032 0.78336 0.61096 0.0
H1167 H 0.19188 0.72403 0.61378 0.0
H1168 H 0.24701 0.71045 0.50953 0.0
C1169 C 0.28428 0.84109 0.51458 0.0
C1170 C 0.2885 0.86479 0.54423 0.0
C1171 C 0.2681 0.86238 0.57711 0.0
C1172 C 0.24495 0.83692 0.58081 0.0
C1173 C 0.24141 0.81369 0.55112 0.0
C1174 C 0.25974 0.81555 0.51717 0.0
C1175 C 0.25657 0.78264 0.49035 0.0
C1176 C 0.23207 0.78426 0.4059 0.0
C1177 C 0.29265 0.76854 0.50364 0.0
C1178 C 0.23739 0.76192 0.52428 0.0
C1179 C 0.22688 0.78131 0.55475 0.0
C1180 C 0.21078 0.76792 0.58714 0.0
C1181 C 0.205 0.73394 0.5891 0.0
C1182 C 0.21708 0.7129 0.56014 0.0
C1183 C 0.23471 0.72703 0.52897 0.0
H1184 H 0.05745 0.45019 0.98324 0.0
H1185 H 0.95207 0.46566 0.98422 0.0
H1186 H 0.96143 0.52375 0.00081 0.0
H1187 H 0.07564 0.50272 0.06563 0.0
H1188 H 0.11377 0.51842 0.04636 0.0
H1189 H 0.09949 0.47821 0.03262 0.0
H1190 H 0.10266 0.49446 0.9604 0.0
H1191 H 0.11693 0.53476 0.97377 0.0
H1192 H 0.08096 0.53006 0.94366 0.0
H1193 H 0.98106 0.57981 0.0159 0.0
H1194 H 1.00912 0.63064 0.03312 0.0
H1195 H 0.10342 0.58157 0.02923 0.0
C1196 C 0.03636 0.46585 0.98676 0.0
C1197 C 1.00384 0.45304 0.98199 0.0
C1198 C 0.97707 0.47449 0.98756 0.0
C1199 C 0.98219 0.50768 -0.00302 0.0
C1200 C 1.0143 0.51941 0.0015 0.0
C1201 C 0.04106 0.49923 -0.00304 0.0
C1202 C 0.07294 0.51839 0.00499 0.0
C1203 C 0.09156 0.50354 0.03946 0.0
C1204 C 0.09466 0.51949 0.96854 0.0
C1205 C 0.05981 0.55245 0.01498 0.0
C1206 C 1.02586 0.55213 0.01213 0.0
C1207 C 1.00757 0.58014 0.01871 0.0
C1208 C 1.02398 0.60912 0.02894 0.0
C1209 C 0.05867 0.61064 0.03391 0.0
C1210 C 0.07694 0.58161 0.02625 0.0
H1211 H 0.08941 0.96186 0.97676 0.0
H1212 H 0.14917 0.04936 0.964 0.0
H1213 H 0.10275 0.08328 0.98549 0.0
H1214 H 1.01529 0.99674 0.94062 0.0
H1215 H 0.98809 0.97601 0.97389 0.0
H1216 H 1.02669 0.95773 0.96079 0.0
H1217 H 0.04287 0.95402 0.03327 0.0
H1218 H 1.0042 0.97215 0.04637 0.0
H1219 H 0.04212 0.99044 0.06282 0.0
H1220 H 0.04839 0.10902 0.00365 0.0
H1221 H 0.99124 0.1235 0.02121 0.0
H1222 H 0.96522 1.02037 0.02208 0.0
C1223 C 0.09285 0.98806 0.97932 0.0
C1224 C 0.12328 1.00285 0.9688 0.0
C1225 C 0.1263 0.03736 0.97185 0.0
C1226 C 0.09998 0.05695 0.98409 0.0
C1227 C 0.0701 0.04198 0.99306 0.0
C1228 C 0.06636 1.00828 0.99123 0.0
C1229 C 1.03104 0.99882 0.00138 0.0
C1230 C 1.01429 0.98129 0.96712 0.0
C1231 C 1.03004 0.9776 0.03815 0.0
C1232 C 1.01571 0.03233 0.00868 0.0
C1233 C 0.03872 0.0569 0.00375 0.0
C1234 C 1.03026 0.08988 0.008 0.0
C1235 C 0.99761 0.09797 0.01787 0.0
C1236 C 0.9734 0.07333 0.02322 0.0
C1237 C 0.98292 0.04002 0.01846 0.0
H1238 H 0.50936 0.11151 0.97608 0.0
H1239 H 0.61108 0.08929 0.94942 0.0
H1240 H 0.6008 0.03132 0.96578 0.0
H1241 H 0.50381 0.05462 0.05865 0.0
H1242 H 0.46155 0.04395 0.0489 0.0
H1243 H 0.47702 0.08387 0.03588 0.0
H1244 H 0.4723 0.039 0.93913 0.0
H1245 H 0.45804 0.07428 0.9655 0.0
H1246 H 0.44293 0.0342 0.97793 0.0
H1247 H 0.57946 0.9759 0.98189 0.0
H1248 H 0.5504 0.92652 0.00404 0.0
H1249 H 0.46167 0.98283 0.02221 0.0
C1250 C 0.5295 0.09446 0.97375 0.0
C1251 C 0.56104 0.10505 0.96097 0.0
C1252 C 0.58677 0.08195 0.95894 0.0
C1253 C 0.58109 0.04887 0.96801 0.0
C1254 C 0.5496 0.03918 0.97949 0.0
C1255 C 0.52433 0.0613 0.98314 0.0
C1256 C 0.49311 0.04436 -0.00252 0.0
C1257 C 0.4833 0.05748 0.03761 0.0
C1258 C 0.46493 0.04815 0.9682 0.0
C1259 C 0.50444 1.009 4e-05 0.0
C1260 C 0.53723 1.00687 0.98959 0.0
C1261 C 0.55385 0.97731 0.99014 0.0
C1262 C 0.537 0.94933 0.00272 0.0
C1263 C 0.50367 0.95062 0.0146 0.0
C1264 C 0.48691 0.98089 0.01263 0.0
H1265 H 0.59263 0.46891 0.00031 0.0
H1266 H 0.64047 0.56131 0.02647 0.0
H1267 H 0.58956 0.59089 0.01059 0.0
H1268 H 0.5425 0.50028 0.91765 0.0
H1269 H 0.50883 0.47351 0.93032 0.0
H1270 H 0.55053 0.46214 0.94164 0.0
H1271 H 0.53067 0.45509 0.01416 0.0
H1272 H 0.49017 0.46954 0.00192 0.0
H1273 H 0.51384 0.48998 0.03887 0.0
H1274 H 0.53189 0.61106 0.99234 0.0
H1275 H 0.47395 0.61895 0.97174 0.0
H1276 H 0.46384 0.51419 0.95649 0.0
C1277 C 0.59245 0.49535 0.00229 0.0
C1278 C 0.62059 0.51269 0.01562 0.0
C1279 C 0.61903 0.54735 0.01769 0.0
C1280 C 0.59022 0.56448 0.00831 0.0
C1281 C 0.56267 0.54682 -0.00373 0.0
C1282 C 0.5636 0.51303 0.99285 0.0
C1283 C 0.53031 0.50006 0.97957 0.0
C1284 C 0.53318 0.48295 0.93998 0.0
C1285 C 0.51537 0.47727 0.01041 0.0
C1286 C 0.51075 0.5316 0.97617 0.0
C1287 C 0.52978 0.5584 0.98584 0.0
C1288 C 0.51685 0.5901 0.98458 0.0
C1289 C 0.48381 0.59442 0.97285 0.0
C1290 C 0.46373 0.56723 0.96271 0.0
C1291 C 0.47784 0.53553 0.96458 0.0
H1292 H 0.96728 0.07523 0.52109 0.0
H1293 H 0.05586 0.13494 0.51947 0.0
H1294 H 0.08915 0.08599 0.50792 0.0
H1295 H 1.00346 1.00419 0.56793 0.0
H1296 H 0.9812 0.97466 0.53908 0.0
H1297 H 0.96374 1.01435 0.54826 0.0
H1298 H 0.95784 1.02413 0.47406 0.0
H1299 H 0.97479 0.98415 0.46611 0.0
H1300 H 0.99341 1.01935 0.44337 0.0
H1301 H 0.11432 1.03017 0.49966 0.0
H1302 H 0.12806 0.97203 0.48762 0.0
H1303 H 1.02427 0.94731 0.48918 0.0
C1304 C 0.99364 0.07801 0.51815 0.0
C1305 C 1.00878 0.10933 0.5221 0.0
C1306 C 0.04346 0.11148 0.51765 0.0
C1307 C 0.06278 0.08369 0.51094 0.0
C1308 C 0.04741 0.05329 0.50805 0.0
C1309 C 1.01359 0.0502 0.51092 0.0
C1310 C 1.00358 1.01443 0.50555 0.0
C1311 C 0.98701 1.00113 0.5424 0.0
C1312 C 0.98107 1.01036 0.4701 0.0
C1313 C 0.0369 0.99822 0.49888 0.0
C1314 C 0.06189 1.02112 0.50111 0.0
C1315 C 0.09487 1.01207 0.4974 0.0
C1316 C 0.10254 0.9789 0.4907 0.0
C1317 C 0.07741 0.95499 0.48696 0.0
C1318 C 0.04412 0.965 0.49136 0.0
H1319 H 0.47491 0.95658 0.50794 0.0
H1320 H 0.42151 0.04808 0.51025 0.0
H1321 H 0.47255 0.07851 0.49713 0.0
H1322 H 0.54776 0.98825 0.55512 0.0
H1323 H 0.57669 0.96525 0.5266 0.0
H1324 H 0.53576 0.94946 0.53437 0.0
H1325 H 0.52655 0.94499 0.46027 0.0
H1326 H 0.56778 0.95996 0.45283 0.0
H1327 H 0.53366 0.98038 0.43013 0.0
H1328 H 0.52989 0.10051 0.48699 0.0
H1329 H 0.58891 0.11149 0.47549 0.0
H1330 H 0.60762 1.00705 0.47813 0.0
C1331 C 0.4739 0.98291 0.50481 0.0
C1332 C 0.44367 0.99977 0.5101 0.0
C1333 C 0.44402 0.0344 0.50653 0.0
C1334 C 0.47305 0.05208 0.49905 0.0
C1335 C 0.50241 0.03514 0.49499 0.0
C1336 C 0.50319 1.0013 0.49733 0.0
C1337 C 0.53863 0.98966 0.4925 0.0
C1338 C 0.5504 0.97211 0.52934 0.0
C1339 C 0.54181 0.96744 0.45677 0.0
C1340 C 0.5572 1.02205 0.48671 0.0
C1341 C 0.53572 0.04797 0.48864 0.0
C1342 C 0.54688 0.08031 0.48505 0.0
C1343 C 0.58065 0.08639 0.47863 0.0
C1344 C 0.60341 0.06038 0.47568 0.0
C1345 C 0.59118 1.02771 0.48012 0.0
H1346 H 0.5227 0.447 0.48831 0.0
H1347 H 0.6171 0.46709 0.54177 0.0
H1348 H 0.60708 0.52669 0.53519 0.0
H1349 H 0.5301 0.5137 0.41723 0.0
H1350 H 0.48672 0.52236 0.41713 0.0
H1351 H 0.50081 0.4815 0.42701 0.0
H1352 H 0.46842 0.48192 0.49056 0.0
H1353 H 0.45511 0.52334 0.48332 0.0
H1354 H 0.47693 0.51258 0.52696 0.0
H1355 H 0.58515 0.58402 0.5264 0.0
H1356 H 0.55893 0.63498 0.5048 0.0
H1357 H 0.4803 0.57885 0.45111 0.0
C1358 C 0.5413 0.46402 0.49845 0.0
C1359 C 0.57064 0.45239 0.51592 0.0
C1360 C 0.59464 0.47537 0.52815 0.0
C1361 C 0.58893 0.50927 0.52487 0.0
C1362 C 0.55943 0.51992 0.50835 0.0
C1363 C 0.53642 0.49798 0.49424 0.0
C1364 C 0.50791 0.51596 0.47507 0.0
C1365 C 0.50628 0.50791 0.43153 0.0
C1366 C 0.47517 0.50799 0.49524 0.0
C1367 C 0.51792 0.55151 0.48164 0.0
C1368 C 0.54759 0.55306 0.50131 0.0
C1369 C 0.56209 0.58296 0.51078 0.0
C1370 C 0.54679 0.61188 0.49856 0.0
C1371 C 0.51732 0.61123 0.47646 0.0
C1372 C 0.50233 0.58044 0.46865 0.0
H1373 H 0.09888 0.51775 0.53133 0.0
H1374 H 0.089 0.62234 0.51449 0.0
H1375 H 1.03023 0.61432 0.49831 0.0
H1376 H 1.02935 0.45771 0.48017 0.0
H1377 H 0.07007 0.47179 0.49237 0.0
H1378 H 0.04731 0.4917 0.45429 0.0
H1379 H 0.05203 0.48067 0.56433 0.0
H1380 H 1.01193 0.46515 0.55149 0.0
H1381 H 1.01619 0.50469 0.5743 0.0
H1382 H 0.9731 0.59536 0.48451 0.0
H1383 H 0.9218 0.56627 0.46788 0.0
H1384 H 0.96811 0.47315 0.49035 0.0
C1385 C 0.08429 0.53896 0.52457 0.0
C1386 C 0.09851 0.57074 0.5247 0.0
C1387 C 0.0787 0.59784 0.5149 0.0
C1388 C 0.04526 0.59352 0.50582 0.0
C1389 C 1.03201 0.56192 0.50652 0.0
C1390 C 0.05085 0.53504 0.51548 0.0
C1391 C 1.03061 0.50361 0.51303 0.0
C1392 C 0.04521 0.47981 0.48317 0.0
C1393 C 1.02749 0.48756 0.55315 0.0
C1394 C 0.9977 0.5169 0.49976 0.0
C1395 C 0.99906 0.55071 0.49714 0.0
C1396 C 0.97192 0.56892 0.48609 0.0
C1397 C 0.94298 0.5522 0.47637 0.0
C1398 C 0.94121 0.51762 0.47684 0.0
C1399 C 0.96872 0.49963 0.48972 0.0
H1400 H 1.0274 0.54619 0.36162 0.0
H1401 H 0.99195 0.4606 0.30092 0.0
H1402 H 1.03109 0.47122 0.24798 0.0
H1403 H 1.01827 0.59332 0.29256 0.0
H1404 H 0.05297 0.62063 0.29799 0.0
H1405 H 0.03805 0.59857 0.33903 0.0
H1406 H 0.09528 0.57342 0.35042 0.0
H1407 H 0.11091 0.59615 0.30951 0.0
H1408 H 0.11588 0.55238 0.31154 0.0
H1409 H 0.0563 0.50003 0.19389 0.0
H1410 H 0.06135 0.54383 0.14516 0.0
H1411 H 0.07635 0.61486 0.23664 0.0
C1412 C 1.03002 0.52841 0.33853 0.0
C1413 C 1.00764 0.50211 0.33561 0.0
C1414 C 1.00977 0.48025 0.30408 0.0
C1415 C 1.03192 0.4863 0.27378 0.0
C1416 C 0.05126 0.51467 0.27516 0.0
C1417 C 0.05079 0.53531 0.30718 0.0
C1418 C 0.06587 0.56839 0.29761 0.0
C1419 C 0.04235 0.59682 0.30731 0.0
C1420 C 0.09896 0.57282 0.3185 0.0
C1421 C 0.07088 0.56457 0.25433 0.0
C1422 C 0.06434 0.53283 0.24235 0.0
C1423 C 0.06249 0.52465 0.20304 0.0
C1424 C 0.06537 0.5497 0.17544 0.0
C1425 C 0.06919 0.58255 0.18744 0.0
C1426 C 0.0739 0.58973 0.22703 0.0
H1427 H 0.07354 0.96435 0.2877 0.0
H1428 H 0.0371 1.02777 0.37839 0.0
H1429 H 1.01892 0.06742 0.3291 0.0
H1430 H 0.09674 0.03539 0.21617 0.0
H1431 H 0.08453 1.01015 0.17569 0.0
H1432 H 0.10311 0.9918 0.21783 0.0
H1433 H 0.05304 0.9526 0.22433 0.0
H1434 H 0.03484 0.97098 0.1825 0.0
H1435 H 1.0123 0.96961 0.22746 0.0
H1436 H 0.98915 0.08922 0.27223 0.0
H1437 H 0.95694 0.09533 0.21189 0.0
H1438 H 1.01743 1.02264 0.15591 0.0
C1439 C 0.06343 0.9875 0.29708 0.0
C1440 C 0.05692 0.99324 0.33667 0.0
C1441 C 0.04284 1.02324 0.3482 0.0
C1442 C 1.03233 0.04587 0.32033 0.0
C1443 C 0.03713 0.03857 0.2812 0.0
C1444 C 0.05345 1.0106 0.26957 0.0
C1445 C 0.05192 1.00641 0.22591 0.0
C1446 C 0.08611 1.01124 0.20784 0.0
C1447 C 0.0371 0.97293 0.21448 0.0
C1448 C 1.02934 0.03435 0.21525 0.0
C1449 C 1.02152 0.053 0.24748 0.0
C1450 C 0.99628 0.07599 0.24642 0.0
C1451 C 0.97807 0.07932 0.2121 0.0
C1452 C 0.98561 0.06028 0.17915 0.0
C1453 C 1.01236 0.03856 0.18028 0.0
H1454 H 0.5544 1.02496 0.34876 0.0
H1455 H 0.61432 0.09867 0.29279 0.0
H1456 H 0.57899 0.09551 0.23466 0.0
H1457 H 0.55858 0.975 0.27779 0.0
H1458 H 0.5183 0.95649 0.28081 0.0
H1459 H 0.53619 0.97485 0.32291 0.0
H1460 H 0.48568 1.01245 0.33051 0.0
H1461 H 0.46729 0.99391 0.28817 0.0
H1462 H 0.4727 0.03769 0.29056 0.0
H1463 H 0.54848 0.07461 0.17822 0.0
H1464 H 0.53392 0.03374 0.12829 0.0
H1465 H 0.49989 0.96753 0.21751 0.0
C1466 C 0.55872 0.04176 0.32503 0.0
C1467 C 0.58638 0.0626 0.32529 0.0
C1468 C 0.59264 0.08314 0.29325 0.0
C1469 C 0.57257 0.08151 0.2602 0.0
C1470 C 0.54685 0.05868 0.25941 0.0
C1471 C 0.54 0.03897 0.29115 0.0
C1472 C 0.51807 1.01035 0.27999 0.0
C1473 C 0.53377 0.97728 0.29097 0.0
C1474 C 0.4839 1.01383 0.29839 0.0
C1475 C 0.5164 1.01515 0.23651 0.0
C1476 C 0.53121 0.04431 0.22552 0.0
C1477 C 0.5361 0.05217 0.18652 0.0
C1478 C 0.52765 1.02888 0.15826 0.0
C1479 C 0.51567 0.99779 0.16942 0.0
C1480 C 0.50839 0.99154 0.20862 0.0
H1481 H 0.55135 0.53889 0.3528 0.0
H1482 H 0.46866 0.58699 0.29913 0.0
H1483 H 0.47397 0.55108 0.24203 0.0
H1484 H 0.5987 0.54565 0.28178 0.0
H1485 H 0.6208 0.50762 0.28489 0.0
H1486 H 0.60174 0.52397 0.32716 0.0
H1487 H 0.56844 0.47036 0.33656 0.0
H1488 H 0.58796 0.45341 0.29416 0.0
H1489 H 0.54375 0.45439 0.29737 0.0
H1490 H 0.49898 0.52561 0.18453 0.0
H1491 H 0.54108 0.51628 0.13433 0.0
H1492 H 0.61029 0.48731 0.2228 0.0
C1493 C 0.53314 0.54036 0.32998 0.0
C1494 C 0.50962 0.56549 0.33022 0.0
C1495 C 0.48662 0.56754 0.29965 0.0
C1496 C 0.48954 0.54716 0.26703 0.0
C1497 C 0.51541 0.52483 0.26569 0.0
C1498 C 0.53656 0.52094 0.29688 0.0
C1499 C 0.56691 0.50197 0.28545 0.0
C1500 C 0.59884 0.52097 0.29534 0.0
C1501 C 0.56673 0.46801 0.30451 0.0
C1502 C 0.5615 0.49922 0.24216 0.0
C1503 C 0.53087 0.51083 0.23152 0.0
C1504 C 0.5225 0.51543 0.19259 0.0
C1505 C 0.54653 0.50998 0.16414 0.0
C1506 C 0.57867 0.5009 0.17503 0.0
C1507 C 0.58556 0.49361 0.21405 0.0
H1508 H 1.03076 0.52132 0.65372 0.0
H1509 H 0.08877 0.59806 0.70677 0.0
H1510 H 0.05606 0.59322 0.76665 0.0
H1511 H 0.95026 0.53147 0.71688 0.0
H1512 H 0.94644 0.48753 0.71898 0.0
H1513 H 0.96216 0.50696 0.6758 0.0
H1514 H 1.01412 0.47097 0.67967 0.0
H1515 H 0.99894 0.45182 0.72264 0.0
H1516 H 0.03867 0.47164 0.72326 0.0
H1517 H 1.03111 0.56965 0.82461 0.0
H1518 H 1.02158 0.52758 0.8745 0.0
H1519 H 0.98274 0.46196 0.78694 0.0
C1520 C 0.03476 0.53858 0.67714 0.0
C1521 C 0.06129 0.5608 0.67556 0.0
C1522 C 0.06774 0.58165 0.70729 0.0
C1523 C 0.04921 0.579 0.74139 0.0
C1524 C 1.02476 0.5549 0.74349 0.0
C1525 C 1.01737 0.53505 0.71194 0.0
C1526 C 0.99697 0.50563 0.72414 0.0
C1527 C 0.96187 0.50806 0.708 0.0
C1528 C 1.01319 0.47317 0.71174 0.0
C1529 C 0.99719 0.51008 0.76776 0.0
C1530 C 1.01162 0.53959 0.7782 0.0
C1531 C 1.01892 0.54696 0.81683 0.0
C1532 C 1.01338 0.52291 0.8451 0.0
C1533 C 1.00144 0.49166 0.83434 0.0
C1534 C 0.99139 0.48596 0.79576 0.0
H1535 H 0.99745 0.1112 0.72047 0.0
H1536 H 1.01563 0.04587 0.62421 0.0
H1537 H 1.02186 0.99983 0.66966 0.0
H1538 H 0.05486 0.08855 0.77612 0.0
H1539 H 0.03447 0.09021 0.82245 0.0
H1540 H 1.01947 0.11428 0.78318 0.0
H1541 H 0.962 0.08747 0.79022 0.0
H1542 H 0.97701 0.06312 0.82999 0.0
H1543 H 0.9578 0.04353 0.78887 0.0
H1544 H 0.04699 0.96918 0.72235 0.0
H1545 H 0.08412 0.95666 0.77671 0.0
H1546 H 0.04323 0.03646 0.84252 0.0
C1547 C 1.001 0.08676 0.70911 0.0
C1548 C 1.00614 0.08185 0.66918 0.0
C1549 C 1.01134 0.04993 0.65482 0.0
C1550 C 1.01478 1.02362 0.6805 0.0
C1551 C 1.01191 1.02954 0.72024 0.0
C1552 C 1.00399 0.06023 0.73446 0.0
C1553 C 1.00783 0.06171 0.77812 0.0
C1554 C 1.03053 0.09032 0.79061 0.0
C1555 C 0.97414 0.06408 0.79796 0.0
C1556 C 1.02329 1.02866 0.78557 0.0
C1557 C 1.02452 1.01 0.75199 0.0
C1558 C 0.04468 0.98253 0.7493 0.0
C1559 C 0.06564 0.97538 0.78039 0.0
C1560 C 0.06558 0.99507 0.81398 0.0
C1561 C 0.04245 1.0203 0.8177 0.0
H1562 H 0.51771 0.04066 0.63603 0.0
H1563 H 0.46832 0.96124 0.69488 0.0
H1564 H 0.50573 0.96762 0.75062 0.0
H1565 H 0.60343 0.03523 0.69018 0.0
H1566 H 0.60485 0.0793 0.69217 0.0
H1567 H 0.58697 0.05893 0.65071 0.0
H1568 H 0.53354 0.0919 0.66035 0.0
H1569 H 0.55088 0.11194 0.7017 0.0
H1570 H 0.51255 0.08988 0.70635 0.0
H1571 H 0.53362 0.99259 0.80569 0.0
H1572 H 0.54439 0.03518 0.8547 0.0
H1573 H 0.57256 0.10284 0.76398 0.0
C1574 C 0.51649 1.02332 0.65966 0.0
C1575 C 0.49105 0.99986 0.661 0.0
C1576 C 0.48848 0.97863 0.69306 0.0
C1577 C 0.50968 0.98218 0.72484 0.0
C1578 C 0.53283 1.00758 0.7244 0.0
C1579 C 0.5365 1.02778 0.69236 0.0
C1580 C 0.55605 0.05835 0.70256 0.0
C1581 C 0.58984 0.0579 0.68273 0.0
C1582 C 0.53709 0.0898 0.69218 0.0
C1583 C 0.5595 0.05396 0.746 0.0
C1584 C 0.54772 1.02367 0.75768 0.0
C1585 C 0.54379 1.01595 0.79685 0.0
C1586 C 0.54998 0.04031 0.8246 0.0
C1587 C 0.55925 0.07217 0.81291 0.0
C1588 C 0.56601 0.07841 0.77349 0.0
H1589 H 0.52046 0.51095 0.83997 0.0
H1590 H 0.46834 0.59312 0.79112 0.0
H1591 H 0.50421 0.59152 0.73356 0.0
H1592 H 0.60489 0.52652 0.78628 0.0
H1593 H 0.60921 0.48293 0.78037 0.0
H1594 H 0.59038 0.49917 0.82358 0.0
H1595 H 0.53904 0.46287 0.81123 0.0
H1596 H 0.55747 0.44677 0.76838 0.0
H1597 H 0.51775 0.46598 0.76548 0.0
H1598 H 0.5314 0.57065 0.67508 0.0
H1599 H 0.54324 0.5315 0.6226 0.0
H1600 H 0.57702 0.46117 0.70708 0.0
C1601 C 0.51791 0.52968 0.818 0.0
C1602 C 0.49188 0.55217 0.81979 0.0
C1603 C 0.48845 0.57589 0.79035 0.0
C1604 C 0.50887 0.5752 0.7576 0.0
C1605 C 0.53272 0.55083 0.75499 0.0
C1606 C 0.53768 0.52874 0.78489 0.0
C1607 C 0.55906 0.50055 0.77202 0.0
C1608 C 0.5929 0.50242 0.79173 0.0
C1609 C 0.54228 0.46714 0.77967 0.0
C1610 C 0.56183 0.50797 0.72916 0.0
C1611 C 0.54816 0.53801 0.72022 0.0
C1612 C 0.54311 0.54764 0.68182 0.0
C1613 C 0.54998 0.52526 0.65207 0.0
C1614 C 0.56098 0.49345 0.66113 0.0
C1615 C 0.56911 0.48564 0.6997 0.0
loop_
_geom_bond_atom_site_label_1
_geom_bond_atom_site_label_2
_geom_bond_distance
_geom_bond_site_symmetry_2
_ccdc_geom_bond_type
O0 Tb1 2.506 . S
O0 C14 1.265 . S
Tb1 O0 2.506 . S
Tb1 O6 2.312 . S
Tb1 O10 2.271 . S
Tb1 O12 2.338 . S
Tb1 O19 2.441 . S
C2 O10 1.252 . S
C2 O11 1.253 . S
O3 Tb4 2.271 . S
O3 C13 1.252 . S
Tb4 O3 2.271 . S
Tb4 O7 2.338 1_455 S
Tb4 O11 2.312 . S
Tb4 O15 2.441 . S
Tb4 O16 2.506 . S
C5 O15 1.244 . S
C5 O16 1.265 . S
O6 Tb1 2.312 . S
O6 C13 1.253 . S
O7 Tb4 2.338 1_655 S
O7 C8 1.258 . S
C8 O7 1.258 . S
C8 O9 1.251 . S
O9 C8 1.251 . S
O10 Tb1 2.271 . S
O10 C2 1.252 . S
O11 C2 1.253 . S
O11 Tb4 2.312 . S
O12 Tb1 2.338 . S
O12 C17 1.258 . S
C13 O3 1.252 . S
C13 O6 1.253 . S
C14 O0 1.265 . S
C14 O19 1.244 . S
O15 Tb4 2.441 . S
O15 C5 1.244 . S
O16 Tb4 2.506 . S
O16 C5 1.265 . S
C17 O12 1.258 . S
C17 O18 1.251 . S
O18 C17 1.251 . S
O19 Tb1 2.441 . S
O19 C14 1.244 . S
O20 Tb21 2.506 . S
O20 C34 1.265 . S
Tb21 O20 2.506 . S
Tb21 O26 2.312 . S
Tb21 O30 2.271 . S
Tb21 O32 2.338 . S
Tb21 O39 2.441 . S
C22 O30 1.252 . S
C22 O31 1.253 . S
O23 Tb24 2.271 . S
O23 C33 1.252 . S
Tb24 O23 2.271 . S
Tb24 O27 2.338 1_545 S
Tb24 O31 2.312 . S
Tb24 O35 2.441 . S
Tb24 O36 2.506 . S
C25 O35 1.244 . S
C25 O36 1.265 . S
O26 Tb21 2.312 . S
O26 C33 1.253 . S
O27 Tb24 2.338 1_565 S
O27 C28 1.258 . S
C28 O27 1.258 . S
C28 O29 1.251 . S
O29 C28 1.251 . S
O30 Tb21 2.271 . S
O30 C22 1.252 . S
O31 C22 1.253 . S
O31 Tb24 2.312 . S
O32 Tb21 2.338 . S
O32 C37 1.258 . S
C33 O23 1.252 . S
C33 O26 1.253 . S
C34 O20 1.265 . S
C34 O39 1.244 . S
O35 Tb24 2.441 . S
O35 C25 1.244 . S
O36 Tb24 2.506 . S
O36 C25 1.265 . S
C37 O32 1.258 . S
C37 O38 1.251 . S
O38 C37 1.251 . S
O39 Tb21 2.441 . S
O39 C34 1.244 . S
O40 Tb41 2.506 . S
O40 C54 1.265 . S
Tb41 O40 2.506 . S
Tb41 O46 2.312 . S
Tb41 O50 2.271 . S
Tb41 O52 2.338 . S
Tb41 O59 2.441 . S
C42 O50 1.252 . S
C42 O51 1.253 . S
O43 Tb44 2.271 . S
O43 C53 1.252 . S
Tb44 O43 2.271 . S
Tb44 O47 2.338 . S
Tb44 O51 2.312 . S
Tb44 O55 2.441 . S
Tb44 O56 2.506 . S
C45 O55 1.244 . S
C45 O56 1.265 . S
O46 Tb41 2.312 . S
O46 C53 1.253 . S
O47 Tb44 2.338 . S
O47 C48 1.258 . S
C48 O47 1.258 . S
C48 O49 1.251 . S
O49 C48 1.251 . S
O50 Tb41 2.271 . S
O50 C42 1.252 . S
O51 C42 1.253 . S
O51 Tb44 2.312 . S
O52 Tb41 2.338 . S
O52 C57 1.258 . S
C53 O43 1.252 . S
C53 O46 1.253 . S
C54 O40 1.265 . S
C54 O59 1.244 . S
O55 Tb44 2.441 . S
O55 C45 1.244 . S
O56 Tb44 2.506 . S
O56 C45 1.265 . S
C57 O52 1.258 . S
C57 O58 1.251 . S
O58 C57 1.251 . S
O59 Tb41 2.441 . S
O59 C54 1.244 . S
O60 Tb61 2.506 . S
O60 C74 1.265 . S
Tb61 O60 2.506 . S
Tb61 O66 2.312 . S
Tb61 O70 2.271 . S
Tb61 O72 2.338 . S
Tb61 O79 2.441 . S
C62 O70 1.252 . S
C62 O71 1.253 . S
O63 Tb64 2.271 . S
O63 C73 1.252 . S
Tb64 O63 2.271 . S
Tb64 O67 2.338 . S
Tb64 O71 2.312 . S
Tb64 O75 2.441 . S
Tb64 O76 2.506 . S
C65 O75 1.244 . S
C65 O76 1.265 . S
O66 Tb61 2.312 . S
O66 C73 1.253 . S
O67 Tb64 2.338 . S
O67 C68 1.258 . S
C68 O67 1.258 . S
C68 O69 1.251 . S
O69 C68 1.251 . S
O70 Tb61 2.271 . S
O70 C62 1.252 . S
O71 C62 1.253 . S
O71 Tb64 2.312 . S
O72 Tb61 2.338 . S
O72 C77 1.258 . S
C73 O63 1.252 . S
C73 O66 1.253 . S
C74 O60 1.265 . S
C74 O79 1.244 . S
O75 Tb64 2.441 . S
O75 C65 1.244 . S
O76 Tb64 2.506 . S
O76 C65 1.265 . S
C77 O72 1.258 . S
C77 O78 1.251 . S
O78 C77 1.251 . S
O79 Tb61 2.441 . S
O79 C74 1.244 . S
O80 Tb81 2.506 . S
O80 C94 1.265 . S
Tb81 O80 2.506 . S
Tb81 O86 2.312 . S
Tb81 O90 2.271 . S
Tb81 O92 2.338 . S
Tb81 O99 2.441 . S
C82 O90 1.252 . S
C82 O91 1.253 . S
O83 Tb84 2.271 . S
O83 C93 1.252 . S
Tb84 O83 2.271 . S
Tb84 O87 2.338 1_455 S
Tb84 O91 2.312 . S
Tb84 O95 2.441 . S
Tb84 O96 2.506 . S
C85 O95 1.244 . S
C85 O96 1.265 . S
O86 Tb81 2.312 . S
O86 C93 1.253 . S
O87 Tb84 2.338 1_655 S
O87 C88 1.258 . S
C88 O87 1.258 . S
C88 O89 1.251 . S
O89 C88 1.251 . S
O90 Tb81 2.271 . S
O90 C82 1.252 . S
O91 C82 1.253 . S
O91 Tb84 2.312 . S
O92 Tb81 2.338 . S
O92 C97 1.258 . S
C93 O83 1.252 . S
C93 O86 1.253 . S
C94 O80 1.265 . S
C94 O99 1.244 . S
O95 Tb84 2.441 . S
O95 C85 1.244 . S
O96 Tb84 2.506 . S
O96 C85 1.265 . S
C97 O92 1.258 . S
C97 O98 1.251 . S
O98 C97 1.251 . S
O99 Tb81 2.441 . S
O99 C94 1.244 . S
O100 Tb101 2.506 . S
O100 C114 1.265 . S
Tb101 O100 2.506 . S
Tb101 O106 2.312 . S
Tb101 O110 2.271 . S
Tb101 O112 2.338 . S
Tb101 O119 2.441 . S
C102 O110 1.252 . S
C102 O111 1.253 . S
O103 Tb104 2.271 . S
O103 C113 1.252 . S
Tb104 O103 2.271 . S
Tb104 O107 2.338 1_545 S
Tb104 O111 2.312 . S
Tb104 O115 2.441 . S
Tb104 O116 2.506 . S
C105 O115 1.244 . S
C105 O116 1.265 . S
O106 Tb101 2.312 . S
O106 C113 1.253 . S
O107 Tb104 2.338 1_565 S
O107 C108 1.258 . S
C108 O107 1.258 . S
C108 O109 1.251 . S
O109 C108 1.251 . S
O110 Tb101 2.271 . S
O110 C102 1.252 . S
O111 C102 1.253 . S
O111 Tb104 2.312 . S
O112 Tb101 2.338 . S
O112 C117 1.258 . S
C113 O103 1.252 . S
C113 O106 1.253 . S
C114 O100 1.265 . S
C114 O119 1.244 . S
O115 Tb104 2.441 . S
O115 C105 1.244 . S
O116 Tb104 2.506 . S
O116 C105 1.265 . S
C117 O112 1.258 . S
C117 O118 1.251 . S
O118 C117 1.251 . S
O119 Tb101 2.441 . S
O119 C114 1.244 . S
O120 Tb121 2.506 . S
O120 C134 1.265 . S
Tb121 O120 2.506 . S
Tb121 O126 2.312 . S
Tb121 O130 2.271 . S
Tb121 O132 2.338 . S
Tb121 O139 2.441 . S
C122 O130 1.252 . S
C122 O131 1.253 . S
O123 Tb124 2.271 . S
O123 C133 1.252 . S
Tb124 O123 2.271 . S
Tb124 O127 2.338 . S
Tb124 O131 2.312 . S
Tb124 O135 2.441 . S
Tb124 O136 2.506 . S
C125 O135 1.244 . S
C125 O136 1.265 . S
O126 Tb121 2.312 . S
O126 C133 1.253 . S
O127 Tb124 2.338 . S
O127 C128 1.258 . S
C128 O127 1.258 . S
C128 O129 1.251 . S
O129 C128 1.251 . S
O130 Tb121 2.271 . S
O130 C122 1.252 . S
O131 C122 1.253 . S
O131 Tb124 2.312 . S
O132 Tb121 2.338 . S
O132 C137 1.258 . S
C133 O123 1.252 . S
C133 O126 1.253 . S
C134 O120 1.265 . S
C134 O139 1.244 . S
O135 Tb124 2.441 . S
O135 C125 1.244 . S
O136 Tb124 2.506 . S
O136 C125 1.265 . S
C137 O132 1.258 . S
C137 O138 1.251 . S
O138 C137 1.251 . S
O139 Tb121 2.441 . S
O139 C134 1.244 . S
O140 Tb141 2.506 . S
O140 C154 1.265 . S
Tb141 O140 2.506 . S
Tb141 O146 2.312 . S
Tb141 O150 2.271 . S
Tb141 O152 2.338 . S
Tb141 O159 2.441 . S
C142 O150 1.252 . S
C142 O151 1.253 . S
O143 Tb144 2.271 . S
O143 C153 1.252 . S
Tb144 O143 2.271 . S
Tb144 O147 2.338 . S
Tb144 O151 2.312 . S
Tb144 O155 2.441 . S
Tb144 O156 2.506 . S
C145 O155 1.244 . S
C145 O156 1.265 . S
O146 Tb141 2.312 . S
O146 C153 1.253 . S
O147 Tb144 2.338 . S
O147 C148 1.258 . S
C148 O147 1.258 . S
C148 O149 1.251 . S
O149 C148 1.251 . S
O150 Tb141 2.271 . S
O150 C142 1.252 . S
O151 C142 1.253 . S
O151 Tb144 2.312 . S
O152 Tb141 2.338 . S
O152 C157 1.258 . S
C153 O143 1.252 . S
C153 O146 1.253 . S
C154 O140 1.265 . S
C154 O159 1.244 . S
O155 Tb144 2.441 . S
O155 C145 1.244 . S
O156 Tb144 2.506 . S
O156 C145 1.265 . S
C157 O152 1.258 . S
C157 O158 1.251 . S
O158 C157 1.251 . S
O159 Tb141 2.441 . S
O159 C154 1.244 . S
O160 Tb161 2.506 . S
O160 C174 1.265 . S
Tb161 O160 2.506 . S
Tb161 O166 2.312 . S
Tb161 O170 2.271 . S
Tb161 O172 2.338 . S
Tb161 O179 2.441 . S
C162 O170 1.252 . S
C162 O171 1.253 . S
O163 Tb164 2.271 . S
O163 C173 1.252 . S
Tb164 O163 2.271 . S
Tb164 O167 2.338 1_655 S
Tb164 O171 2.312 . S
Tb164 O175 2.441 . S
Tb164 O176 2.506 . S
C165 O175 1.244 . S
C165 O176 1.265 . S
O166 Tb161 2.312 . S
O166 C173 1.253 . S
O167 Tb164 2.338 1_455 S
O167 C168 1.258 . S
C168 O167 1.258 . S
C168 O169 1.251 . S
O169 C168 1.251 . S
O170 Tb161 2.271 . S
O170 C162 1.252 . S
O171 C162 1.253 . S
O171 Tb164 2.312 . S
O172 Tb161 2.338 . S
O172 C177 1.258 . S
C173 O163 1.252 . S
C173 O166 1.253 . S
C174 O160 1.265 . S
C174 O179 1.244 . S
O175 Tb164 2.441 . S
O175 C165 1.244 . S
O176 Tb164 2.506 . S
O176 C165 1.265 . S
C177 O172 1.258 . S
C177 O178 1.251 . S
O178 C177 1.251 . S
O179 Tb161 2.441 . S
O179 C174 1.244 . S
O180 Tb181 2.506 . S
O180 C194 1.265 . S
Tb181 O180 2.506 . S
Tb181 O186 2.312 . S
Tb181 O190 2.271 . S
Tb181 O192 2.338 . S
Tb181 O199 2.441 . S
C182 O190 1.252 . S
C182 O191 1.253 . S
O183 Tb184 2.271 . S
O183 C193 1.252 . S
Tb184 O183 2.271 . S
Tb184 O187 2.338 1_565 S
Tb184 O191 2.312 . S
Tb184 O195 2.441 . S
Tb184 O196 2.506 . S
C185 O195 1.244 . S
C185 O196 1.265 . S
O186 Tb181 2.312 . S
O186 C193 1.253 . S
O187 Tb184 2.338 1_545 S
O187 C188 1.258 . S
C188 O187 1.258 . S
C188 O189 1.251 . S
O189 C188 1.251 . S
O190 Tb181 2.271 . S
O190 C182 1.252 . S
O191 C182 1.253 . S
O191 Tb184 2.312 . S
O192 Tb181 2.338 . S
O192 C197 1.258 . S
C193 O183 1.252 . S
C193 O186 1.253 . S
C194 O180 1.265 . S
C194 O199 1.244 . S
O195 Tb184 2.441 . S
O195 C185 1.244 . S
O196 Tb184 2.506 . S
O196 C185 1.265 . S
C197 O192 1.258 . S
C197 O198 1.251 . S
O198 C197 1.251 . S
O199 Tb181 2.441 . S
O199 C194 1.244 . S
O200 Tb201 2.506 . S
O200 C214 1.265 . S
Tb201 O200 2.506 . S
Tb201 O206 2.312 . S
Tb201 O210 2.271 . S
Tb201 O212 2.338 . S
Tb201 O219 2.441 . S
C202 O210 1.252 . S
C202 O211 1.253 . S
O203 Tb204 2.271 . S
O203 C213 1.252 . S
Tb204 O203 2.271 . S
Tb204 O207 2.338 . S
Tb204 O211 2.312 . S
Tb204 O215 2.441 . S
Tb204 O216 2.506 . S
C205 O215 1.244 . S
C205 O216 1.265 . S
O206 Tb201 2.312 . S
O206 C213 1.253 . S
O207 Tb204 2.338 . S
O207 C208 1.258 . S
C208 O207 1.258 . S
C208 O209 1.251 . S
O209 C208 1.251 . S
O210 Tb201 2.271 . S
O210 C202 1.252 . S
O211 C202 1.253 . S
O211 Tb204 2.312 . S
O212 Tb201 2.338 . S
O212 C217 1.258 . S
C213 O203 1.252 . S
C213 O206 1.253 . S
C214 O200 1.265 . S
C214 O219 1.244 . S
O215 Tb204 2.441 . S
O215 C205 1.244 . S
O216 Tb204 2.506 . S
O216 C205 1.265 . S
C217 O212 1.258 . S
C217 O218 1.251 . S
O218 C217 1.251 . S
O219 Tb201 2.441 . S
O219 C214 1.244 . S
O220 Tb221 2.506 . S
O220 C234 1.265 . S
Tb221 O220 2.506 . S
Tb221 O226 2.312 . S
Tb221 O230 2.271 . S
Tb221 O232 2.338 . S
Tb221 O239 2.441 . S
C222 O230 1.252 . S
C222 O231 1.253 . S
O223 Tb224 2.271 . S
O223 C233 1.252 . S
Tb224 O223 2.271 . S
Tb224 O227 2.338 . S
Tb224 O231 2.312 . S
Tb224 O235 2.441 . S
Tb224 O236 2.506 . S
C225 O235 1.244 . S
C225 O236 1.265 . S
O226 Tb221 2.312 . S
O226 C233 1.253 . S
O227 Tb224 2.338 . S
O227 C228 1.258 . S
C228 O227 1.258 . S
C228 O229 1.251 . S
O229 C228 1.251 . S
O230 Tb221 2.271 . S
O230 C222 1.252 . S
O231 C222 1.253 . S
O231 Tb224 2.312 . S
O232 Tb221 2.338 . S
O232 C237 1.258 . S
C233 O223 1.252 . S
C233 O226 1.253 . S
C234 O220 1.265 . S
C234 O239 1.244 . S
O235 Tb224 2.441 . S
O235 C225 1.244 . S
O236 Tb224 2.506 . S
O236 C225 1.265 . S
C237 O232 1.258 . S
C237 O238 1.251 . S
O238 C237 1.251 . S
O239 Tb221 2.441 . S
O239 C234 1.244 . S
O240 Tb241 2.506 . S
O240 C254 1.265 . S
Tb241 O240 2.506 . S
Tb241 O246 2.312 . S
Tb241 O250 2.271 . S
Tb241 O252 2.338 . S
Tb241 O259 2.441 . S
C242 O250 1.252 . S
C242 O251 1.253 . S
O243 Tb244 2.271 . S
O243 C253 1.252 . S
Tb244 O243 2.271 . S
Tb244 O247 2.338 1_655 S
Tb244 O251 2.312 . S
Tb244 O255 2.441 . S
Tb244 O256 2.506 . S
C245 O255 1.244 . S
C245 O256 1.265 . S
O246 Tb241 2.312 . S
O246 C253 1.253 . S
O247 Tb244 2.338 1_455 S
O247 C248 1.258 . S
C248 O247 1.258 . S
C248 O249 1.251 . S
O249 C248 1.251 . S
O250 Tb241 2.271 . S
O250 C242 1.252 . S
O251 C242 1.253 . S
O251 Tb244 2.312 . S
O252 Tb241 2.338 . S
O252 C257 1.258 . S
C253 O243 1.252 . S
C253 O246 1.253 . S
C254 O240 1.265 . S
C254 O259 1.244 . S
O255 Tb244 2.441 . S
O255 C245 1.244 . S
O256 Tb244 2.506 . S
O256 C245 1.265 . S
C257 O252 1.258 . S
C257 O258 1.251 . S
O258 C257 1.251 . S
O259 Tb241 2.441 . S
O259 C254 1.244 . S
O260 Tb261 2.506 . S
O260 C274 1.265 . S
Tb261 O260 2.506 . S
Tb261 O266 2.312 . S
Tb261 O270 2.271 . S
Tb261 O272 2.338 . S
Tb261 O279 2.441 . S
C262 O270 1.252 . S
C262 O271 1.253 . S
O263 Tb264 2.271 . S
O263 C273 1.252 . S
Tb264 O263 2.271 . S
Tb264 O267 2.338 1_565 S
Tb264 O271 2.312 . S
Tb264 O275 2.441 . S
Tb264 O276 2.506 . S
C265 O275 1.244 . S
C265 O276 1.265 . S
O266 Tb261 2.312 . S
O266 C273 1.253 . S
O267 Tb264 2.338 1_545 S
O267 C268 1.258 . S
C268 O267 1.258 . S
C268 O269 1.251 . S
O269 C268 1.251 . S
O270 Tb261 2.271 . S
O270 C262 1.252 . S
O271 C262 1.253 . S
O271 Tb264 2.312 . S
O272 Tb261 2.338 . S
O272 C277 1.258 . S
C273 O263 1.252 . S
C273 O266 1.253 . S
C274 O260 1.265 . S
C274 O279 1.244 . S
O275 Tb264 2.441 . S
O275 C265 1.244 . S
O276 Tb264 2.506 . S
O276 C265 1.265 . S
C277 O272 1.258 . S
C277 O278 1.251 . S
O278 C277 1.251 . S
O279 Tb261 2.441 . S
O279 C274 1.244 . S
O280 Tb281 2.506 . S
O280 C294 1.265 . S
Tb281 O280 2.506 . S
Tb281 O286 2.312 . S
Tb281 O290 2.271 . S
Tb281 O292 2.338 . S
Tb281 O299 2.441 . S
C282 O290 1.252 . S
C282 O291 1.253 . S
O283 Tb284 2.271 . S
O283 C293 1.252 . S
Tb284 O283 2.271 . S
Tb284 O287 2.338 . S
Tb284 O291 2.312 . S
Tb284 O295 2.441 . S
Tb284 O296 2.506 . S
C285 O295 1.244 . S
C285 O296 1.265 . S
O286 Tb281 2.312 . S
O286 C293 1.253 . S
O287 Tb284 2.338 . S
O287 C288 1.258 . S
C288 O287 1.258 . S
C288 O289 1.251 . S
O289 C288 1.251 . S
O290 Tb281 2.271 . S
O290 C282 1.252 . S
O291 C282 1.253 . S
O291 Tb284 2.312 . S
O292 Tb281 2.338 . S
O292 C297 1.258 . S
C293 O283 1.252 . S
C293 O286 1.253 . S
C294 O280 1.265 . S
C294 O299 1.244 . S
O295 Tb284 2.441 . S
O295 C285 1.244 . S
O296 Tb284 2.506 . S
O296 C285 1.265 . S
C297 O292 1.258 . S
C297 O298 1.251 . S
O298 C297 1.251 . S
O299 Tb281 2.441 . S
O299 C294 1.244 . S
O300 Tb301 2.506 . S
O300 C314 1.265 . S
Tb301 O300 2.506 . S
Tb301 O306 2.312 . S
Tb301 O310 2.271 . S
Tb301 O312 2.338 . S
Tb301 O319 2.441 . S
C302 O310 1.252 . S
C302 O311 1.253 . S
O303 Tb304 2.271 . S
O303 C313 1.252 . S
Tb304 O303 2.271 . S
Tb304 O307 2.338 . S
Tb304 O311 2.312 . S
Tb304 O315 2.441 . S
Tb304 O316 2.506 . S
C305 O315 1.244 . S
C305 O316 1.265 . S
O306 Tb301 2.312 . S
O306 C313 1.253 . S
O307 Tb304 2.338 . S
O307 C308 1.258 . S
C308 O307 1.258 . S
C308 O309 1.251 . S
O309 C308 1.251 . S
O310 Tb301 2.271 . S
O310 C302 1.252 . S
O311 C302 1.253 . S
O311 Tb304 2.312 . S
O312 Tb301 2.338 . S
O312 C317 1.258 . S
C313 O303 1.252 . S
C313 O306 1.253 . S
C314 O300 1.265 . S
C314 O319 1.244 . S
O315 Tb304 2.441 . S
O315 C305 1.244 . S
O316 Tb304 2.506 . S
O316 C305 1.265 . S
C317 O312 1.258 . S
C317 O318 1.251 . S
O318 C317 1.251 . S
O319 Tb301 2.441 . S
O319 C314 1.244 . S
H320 C332 0.930 . S
H321 C334 0.930 . S
H322 C335 0.930 1_556 S
H323 C339 0.959 . S
H324 C339 0.959 . S
H325 C339 0.961 . S
H326 C340 0.960 . S
H327 C340 0.961 . S
H328 C340 0.959 . S
H329 C343 0.917 1_556 S
H330 C344 0.931 . S
H331 C346 0.930 . S
C332 H320 0.930 . S
C332 C333 1.399 . S
C332 C337 1.399 . S
C333 C332 1.399 . S
C333 C334 1.376 . S
C334 H321 0.930 . S
C334 C333 1.376 . S
C334 C335 1.388 . S
C335 H322 0.930 1_554 S
C335 C334 1.388 . S
C335 C336 1.390 . S
C336 C335 1.390 . S
C336 C337 1.394 . S
C336 C342 1.465 . S
C337 C332 1.399 . S
C337 C336 1.394 . S
C337 C338 1.516 . S
C338 C337 1.516 . S
C338 C339 1.502 . S
C338 C340 1.561 . S
C338 C341 1.526 . S
C339 H323 0.959 . S
C339 H324 0.959 . S
C339 H325 0.961 . S
C339 C338 1.502 . S
C340 H326 0.960 . S
C340 H327 0.961 . S
C340 H328 0.959 . S
C340 C338 1.561 . S
C341 C338 1.526 . S
C341 C342 1.396 . S
C341 C346 1.390 . S
C342 C336 1.465 . S
C342 C341 1.396 . S
C342 C343 1.399 . S
C343 H329 0.917 1_554 S
C343 C342 1.399 . S
C343 C344 1.385 . S
C344 H330 0.931 . S
C344 C343 1.385 . S
C344 C345 1.389 . S
C345 C344 1.389 . S
C345 C346 1.387 . S
C346 H331 0.930 . S
C346 C341 1.390 . S
C346 C345 1.387 . S
H347 C359 0.930 . S
H348 C361 0.930 1_556 S
H349 C362 0.930 1_556 S
H350 C366 0.959 . S
H351 C366 0.959 . S
H352 C366 0.961 . S
H353 C367 0.960 . S
H354 C367 0.961 . S
H355 C367 0.959 . S
H356 C370 0.932 1_556 S
H357 C371 0.931 . S
H358 C373 0.930 . S
C359 H347 0.930 . S
C359 C360 1.399 . S
C359 C364 1.399 . S
C360 C359 1.399 . S
C360 C361 1.376 . S
C361 H348 0.930 1_554 S
C361 C360 1.376 . S
C361 C362 1.388 . S
C362 H349 0.930 1_554 S
C362 C361 1.388 . S
C362 C363 1.390 . S
C363 C362 1.390 . S
C363 C364 1.394 . S
C363 C369 1.465 . S
C364 C359 1.399 . S
C364 C363 1.394 . S
C364 C365 1.516 . S
C365 C364 1.516 . S
C365 C366 1.502 1_455 S
C365 C367 1.561 . S
C365 C368 1.526 1_455 S
C366 H350 0.959 . S
C366 H351 0.959 . S
C366 H352 0.961 . S
C366 C365 1.502 1_655 S
C367 H353 0.960 . S
C367 H354 0.961 . S
C367 H355 0.959 . S
C367 C365 1.561 . S
C368 C365 1.526 1_655 S
C368 C369 1.396 1_655 S
C368 C373 1.390 . S
C369 C363 1.465 . S
C369 C368 1.396 1_455 S
C369 C370 1.400 . S
C370 H356 0.932 1_554 S
C370 C369 1.400 . S
C370 C371 1.382 1_455 S
C371 H357 0.931 . S
C371 C370 1.382 1_655 S
C371 C372 1.389 . S
C372 C371 1.389 . S
C372 C373 1.387 . S
C373 H358 0.930 . S
C373 C368 1.390 . S
C373 C372 1.387 . S
H374 C386 0.930 . S
H375 C388 0.930 1_545 S
H376 C389 0.930 . S
H377 C393 0.959 . S
H378 C393 0.959 . S
H379 C393 0.961 . S
H380 C394 0.960 . S
H381 C394 0.961 . S
H382 C394 0.959 1_545 S
H383 C397 0.929 . S
H384 C398 0.931 . S
H385 C400 0.930 . S
C386 H374 0.930 . S
C386 C387 1.399 . S
C386 C391 1.399 . S
C387 C386 1.399 . S
C387 C388 1.376 . S
C388 H375 0.930 1_565 S
C388 C387 1.376 . S
C388 C389 1.388 1_565 S
C389 H376 0.930 . S
C389 C388 1.388 1_545 S
C389 C390 1.390 . S
C390 C389 1.390 . S
C390 C391 1.394 1_545 S
C390 C396 1.465 . S
C391 C386 1.399 . S
C391 C390 1.394 1_565 S
C391 C392 1.516 . S
C392 C391 1.516 . S
C392 C393 1.502 . S
C392 C394 1.561 1_554 S
C392 C395 1.526 1_565 S
C393 H377 0.959 . S
C393 H378 0.959 . S
C393 H379 0.961 . S
C393 C392 1.502 . S
C394 H380 0.960 . S
C394 H381 0.961 . S
C394 H382 0.959 1_565 S
C394 C392 1.561 1_556 S
C395 C392 1.526 1_545 S
C395 C396 1.396 . S
C395 C400 1.390 . S
C396 C390 1.465 . S
C396 C395 1.396 . S
C396 C397 1.399 . S
C397 H383 0.929 . S
C397 C396 1.399 . S
C397 C398 1.385 . S
C398 H384 0.931 . S
C398 C397 1.385 . S
C398 C399 1.389 . S
C399 C398 1.389 . S
C399 C400 1.387 . S
C400 H385 0.930 . S
C400 C395 1.390 . S
C400 C399 1.387 . S
H401 C413 0.930 . S
H402 C415 0.930 1_556 S
H403 C416 0.930 1_556 S
H404 C420 0.959 . S
H405 C420 0.959 . S
H406 C420 0.961 . S
H407 C421 0.960 . S
H408 C421 0.961 . S
H409 C421 0.959 . S
H410 C424 0.929 1_556 S
H411 C425 0.931 . S
H412 C427 0.930 . S
C413 H401 0.930 . S
C413 C414 1.399 . S
C413 C418 1.399 . S
C414 C413 1.399 . S
C414 C415 1.376 . S
C415 H402 0.930 1_554 S
C415 C414 1.376 . S
C415 C416 1.388 . S
C416 H403 0.930 1_554 S
C416 C415 1.388 . S
C416 C417 1.390 . S
C417 C416 1.390 . S
C417 C418 1.394 . S
C417 C423 1.465 . S
C418 C413 1.399 . S
C418 C417 1.394 . S
C418 C419 1.516 . S
C419 C418 1.516 . S
C419 C420 1.502 . S
C419 C421 1.561 . S
C419 C422 1.526 . S
C420 H404 0.959 . S
C420 H405 0.959 . S
C420 H406 0.961 . S
C420 C419 1.502 . S
C421 H407 0.960 . S
C421 H408 0.961 . S
C421 H409 0.959 . S
C421 C419 1.561 . S
C422 C419 1.526 . S
C422 C423 1.396 . S
C422 C427 1.390 . S
C423 C417 1.465 . S
C423 C422 1.396 . S
C423 C424 1.399 . S
C424 H410 0.929 1_554 S
C424 C423 1.399 . S
C424 C425 1.385 . S
C425 H411 0.931 . S
C425 C424 1.385 . S
C425 C426 1.389 . S
C426 C425 1.389 . S
C426 C427 1.387 . S
C427 H412 0.930 . S
C427 C422 1.390 . S
C427 C426 1.387 . S
H428 C440 0.930 . S
H429 C442 0.930 . S
H430 C443 0.930 1_545 S
H431 C447 0.959 . S
H432 C447 0.959 . S
H433 C447 0.961 . S
H434 C448 0.960 . S
H435 C448 0.961 . S
H436 C448 0.959 . S
H437 C451 0.929 . S
H438 C452 0.931 . S
H439 C454 0.930 . S
C440 H428 0.930 . S
C440 C441 1.399 . S
C440 C445 1.399 . S
C441 C440 1.399 . S
C441 C442 1.376 . S
C442 H429 0.930 . S
C442 C441 1.376 . S
C442 C443 1.388 . S
C443 H430 0.930 1_565 S
C443 C442 1.388 . S
C443 C444 1.384 1_565 S
C444 C443 1.384 1_545 S
C444 C445 1.384 1_545 S
C444 C450 1.481 . S
C445 C440 1.399 . S
C445 C444 1.384 1_565 S
C445 C446 1.516 . S
C446 C445 1.516 . S
C446 C447 1.502 1_565 S
C446 C448 1.561 . S
C446 C449 1.526 1_565 S
C447 H431 0.959 . S
C447 H432 0.959 . S
C447 H433 0.961 . S
C447 C446 1.502 1_545 S
C448 H434 0.960 . S
C448 H435 0.961 . S
C448 H436 0.959 . S
C448 C446 1.561 . S
C449 C446 1.526 1_545 S
C449 C450 1.396 . S
C449 C454 1.390 . S
C450 C444 1.481 . S
C450 C449 1.396 . S
C450 C451 1.399 . S
C451 H437 0.929 . S
C451 C450 1.399 . S
C451 C452 1.385 . S
C452 H438 0.931 . S
C452 C451 1.385 . S
C452 C453 1.389 . S
C453 C452 1.389 . S
C453 C454 1.387 . S
C454 H439 0.930 . S
C454 C449 1.390 . S
C454 C453 1.387 . S
H455 C467 0.930 . S
H456 C469 0.930 . S
H457 C470 0.930 . S
H458 C474 0.959 . S
H459 C474 0.959 . S
H460 C474 0.961 . S
H461 C475 0.960 . S
H462 C475 0.961 . S
H463 C475 0.959 . S
H464 C478 0.929 . S
H465 C479 0.931 . S
H466 C481 0.930 . S
C467 H455 0.930 . S
C467 C468 1.399 . S
C467 C472 1.399 . S
C468 C467 1.399 . S
C468 C469 1.376 . S
C469 H456 0.930 . S
C469 C468 1.376 . S
C469 C470 1.388 . S
C470 H457 0.930 . S
C470 C469 1.388 . S
C470 C471 1.390 . S
C471 C470 1.390 . S
C471 C472 1.394 . S
C471 C477 1.465 . S
C472 C467 1.399 . S
C472 C471 1.394 . S
C472 C473 1.516 . S
C473 C472 1.516 . S
C473 C474 1.502 . S
C473 C475 1.561 . S
C473 C476 1.526 . S
C474 H458 0.959 . S
C474 H459 0.959 . S
C474 H460 0.961 . S
C474 C473 1.502 . S
C475 H461 0.960 . S
C475 H462 0.961 . S
C475 H463 0.959 . S
C475 C473 1.561 . S
C476 C473 1.526 . S
C476 C477 1.396 . S
C476 C481 1.390 . S
C477 C471 1.465 . S
C477 C476 1.396 . S
C477 C478 1.399 . S
C478 H464 0.929 . S
C478 C477 1.399 . S
C478 C479 1.385 . S
C479 H465 0.931 . S
C479 C478 1.385 . S
C479 C480 1.389 . S
C480 C479 1.389 . S
C480 C481 1.387 . S
C481 H466 0.930 . S
C481 C476 1.390 . S
C481 C480 1.387 . S
H482 C494 0.930 . S
H483 C496 0.930 . S
H484 C497 0.930 . S
H485 C501 0.959 . S
H486 C501 0.959 . S
H487 C501 0.961 . S
H488 C502 0.960 . S
H489 C502 0.961 . S
H490 C502 0.959 . S
H491 C505 0.929 . S
H492 C506 0.931 . S
H493 C508 0.930 . S
C494 H482 0.930 . S
C494 C495 1.399 . S
C494 C499 1.399 . S
C495 C494 1.399 . S
C495 C496 1.376 . S
C496 H483 0.930 . S
C496 C495 1.376 . S
C496 C497 1.388 . S
C497 H484 0.930 . S
C497 C496 1.388 . S
C497 C498 1.390 . S
C498 C497 1.390 . S
C498 C499 1.394 . S
C498 C504 1.465 . S
C499 C494 1.399 . S
C499 C498 1.394 . S
C499 C500 1.516 . S
C500 C499 1.516 . S
C500 C501 1.502 . S
C500 C502 1.561 . S
C500 C503 1.526 . S
C501 H485 0.959 . S
C501 H486 0.959 . S
C501 H487 0.961 . S
C501 C500 1.502 . S
C502 H488 0.960 . S
C502 H489 0.961 . S
C502 H490 0.959 . S
C502 C500 1.561 . S
C503 C500 1.526 . S
C503 C504 1.396 . S
C503 C508 1.390 . S
C504 C498 1.465 . S
C504 C503 1.396 . S
C504 C505 1.399 . S
C505 H491 0.929 . S
C505 C504 1.399 . S
C505 C506 1.385 . S
C506 H492 0.931 . S
C506 C505 1.385 . S
C506 C507 1.389 . S
C507 C506 1.389 . S
C507 C508 1.387 . S
C508 H493 0.930 . S
C508 C503 1.390 . S
C508 C507 1.387 . S
H509 C521 0.930 . S
H510 C523 0.930 . S
H511 C524 0.930 . S
H512 C528 0.959 . S
H513 C528 0.959 . S
H514 C528 0.961 . S
H515 C529 0.960 . S
H516 C529 0.961 . S
H517 C529 0.959 . S
H518 C532 0.929 . S
H519 C533 0.931 . S
H520 C535 0.930 . S
C521 H509 0.930 . S
C521 C522 1.399 . S
C521 C526 1.399 . S
C522 C521 1.399 . S
C522 C523 1.376 . S
C523 H510 0.930 . S
C523 C522 1.376 . S
C523 C524 1.388 . S
C524 H511 0.930 . S
C524 C523 1.388 . S
C524 C525 1.390 . S
C525 C524 1.390 . S
C525 C526 1.394 . S
C525 C531 1.465 . S
C526 C521 1.399 . S
C526 C525 1.394 . S
C526 C527 1.516 . S
C527 C526 1.516 . S
C527 C528 1.502 1_455 S
C527 C529 1.561 . S
C527 C530 1.526 1_455 S
C528 H512 0.959 . S
C528 H513 0.959 . S
C528 H514 0.961 . S
C528 C527 1.502 1_655 S
C529 H515 0.960 . S
C529 H516 0.961 . S
C529 H517 0.959 . S
C529 C527 1.561 . S
C530 C527 1.526 1_655 S
C530 C531 1.396 1_655 S
C530 C535 1.390 . S
C531 C525 1.465 . S
C531 C530 1.396 1_455 S
C531 C532 1.399 . S
C532 H518 0.929 . S
C532 C531 1.399 . S
C532 C533 1.385 1_455 S
C533 H519 0.931 . S
C533 C532 1.385 1_655 S
C533 C534 1.389 . S
C534 C533 1.389 . S
C534 C535 1.387 . S
C535 H520 0.930 . S
C535 C530 1.390 . S
C535 C534 1.387 . S
H536 C548 0.930 . S
H537 C550 0.930 . S
H538 C551 0.930 . S
H539 C555 0.959 . S
H540 C555 0.959 . S
H541 C555 0.961 . S
H542 C556 0.960 . S
H543 C556 0.961 . S
H544 C556 0.959 . S
H545 C559 0.929 1_554 S
H546 C560 0.931 . S
H547 C562 0.930 . S
C548 H536 0.930 . S
C548 C549 1.399 . S
C548 C553 1.399 . S
C549 C548 1.399 . S
C549 C550 1.376 . S
C550 H537 0.930 . S
C550 C549 1.376 . S
C550 C551 1.388 . S
C551 H538 0.930 . S
C551 C550 1.388 . S
C551 C552 1.390 . S
C552 C551 1.390 . S
C552 C553 1.394 . S
C552 C558 1.465 . S
C553 C548 1.399 . S
C553 C552 1.394 . S
C553 C554 1.516 . S
C554 C553 1.516 . S
C554 C555 1.502 . S
C554 C556 1.561 . S
C554 C557 1.526 . S
C555 H539 0.959 . S
C555 H540 0.959 . S
C555 H541 0.961 . S
C555 C554 1.502 . S
C556 H542 0.960 . S
C556 H543 0.961 . S
C556 H544 0.959 . S
C556 C554 1.561 . S
C557 C554 1.526 . S
C557 C558 1.396 . S
C557 C562 1.390 . S
C558 C552 1.465 . S
C558 C557 1.396 . S
C558 C559 1.399 . S
C559 H545 0.929 1_556 S
C559 C558 1.399 . S
C559 C560 1.385 . S
C560 H546 0.931 . S
C560 C559 1.385 . S
C560 C561 1.389 . S
C561 C560 1.389 . S
C561 C562 1.387 . S
C562 H547 0.930 . S
C562 C557 1.390 . S
C562 C561 1.387 . S
H563 C575 0.930 . S
H564 C577 0.930 . S
H565 C578 0.930 . S
H566 C582 0.959 1_556 S
H567 C582 0.959 . S
H568 C582 0.961 . S
H569 C583 0.960 . S
H570 C583 0.961 . S
H571 C583 0.952 1_556 S
H572 C586 0.929 . S
H573 C587 0.931 . S
H574 C589 0.930 . S
C575 H563 0.930 . S
C575 C576 1.399 . S
C575 C580 1.399 . S
C576 C575 1.399 . S
C576 C577 1.376 . S
C577 H564 0.930 . S
C577 C576 1.376 . S
C577 C578 1.388 . S
C578 H565 0.930 . S
C578 C577 1.388 . S
C578 C579 1.390 . S
C579 C578 1.390 . S
C579 C580 1.394 . S
C579 C585 1.465 . S
C580 C575 1.399 . S
C580 C579 1.394 . S
C580 C581 1.516 . S
C581 C580 1.516 . S
C581 C582 1.502 1_656 S
C581 C583 1.561 1_556 S
C581 C584 1.526 1_655 S
C582 H566 0.959 1_554 S
C582 H567 0.959 . S
C582 H568 0.961 . S
C582 C581 1.502 1_454 S
C583 H569 0.960 . S
C583 H570 0.961 . S
C583 H571 0.952 1_554 S
C583 C581 1.561 1_554 S
C584 C581 1.526 1_455 S
C584 C585 1.396 1_455 S
C584 C589 1.390 . S
C585 C579 1.465 . S
C585 C584 1.396 1_655 S
C585 C586 1.399 . S
C586 H572 0.929 . S
C586 C585 1.399 . S
C586 C587 1.385 1_655 S
C587 H573 0.931 . S
C587 C586 1.385 1_455 S
C587 C588 1.389 . S
C588 C587 1.389 . S
C588 C589 1.387 . S
C589 H574 0.930 . S
C589 C584 1.390 . S
C589 C588 1.387 . S
H590 C602 0.930 . S
H591 C604 0.930 1_554 S
H592 C605 0.930 1_554 S
H593 C609 0.959 . S
H594 C609 0.959 . S
H595 C609 0.961 . S
H596 C610 0.960 1_565 S
H597 C610 0.961 . S
H598 C610 0.959 . S
H599 C613 0.929 1_554 S
H600 C614 0.931 . S
H601 C616 0.930 . S
C602 H590 0.930 . S
C602 C603 1.399 . S
C602 C607 1.399 . S
C603 C602 1.399 . S
C603 C604 1.376 . S
C604 H591 0.930 1_556 S
C604 C603 1.376 . S
C604 C605 1.388 . S
C605 H592 0.930 1_556 S
C605 C604 1.388 . S
C605 C606 1.390 . S
C606 C605 1.390 . S
C606 C607 1.394 . S
C606 C612 1.465 1_565 S
C607 C602 1.399 . S
C607 C606 1.394 . S
C607 C608 1.516 . S
C608 C607 1.516 . S
C608 C609 1.502 . S
C608 C610 1.561 1_565 S
C608 C611 1.526 1_565 S
C609 H593 0.959 . S
C609 H594 0.959 . S
C609 H595 0.961 . S
C609 C608 1.502 . S
C610 H596 0.960 1_545 S
C610 H597 0.961 . S
C610 H598 0.959 . S
C610 C608 1.561 1_545 S
C611 C608 1.526 1_545 S
C611 C612 1.396 . S
C611 C616 1.390 . S
C612 C606 1.465 1_545 S
C612 C611 1.396 . S
C612 C613 1.399 . S
C613 H599 0.929 1_556 S
C613 C612 1.399 . S
C613 C614 1.385 . S
C614 H600 0.931 . S
C614 C613 1.385 . S
C614 C615 1.389 . S
C615 C614 1.389 . S
C615 C616 1.387 . S
C616 H601 0.930 . S
C616 C611 1.390 . S
C616 C615 1.387 . S
H617 C629 0.930 . S
H618 C631 0.930 . S
H619 C632 0.930 . S
H620 C636 0.959 1_556 S
H621 C636 0.959 . S
H622 C636 0.961 . S
H623 C637 0.960 . S
H624 C637 0.961 . S
H625 C637 0.952 1_556 S
H626 C640 0.929 . S
H627 C641 0.931 . S
H628 C643 0.930 . S
C629 H617 0.930 . S
C629 C630 1.399 . S
C629 C634 1.399 . S
C630 C629 1.399 . S
C630 C631 1.376 . S
C631 H618 0.930 . S
C631 C630 1.376 . S
C631 C632 1.388 . S
C632 H619 0.930 . S
C632 C631 1.388 . S
C632 C633 1.390 . S
C633 C632 1.390 . S
C633 C634 1.394 . S
C633 C639 1.465 . S
C634 C629 1.399 . S
C634 C633 1.394 . S
C634 C635 1.516 . S
C635 C634 1.516 . S
C635 C636 1.502 1_556 S
C635 C637 1.561 1_556 S
C635 C638 1.526 . S
C636 H620 0.959 1_554 S
C636 H621 0.959 . S
C636 H622 0.961 . S
C636 C635 1.502 1_554 S
C637 H623 0.960 . S
C637 H624 0.961 . S
C637 H625 0.952 1_554 S
C637 C635 1.561 1_554 S
C638 C635 1.526 . S
C638 C639 1.396 . S
C638 C643 1.390 . S
C639 C633 1.465 . S
C639 C638 1.396 . S
C639 C640 1.399 . S
C640 H626 0.929 . S
C640 C639 1.399 . S
C640 C641 1.385 . S
C641 H627 0.931 . S
C641 C640 1.385 . S
C641 C642 1.389 . S
C642 C641 1.389 . S
C642 C643 1.387 . S
C643 H628 0.930 . S
C643 C638 1.390 . S
C643 C642 1.387 . S
H644 C656 0.930 . S
H645 C658 0.930 . S
H646 C659 0.930 1_565 S
H647 C663 0.959 . S
H648 C663 0.959 . S
H649 C663 0.961 . S
H650 C664 0.960 . S
H651 C664 0.961 . S
H652 C664 0.959 . S
H653 C667 0.929 . S
H654 C668 0.931 . S
H655 C670 0.930 . S
C656 H644 0.930 . S
C656 C657 1.399 . S
C656 C661 1.399 . S
C657 C656 1.399 . S
C657 C658 1.376 . S
C658 H645 0.930 . S
C658 C657 1.376 . S
C658 C659 1.388 . S
C659 H646 0.930 1_545 S
C659 C658 1.388 . S
C659 C660 1.390 1_545 S
C660 C659 1.390 1_565 S
C660 C661 1.394 1_565 S
C660 C666 1.465 . S
C661 C656 1.399 . S
C661 C660 1.394 1_545 S
C661 C662 1.516 1_545 S
C662 C661 1.516 1_565 S
C662 C663 1.502 1_565 S
C662 C664 1.561 . S
C662 C665 1.526 . S
C663 H647 0.959 . S
C663 H648 0.959 . S
C663 H649 0.961 . S
C663 C662 1.502 1_545 S
C664 H650 0.960 . S
C664 H651 0.961 . S
C664 H652 0.959 . S
C664 C662 1.561 . S
C665 C662 1.526 . S
C665 C666 1.396 . S
C665 C670 1.390 . S
C666 C660 1.465 . S
C666 C665 1.396 . S
C666 C667 1.399 . S
C667 H653 0.929 . S
C667 C666 1.399 . S
C667 C668 1.385 . S
C668 H654 0.931 . S
C668 C667 1.385 . S
C668 C669 1.389 . S
C669 C668 1.389 . S
C669 C670 1.387 . S
C670 H655 0.930 . S
C670 C665 1.390 . S
C670 C669 1.387 . S
H671 C683 0.930 . S
H672 C685 0.930 . S
H673 C686 0.930 . S
H674 C690 0.959 . S
H675 C690 0.959 . S
H676 C690 0.961 . S
H677 C691 0.960 . S
H678 C691 0.961 . S
H679 C691 0.959 . S
H680 C694 0.929 . S
H681 C695 0.931 . S
H682 C697 0.930 . S
C683 H671 0.930 . S
C683 C684 1.399 . S
C683 C688 1.399 . S
C684 C683 1.399 . S
C684 C685 1.376 . S
C685 H672 0.930 . S
C685 C684 1.376 . S
C685 C686 1.388 . S
C686 H673 0.930 . S
C686 C685 1.388 . S
C686 C687 1.390 . S
C687 C686 1.390 . S
C687 C688 1.394 . S
C687 C693 1.465 . S
C688 C683 1.399 . S
C688 C687 1.394 . S
C688 C689 1.516 . S
C689 C688 1.516 . S
C689 C690 1.502 . S
C689 C691 1.561 . S
C689 C692 1.526 . S
C690 H674 0.959 . S
C690 H675 0.959 . S
C690 H676 0.961 . S
C690 C689 1.502 . S
C691 H677 0.960 . S
C691 H678 0.961 . S
C691 H679 0.959 . S
C691 C689 1.561 . S
C692 C689 1.526 . S
C692 C693 1.396 . S
C692 C697 1.390 . S
C693 C687 1.465 . S
C693 C692 1.396 . S
C693 C694 1.399 . S
C694 H680 0.929 . S
C694 C693 1.399 . S
C694 C695 1.385 . S
C695 H681 0.931 . S
C695 C694 1.385 . S
C695 C696 1.389 . S
C696 C695 1.389 . S
C696 C697 1.387 . S
C697 H682 0.930 . S
C697 C692 1.390 . S
C697 C696 1.387 . S
H698 C710 0.930 . S
H699 C712 0.930 . S
H700 C713 0.930 . S
H701 C717 0.959 . S
H702 C717 0.959 . S
H703 C717 0.961 . S
H704 C718 0.960 . S
H705 C718 0.961 . S
H706 C718 0.959 . S
H707 C721 0.929 . S
H708 C722 0.931 . S
H709 C724 0.930 . S
C710 H698 0.930 . S
C710 C711 1.399 . S
C710 C715 1.399 . S
C711 C710 1.399 . S
C711 C712 1.376 . S
C712 H699 0.930 . S
C712 C711 1.376 . S
C712 C713 1.388 . S
C713 H700 0.930 . S
C713 C712 1.388 . S
C713 C714 1.390 . S
C714 C713 1.390 . S
C714 C715 1.394 . S
C714 C720 1.465 . S
C715 C710 1.399 . S
C715 C714 1.394 . S
C715 C716 1.516 . S
C716 C715 1.516 . S
C716 C717 1.502 . S
C716 C718 1.561 . S
C716 C719 1.526 . S
C717 H701 0.959 . S
C717 H702 0.959 . S
C717 H703 0.961 . S
C717 C716 1.502 . S
C718 H704 0.960 . S
C718 H705 0.961 . S
C718 H706 0.959 . S
C718 C716 1.561 . S
C719 C716 1.526 . S
C719 C720 1.396 . S
C719 C724 1.390 . S
C720 C714 1.465 . S
C720 C719 1.396 . S
C720 C721 1.399 . S
C721 H707 0.929 . S
C721 C720 1.399 . S
C721 C722 1.385 . S
C722 H708 0.931 . S
C722 C721 1.385 . S
C722 C723 1.389 . S
C723 C722 1.389 . S
C723 C724 1.387 . S
C724 H709 0.930 . S
C724 C719 1.390 . S
C724 C723 1.387 . S
H725 C737 0.930 . S
H726 C739 0.930 . S
H727 C740 0.930 1_655 S
H728 C744 0.959 . S
H729 C744 0.959 . S
H730 C744 0.961 . S
H731 C745 0.960 . S
H732 C745 0.961 . S
H733 C745 0.959 . S
H734 C748 0.929 . S
H735 C749 0.931 . S
H736 C751 0.930 . S
C737 H725 0.930 . S
C737 C738 1.399 . S
C737 C742 1.399 . S
C738 C737 1.399 . S
C738 C739 1.376 . S
C739 H726 0.930 . S
C739 C738 1.376 . S
C739 C740 1.388 . S
C740 H727 0.930 1_455 S
C740 C739 1.388 . S
C740 C741 1.390 1_455 S
C741 C740 1.390 1_655 S
C741 C742 1.394 1_655 S
C741 C747 1.465 . S
C742 C737 1.399 . S
C742 C741 1.394 1_455 S
C742 C743 1.516 1_455 S
C743 C742 1.516 1_655 S
C743 C744 1.502 1_655 S
C743 C745 1.561 . S
C743 C746 1.526 . S
C744 H728 0.959 . S
C744 H729 0.959 . S
C744 H730 0.961 . S
C744 C743 1.502 1_455 S
C745 H731 0.960 . S
C745 H732 0.961 . S
C745 H733 0.959 . S
C745 C743 1.561 . S
C746 C743 1.526 . S
C746 C747 1.396 . S
C746 C751 1.390 . S
C747 C741 1.465 . S
C747 C746 1.396 . S
C747 C748 1.399 . S
C748 H734 0.929 . S
C748 C747 1.399 . S
C748 C749 1.385 . S
C749 H735 0.931 . S
C749 C748 1.385 . S
C749 C750 1.389 . S
C750 C749 1.389 . S
C750 C751 1.387 . S
C751 H736 0.930 . S
C751 C746 1.390 . S
C751 C750 1.387 . S
H752 C764 0.930 . S
H753 C766 0.930 . S
H754 C767 0.930 . S
H755 C771 0.959 . S
H756 C771 0.959 . S
H757 C771 0.961 . S
H758 C772 0.960 . S
H759 C772 0.961 . S
H760 C772 0.959 . S
H761 C775 0.929 . S
H762 C776 0.931 . S
H763 C778 0.930 . S
C764 H752 0.930 . S
C764 C765 1.399 . S
C764 C769 1.399 . S
C765 C764 1.399 . S
C765 C766 1.376 . S
C766 H753 0.930 . S
C766 C765 1.376 . S
C766 C767 1.388 . S
C767 H754 0.930 . S
C767 C766 1.388 . S
C767 C768 1.390 . S
C768 C767 1.390 . S
C768 C769 1.394 . S
C768 C774 1.465 . S
C769 C764 1.399 . S
C769 C768 1.394 . S
C769 C770 1.516 . S
C770 C769 1.516 . S
C770 C771 1.502 . S
C770 C772 1.561 . S
C770 C773 1.526 . S
C771 H755 0.959 . S
C771 H756 0.959 . S
C771 H757 0.961 . S
C771 C770 1.502 . S
C772 H758 0.960 . S
C772 H759 0.961 . S
C772 H760 0.959 . S
C772 C770 1.561 . S
C773 C770 1.526 . S
C773 C774 1.396 . S
C773 C778 1.390 . S
C774 C768 1.465 . S
C774 C773 1.396 . S
C774 C775 1.399 . S
C775 H761 0.929 . S
C775 C774 1.399 . S
C775 C776 1.385 . S
C776 H762 0.931 . S
C776 C775 1.385 . S
C776 C777 1.389 . S
C777 C776 1.389 . S
C777 C778 1.387 . S
C778 H763 0.930 . S
C778 C773 1.390 . S
C778 C777 1.387 . S
H779 C791 0.930 . S
H780 C793 0.930 . S
H781 C794 0.930 . S
H782 C798 0.959 . S
H783 C798 0.959 . S
H784 C798 0.961 . S
H785 C799 0.960 . S
H786 C799 0.961 . S
H787 C799 0.959 . S
H788 C802 0.929 . S
H789 C803 0.931 . S
H790 C805 0.930 . S
C791 H779 0.930 . S
C791 C792 1.399 . S
C791 C796 1.399 . S
C792 C791 1.399 . S
C792 C793 1.376 . S
C793 H780 0.930 . S
C793 C792 1.376 . S
C793 C794 1.388 . S
C794 H781 0.930 . S
C794 C793 1.388 . S
C794 C795 1.390 . S
C795 C794 1.390 . S
C795 C796 1.394 . S
C795 C801 1.465 . S
C796 C791 1.399 . S
C796 C795 1.394 . S
C796 C797 1.516 . S
C797 C796 1.516 . S
C797 C798 1.502 . S
C797 C799 1.561 . S
C797 C800 1.526 . S
C798 H782 0.959 . S
C798 H783 0.959 . S
C798 H784 0.961 . S
C798 C797 1.502 . S
C799 H785 0.960 . S
C799 H786 0.961 . S
C799 H787 0.959 . S
C799 C797 1.561 . S
C800 C797 1.526 . S
C800 C801 1.396 . S
C800 C805 1.390 . S
C801 C795 1.465 . S
C801 C800 1.396 . S
C801 C802 1.399 . S
C802 H788 0.929 . S
C802 C801 1.399 . S
C802 C803 1.385 . S
C803 H789 0.931 . S
C803 C802 1.385 . S
C803 C804 1.389 . S
C804 C803 1.389 . S
C804 C805 1.387 . S
C805 H790 0.930 . S
C805 C800 1.390 . S
C805 C804 1.387 . S
H806 C818 0.930 . S
H807 C820 0.930 . S
H808 C821 0.930 . S
H809 C825 0.959 . S
H810 C825 0.959 . S
H811 C825 0.961 . S
H812 C826 0.960 . S
H813 C826 0.961 . S
H814 C826 0.959 . S
H815 C829 0.929 . S
H816 C830 0.931 . S
H817 C832 0.930 . S
C818 H806 0.930 . S
C818 C819 1.399 . S
C818 C823 1.399 . S
C819 C818 1.399 . S
C819 C820 1.376 . S
C820 H807 0.930 . S
C820 C819 1.376 . S
C820 C821 1.388 . S
C821 H808 0.930 . S
C821 C820 1.388 . S
C821 C822 1.390 . S
C822 C821 1.390 . S
C822 C823 1.394 . S
C822 C828 1.465 . S
C823 C818 1.399 . S
C823 C822 1.394 . S
C823 C824 1.516 . S
C824 C823 1.516 . S
C824 C825 1.502 . S
C824 C826 1.561 . S
C824 C827 1.526 . S
C825 H809 0.959 . S
C825 H810 0.959 . S
C825 H811 0.961 . S
C825 C824 1.502 . S
C826 H812 0.960 . S
C826 H813 0.961 . S
C826 H814 0.959 . S
C826 C824 1.561 . S
C827 C824 1.526 . S
C827 C828 1.396 . S
C827 C832 1.390 . S
C828 C822 1.465 . S
C828 C827 1.396 . S
C828 C829 1.399 . S
C829 H815 0.929 . S
C829 C828 1.399 . S
C829 C830 1.385 . S
C830 H816 0.931 . S
C830 C829 1.385 . S
C830 C831 1.389 . S
C831 C830 1.389 . S
C831 C832 1.387 . S
C832 H817 0.930 . S
C832 C827 1.390 . S
C832 C831 1.387 . S
H833 C845 0.930 . S
H834 C847 0.930 . S
H835 C848 0.930 . S
H836 C852 0.959 . S
H837 C852 0.959 . S
H838 C852 0.961 . S
H839 C853 0.960 . S
H840 C853 0.961 . S
H841 C853 0.959 . S
H842 C856 0.929 . S
H843 C857 0.931 . S
H844 C859 0.930 . S
C845 H833 0.930 . S
C845 C846 1.399 . S
C845 C850 1.399 . S
C846 C845 1.399 . S
C846 C847 1.376 . S
C847 H834 0.930 . S
C847 C846 1.376 . S
C847 C848 1.388 . S
C848 H835 0.930 . S
C848 C847 1.388 . S
C848 C849 1.390 . S
C849 C848 1.390 . S
C849 C850 1.394 . S
C849 C855 1.465 . S
C850 C845 1.399 . S
C850 C849 1.394 . S
C850 C851 1.516 . S
C851 C850 1.516 . S
C851 C852 1.502 . S
C851 C853 1.561 . S
C851 C854 1.526 . S
C852 H836 0.959 . S
C852 H837 0.959 . S
C852 H838 0.961 . S
C852 C851 1.502 . S
C853 H839 0.960 . S
C853 H840 0.961 . S
C853 H841 0.959 . S
C853 C851 1.561 . S
C854 C851 1.526 . S
C854 C855 1.396 . S
C854 C859 1.390 . S
C855 C849 1.465 . S
C855 C854 1.396 . S
C855 C856 1.399 . S
C856 H842 0.929 . S
C856 C855 1.399 . S
C856 C857 1.385 . S
C857 H843 0.931 . S
C857 C856 1.385 . S
C857 C858 1.389 . S
C858 C857 1.389 . S
C858 C859 1.387 . S
C859 H844 0.930 . S
C859 C854 1.390 . S
C859 C858 1.387 . S
H860 C872 0.930 . S
H861 C874 0.930 . S
H862 C875 0.930 . S
H863 C879 0.959 . S
H864 C879 0.959 . S
H865 C879 0.961 . S
H866 C880 0.960 . S
H867 C880 0.961 . S
H868 C880 0.959 . S
H869 C883 0.929 . S
H870 C884 0.931 . S
H871 C886 0.930 . S
C872 H860 0.930 . S
C872 C873 1.399 . S
C872 C877 1.399 . S
C873 C872 1.399 . S
C873 C874 1.376 . S
C874 H861 0.930 . S
C874 C873 1.376 . S
C874 C875 1.388 . S
C875 H862 0.930 . S
C875 C874 1.388 . S
C875 C876 1.390 . S
C876 C875 1.390 . S
C876 C877 1.394 . S
C876 C882 1.465 . S
C877 C872 1.399 . S
C877 C876 1.394 . S
C877 C878 1.516 . S
C878 C877 1.516 . S
C878 C879 1.502 . S
C878 C880 1.561 . S
C878 C881 1.526 . S
C879 H863 0.959 . S
C879 H864 0.959 . S
C879 H865 0.961 . S
C879 C878 1.502 . S
C880 H866 0.960 . S
C880 H867 0.961 . S
C880 H868 0.959 . S
C880 C878 1.561 . S
C881 C878 1.526 . S
C881 C882 1.396 . S
C881 C886 1.390 . S
C882 C876 1.465 . S
C882 C881 1.396 . S
C882 C883 1.399 . S
C883 H869 0.929 . S
C883 C882 1.399 . S
C883 C884 1.385 . S
C884 H870 0.931 . S
C884 C883 1.385 . S
C884 C885 1.389 . S
C885 C884 1.389 . S
C885 C886 1.387 . S
C886 H871 0.930 . S
C886 C881 1.390 . S
C886 C885 1.387 . S
H887 C899 0.930 . S
H888 C901 0.930 . S
H889 C902 0.930 . S
H890 C906 0.959 . S
H891 C906 0.959 . S
H892 C906 0.961 . S
H893 C907 0.960 . S
H894 C907 0.961 . S
H895 C907 0.959 . S
H896 C910 0.929 . S
H897 C911 0.931 . S
H898 C913 0.930 . S
C899 H887 0.930 . S
C899 C900 1.399 . S
C899 C904 1.399 . S
C900 C899 1.399 . S
C900 C901 1.376 . S
C901 H888 0.930 . S
C901 C900 1.376 . S
C901 C902 1.388 . S
C902 H889 0.930 . S
C902 C901 1.388 . S
C902 C903 1.390 . S
C903 C902 1.390 . S
C903 C904 1.394 . S
C903 C909 1.465 . S
C904 C899 1.399 . S
C904 C903 1.394 . S
C904 C905 1.516 . S
C905 C904 1.516 . S
C905 C906 1.502 . S
C905 C907 1.561 . S
C905 C908 1.526 . S
C906 H890 0.959 . S
C906 H891 0.959 . S
C906 H892 0.961 . S
C906 C905 1.502 . S
C907 H893 0.960 . S
C907 H894 0.961 . S
C907 H895 0.959 . S
C907 C905 1.561 . S
C908 C905 1.526 . S
C908 C909 1.396 . S
C908 C913 1.390 . S
C909 C903 1.465 . S
C909 C908 1.396 . S
C909 C910 1.399 . S
C910 H896 0.929 . S
C910 C909 1.399 . S
C910 C911 1.385 . S
C911 H897 0.931 . S
C911 C910 1.385 . S
C911 C912 1.389 . S
C912 C911 1.389 . S
C912 C913 1.387 . S
C913 H898 0.930 . S
C913 C908 1.390 . S
C913 C912 1.387 . S
H914 C926 0.930 . S
H915 C928 0.930 . S
H916 C929 0.930 . S
H917 C933 0.959 . S
H918 C933 0.959 . S
H919 C933 0.961 . S
H920 C934 0.960 . S
H921 C934 0.961 . S
H922 C934 0.959 . S
H923 C937 0.929 . S
H924 C938 0.931 . S
H925 C940 0.930 . S
C926 H914 0.930 . S
C926 C927 1.399 . S
C926 C931 1.399 . S
C927 C926 1.399 . S
C927 C928 1.376 . S
C928 H915 0.930 . S
C928 C927 1.376 . S
C928 C929 1.388 . S
C929 H916 0.930 . S
C929 C928 1.388 . S
C929 C930 1.390 . S
C930 C929 1.390 . S
C930 C931 1.394 . S
C930 C936 1.465 . S
C931 C926 1.399 . S
C931 C930 1.394 . S
C931 C932 1.516 . S
C932 C931 1.516 . S
C932 C933 1.502 . S
C932 C934 1.561 . S
C932 C935 1.526 . S
C933 H917 0.959 . S
C933 H918 0.959 . S
C933 H919 0.961 . S
C933 C932 1.502 . S
C934 H920 0.960 . S
C934 H921 0.961 . S
C934 H922 0.959 . S
C934 C932 1.561 . S
C935 C932 1.526 . S
C935 C936 1.396 . S
C935 C940 1.390 . S
C936 C930 1.465 . S
C936 C935 1.396 . S
C936 C937 1.399 . S
C937 H923 0.929 . S
C937 C936 1.399 . S
C937 C938 1.385 . S
C938 H924 0.931 . S
C938 C937 1.385 . S
C938 C939 1.389 . S
C939 C938 1.389 . S
C939 C940 1.387 . S
C940 H925 0.930 . S
C940 C935 1.390 . S
C940 C939 1.387 . S
H941 C953 0.930 . S
H942 C955 0.930 . S
H943 C956 0.930 . S
H944 C960 0.959 . S
H945 C960 0.959 . S
H946 C960 0.961 . S
H947 C961 0.960 . S
H948 C961 0.961 . S
H949 C961 0.959 . S
H950 C964 0.929 . S
H951 C965 0.931 . S
H952 C967 0.930 . S
C953 H941 0.930 . S
C953 C954 1.399 . S
C953 C958 1.399 . S
C954 C953 1.399 . S
C954 C955 1.376 . S
C955 H942 0.930 . S
C955 C954 1.376 . S
C955 C956 1.388 . S
C956 H943 0.930 . S
C956 C955 1.388 . S
C956 C957 1.390 . S
C957 C956 1.390 . S
C957 C958 1.394 . S
C957 C963 1.465 . S
C958 C953 1.399 . S
C958 C957 1.394 . S
C958 C959 1.516 . S
C959 C958 1.516 . S
C959 C960 1.502 . S
C959 C961 1.561 . S
C959 C962 1.526 . S
C960 H944 0.959 . S
C960 H945 0.959 . S
C960 H946 0.961 . S
C960 C959 1.502 . S
C961 H947 0.960 . S
C961 H948 0.961 . S
C961 H949 0.959 . S
C961 C959 1.561 . S
C962 C959 1.526 . S
C962 C963 1.396 . S
C962 C967 1.390 . S
C963 C957 1.465 . S
C963 C962 1.396 . S
C963 C964 1.399 . S
C964 H950 0.929 . S
C964 C963 1.399 . S
C964 C965 1.385 . S
C965 H951 0.931 . S
C965 C964 1.385 . S
C965 C966 1.389 . S
C966 C965 1.389 . S
C966 C967 1.387 . S
C967 H952 0.930 . S
C967 C962 1.390 . S
C967 C966 1.387 . S
H968 C980 0.930 1_556 S
H969 C982 0.930 . S
H970 C983 0.930 . S
H971 C987 0.981 . S
H972 C987 0.959 . S
H973 C987 0.961 . S
H974 C988 0.960 . S
H975 C988 0.961 . S
H976 C988 0.959 . S
H977 C991 0.929 . S
H978 C992 0.931 . S
H979 C994 0.930 1_556 S
C980 H968 0.930 1_554 S
C980 C981 1.399 . S
C980 C985 1.399 . S
C981 C980 1.399 . S
C981 C982 1.376 . S
C982 H969 0.930 . S
C982 C981 1.376 . S
C982 C983 1.388 . S
C983 H970 0.930 . S
C983 C982 1.388 . S
C983 C984 1.390 . S
C984 C983 1.390 . S
C984 C985 1.394 . S
C984 C990 1.465 . S
C985 C980 1.399 . S
C985 C984 1.394 . S
C985 C986 1.516 1_554 S
C986 C985 1.516 1_556 S
C986 C987 1.502 . S
C986 C988 1.561 . S
C986 C989 1.526 1_556 S
C987 H971 0.981 . S
C987 H972 0.959 . S
C987 H973 0.961 . S
C987 C986 1.502 . S
C988 H974 0.960 . S
C988 H975 0.961 . S
C988 H976 0.959 . S
C988 C986 1.561 . S
C989 C986 1.526 1_554 S
C989 C990 1.396 . S
C989 C994 1.390 . S
C990 C984 1.465 . S
C990 C989 1.396 . S
C990 C991 1.399 . S
C991 H977 0.929 . S
C991 C990 1.399 . S
C991 C992 1.385 . S
C992 H978 0.931 . S
C992 C991 1.385 . S
C992 C993 1.389 . S
C993 C992 1.389 . S
C993 C994 1.387 . S
C994 H979 0.930 1_554 S
C994 C989 1.390 . S
C994 C993 1.387 . S
H995 C1007 0.923 1_556 S
H996 C1009 0.930 . S
H997 C1010 0.930 . S
H998 C1014 0.959 . S
H999 C1014 0.959 1_556 S
H1000 C1014 0.961 1_556 S
H1001 C1015 0.960 . S
H1002 C1015 0.961 . S
H1003 C1015 0.959 . S
H1004 C1018 0.929 . S
H1005 C1019 0.931 . S
H1006 C1021 0.930 1_556 S
C1007 H995 0.923 1_554 S
C1007 C1008 1.399 . S
C1007 C1012 1.399 . S
C1008 C1007 1.399 . S
C1008 C1009 1.376 . S
C1009 H996 0.930 . S
C1009 C1008 1.376 . S
C1009 C1010 1.388 . S
C1010 H997 0.930 . S
C1010 C1009 1.388 . S
C1010 C1011 1.390 . S
C1011 C1010 1.390 . S
C1011 C1012 1.394 . S
C1011 C1017 1.465 . S
C1012 C1007 1.399 . S
C1012 C1011 1.394 . S
C1012 C1013 1.506 1_554 S
C1013 C1012 1.506 1_556 S
C1013 C1014 1.499 1_556 S
C1013 C1015 1.585 . S
C1013 C1016 1.516 1_556 S
C1014 H998 0.959 . S
C1014 H999 0.959 1_554 S
C1014 H1000 0.961 1_554 S
C1014 C1013 1.499 1_554 S
C1015 H1001 0.960 . S
C1015 H1002 0.961 . S
C1015 H1003 0.959 . S
C1015 C1013 1.585 . S
C1016 C1013 1.516 1_554 S
C1016 C1017 1.396 . S
C1016 C1021 1.390 . S
C1017 C1011 1.465 . S
C1017 C1016 1.396 . S
C1017 C1018 1.399 . S
C1018 H1004 0.929 . S
C1018 C1017 1.399 . S
C1018 C1019 1.385 . S
C1019 H1005 0.931 . S
C1019 C1018 1.385 . S
C1019 C1020 1.389 . S
C1020 C1019 1.389 . S
C1020 C1021 1.387 . S
C1021 H1006 0.930 1_554 S
C1021 C1016 1.390 . S
C1021 C1020 1.387 . S
H1022 C1034 0.930 . S
H1023 C1036 0.930 . S
H1024 C1037 0.930 . S
H1025 C1041 0.959 . S
H1026 C1041 0.959 . S
H1027 C1041 0.961 . S
H1028 C1042 0.960 . S
H1029 C1042 0.961 . S
H1030 C1042 0.959 . S
H1031 C1045 0.929 . S
H1032 C1046 0.931 . S
H1033 C1048 0.930 . S
C1034 H1022 0.930 . S
C1034 C1035 1.399 . S
C1034 C1039 1.399 . S
C1035 C1034 1.399 . S
C1035 C1036 1.376 . S
C1036 H1023 0.930 . S
C1036 C1035 1.376 . S
C1036 C1037 1.388 . S
C1037 H1024 0.930 . S
C1037 C1036 1.388 . S
C1037 C1038 1.390 . S
C1038 C1037 1.390 . S
C1038 C1039 1.394 . S
C1038 C1044 1.465 . S
C1039 C1034 1.399 . S
C1039 C1038 1.394 . S
C1039 C1040 1.516 . S
C1040 C1039 1.516 . S
C1040 C1041 1.502 . S
C1040 C1042 1.561 . S
C1040 C1043 1.526 . S
C1041 H1025 0.959 . S
C1041 H1026 0.959 . S
C1041 H1027 0.961 . S
C1041 C1040 1.502 . S
C1042 H1028 0.960 . S
C1042 H1029 0.961 . S
C1042 H1030 0.959 . S
C1042 C1040 1.561 . S
C1043 C1040 1.526 . S
C1043 C1044 1.396 . S
C1043 C1048 1.390 . S
C1044 C1038 1.465 . S
C1044 C1043 1.396 . S
C1044 C1045 1.399 . S
C1045 H1031 0.929 . S
C1045 C1044 1.399 . S
C1045 C1046 1.385 . S
C1046 H1032 0.931 . S
C1046 C1045 1.385 . S
C1046 C1047 1.389 . S
C1047 C1046 1.389 . S
C1047 C1048 1.387 . S
C1048 H1033 0.930 . S
C1048 C1043 1.390 . S
C1048 C1047 1.387 . S
H1049 C1061 0.930 . S
H1050 C1063 0.930 . S
H1051 C1064 0.930 . S
H1052 C1068 0.959 . S
H1053 C1068 0.959 . S
H1054 C1068 0.961 . S
H1055 C1069 0.960 . S
H1056 C1069 0.961 . S
H1057 C1069 0.959 . S
H1058 C1072 0.929 . S
H1059 C1073 0.931 . S
H1060 C1075 0.930 . S
C1061 H1049 0.930 . S
C1061 C1062 1.399 . S
C1061 C1066 1.399 . S
C1062 C1061 1.399 . S
C1062 C1063 1.376 . S
C1063 H1050 0.930 . S
C1063 C1062 1.376 . S
C1063 C1064 1.388 . S
C1064 H1051 0.930 . S
C1064 C1063 1.388 . S
C1064 C1065 1.390 . S
C1065 C1064 1.390 . S
C1065 C1066 1.394 . S
C1065 C1071 1.465 . S
C1066 C1061 1.399 . S
C1066 C1065 1.394 . S
C1066 C1067 1.516 . S
C1067 C1066 1.516 . S
C1067 C1068 1.502 . S
C1067 C1069 1.561 . S
C1067 C1070 1.526 . S
C1068 H1052 0.959 . S
C1068 H1053 0.959 . S
C1068 H1054 0.961 . S
C1068 C1067 1.502 . S
C1069 H1055 0.960 . S
C1069 H1056 0.961 . S
C1069 H1057 0.959 . S
C1069 C1067 1.561 . S
C1070 C1067 1.526 . S
C1070 C1071 1.396 . S
C1070 C1075 1.390 . S
C1071 C1065 1.465 . S
C1071 C1070 1.396 . S
C1071 C1072 1.399 . S
C1072 H1058 0.929 . S
C1072 C1071 1.399 . S
C1072 C1073 1.385 . S
C1073 H1059 0.931 . S
C1073 C1072 1.385 . S
C1073 C1074 1.389 . S
C1074 C1073 1.389 . S
C1074 C1075 1.387 . S
C1075 H1060 0.930 . S
C1075 C1070 1.390 . S
C1075 C1074 1.387 . S
H1076 C1088 0.930 . S
H1077 C1090 0.930 . S
H1078 C1091 0.930 . S
H1079 C1095 0.959 1_554 S
H1080 C1095 0.959 . S
H1081 C1095 0.961 . S
H1082 C1096 0.960 . S
H1083 C1096 0.961 . S
H1084 C1096 0.959 . S
H1085 C1099 0.929 . S
H1086 C1100 0.931 . S
H1087 C1102 0.930 . S
C1088 H1076 0.930 . S
C1088 C1089 1.399 . S
C1088 C1093 1.399 . S
C1089 C1088 1.399 . S
C1089 C1090 1.376 . S
C1090 H1077 0.930 . S
C1090 C1089 1.376 . S
C1090 C1091 1.388 . S
C1091 H1078 0.930 . S
C1091 C1090 1.388 . S
C1091 C1092 1.390 . S
C1092 C1091 1.390 . S
C1092 C1093 1.394 . S
C1092 C1098 1.465 . S
C1093 C1088 1.399 . S
C1093 C1092 1.394 . S
C1093 C1094 1.516 . S
C1094 C1093 1.516 . S
C1094 C1095 1.502 . S
C1094 C1096 1.561 . S
C1094 C1097 1.526 . S
C1095 H1079 0.959 1_556 S
C1095 H1080 0.959 . S
C1095 H1081 0.961 . S
C1095 C1094 1.502 . S
C1096 H1082 0.960 . S
C1096 H1083 0.961 . S
C1096 H1084 0.959 . S
C1096 C1094 1.561 . S
C1097 C1094 1.526 . S
C1097 C1098 1.396 . S
C1097 C1102 1.390 . S
C1098 C1092 1.465 . S
C1098 C1097 1.396 . S
C1098 C1099 1.399 . S
C1099 H1085 0.929 . S
C1099 C1098 1.399 . S
C1099 C1100 1.385 . S
C1100 H1086 0.931 . S
C1100 C1099 1.385 . S
C1100 C1101 1.389 . S
C1101 C1100 1.389 . S
C1101 C1102 1.387 . S
C1102 H1087 0.930 . S
C1102 C1097 1.390 . S
C1102 C1101 1.387 . S
H1103 C1115 0.930 . S
H1104 C1117 0.930 . S
H1105 C1118 0.930 . S
H1106 C1122 0.959 . S
H1107 C1122 0.959 . S
H1108 C1122 0.961 . S
H1109 C1123 0.960 . S
H1110 C1123 0.961 . S
H1111 C1123 0.959 . S
H1112 C1126 0.929 . S
H1113 C1127 0.931 . S
H1114 C1129 0.930 . S
C1115 H1103 0.930 . S
C1115 C1116 1.399 . S
C1115 C1120 1.399 . S
C1116 C1115 1.399 . S
C1116 C1117 1.376 1_556 S
C1117 H1104 0.930 . S
C1117 C1116 1.376 1_554 S
C1117 C1118 1.388 . S
C1118 H1105 0.930 . S
C1118 C1117 1.388 . S
C1118 C1119 1.390 1_554 S
C1119 C1118 1.390 1_556 S
C1119 C1120 1.394 . S
C1119 C1125 1.465 . S
C1120 C1115 1.399 . S
C1120 C1119 1.394 . S
C1120 C1121 1.516 . S
C1121 C1120 1.516 . S
C1121 C1122 1.502 . S
C1121 C1123 1.561 . S
C1121 C1124 1.526 . S
C1122 H1106 0.959 . S
C1122 H1107 0.959 . S
C1122 H1108 0.961 . S
C1122 C1121 1.502 . S
C1123 H1109 0.960 . S
C1123 H1110 0.961 . S
C1123 H1111 0.959 . S
C1123 C1121 1.561 . S
C1124 C1121 1.526 . S
C1124 C1125 1.396 . S
C1124 C1129 1.390 . S
C1125 C1119 1.465 . S
C1125 C1124 1.396 . S
C1125 C1126 1.399 1_556 S
C1126 H1112 0.929 . S
C1126 C1125 1.399 1_554 S
C1126 C1127 1.385 . S
C1127 H1113 0.931 . S
C1127 C1126 1.385 . S
C1127 C1128 1.389 1_554 S
C1128 C1127 1.389 1_556 S
C1128 C1129 1.387 . S
C1129 H1114 0.930 . S
C1129 C1124 1.390 . S
C1129 C1128 1.387 . S
H1130 C1142 0.930 . S
H1131 C1144 0.930 . S
H1132 C1145 0.930 . S
H1133 C1149 0.959 . S
H1134 C1149 0.959 . S
H1135 C1149 0.961 . S
H1136 C1150 0.960 . S
H1137 C1150 0.961 . S
H1138 C1150 0.959 . S
H1139 C1153 0.929 . S
H1140 C1154 0.931 . S
H1141 C1156 0.930 . S
C1142 H1130 0.930 . S
C1142 C1143 1.399 . S
C1142 C1147 1.399 . S
C1143 C1142 1.399 . S
C1143 C1144 1.376 . S
C1144 H1131 0.930 . S
C1144 C1143 1.376 . S
C1144 C1145 1.388 . S
C1145 H1132 0.930 . S
C1145 C1144 1.388 . S
C1145 C1146 1.390 . S
C1146 C1145 1.390 . S
C1146 C1147 1.394 . S
C1146 C1152 1.465 . S
C1147 C1142 1.399 . S
C1147 C1146 1.394 . S
C1147 C1148 1.516 . S
C1148 C1147 1.516 . S
C1148 C1149 1.502 . S
C1148 C1150 1.561 . S
C1148 C1151 1.526 . S
C1149 H1133 0.959 . S
C1149 H1134 0.959 . S
C1149 H1135 0.961 . S
C1149 C1148 1.502 . S
C1150 H1136 0.960 . S
C1150 H1137 0.961 . S
C1150 H1138 0.959 . S
C1150 C1148 1.561 . S
C1151 C1148 1.526 . S
C1151 C1152 1.396 . S
C1151 C1156 1.390 . S
C1152 C1146 1.465 . S
C1152 C1151 1.396 . S
C1152 C1153 1.399 . S
C1153 H1139 0.929 . S
C1153 C1152 1.399 . S
C1153 C1154 1.385 . S
C1154 H1140 0.931 . S
C1154 C1153 1.385 . S
C1154 C1155 1.389 . S
C1155 C1154 1.389 . S
C1155 C1156 1.387 . S
C1156 H1141 0.930 . S
C1156 C1151 1.390 . S
C1156 C1155 1.387 . S
H1157 C1169 0.930 . S
H1158 C1171 0.930 . S
H1159 C1172 0.930 . S
H1160 C1176 0.959 . S
H1161 C1176 0.959 . S
H1162 C1176 0.961 . S
H1163 C1177 0.960 . S
H1164 C1177 0.961 . S
H1165 C1177 0.959 . S
H1166 C1180 0.929 . S
H1167 C1181 0.931 . S
H1168 C1183 0.930 . S
C1169 H1157 0.930 . S
C1169 C1170 1.399 . S
C1169 C1174 1.399 . S
C1170 C1169 1.399 . S
C1170 C1171 1.376 . S
C1171 H1158 0.930 . S
C1171 C1170 1.376 . S
C1171 C1172 1.388 . S
C1172 H1159 0.930 . S
C1172 C1171 1.388 . S
C1172 C1173 1.390 . S
C1173 C1172 1.390 . S
C1173 C1174 1.394 . S
C1173 C1179 1.465 . S
C1174 C1169 1.399 . S
C1174 C1173 1.394 . S
C1174 C1175 1.516 . S
C1175 C1174 1.516 . S
C1175 C1176 1.502 . S
C1175 C1177 1.561 . S
C1175 C1178 1.526 . S
C1176 H1160 0.959 . S
C1176 H1161 0.959 . S
C1176 H1162 0.961 . S
C1176 C1175 1.502 . S
C1177 H1163 0.960 . S
C1177 H1164 0.961 . S
C1177 H1165 0.959 . S
C1177 C1175 1.561 . S
C1178 C1175 1.526 . S
C1178 C1179 1.396 . S
C1178 C1183 1.390 . S
C1179 C1173 1.465 . S
C1179 C1178 1.396 . S
C1179 C1180 1.399 . S
C1180 H1166 0.929 . S
C1180 C1179 1.399 . S
C1180 C1181 1.385 . S
C1181 H1167 0.931 . S
C1181 C1180 1.385 . S
C1181 C1182 1.389 . S
C1182 C1181 1.389 . S
C1182 C1183 1.387 . S
C1183 H1168 0.930 . S
C1183 C1178 1.390 . S
C1183 C1182 1.387 . S
H1184 C1196 0.930 . S
H1185 C1198 0.930 . S
H1186 C1199 0.930 . S
H1187 C1203 0.959 . S
H1188 C1203 0.959 . S
H1189 C1203 0.961 . S
H1190 C1204 0.960 . S
H1191 C1204 0.961 . S
H1192 C1204 0.959 1_655 S
H1193 C1207 0.929 . S
H1194 C1208 0.931 . S
H1195 C1210 0.930 . S
C1196 H1184 0.930 . S
C1196 C1197 1.399 . S
C1196 C1201 1.399 . S
C1197 C1196 1.399 . S
C1197 C1198 1.376 1_556 S
C1198 H1185 0.930 . S
C1198 C1197 1.376 1_554 S
C1198 C1199 1.388 . S
C1199 H1186 0.930 . S
C1199 C1198 1.388 . S
C1199 C1200 1.390 . S
C1200 C1199 1.390 . S
C1200 C1201 1.394 1_554 S
C1200 C1206 1.472 . S
C1201 C1196 1.399 . S
C1201 C1200 1.394 1_556 S
C1201 C1202 1.516 1_655 S
C1202 C1201 1.516 1_455 S
C1202 C1203 1.502 . S
C1202 C1204 1.561 . S
C1202 C1205 1.526 . S
C1203 H1187 0.959 . S
C1203 H1188 0.959 . S
C1203 H1189 0.961 . S
C1203 C1202 1.502 . S
C1204 H1190 0.960 . S
C1204 H1191 0.961 . S
C1204 H1192 0.959 1_455 S
C1204 C1202 1.561 . S
C1205 C1202 1.526 . S
C1205 C1206 1.389 1_456 S
C1205 C1210 1.390 . S
C1206 C1200 1.472 . S
C1206 C1205 1.389 1_654 S
C1206 C1207 1.399 . S
C1207 H1193 0.929 . S
C1207 C1206 1.399 . S
C1207 C1208 1.385 1_655 S
C1208 H1194 0.931 . S
C1208 C1207 1.385 1_455 S
C1208 C1209 1.389 . S
C1209 C1208 1.389 . S
C1209 C1210 1.387 1_554 S
C1210 H1195 0.930 . S
C1210 C1205 1.390 . S
C1210 C1209 1.387 1_556 S
H1211 C1223 0.936 . S
H1212 C1225 0.930 . S
H1213 C1226 0.930 . S
H1214 C1230 0.959 . S
H1215 C1230 0.959 . S
H1216 C1230 0.961 . S
H1217 C1231 0.960 . S
H1218 C1231 0.961 1_655 S
H1219 C1231 0.959 1_545 S
H1220 C1234 0.929 . S
H1221 C1235 0.931 . S
H1222 C1237 0.930 . S
C1223 H1211 0.936 . S
C1223 C1224 1.391 1_554 S
C1223 C1228 1.401 . S
C1224 C1223 1.391 1_556 S
C1224 C1225 1.376 . S
C1225 H1212 0.930 . S
C1225 C1224 1.376 . S
C1225 C1226 1.388 1_565 S
C1226 H1213 0.930 . S
C1226 C1225 1.388 1_545 S
C1226 C1227 1.390 . S
C1227 C1226 1.390 . S
C1227 C1228 1.394 1_546 S
C1227 C1233 1.465 1_455 S
C1228 C1223 1.401 . S
C1228 C1227 1.394 1_564 S
C1228 C1229 1.516 1_455 S
C1229 C1228 1.516 1_655 S
C1229 C1230 1.502 . S
C1229 C1231 1.561 1_655 S
C1229 C1232 1.526 1_565 S
C1230 H1214 0.959 . S
C1230 H1215 0.959 . S
C1230 H1216 0.961 . S
C1230 C1229 1.502 . S
C1231 H1217 0.960 . S
C1231 H1218 0.961 1_455 S
C1231 H1219 0.959 1_565 S
C1231 C1229 1.561 1_455 S
C1232 C1229 1.526 1_545 S
C1232 C1233 1.396 1_554 S
C1232 C1237 1.390 . S
C1233 C1227 1.465 1_655 S
C1233 C1232 1.396 1_556 S
C1233 C1234 1.399 . S
C1234 H1220 0.929 . S
C1234 C1233 1.399 . S
C1234 C1235 1.385 . S
C1235 H1221 0.931 . S
C1235 C1234 1.385 . S
C1235 C1236 1.389 1_556 S
C1236 C1235 1.389 1_554 S
C1236 C1237 1.387 . S
C1237 H1222 0.930 . S
C1237 C1232 1.390 . S
C1237 C1236 1.387 . S
H1238 C1250 0.930 . S
H1239 C1252 0.930 . S
H1240 C1253 0.930 . S
H1241 C1257 0.959 . S
H1242 C1257 0.959 . S
H1243 C1257 0.961 . S
H1244 C1258 0.960 . S
H1245 C1258 0.961 . S
H1246 C1258 0.959 . S
H1247 C1261 0.929 . S
H1248 C1262 0.931 . S
H1249 C1264 0.930 . S
C1250 H1238 0.930 . S
C1250 C1251 1.399 . S
C1250 C1255 1.399 . S
C1251 C1250 1.399 . S
C1251 C1252 1.376 1_556 S
C1252 H1239 0.930 . S
C1252 C1251 1.376 1_554 S
C1252 C1253 1.388 . S
C1253 H1240 0.930 . S
C1253 C1252 1.388 . S
C1253 C1254 1.390 . S
C1254 C1253 1.390 . S
C1254 C1255 1.394 1_554 S
C1254 C1260 1.465 1_545 S
C1255 C1250 1.399 . S
C1255 C1254 1.394 1_556 S
C1255 C1256 1.516 . S
C1256 C1255 1.516 . S
C1256 C1257 1.502 . S
C1256 C1258 1.561 1_545 S
C1256 C1259 1.526 1_545 S
C1257 H1241 0.959 . S
C1257 H1242 0.959 . S
C1257 H1243 0.961 . S
C1257 C1256 1.502 . S
C1258 H1244 0.960 . S
C1258 H1245 0.961 . S
C1258 H1246 0.959 . S
C1258 C1256 1.561 1_565 S
C1259 C1256 1.526 1_565 S
C1259 C1260 1.396 1_556 S
C1259 C1264 1.390 . S
C1260 C1254 1.465 1_565 S
C1260 C1259 1.396 1_554 S
C1260 C1261 1.399 . S
C1261 H1247 0.929 . S
C1261 C1260 1.399 . S
C1261 C1262 1.385 . S
C1262 H1248 0.931 . S
C1262 C1261 1.385 . S
C1262 C1263 1.389 . S
C1263 C1262 1.389 . S
C1263 C1264 1.387 1_554 S
C1264 H1249 0.930 . S
C1264 C1259 1.390 . S
C1264 C1263 1.387 1_556 S
H1265 C1277 0.930 . S
H1266 C1279 0.930 1_556 S
H1267 C1280 0.930 . S
H1268 C1284 0.959 1_556 S
H1269 C1284 0.959 . S
H1270 C1284 0.961 . S
H1271 C1285 0.960 . S
H1272 C1285 0.961 . S
H1273 C1285 0.959 . S
H1274 C1288 0.929 . S
H1275 C1289 0.931 . S
H1276 C1291 0.930 1_554 S
C1277 H1265 0.930 . S
C1277 C1278 1.399 . S
C1277 C1282 1.399 . S
C1278 C1277 1.399 . S
C1278 C1279 1.376 . S
C1279 H1266 0.930 1_554 S
C1279 C1278 1.376 . S
C1279 C1280 1.388 1_554 S
C1280 H1267 0.930 . S
C1280 C1279 1.388 1_556 S
C1280 C1281 1.390 . S
C1281 C1280 1.390 . S
C1281 C1282 1.394 1_556 S
C1281 C1287 1.465 . S
C1282 C1277 1.399 . S
C1282 C1281 1.394 1_554 S
C1282 C1283 1.516 . S
C1283 C1282 1.516 . S
C1283 C1284 1.502 . S
C1283 C1285 1.561 . S
C1283 C1286 1.526 . S
C1284 H1268 0.959 1_554 S
C1284 H1269 0.959 . S
C1284 H1270 0.961 . S
C1284 C1283 1.502 . S
C1285 H1271 0.960 . S
C1285 H1272 0.961 . S
C1285 H1273 0.959 . S
C1285 C1283 1.561 . S
C1286 C1283 1.526 . S
C1286 C1287 1.396 1_554 S
C1286 C1291 1.390 1_554 S
C1287 C1281 1.465 . S
C1287 C1286 1.396 1_556 S
C1287 C1288 1.399 . S
C1288 H1274 0.929 . S
C1288 C1287 1.399 . S
C1288 C1289 1.385 . S
C1289 H1275 0.931 . S
C1289 C1288 1.385 . S
C1289 C1290 1.389 . S
C1290 C1289 1.389 . S
C1290 C1291 1.387 . S
C1291 H1276 0.930 1_556 S
C1291 C1286 1.390 1_556 S
C1291 C1290 1.387 . S
H1292 C1304 0.930 . S
H1293 C1306 0.930 . S
H1294 C1307 0.930 . S
H1295 C1311 0.959 . S
H1296 C1311 0.959 . S
H1297 C1311 0.961 . S
H1298 C1312 0.960 . S
H1299 C1312 0.961 . S
H1300 C1312 0.959 . S
H1301 C1315 0.929 1_545 S
H1302 C1316 0.931 . S
H1303 C1318 0.930 . S
C1304 H1292 0.930 . S
C1304 C1305 1.399 . S
C1304 C1309 1.399 . S
C1305 C1304 1.399 . S
C1305 C1306 1.376 . S
C1306 H1293 0.930 . S
C1306 C1305 1.376 . S
C1306 C1307 1.388 1_655 S
C1307 H1294 0.930 . S
C1307 C1306 1.388 1_455 S
C1307 C1308 1.390 1_455 S
C1308 C1307 1.390 1_655 S
C1308 C1309 1.394 . S
C1308 C1314 1.465 1_645 S
C1309 C1304 1.399 . S
C1309 C1308 1.394 . S
C1309 C1310 1.516 1_545 S
C1310 C1309 1.516 1_565 S
C1310 C1311 1.502 . S
C1310 C1312 1.561 . S
C1310 C1313 1.526 1_655 S
C1311 H1295 0.959 . S
C1311 H1296 0.959 . S
C1311 H1297 0.961 . S
C1311 C1310 1.502 . S
C1312 H1298 0.960 . S
C1312 H1299 0.961 . S
C1312 H1300 0.959 . S
C1312 C1310 1.561 . S
C1313 C1310 1.526 1_455 S
C1313 C1314 1.396 . S
C1313 C1318 1.390 . S
C1314 C1308 1.465 1_465 S
C1314 C1313 1.396 . S
C1314 C1315 1.399 . S
C1315 H1301 0.929 1_565 S
C1315 C1314 1.399 . S
C1315 C1316 1.385 . S
C1316 H1302 0.931 . S
C1316 C1315 1.385 . S
C1316 C1317 1.389 . S
C1317 C1316 1.389 . S
C1317 C1318 1.387 . S
C1318 H1303 0.930 . S
C1318 C1313 1.390 . S
C1318 C1317 1.387 . S
H1319 C1331 0.930 . S
H1320 C1333 0.930 . S
H1321 C1334 0.930 . S
H1322 C1338 0.950 1_545 S
H1323 C1338 0.957 1_545 S
H1324 C1338 0.969 . S
H1325 C1339 0.960 . S
H1326 C1339 0.961 . S
H1327 C1339 0.959 . S
H1328 C1342 0.929 . S
H1329 C1343 0.931 . S
H1330 C1345 0.930 . S
C1331 H1319 0.930 . S
C1331 C1332 1.399 . S
C1331 C1336 1.399 . S
C1332 C1331 1.399 . S
C1332 C1333 1.376 . S
C1333 H1320 0.930 . S
C1333 C1332 1.376 . S
C1333 C1334 1.388 . S
C1334 H1321 0.930 . S
C1334 C1333 1.388 . S
C1334 C1335 1.390 . S
C1335 C1334 1.390 . S
C1335 C1336 1.394 . S
C1335 C1341 1.465 1_565 S
C1336 C1331 1.399 . S
C1336 C1335 1.394 . S
C1336 C1337 1.516 . S
C1337 C1336 1.516 . S
C1337 C1338 1.506 . S
C1337 C1339 1.561 . S
C1337 C1340 1.526 1_565 S
C1338 H1322 0.950 1_565 S
C1338 H1323 0.957 1_565 S
C1338 H1324 0.969 . S
C1338 C1337 1.506 . S
C1339 H1325 0.960 . S
C1339 H1326 0.961 . S
C1339 H1327 0.959 . S
C1339 C1337 1.561 . S
C1340 C1337 1.526 1_545 S
C1340 C1341 1.396 . S
C1340 C1345 1.390 . S
C1341 C1335 1.465 1_545 S
C1341 C1340 1.396 . S
C1341 C1342 1.399 . S
C1342 H1328 0.929 . S
C1342 C1341 1.399 . S
C1342 C1343 1.385 . S
C1343 H1329 0.931 . S
C1343 C1342 1.385 . S
C1343 C1344 1.389 . S
C1344 C1343 1.389 . S
C1344 C1345 1.387 . S
C1345 H1330 0.930 . S
C1345 C1340 1.390 . S
C1345 C1344 1.387 . S
H1346 C1358 0.930 . S
H1347 C1360 0.930 . S
H1348 C1361 0.930 . S
H1349 C1365 0.959 . S
H1350 C1365 0.959 . S
H1351 C1365 0.961 . S
H1352 C1366 0.960 . S
H1353 C1366 0.961 . S
H1354 C1366 0.959 . S
H1355 C1369 0.929 . S
H1356 C1370 0.931 . S
H1357 C1372 0.930 . S
C1358 H1346 0.930 . S
C1358 C1359 1.399 . S
C1358 C1363 1.399 . S
C1359 C1358 1.399 . S
C1359 C1360 1.376 . S
C1360 H1347 0.930 . S
C1360 C1359 1.376 . S
C1360 C1361 1.388 . S
C1361 H1348 0.930 . S
C1361 C1360 1.388 . S
C1361 C1362 1.390 . S
C1362 C1361 1.390 . S
C1362 C1363 1.394 . S
C1362 C1368 1.465 . S
C1363 C1358 1.399 . S
C1363 C1362 1.394 . S
C1363 C1364 1.516 . S
C1364 C1363 1.516 . S
C1364 C1365 1.502 . S
C1364 C1366 1.561 . S
C1364 C1367 1.526 . S
C1365 H1349 0.959 . S
C1365 H1350 0.959 . S
C1365 H1351 0.961 . S
C1365 C1364 1.502 . S
C1366 H1352 0.960 . S
C1366 H1353 0.961 . S
C1366 H1354 0.959 . S
C1366 C1364 1.561 . S
C1367 C1364 1.526 . S
C1367 C1368 1.396 . S
C1367 C1372 1.390 . S
C1368 C1362 1.465 . S
C1368 C1367 1.396 . S
C1368 C1369 1.399 . S
C1369 H1355 0.929 . S
C1369 C1368 1.399 . S
C1369 C1370 1.385 . S
C1370 H1356 0.931 . S
C1370 C1369 1.385 . S
C1370 C1371 1.389 . S
C1371 C1370 1.389 . S
C1371 C1372 1.387 . S
C1372 H1357 0.930 . S
C1372 C1367 1.390 . S
C1372 C1371 1.387 . S
H1373 C1385 0.930 . S
H1374 C1387 0.930 . S
H1375 C1388 0.930 1_655 S
H1376 C1392 0.959 . S
H1377 C1392 0.959 . S
H1378 C1392 0.961 . S
H1379 C1393 0.960 . S
H1380 C1393 0.961 1_655 S
H1381 C1393 0.959 1_655 S
H1382 C1396 0.929 . S
H1383 C1397 0.931 . S
H1384 C1399 0.930 . S
C1385 H1373 0.930 . S
C1385 C1386 1.399 . S
C1385 C1390 1.399 . S
C1386 C1385 1.399 . S
C1386 C1387 1.376 . S
C1387 H1374 0.930 . S
C1387 C1386 1.376 . S
C1387 C1388 1.388 . S
C1388 H1375 0.930 1_455 S
C1388 C1387 1.388 . S
C1388 C1389 1.390 . S
C1389 C1388 1.390 . S
C1389 C1390 1.394 . S
C1389 C1395 1.465 1_455 S
C1390 C1385 1.399 . S
C1390 C1389 1.394 . S
C1390 C1391 1.516 . S
C1391 C1390 1.516 . S
C1391 C1392 1.502 . S
C1391 C1393 1.561 . S
C1391 C1394 1.526 1_455 S
C1392 H1376 0.959 . S
C1392 H1377 0.959 . S
C1392 H1378 0.961 . S
C1392 C1391 1.502 . S
C1393 H1379 0.960 . S
C1393 H1380 0.961 1_455 S
C1393 H1381 0.959 1_455 S
C1393 C1391 1.561 . S
C1394 C1391 1.526 1_655 S
C1394 C1395 1.396 . S
C1394 C1399 1.390 . S
C1395 C1389 1.465 1_655 S
C1395 C1394 1.396 . S
C1395 C1396 1.399 . S
C1396 H1382 0.929 . S
C1396 C1395 1.399 . S
C1396 C1397 1.385 . S
C1397 H1383 0.931 . S
C1397 C1396 1.385 . S
C1397 C1398 1.389 . S
C1398 C1397 1.389 . S
C1398 C1399 1.387 . S
C1399 H1384 0.930 . S
C1399 C1394 1.390 . S
C1399 C1398 1.387 . S
H1400 C1412 0.930 . S
H1401 C1414 0.930 1_455 S
H1402 C1415 0.930 . S
H1403 C1419 0.959 . S
H1404 C1419 0.959 . S
H1405 C1419 0.961 . S
H1406 C1420 0.960 1_655 S
H1407 C1420 0.961 . S
H1408 C1420 0.959 . S
H1409 C1423 0.929 . S
H1410 C1424 0.931 . S
H1411 C1426 0.930 1_655 S
C1412 H1400 0.930 . S
C1412 C1413 1.399 . S
C1412 C1417 1.399 . S
C1413 C1412 1.399 . S
C1413 C1414 1.376 . S
C1414 H1401 0.930 1_655 S
C1414 C1413 1.376 . S
C1414 C1415 1.388 1_655 S
C1415 H1402 0.930 . S
C1415 C1414 1.388 1_455 S
C1415 C1416 1.390 . S
C1416 C1415 1.390 . S
C1416 C1417 1.394 1_455 S
C1416 C1422 1.465 . S
C1417 C1412 1.399 . S
C1417 C1416 1.394 1_655 S
C1417 C1418 1.516 . S
C1418 C1417 1.516 . S
C1418 C1419 1.502 . S
C1418 C1420 1.561 1_655 S
C1418 C1421 1.511 1_655 S
C1419 H1403 0.959 . S
C1419 H1404 0.959 . S
C1419 H1405 0.961 . S
C1419 C1418 1.502 . S
C1420 H1406 0.960 1_455 S
C1420 H1407 0.961 . S
C1420 H1408 0.959 . S
C1420 C1418 1.561 1_455 S
C1421 C1418 1.511 1_455 S
C1421 C1422 1.408 . S
C1421 C1426 1.394 . S
C1422 C1416 1.465 . S
C1422 C1421 1.408 . S
C1422 C1423 1.399 . S
C1423 H1409 0.929 . S
C1423 C1422 1.399 . S
C1423 C1424 1.385 . S
C1424 H1410 0.931 . S
C1424 C1423 1.385 . S
C1424 C1425 1.389 . S
C1425 C1424 1.389 . S
C1425 C1426 1.387 . S
C1426 H1411 0.930 1_455 S
C1426 C1421 1.394 . S
C1426 C1425 1.387 . S
H1427 C1439 0.930 . S
H1428 C1441 0.930 . S
H1429 C1442 0.930 . S
H1430 C1446 0.959 . S
H1431 C1446 0.959 . S
H1432 C1446 0.961 . S
H1433 C1447 0.966 . S
H1434 C1447 0.961 . S
H1435 C1447 0.959 . S
H1436 C1450 0.929 . S
H1437 C1451 0.931 . S
H1438 C1453 0.943 . S
C1439 H1427 0.930 . S
C1439 C1440 1.399 . S
C1439 C1444 1.399 . S
C1440 C1439 1.399 . S
C1440 C1441 1.376 1_465 S
C1441 H1428 0.930 . S
C1441 C1440 1.376 1_645 S
C1441 C1442 1.388 . S
C1442 H1429 0.930 . S
C1442 C1441 1.388 . S
C1442 C1443 1.390 . S
C1443 C1442 1.390 . S
C1443 C1444 1.394 1_645 S
C1443 C1449 1.465 . S
C1444 C1439 1.399 . S
C1444 C1443 1.394 1_465 S
C1444 C1445 1.516 . S
C1445 C1444 1.516 . S
C1445 C1446 1.502 . S
C1445 C1447 1.561 1_455 S
C1445 C1448 1.526 1_455 S
C1446 H1430 0.959 . S
C1446 H1431 0.959 . S
C1446 H1432 0.961 . S
C1446 C1445 1.502 . S
C1447 H1433 0.966 . S
C1447 H1434 0.961 . S
C1447 H1435 0.959 . S
C1447 C1445 1.561 1_655 S
C1448 C1445 1.526 1_655 S
C1448 C1449 1.396 1_565 S
C1448 C1453 1.390 . S
C1449 C1443 1.465 . S
C1449 C1448 1.396 1_545 S
C1449 C1450 1.399 . S
C1450 H1436 0.929 . S
C1450 C1449 1.399 . S
C1450 C1451 1.385 . S
C1451 H1437 0.931 . S
C1451 C1450 1.385 . S
C1451 C1452 1.389 . S
C1452 C1451 1.389 . S
C1452 C1453 1.387 1_545 S
C1453 H1438 0.943 . S
C1453 C1448 1.390 . S
C1453 C1452 1.387 1_565 S
H1454 C1466 0.930 . S
H1455 C1468 0.930 . S
H1456 C1469 0.930 . S
H1457 C1473 0.959 . S
H1458 C1473 0.959 . S
H1459 C1473 0.961 . S
H1460 C1474 0.960 . S
H1461 C1474 0.961 . S
H1462 C1474 0.959 . S
H1463 C1477 0.929 . S
H1464 C1478 0.931 . S
H1465 C1480 0.932 . S
C1466 H1454 0.930 . S
C1466 C1467 1.399 . S
C1466 C1471 1.399 . S
C1467 C1466 1.399 . S
C1467 C1468 1.376 1_545 S
C1468 H1455 0.930 . S
C1468 C1467 1.376 1_565 S
C1468 C1469 1.388 . S
C1469 H1456 0.930 . S
C1469 C1468 1.388 . S
C1469 C1470 1.390 . S
C1470 C1469 1.390 . S
C1470 C1471 1.394 1_565 S
C1470 C1476 1.465 . S
C1471 C1466 1.399 . S
C1471 C1470 1.394 1_545 S
C1471 C1472 1.516 . S
C1472 C1471 1.516 . S
C1472 C1473 1.502 . S
C1472 C1474 1.561 . S
C1472 C1475 1.526 . S
C1473 H1457 0.959 . S
C1473 H1458 0.959 . S
C1473 H1459 0.961 . S
C1473 C1472 1.502 . S
C1474 H1460 0.960 . S
C1474 H1461 0.961 . S
C1474 H1462 0.959 . S
C1474 C1472 1.561 . S
C1475 C1472 1.526 . S
C1475 C1476 1.396 1_545 S
C1475 C1480 1.390 . S
C1476 C1470 1.465 . S
C1476 C1475 1.396 1_565 S
C1476 C1477 1.399 . S
C1477 H1463 0.929 . S
C1477 C1476 1.399 . S
C1477 C1478 1.385 . S
C1478 H1464 0.931 . S
C1478 C1477 1.385 . S
C1478 C1479 1.389 . S
C1479 C1478 1.389 . S
C1479 C1480 1.384 1_565 S
C1480 H1465 0.932 . S
C1480 C1475 1.390 . S
C1480 C1479 1.384 1_545 S
H1481 C1493 0.930 . S
H1482 C1495 0.930 . S
H1483 C1496 0.930 . S
H1484 C1500 0.959 . S
H1485 C1500 0.959 . S
H1486 C1500 0.961 . S
H1487 C1501 0.960 . S
H1488 C1501 0.961 . S
H1489 C1501 0.959 . S
H1490 C1504 0.929 . S
H1491 C1505 0.931 . S
H1492 C1507 0.930 . S
C1493 H1481 0.930 . S
C1493 C1494 1.399 . S
C1493 C1498 1.399 . S
C1494 C1493 1.399 . S
C1494 C1495 1.376 . S
C1495 H1482 0.930 . S
C1495 C1494 1.376 . S
C1495 C1496 1.388 . S
C1496 H1483 0.930 . S
C1496 C1495 1.388 . S
C1496 C1497 1.390 . S
C1497 C1496 1.390 . S
C1497 C1498 1.394 . S
C1497 C1503 1.465 . S
C1498 C1493 1.399 . S
C1498 C1497 1.394 . S
C1498 C1499 1.516 . S
C1499 C1498 1.516 . S
C1499 C1500 1.502 . S
C1499 C1501 1.561 . S
C1499 C1502 1.526 . S
C1500 H1484 0.959 . S
C1500 H1485 0.959 . S
C1500 H1486 0.961 . S
C1500 C1499 1.502 . S
C1501 H1487 0.960 . S
C1501 H1488 0.961 . S
C1501 H1489 0.959 . S
C1501 C1499 1.561 . S
C1502 C1499 1.526 . S
C1502 C1503 1.396 . S
C1502 C1507 1.390 . S
C1503 C1497 1.465 . S
C1503 C1502 1.396 . S
C1503 C1504 1.399 . S
C1504 H1490 0.929 . S
C1504 C1503 1.399 . S
C1504 C1505 1.385 . S
C1505 H1491 0.931 . S
C1505 C1504 1.385 . S
C1505 C1506 1.389 . S
C1506 C1505 1.389 . S
C1506 C1507 1.387 . S
C1507 H1492 0.930 . S
C1507 C1502 1.390 . S
C1507 C1506 1.387 . S
H1508 C1520 0.930 . S
H1509 C1522 0.930 . S
H1510 C1523 0.930 . S
H1511 C1527 0.959 . S
H1512 C1527 0.959 . S
H1513 C1527 0.961 . S
H1514 C1528 0.960 . S
H1515 C1528 0.961 . S
H1516 C1528 0.959 . S
H1517 C1531 0.929 . S
H1518 C1532 0.931 . S
H1519 C1534 0.930 . S
C1520 H1508 0.930 . S
C1520 C1521 1.399 . S
C1520 C1525 1.399 . S
C1521 C1520 1.399 . S
C1521 C1522 1.376 . S
C1522 H1509 0.930 . S
C1522 C1521 1.376 . S
C1522 C1523 1.388 . S
C1523 H1510 0.930 . S
C1523 C1522 1.388 . S
C1523 C1524 1.390 . S
C1524 C1523 1.390 . S
C1524 C1525 1.394 . S
C1524 C1530 1.465 . S
C1525 C1520 1.399 . S
C1525 C1524 1.394 . S
C1525 C1526 1.516 1_455 S
C1526 C1525 1.516 1_655 S
C1526 C1527 1.502 . S
C1526 C1528 1.561 1_655 S
C1526 C1529 1.526 . S
C1527 H1511 0.959 . S
C1527 H1512 0.959 . S
C1527 H1513 0.961 . S
C1527 C1526 1.502 . S
C1528 H1514 0.960 . S
C1528 H1515 0.961 . S
C1528 H1516 0.959 . S
C1528 C1526 1.561 1_455 S
C1529 C1526 1.526 . S
C1529 C1530 1.396 1_655 S
C1529 C1534 1.390 . S
C1530 C1524 1.465 . S
C1530 C1529 1.396 1_455 S
C1530 C1531 1.399 . S
C1531 H1517 0.929 . S
C1531 C1530 1.399 . S
C1531 C1532 1.385 1_455 S
C1532 H1518 0.931 . S
C1532 C1531 1.385 1_655 S
C1532 C1533 1.389 . S
C1533 C1532 1.389 . S
C1533 C1534 1.387 . S
C1534 H1519 0.930 . S
C1534 C1529 1.390 . S
C1534 C1533 1.387 . S
H1535 C1547 0.930 1_455 S
H1536 C1549 0.930 . S
H1537 C1550 0.930 . S
H1538 C1554 0.959 . S
H1539 C1554 0.959 . S
H1540 C1554 0.961 . S
H1541 C1555 0.960 . S
H1542 C1555 0.961 . S
H1543 C1555 0.959 1_655 S
H1544 C1558 0.929 . S
H1545 C1559 0.931 . S
H1546 C1561 0.930 . S
C1547 H1535 0.930 1_655 S
C1547 C1548 1.399 . S
C1547 C1552 1.399 1_655 S
C1548 C1547 1.399 . S
C1548 C1549 1.376 1_545 S
C1549 H1536 0.930 . S
C1549 C1548 1.376 1_565 S
C1549 C1550 1.388 . S
C1550 H1537 0.930 . S
C1550 C1549 1.388 . S
C1550 C1551 1.390 . S
C1551 C1550 1.390 . S
C1551 C1552 1.394 1_665 S
C1551 C1557 1.465 . S
C1552 C1547 1.399 1_455 S
C1552 C1551 1.394 1_445 S
C1552 C1553 1.516 . S
C1553 C1552 1.516 . S
C1553 C1554 1.502 . S
C1553 C1555 1.561 . S
C1553 C1556 1.526 . S
C1554 H1538 0.959 . S
C1554 H1539 0.959 . S
C1554 H1540 0.961 . S
C1554 C1553 1.502 . S
C1555 H1541 0.960 . S
C1555 H1542 0.961 . S
C1555 H1543 0.959 1_455 S
C1555 C1553 1.561 . S
C1556 C1553 1.526 . S
C1556 C1557 1.396 1_445 S
C1556 C1561 1.390 . S
C1557 C1551 1.465 . S
C1557 C1556 1.396 1_665 S
C1557 C1558 1.399 . S
C1558 H1544 0.929 . S
C1558 C1557 1.399 . S
C1558 C1559 1.385 . S
C1559 H1545 0.931 . S
C1559 C1558 1.385 . S
C1559 C1560 1.389 1_655 S
C1560 C1559 1.389 1_455 S
C1560 C1561 1.387 1_565 S
C1561 H1546 0.930 . S
C1561 C1556 1.390 . S
C1561 C1560 1.387 1_545 S
H1562 C1574 0.931 1_545 S
H1563 C1576 0.930 . S
H1564 C1577 0.930 . S
H1565 C1581 0.932 1_565 S
H1566 C1581 0.959 . S
H1567 C1581 0.961 . S
H1568 C1582 0.960 . S
H1569 C1582 0.961 . S
H1570 C1582 0.959 . S
H1571 C1585 0.929 . S
H1572 C1586 0.931 1_565 S
H1573 C1588 0.930 . S
C1574 H1562 0.931 1_565 S
C1574 C1575 1.398 . S
C1574 C1579 1.399 1_565 S
C1575 C1574 1.398 . S
C1575 C1576 1.376 . S
C1576 H1563 0.930 . S
C1576 C1575 1.376 . S
C1576 C1577 1.388 . S
C1577 H1564 0.930 . S
C1577 C1576 1.388 . S
C1577 C1578 1.390 . S
C1578 C1577 1.390 . S
C1578 C1579 1.394 1_565 S
C1578 C1584 1.467 . S
C1579 C1574 1.399 1_545 S
C1579 C1578 1.394 1_545 S
C1579 C1580 1.516 . S
C1580 C1579 1.516 . S
C1580 C1581 1.502 . S
C1580 C1582 1.561 . S
C1580 C1583 1.526 . S
C1581 H1565 0.932 1_545 S
C1581 H1566 0.959 . S
C1581 H1567 0.961 . S
C1581 C1580 1.502 . S
C1582 H1568 0.960 . S
C1582 H1569 0.961 . S
C1582 H1570 0.959 . S
C1582 C1580 1.561 . S
C1583 C1580 1.526 . S
C1583 C1584 1.392 1_545 S
C1583 C1588 1.390 . S
C1584 C1578 1.467 . S
C1584 C1583 1.392 1_565 S
C1584 C1585 1.400 . S
C1585 H1571 0.929 . S
C1585 C1584 1.400 . S
C1585 C1586 1.385 1_565 S
C1586 H1572 0.931 1_545 S
C1586 C1585 1.385 1_545 S
C1586 C1587 1.389 . S
C1587 C1586 1.389 . S
C1587 C1588 1.387 . S
C1588 H1573 0.930 . S
C1588 C1583 1.390 . S
C1588 C1587 1.387 . S
H1589 C1601 0.930 . S
H1590 C1603 0.930 . S
H1591 C1604 0.930 . S
H1592 C1608 0.959 . S
H1593 C1608 0.959 . S
H1594 C1608 0.961 . S
H1595 C1609 0.960 . S
H1596 C1609 0.961 . S
H1597 C1609 0.959 . S
H1598 C1612 0.929 . S
H1599 C1613 0.931 . S
H1600 C1615 0.930 . S
C1601 H1589 0.930 . S
C1601 C1602 1.399 . S
C1601 C1606 1.399 . S
C1602 C1601 1.399 . S
C1602 C1603 1.376 . S
C1603 H1590 0.930 . S
C1603 C1602 1.376 . S
C1603 C1604 1.388 . S
C1604 H1591 0.930 . S
C1604 C1603 1.388 . S
C1604 C1605 1.390 . S
C1605 C1604 1.390 . S
C1605 C1606 1.394 . S
C1605 C1611 1.465 . S
C1606 C1601 1.399 . S
C1606 C1605 1.394 . S
C1606 C1607 1.516 . S
C1607 C1606 1.516 . S
C1607 C1608 1.502 . S
C1607 C1609 1.561 . S
C1607 C1610 1.526 . S
C1608 H1592 0.959 . S
C1608 H1593 0.959 . S
C1608 H1594 0.961 . S
C1608 C1607 1.502 . S
C1609 H1595 0.960 . S
C1609 H1596 0.961 . S
C1609 H1597 0.959 . S
C1609 C1607 1.561 . S
C1610 C1607 1.526 . S
C1610 C1611 1.396 . S
C1610 C1615 1.390 . S
C1611 C1605 1.465 . S
C1611 C1610 1.396 . S
C1611 C1612 1.399 . S
C1612 H1598 0.929 . S
C1612 C1611 1.399 . S
C1612 C1613 1.385 . S
C1613 H1599 0.931 . S
C1613 C1612 1.385 . S
C1613 C1614 1.389 . S
C1614 C1613 1.389 . S
C1614 C1615 1.387 . S
C1615 H1600 0.930 . S
C1615 C1610 1.390 . S
C1615 C1614 1.387 . S
C333 C77 2.887 . S
C345 C8 3.006 . S
C360 C17 2.882 . S
C372 C28 3.004 . S
C387 C57 3.005 . S
C399 C37 2.896 . S
C414 C48 2.873 . S
C426 C68 2.998 . S
C441 C88 2.992 . S
C453 C117 2.866 . S
C468 C108 2.979 . S
C480 C137 2.849 . S
C495 C128 3.010 . S
C507 C157 2.898 . S
C522 C97 2.886 . S
C534 C148 3.006 . S
C549 C168 3.009 . S
C561 C237 2.880 . S
C576 C177 2.893 . S
C588 C188 2.990 . S
C603 C197 2.843 . S
C615 C208 2.987 . S
C630 C217 2.893 . S
C642 C228 2.990 . S
C657 C248 3.006 . S
C669 C277 2.869 . S
C684 C297 2.896 . S
C696 C268 2.993 . S
C711 C317 2.852 . S
C723 C288 2.996 . S
C738 C308 3.006 . S
C750 C257 2.870 . S
C765 C2 2.113 . S
C777 C82 2.122 . S
C792 C102 2.125 . S
C804 C22 2.110 . S
C819 C53 2.107 . S
C831 C122 2.128 . S
C846 C62 2.110 . S
C858 C142 2.128 . S
C873 C242 2.117 . S
C885 C162 2.130 . S
C900 C262 2.129 . S
C912 C182 2.117 . S
C927 C202 2.123 . S
C939 C282 2.106 . S
C954 C302 2.107 . S
C966 C222 2.120 . S
C981 C14 1.317 . S
C993 C45 1.289 . S
C1008 C34 1.322 . S
C1020 C74 1.284 . S
C1035 C134 1.301 . S
C1047 C94 1.308 . S
C1062 C154 1.322 . S
C1074 C114 1.285 . S
C1089 C214 1.322 . S
C1101 C174 1.284 . S
C1116 C234 1.321 . S
C1128 C194 1.298 . S
C1143 C254 1.285 . S
C1155 C294 1.311 . S
C1170 C274 1.283 . S
C1182 C314 1.315 . S
C1197 C173 1.602 . S
C1209 C13 1.539 . S
C1224 C193 1.544 . S
C1236 C33 1.604 . S
C1251 C213 1.603 . S
C1263 C42 1.539 . S
C1278 C73 1.560 . S
C1290 C233 1.575 . S
C1305 C253 1.580 . S
C1317 C93 1.575 . S
C1332 C273 1.598 . S
C1344 C113 1.555 . S
C1359 C293 1.605 . S
C1371 C133 1.540 . S
C1386 C313 1.594 . S
C1398 C153 1.544 . S
C1413 C145 0.783 . S
C1425 C5 0.794 . S
C1440 C85 0.799 . S
C1452 C25 0.602 . S
C1467 C105 0.602 . S
C1479 C54 0.637 . S
C1494 C125 0.582 . S
C1506 C65 0.778 . S
C1521 C305 0.591 . S
C1533 C165 0.823 . S
C1548 C245 0.745 . S
C1560 C185 0.770 . S
C1575 C265 0.565 . S
C1587 C205 0.790 . S
C1602 C225 0.606 . S
C1614 C285 0.826 . S
