# Generated by pormake.
# Topology lcs, (4)-cn, num edge types: 1
# Building blocks:
#     Node 0, Type 0, BuildingBlock: KUFVIS_clean_sbu_0, # of connection points: 4
#     Node 1, Type 0, BuildingBlock: KUFVIS_clean_sbu_0, # of connection points: 4
#     Node 2, Type 0, BuildingBlock: KUFVIS_clean_sbu_0, # of connection points: 4
#     Node 3, Type 0, BuildingBlock: KUFVIS_clean_sbu_0, # of connection points: 4
#     Node 4, Type 0, BuildingBlock: KUFVIS_clean_sbu_0, # of connection points: 4
#     Node 5, Type 0, BuildingBlock: KUFVIS_clean_sbu_0, # of connection points: 4
#     Node 6, Type 0, BuildingBlock: KUFVIS_clean_sbu_0, # of connection points: 4
#     Node 7, Type 0, BuildingBlock: KUFVIS_clean_sbu_0, # of connection points: 4
#     Node 8, Type 0, BuildingBlock: KUFVIS_clean_sbu_0, # of connection points: 4
#     Node 9, Type 0, BuildingBlock: KUFVIS_clean_sbu_0, # of connection points: 4
#     Node 10, Type 0, BuildingBlock: KUFVIS_clean_sbu_0, # of connection points: 4
#     Node 11, Type 0, BuildingBlock: KUFVIS_clean_sbu_0, # of connection points: 4
#     Node 12, Type 0, BuildingBlock: KUFVIS_clean_sbu_0, # of connection points: 4
#     Node 13, Type 0, BuildingBlock: KUFVIS_clean_sbu_0, # of connection points: 4
#     Node 14, Type 0, BuildingBlock: KUFVIS_clean_sbu_0, # of connection points: 4
#     Node 15, Type 0, BuildingBlock: KUFVIS_clean_sbu_0, # of connection points: 4
#     Node 16, Type 0, BuildingBlock: KUFVIS_clean_sbu_0, # of connection points: 4
#     Node 17, Type 0, BuildingBlock: KUFVIS_clean_sbu_0, # of connection points: 4
#     Node 18, Type 0, BuildingBlock: KUFVIS_clean_sbu_0, # of connection points: 4
#     Node 19, Type 0, BuildingBlock: KUFVIS_clean_sbu_0, # of connection points: 4
#     Node 20, Type 0, BuildingBlock: KUFVIS_clean_sbu_0, # of connection points: 4
#     Node 21, Type 0, BuildingBlock: KUFVIS_clean_sbu_0, # of connection points: 4
#     Node 22, Type 0, BuildingBlock: KUFVIS_clean_sbu_0, # of connection points: 4
#     Node 23, Type 0, BuildingBlock: KUFVIS_clean_sbu_0, # of connection points: 4
#     Edge 24, Type (0, 0), BuildingBlock: ZUJKAS_clean_linker_0, # of connection points: 2
#     Edge 25, Type (0, 0), BuildingBlock: ZUJKAS_clean_linker_0, # of connection points: 2
#     Edge 26, Type (0, 0), BuildingBlock: ZUJKAS_clean_linker_0, # of connection points: 2
#     Edge 27, Type (0, 0), BuildingBlock: ZUJKAS_clean_linker_0, # of connection points: 2
#     Edge 28, Type (0, 0), BuildingBlock: ZUJKAS_clean_linker_0, # of connection points: 2
#     Edge 29, Type (0, 0), BuildingBlock: ZUJKAS_clean_linker_0, # of connection points: 2
#     Edge 30, Type (0, 0), BuildingBlock: ZUJKAS_clean_linker_0, # of connection points: 2
#     Edge 31, Type (0, 0), BuildingBlock: ZUJKAS_clean_linker_0, # of connection points: 2
#     Edge 32, Type (0, 0), BuildingBlock: ZUJKAS_clean_linker_0, # of connection points: 2
#     Edge 33, Type (0, 0), BuildingBlock: ZUJKAS_clean_linker_0, # of connection points: 2
#     Edge 34, Type (0, 0), BuildingBlock: ZUJKAS_clean_linker_0, # of connection points: 2
#     Edge 35, Type (0, 0), BuildingBlock: ZUJKAS_clean_linker_0, # of connection points: 2
#     Edge 36, Type (0, 0), BuildingBlock: ZUJKAS_clean_linker_0, # of connection points: 2
#     Edge 37, Type (0, 0), BuildingBlock: ZUJKAS_clean_linker_0, # of connection points: 2
#     Edge 38, Type (0, 0), BuildingBlock: ZUJKAS_clean_linker_0, # of connection points: 2
#     Edge 39, Type (0, 0), BuildingBlock: ZUJKAS_clean_linker_0, # of connection points: 2
#     Edge 40, Type (0, 0), BuildingBlock: ZUJKAS_clean_linker_0, # of connection points: 2
#     Edge 41, Type (0, 0), BuildingBlock: ZUJKAS_clean_linker_0, # of connection points: 2
#     Edge 42, Type (0, 0), BuildingBlock: ZUJKAS_clean_linker_0, # of connection points: 2
#     Edge 43, Type (0, 0), BuildingBlock: ZUJKAS_clean_linker_0, # of connection points: 2
#     Edge 44, Type (0, 0), BuildingBlock: ZUJKAS_clean_linker_0, # of connection points: 2
#     Edge 45, Type (0, 0), BuildingBlock: ZUJKAS_clean_linker_0, # of connection points: 2
#     Edge 46, Type (0, 0), BuildingBlock: ZUJKAS_clean_linker_0, # of connection points: 2
#     Edge 47, Type (0, 0), BuildingBlock: ZUJKAS_clean_linker_0, # of connection points: 2
#     Edge 48, Type (0, 0), BuildingBlock: ZUJKAS_clean_linker_0, # of connection points: 2
#     Edge 49, Type (0, 0), BuildingBlock: ZUJKAS_clean_linker_0, # of connection points: 2
#     Edge 50, Type (0, 0), BuildingBlock: ZUJKAS_clean_linker_0, # of connection points: 2
#     Edge 51, Type (0, 0), BuildingBlock: ZUJKAS_clean_linker_0, # of connection points: 2
#     Edge 52, Type (0, 0), BuildingBlock: ZUJKAS_clean_linker_0, # of connection points: 2
#     Edge 53, Type (0, 0), BuildingBlock: ZUJKAS_clean_linker_0, # of connection points: 2
#     Edge 54, Type (0, 0), BuildingBlock: ZUJKAS_clean_linker_0, # of connection points: 2
#     Edge 55, Type (0, 0), BuildingBlock: ZUJKAS_clean_linker_0, # of connection points: 2
#     Edge 56, Type (0, 0), BuildingBlock: ZUJKAS_clean_linker_0, # of connection points: 2
#     Edge 57, Type (0, 0), BuildingBlock: ZUJKAS_clean_linker_0, # of connection points: 2
#     Edge 58, Type (0, 0), BuildingBlock: ZUJKAS_clean_linker_0, # of connection points: 2
#     Edge 59, Type (0, 0), BuildingBlock: ZUJKAS_clean_linker_0, # of connection points: 2
#     Edge 60, Type (0, 0), BuildingBlock: ZUJKAS_clean_linker_0, # of connection points: 2
#     Edge 61, Type (0, 0), BuildingBlock: ZUJKAS_clean_linker_0, # of connection points: 2
#     Edge 62, Type (0, 0), BuildingBlock: ZUJKAS_clean_linker_0, # of connection points: 2
#     Edge 63, Type (0, 0), BuildingBlock: ZUJKAS_clean_linker_0, # of connection points: 2
#     Edge 64, Type (0, 0), BuildingBlock: ZUJKAS_clean_linker_0, # of connection points: 2
#     Edge 65, Type (0, 0), BuildingBlock: ZUJKAS_clean_linker_0, # of connection points: 2
#     Edge 66, Type (0, 0), BuildingBlock: ZUJKAS_clean_linker_0, # of connection points: 2
#     Edge 67, Type (0, 0), BuildingBlock: ZUJKAS_clean_linker_0, # of connection points: 2
#     Edge 68, Type (0, 0), BuildingBlock: ZUJKAS_clean_linker_0, # of connection points: 2
#     Edge 69, Type (0, 0), BuildingBlock: ZUJKAS_clean_linker_0, # of connection points: 2
#     Edge 70, Type (0, 0), BuildingBlock: ZUJKAS_clean_linker_0, # of connection points: 2
#     Edge 71, Type (0, 0), BuildingBlock: ZUJKAS_clean_linker_0, # of connection points: 2
# Relax obj value: 0.011
# Max RMSD: 0.061
# Mean RMSD: 0.054
data_MOF--net-lcs--node1-KUFVIS_clean_sbu_0--edge1-ZUJKAS_clean_linker_0
_symmetry_space_group_name_H-M    P1
_symmetry_Int_Tables_number       1
_symmetry_cell_setting            triclinic
loop_
_symmetry_equiv_pos_as_xyz
'x, y, z'
_cell_length_a     62.901582
_cell_length_b     63.771367
_cell_length_c     63.761274
_cell_angle_alpha  90.361437
_cell_angle_beta   90.942188
_cell_angle_gamma 90.982221
loop_
_atom_site_label
_atom_site_type_symbol
_atom_site_fract_x
_atom_site_fract_y
_atom_site_fract_z
_atom_type_partial_charge
Mn0 Mn 0.01082 0.26392 0.38367 0.0
Mn1 Mn 0.02842 0.29301 0.42489 0.0
C2 C 0.04375 0.2572 0.39869 0.0
C3 C 0.99094 0.23543 0.37041 0.0
C4 C 0.02818 0.30856 0.37997 0.0
O5 O 0.98415 0.27856 0.39369 0.0
O6 O 0.9969 0.29376 0.4234 0.0
C7 C 0.0113 0.26745 0.45954 0.0
N8 N 0.02814 0.27678 0.44995 0.0
C9 C 0.05224 0.26565 0.4772 0.0
C10 C 0.03515 0.25599 0.48743 0.0
C11 C 0.0146 0.25682 0.47851 0.0
C12 C 0.048 0.27588 0.45827 0.0
H13 H 0.99548 0.26812 0.45275 0.0
C14 C 0.98161 0.28887 0.41069 0.0
O15 O 0.99513 0.2517 0.35895 0.0
O16 O 0.9979 0.23594 0.38967 0.0
N17 N 0.05867 0.2936 0.42834 0.0
C18 C 0.07352 0.30299 0.41604 0.0
C19 C 0.09489 0.30363 0.42273 0.0
C20 C 0.10072 0.2948 0.44206 0.0
C21 C 0.0852 0.285 0.45434 0.0
C22 C 0.06414 0.285 0.44694 0.0
H23 H 0.0691 0.31012 0.40134 0.0
O24 O 0.03907 0.2507 0.37982 0.0
O25 O 0.02879 0.267 0.40838 0.0
O26 O 0.02224 0.29134 0.37128 0.0
O27 O 0.02981 0.31114 0.39982 0.0
C28 C 0.08977 0.27527 0.47364 0.0
C29 C 0.07334 0.26543 0.48497 0.0
H30 H 0.03762 0.24782 0.50209 0.0
H31 H 1.00134 0.24934 0.48627 0.0
H32 H 0.1068 0.31112 0.41313 0.0
H33 H 0.11718 0.29565 0.44728 0.0
H34 H 0.1059 0.27508 0.47984 0.0
H35 H 0.07711 0.25774 0.49963 0.0
Mn36 Mn 0.01943 0.76356 0.63772 0.0
Mn37 Mn 0.994 0.78357 0.67948 0.0
C38 C 0.02928 0.79629 0.65086 0.0
C39 C 0.04634 0.74293 0.62379 0.0
C40 C 0.97552 0.78386 0.63527 0.0
O41 O 0.00393 0.73793 0.64958 0.0
O42 O 0.98903 0.75276 0.67774 0.0
C43 C 0.01947 0.76337 0.7129 0.0
N44 N 0.01169 0.78105 0.70394 0.0
C45 C 0.02749 0.80279 0.73115 0.0
C46 C 0.03557 0.78481 0.74075 0.0
C47 C 0.03161 0.76503 0.73154 0.0
C48 C 0.01558 0.80017 0.71255 0.0
H49 H 0.0164 0.74813 0.7059 0.0
C50 C 0.99284 0.73683 0.66615 0.0
O51 O 0.0292 0.74702 0.61305 0.0
O52 O 0.04755 0.75036 0.64277 0.0
N53 N 0.99732 0.81321 0.68353 0.0
C54 C 0.98905 0.82905 0.67188 0.0
C55 C 0.99205 0.8499 0.67867 0.0
C56 C 1.00317 0.85423 0.69754 0.0
C57 C 0.01119 0.83764 0.70945 0.0
C58 C 0.00779 0.8172 0.70185 0.0
H59 H 0.98032 0.8258 0.65746 0.0
O60 O 0.03408 0.79086 0.63191 0.0
O61 O 0.01928 0.7822 0.66185 0.0
O62 O 0.99122 0.77526 0.62632 0.0
O63 O 0.9748 0.78726 0.65501 0.0
C64 C 0.02257 0.8406 0.72849 0.0
C65 C 0.03087 0.8232 0.73924 0.0
H66 H 0.04492 0.78602 0.75515 0.0
H67 H 0.03786 0.75108 0.73881 0.0
H68 H 0.98577 0.86261 0.66941 0.0
H69 H 0.00551 0.87033 0.70269 0.0
H70 H 0.02519 0.85619 0.73494 0.0
H71 H 0.03988 0.82571 0.75369 0.0
Mn72 Mn 0.51052 0.76147 0.8827 0.0
Mn73 Mn 0.53114 0.78883 0.92392 0.0
C74 C 0.54419 0.75411 0.89515 0.0
C75 C 0.48989 0.73352 0.86965 0.0
C76 C 0.52858 0.80609 0.87976 0.0
O77 O 0.4847 0.77549 0.89517 0.0
O78 O 0.4996 0.79086 0.92386 0.0
C79 C 0.51457 0.76243 0.9582 0.0
N80 N 0.53134 0.77146 0.94823 0.0
C81 C 0.55621 0.75695 0.97303 0.0
C82 C 0.5392 0.7476 0.98365 0.0
C83 C 0.51829 0.75032 0.97617 0.0
C84 C 0.55152 0.76888 0.95524 0.0
H85 H 0.49849 0.76443 0.95245 0.0
C86 C 0.48344 0.78606 0.91217 0.0
O87 O 0.49296 0.75034 0.85866 0.0
O88 O 0.49834 0.73316 0.88833 0.0
N89 N 0.56151 0.78816 0.92604 0.0
C90 C 0.57617 0.7976 0.91356 0.0
C91 C 0.59788 0.7962 0.91873 0.0
C92 C 0.60428 0.78525 0.93674 0.0
C93 C 0.58891 0.77578 0.94942 0.0
C94 C 0.56749 0.77789 0.9436 0.0
H95 H 0.57136 0.8061 0.89974 0.0
O96 O 0.53835 0.74852 0.87629 0.0
O97 O 0.52999 0.76352 0.90626 0.0
O98 O 0.52107 0.78951 0.87089 0.0
O99 O 0.53211 0.80779 0.8995 0.0
C100 C 0.59399 0.76413 0.96747 0.0
C101 C 0.57766 0.75466 0.97922 0.0
H102 H 0.542 0.73819 0.99747 0.0
H103 H 0.50509 0.74306 0.98422 0.0
H104 H 0.60966 0.80354 0.90887 0.0
H105 H 0.62105 0.7842 0.94065 0.0
H106 H 0.61041 0.76216 0.97232 0.0
H107 H 0.58177 0.74552 0.99292 0.0
Mn108 Mn 0.52059 0.26407 0.13572 0.0
Mn109 Mn 0.4957 0.28597 0.17682 0.0
C110 C 0.53131 0.29689 0.14782 0.0
C111 C 0.54705 0.24242 0.1226 0.0
C112 C 0.47684 0.28432 0.13271 0.0
O113 O 0.50456 0.23931 0.1486 0.0
O114 O 0.49092 0.25504 0.177 0.0
C115 C 0.52145 0.26819 0.21144 0.0
N116 N 0.51358 0.28519 0.2013 0.0
C117 C 0.5302 0.30882 0.22642 0.0
C118 C 0.53837 0.29157 0.23722 0.0
C119 C 0.53401 0.27117 0.22967 0.0
C120 C 0.51769 0.30488 0.20841 0.0
H121 H 0.51817 0.2525 0.20565 0.0
C122 C 0.49416 0.23877 0.16565 0.0
O123 O 0.53 0.24644 0.11168 0.0
O124 O 0.54839 0.25048 0.14131 0.0
N125 N 0.49906 0.31582 0.17873 0.0
C126 C 0.49105 0.33078 0.1658 0.0
C127 C 0.49455 0.35206 0.17076 0.0
C128 C 0.50609 0.35773 0.18904 0.0
C129 C 0.514 0.34206 0.20221 0.0
C130 C 0.50987 0.32111 0.19653 0.0
H131 H 0.48216 0.32653 0.15173 0.0
O132 O 0.53588 0.29082 0.129 0.0
O133 O 0.52086 0.28344 0.15916 0.0
O134 O 0.49266 0.27589 0.12385 0.0
O135 O 0.47614 0.28802 0.15239 0.0
C136 C 0.52622 0.34639 0.22049 0.0
C137 C 0.53434 0.32979 0.23257 0.0
H138 H 0.54816 0.2938 0.25121 0.0
H139 H 0.54034 0.25778 0.23786 0.0
H140 H 0.48843 0.36407 0.1605 0.0
H141 H 0.5089 0.37416 0.19273 0.0
H142 H 0.52975 0.36244 0.22521 0.0
H143 H 0.54397 0.33332 0.24642 0.0
Mn144 Mn 0.00741 0.76042 0.13082 0.0
Mn145 Mn 0.98278 0.78438 0.09033 0.0
C146 C 0.97486 0.74751 0.11869 0.0
C147 C 0.03147 0.73545 0.14277 0.0
C148 C 0.98511 0.80219 0.13481 0.0
O149 O 0.03078 0.77867 0.11825 0.0
O150 O 0.01403 0.78983 0.08882 0.0
C151 C 0.99936 0.76071 0.05419 0.0
N152 N 0.98259 0.76781 0.06526 0.0
C153 C 0.95759 0.75299 0.04006 0.0
C154 C 0.97462 0.74575 0.02825 0.0
C155 C 0.99559 0.74955 0.0354 0.0
C156 C 0.96233 0.76425 0.05852 0.0
H157 H 0.01546 0.76347 0.05973 0.0
C158 C 0.0306 0.78809 0.10064 0.0
O159 O 0.02648 0.75141 0.15436 0.0
O160 O 0.02309 0.73449 0.12408 0.0
N161 N 0.95258 0.78005 0.08983 0.0
C162 C 0.93806 0.78582 0.10431 0.0
C163 C 0.91635 0.78171 0.10037 0.0
C164 C 0.90978 0.77183 0.08155 0.0
C165 C 0.925 0.76609 0.06685 0.0
C166 C 0.94641 0.77067 0.0716 0.0
H167 H 0.94301 0.79338 0.11883 0.0
O168 O 0.98175 0.74305 0.13739 0.0
O169 O 0.98734 0.75932 0.10751 0.0
O170 O 0.99387 0.78654 0.14358 0.0
O171 O 0.98139 0.80306 0.11509 0.0
C172 C 0.91983 0.75537 0.04801 0.0
C173 C 0.93611 0.74886 0.0346 0.0
H174 H 0.97178 0.73694 0.01387 0.0
H175 H 0.00881 0.74383 0.02648 0.0
H176 H 0.90471 0.78609 0.11184 0.0
H177 H 0.89304 0.76848 0.07867 0.0
H178 H 0.90341 0.7516 0.04393 0.0
H179 H 0.93196 0.7402 0.02041 0.0
Mn180 Mn 0.51339 0.76104 0.38136 0.0
Mn181 Mn 0.5056 0.79145 0.42407 0.0
C182 C 0.54099 0.78172 0.39489 0.0
C183 C 0.52243 0.72897 0.36617 0.0
C184 C 0.49002 0.80284 0.38038 0.0
O185 O 0.48593 0.74886 0.39336 0.0
O186 O 0.48349 0.76877 0.42252 0.0
C187 C 0.51538 0.76017 0.4568 0.0
N188 N 0.51917 0.77922 0.44796 0.0
C189 C 0.54625 0.78771 0.47389 0.0
C190 C 0.54254 0.76822 0.48335 0.0
C191 C 0.52708 0.75438 0.47473 0.0
C192 C 0.53409 0.79262 0.45606 0.0
H193 H 0.50354 0.74947 0.45018 0.0
C194 C 0.47683 0.75384 0.41042 0.0
O195 O 0.51098 0.74247 0.35609 0.0
O196 O 0.52804 0.73383 0.38529 0.0
N197 N 0.52579 0.81401 0.42776 0.0
C198 C 0.52792 0.83189 0.41633 0.0
C199 C 0.54284 0.84735 0.42276 0.0
C200 C 0.55527 0.84436 0.44096 0.0
C201 C 0.55273 0.82589 0.45253 0.0
C202 C 0.53743 0.81115 0.44549 0.0
H203 H 0.51832 0.83435 0.4024 0.0
O204 O 0.54136 0.77503 0.37565 0.0
O205 O 0.52464 0.77586 0.40576 0.0
O206 O 0.49763 0.78701 0.37092 0.0
O207 O 0.49161 0.8056 0.40022 0.0
C208 C 0.56492 0.82143 0.47064 0.0
C209 C 0.56174 0.80232 0.48127 0.0
H210 H 0.55157 0.76367 0.49715 0.0
H211 H 0.5242 0.73927 0.48189 0.0
H212 H 0.54472 0.86156 0.41374 0.0
H213 H 0.56672 0.85634 0.44588 0.0
H214 H 0.57697 0.83248 0.47637 0.0
H215 H 0.5714 0.79895 0.49502 0.0
Mn216 Mn 0.5051 0.25899 0.63566 0.0
Mn217 Mn 0.48299 0.28245 0.59366 0.0
C218 C 0.47189 0.24791 0.62346 0.0
C219 C 0.52783 0.23325 0.64844 0.0
C220 C 0.48549 0.30221 0.63731 0.0
O221 O 0.52975 0.27547 0.62299 0.0
O222 O 0.51445 0.28574 0.59256 0.0
C223 C 0.49868 0.25472 0.56008 0.0
N224 N 0.4822 0.26385 0.57004 0.0
C225 C 0.45674 0.24787 0.54601 0.0
C226 C 0.47347 0.23849 0.53535 0.0
C227 C 0.49451 0.24186 0.54248 0.0
C228 C 0.46187 0.2605 0.56348 0.0
H229 H 0.51485 0.25718 0.5656 0.0
C230 C 0.53059 0.28388 0.6049 0.0
O231 O 0.52344 0.24965 0.65968 0.0
O232 O 0.51932 0.2321 0.62981 0.0
N233 N 0.4526 0.28031 0.59259 0.0
C234 C 0.43824 0.28965 0.60525 0.0
C235 C 0.41644 0.28759 0.60047 0.0
C236 C 0.40962 0.27611 0.58267 0.0
C237 C 0.42467 0.26661 0.56988 0.0
C238 C 0.4462 0.26938 0.57532 0.0
H239 H 0.44337 0.2987 0.61883 0.0
O240 O 0.47818 0.24331 0.64232 0.0
O241 O 0.48541 0.25838 0.61227 0.0
O242 O 0.49287 0.28635 0.64698 0.0
O243 O 0.4825 0.30262 0.61741 0.0
C244 C 0.41916 0.2544 0.55205 0.0
C245 C 0.43518 0.24492 0.54021 0.0
H246 H 0.47032 0.22852 0.5218 0.0
H247 H 0.50749 0.23454 0.53444 0.0
H248 H 0.40491 0.29493 0.61043 0.0
H249 H 0.39279 0.27469 0.57899 0.0
H250 H 0.40264 0.25199 0.54745 0.0
H251 H 0.43072 0.23528 0.52674 0.0
Mn252 Mn 0.01252 0.26144 0.88055 0.0
Mn253 Mn 0.00597 0.2911 0.92404 0.0
C254 C 0.04054 0.28172 0.89387 0.0
C255 C 0.02112 0.22967 0.86447 0.0
C256 C 0.98984 0.3037 0.88093 0.0
O257 O 0.98534 0.24908 0.89287 0.0
O258 O 0.98328 0.26901 0.92203 0.0
C259 C 0.01523 0.25854 0.95564 0.0
N260 N 0.01938 0.27781 0.94742 0.0
C261 C 0.04666 0.28494 0.97353 0.0
C262 C 0.04259 0.26522 0.98236 0.0
C263 C 0.02684 0.25195 0.97333 0.0
C264 C 0.03459 0.29065 0.95589 0.0
H265 H 1.00316 0.24828 0.94873 0.0
C266 C 0.97637 0.25416 0.90995 0.0
O267 O 0.00949 0.2434 0.85492 0.0
O268 O 0.02717 0.23413 0.88356 0.0
N269 N 0.0267 0.3131 0.92832 0.0
C270 C 0.02913 0.33133 0.91751 0.0
C271 C 0.04428 0.34635 0.92448 0.0
C272 C 0.05662 0.34256 0.94256 0.0
C273 C 0.0538 0.32372 0.95347 0.0
C274 C 0.03827 0.30945 0.94593 0.0
H275 H 0.01961 0.3344 0.90367 0.0
O276 O 0.04036 0.27548 0.87446 0.0
O277 O 0.02445 0.27569 0.90504 0.0
O278 O 0.99651 0.28767 0.87107 0.0
O279 O 0.99227 0.30629 0.90071 0.0
C280 C 0.06591 0.31846 0.9714 0.0
C281 C 0.06241 0.29904 0.98136 0.0
H282 H 0.05153 0.26006 0.99598 0.0
H283 H 0.02367 0.23667 0.98 0.0
H284 H 0.04639 0.36084 0.91596 0.0
H285 H 0.06821 0.35422 0.94794 0.0
H286 H 0.07813 0.32912 0.9775 0.0
H287 H 0.072 0.29505 0.99498 0.0
Mn288 Mn 0.38595 0.01327 0.24886 0.0
Mn289 Mn 0.34257 0.98173 0.25361 0.0
C290 C 0.3736 0.99387 0.22032 0.0
C291 C 0.4012 0.04611 0.24172 0.0
C292 C 0.38632 0.97036 0.2703 0.0
O293 O 0.37267 0.02378 0.27583 0.0
O294 O 0.34322 1.00318 0.27647 0.0
C295 C 0.30931 0.0128 0.24445 0.0
N296 N 0.3186 0.99417 0.24012 0.0
C297 C 0.29288 0.98641 0.21268 0.0
C298 C 0.28295 0.00546 0.21694 0.0
C299 C 0.29124 0.01873 0.23286 0.0
C300 C 0.31078 0.98129 0.22483 0.0
H301 H 0.31567 0.02305 0.25666 0.0
C302 C 0.35516 0.01797 0.28404 0.0
O303 O 0.41126 0.03232 0.25283 0.0
O304 O 0.38209 0.04105 0.23537 0.0
N305 N 0.33969 0.96026 0.23258 0.0
C306 C 0.35191 0.94309 0.2296 0.0
C307 C 0.3462 0.92853 0.21378 0.0
C308 C 0.3279 0.93167 0.20135 0.0
C309 C 0.31545 0.94934 0.20487 0.0
C310 C 0.32186 0.96324 0.22094 0.0
H311 H 0.36597 0.94058 0.23913 0.0
O312 O 0.39307 1.0009 0.22112 0.0
O313 O 0.36175 0.99862 0.23617 0.0
O314 O 0.39618 0.98672 0.26387 0.0
O315 O 0.36634 0.9673 0.26756 0.0
C316 C 0.29723 0.95396 0.19273 0.0
C317 C 0.28597 0.9725 0.19661 0.0
H318 H 0.26907 0.01014 0.20797 0.0
H319 H 0.28372 0.0335 0.23617 0.0
H320 H 0.35591 0.91495 0.21114 0.0
H321 H 0.32364 0.9205 0.18906 0.0
H322 H 0.29195 0.94355 0.18013 0.0
H323 H 0.27218 0.97605 0.18696 0.0
Mn324 Mn 0.26081 0.1373 0.50584 0.0
Mn325 Mn 0.28035 0.17846 0.47881 0.0
C326 C 0.29323 0.15263 0.51542 0.0
C327 C 0.24004 0.12401 0.53298 0.0
C328 C 0.28245 0.13359 0.46314 0.0
O329 O 0.23468 0.14728 0.48973 0.0
O330 O 0.24939 0.17481 0.47302 0.0
C331 C 0.25763 0.21214 0.50085 0.0
N332 N 0.27618 0.20358 0.49457 0.0
C333 C 0.2965 0.23314 0.50802 0.0
C334 C 0.27762 0.24232 0.5146 0.0
C335 C 0.25811 0.23169 0.51114 0.0
C336 C 0.29507 0.21342 0.49831 0.0
H337 H 0.24258 0.20416 0.49794 0.0
C338 C 0.23348 0.16292 0.47741 0.0
O339 O 0.24478 0.11249 0.51689 0.0
O340 O 0.24697 0.14327 0.53301 0.0
N341 N 0.3101 0.18415 0.48287 0.0
C342 C 0.32687 0.17312 0.47564 0.0
C343 C 0.34759 0.18141 0.47821 0.0
C344 C 0.35079 0.2012 0.48764 0.0
C345 C 0.33324 0.21248 0.49449 0.0
C346 C 0.31302 0.20322 0.49194 0.0
H347 H 0.32448 0.15807 0.46804 0.0
O348 O 0.28858 0.13359 0.52098 0.0
O349 O 0.27869 0.16223 0.50466 0.0
O350 O 0.27312 0.1251 0.47869 0.0
O351 O 0.28581 0.15333 0.46171 0.0
C352 C 0.33498 0.23269 0.50346 0.0
C353 C 0.31666 0.24291 0.51047 0.0
H354 H 0.2779 0.25752 0.52229 0.0
H355 H 0.24346 0.23865 0.51618 0.0
H356 H 0.36103 0.17267 0.47275 0.0
H357 H 0.36676 0.20765 0.4894 0.0
H358 H 0.3504 0.24035 0.50544 0.0
H359 H 0.31826 0.25827 0.51773 0.0
Mn360 Mn 0.13672 0.0217 0.75906 0.0
Mn361 Mn 0.18098 0.99365 0.75072 0.0
C362 C 0.15187 1.00285 0.78628 0.0
C363 C 0.12007 0.05302 0.76785 0.0
C364 C 0.13685 0.97858 0.73728 0.0
O365 O 0.14739 0.03358 0.73142 0.0
O366 O 0.17697 0.01461 0.72813 0.0
C367 C 0.21258 0.02812 0.75715 0.0
N368 N 0.20511 0.00863 0.76209 0.0
C369 C 0.23425 1.00336 0.78628 0.0
C370 C 0.24233 0.02334 0.78138 0.0
C371 C 0.23139 0.03581 0.76682 0.0
C372 C 0.21537 0.99661 0.77626 0.0
H373 H 0.20427 0.0377 0.74589 0.0
C374 C 0.16419 0.02869 0.72168 0.0
O375 O 0.11024 0.0384 0.75703 0.0
O376 O 0.13976 0.0497 0.77303 0.0
N377 N 0.18736 0.97271 0.77113 0.0
C378 C 0.17708 0.95411 0.77461 0.0
C379 C 0.18576 0.93992 0.78902 0.0
C380 C 0.20511 0.94482 0.79938 0.0
C381 C 0.21557 0.96393 0.7953 0.0
C382 C 0.20611 0.97747 0.78084 0.0
H383 H 0.16234 0.95014 0.76649 0.0
O384 O 0.13216 0.00841 0.78691 0.0
O385 O 0.16243 0.00885 0.7699 0.0
O386 O 0.12694 0.99452 0.74404 0.0
O387 O 0.15701 0.97679 0.73891 0.0
C388 C 0.23492 0.97014 0.80513 0.0
C389 C 0.24416 0.98992 0.80076 0.0
H390 H 0.25687 0.0293 0.78875 0.0
H391 H 0.23748 0.05126 0.763 0.0
H392 H 0.17761 0.9252 0.79206 0.0
H393 H 0.21176 0.93381 0.81045 0.0
H394 H 0.24277 0.95992 0.8162 0.0
H395 H 0.25887 0.99464 0.80864 0.0
Mn396 Mn 0.25562 0.8892 0.00761 0.0
Mn397 Mn 0.23254 0.84846 0.98128 0.0
C398 C 0.22204 0.87769 0.01658 0.0
C399 C 0.27746 0.90212 0.03478 0.0
C400 C 0.23534 0.89252 0.96375 0.0
O401 O 0.28049 0.87585 0.99291 0.0
O402 O 0.26392 0.84817 0.97729 0.0
C403 C 0.25033 0.81366 0.00614 0.0
N404 N 0.23317 0.82387 0.99824 0.0
C405 C 0.20902 0.79869 0.0133 0.0
C406 C 0.22644 0.78782 0.02148 0.0
C407 C 0.24718 0.79536 0.01792 0.0
C408 C 0.21314 0.81676 1.00157 0.0
H409 H 0.26629 0.81944 1.0035 0.0
C410 C 0.28068 0.85913 0.9818 0.0
O411 O 0.27418 0.91293 0.01788 0.0
O412 O 0.26858 0.88365 0.03562 0.0
N413 N 0.20228 0.84661 0.98384 0.0
C414 C 0.18721 0.85971 0.97609 0.0
C415 C 0.16561 0.85483 0.97898 0.0
C416 C 0.15972 0.83647 0.98963 0.0
C417 C 0.1755 0.82313 0.99729 0.0
C418 C 0.19677 0.82873 0.99382 0.0
H419 H 0.19165 0.87385 0.96791 0.0
O420 O 0.22854 0.89655 0.02145 0.0
O421 O 0.23545 0.86605 0.00666 0.0
O422 O 0.24461 0.90105 0.97968 0.0
O423 O 0.23058 0.87299 0.96267 0.0
C424 C 0.17097 0.80477 0.00868 0.0
C425 C 0.18772 0.79257 0.0167 0.0
H426 H 0.22408 0.77377 0.03068 0.0
H427 H 0.2607 0.78711 0.02428 0.0
H428 H 0.15352 0.86523 0.97307 0.0
H429 H 0.14304 0.83285 0.99199 0.0
H430 H 0.15467 0.8001 0.01169 0.0
H431 H 0.18404 0.77868 0.02572 0.0
Mn432 Mn 0.25711 0.38671 0.00912 0.0
Mn433 Mn 0.26523 0.34289 0.98045 0.0
C434 C 0.2296 0.37228 0.98883 0.0
C435 C 0.24802 0.40289 0.04069 0.0
C436 C 0.28024 0.3863 0.96722 0.0
O437 O 0.28492 0.37569 0.02156 0.0
O438 O 0.28711 0.34555 1.00318 0.0
C439 C 0.25557 0.31165 0.01326 0.0
N440 N 0.25203 0.31935 0.99366 0.0
C441 C 0.2268 0.2916 0.98553 0.0
C442 C 0.23037 0.28321 0.00553 0.0
C443 C 0.24471 0.29337 0.0195 0.0
C444 C 0.23796 0.30995 0.98025 0.0
H445 H 0.26656 0.31943 0.02404 0.0
C446 C 0.29384 0.35832 0.01748 0.0
O447 O 0.25927 0.41265 0.02678 0.0
O448 O 0.24265 0.38356 0.03653 0.0
N449 N 0.24527 0.3378 0.95793 0.0
C450 C 0.24287 0.34847 0.93961 0.0
C451 C 0.22851 0.34078 0.92419 0.0
C452 C 0.21712 0.32199 0.92756 0.0
C453 C 0.22016 0.31108 0.94637 0.0
C454 C 0.23454 0.3196 0.96123 0.0
H455 H 0.25178 0.36277 0.93682 0.0
O456 O 0.22906 0.39166 0.99504 0.0
O457 O 0.24596 0.36166 0.99514 0.0
O458 O 0.27259 0.39629 0.9827 0.0
O459 O 0.27893 0.36635 0.96527 0.0
C460 C 0.2094 0.29215 0.95101 0.0
C461 C 0.21253 0.28254 0.97066 0.0
H462 H 0.22208 0.26907 0.01037 0.0
H463 H 0.24744 0.28708 0.03502 0.0
H464 H 0.2263 0.34926 0.90969 0.0
H465 H 0.20605 0.31611 0.91564 0.0
H466 H 0.19851 0.28495 0.93967 0.0
H467 H 0.20384 0.26822 0.97419 0.0
Mn468 Mn 0.7544 0.13088 0.00763 0.0
Mn469 Mn 0.7799 0.08932 0.98731 0.0
C470 C 0.74449 0.11791 0.97481 0.0
C471 C 0.72733 0.14474 0.02809 0.0
C472 C 0.79813 0.13361 0.98675 0.0
O473 O 0.76959 0.11893 0.03327 0.0
O474 O 0.78547 0.09156 0.01806 0.0
C475 C 0.7552 0.05593 0.00853 0.0
N476 N 0.76273 0.06459 0.99058 0.0
C477 C 0.74741 0.03652 0.96961 0.0
C478 C 0.73961 0.02722 0.98788 0.0
C479 C 0.74346 0.03701 0.00741 0.0
C480 C 0.75902 0.05537 0.97171 0.0
H481 H 0.75814 0.06339 0.02357 0.0
C482 C 0.78129 0.1028 0.03414 0.0
O483 O 0.74454 0.15549 0.02423 0.0
O484 O 0.72615 0.12582 0.02056 0.0
N485 N 0.77616 0.08464 0.95781 0.0
C486 C 0.78376 0.09625 0.94161 0.0
C487 C 0.78101 0.08877 0.92097 0.0
C488 C 0.77065 0.06938 0.91722 0.0
C489 C 0.76295 0.05774 0.93412 0.0
C490 C 0.76638 0.06586 0.95436 0.0
H491 H 0.79187 0.11108 0.94442 0.0
O492 O 0.74 0.13692 0.98033 0.0
O493 O 0.75443 0.10675 0.98882 0.0
O494 O 0.78285 0.14231 0.99632 0.0
O495 O 0.79852 0.11398 0.98274 0.0
C496 C 0.75171 0.03856 0.93166 0.0
C497 C 0.74387 0.028 0.94938 0.0
H498 H 0.7305 0.01266 0.98707 0.0
H499 H 0.73741 0.02998 0.02156 0.0
H500 H 0.7869 0.0979 0.90798 0.0
H501 H 0.76855 0.06366 0.90127 0.0
H502 H 0.74875 0.03194 0.91617 0.0
H503 H 0.73498 0.01342 0.94727 0.0
Mn504 Mn 0.13267 0.51045 0.24821 0.0
Mn505 Mn 0.08866 0.52096 0.27598 0.0
C506 C 0.11723 0.48421 0.26819 0.0
C507 C 0.14892 0.5005 0.21701 0.0
C508 C 0.13314 0.53447 0.28997 0.0
O509 O 0.12255 0.53795 0.23553 0.0
O510 O 0.09238 0.54196 0.25344 0.0
C511 C 0.05633 0.51228 0.24266 0.0
N512 N 0.06407 0.50886 0.26238 0.0
C513 C 0.03462 0.4858 0.27018 0.0
C514 C 0.02625 0.48916 0.24998 0.0
C515 C 0.0372 0.50239 0.23614 0.0
C516 C 0.05374 0.49607 0.27578 0.0
H517 H 0.06469 0.52249 0.23202 0.0
C518 C 0.10556 0.54781 0.23945 0.0
O519 O 0.15903 0.51152 0.23129 0.0
O520 O 0.12917 0.49572 0.22062 0.0
N521 N 0.08257 0.50222 0.29846 0.0
C522 C 0.09339 0.49977 0.31694 0.0
C523 C 0.08472 0.48685 0.33248 0.0
C524 C 0.06498 0.47669 0.32891 0.0
C525 C 0.05412 0.47949 0.3098 0.0
C526 C 0.0634 0.49278 0.29502 0.0
H527 H 0.10847 0.5077 0.31985 0.0
O528 O 0.13681 0.48302 0.26229 0.0
O529 O 0.10685 0.50057 0.26173 0.0
O530 O 0.143 0.526 0.27486 0.0
O531 O 0.11294 0.53387 0.29156 0.0
C532 C 0.03462 0.46935 0.3047 0.0
C533 C 0.02492 0.47243 0.28486 0.0
H534 H 0.01151 0.48154 0.24488 0.0
H535 H 0.03088 0.505 0.2205 0.0
H536 H 0.09322 0.48474 0.34719 0.0
H537 H 0.05839 0.46664 0.34089 0.0
H538 H 0.0271 0.45891 0.31579 0.0
H539 H 0.0101 0.4643 0.281 0.0
Mn540 Mn 0.75748 0.88719 0.50994 0.0
Mn541 Mn 0.76584 0.84346 0.48125 0.0
C542 C 0.73015 0.87283 0.48934 0.0
C543 C 0.74799 0.90322 0.54147 0.0
C544 C 0.78133 0.88688 0.46847 0.0
O545 O 0.78512 0.87606 0.52263 0.0
O546 O 0.78741 0.84587 0.50431 0.0
C547 C 0.75558 0.81195 0.51362 0.0
N548 N 0.75231 0.81989 0.49407 0.0
C549 C 0.72699 0.79237 0.48537 0.0
C550 C 0.73026 0.78376 0.50532 0.0
C551 C 0.74452 0.79368 0.51955 0.0
C552 C 0.73836 0.81069 0.4804 0.0
H553 H 0.76653 0.81953 0.52459 0.0
C554 C 0.79402 0.85865 0.51867 0.0
O555 O 0.75943 0.91305 0.52776 0.0
O556 O 0.74267 0.88391 0.53714 0.0
N557 N 0.74617 0.8387 0.45844 0.0
C558 C 0.744 0.84962 0.44024 0.0
C559 C 0.72973 0.84221 0.42461 0.0
C560 C 0.71817 0.82346 0.42765 0.0
C561 C 0.72094 0.81231 0.44636 0.0
C562 C 0.73524 0.82055 0.46145 0.0
H563 H 0.75302 0.86391 0.43771 0.0
O564 O 0.72957 0.89221 0.49555 0.0
O565 O 0.74646 0.86221 0.49578 0.0
O566 O 0.77335 0.89688 0.48378 0.0
O567 O 0.77996 0.86694 0.46647 0.0
C568 C 0.70999 0.79341 0.45069 0.0
C569 C 0.71283 0.78357 0.47026 0.0
H570 H 0.7218 0.76963 0.50993 0.0
H571 H 0.74703 0.78721 0.53503 0.0
H572 H 0.72771 0.85088 0.4102 0.0
H573 H 0.70718 0.8178 0.41556 0.0
H574 H 0.69916 0.78642 0.43915 0.0
H575 H 0.70399 0.76928 0.47355 0.0
Mn576 Mn 0.88864 0.01828 0.25965 0.0
Mn577 Mn 0.93273 0.01124 0.28957 0.0
C578 C 0.90233 0.04573 0.27987 0.0
C579 C 0.87286 0.02687 0.22743 0.0
C580 C 0.88886 0.99565 0.30198 0.0
O581 O 0.9006 0.99123 0.24779 0.0
O582 O 0.93042 0.98902 0.26756 0.0
C583 C 0.96481 0.02001 0.25718 0.0
N584 N 0.95657 0.0242 0.27634 0.0
C585 C 0.98391 0.05013 0.28379 0.0
C586 C 0.99278 0.04602 0.26418 0.0
C587 C 0.98313 0.03095 0.25079 0.0
C588 C 0.96559 0.0388 0.28926 0.0
H589 H 0.95747 0.0084 0.24686 0.0
C590 C 0.91793 0.98228 0.25284 0.0
O591 O 0.86276 0.01567 0.24114 0.0
O592 O 0.89222 0.03258 0.23226 0.0
N593 N 0.93743 0.03154 0.31146 0.0
C594 C 0.92639 0.03426 0.32946 0.0
C595 C 0.93363 0.0492 0.34432 0.0
C596 C 0.95232 0.06091 0.34071 0.0
C597 C 0.96361 0.05758 0.32224 0.0
C598 C 0.95558 0.04255 0.30795 0.0
H599 H 0.91212 0.02517 0.3324 0.0
O600 O 0.88273 0.04576 0.27324 0.0
O601 O 0.91358 0.02981 0.27407 0.0
O602 O 0.8788 1.00265 0.28598 0.0
O603 O 0.90897 0.9978 0.30462 0.0
C604 C 0.98242 0.0687 0.31734 0.0
C605 C 0.99246 0.06511 0.29806 0.0
H606 H 0.00693 0.05441 0.25921 0.0
H607 H 0.98983 0.02774 0.2356 0.0
H608 H 0.92484 0.05166 0.35856 0.0
H609 H 0.95781 0.07246 0.35218 0.0
H610 H 0.98921 0.08018 0.32822 0.0
H611 H 0.00672 0.074 0.29435 0.0
Mn612 Mn 0.25258 0.63258 0.50529 0.0
Mn613 Mn 0.27706 0.59064 0.48445 0.0
C614 C 0.24231 0.62018 0.47231 0.0
C615 C 0.22582 0.64656 0.52611 0.0
C616 C 0.29647 0.63459 0.48489 0.0
O617 O 0.26777 0.62005 0.53068 0.0
O618 O 0.28194 0.5918 0.51532 0.0
C619 C 0.25099 0.55728 0.50412 0.0
N620 N 0.25918 0.56626 0.48662 0.0
C621 C 0.2438 0.5391 0.46452 0.0
C622 C 0.23533 0.52946 0.48232 0.0
C623 C 0.23888 0.53864 0.50219 0.0
C624 C 0.25576 0.55765 0.46742 0.0
H625 H 0.25369 0.56429 0.51941 0.0
C626 C 0.27834 0.60315 0.53147 0.0
O627 O 0.24317 0.65712 0.5223 0.0
O628 O 0.22434 0.62776 0.5183 0.0
N629 N 0.2738 0.58699 0.45477 0.0
C630 C 0.28194 0.59895 0.43909 0.0
C631 C 0.27953 0.59212 0.41819 0.0
C632 C 0.26895 0.573 0.41366 0.0
C633 C 0.26061 0.56103 0.43004 0.0
C634 C 0.26373 0.5685 0.45057 0.0
H635 H 0.29025 0.61356 0.4425 0.0
O636 O 0.23813 0.63918 0.4781 0.0
O637 O 0.2521 0.60871 0.48615 0.0
O638 O 0.28115 0.64365 0.49402 0.0
O639 O 0.29654 0.61492 0.48097 0.0
C640 C 0.24906 0.54213 0.42677 0.0
C641 C 0.24057 0.53123 0.444 0.0
H642 H 0.22594 0.51512 0.4809 0.0
H643 H 0.2323 0.53136 0.51599 0.0
H644 H 0.28589 0.60151 0.40561 0.0
H645 H 0.26715 0.56775 0.39753 0.0
H646 H 0.24632 0.53602 0.41105 0.0
H647 H 0.23143 0.51689 0.44127 0.0
Mn648 Mn 0.38493 0.51859 0.75734 0.0
Mn649 Mn 0.42805 0.51291 0.78894 0.0
C650 C 0.39692 0.54643 0.7779 0.0
C651 C 0.37033 0.52704 0.72458 0.0
C652 C 0.38425 0.4954 0.79924 0.0
O653 O 0.39843 0.4921 0.74602 0.0
O654 O 0.42798 0.49108 0.76642 0.0
C655 C 0.46166 0.52385 0.75877 0.0
N656 N 0.45202 0.52727 0.77742 0.0
C657 C 0.47712 0.55486 0.78658 0.0
C658 C 0.48742 0.55154 0.76753 0.0
C659 C 0.47962 0.536 0.75355 0.0
C660 C 0.45939 0.54217 0.79099 0.0
H661 H 0.45568 0.51196 0.74796 0.0
C662 C 0.4161 0.48395 0.75136 0.0
O663 O 0.36 0.51524 0.73763 0.0
O664 O 0.38928 0.53325 0.73031 0.0
N665 N 0.43032 0.53303 0.81132 0.0
C666 C 0.41774 0.53517 0.82837 0.0
C667 C 0.42288 0.55057 0.84354 0.0
C668 C 0.44098 0.56348 0.84112 0.0
C669 C 0.45381 0.56084 0.82355 0.0
C670 C 0.44796 0.54514 0.80901 0.0
H671 H 0.4038 0.5253 0.83031 0.0
O672 O 0.37752 0.5458 0.77068 0.0
O673 O 0.40886 0.53081 0.77268 0.0
O674 O 0.37443 0.50252 0.78317 0.0
O675 O 0.40422 0.49802 0.80246 0.0
C676 C 0.47186 0.57352 0.81963 0.0
C677 C 0.4835 0.57054 0.80115 0.0
H678 H 0.50119 0.56096 0.76338 0.0
H679 H 0.48742 0.53342 0.73877 0.0
H680 H 0.41288 0.55254 0.85704 0.0
H681 H 0.44479 0.57548 0.85275 0.0
H682 H 0.47671 0.58584 0.83055 0.0
H683 H 0.49715 0.58059 0.79816 0.0
Mn684 Mn 0.63367 0.00917 0.75061 0.0
Mn685 Mn 0.59 0.01926 0.77908 0.0
C686 C 0.61843 0.98264 0.77035 0.0
C687 C 0.64955 0.9996 0.71912 0.0
C688 C 0.63465 0.03261 0.79269 0.0
O689 O 0.62336 0.03683 0.73844 0.0
O690 O 0.59339 0.04051 0.75675 0.0
C691 C 0.5572 0.011 0.7461 0.0
N692 N 0.56522 0.00733 0.76567 0.0
C693 C 0.53584 0.98425 0.77363 0.0
C694 C 0.52717 0.98786 0.75359 0.0
C695 C 0.53795 1.00124 0.73975 0.0
C696 C 0.55506 0.99442 0.77907 0.0
H697 H 0.56542 0.02133 0.73546 0.0
C698 C 0.60637 0.04656 0.74267 0.0
O699 O 0.65983 0.01046 0.7334 0.0
O700 O 0.62984 0.99481 0.72288 0.0
N701 N 0.58424 1.00021 0.80139 0.0
C702 C 0.59536 0.99747 0.81965 0.0
C703 C 0.58692 0.98435 0.83514 0.0
C704 C 0.56709 0.9743 0.83176 0.0
C705 C 0.55593 0.97739 0.81287 0.0
C706 C 0.56501 0.99086 0.79812 0.0
H707 H 0.61051 0.00532 0.82242 0.0
O708 O 0.63796 0.98154 0.76426 0.0
O709 O 0.60801 0.99911 0.76427 0.0
O710 O 0.64433 0.02436 0.77736 0.0
O711 O 0.61447 0.03199 0.7945 0.0
C712 C 0.53633 0.96736 0.80793 0.0
C713 C 0.52634 0.97071 0.78828 0.0
H714 H 0.51236 0.98033 0.74862 0.0
H715 H 0.53141 1.00404 0.72423 0.0
H716 H 0.59565 0.98201 0.84968 0.0
H717 H 0.56067 0.96411 0.84371 0.0
H718 H 0.52897 0.95678 0.819 0.0
H719 H 0.51144 0.96265 0.78454 0.0
Mn720 Mn 0.75954 0.63692 0.00619 0.0
Mn721 Mn 0.78507 0.67595 0.98062 0.0
C722 C 0.79253 0.64859 0.01826 0.0
C723 C 0.73564 0.62612 0.03187 0.0
C724 C 0.78213 0.63103 0.96443 0.0
O725 O 0.73605 0.64982 0.98853 0.0
O726 O 0.754 0.67689 0.97413 0.0
C727 C 0.76736 0.71298 1.00191 0.0
N728 N 0.78448 0.70172 0.996 0.0
C729 C 0.80877 0.72776 0.0105 0.0
C730 C 0.79139 0.73971 0.01663 0.0
C731 C 0.7706 0.73226 0.01235 0.0
C732 C 0.80456 0.70879 0.99992 0.0
H733 H 0.75136 0.70729 0.99867 0.0
C734 C 0.73682 0.66633 0.97732 0.0
O735 O 0.74005 0.61405 0.01609 0.0
O736 O 0.74465 0.64455 0.03236 0.0
N737 N 0.81514 0.67703 0.98568 0.0
C738 C 0.82999 0.66255 0.98081 0.0
C739 C 0.85154 0.66694 0.98531 0.0
C740 C 0.85762 0.68621 0.99461 0.0
C741 C 0.84205 0.7009 0.99938 0.0
C742 C 0.82082 0.69568 0.99447 0.0
H743 H 0.8254 0.6477 0.97371 0.0
O744 O 0.78537 0.63007 0.02307 0.0
O745 O 0.78015 0.65984 0.00639 0.0
O746 O 0.77213 0.62318 0.97989 0.0
O747 O 0.78715 0.65045 0.96329 0.0
C748 C 0.8467 0.7202 0.00948 0.0
C749 C 0.83007 0.73363 0.01501 0.0
H750 H 0.79381 0.75449 0.02486 0.0
H751 H 0.75711 0.74133 0.01714 0.0
H752 H 0.86345 0.65548 0.98167 0.0
H753 H 0.87423 0.68944 0.99826 0.0
H754 H 0.86297 0.72464 0.0135 0.0
H755 H 0.83381 0.74821 0.02317 0.0
Mn756 Mn 0.88311 0.51192 0.74861 0.0
Mn757 Mn 0.83958 0.48041 0.7525 0.0
C758 C 0.87102 0.49279 0.71973 0.0
C759 C 0.89869 0.54467 0.74171 0.0
C760 C 0.88313 0.46866 0.76939 0.0
O761 O 0.8696 0.52225 0.77555 0.0
O762 O 0.84026 0.5015 0.77573 0.0
C763 C 0.80662 0.5119 0.74378 0.0
N764 N 0.81575 0.49326 0.73918 0.0
C765 C 0.78999 0.4861 0.71163 0.0
C766 C 0.78021 0.50517 0.71616 0.0
C767 C 0.7886 0.51814 0.73228 0.0
C768 C 0.80784 0.48067 0.72369 0.0
H769 H 0.81304 0.52193 0.75613 0.0
C770 C 0.85206 0.51626 0.78359 0.0
O771 O 0.9085 0.53081 0.75294 0.0
O772 O 0.87959 0.53979 0.73521 0.0
N773 N 0.83658 0.45931 0.73112 0.0
C774 C 0.84866 0.44208 0.72788 0.0
C775 C 0.84281 0.42778 0.71187 0.0
C776 C 0.82452 0.43122 0.69952 0.0
C777 C 0.81223 0.44894 0.7033 0.0
C778 C 0.81876 0.46258 0.71954 0.0
H779 H 0.86273 0.43935 0.73732 0.0
O780 O 0.89052 0.49969 0.72088 0.0
O781 O 0.85898 0.49746 0.73546 0.0
O782 O 0.893 0.48527 0.76363 0.0
O783 O 0.86323 0.46554 0.7662 0.0
C784 C 0.79404 0.45388 0.69123 0.0
C785 C 0.78296 0.47247 0.69537 0.0
H786 H 0.76638 0.51009 0.70726 0.0
H787 H 0.78121 0.53292 0.7358 0.0
H788 H 0.85241 0.41417 0.70902 0.0
H789 H 0.82016 0.42025 0.68708 0.0
H790 H 0.78867 0.44368 0.6785 0.0
H791 H 0.76919 0.47625 0.68578 0.0
Mn792 Mn 0.7531 0.38728 0.50742 0.0
Mn793 Mn 0.73019 0.34667 0.48066 0.0
C794 C 0.71986 0.37491 0.51689 0.0
C795 C 0.77513 0.40032 0.53441 0.0
C796 C 0.73103 0.39122 0.46437 0.0
O797 O 0.77803 0.3749 0.49202 0.0
O798 O 0.76131 0.34796 0.4754 0.0
C799 C 0.75083 0.31207 0.5036 0.0
N800 N 0.73285 0.3215 0.49651 0.0
C801 C 0.71076 0.29375 0.5101 0.0
C802 C 0.72905 0.28367 0.51744 0.0
C803 C 0.74916 0.29291 0.51423 0.0
C804 C 0.71343 0.31279 0.49957 0.0
H805 H 0.76632 0.31912 0.50115 0.0
C806 C 0.77807 0.35885 0.48 0.0
O807 O 0.77127 0.41128 0.51773 0.0
O808 O 0.76671 0.38164 0.53514 0.0
N809 N 0.70022 0.34297 0.48412 0.0
C810 C 0.68414 0.35542 0.47737 0.0
C811 C 0.66297 0.34864 0.47976 0.0
C812 C 0.65856 0.3291 0.48892 0.0
C813 C 0.67536 0.31661 0.49583 0.0
C814 C 0.69614 0.32407 0.49281 0.0
H815 H 0.68745 0.3704 0.47022 0.0
O816 O 0.72615 0.39381 0.52185 0.0
O817 O 0.73328 0.36362 0.50652 0.0
O818 O 0.74138 0.39939 0.47985 0.0
O819 O 0.72613 0.37173 0.46317 0.0
C820 C 0.6723 0.29723 0.50594 0.0
C821 C 0.68999 0.28585 0.51315 0.0
H822 H 0.72782 0.26892 0.52571 0.0
H823 H 0.76334 0.28527 0.51993 0.0
H824 H 0.65007 0.35843 0.47452 0.0
H825 H 0.64221 0.32393 0.49078 0.0
H826 H 0.6564 0.29111 0.50857 0.0
H827 H 0.68743 0.27114 0.5212 0.0
Mn828 Mn 0.63829 0.52145 0.25837 0.0
Mn829 Mn 0.68268 0.49566 0.24528 0.0
C830 C 0.65573 0.5013 0.28326 0.0
C831 C 0.62149 0.55185 0.26972 0.0
C832 C 0.6382 0.48015 0.23358 0.0
O833 O 0.64658 0.53513 0.23065 0.0
O834 O 0.67707 0.51833 0.22493 0.0
C835 C 0.71377 0.53028 0.25313 0.0
N836 N 0.707 0.51024 0.2567 0.0
C837 C 0.73794 0.50336 0.27803 0.0
C838 C 0.74531 0.5239 0.27455 0.0
C839 C 0.73309 0.53747 0.26215 0.0
C840 C 0.71837 0.49723 0.26897 0.0
H841 H 0.70454 0.54066 0.24339 0.0
C842 C 0.66324 0.53199 0.21998 0.0
O843 O 0.61133 0.53742 0.25894 0.0
O844 O 0.64154 0.54882 0.27354 0.0
N845 N 0.69056 0.4732 0.26336 0.0
C846 C 0.68101 0.454 0.26543 0.0
C847 C 0.69114 0.43856 0.27737 0.0
C848 C 0.71119 0.44284 0.28659 0.0
C849 C 0.72079 0.46266 0.28408 0.0
C850 C 0.70982 0.4775 0.27224 0.0
H851 H 0.66585 0.45046 0.25793 0.0
O852 O 0.63608 0.50652 0.28568 0.0
O853 O 0.66497 0.50868 0.26666 0.0
O854 O 0.62823 0.49477 0.24274 0.0
O855 O 0.65846 0.47927 0.23314 0.0
C856 C 0.74091 0.46824 0.2927 0.0
C857 C 0.74932 0.48866 0.28996 0.0
H858 H 0.76032 0.52942 0.28129 0.0
H859 H 0.73865 0.55335 0.2594 0.0
H860 H 0.68365 0.42329 0.27922 0.0
H861 H 0.71907 0.43077 0.29555 0.0
H862 H 0.74998 0.45698 0.30162 0.0
H863 H 0.76463 0.49284 0.29695 0.0
H864 H 0.07884 0.46517 0.26002 0.0
H865 H 0.06237 0.43615 0.27907 0.0
H866 H 0.12014 0.42993 0.31593 0.0
H867 H 0.13511 0.46092 0.29896 0.0
H868 H 0.06693 0.39917 0.28269 0.0
H869 H 0.08348 0.42794 0.3632 0.0
H870 H 0.09089 0.44329 0.34094 0.0
H871 H 0.10809 0.42307 0.35054 0.0
C872 C 0.08747 0.45824 0.27299 0.0
C873 C 0.10745 0.4663 0.27923 0.0
C874 C 0.07832 0.44126 0.28356 0.0
C875 C 0.08951 0.43121 0.29986 0.0
C876 C 0.11045 0.43808 0.30455 0.0
H877 H 0.04936 0.30679 0.34307 0.0
H878 H 0.06363 0.33623 0.32297 0.0
C879 C 0.11916 0.45566 0.29463 0.0
C880 C 0.07951 0.41322 0.31128 0.0
H881 H 0.07299 0.39181 0.35982 0.0
C882 C 0.06802 0.39786 0.29961 0.0
C883 C 0.08071 0.41119 0.33346 0.0
C884 C 0.09128 0.42739 0.3477 0.0
C885 C 0.05774 0.38084 0.30931 0.0
C886 C 0.05985 0.37836 0.33129 0.0
C887 C 0.07136 0.39359 0.34297 0.0
C888 C 0.05027 0.36028 0.34272 0.0
C889 C 0.04424 0.36611 0.29585 0.0
C890 C 0.03849 0.3638 0.36094 0.0
C891 C 0.03099 0.34698 0.37283 0.0
C892 C 0.03468 0.32625 0.36653 0.0
C893 C 0.04595 0.32264 0.34805 0.0
C894 C 0.05399 0.33949 0.33646 0.0
H895 H 0.03829 0.37404 0.28149 0.0
H896 H 0.05403 0.35276 0.29075 0.0
H897 H 0.03036 0.35988 0.30452 0.0
H898 H 0.03538 0.37963 0.36617 0.0
H899 H 0.02237 0.35019 0.38704 0.0
H900 H 0.97623 0.79789 0.59477 0.0
H901 H 0.94687 0.81314 0.57463 0.0
H902 H 0.90454 0.80081 0.62586 0.0
H903 H 0.93404 0.78669 0.6464 0.0
H904 H 0.91156 0.79924 0.55942 0.0
H905 H 0.89132 0.86037 0.61695 0.0
H906 H 0.91484 0.84482 0.61978 0.0
H907 H 0.88951 0.83499 0.6287 0.0
C908 C 0.96064 0.79843 0.60169 0.0
C909 C 0.95747 0.79125 0.62222 0.0
C910 C 0.94386 0.80721 0.5902 0.0
C911 C 0.92353 0.80874 0.5989 0.0
C912 C 0.92019 0.80066 0.61906 0.0
H913 H 0.8069 0.81906 0.52717 0.0
H914 H 0.83859 0.80832 0.5464 0.0
C915 C 0.93703 0.79234 0.63071 0.0
C916 C 0.90567 0.8182 0.58673 0.0
H917 H 0.86456 0.85233 0.59058 0.0
C918 C 0.90145 0.81102 0.56619 0.0
C919 C 0.89271 0.83403 0.59522 0.0
C920 C 0.89749 0.84416 0.61627 0.0
C921 C 0.88428 0.81859 0.55426 0.0
C922 C 0.87026 0.83309 0.56342 0.0
C923 C 0.87496 0.8409 0.58364 0.0
C924 C 0.85041 0.8399 0.55251 0.0
C925 C 0.88163 0.81114 0.53184 0.0
C926 C 0.84565 0.8613 0.55057 0.0
C927 C 0.82703 0.86753 0.54009 0.0
C928 C 0.81298 0.85246 0.53114 0.0
C929 C 0.81755 0.83109 0.53357 0.0
C930 C 0.83583 0.82491 0.5444 0.0
H931 H 0.89716 0.80679 0.52513 0.0
H932 H 0.87122 0.79691 0.53135 0.0
H933 H 0.87441 0.82332 0.52174 0.0
H934 H 0.8565 0.8732 0.55688 0.0
H935 H 0.82395 0.8841 0.53848 0.0
H936 H 0.37935 0.56921 0.80901 0.0
H937 H 0.39247 0.60263 0.82388 0.0
H938 H 0.44643 0.60079 0.78291 0.0
H939 H 0.43232 0.56833 0.76702 0.0
H940 H 0.42522 0.61234 0.84547 0.0
H941 H 0.43027 0.65889 0.77305 0.0
H942 H 0.4177 0.6333 0.77338 0.0
H943 H 0.44616 0.63599 0.77087 0.0
C944 C 0.39396 0.5761 0.8032 0.0
C945 C 0.40535 0.56592 0.78753 0.0
C946 C 0.40147 0.59514 0.81167 0.0
C947 C 0.42039 0.60445 0.80443 0.0
C948 C 0.43154 0.59433 0.78847 0.0
H949 H 0.49668 0.69268 0.87871 0.0
H950 H 0.47912 0.66182 0.86307 0.0
C951 C 0.42379 0.57551 0.77974 0.0
C952 C 0.4288 0.62426 0.81414 0.0
H953 H 0.4501 0.67239 0.80283 0.0
C954 C 0.4304 0.62557 0.83611 0.0
C955 C 0.43518 0.64179 0.80207 0.0
C956 C 0.432 0.6425 0.77857 0.0
C957 C 0.43854 0.64363 0.8463 0.0
C958 C 0.44642 0.66053 0.83417 0.0
C959 C 0.44438 0.6594 0.81221 0.0
C960 C 0.45706 0.67938 0.84382 0.0
C961 C 0.43805 0.64445 0.86996 0.0
C962 C 0.45134 0.69967 0.83753 0.0
C963 C 0.46201 0.71735 0.84587 0.0
C964 C 0.47827 0.71507 0.86098 0.0
C965 C 0.48391 0.69486 0.86736 0.0
C966 C 0.47372 0.6772 0.85856 0.0
H967 H 0.42481 0.63458 0.87604 0.0
H968 H 0.45309 0.63813 0.87644 0.0
H969 H 0.43616 0.66071 0.87587 0.0
H970 H 0.43865 0.70184 0.82611 0.0
H971 H 0.45742 0.73279 0.84067 0.0
H972 H 0.54932 0.22433 0.0836 0.0
H973 H 0.57954 0.20616 0.06849 0.0
H974 H 0.61527 0.21554 0.12618 0.0
H975 H 0.58509 0.23338 0.14148 0.0
H976 H 0.61973 0.22188 0.0619 0.0
H977 H 0.62356 0.15346 0.11492 0.0
H978 H 0.60081 0.1703 0.11358 0.0
H979 H 0.62412 0.17818 0.12855 0.0
C980 C 0.56351 0.22229 0.09316 0.0
C981 C 0.56474 0.23022 0.11378 0.0
C982 C 0.5808 0.21195 0.08448 0.0
C983 C 0.59961 0.20923 0.09628 0.0
C984 C 0.6008 0.21702 0.11692 0.0
H985 H 0.72472 0.18417 0.04521 0.0
H986 H 0.69403 0.19977 0.06214 0.0
C987 C 0.58353 0.22732 0.12561 0.0
C988 C 0.61831 0.19915 0.08668 0.0
H989 H 0.65314 0.15896 0.09264 0.0
C990 C 0.62698 0.20807 0.06857 0.0
C991 C 0.62766 0.181 0.09526 0.0
C992 C 0.61846 0.17003 0.11403 0.0
C993 C 0.64489 0.19956 0.059 0.0
C994 C 0.65469 0.18184 0.06799 0.0
C995 C 0.64581 0.1727 0.0859 0.0
C996 C 0.67374 0.17217 0.05866 0.0
C997 C 0.65291 0.20939 0.0391 0.0
C998 C 0.67285 0.15122 0.05176 0.0
C999 C 0.69042 0.14221 0.04226 0.0
C1000 C 0.70931 0.15393 0.03952 0.0
C1001 C 0.71039 0.17474 0.04697 0.0
C1002 C 0.6928 0.18373 0.05652 0.0
H1003 H 0.6406 0.21911 0.03137 0.0
H1004 H 0.66683 0.21972 0.04293 0.0
H1005 H 0.65801 0.19722 0.0278 0.0
H1006 H 0.65838 0.14194 0.05335 0.0
H1007 H 0.68905 0.12614 0.03674 0.0
H1008 H 0.12923 0.56764 0.20907 0.0
H1009 H 0.1206 0.60003 0.19041 0.0
H1010 H 0.06233 0.60437 0.22471 0.0
H1011 H 0.07049 0.57214 0.24307 0.0
H1012 H 0.0566 0.61025 0.1823 0.0
H1013 H 0.12312 0.66035 0.21377 0.0
H1014 H 0.13065 0.63619 0.20149 0.0
H1015 H 0.11582 0.63551 0.22531 0.0
C1016 C 0.11458 0.57549 0.21264 0.0
C1017 C 0.10062 0.56723 0.22766 0.0
C1018 C 0.10975 0.59409 0.20206 0.0
C1019 C 0.09095 0.60477 0.20638 0.0
C1020 C 0.07696 0.59645 0.22118 0.0
H1021 H 0.04522 0.72912 0.18322 0.0
H1022 H 0.06185 0.69761 0.19735 0.0
C1023 C 0.08171 0.57796 0.23169 0.0
C1024 C 0.08527 0.62435 0.19527 0.0
H1025 H 0.09969 0.67589 0.1893 0.0
C1026 C 0.0661 0.62456 0.1837 0.0
C1027 C 0.09756 0.64307 0.19735 0.0
C1028 C 0.11786 0.64396 0.21027 0.0
C1029 C 0.05872 0.64299 0.17438 0.0
C1030 C 0.07107 0.6617 0.17629 0.0
C1031 C 0.09035 0.66149 0.1877 0.0
C1032 C 0.06359 0.68176 0.16733 0.0
C1033 C 0.03735 0.64242 0.16322 0.0
C1034 C 0.05978 0.68363 0.14568 0.0
C1035 C 0.05017 0.70153 0.1376 0.0
C1036 C 0.0444 0.71802 0.15099 0.0
C1037 C 0.04943 0.71668 0.1725 0.0
C1038 C 0.05894 0.69868 0.1806 0.0
H1039 H 0.02774 0.62834 0.16747 0.0
H1040 H 0.02813 0.65662 0.16697 0.0
H1041 H 0.03978 0.64197 0.14603 0.0
H1042 H 0.06364 0.67095 0.1351 0.0
H1043 H 0.04669 0.70215 0.12093 0.0
H1044 H 0.56306 0.81576 0.38094 0.0
H1045 H 0.59585 0.83133 0.39629 0.0
H1046 H 0.59519 0.78454 0.44488 0.0
H1047 H 0.56275 0.7688 0.42929 0.0
H1048 H 0.60291 0.84818 0.43621 0.0
H1049 H 0.65522 0.78051 0.42275 0.0
H1050 H 0.62945 0.78267 0.41014 0.0
H1051 H 0.6316 0.77382 0.43681 0.0
C1052 C 0.57 0.8089 0.39491 0.0
C1053 C 0.56018 0.79155 0.40439 0.0
C1054 C 0.58865 0.81775 0.40365 0.0
C1055 C 0.59805 0.80901 0.42164 0.0
C1056 C 0.58841 0.79137 0.43083 0.0
H1057 H 0.70804 0.83806 0.50112 0.0
H1058 H 0.67564 0.82309 0.48461 0.0
C1059 C 0.56975 0.78258 0.42213 0.0
C1060 C 0.61773 0.81849 0.43101 0.0
H1061 H 0.66891 0.80771 0.44497 0.0
C1062 C 0.61738 0.83937 0.43807 0.0
C1063 C 0.63665 0.80699 0.43333 0.0
C1064 C 0.63839 0.78482 0.42518 0.0
C1065 C 0.63525 0.84889 0.44791 0.0
C1066 C 0.65416 0.83735 0.45029 0.0
C1067 C 0.65449 0.81653 0.44312 0.0
C1068 C 0.67377 0.84649 0.46021 0.0
C1069 C 0.63349 0.871 0.45619 0.0
C1070 C 0.68364 0.86444 0.45185 0.0
C1071 C 0.70213 0.87292 0.46126 0.0
C1072 C 0.7114 0.86322 0.47876 0.0
C1073 C 0.70151 0.84537 0.48721 0.0
C1074 C 0.68295 0.83695 0.47789 0.0
H1075 H 0.61665 0.87533 0.45852 0.0
H1076 H 0.6423 0.87302 0.47133 0.0
H1077 H 0.64042 0.88207 0.44471 0.0
H1078 H 0.6771 0.87183 0.43799 0.0
H1079 H 0.70937 0.8869 0.45471 0.0
H1080 H 0.48562 0.30743 0.68022 0.0
H1081 H 0.47423 0.33814 0.70009 0.0
H1082 H 0.45998 0.37012 0.64231 0.0
H1083 H 0.47138 0.33972 0.62232 0.0
H1084 H 0.48328 0.39478 0.67214 0.0
H1085 H 0.41181 0.35673 0.70646 0.0
H1086 H 0.43634 0.34312 0.71043 0.0
H1087 H 0.42547 0.34572 0.68437 0.0
C1088 C 0.48012 0.32099 0.67171 0.0
C1089 C 0.47939 0.321 0.64962 0.0
C1090 C 0.47349 0.33849 0.68311 0.0
C1091 C 0.466 0.35629 0.67266 0.0
C1092 C 0.46563 0.3565 0.65068 0.0
H1093 H 0.39474 0.46138 0.7205 0.0
H1094 H 0.40712 0.43061 0.70138 0.0
C1095 C 0.47216 0.33905 0.63928 0.0
C1096 C 0.45864 0.37482 0.68453 0.0
H1097 H 0.42033 0.39128 0.71794 0.0
C1098 C 0.46955 0.39403 0.68219 0.0
C1099 C 0.44053 0.37384 0.69738 0.0
C1100 C 0.42769 0.35381 0.69974 0.0
C1101 C 0.46297 0.41225 0.69254 0.0
C1102 C 0.44513 0.41117 0.70574 0.0
C1103 C 0.43407 0.39202 0.70791 0.0
C1104 C 0.43768 0.4298 0.71739 0.0
C1105 C 0.47493 0.4326 0.68897 0.0
C1106 C 0.45067 0.43941 0.73287 0.0
C1107 C 0.44367 0.45696 0.74384 0.0
C1108 C 0.42345 0.46528 0.73961 0.0
C1109 C 0.41041 0.45549 0.72414 0.0
C1110 C 0.41743 0.43787 0.71322 0.0
H1111 H 0.48484 0.43188 0.67473 0.0
H1112 H 0.46379 0.44584 0.68736 0.0
H1113 H 0.48562 0.43593 0.70265 0.0
H1114 H 0.46622 0.43323 0.73656 0.0
H1115 H 0.45417 0.464 0.75564 0.0
H1116 H 0.94874 0.26463 0.94083 0.0
H1117 H 0.91803 0.24452 0.95303 0.0
H1118 H 0.92954 0.19655 0.90689 0.0
H1119 H 0.9604 0.21663 0.89439 0.0
H1120 H 0.8805 0.22835 0.92725 0.0
H1121 H 0.92845 0.16696 0.9666 0.0
H1122 H 0.93934 0.19257 0.96051 0.0
H1123 H 0.93509 0.17347 0.94003 0.0
C1124 C 0.94479 0.24983 0.93317 0.0
C1125 C 0.95717 0.24222 0.91664 0.0
C1126 C 0.92716 0.2384 0.94017 0.0
C1127 C 0.92164 0.21901 0.93098 0.0
C1128 C 0.93368 0.21144 0.91428 0.0
H1129 H 0.82984 0.12186 0.96058 0.0
H1130 H 0.85886 0.14326 0.9471 0.0
C1131 C 0.95126 0.22297 0.90712 0.0
C1132 C 0.90346 0.20663 0.93916 0.0
H1133 H 0.8912 0.16271 0.9671 0.0
C1134 C 0.88277 0.21398 0.93597 0.0
C1135 C 0.90655 0.18796 0.95054 0.0
C1136 C 0.92853 0.17973 0.95482 0.0
C1137 C 0.86498 0.20289 0.94351 0.0
C1138 C 0.86805 0.18425 0.95507 0.0
C1139 C 0.88882 0.177 0.9583 0.0
C1140 C 0.84999 0.17158 0.96337 0.0
C1141 C 0.84307 0.21093 0.93848 0.0
C1142 C 0.83534 0.18028 0.97725 0.0
C1143 C 0.81846 0.16805 0.98492 0.0
C1144 C 0.81611 0.1468 0.97912 0.0
C1145 C 0.83107 0.13813 0.96549 0.0
C1146 C 0.84775 0.15037 0.95771 0.0
H1147 H 0.84322 0.22172 0.92486 0.0
H1148 H 0.8317 0.19781 0.93498 0.0
H1149 H 0.8372 0.21977 0.9522 0.0
H1150 H 0.83703 0.19647 0.98228 0.0
H1151 H 0.80736 0.17523 0.99549 0.0
H1152 H 0.27295 0.09193 0.45506 0.0
H1153 H 0.28555 0.07039 0.42585 0.0
H1154 H 0.32186 0.12315 0.40301 0.0
H1155 H 0.30938 0.14478 0.43178 0.0
H1156 H 0.28117 0.0822 0.37961 0.0
H1157 H 0.36437 0.07222 0.40815 0.0
H1158 H 0.34284 0.07807 0.42556 0.0
H1159 H 0.35404 0.09832 0.40952 0.0
C1160 C 0.28369 0.09893 0.44388 0.0
C1161 C 0.29013 0.12012 0.44583 0.0
C1162 C 0.29084 0.0866 0.4272 0.0
C1163 C 0.30478 0.09517 0.41244 0.0
C1164 C 0.31129 0.11621 0.41439 0.0
H1165 H 0.37054 0.05489 0.30138 0.0
H1166 H 0.35781 0.07303 0.3326 0.0
C1167 C 0.30403 0.12856 0.43084 0.0
C1168 C 0.31209 0.08248 0.39449 0.0
H1169 H 0.35645 0.06136 0.37327 0.0
C1170 C 0.29756 0.07742 0.37826 0.0
C1171 C 0.33354 0.07656 0.39273 0.0
C1172 C 0.34965 0.0814 0.40994 0.0
C1173 C 0.30403 0.06704 0.35999 0.0
C1174 C 0.32553 0.06105 0.35821 0.0
C1175 C 0.34 0.06594 0.37461 0.0
C1176 C 0.33337 0.04985 0.33939 0.0
C1177 C 0.28793 0.06333 0.34249 0.0
C1178 C 0.32415 0.03062 0.333 0.0
C1179 C 0.33123 0.02033 0.31507 0.0
C1180 C 0.34799 0.02886 0.30329 0.0
C1181 C 0.3576 0.04787 0.31004 0.0
C1182 C 0.35034 0.05826 0.32789 0.0
H1183 H 0.27431 0.07411 0.34369 0.0
H1184 H 0.29525 0.06541 0.3269 0.0
H1185 H 0.28156 0.04704 0.34345 0.0
H1186 H 0.31146 0.02349 0.34193 0.0
H1187 H 0.32362 0.00559 0.31054 0.0
H1188 H 0.14194 0.05961 0.70113 0.0
H1189 H 0.15163 0.07744 0.66856 0.0
H1190 H 0.20809 0.0403 0.66484 0.0
H1191 H 0.19885 0.02272 0.69723 0.0
H1192 H 0.21592 0.08261 0.659 0.0
H1193 H 0.14871 0.0539 0.60822 0.0
H1194 H 0.14142 0.06646 0.63232 0.0
H1195 H 0.15523 0.04206 0.6331 0.0
C1196 C 0.15638 0.0552 0.69335 0.0
C1197 C 0.16955 0.03966 0.70187 0.0
C1198 C 0.16183 0.06531 0.67465 0.0
C1199 C 0.18046 0.06001 0.66413 0.0
C1200 C 0.19361 0.0446 0.67265 0.0
H1201 H 0.22707 0.08334 0.53957 0.0
H1202 H 0.21106 0.06885 0.57128 0.0
C1203 C 0.18824 0.03453 0.69123 0.0
C1204 C 0.1869 0.07081 0.64459 0.0
H1205 H 0.17316 0.07768 0.59302 0.0
C1206 C 0.20651 0.08164 0.6446 0.0
C1207 C 0.17471 0.0693 0.62577 0.0
C1208 C 0.15392 0.05718 0.62467 0.0
C1209 C 0.21438 0.09085 0.6263 0.0
C1210 C 0.20212 0.08954 0.6075 0.0
C1211 C 0.18244 0.0788 0.60748 0.0
C1212 C 0.20994 0.09865 0.58762 0.0
C1213 C 0.23609 0.10133 0.6271 0.0
C1214 C 0.21405 0.12027 0.58606 0.0
C1215 C 0.22327 0.12856 0.56804 0.0
C1216 C 0.2284 0.1154 0.55113 0.0
C1217 C 0.22337 0.09388 0.55234 0.0
C1218 C 0.2142 0.08558 0.57043 0.0
H1219 H 0.24546 0.09662 0.64118 0.0
H1220 H 0.24526 0.09746 0.6129 0.0
H1221 H 0.23423 0.11859 0.62774 0.0
H1222 H 0.21052 0.1307 0.59896 0.0
H1223 H 0.22677 0.14524 0.56755 0.0
H1224 H 0.13691 0.96936 0.80778 0.0
H1225 H 0.15247 0.95358 0.83938 0.0
H1226 H 0.20374 0.99936 0.83879 0.0
H1227 H 0.18803 0.01525 0.80723 0.0
H1228 H 0.21677 0.95681 0.8437 0.0
H1229 H 0.15411 0.97804 0.89977 0.0
H1230 H 0.14431 0.9654 0.87618 0.0
H1231 H 0.15704 0.99078 0.87472 0.0
C1232 C 0.15152 0.97598 0.81444 0.0
C1233 C 0.16173 0.99301 0.80478 0.0
C1234 C 0.1603 0.96708 0.83252 0.0
C1235 C 0.17917 0.97539 0.84151 0.0
C1236 C 0.18917 0.9927 0.8321 0.0
H1237 H 0.23399 0.93556 0.96213 0.0
H1238 H 0.22167 0.95714 0.93277 0.0
C1239 C 0.18034 1.00162 0.81401 0.0
C1240 C 0.18879 0.96551 0.86032 0.0
H1241 H 0.17922 0.95276 0.91132 0.0
C1242 C 0.20865 0.95607 0.85849 0.0
C1243 C 0.17827 0.96479 0.87975 0.0
C1244 C 0.15733 0.97545 0.88288 0.0
C1245 C 0.2179 0.94518 0.87527 0.0
C1246 C 0.20698 0.9437 0.89441 0.0
C1247 C 0.18749 0.95382 0.89656 0.0
C1248 C 0.21505 0.93083 0.91198 0.0
C1249 C 0.23921 0.93514 0.87239 0.0
C1250 C 0.21532 0.90894 0.90997 0.0
C1251 C 0.2222 0.89658 0.92667 0.0
C1252 C 0.22905 0.90587 0.94576 0.0
C1253 C 0.22897 0.92789 0.94763 0.0
C1254 C 0.22187 0.94024 0.93092 0.0
H1255 H 0.24762 0.94157 0.85858 0.0
H1256 H 0.24947 0.93748 0.88658 0.0
H1257 H 0.23681 0.91802 0.86992 0.0
H1258 H 0.20989 0.90139 0.89553 0.0
H1259 H 0.22201 0.87971 0.92463 0.0
H1260 H 0.30987 0.93123 0.03451 0.0
H1261 H 0.32939 0.94605 0.06489 0.0
H1262 H 0.29033 0.90898 0.10617 0.0
H1263 H 0.27199 0.89312 0.07587 0.0
H1264 H 0.31854 0.96938 0.0947 0.0
H1265 H 0.34552 0.89649 0.13186 0.0
H1266 H 0.33347 0.89652 0.10604 0.0
H1267 H 0.31716 0.8958 0.12908 0.0
C1268 C 0.30575 0.92604 0.05009 0.0
C1269 C 0.28966 0.91085 0.05287 0.0
C1270 C 0.31685 0.93454 0.06746 0.0
C1271 C 0.31174 0.92831 0.08793 0.0
C1272 C 0.29526 0.91346 0.09062 0.0
H1273 H 0.33808 0.00506 0.19871 0.0
H1274 H 0.32376 0.98949 0.16618 0.0
C1275 C 0.28463 0.90452 0.07327 0.0
C1276 C 0.32282 0.93809 0.10648 0.0
H1277 H 0.34533 0.92704 0.15414 0.0
C1278 C 0.32467 0.96007 0.10756 0.0
C1279 C 0.33126 0.92607 0.12318 0.0
C1280 C 0.33196 0.90243 0.12235 0.0
C1281 C 0.33418 0.97032 0.12496 0.0
C1282 C 0.34112 0.95833 0.14234 0.0
C1283 C 0.33973 0.93635 0.14105 0.0
C1284 C 0.34983 0.96811 0.16202 0.0
C1285 C 0.33709 0.99385 0.12418 0.0
C1286 C 0.36889 0.96091 0.17105 0.0
C1287 C 0.37653 0.96919 0.19013 0.0
C1288 C 0.36514 0.98465 0.20063 0.0
C1289 C 0.34662 0.99249 0.19128 0.0
C1290 C 0.33874 0.98396 0.1724 0.0
H1291 H 0.33845 0.99936 0.10775 0.0
H1292 H 0.32296 1.00138 0.13094 0.0
H1293 H 0.35149 0.99921 0.13312 0.0
H1294 H 0.37787 0.94882 0.16335 0.0
H1295 H 0.3912 0.96334 0.19682 0.0
H1296 H 0.30665 0.31868 0.02568 0.0
H1297 H 0.33799 0.3077 0.04529 0.0
H1298 H 0.3563 0.3725 0.05581 0.0
H1299 H 0.32405 0.38361 0.0371 0.0
H1300 H 0.37758 0.31196 0.03778 0.0
H1301 H 0.3636 0.35164 0.11374 0.0
H1302 H 0.34368 0.35036 0.09312 0.0
H1303 H 0.36492 0.36964 0.0923 0.0
C1304 C 0.3172 0.33065 0.03236 0.0
C1305 C 0.31277 0.35204 0.02995 0.0
C1306 C 0.33521 0.32433 0.04354 0.0
C1307 C 0.34951 0.33921 0.05233 0.0
C1308 C 0.34527 0.36065 0.04976 0.0
H1309 H 0.47702 0.29854 0.09228 0.0
H1310 H 0.44706 0.31269 0.07219 0.0
C1311 C 0.32689 0.36702 0.03894 0.0
C1312 C 0.36903 0.33196 0.06356 0.0
H1313 H 0.39707 0.33571 0.10981 0.0
C1314 C 0.38178 0.31712 0.05358 0.0
C1315 C 0.37449 0.33848 0.08426 0.0
C1316 C 0.36084 0.35324 0.09657 0.0
C1317 C 0.39949 0.30837 0.06375 0.0
C1318 C 0.4053 0.31533 0.08422 0.0
C1319 C 0.39276 0.33042 0.09408 0.0
C1320 C 0.42372 0.30659 0.09613 0.0
C1321 C 0.41116 0.29115 0.05267 0.0
C1322 C 0.42087 0.29898 0.11655 0.0
C1323 C 0.43807 0.29145 0.12823 0.0
C1324 C 0.4585 0.29101 0.11966 0.0
C1325 C 0.46137 0.29832 0.09914 0.0
C1326 C 0.44421 0.30633 0.08761 0.0
H1327 H 0.40095 0.28328 0.0405 0.0
H1328 H 0.42518 0.29801 0.0447 0.0
H1329 H 0.41675 0.27909 0.06387 0.0
H1330 H 0.40528 0.29896 0.12353 0.0
H1331 H 0.43537 0.28595 0.14403 0.0
H1332 H 0.98604 0.80621 0.17792 0.0
H1333 H 0.97431 0.83615 0.19886 0.0
H1334 H 0.95724 0.86887 0.14226 0.0
H1335 H 0.9689 0.83932 0.12126 0.0
H1336 H 0.98167 0.89318 0.17159 0.0
H1337 H 0.91179 0.85413 0.20795 0.0
H1338 H 0.9366 0.84069 0.21052 0.0
H1339 H 0.92451 0.84367 0.18504 0.0
C1340 C 0.9798 0.81977 0.16992 0.0
C1341 C 0.97842 0.82026 0.14786 0.0
C1342 C 0.97298 0.83681 0.18192 0.0
C1343 C 0.96468 0.85462 0.1721 0.0
C1344 C 0.96351 0.85524 0.15015 0.0
H1345 H 0.89527 0.9602 0.22238 0.0
H1346 H 0.90656 0.92914 0.20291 0.0
C1347 C 0.9702 0.83827 0.13817 0.0
C1348 C 0.95758 0.87291 0.1845 0.0
H1349 H 0.9201 0.88883 0.21912 0.0
C1350 C 0.96825 0.89223 0.18202 0.0
C1351 C 0.93987 0.87168 0.19787 0.0
C1352 C 0.92736 0.8515 0.20046 0.0
C1353 C 0.96182 0.91031 0.19269 0.0
C1354 C 0.94436 0.909 0.20636 0.0
C1355 C 0.93354 0.88975 0.2087 0.0
C1356 C 0.93729 0.92749 0.21848 0.0
C1357 C 0.97354 0.93077 0.18901 0.0
C1358 C 0.95072 0.93666 0.23384 0.0
C1359 C 0.94435 0.95434 0.24499 0.0
C1360 C 0.92435 0.96326 0.24106 0.0
C1361 C 0.9108 0.95384 0.22579 0.0
C1362 C 0.91719 0.93606 0.21468 0.0
H1363 H 0.98316 0.93022 0.17456 0.0
H1364 H 0.96225 0.94392 0.1877 0.0
H1365 H 0.98446 0.93412 0.2025 0.0
H1366 H 0.96618 0.93013 0.23722 0.0
H1367 H 0.95524 0.96107 0.25663 0.0
H1368 H 0.18741 0.62826 0.53481 0.0
H1369 H 0.1571 0.64412 0.55196 0.0
H1370 H 0.19343 0.70147 0.56129 0.0
H1371 H 0.22378 0.6858 0.5438 0.0
H1372 H 0.15243 0.66049 0.59154 0.0
H1373 H 0.13987 0.72191 0.53156 0.0
H1374 H 0.15703 0.69993 0.52739 0.0
H1375 H 0.1662 0.72205 0.54288 0.0
C1376 C 0.18901 0.64424 0.54055 0.0
C1377 C 0.208 0.65581 0.53781 0.0
C1378 C 0.17164 0.65328 0.55037 0.0
C1379 C 0.17282 0.67412 0.5576 0.0
C1380 C 0.19196 0.68553 0.55543 0.0
H1381 H 0.08461 0.7339 0.64225 0.0
H1382 H 0.11487 0.71662 0.62644 0.0
C1383 C 0.20936 0.6765 0.54556 0.0
C1384 C 0.15396 0.68381 0.56732 0.0
H1385 H 0.1192 0.72417 0.56225 0.0
C1386 C 0.14516 0.6744 0.58513 0.0
C1387 C 0.14422 0.70176 0.55875 0.0
C1388 C 0.15215 0.71192 0.53898 0.0
C1389 C 0.12713 0.68263 0.59477 0.0
C1390 C 0.11781 0.70098 0.58661 0.0
C1391 C 0.12643 0.7102 0.56862 0.0
C1392 C 0.09914 0.7109 0.59645 0.0
C1393 C 0.11798 0.67134 0.61339 0.0
C1394 C 0.08029 0.7138 0.58479 0.0
C1395 C 0.06296 0.72382 0.59376 0.0
C1396 C 0.06418 0.73125 0.61457 0.0
C1397 C 0.08305 0.72823 0.62625 0.0
C1398 C 0.10036 0.71824 0.61725 0.0
H1399 H 0.12306 0.65475 0.61398 0.0
H1400 H 0.12371 0.67923 0.62803 0.0
H1401 H 0.10034 0.67164 0.61301 0.0
H1402 H 0.07899 0.70835 0.56868 0.0
H1403 H 0.04871 0.72596 0.58431 0.0
H1404 H 0.96372 0.7294 0.69663 0.0
H1405 H 0.95003 0.69583 0.70886 0.0
H1406 H 0.98826 0.66359 0.6638 0.0
H1407 H 1.00188 0.69739 0.65102 0.0
H1408 H 0.94801 0.6471 0.66538 0.0
H1409 H 0.98116 0.65501 0.74596 0.0
H1410 H 0.9651 0.67691 0.7389 0.0
H1411 H 0.98921 0.67207 0.72495 0.0
C1412 C 0.96934 0.71523 0.68927 0.0
C1413 C 0.98409 0.71617 0.6729 0.0
C1414 C 0.96155 0.69598 0.69643 0.0
C1415 C 0.96851 0.67714 0.68765 0.0
C1416 C 0.98284 0.67794 0.67097 0.0
H1417 H 0.94054 0.55639 0.74713 0.0
H1418 H 0.95846 0.58772 0.73342 0.0
C1419 C 0.99058 0.69728 0.66366 0.0
C1420 C 0.96034 0.65675 0.6957 0.0
H1421 H 0.95376 0.6288 0.74076 0.0
C1422 C 0.94945 0.64299 0.68182 0.0
C1423 C 0.96253 0.65117 0.71709 0.0
C1424 C 0.97533 0.66447 0.73253 0.0
C1425 C 0.94001 0.62425 0.68889 0.0
C1426 C 0.94104 0.61935 0.71053 0.0
C1427 C 0.95264 0.6327 0.72425 0.0
C1428 C 0.93004 0.60057 0.71928 0.0
C1429 C 0.92918 0.60981 0.67304 0.0
C1430 C 0.90801 0.59762 0.71643 0.0
C1431 C 0.89776 0.57969 0.72415 0.0
C1432 C 0.90928 0.56447 0.73518 0.0
C1433 C 0.93121 0.56782 0.73871 0.0
C1434 C 0.94148 0.5857 0.73084 0.0
H1435 H 0.93545 0.61232 0.65704 0.0
H1436 H 0.93127 0.5931 0.67727 0.0
H1437 H 0.91191 0.61307 0.6725 0.0
H1438 H 0.8987 0.60915 0.70815 0.0
H1439 H 0.88082 0.57768 0.72129 0.0
H1440 H 0.19373 0.15408 0.49263 0.0
H1441 H 0.15989 0.16836 0.48009 0.0
H1442 H 0.1923 0.19889 0.42927 0.0
H1443 H 0.22605 0.1852 0.44193 0.0
H1444 H 0.16915 0.22581 0.45195 0.0
H1445 H 0.11968 0.1556 0.4309 0.0
H1446 H 0.1309 0.15543 0.45698 0.0
H1447 H 0.14813 0.15446 0.43481 0.0
C1448 C 0.19353 0.16347 0.47853 0.0
C1449 C 0.21257 0.16864 0.46835 0.0
C1450 C 0.17417 0.17155 0.47133 0.0
C1451 C 0.17354 0.1846 0.45366 0.0
C1452 C 0.19241 0.18889 0.44295 0.0
H1453 H 0.08401 0.25942 0.38435 0.0
H1454 H 0.11548 0.24241 0.39918 0.0
C1455 C 0.2117 0.18106 0.45023 0.0
C1456 C 0.15387 0.19562 0.44741 0.0
H1457 H 0.1025 0.18846 0.43025 0.0
C1458 C 0.15461 0.21762 0.44709 0.0
C1459 C 0.13483 0.18492 0.44139 0.0
C1460 C 0.13329 0.16129 0.44083 0.0
C1461 C 0.13697 0.22923 0.44073 0.0
C1462 C 0.11801 0.21861 0.43441 0.0
C1463 C 0.11706 0.19659 0.43513 0.0
C1464 C 0.09929 0.23005 0.42626 0.0
C1465 C 0.13852 0.2528 0.44146 0.0
C1466 C 0.07968 0.22854 0.4364 0.0
C1467 C 0.06171 0.23818 0.42787 0.0
C1468 C 0.06314 0.24966 0.40921 0.0
C1469 C 0.08271 0.25114 0.39907 0.0
C1470 C 0.10066 0.24149 0.40756 0.0
H1471 H 0.15293 0.25856 0.45015 0.0
H1472 H 0.139 0.25909 0.42529 0.0
H1473 H 0.12432 0.25899 0.44919 0.0
H1474 H 0.0782 0.21959 0.45071 0.0
H1475 H 0.04656 0.23613 0.43549 0.0
H1476 H 0.64919 0.45677 0.19968 0.0
H1477 H 0.62968 0.42704 0.18392 0.0
H1478 H 0.58062 0.43359 0.22994 0.0
H1479 H 0.59955 0.46411 0.24498 0.0
H1480 H 0.62108 0.39099 0.19889 0.0
H1481 H 0.54402 0.42712 0.17932 0.0
H1482 H 0.56698 0.44253 0.18758 0.0
H1483 H 0.55045 0.42979 0.20669 0.0
C1484 C 0.63408 0.45205 0.20623 0.0
C1485 C 0.6258 0.46285 0.22345 0.0
C1486 C 0.62294 0.43502 0.19723 0.0
C1487 C 0.60345 0.42817 0.20548 0.0
C1488 C 0.59523 0.43891 0.2228 0.0
H1489 H 0.55504 0.30075 0.18353 0.0
H1490 H 0.57219 0.33259 0.19788 0.0
C1491 C 0.60613 0.45628 0.23149 0.0
C1492 C 0.59251 0.4091 0.19665 0.0
H1493 H 0.54473 0.3897 0.1783 0.0
C1494 C 0.60441 0.39081 0.19423 0.0
C1495 C 0.57081 0.4088 0.1903 0.0
C1496 C 0.5574 0.42819 0.19089 0.0
C1497 C 0.5953 0.37231 0.18578 0.0
C1498 C 0.57336 0.37173 0.1804 0.0
C1499 C 0.56147 0.39003 0.18267 0.0
C1500 C 0.56251 0.35243 0.17207 0.0
C1501 C 0.60952 0.35384 0.18217 0.0
C1502 C 0.55074 0.35304 0.15315 0.0
C1503 C 0.54039 0.33497 0.14534 0.0
C1504 C 0.54133 0.31613 0.1565 0.0
C1505 C 0.55349 0.31535 0.17509 0.0
C1506 C 0.56363 0.33343 0.18305 0.0
H1507 H 0.62638 0.35894 0.18044 0.0
H1508 H 0.60876 0.34328 0.19591 0.0
H1509 H 0.60454 0.34481 0.16793 0.0
H1510 H 0.54971 0.36745 0.14433 0.0
H1511 H 0.53149 0.33575 0.13068 0.0
H1512 H 0.32075 0.87391 0.99222 0.0
H1513 H 0.35475 0.86119 0.97955 0.0
H1514 H 0.32167 0.815 0.94102 0.0
H1515 H 0.28759 0.82749 0.95355 0.0
H1516 H 0.36936 0.81719 0.98237 0.0
H1517 H 0.36333 0.84708 0.90071 0.0
H1518 H 0.34801 0.85773 0.92188 0.0
H1519 H 0.34058 0.83288 0.91036 0.0
C1520 C 0.32065 0.86112 0.98096 0.0
C1521 C 0.30137 0.85178 0.97388 0.0
C1522 C 0.34011 0.85386 0.97378 0.0
C1523 C 0.34067 0.83731 0.95921 0.0
C1524 C 0.32154 0.82797 0.95207 0.0
H1525 H 0.44412 0.77516 0.89559 0.0
H1526 H 0.40936 0.78685 0.90728 0.0
C1527 C 0.30208 0.8351 0.95934 0.0
C1528 C 0.36131 0.82941 0.95194 0.0
H1529 H 0.39278 0.82601 0.90897 0.0
C1530 C 0.37454 0.81914 0.96634 0.0
C1531 C 0.36786 0.83183 0.93099 0.0
C1532 C 0.35433 0.84309 0.91504 0.0
C1533 C 0.39415 0.81103 0.9603 0.0
C1534 C 0.40095 0.81379 0.93941 0.0
C1535 C 0.38759 0.82393 0.92497 0.0
C1536 C 0.42204 0.80664 0.93236 0.0
C1537 C 0.40716 0.79919 0.97626 0.0
C1538 C 0.44073 0.81412 0.94234 0.0
C1539 C 0.46059 0.80738 0.93582 0.0
C1540 C 0.46224 0.79321 0.91892 0.0
C1541 C 0.44348 0.78605 0.90866 0.0
C1542 C 0.42358 0.79271 0.91532 0.0
H1543 H 0.3971 0.79296 0.98904 0.0
H1544 H 0.41551 0.78592 0.96887 0.0
H1545 H 0.41926 0.80998 0.98348 0.0
H1546 H 0.44 0.82532 0.95514 0.0
H1547 H 0.47466 0.81343 0.94397 0.0
H1548 H 0.86931 0.42888 0.7783 0.0
H1549 H 0.88849 0.40144 0.79657 0.0
H1550 H 0.94327 0.44261 0.80359 0.0
H1551 H 0.92428 0.47023 0.78484 0.0
H1552 H 0.95393 0.40243 0.79172 0.0
H1553 H 0.89978 0.39996 0.85935 0.0
H1554 H 0.88613 0.39618 0.83465 0.0
H1555 H 0.89939 0.42083 0.84039 0.0
C1556 C 0.88542 0.43222 0.78374 0.0
C1557 C 0.89515 0.45192 0.78025 0.0
C1558 C 0.89634 0.41648 0.79428 0.0
C1559 C 0.91715 0.4201 0.80185 0.0
C1560 C 0.92715 0.43953 0.79801 0.0
H1561 H 0.97885 0.34255 0.89511 0.0
H1562 H 0.96239 0.37075 0.87542 0.0
C1563 C 0.91626 0.45532 0.78732 0.0
C1564 C 0.92837 0.40352 0.81372 0.0
H1565 H 0.9242 0.37202 0.85661 0.0
C1566 C 0.94752 0.39584 0.80598 0.0
C1567 C 0.92013 0.39514 0.83247 0.0
C1568 C 0.90035 0.40358 0.84234 0.0
C1569 C 0.95843 0.37971 0.81626 0.0
C1570 C 0.94971 0.37073 0.83454 0.0
C1571 C 0.93076 0.3787 0.84246 0.0
C1572 C 0.9602 0.35348 0.84612 0.0
C1573 C 0.97938 0.37272 0.80766 0.0
C1574 C 0.9643 0.33422 0.83629 0.0
C1575 C 0.9739 0.318 0.84751 0.0
C1576 C 0.97931 0.32063 0.86889 0.0
C1577 C 0.97489 0.33987 0.87871 0.0
C1578 C 0.96548 0.35608 0.86746 0.0
H1579 H 0.98662 0.38485 0.79744 0.0
H1580 H 0.99085 0.36912 0.82051 0.0
H1581 H 0.97672 0.35831 0.79808 0.0
H1582 H 0.95989 0.33164 0.81998 0.0
H1583 H 0.97693 0.30338 0.83946 0.0
H1584 H 0.29045 0.18455 0.54308 0.0
H1585 H 0.31901 0.19987 0.56494 0.0
H1586 H 0.36458 0.16189 0.53268 0.0
H1587 H 0.33544 0.14466 0.51287 0.0
H1588 H 0.37509 0.1615 0.56981 0.0
H1589 H 0.35841 0.2449 0.55479 0.0
H1590 H 0.33711 0.23324 0.56923 0.0
H1591 H 0.34242 0.22427 0.54306 0.0
C1592 C 0.30665 0.17972 0.54059 0.0
C1593 C 0.31097 0.16389 0.52599 0.0
C1594 C 0.32305 0.1886 0.55296 0.0
C1595 C 0.34427 0.18267 0.55014 0.0
C1596 C 0.34847 0.16693 0.53523 0.0
H1597 H 0.46978 0.22226 0.58962 0.0
H1598 H 0.43809 0.20496 0.57421 0.0
C1599 C 0.3319 0.15723 0.52371 0.0
C1600 C 0.36199 0.19192 0.56332 0.0
H1601 H 0.38376 0.23795 0.58202 0.0
C1602 C 0.37704 0.17828 0.57214 0.0
C1603 C 0.36451 0.21382 0.56709 0.0
C1604 C 0.34982 0.22988 0.55788 0.0
C1605 C 0.39464 0.18588 0.5839 0.0
C1606 C 0.39727 0.2077 0.5871 0.0
C1607 C 0.38183 0.22125 0.57927 0.0
C1608 C 0.41654 0.21702 0.59733 0.0
C1609 C 0.41021 0.17048 0.59291 0.0
C1610 C 0.41489 0.22979 0.61525 0.0
C1611 C 0.43297 0.23981 0.62393 0.0
C1612 C 0.45275 0.23768 0.6144 0.0
C1613 C 0.4545 0.22452 0.59684 0.0
C1614 C 0.43651 0.2144 0.58825 0.0
H1615 H 0.40286 0.15461 0.5945 0.0
H1616 H 0.42389 0.16917 0.58225 0.0
H1617 H 0.41635 0.17578 0.60853 0.0
H1618 H 0.3996 0.2321 0.6224 0.0
H1619 H 0.43144 0.24961 0.63774 0.0
H1620 H 0.51668 0.71666 0.32522 0.0
H1621 H 0.5315 0.68595 0.30783 0.0
H1622 H 0.56046 0.66704 0.36631 0.0
H1623 H 0.54566 0.69761 0.38384 0.0
H1624 H 0.57514 0.67651 0.30505 0.0
H1625 H 0.5301 0.61307 0.34482 0.0
H1626 H 0.52185 0.64005 0.34512 0.0
H1627 H 0.54292 0.63169 0.36233 0.0
C1628 C 0.52597 0.70583 0.33445 0.0
C1629 C 0.52993 0.70956 0.35594 0.0
C1630 C 0.53448 0.68832 0.32446 0.0
C1631 C 0.54691 0.6741 0.3358 0.0
C1632 C 0.55062 0.67761 0.35732 0.0
H1633 H 0.63893 0.58502 0.2918 0.0
H1634 H 0.62047 0.61495 0.30679 0.0
C1635 C 0.54221 0.69515 0.3673 0.0
C1636 C 0.55687 0.65616 0.32496 0.0
H1637 H 0.55954 0.60269 0.32444 0.0
C1638 C 0.57165 0.66036 0.3092 0.0
C1639 C 0.55215 0.6351 0.33025 0.0
C1640 C 0.53575 0.62961 0.34642 0.0
C1641 C 0.58221 0.64409 0.29894 0.0
C1642 C 0.57803 0.62306 0.30474 0.0
C1643 C 0.56286 0.61883 0.32014 0.0
C1644 C 0.58932 0.60522 0.29512 0.0
C1645 C 0.59765 0.64951 0.28186 0.0
C1646 C 0.57792 0.58967 0.28378 0.0
C1647 C 0.58842 0.57254 0.2752 0.0
C1648 C 0.61053 0.57052 0.27796 0.0
C1649 C 0.62191 0.58615 0.2893 0.0
C1650 C 0.6114 0.60332 0.29781 0.0
H1651 H 0.59512 0.66556 0.27572 0.0
H1652 H 0.61412 0.64885 0.2883 0.0
H1653 H 0.59617 0.63814 0.26863 0.0
H1654 H 0.56086 0.59079 0.2816 0.0
H1655 H 0.57916 0.56074 0.26662 0.0
H1656 H 0.05691 0.81585 0.12125 0.0
H1657 H 0.08916 0.83288 0.10781 0.0
H1658 H 0.08245 0.79655 0.05061 0.0
H1659 H 0.04945 0.78091 0.0634 0.0
H1660 H 0.1256 0.8209 0.09791 0.0
H1661 H 0.08976 0.85176 0.02508 0.0
H1662 H 0.07386 0.83986 0.04515 0.0
H1663 H 0.08657 0.82384 0.02574 0.0
C1664 C 0.06234 0.8117 0.10576 0.0
C1665 C 0.05065 0.79736 0.0932 0.0
C1666 C 0.08075 0.82138 0.09807 0.0
C1667 C 0.088 0.81651 0.07788 0.0
C1668 C 0.07677 0.80134 0.06581 0.0
H1669 H 0.21768 0.84165 0.03848 0.0
H1670 H 0.1853 0.8272 0.05387 0.0
C1671 C 0.05802 0.79222 0.07321 0.0
C1672 C 0.1075 0.82692 0.06964 0.0
H1673 H 0.12778 0.85074 0.02636 0.0
C1674 C 0.12597 0.82766 0.08234 0.0
C1675 C 0.10803 0.83618 0.0495 0.0
C1676 C 0.0884 0.83809 0.03572 0.0
C1677 C 0.14494 0.83699 0.07538 0.0
C1678 C 0.14585 0.84488 0.05468 0.0
C1679 C 0.12729 0.84446 0.04212 0.0
C1680 C 0.16573 0.85367 0.04562 0.0
C1681 C 0.16354 0.83875 0.0906 0.0
C1682 C 0.16553 0.87305 0.03518 0.0
C1683 C 0.18383 0.88081 0.02556 0.0
C1684 C 0.20257 0.86923 0.02604 0.0
C1685 C 0.2031 0.85037 0.03718 0.0
C1686 C 0.18472 0.84238 0.04644 0.0
H1687 H 0.15809 0.83933 0.10708 0.0
H1688 H 0.17356 0.82469 0.08899 0.0
H1689 H 0.17346 0.85296 0.08767 0.0
H1690 H 0.15117 0.88217 0.03441 0.0
H1691 H 0.18329 0.89571 0.01753 0.0
H1692 H 0.72474 0.88605 0.57306 0.0
H1693 H 0.70941 0.90409 0.60306 0.0
H1694 H 0.73795 0.96242 0.5831 0.0
H1695 H 0.75329 0.9445 0.55292 0.0
H1696 H 0.72934 0.92789 0.63593 0.0
H1697 H 0.67398 0.97563 0.5879 0.0
H1698 H 0.68726 0.95305 0.57748 0.0
H1699 H 0.7015 0.97751 0.58086 0.0
C1700 C 0.72788 0.90269 0.57509 0.0
C1701 C 0.74016 0.91386 0.56053 0.0
C1702 C 0.71909 0.91298 0.59226 0.0
C1703 C 0.72226 0.93465 0.59513 0.0
C1704 C 0.735 0.94575 0.58097 0.0
H1705 H 0.69133 0.00474 0.70865 0.0
H1706 H 0.70938 0.98988 0.67839 0.0
C1707 C 0.74387 0.93546 0.56381 0.0
C1708 C 0.71201 0.94555 0.61287 0.0
H1709 H 0.67474 0.98207 0.62447 0.0
C1710 C 0.71747 0.93979 0.63345 0.0
C1711 C 0.69632 0.96089 0.60956 0.0
C1712 C 0.68922 0.96708 0.58778 0.0
C1713 C 0.70773 0.94903 0.65082 0.0
C1714 C 0.69227 0.96459 0.64753 0.0
C1715 C 0.68673 0.97027 0.62695 0.0
C1716 C 0.68117 0.9746 0.66526 0.0
C1717 C 0.71368 0.9417 0.67256 0.0
C1718 C 0.65919 0.9715 0.66758 0.0
C1719 C 0.6488 0.98001 0.68483 0.0
C1720 C 0.66019 0.99194 0.70002 0.0
C1721 C 0.68209 0.99558 0.69729 0.0
C1722 C 0.69247 0.987 0.68006 0.0
H1723 H 0.72226 0.92662 0.6722 0.0
H1724 H 0.72425 0.95365 0.68027 0.0
H1725 H 0.69932 0.93973 0.6823 0.0
H1726 H 0.65014 0.96207 0.65628 0.0
H1727 H 0.63192 0.97695 0.68644 0.0
H1728 H 0.90483 0.97355 0.33513 0.0
H1729 H 0.88527 0.95592 0.36278 0.0
H1730 H 0.82604 0.9758 0.335 0.0
H1731 H 0.8455 0.99311 0.30683 0.0
H1732 H 0.85952 0.97166 0.39187 0.0
H1733 H 0.81453 0.91382 0.34232 0.0
H1734 H 0.83637 0.92936 0.33244 0.0
H1735 H 0.81048 0.94058 0.33492 0.0
C1736 C 0.88762 0.97412 0.33475 0.0
C1737 C 0.87676 0.98468 0.3186 0.0
C1738 C 0.87646 0.96403 0.35065 0.0
C1739 C 0.85416 0.96427 0.35086 0.0
C1740 C 0.84322 0.97497 0.33492 0.0
H1741 H 0.78197 0.9295 0.46234 0.0
H1742 H 0.79891 0.94893 0.43402 0.0
C1743 C 0.85439 0.98495 0.31886 0.0
C1744 C 0.8426 0.95364 0.36808 0.0
H1745 H 0.80572 0.91525 0.37827 0.0
C1746 C 0.84774 0.95932 0.3889 0.0
C1747 C 0.8274 0.93739 0.36421 0.0
C1748 C 0.82198 0.92975 0.34229 0.0
C1749 C 0.83822 0.94917 0.40593 0.0
C1750 C 0.8227 0.93321 0.40206 0.0
C1751 C 0.81749 0.92759 0.38124 0.0
C1752 C 0.81228 0.92156 0.41934 0.0
C1753 C 0.84541 0.9552 0.42789 0.0
C1754 C 0.81367 0.89964 0.42026 0.0
C1755 C 0.80378 0.88845 0.43628 0.0
C1756 C 0.79228 0.89893 0.45181 0.0
C1757 C 0.79089 0.92092 0.45083 0.0
C1758 C 0.80065 0.93209 0.43467 0.0
H1759 H 0.86118 0.96332 0.42802 0.0
H1760 H 0.83377 0.96609 0.43471 0.0
H1761 H 0.84639 0.94121 0.43812 0.0
H1762 H 0.8225 0.89116 0.40859 0.0
H1763 H 0.80518 0.87155 0.43646 0.0
H1764 H 0.77153 0.11716 0.07363 0.0
H1765 H 0.78551 0.1047 0.10733 0.0
H1766 H 0.82536 0.06115 0.07495 0.0
H1767 H 0.81125 0.07307 0.04139 0.0
H1768 H 0.80481 0.04254 0.10687 0.0
H1769 H 0.84309 0.11701 0.13454 0.0
H1770 H 0.81528 0.119 0.12825 0.0
H1771 H 0.83374 0.11321 0.10787 0.0
C1772 C 0.78339 0.10504 0.07367 0.0
C1773 C 0.79027 0.09618 0.05473 0.0
C1774 C 0.79143 0.09799 0.09297 0.0
C1775 C 0.80669 0.08215 0.09369 0.0
C1776 C 0.81361 0.07338 0.07482 0.0
H1777 H 0.89142 0.04747 0.19494 0.0
H1778 H 0.87439 0.06025 0.16289 0.0
C1779 C 0.80552 0.08028 0.05559 0.0
C1780 C 0.8152 0.07418 0.11398 0.0
H1781 H 0.84308 0.08867 0.15832 0.0
C1782 C 0.81314 0.05264 0.11815 0.0
C1783 C 0.82627 0.08732 0.12858 0.0
C1784 C 0.82994 0.11038 0.12457 0.0
C1785 C 0.82197 0.04384 0.1364 0.0
C1786 C 0.83275 0.05702 0.15116 0.0
C1787 C 0.83469 0.07859 0.14706 0.0
C1788 C 0.84294 0.04868 0.17053 0.0
C1789 C 0.82025 0.02041 0.13932 0.0
C1790 C 0.83094 0.03788 0.18555 0.0
C1791 C 0.84071 0.03034 0.20385 0.0
C1792 C 0.8626 0.03371 0.20759 0.0
C1793 C 0.87454 0.04456 0.19254 0.0
C1794 C 0.86481 0.05195 0.17422 0.0
H1795 H 0.81659 0.0121 0.12429 0.0
H1796 H 0.83521 0.01412 0.14606 0.0
H1797 H 0.80719 0.01681 0.15029 0.0
H1798 H 0.81397 0.03554 0.18329 0.0
H1799 H 0.83103 0.02223 0.21524 0.0
H1800 H 0.67593 0.02529 0.80447 0.0
H1801 H 0.69544 0.04008 0.83484 0.0
H1802 H 0.6417 0.07841 0.84934 0.0
H1803 H 0.62186 0.06307 0.81964 0.0
H1804 H 0.7084 0.07826 0.84601 0.0
H1805 H 0.65051 0.05012 0.90429 0.0
H1806 H 0.64919 0.04192 0.87719 0.0
H1807 H 0.63838 0.06669 0.88507 0.0
C1808 C 0.66832 0.03692 0.81411 0.0
C1809 C 0.64727 0.04283 0.80981 0.0
C1810 C 0.67947 0.04535 0.83147 0.0
C1811 C 0.66984 0.05996 0.84473 0.0
C1812 C 0.64921 0.06663 0.83981 0.0
H1813 H 0.74177 0.13677 0.93682 0.0
H1814 H 0.7236 0.12347 0.90509 0.0
C1815 C 0.63794 0.05796 0.82272 0.0
C1816 C 0.68131 0.06816 0.86372 0.0
H1817 H 0.67652 0.07498 0.91651 0.0
C1818 C 0.70156 0.07736 0.8615 0.0
C1819 C 0.6725 0.06676 0.88396 0.0
C1820 C 0.65156 0.05564 0.88783 0.0
C1821 C 0.71319 0.08539 0.87886 0.0
C1822 C 0.70401 0.08481 0.89906 0.0
C1823 C 0.68372 0.07551 0.90118 0.0
C1824 C 0.71504 0.09329 0.91832 0.0
C1825 C 0.73527 0.09402 0.87508 0.0
C1826 C 0.71512 0.08152 0.93693 0.0
C1827 C 0.7246 0.0896 0.9553 0.0
C1828 C 0.73514 0.10912 0.95525 0.0
C1829 C 0.73453 0.12123 0.93696 0.0
C1830 C 0.72436 0.1135 0.91874 0.0
H1831 H 0.74274 0.08591 0.86167 0.0
H1832 H 0.73424 0.11087 0.87103 0.0
H1833 H 0.74581 0.09248 0.889 0.0
H1834 H 0.70777 0.06605 0.93733 0.0
H1835 H 0.72363 0.08058 0.9696 0.0
H1836 H 0.58421 0.75858 0.88033 0.0
H1837 H 0.61681 0.74295 0.89469 0.0
H1838 H 0.58046 0.71402 0.9438 0.0
H1839 H 0.54793 0.72969 0.92951 0.0
H1840 H 0.63287 0.74748 0.94003 0.0
H1841 H 0.61475 0.66575 0.91327 0.0
H1842 H 0.60288 0.68826 0.90096 0.0
H1843 H 0.59396 0.67973 0.92612 0.0
C1844 C 0.58332 0.749 0.89428 0.0
C1845 C 0.56386 0.74579 0.90428 0.0
C1846 C 0.60184 0.74009 0.90241 0.0
C1847 C 0.60095 0.72734 0.92024 0.0
C1848 C 0.5814 0.72377 0.92998 0.0
H1849 H 0.69597 0.65413 0.9864 0.0
H1850 H 0.66295 0.66908 0.97293 0.0
C1851 C 0.56295 0.73286 0.92198 0.0
C1852 C 0.62051 0.71782 0.92871 0.0
H1853 H 0.64601 0.67126 0.93364 0.0
C1854 C 0.63578 0.73084 0.93866 0.0
C1855 C 0.6241 0.69608 0.92698 0.0
C1856 C 0.60817 0.68155 0.91617 0.0
C1857 C 0.65458 0.72267 0.94718 0.0
C1858 C 0.65847 0.70095 0.94503 0.0
C1859 C 0.64306 0.6879 0.93519 0.0
C1860 C 0.67852 0.69153 0.95273 0.0
C1861 C 0.66982 0.73732 0.9588 0.0
C1862 C 0.69822 0.69883 0.94547 0.0
C1863 C 0.71712 0.69044 0.95324 0.0
C1864 C 0.71671 0.67431 0.96819 0.0
C1865 C 0.6969 0.66652 0.97489 0.0
C1866 C 0.67799 0.67507 0.96723 0.0
H1867 H 0.66169 0.75153 0.96453 0.0
H1868 H 0.6774 0.72943 0.9724 0.0
H1869 H 0.6825 0.74252 0.94801 0.0
H1870 H 0.699 0.7111 0.93383 0.0
H1871 H 0.73206 0.69668 0.94754 0.0
H1872 H 0.07797 0.06228 0.76281 0.0
H1873 H 0.05928 0.09251 0.77697 0.0
H1874 H 0.11818 0.11665 0.80382 0.0
H1875 H 0.13699 0.08656 0.78968 0.0
H1876 H 0.0569 0.10404 0.81985 0.0
H1877 H 0.09349 0.16752 0.77268 0.0
H1878 H 0.09475 0.14018 0.76532 0.0
H1879 H 0.11229 0.15073 0.78541 0.0
C1880 C 0.087 0.07415 0.77151 0.0
C1881 C 0.10899 0.07204 0.77506 0.0
C1882 C 0.07628 0.09138 0.77964 0.0
C1883 C 0.08737 0.10694 0.79127 0.0
C1884 C 0.10936 0.10502 0.79459 0.0
H1885 H 0.044 0.19763 0.88125 0.0
H1886 H 0.05839 0.16733 0.86292 0.0
C1887 C 0.12008 0.08776 0.78656 0.0
C1888 C 0.07581 0.12466 0.80079 0.0
H1889 H 0.0733 0.17813 0.80207 0.0
C1890 C 0.06036 0.12024 0.81586 0.0
C1891 C 0.08019 0.14577 0.79541 0.0
C1892 C 0.09594 0.15141 0.77868 0.0
C1893 C 0.04964 0.13639 0.82615 0.0
C1894 C 0.05462 0.15752 0.82136 0.0
C1895 C 0.0696 0.16193 0.80584 0.0
C1896 C 0.04487 0.1753 0.83264 0.0
C1897 C 0.03302 0.13071 0.84203 0.0
C1898 C 0.03259 0.18994 0.82169 0.0
C1899 C 0.0243 0.20729 0.83215 0.0
C1900 C 0.02835 0.21044 0.85371 0.0
C1901 C 0.04049 0.19562 0.86466 0.0
C1902 C 0.04867 0.17824 0.85422 0.0
H1903 H 0.02719 0.11427 0.83999 0.0
H1904 H 0.04006 0.13234 0.85804 0.0
H1905 H 0.01926 0.14134 0.84086 0.0
H1906 H 0.02955 0.18802 0.80501 0.0
H1907 H 0.01511 0.21846 0.82323 0.0
H1908 H 0.94496 0.2875 0.38641 0.0
H1909 H 0.90949 0.29916 0.39629 0.0
H1910 H 0.93379 0.31691 0.45758 0.0
H1911 H 0.96906 0.30535 0.44804 0.0
H1912 H 0.89496 0.29201 0.45705 0.0
H1913 H 0.89148 0.3617 0.40503 0.0
H1914 H 0.89844 0.3372 0.39299 0.0
H1915 H 0.91619 0.34927 0.41198 0.0
C1916 C 0.94276 0.29389 0.40199 0.0
C1917 C 0.95994 0.29557 0.41637 0.0
C1918 C 0.92251 0.30063 0.40756 0.0
C1919 C 0.91912 0.30909 0.42758 0.0
C1920 C 0.93612 0.31052 0.44202 0.0
H1921 H 0.81703 0.37902 0.48231 0.0
H1922 H 0.85088 0.3667 0.46879 0.0
C1923 C 0.95631 0.30393 0.43647 0.0
C1924 C 0.89784 0.31621 0.43384 0.0
H1925 H 0.86125 0.35436 0.42539 0.0
C1926 C 0.88751 0.30556 0.45006 0.0
C1927 C 0.88835 0.33405 0.42484 0.0
C1928 C 0.89917 0.34639 0.40784 0.0
C1929 C 0.86788 0.31227 0.45753 0.0
C1930 C 0.8583 0.33001 0.44843 0.0
C1931 C 0.86863 0.34071 0.43224 0.0
C1932 C 0.83766 0.33781 0.45581 0.0
C1933 C 0.85772 0.30063 0.47541 0.0
C1934 C 0.81903 0.32576 0.45269 0.0
C1935 C 0.79968 0.33273 0.46032 0.0
C1936 C 0.79857 0.35193 0.47126 0.0
C1937 C 0.81728 0.36414 0.47405 0.0
C1938 C 0.83663 0.35717 0.46629 0.0
H1939 H 0.86904 0.28998 0.48337 0.0
H1940 H 0.85154 0.3118 0.48718 0.0
H1941 H 0.84409 0.29103 0.46925 0.0
H1942 H 0.81949 0.31087 0.44444 0.0
H1943 H 0.78565 0.32289 0.45785 0.0
H1944 H 0.57987 0.96409 0.76207 0.0
H1945 H 0.56323 0.93491 0.7807 0.0
H1946 H 0.62132 0.92717 0.81671 0.0
H1947 H 0.63647 0.95839 0.80028 0.0
H1948 H 0.56702 0.89795 0.78362 0.0
H1949 H 0.58543 0.92476 0.86445 0.0
H1950 H 0.59283 0.94042 0.8424 0.0
H1951 H 0.60972 0.91965 0.8513 0.0
C1952 C 0.58854 0.95679 0.77479 0.0
C1953 C 0.60865 0.96452 0.78102 0.0
C1954 C 0.57929 0.93972 0.78511 0.0
C1955 C 0.59052 0.9292 0.80107 0.0
C1956 C 0.61161 0.93569 0.80563 0.0
H1957 H 0.54841 0.80474 0.84219 0.0
H1958 H 0.56277 0.83435 0.82242 0.0
C1959 C 0.62041 0.9534 0.79602 0.0
C1960 C 0.58036 0.91117 0.81229 0.0
H1961 H 0.57417 0.88892 0.86048 0.0
C1962 C 0.56835 0.89629 0.8005 0.0
C1963 C 0.58186 0.90868 0.8344 0.0
C1964 C 0.59298 0.92438 0.84881 0.0
C1965 C 0.55781 0.87933 0.81001 0.0
C1966 C 0.56023 0.87635 0.8319 0.0
C1967 C 0.57228 0.89108 0.84369 0.0
C1968 C 0.55048 0.85821 0.8431 0.0
C1969 C 0.54371 0.86522 0.79647 0.0
C1970 C 0.53929 0.86155 0.86172 0.0
C1971 C 0.53179 0.8446 0.87343 0.0
C1972 C 0.53485 0.82396 0.86651 0.0
C1973 C 0.54548 0.82055 0.84762 0.0
C1974 C 0.55356 0.8375 0.83623 0.0
H1975 H 0.53764 0.87365 0.78246 0.0
H1976 H 0.55309 0.85181 0.79079 0.0
H1977 H 0.5299 0.85904 0.80528 0.0
H1978 H 0.53668 0.87732 0.86743 0.0
H1979 H 0.52369 0.84762 0.88799 0.0
H1980 H 0.9805 0.1992 0.39074 0.0
H1981 H 0.96421 0.16729 0.37569 0.0
H1982 H 0.95998 0.19704 0.31526 0.0
H1983 H 0.97605 0.22915 0.33024 0.0
H1984 H 0.92305 0.17394 0.32587 0.0
H1985 H 0.99605 0.12725 0.33695 0.0
H1986 H 0.98687 0.13964 0.36042 0.0
H1987 H 0.99617 0.15549 0.33913 0.0
C1988 C 0.976 0.19902 0.37427 0.0
C1989 C 0.97971 0.21667 0.36164 0.0
C1990 C 0.96679 0.18073 0.36568 0.0
C1991 C 0.96124 0.17968 0.34429 0.0
C1992 C 0.96426 0.19749 0.33179 0.0
H1993 H 0.93735 0.06801 0.26832 0.0
H1994 H 0.95129 0.10085 0.28395 0.0
C1995 C 0.97346 0.21581 0.34037 0.0
C1996 C 0.95268 0.15989 0.33486 0.0
H1997 H 0.96497 0.10884 0.32548 0.0
C1998 C 0.9322 0.15969 0.32575 0.0
C1999 C 0.96478 0.1414 0.33448 0.0
C2000 C 0.98727 0.1409 0.34308 0.0
C2001 C 0.92339 0.14136 0.31655 0.0
C2002 C 0.93529 0.12273 0.31669 0.0
C2003 C 0.95584 0.12305 0.32555 0.0
C2004 C 0.9269 0.10281 0.30742 0.0
C2005 C 0.90158 0.14218 0.30642 0.0
C2006 C 0.90875 0.09291 0.31559 0.0
C2007 C 0.90093 0.07412 0.30678 0.0
C2008 C 0.91146 0.06467 0.29004 0.0
C2009 C 0.92946 0.07465 0.28173 0.0
C2010 C 0.93728 0.09346 0.29051 0.0
H2011 H 0.89682 0.15854 0.30309 0.0
H2012 H 0.90097 0.13304 0.29153 0.0
H2013 H 0.88975 0.13519 0.31717 0.0
H2014 H 0.90067 0.0997 0.32881 0.0
H2015 H 0.88677 0.06685 0.31315 0.0
H2016 H 0.57037 0.0696 0.74574 0.0
H2017 H 0.56139 0.10159 0.72735 0.0
H2018 H 0.62081 0.09996 0.69471 0.0
H2019 H 0.63023 0.06772 0.71334 0.0
H2020 H 0.61025 0.14043 0.71171 0.0
H2021 H 0.54364 0.10495 0.66505 0.0
H2022 H 0.54187 0.09986 0.69263 0.0
H2023 H 0.56357 0.0894 0.67806 0.0
C2024 C 0.58163 0.0759 0.73465 0.0
C2025 C 0.60105 0.06593 0.731 0.0
C2026 C 0.57637 0.09421 0.72407 0.0
C2027 C 0.59028 0.10299 0.70947 0.0
C2028 C 0.6098 0.09334 0.70586 0.0
H2029 H 0.54321 0.20024 0.62646 0.0
H2030 H 0.56149 0.16967 0.64018 0.0
C2031 C 0.61512 0.07489 0.71647 0.0
C2032 C 0.5842 0.12232 0.69821 0.0
H2033 H 0.5449 0.14234 0.66718 0.0
C2034 C 0.59612 0.14086 0.70174 0.0
C2035 C 0.56591 0.12276 0.68504 0.0
C2036 C 0.55311 0.10314 0.67977 0.0
C2037 C 0.58972 0.16003 0.69308 0.0
C2038 C 0.57075 0.16066 0.68086 0.0
C2039 C 0.55933 0.14193 0.67671 0.0
C2040 C 0.56207 0.18049 0.67242 0.0
C2041 C 0.60334 0.17938 0.69708 0.0
C2042 C 0.55654 0.19696 0.68593 0.0
C2043 C 0.54617 0.2146 0.67807 0.0
C2044 C 0.54089 0.21593 0.65662 0.0
C2045 C 0.54697 0.19968 0.64308 0.0
C2046 C 0.55744 0.18218 0.6509 0.0
H2047 H 0.62003 0.17529 0.70101 0.0
H2048 H 0.6033 0.18986 0.68324 0.0
H2049 H 0.59694 0.18817 0.71059 0.0
H2050 H 0.5595 0.19583 0.70266 0.0
H2051 H 0.54157 0.2268 0.68891 0.0
H2052 H 0.20915 0.38651 0.95411 0.0
H2053 H 0.17707 0.37149 0.93701 0.0
H2054 H 0.17505 0.32263 0.9835 0.0
H2055 H 0.20731 0.33752 1.00037 0.0
H2056 H 0.16881 0.30734 0.94379 0.0
H2057 H 0.11641 0.37497 0.95669 0.0
H2058 H 0.14032 0.38171 0.94311 0.0
H2059 H 0.14192 0.3727 0.96977 0.0
C2060 C 0.20182 0.37252 0.96056 0.0
C2061 C 0.2109 0.36275 0.97811 0.0
C2062 C 0.18343 0.36407 0.95093 0.0
C2063 C 0.17347 0.3461 0.95914 0.0
C2064 C 0.18244 0.33651 0.9769 0.0
H2065 H 0.06286 0.26833 0.92774 0.0
H2066 H 0.09549 0.28392 0.94305 0.0
C2067 C 0.20091 0.34489 0.98643 0.0
C2068 C 0.15399 0.33697 0.94896 0.0
H2069 H 0.10297 0.34786 0.93419 0.0
C2070 C 0.15441 0.31615 0.94179 0.0
C2071 C 0.13514 0.34853 0.94631 0.0
C2072 C 0.13328 0.37065 0.95455 0.0
C2073 C 0.13667 0.3066 0.93183 0.0
C2074 C 0.11778 0.31809 0.92932 0.0
C2075 C 0.11739 0.33901 0.93627 0.0
C2076 C 0.0981 0.30857 0.91997 0.0
C2077 C 0.13852 0.28443 0.92372 0.0
C2078 C 0.08849 0.31746 0.90215 0.0
C2079 C 0.06971 0.30871 0.8936 0.0
C2080 C 0.05998 0.29132 0.90308 0.0
C2081 C 0.0698 0.28216 0.92059 0.0
C2082 C 0.08858 0.29085 0.92912 0.0
H2083 H 0.15537 0.28026 0.92119 0.0
H2084 H 0.13193 0.27341 0.93544 0.0
H2085 H 0.1295 0.28216 0.90874 0.0
H2086 H 0.09559 0.3311 0.89483 0.0
H2087 H 0.06257 0.31572 0.87981 0.0
H2088 H 0.44887 0.76412 0.44107 0.0
H2089 H 0.41804 0.74395 0.45287 0.0
H2090 H 0.43025 0.696 0.40692 0.0
H2091 H 0.46124 0.71615 0.39479 0.0
H2092 H 0.38096 0.72788 0.42626 0.0
H2093 H 0.42784 0.66637 0.46668 0.0
H2094 H 0.43893 0.69197 0.46092 0.0
H2095 H 0.43508 0.67297 0.44029 0.0
C2096 C 0.44506 0.7493 0.43338 0.0
C2097 C 0.45766 0.74174 0.41699 0.0
C2098 C 0.42737 0.73783 0.44015 0.0
C2099 C 0.42198 0.71845 0.43088 0.0
C2100 C 0.43427 0.71089 0.41437 0.0
H2101 H 0.32869 0.62208 0.45965 0.0
H2102 H 0.3583 0.64299 0.44656 0.0
C2103 C 0.45193 0.72246 0.40742 0.0
C2104 C 0.40358 0.70613 0.43873 0.0
H2105 H 0.39056 0.66243 0.46671 0.0
C2106 C 0.38299 0.71355 0.4351 0.0
C2107 C 0.40635 0.6875 0.45025 0.0
C2108 C 0.42821 0.67918 0.45496 0.0
C2109 C 0.365 0.7026 0.44238 0.0
C2110 C 0.36775 0.68403 0.45414 0.0
C2111 C 0.38842 0.67667 0.45777 0.0
C2112 C 0.34944 0.6716 0.46231 0.0
C2113 C 0.34323 0.71073 0.43688 0.0
C2114 C 0.33462 0.68061 0.4758 0.0
C2115 C 0.31743 0.66869 0.48325 0.0
C2116 C 0.3149 0.6474 0.4776 0.0
C2117 C 0.33005 0.63839 0.46442 0.0
C2118 C 0.34706 0.65034 0.45687 0.0
H2119 H 0.34369 0.72133 0.42313 0.0
H2120 H 0.33182 0.69764 0.43336 0.0
H2121 H 0.33719 0.71979 0.45037 0.0
H2122 H 0.33641 0.69685 0.48069 0.0
H2123 H 0.30619 0.67612 0.49349 0.0
H2124 H 0.81418 0.51033 0.80351 0.0
H2125 H 0.80183 0.52777 0.83511 0.0
H2126 H 0.86046 0.56361 0.83943 0.0
H2127 H 0.87315 0.54615 0.80778 0.0
H2128 H 0.84622 0.54519 0.87855 0.0
H2129 H 0.78312 0.58986 0.83732 0.0
H2130 H 0.78279 0.56206 0.83242 0.0
H2131 H 0.80475 0.5779 0.82365 0.0
C2132 C 0.82454 0.5219 0.81112 0.0
C2133 C 0.84468 0.52686 0.80295 0.0
C2134 C 0.81738 0.5319 0.82919 0.0
C2135 C 0.83013 0.54712 0.83949 0.0
C2136 C 0.85035 0.55193 0.83166 0.0
H2137 H 0.79963 0.64323 0.92749 0.0
H2138 H 0.81066 0.62141 0.89837 0.0
C2139 C 0.85754 0.54197 0.81352 0.0
C2140 C 0.82222 0.55822 0.85828 0.0
H2141 H 0.78448 0.59245 0.87428 0.0
C2142 C 0.83268 0.55547 0.87767 0.0
C2143 C 0.80461 0.57169 0.85703 0.0
C2144 C 0.79321 0.57576 0.83649 0.0
C2145 C 0.826 0.5659 0.89586 0.0
C2146 C 0.80835 0.5793 0.89461 0.0
C2147 C 0.79787 0.58198 0.87523 0.0
C2148 C 0.80156 0.59208 0.91277 0.0
C2149 C 0.83821 0.56303 0.91617 0.0
C2150 C 0.79259 0.58282 0.93059 0.0
C2151 C 0.7861 0.59534 0.94744 0.0
C2152 C 0.78854 0.61732 0.94673 0.0
C2153 C 0.7975 0.62639 0.92874 0.0
C2154 C 0.80383 0.61394 0.91198 0.0
H2155 H 0.85338 0.55474 0.91381 0.0
H2156 H 0.84177 0.57846 0.92372 0.0
H2157 H 0.82836 0.5537 0.92711 0.0
H2158 H 0.79048 0.56596 0.93139 0.0
H2159 H 0.77927 0.58781 0.96099 0.0
H2160 H 0.69861 0.53168 0.19583 0.0
H2161 H 0.70552 0.5512 0.16404 0.0
H2162 H 0.64438 0.58031 0.16816 0.0
H2163 H 0.63704 0.56047 0.20028 0.0
H2164 H 0.6545 0.56478 0.12706 0.0
H2165 H 0.7198 0.61419 0.16089 0.0
H2166 H 0.72335 0.58677 0.16575 0.0
H2167 H 0.70113 0.59999 0.17695 0.0
C2168 C 0.68653 0.54222 0.19014 0.0
C2169 C 0.66723 0.54449 0.20077 0.0
C2170 C 0.69061 0.55348 0.17195 0.0
C2171 C 0.67562 0.56743 0.1639 0.0
C2172 C 0.65622 0.5697 0.17422 0.0
H2173 H 0.72049 0.64949 0.06415 0.0
H2174 H 0.70214 0.63698 0.09526 0.0
C2175 C 0.65208 0.5584 0.19259 0.0
C2176 C 0.68047 0.57924 0.14452 0.0
H2177 H 0.71834 0.61129 0.1234 0.0
C2178 C 0.66824 0.57524 0.12627 0.0
C2179 C 0.69823 0.59309 0.14358 0.0
C2180 C 0.71126 0.59895 0.16289 0.0
C2181 C 0.67397 0.5839 0.10688 0.0
C2182 C 0.69261 0.59659 0.10569 0.0
C2183 C 0.70417 0.6014 0.12418 0.0
C2184 C 0.70106 0.60442 0.08547 0.0
C2185 C 0.66005 0.57928 0.08787 0.0
C2186 C 0.70632 0.59036 0.06937 0.0
C2187 C 0.71668 0.59751 0.05143 0.0
C2188 C 0.72228 0.61883 0.04941 0.0
C2189 C 0.71645 0.63296 0.06524 0.0
C2190 C 0.70595 0.62583 0.08306 0.0
H2191 H 0.64342 0.57561 0.09239 0.0
H2192 H 0.65997 0.59271 0.07687 0.0
H2193 H 0.6662 0.56538 0.07951 0.0
H2194 H 0.70323 0.5737 0.07105 0.0
H2195 H 0.7211 0.58621 0.0396 0.0
H2196 H 0.74393 0.43169 0.45583 0.0
H2197 H 0.73226 0.45366 0.42648 0.0
H2198 H 0.69041 0.40379 0.40433 0.0
H2199 H 0.70195 0.38173 0.4333 0.0
H2200 H 0.73492 0.4414 0.38174 0.0
H2201 H 0.65261 0.45747 0.40652 0.0
H2202 H 0.67336 0.44983 0.42473 0.0
H2203 H 0.66028 0.43049 0.40823 0.0
C2204 C 0.73214 0.42544 0.44479 0.0
C2205 C 0.72391 0.40491 0.44695 0.0
C2206 C 0.7255 0.43802 0.42805 0.0
C2207 C 0.71026 0.43043 0.41345 0.0
C2208 C 0.70193 0.41006 0.41564 0.0
H2209 H 0.64327 0.46503 0.30141 0.0
H2210 H 0.65852 0.44872 0.33277 0.0
C2211 C 0.70869 0.39742 0.43216 0.0
C2212 C 0.70387 0.44313 0.39511 0.0
H2213 H 0.66075 0.46475 0.37097 0.0
C2214 C 0.7188 0.44684 0.37945 0.0
C2215 C 0.68281 0.45 0.39219 0.0
C2216 C 0.66633 0.44694 0.40886 0.0
C2217 C 0.71297 0.45631 0.36042 0.0
C2218 C 0.69172 0.46273 0.35715 0.0
C2219 C 0.677 0.45971 0.37327 0.0
C2220 C 0.68401 0.47171 0.3369 0.0
C2221 C 0.72924 0.45788 0.34346 0.0
C2222 C 0.69339 0.48992 0.32845 0.0
C2223 C 0.68493 0.49896 0.31021 0.0
C2224 C 0.66683 0.49006 0.30024 0.0
C2225 C 0.65747 0.47192 0.30863 0.0
C2226 C 0.66612 0.46269 0.3266 0.0
H2227 H 0.74343 0.44825 0.34685 0.0
H2228 H 0.72198 0.45248 0.32845 0.0
H2229 H 0.73465 0.47441 0.34177 0.0
H2230 H 0.70673 0.49765 0.33637 0.0
H2231 H 0.69195 0.51338 0.30441 0.0
H2232 H 0.88897 0.46252 0.69615 0.0
H2233 H 0.87589 0.44804 0.66257 0.0
H2234 H 0.82158 0.48847 0.66522 0.0
H2235 H 0.83568 0.50402 0.69784 0.0
H2236 H 0.84371 0.42606 0.6533 0.0
H2237 H 0.83591 0.49816 0.60678 0.0
H2238 H 0.84895 0.49823 0.63215 0.0
H2239 H 0.82039 0.50013 0.62995 0.0
C2240 C 0.87432 0.46835 0.68938 0.0
C2241 C 0.86279 0.4837 0.69987 0.0
C2242 C 0.86682 0.46008 0.67023 0.0
C2243 C 0.84775 0.46718 0.66113 0.0
C2244 C 0.83657 0.483 0.67148 0.0
H2245 H 0.77028 0.39109 0.57554 0.0
H2246 H 0.78868 0.40716 0.6057 0.0
C2247 C 0.84431 0.49153 0.69041 0.0
C2248 C 0.83908 0.45728 0.64148 0.0
H2249 H 0.81606 0.468 0.59396 0.0
C2250 C 0.83793 0.43528 0.64023 0.0
C2251 C 0.83192 0.46915 0.62411 0.0
C2252 C 0.8346 0.4927 0.62323 0.0
C2253 C 0.82945 0.42488 0.62243 0.0
C2254 C 0.82075 0.43678 0.60576 0.0
C2255 C 0.82238 0.45877 0.60679 0.0
C2256 C 0.80963 0.42684 0.5873 0.0
C2257 C 0.83044 0.40125 0.62164 0.0
C2258 C 0.81443 0.43317 0.56678 0.0
C2259 C 0.80327 0.42456 0.54951 0.0
C2260 C 0.78743 0.40913 0.55241 0.0
C2261 C 0.78273 0.40267 0.57285 0.0
C2262 C 0.7934 0.41173 0.59012 0.0
H2263 H 0.84416 0.3955 0.63103 0.0
H2264 H 0.8158 0.39446 0.62853 0.0
H2265 H 0.83187 0.39534 0.60532 0.0
H2266 H 0.82676 0.44486 0.56411 0.0
H2267 H 0.80713 0.42985 0.53389 0.0
H2268 H 0.38261 0.07921 0.22212 0.0
H2269 H 0.39987 0.11117 0.20934 0.0
H2270 H 0.46028 0.09004 0.23332 0.0
H2271 H 0.44298 0.05823 0.24669 0.0
H2272 H 0.45522 0.13097 0.2414 0.0
H2273 H 0.43571 0.11544 0.15772 0.0
H2274 H 0.41246 0.1158 0.17361 0.0
H2275 H 0.43204 0.09591 0.17774 0.0
C2276 C 0.39956 0.08139 0.22477 0.0
C2277 C 0.41144 0.06612 0.23532 0.0
C2278 C 0.40944 0.0996 0.21727 0.0
C2279 C 0.43148 0.10278 0.21986 0.0
C2280 C 0.44329 0.08785 0.23096 0.0
H2281 H 0.50224 0.19911 0.15076 0.0
H2282 H 0.48846 0.16565 0.16407 0.0
C2283 C 0.43337 0.06969 0.23862 0.0
C2284 C 0.44212 0.1218 0.21123 0.0
H2285 H 0.44844 0.15003 0.1663 0.0
C2286 C 0.45386 0.13505 0.22495 0.0
C2287 C 0.44076 0.12695 0.18967 0.0
C2288 C 0.42976 0.11266 0.17379 0.0
C2289 C 0.46365 0.1536 0.21785 0.0
C2290 C 0.46121 0.15937 0.19654 0.0
C2291 C 0.45008 0.14578 0.18268 0.0
C2292 C 0.46965 0.17964 0.18843 0.0
C2293 C 0.47671 0.16671 0.23326 0.0
C2294 C 0.46337 0.19865 0.19739 0.0
C2295 C 0.4713 0.21774 0.18994 0.0
C2296 C 0.48548 0.21834 0.17308 0.0
C2297 C 0.49138 0.19927 0.16377 0.0
C2298 C 0.48353 0.18012 0.17137 0.0
H2299 H 0.48261 0.15712 0.24656 0.0
H2300 H 0.49056 0.17427 0.22558 0.0
H2301 H 0.46664 0.17918 0.23982 0.0
H2302 H 0.4522 0.19876 0.21013 0.0
H2303 H 0.46617 0.23207 0.19738 0.0
H2304 H 0.02656 0.83535 0.63453 0.0
H2305 H 0.04318 0.86785 0.64835 0.0
H2306 H 0.07 0.83342 0.70016 0.0
H2307 H 0.0533 0.80099 0.68637 0.0
H2308 H 0.05143 0.87131 0.71217 0.0
H2309 H 0.10677 0.88276 0.64612 0.0
H2310 H 0.07919 0.88017 0.63861 0.0
H2311 H 0.09255 0.85836 0.65029 0.0
C2312 C 0.03591 0.83485 0.64894 0.0
C2313 C 0.03818 0.81594 0.6598 0.0
C2314 C 0.04548 0.85333 0.65673 0.0
C2315 C 0.05795 0.85303 0.6752 0.0
C2316 C 0.06039 0.83403 0.68593 0.0
H2317 H 0.15186 0.94111 0.72314 0.0
H2318 H 0.13163 0.91169 0.70789 0.0
C2319 C 0.05076 0.81558 0.67816 0.0
C2320 C 0.06859 0.87243 0.68334 0.0
H2321 H 0.10637 0.90956 0.67192 0.0
C2322 C 0.06339 0.8797 0.70339 0.0
C2323 C 0.08435 0.88327 0.67186 0.0
C2324 C 0.09124 0.8757 0.6506 0.0
C2325 C 0.07355 0.89745 0.71237 0.0
C2326 C 0.08913 0.90843 0.7008 0.0
C2327 C 0.09429 0.90122 0.68069 0.0
C2328 C 0.10115 0.92671 0.70974 0.0
C2329 C 0.06799 0.90387 0.7344 0.0
C2330 C 0.09076 0.9451 0.71564 0.0
C2331 C 0.10229 0.96203 0.72447 0.0
C2332 C 0.12448 0.96095 0.72743 0.0
C2333 C 0.13482 0.94259 0.72114 0.0
C2334 C 0.12328 0.92571 0.71237 0.0
H2335 H 0.05945 0.89111 0.74277 0.0
H2336 H 0.08251 0.90836 0.74362 0.0
H2337 H 0.05748 0.91765 0.73376 0.0
H2338 H 0.07372 0.94636 0.71339 0.0
H2339 H 0.09379 0.97593 0.729 0.0
H2340 H 0.4662 0.83525 0.39473 0.0
H2341 H 0.45001 0.86324 0.37444 0.0
H2342 H 0.47449 0.83672 0.31752 0.0
H2343 H 0.49032 0.80825 0.33766 0.0
H2344 H 0.46833 0.8929 0.35065 0.0
H2345 H 0.41285 0.84423 0.30144 0.0
H2346 H 0.42676 0.83389 0.32396 0.0
H2347 H 0.44018 0.83696 0.29944 0.0
C2348 C 0.46802 0.8352 0.37786 0.0
C2349 C 0.47947 0.81935 0.36783 0.0
C2350 C 0.45878 0.85129 0.36628 0.0
C2351 C 0.46079 0.85199 0.34441 0.0
C2352 C 0.47229 0.83627 0.33431 0.0
H2353 H 0.42971 0.96555 0.27295 0.0
H2354 H 0.44905 0.93713 0.29001 0.0
C2355 C 0.4814 0.82002 0.34588 0.0
C2356 C 0.45116 0.86945 0.3324 0.0
H2357 H 0.41521 0.88036 0.29343 0.0
C2358 C 0.45672 0.89017 0.33811 0.0
C2359 C 0.43589 0.86588 0.31616 0.0
C2360 C 0.42838 0.84406 0.30998 0.0
C2361 C 0.44729 0.90739 0.32822 0.0
C2362 C 0.43224 0.90382 0.31179 0.0
C2363 C 0.42687 0.8831 0.30592 0.0
C2364 C 0.42084 0.92123 0.30134 0.0
C2365 C 0.45298 0.92921 0.336 0.0
C2366 C 0.39855 0.92154 0.30161 0.0
C2367 C 0.38748 0.93755 0.29167 0.0
C2368 C 0.39841 0.95375 0.28124 0.0
C2369 C 0.42078 0.95347 0.28101 0.0
C2370 C 0.43188 0.93727 0.29084 0.0
H2371 H 0.46044 0.929 0.35192 0.0
H2372 H 0.46455 0.93653 0.3252 0.0
H2373 H 0.43871 0.93919 0.33648 0.0
H2374 H 0.38968 0.90935 0.3096 0.0
H2375 H 0.37027 0.93721 0.29223 0.0
H2376 H 0.82851 0.62843 0.02992 0.0
H2377 H 0.85812 0.64224 0.0513 0.0
H2378 H 0.8283 0.70287 0.05246 0.0
H2379 H 0.79696 0.6875 0.03529 0.0
H2380 H 0.8868 0.66451 0.04737 0.0
H2381 H 0.84525 0.70689 0.10894 0.0
H2382 H 0.83077 0.69033 0.09064 0.0
H2383 H 0.83626 0.71766 0.08468 0.0
C2384 C 0.8283 0.64465 0.03508 0.0
C2385 C 0.8111 0.65738 0.02985 0.0
C2386 C 0.84533 0.65267 0.04719 0.0
C2387 C 0.84584 0.67383 0.05383 0.0
C2388 C 0.8284 0.68639 0.04852 0.0
H2389 H 0.9712 0.72912 0.08036 0.0
H2390 H 0.93993 0.71205 0.06474 0.0
C2391 C 0.81077 0.67789 0.03772 0.0
C2392 C 0.86488 0.68283 0.06536 0.0
H2393 H 0.88049 0.72023 0.10108 0.0
C2394 C 0.88522 0.67619 0.05964 0.0
C2395 C 0.86342 0.69784 0.08181 0.0
C2396 C 0.8427 0.7033 0.09199 0.0
C2397 C 0.90377 0.68397 0.06967 0.0
C2398 C 0.90237 0.70095 0.08407 0.0
C2399 C 0.88204 0.70753 0.08986 0.0
C2400 C 0.92149 0.7122 0.09327 0.0
C2401 C 0.9243 0.67296 0.06522 0.0
C2402 C 0.92155 0.71955 0.11419 0.0
C2403 C 0.93867 0.73151 0.12228 0.0
C2404 C 0.95634 0.73591 0.10986 0.0
C2405 C 0.95707 0.72729 0.08966 0.0
C2406 C 0.93944 0.71659 0.08106 0.0
H2407 H 0.9213 0.65599 0.06215 0.0
H2408 H 0.93143 0.67955 0.05083 0.0
H2409 H 0.93586 0.67441 0.07851 0.0
H2410 H 0.90835 0.71615 0.12437 0.0
H2411 H 0.93812 0.73726 0.13829 0.0
H2412 H 0.54589 0.28195 0.5654 0.0
H2413 H 0.57911 0.29696 0.55257 0.0
H2414 H 0.59402 0.32123 0.61456 0.0
H2415 H 0.5614 0.30482 0.62774 0.0
H2416 H 0.59057 0.33486 0.54922 0.0
H2417 H 0.64995 0.29825 0.6017 0.0
H2418 H 0.62246 0.28985 0.60098 0.0
H2419 H 0.63075 0.31261 0.61613 0.0
C2420 C 0.55646 0.29017 0.57635 0.0
C2421 C 0.55121 0.29211 0.59758 0.0
C2422 C 0.57543 0.29882 0.56901 0.0
C2423 C 0.58933 0.31005 0.5826 0.0
C2424 C 0.58401 0.31209 0.60385 0.0
H2425 H 0.68245 0.39451 0.52319 0.0
H2426 H 0.65117 0.38071 0.54112 0.0
C2427 C 0.56528 0.30285 0.61136 0.0
C2428 C 0.60865 0.32052 0.57407 0.0
H2429 H 0.66225 0.32682 0.58114 0.0
C2430 C 0.60631 0.33286 0.55605 0.0
C2431 C 0.62922 0.31797 0.58292 0.0
C2432 C 0.6333 0.30378 0.60136 0.0
C2433 C 0.62383 0.34233 0.54633 0.0
C2434 C 0.64441 0.34037 0.55554 0.0
C2435 C 0.64664 0.32838 0.5739 0.0
C2436 C 0.66395 0.3497 0.54606 0.0
C2437 C 0.61977 0.35371 0.526 0.0
C2438 C 0.68247 0.33773 0.54452 0.0
C2439 C 0.70074 0.34612 0.53542 0.0
C2440 C 0.70055 0.36613 0.52652 0.0
C2441 C 0.68257 0.37857 0.52897 0.0
C2442 C 0.66459 0.37056 0.539 0.0
H2443 H 0.60571 0.34695 0.51742 0.0
H2444 H 0.61631 0.37036 0.5295 0.0
H2445 H 0.63353 0.35312 0.51546 0.0
H2446 H 0.68282 0.32177 0.5502 0.0
H2447 H 0.71501 0.33689 0.53521 0.0
H2448 H 0.25293 0.44436 0.05146 0.0
H2449 H 0.23808 0.46248 0.08176 0.0
H2450 H 0.21073 0.40409 0.10306 0.0
H2451 H 0.22555 0.38587 0.07291 0.0
H2452 H 0.19437 0.46452 0.09188 0.0
H2453 H 0.24163 0.42807 0.15577 0.0
H2454 H 0.24942 0.42714 0.12865 0.0
H2455 H 0.22901 0.40964 0.13793 0.0
C2456 C 0.24397 0.43533 0.06273 0.0
C2457 C 0.24048 0.41365 0.0598 0.0
C2458 C 0.23545 0.44572 0.08 0.0
C2459 C 0.22347 0.43461 0.09478 0.0
C2460 C 0.22021 0.41293 0.09205 0.0
H2461 H 0.1316 0.47779 0.18421 0.0
H2462 H 0.15005 0.46314 0.1541 0.0
C2463 C 0.22863 0.40254 0.07475 0.0
C2464 C 0.21356 0.44579 0.11253 0.0
H2465 H 0.21172 0.44782 0.16603 0.0
C2466 C 0.19825 0.46098 0.10809 0.0
C2467 C 0.21878 0.44129 0.13367 0.0
C2468 C 0.23575 0.42579 0.13938 0.0
C2469 C 0.18762 0.47139 0.12424 0.0
C2470 C 0.1923 0.46634 0.14537 0.0
C2471 C 0.20802 0.45156 0.14981 0.0
C2472 C 0.18093 0.47603 0.16312 0.0
C2473 C 0.17157 0.48781 0.11856 0.0
C2474 C 0.19218 0.488 0.1783 0.0
C2475 C 0.18168 0.49639 0.19554 0.0
C2476 C 0.15974 0.4928 0.19803 0.0
C2477 C 0.14848 0.48094 0.18271 0.0
C2478 C 0.15898 0.47262 0.16543 0.0
H2479 H 0.1737 0.49359 0.10232 0.0
H2480 H 0.15532 0.48088 0.1196 0.0
H2481 H 0.17275 0.50136 0.12957 0.0
H2482 H 0.20914 0.49075 0.17686 0.0
H2483 H 0.19084 0.50538 0.20709 0.0
H2484 H 0.34081 0.49256 0.80369 0.0
H2485 H 0.32128 0.47564 0.83213 0.0
H2486 H 0.38043 0.45542 0.85978 0.0
H2487 H 0.40002 0.47254 0.83189 0.0
H2488 H 0.31881 0.43512 0.84511 0.0
H2489 H 0.35366 0.48463 0.90884 0.0
H2490 H 0.35657 0.49101 0.8815 0.0
H2491 H 0.3737 0.47216 0.89373 0.0
C2492 C 0.34966 0.48448 0.8158 0.0
C2493 C 0.37202 0.48411 0.81556 0.0
C2494 C 0.33847 0.47484 0.83207 0.0
C2495 C 0.34943 0.46469 0.84837 0.0
C2496 C 0.37166 0.46369 0.84774 0.0
H2497 H 0.30297 0.37114 0.93429 0.0
H2498 H 0.31856 0.39084 0.90553 0.0
C2499 C 0.38284 0.4734 0.83164 0.0
C2500 C 0.33774 0.45483 0.86593 0.0
H2501 H 0.33586 0.45302 0.91941 0.0
C2502 C 0.32238 0.43916 0.86136 0.0
C2503 C 0.34209 0.46038 0.88714 0.0
C2504 C 0.35723 0.47812 0.89311 0.0
C2505 C 0.31185 0.42837 0.87741 0.0
C2506 C 0.31721 0.433 0.89862 0.0
C2507 C 0.33198 0.44922 0.90317 0.0
C2508 C 0.30791 0.42108 0.91633 0.0
C2509 C 0.29496 0.41223 0.87143 0.0
C2510 C 0.29746 0.43158 0.9325 0.0
C2511 C 0.2888 0.42038 0.94922 0.0
C2512 C 0.29041 0.39841 0.95013 0.0
C2513 C 0.30124 0.388 0.93407 0.0
C2514 C 0.31002 0.39923 0.91746 0.0
H2515 H 0.28811 0.41528 0.85559 0.0
H2516 H 0.30217 0.39648 0.87106 0.0
H2517 H 0.28187 0.41198 0.88291 0.0
H2518 H 0.29578 0.44845 0.93206 0.0
H2519 H 0.28056 0.42893 0.96126 0.0
H2520 H 0.28296 0.62534 0.56854 0.0
H2521 H 0.29843 0.61306 0.60175 0.0
H2522 H 0.30753 0.55201 0.57417 0.0
H2523 H 0.29271 0.56418 0.54101 0.0
H2524 H 0.28705 0.58163 0.6283 0.0
H2525 H 0.36651 0.5658 0.59635 0.0
H2526 H 0.34673 0.58032 0.58201 0.0
H2527 H 0.34568 0.55208 0.58214 0.0
C2528 C 0.28829 0.60932 0.56955 0.0
C2529 C 0.28686 0.59587 0.55199 0.0
C2530 C 0.29712 0.60231 0.58854 0.0
C2531 C 0.3046 0.58174 0.59031 0.0
C2532 C 0.30248 0.56812 0.57302 0.0
H2533 H 0.33241 0.51439 0.70623 0.0
H2534 H 0.31615 0.52768 0.67385 0.0
C2535 C 0.29389 0.57513 0.55406 0.0
C2536 C 0.31457 0.57436 0.61018 0.0
H2537 H 0.35926 0.55156 0.63003 0.0
C2538 C 0.30289 0.57518 0.62873 0.0
C2539 C 0.33538 0.56623 0.61081 0.0
C2540 C 0.34939 0.56624 0.59181 0.0
C2541 C 0.31127 0.56767 0.6478 0.0
C2542 C 0.33168 0.55862 0.64819 0.0
C2543 C 0.3435 0.5582 0.6297 0.0
C2544 C 0.34148 0.55012 0.6677 0.0
C2545 C 0.29833 0.56994 0.66737 0.0
C2546 C 0.36151 0.55768 0.67461 0.0
C2547 C 0.37099 0.54982 0.69283 0.0
C2548 C 0.36063 0.53427 0.70463 0.0
C2549 C 0.34073 0.52645 0.69756 0.0
C2550 C 0.33132 0.53419 0.67916 0.0
H2551 H 0.28628 0.58238 0.66567 0.0
H2552 H 0.28975 0.55494 0.67039 0.0
H2553 H 0.30865 0.57373 0.68122 0.0
H2554 H 0.36973 0.56987 0.66601 0.0
H2555 H 0.38631 0.55623 0.69784 0.0
H2556 H 0.17437 0.52746 0.3022 0.0
H2557 H 0.19355 0.54272 0.33254 0.0
H2558 H 0.1395 0.58097 0.34611 0.0
H2559 H 0.11998 0.56518 0.31644 0.0
H2560 H 0.20619 0.58119 0.34334 0.0
H2561 H 0.14798 0.55326 0.40144 0.0
H2562 H 0.14695 0.54477 0.37443 0.0
H2563 H 0.13597 0.56957 0.38194 0.0
C2564 C 0.16662 0.53918 0.31163 0.0
C2565 C 0.14557 0.54494 0.30708 0.0
C2566 C 0.17758 0.54787 0.32897 0.0
C2567 C 0.16778 0.5626 0.34196 0.0
C2568 C 0.14715 0.56911 0.33679 0.0
H2569 H 0.23971 0.63939 0.43445 0.0
H2570 H 0.22138 0.62647 0.40263 0.0
C2571 C 0.13606 0.56018 0.31972 0.0
C2572 C 0.17905 0.57105 0.36096 0.0
H2573 H 0.17391 0.57814 0.41366 0.0
C2574 C 0.19926 0.58035 0.35879 0.0
C2575 C 0.17011 0.56977 0.38114 0.0
C2576 C 0.14917 0.55861 0.38494 0.0
C2577 C 0.21077 0.5885 0.37617 0.0
C2578 C 0.2015 0.58794 0.39634 0.0
C2579 C 0.1812 0.57863 0.39838 0.0
C2580 C 0.2125 0.59629 0.41568 0.0
C2581 C 0.23283 0.59722 0.37245 0.0
C2582 C 0.21242 0.58444 0.43423 0.0
C2583 C 0.22194 0.59232 0.45266 0.0
C2584 C 0.23274 0.6117 0.45271 0.0
C2585 C 0.23228 0.62394 0.4345 0.0
C2586 C 0.22202 0.61643 0.41623 0.0
H2587 H 0.23172 0.61406 0.36835 0.0
H2588 H 0.24333 0.59579 0.38641 0.0
H2589 H 0.24039 0.58911 0.35909 0.0
H2590 H 0.2049 0.56903 0.43455 0.0
H2591 H 0.22083 0.58325 0.4669 0.0
loop_
_geom_bond_atom_site_label_1
_geom_bond_atom_site_label_2
_geom_bond_distance
_geom_bond_site_symmetry_2
_ccdc_geom_bond_type
Mn0 O5 2.095 1_455 S
Mn0 O15 2.162 1_455 S
Mn0 O16 2.297 1_455 S
Mn0 O24 2.385 . S
Mn0 O25 2.209 . S
Mn0 O26 2.094 . S
Mn1 O6 2.121 1_455 S
Mn1 N8 2.257 . S
Mn1 N17 2.282 . S
Mn1 O25 2.215 . S
Mn1 O27 2.117 . S
C2 O24 1.234 . S
C2 O25 1.283 . S
C3 O15 1.281 . S
C3 O16 1.236 . S
C4 O26 1.240 . S
C4 O27 1.264 . S
O5 Mn0 2.095 1_655 S
O5 C14 1.250 . S
O6 Mn1 2.121 1_655 S
O6 C14 1.258 . S
C7 N8 1.326 . S
C7 C11 1.460 . S
C7 H13 0.899 1_455 S
N8 Mn1 2.257 . S
N8 C7 1.326 . S
N8 C12 1.362 . S
C9 C10 1.258 . S
C9 C12 1.431 . S
C9 C29 1.449 . S
C10 C9 1.258 . S
C10 C11 1.477 . S
C10 H30 0.931 . S
C11 C7 1.460 . S
C11 C10 1.477 . S
C11 H31 0.930 . S
C12 N8 1.362 . S
C12 C9 1.431 . S
C12 C22 1.476 . S
H13 C7 0.899 1_655 S
C14 O5 1.250 . S
C14 O6 1.258 . S
O15 Mn0 2.162 1_655 S
O15 C3 1.281 . S
O16 Mn0 2.297 1_655 S
O16 C3 1.236 . S
N17 Mn1 2.282 . S
N17 C18 1.328 . S
N17 C22 1.318 . S
C18 N17 1.328 . S
C18 C19 1.457 . S
C18 H23 0.929 . S
C19 C18 1.457 . S
C19 C20 1.291 . S
C19 H32 0.931 . S
C20 C19 1.291 . S
C20 C21 1.373 . S
C20 H33 0.929 . S
C21 C20 1.373 . S
C21 C22 1.396 . S
C21 C28 1.403 . S
C22 C12 1.476 . S
C22 N17 1.318 . S
C22 C21 1.396 . S
H23 C18 0.929 . S
O24 Mn0 2.385 . S
O24 C2 1.234 . S
O25 Mn0 2.209 . S
O25 Mn1 2.215 . S
O25 C2 1.283 . S
O26 Mn0 2.094 . S
O26 C4 1.240 . S
O27 Mn1 2.117 . S
O27 C4 1.264 . S
C28 C21 1.403 . S
C28 C29 1.399 . S
C28 H34 0.929 . S
C29 C9 1.449 . S
C29 C28 1.399 . S
C29 H35 0.930 . S
H30 C10 0.931 . S
H31 C11 0.930 . S
H32 C19 0.931 . S
H33 C20 0.929 . S
H34 C28 0.929 . S
H35 C29 0.930 . S
Mn36 O41 2.095 1_455 S
Mn36 O51 2.162 . S
Mn36 O52 2.297 . S
Mn36 O60 2.385 . S
Mn36 O61 2.209 . S
Mn36 O62 2.094 1_455 S
Mn37 O42 2.121 . S
Mn37 N44 2.257 . S
Mn37 N53 2.282 . S
Mn37 O61 2.215 1_655 S
Mn37 O63 2.117 . S
C38 O60 1.234 . S
C38 O61 1.283 . S
C39 O51 1.281 . S
C39 O52 1.236 . S
C40 O62 1.240 . S
C40 O63 1.264 . S
O41 Mn36 2.095 1_655 S
O41 C50 1.250 . S
O42 Mn37 2.121 . S
O42 C50 1.258 . S
C43 N44 1.326 . S
C43 C47 1.460 . S
C43 H49 0.929 . S
N44 Mn37 2.257 . S
N44 C43 1.326 . S
N44 C48 1.362 . S
C45 C46 1.258 . S
C45 C48 1.431 . S
C45 C65 1.449 . S
C46 C45 1.258 . S
C46 C47 1.477 . S
C46 H66 0.931 . S
C47 C43 1.460 . S
C47 C46 1.477 . S
C47 H67 0.930 . S
C48 N44 1.362 . S
C48 C45 1.431 . S
C48 C58 1.476 . S
H49 C43 0.929 . S
C50 O41 1.250 . S
C50 O42 1.258 . S
O51 Mn36 2.162 . S
O51 C39 1.281 . S
O52 Mn36 2.297 . S
O52 C39 1.236 . S
N53 Mn37 2.282 . S
N53 C54 1.328 . S
N53 C58 1.318 . S
C54 N53 1.328 . S
C54 C55 1.457 . S
C54 H59 0.929 . S
C55 C54 1.457 . S
C55 C56 1.291 . S
C55 H68 0.931 . S
C56 C55 1.291 . S
C56 C57 1.373 . S
C56 H69 0.929 . S
C57 C56 1.373 . S
C57 C58 1.396 . S
C57 C64 1.403 . S
C58 C48 1.476 . S
C58 N53 1.318 . S
C58 C57 1.396 . S
H59 C54 0.929 . S
O60 Mn36 2.385 . S
O60 C38 1.234 . S
O61 Mn36 2.209 . S
O61 Mn37 2.215 1_455 S
O61 C38 1.283 . S
O62 Mn36 2.094 1_655 S
O62 C40 1.240 . S
O63 Mn37 2.117 . S
O63 C40 1.264 . S
C64 C57 1.403 . S
C64 C65 1.399 . S
C64 H70 0.929 . S
C65 C45 1.449 . S
C65 C64 1.399 . S
C65 H71 0.930 . S
H66 C46 0.931 . S
H67 C47 0.930 . S
H68 C55 0.931 . S
H69 C56 0.929 . S
H70 C64 0.929 . S
H71 C65 0.930 . S
Mn72 O77 2.095 . S
Mn72 O87 2.162 . S
Mn72 O88 2.297 . S
Mn72 O96 2.385 . S
Mn72 O97 2.209 . S
Mn72 O98 2.094 . S
Mn73 O78 2.121 . S
Mn73 N80 2.257 . S
Mn73 N89 2.282 . S
Mn73 O97 2.215 . S
Mn73 O99 2.117 . S
C74 O96 1.234 . S
C74 O97 1.283 . S
C75 O87 1.281 . S
C75 O88 1.236 . S
C76 O98 1.240 . S
C76 O99 1.264 . S
O77 Mn72 2.095 . S
O77 C86 1.250 . S
O78 Mn73 2.121 . S
O78 C86 1.258 . S
C79 N80 1.326 . S
C79 C83 1.460 . S
C79 H85 0.929 . S
N80 Mn73 2.257 . S
N80 C79 1.326 . S
N80 C84 1.362 . S
C81 C82 1.258 . S
C81 C84 1.431 . S
C81 C101 1.449 . S
C82 C81 1.258 . S
C82 C83 1.477 . S
C82 H102 0.931 . S
C83 C79 1.460 . S
C83 C82 1.477 . S
C83 H103 0.930 . S
C84 N80 1.362 . S
C84 C81 1.431 . S
C84 C94 1.476 . S
H85 C79 0.929 . S
C86 O77 1.250 . S
C86 O78 1.258 . S
O87 Mn72 2.162 . S
O87 C75 1.281 . S
O88 Mn72 2.297 . S
O88 C75 1.236 . S
N89 Mn73 2.282 . S
N89 C90 1.328 . S
N89 C94 1.318 . S
C90 N89 1.328 . S
C90 C91 1.457 . S
C90 H95 0.929 . S
C91 C90 1.457 . S
C91 C92 1.291 . S
C91 H104 0.931 . S
C92 C91 1.291 . S
C92 C93 1.373 . S
C92 H105 0.929 . S
C93 C92 1.373 . S
C93 C94 1.396 . S
C93 C100 1.403 . S
C94 C84 1.476 . S
C94 N89 1.318 . S
C94 C93 1.396 . S
H95 C90 0.929 . S
O96 Mn72 2.385 . S
O96 C74 1.234 . S
O97 Mn72 2.209 . S
O97 Mn73 2.215 . S
O97 C74 1.283 . S
O98 Mn72 2.094 . S
O98 C76 1.240 . S
O99 Mn73 2.117 . S
O99 C76 1.264 . S
C100 C93 1.403 . S
C100 C101 1.399 . S
C100 H106 0.929 . S
C101 C81 1.449 . S
C101 C100 1.399 . S
C101 H107 0.930 . S
H102 C82 0.931 . S
H103 C83 0.930 . S
H104 C91 0.931 . S
H105 C92 0.929 . S
H106 C100 0.929 . S
H107 C101 0.930 . S
Mn108 O113 2.095 . S
Mn108 O123 2.162 . S
Mn108 O124 2.297 . S
Mn108 O132 2.385 . S
Mn108 O133 2.209 . S
Mn108 O134 2.094 . S
Mn109 O114 2.121 . S
Mn109 N116 2.257 . S
Mn109 N125 2.282 . S
Mn109 O133 2.215 . S
Mn109 O135 2.117 . S
C110 O132 1.234 . S
C110 O133 1.283 . S
C111 O123 1.281 . S
C111 O124 1.236 . S
C112 O134 1.240 . S
C112 O135 1.264 . S
O113 Mn108 2.095 . S
O113 C122 1.250 . S
O114 Mn109 2.121 . S
O114 C122 1.258 . S
C115 N116 1.326 . S
C115 C119 1.460 . S
C115 H121 0.929 . S
N116 Mn109 2.257 . S
N116 C115 1.326 . S
N116 C120 1.362 . S
C117 C118 1.258 . S
C117 C120 1.431 . S
C117 C137 1.449 . S
C118 C117 1.258 . S
C118 C119 1.477 . S
C118 H138 0.931 . S
C119 C115 1.460 . S
C119 C118 1.477 . S
C119 H139 0.930 . S
C120 N116 1.362 . S
C120 C117 1.431 . S
C120 C130 1.476 . S
H121 C115 0.929 . S
C122 O113 1.250 . S
C122 O114 1.258 . S
O123 Mn108 2.162 . S
O123 C111 1.281 . S
O124 Mn108 2.297 . S
O124 C111 1.236 . S
N125 Mn109 2.282 . S
N125 C126 1.328 . S
N125 C130 1.318 . S
C126 N125 1.328 . S
C126 C127 1.457 . S
C126 H131 0.929 . S
C127 C126 1.457 . S
C127 C128 1.291 . S
C127 H140 0.931 . S
C128 C127 1.291 . S
C128 C129 1.373 . S
C128 H141 0.929 . S
C129 C128 1.373 . S
C129 C130 1.396 . S
C129 C136 1.403 . S
C130 C120 1.476 . S
C130 N125 1.318 . S
C130 C129 1.396 . S
H131 C126 0.929 . S
O132 Mn108 2.385 . S
O132 C110 1.234 . S
O133 Mn108 2.209 . S
O133 Mn109 2.215 . S
O133 C110 1.283 . S
O134 Mn108 2.094 . S
O134 C112 1.240 . S
O135 Mn109 2.117 . S
O135 C112 1.264 . S
C136 C129 1.403 . S
C136 C137 1.399 . S
C136 H142 0.929 . S
C137 C117 1.449 . S
C137 C136 1.399 . S
C137 H143 0.930 . S
H138 C118 0.931 . S
H139 C119 0.930 . S
H140 C127 0.931 . S
H141 C128 0.929 . S
H142 C136 0.929 . S
H143 C137 0.930 . S
Mn144 O149 2.095 . S
Mn144 O159 2.162 . S
Mn144 O160 2.297 . S
Mn144 O168 2.385 1_455 S
Mn144 O169 2.209 1_455 S
Mn144 O170 2.094 1_455 S
Mn145 O150 2.121 1_655 S
Mn145 N152 2.257 . S
Mn145 N161 2.282 . S
Mn145 O169 2.215 . S
Mn145 O171 2.117 . S
C146 O168 1.234 . S
C146 O169 1.283 . S
C147 O159 1.281 . S
C147 O160 1.236 . S
C148 O170 1.240 . S
C148 O171 1.264 . S
O149 Mn144 2.095 . S
O149 C158 1.250 . S
O150 Mn145 2.121 1_455 S
O150 C158 1.258 . S
C151 N152 1.326 . S
C151 C155 1.460 . S
C151 H157 0.929 1_655 S
N152 Mn145 2.257 . S
N152 C151 1.326 . S
N152 C156 1.362 . S
C153 C154 1.258 . S
C153 C156 1.431 . S
C153 C173 1.449 . S
C154 C153 1.258 . S
C154 C155 1.477 . S
C154 H174 0.931 . S
C155 C151 1.460 . S
C155 C154 1.477 . S
C155 H175 0.930 1_655 S
C156 N152 1.362 . S
C156 C153 1.431 . S
C156 C166 1.476 . S
H157 C151 0.929 1_455 S
C158 O149 1.250 . S
C158 O150 1.258 . S
O159 Mn144 2.162 . S
O159 C147 1.281 . S
O160 Mn144 2.297 . S
O160 C147 1.236 . S
N161 Mn145 2.282 . S
N161 C162 1.328 . S
N161 C166 1.318 . S
C162 N161 1.328 . S
C162 C163 1.457 . S
C162 H167 0.929 . S
C163 C162 1.457 . S
C163 C164 1.291 . S
C163 H176 0.931 . S
C164 C163 1.291 . S
C164 C165 1.373 . S
C164 H177 0.929 . S
C165 C164 1.373 . S
C165 C166 1.396 . S
C165 C172 1.403 . S
C166 C156 1.476 . S
C166 N161 1.318 . S
C166 C165 1.396 . S
H167 C162 0.929 . S
O168 Mn144 2.385 1_655 S
O168 C146 1.234 . S
O169 Mn144 2.209 1_655 S
O169 Mn145 2.215 . S
O169 C146 1.283 . S
O170 Mn144 2.094 1_655 S
O170 C148 1.240 . S
O171 Mn145 2.117 . S
O171 C148 1.264 . S
C172 C165 1.403 . S
C172 C173 1.399 . S
C172 H178 0.929 . S
C173 C153 1.449 . S
C173 C172 1.399 . S
C173 H179 0.930 . S
H174 C154 0.931 . S
H175 C155 0.930 1_455 S
H176 C163 0.931 . S
H177 C164 0.929 . S
H178 C172 0.929 . S
H179 C173 0.930 . S
Mn180 O185 2.095 . S
Mn180 O195 2.162 . S
Mn180 O196 2.297 . S
Mn180 O204 2.385 . S
Mn180 O205 2.209 . S
Mn180 O206 2.094 . S
Mn181 O186 2.121 . S
Mn181 N188 2.257 . S
Mn181 N197 2.282 . S
Mn181 O205 2.215 . S
Mn181 O207 2.117 . S
C182 O204 1.234 . S
C182 O205 1.283 . S
C183 O195 1.281 . S
C183 O196 1.236 . S
C184 O206 1.240 . S
C184 O207 1.264 . S
O185 Mn180 2.095 . S
O185 C194 1.250 . S
O186 Mn181 2.121 . S
O186 C194 1.258 . S
C187 N188 1.326 . S
C187 C191 1.460 . S
C187 H193 0.929 . S
N188 Mn181 2.257 . S
N188 C187 1.326 . S
N188 C192 1.362 . S
C189 C190 1.258 . S
C189 C192 1.431 . S
C189 C209 1.449 . S
C190 C189 1.258 . S
C190 C191 1.477 . S
C190 H210 0.931 . S
C191 C187 1.460 . S
C191 C190 1.477 . S
C191 H211 0.930 . S
C192 N188 1.362 . S
C192 C189 1.431 . S
C192 C202 1.476 . S
H193 C187 0.929 . S
C194 O185 1.250 . S
C194 O186 1.258 . S
O195 Mn180 2.162 . S
O195 C183 1.281 . S
O196 Mn180 2.297 . S
O196 C183 1.236 . S
N197 Mn181 2.282 . S
N197 C198 1.328 . S
N197 C202 1.318 . S
C198 N197 1.328 . S
C198 C199 1.457 . S
C198 H203 0.929 . S
C199 C198 1.457 . S
C199 C200 1.291 . S
C199 H212 0.931 . S
C200 C199 1.291 . S
C200 C201 1.373 . S
C200 H213 0.929 . S
C201 C200 1.373 . S
C201 C202 1.396 . S
C201 C208 1.403 . S
C202 C192 1.476 . S
C202 N197 1.318 . S
C202 C201 1.396 . S
H203 C198 0.929 . S
O204 Mn180 2.385 . S
O204 C182 1.234 . S
O205 Mn180 2.209 . S
O205 Mn181 2.215 . S
O205 C182 1.283 . S
O206 Mn180 2.094 . S
O206 C184 1.240 . S
O207 Mn181 2.117 . S
O207 C184 1.264 . S
C208 C201 1.403 . S
C208 C209 1.399 . S
C208 H214 0.929 . S
C209 C189 1.449 . S
C209 C208 1.399 . S
C209 H215 0.930 . S
H210 C190 0.931 . S
H211 C191 0.930 . S
H212 C199 0.931 . S
H213 C200 0.929 . S
H214 C208 0.929 . S
H215 C209 0.930 . S
Mn216 O221 2.095 . S
Mn216 O231 2.162 . S
Mn216 O232 2.297 . S
Mn216 O240 2.385 . S
Mn216 O241 2.209 . S
Mn216 O242 2.094 . S
Mn217 O222 2.121 . S
Mn217 N224 2.257 . S
Mn217 N233 2.282 . S
Mn217 O241 2.215 . S
Mn217 O243 2.117 . S
C218 O240 1.234 . S
C218 O241 1.283 . S
C219 O231 1.281 . S
C219 O232 1.236 . S
C220 O242 1.240 . S
C220 O243 1.264 . S
O221 Mn216 2.095 . S
O221 C230 1.250 . S
O222 Mn217 2.121 . S
O222 C230 1.258 . S
C223 N224 1.326 . S
C223 C227 1.460 . S
C223 H229 0.929 . S
N224 Mn217 2.257 . S
N224 C223 1.326 . S
N224 C228 1.362 . S
C225 C226 1.258 . S
C225 C228 1.431 . S
C225 C245 1.449 . S
C226 C225 1.258 . S
C226 C227 1.477 . S
C226 H246 0.931 . S
C227 C223 1.460 . S
C227 C226 1.477 . S
C227 H247 0.930 . S
C228 N224 1.362 . S
C228 C225 1.431 . S
C228 C238 1.476 . S
H229 C223 0.929 . S
C230 O221 1.250 . S
C230 O222 1.258 . S
O231 Mn216 2.162 . S
O231 C219 1.281 . S
O232 Mn216 2.297 . S
O232 C219 1.236 . S
N233 Mn217 2.282 . S
N233 C234 1.328 . S
N233 C238 1.318 . S
C234 N233 1.328 . S
C234 C235 1.457 . S
C234 H239 0.929 . S
C235 C234 1.457 . S
C235 C236 1.291 . S
C235 H248 0.931 . S
C236 C235 1.291 . S
C236 C237 1.373 . S
C236 H249 0.929 . S
C237 C236 1.373 . S
C237 C238 1.396 . S
C237 C244 1.403 . S
C238 C228 1.476 . S
C238 N233 1.318 . S
C238 C237 1.396 . S
H239 C234 0.929 . S
O240 Mn216 2.385 . S
O240 C218 1.234 . S
O241 Mn216 2.209 . S
O241 Mn217 2.215 . S
O241 C218 1.283 . S
O242 Mn216 2.094 . S
O242 C220 1.240 . S
O243 Mn217 2.117 . S
O243 C220 1.264 . S
C244 C237 1.403 . S
C244 C245 1.399 . S
C244 H250 0.929 . S
C245 C225 1.449 . S
C245 C244 1.399 . S
C245 H251 0.930 . S
H246 C226 0.931 . S
H247 C227 0.930 . S
H248 C235 0.931 . S
H249 C236 0.929 . S
H250 C244 0.929 . S
H251 C245 0.930 . S
Mn252 O257 2.095 1_455 S
Mn252 O267 2.162 . S
Mn252 O268 2.297 . S
Mn252 O276 2.385 . S
Mn252 O277 2.209 . S
Mn252 O278 2.094 1_455 S
Mn253 O258 2.121 . S
Mn253 N260 2.257 1_655 S
Mn253 N269 2.282 1_655 S
Mn253 O277 2.215 1_655 S
Mn253 O279 2.117 . S
C254 O276 1.234 . S
C254 O277 1.283 . S
C255 O267 1.281 . S
C255 O268 1.236 . S
C256 O278 1.240 . S
C256 O279 1.264 . S
O257 Mn252 2.095 1_655 S
O257 C266 1.250 . S
O258 Mn253 2.121 . S
O258 C266 1.258 . S
C259 N260 1.342 . S
C259 C263 1.472 . S
C259 H265 0.904 1_455 S
N260 Mn253 2.257 1_455 S
N260 C259 1.342 . S
N260 C264 1.362 . S
C261 C262 1.258 . S
C261 C264 1.431 . S
C261 C281 1.449 . S
C262 C261 1.258 . S
C262 C263 1.477 . S
C262 H282 0.931 1_556 S
C263 C259 1.472 . S
C263 C262 1.477 . S
C263 H283 0.930 . S
C264 N260 1.362 . S
C264 C261 1.431 . S
C264 C274 1.476 . S
H265 C259 0.904 1_655 S
C266 O257 1.250 . S
C266 O258 1.258 . S
O267 Mn252 2.162 . S
O267 C255 1.281 . S
O268 Mn252 2.297 . S
O268 C255 1.236 . S
N269 Mn253 2.282 1_455 S
N269 C270 1.328 . S
N269 C274 1.318 . S
C270 N269 1.328 . S
C270 C271 1.457 . S
C270 H275 0.929 . S
C271 C270 1.457 . S
C271 C272 1.291 . S
C271 H284 0.931 . S
C272 C271 1.291 . S
C272 C273 1.373 . S
C272 H285 0.929 . S
C273 C272 1.373 . S
C273 C274 1.396 . S
C273 C280 1.403 . S
C274 C264 1.476 . S
C274 N269 1.318 . S
C274 C273 1.396 . S
H275 C270 0.929 . S
O276 Mn252 2.385 . S
O276 C254 1.234 . S
O277 Mn252 2.209 . S
O277 Mn253 2.215 1_455 S
O277 C254 1.283 . S
O278 Mn252 2.094 1_655 S
O278 C256 1.240 . S
O279 Mn253 2.117 . S
O279 C256 1.264 . S
C280 C273 1.403 . S
C280 C281 1.399 . S
C280 H286 0.929 . S
C281 C261 1.449 . S
C281 C280 1.399 . S
C281 H287 0.930 . S
H282 C262 0.931 1_554 S
H283 C263 0.930 . S
H284 C271 0.931 . S
H285 C272 0.929 . S
H286 C280 0.929 . S
H287 C281 0.930 . S
Mn288 O293 2.095 . S
Mn288 O303 2.162 . S
Mn288 O304 2.297 . S
Mn288 O312 2.385 1_545 S
Mn288 O313 2.216 . S
Mn288 O314 2.094 1_545 S
Mn289 O294 2.121 1_565 S
Mn289 N296 2.257 . S
Mn289 N305 2.282 . S
Mn289 O313 2.202 1_565 S
Mn289 O315 2.117 . S
C290 O312 1.234 . S
C290 O313 1.278 1_565 S
C291 O303 1.281 . S
C291 O304 1.236 . S
C292 O314 1.240 . S
C292 O315 1.264 . S
O293 Mn288 2.095 . S
O293 C302 1.250 . S
O294 Mn289 2.121 1_545 S
O294 C302 1.258 . S
C295 N296 1.326 . S
C295 C299 1.460 . S
C295 H301 0.929 1_565 S
N296 Mn289 2.257 . S
N296 C295 1.326 . S
N296 C300 1.362 . S
C297 C298 1.258 . S
C297 C300 1.431 . S
C297 C317 1.449 . S
C298 C297 1.258 . S
C298 C299 1.477 . S
C298 H318 0.931 . S
C299 C295 1.460 . S
C299 C298 1.477 . S
C299 H319 0.931 1_565 S
C300 N296 1.362 . S
C300 C297 1.431 . S
C300 C310 1.476 . S
H301 C295 0.929 1_545 S
C302 O293 1.250 . S
C302 O294 1.258 . S
O303 Mn288 2.162 . S
O303 C291 1.281 . S
O304 Mn288 2.297 . S
O304 C291 1.236 . S
N305 Mn289 2.282 . S
N305 C306 1.328 . S
N305 C310 1.318 . S
C306 N305 1.328 . S
C306 C307 1.457 . S
C306 H311 0.929 . S
C307 C306 1.457 . S
C307 C308 1.291 . S
C307 H320 0.931 . S
C308 C307 1.291 . S
C308 C309 1.373 . S
C308 H321 0.929 . S
C309 C308 1.373 . S
C309 C310 1.396 . S
C309 C316 1.403 . S
C310 C300 1.476 . S
C310 N305 1.318 . S
C310 C309 1.396 . S
H311 C306 0.929 . S
O312 Mn288 2.385 1_565 S
O312 C290 1.234 . S
O313 Mn288 2.216 . S
O313 Mn289 2.202 1_545 S
O313 C290 1.278 1_545 S
O314 Mn288 2.094 1_565 S
O314 C292 1.240 . S
O315 Mn289 2.117 . S
O315 C292 1.264 . S
C316 C309 1.403 . S
C316 C317 1.399 . S
C316 H322 0.929 . S
C317 C297 1.449 . S
C317 C316 1.399 . S
C317 H323 0.930 . S
H318 C298 0.931 . S
H319 C299 0.931 1_545 S
H320 C307 0.931 . S
H321 C308 0.929 . S
H322 C316 0.929 . S
H323 C317 0.930 . S
Mn324 O329 2.095 . S
Mn324 O339 2.162 . S
Mn324 O340 2.297 . S
Mn324 O348 2.385 . S
Mn324 O349 2.209 . S
Mn324 O350 2.094 . S
Mn325 O330 2.121 . S
Mn325 N332 2.257 . S
Mn325 N341 2.282 . S
Mn325 O349 2.215 . S
Mn325 O351 2.117 . S
C326 O348 1.234 . S
C326 O349 1.283 . S
C327 O339 1.281 . S
C327 O340 1.236 . S
C328 O350 1.240 . S
C328 O351 1.264 . S
O329 Mn324 2.095 . S
O329 C338 1.250 . S
O330 Mn325 2.121 . S
O330 C338 1.258 . S
C331 N332 1.326 . S
C331 C335 1.460 . S
C331 H337 0.929 . S
N332 Mn325 2.257 . S
N332 C331 1.326 . S
N332 C336 1.362 . S
C333 C334 1.258 . S
C333 C336 1.431 . S
C333 C353 1.449 . S
C334 C333 1.258 . S
C334 C335 1.477 . S
C334 H354 0.931 . S
C335 C331 1.460 . S
C335 C334 1.477 . S
C335 H355 0.930 . S
C336 N332 1.362 . S
C336 C333 1.431 . S
C336 C346 1.476 . S
H337 C331 0.929 . S
C338 O329 1.250 . S
C338 O330 1.258 . S
O339 Mn324 2.162 . S
O339 C327 1.281 . S
O340 Mn324 2.297 . S
O340 C327 1.236 . S
N341 Mn325 2.282 . S
N341 C342 1.328 . S
N341 C346 1.318 . S
C342 N341 1.328 . S
C342 C343 1.457 . S
C342 H347 0.929 . S
C343 C342 1.457 . S
C343 C344 1.291 . S
C343 H356 0.931 . S
C344 C343 1.291 . S
C344 C345 1.373 . S
C344 H357 0.929 . S
C345 C344 1.373 . S
C345 C346 1.396 . S
C345 C352 1.403 . S
C346 C336 1.476 . S
C346 N341 1.318 . S
C346 C345 1.396 . S
H347 C342 0.929 . S
O348 Mn324 2.385 . S
O348 C326 1.234 . S
O349 Mn324 2.209 . S
O349 Mn325 2.215 . S
O349 C326 1.283 . S
O350 Mn324 2.094 . S
O350 C328 1.240 . S
O351 Mn325 2.117 . S
O351 C328 1.264 . S
C352 C345 1.403 . S
C352 C353 1.399 . S
C352 H358 0.929 . S
C353 C333 1.449 . S
C353 C352 1.399 . S
C353 H359 0.930 . S
H354 C334 0.931 . S
H355 C335 0.930 . S
H356 C343 0.931 . S
H357 C344 0.929 . S
H358 C352 0.929 . S
H359 C353 0.930 . S
Mn360 O365 2.095 . S
Mn360 O375 2.162 . S
Mn360 O376 2.297 . S
Mn360 O384 2.385 1_545 S
Mn360 O385 2.209 1_545 S
Mn360 O386 2.094 1_545 S
Mn361 O366 2.121 1_565 S
Mn361 N368 2.257 . S
Mn361 N377 2.282 . S
Mn361 O385 2.215 . S
Mn361 O387 2.117 . S
C362 O384 1.234 . S
C362 O385 1.283 . S
C363 O375 1.281 . S
C363 O376 1.236 . S
C364 O386 1.240 . S
C364 O387 1.264 . S
O365 Mn360 2.095 . S
O365 C374 1.250 . S
O366 Mn361 2.121 1_545 S
O366 C374 1.258 . S
C367 N368 1.326 . S
C367 C371 1.460 . S
C367 H373 0.929 1_565 S
N368 Mn361 2.257 . S
N368 C367 1.326 . S
N368 C372 1.362 . S
C369 C370 1.258 . S
C369 C372 1.431 . S
C369 C389 1.449 . S
C370 C369 1.258 . S
C370 C371 1.477 . S
C370 H390 0.931 . S
C371 C367 1.460 . S
C371 C370 1.477 . S
C371 H391 0.930 . S
C372 N368 1.362 . S
C372 C369 1.431 . S
C372 C382 1.476 . S
H373 C367 0.929 1_545 S
C374 O365 1.250 . S
C374 O366 1.258 . S
O375 Mn360 2.162 . S
O375 C363 1.281 . S
O376 Mn360 2.297 . S
O376 C363 1.236 . S
N377 Mn361 2.282 . S
N377 C378 1.328 . S
N377 C382 1.318 . S
C378 N377 1.328 . S
C378 C379 1.457 . S
C378 H383 0.929 . S
C379 C378 1.457 . S
C379 C380 1.291 . S
C379 H392 0.931 . S
C380 C379 1.291 . S
C380 C381 1.373 . S
C380 H393 0.929 . S
C381 C380 1.373 . S
C381 C382 1.396 . S
C381 C388 1.403 . S
C382 C372 1.476 . S
C382 N377 1.318 . S
C382 C381 1.396 . S
H383 C378 0.929 . S
O384 Mn360 2.385 1_565 S
O384 C362 1.234 . S
O385 Mn360 2.209 1_565 S
O385 Mn361 2.215 . S
O385 C362 1.283 . S
O386 Mn360 2.094 1_565 S
O386 C364 1.240 . S
O387 Mn361 2.117 . S
O387 C364 1.264 . S
C388 C381 1.403 . S
C388 C389 1.399 . S
C388 H394 0.929 . S
C389 C369 1.449 . S
C389 C388 1.399 . S
C389 H395 0.930 . S
H390 C370 0.931 . S
H391 C371 0.930 . S
H392 C379 0.931 . S
H393 C380 0.929 . S
H394 C388 0.929 . S
H395 C389 0.930 . S
Mn396 O401 2.095 1_554 S
Mn396 O411 2.162 . S
Mn396 O412 2.297 . S
Mn396 O420 2.385 . S
Mn396 O421 2.209 . S
Mn396 O422 2.094 1_554 S
Mn397 O402 2.121 . S
Mn397 N404 2.257 . S
Mn397 N413 2.282 . S
Mn397 O421 2.215 1_556 S
Mn397 O423 2.117 . S
C398 O420 1.234 . S
C398 O421 1.283 . S
C399 O411 1.281 . S
C399 O412 1.236 . S
C400 O422 1.240 . S
C400 O423 1.264 . S
O401 Mn396 2.095 1_556 S
O401 C410 1.250 . S
O402 Mn397 2.121 . S
O402 C410 1.258 . S
C403 N404 1.326 . S
C403 C407 1.460 . S
C403 H409 0.929 . S
N404 Mn397 2.257 . S
N404 C403 1.326 . S
N404 C408 1.362 . S
C405 C406 1.258 . S
C405 C408 1.431 . S
C405 C425 1.449 . S
C406 C405 1.258 . S
C406 C407 1.477 . S
C406 H426 0.931 . S
C407 C403 1.460 . S
C407 C406 1.477 . S
C407 H427 0.930 . S
C408 N404 1.362 . S
C408 C405 1.431 . S
C408 C418 1.476 . S
H409 C403 0.929 . S
C410 O401 1.250 . S
C410 O402 1.258 . S
O411 Mn396 2.162 . S
O411 C399 1.281 . S
O412 Mn396 2.297 . S
O412 C399 1.236 . S
N413 Mn397 2.282 . S
N413 C414 1.328 . S
N413 C418 1.318 . S
C414 N413 1.328 . S
C414 C415 1.457 . S
C414 H419 0.929 . S
C415 C414 1.457 . S
C415 C416 1.291 . S
C415 H428 0.931 . S
C416 C415 1.291 . S
C416 C417 1.373 . S
C416 H429 0.929 . S
C417 C416 1.373 . S
C417 C418 1.396 . S
C417 C424 1.403 . S
C418 C408 1.476 . S
C418 N413 1.318 . S
C418 C417 1.396 . S
H419 C414 0.929 . S
O420 Mn396 2.385 . S
O420 C398 1.234 . S
O421 Mn396 2.209 . S
O421 Mn397 2.215 1_554 S
O421 C398 1.283 . S
O422 Mn396 2.094 1_556 S
O422 C400 1.240 . S
O423 Mn397 2.117 . S
O423 C400 1.264 . S
C424 C417 1.403 . S
C424 C425 1.399 . S
C424 H430 0.929 . S
C425 C405 1.449 . S
C425 C424 1.399 . S
C425 H431 0.930 . S
H426 C406 0.931 . S
H427 C407 0.930 . S
H428 C415 0.931 . S
H429 C416 0.929 . S
H430 C424 0.929 . S
H431 C425 0.930 . S
Mn432 O437 2.095 . S
Mn432 O447 2.162 . S
Mn432 O448 2.297 . S
Mn432 O456 2.385 1_554 S
Mn432 O457 2.209 1_554 S
Mn432 O458 2.094 1_554 S
Mn433 O438 2.106 1_556 S
Mn433 N440 2.257 . S
Mn433 N449 2.282 . S
Mn433 O457 2.215 . S
Mn433 O459 2.117 . S
C434 O456 1.234 . S
C434 O457 1.283 . S
C435 O447 1.281 . S
C435 O448 1.236 . S
C436 O458 1.240 . S
C436 O459 1.264 . S
O437 Mn432 2.095 . S
O437 C446 1.250 . S
O438 Mn433 2.106 1_554 S
O438 C446 1.270 . S
C439 N440 1.326 . S
C439 C443 1.460 . S
C439 H445 0.929 . S
N440 Mn433 2.257 . S
N440 C439 1.326 . S
N440 C444 1.362 . S
C441 C442 1.258 . S
C441 C444 1.431 . S
C441 C461 1.449 . S
C442 C441 1.258 . S
C442 C443 1.477 . S
C442 H462 0.931 . S
C443 C439 1.460 . S
C443 C442 1.477 . S
C443 H463 0.930 . S
C444 N440 1.362 . S
C444 C441 1.431 . S
C444 C454 1.476 . S
H445 C439 0.929 . S
C446 O437 1.250 . S
C446 O438 1.270 . S
O447 Mn432 2.162 . S
O447 C435 1.281 . S
O448 Mn432 2.297 . S
O448 C435 1.236 . S
N449 Mn433 2.282 . S
N449 C450 1.328 . S
N449 C454 1.318 . S
C450 N449 1.328 . S
C450 C451 1.457 . S
C450 H455 0.929 . S
C451 C450 1.457 . S
C451 C452 1.291 . S
C451 H464 0.931 . S
C452 C451 1.291 . S
C452 C453 1.373 . S
C452 H465 0.929 . S
C453 C452 1.373 . S
C453 C454 1.396 . S
C453 C460 1.403 . S
C454 C444 1.476 . S
C454 N449 1.318 . S
C454 C453 1.396 . S
H455 C450 0.929 . S
O456 Mn432 2.385 1_556 S
O456 C434 1.234 . S
O457 Mn432 2.209 1_556 S
O457 Mn433 2.215 . S
O457 C434 1.283 . S
O458 Mn432 2.094 1_556 S
O458 C436 1.240 . S
O459 Mn433 2.117 . S
O459 C436 1.264 . S
C460 C453 1.403 . S
C460 C461 1.399 . S
C460 H466 0.929 . S
C461 C441 1.449 . S
C461 C460 1.399 . S
C461 H467 0.930 . S
H462 C442 0.931 . S
H463 C443 0.930 . S
H464 C451 0.931 . S
H465 C452 0.929 . S
H466 C460 0.929 . S
H467 C461 0.930 . S
Mn468 O473 2.095 . S
Mn468 O483 2.162 . S
Mn468 O484 2.297 . S
Mn468 O492 2.385 1_554 S
Mn468 O493 2.209 1_554 S
Mn468 O494 2.094 1_554 S
Mn469 O474 2.121 1_556 S
Mn469 N476 2.257 . S
Mn469 N485 2.282 . S
Mn469 O493 2.215 . S
Mn469 O495 2.117 . S
C470 O492 1.234 . S
C470 O493 1.283 . S
C471 O483 1.281 . S
C471 O484 1.236 . S
C472 O494 1.240 . S
C472 O495 1.264 . S
O473 Mn468 2.095 . S
O473 C482 1.250 . S
O474 Mn469 2.121 1_554 S
O474 C482 1.258 . S
C475 N476 1.326 . S
C475 C479 1.460 . S
C475 H481 0.929 1_556 S
N476 Mn469 2.257 . S
N476 C475 1.326 . S
N476 C480 1.362 . S
C477 C478 1.258 . S
C477 C480 1.431 . S
C477 C497 1.449 . S
C478 C477 1.258 . S
C478 C479 1.477 . S
C478 H498 0.931 . S
C479 C475 1.460 . S
C479 C478 1.477 . S
C479 H499 0.891 1_556 S
C480 N476 1.362 . S
C480 C477 1.431 . S
C480 C490 1.476 . S
H481 C475 0.929 1_554 S
C482 O473 1.250 . S
C482 O474 1.258 . S
O483 Mn468 2.162 . S
O483 C471 1.281 . S
O484 Mn468 2.297 . S
O484 C471 1.236 . S
N485 Mn469 2.282 . S
N485 C486 1.328 . S
N485 C490 1.318 . S
C486 N485 1.328 . S
C486 C487 1.457 . S
C486 H491 0.929 . S
C487 C486 1.457 . S
C487 C488 1.291 . S
C487 H500 0.931 . S
C488 C487 1.291 . S
C488 C489 1.373 . S
C488 H501 0.929 . S
C489 C488 1.373 . S
C489 C490 1.396 . S
C489 C496 1.403 . S
C490 C480 1.476 . S
C490 N485 1.318 . S
C490 C489 1.396 . S
H491 C486 0.929 . S
O492 Mn468 2.385 1_556 S
O492 C470 1.234 . S
O493 Mn468 2.209 1_556 S
O493 Mn469 2.215 . S
O493 C470 1.283 . S
O494 Mn468 2.094 1_556 S
O494 C472 1.240 . S
O495 Mn469 2.117 . S
O495 C472 1.264 . S
C496 C489 1.403 . S
C496 C497 1.399 . S
C496 H502 0.929 . S
C497 C477 1.449 . S
C497 C496 1.399 . S
C497 H503 0.930 . S
H498 C478 0.931 . S
H499 C479 0.891 1_554 S
H500 C487 0.931 . S
H501 C488 0.929 . S
H502 C496 0.929 . S
H503 C497 0.930 . S
Mn504 O509 2.095 . S
Mn504 O519 2.162 . S
Mn504 O520 2.297 . S
Mn504 O528 2.385 . S
Mn504 O529 2.209 . S
Mn504 O530 2.094 . S
Mn505 O510 2.121 . S
Mn505 N512 2.257 . S
Mn505 N521 2.282 . S
Mn505 O529 2.215 . S
Mn505 O531 2.117 . S
C506 O528 1.234 . S
C506 O529 1.283 . S
C507 O519 1.281 . S
C507 O520 1.236 . S
C508 O530 1.240 . S
C508 O531 1.264 . S
O509 Mn504 2.095 . S
O509 C518 1.250 . S
O510 Mn505 2.121 . S
O510 C518 1.258 . S
C511 N512 1.326 . S
C511 C515 1.460 . S
C511 H517 0.929 . S
N512 Mn505 2.257 . S
N512 C511 1.326 . S
N512 C516 1.362 . S
C513 C514 1.258 . S
C513 C516 1.431 . S
C513 C533 1.449 . S
C514 C513 1.258 . S
C514 C515 1.477 . S
C514 H534 0.931 . S
C515 C511 1.460 . S
C515 C514 1.477 . S
C515 H535 0.930 . S
C516 N512 1.362 . S
C516 C513 1.431 . S
C516 C526 1.476 . S
H517 C511 0.929 . S
C518 O509 1.250 . S
C518 O510 1.258 . S
O519 Mn504 2.162 . S
O519 C507 1.281 . S
O520 Mn504 2.297 . S
O520 C507 1.236 . S
N521 Mn505 2.282 . S
N521 C522 1.328 . S
N521 C526 1.318 . S
C522 N521 1.328 . S
C522 C523 1.457 . S
C522 H527 0.929 . S
C523 C522 1.457 . S
C523 C524 1.291 . S
C523 H536 0.931 . S
C524 C523 1.291 . S
C524 C525 1.373 . S
C524 H537 0.929 . S
C525 C524 1.373 . S
C525 C526 1.396 . S
C525 C532 1.403 . S
C526 C516 1.476 . S
C526 N521 1.318 . S
C526 C525 1.396 . S
H527 C522 0.929 . S
O528 Mn504 2.385 . S
O528 C506 1.234 . S
O529 Mn504 2.209 . S
O529 Mn505 2.215 . S
O529 C506 1.283 . S
O530 Mn504 2.094 . S
O530 C508 1.240 . S
O531 Mn505 2.117 . S
O531 C508 1.264 . S
C532 C525 1.403 . S
C532 C533 1.399 . S
C532 H538 0.929 . S
C533 C513 1.449 . S
C533 C532 1.399 . S
C533 H539 0.930 . S
H534 C514 0.931 . S
H535 C515 0.930 . S
H536 C523 0.931 . S
H537 C524 0.929 . S
H538 C532 0.929 . S
H539 C533 0.930 . S
Mn540 O545 2.095 . S
Mn540 O555 2.162 . S
Mn540 O556 2.297 . S
Mn540 O564 2.385 . S
Mn540 O565 2.209 . S
Mn540 O566 2.094 . S
Mn541 O546 2.121 . S
Mn541 N548 2.257 . S
Mn541 N557 2.282 . S
Mn541 O565 2.215 . S
Mn541 O567 2.117 . S
C542 O564 1.234 . S
C542 O565 1.283 . S
C543 O555 1.281 . S
C543 O556 1.236 . S
C544 O566 1.240 . S
C544 O567 1.264 . S
O545 Mn540 2.095 . S
O545 C554 1.250 . S
O546 Mn541 2.121 . S
O546 C554 1.258 . S
C547 N548 1.326 . S
C547 C551 1.460 . S
C547 H553 0.929 . S
N548 Mn541 2.257 . S
N548 C547 1.326 . S
N548 C552 1.362 . S
C549 C550 1.258 . S
C549 C552 1.431 . S
C549 C569 1.449 . S
C550 C549 1.258 . S
C550 C551 1.477 . S
C550 H570 0.931 . S
C551 C547 1.460 . S
C551 C550 1.477 . S
C551 H571 0.930 . S
C552 N548 1.362 . S
C552 C549 1.431 . S
C552 C562 1.476 . S
H553 C547 0.929 . S
C554 O545 1.250 . S
C554 O546 1.258 . S
O555 Mn540 2.162 . S
O555 C543 1.281 . S
O556 Mn540 2.297 . S
O556 C543 1.236 . S
N557 Mn541 2.282 . S
N557 C558 1.328 . S
N557 C562 1.318 . S
C558 N557 1.328 . S
C558 C559 1.457 . S
C558 H563 0.929 . S
C559 C558 1.457 . S
C559 C560 1.291 . S
C559 H572 0.931 . S
C560 C559 1.291 . S
C560 C561 1.373 . S
C560 H573 0.929 . S
C561 C560 1.373 . S
C561 C562 1.396 . S
C561 C568 1.403 . S
C562 C552 1.476 . S
C562 N557 1.318 . S
C562 C561 1.396 . S
H563 C558 0.929 . S
O564 Mn540 2.385 . S
O564 C542 1.234 . S
O565 Mn540 2.209 . S
O565 Mn541 2.215 . S
O565 C542 1.283 . S
O566 Mn540 2.094 . S
O566 C544 1.240 . S
O567 Mn541 2.117 . S
O567 C544 1.264 . S
C568 C561 1.403 . S
C568 C569 1.399 . S
C568 H574 0.929 . S
C569 C549 1.449 . S
C569 C568 1.399 . S
C569 H575 0.930 . S
H570 C550 0.931 . S
H571 C551 0.930 . S
H572 C559 0.931 . S
H573 C560 0.929 . S
H574 C568 0.929 . S
H575 C569 0.930 . S
Mn576 O581 2.095 1_545 S
Mn576 O591 2.162 . S
Mn576 O592 2.297 . S
Mn576 O600 2.385 . S
Mn576 O601 2.209 . S
Mn576 O602 2.094 1_545 S
Mn577 O582 2.121 . S
Mn577 N584 2.257 1_565 S
Mn577 N593 2.282 1_565 S
Mn577 O601 2.215 1_565 S
Mn577 O603 2.117 . S
C578 O600 1.234 . S
C578 O601 1.283 . S
C579 O591 1.281 . S
C579 O592 1.236 . S
C580 O602 1.240 . S
C580 O603 1.264 . S
O581 Mn576 2.095 1_565 S
O581 C590 1.250 . S
O582 Mn577 2.121 . S
O582 C590 1.258 . S
C583 N584 1.326 1_565 S
C583 C587 1.460 1_565 S
C583 H589 0.929 . S
N584 Mn577 2.257 1_545 S
N584 C583 1.326 1_545 S
N584 C588 1.362 . S
C585 C586 1.258 . S
C585 C588 1.431 . S
C585 C605 1.449 . S
C586 C585 1.258 . S
C586 C587 1.477 . S
C586 H606 0.931 1_655 S
C587 C583 1.460 1_545 S
C587 C586 1.477 . S
C587 H607 0.943 . S
C588 N584 1.362 . S
C588 C585 1.431 . S
C588 C598 1.476 . S
H589 C583 0.929 . S
C590 O581 1.250 . S
C590 O582 1.258 . S
O591 Mn576 2.162 . S
O591 C579 1.281 . S
O592 Mn576 2.297 . S
O592 C579 1.236 . S
N593 Mn577 2.282 1_545 S
N593 C594 1.328 . S
N593 C598 1.318 . S
C594 N593 1.328 . S
C594 C595 1.457 . S
C594 H599 0.929 . S
C595 C594 1.457 . S
C595 C596 1.291 . S
C595 H608 0.931 . S
C596 C595 1.291 . S
C596 C597 1.373 . S
C596 H609 0.929 . S
C597 C596 1.373 . S
C597 C598 1.396 . S
C597 C604 1.403 . S
C598 C588 1.476 . S
C598 N593 1.318 . S
C598 C597 1.396 . S
H599 C594 0.929 . S
O600 Mn576 2.385 . S
O600 C578 1.234 . S
O601 Mn576 2.209 . S
O601 Mn577 2.215 1_545 S
O601 C578 1.283 . S
O602 Mn576 2.094 1_565 S
O602 C580 1.240 . S
O603 Mn577 2.117 . S
O603 C580 1.264 . S
C604 C597 1.403 . S
C604 C605 1.399 . S
C604 H610 0.929 . S
C605 C585 1.449 . S
C605 C604 1.399 . S
C605 H611 0.930 . S
H606 C586 0.931 1_455 S
H607 C587 0.943 . S
H608 C595 0.931 . S
H609 C596 0.929 . S
H610 C604 0.929 . S
H611 C605 0.930 . S
Mn612 O617 2.095 . S
Mn612 O627 2.162 . S
Mn612 O628 2.297 . S
Mn612 O636 2.385 . S
Mn612 O637 2.209 . S
Mn612 O638 2.094 . S
Mn613 O618 2.121 . S
Mn613 N620 2.257 . S
Mn613 N629 2.282 . S
Mn613 O637 2.215 . S
Mn613 O639 2.117 . S
C614 O636 1.234 . S
C614 O637 1.283 . S
C615 O627 1.281 . S
C615 O628 1.236 . S
C616 O638 1.240 . S
C616 O639 1.264 . S
O617 Mn612 2.095 . S
O617 C626 1.250 . S
O618 Mn613 2.121 . S
O618 C626 1.258 . S
C619 N620 1.326 . S
C619 C623 1.460 . S
C619 H625 0.929 . S
N620 Mn613 2.257 . S
N620 C619 1.326 . S
N620 C624 1.362 . S
C621 C622 1.258 . S
C621 C624 1.431 . S
C621 C641 1.449 . S
C622 C621 1.258 . S
C622 C623 1.477 . S
C622 H642 0.931 . S
C623 C619 1.460 . S
C623 C622 1.477 . S
C623 H643 0.930 . S
C624 N620 1.362 . S
C624 C621 1.431 . S
C624 C634 1.476 . S
H625 C619 0.929 . S
C626 O617 1.250 . S
C626 O618 1.258 . S
O627 Mn612 2.162 . S
O627 C615 1.281 . S
O628 Mn612 2.297 . S
O628 C615 1.236 . S
N629 Mn613 2.282 . S
N629 C630 1.328 . S
N629 C634 1.318 . S
C630 N629 1.328 . S
C630 C631 1.457 . S
C630 H635 0.929 . S
C631 C630 1.457 . S
C631 C632 1.291 . S
C631 H644 0.931 . S
C632 C631 1.291 . S
C632 C633 1.373 . S
C632 H645 0.929 . S
C633 C632 1.373 . S
C633 C634 1.396 . S
C633 C640 1.403 . S
C634 C624 1.476 . S
C634 N629 1.318 . S
C634 C633 1.396 . S
H635 C630 0.929 . S
O636 Mn612 2.385 . S
O636 C614 1.234 . S
O637 Mn612 2.209 . S
O637 Mn613 2.215 . S
O637 C614 1.283 . S
O638 Mn612 2.094 . S
O638 C616 1.240 . S
O639 Mn613 2.117 . S
O639 C616 1.264 . S
C640 C633 1.403 . S
C640 C641 1.399 . S
C640 H646 0.929 . S
C641 C621 1.449 . S
C641 C640 1.399 . S
C641 H647 0.930 . S
H642 C622 0.931 . S
H643 C623 0.930 . S
H644 C631 0.931 . S
H645 C632 0.929 . S
H646 C640 0.929 . S
H647 C641 0.930 . S
Mn648 O653 2.095 . S
Mn648 O663 2.162 . S
Mn648 O664 2.297 . S
Mn648 O672 2.385 . S
Mn648 O673 2.209 . S
Mn648 O674 2.094 . S
Mn649 O654 2.121 . S
Mn649 N656 2.257 . S
Mn649 N665 2.282 . S
Mn649 O673 2.215 . S
Mn649 O675 2.117 . S
C650 O672 1.234 . S
C650 O673 1.283 . S
C651 O663 1.281 . S
C651 O664 1.236 . S
C652 O674 1.240 . S
C652 O675 1.264 . S
O653 Mn648 2.095 . S
O653 C662 1.250 . S
O654 Mn649 2.121 . S
O654 C662 1.258 . S
C655 N656 1.326 . S
C655 C659 1.460 . S
C655 H661 0.929 . S
N656 Mn649 2.257 . S
N656 C655 1.326 . S
N656 C660 1.362 . S
C657 C658 1.258 . S
C657 C660 1.431 . S
C657 C677 1.449 . S
C658 C657 1.258 . S
C658 C659 1.477 . S
C658 H678 0.931 . S
C659 C655 1.460 . S
C659 C658 1.477 . S
C659 H679 0.930 . S
C660 N656 1.362 . S
C660 C657 1.431 . S
C660 C670 1.476 . S
H661 C655 0.929 . S
C662 O653 1.250 . S
C662 O654 1.258 . S
O663 Mn648 2.162 . S
O663 C651 1.281 . S
O664 Mn648 2.297 . S
O664 C651 1.236 . S
N665 Mn649 2.282 . S
N665 C666 1.328 . S
N665 C670 1.318 . S
C666 N665 1.328 . S
C666 C667 1.457 . S
C666 H671 0.929 . S
C667 C666 1.457 . S
C667 C668 1.291 . S
C667 H680 0.931 . S
C668 C667 1.291 . S
C668 C669 1.373 . S
C668 H681 0.929 . S
C669 C668 1.373 . S
C669 C670 1.396 . S
C669 C676 1.403 . S
C670 C660 1.476 . S
C670 N665 1.318 . S
C670 C669 1.396 . S
H671 C666 0.929 . S
O672 Mn648 2.385 . S
O672 C650 1.234 . S
O673 Mn648 2.209 . S
O673 Mn649 2.215 . S
O673 C650 1.283 . S
O674 Mn648 2.094 . S
O674 C652 1.240 . S
O675 Mn649 2.117 . S
O675 C652 1.264 . S
C676 C669 1.403 . S
C676 C677 1.399 . S
C676 H682 0.929 . S
C677 C657 1.449 . S
C677 C676 1.399 . S
C677 H683 0.930 . S
H678 C658 0.931 . S
H679 C659 0.930 . S
H680 C667 0.931 . S
H681 C668 0.929 . S
H682 C676 0.929 . S
H683 C677 0.930 . S
Mn684 O689 2.095 . S
Mn684 O699 2.151 1_545 S
Mn684 O700 2.297 1_545 S
Mn684 O708 2.385 1_545 S
Mn684 O709 2.209 1_545 S
Mn684 O710 2.094 . S
Mn685 O690 2.121 . S
Mn685 N692 2.257 . S
Mn685 N701 2.295 . S
Mn685 O709 2.215 1_545 S
Mn685 O711 2.117 . S
C686 O708 1.234 . S
C686 O709 1.283 . S
C687 O699 1.298 . S
C687 O700 1.236 . S
C688 O710 1.240 . S
C688 O711 1.264 . S
O689 Mn684 2.095 . S
O689 C698 1.250 . S
O690 Mn685 2.121 . S
O690 C698 1.258 . S
C691 N692 1.326 . S
C691 C695 1.460 . S
C691 H697 0.929 . S
N692 Mn685 2.257 . S
N692 C691 1.326 . S
N692 C696 1.356 1_545 S
C693 C694 1.258 . S
C693 C696 1.434 . S
C693 C713 1.449 . S
C694 C693 1.258 . S
C694 C695 1.477 1_565 S
C694 H714 0.931 . S
C695 C691 1.460 . S
C695 C694 1.477 1_545 S
C695 H715 0.930 . S
C696 N692 1.356 1_565 S
C696 C693 1.434 . S
C696 C706 1.480 . S
H697 C691 0.929 . S
C698 O689 1.250 . S
C698 O690 1.258 . S
O699 Mn684 2.151 1_565 S
O699 C687 1.298 . S
O700 Mn684 2.297 1_565 S
O700 C687 1.236 . S
N701 Mn685 2.295 . S
N701 C702 1.321 1_545 S
N701 C706 1.310 1_545 S
C702 N701 1.321 1_565 S
C702 C703 1.457 . S
C702 H707 0.947 . S
C703 C702 1.457 . S
C703 C704 1.291 . S
C703 H716 0.931 . S
C704 C703 1.291 . S
C704 C705 1.373 . S
C704 H717 0.929 . S
C705 C704 1.373 . S
C705 C706 1.396 . S
C705 C712 1.403 . S
C706 C696 1.480 . S
C706 N701 1.310 1_565 S
C706 C705 1.396 . S
H707 C702 0.947 . S
O708 Mn684 2.385 1_565 S
O708 C686 1.234 . S
O709 Mn684 2.209 1_565 S
O709 Mn685 2.215 1_565 S
O709 C686 1.283 . S
O710 Mn684 2.094 . S
O710 C688 1.240 . S
O711 Mn685 2.117 . S
O711 C688 1.264 . S
C712 C705 1.403 . S
C712 C713 1.399 . S
C712 H718 0.929 . S
C713 C693 1.449 . S
C713 C712 1.399 . S
C713 H719 0.930 . S
H714 C694 0.931 . S
H715 C695 0.930 . S
H716 C703 0.931 . S
H717 C704 0.929 . S
H718 C712 0.929 . S
H719 C713 0.930 . S
Mn720 O725 2.095 1_554 S
Mn720 O735 2.162 . S
Mn720 O736 2.297 . S
Mn720 O744 2.385 . S
Mn720 O745 2.209 . S
Mn720 O746 2.094 1_554 S
Mn721 O726 2.121 . S
Mn721 N728 2.257 . S
Mn721 N737 2.282 . S
Mn721 O745 2.215 1_556 S
Mn721 O747 2.117 . S
C722 O744 1.234 . S
C722 O745 1.283 . S
C723 O735 1.281 . S
C723 O736 1.236 . S
C724 O746 1.240 . S
C724 O747 1.264 . S
O725 Mn720 2.095 1_556 S
O725 C734 1.250 . S
O726 Mn721 2.121 . S
O726 C734 1.258 . S
C727 N728 1.326 . S
C727 C731 1.460 . S
C727 H733 0.929 . S
N728 Mn721 2.257 . S
N728 C727 1.326 . S
N728 C732 1.362 . S
C729 C730 1.258 . S
C729 C732 1.431 . S
C729 C749 1.449 . S
C730 C729 1.258 . S
C730 C731 1.477 . S
C730 H750 0.931 . S
C731 C727 1.460 . S
C731 C730 1.477 . S
C731 H751 0.930 . S
C732 N728 1.362 . S
C732 C729 1.431 . S
C732 C742 1.476 . S
H733 C727 0.929 . S
C734 O725 1.250 . S
C734 O726 1.258 . S
O735 Mn720 2.162 . S
O735 C723 1.281 . S
O736 Mn720 2.297 . S
O736 C723 1.236 . S
N737 Mn721 2.282 . S
N737 C738 1.328 . S
N737 C742 1.318 . S
C738 N737 1.328 . S
C738 C739 1.457 . S
C738 H743 0.929 . S
C739 C738 1.457 . S
C739 C740 1.291 . S
C739 H752 0.931 . S
C740 C739 1.291 . S
C740 C741 1.373 . S
C740 H753 0.929 . S
C741 C740 1.373 . S
C741 C742 1.396 . S
C741 C748 1.403 . S
C742 C732 1.476 . S
C742 N737 1.318 . S
C742 C741 1.396 . S
H743 C738 0.929 . S
O744 Mn720 2.385 . S
O744 C722 1.234 . S
O745 Mn720 2.209 . S
O745 Mn721 2.215 1_554 S
O745 C722 1.283 . S
O746 Mn720 2.094 1_556 S
O746 C724 1.240 . S
O747 Mn721 2.117 . S
O747 C724 1.264 . S
C748 C741 1.403 . S
C748 C749 1.399 . S
C748 H754 0.929 . S
C749 C729 1.449 . S
C749 C748 1.399 . S
C749 H755 0.930 . S
H750 C730 0.931 . S
H751 C731 0.930 . S
H752 C739 0.931 . S
H753 C740 0.929 . S
H754 C748 0.929 . S
H755 C749 0.930 . S
Mn756 O761 2.095 . S
Mn756 O771 2.162 . S
Mn756 O772 2.297 . S
Mn756 O780 2.385 . S
Mn756 O781 2.209 . S
Mn756 O782 2.094 . S
Mn757 O762 2.121 . S
Mn757 N764 2.257 . S
Mn757 N773 2.282 . S
Mn757 O781 2.215 . S
Mn757 O783 2.117 . S
C758 O780 1.234 . S
C758 O781 1.283 . S
C759 O771 1.281 . S
C759 O772 1.236 . S
C760 O782 1.240 . S
C760 O783 1.264 . S
O761 Mn756 2.095 . S
O761 C770 1.250 . S
O762 Mn757 2.121 . S
O762 C770 1.258 . S
C763 N764 1.326 . S
C763 C767 1.460 . S
C763 H769 0.929 . S
N764 Mn757 2.257 . S
N764 C763 1.326 . S
N764 C768 1.362 . S
C765 C766 1.258 . S
C765 C768 1.431 . S
C765 C785 1.449 . S
C766 C765 1.258 . S
C766 C767 1.477 . S
C766 H786 0.931 . S
C767 C763 1.460 . S
C767 C766 1.477 . S
C767 H787 0.930 . S
C768 N764 1.362 . S
C768 C765 1.431 . S
C768 C778 1.476 . S
H769 C763 0.929 . S
C770 O761 1.250 . S
C770 O762 1.258 . S
O771 Mn756 2.162 . S
O771 C759 1.281 . S
O772 Mn756 2.297 . S
O772 C759 1.236 . S
N773 Mn757 2.282 . S
N773 C774 1.328 . S
N773 C778 1.318 . S
C774 N773 1.328 . S
C774 C775 1.457 . S
C774 H779 0.929 . S
C775 C774 1.457 . S
C775 C776 1.291 . S
C775 H788 0.931 . S
C776 C775 1.291 . S
C776 C777 1.373 . S
C776 H789 0.929 . S
C777 C776 1.373 . S
C777 C778 1.396 . S
C777 C784 1.403 . S
C778 C768 1.476 . S
C778 N773 1.318 . S
C778 C777 1.396 . S
H779 C774 0.929 . S
O780 Mn756 2.385 . S
O780 C758 1.234 . S
O781 Mn756 2.209 . S
O781 Mn757 2.215 . S
O781 C758 1.283 . S
O782 Mn756 2.094 . S
O782 C760 1.240 . S
O783 Mn757 2.117 . S
O783 C760 1.264 . S
C784 C777 1.403 . S
C784 C785 1.399 . S
C784 H790 0.929 . S
C785 C765 1.449 . S
C785 C784 1.399 . S
C785 H791 0.930 . S
H786 C766 0.931 . S
H787 C767 0.930 . S
H788 C775 0.931 . S
H789 C776 0.929 . S
H790 C784 0.929 . S
H791 C785 0.930 . S
Mn792 O797 2.095 . S
Mn792 O807 2.162 . S
Mn792 O808 2.297 . S
Mn792 O816 2.385 . S
Mn792 O817 2.209 . S
Mn792 O818 2.094 . S
Mn793 O798 2.121 . S
Mn793 N800 2.257 . S
Mn793 N809 2.282 . S
Mn793 O817 2.215 . S
Mn793 O819 2.117 . S
C794 O816 1.234 . S
C794 O817 1.283 . S
C795 O807 1.281 . S
C795 O808 1.236 . S
C796 O818 1.240 . S
C796 O819 1.264 . S
O797 Mn792 2.095 . S
O797 C806 1.250 . S
O798 Mn793 2.121 . S
O798 C806 1.258 . S
C799 N800 1.326 . S
C799 C803 1.460 . S
C799 H805 0.929 . S
N800 Mn793 2.257 . S
N800 C799 1.326 . S
N800 C804 1.362 . S
C801 C802 1.258 . S
C801 C804 1.431 . S
C801 C821 1.449 . S
C802 C801 1.258 . S
C802 C803 1.477 . S
C802 H822 0.931 . S
C803 C799 1.460 . S
C803 C802 1.477 . S
C803 H823 0.930 . S
C804 N800 1.362 . S
C804 C801 1.431 . S
C804 C814 1.476 . S
H805 C799 0.929 . S
C806 O797 1.250 . S
C806 O798 1.258 . S
O807 Mn792 2.162 . S
O807 C795 1.281 . S
O808 Mn792 2.297 . S
O808 C795 1.236 . S
N809 Mn793 2.282 . S
N809 C810 1.328 . S
N809 C814 1.318 . S
C810 N809 1.328 . S
C810 C811 1.457 . S
C810 H815 0.929 . S
C811 C810 1.457 . S
C811 C812 1.291 . S
C811 H824 0.931 . S
C812 C811 1.291 . S
C812 C813 1.373 . S
C812 H825 0.929 . S
C813 C812 1.373 . S
C813 C814 1.396 . S
C813 C820 1.403 . S
C814 C804 1.476 . S
C814 N809 1.318 . S
C814 C813 1.396 . S
H815 C810 0.929 . S
O816 Mn792 2.385 . S
O816 C794 1.234 . S
O817 Mn792 2.209 . S
O817 Mn793 2.215 . S
O817 C794 1.283 . S
O818 Mn792 2.094 . S
O818 C796 1.240 . S
O819 Mn793 2.117 . S
O819 C796 1.264 . S
C820 C813 1.403 . S
C820 C821 1.399 . S
C820 H826 0.929 . S
C821 C801 1.449 . S
C821 C820 1.399 . S
C821 H827 0.930 . S
H822 C802 0.931 . S
H823 C803 0.930 . S
H824 C811 0.931 . S
H825 C812 0.929 . S
H826 C820 0.929 . S
H827 C821 0.930 . S
Mn828 O833 2.095 . S
Mn828 O843 2.162 . S
Mn828 O844 2.297 . S
Mn828 O852 2.385 . S
Mn828 O853 2.209 . S
Mn828 O854 2.094 . S
Mn829 O834 2.121 . S
Mn829 N836 2.257 . S
Mn829 N845 2.282 . S
Mn829 O853 2.215 . S
Mn829 O855 2.117 . S
C830 O852 1.234 . S
C830 O853 1.283 . S
C831 O843 1.281 . S
C831 O844 1.236 . S
C832 O854 1.240 . S
C832 O855 1.264 . S
O833 Mn828 2.095 . S
O833 C842 1.250 . S
O834 Mn829 2.121 . S
O834 C842 1.258 . S
C835 N836 1.326 . S
C835 C839 1.460 . S
C835 H841 0.929 . S
N836 Mn829 2.257 . S
N836 C835 1.326 . S
N836 C840 1.362 . S
C837 C838 1.258 . S
C837 C840 1.431 . S
C837 C857 1.449 . S
C838 C837 1.258 . S
C838 C839 1.477 . S
C838 H858 0.931 . S
C839 C835 1.460 . S
C839 C838 1.477 . S
C839 H859 0.930 . S
C840 N836 1.362 . S
C840 C837 1.431 . S
C840 C850 1.476 . S
H841 C835 0.929 . S
C842 O833 1.250 . S
C842 O834 1.258 . S
O843 Mn828 2.162 . S
O843 C831 1.281 . S
O844 Mn828 2.297 . S
O844 C831 1.236 . S
N845 Mn829 2.282 . S
N845 C846 1.328 . S
N845 C850 1.318 . S
C846 N845 1.328 . S
C846 C847 1.457 . S
C846 H851 0.929 . S
C847 C846 1.457 . S
C847 C848 1.291 . S
C847 H860 0.931 . S
C848 C847 1.291 . S
C848 C849 1.373 . S
C848 H861 0.929 . S
C849 C848 1.373 . S
C849 C850 1.396 . S
C849 C856 1.403 . S
C850 C840 1.476 . S
C850 N845 1.318 . S
C850 C849 1.396 . S
H851 C846 0.929 . S
O852 Mn828 2.385 . S
O852 C830 1.234 . S
O853 Mn828 2.209 . S
O853 Mn829 2.215 . S
O853 C830 1.283 . S
O854 Mn828 2.094 . S
O854 C832 1.240 . S
O855 Mn829 2.117 . S
O855 C832 1.264 . S
C856 C849 1.403 . S
C856 C857 1.399 . S
C856 H862 0.929 . S
C857 C837 1.449 . S
C857 C856 1.399 . S
C857 H863 0.930 . S
H858 C838 0.931 . S
H859 C839 0.930 . S
H860 C847 0.931 . S
H861 C848 0.929 . S
H862 C856 0.929 . S
H863 C857 0.930 . S
H864 C872 0.929 . S
H865 C874 0.930 . S
H866 C876 0.930 . S
H867 C879 0.929 . S
H868 C882 0.930 . S
H869 C884 0.960 . S
H870 C884 0.960 . S
H871 C884 0.960 . S
C872 H864 0.929 . S
C872 C873 1.377 . S
C872 C874 1.384 . S
C873 C872 1.377 . S
C873 C879 1.390 . S
C874 H865 0.930 . S
C874 C872 1.384 . S
C874 C875 1.372 . S
C875 C874 1.372 . S
C875 C876 1.400 . S
C875 C880 1.490 . S
C876 H866 0.930 . S
C876 C875 1.400 . S
C876 C879 1.386 . S
H877 C893 0.930 . S
H878 C894 0.931 . S
C879 H867 0.929 . S
C879 C873 1.390 . S
C879 C876 1.386 . S
C880 C875 1.490 . S
C880 C882 1.395 . S
C880 C883 1.403 . S
H881 C887 0.930 . S
C882 H868 0.930 . S
C882 C880 1.395 . S
C882 C885 1.403 . S
C883 C880 1.403 . S
C883 C884 1.524 . S
C883 C887 1.400 . S
C884 H869 0.960 . S
C884 H870 0.960 . S
C884 H871 0.960 . S
C884 C883 1.524 . S
C885 C882 1.403 . S
C885 C886 1.392 . S
C885 C889 1.495 . S
C886 C885 1.392 . S
C886 C887 1.385 . S
C886 C888 1.478 . S
C887 H881 0.930 . S
C887 C883 1.400 . S
C887 C886 1.385 . S
C888 C886 1.478 . S
C888 C890 1.381 . S
C888 C894 1.383 . S
C889 C885 1.495 . S
C889 H895 0.959 . S
C889 H896 0.961 . S
C889 H897 0.960 . S
C890 C888 1.381 . S
C890 C891 1.394 . S
C890 H898 0.930 . S
C891 C890 1.394 . S
C891 C892 1.383 . S
C891 H899 0.929 . S
C892 C891 1.383 . S
C892 C893 1.377 . S
C893 H877 0.930 . S
C893 C892 1.377 . S
C893 C894 1.379 . S
C894 H878 0.931 . S
C894 C888 1.383 . S
C894 C893 1.379 . S
H895 C889 0.959 . S
H896 C889 0.961 . S
H897 C889 0.960 . S
H898 C890 0.930 . S
H899 C891 0.929 . S
H900 C908 0.929 . S
H901 C910 0.930 . S
H902 C912 0.930 . S
H903 C915 0.929 . S
H904 C918 0.930 . S
H905 C920 0.960 . S
H906 C920 0.960 . S
H907 C920 0.960 . S
C908 H900 0.929 . S
C908 C909 1.377 . S
C908 C910 1.384 . S
C909 C908 1.377 . S
C909 C915 1.390 . S
C910 H901 0.930 . S
C910 C908 1.384 . S
C910 C911 1.372 . S
C911 C910 1.372 . S
C911 C912 1.400 . S
C911 C916 1.490 . S
C912 H902 0.930 . S
C912 C911 1.400 . S
C912 C915 1.386 . S
H913 C929 0.930 . S
H914 C930 0.931 . S
C915 H903 0.929 . S
C915 C909 1.390 . S
C915 C912 1.386 . S
C916 C911 1.490 . S
C916 C918 1.395 . S
C916 C919 1.403 . S
H917 C923 0.930 . S
C918 H904 0.930 . S
C918 C916 1.395 . S
C918 C921 1.403 . S
C919 C916 1.403 . S
C919 C920 1.524 . S
C919 C923 1.400 . S
C920 H905 0.960 . S
C920 H906 0.960 . S
C920 H907 0.960 . S
C920 C919 1.524 . S
C921 C918 1.403 . S
C921 C922 1.392 . S
C921 C925 1.495 . S
C922 C921 1.392 . S
C922 C923 1.385 . S
C922 C924 1.478 . S
C923 H917 0.930 . S
C923 C919 1.400 . S
C923 C922 1.385 . S
C924 C922 1.478 . S
C924 C926 1.381 . S
C924 C930 1.383 . S
C925 C921 1.495 . S
C925 H931 0.959 . S
C925 H932 0.961 . S
C925 H933 0.960 . S
C926 C924 1.381 . S
C926 C927 1.394 . S
C926 H934 0.930 . S
C927 C926 1.394 . S
C927 C928 1.383 . S
C927 H935 0.929 . S
C928 C927 1.383 . S
C928 C929 1.377 . S
C929 H913 0.930 . S
C929 C928 1.377 . S
C929 C930 1.379 . S
C930 H914 0.931 . S
C930 C924 1.383 . S
C930 C929 1.379 . S
H931 C925 0.959 . S
H932 C925 0.961 . S
H933 C925 0.960 . S
H934 C926 0.930 . S
H935 C927 0.929 . S
H936 C944 0.929 . S
H937 C946 0.930 . S
H938 C948 0.930 . S
H939 C951 0.929 . S
H940 C954 0.930 . S
H941 C956 0.960 . S
H942 C956 0.960 . S
H943 C956 0.960 . S
C944 H936 0.929 . S
C944 C945 1.377 . S
C944 C946 1.384 . S
C945 C944 1.377 . S
C945 C951 1.390 . S
C946 H937 0.930 . S
C946 C944 1.384 . S
C946 C947 1.372 . S
C947 C946 1.372 . S
C947 C948 1.400 . S
C947 C952 1.490 . S
C948 H938 0.930 . S
C948 C947 1.400 . S
C948 C951 1.386 . S
H949 C965 0.930 . S
H950 C966 0.931 . S
C951 H939 0.929 . S
C951 C945 1.390 . S
C951 C948 1.386 . S
C952 C947 1.490 . S
C952 C954 1.395 . S
C952 C955 1.403 . S
H953 C959 0.930 . S
C954 H940 0.930 . S
C954 C952 1.395 . S
C954 C957 1.403 . S
C955 C952 1.403 . S
C955 C956 1.524 . S
C955 C959 1.400 . S
C956 H941 0.960 . S
C956 H942 0.960 . S
C956 H943 0.960 . S
C956 C955 1.524 . S
C957 C954 1.403 . S
C957 C958 1.392 . S
C957 C961 1.495 . S
C958 C957 1.392 . S
C958 C959 1.385 . S
C958 C960 1.478 . S
C959 H953 0.930 . S
C959 C955 1.400 . S
C959 C958 1.385 . S
C960 C958 1.478 . S
C960 C962 1.381 . S
C960 C966 1.383 . S
C961 C957 1.495 . S
C961 H967 0.959 . S
C961 H968 0.961 . S
C961 H969 0.960 . S
C962 C960 1.381 . S
C962 C963 1.394 . S
C962 H970 0.930 . S
C963 C962 1.394 . S
C963 C964 1.383 . S
C963 H971 0.929 . S
C964 C963 1.383 . S
C964 C965 1.377 . S
C965 H949 0.930 . S
C965 C964 1.377 . S
C965 C966 1.379 . S
C966 H950 0.931 . S
C966 C960 1.383 . S
C966 C965 1.379 . S
H967 C961 0.959 . S
H968 C961 0.961 . S
H969 C961 0.960 . S
H970 C962 0.930 . S
H971 C963 0.929 . S
H972 C980 0.929 . S
H973 C982 0.930 . S
H974 C984 0.930 . S
H975 C987 0.929 . S
H976 C990 0.930 . S
H977 C992 0.960 . S
H978 C992 0.960 . S
H979 C992 0.960 . S
C980 H972 0.929 . S
C980 C981 1.377 . S
C980 C982 1.384 . S
C981 C980 1.377 . S
C981 C987 1.390 . S
C982 H973 0.930 . S
C982 C980 1.384 . S
C982 C983 1.372 . S
C983 C982 1.372 . S
C983 C984 1.400 . S
C983 C988 1.490 . S
C984 H974 0.930 . S
C984 C983 1.400 . S
C984 C987 1.386 . S
H985 C1001 0.930 . S
H986 C1002 0.931 . S
C987 H975 0.929 . S
C987 C981 1.390 . S
C987 C984 1.386 . S
C988 C983 1.490 . S
C988 C990 1.395 . S
C988 C991 1.403 . S
H989 C995 0.930 . S
C990 H976 0.930 . S
C990 C988 1.395 . S
C990 C993 1.403 . S
C991 C988 1.403 . S
C991 C992 1.524 . S
C991 C995 1.400 . S
C992 H977 0.960 . S
C992 H978 0.960 . S
C992 H979 0.960 . S
C992 C991 1.524 . S
C993 C990 1.403 . S
C993 C994 1.392 . S
C993 C997 1.495 . S
C994 C993 1.392 . S
C994 C995 1.385 . S
C994 C996 1.478 . S
C995 H989 0.930 . S
C995 C991 1.400 . S
C995 C994 1.385 . S
C996 C994 1.478 . S
C996 C998 1.381 . S
C996 C1002 1.383 . S
C997 C993 1.495 . S
C997 H1003 0.959 . S
C997 H1004 0.961 . S
C997 H1005 0.960 . S
C998 C996 1.381 . S
C998 C999 1.394 . S
C998 H1006 0.930 . S
C999 C998 1.394 . S
C999 C1000 1.383 . S
C999 H1007 0.929 . S
C1000 C999 1.383 . S
C1000 C1001 1.377 . S
C1001 H985 0.930 . S
C1001 C1000 1.377 . S
C1001 C1002 1.379 . S
C1002 H986 0.931 . S
C1002 C996 1.383 . S
C1002 C1001 1.379 . S
H1003 C997 0.959 . S
H1004 C997 0.961 . S
H1005 C997 0.960 . S
H1006 C998 0.930 . S
H1007 C999 0.929 . S
H1008 C1016 0.929 . S
H1009 C1018 0.930 . S
H1010 C1020 0.930 . S
H1011 C1023 0.929 . S
H1012 C1026 0.930 . S
H1013 C1028 0.960 . S
H1014 C1028 0.960 . S
H1015 C1028 0.960 . S
C1016 H1008 0.929 . S
C1016 C1017 1.377 . S
C1016 C1018 1.384 . S
C1017 C1016 1.377 . S
C1017 C1023 1.390 . S
C1018 H1009 0.930 . S
C1018 C1016 1.384 . S
C1018 C1019 1.372 . S
C1019 C1018 1.372 . S
C1019 C1020 1.400 . S
C1019 C1024 1.490 . S
C1020 H1010 0.930 . S
C1020 C1019 1.400 . S
C1020 C1023 1.386 . S
H1021 C1037 0.930 . S
H1022 C1038 0.931 . S
C1023 H1011 0.929 . S
C1023 C1017 1.390 . S
C1023 C1020 1.386 . S
C1024 C1019 1.490 . S
C1024 C1026 1.395 . S
C1024 C1027 1.403 . S
H1025 C1031 0.930 . S
C1026 H1012 0.930 . S
C1026 C1024 1.395 . S
C1026 C1029 1.403 . S
C1027 C1024 1.403 . S
C1027 C1028 1.524 . S
C1027 C1031 1.400 . S
C1028 H1013 0.960 . S
C1028 H1014 0.960 . S
C1028 H1015 0.960 . S
C1028 C1027 1.524 . S
C1029 C1026 1.403 . S
C1029 C1030 1.392 . S
C1029 C1033 1.495 . S
C1030 C1029 1.392 . S
C1030 C1031 1.385 . S
C1030 C1032 1.478 . S
C1031 H1025 0.930 . S
C1031 C1027 1.400 . S
C1031 C1030 1.385 . S
C1032 C1030 1.478 . S
C1032 C1034 1.381 . S
C1032 C1038 1.383 . S
C1033 C1029 1.495 . S
C1033 H1039 0.959 . S
C1033 H1040 0.961 . S
C1033 H1041 0.960 . S
C1034 C1032 1.381 . S
C1034 C1035 1.394 . S
C1034 H1042 0.930 . S
C1035 C1034 1.394 . S
C1035 C1036 1.383 . S
C1035 H1043 0.929 . S
C1036 C1035 1.383 . S
C1036 C1037 1.377 . S
C1037 H1021 0.930 . S
C1037 C1036 1.377 . S
C1037 C1038 1.379 . S
C1038 H1022 0.931 . S
C1038 C1032 1.383 . S
C1038 C1037 1.379 . S
H1039 C1033 0.959 . S
H1040 C1033 0.961 . S
H1041 C1033 0.960 . S
H1042 C1034 0.930 . S
H1043 C1035 0.929 . S
H1044 C1052 0.929 . S
H1045 C1054 0.930 . S
H1046 C1056 0.930 . S
H1047 C1059 0.929 . S
H1048 C1062 0.930 . S
H1049 C1064 0.960 . S
H1050 C1064 0.960 . S
H1051 C1064 0.960 . S
C1052 H1044 0.929 . S
C1052 C1053 1.377 . S
C1052 C1054 1.384 . S
C1053 C1052 1.377 . S
C1053 C1059 1.390 . S
C1054 H1045 0.930 . S
C1054 C1052 1.384 . S
C1054 C1055 1.372 . S
C1055 C1054 1.372 . S
C1055 C1056 1.400 . S
C1055 C1060 1.490 . S
C1056 H1046 0.930 . S
C1056 C1055 1.400 . S
C1056 C1059 1.386 . S
H1057 C1073 0.930 . S
H1058 C1074 0.931 . S
C1059 H1047 0.929 . S
C1059 C1053 1.390 . S
C1059 C1056 1.386 . S
C1060 C1055 1.490 . S
C1060 C1062 1.395 . S
C1060 C1063 1.403 . S
H1061 C1067 0.930 . S
C1062 H1048 0.930 . S
C1062 C1060 1.395 . S
C1062 C1065 1.403 . S
C1063 C1060 1.403 . S
C1063 C1064 1.524 . S
C1063 C1067 1.400 . S
C1064 H1049 0.960 . S
C1064 H1050 0.960 . S
C1064 H1051 0.960 . S
C1064 C1063 1.524 . S
C1065 C1062 1.403 . S
C1065 C1066 1.392 . S
C1065 C1069 1.495 . S
C1066 C1065 1.392 . S
C1066 C1067 1.385 . S
C1066 C1068 1.478 . S
C1067 H1061 0.930 . S
C1067 C1063 1.400 . S
C1067 C1066 1.385 . S
C1068 C1066 1.478 . S
C1068 C1070 1.381 . S
C1068 C1074 1.383 . S
C1069 C1065 1.495 . S
C1069 H1075 0.959 . S
C1069 H1076 0.961 . S
C1069 H1077 0.960 . S
C1070 C1068 1.381 . S
C1070 C1071 1.394 . S
C1070 H1078 0.930 . S
C1071 C1070 1.394 . S
C1071 C1072 1.383 . S
C1071 H1079 0.929 . S
C1072 C1071 1.383 . S
C1072 C1073 1.377 . S
C1073 H1057 0.930 . S
C1073 C1072 1.377 . S
C1073 C1074 1.379 . S
C1074 H1058 0.931 . S
C1074 C1068 1.383 . S
C1074 C1073 1.379 . S
H1075 C1069 0.959 . S
H1076 C1069 0.961 . S
H1077 C1069 0.960 . S
H1078 C1070 0.930 . S
H1079 C1071 0.929 . S
H1080 C1088 0.929 . S
H1081 C1090 0.930 . S
H1082 C1092 0.930 . S
H1083 C1095 0.929 . S
H1084 C1098 0.930 . S
H1085 C1100 0.960 . S
H1086 C1100 0.960 . S
H1087 C1100 0.960 . S
C1088 H1080 0.929 . S
C1088 C1089 1.377 . S
C1088 C1090 1.384 . S
C1089 C1088 1.377 . S
C1089 C1095 1.390 . S
C1090 H1081 0.930 . S
C1090 C1088 1.384 . S
C1090 C1091 1.372 . S
C1091 C1090 1.372 . S
C1091 C1092 1.400 . S
C1091 C1096 1.490 . S
C1092 H1082 0.930 . S
C1092 C1091 1.400 . S
C1092 C1095 1.386 . S
H1093 C1109 0.930 . S
H1094 C1110 0.931 . S
C1095 H1083 0.929 . S
C1095 C1089 1.390 . S
C1095 C1092 1.386 . S
C1096 C1091 1.490 . S
C1096 C1098 1.395 . S
C1096 C1099 1.403 . S
H1097 C1103 0.930 . S
C1098 H1084 0.930 . S
C1098 C1096 1.395 . S
C1098 C1101 1.403 . S
C1099 C1096 1.403 . S
C1099 C1100 1.524 . S
C1099 C1103 1.400 . S
C1100 H1085 0.960 . S
C1100 H1086 0.960 . S
C1100 H1087 0.960 . S
C1100 C1099 1.524 . S
C1101 C1098 1.403 . S
C1101 C1102 1.392 . S
C1101 C1105 1.495 . S
C1102 C1101 1.392 . S
C1102 C1103 1.385 . S
C1102 C1104 1.478 . S
C1103 H1097 0.930 . S
C1103 C1099 1.400 . S
C1103 C1102 1.385 . S
C1104 C1102 1.478 . S
C1104 C1106 1.381 . S
C1104 C1110 1.383 . S
C1105 C1101 1.495 . S
C1105 H1111 0.959 . S
C1105 H1112 0.961 . S
C1105 H1113 0.960 . S
C1106 C1104 1.381 . S
C1106 C1107 1.394 . S
C1106 H1114 0.930 . S
C1107 C1106 1.394 . S
C1107 C1108 1.383 . S
C1107 H1115 0.929 . S
C1108 C1107 1.383 . S
C1108 C1109 1.377 . S
C1109 H1093 0.930 . S
C1109 C1108 1.377 . S
C1109 C1110 1.379 . S
C1110 H1094 0.931 . S
C1110 C1104 1.383 . S
C1110 C1109 1.379 . S
H1111 C1105 0.959 . S
H1112 C1105 0.961 . S
H1113 C1105 0.960 . S
H1114 C1106 0.930 . S
H1115 C1107 0.929 . S
H1116 C1124 0.929 . S
H1117 C1126 0.930 . S
H1118 C1128 0.930 . S
H1119 C1131 0.929 . S
H1120 C1134 0.930 . S
H1121 C1136 0.960 . S
H1122 C1136 0.960 . S
H1123 C1136 0.960 . S
C1124 H1116 0.929 . S
C1124 C1125 1.377 . S
C1124 C1126 1.384 . S
C1125 C1124 1.377 . S
C1125 C1131 1.390 . S
C1126 H1117 0.930 . S
C1126 C1124 1.384 . S
C1126 C1127 1.372 . S
C1127 C1126 1.372 . S
C1127 C1128 1.400 . S
C1127 C1132 1.490 . S
C1128 H1118 0.930 . S
C1128 C1127 1.400 . S
C1128 C1131 1.386 . S
H1129 C1145 0.930 . S
H1130 C1146 0.931 . S
C1131 H1119 0.929 . S
C1131 C1125 1.390 . S
C1131 C1128 1.386 . S
C1132 C1127 1.490 . S
C1132 C1134 1.395 . S
C1132 C1135 1.403 . S
H1133 C1139 0.930 . S
C1134 H1120 0.930 . S
C1134 C1132 1.395 . S
C1134 C1137 1.403 . S
C1135 C1132 1.403 . S
C1135 C1136 1.524 . S
C1135 C1139 1.400 . S
C1136 H1121 0.960 . S
C1136 H1122 0.960 . S
C1136 H1123 0.960 . S
C1136 C1135 1.524 . S
C1137 C1134 1.403 . S
C1137 C1138 1.392 . S
C1137 C1141 1.495 . S
C1138 C1137 1.392 . S
C1138 C1139 1.385 . S
C1138 C1140 1.478 . S
C1139 H1133 0.930 . S
C1139 C1135 1.400 . S
C1139 C1138 1.385 . S
C1140 C1138 1.478 . S
C1140 C1142 1.381 . S
C1140 C1146 1.383 . S
C1141 C1137 1.495 . S
C1141 H1147 0.959 . S
C1141 H1148 0.961 . S
C1141 H1149 0.960 . S
C1142 C1140 1.381 . S
C1142 C1143 1.394 . S
C1142 H1150 0.930 . S
C1143 C1142 1.394 . S
C1143 C1144 1.383 . S
C1143 H1151 0.929 . S
C1144 C1143 1.383 . S
C1144 C1145 1.377 . S
C1145 H1129 0.930 . S
C1145 C1144 1.377 . S
C1145 C1146 1.379 . S
C1146 H1130 0.931 . S
C1146 C1140 1.383 . S
C1146 C1145 1.379 . S
H1147 C1141 0.959 . S
H1148 C1141 0.961 . S
H1149 C1141 0.960 . S
H1150 C1142 0.930 . S
H1151 C1143 0.929 . S
H1152 C1160 0.929 . S
H1153 C1162 0.930 . S
H1154 C1164 0.930 . S
H1155 C1167 0.929 . S
H1156 C1170 0.930 . S
H1157 C1172 0.960 . S
H1158 C1172 0.960 . S
H1159 C1172 0.960 . S
C1160 H1152 0.929 . S
C1160 C1161 1.377 . S
C1160 C1162 1.384 . S
C1161 C1160 1.377 . S
C1161 C1167 1.390 . S
C1162 H1153 0.930 . S
C1162 C1160 1.384 . S
C1162 C1163 1.372 . S
C1163 C1162 1.372 . S
C1163 C1164 1.400 . S
C1163 C1168 1.490 . S
C1164 H1154 0.930 . S
C1164 C1163 1.400 . S
C1164 C1167 1.386 . S
H1165 C1181 0.930 . S
H1166 C1182 0.931 . S
C1167 H1155 0.929 . S
C1167 C1161 1.390 . S
C1167 C1164 1.386 . S
C1168 C1163 1.490 . S
C1168 C1170 1.395 . S
C1168 C1171 1.403 . S
H1169 C1175 0.930 . S
C1170 H1156 0.930 . S
C1170 C1168 1.395 . S
C1170 C1173 1.403 . S
C1171 C1168 1.403 . S
C1171 C1172 1.524 . S
C1171 C1175 1.400 . S
C1172 H1157 0.960 . S
C1172 H1158 0.960 . S
C1172 H1159 0.960 . S
C1172 C1171 1.524 . S
C1173 C1170 1.403 . S
C1173 C1174 1.392 . S
C1173 C1177 1.495 . S
C1174 C1173 1.392 . S
C1174 C1175 1.385 . S
C1174 C1176 1.478 . S
C1175 H1169 0.930 . S
C1175 C1171 1.400 . S
C1175 C1174 1.385 . S
C1176 C1174 1.478 . S
C1176 C1178 1.381 . S
C1176 C1182 1.383 . S
C1177 C1173 1.495 . S
C1177 H1183 0.959 . S
C1177 H1184 0.961 . S
C1177 H1185 0.960 . S
C1178 C1176 1.381 . S
C1178 C1179 1.394 . S
C1178 H1186 0.930 . S
C1179 C1178 1.394 . S
C1179 C1180 1.383 . S
C1179 H1187 0.929 . S
C1180 C1179 1.383 . S
C1180 C1181 1.377 . S
C1181 H1165 0.930 . S
C1181 C1180 1.377 . S
C1181 C1182 1.379 . S
C1182 H1166 0.931 . S
C1182 C1176 1.383 . S
C1182 C1181 1.379 . S
H1183 C1177 0.959 . S
H1184 C1177 0.961 . S
H1185 C1177 0.960 . S
H1186 C1178 0.930 . S
H1187 C1179 0.929 . S
H1188 C1196 0.929 . S
H1189 C1198 0.930 . S
H1190 C1200 0.930 . S
H1191 C1203 0.929 . S
H1192 C1206 0.930 . S
H1193 C1208 0.960 . S
H1194 C1208 0.960 . S
H1195 C1208 0.960 . S
C1196 H1188 0.929 . S
C1196 C1197 1.377 . S
C1196 C1198 1.384 . S
C1197 C1196 1.377 . S
C1197 C1203 1.390 . S
C1198 H1189 0.930 . S
C1198 C1196 1.384 . S
C1198 C1199 1.372 . S
C1199 C1198 1.372 . S
C1199 C1200 1.400 . S
C1199 C1204 1.490 . S
C1200 H1190 0.930 . S
C1200 C1199 1.400 . S
C1200 C1203 1.386 . S
H1201 C1217 0.930 . S
H1202 C1218 0.931 . S
C1203 H1191 0.929 . S
C1203 C1197 1.390 . S
C1203 C1200 1.386 . S
C1204 C1199 1.490 . S
C1204 C1206 1.395 . S
C1204 C1207 1.403 . S
H1205 C1211 0.930 . S
C1206 H1192 0.930 . S
C1206 C1204 1.395 . S
C1206 C1209 1.403 . S
C1207 C1204 1.403 . S
C1207 C1208 1.524 . S
C1207 C1211 1.400 . S
C1208 H1193 0.960 . S
C1208 H1194 0.960 . S
C1208 H1195 0.960 . S
C1208 C1207 1.524 . S
C1209 C1206 1.403 . S
C1209 C1210 1.392 . S
C1209 C1213 1.495 . S
C1210 C1209 1.392 . S
C1210 C1211 1.385 . S
C1210 C1212 1.478 . S
C1211 H1205 0.930 . S
C1211 C1207 1.400 . S
C1211 C1210 1.385 . S
C1212 C1210 1.478 . S
C1212 C1214 1.381 . S
C1212 C1218 1.383 . S
C1213 C1209 1.495 . S
C1213 H1219 0.959 . S
C1213 H1220 0.961 . S
C1213 H1221 0.960 . S
C1214 C1212 1.381 . S
C1214 C1215 1.394 . S
C1214 H1222 0.930 . S
C1215 C1214 1.394 . S
C1215 C1216 1.383 . S
C1215 H1223 0.929 . S
C1216 C1215 1.383 . S
C1216 C1217 1.377 . S
C1217 H1201 0.930 . S
C1217 C1216 1.377 . S
C1217 C1218 1.379 . S
C1218 H1202 0.931 . S
C1218 C1212 1.383 . S
C1218 C1217 1.379 . S
H1219 C1213 0.959 . S
H1220 C1213 0.961 . S
H1221 C1213 0.960 . S
H1222 C1214 0.930 . S
H1223 C1215 0.929 . S
H1224 C1232 0.929 . S
H1225 C1234 0.930 . S
H1226 C1236 0.930 . S
H1227 C1239 0.929 1_545 S
H1228 C1242 0.930 . S
H1229 C1244 0.960 . S
H1230 C1244 0.960 . S
H1231 C1244 0.960 . S
C1232 H1224 0.929 . S
C1232 C1233 1.377 . S
C1232 C1234 1.384 . S
C1233 C1232 1.377 . S
C1233 C1239 1.390 . S
C1234 H1225 0.930 . S
C1234 C1232 1.384 . S
C1234 C1235 1.372 . S
C1235 C1234 1.372 . S
C1235 C1236 1.400 . S
C1235 C1240 1.490 . S
C1236 H1226 0.930 . S
C1236 C1235 1.400 . S
C1236 C1239 1.386 . S
H1237 C1253 0.930 . S
H1238 C1254 0.931 . S
C1239 H1227 0.929 1_565 S
C1239 C1233 1.390 . S
C1239 C1236 1.386 . S
C1240 C1235 1.490 . S
C1240 C1242 1.395 . S
C1240 C1243 1.403 . S
H1241 C1247 0.930 . S
C1242 H1228 0.930 . S
C1242 C1240 1.395 . S
C1242 C1245 1.403 . S
C1243 C1240 1.403 . S
C1243 C1244 1.524 . S
C1243 C1247 1.400 . S
C1244 H1229 0.960 . S
C1244 H1230 0.960 . S
C1244 H1231 0.960 . S
C1244 C1243 1.524 . S
C1245 C1242 1.403 . S
C1245 C1246 1.392 . S
C1245 C1249 1.495 . S
C1246 C1245 1.392 . S
C1246 C1247 1.385 . S
C1246 C1248 1.478 . S
C1247 H1241 0.930 . S
C1247 C1243 1.400 . S
C1247 C1246 1.385 . S
C1248 C1246 1.478 . S
C1248 C1250 1.381 . S
C1248 C1254 1.383 . S
C1249 C1245 1.495 . S
C1249 H1255 0.959 . S
C1249 H1256 0.961 . S
C1249 H1257 0.960 . S
C1250 C1248 1.381 . S
C1250 C1251 1.394 . S
C1250 H1258 0.930 . S
C1251 C1250 1.394 . S
C1251 C1252 1.383 . S
C1251 H1259 0.929 . S
C1252 C1251 1.383 . S
C1252 C1253 1.377 . S
C1253 H1237 0.930 . S
C1253 C1252 1.377 . S
C1253 C1254 1.379 . S
C1254 H1238 0.931 . S
C1254 C1248 1.383 . S
C1254 C1253 1.379 . S
H1255 C1249 0.959 . S
H1256 C1249 0.961 . S
H1257 C1249 0.960 . S
H1258 C1250 0.930 . S
H1259 C1251 0.929 . S
H1260 C1268 0.929 . S
H1261 C1270 0.930 . S
H1262 C1272 0.930 . S
H1263 C1275 0.929 . S
H1264 C1278 0.930 . S
H1265 C1280 0.960 . S
H1266 C1280 0.960 . S
H1267 C1280 0.960 . S
C1268 H1260 0.929 . S
C1268 C1269 1.377 . S
C1268 C1270 1.384 . S
C1269 C1268 1.377 . S
C1269 C1275 1.390 . S
C1270 H1261 0.930 . S
C1270 C1268 1.384 . S
C1270 C1271 1.372 . S
C1271 C1270 1.372 . S
C1271 C1272 1.400 . S
C1271 C1276 1.490 . S
C1272 H1262 0.930 . S
C1272 C1271 1.400 . S
C1272 C1275 1.386 . S
H1273 C1289 0.930 . S
H1274 C1290 0.931 . S
C1275 H1263 0.929 . S
C1275 C1269 1.390 . S
C1275 C1272 1.386 . S
C1276 C1271 1.490 . S
C1276 C1278 1.395 . S
C1276 C1279 1.403 . S
H1277 C1283 0.930 . S
C1278 H1264 0.930 . S
C1278 C1276 1.395 . S
C1278 C1281 1.403 . S
C1279 C1276 1.403 . S
C1279 C1280 1.524 . S
C1279 C1283 1.400 . S
C1280 H1265 0.960 . S
C1280 H1266 0.960 . S
C1280 H1267 0.960 . S
C1280 C1279 1.524 . S
C1281 C1278 1.403 . S
C1281 C1282 1.392 . S
C1281 C1285 1.495 . S
C1282 C1281 1.392 . S
C1282 C1283 1.385 . S
C1282 C1284 1.478 . S
C1283 H1277 0.930 . S
C1283 C1279 1.400 . S
C1283 C1282 1.385 . S
C1284 C1282 1.478 . S
C1284 C1286 1.381 . S
C1284 C1290 1.383 . S
C1285 C1281 1.495 . S
C1285 H1291 0.959 1_565 S
C1285 H1292 0.961 1_565 S
C1285 H1293 0.960 . S
C1286 C1284 1.381 . S
C1286 C1287 1.394 . S
C1286 H1294 0.930 . S
C1287 C1286 1.394 . S
C1287 C1288 1.383 . S
C1287 H1295 0.929 . S
C1288 C1287 1.383 . S
C1288 C1289 1.377 . S
C1289 H1273 0.930 . S
C1289 C1288 1.377 . S
C1289 C1290 1.379 . S
C1290 H1274 0.931 . S
C1290 C1284 1.383 . S
C1290 C1289 1.379 . S
H1291 C1285 0.959 1_545 S
H1292 C1285 0.961 1_545 S
H1293 C1285 0.960 . S
H1294 C1286 0.930 . S
H1295 C1287 0.929 . S
H1296 C1304 0.929 . S
H1297 C1306 0.930 . S
H1298 C1308 0.930 . S
H1299 C1311 0.929 . S
H1300 C1314 0.930 . S
H1301 C1316 0.960 . S
H1302 C1316 0.960 . S
H1303 C1316 0.960 . S
C1304 H1296 0.929 . S
C1304 C1305 1.377 . S
C1304 C1306 1.384 . S
C1305 C1304 1.377 . S
C1305 C1311 1.390 . S
C1306 H1297 0.930 . S
C1306 C1304 1.384 . S
C1306 C1307 1.372 . S
C1307 C1306 1.372 . S
C1307 C1308 1.400 . S
C1307 C1312 1.490 . S
C1308 H1298 0.930 . S
C1308 C1307 1.400 . S
C1308 C1311 1.386 . S
H1309 C1325 0.930 . S
H1310 C1326 0.931 . S
C1311 H1299 0.929 . S
C1311 C1305 1.390 . S
C1311 C1308 1.386 . S
C1312 C1307 1.490 . S
C1312 C1314 1.395 . S
C1312 C1315 1.403 . S
H1313 C1319 0.930 . S
C1314 H1300 0.930 . S
C1314 C1312 1.395 . S
C1314 C1317 1.403 . S
C1315 C1312 1.403 . S
C1315 C1316 1.524 . S
C1315 C1319 1.400 . S
C1316 H1301 0.960 . S
C1316 H1302 0.960 . S
C1316 H1303 0.960 . S
C1316 C1315 1.524 . S
C1317 C1314 1.403 . S
C1317 C1318 1.392 . S
C1317 C1321 1.495 . S
C1318 C1317 1.392 . S
C1318 C1319 1.385 . S
C1318 C1320 1.478 . S
C1319 H1313 0.930 . S
C1319 C1315 1.400 . S
C1319 C1318 1.385 . S
C1320 C1318 1.478 . S
C1320 C1322 1.381 . S
C1320 C1326 1.383 . S
C1321 C1317 1.495 . S
C1321 H1327 0.959 . S
C1321 H1328 0.961 . S
C1321 H1329 0.960 . S
C1322 C1320 1.381 . S
C1322 C1323 1.394 . S
C1322 H1330 0.930 . S
C1323 C1322 1.394 . S
C1323 C1324 1.383 . S
C1323 H1331 0.929 . S
C1324 C1323 1.383 . S
C1324 C1325 1.377 . S
C1325 H1309 0.930 . S
C1325 C1324 1.377 . S
C1325 C1326 1.379 . S
C1326 H1310 0.931 . S
C1326 C1320 1.383 . S
C1326 C1325 1.379 . S
H1327 C1321 0.959 . S
H1328 C1321 0.961 . S
H1329 C1321 0.960 . S
H1330 C1322 0.930 . S
H1331 C1323 0.929 . S
H1332 C1340 0.929 1_455 S
H1333 C1342 0.930 . S
H1334 C1344 0.930 . S
H1335 C1347 0.929 . S
H1336 C1350 0.930 . S
H1337 C1352 0.960 . S
H1338 C1352 0.960 . S
H1339 C1352 0.960 . S
C1340 H1332 0.929 1_655 S
C1340 C1341 1.377 . S
C1340 C1342 1.384 . S
C1341 C1340 1.377 . S
C1341 C1347 1.390 . S
C1342 H1333 0.930 . S
C1342 C1340 1.384 . S
C1342 C1343 1.372 . S
C1343 C1342 1.372 . S
C1343 C1344 1.400 . S
C1343 C1348 1.490 . S
C1344 H1334 0.930 . S
C1344 C1343 1.400 . S
C1344 C1347 1.386 . S
H1345 C1361 0.930 . S
H1346 C1362 0.931 . S
C1347 H1335 0.929 . S
C1347 C1341 1.390 . S
C1347 C1344 1.386 . S
C1348 C1343 1.490 . S
C1348 C1350 1.395 . S
C1348 C1351 1.403 . S
H1349 C1355 0.930 . S
C1350 H1336 0.930 . S
C1350 C1348 1.395 . S
C1350 C1353 1.403 . S
C1351 C1348 1.403 . S
C1351 C1352 1.524 . S
C1351 C1355 1.400 . S
C1352 H1337 0.960 . S
C1352 H1338 0.960 . S
C1352 H1339 0.960 . S
C1352 C1351 1.524 . S
C1353 C1350 1.403 . S
C1353 C1354 1.392 . S
C1353 C1357 1.495 . S
C1354 C1353 1.392 . S
C1354 C1355 1.385 . S
C1354 C1356 1.478 . S
C1355 H1349 0.930 . S
C1355 C1351 1.400 . S
C1355 C1354 1.385 . S
C1356 C1354 1.478 . S
C1356 C1358 1.381 . S
C1356 C1362 1.383 . S
C1357 C1353 1.495 . S
C1357 H1363 0.959 . S
C1357 H1364 0.961 . S
C1357 H1365 0.960 . S
C1358 C1356 1.381 . S
C1358 C1359 1.394 . S
C1358 H1366 0.930 . S
C1359 C1358 1.394 . S
C1359 C1360 1.383 . S
C1359 H1367 0.929 . S
C1360 C1359 1.383 . S
C1360 C1361 1.377 . S
C1361 H1345 0.930 . S
C1361 C1360 1.377 . S
C1361 C1362 1.379 . S
C1362 H1346 0.931 . S
C1362 C1356 1.383 . S
C1362 C1361 1.379 . S
H1363 C1357 0.959 . S
H1364 C1357 0.961 . S
H1365 C1357 0.960 . S
H1366 C1358 0.930 . S
H1367 C1359 0.929 . S
H1368 C1376 0.929 . S
H1369 C1378 0.930 . S
H1370 C1380 0.930 . S
H1371 C1383 0.929 . S
H1372 C1386 0.930 . S
H1373 C1388 0.960 . S
H1374 C1388 0.960 . S
H1375 C1388 0.960 . S
C1376 H1368 0.929 . S
C1376 C1377 1.377 . S
C1376 C1378 1.384 . S
C1377 C1376 1.377 . S
C1377 C1383 1.390 . S
C1378 H1369 0.930 . S
C1378 C1376 1.384 . S
C1378 C1379 1.372 . S
C1379 C1378 1.372 . S
C1379 C1380 1.400 . S
C1379 C1384 1.490 . S
C1380 H1370 0.930 . S
C1380 C1379 1.400 . S
C1380 C1383 1.386 . S
H1381 C1397 0.930 . S
H1382 C1398 0.931 . S
C1383 H1371 0.929 . S
C1383 C1377 1.390 . S
C1383 C1380 1.386 . S
C1384 C1379 1.490 . S
C1384 C1386 1.395 . S
C1384 C1387 1.403 . S
H1385 C1391 0.930 . S
C1386 H1372 0.930 . S
C1386 C1384 1.395 . S
C1386 C1389 1.403 . S
C1387 C1384 1.403 . S
C1387 C1388 1.524 . S
C1387 C1391 1.400 . S
C1388 H1373 0.960 . S
C1388 H1374 0.960 . S
C1388 H1375 0.960 . S
C1388 C1387 1.524 . S
C1389 C1386 1.403 . S
C1389 C1390 1.392 . S
C1389 C1393 1.495 . S
C1390 C1389 1.392 . S
C1390 C1391 1.385 . S
C1390 C1392 1.478 . S
C1391 H1385 0.930 . S
C1391 C1387 1.400 . S
C1391 C1390 1.385 . S
C1392 C1390 1.478 . S
C1392 C1394 1.381 . S
C1392 C1398 1.383 . S
C1393 C1389 1.495 . S
C1393 H1399 0.959 . S
C1393 H1400 0.961 . S
C1393 H1401 0.960 . S
C1394 C1392 1.381 . S
C1394 C1395 1.394 . S
C1394 H1402 0.930 . S
C1395 C1394 1.394 . S
C1395 C1396 1.383 . S
C1395 H1403 0.929 . S
C1396 C1395 1.383 . S
C1396 C1397 1.377 . S
C1397 H1381 0.930 . S
C1397 C1396 1.377 . S
C1397 C1398 1.379 . S
C1398 H1382 0.931 . S
C1398 C1392 1.383 . S
C1398 C1397 1.379 . S
H1399 C1393 0.959 . S
H1400 C1393 0.961 . S
H1401 C1393 0.960 . S
H1402 C1394 0.930 . S
H1403 C1395 0.929 . S
H1404 C1412 0.929 . S
H1405 C1414 0.930 . S
H1406 C1416 0.930 . S
H1407 C1419 0.929 1_455 S
H1408 C1422 0.930 . S
H1409 C1424 0.960 . S
H1410 C1424 0.960 . S
H1411 C1424 0.960 . S
C1412 H1404 0.929 . S
C1412 C1413 1.377 . S
C1412 C1414 1.384 . S
C1413 C1412 1.377 . S
C1413 C1419 1.390 . S
C1414 H1405 0.930 . S
C1414 C1412 1.384 . S
C1414 C1415 1.372 . S
C1415 C1414 1.372 . S
C1415 C1416 1.400 . S
C1415 C1420 1.490 . S
C1416 H1406 0.930 . S
C1416 C1415 1.400 . S
C1416 C1419 1.386 . S
H1417 C1433 0.930 . S
H1418 C1434 0.931 . S
C1419 H1407 0.929 1_655 S
C1419 C1413 1.390 . S
C1419 C1416 1.386 . S
C1420 C1415 1.490 . S
C1420 C1422 1.395 . S
C1420 C1423 1.403 . S
H1421 C1427 0.930 . S
C1422 H1408 0.930 . S
C1422 C1420 1.395 . S
C1422 C1425 1.403 . S
C1423 C1420 1.403 . S
C1423 C1424 1.524 . S
C1423 C1427 1.400 . S
C1424 H1409 0.960 . S
C1424 H1410 0.960 . S
C1424 H1411 0.960 . S
C1424 C1423 1.524 . S
C1425 C1422 1.403 . S
C1425 C1426 1.392 . S
C1425 C1429 1.495 . S
C1426 C1425 1.392 . S
C1426 C1427 1.385 . S
C1426 C1428 1.478 . S
C1427 H1421 0.930 . S
C1427 C1423 1.400 . S
C1427 C1426 1.385 . S
C1428 C1426 1.478 . S
C1428 C1430 1.381 . S
C1428 C1434 1.383 . S
C1429 C1425 1.495 . S
C1429 H1435 0.959 . S
C1429 H1436 0.961 . S
C1429 H1437 0.960 . S
C1430 C1428 1.381 . S
C1430 C1431 1.394 . S
C1430 H1438 0.930 . S
C1431 C1430 1.394 . S
C1431 C1432 1.383 . S
C1431 H1439 0.929 . S
C1432 C1431 1.383 . S
C1432 C1433 1.377 . S
C1433 H1417 0.930 . S
C1433 C1432 1.377 . S
C1433 C1434 1.379 . S
C1434 H1418 0.931 . S
C1434 C1428 1.383 . S
C1434 C1433 1.379 . S
H1435 C1429 0.959 . S
H1436 C1429 0.961 . S
H1437 C1429 0.960 . S
H1438 C1430 0.930 . S
H1439 C1431 0.929 . S
H1440 C1448 0.929 . S
H1441 C1450 0.930 . S
H1442 C1452 0.930 . S
H1443 C1455 0.929 . S
H1444 C1458 0.930 . S
H1445 C1460 0.960 . S
H1446 C1460 0.960 . S
H1447 C1460 0.960 . S
C1448 H1440 0.929 . S
C1448 C1449 1.377 . S
C1448 C1450 1.384 . S
C1449 C1448 1.377 . S
C1449 C1455 1.390 . S
C1450 H1441 0.930 . S
C1450 C1448 1.384 . S
C1450 C1451 1.372 . S
C1451 C1450 1.372 . S
C1451 C1452 1.400 . S
C1451 C1456 1.490 . S
C1452 H1442 0.930 . S
C1452 C1451 1.400 . S
C1452 C1455 1.386 . S
H1453 C1469 0.930 . S
H1454 C1470 0.931 . S
C1455 H1443 0.929 . S
C1455 C1449 1.390 . S
C1455 C1452 1.386 . S
C1456 C1451 1.490 . S
C1456 C1458 1.395 . S
C1456 C1459 1.403 . S
H1457 C1463 0.930 . S
C1458 H1444 0.930 . S
C1458 C1456 1.395 . S
C1458 C1461 1.403 . S
C1459 C1456 1.403 . S
C1459 C1460 1.524 . S
C1459 C1463 1.400 . S
C1460 H1445 0.960 . S
C1460 H1446 0.960 . S
C1460 H1447 0.960 . S
C1460 C1459 1.524 . S
C1461 C1458 1.403 . S
C1461 C1462 1.392 . S
C1461 C1465 1.495 . S
C1462 C1461 1.392 . S
C1462 C1463 1.385 . S
C1462 C1464 1.478 . S
C1463 H1457 0.930 . S
C1463 C1459 1.400 . S
C1463 C1462 1.385 . S
C1464 C1462 1.478 . S
C1464 C1466 1.381 . S
C1464 C1470 1.383 . S
C1465 C1461 1.495 . S
C1465 H1471 0.959 . S
C1465 H1472 0.961 . S
C1465 H1473 0.960 . S
C1466 C1464 1.381 . S
C1466 C1467 1.394 . S
C1466 H1474 0.930 . S
C1467 C1466 1.394 . S
C1467 C1468 1.383 . S
C1467 H1475 0.929 . S
C1468 C1467 1.383 . S
C1468 C1469 1.377 . S
C1469 H1453 0.930 . S
C1469 C1468 1.377 . S
C1469 C1470 1.379 . S
C1470 H1454 0.931 . S
C1470 C1464 1.383 . S
C1470 C1469 1.379 . S
H1471 C1465 0.959 . S
H1472 C1465 0.961 . S
H1473 C1465 0.960 . S
H1474 C1466 0.930 . S
H1475 C1467 0.929 . S
H1476 C1484 0.929 . S
H1477 C1486 0.930 . S
H1478 C1488 0.930 . S
H1479 C1491 0.929 . S
H1480 C1494 0.930 . S
H1481 C1496 0.960 . S
H1482 C1496 0.960 . S
H1483 C1496 0.960 . S
C1484 H1476 0.929 . S
C1484 C1485 1.377 . S
C1484 C1486 1.384 . S
C1485 C1484 1.377 . S
C1485 C1491 1.390 . S
C1486 H1477 0.930 . S
C1486 C1484 1.384 . S
C1486 C1487 1.372 . S
C1487 C1486 1.372 . S
C1487 C1488 1.400 . S
C1487 C1492 1.490 . S
C1488 H1478 0.930 . S
C1488 C1487 1.400 . S
C1488 C1491 1.386 . S
H1489 C1505 0.930 . S
H1490 C1506 0.931 . S
C1491 H1479 0.929 . S
C1491 C1485 1.390 . S
C1491 C1488 1.386 . S
C1492 C1487 1.490 . S
C1492 C1494 1.395 . S
C1492 C1495 1.403 . S
H1493 C1499 0.930 . S
C1494 H1480 0.930 . S
C1494 C1492 1.395 . S
C1494 C1497 1.403 . S
C1495 C1492 1.403 . S
C1495 C1496 1.524 . S
C1495 C1499 1.400 . S
C1496 H1481 0.960 . S
C1496 H1482 0.960 . S
C1496 H1483 0.960 . S
C1496 C1495 1.524 . S
C1497 C1494 1.403 . S
C1497 C1498 1.392 . S
C1497 C1501 1.495 . S
C1498 C1497 1.392 . S
C1498 C1499 1.385 . S
C1498 C1500 1.478 . S
C1499 H1493 0.930 . S
C1499 C1495 1.400 . S
C1499 C1498 1.385 . S
C1500 C1498 1.478 . S
C1500 C1502 1.381 . S
C1500 C1506 1.383 . S
C1501 C1497 1.495 . S
C1501 H1507 0.959 . S
C1501 H1508 0.961 . S
C1501 H1509 0.960 . S
C1502 C1500 1.381 . S
C1502 C1503 1.394 . S
C1502 H1510 0.930 . S
C1503 C1502 1.394 . S
C1503 C1504 1.383 . S
C1503 H1511 0.929 . S
C1504 C1503 1.383 . S
C1504 C1505 1.377 . S
C1505 H1489 0.930 . S
C1505 C1504 1.377 . S
C1505 C1506 1.379 . S
C1506 H1490 0.931 . S
C1506 C1500 1.383 . S
C1506 C1505 1.379 . S
H1507 C1501 0.959 . S
H1508 C1501 0.961 . S
H1509 C1501 0.960 . S
H1510 C1502 0.930 . S
H1511 C1503 0.929 . S
H1512 C1520 0.929 . S
H1513 C1522 0.930 . S
H1514 C1524 0.930 . S
H1515 C1527 0.929 . S
H1516 C1530 0.930 . S
H1517 C1532 0.960 . S
H1518 C1532 0.960 . S
H1519 C1532 0.960 . S
C1520 H1512 0.929 . S
C1520 C1521 1.377 . S
C1520 C1522 1.384 . S
C1521 C1520 1.377 . S
C1521 C1527 1.390 . S
C1522 H1513 0.930 . S
C1522 C1520 1.384 . S
C1522 C1523 1.372 . S
C1523 C1522 1.372 . S
C1523 C1524 1.400 . S
C1523 C1528 1.490 . S
C1524 H1514 0.930 . S
C1524 C1523 1.400 . S
C1524 C1527 1.386 . S
H1525 C1541 0.930 . S
H1526 C1542 0.931 . S
C1527 H1515 0.929 . S
C1527 C1521 1.390 . S
C1527 C1524 1.386 . S
C1528 C1523 1.490 . S
C1528 C1530 1.395 . S
C1528 C1531 1.403 . S
H1529 C1535 0.930 . S
C1530 H1516 0.930 . S
C1530 C1528 1.395 . S
C1530 C1533 1.403 . S
C1531 C1528 1.403 . S
C1531 C1532 1.524 . S
C1531 C1535 1.400 . S
C1532 H1517 0.960 . S
C1532 H1518 0.960 . S
C1532 H1519 0.960 . S
C1532 C1531 1.524 . S
C1533 C1530 1.403 . S
C1533 C1534 1.392 . S
C1533 C1537 1.495 . S
C1534 C1533 1.392 . S
C1534 C1535 1.385 . S
C1534 C1536 1.478 . S
C1535 H1529 0.930 . S
C1535 C1531 1.400 . S
C1535 C1534 1.385 . S
C1536 C1534 1.478 . S
C1536 C1538 1.381 . S
C1536 C1542 1.383 . S
C1537 C1533 1.495 . S
C1537 H1543 0.959 . S
C1537 H1544 0.961 . S
C1537 H1545 0.960 . S
C1538 C1536 1.381 . S
C1538 C1539 1.394 . S
C1538 H1546 0.930 . S
C1539 C1538 1.394 . S
C1539 C1540 1.383 . S
C1539 H1547 0.929 . S
C1540 C1539 1.383 . S
C1540 C1541 1.377 . S
C1541 H1525 0.930 . S
C1541 C1540 1.377 . S
C1541 C1542 1.379 . S
C1542 H1526 0.931 . S
C1542 C1536 1.383 . S
C1542 C1541 1.379 . S
H1543 C1537 0.959 . S
H1544 C1537 0.961 . S
H1545 C1537 0.960 . S
H1546 C1538 0.930 . S
H1547 C1539 0.929 . S
H1548 C1556 0.929 . S
H1549 C1558 0.930 . S
H1550 C1560 0.930 . S
H1551 C1563 0.929 . S
H1552 C1566 0.930 . S
H1553 C1568 0.960 . S
H1554 C1568 0.960 . S
H1555 C1568 0.960 . S
C1556 H1548 0.929 . S
C1556 C1557 1.377 . S
C1556 C1558 1.384 . S
C1557 C1556 1.377 . S
C1557 C1563 1.390 . S
C1558 H1549 0.930 . S
C1558 C1556 1.384 . S
C1558 C1559 1.372 . S
C1559 C1558 1.372 . S
C1559 C1560 1.400 . S
C1559 C1564 1.490 . S
C1560 H1550 0.930 . S
C1560 C1559 1.400 . S
C1560 C1563 1.386 . S
H1561 C1577 0.930 . S
H1562 C1578 0.931 . S
C1563 H1551 0.929 . S
C1563 C1557 1.390 . S
C1563 C1560 1.386 . S
C1564 C1559 1.490 . S
C1564 C1566 1.395 . S
C1564 C1567 1.403 . S
H1565 C1571 0.930 . S
C1566 H1552 0.930 . S
C1566 C1564 1.395 . S
C1566 C1569 1.403 . S
C1567 C1564 1.403 . S
C1567 C1568 1.524 . S
C1567 C1571 1.400 . S
C1568 H1553 0.960 . S
C1568 H1554 0.960 . S
C1568 H1555 0.960 . S
C1568 C1567 1.524 . S
C1569 C1566 1.403 . S
C1569 C1570 1.392 . S
C1569 C1573 1.495 . S
C1570 C1569 1.392 . S
C1570 C1571 1.385 . S
C1570 C1572 1.478 . S
C1571 H1565 0.930 . S
C1571 C1567 1.400 . S
C1571 C1570 1.385 . S
C1572 C1570 1.478 . S
C1572 C1574 1.381 . S
C1572 C1578 1.383 . S
C1573 C1569 1.495 . S
C1573 H1579 0.959 . S
C1573 H1580 0.961 . S
C1573 H1581 0.960 . S
C1574 C1572 1.381 . S
C1574 C1575 1.394 . S
C1574 H1582 0.930 . S
C1575 C1574 1.394 . S
C1575 C1576 1.383 . S
C1575 H1583 0.929 . S
C1576 C1575 1.383 . S
C1576 C1577 1.377 . S
C1577 H1561 0.930 . S
C1577 C1576 1.377 . S
C1577 C1578 1.379 . S
C1578 H1562 0.931 . S
C1578 C1572 1.383 . S
C1578 C1577 1.379 . S
H1579 C1573 0.959 . S
H1580 C1573 0.961 . S
H1581 C1573 0.960 . S
H1582 C1574 0.930 . S
H1583 C1575 0.929 . S
H1584 C1592 0.929 . S
H1585 C1594 0.930 . S
H1586 C1596 0.930 . S
H1587 C1599 0.929 . S
H1588 C1602 0.930 . S
H1589 C1604 0.960 . S
H1590 C1604 0.960 . S
H1591 C1604 0.960 . S
C1592 H1584 0.929 . S
C1592 C1593 1.377 . S
C1592 C1594 1.384 . S
C1593 C1592 1.377 . S
C1593 C1599 1.390 . S
C1594 H1585 0.930 . S
C1594 C1592 1.384 . S
C1594 C1595 1.372 . S
C1595 C1594 1.372 . S
C1595 C1596 1.400 . S
C1595 C1600 1.490 . S
C1596 H1586 0.930 . S
C1596 C1595 1.400 . S
C1596 C1599 1.386 . S
H1597 C1613 0.930 . S
H1598 C1614 0.931 . S
C1599 H1587 0.929 . S
C1599 C1593 1.390 . S
C1599 C1596 1.386 . S
C1600 C1595 1.490 . S
C1600 C1602 1.395 . S
C1600 C1603 1.403 . S
H1601 C1607 0.930 . S
C1602 H1588 0.930 . S
C1602 C1600 1.395 . S
C1602 C1605 1.403 . S
C1603 C1600 1.403 . S
C1603 C1604 1.524 . S
C1603 C1607 1.400 . S
C1604 H1589 0.960 . S
C1604 H1590 0.960 . S
C1604 H1591 0.960 . S
C1604 C1603 1.524 . S
C1605 C1602 1.403 . S
C1605 C1606 1.392 . S
C1605 C1609 1.495 . S
C1606 C1605 1.392 . S
C1606 C1607 1.385 . S
C1606 C1608 1.478 . S
C1607 H1601 0.930 . S
C1607 C1603 1.400 . S
C1607 C1606 1.385 . S
C1608 C1606 1.478 . S
C1608 C1610 1.381 . S
C1608 C1614 1.383 . S
C1609 C1605 1.495 . S
C1609 H1615 0.959 . S
C1609 H1616 0.961 . S
C1609 H1617 0.960 . S
C1610 C1608 1.381 . S
C1610 C1611 1.394 . S
C1610 H1618 0.930 . S
C1611 C1610 1.394 . S
C1611 C1612 1.383 . S
C1611 H1619 0.929 . S
C1612 C1611 1.383 . S
C1612 C1613 1.377 . S
C1613 H1597 0.930 . S
C1613 C1612 1.377 . S
C1613 C1614 1.379 . S
C1614 H1598 0.931 . S
C1614 C1608 1.383 . S
C1614 C1613 1.379 . S
H1615 C1609 0.959 . S
H1616 C1609 0.961 . S
H1617 C1609 0.960 . S
H1618 C1610 0.930 . S
H1619 C1611 0.929 . S
H1620 C1628 0.929 . S
H1621 C1630 0.930 . S
H1622 C1632 0.930 . S
H1623 C1635 0.929 . S
H1624 C1638 0.930 . S
H1625 C1640 0.960 . S
H1626 C1640 0.960 . S
H1627 C1640 0.960 . S
C1628 H1620 0.929 . S
C1628 C1629 1.377 . S
C1628 C1630 1.384 . S
C1629 C1628 1.377 . S
C1629 C1635 1.390 . S
C1630 H1621 0.930 . S
C1630 C1628 1.384 . S
C1630 C1631 1.372 . S
C1631 C1630 1.372 . S
C1631 C1632 1.400 . S
C1631 C1636 1.490 . S
C1632 H1622 0.930 . S
C1632 C1631 1.400 . S
C1632 C1635 1.386 . S
H1633 C1649 0.930 . S
H1634 C1650 0.931 . S
C1635 H1623 0.929 . S
C1635 C1629 1.390 . S
C1635 C1632 1.386 . S
C1636 C1631 1.490 . S
C1636 C1638 1.395 . S
C1636 C1639 1.403 . S
H1637 C1643 0.930 . S
C1638 H1624 0.930 . S
C1638 C1636 1.395 . S
C1638 C1641 1.403 . S
C1639 C1636 1.403 . S
C1639 C1640 1.524 . S
C1639 C1643 1.400 . S
C1640 H1625 0.960 . S
C1640 H1626 0.960 . S
C1640 H1627 0.960 . S
C1640 C1639 1.524 . S
C1641 C1638 1.403 . S
C1641 C1642 1.392 . S
C1641 C1645 1.495 . S
C1642 C1641 1.392 . S
C1642 C1643 1.385 . S
C1642 C1644 1.478 . S
C1643 H1637 0.930 . S
C1643 C1639 1.400 . S
C1643 C1642 1.385 . S
C1644 C1642 1.478 . S
C1644 C1646 1.381 . S
C1644 C1650 1.383 . S
C1645 C1641 1.495 . S
C1645 H1651 0.959 . S
C1645 H1652 0.961 . S
C1645 H1653 0.960 . S
C1646 C1644 1.381 . S
C1646 C1647 1.394 . S
C1646 H1654 0.930 . S
C1647 C1646 1.394 . S
C1647 C1648 1.383 . S
C1647 H1655 0.929 . S
C1648 C1647 1.383 . S
C1648 C1649 1.377 . S
C1649 H1633 0.930 . S
C1649 C1648 1.377 . S
C1649 C1650 1.379 . S
C1650 H1634 0.931 . S
C1650 C1644 1.383 . S
C1650 C1649 1.379 . S
H1651 C1645 0.959 . S
H1652 C1645 0.961 . S
H1653 C1645 0.960 . S
H1654 C1646 0.930 . S
H1655 C1647 0.929 . S
H1656 C1664 0.929 . S
H1657 C1666 0.930 . S
H1658 C1668 0.930 . S
H1659 C1671 0.929 . S
H1660 C1674 0.930 . S
H1661 C1676 0.960 . S
H1662 C1676 0.960 . S
H1663 C1676 0.960 . S
C1664 H1656 0.929 . S
C1664 C1665 1.377 . S
C1664 C1666 1.384 . S
C1665 C1664 1.377 . S
C1665 C1671 1.390 . S
C1666 H1657 0.930 . S
C1666 C1664 1.384 . S
C1666 C1667 1.372 . S
C1667 C1666 1.372 . S
C1667 C1668 1.400 . S
C1667 C1672 1.490 . S
C1668 H1658 0.930 . S
C1668 C1667 1.400 . S
C1668 C1671 1.386 . S
H1669 C1685 0.930 . S
H1670 C1686 0.931 . S
C1671 H1659 0.929 . S
C1671 C1665 1.390 . S
C1671 C1668 1.386 . S
C1672 C1667 1.490 . S
C1672 C1674 1.395 . S
C1672 C1675 1.403 . S
H1673 C1679 0.930 . S
C1674 H1660 0.930 . S
C1674 C1672 1.395 . S
C1674 C1677 1.403 . S
C1675 C1672 1.403 . S
C1675 C1676 1.524 . S
C1675 C1679 1.400 . S
C1676 H1661 0.960 . S
C1676 H1662 0.960 . S
C1676 H1663 0.960 . S
C1676 C1675 1.524 . S
C1677 C1674 1.403 . S
C1677 C1678 1.392 . S
C1677 C1681 1.495 . S
C1678 C1677 1.392 . S
C1678 C1679 1.385 . S
C1678 C1680 1.478 . S
C1679 H1673 0.930 . S
C1679 C1675 1.400 . S
C1679 C1678 1.385 . S
C1680 C1678 1.478 . S
C1680 C1682 1.381 . S
C1680 C1686 1.383 . S
C1681 C1677 1.495 . S
C1681 H1687 0.959 . S
C1681 H1688 0.961 . S
C1681 H1689 0.960 . S
C1682 C1680 1.381 . S
C1682 C1683 1.394 . S
C1682 H1690 0.930 . S
C1683 C1682 1.394 . S
C1683 C1684 1.383 . S
C1683 H1691 0.929 . S
C1684 C1683 1.383 . S
C1684 C1685 1.377 . S
C1685 H1669 0.930 . S
C1685 C1684 1.377 . S
C1685 C1686 1.379 . S
C1686 H1670 0.931 . S
C1686 C1680 1.383 . S
C1686 C1685 1.379 . S
H1687 C1681 0.959 . S
H1688 C1681 0.961 . S
H1689 C1681 0.960 . S
H1690 C1682 0.930 . S
H1691 C1683 0.929 . S
H1692 C1700 0.929 . S
H1693 C1702 0.930 . S
H1694 C1704 0.930 . S
H1695 C1707 0.929 . S
H1696 C1710 0.930 . S
H1697 C1712 0.960 . S
H1698 C1712 0.960 . S
H1699 C1712 0.960 . S
C1700 H1692 0.929 . S
C1700 C1701 1.377 . S
C1700 C1702 1.384 . S
C1701 C1700 1.377 . S
C1701 C1707 1.390 . S
C1702 H1693 0.930 . S
C1702 C1700 1.384 . S
C1702 C1703 1.372 . S
C1703 C1702 1.372 . S
C1703 C1704 1.400 . S
C1703 C1708 1.490 . S
C1704 H1694 0.930 . S
C1704 C1703 1.400 . S
C1704 C1707 1.386 . S
H1705 C1721 0.930 . S
H1706 C1722 0.931 . S
C1707 H1695 0.929 . S
C1707 C1701 1.390 . S
C1707 C1704 1.386 . S
C1708 C1703 1.490 . S
C1708 C1710 1.395 . S
C1708 C1711 1.403 . S
H1709 C1715 0.930 . S
C1710 H1696 0.930 . S
C1710 C1708 1.395 . S
C1710 C1713 1.403 . S
C1711 C1708 1.403 . S
C1711 C1712 1.524 . S
C1711 C1715 1.400 . S
C1712 H1697 0.960 . S
C1712 H1698 0.960 . S
C1712 H1699 0.960 . S
C1712 C1711 1.524 . S
C1713 C1710 1.403 . S
C1713 C1714 1.392 . S
C1713 C1717 1.495 . S
C1714 C1713 1.392 . S
C1714 C1715 1.385 . S
C1714 C1716 1.478 . S
C1715 H1709 0.930 . S
C1715 C1711 1.400 . S
C1715 C1714 1.385 . S
C1716 C1714 1.478 . S
C1716 C1718 1.381 . S
C1716 C1722 1.383 . S
C1717 C1713 1.495 . S
C1717 H1723 0.959 . S
C1717 H1724 0.961 . S
C1717 H1725 0.960 . S
C1718 C1716 1.381 . S
C1718 C1719 1.394 . S
C1718 H1726 0.930 . S
C1719 C1718 1.394 . S
C1719 C1720 1.383 . S
C1719 H1727 0.929 . S
C1720 C1719 1.383 . S
C1720 C1721 1.377 . S
C1721 H1705 0.930 . S
C1721 C1720 1.377 . S
C1721 C1722 1.379 . S
C1722 H1706 0.931 . S
C1722 C1716 1.383 . S
C1722 C1721 1.379 . S
H1723 C1717 0.959 . S
H1724 C1717 0.961 . S
H1725 C1717 0.960 . S
H1726 C1718 0.930 . S
H1727 C1719 0.929 . S
H1728 C1736 0.929 . S
H1729 C1738 0.930 . S
H1730 C1740 0.930 . S
H1731 C1743 0.929 . S
H1732 C1746 0.930 . S
H1733 C1748 0.960 . S
H1734 C1748 0.960 . S
H1735 C1748 0.960 . S
C1736 H1728 0.929 . S
C1736 C1737 1.377 . S
C1736 C1738 1.384 . S
C1737 C1736 1.377 . S
C1737 C1743 1.390 . S
C1738 H1729 0.930 . S
C1738 C1736 1.384 . S
C1738 C1739 1.372 . S
C1739 C1738 1.372 . S
C1739 C1740 1.400 . S
C1739 C1744 1.490 . S
C1740 H1730 0.930 . S
C1740 C1739 1.400 . S
C1740 C1743 1.386 . S
H1741 C1757 0.930 . S
H1742 C1758 0.931 . S
C1743 H1731 0.929 . S
C1743 C1737 1.390 . S
C1743 C1740 1.386 . S
C1744 C1739 1.490 . S
C1744 C1746 1.395 . S
C1744 C1747 1.403 . S
H1745 C1751 0.930 . S
C1746 H1732 0.930 . S
C1746 C1744 1.395 . S
C1746 C1749 1.403 . S
C1747 C1744 1.403 . S
C1747 C1748 1.524 . S
C1747 C1751 1.400 . S
C1748 H1733 0.960 . S
C1748 H1734 0.960 . S
C1748 H1735 0.960 . S
C1748 C1747 1.524 . S
C1749 C1746 1.403 . S
C1749 C1750 1.392 . S
C1749 C1753 1.495 . S
C1750 C1749 1.392 . S
C1750 C1751 1.385 . S
C1750 C1752 1.478 . S
C1751 H1745 0.930 . S
C1751 C1747 1.400 . S
C1751 C1750 1.385 . S
C1752 C1750 1.478 . S
C1752 C1754 1.381 . S
C1752 C1758 1.383 . S
C1753 C1749 1.495 . S
C1753 H1759 0.959 . S
C1753 H1760 0.961 . S
C1753 H1761 0.960 . S
C1754 C1752 1.381 . S
C1754 C1755 1.394 . S
C1754 H1762 0.930 . S
C1755 C1754 1.394 . S
C1755 C1756 1.383 . S
C1755 H1763 0.929 . S
C1756 C1755 1.383 . S
C1756 C1757 1.377 . S
C1757 H1741 0.930 . S
C1757 C1756 1.377 . S
C1757 C1758 1.379 . S
C1758 H1742 0.931 . S
C1758 C1752 1.383 . S
C1758 C1757 1.379 . S
H1759 C1753 0.959 . S
H1760 C1753 0.961 . S
H1761 C1753 0.960 . S
H1762 C1754 0.930 . S
H1763 C1755 0.929 . S
H1764 C1772 0.929 . S
H1765 C1774 0.930 . S
H1766 C1776 0.930 . S
H1767 C1779 0.929 . S
H1768 C1782 0.930 . S
H1769 C1784 0.960 . S
H1770 C1784 0.960 . S
H1771 C1784 0.960 . S
C1772 H1764 0.929 . S
C1772 C1773 1.377 . S
C1772 C1774 1.384 . S
C1773 C1772 1.377 . S
C1773 C1779 1.390 . S
C1774 H1765 0.930 . S
C1774 C1772 1.384 . S
C1774 C1775 1.372 . S
C1775 C1774 1.372 . S
C1775 C1776 1.400 . S
C1775 C1780 1.490 . S
C1776 H1766 0.930 . S
C1776 C1775 1.400 . S
C1776 C1779 1.386 . S
H1777 C1793 0.930 . S
H1778 C1794 0.931 . S
C1779 H1767 0.929 . S
C1779 C1773 1.390 . S
C1779 C1776 1.386 . S
C1780 C1775 1.490 . S
C1780 C1782 1.395 . S
C1780 C1783 1.403 . S
H1781 C1787 0.930 . S
C1782 H1768 0.930 . S
C1782 C1780 1.395 . S
C1782 C1785 1.403 . S
C1783 C1780 1.403 . S
C1783 C1784 1.524 . S
C1783 C1787 1.400 . S
C1784 H1769 0.960 . S
C1784 H1770 0.960 . S
C1784 H1771 0.960 . S
C1784 C1783 1.524 . S
C1785 C1782 1.403 . S
C1785 C1786 1.392 . S
C1785 C1789 1.495 . S
C1786 C1785 1.392 . S
C1786 C1787 1.385 . S
C1786 C1788 1.478 . S
C1787 H1781 0.930 . S
C1787 C1783 1.400 . S
C1787 C1786 1.385 . S
C1788 C1786 1.478 . S
C1788 C1790 1.381 . S
C1788 C1794 1.383 . S
C1789 C1785 1.495 . S
C1789 H1795 0.959 . S
C1789 H1796 0.961 . S
C1789 H1797 0.960 . S
C1790 C1788 1.381 . S
C1790 C1791 1.394 . S
C1790 H1798 0.930 . S
C1791 C1790 1.394 . S
C1791 C1792 1.383 . S
C1791 H1799 0.929 . S
C1792 C1791 1.383 . S
C1792 C1793 1.377 . S
C1793 H1777 0.930 . S
C1793 C1792 1.377 . S
C1793 C1794 1.379 . S
C1794 H1778 0.931 . S
C1794 C1788 1.383 . S
C1794 C1793 1.379 . S
H1795 C1789 0.959 . S
H1796 C1789 0.961 . S
H1797 C1789 0.960 . S
H1798 C1790 0.930 . S
H1799 C1791 0.929 . S
H1800 C1808 0.929 . S
H1801 C1810 0.930 . S
H1802 C1812 0.930 . S
H1803 C1815 0.929 . S
H1804 C1818 0.930 . S
H1805 C1820 0.960 . S
H1806 C1820 0.960 . S
H1807 C1820 0.960 . S
C1808 H1800 0.929 . S
C1808 C1809 1.377 . S
C1808 C1810 1.384 . S
C1809 C1808 1.377 . S
C1809 C1815 1.390 . S
C1810 H1801 0.930 . S
C1810 C1808 1.384 . S
C1810 C1811 1.372 . S
C1811 C1810 1.372 . S
C1811 C1812 1.400 . S
C1811 C1816 1.490 . S
C1812 H1802 0.930 . S
C1812 C1811 1.400 . S
C1812 C1815 1.386 . S
H1813 C1829 0.930 . S
H1814 C1830 0.931 . S
C1815 H1803 0.929 . S
C1815 C1809 1.390 . S
C1815 C1812 1.386 . S
C1816 C1811 1.490 . S
C1816 C1818 1.395 . S
C1816 C1819 1.403 . S
H1817 C1823 0.930 . S
C1818 H1804 0.930 . S
C1818 C1816 1.395 . S
C1818 C1821 1.403 . S
C1819 C1816 1.403 . S
C1819 C1820 1.524 . S
C1819 C1823 1.400 . S
C1820 H1805 0.960 . S
C1820 H1806 0.960 . S
C1820 H1807 0.960 . S
C1820 C1819 1.524 . S
C1821 C1818 1.403 . S
C1821 C1822 1.392 . S
C1821 C1825 1.495 . S
C1822 C1821 1.392 . S
C1822 C1823 1.385 . S
C1822 C1824 1.478 . S
C1823 H1817 0.930 . S
C1823 C1819 1.400 . S
C1823 C1822 1.385 . S
C1824 C1822 1.478 . S
C1824 C1826 1.381 . S
C1824 C1830 1.383 . S
C1825 C1821 1.495 . S
C1825 H1831 0.959 . S
C1825 H1832 0.961 . S
C1825 H1833 0.960 . S
C1826 C1824 1.381 . S
C1826 C1827 1.394 . S
C1826 H1834 0.930 . S
C1827 C1826 1.394 . S
C1827 C1828 1.383 . S
C1827 H1835 0.929 . S
C1828 C1827 1.383 . S
C1828 C1829 1.377 . S
C1829 H1813 0.930 . S
C1829 C1828 1.377 . S
C1829 C1830 1.379 . S
C1830 H1814 0.931 . S
C1830 C1824 1.383 . S
C1830 C1829 1.379 . S
H1831 C1825 0.959 . S
H1832 C1825 0.961 . S
H1833 C1825 0.960 . S
H1834 C1826 0.930 . S
H1835 C1827 0.929 . S
H1836 C1844 0.929 . S
H1837 C1846 0.930 . S
H1838 C1848 0.930 . S
H1839 C1851 0.929 . S
H1840 C1854 0.930 . S
H1841 C1856 0.960 . S
H1842 C1856 0.960 . S
H1843 C1856 0.960 . S
C1844 H1836 0.929 . S
C1844 C1845 1.377 . S
C1844 C1846 1.384 . S
C1845 C1844 1.377 . S
C1845 C1851 1.390 . S
C1846 H1837 0.930 . S
C1846 C1844 1.384 . S
C1846 C1847 1.372 . S
C1847 C1846 1.372 . S
C1847 C1848 1.400 . S
C1847 C1852 1.490 . S
C1848 H1838 0.930 . S
C1848 C1847 1.400 . S
C1848 C1851 1.386 . S
H1849 C1865 0.959 . S
H1850 C1866 0.931 . S
C1851 H1839 0.929 . S
C1851 C1845 1.390 . S
C1851 C1848 1.386 . S
C1852 C1847 1.490 . S
C1852 C1854 1.395 . S
C1852 C1855 1.403 . S
H1853 C1859 0.930 . S
C1854 H1840 0.930 . S
C1854 C1852 1.395 . S
C1854 C1857 1.403 . S
C1855 C1852 1.403 . S
C1855 C1856 1.524 . S
C1855 C1859 1.400 . S
C1856 H1841 0.960 . S
C1856 H1842 0.960 . S
C1856 H1843 0.960 . S
C1856 C1855 1.524 . S
C1857 C1854 1.403 . S
C1857 C1858 1.392 . S
C1857 C1861 1.495 . S
C1858 C1857 1.392 . S
C1858 C1859 1.385 . S
C1858 C1860 1.478 . S
C1859 H1853 0.930 . S
C1859 C1855 1.400 . S
C1859 C1858 1.385 . S
C1860 C1858 1.478 . S
C1860 C1862 1.381 . S
C1860 C1866 1.383 . S
C1861 C1857 1.495 . S
C1861 H1867 0.959 . S
C1861 H1868 0.961 . S
C1861 H1869 0.960 . S
C1862 C1860 1.381 . S
C1862 C1863 1.394 . S
C1862 H1870 0.930 . S
C1863 C1862 1.394 . S
C1863 C1864 1.383 . S
C1863 H1871 0.929 . S
C1864 C1863 1.383 . S
C1864 C1865 1.377 . S
C1865 H1849 0.959 . S
C1865 C1864 1.377 . S
C1865 C1866 1.379 . S
C1866 H1850 0.931 . S
C1866 C1860 1.383 . S
C1866 C1865 1.379 . S
H1867 C1861 0.959 . S
H1868 C1861 0.961 . S
H1869 C1861 0.960 . S
H1870 C1862 0.930 . S
H1871 C1863 0.929 . S
H1872 C1880 0.929 . S
H1873 C1882 0.930 . S
H1874 C1884 0.930 . S
H1875 C1887 0.929 . S
H1876 C1890 0.930 . S
H1877 C1892 0.960 . S
H1878 C1892 0.960 . S
H1879 C1892 0.960 . S
C1880 H1872 0.929 . S
C1880 C1881 1.377 . S
C1880 C1882 1.384 . S
C1881 C1880 1.377 . S
C1881 C1887 1.390 . S
C1882 H1873 0.930 . S
C1882 C1880 1.384 . S
C1882 C1883 1.372 . S
C1883 C1882 1.372 . S
C1883 C1884 1.400 . S
C1883 C1888 1.490 . S
C1884 H1874 0.930 . S
C1884 C1883 1.400 . S
C1884 C1887 1.386 . S
H1885 C1901 0.930 . S
H1886 C1902 0.931 . S
C1887 H1875 0.929 . S
C1887 C1881 1.390 . S
C1887 C1884 1.386 . S
C1888 C1883 1.490 . S
C1888 C1890 1.395 . S
C1888 C1891 1.403 . S
H1889 C1895 0.930 . S
C1890 H1876 0.930 . S
C1890 C1888 1.395 . S
C1890 C1893 1.403 . S
C1891 C1888 1.403 . S
C1891 C1892 1.524 . S
C1891 C1895 1.400 . S
C1892 H1877 0.960 . S
C1892 H1878 0.960 . S
C1892 H1879 0.960 . S
C1892 C1891 1.524 . S
C1893 C1890 1.403 . S
C1893 C1894 1.392 . S
C1893 C1897 1.495 . S
C1894 C1893 1.392 . S
C1894 C1895 1.385 . S
C1894 C1896 1.478 . S
C1895 H1889 0.930 . S
C1895 C1891 1.400 . S
C1895 C1894 1.385 . S
C1896 C1894 1.478 . S
C1896 C1898 1.381 . S
C1896 C1902 1.383 . S
C1897 C1893 1.495 . S
C1897 H1903 0.959 . S
C1897 H1904 0.961 . S
C1897 H1905 0.960 . S
C1898 C1896 1.381 . S
C1898 C1899 1.394 . S
C1898 H1906 0.930 . S
C1899 C1898 1.394 . S
C1899 C1900 1.383 . S
C1899 H1907 0.929 . S
C1900 C1899 1.383 . S
C1900 C1901 1.377 . S
C1901 H1885 0.930 . S
C1901 C1900 1.377 . S
C1901 C1902 1.379 . S
C1902 H1886 0.931 . S
C1902 C1896 1.383 . S
C1902 C1901 1.379 . S
H1903 C1897 0.959 . S
H1904 C1897 0.961 . S
H1905 C1897 0.960 . S
H1906 C1898 0.930 . S
H1907 C1899 0.929 . S
H1908 C1916 0.929 . S
H1909 C1918 0.930 . S
H1910 C1920 0.930 . S
H1911 C1923 0.929 . S
H1912 C1926 0.930 . S
H1913 C1928 0.960 . S
H1914 C1928 0.960 . S
H1915 C1928 0.960 . S
C1916 H1908 0.929 . S
C1916 C1917 1.377 . S
C1916 C1918 1.384 . S
C1917 C1916 1.377 . S
C1917 C1923 1.390 . S
C1918 H1909 0.930 . S
C1918 C1916 1.384 . S
C1918 C1919 1.372 . S
C1919 C1918 1.372 . S
C1919 C1920 1.400 . S
C1919 C1924 1.490 . S
C1920 H1910 0.930 . S
C1920 C1919 1.400 . S
C1920 C1923 1.386 . S
H1921 C1937 0.930 . S
H1922 C1938 0.931 . S
C1923 H1911 0.929 . S
C1923 C1917 1.390 . S
C1923 C1920 1.386 . S
C1924 C1919 1.490 . S
C1924 C1926 1.395 . S
C1924 C1927 1.403 . S
H1925 C1931 0.930 . S
C1926 H1912 0.930 . S
C1926 C1924 1.395 . S
C1926 C1929 1.403 . S
C1927 C1924 1.403 . S
C1927 C1928 1.524 . S
C1927 C1931 1.400 . S
C1928 H1913 0.960 . S
C1928 H1914 0.960 . S
C1928 H1915 0.960 . S
C1928 C1927 1.524 . S
C1929 C1926 1.403 . S
C1929 C1930 1.392 . S
C1929 C1933 1.495 . S
C1930 C1929 1.392 . S
C1930 C1931 1.385 . S
C1930 C1932 1.478 . S
C1931 H1925 0.930 . S
C1931 C1927 1.400 . S
C1931 C1930 1.385 . S
C1932 C1930 1.478 . S
C1932 C1934 1.381 . S
C1932 C1938 1.383 . S
C1933 C1929 1.495 . S
C1933 H1939 0.959 . S
C1933 H1940 0.961 . S
C1933 H1941 0.960 . S
C1934 C1932 1.381 . S
C1934 C1935 1.394 . S
C1934 H1942 0.930 . S
C1935 C1934 1.394 . S
C1935 C1936 1.383 . S
C1935 H1943 0.929 . S
C1936 C1935 1.383 . S
C1936 C1937 1.377 . S
C1937 H1921 0.930 . S
C1937 C1936 1.377 . S
C1937 C1938 1.379 . S
C1938 H1922 0.931 . S
C1938 C1932 1.383 . S
C1938 C1937 1.379 . S
H1939 C1933 0.959 . S
H1940 C1933 0.961 . S
H1941 C1933 0.960 . S
H1942 C1934 0.930 . S
H1943 C1935 0.929 . S
H1944 C1952 0.929 . S
H1945 C1954 0.930 . S
H1946 C1956 0.930 . S
H1947 C1959 0.929 . S
H1948 C1962 0.930 . S
H1949 C1964 0.960 . S
H1950 C1964 0.960 . S
H1951 C1964 0.960 . S
C1952 H1944 0.929 . S
C1952 C1953 1.377 . S
C1952 C1954 1.384 . S
C1953 C1952 1.377 . S
C1953 C1959 1.390 . S
C1954 H1945 0.930 . S
C1954 C1952 1.384 . S
C1954 C1955 1.372 . S
C1955 C1954 1.372 . S
C1955 C1956 1.400 . S
C1955 C1960 1.490 . S
C1956 H1946 0.930 . S
C1956 C1955 1.400 . S
C1956 C1959 1.386 . S
H1957 C1973 0.930 . S
H1958 C1974 0.931 . S
C1959 H1947 0.929 . S
C1959 C1953 1.390 . S
C1959 C1956 1.386 . S
C1960 C1955 1.490 . S
C1960 C1962 1.395 . S
C1960 C1963 1.403 . S
H1961 C1967 0.930 . S
C1962 H1948 0.930 . S
C1962 C1960 1.395 . S
C1962 C1965 1.403 . S
C1963 C1960 1.403 . S
C1963 C1964 1.524 . S
C1963 C1967 1.400 . S
C1964 H1949 0.960 . S
C1964 H1950 0.960 . S
C1964 H1951 0.960 . S
C1964 C1963 1.524 . S
C1965 C1962 1.403 . S
C1965 C1966 1.392 . S
C1965 C1969 1.495 . S
C1966 C1965 1.392 . S
C1966 C1967 1.385 . S
C1966 C1968 1.478 . S
C1967 H1961 0.930 . S
C1967 C1963 1.400 . S
C1967 C1966 1.385 . S
C1968 C1966 1.478 . S
C1968 C1970 1.381 . S
C1968 C1974 1.383 . S
C1969 C1965 1.495 . S
C1969 H1975 0.959 . S
C1969 H1976 0.961 . S
C1969 H1977 0.960 . S
C1970 C1968 1.381 . S
C1970 C1971 1.394 . S
C1970 H1978 0.930 . S
C1971 C1970 1.394 . S
C1971 C1972 1.383 . S
C1971 H1979 0.929 . S
C1972 C1971 1.383 . S
C1972 C1973 1.377 . S
C1973 H1957 0.930 . S
C1973 C1972 1.377 . S
C1973 C1974 1.379 . S
C1974 H1958 0.931 . S
C1974 C1968 1.383 . S
C1974 C1973 1.379 . S
H1975 C1969 0.959 . S
H1976 C1969 0.961 . S
H1977 C1969 0.960 . S
H1978 C1970 0.930 . S
H1979 C1971 0.929 . S
H1980 C1988 0.929 . S
H1981 C1990 0.930 . S
H1982 C1992 0.930 . S
H1983 C1995 0.929 . S
H1984 C1998 0.930 . S
H1985 C2000 0.960 . S
H1986 C2000 0.960 . S
H1987 C2000 0.960 . S
C1988 H1980 0.929 . S
C1988 C1989 1.377 . S
C1988 C1990 1.384 . S
C1989 C1988 1.377 . S
C1989 C1995 1.390 . S
C1990 H1981 0.930 . S
C1990 C1988 1.384 . S
C1990 C1991 1.372 . S
C1991 C1990 1.372 . S
C1991 C1992 1.400 . S
C1991 C1996 1.490 . S
C1992 H1982 0.930 . S
C1992 C1991 1.400 . S
C1992 C1995 1.386 . S
H1993 C2009 0.930 . S
H1994 C2010 0.931 . S
C1995 H1983 0.929 . S
C1995 C1989 1.390 . S
C1995 C1992 1.386 . S
C1996 C1991 1.490 . S
C1996 C1998 1.395 . S
C1996 C1999 1.403 . S
H1997 C2003 0.930 . S
C1998 H1984 0.930 . S
C1998 C1996 1.395 . S
C1998 C2001 1.403 . S
C1999 C1996 1.403 . S
C1999 C2000 1.524 . S
C1999 C2003 1.400 . S
C2000 H1985 0.960 . S
C2000 H1986 0.960 . S
C2000 H1987 0.960 . S
C2000 C1999 1.524 . S
C2001 C1998 1.403 . S
C2001 C2002 1.392 . S
C2001 C2005 1.495 . S
C2002 C2001 1.392 . S
C2002 C2003 1.385 . S
C2002 C2004 1.478 . S
C2003 H1997 0.930 . S
C2003 C1999 1.400 . S
C2003 C2002 1.385 . S
C2004 C2002 1.478 . S
C2004 C2006 1.381 . S
C2004 C2010 1.383 . S
C2005 C2001 1.495 . S
C2005 H2011 0.959 . S
C2005 H2012 0.961 . S
C2005 H2013 0.960 . S
C2006 C2004 1.381 . S
C2006 C2007 1.394 . S
C2006 H2014 0.930 . S
C2007 C2006 1.394 . S
C2007 C2008 1.383 . S
C2007 H2015 0.929 . S
C2008 C2007 1.383 . S
C2008 C2009 1.377 . S
C2009 H1993 0.930 . S
C2009 C2008 1.377 . S
C2009 C2010 1.379 . S
C2010 H1994 0.931 . S
C2010 C2004 1.383 . S
C2010 C2009 1.379 . S
H2011 C2005 0.959 . S
H2012 C2005 0.961 . S
H2013 C2005 0.960 . S
H2014 C2006 0.930 . S
H2015 C2007 0.929 . S
H2016 C2024 0.929 . S
H2017 C2026 0.930 . S
H2018 C2028 0.930 . S
H2019 C2031 0.929 . S
H2020 C2034 0.930 . S
H2021 C2036 0.960 . S
H2022 C2036 0.960 . S
H2023 C2036 0.960 . S
C2024 H2016 0.929 . S
C2024 C2025 1.377 . S
C2024 C2026 1.384 . S
C2025 C2024 1.377 . S
C2025 C2031 1.390 . S
C2026 H2017 0.930 . S
C2026 C2024 1.384 . S
C2026 C2027 1.372 . S
C2027 C2026 1.372 . S
C2027 C2028 1.400 . S
C2027 C2032 1.490 . S
C2028 H2018 0.930 . S
C2028 C2027 1.400 . S
C2028 C2031 1.386 . S
H2029 C2045 0.930 . S
H2030 C2046 0.931 . S
C2031 H2019 0.929 . S
C2031 C2025 1.390 . S
C2031 C2028 1.386 . S
C2032 C2027 1.490 . S
C2032 C2034 1.395 . S
C2032 C2035 1.403 . S
H2033 C2039 0.930 . S
C2034 H2020 0.930 . S
C2034 C2032 1.395 . S
C2034 C2037 1.403 . S
C2035 C2032 1.403 . S
C2035 C2036 1.524 . S
C2035 C2039 1.400 . S
C2036 H2021 0.960 . S
C2036 H2022 0.960 . S
C2036 H2023 0.960 . S
C2036 C2035 1.524 . S
C2037 C2034 1.403 . S
C2037 C2038 1.392 . S
C2037 C2041 1.495 . S
C2038 C2037 1.392 . S
C2038 C2039 1.385 . S
C2038 C2040 1.478 . S
C2039 H2033 0.930 . S
C2039 C2035 1.400 . S
C2039 C2038 1.385 . S
C2040 C2038 1.478 . S
C2040 C2042 1.381 . S
C2040 C2046 1.383 . S
C2041 C2037 1.495 . S
C2041 H2047 0.959 . S
C2041 H2048 0.961 . S
C2041 H2049 0.960 . S
C2042 C2040 1.381 . S
C2042 C2043 1.394 . S
C2042 H2050 0.930 . S
C2043 C2042 1.394 . S
C2043 C2044 1.383 . S
C2043 H2051 0.929 . S
C2044 C2043 1.383 . S
C2044 C2045 1.377 . S
C2045 H2029 0.930 . S
C2045 C2044 1.377 . S
C2045 C2046 1.379 . S
C2046 H2030 0.931 . S
C2046 C2040 1.383 . S
C2046 C2045 1.379 . S
H2047 C2041 0.959 . S
H2048 C2041 0.961 . S
H2049 C2041 0.960 . S
H2050 C2042 0.930 . S
H2051 C2043 0.929 . S
H2052 C2060 0.929 . S
H2053 C2062 0.930 . S
H2054 C2064 0.930 . S
H2055 C2067 0.929 1_554 S
H2056 C2070 0.930 . S
H2057 C2072 0.960 . S
H2058 C2072 0.960 . S
H2059 C2072 0.960 . S
C2060 H2052 0.929 . S
C2060 C2061 1.377 . S
C2060 C2062 1.384 . S
C2061 C2060 1.377 . S
C2061 C2067 1.390 . S
C2062 H2053 0.930 . S
C2062 C2060 1.384 . S
C2062 C2063 1.372 . S
C2063 C2062 1.372 . S
C2063 C2064 1.400 . S
C2063 C2068 1.490 . S
C2064 H2054 0.930 . S
C2064 C2063 1.400 . S
C2064 C2067 1.386 . S
H2065 C2081 0.930 . S
H2066 C2082 0.931 . S
C2067 H2055 0.929 1_556 S
C2067 C2061 1.390 . S
C2067 C2064 1.386 . S
C2068 C2063 1.490 . S
C2068 C2070 1.395 . S
C2068 C2071 1.403 . S
H2069 C2075 0.930 . S
C2070 H2056 0.930 . S
C2070 C2068 1.395 . S
C2070 C2073 1.403 . S
C2071 C2068 1.403 . S
C2071 C2072 1.524 . S
C2071 C2075 1.400 . S
C2072 H2057 0.960 . S
C2072 H2058 0.960 . S
C2072 H2059 0.960 . S
C2072 C2071 1.524 . S
C2073 C2070 1.403 . S
C2073 C2074 1.392 . S
C2073 C2077 1.495 . S
C2074 C2073 1.392 . S
C2074 C2075 1.385 . S
C2074 C2076 1.478 . S
C2075 H2069 0.930 . S
C2075 C2071 1.400 . S
C2075 C2074 1.385 . S
C2076 C2074 1.478 . S
C2076 C2078 1.381 . S
C2076 C2082 1.383 . S
C2077 C2073 1.495 . S
C2077 H2083 0.959 . S
C2077 H2084 0.961 . S
C2077 H2085 0.960 . S
C2078 C2076 1.381 . S
C2078 C2079 1.394 . S
C2078 H2086 0.930 . S
C2079 C2078 1.394 . S
C2079 C2080 1.383 . S
C2079 H2087 0.929 . S
C2080 C2079 1.383 . S
C2080 C2081 1.377 . S
C2081 H2065 0.930 . S
C2081 C2080 1.377 . S
C2081 C2082 1.379 . S
C2082 H2066 0.931 . S
C2082 C2076 1.383 . S
C2082 C2081 1.379 . S
H2083 C2077 0.959 . S
H2084 C2077 0.961 . S
H2085 C2077 0.960 . S
H2086 C2078 0.930 . S
H2087 C2079 0.929 . S
H2088 C2096 0.929 . S
H2089 C2098 0.930 . S
H2090 C2100 0.930 . S
H2091 C2103 0.929 . S
H2092 C2106 0.930 . S
H2093 C2108 0.960 . S
H2094 C2108 0.960 . S
H2095 C2108 0.960 . S
C2096 H2088 0.929 . S
C2096 C2097 1.377 . S
C2096 C2098 1.384 . S
C2097 C2096 1.377 . S
C2097 C2103 1.390 . S
C2098 H2089 0.930 . S
C2098 C2096 1.384 . S
C2098 C2099 1.372 . S
C2099 C2098 1.372 . S
C2099 C2100 1.400 . S
C2099 C2104 1.490 . S
C2100 H2090 0.930 . S
C2100 C2099 1.400 . S
C2100 C2103 1.386 . S
H2101 C2117 0.930 . S
H2102 C2118 0.931 . S
C2103 H2091 0.929 . S
C2103 C2097 1.390 . S
C2103 C2100 1.386 . S
C2104 C2099 1.490 . S
C2104 C2106 1.395 . S
C2104 C2107 1.403 . S
H2105 C2111 0.930 . S
C2106 H2092 0.930 . S
C2106 C2104 1.395 . S
C2106 C2109 1.403 . S
C2107 C2104 1.403 . S
C2107 C2108 1.524 . S
C2107 C2111 1.400 . S
C2108 H2093 0.960 . S
C2108 H2094 0.960 . S
C2108 H2095 0.960 . S
C2108 C2107 1.524 . S
C2109 C2106 1.403 . S
C2109 C2110 1.392 . S
C2109 C2113 1.495 . S
C2110 C2109 1.392 . S
C2110 C2111 1.385 . S
C2110 C2112 1.478 . S
C2111 H2105 0.930 . S
C2111 C2107 1.400 . S
C2111 C2110 1.385 . S
C2112 C2110 1.478 . S
C2112 C2114 1.381 . S
C2112 C2118 1.383 . S
C2113 C2109 1.495 . S
C2113 H2119 0.959 . S
C2113 H2120 0.961 . S
C2113 H2121 0.960 . S
C2114 C2112 1.381 . S
C2114 C2115 1.394 . S
C2114 H2122 0.930 . S
C2115 C2114 1.394 . S
C2115 C2116 1.383 . S
C2115 H2123 0.929 . S
C2116 C2115 1.383 . S
C2116 C2117 1.377 . S
C2117 H2101 0.930 . S
C2117 C2116 1.377 . S
C2117 C2118 1.379 . S
C2118 H2102 0.931 . S
C2118 C2112 1.383 . S
C2118 C2117 1.379 . S
H2119 C2113 0.959 . S
H2120 C2113 0.961 . S
H2121 C2113 0.960 . S
H2122 C2114 0.930 . S
H2123 C2115 0.929 . S
H2124 C2132 0.929 . S
H2125 C2134 0.930 . S
H2126 C2136 0.930 . S
H2127 C2139 0.929 . S
H2128 C2142 0.930 . S
H2129 C2144 0.960 . S
H2130 C2144 0.960 . S
H2131 C2144 0.960 . S
C2132 H2124 0.929 . S
C2132 C2133 1.377 . S
C2132 C2134 1.384 . S
C2133 C2132 1.377 . S
C2133 C2139 1.390 . S
C2134 H2125 0.930 . S
C2134 C2132 1.384 . S
C2134 C2135 1.372 . S
C2135 C2134 1.372 . S
C2135 C2136 1.400 . S
C2135 C2140 1.490 . S
C2136 H2126 0.930 . S
C2136 C2135 1.400 . S
C2136 C2139 1.386 . S
H2137 C2153 0.930 . S
H2138 C2154 0.931 . S
C2139 H2127 0.929 . S
C2139 C2133 1.390 . S
C2139 C2136 1.386 . S
C2140 C2135 1.490 . S
C2140 C2142 1.395 . S
C2140 C2143 1.403 . S
H2141 C2147 0.930 . S
C2142 H2128 0.930 . S
C2142 C2140 1.395 . S
C2142 C2145 1.403 . S
C2143 C2140 1.403 . S
C2143 C2144 1.524 . S
C2143 C2147 1.400 . S
C2144 H2129 0.960 . S
C2144 H2130 0.960 . S
C2144 H2131 0.960 . S
C2144 C2143 1.524 . S
C2145 C2142 1.403 . S
C2145 C2146 1.392 . S
C2145 C2149 1.495 . S
C2146 C2145 1.392 . S
C2146 C2147 1.385 . S
C2146 C2148 1.478 . S
C2147 H2141 0.930 . S
C2147 C2143 1.400 . S
C2147 C2146 1.385 . S
C2148 C2146 1.478 . S
C2148 C2150 1.381 . S
C2148 C2154 1.383 . S
C2149 C2145 1.495 . S
C2149 H2155 0.959 . S
C2149 H2156 0.961 . S
C2149 H2157 0.960 . S
C2150 C2148 1.381 . S
C2150 C2151 1.394 . S
C2150 H2158 0.930 . S
C2151 C2150 1.394 . S
C2151 C2152 1.383 . S
C2151 H2159 0.929 . S
C2152 C2151 1.383 . S
C2152 C2153 1.377 . S
C2153 H2137 0.930 . S
C2153 C2152 1.377 . S
C2153 C2154 1.379 . S
C2154 H2138 0.931 . S
C2154 C2148 1.383 . S
C2154 C2153 1.379 . S
H2155 C2149 0.959 . S
H2156 C2149 0.961 . S
H2157 C2149 0.960 . S
H2158 C2150 0.930 . S
H2159 C2151 0.929 . S
H2160 C2168 0.929 . S
H2161 C2170 0.930 . S
H2162 C2172 0.930 . S
H2163 C2175 0.929 . S
H2164 C2178 0.930 . S
H2165 C2180 0.960 . S
H2166 C2180 0.960 . S
H2167 C2180 0.960 . S
C2168 H2160 0.929 . S
C2168 C2169 1.377 . S
C2168 C2170 1.384 . S
C2169 C2168 1.377 . S
C2169 C2175 1.390 . S
C2170 H2161 0.930 . S
C2170 C2168 1.384 . S
C2170 C2171 1.372 . S
C2171 C2170 1.372 . S
C2171 C2172 1.400 . S
C2171 C2176 1.490 . S
C2172 H2162 0.930 . S
C2172 C2171 1.400 . S
C2172 C2175 1.386 . S
H2173 C2189 0.930 . S
H2174 C2190 0.931 . S
C2175 H2163 0.929 . S
C2175 C2169 1.390 . S
C2175 C2172 1.386 . S
C2176 C2171 1.490 . S
C2176 C2178 1.395 . S
C2176 C2179 1.403 . S
H2177 C2183 0.930 . S
C2178 H2164 0.930 . S
C2178 C2176 1.395 . S
C2178 C2181 1.403 . S
C2179 C2176 1.403 . S
C2179 C2180 1.524 . S
C2179 C2183 1.400 . S
C2180 H2165 0.960 . S
C2180 H2166 0.960 . S
C2180 H2167 0.960 . S
C2180 C2179 1.524 . S
C2181 C2178 1.403 . S
C2181 C2182 1.392 . S
C2181 C2185 1.495 . S
C2182 C2181 1.392 . S
C2182 C2183 1.385 . S
C2182 C2184 1.478 . S
C2183 H2177 0.930 . S
C2183 C2179 1.400 . S
C2183 C2182 1.385 . S
C2184 C2182 1.478 . S
C2184 C2186 1.381 . S
C2184 C2190 1.383 . S
C2185 C2181 1.495 . S
C2185 H2191 0.959 . S
C2185 H2192 0.961 . S
C2185 H2193 0.960 . S
C2186 C2184 1.381 . S
C2186 C2187 1.394 . S
C2186 H2194 0.930 . S
C2187 C2186 1.394 . S
C2187 C2188 1.383 . S
C2187 H2195 0.929 . S
C2188 C2187 1.383 . S
C2188 C2189 1.377 . S
C2189 H2173 0.930 . S
C2189 C2188 1.377 . S
C2189 C2190 1.379 . S
C2190 H2174 0.931 . S
C2190 C2184 1.383 . S
C2190 C2189 1.379 . S
H2191 C2185 0.959 . S
H2192 C2185 0.961 . S
H2193 C2185 0.960 . S
H2194 C2186 0.930 . S
H2195 C2187 0.929 . S
H2196 C2204 0.929 . S
H2197 C2206 0.930 . S
H2198 C2208 0.930 . S
H2199 C2211 0.929 . S
H2200 C2214 0.930 . S
H2201 C2216 0.960 . S
H2202 C2216 0.960 . S
H2203 C2216 0.960 . S
C2204 H2196 0.929 . S
C2204 C2205 1.377 . S
C2204 C2206 1.384 . S
C2205 C2204 1.377 . S
C2205 C2211 1.390 . S
C2206 H2197 0.930 . S
C2206 C2204 1.384 . S
C2206 C2207 1.372 . S
C2207 C2206 1.372 . S
C2207 C2208 1.400 . S
C2207 C2212 1.490 . S
C2208 H2198 0.930 . S
C2208 C2207 1.400 . S
C2208 C2211 1.386 . S
H2209 C2225 0.930 . S
H2210 C2226 0.931 . S
C2211 H2199 0.929 . S
C2211 C2205 1.390 . S
C2211 C2208 1.386 . S
C2212 C2207 1.490 . S
C2212 C2214 1.395 . S
C2212 C2215 1.403 . S
H2213 C2219 0.930 . S
C2214 H2200 0.930 . S
C2214 C2212 1.395 . S
C2214 C2217 1.403 . S
C2215 C2212 1.403 . S
C2215 C2216 1.524 . S
C2215 C2219 1.400 . S
C2216 H2201 0.960 . S
C2216 H2202 0.960 . S
C2216 H2203 0.960 . S
C2216 C2215 1.524 . S
C2217 C2214 1.403 . S
C2217 C2218 1.392 . S
C2217 C2221 1.495 . S
C2218 C2217 1.392 . S
C2218 C2219 1.385 . S
C2218 C2220 1.478 . S
C2219 H2213 0.930 . S
C2219 C2215 1.400 . S
C2219 C2218 1.385 . S
C2220 C2218 1.478 . S
C2220 C2222 1.381 . S
C2220 C2226 1.383 . S
C2221 C2217 1.495 . S
C2221 H2227 0.959 . S
C2221 H2228 0.961 . S
C2221 H2229 0.960 . S
C2222 C2220 1.381 . S
C2222 C2223 1.394 . S
C2222 H2230 0.930 . S
C2223 C2222 1.394 . S
C2223 C2224 1.383 . S
C2223 H2231 0.929 . S
C2224 C2223 1.383 . S
C2224 C2225 1.377 . S
C2225 H2209 0.930 . S
C2225 C2224 1.377 . S
C2225 C2226 1.379 . S
C2226 H2210 0.931 . S
C2226 C2220 1.383 . S
C2226 C2225 1.379 . S
H2227 C2221 0.959 . S
H2228 C2221 0.961 . S
H2229 C2221 0.960 . S
H2230 C2222 0.930 . S
H2231 C2223 0.929 . S
H2232 C2240 0.929 . S
H2233 C2242 0.930 . S
H2234 C2244 0.930 . S
H2235 C2247 0.929 . S
H2236 C2250 0.930 . S
H2237 C2252 0.960 . S
H2238 C2252 0.960 . S
H2239 C2252 0.960 . S
C2240 H2232 0.929 . S
C2240 C2241 1.377 . S
C2240 C2242 1.384 . S
C2241 C2240 1.377 . S
C2241 C2247 1.390 . S
C2242 H2233 0.930 . S
C2242 C2240 1.384 . S
C2242 C2243 1.372 . S
C2243 C2242 1.372 . S
C2243 C2244 1.400 . S
C2243 C2248 1.490 . S
C2244 H2234 0.930 . S
C2244 C2243 1.400 . S
C2244 C2247 1.386 . S
H2245 C2261 0.930 . S
H2246 C2262 0.931 . S
C2247 H2235 0.929 . S
C2247 C2241 1.390 . S
C2247 C2244 1.386 . S
C2248 C2243 1.490 . S
C2248 C2250 1.395 . S
C2248 C2251 1.403 . S
H2249 C2255 0.930 . S
C2250 H2236 0.930 . S
C2250 C2248 1.395 . S
C2250 C2253 1.403 . S
C2251 C2248 1.403 . S
C2251 C2252 1.524 . S
C2251 C2255 1.400 . S
C2252 H2237 0.960 . S
C2252 H2238 0.960 . S
C2252 H2239 0.960 . S
C2252 C2251 1.524 . S
C2253 C2250 1.403 . S
C2253 C2254 1.392 . S
C2253 C2257 1.495 . S
C2254 C2253 1.392 . S
C2254 C2255 1.385 . S
C2254 C2256 1.478 . S
C2255 H2249 0.930 . S
C2255 C2251 1.400 . S
C2255 C2254 1.385 . S
C2256 C2254 1.478 . S
C2256 C2258 1.381 . S
C2256 C2262 1.383 . S
C2257 C2253 1.495 . S
C2257 H2263 0.959 . S
C2257 H2264 0.961 . S
C2257 H2265 0.960 . S
C2258 C2256 1.381 . S
C2258 C2259 1.394 . S
C2258 H2266 0.930 . S
C2259 C2258 1.394 . S
C2259 C2260 1.383 . S
C2259 H2267 0.929 . S
C2260 C2259 1.383 . S
C2260 C2261 1.377 . S
C2261 H2245 0.930 . S
C2261 C2260 1.377 . S
C2261 C2262 1.379 . S
C2262 H2246 0.931 . S
C2262 C2256 1.383 . S
C2262 C2261 1.379 . S
H2263 C2257 0.959 . S
H2264 C2257 0.961 . S
H2265 C2257 0.960 . S
H2266 C2258 0.930 . S
H2267 C2259 0.929 . S
H2268 C2276 0.929 . S
H2269 C2278 0.930 . S
H2270 C2280 0.930 . S
H2271 C2283 0.929 . S
H2272 C2286 0.930 . S
H2273 C2288 0.960 . S
H2274 C2288 0.960 . S
H2275 C2288 0.960 . S
C2276 H2268 0.929 . S
C2276 C2277 1.377 . S
C2276 C2278 1.384 . S
C2277 C2276 1.377 . S
C2277 C2283 1.390 . S
C2278 H2269 0.930 . S
C2278 C2276 1.384 . S
C2278 C2279 1.372 . S
C2279 C2278 1.372 . S
C2279 C2280 1.400 . S
C2279 C2284 1.490 . S
C2280 H2270 0.930 . S
C2280 C2279 1.400 . S
C2280 C2283 1.386 . S
H2281 C2297 0.930 . S
H2282 C2298 0.931 . S
C2283 H2271 0.929 . S
C2283 C2277 1.390 . S
C2283 C2280 1.386 . S
C2284 C2279 1.490 . S
C2284 C2286 1.395 . S
C2284 C2287 1.403 . S
H2285 C2291 0.930 . S
C2286 H2272 0.930 . S
C2286 C2284 1.395 . S
C2286 C2289 1.403 . S
C2287 C2284 1.403 . S
C2287 C2288 1.524 . S
C2287 C2291 1.400 . S
C2288 H2273 0.960 . S
C2288 H2274 0.960 . S
C2288 H2275 0.960 . S
C2288 C2287 1.524 . S
C2289 C2286 1.403 . S
C2289 C2290 1.392 . S
C2289 C2293 1.495 . S
C2290 C2289 1.392 . S
C2290 C2291 1.385 . S
C2290 C2292 1.478 . S
C2291 H2285 0.930 . S
C2291 C2287 1.400 . S
C2291 C2290 1.385 . S
C2292 C2290 1.478 . S
C2292 C2294 1.381 . S
C2292 C2298 1.383 . S
C2293 C2289 1.495 . S
C2293 H2299 0.959 . S
C2293 H2300 0.961 . S
C2293 H2301 0.960 . S
C2294 C2292 1.381 . S
C2294 C2295 1.394 . S
C2294 H2302 0.930 . S
C2295 C2294 1.394 . S
C2295 C2296 1.383 . S
C2295 H2303 0.929 . S
C2296 C2295 1.383 . S
C2296 C2297 1.377 . S
C2297 H2281 0.930 . S
C2297 C2296 1.377 . S
C2297 C2298 1.379 . S
C2298 H2282 0.931 . S
C2298 C2292 1.383 . S
C2298 C2297 1.379 . S
H2299 C2293 0.959 . S
H2300 C2293 0.961 . S
H2301 C2293 0.960 . S
H2302 C2294 0.930 . S
H2303 C2295 0.929 . S
H2304 C2312 0.929 . S
H2305 C2314 0.930 . S
H2306 C2316 0.930 . S
H2307 C2319 0.929 . S
H2308 C2322 0.930 . S
H2309 C2324 0.960 . S
H2310 C2324 0.960 . S
H2311 C2324 0.960 . S
C2312 H2304 0.929 . S
C2312 C2313 1.377 . S
C2312 C2314 1.384 . S
C2313 C2312 1.377 . S
C2313 C2319 1.390 . S
C2314 H2305 0.930 . S
C2314 C2312 1.384 . S
C2314 C2315 1.372 . S
C2315 C2314 1.372 . S
C2315 C2316 1.400 . S
C2315 C2320 1.490 . S
C2316 H2306 0.930 . S
C2316 C2315 1.400 . S
C2316 C2319 1.386 . S
H2317 C2333 0.930 . S
H2318 C2334 0.931 . S
C2319 H2307 0.929 . S
C2319 C2313 1.390 . S
C2319 C2316 1.386 . S
C2320 C2315 1.490 . S
C2320 C2322 1.395 . S
C2320 C2323 1.403 . S
H2321 C2327 0.930 . S
C2322 H2308 0.930 . S
C2322 C2320 1.395 . S
C2322 C2325 1.403 . S
C2323 C2320 1.403 . S
C2323 C2324 1.524 . S
C2323 C2327 1.400 . S
C2324 H2309 0.960 . S
C2324 H2310 0.960 . S
C2324 H2311 0.960 . S
C2324 C2323 1.524 . S
C2325 C2322 1.403 . S
C2325 C2326 1.392 . S
C2325 C2329 1.495 . S
C2326 C2325 1.392 . S
C2326 C2327 1.385 . S
C2326 C2328 1.478 . S
C2327 H2321 0.930 . S
C2327 C2323 1.400 . S
C2327 C2326 1.385 . S
C2328 C2326 1.478 . S
C2328 C2330 1.381 . S
C2328 C2334 1.383 . S
C2329 C2325 1.495 . S
C2329 H2335 0.959 . S
C2329 H2336 0.961 . S
C2329 H2337 0.960 . S
C2330 C2328 1.381 . S
C2330 C2331 1.394 . S
C2330 H2338 0.930 . S
C2331 C2330 1.394 . S
C2331 C2332 1.383 . S
C2331 H2339 0.929 . S
C2332 C2331 1.383 . S
C2332 C2333 1.377 . S
C2333 H2317 0.930 . S
C2333 C2332 1.377 . S
C2333 C2334 1.379 . S
C2334 H2318 0.931 . S
C2334 C2328 1.383 . S
C2334 C2333 1.379 . S
H2335 C2329 0.959 . S
H2336 C2329 0.961 . S
H2337 C2329 0.960 . S
H2338 C2330 0.930 . S
H2339 C2331 0.929 . S
H2340 C2348 0.929 . S
H2341 C2350 0.930 . S
H2342 C2352 0.930 . S
H2343 C2355 0.929 . S
H2344 C2358 0.930 . S
H2345 C2360 0.960 . S
H2346 C2360 0.960 . S
H2347 C2360 0.960 . S
C2348 H2340 0.929 . S
C2348 C2349 1.377 . S
C2348 C2350 1.384 . S
C2349 C2348 1.377 . S
C2349 C2355 1.390 . S
C2350 H2341 0.930 . S
C2350 C2348 1.384 . S
C2350 C2351 1.372 . S
C2351 C2350 1.372 . S
C2351 C2352 1.400 . S
C2351 C2356 1.490 . S
C2352 H2342 0.930 . S
C2352 C2351 1.400 . S
C2352 C2355 1.386 . S
H2353 C2369 0.930 . S
H2354 C2370 0.931 . S
C2355 H2343 0.929 . S
C2355 C2349 1.390 . S
C2355 C2352 1.386 . S
C2356 C2351 1.490 . S
C2356 C2358 1.395 . S
C2356 C2359 1.403 . S
H2357 C2363 0.930 . S
C2358 H2344 0.930 . S
C2358 C2356 1.395 . S
C2358 C2361 1.403 . S
C2359 C2356 1.403 . S
C2359 C2360 1.524 . S
C2359 C2363 1.400 . S
C2360 H2345 0.960 . S
C2360 H2346 0.960 . S
C2360 H2347 0.960 . S
C2360 C2359 1.524 . S
C2361 C2358 1.403 . S
C2361 C2362 1.392 . S
C2361 C2365 1.495 . S
C2362 C2361 1.392 . S
C2362 C2363 1.385 . S
C2362 C2364 1.478 . S
C2363 H2357 0.930 . S
C2363 C2359 1.400 . S
C2363 C2362 1.385 . S
C2364 C2362 1.478 . S
C2364 C2366 1.381 . S
C2364 C2370 1.383 . S
C2365 C2361 1.495 . S
C2365 H2371 0.959 . S
C2365 H2372 0.961 . S
C2365 H2373 0.960 . S
C2366 C2364 1.381 . S
C2366 C2367 1.394 . S
C2366 H2374 0.930 . S
C2367 C2366 1.394 . S
C2367 C2368 1.383 . S
C2367 H2375 0.929 . S
C2368 C2367 1.383 . S
C2368 C2369 1.377 . S
C2369 H2353 0.930 . S
C2369 C2368 1.377 . S
C2369 C2370 1.379 . S
C2370 H2354 0.931 . S
C2370 C2364 1.383 . S
C2370 C2369 1.379 . S
H2371 C2365 0.959 . S
H2372 C2365 0.961 . S
H2373 C2365 0.960 . S
H2374 C2366 0.930 . S
H2375 C2367 0.929 . S
H2376 C2384 0.929 . S
H2377 C2386 0.930 . S
H2378 C2388 0.930 . S
H2379 C2391 0.929 . S
H2380 C2394 0.930 . S
H2381 C2396 0.960 . S
H2382 C2396 0.960 . S
H2383 C2396 0.960 . S
C2384 H2376 0.929 . S
C2384 C2385 1.377 . S
C2384 C2386 1.384 . S
C2385 C2384 1.377 . S
C2385 C2391 1.390 . S
C2386 H2377 0.930 . S
C2386 C2384 1.384 . S
C2386 C2387 1.372 . S
C2387 C2386 1.372 . S
C2387 C2388 1.400 . S
C2387 C2392 1.490 . S
C2388 H2378 0.930 . S
C2388 C2387 1.400 . S
C2388 C2391 1.386 . S
H2389 C2405 0.930 . S
H2390 C2406 0.931 . S
C2391 H2379 0.929 . S
C2391 C2385 1.390 . S
C2391 C2388 1.386 . S
C2392 C2387 1.490 . S
C2392 C2394 1.395 . S
C2392 C2395 1.403 . S
H2393 C2399 0.930 . S
C2394 H2380 0.930 . S
C2394 C2392 1.395 . S
C2394 C2397 1.403 . S
C2395 C2392 1.403 . S
C2395 C2396 1.524 . S
C2395 C2399 1.400 . S
C2396 H2381 0.960 . S
C2396 H2382 0.960 . S
C2396 H2383 0.960 . S
C2396 C2395 1.524 . S
C2397 C2394 1.403 . S
C2397 C2398 1.392 . S
C2397 C2401 1.495 . S
C2398 C2397 1.392 . S
C2398 C2399 1.385 . S
C2398 C2400 1.478 . S
C2399 H2393 0.930 . S
C2399 C2395 1.400 . S
C2399 C2398 1.385 . S
C2400 C2398 1.478 . S
C2400 C2402 1.381 . S
C2400 C2406 1.383 . S
C2401 C2397 1.495 . S
C2401 H2407 0.959 . S
C2401 H2408 0.961 . S
C2401 H2409 0.960 . S
C2402 C2400 1.381 . S
C2402 C2403 1.394 . S
C2402 H2410 0.930 . S
C2403 C2402 1.394 . S
C2403 C2404 1.383 . S
C2403 H2411 0.929 . S
C2404 C2403 1.383 . S
C2404 C2405 1.377 . S
C2405 H2389 0.930 . S
C2405 C2404 1.377 . S
C2405 C2406 1.379 . S
C2406 H2390 0.931 . S
C2406 C2400 1.383 . S
C2406 C2405 1.379 . S
H2407 C2401 0.959 . S
H2408 C2401 0.961 . S
H2409 C2401 0.960 . S
H2410 C2402 0.930 . S
H2411 C2403 0.929 . S
H2412 C2420 0.929 . S
H2413 C2422 0.930 . S
H2414 C2424 0.930 . S
H2415 C2427 0.929 . S
H2416 C2430 0.930 . S
H2417 C2432 0.960 . S
H2418 C2432 0.960 . S
H2419 C2432 0.960 . S
C2420 H2412 0.929 . S
C2420 C2421 1.377 . S
C2420 C2422 1.384 . S
C2421 C2420 1.377 . S
C2421 C2427 1.390 . S
C2422 H2413 0.930 . S
C2422 C2420 1.384 . S
C2422 C2423 1.372 . S
C2423 C2422 1.372 . S
C2423 C2424 1.400 . S
C2423 C2428 1.490 . S
C2424 H2414 0.930 . S
C2424 C2423 1.400 . S
C2424 C2427 1.386 . S
H2425 C2441 0.930 . S
H2426 C2442 0.931 . S
C2427 H2415 0.929 . S
C2427 C2421 1.390 . S
C2427 C2424 1.386 . S
C2428 C2423 1.490 . S
C2428 C2430 1.395 . S
C2428 C2431 1.403 . S
H2429 C2435 0.930 . S
C2430 H2416 0.930 . S
C2430 C2428 1.395 . S
C2430 C2433 1.403 . S
C2431 C2428 1.403 . S
C2431 C2432 1.524 . S
C2431 C2435 1.400 . S
C2432 H2417 0.960 . S
C2432 H2418 0.960 . S
C2432 H2419 0.960 . S
C2432 C2431 1.524 . S
C2433 C2430 1.403 . S
C2433 C2434 1.392 . S
C2433 C2437 1.495 . S
C2434 C2433 1.392 . S
C2434 C2435 1.385 . S
C2434 C2436 1.478 . S
C2435 H2429 0.930 . S
C2435 C2431 1.400 . S
C2435 C2434 1.385 . S
C2436 C2434 1.478 . S
C2436 C2438 1.381 . S
C2436 C2442 1.383 . S
C2437 C2433 1.495 . S
C2437 H2443 0.959 . S
C2437 H2444 0.961 . S
C2437 H2445 0.960 . S
C2438 C2436 1.381 . S
C2438 C2439 1.394 . S
C2438 H2446 0.930 . S
C2439 C2438 1.394 . S
C2439 C2440 1.383 . S
C2439 H2447 0.929 . S
C2440 C2439 1.383 . S
C2440 C2441 1.377 . S
C2441 H2425 0.930 . S
C2441 C2440 1.377 . S
C2441 C2442 1.379 . S
C2442 H2426 0.931 . S
C2442 C2436 1.383 . S
C2442 C2441 1.379 . S
H2443 C2437 0.959 . S
H2444 C2437 0.961 . S
H2445 C2437 0.960 . S
H2446 C2438 0.930 . S
H2447 C2439 0.929 . S
H2448 C2456 0.929 . S
H2449 C2458 0.930 . S
H2450 C2460 0.930 . S
H2451 C2463 0.929 . S
H2452 C2466 0.930 . S
H2453 C2468 0.960 . S
H2454 C2468 0.960 . S
H2455 C2468 0.960 . S
C2456 H2448 0.929 . S
C2456 C2457 1.377 . S
C2456 C2458 1.384 . S
C2457 C2456 1.377 . S
C2457 C2463 1.390 . S
C2458 H2449 0.930 . S
C2458 C2456 1.384 . S
C2458 C2459 1.372 . S
C2459 C2458 1.372 . S
C2459 C2460 1.400 . S
C2459 C2464 1.490 . S
C2460 H2450 0.930 . S
C2460 C2459 1.400 . S
C2460 C2463 1.386 . S
H2461 C2477 0.930 . S
H2462 C2478 0.931 . S
C2463 H2451 0.929 . S
C2463 C2457 1.390 . S
C2463 C2460 1.386 . S
C2464 C2459 1.490 . S
C2464 C2466 1.395 . S
C2464 C2467 1.403 . S
H2465 C2471 0.930 . S
C2466 H2452 0.930 . S
C2466 C2464 1.395 . S
C2466 C2469 1.403 . S
C2467 C2464 1.403 . S
C2467 C2468 1.524 . S
C2467 C2471 1.400 . S
C2468 H2453 0.960 . S
C2468 H2454 0.960 . S
C2468 H2455 0.960 . S
C2468 C2467 1.524 . S
C2469 C2466 1.403 . S
C2469 C2470 1.392 . S
C2469 C2473 1.495 . S
C2470 C2469 1.392 . S
C2470 C2471 1.385 . S
C2470 C2472 1.478 . S
C2471 H2465 0.930 . S
C2471 C2467 1.400 . S
C2471 C2470 1.385 . S
C2472 C2470 1.478 . S
C2472 C2474 1.381 . S
C2472 C2478 1.383 . S
C2473 C2469 1.495 . S
C2473 H2479 0.959 . S
C2473 H2480 0.961 . S
C2473 H2481 0.960 . S
C2474 C2472 1.381 . S
C2474 C2475 1.394 . S
C2474 H2482 0.930 . S
C2475 C2474 1.394 . S
C2475 C2476 1.383 . S
C2475 H2483 0.929 . S
C2476 C2475 1.383 . S
C2476 C2477 1.377 . S
C2477 H2461 0.930 . S
C2477 C2476 1.377 . S
C2477 C2478 1.379 . S
C2478 H2462 0.931 . S
C2478 C2472 1.383 . S
C2478 C2477 1.379 . S
H2479 C2473 0.959 . S
H2480 C2473 0.961 . S
H2481 C2473 0.960 . S
H2482 C2474 0.930 . S
H2483 C2475 0.929 . S
H2484 C2492 0.929 . S
H2485 C2494 0.930 . S
H2486 C2496 0.930 . S
H2487 C2499 0.929 . S
H2488 C2502 0.930 . S
H2489 C2504 0.960 . S
H2490 C2504 0.960 . S
H2491 C2504 0.960 . S
C2492 H2484 0.929 . S
C2492 C2493 1.377 . S
C2492 C2494 1.384 . S
C2493 C2492 1.377 . S
C2493 C2499 1.390 . S
C2494 H2485 0.930 . S
C2494 C2492 1.384 . S
C2494 C2495 1.372 . S
C2495 C2494 1.372 . S
C2495 C2496 1.400 . S
C2495 C2500 1.490 . S
C2496 H2486 0.930 . S
C2496 C2495 1.400 . S
C2496 C2499 1.386 . S
H2497 C2513 0.930 . S
H2498 C2514 0.931 . S
C2499 H2487 0.929 . S
C2499 C2493 1.390 . S
C2499 C2496 1.386 . S
C2500 C2495 1.490 . S
C2500 C2502 1.395 . S
C2500 C2503 1.403 . S
H2501 C2507 0.930 . S
C2502 H2488 0.930 . S
C2502 C2500 1.395 . S
C2502 C2505 1.403 . S
C2503 C2500 1.403 . S
C2503 C2504 1.524 . S
C2503 C2507 1.400 . S
C2504 H2489 0.960 . S
C2504 H2490 0.960 . S
C2504 H2491 0.960 . S
C2504 C2503 1.524 . S
C2505 C2502 1.403 . S
C2505 C2506 1.392 . S
C2505 C2509 1.495 . S
C2506 C2505 1.392 . S
C2506 C2507 1.385 . S
C2506 C2508 1.478 . S
C2507 H2501 0.930 . S
C2507 C2503 1.400 . S
C2507 C2506 1.385 . S
C2508 C2506 1.478 . S
C2508 C2510 1.381 . S
C2508 C2514 1.383 . S
C2509 C2505 1.495 . S
C2509 H2515 0.959 . S
C2509 H2516 0.961 . S
C2509 H2517 0.960 . S
C2510 C2508 1.381 . S
C2510 C2511 1.394 . S
C2510 H2518 0.930 . S
C2511 C2510 1.394 . S
C2511 C2512 1.383 . S
C2511 H2519 0.929 . S
C2512 C2511 1.383 . S
C2512 C2513 1.377 . S
C2513 H2497 0.930 . S
C2513 C2512 1.377 . S
C2513 C2514 1.379 . S
C2514 H2498 0.931 . S
C2514 C2508 1.383 . S
C2514 C2513 1.379 . S
H2515 C2509 0.959 . S
H2516 C2509 0.961 . S
H2517 C2509 0.960 . S
H2518 C2510 0.930 . S
H2519 C2511 0.929 . S
H2520 C2528 0.929 . S
H2521 C2530 0.930 . S
H2522 C2532 0.930 . S
H2523 C2535 0.929 . S
H2524 C2538 0.930 . S
H2525 C2540 0.960 . S
H2526 C2540 0.960 . S
H2527 C2540 0.960 . S
C2528 H2520 0.929 . S
C2528 C2529 1.377 . S
C2528 C2530 1.384 . S
C2529 C2528 1.377 . S
C2529 C2535 1.390 . S
C2530 H2521 0.930 . S
C2530 C2528 1.384 . S
C2530 C2531 1.372 . S
C2531 C2530 1.372 . S
C2531 C2532 1.400 . S
C2531 C2536 1.490 . S
C2532 H2522 0.930 . S
C2532 C2531 1.400 . S
C2532 C2535 1.386 . S
H2533 C2549 0.930 . S
H2534 C2550 0.931 . S
C2535 H2523 0.929 . S
C2535 C2529 1.390 . S
C2535 C2532 1.386 . S
C2536 C2531 1.490 . S
C2536 C2538 1.395 . S
C2536 C2539 1.403 . S
H2537 C2543 0.930 . S
C2538 H2524 0.930 . S
C2538 C2536 1.395 . S
C2538 C2541 1.403 . S
C2539 C2536 1.403 . S
C2539 C2540 1.524 . S
C2539 C2543 1.400 . S
C2540 H2525 0.960 . S
C2540 H2526 0.960 . S
C2540 H2527 0.960 . S
C2540 C2539 1.524 . S
C2541 C2538 1.403 . S
C2541 C2542 1.392 . S
C2541 C2545 1.495 . S
C2542 C2541 1.392 . S
C2542 C2543 1.385 . S
C2542 C2544 1.478 . S
C2543 H2537 0.930 . S
C2543 C2539 1.400 . S
C2543 C2542 1.385 . S
C2544 C2542 1.478 . S
C2544 C2546 1.381 . S
C2544 C2550 1.383 . S
C2545 C2541 1.495 . S
C2545 H2551 0.959 . S
C2545 H2552 0.961 . S
C2545 H2553 0.960 . S
C2546 C2544 1.381 . S
C2546 C2547 1.394 . S
C2546 H2554 0.930 . S
C2547 C2546 1.394 . S
C2547 C2548 1.383 . S
C2547 H2555 0.929 . S
C2548 C2547 1.383 . S
C2548 C2549 1.377 . S
C2549 H2533 0.930 . S
C2549 C2548 1.377 . S
C2549 C2550 1.379 . S
C2550 H2534 0.931 . S
C2550 C2544 1.383 . S
C2550 C2549 1.379 . S
H2551 C2545 0.959 . S
H2552 C2545 0.961 . S
H2553 C2545 0.960 . S
H2554 C2546 0.930 . S
H2555 C2547 0.929 . S
H2556 C2564 0.929 . S
H2557 C2566 0.930 . S
H2558 C2568 0.930 . S
H2559 C2571 0.929 . S
H2560 C2574 0.930 . S
H2561 C2576 0.960 . S
H2562 C2576 0.960 . S
H2563 C2576 0.960 . S
C2564 H2556 0.929 . S
C2564 C2565 1.377 . S
C2564 C2566 1.384 . S
C2565 C2564 1.377 . S
C2565 C2571 1.390 . S
C2566 H2557 0.930 . S
C2566 C2564 1.384 . S
C2566 C2567 1.372 . S
C2567 C2566 1.372 . S
C2567 C2568 1.400 . S
C2567 C2572 1.490 . S
C2568 H2558 0.930 . S
C2568 C2567 1.400 . S
C2568 C2571 1.386 . S
H2569 C2585 0.930 . S
H2570 C2586 0.931 . S
C2571 H2559 0.929 . S
C2571 C2565 1.390 . S
C2571 C2568 1.386 . S
C2572 C2567 1.490 . S
C2572 C2574 1.395 . S
C2572 C2575 1.403 . S
H2573 C2579 0.930 . S
C2574 H2560 0.930 . S
C2574 C2572 1.395 . S
C2574 C2577 1.403 . S
C2575 C2572 1.403 . S
C2575 C2576 1.524 . S
C2575 C2579 1.400 . S
C2576 H2561 0.960 . S
C2576 H2562 0.960 . S
C2576 H2563 0.960 . S
C2576 C2575 1.524 . S
C2577 C2574 1.403 . S
C2577 C2578 1.392 . S
C2577 C2581 1.495 . S
C2578 C2577 1.392 . S
C2578 C2579 1.385 . S
C2578 C2580 1.478 . S
C2579 H2573 0.930 . S
C2579 C2575 1.400 . S
C2579 C2578 1.385 . S
C2580 C2578 1.478 . S
C2580 C2582 1.381 . S
C2580 C2586 1.383 . S
C2581 C2577 1.495 . S
C2581 H2587 0.959 . S
C2581 H2588 0.961 . S
C2581 H2589 0.960 . S
C2582 C2580 1.381 . S
C2582 C2583 1.394 . S
C2582 H2590 0.930 . S
C2583 C2582 1.394 . S
C2583 C2584 1.383 . S
C2583 H2591 0.929 . S
C2584 C2583 1.383 . S
C2584 C2585 1.377 . S
C2585 H2569 0.930 . S
C2585 C2584 1.377 . S
C2585 C2586 1.379 . S
C2586 H2570 0.931 . S
C2586 C2580 1.383 . S
C2586 C2585 1.379 . S
H2587 C2581 0.959 . S
H2588 C2581 0.961 . S
H2589 C2581 0.960 . S
H2590 C2582 0.930 . S
H2591 C2583 0.929 . S
C873 C506 1.419 . S
C892 C4 1.437 . S
C909 C40 1.243 . S
C928 C554 1.188 . S
C945 C650 1.413 . S
C964 C75 1.425 . S
C981 C111 1.286 . S
C1000 C471 1.286 . S
C1017 C518 1.410 . S
C1036 C147 1.449 . S
C1053 C182 1.265 . S
C1072 C542 1.247 . S
C1089 C220 1.413 . S
C1108 C662 1.384 . S
C1125 C266 1.215 . S
C1144 C472 1.250 . S
C1161 C328 1.410 . S
C1180 C302 1.355 . S
C1197 C374 1.416 . S
C1216 C327 1.450 . S
C1233 C362 1.415 . S
C1252 C400 1.420 . S
C1269 C399 1.430 . S
C1288 C290 1.408 . S
C1305 C446 1.224 . S
C1324 C112 1.253 . S
C1341 C148 1.413 . S
C1360 C590 1.382 . S
C1377 C615 1.287 . S
C1396 C39 1.280 . S
C1413 C50 1.324 . S
C1432 C759 1.364 . S
C1449 C338 1.598 . S
C1468 C2 1.614 . S
C1485 C832 1.430 . S
C1504 C110 1.430 . S
C1521 C410 1.584 . S
C1540 C86 1.567 . S
C1557 C760 1.428 . S
C1576 C256 1.436 . S
C1593 C326 1.582 . S
C1612 C218 1.576 . S
C1629 C183 1.438 . S
C1648 C831 1.432 . S
C1665 C158 1.589 . S
C1684 C398 1.618 . S
C1701 C543 1.439 . S
C1720 C687 1.440 . S
C1737 C580 1.432 . S
C1756 C544 1.435 . S
C1773 C482 1.333 . S
C1792 C579 1.358 . S
C1809 C688 1.429 . S
C1828 C470 1.415 . S
C1845 C74 1.613 . S
C1864 C734 1.582 . S
C1881 C363 1.439 . S
C1900 C255 1.433 . S
C1917 C14 1.590 . S
C1936 C806 1.598 . S
C1953 C686 1.420 . S
C1972 C76 1.437 . S
C1989 C3 1.430 . S
C2008 C578 1.392 . S
C2025 C698 1.413 . S
C2044 C219 1.446 . S
C2061 C434 1.265 . S
C2080 C254 1.268 . S
C2097 C194 1.214 . S
C2116 C616 1.246 . S
C2133 C770 1.374 . S
C2152 C724 1.405 . S
C2169 C842 1.411 . S
C2188 C723 1.445 . S
C2205 C796 1.431 . S
C2224 C830 1.431 . S
C2241 C758 1.411 . S
C2260 C795 1.426 . S
C2277 C291 1.365 . S
C2296 C122 1.308 . S
C2313 C38 1.421 . S
C2332 C364 1.430 . S
C2349 C184 1.431 . S
C2368 C292 1.439 . S
C2385 C722 1.581 . S
C2404 C146 1.580 . S
C2421 C230 1.597 . S
C2440 C794 1.606 . S
C2457 C435 1.438 . S
C2476 C507 1.432 . S
C2493 C652 1.431 . S
C2512 C436 1.420 . S
C2529 C626 1.324 . S
C2548 C651 1.364 . S
C2565 C508 1.428 . S
C2584 C614 1.428 . S
