# Generated by pormake.
# Topology ukb, (4)-cn, num edge types: 1
# Building blocks:
#     Node 0, Type 0, BuildingBlock: KUFVIS_clean_sbu_0, # of connection points: 4
#     Node 1, Type 0, BuildingBlock: KUFVIS_clean_sbu_0, # of connection points: 4
#     Node 2, Type 0, BuildingBlock: KUFVIS_clean_sbu_0, # of connection points: 4
#     Node 3, Type 0, BuildingBlock: KUFVIS_clean_sbu_0, # of connection points: 4
#     Node 4, Type 0, BuildingBlock: KUFVIS_clean_sbu_0, # of connection points: 4
#     Node 5, Type 0, BuildingBlock: KUFVIS_clean_sbu_0, # of connection points: 4
#     Node 6, Type 0, BuildingBlock: KUFVIS_clean_sbu_0, # of connection points: 4
#     Node 7, Type 0, BuildingBlock: KUFVIS_clean_sbu_0, # of connection points: 4
#     Node 8, Type 0, BuildingBlock: KUFVIS_clean_sbu_0, # of connection points: 4
#     Node 9, Type 0, BuildingBlock: KUFVIS_clean_sbu_0, # of connection points: 4
#     Node 10, Type 0, BuildingBlock: KUFVIS_clean_sbu_0, # of connection points: 4
#     Node 11, Type 0, BuildingBlock: KUFVIS_clean_sbu_0, # of connection points: 4
#     Node 12, Type 0, BuildingBlock: KUFVIS_clean_sbu_0, # of connection points: 4
#     Node 13, Type 0, BuildingBlock: KUFVIS_clean_sbu_0, # of connection points: 4
#     Node 14, Type 0, BuildingBlock: KUFVIS_clean_sbu_0, # of connection points: 4
#     Node 15, Type 0, BuildingBlock: KUFVIS_clean_sbu_0, # of connection points: 4
#     Edge 16, Type (0, 0), BuildingBlock: CIFDUS_clean_linker_0, # of connection points: 2
#     Edge 17, Type (0, 0), BuildingBlock: CIFDUS_clean_linker_0, # of connection points: 2
#     Edge 18, Type (0, 0), BuildingBlock: CIFDUS_clean_linker_0, # of connection points: 2
#     Edge 19, Type (0, 0), BuildingBlock: CIFDUS_clean_linker_0, # of connection points: 2
#     Edge 20, Type (0, 0), BuildingBlock: CIFDUS_clean_linker_0, # of connection points: 2
#     Edge 21, Type (0, 0), BuildingBlock: CIFDUS_clean_linker_0, # of connection points: 2
#     Edge 22, Type (0, 0), BuildingBlock: CIFDUS_clean_linker_0, # of connection points: 2
#     Edge 23, Type (0, 0), BuildingBlock: CIFDUS_clean_linker_0, # of connection points: 2
#     Edge 24, Type (0, 0), BuildingBlock: CIFDUS_clean_linker_0, # of connection points: 2
#     Edge 25, Type (0, 0), BuildingBlock: CIFDUS_clean_linker_0, # of connection points: 2
#     Edge 26, Type (0, 0), BuildingBlock: CIFDUS_clean_linker_0, # of connection points: 2
#     Edge 27, Type (0, 0), BuildingBlock: CIFDUS_clean_linker_0, # of connection points: 2
#     Edge 28, Type (0, 0), BuildingBlock: CIFDUS_clean_linker_0, # of connection points: 2
#     Edge 29, Type (0, 0), BuildingBlock: CIFDUS_clean_linker_0, # of connection points: 2
#     Edge 30, Type (0, 0), BuildingBlock: CIFDUS_clean_linker_0, # of connection points: 2
#     Edge 31, Type (0, 0), BuildingBlock: CIFDUS_clean_linker_0, # of connection points: 2
#     Edge 32, Type (0, 0), BuildingBlock: CIFDUS_clean_linker_0, # of connection points: 2
#     Edge 33, Type (0, 0), BuildingBlock: CIFDUS_clean_linker_0, # of connection points: 2
#     Edge 34, Type (0, 0), BuildingBlock: CIFDUS_clean_linker_0, # of connection points: 2
#     Edge 35, Type (0, 0), BuildingBlock: CIFDUS_clean_linker_0, # of connection points: 2
#     Edge 36, Type (0, 0), BuildingBlock: CIFDUS_clean_linker_0, # of connection points: 2
#     Edge 37, Type (0, 0), BuildingBlock: CIFDUS_clean_linker_0, # of connection points: 2
#     Edge 38, Type (0, 0), BuildingBlock: CIFDUS_clean_linker_0, # of connection points: 2
#     Edge 39, Type (0, 0), BuildingBlock: CIFDUS_clean_linker_0, # of connection points: 2
#     Edge 40, Type (0, 0), BuildingBlock: CIFDUS_clean_linker_0, # of connection points: 2
#     Edge 41, Type (0, 0), BuildingBlock: CIFDUS_clean_linker_0, # of connection points: 2
#     Edge 42, Type (0, 0), BuildingBlock: CIFDUS_clean_linker_0, # of connection points: 2
#     Edge 43, Type (0, 0), BuildingBlock: CIFDUS_clean_linker_0, # of connection points: 2
#     Edge 44, Type (0, 0), BuildingBlock: CIFDUS_clean_linker_0, # of connection points: 2
#     Edge 45, Type (0, 0), BuildingBlock: CIFDUS_clean_linker_0, # of connection points: 2
#     Edge 46, Type (0, 0), BuildingBlock: CIFDUS_clean_linker_0, # of connection points: 2
#     Edge 47, Type (0, 0), BuildingBlock: CIFDUS_clean_linker_0, # of connection points: 2
# Relax obj value: 0.089
# Max RMSD: 0.070
# Mean RMSD: 0.070
data_MOF--net-ukb--node1-KUFVIS_clean_sbu_0--edge1-CIFDUS_clean_linker_0
_symmetry_space_group_name_H-M    P1
_symmetry_Int_Tables_number       1
_symmetry_cell_setting            triclinic
loop_
_symmetry_equiv_pos_as_xyz
'x, y, z'
_cell_length_a     38.082432
_cell_length_b     38.106645
_cell_length_c     33.310724
_cell_angle_alpha  89.973753
_cell_angle_beta   90.024727
_cell_angle_gamma 89.988245
loop_
_atom_site_label
_atom_site_type_symbol
_atom_site_fract_x
_atom_site_fract_y
_atom_site_fract_z
_atom_type_partial_charge
Mn0 Mn 0.53726 0.17072 0.18366 0.0
Mn1 Mn 0.61582 0.17967 0.1373 0.0
C2 C 0.58647 0.14402 0.21082 0.0
C3 C 0.48477 0.13954 0.19118 0.0
C4 C 0.58297 0.23645 0.1892 0.0
O5 O 0.52383 0.19015 0.12858 0.0
O6 O 0.57708 0.18952 0.09885 0.0
C7 C 0.61052 0.11967 0.08131 0.0
N8 N 0.62817 0.13703 0.11077 0.0
C9 C 0.6753 0.09499 0.10929 0.0
C10 C 0.65773 0.07674 0.07874 0.0
C11 C 0.62514 0.08907 0.0648 0.0
C12 C 0.65938 0.12524 0.12467 0.0
H13 H 0.5855 0.12915 0.07052 0.0
C14 C 0.54384 0.19454 0.09829 0.0
O15 O 0.48729 0.17198 0.20291 0.0
O16 O 0.51189 0.12633 0.17325 0.0
N17 N 0.65629 0.17146 0.17015 0.0
C18 C 0.66942 0.19162 0.20046 0.0
C19 C 0.70175 0.1827 0.21802 0.0
C20 C 0.72054 0.15352 0.20384 0.0
C21 C 0.70684 0.13357 0.17211 0.0
C22 C 0.67456 0.14381 0.15567 0.0
H23 H 0.65528 0.21427 0.2113 0.0
O24 O 0.55866 0.14926 0.23236 0.0
O25 O 0.58451 0.15364 0.17334 0.0
O26 O 0.55571 0.21941 0.20038 0.0
O27 O 0.60571 0.22417 0.16475 0.0
C28 C 0.72364 0.10354 0.15661 0.0
C29 C 0.7078 0.08418 0.12536 0.0
H30 H 0.66892 0.05313 0.06592 0.0
H31 H 0.61137 0.07505 0.04134 0.0
H32 H 0.71218 0.19826 0.24244 0.0
H33 H 0.74534 0.14655 0.21769 0.0
H34 H 0.74852 0.09486 0.16887 0.0
H35 H 0.72077 0.06091 0.11403 0.0
Mn36 Mn 0.31624 0.53235 0.68722 0.0
Mn37 Mn 0.30694 0.60875 0.63641 0.0
C38 C 0.34531 0.58201 0.70939 0.0
C39 C 0.3463 0.47942 0.69602 0.0
C40 C 0.25174 0.57985 0.69346 0.0
O41 O 0.29346 0.51695 0.6346 0.0
O42 O 0.29436 0.56856 0.60131 0.0
C43 C 0.36429 0.59894 0.5776 0.0
N44 N 0.34874 0.61849 0.60681 0.0
C45 C 0.39219 0.66395 0.60022 0.0
C46 C 0.4086 0.6444 0.56989 0.0
C47 C 0.39465 0.6117 0.55864 0.0
C48 C 0.36212 0.64981 0.61815 0.0
H49 H 0.35356 0.57383 0.56888 0.0
C50 C 0.28821 0.53559 0.60333 0.0
O51 O 0.31468 0.48361 0.70991 0.0
O52 O 0.35941 0.50513 0.67545 0.0
N53 N 0.31758 0.65052 0.66594 0.0
C54 C 0.2987 0.66601 0.69586 0.0
C55 C 0.3091 0.69895 0.71057 0.0
C56 C 0.33844 0.7159 0.69395 0.0
C57 C 0.35698 0.69982 0.66257 0.0
C58 C 0.34525 0.66706 0.64899 0.0
H59 H 0.27596 0.65329 0.70858 0.0
O60 O 0.34069 0.55541 0.733 0.0
O61 O 0.33379 0.5785 0.6728 0.0
O62 O 0.26883 0.55292 0.7056 0.0
O63 O 0.26339 0.60116 0.66697 0.0
C64 C 0.38691 0.71479 0.64456 0.0
C65 C 0.4046 0.69679 0.61355 0.0
H66 H 0.43199 0.65417 0.55515 0.0
H67 H 0.40724 0.59642 0.53535 0.0
H68 H 0.29457 0.71121 0.7347 0.0
H69 H 0.34657 0.74116 0.70561 0.0
H70 H 0.39674 0.73998 0.65459 0.0
H71 H 0.42778 0.70842 0.6002 0.0
Mn72 Mn 0.97051 0.32214 0.18427 0.0
Mn73 Mn 0.89492 0.3271 0.13115 0.0
C74 C 0.92655 0.35931 0.20641 0.0
C75 C 0.02809 0.34096 0.19374 0.0
C76 C 0.91219 0.26726 0.1883 0.0
O77 O 0.98223 0.29673 0.1322 0.0
O78 O 0.93336 0.30867 0.09657 0.0
C79 C 0.91574 0.3831 0.07444 0.0
N80 N 0.89293 0.37034 0.10231 0.0
C81 C 0.85443 0.41985 0.09396 0.0
C82 C 0.87741 0.4335 0.06498 0.0
C83 C 0.90827 0.41511 0.05532 0.0
C84 C 0.8634 0.388 0.1122 0.0
H85 H 0.93938 0.3689 0.06687 0.0
C86 C 0.96431 0.29593 0.09992 0.0
O87 O 0.01751 0.31095 0.20771 0.0
O88 O 0.00583 0.35918 0.17295 0.0
N89 N 0.85452 0.34388 0.15944 0.0
C90 C 0.83546 0.32744 0.18855 0.0
C91 C 0.80378 0.3424 0.20172 0.0
C92 C 0.79165 0.3737 0.18429 0.0
C93 C 0.81135 0.38979 0.15383 0.0
C94 C 0.84267 0.37359 0.14186 0.0
H95 H 0.84435 0.30312 0.2017 0.0
O96 O 0.95219 0.35023 0.22973 0.0
O97 O 0.92823 0.34789 0.16948 0.0
O98 O 0.94107 0.27951 0.20212 0.0
O99 O 0.89437 0.28236 0.16073 0.0
C100 C 0.80149 0.42159 0.1354 0.0
C101 C 0.82311 0.43671 0.10564 0.0
H102 H 0.87169 0.45812 0.05009 0.0
H103 H 0.92617 0.42552 0.03308 0.0
H104 H 0.78871 0.32982 0.22522 0.0
H105 H 0.76734 0.3853 0.19474 0.0
H106 H 0.77753 0.43484 0.1442 0.0
H107 H 0.81543 0.46135 0.092 0.0
Mn108 Mn 0.17937 0.96449 0.68859 0.0
Mn109 Mn 0.17165 0.88565 0.64348 0.0
C110 C 0.14664 0.92084 0.71946 0.0
C111 C 0.15884 0.02169 0.69616 0.0
C112 C 0.23777 0.91046 0.68639 0.0
O113 O 0.19683 0.97331 0.63131 0.0
O114 O 0.17981 0.92252 0.60227 0.0
C115 C 0.10563 0.89579 0.59805 0.0
N116 N 0.12497 0.87713 0.625 0.0
C117 C 0.07946 0.83369 0.63157 0.0
C118 C 0.05912 0.85231 0.60365 0.0
C119 C 0.0722 0.88358 0.58697 0.0
C120 C 0.11252 0.84719 0.64152 0.0
H121 H 0.11569 0.91976 0.58514 0.0
C122 C 0.19201 0.95384 0.60056 0.0
O123 O 0.19079 0.0134 0.70599 0.0
O124 O 0.13944 0.99729 0.68065 0.0
N125 N 0.16376 0.84728 0.67957 0.0
C126 C 0.18575 0.83358 0.70786 0.0
C127 C 0.17616 0.80276 0.72823 0.0
C128 C 0.14432 0.78605 0.71896 0.0
C129 C 0.12229 0.80039 0.68946 0.0
C130 C 0.13326 0.83115 0.6701 0.0
H131 H 0.21042 0.84604 0.71492 0.0
O132 O 0.15777 0.94762 0.73976 0.0
O133 O 0.15411 0.92081 0.68136 0.0
O134 O 0.22523 0.93849 0.70175 0.0
O135 O 0.22049 0.89102 0.66218 0.0
C136 C 0.08949 0.78585 0.67916 0.0
C137 C 0.06803 0.80256 0.65035 0.0
H138 H 0.03333 0.843 0.59503 0.0
H139 H 0.05659 0.89817 0.56555 0.0
H140 H 0.19326 0.79191 0.75103 0.0
H141 H 0.13688 0.76247 0.73499 0.0
H142 H 0.08025 0.76217 0.69374 0.0
H143 H 0.04262 0.79145 0.64318 0.0
Mn144 Mn 0.52808 0.31894 0.81398 0.0
Mn145 Mn 0.60824 0.31889 0.85839 0.0
C146 C 0.57507 0.34525 0.78175 0.0
C147 C 0.47328 0.34472 0.80364 0.0
C148 C 0.57839 0.25617 0.81377 0.0
O149 O 0.51686 0.30387 0.87146 0.0
O150 O 0.57087 0.3093 0.89845 0.0
C151 C 0.5984 0.38267 0.90779 0.0
N152 N 0.61739 0.36428 0.8803 0.0
C153 C 0.66194 0.40899 0.87825 0.0
C154 C 0.64298 0.42835 0.90673 0.0
C155 C 0.61097 0.41522 0.92138 0.0
C156 C 0.64785 0.37698 0.86542 0.0
H157 H 0.57389 0.37253 0.91923 0.0
C158 C 0.53804 0.30272 0.90112 0.0
O159 O 0.47838 0.31164 0.79652 0.0
O160 O 0.49927 0.36229 0.8187 0.0
N161 N 0.64802 0.32742 0.82462 0.0
C162 C 0.66317 0.30547 0.79733 0.0
C163 C 0.69547 0.31466 0.77989 0.0
C164 C 0.7123 0.34586 0.7914 0.0
C165 C 0.69669 0.36759 0.82026 0.0
C166 C 0.66444 0.35711 0.83653 0.0
H167 H 0.65071 0.2811 0.78894 0.0
O168 O 0.54698 0.3366 0.76221 0.0
O169 O 0.57459 0.33968 0.82038 0.0
O170 O 0.54951 0.27042 0.80286 0.0
O171 O 0.6013 0.2717 0.83549 0.0
C172 C 0.71178 0.39933 0.83339 0.0
C173 C 0.69426 0.42018 0.86209 0.0
H174 H 0.6527 0.45335 0.91749 0.0
H175 H 0.59613 0.43005 0.94327 0.0
H176 H 0.70749 0.29762 0.75783 0.0
H177 H 0.73724 0.35285 0.77804 0.0
H178 H 0.73662 0.40818 0.82118 0.0
H179 H 0.70589 0.44476 0.87154 0.0
Mn180 Mn 0.18994 0.52175 0.30247 0.0
Mn181 Mn 0.19207 0.59936 0.35151 0.0
C182 C 0.16018 0.56932 0.27568 0.0
C183 C 0.1642 0.46678 0.29443 0.0
C184 C 0.25227 0.57175 0.30033 0.0
O185 O 0.21086 0.50914 0.35703 0.0
O186 O 0.20237 0.56038 0.38937 0.0
C187 C 0.13002 0.58899 0.40361 0.0
N188 N 0.14764 0.60848 0.37591 0.0
C189 C 0.10332 0.65346 0.37733 0.0
C190 C 0.08475 0.63396 0.40603 0.0
C191 C 0.09808 0.6015 0.41907 0.0
C192 C 0.13476 0.63944 0.36264 0.0
H193 H 0.14033 0.56412 0.41382 0.0
C194 C 0.21155 0.52809 0.38855 0.0
O195 O 0.196 0.47278 0.28218 0.0
O196 O 0.14799 0.49209 0.31263 0.0
N197 N 0.18299 0.64028 0.31977 0.0
C198 C 0.2042 0.65596 0.29208 0.0
C199 C 0.19477 0.68878 0.27617 0.0
C200 C 0.16406 0.70551 0.28951 0.0
C201 C 0.1431 0.68932 0.31871 0.0
C202 C 0.15384 0.6566 0.33348 0.0
H203 H 0.22817 0.64357 0.28222 0.0
O204 O 0.16689 0.54191 0.25404 0.0
O205 O 0.16938 0.56746 0.31331 0.0
O206 O 0.23679 0.54451 0.28657 0.0
O207 O 0.23841 0.5924 0.32615 0.0
C208 C 0.11191 0.7043 0.33365 0.0
C209 C 0.09187 0.68625 0.36269 0.0
H210 H 0.06021 0.64362 0.41821 0.0
H211 H 0.08385 0.58625 0.44114 0.0
H212 H 0.21124 0.70125 0.25386 0.0
H213 H 0.15688 0.73083 0.2773 0.0
H214 H 0.10286 0.72948 0.32262 0.0
H215 H 0.0677 0.69781 0.37357 0.0
Mn216 Mn 0.98095 0.18729 0.80271 0.0
Mn217 Mn 0.90263 0.18932 0.85071 0.0
C218 C 0.93365 0.15776 0.7752 0.0
C219 C 0.03602 0.16157 0.79503 0.0
C220 C 0.92985 0.24896 0.79859 0.0
O221 O 0.99318 0.20844 0.85725 0.0
O222 O 0.94117 0.20143 0.88834 0.0
C223 C 0.91489 0.12861 0.90432 0.0
N224 N 0.89475 0.1452 0.87637 0.0
C225 C 0.85092 0.09984 0.87932 0.0
C226 C 0.87108 0.08232 0.90832 0.0
C227 C 0.9033 0.09668 0.92071 0.0
C228 C 0.86409 0.13127 0.86364 0.0
H229 H 0.93957 0.1397 0.91403 0.0
C230 C 0.97357 0.21019 0.88818 0.0
O231 O 0.03008 0.19338 0.78279 0.0
O232 O 0.01064 0.14542 0.81319 0.0
N233 N 0.86173 0.17865 0.81957 0.0
C234 C 0.84502 0.19925 0.79206 0.0
C235 C 0.8121 0.18896 0.7771 0.0
C236 C 0.79627 0.15809 0.79134 0.0
C237 C 0.81346 0.13783 0.82044 0.0
C238 C 0.84622 0.14939 0.83422 0.0
H239 H 0.85667 0.22342 0.78163 0.0
O240 O 0.96139 0.16431 0.75407 0.0
O241 O 0.93506 0.16667 0.81297 0.0
O242 O 0.95795 0.23395 0.78639 0.0
O243 O 0.90861 0.2351 0.82382 0.0
C244 C 0.79935 0.10659 0.83632 0.0
C245 C 0.81824 0.08742 0.86545 0.0
H246 H 0.8621 0.05783 0.92125 0.0
H247 H 0.91906 0.08327 0.94299 0.0
H248 H 0.79886 0.20491 0.75487 0.0
H249 H 0.77084 0.15025 0.77995 0.0
H250 H 0.77417 0.09689 0.82602 0.0
H251 H 0.80731 0.06323 0.87711 0.0
Mn252 Mn 0.30778 0.97294 0.31017 0.0
Mn253 Mn 0.30489 0.8937 0.35623 0.0
C254 C 0.33143 0.92432 0.27891 0.0
C255 C 0.33706 0.02546 0.29711 0.0
C256 C 0.24311 0.92477 0.31114 0.0
O257 O 0.2948 0.98618 0.36767 0.0
O258 O 0.29502 0.93202 0.39491 0.0
C259 C 0.36796 0.90342 0.40697 0.0
N260 N 0.34985 0.88434 0.3793 0.0
C261 C 0.39465 0.83981 0.37812 0.0
C262 C 0.41374 0.8589 0.40674 0.0
C263 C 0.4004 0.89092 0.42109 0.0
C264 C 0.3627 0.85379 0.36483 0.0
H265 H 0.35767 0.92795 0.41817 0.0
C266 C 0.29112 0.96527 0.39728 0.0
O267 O 0.30341 0.02282 0.29139 0.0
O268 O 0.35285 0.99873 0.31292 0.0
N269 N 0.31337 0.85322 0.32362 0.0
C270 C 0.2915 0.83781 0.29642 0.0
C271 C 0.30087 0.80545 0.27929 0.0
C272 C 0.33218 0.78887 0.29101 0.0
C273 C 0.35375 0.80471 0.3199 0.0
C274 C 0.34306 0.83698 0.33589 0.0
H275 H 0.2671 0.85013 0.28786 0.0
O276 O 0.32325 0.95205 0.2585 0.0
O277 O 0.32664 0.92593 0.3176 0.0
O278 O 0.25778 0.95365 0.30085 0.0
O279 O 0.25839 0.90116 0.3321 0.0
C280 C 0.38551 0.78981 0.33336 0.0
C281 C 0.40608 0.80749 0.36222 0.0
H282 H 0.43867 0.84927 0.41787 0.0
H283 H 0.41501 0.90584 0.44311 0.0
H284 H 0.2839 0.79324 0.25728 0.0
H285 H 0.33935 0.76393 0.27778 0.0
H286 H 0.39455 0.76498 0.32137 0.0
H287 H 0.43066 0.79598 0.37199 0.0
Mn288 Mn 0.46342 0.81656 0.8122 0.0
Mn289 Mn 0.39035 0.81877 0.86969 0.0
C290 C 0.41539 0.84864 0.79052 0.0
C291 C 0.51849 0.84085 0.79816 0.0
C292 C 0.4101 0.757 0.81633 0.0
O293 O 0.47952 0.79524 0.86521 0.0
O294 O 0.4316 0.80551 0.90312 0.0
C295 C 0.40912 0.87966 0.92037 0.0
N296 N 0.38629 0.86357 0.89488 0.0
C297 C 0.34527 0.91138 0.89992 0.0
C298 C 0.36825 0.92842 0.92644 0.0
C299 C 0.40037 0.91254 0.93658 0.0
C300 C 0.35551 0.87877 0.88457 0.0
H301 H 0.4338 0.86746 0.92823 0.0
C302 C 0.46318 0.79473 0.89858 0.0
O303 O 0.51089 0.80898 0.7872 0.0
O304 O 0.49488 0.85741 0.8187 0.0
N305 N 0.34768 0.83066 0.8425 0.0
C306 C 0.32853 0.81082 0.81639 0.0
C307 C 0.29563 0.82292 0.80325 0.0
C308 C 0.28244 0.85495 0.81764 0.0
C309 C 0.30221 0.8745 0.84524 0.0
C310 C 0.33475 0.86102 0.8574 0.0
H311 H 0.33832 0.78599 0.80553 0.0
O312 O 0.44033 0.84029 0.76591 0.0
O313 O 0.41998 0.83938 0.82782 0.0
O314 O 0.43718 0.77057 0.7996 0.0
O315 O 0.39229 0.7724 0.84372 0.0
C316 C 0.29114 0.90707 0.86076 0.0
C317 C 0.31273 0.92558 0.88791 0.0
H318 H 0.36157 0.95375 0.93905 0.0
H319 H 0.41829 0.92558 0.95691 0.0
H320 H 0.28049 0.80762 0.78206 0.0
H321 H 0.25719 0.86434 0.80717 0.0
H322 H 0.26622 0.91827 0.8517 0.0
H323 H 0.30409 0.95075 0.89933 0.0
Mn324 Mn 0.68688 0.46099 0.3103 0.0
Mn325 Mn 0.69113 0.38332 0.35897 0.0
C326 C 0.66742 0.4105 0.2786 0.0
C327 C 0.6534 0.51069 0.29516 0.0
C328 C 0.75416 0.41844 0.31948 0.0
O329 O 0.69717 0.47549 0.36825 0.0
O330 O 0.69211 0.42258 0.39815 0.0
C331 C 0.62224 0.3859 0.39992 0.0
N332 N 0.64528 0.369 0.37539 0.0
C333 C 0.60612 0.31985 0.36815 0.0
C334 C 0.58205 0.33663 0.39358 0.0
C335 C 0.59008 0.36987 0.40937 0.0
C336 C 0.63761 0.33724 0.35957 0.0
H337 H 0.62841 0.41142 0.41213 0.0
C338 C 0.6966 0.45586 0.39932 0.0
O339 O 0.68733 0.51113 0.29062 0.0
O340 O 0.64001 0.48296 0.31143 0.0
N341 N 0.69072 0.34241 0.32556 0.0
C342 C 0.71647 0.33006 0.30088 0.0
C343 C 0.71232 0.29728 0.28221 0.0
C344 C 0.68208 0.27722 0.28967 0.0
C345 C 0.65633 0.29007 0.3159 0.0
C346 C 0.66191 0.32292 0.33364 0.0
H347 H 0.73996 0.34514 0.29532 0.0
O348 O 0.67448 0.43848 0.25814 0.0
O349 O 0.67074 0.4131 0.31735 0.0
O350 O 0.73828 0.44476 0.30382 0.0
O351 O 0.73893 0.39573 0.34178 0.0
C352 C 0.62517 0.27173 0.32481 0.0
C353 C 0.6 0.28669 0.35076 0.0
H354 H 0.55725 0.32432 0.40101 0.0
H355 H 0.57158 0.38304 0.42886 0.0
H356 H 0.73242 0.28746 0.26218 0.0
H357 H 0.67888 0.25202 0.27509 0.0
H358 H 0.62006 0.24634 0.31139 0.0
H359 H 0.57591 0.27258 0.35691 0.0
Mn360 Mn 0.03092 0.68854 0.81884 0.0
Mn361 Mn 0.10896 0.68491 0.86733 0.0
C362 C 0.07985 0.66691 0.78572 0.0
C363 C 0.97782 0.66114 0.80253 0.0
C364 C 0.07867 0.75192 0.83171 0.0
O365 O 0.01738 0.69709 0.87746 0.0
O366 O 0.06989 0.68718 0.9067 0.0
C367 C 0.10132 0.61481 0.90456 0.0
N368 N 0.11992 0.63757 0.88134 0.0
C369 C 0.16687 0.59588 0.87334 0.0
C370 C 0.1483 0.57203 0.89738 0.0
C371 C 0.1153 0.58148 0.91287 0.0
C372 C 0.15143 0.62856 0.86575 0.0
H373 H 0.07604 0.62212 0.91667 0.0
C374 C 0.03699 0.69392 0.90834 0.0
O375 O 0.98099 0.69505 0.80033 0.0
O376 O 0.0044 0.64383 0.81647 0.0
N377 N 0.14987 0.68292 0.83397 0.0
C378 C 0.16403 0.70864 0.81055 0.0
C379 C 0.19678 0.70315 0.79221 0.0
C380 C 0.21504 0.67165 0.79885 0.0
C381 C 0.20036 0.64592 0.82384 0.0
C382 C 0.16755 0.65279 0.84116 0.0
H383 H 0.15043 0.73313 0.80578 0.0
O384 O 0.05239 0.67701 0.76589 0.0
O385 O 0.07757 0.66846 0.82467 0.0
O386 O 0.05119 0.73862 0.8156 0.0
O387 O 0.10035 0.73424 0.85292 0.0
C388 C 0.21681 0.61355 0.8319 0.0
C389 C 0.19998 0.58846 0.85644 0.0
H390 H 0.15907 0.54636 0.904 0.0
H391 H 0.10077 0.56317 0.93134 0.0
H392 H 0.20799 0.72322 0.77312 0.0
H393 H 0.24025 0.66746 0.78455 0.0
H394 H 0.24213 0.60744 0.81883 0.0
H395 H 0.21263 0.56345 0.86189 0.0
Mn396 Mn 0.82407 0.04391 0.32802 0.0
Mn397 Mn 0.81762 0.11895 0.38158 0.0
C398 C 0.84885 0.09506 0.30335 0.0
C399 C 0.85661 0.99308 0.31432 0.0
C400 C 0.7579 0.08908 0.33132 0.0
O401 O 0.80751 0.02678 0.383 0.0
O402 O 0.81056 0.07777 0.4173 0.0
C403 C 0.88121 0.1106 0.43175 0.0
N404 N 0.86198 0.12986 0.40523 0.0
C405 C 0.90479 0.17629 0.40555 0.0
C406 C 0.92496 0.15706 0.43309 0.0
C407 C 0.91316 0.12403 0.44614 0.0
C408 C 0.87321 0.16154 0.39222 0.0
H409 H 0.87221 0.08519 0.44176 0.0
C410 C 0.80524 0.04465 0.41529 0.0
O411 O 0.82351 0.99491 0.30482 0.0
O412 O 0.86945 0.01944 0.33383 0.0
N413 N 0.82358 0.16134 0.35145 0.0
C414 C 0.80122 0.17636 0.32444 0.0
C415 C 0.80929 0.20942 0.30823 0.0
C416 C 0.83996 0.22693 0.32035 0.0
C417 C 0.86214 0.21134 0.34886 0.0
C418 C 0.85262 0.17844 0.36417 0.0
H419 H 0.7775 0.16317 0.31514 0.0
O420 O 0.84281 0.06873 0.27981 0.0
O421 O 0.84119 0.09042 0.34102 0.0
O422 O 0.77433 0.06289 0.31616 0.0
O423 O 0.77152 0.11001 0.35699 0.0
C424 C 0.89357 0.22691 0.3623 0.0
C425 C 0.91495 0.20934 0.39049 0.0
H426 H 0.94964 0.16731 0.44424 0.0
H427 H 0.92866 0.10897 0.46725 0.0
H428 H 0.79195 0.22133 0.28637 0.0
H429 H 0.84627 0.25228 0.30749 0.0
H430 H 0.90172 0.25223 0.35082 0.0
H431 H 0.93923 0.22142 0.40027 0.0
Mn432 Mn 0.47641 0.6907 0.19677 0.0
Mn433 Mn 0.39926 0.69477 0.14647 0.0
C434 C 0.42708 0.66439 0.22395 0.0
C435 C 0.52944 0.66115 0.20757 0.0
C436 C 0.42836 0.75482 0.19663 0.0
O437 O 0.49078 0.70917 0.14169 0.0
O438 O 0.43899 0.70433 0.10943 0.0
C439 C 0.40951 0.63222 0.09522 0.0
N440 N 0.38982 0.65034 0.1223 0.0
C441 C 0.34443 0.60645 0.12079 0.0
C442 C 0.36413 0.58737 0.09272 0.0
C443 C 0.39689 0.60024 0.08003 0.0
C444 C 0.35855 0.63792 0.1352 0.0
H445 H 0.43462 0.64215 0.08531 0.0
C446 C 0.47179 0.71145 0.11027 0.0
O447 O 0.52596 0.69399 0.21744 0.0
O448 O 0.5031 0.64671 0.18937 0.0
N449 N 0.35756 0.68668 0.17721 0.0
C450 C 0.34158 0.70854 0.20397 0.0
C451 C 0.30844 0.69964 0.21944 0.0
C452 C 0.29168 0.66881 0.20655 0.0
C453 C 0.30811 0.6473 0.17805 0.0
C454 C 0.34115 0.65752 0.16371 0.0
H455 H 0.35402 0.73257 0.21346 0.0
O456 O 0.45443 0.67062 0.24588 0.0
O457 O 0.42988 0.67203 0.18595 0.0
O458 O 0.45575 0.73922 0.21008 0.0
O459 O 0.40687 0.74084 0.17178 0.0
C460 C 0.29308 0.61603 0.16342 0.0
C461 C 0.31135 0.59548 0.13505 0.0
H462 H 0.35441 0.56279 0.08077 0.0
H463 H 0.41229 0.58561 0.05846 0.0
H464 H 0.29578 0.71658 0.24113 0.0
H465 H 0.26618 0.66196 0.21863 0.0
H466 H 0.26768 0.60734 0.17415 0.0
H467 H 0.29972 0.57128 0.12438 0.0
Mn468 Mn 0.81614 0.47281 0.68772 0.0
Mn469 Mn 0.80432 0.39423 0.64218 0.0
C470 C 0.83751 0.42226 0.71744 0.0
C471 C 0.85174 0.52251 0.69642 0.0
C472 C 0.74768 0.43047 0.6912 0.0
O473 O 0.80024 0.48704 0.63136 0.0
O474 O 0.79618 0.43318 0.60377 0.0
C475 C 0.86581 0.39818 0.5881 0.0
N476 N 0.84731 0.38087 0.61692 0.0
C477 C 0.8887 0.33314 0.61716 0.0
C478 C 0.90813 0.35037 0.58731 0.0
C479 C 0.8967 0.38309 0.57284 0.0
C480 C 0.85834 0.34963 0.63147 0.0
H481 H 0.85704 0.4233 0.57689 0.0
C482 C 0.79396 0.46661 0.60188 0.0
O483 O 0.81871 0.52318 0.70636 0.0
O484 O 0.8629 0.4941 0.67948 0.0
N485 N 0.81053 0.35327 0.67472 0.0
C486 C 0.78832 0.33972 0.70281 0.0
C487 C 0.79577 0.30695 0.72016 0.0
C488 C 0.82551 0.28804 0.70776 0.0
C489 C 0.8473 0.30193 0.67779 0.0
C490 C 0.8385 0.33471 0.66157 0.0
H491 H 0.76509 0.35384 0.7119 0.0
O492 O 0.83346 0.45068 0.73814 0.0
O493 O 0.83029 0.42438 0.6793 0.0
O494 O 0.76531 0.45771 0.70156 0.0
O495 O 0.75992 0.40615 0.66874 0.0
C496 C 0.87748 0.2846 0.66343 0.0
C497 C 0.89829 0.30031 0.63334 0.0
H498 H 0.93188 0.33875 0.57535 0.0
H499 H 0.91161 0.39658 0.54989 0.0
H500 H 0.77857 0.29623 0.74293 0.0
H501 H 0.83128 0.26284 0.72131 0.0
H502 H 0.88509 0.25935 0.67561 0.0
H503 H 0.92163 0.28691 0.62284 0.0
Mn504 Mn 0.02104 0.80934 0.19865 0.0
Mn505 Mn 0.0995 0.80397 0.15125 0.0
C506 C 0.07075 0.83222 0.22876 0.0
C507 C 0.96965 0.84098 0.21156 0.0
C508 C 0.06785 0.74359 0.19825 0.0
O509 O 0.0066 0.79552 0.14173 0.0
O510 O 0.06038 0.79384 0.11365 0.0
C511 C 0.08966 0.86623 0.09931 0.0
N512 N 0.10901 0.8484 0.12701 0.0
C513 C 0.1536 0.89313 0.12706 0.0
C514 C 0.13425 0.91191 0.09837 0.0
C515 C 0.10207 0.89846 0.08457 0.0
C516 C 0.13972 0.86136 0.14094 0.0
H517 H 0.06497 0.8559 0.08859 0.0
C518 C 0.02702 0.79047 0.11196 0.0
O519 O 0.97102 0.80739 0.2183 0.0
O520 O 0.99678 0.85509 0.19469 0.0
N521 N 0.14072 0.81242 0.1827 0.0
C522 C 0.15663 0.79056 0.20951 0.0
C523 C 0.18931 0.79989 0.22591 0.0
C524 C 0.2057 0.83117 0.21381 0.0
C525 C 0.1894 0.85266 0.18517 0.0
C526 C 0.15684 0.84196 0.16987 0.0
H527 H 0.14443 0.76618 0.2183 0.0
O528 O 0.04299 0.82526 0.24966 0.0
O529 O 0.06848 0.82681 0.19021 0.0
O530 O 0.03932 0.75892 0.20884 0.0
O531 O 0.09152 0.7582 0.17673 0.0
C532 C 0.20413 0.88431 0.17122 0.0
C533 C 0.18611 0.90467 0.14242 0.0
H534 H 0.14381 0.9367 0.08679 0.0
H535 H 0.08694 0.91285 0.06252 0.0
H536 H 0.20192 0.78294 0.24765 0.0
H537 H 0.23088 0.83833 0.2265 0.0
H538 H 0.22915 0.89339 0.18272 0.0
H539 H 0.19754 0.92913 0.13221 0.0
Mn540 Mn 0.688 0.03145 0.7011 0.0
Mn541 Mn 0.6956 0.10926 0.65282 0.0
C542 C 0.66882 0.08244 0.73178 0.0
C543 C 0.65436 0.98195 0.71598 0.0
C544 C 0.75614 0.07394 0.69649 0.0
O545 O 0.69925 0.01629 0.6437 0.0
O546 O 0.70053 0.06969 0.61455 0.0
C547 C 0.62993 0.10421 0.60563 0.0
N548 N 0.65061 0.12203 0.632 0.0
C549 C 0.60896 0.16941 0.63597 0.0
C550 C 0.58728 0.15165 0.60867 0.0
C551 C 0.59776 0.11885 0.59356 0.0
C552 C 0.64056 0.15336 0.64716 0.0
H553 H 0.63792 0.07901 0.59396 0.0
C554 C 0.70273 0.03624 0.61319 0.0
O555 O 0.68819 0.98166 0.72118 0.0
O556 O 0.64095 0.0096 0.69943 0.0
N557 N 0.6918 0.15066 0.68506 0.0
C558 C 0.71611 0.16473 0.71042 0.0
C559 C 0.70979 0.19762 0.72802 0.0
C560 C 0.67895 0.21609 0.71861 0.0
C561 C 0.65491 0.20167 0.69135 0.0
C562 C 0.66266 0.16881 0.67473 0.0
H563 H 0.74016 0.15096 0.71708 0.0
O564 O 0.675 0.05449 0.75268 0.0
O565 O 0.6728 0.07962 0.6931 0.0
O566 O 0.73938 0.04688 0.70887 0.0
O567 O 0.74227 0.09803 0.67486 0.0
C568 C 0.6235 0.21857 0.68008 0.0
C569 C 0.60042 0.20234 0.65261 0.0
H570 H 0.5625 0.16291 0.59918 0.0
H571 H 0.58111 0.10494 0.57259 0.0
H572 H 0.72869 0.20876 0.74866 0.0
H573 H 0.67408 0.24139 0.73231 0.0
H574 H 0.61667 0.24388 0.69266 0.0
H575 H 0.57617 0.2154 0.6445 0.0
H576 H 0.42782 0.15485 0.23912 0.0
H577 H 0.47451 0.07227 0.16808 0.0
H578 H 0.43204 0.03052 0.19395 0.0
H579 H 0.38523 0.01584 0.24086 0.0
H580 H 0.3355 0.09688 0.31054 0.0
H581 H 0.37543 0.14094 0.28123 0.0
C582 C 0.42824 0.12788 0.22879 0.0
C583 C 0.45467 0.1167 0.202 0.0
C584 C 0.40352 0.10365 0.24396 0.0
C585 C 0.45474 0.08164 0.18885 0.0
C586 C 0.43051 0.05761 0.20375 0.0
C587 C 0.38303 0.04326 0.24937 0.0
C588 C 0.35807 0.05327 0.27807 0.0
C589 C 0.40547 0.06809 0.23203 0.0
C590 C 0.35481 0.08876 0.28856 0.0
C591 C 0.37763 0.11381 0.27184 0.0
H592 H 0.34037 0.43627 0.76128 0.0
H593 H 0.40315 0.45542 0.65571 0.0
H594 H 0.44652 0.4128 0.67861 0.0
H595 H 0.46973 0.37476 0.73168 0.0
H596 H 0.40954 0.35708 0.83908 0.0
H597 H 0.36193 0.39424 0.81268 0.0
C598 C 0.36314 0.43045 0.74291 0.0
C599 C 0.36855 0.44899 0.70683 0.0
C600 C 0.38862 0.40652 0.75691 0.0
C601 C 0.39842 0.44155 0.6836 0.0
C602 C 0.42332 0.41729 0.69674 0.0
C603 C 0.44586 0.3787 0.74891 0.0
C604 C 0.44278 0.36338 0.78702 0.0
C605 C 0.41918 0.40039 0.73381 0.0
C606 C 0.41215 0.36866 0.80952 0.0
C607 C 0.38509 0.38992 0.79445 0.0
H608 H 0.05235 0.34839 0.26901 0.0
H609 H 0.07725 0.37081 0.14557 0.0
H610 H 0.12701 0.4072 0.16673 0.0
H611 H 0.15775 0.43925 0.22047 0.0
H612 H 0.12592 0.42457 0.34335 0.0
H613 H 0.08496 0.3783 0.32287 0.0
C614 C 0.06941 0.36046 0.24688 0.0
C615 C 0.06175 0.35664 0.20587 0.0
C616 C 0.09646 0.38305 0.25939 0.0
C617 C 0.0831 0.37321 0.17729 0.0
C618 C 0.11134 0.39413 0.18941 0.0
C619 C 0.14251 0.42511 0.24274 0.0
C620 C 0.14504 0.43469 0.28334 0.0
C621 C 0.11753 0.40019 0.23038 0.0
C622 C 0.12451 0.41719 0.31198 0.0
C623 C 0.101 0.39094 0.30023 0.0
H624 H 0.1543 0.0494 0.77015 0.0
H625 H 0.12606 0.06791 0.64679 0.0
H626 H 0.09004 0.11829 0.66678 0.0
H627 H 0.06022 0.15153 0.72021 0.0
H628 H 0.08079 0.12619 0.84397 0.0
H629 H 0.12646 0.08449 0.82353 0.0
C630 C 0.14101 0.06522 0.7477 0.0
C631 C 0.14315 0.05563 0.70708 0.0
C632 C 0.11872 0.09269 0.75974 0.0
C633 C 0.12502 0.07532 0.67817 0.0
C634 C 0.10431 0.10391 0.68964 0.0
C635 C 0.07553 0.13756 0.74258 0.0
C636 C 0.06784 0.14218 0.78347 0.0
C637 C 0.10007 0.11213 0.73045 0.0
C638 C 0.08678 0.12323 0.81236 0.0
C639 C 0.11266 0.09928 0.80064 0.0
H640 H 0.53572 0.90779 0.81407 0.0
H641 H 0.57257 0.81647 0.75034 0.0
H642 H 0.62053 0.85125 0.72112 0.0
H643 H 0.64905 0.90974 0.70959 0.0
H644 H 0.607 1.00035 0.77044 0.0
H645 H 0.56416 0.96383 0.80489 0.0
C646 C 0.5544 0.8952 0.79415 0.0
C647 C 0.55045 0.85958 0.78435 0.0
C648 C 0.58092 0.91549 0.77662 0.0
C649 C 0.57502 0.84388 0.75845 0.0
C650 C 0.60234 0.86382 0.74157 0.0
C651 C 0.63065 0.92115 0.7307 0.0
C652 C 0.63092 0.95762 0.73746 0.0
C653 C 0.60513 0.89994 0.74976 0.0
C654 C 0.60695 0.97236 0.76462 0.0
C655 C 0.58251 0.95152 0.78438 0.0
H656 H 0.53275 0.59093 0.20612 0.0
H657 H 0.59279 0.68187 0.24087 0.0
H658 H 0.63846 0.64353 0.26938 0.0
H659 H 0.65945 0.58308 0.28784 0.0
H660 H 0.59406 0.49451 0.25707 0.0
H661 H 0.55252 0.53292 0.22377 0.0
C662 C 0.55599 0.60258 0.21945 0.0
C663 C 0.55941 0.63922 0.22112 0.0
C664 C 0.58112 0.58061 0.23699 0.0
C665 C 0.58958 0.65368 0.23903 0.0
C666 C 0.6156 0.63175 0.2555 0.0
C667 C 0.63612 0.57243 0.27372 0.0
C668 C 0.62969 0.53603 0.27525 0.0
C669 C 0.61139 0.59504 0.25526 0.0
C670 C 0.59936 0.52246 0.25689 0.0
C671 C 0.57561 0.54437 0.2376 0.0
H672 H 0.98397 0.60872 0.75046 0.0
H673 H 0.90636 0.67118 0.81134 0.0
H674 H 0.85922 0.63509 0.78177 0.0
H675 H 0.84094 0.58266 0.74149 0.0
H676 H 0.92077 0.52416 0.67806 0.0
H677 H 0.96596 0.56209 0.70514 0.0
C678 C 0.95667 0.61449 0.75714 0.0
C679 C 0.9485 0.64198 0.7835 0.0
C680 C 0.93011 0.59436 0.73939 0.0
C681 C 0.91315 0.64987 0.79129 0.0
C682 C 0.8863 0.62923 0.7744 0.0
C683 C 0.86814 0.57867 0.73309 0.0
C684 C 0.87731 0.55018 0.70808 0.0
C685 C 0.8945 0.60099 0.74875 0.0
C686 C 0.91277 0.54555 0.69742 0.0
C687 C 0.93882 0.5672 0.71302 0.0
H688 H 0.84075 0.9281 0.28107 0.0
H689 H 0.92713 0.9963 0.31277 0.0
H690 H 0.96841 0.95596 0.28271 0.0
H691 H 0.9808 0.90274 0.24601 0.0
H692 H 0.89786 0.82994 0.21819 0.0
H693 H 0.8545 0.87041 0.24801 0.0
C694 C 0.86862 0.93384 0.28166 0.0
C695 C 0.88064 0.9654 0.29912 0.0
C696 C 0.89286 0.90987 0.2647 0.0
C697 C 0.91693 0.97232 0.29981 0.0
C698 C 0.94073 0.9493 0.28238 0.0
C699 C 0.95317 0.89575 0.2462 0.0
C700 C 0.94235 0.86388 0.22919 0.0
C701 C 0.92901 0.91833 0.26442 0.0
C702 C 0.90668 0.85462 0.23076 0.0
C703 C 0.88199 0.87773 0.24784 0.0
H704 H 0.63857 0.27824 0.17266 0.0
H705 H 0.54526 0.2732 0.24617 0.0
H706 H 0.56236 0.32798 0.27936 0.0
H707 H 0.60635 0.37517 0.29053 0.0
H708 H 0.69969 0.37785 0.21756 0.0
H709 H 0.68002 0.32587 0.18098 0.0
C710 C 0.62164 0.28903 0.19574 0.0
C711 C 0.59072 0.27132 0.20702 0.0
C712 C 0.63192 0.3199 0.2151 0.0
C713 C 0.56922 0.28616 0.23685 0.0
C714 C 0.57901 0.31746 0.2559 0.0
C715 C 0.62232 0.364 0.26681 0.0
C716 C 0.65502 0.37906 0.25762 0.0
C717 C 0.61074 0.3341 0.24589 0.0
C718 C 0.67491 0.36581 0.22567 0.0
C719 C 0.66362 0.33626 0.20476 0.0
H720 H 0.21215 0.63769 0.67965 0.0
H721 H 0.21356 0.54175 0.74879 0.0
H722 H 0.15875 0.55913 0.78174 0.0
H723 H 0.11274 0.60403 0.79439 0.0
H724 H 0.11347 0.69986 0.72576 0.0
H725 H 0.1653 0.68003 0.68894 0.0
C726 C 0.20057 0.62028 0.70175 0.0
C727 C 0.21729 0.58851 0.71189 0.0
C728 C 0.16961 0.63067 0.72096 0.0
C729 C 0.20146 0.56643 0.74047 0.0
C730 C 0.17008 0.57633 0.75931 0.0
C731 C 0.12457 0.62047 0.77151 0.0
C732 C 0.11061 0.65393 0.76379 0.0
C733 C 0.1544 0.6088 0.75047 0.0
C734 C 0.12471 0.67448 0.73285 0.0
C735 C 0.15418 0.6631 0.71179 0.0
H736 H 0.82567 0.13409 0.24223 0.0
H737 H 0.91088 0.12445 0.32635 0.0
H738 H 0.93933 0.17651 0.29737 0.0
H739 H 0.93842 0.22601 0.24917 0.0
H740 H 0.85185 0.23442 0.16563 0.0
H741 H 0.82538 0.18205 0.1936 0.0
C742 C 0.85041 0.14361 0.2542 0.0
C743 C 0.86566 0.12666 0.28714 0.0
C744 C 0.86629 0.1734 0.23756 0.0
C745 C 0.8982 0.13818 0.30183 0.0
C746 C 0.91451 0.16769 0.28508 0.0
C747 C 0.91391 0.21629 0.23692 0.0
C748 C 0.89736 0.23437 0.20523 0.0
C749 C 0.89853 0.18584 0.25321 0.0
C750 C 0.86542 0.22127 0.18993 0.0
C751 C 0.85011 0.19119 0.20587 0.0
H752 H 0.28319 0.93905 0.74188 0.0
H753 H 0.27185 0.85248 0.65893 0.0
H754 H 0.32606 0.8269 0.68318 0.0
H755 H 0.37496 0.82658 0.73042 0.0
H756 H 0.38832 0.9121 0.81327 0.0
H757 H 0.33568 0.94105 0.78604 0.0
C758 C 0.29281 0.91487 0.72873 0.0
C759 C 0.27304 0.89773 0.69879 0.0
C760 C 0.32437 0.9 0.74285 0.0
C761 C 0.28613 0.86634 0.68215 0.0
C762 C 0.31726 0.85154 0.69597 0.0
C763 C 0.36619 0.85156 0.74246 0.0
C764 C 0.38412 0.86656 0.77487 0.0
C765 C 0.33618 0.86774 0.72675 0.0
C766 C 0.37371 0.89951 0.78938 0.0
C767 C 0.3439 0.91611 0.77357 0.0
H768 H 0.63499 0.21643 0.83363 0.0
H769 H 0.54271 0.21654 0.75814 0.0
H770 H 0.56198 0.16178 0.72698 0.0
H771 H 0.60745 0.11608 0.71776 0.0
H772 H 0.69938 0.11684 0.79312 0.0
H773 H 0.67783 0.16916 0.82788 0.0
C774 C 0.6188 0.20444 0.81063 0.0
C775 C 0.58752 0.22087 0.79812 0.0
C776 C 0.6302 0.1733 0.79252 0.0
C777 C 0.56688 0.20457 0.76846 0.0
C778 C 0.57792 0.17327 0.75051 0.0
C779 C 0.62268 0.12799 0.74167 0.0
C780 C 0.6555 0.11389 0.75199 0.0
C781 C 0.60994 0.15787 0.76164 0.0
C782 C 0.67447 0.12815 0.78414 0.0
C783 C 0.66211 0.15789 0.80402 0.0
H784 H 0.39321 0.60357 0.20619 0.0
H785 H 0.39241 0.69227 0.28633 0.0
H786 H 0.33978 0.66973 0.31946 0.0
H787 H 0.29228 0.62729 0.32257 0.0
H788 H 0.29128 0.53851 0.24198 0.0
H789 H 0.34661 0.55835 0.21234 0.0
C790 C 0.3812 0.61786 0.23077 0.0
C791 C 0.39545 0.65012 0.24296 0.0
C792 C 0.35095 0.60465 0.24969 0.0
C793 C 0.38103 0.66783 0.27594 0.0
C794 C 0.3511 0.65493 0.29488 0.0
C795 C 0.30412 0.61197 0.29871 0.0
C796 C 0.28734 0.58154 0.28439 0.0
C797 C 0.33549 0.62374 0.28149 0.0
C798 C 0.30348 0.56208 0.25361 0.0
C799 C 0.33514 0.57341 0.23661 0.0
H800 H 0.89666 0.38635 0.69872 0.0
H801 H 0.8105 0.39016 0.78235 0.0
H802 H 0.83306 0.33815 0.81689 0.0
H803 H 0.87512 0.29018 0.82079 0.0
H804 H 0.96164 0.28528 0.73714 0.0
H805 H 0.94131 0.33943 0.70528 0.0
C806 C 0.88288 0.37547 0.72436 0.0
C807 C 0.85134 0.39083 0.73724 0.0
C808 C 0.89617 0.34572 0.74415 0.0
C809 C 0.83435 0.37789 0.7715 0.0
C810 C 0.84728 0.34833 0.79123 0.0
C811 C 0.88981 0.30093 0.79576 0.0
C812 C 0.9198 0.28342 0.78131 0.0
C813 C 0.87783 0.33174 0.7774 0.0
C814 C 0.93849 0.29812 0.74899 0.0
C815 C 0.92686 0.32908 0.73069 0.0
H816 H 0.10425 0.8937 0.21324 0.0
H817 H 0.10415 0.80394 0.29194 0.0
H818 H 0.15537 0.82692 0.32752 0.0
H819 H 0.20216 0.86993 0.33298 0.0
H820 H 0.20435 0.95959 0.25366 0.0
H821 H 0.14984 0.93965 0.22203 0.0
C822 C 0.11576 0.87926 0.23804 0.0
C823 C 0.10171 0.84658 0.24912 0.0
C824 C 0.14517 0.89275 0.25842 0.0
C825 C 0.11543 0.82868 0.28238 0.0
C826 C 0.14453 0.84186 0.30274 0.0
C827 C 0.19071 0.88544 0.30901 0.0
C828 C 0.20764 0.9161 0.29554 0.0
C829 C 0.15997 0.87349 0.29051 0.0
C830 C 0.19195 0.93592 0.26473 0.0
C831 C 0.16084 0.92445 0.2465 0.0
H832 H 0.32757 0.61854 0.77445 0.0
H833 H 0.40465 0.61313 0.68028 0.0
H834 H 0.43382 0.66585 0.70675 0.0
H835 H 0.43428 0.71588 0.75428 0.0
H836 H 0.35576 0.71982 0.84797 0.0
H837 H 0.33015 0.66565 0.82383 0.0
C838 C 0.35078 0.62904 0.75983 0.0
C839 C 0.36325 0.61329 0.72471 0.0
C840 C 0.36699 0.6592 0.775 0.0
C841 C 0.39395 0.626 0.70656 0.0
C842 C 0.4107 0.65587 0.72186 0.0
C843 C 0.41185 0.70469 0.76969 0.0
C844 C 0.397 0.72227 0.80279 0.0
C845 C 0.39693 0.67321 0.7556 0.0
C846 C 0.36781 0.70722 0.8223 0.0
C847 C 0.35303 0.6761 0.80859 0.0
H848 H 0.8935 0.34223 0.27362 0.0
H849 H 0.8962 0.42113 0.18133 0.0
H850 H 0.84484 0.45033 0.21145 0.0
H851 H 0.79473 0.44802 0.25963 0.0
H852 H 0.79684 0.3701 0.35409 0.0
H853 H 0.85082 0.34606 0.32757 0.0
C854 C 0.88281 0.36588 0.26016 0.0
C855 C 0.89682 0.37842 0.22406 0.0
C856 C 0.85406 0.38253 0.27794 0.0
C857 C 0.88423 0.41001 0.20793 0.0
C858 C 0.85526 0.42686 0.22545 0.0
C859 C 0.80747 0.42641 0.275 0.0
C860 C 0.79103 0.41043 0.30826 0.0
C861 C 0.8391 0.41254 0.25971 0.0
C862 C 0.80826 0.38258 0.32795 0.0
C863 C 0.83924 0.36865 0.31282 0.0
H864 H 0.05004 0.79659 0.77564 0.0
H865 H 0.13174 0.78956 0.86547 0.0
H866 H 0.1584 0.84288 0.84014 0.0
H867 H 0.16327 0.8871 0.78727 0.0
H868 H 0.0819 0.89639 0.69831 0.0
H869 H 0.04973 0.84746 0.72923 0.0
C870 C 0.0731 0.8072 0.79037 0.0
C871 C 0.08917 0.78846 0.82189 0.0
C872 C 0.08862 0.83815 0.77558 0.0
C873 C 0.11901 0.8029 0.84069 0.0
C874 C 0.13444 0.83348 0.82623 0.0
C875 C 0.13836 0.87844 0.77492 0.0
C876 C 0.12575 0.89359 0.73946 0.0
C877 C 0.1203 0.85048 0.79276 0.0
C878 C 0.0928 0.88357 0.72453 0.0
C879 C 0.07433 0.85591 0.74241 0.0
H880 H 0.61762 0.16302 0.2791 0.0
H881 H 0.62136 0.08532 0.18558 0.0
H882 H 0.67342 0.05847 0.21674 0.0
H883 H 0.721 0.0611 0.26769 0.0
H884 H 0.71436 0.13887 0.36193 0.0
H885 H 0.66056 0.16165 0.33333 0.0
C886 C 0.62994 0.14018 0.26565 0.0
C887 C 0.61717 0.12711 0.22921 0.0
C888 C 0.65944 0.12503 0.28377 0.0
C889 C 0.6321 0.0967 0.21273 0.0
C890 C 0.66154 0.08121 0.23075 0.0
C891 C 0.70745 0.08257 0.28238 0.0
C892 C 0.72223 0.09841 0.31668 0.0
C893 C 0.67607 0.09579 0.26577 0.0
C894 C 0.70408 0.12625 0.33527 0.0
C895 C 0.67317 0.13945 0.31896 0.0
H896 H 0.37325 0.79508 0.17392 0.0
H897 H 0.46145 0.79344 0.25553 0.0
H898 H 0.4403 0.84757 0.28684 0.0
H899 H 0.39349 0.89231 0.29488 0.0
H900 H 0.30491 0.89145 0.21438 0.0
H901 H 0.32948 0.84108 0.17869 0.0
C902 C 0.3882 0.80654 0.19834 0.0
C903 C 0.41876 0.78986 0.21257 0.0
C904 C 0.3755 0.83696 0.21672 0.0
C905 C 0.4378 0.80558 0.24397 0.0
C906 C 0.42567 0.83649 0.26197 0.0
C907 C 0.37968 0.88079 0.26964 0.0
C908 C 0.34689 0.89426 0.25805 0.0
C909 C 0.394 0.85181 0.24935 0.0
C910 C 0.32977 0.8806 0.22426 0.0
C911 C 0.34383 0.85197 0.20387 0.0
H912 H 0.70281 0.37859 0.67075 0.0
H913 H 0.71234 0.46786 0.74986 0.0
H914 H 0.65752 0.45092 0.78331 0.0
H915 H 0.61036 0.40661 0.79458 0.0
H916 H 0.60476 0.3163 0.71697 0.0
H917 H 0.65492 0.33766 0.67852 0.0
C918 C 0.69301 0.3947 0.69513 0.0
C919 C 0.71211 0.42425 0.70807 0.0
C920 C 0.66244 0.3842 0.71492 0.0
C921 C 0.69833 0.44492 0.73929 0.0
C922 C 0.66705 0.43515 0.75854 0.0
C923 C 0.62044 0.39172 0.76935 0.0
C924 C 0.60513 0.35929 0.75941 0.0
C925 C 0.64955 0.40413 0.74749 0.0
C926 C 0.61698 0.34085 0.72564 0.0
C927 C 0.6455 0.35309 0.70364 0.0
H928 H 0.09916 0.6034 0.29401 0.0
H929 H 0.18646 0.60261 0.21174 0.0
H930 H 0.16304 0.65415 0.17742 0.0
H931 H 0.12081 0.70147 0.17403 0.0
H932 H 0.03387 0.70531 0.25708 0.0
H933 H 0.05358 0.65003 0.28737 0.0
C934 C 0.11295 0.61484 0.26872 0.0
C935 C 0.14513 0.60043 0.25623 0.0
C936 C 0.09926 0.64461 0.24911 0.0
C937 C 0.16214 0.6141 0.22236 0.0
C938 C 0.14872 0.64341 0.20271 0.0
C939 C 0.10584 0.69029 0.1986 0.0
C940 C 0.07606 0.70788 0.21349 0.0
C941 C 0.11775 0.65926 0.21636 0.0
C942 C 0.05688 0.69243 0.24495 0.0
C943 C 0.06824 0.66088 0.26241 0.0
H944 H 0.89802 0.09729 0.79112 0.0
H945 H 0.90175 0.18643 0.7116 0.0
H946 H 0.84962 0.16547 0.67632 0.0
H947 H 0.80041 0.12528 0.67222 0.0
H948 H 0.79392 0.0368 0.75294 0.0
H949 H 0.85017 0.05346 0.78297 0.0
C950 C 0.88714 0.11198 0.76614 0.0
C951 C 0.90245 0.144 0.75482 0.0
C952 C 0.85703 0.09974 0.74602 0.0
C953 C 0.88951 0.1622 0.72135 0.0
C954 C 0.85988 0.15018 0.70114 0.0
C955 C 0.8113 0.10928 0.69611 0.0
C956 C 0.7926 0.08006 0.71059 0.0
C957 C 0.84296 0.11949 0.71387 0.0
C958 C 0.80762 0.05949 0.7412 0.0
C959 C 0.83975 0.06908 0.75852 0.0
H960 H 0.53368 0.26268 0.08216 0.0
H961 H 0.52478 0.15949 0.03076 0.0
H962 H 0.5147 0.18517 0.96417 0.0
H963 H 0.51839 0.23678 0.91948 0.0
H964 H 0.53416 0.33932 0.97058 0.0
H965 H 0.53082 0.31464 0.03835 0.0
C966 C 0.5283 0.246 0.05648 0.0
C967 C 0.52931 0.2094 0.06109 0.0
C968 C 0.52406 0.261 0.01822 0.0
C969 C 0.52345 0.18777 0.02773 0.0
C970 C 0.518 0.20247 0.9897 0.0
C971 C 0.51968 0.25375 0.94559 0.0
C972 C 0.52585 0.28982 0.94035 0.0
C973 C 0.51953 0.23902 0.98436 0.0
C974 C 0.52879 0.31157 0.97414 0.0
C975 C 0.52724 0.29739 0.0128 0.0
H976 H 0.18284 0.52461 0.46252 0.0
H977 H 0.27773 0.50332 0.39667 0.0
H978 H 0.31067 0.49828 0.45961 0.0
H979 H 0.31384 0.51098 0.53259 0.0
H980 H 0.21832 0.5303 0.59807 0.0
H981 H 0.18398 0.52439 0.53642 0.0
C982 C 0.21045 0.51755 0.46218 0.0
C983 C 0.22797 0.51435 0.42532 0.0
C984 C 0.2291 0.51473 0.49843 0.0
C985 C 0.26374 0.50548 0.42489 0.0
C986 C 0.28263 0.50299 0.46083 0.0
C987 C 0.2854 0.51238 0.5334 0.0
C988 C 0.26842 0.52078 0.56954 0.0
C989 C 0.26585 0.50907 0.49771 0.0
C990 C 0.23169 0.52331 0.57048 0.0
C991 C 0.21213 0.5203 0.53521 0.0
H992 H 0.98957 0.31757 0.02764 0.0
H993 H 0.96445 0.22565 0.09719 0.0
H994 H 0.97013 0.18878 0.03744 0.0
H995 H 0.97284 0.18458 0.96375 0.0
H996 H 1.00067 0.27563 0.89412 0.0
H997 H 0.00431 0.31095 0.95544 0.0
C998 C 0.98655 0.28932 0.02973 0.0
C999 C 0.9767 0.27413 0.06645 0.0
C1000 C 0.99012 0.26827 0.99524 0.0
C1001 C 0.97241 0.23765 0.06912 0.0
C1002 C 0.97539 0.21665 0.03496 0.0
C1003 C 0.98097 0.21184 0.9623 0.0
C1004 C 0.98651 0.2276 0.92474 0.0
C1005 C 0.98296 0.23187 0.99762 0.0
C1006 C 0.99675 0.26295 0.92289 0.0
C1007 C 0.99839 0.28322 0.95788 0.0
H1008 H 0.2236 0.96589 0.41741 0.0
H1009 H 0.32664 0.98994 0.46261 0.0
H1010 H 0.30302 0.99485 0.53104 0.0
H1011 H 0.25461 0.98231 0.57876 0.0
H1012 H 0.15341 0.95173 0.53259 0.0
H1013 H 0.17421 0.9599 0.4639 0.0
C1014 C 0.24051 0.97351 0.44217 0.0
C1015 C 0.27652 0.97826 0.43527 0.0
C1016 C 0.22701 0.97457 0.48132 0.0
C1017 C 0.29866 0.98698 0.46739 0.0
C1018 C 0.28519 0.98936 0.50647 0.0
C1019 C 0.23694 0.97857 0.55357 0.0
C1020 C 0.20253 0.96657 0.56052 0.0
C1021 C 0.24964 0.98183 0.514 0.0
C1022 C 0.17997 0.96101 0.52781 0.0
C1023 C 0.1919 0.96553 0.48857 0.0
H1024 H 0.48371 0.81911 0.97161 0.0
H1025 H 0.47328 0.72509 0.90095 0.0
H1026 H 0.48039 0.68897 0.96113 0.0
H1027 H 0.47874 0.68507 0.03515 0.0
H1028 H 0.49286 0.7787 0.10562 0.0
H1029 H 0.49605 0.81413 0.04443 0.0
C1030 C 0.4844 0.79071 0.96938 0.0
C1031 C 0.47807 0.77461 0.93219 0.0
C1032 C 0.48883 0.77012 0.00412 0.0
C1033 C 0.47856 0.73787 0.92938 0.0
C1034 C 0.48228 0.71725 0.96381 0.0
C1035 C 0.48403 0.71301 0.03687 0.0
C1036 C 0.48571 0.72937 0.07456 0.0
C1037 C 0.48596 0.73314 1.00154 0.0
C1038 C 0.49205 0.7656 0.07675 0.0
C1039 C 0.49341 0.7859 0.0418 0.0
H1040 H 0.72628 0.46614 0.58192 0.0
H1041 H 0.82839 0.49519 0.53784 0.0
H1042 H 0.80443 0.5018 0.46973 0.0
H1043 H 0.75669 0.48834 0.42152 0.0
H1044 H 0.65655 0.45319 0.46616 0.0
H1045 H 0.67683 0.46072 0.53525 0.0
C1046 C 0.74288 0.47522 0.55755 0.0
C1047 C 0.77879 0.48071 0.56462 0.0
C1048 C 0.72917 0.47748 0.51851 0.0
C1049 C 0.8005 0.49153 0.53297 0.0
C1050 C 0.78684 0.4949 0.49405 0.0
C1051 C 0.73899 0.48377 0.44649 0.0
C1052 C 0.70507 0.47064 0.43901 0.0
C1053 C 0.75152 0.4865 0.48619 0.0
C1054 C 0.68259 0.4637 0.4714 0.0
C1055 C 0.69431 0.46769 0.51084 0.0
H1056 H 0.02919 0.72302 0.09144 0.0
H1057 H 0.99718 0.82455 0.04834 0.0
H1058 H 0.99022 0.80075 0.98024 0.0
H1059 H 0.00382 0.75344 0.93159 0.0
H1060 H 0.04182 0.65397 0.97519 0.0
H1061 H 0.03508 0.67392 0.04446 0.0
C1062 C 0.01944 0.73951 0.06729 0.0
C1063 C 0.01316 0.77522 0.07464 0.0
C1064 C 0.01695 0.72592 0.02824 0.0
C1065 C 0.00147 0.7968 0.04326 0.0
C1066 C 0.99788 0.78323 0.00434 0.0
C1067 C 0.00923 0.73578 0.95639 0.0
C1068 C 0.02296 0.70218 0.9485 0.0
C1069 C 0.00693 0.74815 0.99618 0.0
C1070 C 0.03092 0.67979 0.9807 0.0
C1071 C 0.02736 0.69132 0.02025 0.0
H1072 H 0.76869 0.0188 0.59443 0.0
H1073 H 0.66424 0.0254 0.54573 0.0
H1074 H 0.68774 0.0208 0.47743 0.0
H1075 H 0.73862 0.02697 0.4322 0.0
H1076 H 0.84305 0.02845 0.48164 0.0
H1077 H 0.81947 0.01721 0.54886 0.0
C1078 C 0.75112 0.01762 0.56881 0.0
C1079 C 0.71483 0.02163 0.5748 0.0
C1080 C 0.76506 0.01705 0.52974 0.0
C1081 C 0.69219 0.02151 0.5416 0.0
C1082 C 0.7057 0.01934 0.50262 0.0
C1083 C 0.75614 0.02337 0.45758 0.0
C1084 C 0.79246 0.02786 0.45222 0.0
C1085 C 0.74217 0.01877 0.49631 0.0
C1086 C 0.81506 0.02444 0.48523 0.0
C1087 C 0.80152 0.01836 0.52362 0.0
loop_
_geom_bond_atom_site_label_1
_geom_bond_atom_site_label_2
_geom_bond_distance
_geom_bond_site_symmetry_2
_ccdc_geom_bond_type
Mn0 O5 2.095 . S
Mn0 O15 2.162 . S
Mn0 O16 2.297 . S
Mn0 O24 2.385 . S
Mn0 O25 2.209 . S
Mn0 O26 2.094 . S
Mn1 O6 2.121 . S
Mn1 N8 2.257 . S
Mn1 N17 2.282 . S
Mn1 O25 2.215 . S
Mn1 O27 2.117 . S
C2 O24 1.234 . S
C2 O25 1.283 . S
C3 O15 1.281 . S
C3 O16 1.236 . S
C4 O26 1.240 . S
C4 O27 1.264 . S
O5 Mn0 2.095 . S
O5 C14 1.250 . S
O6 Mn1 2.121 . S
O6 C14 1.258 . S
C7 N8 1.326 . S
C7 C11 1.460 . S
C7 H13 0.929 . S
N8 Mn1 2.257 . S
N8 C7 1.326 . S
N8 C12 1.362 . S
C9 C10 1.258 . S
C9 C12 1.431 . S
C9 C29 1.449 . S
C10 C9 1.258 . S
C10 C11 1.477 . S
C10 H30 0.931 . S
C11 C7 1.460 . S
C11 C10 1.477 . S
C11 H31 0.930 . S
C12 N8 1.362 . S
C12 C9 1.431 . S
C12 C22 1.476 . S
H13 C7 0.929 . S
C14 O5 1.250 . S
C14 O6 1.258 . S
O15 Mn0 2.162 . S
O15 C3 1.281 . S
O16 Mn0 2.297 . S
O16 C3 1.236 . S
N17 Mn1 2.282 . S
N17 C18 1.328 . S
N17 C22 1.318 . S
C18 N17 1.328 . S
C18 C19 1.457 . S
C18 H23 0.929 . S
C19 C18 1.457 . S
C19 C20 1.291 . S
C19 H32 0.931 . S
C20 C19 1.291 . S
C20 C21 1.373 . S
C20 H33 0.929 . S
C21 C20 1.373 . S
C21 C22 1.396 . S
C21 C28 1.403 . S
C22 C12 1.476 . S
C22 N17 1.318 . S
C22 C21 1.396 . S
H23 C18 0.929 . S
O24 Mn0 2.385 . S
O24 C2 1.234 . S
O25 Mn0 2.209 . S
O25 Mn1 2.215 . S
O25 C2 1.283 . S
O26 Mn0 2.094 . S
O26 C4 1.240 . S
O27 Mn1 2.117 . S
O27 C4 1.264 . S
C28 C21 1.403 . S
C28 C29 1.399 . S
C28 H34 0.929 . S
C29 C9 1.449 . S
C29 C28 1.399 . S
C29 H35 0.930 . S
H30 C10 0.931 . S
H31 C11 0.930 . S
H32 C19 0.931 . S
H33 C20 0.929 . S
H34 C28 0.929 . S
H35 C29 0.930 . S
Mn36 O41 2.095 . S
Mn36 O51 2.162 . S
Mn36 O52 2.297 . S
Mn36 O60 2.385 . S
Mn36 O61 2.209 . S
Mn36 O62 2.094 . S
Mn37 O42 2.121 . S
Mn37 N44 2.257 . S
Mn37 N53 2.282 . S
Mn37 O61 2.215 . S
Mn37 O63 2.117 . S
C38 O60 1.234 . S
C38 O61 1.283 . S
C39 O51 1.281 . S
C39 O52 1.236 . S
C40 O62 1.240 . S
C40 O63 1.264 . S
O41 Mn36 2.095 . S
O41 C50 1.250 . S
O42 Mn37 2.121 . S
O42 C50 1.258 . S
C43 N44 1.326 . S
C43 C47 1.460 . S
C43 H49 0.929 . S
N44 Mn37 2.257 . S
N44 C43 1.326 . S
N44 C48 1.362 . S
C45 C46 1.258 . S
C45 C48 1.431 . S
C45 C65 1.449 . S
C46 C45 1.258 . S
C46 C47 1.477 . S
C46 H66 0.931 . S
C47 C43 1.460 . S
C47 C46 1.477 . S
C47 H67 0.930 . S
C48 N44 1.362 . S
C48 C45 1.431 . S
C48 C58 1.476 . S
H49 C43 0.929 . S
C50 O41 1.250 . S
C50 O42 1.258 . S
O51 Mn36 2.162 . S
O51 C39 1.281 . S
O52 Mn36 2.297 . S
O52 C39 1.236 . S
N53 Mn37 2.282 . S
N53 C54 1.328 . S
N53 C58 1.318 . S
C54 N53 1.328 . S
C54 C55 1.457 . S
C54 H59 0.929 . S
C55 C54 1.457 . S
C55 C56 1.291 . S
C55 H68 0.931 . S
C56 C55 1.291 . S
C56 C57 1.373 . S
C56 H69 0.929 . S
C57 C56 1.373 . S
C57 C58 1.396 . S
C57 C64 1.403 . S
C58 C48 1.476 . S
C58 N53 1.318 . S
C58 C57 1.396 . S
H59 C54 0.929 . S
O60 Mn36 2.385 . S
O60 C38 1.234 . S
O61 Mn36 2.209 . S
O61 Mn37 2.215 . S
O61 C38 1.283 . S
O62 Mn36 2.094 . S
O62 C40 1.240 . S
O63 Mn37 2.117 . S
O63 C40 1.264 . S
C64 C57 1.403 . S
C64 C65 1.399 . S
C64 H70 0.929 . S
C65 C45 1.449 . S
C65 C64 1.399 . S
C65 H71 0.930 . S
H66 C46 0.931 . S
H67 C47 0.930 . S
H68 C55 0.931 . S
H69 C56 0.929 . S
H70 C64 0.929 . S
H71 C65 0.930 . S
Mn72 O77 2.095 . S
Mn72 O87 2.162 1_655 S
Mn72 O88 2.297 1_655 S
Mn72 O96 2.385 . S
Mn72 O97 2.209 . S
Mn72 O98 2.094 . S
Mn73 O78 2.121 . S
Mn73 N80 2.257 . S
Mn73 N89 2.282 . S
Mn73 O97 2.215 . S
Mn73 O99 2.117 . S
C74 O96 1.234 . S
C74 O97 1.283 . S
C75 O87 1.281 . S
C75 O88 1.236 . S
C76 O98 1.240 . S
C76 O99 1.264 . S
O77 Mn72 2.095 . S
O77 C86 1.250 . S
O78 Mn73 2.121 . S
O78 C86 1.258 . S
C79 N80 1.326 . S
C79 C83 1.460 . S
C79 H85 0.929 . S
N80 Mn73 2.257 . S
N80 C79 1.326 . S
N80 C84 1.362 . S
C81 C82 1.258 . S
C81 C84 1.431 . S
C81 C101 1.449 . S
C82 C81 1.258 . S
C82 C83 1.477 . S
C82 H102 0.931 . S
C83 C79 1.460 . S
C83 C82 1.477 . S
C83 H103 0.930 . S
C84 N80 1.362 . S
C84 C81 1.431 . S
C84 C94 1.476 . S
H85 C79 0.929 . S
C86 O77 1.250 . S
C86 O78 1.258 . S
O87 Mn72 2.162 1_455 S
O87 C75 1.281 . S
O88 Mn72 2.297 1_455 S
O88 C75 1.236 . S
N89 Mn73 2.282 . S
N89 C90 1.328 . S
N89 C94 1.318 . S
C90 N89 1.328 . S
C90 C91 1.457 . S
C90 H95 0.929 . S
C91 C90 1.457 . S
C91 C92 1.291 . S
C91 H104 0.931 . S
C92 C91 1.291 . S
C92 C93 1.373 . S
C92 H105 0.929 . S
C93 C92 1.373 . S
C93 C94 1.396 . S
C93 C100 1.403 . S
C94 C84 1.476 . S
C94 N89 1.318 . S
C94 C93 1.396 . S
H95 C90 0.929 . S
O96 Mn72 2.385 . S
O96 C74 1.234 . S
O97 Mn72 2.209 . S
O97 Mn73 2.215 . S
O97 C74 1.283 . S
O98 Mn72 2.094 . S
O98 C76 1.240 . S
O99 Mn73 2.117 . S
O99 C76 1.264 . S
C100 C93 1.403 . S
C100 C101 1.399 . S
C100 H106 0.929 . S
C101 C81 1.449 . S
C101 C100 1.399 . S
C101 H107 0.930 . S
H102 C82 0.931 . S
H103 C83 0.930 . S
H104 C91 0.931 . S
H105 C92 0.929 . S
H106 C100 0.929 . S
H107 C101 0.930 . S
Mn108 O113 2.095 . S
Mn108 O123 2.162 1_565 S
Mn108 O124 2.297 1_565 S
Mn108 O132 2.385 . S
Mn108 O133 2.209 . S
Mn108 O134 2.094 . S
Mn109 O114 2.121 . S
Mn109 N116 2.257 . S
Mn109 N125 2.282 . S
Mn109 O133 2.215 . S
Mn109 O135 2.117 . S
C110 O132 1.234 . S
C110 O133 1.283 . S
C111 O123 1.281 . S
C111 O124 1.236 . S
C112 O134 1.240 . S
C112 O135 1.264 . S
O113 Mn108 2.095 . S
O113 C122 1.250 . S
O114 Mn109 2.121 . S
O114 C122 1.258 . S
C115 N116 1.326 . S
C115 C119 1.460 . S
C115 H121 0.929 . S
N116 Mn109 2.257 . S
N116 C115 1.326 . S
N116 C120 1.362 . S
C117 C118 1.258 . S
C117 C120 1.431 . S
C117 C137 1.449 . S
C118 C117 1.258 . S
C118 C119 1.477 . S
C118 H138 0.931 . S
C119 C115 1.460 . S
C119 C118 1.477 . S
C119 H139 0.930 . S
C120 N116 1.362 . S
C120 C117 1.431 . S
C120 C130 1.476 . S
H121 C115 0.929 . S
C122 O113 1.250 . S
C122 O114 1.258 . S
O123 Mn108 2.162 1_545 S
O123 C111 1.281 . S
O124 Mn108 2.297 1_545 S
O124 C111 1.236 . S
N125 Mn109 2.282 . S
N125 C126 1.328 . S
N125 C130 1.318 . S
C126 N125 1.328 . S
C126 C127 1.457 . S
C126 H131 0.929 . S
C127 C126 1.457 . S
C127 C128 1.291 . S
C127 H140 0.931 . S
C128 C127 1.291 . S
C128 C129 1.373 . S
C128 H141 0.929 . S
C129 C128 1.373 . S
C129 C130 1.396 . S
C129 C136 1.403 . S
C130 C120 1.476 . S
C130 N125 1.318 . S
C130 C129 1.396 . S
H131 C126 0.929 . S
O132 Mn108 2.385 . S
O132 C110 1.234 . S
O133 Mn108 2.209 . S
O133 Mn109 2.215 . S
O133 C110 1.283 . S
O134 Mn108 2.094 . S
O134 C112 1.240 . S
O135 Mn109 2.117 . S
O135 C112 1.264 . S
C136 C129 1.403 . S
C136 C137 1.399 . S
C136 H142 0.929 . S
C137 C117 1.449 . S
C137 C136 1.399 . S
C137 H143 0.930 . S
H138 C118 0.931 . S
H139 C119 0.930 . S
H140 C127 0.931 . S
H141 C128 0.929 . S
H142 C136 0.929 . S
H143 C137 0.930 . S
Mn144 O149 2.095 . S
Mn144 O159 2.162 . S
Mn144 O160 2.297 . S
Mn144 O168 2.385 . S
Mn144 O169 2.209 . S
Mn144 O170 2.094 . S
Mn145 O150 2.121 . S
Mn145 N152 2.257 . S
Mn145 N161 2.282 . S
Mn145 O169 2.215 . S
Mn145 O171 2.117 . S
C146 O168 1.234 . S
C146 O169 1.283 . S
C147 O159 1.281 . S
C147 O160 1.236 . S
C148 O170 1.240 . S
C148 O171 1.264 . S
O149 Mn144 2.095 . S
O149 C158 1.250 . S
O150 Mn145 2.121 . S
O150 C158 1.258 . S
C151 N152 1.326 . S
C151 C155 1.460 . S
C151 H157 0.929 . S
N152 Mn145 2.257 . S
N152 C151 1.326 . S
N152 C156 1.362 . S
C153 C154 1.258 . S
C153 C156 1.431 . S
C153 C173 1.449 . S
C154 C153 1.258 . S
C154 C155 1.477 . S
C154 H174 0.931 . S
C155 C151 1.460 . S
C155 C154 1.477 . S
C155 H175 0.930 . S
C156 N152 1.362 . S
C156 C153 1.431 . S
C156 C166 1.476 . S
H157 C151 0.929 . S
C158 O149 1.250 . S
C158 O150 1.258 . S
O159 Mn144 2.162 . S
O159 C147 1.281 . S
O160 Mn144 2.297 . S
O160 C147 1.236 . S
N161 Mn145 2.282 . S
N161 C162 1.328 . S
N161 C166 1.318 . S
C162 N161 1.328 . S
C162 C163 1.457 . S
C162 H167 0.929 . S
C163 C162 1.457 . S
C163 C164 1.291 . S
C163 H176 0.931 . S
C164 C163 1.291 . S
C164 C165 1.373 . S
C164 H177 0.929 . S
C165 C164 1.373 . S
C165 C166 1.396 . S
C165 C172 1.403 . S
C166 C156 1.476 . S
C166 N161 1.318 . S
C166 C165 1.396 . S
H167 C162 0.929 . S
O168 Mn144 2.385 . S
O168 C146 1.234 . S
O169 Mn144 2.209 . S
O169 Mn145 2.215 . S
O169 C146 1.283 . S
O170 Mn144 2.094 . S
O170 C148 1.240 . S
O171 Mn145 2.117 . S
O171 C148 1.264 . S
C172 C165 1.403 . S
C172 C173 1.399 . S
C172 H178 0.929 . S
C173 C153 1.449 . S
C173 C172 1.399 . S
C173 H179 0.930 . S
H174 C154 0.931 . S
H175 C155 0.930 . S
H176 C163 0.931 . S
H177 C164 0.929 . S
H178 C172 0.929 . S
H179 C173 0.930 . S
Mn180 O185 2.095 . S
Mn180 O195 2.162 . S
Mn180 O196 2.297 . S
Mn180 O204 2.385 . S
Mn180 O205 2.209 . S
Mn180 O206 2.094 . S
Mn181 O186 2.121 . S
Mn181 N188 2.257 . S
Mn181 N197 2.282 . S
Mn181 O205 2.215 . S
Mn181 O207 2.117 . S
C182 O204 1.234 . S
C182 O205 1.283 . S
C183 O195 1.281 . S
C183 O196 1.236 . S
C184 O206 1.240 . S
C184 O207 1.264 . S
O185 Mn180 2.095 . S
O185 C194 1.250 . S
O186 Mn181 2.121 . S
O186 C194 1.258 . S
C187 N188 1.326 . S
C187 C191 1.460 . S
C187 H193 0.929 . S
N188 Mn181 2.257 . S
N188 C187 1.326 . S
N188 C192 1.362 . S
C189 C190 1.258 . S
C189 C192 1.431 . S
C189 C209 1.449 . S
C190 C189 1.258 . S
C190 C191 1.477 . S
C190 H210 0.931 . S
C191 C187 1.460 . S
C191 C190 1.477 . S
C191 H211 0.930 . S
C192 N188 1.362 . S
C192 C189 1.431 . S
C192 C202 1.476 . S
H193 C187 0.929 . S
C194 O185 1.250 . S
C194 O186 1.258 . S
O195 Mn180 2.162 . S
O195 C183 1.281 . S
O196 Mn180 2.297 . S
O196 C183 1.236 . S
N197 Mn181 2.282 . S
N197 C198 1.328 . S
N197 C202 1.318 . S
C198 N197 1.328 . S
C198 C199 1.457 . S
C198 H203 0.929 . S
C199 C198 1.457 . S
C199 C200 1.291 . S
C199 H212 0.931 . S
C200 C199 1.291 . S
C200 C201 1.373 . S
C200 H213 0.929 . S
C201 C200 1.373 . S
C201 C202 1.396 . S
C201 C208 1.403 . S
C202 C192 1.476 . S
C202 N197 1.318 . S
C202 C201 1.396 . S
H203 C198 0.929 . S
O204 Mn180 2.385 . S
O204 C182 1.234 . S
O205 Mn180 2.209 . S
O205 Mn181 2.215 . S
O205 C182 1.283 . S
O206 Mn180 2.094 . S
O206 C184 1.240 . S
O207 Mn181 2.117 . S
O207 C184 1.264 . S
C208 C201 1.403 . S
C208 C209 1.399 . S
C208 H214 0.929 . S
C209 C189 1.449 . S
C209 C208 1.399 . S
C209 H215 0.930 . S
H210 C190 0.931 . S
H211 C191 0.930 . S
H212 C199 0.931 . S
H213 C200 0.929 . S
H214 C208 0.929 . S
H215 C209 0.930 . S
Mn216 O221 2.095 . S
Mn216 O231 2.162 1_655 S
Mn216 O232 2.297 1_655 S
Mn216 O240 2.385 . S
Mn216 O241 2.209 . S
Mn216 O242 2.094 . S
Mn217 O222 2.121 . S
Mn217 N224 2.257 . S
Mn217 N233 2.282 . S
Mn217 O241 2.215 . S
Mn217 O243 2.117 . S
C218 O240 1.234 . S
C218 O241 1.283 . S
C219 O231 1.281 . S
C219 O232 1.236 . S
C220 O242 1.240 . S
C220 O243 1.264 . S
O221 Mn216 2.095 . S
O221 C230 1.250 . S
O222 Mn217 2.121 . S
O222 C230 1.258 . S
C223 N224 1.326 . S
C223 C227 1.460 . S
C223 H229 0.929 . S
N224 Mn217 2.257 . S
N224 C223 1.326 . S
N224 C228 1.362 . S
C225 C226 1.258 . S
C225 C228 1.431 . S
C225 C245 1.449 . S
C226 C225 1.258 . S
C226 C227 1.477 . S
C226 H246 0.931 . S
C227 C223 1.460 . S
C227 C226 1.477 . S
C227 H247 0.930 . S
C228 N224 1.362 . S
C228 C225 1.431 . S
C228 C238 1.476 . S
H229 C223 0.929 . S
C230 O221 1.250 . S
C230 O222 1.258 . S
O231 Mn216 2.162 1_455 S
O231 C219 1.281 . S
O232 Mn216 2.297 1_455 S
O232 C219 1.236 . S
N233 Mn217 2.282 . S
N233 C234 1.328 . S
N233 C238 1.318 . S
C234 N233 1.328 . S
C234 C235 1.457 . S
C234 H239 0.929 . S
C235 C234 1.457 . S
C235 C236 1.291 . S
C235 H248 0.931 . S
C236 C235 1.291 . S
C236 C237 1.373 . S
C236 H249 0.929 . S
C237 C236 1.373 . S
C237 C238 1.396 . S
C237 C244 1.403 . S
C238 C228 1.476 . S
C238 N233 1.318 . S
C238 C237 1.396 . S
H239 C234 0.929 . S
O240 Mn216 2.385 . S
O240 C218 1.234 . S
O241 Mn216 2.209 . S
O241 Mn217 2.215 . S
O241 C218 1.283 . S
O242 Mn216 2.094 . S
O242 C220 1.240 . S
O243 Mn217 2.117 . S
O243 C220 1.264 . S
C244 C237 1.403 . S
C244 C245 1.399 . S
C244 H250 0.929 . S
C245 C225 1.449 . S
C245 C244 1.399 . S
C245 H251 0.930 . S
H246 C226 0.931 . S
H247 C227 0.930 . S
H248 C235 0.931 . S
H249 C236 0.929 . S
H250 C244 0.929 . S
H251 C245 0.930 . S
Mn252 O257 2.095 . S
Mn252 O267 2.162 1_565 S
Mn252 O268 2.297 1_565 S
Mn252 O276 2.385 . S
Mn252 O277 2.209 . S
Mn252 O278 2.094 . S
Mn253 O258 2.121 . S
Mn253 N260 2.257 . S
Mn253 N269 2.282 . S
Mn253 O277 2.215 . S
Mn253 O279 2.117 . S
C254 O276 1.234 . S
C254 O277 1.283 . S
C255 O267 1.281 . S
C255 O268 1.236 . S
C256 O278 1.240 . S
C256 O279 1.264 . S
O257 Mn252 2.095 . S
O257 C266 1.250 . S
O258 Mn253 2.121 . S
O258 C266 1.258 . S
C259 N260 1.326 . S
C259 C263 1.460 . S
C259 H265 0.929 . S
N260 Mn253 2.257 . S
N260 C259 1.326 . S
N260 C264 1.362 . S
C261 C262 1.258 . S
C261 C264 1.431 . S
C261 C281 1.449 . S
C262 C261 1.258 . S
C262 C263 1.477 . S
C262 H282 0.931 . S
C263 C259 1.460 . S
C263 C262 1.477 . S
C263 H283 0.930 . S
C264 N260 1.362 . S
C264 C261 1.431 . S
C264 C274 1.476 . S
H265 C259 0.929 . S
C266 O257 1.250 . S
C266 O258 1.258 . S
O267 Mn252 2.162 1_545 S
O267 C255 1.281 . S
O268 Mn252 2.297 1_545 S
O268 C255 1.236 . S
N269 Mn253 2.282 . S
N269 C270 1.328 . S
N269 C274 1.318 . S
C270 N269 1.328 . S
C270 C271 1.457 . S
C270 H275 0.929 . S
C271 C270 1.457 . S
C271 C272 1.291 . S
C271 H284 0.931 . S
C272 C271 1.291 . S
C272 C273 1.373 . S
C272 H285 0.929 . S
C273 C272 1.373 . S
C273 C274 1.396 . S
C273 C280 1.403 . S
C274 C264 1.476 . S
C274 N269 1.318 . S
C274 C273 1.396 . S
H275 C270 0.929 . S
O276 Mn252 2.385 . S
O276 C254 1.234 . S
O277 Mn252 2.209 . S
O277 Mn253 2.215 . S
O277 C254 1.283 . S
O278 Mn252 2.094 . S
O278 C256 1.240 . S
O279 Mn253 2.117 . S
O279 C256 1.264 . S
C280 C273 1.403 . S
C280 C281 1.399 . S
C280 H286 0.929 . S
C281 C261 1.449 . S
C281 C280 1.399 . S
C281 H287 0.930 . S
H282 C262 0.931 . S
H283 C263 0.930 . S
H284 C271 0.931 . S
H285 C272 0.929 . S
H286 C280 0.929 . S
H287 C281 0.930 . S
Mn288 O293 2.095 . S
Mn288 O303 2.162 . S
Mn288 O304 2.297 . S
Mn288 O312 2.385 . S
Mn288 O313 2.209 . S
Mn288 O314 2.094 . S
Mn289 O294 2.121 . S
Mn289 N296 2.257 . S
Mn289 N305 2.282 . S
Mn289 O313 2.215 . S
Mn289 O315 2.117 . S
C290 O312 1.234 . S
C290 O313 1.283 . S
C291 O303 1.281 . S
C291 O304 1.236 . S
C292 O314 1.240 . S
C292 O315 1.264 . S
O293 Mn288 2.095 . S
O293 C302 1.250 . S
O294 Mn289 2.121 . S
O294 C302 1.258 . S
C295 N296 1.326 . S
C295 C299 1.460 . S
C295 H301 0.929 . S
N296 Mn289 2.257 . S
N296 C295 1.326 . S
N296 C300 1.362 . S
C297 C298 1.258 . S
C297 C300 1.431 . S
C297 C317 1.449 . S
C298 C297 1.258 . S
C298 C299 1.477 . S
C298 H318 0.931 . S
C299 C295 1.460 . S
C299 C298 1.477 . S
C299 H319 0.930 . S
C300 N296 1.362 . S
C300 C297 1.431 . S
C300 C310 1.476 . S
H301 C295 0.929 . S
C302 O293 1.250 . S
C302 O294 1.258 . S
O303 Mn288 2.162 . S
O303 C291 1.281 . S
O304 Mn288 2.297 . S
O304 C291 1.236 . S
N305 Mn289 2.282 . S
N305 C306 1.328 . S
N305 C310 1.318 . S
C306 N305 1.328 . S
C306 C307 1.457 . S
C306 H311 0.929 . S
C307 C306 1.457 . S
C307 C308 1.291 . S
C307 H320 0.931 . S
C308 C307 1.291 . S
C308 C309 1.373 . S
C308 H321 0.929 . S
C309 C308 1.373 . S
C309 C310 1.396 . S
C309 C316 1.403 . S
C310 C300 1.476 . S
C310 N305 1.318 . S
C310 C309 1.396 . S
H311 C306 0.929 . S
O312 Mn288 2.385 . S
O312 C290 1.234 . S
O313 Mn288 2.209 . S
O313 Mn289 2.215 . S
O313 C290 1.283 . S
O314 Mn288 2.094 . S
O314 C292 1.240 . S
O315 Mn289 2.117 . S
O315 C292 1.264 . S
C316 C309 1.403 . S
C316 C317 1.399 . S
C316 H322 0.929 . S
C317 C297 1.449 . S
C317 C316 1.399 . S
C317 H323 0.930 . S
H318 C298 0.931 . S
H319 C299 0.930 . S
H320 C307 0.931 . S
H321 C308 0.929 . S
H322 C316 0.929 . S
H323 C317 0.930 . S
Mn324 O329 2.095 . S
Mn324 O339 2.162 . S
Mn324 O340 2.297 . S
Mn324 O348 2.385 . S
Mn324 O349 2.209 . S
Mn324 O350 2.094 . S
Mn325 O330 2.121 . S
Mn325 N332 2.257 . S
Mn325 N341 2.282 . S
Mn325 O349 2.215 . S
Mn325 O351 2.117 . S
C326 O348 1.234 . S
C326 O349 1.283 . S
C327 O339 1.281 . S
C327 O340 1.236 . S
C328 O350 1.240 . S
C328 O351 1.264 . S
O329 Mn324 2.095 . S
O329 C338 1.250 . S
O330 Mn325 2.121 . S
O330 C338 1.258 . S
C331 N332 1.326 . S
C331 C335 1.460 . S
C331 H337 0.929 . S
N332 Mn325 2.257 . S
N332 C331 1.326 . S
N332 C336 1.362 . S
C333 C334 1.258 . S
C333 C336 1.431 . S
C333 C353 1.449 . S
C334 C333 1.258 . S
C334 C335 1.477 . S
C334 H354 0.931 . S
C335 C331 1.460 . S
C335 C334 1.477 . S
C335 H355 0.930 . S
C336 N332 1.362 . S
C336 C333 1.431 . S
C336 C346 1.476 . S
H337 C331 0.929 . S
C338 O329 1.250 . S
C338 O330 1.258 . S
O339 Mn324 2.162 . S
O339 C327 1.281 . S
O340 Mn324 2.297 . S
O340 C327 1.236 . S
N341 Mn325 2.282 . S
N341 C342 1.328 . S
N341 C346 1.318 . S
C342 N341 1.328 . S
C342 C343 1.457 . S
C342 H347 0.929 . S
C343 C342 1.457 . S
C343 C344 1.291 . S
C343 H356 0.931 . S
C344 C343 1.291 . S
C344 C345 1.373 . S
C344 H357 0.929 . S
C345 C344 1.373 . S
C345 C346 1.396 . S
C345 C352 1.403 . S
C346 C336 1.476 . S
C346 N341 1.318 . S
C346 C345 1.396 . S
H347 C342 0.929 . S
O348 Mn324 2.385 . S
O348 C326 1.234 . S
O349 Mn324 2.209 . S
O349 Mn325 2.215 . S
O349 C326 1.283 . S
O350 Mn324 2.094 . S
O350 C328 1.240 . S
O351 Mn325 2.117 . S
O351 C328 1.264 . S
C352 C345 1.403 . S
C352 C353 1.399 . S
C352 H358 0.929 . S
C353 C333 1.449 . S
C353 C352 1.399 . S
C353 H359 0.930 . S
H354 C334 0.931 . S
H355 C335 0.930 . S
H356 C343 0.931 . S
H357 C344 0.929 . S
H358 C352 0.929 . S
H359 C353 0.930 . S
Mn360 O365 2.095 . S
Mn360 O375 2.162 1_455 S
Mn360 O376 2.297 1_455 S
Mn360 O384 2.385 . S
Mn360 O385 2.209 . S
Mn360 O386 2.094 . S
Mn361 O366 2.121 . S
Mn361 N368 2.257 . S
Mn361 N377 2.282 . S
Mn361 O385 2.215 . S
Mn361 O387 2.117 . S
C362 O384 1.234 . S
C362 O385 1.283 . S
C363 O375 1.281 . S
C363 O376 1.236 . S
C364 O386 1.240 . S
C364 O387 1.264 . S
O365 Mn360 2.095 . S
O365 C374 1.250 . S
O366 Mn361 2.121 . S
O366 C374 1.258 . S
C367 N368 1.326 . S
C367 C371 1.460 . S
C367 H373 0.929 . S
N368 Mn361 2.257 . S
N368 C367 1.326 . S
N368 C372 1.362 . S
C369 C370 1.258 . S
C369 C372 1.431 . S
C369 C389 1.449 . S
C370 C369 1.258 . S
C370 C371 1.477 . S
C370 H390 0.931 . S
C371 C367 1.460 . S
C371 C370 1.477 . S
C371 H391 0.930 . S
C372 N368 1.362 . S
C372 C369 1.431 . S
C372 C382 1.476 . S
H373 C367 0.929 . S
C374 O365 1.250 . S
C374 O366 1.258 . S
O375 Mn360 2.162 1_655 S
O375 C363 1.281 . S
O376 Mn360 2.297 1_655 S
O376 C363 1.236 . S
N377 Mn361 2.282 . S
N377 C378 1.328 . S
N377 C382 1.318 . S
C378 N377 1.328 . S
C378 C379 1.457 . S
C378 H383 0.929 . S
C379 C378 1.457 . S
C379 C380 1.291 . S
C379 H392 0.931 . S
C380 C379 1.291 . S
C380 C381 1.373 . S
C380 H393 0.929 . S
C381 C380 1.373 . S
C381 C382 1.396 . S
C381 C388 1.403 . S
C382 C372 1.476 . S
C382 N377 1.318 . S
C382 C381 1.396 . S
H383 C378 0.929 . S
O384 Mn360 2.385 . S
O384 C362 1.234 . S
O385 Mn360 2.209 . S
O385 Mn361 2.215 . S
O385 C362 1.283 . S
O386 Mn360 2.094 . S
O386 C364 1.240 . S
O387 Mn361 2.117 . S
O387 C364 1.264 . S
C388 C381 1.403 . S
C388 C389 1.399 . S
C388 H394 0.929 . S
C389 C369 1.449 . S
C389 C388 1.399 . S
C389 H395 0.930 . S
H390 C370 0.931 . S
H391 C371 0.930 . S
H392 C379 0.931 . S
H393 C380 0.929 . S
H394 C388 0.929 . S
H395 C389 0.930 . S
Mn396 O401 2.095 . S
Mn396 O411 2.162 1_545 S
Mn396 O412 2.297 1_545 S
Mn396 O420 2.385 . S
Mn396 O421 2.209 . S
Mn396 O422 2.094 . S
Mn397 O402 2.121 . S
Mn397 N404 2.257 . S
Mn397 N413 2.282 . S
Mn397 O421 2.215 . S
Mn397 O423 2.117 . S
C398 O420 1.234 . S
C398 O421 1.283 . S
C399 O411 1.281 . S
C399 O412 1.236 . S
C400 O422 1.240 . S
C400 O423 1.264 . S
O401 Mn396 2.095 . S
O401 C410 1.250 . S
O402 Mn397 2.121 . S
O402 C410 1.258 . S
C403 N404 1.326 . S
C403 C407 1.460 . S
C403 H409 0.929 . S
N404 Mn397 2.257 . S
N404 C403 1.326 . S
N404 C408 1.362 . S
C405 C406 1.258 . S
C405 C408 1.431 . S
C405 C425 1.449 . S
C406 C405 1.258 . S
C406 C407 1.477 . S
C406 H426 0.931 . S
C407 C403 1.460 . S
C407 C406 1.477 . S
C407 H427 0.930 . S
C408 N404 1.362 . S
C408 C405 1.431 . S
C408 C418 1.476 . S
H409 C403 0.929 . S
C410 O401 1.250 . S
C410 O402 1.258 . S
O411 Mn396 2.162 1_565 S
O411 C399 1.281 . S
O412 Mn396 2.297 1_565 S
O412 C399 1.236 . S
N413 Mn397 2.282 . S
N413 C414 1.328 . S
N413 C418 1.318 . S
C414 N413 1.328 . S
C414 C415 1.457 . S
C414 H419 0.929 . S
C415 C414 1.457 . S
C415 C416 1.291 . S
C415 H428 0.931 . S
C416 C415 1.291 . S
C416 C417 1.373 . S
C416 H429 0.929 . S
C417 C416 1.373 . S
C417 C418 1.396 . S
C417 C424 1.403 . S
C418 C408 1.476 . S
C418 N413 1.318 . S
C418 C417 1.396 . S
H419 C414 0.929 . S
O420 Mn396 2.385 . S
O420 C398 1.234 . S
O421 Mn396 2.209 . S
O421 Mn397 2.215 . S
O421 C398 1.283 . S
O422 Mn396 2.094 . S
O422 C400 1.240 . S
O423 Mn397 2.117 . S
O423 C400 1.264 . S
C424 C417 1.403 . S
C424 C425 1.399 . S
C424 H430 0.929 . S
C425 C405 1.449 . S
C425 C424 1.399 . S
C425 H431 0.930 . S
H426 C406 0.931 . S
H427 C407 0.930 . S
H428 C415 0.931 . S
H429 C416 0.929 . S
H430 C424 0.929 . S
H431 C425 0.930 . S
Mn432 O437 2.095 . S
Mn432 O447 2.162 . S
Mn432 O448 2.297 . S
Mn432 O456 2.385 . S
Mn432 O457 2.209 . S
Mn432 O458 2.094 . S
Mn433 O438 2.121 . S
Mn433 N440 2.257 . S
Mn433 N449 2.282 . S
Mn433 O457 2.215 . S
Mn433 O459 2.117 . S
C434 O456 1.234 . S
C434 O457 1.283 . S
C435 O447 1.281 . S
C435 O448 1.236 . S
C436 O458 1.240 . S
C436 O459 1.264 . S
O437 Mn432 2.095 . S
O437 C446 1.250 . S
O438 Mn433 2.121 . S
O438 C446 1.258 . S
C439 N440 1.326 . S
C439 C443 1.460 . S
C439 H445 0.929 . S
N440 Mn433 2.257 . S
N440 C439 1.326 . S
N440 C444 1.362 . S
C441 C442 1.258 . S
C441 C444 1.431 . S
C441 C461 1.449 . S
C442 C441 1.258 . S
C442 C443 1.477 . S
C442 H462 0.931 . S
C443 C439 1.460 . S
C443 C442 1.477 . S
C443 H463 0.930 . S
C444 N440 1.362 . S
C444 C441 1.431 . S
C444 C454 1.476 . S
H445 C439 0.929 . S
C446 O437 1.250 . S
C446 O438 1.258 . S
O447 Mn432 2.162 . S
O447 C435 1.281 . S
O448 Mn432 2.297 . S
O448 C435 1.236 . S
N449 Mn433 2.282 . S
N449 C450 1.328 . S
N449 C454 1.318 . S
C450 N449 1.328 . S
C450 C451 1.457 . S
C450 H455 0.929 . S
C451 C450 1.457 . S
C451 C452 1.291 . S
C451 H464 0.931 . S
C452 C451 1.291 . S
C452 C453 1.373 . S
C452 H465 0.929 . S
C453 C452 1.373 . S
C453 C454 1.396 . S
C453 C460 1.403 . S
C454 C444 1.476 . S
C454 N449 1.318 . S
C454 C453 1.396 . S
H455 C450 0.929 . S
O456 Mn432 2.385 . S
O456 C434 1.234 . S
O457 Mn432 2.209 . S
O457 Mn433 2.215 . S
O457 C434 1.283 . S
O458 Mn432 2.094 . S
O458 C436 1.240 . S
O459 Mn433 2.117 . S
O459 C436 1.264 . S
C460 C453 1.403 . S
C460 C461 1.399 . S
C460 H466 0.929 . S
C461 C441 1.449 . S
C461 C460 1.399 . S
C461 H467 0.930 . S
H462 C442 0.931 . S
H463 C443 0.930 . S
H464 C451 0.931 . S
H465 C452 0.929 . S
H466 C460 0.929 . S
H467 C461 0.930 . S
Mn468 O473 2.095 . S
Mn468 O483 2.162 . S
Mn468 O484 2.297 . S
Mn468 O492 2.385 . S
Mn468 O493 2.209 . S
Mn468 O494 2.094 . S
Mn469 O474 2.121 . S
Mn469 N476 2.257 . S
Mn469 N485 2.282 . S
Mn469 O493 2.215 . S
Mn469 O495 2.117 . S
C470 O492 1.234 . S
C470 O493 1.283 . S
C471 O483 1.281 . S
C471 O484 1.236 . S
C472 O494 1.240 . S
C472 O495 1.264 . S
O473 Mn468 2.095 . S
O473 C482 1.250 . S
O474 Mn469 2.121 . S
O474 C482 1.258 . S
C475 N476 1.326 . S
C475 C479 1.460 . S
C475 H481 0.929 . S
N476 Mn469 2.257 . S
N476 C475 1.326 . S
N476 C480 1.362 . S
C477 C478 1.258 . S
C477 C480 1.431 . S
C477 C497 1.449 . S
C478 C477 1.258 . S
C478 C479 1.477 . S
C478 H498 0.931 . S
C479 C475 1.460 . S
C479 C478 1.477 . S
C479 H499 0.930 . S
C480 N476 1.362 . S
C480 C477 1.431 . S
C480 C490 1.476 . S
H481 C475 0.929 . S
C482 O473 1.250 . S
C482 O474 1.258 . S
O483 Mn468 2.162 . S
O483 C471 1.281 . S
O484 Mn468 2.297 . S
O484 C471 1.236 . S
N485 Mn469 2.282 . S
N485 C486 1.328 . S
N485 C490 1.318 . S
C486 N485 1.328 . S
C486 C487 1.457 . S
C486 H491 0.929 . S
C487 C486 1.457 . S
C487 C488 1.291 . S
C487 H500 0.931 . S
C488 C487 1.291 . S
C488 C489 1.373 . S
C488 H501 0.929 . S
C489 C488 1.373 . S
C489 C490 1.396 . S
C489 C496 1.403 . S
C490 C480 1.476 . S
C490 N485 1.318 . S
C490 C489 1.396 . S
H491 C486 0.929 . S
O492 Mn468 2.385 . S
O492 C470 1.234 . S
O493 Mn468 2.209 . S
O493 Mn469 2.215 . S
O493 C470 1.283 . S
O494 Mn468 2.094 . S
O494 C472 1.240 . S
O495 Mn469 2.117 . S
O495 C472 1.264 . S
C496 C489 1.403 . S
C496 C497 1.399 . S
C496 H502 0.929 . S
C497 C477 1.449 . S
C497 C496 1.399 . S
C497 H503 0.930 . S
H498 C478 0.931 . S
H499 C479 0.930 . S
H500 C487 0.931 . S
H501 C488 0.929 . S
H502 C496 0.929 . S
H503 C497 0.930 . S
Mn504 O509 2.095 . S
Mn504 O519 2.162 1_455 S
Mn504 O520 2.297 1_455 S
Mn504 O528 2.385 . S
Mn504 O529 2.209 . S
Mn504 O530 2.094 . S
Mn505 O510 2.121 . S
Mn505 N512 2.257 . S
Mn505 N521 2.282 . S
Mn505 O529 2.215 . S
Mn505 O531 2.117 . S
C506 O528 1.234 . S
C506 O529 1.283 . S
C507 O519 1.281 . S
C507 O520 1.236 . S
C508 O530 1.240 . S
C508 O531 1.264 . S
O509 Mn504 2.095 . S
O509 C518 1.250 . S
O510 Mn505 2.121 . S
O510 C518 1.258 . S
C511 N512 1.326 . S
C511 C515 1.460 . S
C511 H517 0.929 . S
N512 Mn505 2.257 . S
N512 C511 1.326 . S
N512 C516 1.362 . S
C513 C514 1.258 . S
C513 C516 1.431 . S
C513 C533 1.449 . S
C514 C513 1.258 . S
C514 C515 1.477 . S
C514 H534 0.931 . S
C515 C511 1.460 . S
C515 C514 1.477 . S
C515 H535 0.930 . S
C516 N512 1.362 . S
C516 C513 1.431 . S
C516 C526 1.476 . S
H517 C511 0.929 . S
C518 O509 1.250 . S
C518 O510 1.258 . S
O519 Mn504 2.162 1_655 S
O519 C507 1.281 . S
O520 Mn504 2.297 1_655 S
O520 C507 1.236 . S
N521 Mn505 2.282 . S
N521 C522 1.328 . S
N521 C526 1.318 . S
C522 N521 1.328 . S
C522 C523 1.457 . S
C522 H527 0.929 . S
C523 C522 1.457 . S
C523 C524 1.291 . S
C523 H536 0.931 . S
C524 C523 1.291 . S
C524 C525 1.373 . S
C524 H537 0.929 . S
C525 C524 1.373 . S
C525 C526 1.396 . S
C525 C532 1.403 . S
C526 C516 1.476 . S
C526 N521 1.318 . S
C526 C525 1.396 . S
H527 C522 0.929 . S
O528 Mn504 2.385 . S
O528 C506 1.234 . S
O529 Mn504 2.209 . S
O529 Mn505 2.215 . S
O529 C506 1.283 . S
O530 Mn504 2.094 . S
O530 C508 1.240 . S
O531 Mn505 2.117 . S
O531 C508 1.264 . S
C532 C525 1.403 . S
C532 C533 1.399 . S
C532 H538 0.929 . S
C533 C513 1.449 . S
C533 C532 1.399 . S
C533 H539 0.930 . S
H534 C514 0.931 . S
H535 C515 0.930 . S
H536 C523 0.931 . S
H537 C524 0.929 . S
H538 C532 0.929 . S
H539 C533 0.930 . S
Mn540 O545 2.095 . S
Mn540 O555 2.162 1_545 S
Mn540 O556 2.297 1_545 S
Mn540 O564 2.385 . S
Mn540 O565 2.209 . S
Mn540 O566 2.094 . S
Mn541 O546 2.121 . S
Mn541 N548 2.257 . S
Mn541 N557 2.282 . S
Mn541 O565 2.215 . S
Mn541 O567 2.117 . S
C542 O564 1.234 . S
C542 O565 1.283 . S
C543 O555 1.281 . S
C543 O556 1.236 . S
C544 O566 1.240 . S
C544 O567 1.264 . S
O545 Mn540 2.095 . S
O545 C554 1.250 . S
O546 Mn541 2.121 . S
O546 C554 1.258 . S
C547 N548 1.326 . S
C547 C551 1.460 . S
C547 H553 0.929 . S
N548 Mn541 2.257 . S
N548 C547 1.326 . S
N548 C552 1.362 . S
C549 C550 1.258 . S
C549 C552 1.431 . S
C549 C569 1.449 . S
C550 C549 1.258 . S
C550 C551 1.477 . S
C550 H570 0.931 . S
C551 C547 1.460 . S
C551 C550 1.477 . S
C551 H571 0.930 . S
C552 N548 1.362 . S
C552 C549 1.431 . S
C552 C562 1.476 . S
H553 C547 0.929 . S
C554 O545 1.250 . S
C554 O546 1.258 . S
O555 Mn540 2.162 1_565 S
O555 C543 1.281 . S
O556 Mn540 2.297 1_565 S
O556 C543 1.236 . S
N557 Mn541 2.282 . S
N557 C558 1.328 . S
N557 C562 1.318 . S
C558 N557 1.328 . S
C558 C559 1.457 . S
C558 H563 0.929 . S
C559 C558 1.457 . S
C559 C560 1.291 . S
C559 H572 0.931 . S
C560 C559 1.291 . S
C560 C561 1.373 . S
C560 H573 0.929 . S
C561 C560 1.373 . S
C561 C562 1.396 . S
C561 C568 1.403 . S
C562 C552 1.476 . S
C562 N557 1.318 . S
C562 C561 1.396 . S
H563 C558 0.929 . S
O564 Mn540 2.385 . S
O564 C542 1.234 . S
O565 Mn540 2.209 . S
O565 Mn541 2.215 . S
O565 C542 1.283 . S
O566 Mn540 2.094 . S
O566 C544 1.240 . S
O567 Mn541 2.117 . S
O567 C544 1.264 . S
C568 C561 1.403 . S
C568 C569 1.399 . S
C568 H574 0.929 . S
C569 C549 1.449 . S
C569 C568 1.399 . S
C569 H575 0.930 . S
H570 C550 0.931 . S
H571 C551 0.930 . S
H572 C559 0.931 . S
H573 C560 0.929 . S
H574 C568 0.929 . S
H575 C569 0.930 . S
H576 C582 0.930 . S
H577 C585 0.930 . S
H578 C586 0.930 . S
H579 C587 0.930 . S
H580 C590 0.930 . S
H581 C591 0.930 . S
C582 H576 0.930 . S
C582 C583 1.355 . S
C582 C584 1.415 . S
C583 C582 1.355 . S
C583 C585 1.419 . S
C584 C582 1.415 . S
C584 C589 1.425 . S
C584 C591 1.409 . S
C585 H577 0.930 . S
C585 C583 1.419 . S
C585 C586 1.362 . S
C586 H578 0.930 . S
C586 C585 1.362 . S
C586 C589 1.409 . S
C587 H579 0.930 . S
C587 C588 1.355 . S
C587 C589 1.415 . S
C588 C587 1.355 . S
C588 C590 1.419 . S
C589 C584 1.425 . S
C589 C586 1.409 . S
C589 C587 1.415 . S
C590 H580 0.930 . S
C590 C588 1.419 . S
C590 C591 1.362 . S
C591 H581 0.930 . S
C591 C584 1.409 . S
C591 C590 1.362 . S
H592 C598 0.930 . S
H593 C601 0.930 . S
H594 C602 0.930 . S
H595 C603 0.930 . S
H596 C606 0.930 . S
H597 C607 0.930 . S
C598 H592 0.930 . S
C598 C599 1.355 . S
C598 C600 1.415 . S
C599 C598 1.355 . S
C599 C601 1.419 . S
C600 C598 1.415 . S
C600 C605 1.425 . S
C600 C607 1.409 . S
C601 H593 0.930 . S
C601 C599 1.419 . S
C601 C602 1.362 . S
C602 H594 0.930 . S
C602 C601 1.362 . S
C602 C605 1.409 . S
C603 H595 0.930 . S
C603 C604 1.355 . S
C603 C605 1.415 . S
C604 C603 1.355 . S
C604 C606 1.419 . S
C605 C600 1.425 . S
C605 C602 1.409 . S
C605 C603 1.415 . S
C606 H596 0.930 . S
C606 C604 1.419 . S
C606 C607 1.362 . S
C607 H597 0.930 . S
C607 C600 1.409 . S
C607 C606 1.362 . S
H608 C614 0.930 . S
H609 C617 0.930 . S
H610 C618 0.930 . S
H611 C619 0.930 . S
H612 C622 0.930 . S
H613 C623 0.930 . S
C614 H608 0.930 . S
C614 C615 1.355 . S
C614 C616 1.415 . S
C615 C614 1.355 . S
C615 C617 1.419 . S
C616 C614 1.415 . S
C616 C621 1.425 . S
C616 C623 1.409 . S
C617 H609 0.930 . S
C617 C615 1.419 . S
C617 C618 1.362 . S
C618 H610 0.930 . S
C618 C617 1.362 . S
C618 C621 1.409 . S
C619 H611 0.930 . S
C619 C620 1.355 . S
C619 C621 1.415 . S
C620 C619 1.355 . S
C620 C622 1.419 . S
C621 C616 1.425 . S
C621 C618 1.409 . S
C621 C619 1.415 . S
C622 H612 0.930 . S
C622 C620 1.419 . S
C622 C623 1.362 . S
C623 H613 0.930 . S
C623 C616 1.409 . S
C623 C622 1.362 . S
H624 C630 0.930 . S
H625 C633 0.930 . S
H626 C634 0.930 . S
H627 C635 0.930 . S
H628 C638 0.930 . S
H629 C639 0.930 . S
C630 H624 0.930 . S
C630 C631 1.355 . S
C630 C632 1.415 . S
C631 C630 1.355 . S
C631 C633 1.419 . S
C632 C630 1.415 . S
C632 C637 1.425 . S
C632 C639 1.409 . S
C633 H625 0.930 . S
C633 C631 1.419 . S
C633 C634 1.362 . S
C634 H626 0.930 . S
C634 C633 1.362 . S
C634 C637 1.409 . S
C635 H627 0.930 . S
C635 C636 1.355 . S
C635 C637 1.415 . S
C636 C635 1.355 . S
C636 C638 1.419 . S
C637 C632 1.425 . S
C637 C634 1.409 . S
C637 C635 1.415 . S
C638 H628 0.930 . S
C638 C636 1.419 . S
C638 C639 1.362 . S
C639 H629 0.930 . S
C639 C632 1.409 . S
C639 C638 1.362 . S
H640 C646 0.930 . S
H641 C649 0.930 . S
H642 C650 0.930 . S
H643 C651 0.930 . S
H644 C654 0.930 . S
H645 C655 0.930 . S
C646 H640 0.930 . S
C646 C647 1.355 . S
C646 C648 1.415 . S
C647 C646 1.355 . S
C647 C649 1.419 . S
C648 C646 1.415 . S
C648 C653 1.425 . S
C648 C655 1.409 . S
C649 H641 0.930 . S
C649 C647 1.419 . S
C649 C650 1.362 . S
C650 H642 0.930 . S
C650 C649 1.362 . S
C650 C653 1.409 . S
C651 H643 0.930 . S
C651 C652 1.355 . S
C651 C653 1.415 . S
C652 C651 1.355 . S
C652 C654 1.419 . S
C653 C648 1.425 . S
C653 C650 1.409 . S
C653 C651 1.415 . S
C654 H644 0.930 . S
C654 C652 1.419 . S
C654 C655 1.362 . S
C655 H645 0.930 . S
C655 C648 1.409 . S
C655 C654 1.362 . S
H656 C662 0.930 . S
H657 C665 0.930 . S
H658 C666 0.930 . S
H659 C667 0.930 . S
H660 C670 0.930 . S
H661 C671 0.930 . S
C662 H656 0.930 . S
C662 C663 1.355 . S
C662 C664 1.415 . S
C663 C662 1.355 . S
C663 C665 1.419 . S
C664 C662 1.415 . S
C664 C669 1.425 . S
C664 C671 1.409 . S
C665 H657 0.930 . S
C665 C663 1.419 . S
C665 C666 1.362 . S
C666 H658 0.930 . S
C666 C665 1.362 . S
C666 C669 1.409 . S
C667 H659 0.930 . S
C667 C668 1.355 . S
C667 C669 1.415 . S
C668 C667 1.355 . S
C668 C670 1.419 . S
C669 C664 1.425 . S
C669 C666 1.409 . S
C669 C667 1.415 . S
C670 H660 0.930 . S
C670 C668 1.419 . S
C670 C671 1.362 . S
C671 H661 0.930 . S
C671 C664 1.409 . S
C671 C670 1.362 . S
H672 C678 0.930 . S
H673 C681 0.930 . S
H674 C682 0.930 . S
H675 C683 0.930 . S
H676 C686 0.930 . S
H677 C687 0.930 . S
C678 H672 0.930 . S
C678 C679 1.355 . S
C678 C680 1.415 . S
C679 C678 1.355 . S
C679 C681 1.419 . S
C680 C678 1.415 . S
C680 C685 1.425 . S
C680 C687 1.409 . S
C681 H673 0.930 . S
C681 C679 1.419 . S
C681 C682 1.362 . S
C682 H674 0.930 . S
C682 C681 1.362 . S
C682 C685 1.409 . S
C683 H675 0.930 . S
C683 C684 1.355 . S
C683 C685 1.415 . S
C684 C683 1.355 . S
C684 C686 1.419 . S
C685 C680 1.425 . S
C685 C682 1.409 . S
C685 C683 1.415 . S
C686 H676 0.930 . S
C686 C684 1.419 . S
C686 C687 1.362 . S
C687 H677 0.930 . S
C687 C680 1.409 . S
C687 C686 1.362 . S
H688 C694 0.930 . S
H689 C697 0.930 . S
H690 C698 0.930 . S
H691 C699 0.930 . S
H692 C702 0.930 . S
H693 C703 0.930 . S
C694 H688 0.930 . S
C694 C695 1.355 . S
C694 C696 1.415 . S
C695 C694 1.355 . S
C695 C697 1.419 . S
C696 C694 1.415 . S
C696 C701 1.425 . S
C696 C703 1.409 . S
C697 H689 0.930 . S
C697 C695 1.419 . S
C697 C698 1.362 . S
C698 H690 0.930 . S
C698 C697 1.362 . S
C698 C701 1.409 . S
C699 H691 0.930 . S
C699 C700 1.355 . S
C699 C701 1.415 . S
C700 C699 1.355 . S
C700 C702 1.419 . S
C701 C696 1.425 . S
C701 C698 1.409 . S
C701 C699 1.415 . S
C702 H692 0.930 . S
C702 C700 1.419 . S
C702 C703 1.362 . S
C703 H693 0.930 . S
C703 C696 1.409 . S
C703 C702 1.362 . S
H704 C710 0.930 . S
H705 C713 0.930 . S
H706 C714 0.930 . S
H707 C715 0.930 . S
H708 C718 0.930 . S
H709 C719 0.930 . S
C710 H704 0.930 . S
C710 C711 1.355 . S
C710 C712 1.415 . S
C711 C710 1.355 . S
C711 C713 1.419 . S
C712 C710 1.415 . S
C712 C717 1.425 . S
C712 C719 1.409 . S
C713 H705 0.930 . S
C713 C711 1.419 . S
C713 C714 1.362 . S
C714 H706 0.930 . S
C714 C713 1.362 . S
C714 C717 1.409 . S
C715 H707 0.930 . S
C715 C716 1.355 . S
C715 C717 1.415 . S
C716 C715 1.355 . S
C716 C718 1.419 . S
C717 C712 1.425 . S
C717 C714 1.409 . S
C717 C715 1.415 . S
C718 H708 0.930 . S
C718 C716 1.419 . S
C718 C719 1.362 . S
C719 H709 0.930 . S
C719 C712 1.409 . S
C719 C718 1.362 . S
H720 C726 0.930 . S
H721 C729 0.930 . S
H722 C730 0.930 . S
H723 C731 0.930 . S
H724 C734 0.930 . S
H725 C735 0.930 . S
C726 H720 0.930 . S
C726 C727 1.355 . S
C726 C728 1.415 . S
C727 C726 1.355 . S
C727 C729 1.419 . S
C728 C726 1.415 . S
C728 C733 1.425 . S
C728 C735 1.409 . S
C729 H721 0.930 . S
C729 C727 1.419 . S
C729 C730 1.362 . S
C730 H722 0.930 . S
C730 C729 1.362 . S
C730 C733 1.409 . S
C731 H723 0.930 . S
C731 C732 1.355 . S
C731 C733 1.415 . S
C732 C731 1.355 . S
C732 C734 1.419 . S
C733 C728 1.425 . S
C733 C730 1.409 . S
C733 C731 1.415 . S
C734 H724 0.930 . S
C734 C732 1.419 . S
C734 C735 1.362 . S
C735 H725 0.930 . S
C735 C728 1.409 . S
C735 C734 1.362 . S
H736 C742 0.930 . S
H737 C745 0.930 . S
H738 C746 0.930 . S
H739 C747 0.930 . S
H740 C750 0.930 . S
H741 C751 0.930 . S
C742 H736 0.930 . S
C742 C743 1.355 . S
C742 C744 1.415 . S
C743 C742 1.355 . S
C743 C745 1.419 . S
C744 C742 1.415 . S
C744 C749 1.425 . S
C744 C751 1.409 . S
C745 H737 0.930 . S
C745 C743 1.419 . S
C745 C746 1.362 . S
C746 H738 0.930 . S
C746 C745 1.362 . S
C746 C749 1.409 . S
C747 H739 0.930 . S
C747 C748 1.355 . S
C747 C749 1.415 . S
C748 C747 1.355 . S
C748 C750 1.419 . S
C749 C744 1.425 . S
C749 C746 1.409 . S
C749 C747 1.415 . S
C750 H740 0.930 . S
C750 C748 1.419 . S
C750 C751 1.362 . S
C751 H741 0.930 . S
C751 C744 1.409 . S
C751 C750 1.362 . S
H752 C758 0.930 . S
H753 C761 0.930 . S
H754 C762 0.930 . S
H755 C763 0.930 . S
H756 C766 0.930 . S
H757 C767 0.930 . S
C758 H752 0.930 . S
C758 C759 1.355 . S
C758 C760 1.415 . S
C759 C758 1.355 . S
C759 C761 1.419 . S
C760 C758 1.415 . S
C760 C765 1.425 . S
C760 C767 1.409 . S
C761 H753 0.930 . S
C761 C759 1.419 . S
C761 C762 1.362 . S
C762 H754 0.930 . S
C762 C761 1.362 . S
C762 C765 1.409 . S
C763 H755 0.930 . S
C763 C764 1.355 . S
C763 C765 1.415 . S
C764 C763 1.355 . S
C764 C766 1.419 . S
C765 C760 1.425 . S
C765 C762 1.409 . S
C765 C763 1.415 . S
C766 H756 0.930 . S
C766 C764 1.419 . S
C766 C767 1.362 . S
C767 H757 0.930 . S
C767 C760 1.409 . S
C767 C766 1.362 . S
H768 C774 0.930 . S
H769 C777 0.930 . S
H770 C778 0.930 . S
H771 C779 0.930 . S
H772 C782 0.930 . S
H773 C783 0.930 . S
C774 H768 0.930 . S
C774 C775 1.355 . S
C774 C776 1.415 . S
C775 C774 1.355 . S
C775 C777 1.419 . S
C776 C774 1.415 . S
C776 C781 1.425 . S
C776 C783 1.409 . S
C777 H769 0.930 . S
C777 C775 1.419 . S
C777 C778 1.362 . S
C778 H770 0.930 . S
C778 C777 1.362 . S
C778 C781 1.409 . S
C779 H771 0.930 . S
C779 C780 1.355 . S
C779 C781 1.415 . S
C780 C779 1.355 . S
C780 C782 1.419 . S
C781 C776 1.425 . S
C781 C778 1.409 . S
C781 C779 1.415 . S
C782 H772 0.930 . S
C782 C780 1.419 . S
C782 C783 1.362 . S
C783 H773 0.930 . S
C783 C776 1.409 . S
C783 C782 1.362 . S
H784 C790 0.930 . S
H785 C793 0.930 . S
H786 C794 0.930 . S
H787 C795 0.930 . S
H788 C798 0.930 . S
H789 C799 0.930 . S
C790 H784 0.930 . S
C790 C791 1.355 . S
C790 C792 1.415 . S
C791 C790 1.355 . S
C791 C793 1.419 . S
C792 C790 1.415 . S
C792 C797 1.425 . S
C792 C799 1.409 . S
C793 H785 0.930 . S
C793 C791 1.419 . S
C793 C794 1.362 . S
C794 H786 0.930 . S
C794 C793 1.362 . S
C794 C797 1.409 . S
C795 H787 0.930 . S
C795 C796 1.355 . S
C795 C797 1.415 . S
C796 C795 1.355 . S
C796 C798 1.419 . S
C797 C792 1.425 . S
C797 C794 1.409 . S
C797 C795 1.415 . S
C798 H788 0.930 . S
C798 C796 1.419 . S
C798 C799 1.362 . S
C799 H789 0.930 . S
C799 C792 1.409 . S
C799 C798 1.362 . S
H800 C806 0.930 . S
H801 C809 0.930 . S
H802 C810 0.930 . S
H803 C811 0.930 . S
H804 C814 0.930 . S
H805 C815 0.930 . S
C806 H800 0.930 . S
C806 C807 1.355 . S
C806 C808 1.415 . S
C807 C806 1.355 . S
C807 C809 1.419 . S
C808 C806 1.415 . S
C808 C813 1.425 . S
C808 C815 1.409 . S
C809 H801 0.930 . S
C809 C807 1.419 . S
C809 C810 1.362 . S
C810 H802 0.930 . S
C810 C809 1.362 . S
C810 C813 1.409 . S
C811 H803 0.930 . S
C811 C812 1.355 . S
C811 C813 1.415 . S
C812 C811 1.355 . S
C812 C814 1.419 . S
C813 C808 1.425 . S
C813 C810 1.409 . S
C813 C811 1.415 . S
C814 H804 0.930 . S
C814 C812 1.419 . S
C814 C815 1.362 . S
C815 H805 0.930 . S
C815 C808 1.409 . S
C815 C814 1.362 . S
H816 C822 0.930 . S
H817 C825 0.930 . S
H818 C826 0.930 . S
H819 C827 0.930 . S
H820 C830 0.930 . S
H821 C831 0.930 . S
C822 H816 0.930 . S
C822 C823 1.355 . S
C822 C824 1.415 . S
C823 C822 1.355 . S
C823 C825 1.419 . S
C824 C822 1.415 . S
C824 C829 1.425 . S
C824 C831 1.409 . S
C825 H817 0.930 . S
C825 C823 1.419 . S
C825 C826 1.362 . S
C826 H818 0.930 . S
C826 C825 1.362 . S
C826 C829 1.409 . S
C827 H819 0.930 . S
C827 C828 1.355 . S
C827 C829 1.415 . S
C828 C827 1.355 . S
C828 C830 1.419 . S
C829 C824 1.425 . S
C829 C826 1.409 . S
C829 C827 1.415 . S
C830 H820 0.930 . S
C830 C828 1.419 . S
C830 C831 1.362 . S
C831 H821 0.930 . S
C831 C824 1.409 . S
C831 C830 1.362 . S
H832 C838 0.930 . S
H833 C841 0.930 . S
H834 C842 0.930 . S
H835 C843 0.930 . S
H836 C846 0.930 . S
H837 C847 0.930 . S
C838 H832 0.930 . S
C838 C839 1.355 . S
C838 C840 1.415 . S
C839 C838 1.355 . S
C839 C841 1.419 . S
C840 C838 1.415 . S
C840 C845 1.425 . S
C840 C847 1.409 . S
C841 H833 0.930 . S
C841 C839 1.419 . S
C841 C842 1.362 . S
C842 H834 0.930 . S
C842 C841 1.362 . S
C842 C845 1.409 . S
C843 H835 0.930 . S
C843 C844 1.355 . S
C843 C845 1.415 . S
C844 C843 1.355 . S
C844 C846 1.419 . S
C845 C840 1.425 . S
C845 C842 1.409 . S
C845 C843 1.415 . S
C846 H836 0.930 . S
C846 C844 1.419 . S
C846 C847 1.362 . S
C847 H837 0.930 . S
C847 C840 1.409 . S
C847 C846 1.362 . S
H848 C854 0.930 . S
H849 C857 0.930 . S
H850 C858 0.930 . S
H851 C859 0.930 . S
H852 C862 0.930 . S
H853 C863 0.930 . S
C854 H848 0.930 . S
C854 C855 1.355 . S
C854 C856 1.415 . S
C855 C854 1.355 . S
C855 C857 1.419 . S
C856 C854 1.415 . S
C856 C861 1.425 . S
C856 C863 1.409 . S
C857 H849 0.930 . S
C857 C855 1.419 . S
C857 C858 1.362 . S
C858 H850 0.930 . S
C858 C857 1.362 . S
C858 C861 1.409 . S
C859 H851 0.930 . S
C859 C860 1.355 . S
C859 C861 1.415 . S
C860 C859 1.355 . S
C860 C862 1.419 . S
C861 C856 1.425 . S
C861 C858 1.409 . S
C861 C859 1.415 . S
C862 H852 0.930 . S
C862 C860 1.419 . S
C862 C863 1.362 . S
C863 H853 0.930 . S
C863 C856 1.409 . S
C863 C862 1.362 . S
H864 C870 0.930 . S
H865 C873 0.930 . S
H866 C874 0.930 . S
H867 C875 0.930 . S
H868 C878 0.930 . S
H869 C879 0.930 . S
C870 H864 0.930 . S
C870 C871 1.355 . S
C870 C872 1.415 . S
C871 C870 1.355 . S
C871 C873 1.419 . S
C872 C870 1.415 . S
C872 C877 1.425 . S
C872 C879 1.409 . S
C873 H865 0.930 . S
C873 C871 1.419 . S
C873 C874 1.362 . S
C874 H866 0.930 . S
C874 C873 1.362 . S
C874 C877 1.409 . S
C875 H867 0.930 . S
C875 C876 1.355 . S
C875 C877 1.415 . S
C876 C875 1.355 . S
C876 C878 1.419 . S
C877 C872 1.425 . S
C877 C874 1.409 . S
C877 C875 1.415 . S
C878 H868 0.930 . S
C878 C876 1.419 . S
C878 C879 1.362 . S
C879 H869 0.930 . S
C879 C872 1.409 . S
C879 C878 1.362 . S
H880 C886 0.930 . S
H881 C889 0.930 . S
H882 C890 0.930 . S
H883 C891 0.930 . S
H884 C894 0.930 . S
H885 C895 0.930 . S
C886 H880 0.930 . S
C886 C887 1.355 . S
C886 C888 1.415 . S
C887 C886 1.355 . S
C887 C889 1.419 . S
C888 C886 1.415 . S
C888 C893 1.425 . S
C888 C895 1.409 . S
C889 H881 0.930 . S
C889 C887 1.419 . S
C889 C890 1.362 . S
C890 H882 0.930 . S
C890 C889 1.362 . S
C890 C893 1.409 . S
C891 H883 0.930 . S
C891 C892 1.355 . S
C891 C893 1.415 . S
C892 C891 1.355 . S
C892 C894 1.419 . S
C893 C888 1.425 . S
C893 C890 1.409 . S
C893 C891 1.415 . S
C894 H884 0.930 . S
C894 C892 1.419 . S
C894 C895 1.362 . S
C895 H885 0.930 . S
C895 C888 1.409 . S
C895 C894 1.362 . S
H896 C902 0.930 . S
H897 C905 0.930 . S
H898 C906 0.930 . S
H899 C907 0.930 . S
H900 C910 0.930 . S
H901 C911 0.930 . S
C902 H896 0.930 . S
C902 C903 1.355 . S
C902 C904 1.415 . S
C903 C902 1.355 . S
C903 C905 1.419 . S
C904 C902 1.415 . S
C904 C909 1.425 . S
C904 C911 1.409 . S
C905 H897 0.930 . S
C905 C903 1.419 . S
C905 C906 1.362 . S
C906 H898 0.930 . S
C906 C905 1.362 . S
C906 C909 1.409 . S
C907 H899 0.930 . S
C907 C908 1.355 . S
C907 C909 1.415 . S
C908 C907 1.355 . S
C908 C910 1.419 . S
C909 C904 1.425 . S
C909 C906 1.409 . S
C909 C907 1.415 . S
C910 H900 0.930 . S
C910 C908 1.419 . S
C910 C911 1.362 . S
C911 H901 0.930 . S
C911 C904 1.409 . S
C911 C910 1.362 . S
H912 C918 0.930 . S
H913 C921 0.930 . S
H914 C922 0.930 . S
H915 C923 0.930 . S
H916 C926 0.930 . S
H917 C927 0.930 . S
C918 H912 0.930 . S
C918 C919 1.355 . S
C918 C920 1.415 . S
C919 C918 1.355 . S
C919 C921 1.419 . S
C920 C918 1.415 . S
C920 C925 1.425 . S
C920 C927 1.409 . S
C921 H913 0.930 . S
C921 C919 1.419 . S
C921 C922 1.362 . S
C922 H914 0.930 . S
C922 C921 1.362 . S
C922 C925 1.409 . S
C923 H915 0.930 . S
C923 C924 1.355 . S
C923 C925 1.415 . S
C924 C923 1.355 . S
C924 C926 1.419 . S
C925 C920 1.425 . S
C925 C922 1.409 . S
C925 C923 1.415 . S
C926 H916 0.930 . S
C926 C924 1.419 . S
C926 C927 1.362 . S
C927 H917 0.930 . S
C927 C920 1.409 . S
C927 C926 1.362 . S
H928 C934 0.930 . S
H929 C937 0.930 . S
H930 C938 0.930 . S
H931 C939 0.930 . S
H932 C942 0.930 . S
H933 C943 0.930 . S
C934 H928 0.930 . S
C934 C935 1.355 . S
C934 C936 1.415 . S
C935 C934 1.355 . S
C935 C937 1.419 . S
C936 C934 1.415 . S
C936 C941 1.425 . S
C936 C943 1.409 . S
C937 H929 0.930 . S
C937 C935 1.419 . S
C937 C938 1.362 . S
C938 H930 0.930 . S
C938 C937 1.362 . S
C938 C941 1.409 . S
C939 H931 0.930 . S
C939 C940 1.355 . S
C939 C941 1.415 . S
C940 C939 1.355 . S
C940 C942 1.419 . S
C941 C936 1.425 . S
C941 C938 1.409 . S
C941 C939 1.415 . S
C942 H932 0.930 . S
C942 C940 1.419 . S
C942 C943 1.362 . S
C943 H933 0.930 . S
C943 C936 1.409 . S
C943 C942 1.362 . S
H944 C950 0.930 . S
H945 C953 0.930 . S
H946 C954 0.930 . S
H947 C955 0.930 . S
H948 C958 0.930 . S
H949 C959 0.930 . S
C950 H944 0.930 . S
C950 C951 1.355 . S
C950 C952 1.415 . S
C951 C950 1.355 . S
C951 C953 1.419 . S
C952 C950 1.415 . S
C952 C957 1.425 . S
C952 C959 1.409 . S
C953 H945 0.930 . S
C953 C951 1.419 . S
C953 C954 1.362 . S
C954 H946 0.930 . S
C954 C953 1.362 . S
C954 C957 1.409 . S
C955 H947 0.930 . S
C955 C956 1.355 . S
C955 C957 1.415 . S
C956 C955 1.355 . S
C956 C958 1.419 . S
C957 C952 1.425 . S
C957 C954 1.409 . S
C957 C955 1.415 . S
C958 H948 0.930 . S
C958 C956 1.419 . S
C958 C959 1.362 . S
C959 H949 0.930 . S
C959 C952 1.409 . S
C959 C958 1.362 . S
H960 C966 0.930 . S
H961 C969 0.930 . S
H962 C970 0.919 1_556 S
H963 C971 0.930 . S
H964 C974 0.930 . S
H965 C975 0.919 1_554 S
C966 H960 0.930 . S
C966 C967 1.355 . S
C966 C968 1.415 . S
C967 C966 1.355 . S
C967 C969 1.419 . S
C968 C966 1.415 . S
C968 C973 1.425 1_554 S
C968 C975 1.409 1_554 S
C969 H961 0.930 . S
C969 C967 1.419 . S
C969 C970 1.362 . S
C970 H962 0.919 1_554 S
C970 C969 1.362 . S
C970 C973 1.409 1_554 S
C971 H963 0.930 . S
C971 C972 1.355 . S
C971 C973 1.415 . S
C972 C971 1.355 . S
C972 C974 1.419 . S
C973 C968 1.425 1_556 S
C973 C970 1.409 1_556 S
C973 C971 1.415 . S
C974 H964 0.930 . S
C974 C972 1.419 . S
C974 C975 1.362 . S
C975 H965 0.919 1_556 S
C975 C968 1.409 1_556 S
C975 C974 1.362 . S
H976 C982 0.930 . S
H977 C985 0.930 . S
H978 C986 0.930 . S
H979 C987 0.930 . S
H980 C990 0.930 . S
H981 C991 0.930 . S
C982 H976 0.930 . S
C982 C983 1.355 . S
C982 C984 1.415 . S
C983 C982 1.355 . S
C983 C985 1.419 . S
C984 C982 1.415 . S
C984 C989 1.425 . S
C984 C991 1.409 . S
C985 H977 0.930 . S
C985 C983 1.419 . S
C985 C986 1.362 . S
C986 H978 0.930 . S
C986 C985 1.362 . S
C986 C989 1.409 . S
C987 H979 0.930 . S
C987 C988 1.355 . S
C987 C989 1.415 . S
C988 C987 1.355 . S
C988 C990 1.419 . S
C989 C984 1.425 . S
C989 C986 1.409 . S
C989 C987 1.415 . S
C990 H980 0.930 . S
C990 C988 1.419 . S
C990 C991 1.362 . S
C991 H981 0.930 . S
C991 C984 1.409 . S
C991 C990 1.362 . S
H992 C998 0.930 . S
H993 C1001 0.930 . S
H994 C1002 0.930 . S
H995 C1003 0.930 . S
H996 C1006 0.930 . S
H997 C1007 0.930 . S
C998 H992 0.930 . S
C998 C999 1.355 1_455 S
C998 C1000 1.415 . S
C999 C998 1.355 1_655 S
C999 C1001 1.419 . S
C1000 C998 1.415 . S
C1000 C1005 1.425 1_454 S
C1000 C1007 1.409 1_554 S
C1001 H993 0.930 . S
C1001 C999 1.419 . S
C1001 C1002 1.362 . S
C1002 H994 0.930 . S
C1002 C1001 1.362 . S
C1002 C1005 1.409 1_554 S
C1003 H995 0.930 . S
C1003 C1004 1.355 . S
C1003 C1005 1.415 . S
C1004 C1003 1.355 . S
C1004 C1006 1.419 1_655 S
C1005 C1000 1.425 1_656 S
C1005 C1002 1.409 1_556 S
C1005 C1003 1.415 . S
C1006 H996 0.930 . S
C1006 C1004 1.419 1_455 S
C1006 C1007 1.362 . S
C1007 H997 0.930 . S
C1007 C1000 1.409 1_556 S
C1007 C1006 1.362 . S
H1008 C1014 0.930 . S
H1009 C1017 0.930 . S
H1010 C1018 0.930 . S
H1011 C1019 0.930 1_545 S
H1012 C1022 0.930 . S
H1013 C1023 0.930 . S
C1014 H1008 0.930 . S
C1014 C1015 1.355 . S
C1014 C1016 1.415 . S
C1015 C1014 1.355 . S
C1015 C1017 1.419 1_565 S
C1016 C1014 1.415 . S
C1016 C1021 1.425 . S
C1016 C1023 1.409 . S
C1017 H1009 0.930 . S
C1017 C1015 1.419 1_545 S
C1017 C1018 1.362 . S
C1018 H1010 0.930 . S
C1018 C1017 1.362 . S
C1018 C1021 1.409 1_545 S
C1019 H1011 0.930 1_565 S
C1019 C1020 1.355 . S
C1019 C1021 1.415 . S
C1020 C1019 1.355 . S
C1020 C1022 1.419 . S
C1021 C1016 1.425 . S
C1021 C1018 1.409 1_565 S
C1021 C1019 1.415 . S
C1022 H1012 0.930 . S
C1022 C1020 1.419 . S
C1022 C1023 1.362 . S
C1023 H1013 0.930 . S
C1023 C1016 1.409 . S
C1023 C1022 1.362 . S
H1024 C1030 0.930 . S
H1025 C1033 0.930 . S
H1026 C1034 0.930 . S
H1027 C1035 0.930 . S
H1028 C1038 0.930 . S
H1029 C1039 0.930 . S
C1030 H1024 0.930 . S
C1030 C1031 1.355 . S
C1030 C1032 1.415 . S
C1031 C1030 1.355 . S
C1031 C1033 1.419 . S
C1032 C1030 1.415 . S
C1032 C1037 1.425 1_556 S
C1032 C1039 1.409 1_556 S
C1033 H1025 0.930 . S
C1033 C1031 1.419 . S
C1033 C1034 1.362 . S
C1034 H1026 0.930 . S
C1034 C1033 1.362 . S
C1034 C1037 1.409 1_556 S
C1035 H1027 0.930 . S
C1035 C1036 1.355 . S
C1035 C1037 1.415 . S
C1036 C1035 1.355 . S
C1036 C1038 1.419 . S
C1037 C1032 1.425 1_554 S
C1037 C1034 1.409 1_554 S
C1037 C1035 1.415 . S
C1038 H1028 0.930 . S
C1038 C1036 1.419 . S
C1038 C1039 1.362 . S
C1039 H1029 0.930 . S
C1039 C1032 1.409 1_554 S
C1039 C1038 1.362 . S
H1040 C1046 0.930 . S
H1041 C1049 0.930 . S
H1042 C1050 0.930 . S
H1043 C1051 0.930 . S
H1044 C1054 0.930 . S
H1045 C1055 0.930 . S
C1046 H1040 0.930 . S
C1046 C1047 1.355 . S
C1046 C1048 1.415 . S
C1047 C1046 1.355 . S
C1047 C1049 1.419 . S
C1048 C1046 1.415 . S
C1048 C1053 1.425 . S
C1048 C1055 1.409 . S
C1049 H1041 0.930 . S
C1049 C1047 1.419 . S
C1049 C1050 1.362 . S
C1050 H1042 0.930 . S
C1050 C1049 1.362 . S
C1050 C1053 1.409 . S
C1051 H1043 0.930 . S
C1051 C1052 1.355 . S
C1051 C1053 1.415 . S
C1052 C1051 1.355 . S
C1052 C1054 1.419 . S
C1053 C1048 1.425 . S
C1053 C1050 1.409 . S
C1053 C1051 1.415 . S
C1054 H1044 0.930 . S
C1054 C1052 1.419 . S
C1054 C1055 1.362 . S
C1055 H1045 0.930 . S
C1055 C1048 1.409 . S
C1055 C1054 1.362 . S
H1056 C1062 0.930 . S
H1057 C1065 0.930 . S
H1058 C1066 0.930 . S
H1059 C1067 0.930 . S
H1060 C1070 0.930 . S
H1061 C1071 0.930 . S
C1062 H1056 0.930 . S
C1062 C1063 1.355 . S
C1062 C1064 1.415 . S
C1063 C1062 1.355 . S
C1063 C1065 1.419 1_455 S
C1064 C1062 1.415 . S
C1064 C1069 1.425 1_454 S
C1064 C1071 1.409 1_554 S
C1065 H1057 0.930 . S
C1065 C1063 1.419 1_655 S
C1065 C1066 1.362 . S
C1066 H1058 0.930 . S
C1066 C1065 1.362 . S
C1066 C1069 1.409 1_554 S
C1067 H1059 0.930 . S
C1067 C1068 1.355 1_655 S
C1067 C1069 1.415 . S
C1068 C1067 1.355 1_455 S
C1068 C1070 1.419 . S
C1069 C1064 1.425 1_656 S
C1069 C1066 1.409 1_556 S
C1069 C1067 1.415 . S
C1070 H1060 0.930 . S
C1070 C1068 1.419 . S
C1070 C1071 1.362 . S
C1071 H1061 0.930 . S
C1071 C1064 1.409 1_556 S
C1071 C1070 1.362 . S
H1072 C1078 0.930 . S
H1073 C1081 0.930 . S
H1074 C1082 0.930 . S
H1075 C1083 0.929 1_565 S
H1076 C1086 0.930 . S
H1077 C1087 0.930 . S
C1078 H1072 0.930 . S
C1078 C1079 1.355 . S
C1078 C1080 1.415 . S
C1079 C1078 1.355 . S
C1079 C1081 1.419 . S
C1080 C1078 1.415 . S
C1080 C1085 1.425 . S
C1080 C1087 1.409 . S
C1081 H1073 0.930 . S
C1081 C1079 1.419 . S
C1081 C1082 1.362 . S
C1082 H1074 0.930 . S
C1082 C1081 1.362 . S
C1082 C1085 1.409 . S
C1083 H1075 0.929 1_545 S
C1083 C1084 1.355 . S
C1083 C1085 1.415 . S
C1084 C1083 1.355 . S
C1084 C1086 1.419 . S
C1085 C1080 1.425 . S
C1085 C1082 1.409 . S
C1085 C1083 1.415 . S
C1086 H1076 0.930 . S
C1086 C1084 1.419 . S
C1086 C1087 1.362 . S
C1087 H1077 0.930 . S
C1087 C1080 1.409 . S
C1087 C1086 1.362 . S
C583 C3 1.314 . S
C588 C255 1.327 . S
C599 C39 1.310 . S
C604 C147 1.331 . S
C615 C75 1.323 . S
C620 C183 1.317 . S
C631 C111 1.310 . S
C636 C219 1.331 . S
C647 C291 1.323 . S
C652 C543 1.318 . S
C663 C435 1.330 . S
C668 C327 1.310 . S
C679 C363 1.327 . S
C684 C471 1.314 . S
C695 C399 1.310 . S
C700 C507 1.331 . S
C711 C4 1.395 . S
C716 C326 1.450 . S
C727 C40 1.405 . S
C732 C362 1.448 . S
C743 C398 1.458 . S
C748 C76 1.370 . S
C759 C112 1.417 . S
C764 C290 1.468 . S
C775 C148 1.414 . S
C780 C542 1.448 . S
C791 C434 1.454 . S
C796 C184 1.378 . S
C807 C470 1.461 . S
C812 C220 1.440 . S
C823 C506 1.460 . S
C828 C256 1.442 . S
C839 C38 1.469 . S
C844 C292 1.378 . S
C855 C74 1.466 . S
C860 C328 1.370 . S
C871 C364 1.417 . S
C876 C110 1.468 . S
C887 C2 1.469 . S
C892 C400 1.377 . S
C903 C436 1.430 . S
C908 C254 1.465 . S
C919 C472 1.434 . S
C924 C146 1.450 . S
C935 C182 1.455 . S
C940 C508 1.444 . S
C951 C218 1.454 . S
C956 C544 1.377 . S
C967 C14 1.522 . S
C972 C158 1.472 . S
C983 C194 1.468 . S
C988 C50 1.488 . S
C999 C86 1.447 . S
C1004 C230 1.520 . S
C1015 C266 1.520 . S
C1020 C122 1.476 . S
C1031 C302 1.497 . S
C1036 C446 1.461 . S
C1047 C482 1.490 . S
C1052 C338 1.509 . S
C1063 C518 1.518 . S
C1068 C374 1.478 . S
C1079 C554 1.489 . S
C1084 C410 1.510 . S
