# Generated by pormake.
# Topology umd, (4)-cn, num edge types: 1
# Building blocks:
#     Node 0, Type 0, BuildingBlock: KOZSID_clean_sbu_0, # of connection points: 4
#     Node 1, Type 0, BuildingBlock: KOZSID_clean_sbu_0, # of connection points: 4
#     Node 2, Type 0, BuildingBlock: KOZSID_clean_sbu_0, # of connection points: 4
#     Node 3, Type 0, BuildingBlock: KOZSID_clean_sbu_0, # of connection points: 4
#     Node 4, Type 0, BuildingBlock: KOZSID_clean_sbu_0, # of connection points: 4
#     Node 5, Type 0, BuildingBlock: KOZSID_clean_sbu_0, # of connection points: 4
#     Node 6, Type 0, BuildingBlock: KOZSID_clean_sbu_0, # of connection points: 4
#     Node 7, Type 0, BuildingBlock: KOZSID_clean_sbu_0, # of connection points: 4
#     Node 8, Type 0, BuildingBlock: KOZSID_clean_sbu_0, # of connection points: 4
#     Node 9, Type 0, BuildingBlock: KOZSID_clean_sbu_0, # of connection points: 4
#     Node 10, Type 0, BuildingBlock: KOZSID_clean_sbu_0, # of connection points: 4
#     Node 11, Type 0, BuildingBlock: KOZSID_clean_sbu_0, # of connection points: 4
#     Node 12, Type 0, BuildingBlock: KOZSID_clean_sbu_0, # of connection points: 4
#     Node 13, Type 0, BuildingBlock: KOZSID_clean_sbu_0, # of connection points: 4
#     Node 14, Type 0, BuildingBlock: KOZSID_clean_sbu_0, # of connection points: 4
#     Node 15, Type 0, BuildingBlock: KOZSID_clean_sbu_0, # of connection points: 4
#     Edge 16, Type (0, 0), BuildingBlock: OJICUG_clean_linker_0, # of connection points: 2
#     Edge 17, Type (0, 0), BuildingBlock: OJICUG_clean_linker_0, # of connection points: 2
#     Edge 18, Type (0, 0), BuildingBlock: OJICUG_clean_linker_0, # of connection points: 2
#     Edge 19, Type (0, 0), BuildingBlock: OJICUG_clean_linker_0, # of connection points: 2
#     Edge 20, Type (0, 0), BuildingBlock: OJICUG_clean_linker_0, # of connection points: 2
#     Edge 21, Type (0, 0), BuildingBlock: OJICUG_clean_linker_0, # of connection points: 2
#     Edge 22, Type (0, 0), BuildingBlock: OJICUG_clean_linker_0, # of connection points: 2
#     Edge 23, Type (0, 0), BuildingBlock: OJICUG_clean_linker_0, # of connection points: 2
#     Edge 24, Type (0, 0), BuildingBlock: OJICUG_clean_linker_0, # of connection points: 2
#     Edge 25, Type (0, 0), BuildingBlock: OJICUG_clean_linker_0, # of connection points: 2
#     Edge 26, Type (0, 0), BuildingBlock: OJICUG_clean_linker_0, # of connection points: 2
#     Edge 27, Type (0, 0), BuildingBlock: OJICUG_clean_linker_0, # of connection points: 2
#     Edge 28, Type (0, 0), BuildingBlock: OJICUG_clean_linker_0, # of connection points: 2
#     Edge 29, Type (0, 0), BuildingBlock: OJICUG_clean_linker_0, # of connection points: 2
#     Edge 30, Type (0, 0), BuildingBlock: OJICUG_clean_linker_0, # of connection points: 2
#     Edge 31, Type (0, 0), BuildingBlock: OJICUG_clean_linker_0, # of connection points: 2
#     Edge 32, Type (0, 0), BuildingBlock: OJICUG_clean_linker_0, # of connection points: 2
#     Edge 33, Type (0, 0), BuildingBlock: OJICUG_clean_linker_0, # of connection points: 2
#     Edge 34, Type (0, 0), BuildingBlock: OJICUG_clean_linker_0, # of connection points: 2
#     Edge 35, Type (0, 0), BuildingBlock: OJICUG_clean_linker_0, # of connection points: 2
#     Edge 36, Type (0, 0), BuildingBlock: OJICUG_clean_linker_0, # of connection points: 2
#     Edge 37, Type (0, 0), BuildingBlock: OJICUG_clean_linker_0, # of connection points: 2
#     Edge 38, Type (0, 0), BuildingBlock: OJICUG_clean_linker_0, # of connection points: 2
#     Edge 39, Type (0, 0), BuildingBlock: OJICUG_clean_linker_0, # of connection points: 2
#     Edge 40, Type (0, 0), BuildingBlock: OJICUG_clean_linker_0, # of connection points: 2
#     Edge 41, Type (0, 0), BuildingBlock: OJICUG_clean_linker_0, # of connection points: 2
#     Edge 42, Type (0, 0), BuildingBlock: OJICUG_clean_linker_0, # of connection points: 2
#     Edge 43, Type (0, 0), BuildingBlock: OJICUG_clean_linker_0, # of connection points: 2
#     Edge 44, Type (0, 0), BuildingBlock: OJICUG_clean_linker_0, # of connection points: 2
#     Edge 45, Type (0, 0), BuildingBlock: OJICUG_clean_linker_0, # of connection points: 2
#     Edge 46, Type (0, 0), BuildingBlock: OJICUG_clean_linker_0, # of connection points: 2
#     Edge 47, Type (0, 0), BuildingBlock: OJICUG_clean_linker_0, # of connection points: 2
# Relax obj value: 0.057
# Max RMSD: 0.221
# Mean RMSD: 0.221
data_MOF--net-umd--node1-KOZSID_clean_sbu_0--edge1-OJICUG_clean_linker_0
_symmetry_space_group_name_H-M    P1
_symmetry_Int_Tables_number       1
_symmetry_cell_setting            triclinic
loop_
_symmetry_equiv_pos_as_xyz
'x, y, z'
_cell_length_a     42.361978
_cell_length_b     42.436662
_cell_length_c     47.265351
_cell_angle_alpha  90.040495
_cell_angle_beta   90.136344
_cell_angle_gamma 90.02458
loop_
_atom_site_label
_atom_site_type_symbol
_atom_site_fract_x
_atom_site_fract_y
_atom_site_fract_z
_atom_type_partial_charge
C0 C 0.17733 0.44976 0.20024 0.0
C1 C 0.17043 0.42999 0.22274 0.0
C2 C 0.16642 0.40024 0.21164 0.0
C3 C 0.17118 0.40331 0.183 0.0
N4 N 0.17781 0.43313 0.17547 0.0
Co5 Co 0.18617 0.44737 0.13611 0.0
N6 N 0.16683 0.40928 0.11872 0.0
C7 C 0.16131 0.3821 0.13247 0.0
C8 C 0.14898 0.35921 0.11507 0.0
C9 C 0.14694 0.37279 0.08869 0.0
C10 C 0.1582 0.40334 0.09139 0.0
N11 N 0.19467 0.46246 0.09706 0.0
C12 C 0.18195 0.45348 0.07195 0.0
C13 C 0.19364 0.47193 0.05011 0.0
C14 C 0.21504 0.49226 0.06168 0.0
C15 C 0.21503 0.48553 0.08999 0.0
N16 N 0.20569 0.48563 0.15327 0.0
C17 C 0.22489 0.50602 0.13986 0.0
C18 C 0.23302 0.53156 0.15603 0.0
C19 C 0.2182 0.52705 0.18133 0.0
C20 C 0.20225 0.49847 0.17945 0.0
N21 N 0.2278 0.42462 0.13662 0.0
C22 C 0.28086 0.38248 0.1388 0.0
C23 C 0.26296 0.38685 0.11397 0.0
C24 C 0.23702 0.40768 0.11331 0.0
C25 C 0.27187 0.40099 0.16232 0.0
C26 C 0.24571 0.4219 0.16075 0.0
N27 N 0.14398 0.46811 0.13544 0.0
C28 C 0.10818 0.51007 0.12152 0.0
C29 C 0.08161 0.49348 0.13186 0.0
C30 C 0.08773 0.46415 0.14451 0.0
C31 C 0.11849 0.45197 0.14579 0.0
C32 C 0.13895 0.49716 0.12366 0.0
H33 H 0.12138 0.42901 0.15504 0.0
H34 H 0.15858 0.51048 0.11537 0.0
H35 H 0.22366 0.40898 0.09393 0.0
H36 H 0.23948 0.4352 0.17941 0.0
C37 C 0.16454 0.38052 0.16212 0.0
C38 C 0.18574 0.48353 0.2034 0.0
C39 C 0.16215 0.4254 0.06738 0.0
C40 C 0.22907 0.50415 0.11073 0.0
H41 H 0.16864 0.43639 0.24485 0.0
H42 H 0.15968 0.37917 0.22301 0.0
H43 H 0.14165 0.33567 0.12092 0.0
H44 H 0.13844 0.36147 0.06962 0.0
H45 H 0.18728 0.471 0.02811 0.0
H46 H 0.22788 0.51075 0.05091 0.0
H47 H 0.24645 0.55205 0.14961 0.0
H48 H 0.21888 0.54338 0.19888 0.0
H49 H 0.26807 0.37332 0.09512 0.0
H50 H 0.28488 0.39936 0.182 0.0
H51 H 0.1054 0.5327 0.11129 0.0
H52 H 0.06892 0.45034 0.15371 0.0
C53 C 0.58439 0.17476 0.70132 0.0
C54 C 0.59957 0.15926 0.72331 0.0
C55 C 0.62281 0.14126 0.71139 0.0
C56 C 0.62081 0.14687 0.68286 0.0
N57 N 0.59825 0.16789 0.6759 0.0
Co58 Co 0.58733 0.1811 0.63624 0.0
N59 N 0.62462 0.15901 0.6193 0.0
C60 C 0.64354 0.13859 0.63301 0.0
C61 C 0.66625 0.12548 0.61599 0.0
C62 C 0.6612 0.1381 0.58969 0.0
C63 C 0.63566 0.15829 0.59216 0.0
N64 N 0.57599 0.19445 0.59684 0.0
C65 C 0.59273 0.19317 0.57238 0.0
C66 C 0.57682 0.20813 0.55047 0.0
C67 C 0.54868 0.21803 0.56106 0.0
C68 C 0.54918 0.20909 0.58887 0.0
N69 N 0.54954 0.20302 0.65285 0.0
C70 C 0.52563 0.21584 0.63787 0.0
C71 C 0.50148 0.22723 0.65401 0.0
C72 C 0.51009 0.22097 0.68114 0.0
C73 C 0.53945 0.20628 0.68011 0.0
N74 N 0.61385 0.22015 0.64074 0.0
C75 C 0.65587 0.27326 0.64259 0.0
C76 C 0.62537 0.27536 0.63062 0.0
C77 C 0.6048 0.24892 0.6302 0.0
C78 C 0.66419 0.24388 0.65409 0.0
C79 C 0.64328 0.21803 0.65282 0.0
N80 N 0.56235 0.14129 0.63177 0.0
C81 C 0.53378 0.09826 0.65388 0.0
C82 C 0.53765 0.07847 0.63018 0.0
C83 C 0.5529 0.09204 0.60665 0.0
C84 C 0.56494 0.12309 0.60787 0.0
C85 C 0.54555 0.12923 0.654 0.0
H86 H 0.57713 0.1319 0.58957 0.0
H87 H 0.54186 0.1428 0.67281 0.0
H88 H 0.58177 0.25182 0.62088 0.0
H89 H 0.65163 0.19605 0.66116 0.0
C90 C 0.6403 0.13376 0.66211 0.0
C91 C 0.55488 0.19286 0.70531 0.0
C92 C 0.62159 0.17485 0.56786 0.0
C93 C 0.52673 0.21756 0.60865 0.0
H94 H 0.59378 0.16008 0.74558 0.0
H95 H 0.63906 0.1257 0.72223 0.0
H96 H 0.6844 0.10882 0.62199 0.0
H97 H 0.67449 0.1328 0.57074 0.0
H98 H 0.58472 0.21152 0.52902 0.0
H99 H 0.53047 0.23108 0.55004 0.0
H100 H 0.47986 0.23828 0.64685 0.0
H101 H 0.49548 0.2257 0.69934 0.0
H102 H 0.61725 0.29741 0.62169 0.0
H103 H 0.68733 0.24039 0.66333 0.0
H104 H 0.52261 0.08989 0.67298 0.0
H105 H 0.55588 0.07883 0.58726 0.0
C106 C 0.85701 0.58827 0.19881 0.0
C107 C 0.86461 0.60798 0.22123 0.0
C108 C 0.86852 0.63772 0.21012 0.0
C109 C 0.86299 0.63474 0.18155 0.0
N110 N 0.85596 0.60496 0.17411 0.0
Co111 Co 0.84658 0.59074 0.1349 0.0
N112 N 0.8661 0.62853 0.11724 0.0
C113 C 0.87237 0.65564 0.13089 0.0
C114 C 0.88497 0.67817 0.11331 0.0
C115 C 0.88634 0.66441 0.08695 0.0
C116 C 0.87448 0.63414 0.08984 0.0
N117 N 0.8367 0.57576 0.09603 0.0
C118 C 0.84702 0.58598 0.07051 0.0
C119 C 0.83106 0.57078 0.04874 0.0
C120 C 0.81043 0.55017 0.06094 0.0
C121 C 0.81458 0.55414 0.08945 0.0
N122 N 0.82703 0.55277 0.15232 0.0
C123 C 0.80702 0.5328 0.13927 0.0
C124 C 0.79918 0.50722 0.15547 0.0
C125 C 0.81506 0.51132 0.18039 0.0
C126 C 0.8313 0.53971 0.17831 0.0
N127 N 0.80527 0.61405 0.13592 0.0
C128 C 0.75233 0.65625 0.13826 0.0
C129 C 0.77009 0.65198 0.11345 0.0
C130 C 0.79597 0.63117 0.11272 0.0
C131 C 0.76149 0.6378 0.16178 0.0
C132 C 0.78762 0.61682 0.16012 0.0
N133 N 0.88851 0.56952 0.13375 0.0
C134 C 0.92385 0.52699 0.1203 0.0
C135 C 0.95056 0.54338 0.13076 0.0
C136 C 0.94476 0.57289 0.14314 0.0
C137 C 0.9142 0.58545 0.14411 0.0
C138 C 0.89319 0.54034 0.12209 0.0
H139 H 0.91164 0.60851 0.1532 0.0
H140 H 0.87337 0.52725 0.11375 0.0
H141 H 0.80917 0.63007 0.09334 0.0
H142 H 0.79401 0.60349 0.17873 0.0
C143 C 0.86961 0.65739 0.16058 0.0
C144 C 0.84868 0.55447 0.20197 0.0
C145 C 0.86897 0.61229 0.06592 0.0
C146 C 0.80113 0.53541 0.11037 0.0
H147 H 0.86702 0.60152 0.24327 0.0
H148 H 0.87579 0.65871 0.22141 0.0
H149 H 0.89283 0.7016 0.11904 0.0
H150 H 0.89461 0.67549 0.06773 0.0
H151 H 0.83305 0.57513 0.02641 0.0
H152 H 0.79452 0.53408 0.05029 0.0
H153 H 0.78508 0.48706 0.14932 0.0
H154 H 0.81477 0.49492 0.19787 0.0
H155 H 0.76489 0.66557 0.09464 0.0
H156 H 0.74862 0.6395 0.18148 0.0
H157 H 0.92646 0.5042 0.1103 0.0
H158 H 0.96368 0.58656 0.15244 0.0
C159 C 0.44737 0.85263 0.69944 0.0
C160 C 0.42788 0.86013 0.72199 0.0
C161 C 0.39791 0.86381 0.71111 0.0
C162 C 0.40056 0.85826 0.68254 0.0
N163 N 0.43033 0.85144 0.67488 0.0
Co164 Co 0.44414 0.84214 0.63564 0.0
N165 N 0.40585 0.86118 0.61828 0.0
C166 C 0.37865 0.86674 0.63202 0.0
C167 C 0.35585 0.87931 0.61461 0.0
C168 C 0.36954 0.8814 0.58827 0.0
C169 C 0.40005 0.87001 0.59103 0.0
N170 N 0.45885 0.83272 0.59671 0.0
C171 C 0.44844 0.84346 0.57136 0.0
C172 C 0.46348 0.82788 0.54935 0.0
C173 C 0.48422 0.8071 0.56127 0.0
C174 C 0.48047 0.81079 0.58985 0.0
N175 N 0.48245 0.82276 0.65276 0.0
C176 C 0.50233 0.80287 0.63955 0.0
C177 C 0.5282 0.79516 0.65554 0.0
C178 C 0.52437 0.81098 0.68049 0.0
C179 C 0.49583 0.82705 0.67864 0.0
N180 N 0.42107 0.80073 0.63669 0.0
C181 C 0.37886 0.74779 0.63898 0.0
C182 C 0.3832 0.76548 0.61414 0.0
C183 C 0.40401 0.79135 0.61343 0.0
C184 C 0.39728 0.75702 0.66257 0.0
C185 C 0.41825 0.78315 0.66094 0.0
N186 N 0.4651 0.88412 0.63445 0.0
C187 C 0.50895 0.91936 0.6244 0.0
C188 C 0.49118 0.94617 0.63239 0.0
C189 C 0.45999 0.94052 0.64106 0.0
C190 C 0.44784 0.90991 0.64235 0.0
C191 C 0.49548 0.88871 0.62543 0.0
H192 H 0.42397 0.90736 0.64962 0.0
H193 H 0.50959 0.86877 0.61897 0.0
H194 H 0.40511 0.80452 0.59403 0.0
H195 H 0.43152 0.78963 0.6796 0.0
C196 C 0.37737 0.86422 0.66175 0.0
C197 C 0.48129 0.84434 0.70239 0.0
C198 C 0.42211 0.86552 0.5672 0.0
C199 C 0.49945 0.79719 0.61061 0.0
H200 H 0.43461 0.86254 0.74399 0.0
H201 H 0.37697 0.87081 0.72257 0.0
H202 H 0.33236 0.88689 0.62047 0.0
H203 H 0.35831 0.88997 0.56918 0.0
H204 H 0.45894 0.83024 0.52705 0.0
H205 H 0.50028 0.79142 0.55039 0.0
H206 H 0.54839 0.78123 0.64922 0.0
H207 H 0.54108 0.81078 0.69781 0.0
H208 H 0.36962 0.76026 0.59528 0.0
H209 H 0.39553 0.74421 0.68229 0.0
H210 H 0.53321 0.92181 0.61765 0.0
H211 H 0.44433 0.95966 0.64659 0.0
C212 C 0.17976 0.58773 0.31384 0.0
C213 C 0.17229 0.60706 0.29115 0.0
C214 C 0.16837 0.63699 0.30188 0.0
C215 C 0.17379 0.63449 0.3305 0.0
N216 N 0.18075 0.60483 0.33832 0.0
Co217 Co 0.18989 0.59125 0.37771 0.0
N218 N 0.17015 0.62921 0.39482 0.0
C219 C 0.16398 0.65613 0.38087 0.0
C220 C 0.15104 0.6788 0.39813 0.0
C221 C 0.14933 0.66532 0.42459 0.0
C222 C 0.16133 0.63507 0.42206 0.0
N223 N 0.19955 0.5769 0.41677 0.0
C224 C 0.18894 0.58744 0.4421 0.0
C225 C 0.20489 0.57278 0.46416 0.0
C226 C 0.22579 0.55216 0.45232 0.0
C227 C 0.22179 0.5556 0.42373 0.0
N228 N 0.20964 0.55309 0.36084 0.0
C229 C 0.22966 0.53342 0.3742 0.0
C230 C 0.23753 0.50755 0.35837 0.0
C231 C 0.22167 0.51114 0.33337 0.0
C232 C 0.20541 0.53955 0.33502 0.0
N233 N 0.23115 0.61467 0.37668 0.0
C234 C 0.28415 0.65683 0.37428 0.0
C235 C 0.26616 0.65293 0.399 0.0
C236 C 0.24024 0.63216 0.39975 0.0
C237 C 0.27518 0.63805 0.35088 0.0
C238 C 0.24902 0.6171 0.35257 0.0
N239 N 0.14803 0.56993 0.37887 0.0
C240 C 0.11266 0.52758 0.39271 0.0
C241 C 0.086 0.54378 0.38197 0.0
C242 C 0.09184 0.57308 0.36924 0.0
C243 C 0.12238 0.58565 0.36822 0.0
C244 C 0.14332 0.54093 0.39086 0.0
H245 H 0.12497 0.60856 0.35885 0.0
H246 H 0.16311 0.52802 0.39945 0.0
H247 H 0.22685 0.63135 0.41903 0.0
H248 H 0.24278 0.60349 0.33406 0.0
C249 C 0.16699 0.65746 0.35118 0.0
C250 C 0.18804 0.55386 0.31114 0.0
C251 C 0.16656 0.61347 0.44617 0.0
C252 C 0.23544 0.53658 0.40309 0.0
H253 H 0.16995 0.60024 0.26918 0.0
H254 H 0.16115 0.65778 0.29031 0.0
H255 H 0.14314 0.70211 0.39213 0.0
H256 H 0.14074 0.67657 0.44363 0.0
H257 H 0.20272 0.57751 0.48644 0.0
H258 H 0.24175 0.53639 0.46326 0.0
H259 H 0.25162 0.48752 0.36483 0.0
H260 H 0.22197 0.49437 0.31616 0.0
H261 H 0.27121 0.6668 0.4177 0.0
H262 H 0.28822 0.63948 0.33126 0.0
H263 H 0.10999 0.50495 0.40297 0.0
H264 H 0.07294 0.58657 0.35973 0.0
C265 C 0.44982 0.17885 0.81472 0.0
C266 C 0.43171 0.16784 0.79235 0.0
C267 C 0.40493 0.15514 0.80387 0.0
C268 C 0.40807 0.15912 0.83258 0.0
N269 N 0.43508 0.1736 0.84009 0.0
Co270 Co 0.44787 0.18435 0.87995 0.0
N271 N 0.41064 0.1622 0.89718 0.0
C272 C 0.38701 0.14844 0.88267 0.0
C273 C 0.36463 0.13483 0.89976 0.0
C274 C 0.37464 0.14037 0.92691 0.0
C275 C 0.40258 0.15714 0.92484 0.0
N276 N 0.46085 0.19599 0.91955 0.0
C277 C 0.4473 0.18969 0.94501 0.0
C278 C 0.4622 0.20585 0.96678 0.0
C279 C 0.48633 0.22233 0.95496 0.0
C280 C 0.48452 0.2157 0.92667 0.0
N281 N 0.4854 0.20646 0.863 0.0
C282 C 0.50696 0.22351 0.87741 0.0
C283 C 0.53128 0.23453 0.86124 0.0
C284 C 0.52496 0.22405 0.83465 0.0
C285 C 0.49655 0.20765 0.83594 0.0
N286 N 0.42201 0.22421 0.87758 0.0
C287 C 0.3796 0.27694 0.87366 0.0
C288 C 0.38205 0.25853 0.89824 0.0
C289 C 0.40289 0.23277 0.8997 0.0
C290 C 0.39956 0.26834 0.85106 0.0
C291 C 0.4206 0.24236 0.85351 0.0
N292 N 0.47231 0.14349 0.88236 0.0
C293 C 0.4984 0.09969 0.85858 0.0
C294 C 0.49642 0.08013 0.88255 0.0
C295 C 0.48348 0.09407 0.90692 0.0
C296 C 0.47179 0.12525 0.90637 0.0
C297 C 0.48695 0.13084 0.85911 0.0
H298 H 0.46191 0.13396 0.9256 0.0
H299 H 0.48963 0.14399 0.84013 0.0
H300 H 0.40262 0.21951 0.91892 0.0
H301 H 0.43537 0.23685 0.83567 0.0
C302 C 0.38712 0.14821 0.85314 0.0
C303 C 0.48119 0.19365 0.81093 0.0
C304 C 0.42007 0.169 0.94965 0.0
C305 C 0.50481 0.22735 0.90638 0.0
H306 H 0.43739 0.16874 0.77005 0.0
H307 H 0.38566 0.14391 0.79265 0.0
H308 H 0.34356 0.12231 0.89326 0.0
H309 H 0.36262 0.13328 0.94606 0.0
H310 H 0.45566 0.20645 0.98877 0.0
H311 H 0.50293 0.23769 0.96565 0.0
H312 H 0.55164 0.24795 0.86812 0.0
H313 H 0.54007 0.22794 0.81663 0.0
H314 H 0.36717 0.26332 0.91632 0.0
H315 H 0.39917 0.28172 0.83157 0.0
H316 H 0.50798 0.09102 0.83887 0.0
H317 H 0.48217 0.0811 0.92658 0.0
C318 C 0.85849 0.45104 0.31294 0.0
C319 C 0.8651 0.43137 0.29028 0.0
C320 C 0.86905 0.40155 0.30118 0.0
C321 C 0.86454 0.40448 0.32987 0.0
N322 N 0.85812 0.43429 0.33761 0.0
Co323 Co 0.85024 0.44839 0.37712 0.0
N324 N 0.86957 0.41013 0.39413 0.0
C325 C 0.87482 0.383 0.38017 0.0
C326 C 0.8871 0.35991 0.39735 0.0
C327 C 0.88936 0.37329 0.4238 0.0
C328 C 0.87828 0.40391 0.42137 0.0
N329 N 0.84228 0.46338 0.41632 0.0
C330 C 0.85518 0.45419 0.44128 0.0
C331 C 0.84397 0.47272 0.46331 0.0
C332 C 0.82264 0.49327 0.45201 0.0
C333 C 0.82223 0.4866 0.42368 0.0
N334 N 0.83069 0.48678 0.36029 0.0
C335 C 0.81177 0.50721 0.37396 0.0
C336 C 0.8036 0.53285 0.35796 0.0
C337 C 0.81811 0.52837 0.33251 0.0
C338 C 0.83394 0.49972 0.33413 0.0
N339 N 0.80853 0.42578 0.37694 0.0
C340 C 0.75535 0.38376 0.37538 0.0
C341 C 0.77348 0.38828 0.40005 0.0
C342 C 0.79947 0.40904 0.4004 0.0
C343 C 0.76416 0.40204 0.35168 0.0
C344 C 0.79039 0.42292 0.35296 0.0
N345 N 0.89248 0.46899 0.37753 0.0
C346 C 0.92848 0.5108 0.39148 0.0
C347 C 0.95492 0.49415 0.38101 0.0
C348 C 0.94867 0.46488 0.36826 0.0
C349 C 0.91786 0.4528 0.36701 0.0
C350 C 0.89767 0.498 0.38938 0.0
H351 H 0.91482 0.42989 0.35767 0.0
H352 H 0.87814 0.51135 0.39779 0.0
H353 H 0.813 0.41042 0.41967 0.0
H354 H 0.79649 0.43606 0.33419 0.0
C355 C 0.87129 0.38157 0.35055 0.0
C356 C 0.85026 0.48487 0.31001 0.0
C357 C 0.87452 0.42575 0.44558 0.0
C358 C 0.80802 0.50532 0.40314 0.0
H359 H 0.86676 0.43788 0.2682 0.0
H360 H 0.8756 0.38052 0.28965 0.0
H361 H 0.89419 0.33635 0.3913 0.0
H362 H 0.89786 0.36176 0.44276 0.0
H363 H 0.85053 0.47168 0.48529 0.0
H364 H 0.81007 0.51182 0.46296 0.0
H365 H 0.79039 0.55339 0.3646 0.0
H366 H 0.81737 0.54479 0.31506 0.0
H367 H 0.7685 0.3749 0.41901 0.0
H368 H 0.75097 0.40025 0.33211 0.0
H369 H 0.93138 0.53338 0.40179 0.0
H370 H 0.96741 0.45105 0.35897 0.0
C371 C 0.58603 0.85378 0.81292 0.0
C372 C 0.60548 0.86113 0.79031 0.0
C373 C 0.63545 0.86495 0.80113 0.0
C374 C 0.63285 0.85963 0.82974 0.0
N375 N 0.6031 0.85283 0.83748 0.0
Co376 Co 0.58941 0.8437 0.87681 0.0
N377 N 0.62783 0.86273 0.89404 0.0
C378 C 0.65494 0.86831 0.88017 0.0
C379 C 0.67792 0.88076 0.89749 0.0
C380 C 0.66445 0.88276 0.92392 0.0
C381 C 0.63389 0.87141 0.9213 0.0
N382 N 0.57484 0.83441 0.91582 0.0
C383 C 0.5855 0.84501 0.94116 0.0
C384 C 0.57047 0.82949 0.96319 0.0
C385 C 0.54948 0.80889 0.95133 0.0
C386 C 0.55308 0.81262 0.92275 0.0
N387 N 0.55094 0.82436 0.85982 0.0
C388 C 0.53096 0.80468 0.87316 0.0
C389 C 0.505 0.79698 0.85727 0.0
C390 C 0.50886 0.81258 0.83224 0.0
C391 C 0.53752 0.82849 0.83394 0.0
N392 N 0.61234 0.80223 0.8757 0.0
C393 C 0.65434 0.74916 0.87322 0.0
C394 C 0.65021 0.7669 0.89808 0.0
C395 C 0.6295 0.79284 0.89888 0.0
C396 C 0.63583 0.7584 0.84972 0.0
C397 C 0.61495 0.78459 0.85145 0.0
N398 N 0.56856 0.88574 0.878 0.0
C399 C 0.52488 0.92108 0.88835 0.0
C400 C 0.54249 0.94779 0.87985 0.0
C401 C 0.5735 0.94209 0.87075 0.0
C402 C 0.5857 0.91147 0.86968 0.0
C403 C 0.53833 0.89042 0.88736 0.0
H404 H 0.60949 0.90886 0.86221 0.0
H405 H 0.52431 0.87055 0.89415 0.0
H406 H 0.62856 0.80604 0.91829 0.0
H407 H 0.60158 0.79105 0.83285 0.0
C408 C 0.65609 0.86569 0.85045 0.0
C409 C 0.55212 0.8454 0.81002 0.0
C410 C 0.61208 0.8668 0.94531 0.0
C411 C 0.53393 0.7991 0.90208 0.0
H412 H 0.59872 0.86335 0.7683 0.0
H413 H 0.65638 0.87187 0.78962 0.0
H414 H 0.7014 0.88827 0.89153 0.0
H415 H 0.67587 0.89118 0.94298 0.0
H416 H 0.57519 0.83174 0.98546 0.0
H417 H 0.53339 0.79329 0.96225 0.0
H418 H 0.48475 0.78319 0.86369 0.0
H419 H 0.49213 0.81232 0.81494 0.0
H420 H 0.66386 0.76165 0.91688 0.0
H421 H 0.63741 0.74556 0.82998 0.0
H422 H 0.50076 0.92361 0.89545 0.0
H423 H 0.58896 0.96123 0.86475 0.0
C424 C 0.83382 0.53457 0.83269 0.0
C425 C 0.81846 0.50567 0.83073 0.0
C426 C 0.80366 0.5008 0.85597 0.0
C427 C 0.81123 0.52646 0.87222 0.0
N428 N 0.83005 0.54727 0.85888 0.0
Co429 Co 0.84885 0.58579 0.87625 0.0
N430 N 0.84077 0.57026 0.91522 0.0
C431 C 0.82107 0.5466 0.9222 0.0
C432 C 0.82132 0.53965 0.95047 0.0
C433 C 0.84221 0.56046 0.96213 0.0
C434 C 0.85333 0.57938 0.94037 0.0
N435 N 0.86707 0.62433 0.89387 0.0
C436 C 0.87545 0.6304 0.92124 0.0
C437 C 0.88575 0.66126 0.92408 0.0
C438 C 0.88336 0.67492 0.89776 0.0
C439 C 0.87176 0.65175 0.88024 0.0
N440 N 0.85726 0.6003 0.83699 0.0
C441 C 0.8635 0.63023 0.82958 0.0
C442 C 0.86848 0.63345 0.80099 0.0
C443 C 0.86503 0.60367 0.78979 0.0
C444 C 0.85821 0.58373 0.81218 0.0
N445 N 0.80681 0.60769 0.87571 0.0
C446 C 0.75363 0.64959 0.87347 0.0
C447 C 0.76304 0.63156 0.8498 0.0
C448 C 0.78926 0.61074 0.8514 0.0
C449 C 0.77108 0.64478 0.89849 0.0
C450 C 0.79707 0.62405 0.89918 0.0
N451 N 0.89138 0.56593 0.87683 0.0
C452 C 0.94787 0.57227 0.8708 0.0
C453 C 0.95398 0.54096 0.87885 0.0
C454 C 0.92728 0.52246 0.88583 0.0
C455 C 0.89644 0.53538 0.88493 0.0
C456 C 0.91695 0.58389 0.86951 0.0
H457 H 0.87672 0.52066 0.89081 0.0
H458 H 0.91396 0.60789 0.86278 0.0
H459 H 0.79588 0.59786 0.83262 0.0
H460 H 0.81013 0.62247 0.9187 0.0
C461 C 0.80724 0.52794 0.90139 0.0
C462 C 0.8502 0.54985 0.80884 0.0
C463 C 0.87226 0.60805 0.94511 0.0
C464 C 0.86908 0.65321 0.85054 0.0
H465 H 0.81825 0.48932 0.81319 0.0
H466 H 0.79073 0.47999 0.86234 0.0
H467 H 0.80894 0.52079 0.96116 0.0
H468 H 0.84854 0.56141 0.98415 0.0
H469 H 0.89395 0.67272 0.94319 0.0
H470 H 0.89011 0.69865 0.89199 0.0
H471 H 0.87487 0.65468 0.7897 0.0
H472 H 0.86707 0.59737 0.76767 0.0
H473 H 0.75036 0.63353 0.82998 0.0
H474 H 0.76562 0.65794 0.91748 0.0
H475 H 0.9668 0.5884 0.86584 0.0
H476 H 0.92985 0.498 0.89179 0.0
C477 C 0.49947 0.83538 0.33428 0.0
C478 C 0.52814 0.8196 0.33218 0.0
C479 C 0.53279 0.8043 0.35724 0.0
C480 C 0.50726 0.81203 0.37355 0.0
N481 N 0.48674 0.83139 0.3604 0.0
Co482 Co 0.4486 0.85069 0.37789 0.0
N483 N 0.46419 0.84192 0.41678 0.0
C484 C 0.48757 0.82181 0.42361 0.0
C485 C 0.49468 0.82168 0.45187 0.0
C486 C 0.47423 0.84273 0.46368 0.0
C487 C 0.45534 0.85431 0.44201 0.0
N488 N 0.41039 0.86936 0.39561 0.0
C489 C 0.4045 0.87739 0.42304 0.0
C490 C 0.37377 0.88815 0.42597 0.0
C491 C 0.35999 0.8864 0.39963 0.0
C492 C 0.38296 0.8747 0.38202 0.0
N493 N 0.43405 0.8598 0.33875 0.0
C494 C 0.40418 0.86666 0.33136 0.0
C495 C 0.401 0.87211 0.30281 0.0
C496 C 0.43075 0.86834 0.29163 0.0
C497 C 0.45062 0.86088 0.314 0.0
N498 N 0.42594 0.8091 0.37708 0.0
C499 C 0.38378 0.75612 0.37469 0.0
C500 C 0.40181 0.7656 0.35105 0.0
C501 C 0.42273 0.79173 0.35272 0.0
C502 C 0.38866 0.77348 0.39973 0.0
C503 C 0.40952 0.79936 0.4005 0.0
N504 N 0.46937 0.89278 0.37876 0.0
C505 C 0.46446 0.94946 0.37339 0.0
C506 C 0.49605 0.95421 0.38097 0.0
C507 C 0.51422 0.92725 0.38713 0.0
C508 C 0.50037 0.89687 0.38629 0.0
C509 C 0.45186 0.91891 0.37199 0.0
H510 H 0.5147 0.87675 0.3918 0.0
H511 H 0.42766 0.91663 0.36541 0.0
H512 H 0.43564 0.79839 0.33397 0.0
H513 H 0.41123 0.81227 0.42006 0.0
C514 C 0.50587 0.80781 0.40269 0.0
C515 C 0.48441 0.85247 0.31068 0.0
C516 C 0.42682 0.8734 0.44689 0.0
C517 C 0.38133 0.8724 0.35232 0.0
H518 H 0.54452 0.81945 0.31468 0.0
H519 H 0.55345 0.79099 0.3635 0.0
H520 H 0.51338 0.80889 0.46246 0.0
H521 H 0.47346 0.84882 0.48576 0.0
H522 H 0.36247 0.89621 0.44517 0.0
H523 H 0.33631 0.89358 0.39392 0.0
H524 H 0.37984 0.87903 0.29156 0.0
H525 H 0.43707 0.87062 0.26956 0.0
H526 H 0.39978 0.75301 0.3312 0.0
H527 H 0.37549 0.768 0.41869 0.0
H528 H 0.44955 0.96931 0.36801 0.0
H529 H 0.53881 0.92966 0.39306 0.0
C530 C 0.20212 0.4934 0.83364 0.0
C531 C 0.21858 0.52166 0.83133 0.0
C532 C 0.23502 0.52557 0.85599 0.0
C533 C 0.22727 0.50006 0.87229 0.0
N534 N 0.20678 0.48031 0.85955 0.0
Co535 Co 0.18718 0.44255 0.87731 0.0
N536 N 0.19767 0.45763 0.91599 0.0
C537 C 0.22002 0.4791 0.92229 0.0
C538 C 0.22454 0.48314 0.95074 0.0
C539 C 0.20388 0.46275 0.96321 0.0
C540 C 0.18755 0.44759 0.94165 0.0
N541 N 0.168 0.40478 0.89534 0.0
C542 C 0.15996 0.3993 0.92283 0.0
C543 C 0.14821 0.36901 0.92597 0.0
C544 C 0.14929 0.35512 0.89965 0.0
C545 C 0.16163 0.37759 0.88185 0.0
N546 N 0.17676 0.42842 0.83833 0.0
C547 C 0.16918 0.39874 0.83103 0.0
C548 C 0.1629 0.39584 0.80258 0.0
C549 C 0.16689 0.42554 0.79139 0.0
C550 C 0.1753 0.44514 0.81365 0.0
N551 N 0.2283 0.41909 0.87574 0.0
C552 C 0.28113 0.37686 0.87293 0.0
C553 C 0.27161 0.39515 0.84942 0.0
C554 C 0.2455 0.41611 0.8513 0.0
C555 C 0.26374 0.38127 0.89793 0.0
C556 C 0.23796 0.40214 0.89891 0.0
N557 N 0.14549 0.46403 0.87893 0.0
C558 C 0.08865 0.45997 0.87368 0.0
C559 C 0.08443 0.4915 0.88135 0.0
C560 C 0.11173 0.50924 0.88757 0.0
C561 C 0.14197 0.49497 0.88664 0.0
C562 C 0.11899 0.44699 0.87219 0.0
H563 H 0.16244 0.50889 0.89212 0.0
H564 H 0.12079 0.42288 0.86546 0.0
H565 H 0.23876 0.42929 0.8327 0.0
H566 H 0.22511 0.40342 0.91847 0.0
C567 C 0.23347 0.49753 0.90115 0.0
C568 C 0.1841 0.47883 0.81029 0.0
C569 C 0.16553 0.42138 0.94654 0.0
C570 C 0.16334 0.37598 0.85209 0.0
H571 H 0.21862 0.53812 0.8139 0.0
H572 H 0.24937 0.54563 0.86194 0.0
H573 H 0.24074 0.49911 0.9612 0.0
H574 H 0.20216 0.45845 0.98556 0.0
H575 H 0.14011 0.35804 0.9453 0.0
H576 H 0.14123 0.33172 0.89406 0.0
H577 H 0.15522 0.37491 0.79141 0.0
H578 H 0.16406 0.43202 0.76939 0.0
H579 H 0.28416 0.39333 0.82957 0.0
H580 H 0.26913 0.36777 0.91675 0.0
H581 H 0.0685 0.44541 0.86825 0.0
H582 H 0.10971 0.53378 0.89355 0.0
C583 C 0.53938 0.20469 0.33638 0.0
C584 C 0.51038 0.21998 0.33488 0.0
C585 C 0.50586 0.23448 0.36033 0.0
C586 C 0.53181 0.22683 0.37622 0.0
N587 N 0.55254 0.20831 0.36245 0.0
Co588 Co 0.5915 0.18951 0.37911 0.0
N589 N 0.57663 0.19726 0.4184 0.0
C590 C 0.55271 0.21641 0.42588 0.0
C591 C 0.54641 0.21602 0.45428 0.0
C592 C 0.56799 0.19568 0.46554 0.0
C593 C 0.58665 0.18503 0.44338 0.0
N594 N 0.63059 0.1714 0.39598 0.0
C595 C 0.63758 0.16359 0.42326 0.0
C596 C 0.66868 0.15373 0.42558 0.0
C597 C 0.68158 0.15582 0.39897 0.0
C598 C 0.65775 0.16684 0.38185 0.0
N599 N 0.60527 0.18134 0.33959 0.0
C600 C 0.63507 0.17509 0.33165 0.0
C601 C 0.63765 0.17011 0.30299 0.0
C602 C 0.60758 0.17352 0.29231 0.0
C603 C 0.58814 0.18033 0.31507 0.0
N604 N 0.61338 0.23156 0.37861 0.0
C605 C 0.65544 0.28463 0.37629 0.0
C606 C 0.63712 0.27525 0.3527 0.0
C607 C 0.61624 0.24909 0.35434 0.0
C608 C 0.65079 0.26723 0.40128 0.0
C609 C 0.62997 0.24131 0.40202 0.0
N610 N 0.57162 0.14697 0.3796 0.0
C611 C 0.57764 0.0906 0.3729 0.0
C612 C 0.54614 0.08453 0.38054 0.0
C613 C 0.52776 0.11122 0.38779 0.0
C614 C 0.54093 0.14194 0.38745 0.0
C615 C 0.58951 0.12144 0.37212 0.0
H616 H 0.52624 0.16159 0.39348 0.0
H617 H 0.61359 0.12438 0.36553 0.0
H618 H 0.60315 0.2425 0.33562 0.0
H619 H 0.62856 0.22832 0.42152 0.0
C620 C 0.53361 0.23032 0.40545 0.0
C621 C 0.55415 0.18823 0.31233 0.0
C622 C 0.61605 0.16717 0.44762 0.0
C623 C 0.65855 0.16953 0.35216 0.0
H624 H 0.49371 0.22025 0.31754 0.0
H625 H 0.48504 0.24719 0.36708 0.0
H626 H 0.52766 0.22815 0.46536 0.0
H627 H 0.56987 0.18959 0.48761 0.0
H628 H 0.68082 0.14618 0.44457 0.0
H629 H 0.70531 0.14943 0.39278 0.0
H630 H 0.65865 0.16373 0.29133 0.0
H631 H 0.60076 0.17145 0.27031 0.0
H632 H 0.63894 0.28791 0.33289 0.0
H633 H 0.66414 0.27265 0.42021 0.0
H634 H 0.59374 0.07171 0.36778 0.0
H635 H 0.5032 0.10875 0.3935 0.0
C636 C 0.83023 0.49335 0.67756 0.0
C637 C 0.81367 0.52157 0.67943 0.0
C638 C 0.79721 0.5249 0.65472 0.0
C639 C 0.80506 0.49911 0.6388 0.0
N640 N 0.82564 0.47973 0.65183 0.0
Co641 Co 0.84555 0.44185 0.63458 0.0
N642 N 0.83513 0.45624 0.59571 0.0
C643 C 0.81259 0.47735 0.58906 0.0
C644 C 0.80826 0.48091 0.56053 0.0
C645 C 0.82925 0.46058 0.5484 0.0
C646 C 0.84559 0.44597 0.57024 0.0
N647 N 0.86498 0.40394 0.61708 0.0
C648 C 0.87339 0.39821 0.58973 0.0
C649 C 0.88536 0.36799 0.58694 0.0
C650 C 0.8841 0.3544 0.61338 0.0
C651 C 0.8714 0.37698 0.63087 0.0
N652 N 0.85597 0.42845 0.67375 0.0
C653 C 0.86368 0.39894 0.68143 0.0
C654 C 0.86996 0.39658 0.70992 0.0
C655 C 0.86584 0.42646 0.72071 0.0
C656 C 0.85735 0.44563 0.6982 0.0
N657 N 0.80455 0.41806 0.63627 0.0
C658 C 0.75237 0.3751 0.63955 0.0
C659 C 0.76215 0.39324 0.66307 0.0
C660 C 0.78781 0.41469 0.66092 0.0
C661 C 0.76891 0.38013 0.61422 0.0
C662 C 0.7946 0.4012 0.61308 0.0
N663 N 0.88711 0.46358 0.63281 0.0
C664 C 0.94397 0.45994 0.63819 0.0
C665 C 0.94802 0.49135 0.63014 0.0
C666 C 0.92066 0.50883 0.62365 0.0
C667 C 0.89049 0.49441 0.62472 0.0
C668 C 0.91369 0.44682 0.6398 0.0
H669 H 0.86996 0.50811 0.61903 0.0
H670 H 0.91201 0.4228 0.64682 0.0
H671 H 0.79466 0.42784 0.67952 0.0
H672 H 0.80717 0.40269 0.59338 0.0
C673 C 0.79893 0.49603 0.60995 0.0
C674 C 0.84834 0.47933 0.70114 0.0
C675 C 0.86809 0.42009 0.56587 0.0
C676 C 0.86965 0.37584 0.66065 0.0
H677 H 0.81359 0.53842 0.69659 0.0
H678 H 0.7828 0.54478 0.64846 0.0
H679 H 0.79199 0.49655 0.5498 0.0
H680 H 0.83123 0.45598 0.52608 0.0
H681 H 0.89381 0.35688 0.56778 0.0
H682 H 0.89234 0.33116 0.61924 0.0
H683 H 0.87773 0.37589 0.72135 0.0
H684 H 0.86861 0.43333 0.74263 0.0
H685 H 0.75014 0.39086 0.68314 0.0
H686 H 0.76297 0.36681 0.5954 0.0
H687 H 0.9642 0.44561 0.64379 0.0
H688 H 0.9226 0.53329 0.61738 0.0
C689 C 0.53778 0.83516 0.17901 0.0
C690 C 0.50909 0.81941 0.18135 0.0
C691 C 0.50416 0.80409 0.15632 0.0
C692 C 0.52955 0.81176 0.13981 0.0
N693 N 0.55024 0.83111 0.1528 0.0
Co694 Co 0.58827 0.85028 0.13503 0.0
N695 N 0.57225 0.84157 0.09627 0.0
C696 C 0.54874 0.8215 0.0896 0.0
C697 C 0.54129 0.82147 0.06141 0.0
C698 C 0.56163 0.84253 0.04948 0.0
C699 C 0.58083 0.85402 0.07099 0.0
N700 N 0.62637 0.86881 0.11699 0.0
C701 C 0.63196 0.8769 0.08953 0.0
C702 C 0.66271 0.88754 0.08634 0.0
C703 C 0.67678 0.88566 0.11256 0.0
C704 C 0.65397 0.87401 0.13035 0.0
N705 N 0.60325 0.85934 0.17405 0.0
C706 C 0.63323 0.86609 0.1812 0.0
C707 C 0.6367 0.87157 0.20972 0.0
C708 C 0.60704 0.86795 0.22113 0.0
C709 C 0.58692 0.86053 0.19892 0.0
N710 N 0.61075 0.80862 0.13563 0.0
C711 C 0.65284 0.75563 0.13787 0.0
C712 C 0.63495 0.76516 0.16158 0.0
C713 C 0.61406 0.79129 0.15998 0.0
C714 C 0.64783 0.77291 0.11283 0.0
C715 C 0.627 0.79881 0.11214 0.0
N716 N 0.5677 0.89244 0.13444 0.0
C717 C 0.57293 0.94905 0.14016 0.0
C718 C 0.5412 0.95394 0.13319 0.0
C719 C 0.52281 0.92709 0.12709 0.0
C720 C 0.53657 0.89667 0.12742 0.0
C721 C 0.58544 0.91847 0.14109 0.0
H722 H 0.52206 0.87662 0.12201 0.0
H723 H 0.60975 0.91609 0.14729 0.0
H724 H 0.60127 0.79799 0.17879 0.0
H725 H 0.62518 0.81169 0.09258 0.0
C726 C 0.53062 0.80753 0.11065 0.0
C727 C 0.55311 0.85228 0.20248 0.0
C728 C 0.60931 0.8731 0.06589 0.0
C729 C 0.6559 0.87172 0.16005 0.0
H730 H 0.49289 0.8193 0.19898 0.0
H731 H 0.48341 0.79081 0.15022 0.0
H732 H 0.52241 0.80876 0.05096 0.0
H733 H 0.56212 0.84873 0.02744 0.0
H734 H 0.67382 0.8956 0.06707 0.0
H735 H 0.70056 0.89276 0.11807 0.0
H736 H 0.658 0.87843 0.22082 0.0
H737 H 0.60093 0.8703 0.24325 0.0
H738 H 0.63707 0.75262 0.18142 0.0
H739 H 0.66088 0.76736 0.09381 0.0
H740 H 0.588 0.96883 0.14547 0.0
H741 H 0.4981 0.92961 0.12162 0.0
C742 C 0.19867 0.53346 0.67835 0.0
C743 C 0.21384 0.50445 0.68003 0.0
C744 C 0.2285 0.4997 0.6547 0.0
C745 C 0.22103 0.52552 0.63868 0.0
N746 N 0.20241 0.54633 0.65223 0.0
Co747 Co 0.18371 0.58506 0.63522 0.0
N748 N 0.1916 0.56982 0.59609 0.0
C749 C 0.21111 0.54609 0.58887 0.0
C750 C 0.21068 0.53933 0.56056 0.0
C751 C 0.1899 0.56034 0.54911 0.0
C752 C 0.17903 0.57921 0.57104 0.0
N753 N 0.16554 0.62379 0.61797 0.0
C754 C 0.1572 0.63016 0.59066 0.0
C755 C 0.14697 0.66107 0.58811 0.0
C756 C 0.1494 0.67446 0.61454 0.0
C757 C 0.16094 0.6511 0.63184 0.0
N758 N 0.17553 0.5993 0.67462 0.0
C759 C 0.16945 0.6292 0.68228 0.0
C760 C 0.16463 0.63222 0.71092 0.0
C761 C 0.16801 0.60236 0.72188 0.0
C762 C 0.17462 0.58257 0.69931 0.0
N763 N 0.22583 0.60683 0.6358 0.0
C764 C 0.27918 0.64855 0.63824 0.0
C765 C 0.26978 0.63035 0.66179 0.0
C766 C 0.24349 0.60962 0.66008 0.0
C767 C 0.26163 0.64401 0.61323 0.0
C768 C 0.23555 0.62336 0.61244 0.0
N769 N 0.14111 0.56533 0.6346 0.0
C770 C 0.08472 0.57157 0.64133 0.0
C771 C 0.07846 0.54055 0.63253 0.0
C772 C 0.10499 0.52221 0.6248 0.0
C773 C 0.13587 0.53501 0.62581 0.0
C774 C 0.11568 0.58314 0.64255 0.0
H775 H 0.15548 0.52042 0.61943 0.0
H776 H 0.11881 0.60697 0.64973 0.0
H777 H 0.23689 0.59658 0.67877 0.0
H778 H 0.22243 0.62199 0.59294 0.0
C779 C 0.22489 0.5272 0.60951 0.0
C780 C 0.18249 0.54864 0.70237 0.0
C781 C 0.16039 0.6081 0.56655 0.0
C782 C 0.1638 0.65234 0.66153 0.0
H783 H 0.21401 0.48796 0.69744 0.0
H784 H 0.24126 0.47886 0.64813 0.0
H785 H 0.22288 0.52046 0.54971 0.0
H786 H 0.18348 0.56144 0.5271 0.0
H787 H 0.13883 0.67274 0.5691 0.0
H788 H 0.14277 0.69817 0.62053 0.0
H789 H 0.15838 0.65339 0.72239 0.0
H790 H 0.16605 0.5959 0.74395 0.0
H791 H 0.28254 0.63212 0.68159 0.0
H792 H 0.26708 0.65732 0.59434 0.0
H793 H 0.06583 0.58751 0.64692 0.0
H794 H 0.10219 0.49796 0.61819 0.0
C795 C 0.49736 0.2049 0.18133 0.0
C796 C 0.52606 0.22072 0.18309 0.0
C797 C 0.53056 0.23536 0.1577 0.0
C798 C 0.50488 0.22728 0.14159 0.0
N799 N 0.48439 0.20834 0.15518 0.0
Co800 Co 0.44589 0.18895 0.13824 0.0
N801 N 0.46117 0.19658 0.09914 0.0
C802 C 0.48469 0.21629 0.09179 0.0
C803 C 0.4916 0.21545 0.06352 0.0
C804 C 0.47089 0.19419 0.05227 0.0
C805 C 0.45204 0.18348 0.07426 0.0
N806 N 0.40734 0.17015 0.12109 0.0
C807 C 0.40113 0.16144 0.09388 0.0
C808 C 0.37024 0.15098 0.09124 0.0
C809 C 0.35672 0.15359 0.11759 0.0
C810 C 0.37998 0.1655 0.13489 0.0
N811 N 0.4317 0.18096 0.17763 0.0
C812 C 0.40184 0.17461 0.1853 0.0
C813 C 0.399 0.16975 0.21395 0.0
C814 C 0.42895 0.17337 0.22488 0.0
C815 C 0.4486 0.18016 0.20228 0.0
N816 N 0.42351 0.23073 0.13824 0.0
C817 C 0.38104 0.28353 0.13964 0.0
C818 C 0.39918 0.27462 0.16348 0.0
C819 C 0.42025 0.24858 0.1623 0.0
C820 C 0.38603 0.26574 0.1149 0.0
C821 C 0.40704 0.23996 0.11461 0.0
N822 N 0.46621 0.14666 0.13812 0.0
C823 C 0.46041 0.09026 0.14466 0.0
C824 C 0.49171 0.08431 0.13638 0.0
C825 C 0.50995 0.11107 0.12906 0.0
C826 C 0.49678 0.14177 0.12983 0.0
C827 C 0.44853 0.12105 0.14581 0.0
H828 H 0.51129 0.16151 0.12367 0.0
H829 H 0.42453 0.12391 0.15269 0.0
H830 H 0.43319 0.24235 0.1812 0.0
H831 H 0.40873 0.22666 0.09527 0.0
C832 C 0.50328 0.23074 0.11235 0.0
C833 C 0.48256 0.18819 0.20522 0.0
C834 C 0.42332 0.1645 0.06992 0.0
C835 C 0.37868 0.16859 0.16455 0.0
H836 H 0.54255 0.2213 0.20056 0.0
H837 H 0.55121 0.24846 0.15113 0.0
H838 H 0.51036 0.22773 0.05259 0.0
H839 H 0.46988 0.18737 0.03035 0.0
H840 H 0.35868 0.14257 0.07224 0.0
H841 H 0.333 0.14684 0.12352 0.0
H842 H 0.37791 0.16326 0.22545 0.0
H843 H 0.43556 0.1714 0.24694 0.0
H844 H 0.39709 0.28756 0.18313 0.0
H845 H 0.37282 0.27076 0.0958 0.0
H846 H 0.44444 0.0713 0.1499 0.0
H847 H 0.53439 0.10864 0.12289 0.0
C848 C 0.02146 0.48595 0.12947 0.0
C849 C 0.048 0.50628 0.12994 0.0
H850 H 0.97104 0.48095 0.12992 0.0
C851 C 0.04179 0.53891 0.12917 0.0
H852 H 0.02452 0.46066 0.12919 0.0
C853 C 1.01064 0.55064 0.1286 0.0
C854 C 0.98409 0.53036 0.12928 0.0
H855 H 0.06096 0.55575 0.12958 0.0
H856 H 1.0076 0.57592 0.12765 0.0
C857 C 0.99028 0.49771 0.12935 0.0
C858 C 0.52844 0.98928 0.61337 0.0
C859 C 0.50418 0.97972 0.63195 0.0
H860 H 0.55831 0.02657 0.5984 0.0
C861 C 0.49157 1.00315 0.64993 0.0
H862 H 0.53895 0.97251 0.59895 0.0
C863 C 0.5018 0.03462 0.64882 0.0
C864 C 0.52604 0.04437 0.63035 0.0
H865 H 0.47362 0.99741 0.66531 0.0
H866 H 0.49009 0.05128 0.66255 0.0
C867 C 0.53926 0.02085 0.6127 0.0
C868 C 0.02601 0.55115 0.38417 0.0
C869 C 0.05248 0.53081 0.38354 0.0
H870 H 0.97572 0.55635 0.38317 0.0
C871 C 0.04624 0.49817 0.38354 0.0
H872 H 0.02913 0.57643 0.38506 0.0
C873 C 1.01503 0.48648 0.38341 0.0
C874 C 0.98856 0.50686 0.38291 0.0
H875 H 0.06545 0.48139 0.38301 0.0
H876 H 1.01187 0.46119 0.38372 0.0
C877 C 0.99484 0.53948 0.38363 0.0
C878 C 0.54112 1.0044 0.86144 0.0
C879 C 0.52948 0.98131 0.88026 0.0
H880 H 0.54172 0.05237 0.84805 0.0
C881 C 0.50623 0.99117 0.89971 0.0
H882 H 0.55832 0.99832 0.84546 0.0
C883 C 0.49551 0.02276 0.90047 0.0
C884 C 0.50778 0.04597 0.88199 0.0
H885 H 0.4965 0.97464 0.91478 0.0
H886 H 0.47731 0.02876 0.91556 0.0
C887 C 0.53089 0.0359 0.86252 0.0
C888 C 1.01233 0.54252 0.86403 0.0
C889 C 0.98773 0.52834 0.8799 0.0
H890 H 0.06154 0.54286 0.85264 0.0
C891 C 0.99614 0.50225 0.89691 0.0
H892 H 1.00758 0.56192 0.84986 0.0
C893 C 0.02737 0.49072 0.89766 0.0
C894 C 0.05165 0.50526 0.88205 0.0
H895 H 0.97874 0.49062 0.90995 0.0
H896 H 0.03262 0.47037 0.91066 0.0
C897 C 0.04367 0.53148 0.86542 0.0
C898 C 0.50641 0.04247 0.39707 0.0
C899 C 0.53317 0.05088 0.38088 0.0
H900 H 0.47388 1.00609 0.4097 0.0
C901 C 0.54765 0.02636 0.36513 0.0
H902 H 0.49447 0.05976 0.40998 0.0
C903 C 0.53636 0.99512 0.36594 0.0
C904 C 0.50955 0.98712 0.38181 0.0
H905 H 0.56755 0.03107 0.35151 0.0
H906 H 0.54812 0.97731 0.35337 0.0
C907 C 0.49464 1.01133 0.39722 0.0
C908 C 0.98924 0.53015 0.64738 0.0
C909 C 0.98072 0.50524 0.62935 0.0
H910 H 0.02592 0.55941 0.66387 0.0
C911 C 1.00448 0.49185 0.61235 0.0
H912 H 0.97176 0.54053 0.66124 0.0
C913 C 0.03577 0.50325 0.61312 0.0
C914 C 0.0447 0.52804 0.63148 0.0
H915 H 0.99879 0.47246 0.59832 0.0
H916 H 0.05283 0.49261 0.59907 0.0
C917 C 0.02064 0.54107 0.6487 0.0
C918 C 0.53064 0.04237 0.11827 0.0
C919 C 0.50457 0.05067 0.13537 0.0
H920 H 0.56248 1.00601 0.10426 0.0
C921 C 0.49059 0.02605 0.15132 0.0
H922 H 0.54214 0.05978 0.10517 0.0
C923 C 0.50168 0.99478 0.14983 0.0
C924 C 0.5278 0.98687 0.13303 0.0
H925 H 0.47126 0.03069 0.16559 0.0
H926 H 0.49034 0.97687 0.16259 0.0
C927 C 0.54224 1.01119 0.11742 0.0
C928 C 0.2149 0.52742 0.26942 0.0
C929 C 0.18681 0.53678 0.28291 0.0
H930 H 0.23655 0.5015 0.23563 0.0
C931 C 0.15798 0.52773 0.2703 0.0
H932 H 0.23755 0.53415 0.27823 0.0
C933 C 0.15741 0.50969 0.24506 0.0
C934 C 0.18565 0.49997 0.23195 0.0
H935 H 0.13588 0.53442 0.28009 0.0
H936 H 0.1349 0.50366 0.23559 0.0
C937 C 0.21433 0.50859 0.24496 0.0
C938 C 0.52636 0.16432 0.74542 0.0
C939 C 0.5371 0.19266 0.73316 0.0
H940 H 0.50055 0.14234 0.77943 0.0
C941 C 0.52804 0.22115 0.74609 0.0
H942 H 0.53231 0.14194 0.73578 0.0
C943 C 0.50836 0.22139 0.77001 0.0
C944 C 0.49847 0.19313 0.78287 0.0
H945 H 0.53556 0.24341 0.73715 0.0
H946 H 0.50156 0.24385 0.77904 0.0
C947 C 0.50762 0.16455 0.77011 0.0
C948 C 0.82156 0.52921 0.24409 0.0
C949 C 0.84976 0.53792 0.23043 0.0
H950 H 0.79959 0.50388 0.27806 0.0
C951 C 0.87847 0.52843 0.24295 0.0
H952 H 0.799 0.53619 0.23527 0.0
C953 C 0.87883 0.51056 0.26827 0.0
C954 C 0.85048 0.50147 0.28156 0.0
H955 H 0.90063 0.53456 0.23299 0.0
H956 H 0.90127 0.50411 0.27762 0.0
C957 C 0.8219 0.51056 0.26865 0.0
C958 C 0.52581 0.8742 0.7686 0.0
C959 C 0.5353 0.84583 0.78162 0.0
H960 H 0.50119 0.89611 0.73362 0.0
C961 C 0.52626 0.81736 0.76857 0.0
H962 H 0.53219 0.89656 0.77808 0.0
C963 C 0.50726 0.81712 0.74418 0.0
C964 C 0.49817 0.84532 0.73075 0.0
H965 H 0.53324 0.79505 0.77778 0.0
H966 H 0.50029 0.79462 0.73529 0.0
C967 C 0.50762 0.87394 0.74339 0.0
C968 C 0.82184 0.52436 0.76737 0.0
C969 C 0.85044 0.53351 0.78023 0.0
H970 H 0.79882 0.49816 0.73441 0.0
C971 C 0.87876 0.52417 0.767 0.0
H972 H 0.79955 0.53113 0.77678 0.0
C973 C 0.87832 0.506 0.74182 0.0
C974 C 0.84956 0.49637 0.72941 0.0
H975 H 0.90123 0.53058 0.77635 0.0
H976 H 0.90046 0.49967 0.73191 0.0
C977 C 0.82142 0.50532 0.74305 0.0
C978 C 0.5096 0.82478 0.26892 0.0
C979 C 0.50069 0.85315 0.28215 0.0
H980 H 0.53519 0.80234 0.23539 0.0
C981 C 0.5099 0.88163 0.26923 0.0
H982 H 0.50279 0.80239 0.27806 0.0
C983 C 0.52768 0.8816 0.24389 0.0
C984 C 0.53704 0.85307 0.23109 0.0
H985 H 0.50359 0.90391 0.27887 0.0
H986 H 0.53383 0.90384 0.23412 0.0
C987 C 0.52831 0.82475 0.24446 0.0
C988 C 0.21109 0.50374 0.76797 0.0
C989 C 0.18291 0.49535 0.78181 0.0
H990 H 0.23311 0.52904 0.73403 0.0
C991 C 0.15421 0.50533 0.76956 0.0
H992 H 0.23363 0.4964 0.77657 0.0
C993 C 0.15387 0.52333 0.74432 0.0
C994 C 0.18223 0.53215 0.73088 0.0
H995 H 0.13206 0.49947 0.77968 0.0
H996 H 0.13143 0.5301 0.73513 0.0
C997 C 0.21079 0.52261 0.74356 0.0
C998 C 0.52767 0.21588 0.27106 0.0
C999 C 0.53712 0.18754 0.28405 0.0
H1000 H 0.50123 0.23823 0.23789 0.0
C1001 C 0.52774 0.15904 0.27118 0.0
H1002 H 0.53453 0.23829 0.2802 0.0
C1003 C 0.50928 0.15902 0.24614 0.0
C1004 C 0.49944 0.1875 0.23356 0.0
H1005 H 0.53443 0.13678 0.28064 0.0
H1006 H 0.50299 0.13675 0.23644 0.0
C1007 C 0.50841 0.21585 0.24683 0.0
C1008 C 0.13529 0.43358 0.99103 0.0
C1009 C 0.15691 0.41408 0.97677 0.0
H1010 H 0.11925 0.45159 0.03105 0.0
C1011 C 0.17598 0.39381 0.99306 0.0
H1012 H 0.12091 0.45004 0.97917 0.0
C1013 C 0.17523 0.3949 0.02288 0.0
C1014 C 0.15528 0.41617 0.03712 0.0
H1015 H 0.1935 0.3792 0.98277 0.0
H1016 H 0.19221 0.38111 0.03474 0.0
C1017 C 0.13434 0.43446 0.0208 0.0
C1018 C 0.64482 0.18641 0.49107 0.0
C1019 C 0.627 0.16266 0.47767 0.0
H1020 H 0.65768 0.20851 0.53047 0.0
C1021 C 0.61287 0.13941 0.49467 0.0
H1022 H 0.65527 0.20508 0.4786 0.0
C1023 C 0.6143 0.14135 0.52437 0.0
C1024 C 0.62983 0.16663 0.53777 0.0
H1025 H 0.59837 0.12132 0.48501 0.0
H1026 H 0.60087 0.12468 0.53683 0.0
C1027 C 0.6462 0.18838 0.5208 0.0
C1028 C 0.85818 0.63972 0.01944 0.0
C1029 C 0.87764 0.61983 0.03576 0.0
H1030 H 0.84151 0.6519 0.97777 0.0
C1031 C 0.89947 0.60058 0.02149 0.0
H1032 H 0.84048 0.6541 0.02973 0.0
C1033 C 0.90025 0.5995 0.99172 0.0
C1034 C 0.87892 0.61735 0.9754 0.0
H1035 H 0.91414 0.58438 0.03337 0.0
H1036 H 0.91557 0.58256 0.98149 0.0
C1037 C 0.85875 0.63842 0.98963 0.0
C1038 C 0.434 0.89772 0.52389 0.0
C1039 C 0.41469 0.87532 0.53733 0.0
H1040 H 0.45212 0.91542 0.48451 0.0
C1041 C 0.39475 0.85658 0.52038 0.0
H1042 H 0.45019 0.91188 0.53631 0.0
C1043 C 0.39613 0.85835 0.49064 0.0
C1044 C 0.41731 0.87905 0.47719 0.0
H1045 H 0.38032 0.83851 0.53006 0.0
H1046 H 0.38267 0.84161 0.4782 0.0
C1047 C 0.43512 0.89973 0.4942 0.0
C1048 C 0.17621 0.64065 0.49295 0.0
C1049 C 0.15702 0.62102 0.4761 0.0
H1050 H 0.19205 0.65224 0.53501 0.0
C1051 C 0.13464 0.60185 0.48975 0.0
H1052 H 0.1943 0.65496 0.48313 0.0
C1053 C 0.13312 0.60052 0.51948 0.0
C1054 C 0.15429 0.61796 0.53635 0.0
H1055 H 0.12015 0.58586 0.47744 0.0
H1056 H 0.11742 0.5836 0.52926 0.0
C1057 C 0.17494 0.63905 0.52272 0.0
C1058 C 0.42948 0.13729 0.99376 0.0
C1059 C 0.41181 0.16051 0.97961 0.0
H1060 H 0.4462 0.11974 0.03376 0.0
C1061 C 0.3929 0.18087 0.99584 0.0
H1062 H 0.44488 0.12182 0.98186 0.0
C1063 C 0.39376 0.17978 0.02561 0.0
C1064 C 0.41351 0.15825 0.03979 0.0
H1065 H 0.37972 0.19952 0.98556 0.0
H1066 H 0.38124 0.19764 0.03751 0.0
C1067 C 0.43023 0.13609 0.0235 0.0
C1068 C 0.90162 0.43354 0.49266 0.0
C1069 C 0.88075 0.41583 0.47572 0.0
H1070 H 0.91417 0.4484 0.53473 0.0
C1071 C 0.86024 0.39454 0.48926 0.0
H1072 H 0.91717 0.45063 0.48292 0.0
C1073 C 0.85879 0.39299 0.51901 0.0
C1074 C 0.87765 0.41287 0.53591 0.0
H1075 H 0.84335 0.38116 0.47689 0.0
H1076 H 0.84082 0.37846 0.52876 0.0
C1077 C 0.89991 0.43226 0.52237 0.0
C1078 C 0.6392 0.8585 0.02152 0.0
C1079 C 0.61832 0.87907 0.0355 0.0
H1080 H 0.65431 0.83914 0.98166 0.0
C1081 C 0.60028 0.89999 0.01896 0.0
H1082 H 0.65281 0.84158 0.03359 0.0
C1083 C 0.60094 0.89838 0.98922 0.0
C1084 C 0.61997 0.87614 0.97524 0.0
H1085 H 0.58348 0.91559 0.02904 0.0
H1086 H 0.58459 0.91275 0.97719 0.0
C1087 C 0.64009 0.85712 0.99173 0.0
C1088 C 0.31525 0.34119 0.16461 0.0
C1089 C 0.30793 0.35851 0.13987 0.0
H1090 H 0.34293 0.30451 0.18413 0.0
C1091 C 0.32623 0.35174 0.11564 0.0
H1092 H 0.30188 0.34508 0.18378 0.0
C1093 C 0.34998 0.32833 0.11585 0.0
C1094 C 0.35675 0.31033 0.14029 0.0
H1095 H 0.32239 0.3647 0.09622 0.0
H1096 H 0.36318 0.32452 0.09658 0.0
C1097 C 0.33908 0.31766 0.16482 0.0
C1098 C 0.72272 0.33062 0.66499 0.0
C1099 C 0.72613 0.35045 0.64122 0.0
H1100 H 0.69865 0.29144 0.68421 0.0
C1101 C 0.70506 0.34531 0.6184 0.0
H1102 H 0.73836 0.33332 0.68298 0.0
C1103 C 0.68197 0.32119 0.61915 0.0
C1104 C 0.67918 0.30075 0.64258 0.0
H1105 H 0.7064 0.36 0.59972 0.0
H1106 H 0.66684 0.318 0.60087 0.0
C1107 C 0.69994 0.30619 0.66557 0.0
C1108 C 0.71836 0.69807 0.16366 0.0
C1109 C 0.72526 0.68016 0.13919 0.0
H1110 H 0.69119 0.73544 0.18262 0.0
C1111 C 0.7067 0.68641 0.11495 0.0
H1112 H 0.73196 0.69453 0.18282 0.0
C1113 C 0.68315 0.70997 0.11483 0.0
C1114 C 0.67686 0.72864 0.13895 0.0
H1115 H 0.71024 0.67295 0.09575 0.0
H1116 H 0.66974 0.71342 0.09556 0.0
C1117 C 0.69472 0.72178 0.16354 0.0
C1118 C 0.32494 0.67883 0.61536 0.0
C1119 C 0.30629 0.67244 0.63944 0.0
H1120 H 0.36203 0.7059 0.59639 0.0
C1121 C 0.31324 0.69013 0.66409 0.0
H1122 H 0.3214 0.66555 0.59605 0.0
C1123 C 0.33702 0.71374 0.66429 0.0
C1124 C 0.35491 0.72074 0.63985 0.0
H1125 H 0.29959 0.6865 0.68315 0.0
H1126 H 0.34061 0.72722 0.68348 0.0
C1127 C 0.34859 0.70231 0.61556 0.0
C1128 C 0.35334 0.71058 0.39773 0.0
C1129 C 0.35977 0.72911 0.37358 0.0
H1130 H 0.32606 0.67372 0.41685 0.0
C1131 C 0.34203 0.7221 0.34893 0.0
H1132 H 0.36665 0.71412 0.41704 0.0
C1133 C 0.31834 0.6984 0.34881 0.0
C1134 C 0.31128 0.68067 0.37332 0.0
H1135 H 0.34568 0.73563 0.32982 0.0
H1136 H 0.30484 0.69474 0.32961 0.0
C1137 C 0.32974 0.68705 0.39762 0.0
C1138 C 0.33881 0.31146 0.84747 0.0
C1139 C 0.35621 0.3043 0.87221 0.0
H1140 H 0.30183 0.33899 0.82809 0.0
C1141 C 0.3499 0.32285 0.89636 0.0
H1142 H 0.34257 0.29788 0.82837 0.0
C1143 C 0.32661 0.3466 0.89618 0.0
C1144 C 0.30821 0.35301 0.87187 0.0
H1145 H 0.36305 0.31904 0.91572 0.0
H1146 H 0.32308 0.35997 0.91541 0.0
C1147 C 0.31525 0.33527 0.84731 0.0
C1148 C 0.68639 0.33003 0.39929 0.0
C1149 C 0.67957 0.31154 0.37513 0.0
H1150 H 0.714 0.36682 0.41829 0.0
C1151 C 0.69707 0.31846 0.35043 0.0
H1152 H 0.67329 0.32652 0.41866 0.0
C1153 C 0.72084 0.34206 0.3502 0.0
C1154 C 0.72825 0.35983 0.37468 0.0
H1155 H 0.69316 0.30493 0.33131 0.0
H1156 H 0.73412 0.34564 0.33093 0.0
C1157 C 0.71007 0.35349 0.39907 0.0
C1158 C 0.71971 0.69139 0.84783 0.0
C1159 C 0.72661 0.67358 0.87239 0.0
H1160 H 0.69246 0.72863 0.82861 0.0
C1161 C 0.708 0.67994 0.89651 0.0
H1162 H 0.73332 0.6878 0.82875 0.0
C1163 C 0.68446 0.70351 0.89643 0.0
C1164 C 0.67818 0.72204 0.87222 0.0
H1165 H 0.71148 0.66658 0.91576 0.0
H1166 H 0.67105 0.70711 0.91563 0.0
C1167 C 0.69602 0.71507 0.84774 0.0
loop_
_geom_bond_atom_site_label_1
_geom_bond_atom_site_label_2
_geom_bond_distance
_geom_bond_site_symmetry_2
_ccdc_geom_bond_type
C0 C1 1.443 . S
C0 N4 1.376 . S
C0 C38 1.389 . S
C1 C0 1.443 . S
C1 C2 1.340 . S
C1 H41 0.951 . S
C2 C1 1.340 . S
C2 C3 1.439 . S
C2 H42 0.950 . S
C3 C2 1.439 . S
C3 N4 1.374 . S
C3 C37 1.395 . S
N4 C0 1.376 . S
N4 C3 1.374 . S
N4 Co5 2.008 . S
Co5 N4 2.008 . S
Co5 N6 1.995 . S
Co5 N11 2.008 . S
Co5 N16 1.995 . S
Co5 N21 2.282 . S
Co5 N27 2.282 . S
N6 Co5 1.995 . S
N6 C7 1.376 . S
N6 C10 1.383 . S
C7 N6 1.376 . S
C7 C8 1.446 . S
C7 C37 1.391 . S
C8 C7 1.446 . S
C8 C9 1.339 . S
C8 H43 0.949 . S
C9 C8 1.339 . S
C9 C10 1.439 . S
C9 H44 0.950 . S
C10 N6 1.383 . S
C10 C9 1.439 . S
C10 C39 1.392 . S
N11 Co5 2.008 . S
N11 C12 1.376 . S
N11 C15 1.374 . S
C12 N11 1.376 . S
C12 C13 1.443 . S
C12 C39 1.389 . S
C13 C12 1.443 . S
C13 C14 1.340 . S
C13 H45 0.951 . S
C14 C13 1.340 . S
C14 C15 1.439 . S
C14 H46 0.950 . S
C15 N11 1.374 . S
C15 C14 1.439 . S
C15 C40 1.395 . S
N16 Co5 1.995 . S
N16 C17 1.376 . S
N16 C20 1.383 . S
C17 N16 1.376 . S
C17 C18 1.446 . S
C17 C40 1.391 . S
C18 C17 1.446 . S
C18 C19 1.339 . S
C18 H47 0.949 . S
C19 C18 1.339 . S
C19 C20 1.439 . S
C19 H48 0.950 . S
C20 N16 1.383 . S
C20 C19 1.439 . S
C20 C38 1.392 . S
N21 Co5 2.282 . S
N21 C24 1.332 . S
N21 C26 1.332 . S
C22 C23 1.386 . S
C22 C25 1.388 . S
C23 C22 1.386 . S
C23 C24 1.382 . S
C23 H49 0.950 . S
C24 N21 1.332 . S
C24 C23 1.382 . S
C24 H35 0.952 . S
C25 C22 1.388 . S
C25 C26 1.382 . S
C25 H50 0.950 . S
C26 N21 1.332 . S
C26 C25 1.382 . S
C26 H36 0.948 . S
N27 Co5 2.282 . S
N27 C31 1.332 . S
N27 C32 1.332 . S
C28 C29 1.388 . S
C28 C32 1.382 . S
C28 H51 0.950 . S
C29 C28 1.388 . S
C29 C30 1.386 . S
C30 C29 1.386 . S
C30 C31 1.382 . S
C30 H52 0.950 . S
C31 N27 1.332 . S
C31 C30 1.382 . S
C31 H33 0.952 . S
C32 N27 1.332 . S
C32 C28 1.382 . S
C32 H34 0.948 . S
H33 C31 0.952 . S
H34 C32 0.948 . S
H35 C24 0.952 . S
H36 C26 0.948 . S
C37 C3 1.395 . S
C37 C7 1.391 . S
C38 C0 1.389 . S
C38 C20 1.392 . S
C39 C10 1.392 . S
C39 C12 1.389 . S
C40 C15 1.395 . S
C40 C17 1.391 . S
H41 C1 0.951 . S
H42 C2 0.950 . S
H43 C8 0.949 . S
H44 C9 0.950 . S
H45 C13 0.951 . S
H46 C14 0.950 . S
H47 C18 0.949 . S
H48 C19 0.950 . S
H49 C23 0.950 . S
H50 C25 0.950 . S
H51 C28 0.950 . S
H52 C30 0.950 . S
C53 C54 1.443 . S
C53 N57 1.376 . S
C53 C91 1.389 . S
C54 C53 1.443 . S
C54 C55 1.340 . S
C54 H94 0.951 . S
C55 C54 1.340 . S
C55 C56 1.439 . S
C55 H95 0.950 . S
C56 C55 1.439 . S
C56 N57 1.374 . S
C56 C90 1.395 . S
N57 C53 1.376 . S
N57 C56 1.374 . S
N57 Co58 2.008 . S
Co58 N57 2.008 . S
Co58 N59 1.995 . S
Co58 N64 2.008 . S
Co58 N69 1.995 . S
Co58 N74 2.282 . S
Co58 N80 2.282 . S
N59 Co58 1.995 . S
N59 C60 1.376 . S
N59 C63 1.383 . S
C60 N59 1.376 . S
C60 C61 1.446 . S
C60 C90 1.391 . S
C61 C60 1.446 . S
C61 C62 1.339 . S
C61 H96 0.949 . S
C62 C61 1.339 . S
C62 C63 1.439 . S
C62 H97 0.950 . S
C63 N59 1.383 . S
C63 C62 1.439 . S
C63 C92 1.392 . S
N64 Co58 2.008 . S
N64 C65 1.376 . S
N64 C68 1.374 . S
C65 N64 1.376 . S
C65 C66 1.443 . S
C65 C92 1.389 . S
C66 C65 1.443 . S
C66 C67 1.340 . S
C66 H98 0.951 . S
C67 C66 1.340 . S
C67 C68 1.439 . S
C67 H99 0.950 . S
C68 N64 1.374 . S
C68 C67 1.439 . S
C68 C93 1.395 . S
N69 Co58 1.995 . S
N69 C70 1.376 . S
N69 C73 1.383 . S
C70 N69 1.376 . S
C70 C71 1.446 . S
C70 C93 1.391 . S
C71 C70 1.446 . S
C71 C72 1.339 . S
C71 H100 0.949 . S
C72 C71 1.339 . S
C72 C73 1.439 . S
C72 H101 0.950 . S
C73 N69 1.383 . S
C73 C72 1.439 . S
C73 C91 1.392 . S
N74 Co58 2.282 . S
N74 C77 1.332 . S
N74 C79 1.332 . S
C75 C76 1.386 . S
C75 C78 1.388 . S
C76 C75 1.386 . S
C76 C77 1.382 . S
C76 H102 0.950 . S
C77 N74 1.332 . S
C77 C76 1.382 . S
C77 H88 0.952 . S
C78 C75 1.388 . S
C78 C79 1.382 . S
C78 H103 0.950 . S
C79 N74 1.332 . S
C79 C78 1.382 . S
C79 H89 0.948 . S
N80 Co58 2.282 . S
N80 C84 1.332 . S
N80 C85 1.332 . S
C81 C82 1.388 . S
C81 C85 1.382 . S
C81 H104 0.950 . S
C82 C81 1.388 . S
C82 C83 1.386 . S
C83 C82 1.386 . S
C83 C84 1.382 . S
C83 H105 0.950 . S
C84 N80 1.332 . S
C84 C83 1.382 . S
C84 H86 0.952 . S
C85 N80 1.332 . S
C85 C81 1.382 . S
C85 H87 0.948 . S
H86 C84 0.952 . S
H87 C85 0.948 . S
H88 C77 0.952 . S
H89 C79 0.948 . S
C90 C56 1.395 . S
C90 C60 1.391 . S
C91 C53 1.389 . S
C91 C73 1.392 . S
C92 C63 1.392 . S
C92 C65 1.389 . S
C93 C68 1.395 . S
C93 C70 1.391 . S
H94 C54 0.951 . S
H95 C55 0.950 . S
H96 C61 0.949 . S
H97 C62 0.950 . S
H98 C66 0.951 . S
H99 C67 0.950 . S
H100 C71 0.949 . S
H101 C72 0.950 . S
H102 C76 0.950 . S
H103 C78 0.950 . S
H104 C81 0.950 . S
H105 C83 0.950 . S
C106 C107 1.443 . S
C106 N110 1.376 . S
C106 C144 1.389 . S
C107 C106 1.443 . S
C107 C108 1.340 . S
C107 H147 0.951 . S
C108 C107 1.340 . S
C108 C109 1.439 . S
C108 H148 0.950 . S
C109 C108 1.439 . S
C109 N110 1.374 . S
C109 C143 1.395 . S
N110 C106 1.376 . S
N110 C109 1.374 . S
N110 Co111 2.008 . S
Co111 N110 2.008 . S
Co111 N112 1.995 . S
Co111 N117 2.008 . S
Co111 N122 1.995 . S
Co111 N127 2.282 . S
Co111 N133 2.282 . S
N112 Co111 1.995 . S
N112 C113 1.376 . S
N112 C116 1.383 . S
C113 N112 1.376 . S
C113 C114 1.446 . S
C113 C143 1.391 . S
C114 C113 1.446 . S
C114 C115 1.339 . S
C114 H149 0.949 . S
C115 C114 1.339 . S
C115 C116 1.439 . S
C115 H150 0.950 . S
C116 N112 1.383 . S
C116 C115 1.439 . S
C116 C145 1.392 . S
N117 Co111 2.008 . S
N117 C118 1.376 . S
N117 C121 1.374 . S
C118 N117 1.376 . S
C118 C119 1.443 . S
C118 C145 1.389 . S
C119 C118 1.443 . S
C119 C120 1.340 . S
C119 H151 0.951 . S
C120 C119 1.340 . S
C120 C121 1.439 . S
C120 H152 0.950 . S
C121 N117 1.374 . S
C121 C120 1.439 . S
C121 C146 1.395 . S
N122 Co111 1.995 . S
N122 C123 1.376 . S
N122 C126 1.383 . S
C123 N122 1.376 . S
C123 C124 1.446 . S
C123 C146 1.391 . S
C124 C123 1.446 . S
C124 C125 1.339 . S
C124 H153 0.949 . S
C125 C124 1.339 . S
C125 C126 1.439 . S
C125 H154 0.950 . S
C126 N122 1.383 . S
C126 C125 1.439 . S
C126 C144 1.392 . S
N127 Co111 2.282 . S
N127 C130 1.332 . S
N127 C132 1.332 . S
C128 C129 1.386 . S
C128 C131 1.388 . S
C129 C128 1.386 . S
C129 C130 1.382 . S
C129 H155 0.950 . S
C130 N127 1.332 . S
C130 C129 1.382 . S
C130 H141 0.952 . S
C131 C128 1.388 . S
C131 C132 1.382 . S
C131 H156 0.950 . S
C132 N127 1.332 . S
C132 C131 1.382 . S
C132 H142 0.948 . S
N133 Co111 2.282 . S
N133 C137 1.332 . S
N133 C138 1.332 . S
C134 C135 1.388 . S
C134 C138 1.382 . S
C134 H157 0.950 . S
C135 C134 1.388 . S
C135 C136 1.386 . S
C136 C135 1.386 . S
C136 C137 1.382 . S
C136 H158 0.950 . S
C137 N133 1.332 . S
C137 C136 1.382 . S
C137 H139 0.952 . S
C138 N133 1.332 . S
C138 C134 1.382 . S
C138 H140 0.948 . S
H139 C137 0.952 . S
H140 C138 0.948 . S
H141 C130 0.952 . S
H142 C132 0.948 . S
C143 C109 1.395 . S
C143 C113 1.391 . S
C144 C106 1.389 . S
C144 C126 1.392 . S
C145 C116 1.392 . S
C145 C118 1.389 . S
C146 C121 1.395 . S
C146 C123 1.391 . S
H147 C107 0.951 . S
H148 C108 0.950 . S
H149 C114 0.949 . S
H150 C115 0.950 . S
H151 C119 0.951 . S
H152 C120 0.950 . S
H153 C124 0.949 . S
H154 C125 0.950 . S
H155 C129 0.950 . S
H156 C131 0.950 . S
H157 C134 0.950 . S
H158 C136 0.950 . S
C159 C160 1.443 . S
C159 N163 1.376 . S
C159 C197 1.389 . S
C160 C159 1.443 . S
C160 C161 1.340 . S
C160 H200 0.951 . S
C161 C160 1.340 . S
C161 C162 1.439 . S
C161 H201 0.950 . S
C162 C161 1.439 . S
C162 N163 1.374 . S
C162 C196 1.395 . S
N163 C159 1.376 . S
N163 C162 1.374 . S
N163 Co164 2.008 . S
Co164 N163 2.008 . S
Co164 N165 1.995 . S
Co164 N170 2.008 . S
Co164 N175 1.995 . S
Co164 N180 2.282 . S
Co164 N186 2.282 . S
N165 Co164 1.995 . S
N165 C166 1.376 . S
N165 C169 1.383 . S
C166 N165 1.376 . S
C166 C167 1.446 . S
C166 C196 1.391 . S
C167 C166 1.446 . S
C167 C168 1.339 . S
C167 H202 0.949 . S
C168 C167 1.339 . S
C168 C169 1.439 . S
C168 H203 0.950 . S
C169 N165 1.383 . S
C169 C168 1.439 . S
C169 C198 1.392 . S
N170 Co164 2.008 . S
N170 C171 1.376 . S
N170 C174 1.374 . S
C171 N170 1.376 . S
C171 C172 1.443 . S
C171 C198 1.389 . S
C172 C171 1.443 . S
C172 C173 1.340 . S
C172 H204 0.951 . S
C173 C172 1.340 . S
C173 C174 1.439 . S
C173 H205 0.950 . S
C174 N170 1.374 . S
C174 C173 1.439 . S
C174 C199 1.395 . S
N175 Co164 1.995 . S
N175 C176 1.376 . S
N175 C179 1.383 . S
C176 N175 1.376 . S
C176 C177 1.446 . S
C176 C199 1.391 . S
C177 C176 1.446 . S
C177 C178 1.339 . S
C177 H206 0.949 . S
C178 C177 1.339 . S
C178 C179 1.439 . S
C178 H207 0.950 . S
C179 N175 1.383 . S
C179 C178 1.439 . S
C179 C197 1.392 . S
N180 Co164 2.282 . S
N180 C183 1.332 . S
N180 C185 1.332 . S
C181 C182 1.386 . S
C181 C184 1.388 . S
C182 C181 1.386 . S
C182 C183 1.382 . S
C182 H208 0.950 . S
C183 N180 1.332 . S
C183 C182 1.382 . S
C183 H194 0.952 . S
C184 C181 1.388 . S
C184 C185 1.382 . S
C184 H209 0.950 . S
C185 N180 1.332 . S
C185 C184 1.382 . S
C185 H195 0.948 . S
N186 Co164 2.282 . S
N186 C190 1.332 . S
N186 C191 1.332 . S
C187 C188 1.388 . S
C187 C191 1.382 . S
C187 H210 0.950 . S
C188 C187 1.388 . S
C188 C189 1.386 . S
C189 C188 1.386 . S
C189 C190 1.382 . S
C189 H211 0.950 . S
C190 N186 1.332 . S
C190 C189 1.382 . S
C190 H192 0.952 . S
C191 N186 1.332 . S
C191 C187 1.382 . S
C191 H193 0.948 . S
H192 C190 0.952 . S
H193 C191 0.948 . S
H194 C183 0.952 . S
H195 C185 0.948 . S
C196 C162 1.395 . S
C196 C166 1.391 . S
C197 C159 1.389 . S
C197 C179 1.392 . S
C198 C169 1.392 . S
C198 C171 1.389 . S
C199 C174 1.395 . S
C199 C176 1.391 . S
H200 C160 0.951 . S
H201 C161 0.950 . S
H202 C167 0.949 . S
H203 C168 0.950 . S
H204 C172 0.951 . S
H205 C173 0.950 . S
H206 C177 0.949 . S
H207 C178 0.950 . S
H208 C182 0.950 . S
H209 C184 0.950 . S
H210 C187 0.950 . S
H211 C189 0.950 . S
C212 C213 1.443 . S
C212 N216 1.376 . S
C212 C250 1.389 . S
C213 C212 1.443 . S
C213 C214 1.340 . S
C213 H253 0.951 . S
C214 C213 1.340 . S
C214 C215 1.439 . S
C214 H254 0.950 . S
C215 C214 1.439 . S
C215 N216 1.374 . S
C215 C249 1.395 . S
N216 C212 1.376 . S
N216 C215 1.374 . S
N216 Co217 2.008 . S
Co217 N216 2.008 . S
Co217 N218 1.995 . S
Co217 N223 2.008 . S
Co217 N228 1.995 . S
Co217 N233 2.282 . S
Co217 N239 2.282 . S
N218 Co217 1.995 . S
N218 C219 1.376 . S
N218 C222 1.383 . S
C219 N218 1.376 . S
C219 C220 1.446 . S
C219 C249 1.391 . S
C220 C219 1.446 . S
C220 C221 1.339 . S
C220 H255 0.949 . S
C221 C220 1.339 . S
C221 C222 1.439 . S
C221 H256 0.950 . S
C222 N218 1.383 . S
C222 C221 1.439 . S
C222 C251 1.392 . S
N223 Co217 2.008 . S
N223 C224 1.376 . S
N223 C227 1.374 . S
C224 N223 1.376 . S
C224 C225 1.443 . S
C224 C251 1.389 . S
C225 C224 1.443 . S
C225 C226 1.340 . S
C225 H257 0.951 . S
C226 C225 1.340 . S
C226 C227 1.439 . S
C226 H258 0.950 . S
C227 N223 1.374 . S
C227 C226 1.439 . S
C227 C252 1.395 . S
N228 Co217 1.995 . S
N228 C229 1.376 . S
N228 C232 1.383 . S
C229 N228 1.376 . S
C229 C230 1.446 . S
C229 C252 1.391 . S
C230 C229 1.446 . S
C230 C231 1.339 . S
C230 H259 0.949 . S
C231 C230 1.339 . S
C231 C232 1.439 . S
C231 H260 0.950 . S
C232 N228 1.383 . S
C232 C231 1.439 . S
C232 C250 1.392 . S
N233 Co217 2.282 . S
N233 C236 1.332 . S
N233 C238 1.332 . S
C234 C235 1.386 . S
C234 C237 1.388 . S
C235 C234 1.386 . S
C235 C236 1.382 . S
C235 H261 0.950 . S
C236 N233 1.332 . S
C236 C235 1.382 . S
C236 H247 0.952 . S
C237 C234 1.388 . S
C237 C238 1.382 . S
C237 H262 0.950 . S
C238 N233 1.332 . S
C238 C237 1.382 . S
C238 H248 0.948 . S
N239 Co217 2.282 . S
N239 C243 1.332 . S
N239 C244 1.332 . S
C240 C241 1.388 . S
C240 C244 1.382 . S
C240 H263 0.950 . S
C241 C240 1.388 . S
C241 C242 1.386 . S
C242 C241 1.386 . S
C242 C243 1.382 . S
C242 H264 0.950 . S
C243 N239 1.332 . S
C243 C242 1.382 . S
C243 H245 0.952 . S
C244 N239 1.332 . S
C244 C240 1.382 . S
C244 H246 0.948 . S
H245 C243 0.952 . S
H246 C244 0.948 . S
H247 C236 0.952 . S
H248 C238 0.948 . S
C249 C215 1.395 . S
C249 C219 1.391 . S
C250 C212 1.389 . S
C250 C232 1.392 . S
C251 C222 1.392 . S
C251 C224 1.389 . S
C252 C227 1.395 . S
C252 C229 1.391 . S
H253 C213 0.951 . S
H254 C214 0.950 . S
H255 C220 0.949 . S
H256 C221 0.950 . S
H257 C225 0.951 . S
H258 C226 0.950 . S
H259 C230 0.949 . S
H260 C231 0.950 . S
H261 C235 0.950 . S
H262 C237 0.950 . S
H263 C240 0.950 . S
H264 C242 0.950 . S
C265 C266 1.443 . S
C265 N269 1.376 . S
C265 C303 1.389 . S
C266 C265 1.443 . S
C266 C267 1.340 . S
C266 H306 0.951 . S
C267 C266 1.340 . S
C267 C268 1.439 . S
C267 H307 0.950 . S
C268 C267 1.439 . S
C268 N269 1.374 . S
C268 C302 1.395 . S
N269 C265 1.376 . S
N269 C268 1.374 . S
N269 Co270 2.008 . S
Co270 N269 2.008 . S
Co270 N271 1.995 . S
Co270 N276 2.008 . S
Co270 N281 1.995 . S
Co270 N286 2.282 . S
Co270 N292 2.282 . S
N271 Co270 1.995 . S
N271 C272 1.376 . S
N271 C275 1.383 . S
C272 N271 1.376 . S
C272 C273 1.446 . S
C272 C302 1.391 . S
C273 C272 1.446 . S
C273 C274 1.339 . S
C273 H308 0.949 . S
C274 C273 1.339 . S
C274 C275 1.439 . S
C274 H309 0.950 . S
C275 N271 1.383 . S
C275 C274 1.439 . S
C275 C304 1.392 . S
N276 Co270 2.008 . S
N276 C277 1.376 . S
N276 C280 1.374 . S
C277 N276 1.376 . S
C277 C278 1.443 . S
C277 C304 1.389 . S
C278 C277 1.443 . S
C278 C279 1.340 . S
C278 H310 0.951 . S
C279 C278 1.340 . S
C279 C280 1.439 . S
C279 H311 0.950 . S
C280 N276 1.374 . S
C280 C279 1.439 . S
C280 C305 1.395 . S
N281 Co270 1.995 . S
N281 C282 1.376 . S
N281 C285 1.383 . S
C282 N281 1.376 . S
C282 C283 1.446 . S
C282 C305 1.391 . S
C283 C282 1.446 . S
C283 C284 1.339 . S
C283 H312 0.949 . S
C284 C283 1.339 . S
C284 C285 1.439 . S
C284 H313 0.950 . S
C285 N281 1.383 . S
C285 C284 1.439 . S
C285 C303 1.392 . S
N286 Co270 2.282 . S
N286 C289 1.332 . S
N286 C291 1.332 . S
C287 C288 1.386 . S
C287 C290 1.388 . S
C288 C287 1.386 . S
C288 C289 1.382 . S
C288 H314 0.950 . S
C289 N286 1.332 . S
C289 C288 1.382 . S
C289 H300 0.952 . S
C290 C287 1.388 . S
C290 C291 1.382 . S
C290 H315 0.950 . S
C291 N286 1.332 . S
C291 C290 1.382 . S
C291 H301 0.948 . S
N292 Co270 2.282 . S
N292 C296 1.332 . S
N292 C297 1.332 . S
C293 C294 1.388 . S
C293 C297 1.382 . S
C293 H316 0.950 . S
C294 C293 1.388 . S
C294 C295 1.386 . S
C295 C294 1.386 . S
C295 C296 1.382 . S
C295 H317 0.950 . S
C296 N292 1.332 . S
C296 C295 1.382 . S
C296 H298 0.952 . S
C297 N292 1.332 . S
C297 C293 1.382 . S
C297 H299 0.948 . S
H298 C296 0.952 . S
H299 C297 0.948 . S
H300 C289 0.952 . S
H301 C291 0.948 . S
C302 C268 1.395 . S
C302 C272 1.391 . S
C303 C265 1.389 . S
C303 C285 1.392 . S
C304 C275 1.392 . S
C304 C277 1.389 . S
C305 C280 1.395 . S
C305 C282 1.391 . S
H306 C266 0.951 . S
H307 C267 0.950 . S
H308 C273 0.949 . S
H309 C274 0.950 . S
H310 C278 0.951 . S
H311 C279 0.950 . S
H312 C283 0.949 . S
H313 C284 0.950 . S
H314 C288 0.950 . S
H315 C290 0.950 . S
H316 C293 0.950 . S
H317 C295 0.950 . S
C318 C319 1.443 . S
C318 N322 1.376 . S
C318 C356 1.389 . S
C319 C318 1.443 . S
C319 C320 1.340 . S
C319 H359 0.951 . S
C320 C319 1.340 . S
C320 C321 1.439 . S
C320 H360 0.950 . S
C321 C320 1.439 . S
C321 N322 1.374 . S
C321 C355 1.395 . S
N322 C318 1.376 . S
N322 C321 1.374 . S
N322 Co323 2.008 . S
Co323 N322 2.008 . S
Co323 N324 1.995 . S
Co323 N329 2.008 . S
Co323 N334 1.995 . S
Co323 N339 2.282 . S
Co323 N345 2.282 . S
N324 Co323 1.995 . S
N324 C325 1.376 . S
N324 C328 1.383 . S
C325 N324 1.376 . S
C325 C326 1.446 . S
C325 C355 1.391 . S
C326 C325 1.446 . S
C326 C327 1.339 . S
C326 H361 0.949 . S
C327 C326 1.339 . S
C327 C328 1.439 . S
C327 H362 0.950 . S
C328 N324 1.383 . S
C328 C327 1.439 . S
C328 C357 1.392 . S
N329 Co323 2.008 . S
N329 C330 1.376 . S
N329 C333 1.374 . S
C330 N329 1.376 . S
C330 C331 1.443 . S
C330 C357 1.389 . S
C331 C330 1.443 . S
C331 C332 1.340 . S
C331 H363 0.951 . S
C332 C331 1.340 . S
C332 C333 1.439 . S
C332 H364 0.950 . S
C333 N329 1.374 . S
C333 C332 1.439 . S
C333 C358 1.395 . S
N334 Co323 1.995 . S
N334 C335 1.376 . S
N334 C338 1.383 . S
C335 N334 1.376 . S
C335 C336 1.446 . S
C335 C358 1.391 . S
C336 C335 1.446 . S
C336 C337 1.339 . S
C336 H365 0.949 . S
C337 C336 1.339 . S
C337 C338 1.439 . S
C337 H366 0.950 . S
C338 N334 1.383 . S
C338 C337 1.439 . S
C338 C356 1.392 . S
N339 Co323 2.282 . S
N339 C342 1.332 . S
N339 C344 1.332 . S
C340 C341 1.386 . S
C340 C343 1.388 . S
C341 C340 1.386 . S
C341 C342 1.382 . S
C341 H367 0.950 . S
C342 N339 1.332 . S
C342 C341 1.382 . S
C342 H353 0.952 . S
C343 C340 1.388 . S
C343 C344 1.382 . S
C343 H368 0.950 . S
C344 N339 1.332 . S
C344 C343 1.382 . S
C344 H354 0.948 . S
N345 Co323 2.282 . S
N345 C349 1.332 . S
N345 C350 1.332 . S
C346 C347 1.388 . S
C346 C350 1.382 . S
C346 H369 0.950 . S
C347 C346 1.388 . S
C347 C348 1.386 . S
C348 C347 1.386 . S
C348 C349 1.382 . S
C348 H370 0.950 . S
C349 N345 1.332 . S
C349 C348 1.382 . S
C349 H351 0.952 . S
C350 N345 1.332 . S
C350 C346 1.382 . S
C350 H352 0.948 . S
H351 C349 0.952 . S
H352 C350 0.948 . S
H353 C342 0.952 . S
H354 C344 0.948 . S
C355 C321 1.395 . S
C355 C325 1.391 . S
C356 C318 1.389 . S
C356 C338 1.392 . S
C357 C328 1.392 . S
C357 C330 1.389 . S
C358 C333 1.395 . S
C358 C335 1.391 . S
H359 C319 0.951 . S
H360 C320 0.950 . S
H361 C326 0.949 . S
H362 C327 0.950 . S
H363 C331 0.951 . S
H364 C332 0.950 . S
H365 C336 0.949 . S
H366 C337 0.950 . S
H367 C341 0.950 . S
H368 C343 0.950 . S
H369 C346 0.950 . S
H370 C348 0.950 . S
C371 C372 1.443 . S
C371 N375 1.376 . S
C371 C409 1.389 . S
C372 C371 1.443 . S
C372 C373 1.340 . S
C372 H412 0.951 . S
C373 C372 1.340 . S
C373 C374 1.439 . S
C373 H413 0.950 . S
C374 C373 1.439 . S
C374 N375 1.374 . S
C374 C408 1.395 . S
N375 C371 1.376 . S
N375 C374 1.374 . S
N375 Co376 2.008 . S
Co376 N375 2.008 . S
Co376 N377 1.995 . S
Co376 N382 2.008 . S
Co376 N387 1.995 . S
Co376 N392 2.282 . S
Co376 N398 2.282 . S
N377 Co376 1.995 . S
N377 C378 1.376 . S
N377 C381 1.383 . S
C378 N377 1.376 . S
C378 C379 1.446 . S
C378 C408 1.391 . S
C379 C378 1.446 . S
C379 C380 1.339 . S
C379 H414 0.949 . S
C380 C379 1.339 . S
C380 C381 1.439 . S
C380 H415 0.950 . S
C381 N377 1.383 . S
C381 C380 1.439 . S
C381 C410 1.392 . S
N382 Co376 2.008 . S
N382 C383 1.376 . S
N382 C386 1.374 . S
C383 N382 1.376 . S
C383 C384 1.443 . S
C383 C410 1.389 . S
C384 C383 1.443 . S
C384 C385 1.340 . S
C384 H416 0.951 . S
C385 C384 1.340 . S
C385 C386 1.439 . S
C385 H417 0.950 . S
C386 N382 1.374 . S
C386 C385 1.439 . S
C386 C411 1.395 . S
N387 Co376 1.995 . S
N387 C388 1.376 . S
N387 C391 1.383 . S
C388 N387 1.376 . S
C388 C389 1.446 . S
C388 C411 1.391 . S
C389 C388 1.446 . S
C389 C390 1.339 . S
C389 H418 0.949 . S
C390 C389 1.339 . S
C390 C391 1.439 . S
C390 H419 0.950 . S
C391 N387 1.383 . S
C391 C390 1.439 . S
C391 C409 1.392 . S
N392 Co376 2.282 . S
N392 C395 1.332 . S
N392 C397 1.332 . S
C393 C394 1.386 . S
C393 C396 1.388 . S
C394 C393 1.386 . S
C394 C395 1.382 . S
C394 H420 0.950 . S
C395 N392 1.332 . S
C395 C394 1.382 . S
C395 H406 0.952 . S
C396 C393 1.388 . S
C396 C397 1.382 . S
C396 H421 0.950 . S
C397 N392 1.332 . S
C397 C396 1.382 . S
C397 H407 0.948 . S
N398 Co376 2.282 . S
N398 C402 1.332 . S
N398 C403 1.332 . S
C399 C400 1.388 . S
C399 C403 1.382 . S
C399 H422 0.950 . S
C400 C399 1.388 . S
C400 C401 1.386 . S
C401 C400 1.386 . S
C401 C402 1.382 . S
C401 H423 0.950 . S
C402 N398 1.332 . S
C402 C401 1.382 . S
C402 H404 0.952 . S
C403 N398 1.332 . S
C403 C399 1.382 . S
C403 H405 0.948 . S
H404 C402 0.952 . S
H405 C403 0.948 . S
H406 C395 0.952 . S
H407 C397 0.948 . S
C408 C374 1.395 . S
C408 C378 1.391 . S
C409 C371 1.389 . S
C409 C391 1.392 . S
C410 C381 1.392 . S
C410 C383 1.389 . S
C411 C386 1.395 . S
C411 C388 1.391 . S
H412 C372 0.951 . S
H413 C373 0.950 . S
H414 C379 0.949 . S
H415 C380 0.950 . S
H416 C384 0.951 . S
H417 C385 0.950 . S
H418 C389 0.949 . S
H419 C390 0.950 . S
H420 C394 0.950 . S
H421 C396 0.950 . S
H422 C399 0.950 . S
H423 C401 0.950 . S
C424 C425 1.443 . S
C424 N428 1.376 . S
C424 C462 1.389 . S
C425 C424 1.443 . S
C425 C426 1.340 . S
C425 H465 0.951 . S
C426 C425 1.340 . S
C426 C427 1.439 . S
C426 H466 0.950 . S
C427 C426 1.439 . S
C427 N428 1.374 . S
C427 C461 1.395 . S
N428 C424 1.376 . S
N428 C427 1.374 . S
N428 Co429 2.008 . S
Co429 N428 2.008 . S
Co429 N430 1.995 . S
Co429 N435 2.008 . S
Co429 N440 1.995 . S
Co429 N445 2.282 . S
Co429 N451 2.282 . S
N430 Co429 1.995 . S
N430 C431 1.376 . S
N430 C434 1.383 . S
C431 N430 1.376 . S
C431 C432 1.446 . S
C431 C461 1.391 . S
C432 C431 1.446 . S
C432 C433 1.339 . S
C432 H467 0.949 . S
C433 C432 1.339 . S
C433 C434 1.439 . S
C433 H468 0.950 . S
C434 N430 1.383 . S
C434 C433 1.439 . S
C434 C463 1.392 . S
N435 Co429 2.008 . S
N435 C436 1.376 . S
N435 C439 1.374 . S
C436 N435 1.376 . S
C436 C437 1.443 . S
C436 C463 1.389 . S
C437 C436 1.443 . S
C437 C438 1.340 . S
C437 H469 0.951 . S
C438 C437 1.340 . S
C438 C439 1.439 . S
C438 H470 0.950 . S
C439 N435 1.374 . S
C439 C438 1.439 . S
C439 C464 1.395 . S
N440 Co429 1.995 . S
N440 C441 1.376 . S
N440 C444 1.383 . S
C441 N440 1.376 . S
C441 C442 1.446 . S
C441 C464 1.391 . S
C442 C441 1.446 . S
C442 C443 1.339 . S
C442 H471 0.949 . S
C443 C442 1.339 . S
C443 C444 1.439 . S
C443 H472 0.950 . S
C444 N440 1.383 . S
C444 C443 1.439 . S
C444 C462 1.392 . S
N445 Co429 2.282 . S
N445 C448 1.332 . S
N445 C450 1.332 . S
C446 C447 1.386 . S
C446 C449 1.388 . S
C447 C446 1.386 . S
C447 C448 1.382 . S
C447 H473 0.950 . S
C448 N445 1.332 . S
C448 C447 1.382 . S
C448 H459 0.952 . S
C449 C446 1.388 . S
C449 C450 1.382 . S
C449 H474 0.950 . S
C450 N445 1.332 . S
C450 C449 1.382 . S
C450 H460 0.948 . S
N451 Co429 2.282 . S
N451 C455 1.332 . S
N451 C456 1.332 . S
C452 C453 1.388 . S
C452 C456 1.382 . S
C452 H475 0.950 . S
C453 C452 1.388 . S
C453 C454 1.386 . S
C454 C453 1.386 . S
C454 C455 1.382 . S
C454 H476 0.950 . S
C455 N451 1.332 . S
C455 C454 1.382 . S
C455 H457 0.952 . S
C456 N451 1.332 . S
C456 C452 1.382 . S
C456 H458 0.948 . S
H457 C455 0.952 . S
H458 C456 0.948 . S
H459 C448 0.952 . S
H460 C450 0.948 . S
C461 C427 1.395 . S
C461 C431 1.391 . S
C462 C424 1.389 . S
C462 C444 1.392 . S
C463 C434 1.392 . S
C463 C436 1.389 . S
C464 C439 1.395 . S
C464 C441 1.391 . S
H465 C425 0.951 . S
H466 C426 0.950 . S
H467 C432 0.949 . S
H468 C433 0.950 . S
H469 C437 0.951 . S
H470 C438 0.950 . S
H471 C442 0.949 . S
H472 C443 0.950 . S
H473 C447 0.950 . S
H474 C449 0.950 . S
H475 C452 0.950 . S
H476 C454 0.950 . S
C477 C478 1.443 . S
C477 N481 1.376 . S
C477 C515 1.389 . S
C478 C477 1.443 . S
C478 C479 1.340 . S
C478 H518 0.951 . S
C479 C478 1.340 . S
C479 C480 1.439 . S
C479 H519 0.950 . S
C480 C479 1.439 . S
C480 N481 1.374 . S
C480 C514 1.395 . S
N481 C477 1.376 . S
N481 C480 1.374 . S
N481 Co482 2.008 . S
Co482 N481 2.008 . S
Co482 N483 1.995 . S
Co482 N488 2.008 . S
Co482 N493 1.995 . S
Co482 N498 2.282 . S
Co482 N504 2.282 . S
N483 Co482 1.995 . S
N483 C484 1.376 . S
N483 C487 1.383 . S
C484 N483 1.376 . S
C484 C485 1.446 . S
C484 C514 1.391 . S
C485 C484 1.446 . S
C485 C486 1.339 . S
C485 H520 0.949 . S
C486 C485 1.339 . S
C486 C487 1.439 . S
C486 H521 0.950 . S
C487 N483 1.383 . S
C487 C486 1.439 . S
C487 C516 1.392 . S
N488 Co482 2.008 . S
N488 C489 1.376 . S
N488 C492 1.374 . S
C489 N488 1.376 . S
C489 C490 1.443 . S
C489 C516 1.389 . S
C490 C489 1.443 . S
C490 C491 1.340 . S
C490 H522 0.951 . S
C491 C490 1.340 . S
C491 C492 1.439 . S
C491 H523 0.950 . S
C492 N488 1.374 . S
C492 C491 1.439 . S
C492 C517 1.395 . S
N493 Co482 1.995 . S
N493 C494 1.376 . S
N493 C497 1.383 . S
C494 N493 1.376 . S
C494 C495 1.446 . S
C494 C517 1.391 . S
C495 C494 1.446 . S
C495 C496 1.339 . S
C495 H524 0.949 . S
C496 C495 1.339 . S
C496 C497 1.439 . S
C496 H525 0.950 . S
C497 N493 1.383 . S
C497 C496 1.439 . S
C497 C515 1.392 . S
N498 Co482 2.282 . S
N498 C501 1.332 . S
N498 C503 1.332 . S
C499 C500 1.386 . S
C499 C502 1.388 . S
C500 C499 1.386 . S
C500 C501 1.382 . S
C500 H526 0.950 . S
C501 N498 1.332 . S
C501 C500 1.382 . S
C501 H512 0.952 . S
C502 C499 1.388 . S
C502 C503 1.382 . S
C502 H527 0.950 . S
C503 N498 1.332 . S
C503 C502 1.382 . S
C503 H513 0.948 . S
N504 Co482 2.282 . S
N504 C508 1.332 . S
N504 C509 1.332 . S
C505 C506 1.388 . S
C505 C509 1.382 . S
C505 H528 0.950 . S
C506 C505 1.388 . S
C506 C507 1.386 . S
C507 C506 1.386 . S
C507 C508 1.382 . S
C507 H529 0.950 . S
C508 N504 1.332 . S
C508 C507 1.382 . S
C508 H510 0.952 . S
C509 N504 1.332 . S
C509 C505 1.382 . S
C509 H511 0.948 . S
H510 C508 0.952 . S
H511 C509 0.948 . S
H512 C501 0.952 . S
H513 C503 0.948 . S
C514 C480 1.395 . S
C514 C484 1.391 . S
C515 C477 1.389 . S
C515 C497 1.392 . S
C516 C487 1.392 . S
C516 C489 1.389 . S
C517 C492 1.395 . S
C517 C494 1.391 . S
H518 C478 0.951 . S
H519 C479 0.950 . S
H520 C485 0.949 . S
H521 C486 0.950 . S
H522 C490 0.951 . S
H523 C491 0.950 . S
H524 C495 0.949 . S
H525 C496 0.950 . S
H526 C500 0.950 . S
H527 C502 0.950 . S
H528 C505 0.950 . S
H529 C507 0.950 . S
C530 C531 1.443 . S
C530 N534 1.376 . S
C530 C568 1.389 . S
C531 C530 1.443 . S
C531 C532 1.340 . S
C531 H571 0.951 . S
C532 C531 1.340 . S
C532 C533 1.439 . S
C532 H572 0.950 . S
C533 C532 1.439 . S
C533 N534 1.374 . S
C533 C567 1.395 . S
N534 C530 1.376 . S
N534 C533 1.374 . S
N534 Co535 2.008 . S
Co535 N534 2.008 . S
Co535 N536 1.995 . S
Co535 N541 2.008 . S
Co535 N546 1.995 . S
Co535 N551 2.282 . S
Co535 N557 2.282 . S
N536 Co535 1.995 . S
N536 C537 1.376 . S
N536 C540 1.383 . S
C537 N536 1.376 . S
C537 C538 1.446 . S
C537 C567 1.391 . S
C538 C537 1.446 . S
C538 C539 1.339 . S
C538 H573 0.949 . S
C539 C538 1.339 . S
C539 C540 1.439 . S
C539 H574 0.950 . S
C540 N536 1.383 . S
C540 C539 1.439 . S
C540 C569 1.392 . S
N541 Co535 2.008 . S
N541 C542 1.376 . S
N541 C545 1.374 . S
C542 N541 1.376 . S
C542 C543 1.443 . S
C542 C569 1.389 . S
C543 C542 1.443 . S
C543 C544 1.340 . S
C543 H575 0.951 . S
C544 C543 1.340 . S
C544 C545 1.439 . S
C544 H576 0.950 . S
C545 N541 1.374 . S
C545 C544 1.439 . S
C545 C570 1.395 . S
N546 Co535 1.995 . S
N546 C547 1.376 . S
N546 C550 1.383 . S
C547 N546 1.376 . S
C547 C548 1.446 . S
C547 C570 1.391 . S
C548 C547 1.446 . S
C548 C549 1.339 . S
C548 H577 0.949 . S
C549 C548 1.339 . S
C549 C550 1.439 . S
C549 H578 0.950 . S
C550 N546 1.383 . S
C550 C549 1.439 . S
C550 C568 1.392 . S
N551 Co535 2.282 . S
N551 C554 1.332 . S
N551 C556 1.332 . S
C552 C553 1.386 . S
C552 C555 1.388 . S
C553 C552 1.386 . S
C553 C554 1.382 . S
C553 H579 0.950 . S
C554 N551 1.332 . S
C554 C553 1.382 . S
C554 H565 0.952 . S
C555 C552 1.388 . S
C555 C556 1.382 . S
C555 H580 0.950 . S
C556 N551 1.332 . S
C556 C555 1.382 . S
C556 H566 0.948 . S
N557 Co535 2.282 . S
N557 C561 1.332 . S
N557 C562 1.332 . S
C558 C559 1.388 . S
C558 C562 1.382 . S
C558 H581 0.950 . S
C559 C558 1.388 . S
C559 C560 1.386 . S
C560 C559 1.386 . S
C560 C561 1.382 . S
C560 H582 0.950 . S
C561 N557 1.332 . S
C561 C560 1.382 . S
C561 H563 0.952 . S
C562 N557 1.332 . S
C562 C558 1.382 . S
C562 H564 0.948 . S
H563 C561 0.952 . S
H564 C562 0.948 . S
H565 C554 0.952 . S
H566 C556 0.948 . S
C567 C533 1.395 . S
C567 C537 1.391 . S
C568 C530 1.389 . S
C568 C550 1.392 . S
C569 C540 1.392 . S
C569 C542 1.389 . S
C570 C545 1.395 . S
C570 C547 1.391 . S
H571 C531 0.951 . S
H572 C532 0.950 . S
H573 C538 0.949 . S
H574 C539 0.950 . S
H575 C543 0.951 . S
H576 C544 0.950 . S
H577 C548 0.949 . S
H578 C549 0.950 . S
H579 C553 0.950 . S
H580 C555 0.950 . S
H581 C558 0.950 . S
H582 C560 0.950 . S
C583 C584 1.443 . S
C583 N587 1.376 . S
C583 C621 1.389 . S
C584 C583 1.443 . S
C584 C585 1.340 . S
C584 H624 0.951 . S
C585 C584 1.340 . S
C585 C586 1.439 . S
C585 H625 0.950 . S
C586 C585 1.439 . S
C586 N587 1.374 . S
C586 C620 1.395 . S
N587 C583 1.376 . S
N587 C586 1.374 . S
N587 Co588 2.008 . S
Co588 N587 2.008 . S
Co588 N589 1.995 . S
Co588 N594 2.008 . S
Co588 N599 1.995 . S
Co588 N604 2.282 . S
Co588 N610 2.282 . S
N589 Co588 1.995 . S
N589 C590 1.376 . S
N589 C593 1.383 . S
C590 N589 1.376 . S
C590 C591 1.446 . S
C590 C620 1.391 . S
C591 C590 1.446 . S
C591 C592 1.339 . S
C591 H626 0.949 . S
C592 C591 1.339 . S
C592 C593 1.439 . S
C592 H627 0.950 . S
C593 N589 1.383 . S
C593 C592 1.439 . S
C593 C622 1.392 . S
N594 Co588 2.008 . S
N594 C595 1.376 . S
N594 C598 1.374 . S
C595 N594 1.376 . S
C595 C596 1.443 . S
C595 C622 1.389 . S
C596 C595 1.443 . S
C596 C597 1.340 . S
C596 H628 0.951 . S
C597 C596 1.340 . S
C597 C598 1.439 . S
C597 H629 0.950 . S
C598 N594 1.374 . S
C598 C597 1.439 . S
C598 C623 1.395 . S
N599 Co588 1.995 . S
N599 C600 1.376 . S
N599 C603 1.383 . S
C600 N599 1.376 . S
C600 C601 1.446 . S
C600 C623 1.391 . S
C601 C600 1.446 . S
C601 C602 1.339 . S
C601 H630 0.949 . S
C602 C601 1.339 . S
C602 C603 1.439 . S
C602 H631 0.950 . S
C603 N599 1.383 . S
C603 C602 1.439 . S
C603 C621 1.392 . S
N604 Co588 2.282 . S
N604 C607 1.332 . S
N604 C609 1.332 . S
C605 C606 1.386 . S
C605 C608 1.388 . S
C606 C605 1.386 . S
C606 C607 1.382 . S
C606 H632 0.950 . S
C607 N604 1.332 . S
C607 C606 1.382 . S
C607 H618 0.952 . S
C608 C605 1.388 . S
C608 C609 1.382 . S
C608 H633 0.950 . S
C609 N604 1.332 . S
C609 C608 1.382 . S
C609 H619 0.948 . S
N610 Co588 2.282 . S
N610 C614 1.332 . S
N610 C615 1.332 . S
C611 C612 1.388 . S
C611 C615 1.382 . S
C611 H634 0.950 . S
C612 C611 1.388 . S
C612 C613 1.386 . S
C613 C612 1.386 . S
C613 C614 1.382 . S
C613 H635 0.950 . S
C614 N610 1.332 . S
C614 C613 1.382 . S
C614 H616 0.952 . S
C615 N610 1.332 . S
C615 C611 1.382 . S
C615 H617 0.948 . S
H616 C614 0.952 . S
H617 C615 0.948 . S
H618 C607 0.952 . S
H619 C609 0.948 . S
C620 C586 1.395 . S
C620 C590 1.391 . S
C621 C583 1.389 . S
C621 C603 1.392 . S
C622 C593 1.392 . S
C622 C595 1.389 . S
C623 C598 1.395 . S
C623 C600 1.391 . S
H624 C584 0.951 . S
H625 C585 0.950 . S
H626 C591 0.949 . S
H627 C592 0.950 . S
H628 C596 0.951 . S
H629 C597 0.950 . S
H630 C601 0.949 . S
H631 C602 0.950 . S
H632 C606 0.950 . S
H633 C608 0.950 . S
H634 C611 0.950 . S
H635 C613 0.950 . S
C636 C637 1.443 . S
C636 N640 1.376 . S
C636 C674 1.389 . S
C637 C636 1.443 . S
C637 C638 1.340 . S
C637 H677 0.951 . S
C638 C637 1.340 . S
C638 C639 1.439 . S
C638 H678 0.950 . S
C639 C638 1.439 . S
C639 N640 1.374 . S
C639 C673 1.395 . S
N640 C636 1.376 . S
N640 C639 1.374 . S
N640 Co641 2.008 . S
Co641 N640 2.008 . S
Co641 N642 1.995 . S
Co641 N647 2.008 . S
Co641 N652 1.995 . S
Co641 N657 2.282 . S
Co641 N663 2.282 . S
N642 Co641 1.995 . S
N642 C643 1.376 . S
N642 C646 1.383 . S
C643 N642 1.376 . S
C643 C644 1.446 . S
C643 C673 1.391 . S
C644 C643 1.446 . S
C644 C645 1.339 . S
C644 H679 0.949 . S
C645 C644 1.339 . S
C645 C646 1.439 . S
C645 H680 0.950 . S
C646 N642 1.383 . S
C646 C645 1.439 . S
C646 C675 1.392 . S
N647 Co641 2.008 . S
N647 C648 1.376 . S
N647 C651 1.374 . S
C648 N647 1.376 . S
C648 C649 1.443 . S
C648 C675 1.389 . S
C649 C648 1.443 . S
C649 C650 1.340 . S
C649 H681 0.951 . S
C650 C649 1.340 . S
C650 C651 1.439 . S
C650 H682 0.950 . S
C651 N647 1.374 . S
C651 C650 1.439 . S
C651 C676 1.395 . S
N652 Co641 1.995 . S
N652 C653 1.376 . S
N652 C656 1.383 . S
C653 N652 1.376 . S
C653 C654 1.446 . S
C653 C676 1.391 . S
C654 C653 1.446 . S
C654 C655 1.339 . S
C654 H683 0.949 . S
C655 C654 1.339 . S
C655 C656 1.439 . S
C655 H684 0.950 . S
C656 N652 1.383 . S
C656 C655 1.439 . S
C656 C674 1.392 . S
N657 Co641 2.282 . S
N657 C660 1.332 . S
N657 C662 1.332 . S
C658 C659 1.386 . S
C658 C661 1.388 . S
C659 C658 1.386 . S
C659 C660 1.382 . S
C659 H685 0.950 . S
C660 N657 1.332 . S
C660 C659 1.382 . S
C660 H671 0.952 . S
C661 C658 1.388 . S
C661 C662 1.382 . S
C661 H686 0.950 . S
C662 N657 1.332 . S
C662 C661 1.382 . S
C662 H672 0.948 . S
N663 Co641 2.282 . S
N663 C667 1.332 . S
N663 C668 1.332 . S
C664 C665 1.388 . S
C664 C668 1.382 . S
C664 H687 0.950 . S
C665 C664 1.388 . S
C665 C666 1.386 . S
C666 C665 1.386 . S
C666 C667 1.382 . S
C666 H688 0.950 . S
C667 N663 1.332 . S
C667 C666 1.382 . S
C667 H669 0.952 . S
C668 N663 1.332 . S
C668 C664 1.382 . S
C668 H670 0.948 . S
H669 C667 0.952 . S
H670 C668 0.948 . S
H671 C660 0.952 . S
H672 C662 0.948 . S
C673 C639 1.395 . S
C673 C643 1.391 . S
C674 C636 1.389 . S
C674 C656 1.392 . S
C675 C646 1.392 . S
C675 C648 1.389 . S
C676 C651 1.395 . S
C676 C653 1.391 . S
H677 C637 0.951 . S
H678 C638 0.950 . S
H679 C644 0.949 . S
H680 C645 0.950 . S
H681 C649 0.951 . S
H682 C650 0.950 . S
H683 C654 0.949 . S
H684 C655 0.950 . S
H685 C659 0.950 . S
H686 C661 0.950 . S
H687 C664 0.950 . S
H688 C666 0.950 . S
C689 C690 1.443 . S
C689 N693 1.376 . S
C689 C727 1.389 . S
C690 C689 1.443 . S
C690 C691 1.340 . S
C690 H730 0.951 . S
C691 C690 1.340 . S
C691 C692 1.439 . S
C691 H731 0.950 . S
C692 C691 1.439 . S
C692 N693 1.374 . S
C692 C726 1.395 . S
N693 C689 1.376 . S
N693 C692 1.374 . S
N693 Co694 2.008 . S
Co694 N693 2.008 . S
Co694 N695 1.995 . S
Co694 N700 2.008 . S
Co694 N705 1.995 . S
Co694 N710 2.282 . S
Co694 N716 2.282 . S
N695 Co694 1.995 . S
N695 C696 1.376 . S
N695 C699 1.383 . S
C696 N695 1.376 . S
C696 C697 1.446 . S
C696 C726 1.391 . S
C697 C696 1.446 . S
C697 C698 1.339 . S
C697 H732 0.949 . S
C698 C697 1.339 . S
C698 C699 1.439 . S
C698 H733 0.950 . S
C699 N695 1.383 . S
C699 C698 1.439 . S
C699 C728 1.392 . S
N700 Co694 2.008 . S
N700 C701 1.376 . S
N700 C704 1.374 . S
C701 N700 1.376 . S
C701 C702 1.443 . S
C701 C728 1.389 . S
C702 C701 1.443 . S
C702 C703 1.340 . S
C702 H734 0.951 . S
C703 C702 1.340 . S
C703 C704 1.439 . S
C703 H735 0.950 . S
C704 N700 1.374 . S
C704 C703 1.439 . S
C704 C729 1.395 . S
N705 Co694 1.995 . S
N705 C706 1.376 . S
N705 C709 1.383 . S
C706 N705 1.376 . S
C706 C707 1.446 . S
C706 C729 1.391 . S
C707 C706 1.446 . S
C707 C708 1.339 . S
C707 H736 0.949 . S
C708 C707 1.339 . S
C708 C709 1.439 . S
C708 H737 0.950 . S
C709 N705 1.383 . S
C709 C708 1.439 . S
C709 C727 1.392 . S
N710 Co694 2.282 . S
N710 C713 1.332 . S
N710 C715 1.332 . S
C711 C712 1.386 . S
C711 C714 1.388 . S
C712 C711 1.386 . S
C712 C713 1.382 . S
C712 H738 0.950 . S
C713 N710 1.332 . S
C713 C712 1.382 . S
C713 H724 0.952 . S
C714 C711 1.388 . S
C714 C715 1.382 . S
C714 H739 0.950 . S
C715 N710 1.332 . S
C715 C714 1.382 . S
C715 H725 0.948 . S
N716 Co694 2.282 . S
N716 C720 1.332 . S
N716 C721 1.332 . S
C717 C718 1.388 . S
C717 C721 1.382 . S
C717 H740 0.950 . S
C718 C717 1.388 . S
C718 C719 1.386 . S
C719 C718 1.386 . S
C719 C720 1.382 . S
C719 H741 0.950 . S
C720 N716 1.332 . S
C720 C719 1.382 . S
C720 H722 0.952 . S
C721 N716 1.332 . S
C721 C717 1.382 . S
C721 H723 0.948 . S
H722 C720 0.952 . S
H723 C721 0.948 . S
H724 C713 0.952 . S
H725 C715 0.948 . S
C726 C692 1.395 . S
C726 C696 1.391 . S
C727 C689 1.389 . S
C727 C709 1.392 . S
C728 C699 1.392 . S
C728 C701 1.389 . S
C729 C704 1.395 . S
C729 C706 1.391 . S
H730 C690 0.951 . S
H731 C691 0.950 . S
H732 C697 0.949 . S
H733 C698 0.950 . S
H734 C702 0.951 . S
H735 C703 0.950 . S
H736 C707 0.949 . S
H737 C708 0.950 . S
H738 C712 0.950 . S
H739 C714 0.950 . S
H740 C717 0.950 . S
H741 C719 0.950 . S
C742 C743 1.443 . S
C742 N746 1.376 . S
C742 C780 1.389 . S
C743 C742 1.443 . S
C743 C744 1.340 . S
C743 H783 0.951 . S
C744 C743 1.340 . S
C744 C745 1.439 . S
C744 H784 0.950 . S
C745 C744 1.439 . S
C745 N746 1.374 . S
C745 C779 1.395 . S
N746 C742 1.376 . S
N746 C745 1.374 . S
N746 Co747 2.008 . S
Co747 N746 2.008 . S
Co747 N748 1.995 . S
Co747 N753 2.008 . S
Co747 N758 1.995 . S
Co747 N763 2.282 . S
Co747 N769 2.282 . S
N748 Co747 1.995 . S
N748 C749 1.376 . S
N748 C752 1.383 . S
C749 N748 1.376 . S
C749 C750 1.446 . S
C749 C779 1.391 . S
C750 C749 1.446 . S
C750 C751 1.339 . S
C750 H785 0.949 . S
C751 C750 1.339 . S
C751 C752 1.439 . S
C751 H786 0.950 . S
C752 N748 1.383 . S
C752 C751 1.439 . S
C752 C781 1.392 . S
N753 Co747 2.008 . S
N753 C754 1.376 . S
N753 C757 1.374 . S
C754 N753 1.376 . S
C754 C755 1.443 . S
C754 C781 1.389 . S
C755 C754 1.443 . S
C755 C756 1.340 . S
C755 H787 0.951 . S
C756 C755 1.340 . S
C756 C757 1.439 . S
C756 H788 0.950 . S
C757 N753 1.374 . S
C757 C756 1.439 . S
C757 C782 1.395 . S
N758 Co747 1.995 . S
N758 C759 1.376 . S
N758 C762 1.383 . S
C759 N758 1.376 . S
C759 C760 1.446 . S
C759 C782 1.391 . S
C760 C759 1.446 . S
C760 C761 1.339 . S
C760 H789 0.949 . S
C761 C760 1.339 . S
C761 C762 1.439 . S
C761 H790 0.950 . S
C762 N758 1.383 . S
C762 C761 1.439 . S
C762 C780 1.392 . S
N763 Co747 2.282 . S
N763 C766 1.332 . S
N763 C768 1.332 . S
C764 C765 1.386 . S
C764 C767 1.388 . S
C765 C764 1.386 . S
C765 C766 1.382 . S
C765 H791 0.950 . S
C766 N763 1.332 . S
C766 C765 1.382 . S
C766 H777 0.952 . S
C767 C764 1.388 . S
C767 C768 1.382 . S
C767 H792 0.950 . S
C768 N763 1.332 . S
C768 C767 1.382 . S
C768 H778 0.948 . S
N769 Co747 2.282 . S
N769 C773 1.332 . S
N769 C774 1.332 . S
C770 C771 1.388 . S
C770 C774 1.382 . S
C770 H793 0.950 . S
C771 C770 1.388 . S
C771 C772 1.386 . S
C772 C771 1.386 . S
C772 C773 1.382 . S
C772 H794 0.950 . S
C773 N769 1.332 . S
C773 C772 1.382 . S
C773 H775 0.952 . S
C774 N769 1.332 . S
C774 C770 1.382 . S
C774 H776 0.948 . S
H775 C773 0.952 . S
H776 C774 0.948 . S
H777 C766 0.952 . S
H778 C768 0.948 . S
C779 C745 1.395 . S
C779 C749 1.391 . S
C780 C742 1.389 . S
C780 C762 1.392 . S
C781 C752 1.392 . S
C781 C754 1.389 . S
C782 C757 1.395 . S
C782 C759 1.391 . S
H783 C743 0.951 . S
H784 C744 0.950 . S
H785 C750 0.949 . S
H786 C751 0.950 . S
H787 C755 0.951 . S
H788 C756 0.950 . S
H789 C760 0.949 . S
H790 C761 0.950 . S
H791 C765 0.950 . S
H792 C767 0.950 . S
H793 C770 0.950 . S
H794 C772 0.950 . S
C795 C796 1.443 . S
C795 N799 1.376 . S
C795 C833 1.389 . S
C796 C795 1.443 . S
C796 C797 1.340 . S
C796 H836 0.951 . S
C797 C796 1.340 . S
C797 C798 1.439 . S
C797 H837 0.950 . S
C798 C797 1.439 . S
C798 N799 1.374 . S
C798 C832 1.395 . S
N799 C795 1.376 . S
N799 C798 1.374 . S
N799 Co800 2.008 . S
Co800 N799 2.008 . S
Co800 N801 1.995 . S
Co800 N806 2.008 . S
Co800 N811 1.995 . S
Co800 N816 2.282 . S
Co800 N822 2.282 . S
N801 Co800 1.995 . S
N801 C802 1.376 . S
N801 C805 1.383 . S
C802 N801 1.376 . S
C802 C803 1.446 . S
C802 C832 1.391 . S
C803 C802 1.446 . S
C803 C804 1.339 . S
C803 H838 0.949 . S
C804 C803 1.339 . S
C804 C805 1.439 . S
C804 H839 0.950 . S
C805 N801 1.383 . S
C805 C804 1.439 . S
C805 C834 1.392 . S
N806 Co800 2.008 . S
N806 C807 1.376 . S
N806 C810 1.374 . S
C807 N806 1.376 . S
C807 C808 1.443 . S
C807 C834 1.389 . S
C808 C807 1.443 . S
C808 C809 1.340 . S
C808 H840 0.951 . S
C809 C808 1.340 . S
C809 C810 1.439 . S
C809 H841 0.950 . S
C810 N806 1.374 . S
C810 C809 1.439 . S
C810 C835 1.395 . S
N811 Co800 1.995 . S
N811 C812 1.376 . S
N811 C815 1.383 . S
C812 N811 1.376 . S
C812 C813 1.446 . S
C812 C835 1.391 . S
C813 C812 1.446 . S
C813 C814 1.339 . S
C813 H842 0.949 . S
C814 C813 1.339 . S
C814 C815 1.439 . S
C814 H843 0.950 . S
C815 N811 1.383 . S
C815 C814 1.439 . S
C815 C833 1.392 . S
N816 Co800 2.282 . S
N816 C819 1.332 . S
N816 C821 1.332 . S
C817 C818 1.386 . S
C817 C820 1.388 . S
C818 C817 1.386 . S
C818 C819 1.382 . S
C818 H844 0.950 . S
C819 N816 1.332 . S
C819 C818 1.382 . S
C819 H830 0.952 . S
C820 C817 1.388 . S
C820 C821 1.382 . S
C820 H845 0.950 . S
C821 N816 1.332 . S
C821 C820 1.382 . S
C821 H831 0.948 . S
N822 Co800 2.282 . S
N822 C826 1.332 . S
N822 C827 1.332 . S
C823 C824 1.388 . S
C823 C827 1.382 . S
C823 H846 0.950 . S
C824 C823 1.388 . S
C824 C825 1.386 . S
C825 C824 1.386 . S
C825 C826 1.382 . S
C825 H847 0.950 . S
C826 N822 1.332 . S
C826 C825 1.382 . S
C826 H828 0.952 . S
C827 N822 1.332 . S
C827 C823 1.382 . S
C827 H829 0.948 . S
H828 C826 0.952 . S
H829 C827 0.948 . S
H830 C819 0.952 . S
H831 C821 0.948 . S
C832 C798 1.395 . S
C832 C802 1.391 . S
C833 C795 1.389 . S
C833 C815 1.392 . S
C834 C805 1.392 . S
C834 C807 1.389 . S
C835 C810 1.395 . S
C835 C812 1.391 . S
H836 C796 0.951 . S
H837 C797 0.950 . S
H838 C803 0.949 . S
H839 C804 0.950 . S
H840 C808 0.951 . S
H841 C809 0.950 . S
H842 C813 0.949 . S
H843 C814 0.950 . S
H844 C818 0.950 . S
H845 C820 0.950 . S
H846 C823 0.950 . S
H847 C825 0.950 . S
C848 C849 1.387 . S
C848 H852 0.950 . S
C848 C857 1.390 1_455 S
C849 C848 1.387 . S
C849 C851 1.387 . S
H850 C857 0.950 . S
C851 C849 1.387 . S
C851 C853 1.390 1_455 S
C851 H855 0.950 . S
H852 C848 0.950 . S
C853 C851 1.390 1_655 S
C853 C854 1.387 . S
C853 H856 0.950 . S
C854 C853 1.387 . S
C854 C857 1.387 . S
H855 C851 0.950 . S
H856 C853 0.950 . S
C857 C848 1.390 1_655 S
C857 H850 0.950 . S
C857 C854 1.387 . S
C858 C859 1.387 . S
C858 H862 0.950 . S
C858 C867 1.390 1_565 S
C859 C858 1.387 . S
C859 C861 1.387 . S
H860 C867 0.950 . S
C861 C859 1.387 . S
C861 C863 1.390 1_565 S
C861 H865 0.950 . S
H862 C858 0.950 . S
C863 C861 1.390 1_545 S
C863 C864 1.387 . S
C863 H866 0.950 . S
C864 C863 1.387 . S
C864 C867 1.387 . S
H865 C861 0.950 . S
H866 C863 0.950 . S
C867 C858 1.390 1_545 S
C867 H860 0.950 . S
C867 C864 1.387 . S
C868 C869 1.387 . S
C868 H872 0.950 . S
C868 C877 1.390 1_455 S
C869 C868 1.387 . S
C869 C871 1.387 . S
H870 C877 0.950 . S
C871 C869 1.387 . S
C871 C873 1.390 1_455 S
C871 H875 0.950 . S
H872 C868 0.950 . S
C873 C871 1.390 1_655 S
C873 C874 1.387 . S
C873 H876 0.950 . S
C874 C873 1.387 . S
C874 C877 1.387 . S
H875 C871 0.950 . S
H876 C873 0.950 . S
C877 C868 1.390 1_655 S
C877 H870 0.950 . S
C877 C874 1.387 . S
C878 C879 1.387 . S
C878 H882 0.950 . S
C878 C887 1.390 1_565 S
C879 C878 1.387 . S
C879 C881 1.387 . S
H880 C887 0.950 . S
C881 C879 1.387 . S
C881 C883 1.390 1_565 S
C881 H885 0.950 . S
H882 C878 0.950 . S
C883 C881 1.390 1_545 S
C883 C884 1.387 . S
C883 H886 0.950 . S
C884 C883 1.387 . S
C884 C887 1.387 . S
H885 C881 0.950 . S
H886 C883 0.950 . S
C887 C878 1.390 1_545 S
C887 H880 0.950 . S
C887 C884 1.387 . S
C888 C889 1.387 . S
C888 H892 0.950 . S
C888 C897 1.390 1_655 S
C889 C888 1.387 . S
C889 C891 1.387 . S
H890 C897 0.950 . S
C891 C889 1.387 . S
C891 C893 1.390 1_655 S
C891 H895 0.950 . S
H892 C888 0.950 . S
C893 C891 1.390 1_455 S
C893 C894 1.387 . S
C893 H896 0.950 . S
C894 C893 1.387 . S
C894 C897 1.387 . S
H895 C891 0.950 . S
H896 C893 0.950 . S
C897 C888 1.390 1_455 S
C897 H890 0.950 . S
C897 C894 1.387 . S
C898 C899 1.387 . S
C898 H902 0.950 . S
C898 C907 1.390 1_545 S
C899 C898 1.387 . S
C899 C901 1.387 . S
H900 C907 0.950 . S
C901 C899 1.387 . S
C901 C903 1.390 1_545 S
C901 H905 0.950 . S
H902 C898 0.950 . S
C903 C901 1.390 1_565 S
C903 C904 1.387 . S
C903 H906 0.950 . S
C904 C903 1.387 . S
C904 C907 1.387 . S
H905 C901 0.950 . S
H906 C903 0.950 . S
C907 C898 1.390 1_565 S
C907 H900 0.950 . S
C907 C904 1.387 . S
C908 C909 1.387 . S
C908 H912 0.950 . S
C908 C917 1.390 1_655 S
C909 C908 1.387 . S
C909 C911 1.387 . S
H910 C917 0.950 . S
C911 C909 1.387 . S
C911 C913 1.390 1_655 S
C911 H915 0.950 . S
H912 C908 0.950 . S
C913 C911 1.390 1_455 S
C913 C914 1.387 . S
C913 H916 0.950 . S
C914 C913 1.387 . S
C914 C917 1.387 . S
H915 C911 0.950 . S
H916 C913 0.950 . S
C917 C908 1.390 1_455 S
C917 H910 0.950 . S
C917 C914 1.387 . S
C918 C919 1.387 . S
C918 H922 0.950 . S
C918 C927 1.390 1_545 S
C919 C918 1.387 . S
C919 C921 1.387 . S
H920 C927 0.950 . S
C921 C919 1.387 . S
C921 C923 1.390 1_545 S
C921 H925 0.950 . S
H922 C918 0.950 . S
C923 C921 1.390 1_565 S
C923 C924 1.387 . S
C923 H926 0.950 . S
C924 C923 1.387 . S
C924 C927 1.387 . S
H925 C921 0.950 . S
H926 C923 0.950 . S
C927 C918 1.390 1_565 S
C927 H920 0.950 . S
C927 C924 1.387 . S
C928 C929 1.387 . S
C928 H932 0.950 . S
C928 C937 1.390 . S
C929 C928 1.387 . S
C929 C931 1.387 . S
H930 C937 0.950 . S
C931 C929 1.387 . S
C931 C933 1.390 . S
C931 H935 0.950 . S
H932 C928 0.950 . S
C933 C931 1.390 . S
C933 C934 1.387 . S
C933 H936 0.950 . S
C934 C933 1.387 . S
C934 C937 1.387 . S
H935 C931 0.950 . S
H936 C933 0.950 . S
C937 C928 1.390 . S
C937 H930 0.950 . S
C937 C934 1.387 . S
C938 C939 1.387 . S
C938 H942 0.950 . S
C938 C947 1.390 . S
C939 C938 1.387 . S
C939 C941 1.387 . S
H940 C947 0.950 . S
C941 C939 1.387 . S
C941 C943 1.390 . S
C941 H945 0.950 . S
H942 C938 0.950 . S
C943 C941 1.390 . S
C943 C944 1.387 . S
C943 H946 0.950 . S
C944 C943 1.387 . S
C944 C947 1.387 . S
H945 C941 0.950 . S
H946 C943 0.950 . S
C947 C938 1.390 . S
C947 H940 0.950 . S
C947 C944 1.387 . S
C948 C949 1.387 . S
C948 H952 0.950 . S
C948 C957 1.390 . S
C949 C948 1.387 . S
C949 C951 1.387 . S
H950 C957 0.950 . S
C951 C949 1.387 . S
C951 C953 1.390 . S
C951 H955 0.950 . S
H952 C948 0.950 . S
C953 C951 1.390 . S
C953 C954 1.387 . S
C953 H956 0.950 . S
C954 C953 1.387 . S
C954 C957 1.387 . S
H955 C951 0.950 . S
H956 C953 0.950 . S
C957 C948 1.390 . S
C957 H950 0.950 . S
C957 C954 1.387 . S
C958 C959 1.387 . S
C958 H962 0.950 . S
C958 C967 1.390 . S
C959 C958 1.387 . S
C959 C961 1.387 . S
H960 C967 0.950 . S
C961 C959 1.387 . S
C961 C963 1.390 . S
C961 H965 0.950 . S
H962 C958 0.950 . S
C963 C961 1.390 . S
C963 C964 1.387 . S
C963 H966 0.950 . S
C964 C963 1.387 . S
C964 C967 1.387 . S
H965 C961 0.950 . S
H966 C963 0.950 . S
C967 C958 1.390 . S
C967 H960 0.950 . S
C967 C964 1.387 . S
C968 C969 1.387 . S
C968 H972 0.950 . S
C968 C977 1.390 . S
C969 C968 1.387 . S
C969 C971 1.387 . S
H970 C977 0.950 . S
C971 C969 1.387 . S
C971 C973 1.390 . S
C971 H975 0.950 . S
H972 C968 0.950 . S
C973 C971 1.390 . S
C973 C974 1.387 . S
C973 H976 0.950 . S
C974 C973 1.387 . S
C974 C977 1.387 . S
H975 C971 0.950 . S
H976 C973 0.950 . S
C977 C968 1.390 . S
C977 H970 0.950 . S
C977 C974 1.387 . S
C978 C979 1.387 . S
C978 H982 0.950 . S
C978 C987 1.390 . S
C979 C978 1.387 . S
C979 C981 1.387 . S
H980 C987 0.950 . S
C981 C979 1.387 . S
C981 C983 1.390 . S
C981 H985 0.950 . S
H982 C978 0.950 . S
C983 C981 1.390 . S
C983 C984 1.387 . S
C983 H986 0.950 . S
C984 C983 1.387 . S
C984 C987 1.387 . S
H985 C981 0.950 . S
H986 C983 0.950 . S
C987 C978 1.390 . S
C987 H980 0.950 . S
C987 C984 1.387 . S
C988 C989 1.387 . S
C988 H992 0.950 . S
C988 C997 1.390 . S
C989 C988 1.387 . S
C989 C991 1.387 . S
H990 C997 0.950 . S
C991 C989 1.387 . S
C991 C993 1.390 . S
C991 H995 0.950 . S
H992 C988 0.950 . S
C993 C991 1.390 . S
C993 C994 1.387 . S
C993 H996 0.950 . S
C994 C993 1.387 . S
C994 C997 1.387 . S
H995 C991 0.950 . S
H996 C993 0.950 . S
C997 C988 1.390 . S
C997 H990 0.950 . S
C997 C994 1.387 . S
C998 C999 1.387 . S
C998 H1002 0.950 . S
C998 C1007 1.390 . S
C999 C998 1.387 . S
C999 C1001 1.387 . S
H1000 C1007 0.950 . S
C1001 C999 1.387 . S
C1001 C1003 1.390 . S
C1001 H1005 0.950 . S
H1002 C998 0.950 . S
C1003 C1001 1.390 . S
C1003 C1004 1.387 . S
C1003 H1006 0.950 . S
C1004 C1003 1.387 . S
C1004 C1007 1.387 . S
H1005 C1001 0.950 . S
H1006 C1003 0.950 . S
C1007 C998 1.390 . S
C1007 H1000 0.950 . S
C1007 C1004 1.387 . S
C1008 C1009 1.387 . S
C1008 H1012 0.950 . S
C1008 C1017 1.390 1_556 S
C1009 C1008 1.387 . S
C1009 C1011 1.387 . S
H1010 C1017 0.950 . S
C1011 C1009 1.387 . S
C1011 C1013 1.390 1_556 S
C1011 H1015 0.950 . S
H1012 C1008 0.950 . S
C1013 C1011 1.390 1_554 S
C1013 C1014 1.387 . S
C1013 H1016 0.950 . S
C1014 C1013 1.387 . S
C1014 C1017 1.387 . S
H1015 C1011 0.950 . S
H1016 C1013 0.950 . S
C1017 C1008 1.390 1_554 S
C1017 H1010 0.950 . S
C1017 C1014 1.387 . S
C1018 C1019 1.387 . S
C1018 H1022 0.950 . S
C1018 C1027 1.390 . S
C1019 C1018 1.387 . S
C1019 C1021 1.387 . S
H1020 C1027 0.950 . S
C1021 C1019 1.387 . S
C1021 C1023 1.390 . S
C1021 H1025 0.950 . S
H1022 C1018 0.950 . S
C1023 C1021 1.390 . S
C1023 C1024 1.387 . S
C1023 H1026 0.950 . S
C1024 C1023 1.387 . S
C1024 C1027 1.387 . S
H1025 C1021 0.950 . S
H1026 C1023 0.950 . S
C1027 C1018 1.390 . S
C1027 H1020 0.950 . S
C1027 C1024 1.387 . S
C1028 C1029 1.387 . S
C1028 H1032 0.950 . S
C1028 C1037 1.390 1_554 S
C1029 C1028 1.387 . S
C1029 C1031 1.387 . S
H1030 C1037 0.950 . S
C1031 C1029 1.387 . S
C1031 C1033 1.390 1_554 S
C1031 H1035 0.950 . S
H1032 C1028 0.950 . S
C1033 C1031 1.390 1_556 S
C1033 C1034 1.387 . S
C1033 H1036 0.950 . S
C1034 C1033 1.387 . S
C1034 C1037 1.387 . S
H1035 C1031 0.950 . S
H1036 C1033 0.950 . S
C1037 C1028 1.390 1_556 S
C1037 H1030 0.950 . S
C1037 C1034 1.387 . S
C1038 C1039 1.387 . S
C1038 H1042 0.950 . S
C1038 C1047 1.390 . S
C1039 C1038 1.387 . S
C1039 C1041 1.387 . S
H1040 C1047 0.950 . S
C1041 C1039 1.387 . S
C1041 C1043 1.390 . S
C1041 H1045 0.950 . S
H1042 C1038 0.950 . S
C1043 C1041 1.390 . S
C1043 C1044 1.387 . S
C1043 H1046 0.950 . S
C1044 C1043 1.387 . S
C1044 C1047 1.387 . S
H1045 C1041 0.950 . S
H1046 C1043 0.950 . S
C1047 C1038 1.390 . S
C1047 H1040 0.950 . S
C1047 C1044 1.387 . S
C1048 C1049 1.387 . S
C1048 H1052 0.950 . S
C1048 C1057 1.390 . S
C1049 C1048 1.387 . S
C1049 C1051 1.387 . S
H1050 C1057 0.950 . S
C1051 C1049 1.387 . S
C1051 C1053 1.390 . S
C1051 H1055 0.950 . S
H1052 C1048 0.950 . S
C1053 C1051 1.390 . S
C1053 C1054 1.387 . S
C1053 H1056 0.950 . S
C1054 C1053 1.387 . S
C1054 C1057 1.387 . S
H1055 C1051 0.950 . S
H1056 C1053 0.950 . S
C1057 C1048 1.390 . S
C1057 H1050 0.950 . S
C1057 C1054 1.387 . S
C1058 C1059 1.387 . S
C1058 H1062 0.950 . S
C1058 C1067 1.390 1_556 S
C1059 C1058 1.387 . S
C1059 C1061 1.387 . S
H1060 C1067 0.950 . S
C1061 C1059 1.387 . S
C1061 C1063 1.390 1_556 S
C1061 H1065 0.950 . S
H1062 C1058 0.950 . S
C1063 C1061 1.390 1_554 S
C1063 C1064 1.387 . S
C1063 H1066 0.950 . S
C1064 C1063 1.387 . S
C1064 C1067 1.387 . S
H1065 C1061 0.950 . S
H1066 C1063 0.950 . S
C1067 C1058 1.390 1_554 S
C1067 H1060 0.950 . S
C1067 C1064 1.387 . S
C1068 C1069 1.387 . S
C1068 H1072 0.950 . S
C1068 C1077 1.390 . S
C1069 C1068 1.387 . S
C1069 C1071 1.387 . S
H1070 C1077 0.950 . S
C1071 C1069 1.387 . S
C1071 C1073 1.390 . S
C1071 H1075 0.950 . S
H1072 C1068 0.950 . S
C1073 C1071 1.390 . S
C1073 C1074 1.387 . S
C1073 H1076 0.950 . S
C1074 C1073 1.387 . S
C1074 C1077 1.387 . S
H1075 C1071 0.950 . S
H1076 C1073 0.950 . S
C1077 C1068 1.390 . S
C1077 H1070 0.950 . S
C1077 C1074 1.387 . S
C1078 C1079 1.387 . S
C1078 H1082 0.950 . S
C1078 C1087 1.390 1_554 S
C1079 C1078 1.387 . S
C1079 C1081 1.387 . S
H1080 C1087 0.950 . S
C1081 C1079 1.387 . S
C1081 C1083 1.390 1_554 S
C1081 H1085 0.950 . S
H1082 C1078 0.950 . S
C1083 C1081 1.390 1_556 S
C1083 C1084 1.387 . S
C1083 H1086 0.950 . S
C1084 C1083 1.387 . S
C1084 C1087 1.387 . S
H1085 C1081 0.950 . S
H1086 C1083 0.950 . S
C1087 C1078 1.390 1_556 S
C1087 H1080 0.950 . S
C1087 C1084 1.387 . S
C1088 C1089 1.387 . S
C1088 H1092 0.950 . S
C1088 C1097 1.390 . S
C1089 C1088 1.387 . S
C1089 C1091 1.387 . S
H1090 C1097 0.950 . S
C1091 C1089 1.387 . S
C1091 C1093 1.390 . S
C1091 H1095 0.950 . S
H1092 C1088 0.950 . S
C1093 C1091 1.390 . S
C1093 C1094 1.387 . S
C1093 H1096 0.950 . S
C1094 C1093 1.387 . S
C1094 C1097 1.387 . S
H1095 C1091 0.950 . S
H1096 C1093 0.950 . S
C1097 C1088 1.390 . S
C1097 H1090 0.950 . S
C1097 C1094 1.387 . S
C1098 C1099 1.387 . S
C1098 H1102 0.950 . S
C1098 C1107 1.390 . S
C1099 C1098 1.387 . S
C1099 C1101 1.387 . S
H1100 C1107 0.950 . S
C1101 C1099 1.387 . S
C1101 C1103 1.390 . S
C1101 H1105 0.950 . S
H1102 C1098 0.950 . S
C1103 C1101 1.390 . S
C1103 C1104 1.387 . S
C1103 H1106 0.950 . S
C1104 C1103 1.387 . S
C1104 C1107 1.387 . S
H1105 C1101 0.950 . S
H1106 C1103 0.950 . S
C1107 C1098 1.390 . S
C1107 H1100 0.950 . S
C1107 C1104 1.387 . S
C1108 C1109 1.387 . S
C1108 H1112 0.950 . S
C1108 C1117 1.390 . S
C1109 C1108 1.387 . S
C1109 C1111 1.387 . S
H1110 C1117 0.950 . S
C1111 C1109 1.387 . S
C1111 C1113 1.390 . S
C1111 H1115 0.950 . S
H1112 C1108 0.950 . S
C1113 C1111 1.390 . S
C1113 C1114 1.387 . S
C1113 H1116 0.950 . S
C1114 C1113 1.387 . S
C1114 C1117 1.387 . S
H1115 C1111 0.950 . S
H1116 C1113 0.950 . S
C1117 C1108 1.390 . S
C1117 H1110 0.950 . S
C1117 C1114 1.387 . S
C1118 C1119 1.387 . S
C1118 H1122 0.950 . S
C1118 C1127 1.390 . S
C1119 C1118 1.387 . S
C1119 C1121 1.387 . S
H1120 C1127 0.950 . S
C1121 C1119 1.387 . S
C1121 C1123 1.390 . S
C1121 H1125 0.950 . S
H1122 C1118 0.950 . S
C1123 C1121 1.390 . S
C1123 C1124 1.387 . S
C1123 H1126 0.950 . S
C1124 C1123 1.387 . S
C1124 C1127 1.387 . S
H1125 C1121 0.950 . S
H1126 C1123 0.950 . S
C1127 C1118 1.390 . S
C1127 H1120 0.950 . S
C1127 C1124 1.387 . S
C1128 C1129 1.387 . S
C1128 H1132 0.950 . S
C1128 C1137 1.390 . S
C1129 C1128 1.387 . S
C1129 C1131 1.387 . S
H1130 C1137 0.950 . S
C1131 C1129 1.387 . S
C1131 C1133 1.390 . S
C1131 H1135 0.950 . S
H1132 C1128 0.950 . S
C1133 C1131 1.390 . S
C1133 C1134 1.387 . S
C1133 H1136 0.950 . S
C1134 C1133 1.387 . S
C1134 C1137 1.387 . S
H1135 C1131 0.950 . S
H1136 C1133 0.950 . S
C1137 C1128 1.390 . S
C1137 H1130 0.950 . S
C1137 C1134 1.387 . S
C1138 C1139 1.387 . S
C1138 H1142 0.950 . S
C1138 C1147 1.390 . S
C1139 C1138 1.387 . S
C1139 C1141 1.387 . S
H1140 C1147 0.950 . S
C1141 C1139 1.387 . S
C1141 C1143 1.390 . S
C1141 H1145 0.950 . S
H1142 C1138 0.950 . S
C1143 C1141 1.390 . S
C1143 C1144 1.387 . S
C1143 H1146 0.950 . S
C1144 C1143 1.387 . S
C1144 C1147 1.387 . S
H1145 C1141 0.950 . S
H1146 C1143 0.950 . S
C1147 C1138 1.390 . S
C1147 H1140 0.950 . S
C1147 C1144 1.387 . S
C1148 C1149 1.387 . S
C1148 H1152 0.950 . S
C1148 C1157 1.390 . S
C1149 C1148 1.387 . S
C1149 C1151 1.387 . S
H1150 C1157 0.950 . S
C1151 C1149 1.387 . S
C1151 C1153 1.390 . S
C1151 H1155 0.950 . S
H1152 C1148 0.950 . S
C1153 C1151 1.390 . S
C1153 C1154 1.387 . S
C1153 H1156 0.950 . S
C1154 C1153 1.387 . S
C1154 C1157 1.387 . S
H1155 C1151 0.950 . S
H1156 C1153 0.950 . S
C1157 C1148 1.390 . S
C1157 H1150 0.950 . S
C1157 C1154 1.387 . S
C1158 C1159 1.387 . S
C1158 H1162 0.950 . S
C1158 C1167 1.390 . S
C1159 C1158 1.387 . S
C1159 C1161 1.387 . S
H1160 C1167 0.950 . S
C1161 C1159 1.387 . S
C1161 C1163 1.390 . S
C1161 H1165 0.950 . S
H1162 C1158 0.950 . S
C1163 C1161 1.390 . S
C1163 C1164 1.387 . S
C1163 H1166 0.950 . S
C1164 C1163 1.387 . S
C1164 C1167 1.387 . S
H1165 C1161 0.950 . S
H1166 C1163 0.950 . S
C1167 C1158 1.390 . S
C1167 H1160 0.950 . S
C1167 C1164 1.387 . S
C849 C29 1.844 . S
C854 C135 1.844 . S
C859 C188 1.846 . S
C864 C82 1.846 . S
C869 C241 1.844 . S
C874 C347 1.844 . S
C879 C400 1.844 . S
C884 C294 1.844 . S
C889 C453 1.837 . S
C894 C559 1.837 . S
C899 C612 1.834 . S
C904 C506 1.834 . S
C909 C665 1.837 . S
C914 C771 1.837 . S
C919 C824 1.834 . S
C924 C718 1.834 . S
C929 C250 1.896 . S
C934 C38 1.896 . S
C939 C91 1.894 . S
C944 C303 1.894 . S
C949 C144 1.896 . S
C954 C356 1.896 . S
C959 C409 1.894 . S
C964 C197 1.894 . S
C969 C462 1.883 . S
C974 C674 1.883 . S
C979 C515 1.883 . S
C984 C727 1.883 . S
C989 C568 1.883 . S
C994 C780 1.883 . S
C999 C621 1.883 . S
C1004 C833 1.883 . S
C1009 C569 1.803 . S
C1014 C39 1.799 . S
C1019 C622 1.804 . S
C1024 C92 1.798 . S
C1029 C145 1.798 . S
C1034 C463 1.804 . S
C1039 C198 1.798 . S
C1044 C516 1.804 . S
C1049 C251 1.799 . S
C1054 C781 1.803 . S
C1059 C304 1.800 . S
C1064 C834 1.802 . S
C1069 C357 1.799 . S
C1074 C675 1.803 . S
C1079 C728 1.804 . S
C1084 C410 1.798 . S
C1089 C22 1.654 . S
C1094 C817 1.656 . S
C1099 C658 1.656 . S
C1104 C75 1.654 . S
C1109 C128 1.654 . S
C1114 C711 1.656 . S
C1119 C764 1.657 . S
C1124 C181 1.653 . S
C1129 C499 1.657 . S
C1134 C234 1.653 . S
C1139 C287 1.654 . S
C1144 C552 1.656 . S
C1149 C605 1.657 . S
C1154 C340 1.653 . S
C1159 C446 1.656 . S
C1164 C393 1.654 . S
