# Generated by pormake.
# Topology wjw, (5)-cn, num edge types: 1
# Building blocks:
#     Node 0, Type 0, BuildingBlock: XOMCOT_clean_sbu_0, # of connection points: 5
#     Node 1, Type 0, BuildingBlock: XOMCOT_clean_sbu_0, # of connection points: 5
#     Node 2, Type 0, BuildingBlock: XOMCOT_clean_sbu_0, # of connection points: 5
#     Node 3, Type 0, BuildingBlock: XOMCOT_clean_sbu_0, # of connection points: 5
#     Node 4, Type 0, BuildingBlock: XOMCOT_clean_sbu_0, # of connection points: 5
#     Node 5, Type 0, BuildingBlock: XOMCOT_clean_sbu_0, # of connection points: 5
#     Node 6, Type 0, BuildingBlock: XOMCOT_clean_sbu_0, # of connection points: 5
#     Node 7, Type 0, BuildingBlock: XOMCOT_clean_sbu_0, # of connection points: 5
#     Node 8, Type 0, BuildingBlock: XOMCOT_clean_sbu_0, # of connection points: 5
#     Node 9, Type 0, BuildingBlock: XOMCOT_clean_sbu_0, # of connection points: 5
#     Node 10, Type 0, BuildingBlock: XOMCOT_clean_sbu_0, # of connection points: 5
#     Node 11, Type 0, BuildingBlock: XOMCOT_clean_sbu_0, # of connection points: 5
#     Edge 12, Type (0, 0), None
#     Edge 13, Type (0, 0), None
#     Edge 14, Type (0, 0), None
#     Edge 15, Type (0, 0), None
#     Edge 16, Type (0, 0), None
#     Edge 17, Type (0, 0), None
#     Edge 18, Type (0, 0), None
#     Edge 19, Type (0, 0), None
#     Edge 20, Type (0, 0), None
#     Edge 21, Type (0, 0), None
#     Edge 22, Type (0, 0), None
#     Edge 23, Type (0, 0), None
#     Edge 24, Type (0, 0), None
#     Edge 25, Type (0, 0), None
#     Edge 26, Type (0, 0), None
#     Edge 27, Type (0, 0), None
#     Edge 28, Type (0, 0), None
#     Edge 29, Type (0, 0), None
#     Edge 30, Type (0, 0), None
#     Edge 31, Type (0, 0), None
#     Edge 32, Type (0, 0), None
#     Edge 33, Type (0, 0), None
#     Edge 34, Type (0, 0), None
#     Edge 35, Type (0, 0), None
#     Edge 36, Type (0, 0), None
#     Edge 37, Type (0, 0), None
#     Edge 38, Type (0, 0), None
#     Edge 39, Type (0, 0), None
#     Edge 40, Type (0, 0), None
#     Edge 41, Type (0, 0), None
# Relax obj value: 0.216
# Max RMSD: 0.190
# Mean RMSD: 0.183
data_MOF--net-wjw--node1-XOMCOT_clean_sbu_0--edge1-none
_symmetry_space_group_name_H-M    P1
_symmetry_Int_Tables_number       1
_symmetry_cell_setting            triclinic
loop_
_symmetry_equiv_pos_as_xyz
'x, y, z'
_cell_length_a     21.368337
_cell_length_b     21.365043
_cell_length_c     15.126494
_cell_angle_alpha  89.997811
_cell_angle_beta   89.999468
_cell_angle_gamma 120.00488
loop_
_atom_site_label
_atom_site_type_symbol
_atom_site_fract_x
_atom_site_fract_y
_atom_site_fract_z
_atom_type_partial_charge
Co0 Co 0.1324 0.37643 0.34918 0.0
C1 C 0.07842 0.47492 0.3156 0.0
C2 C 1.01041 0.3877 0.40308 0.0
C3 C 0.97622 0.42546 0.38422 0.0
N4 N 0.07431 0.41926 0.36048 0.0
N5 N 1.01926 0.47994 0.32967 0.0
H6 H 0.12471 0.51283 0.27712 0.0
H7 H 0.99033 0.3404 0.44481 0.0
C8 C 0.17374 0.38894 0.54902 0.0
O9 O 0.15441 0.40464 0.6242 0.0
N10 N 0.18473 0.32535 0.33581 0.0
C11 C 0.21526 0.31899 0.26062 0.0
C12 C 0.23648 0.26881 0.2733 0.0
C13 C 0.18273 0.27466 0.39053 0.0
N14 N 0.2167 0.24189 0.35537 0.0
C15 C 0.27814 0.49482 0.29355 0.0
C16 C 0.29457 0.58848 0.42936 0.0
C17 C 0.35368 0.60847 0.3731 0.0
C18 C 0.34385 0.56118 0.30287 0.0
C19 C 0.23024 0.52175 0.41833 0.0
N20 N 0.22278 0.47362 0.35319 0.0
H21 H 0.27253 0.46122 0.23788 0.0
H22 H 0.18614 0.50905 0.46319 0.0
H23 H 0.22009 0.34698 0.19934 0.0
H24 H 0.15867 0.26308 0.45566 0.0
O25 O 0.11026 0.36428 0.22319 0.0
O26 O 0.04317 0.28607 0.32625 0.0
O27 O 0.13108 0.37448 0.48322 0.0
C28 C 0.05086 0.305 0.24365 0.0
H29 H 0.9271 0.41811 0.41463 0.0
H30 H 0.2668 0.25552 0.22737 0.0
H31 H 0.2976 0.62476 0.48114 0.0
H32 H 0.38695 0.5751 0.25563 0.0
Co33 Co 0.76862 0.12524 0.68257 0.0
C34 C 0.61618 0.07129 0.64898 0.0
C35 C 0.63533 1.00322 0.73643 0.0
C36 C 0.56338 0.96905 0.71758 0.0
N37 N 0.6677 0.06714 0.69385 0.0
N38 N 0.55197 1.01212 0.66304 0.0
H39 H 0.62458 0.1176 0.61053 0.0
H40 H 0.66252 0.98312 0.77815 0.0
C41 C 0.79744 0.16655 0.88241 0.0
O42 O 0.76242 0.14718 0.9576 0.0
N43 N 0.87203 0.17759 0.66921 0.0
C44 C 0.90893 0.20814 0.59403 0.0
C45 C 0.98033 0.22936 0.6067 0.0
C46 C 0.92071 0.17559 0.72393 0.0
N47 N 0.98745 0.20957 0.68877 0.0
C48 C 0.79598 0.271 0.62699 0.0
C49 C 0.71875 0.28739 0.76283 0.0
C50 C 0.75786 0.34652 0.70657 0.0
C51 C 0.79533 0.33671 0.63633 0.0
C52 C 0.72116 0.22307 0.75178 0.0
N53 N 0.76183 0.21563 0.68662 0.0
H54 H 0.82398 0.26541 0.57131 0.0
H55 H 0.68975 0.17895 0.79663 0.0
H56 H 0.88578 0.21299 0.53275 0.0
H57 H 0.90823 0.15152 0.78906 0.0
O58 O 0.75864 0.10315 0.55656 0.0
O59 O 0.76974 0.03602 0.65958 0.0
O60 O 0.76924 0.12388 0.81661 0.0
C61 C 0.75851 0.04373 0.57699 0.0
H62 H 0.52159 0.91993 0.74798 0.0
H63 H 0.02393 0.25968 0.56078 0.0
H64 H 0.6855 0.29041 0.81462 0.0
H65 H 0.82449 0.37982 0.58909 0.0
Co66 Co 0.656 0.7615 1.01585 0.0
C67 C 0.55754 0.60905 0.98215 0.0
C68 C 0.64466 0.6282 0.06973 0.0
C69 C 0.60693 0.55625 0.05078 0.0
N70 N 0.61314 0.66057 1.02712 0.0
N71 N 0.5525 0.54484 0.99617 0.0
H72 H 0.51967 0.61746 0.94364 0.0
H73 H 0.69192 0.65539 0.11152 0.0
C74 C 0.64347 0.79034 0.21567 0.0
O75 O 0.62773 0.75529 0.29086 0.0
N76 N 0.70713 0.86492 1.00251 0.0
C77 C 0.71356 0.90184 0.92731 0.0
C78 C 0.7638 0.97323 0.93999 0.0
C79 C 0.75784 0.91357 0.05723 0.0
N80 N 0.79068 0.98033 1.02208 0.0
C81 C 0.53771 0.78903 0.96031 0.0
C82 C 0.44397 0.71163 0.09599 0.0
C83 C 0.42404 0.75085 1.03982 0.0
C84 C 0.47137 0.78841 0.96966 0.0
C85 C 0.51069 0.71402 0.08494 0.0
N86 N 0.55885 0.75476 1.01985 0.0
H87 H 0.57135 0.81711 0.90469 0.0
H88 H 0.52335 0.68255 0.12975 0.0
H89 H 0.68558 0.87871 0.86602 0.0
H90 H 0.76938 0.90106 0.12236 0.0
O91 O 0.66818 0.75154 0.88986 0.0
O92 O 0.74634 0.7626 0.99294 0.0
O93 O 0.65791 0.7621 0.14989 0.0
C94 C 0.72744 0.75138 0.91033 0.0
H95 H 0.61425 0.51445 0.08118 0.0
H96 H 0.77716 0.01685 0.89406 0.0
H97 H 0.40767 0.67833 0.14772 0.0
H98 H 0.45749 0.81766 0.92249 0.0
Co99 Co 0.90715 0.6489 0.34921 0.0
C100 C 0.96093 0.55026 0.31566 0.0
C101 C 0.02907 0.63747 0.4031 0.0
C102 C 0.06315 0.59957 0.38435 0.0
N103 N 0.96517 0.606 0.36048 0.0
N104 N 0.01998 0.5451 0.32987 0.0
H105 H 0.91463 0.5124 0.27716 0.0
H106 H 0.04923 0.6848 0.44479 0.0
C107 C 0.86581 0.63637 0.54905 0.0
O108 O 0.88513 0.62064 0.62423 0.0
N109 N 0.85487 0.70003 0.33585 0.0
C110 C 0.82435 0.70641 0.26065 0.0
C111 C 0.80312 0.75657 0.27334 0.0
C112 C 0.85683 0.75069 0.39059 0.0
N113 N 0.82286 0.78346 0.35542 0.0
C114 C 0.76139 0.53056 0.29356 0.0
C115 C 0.74491 0.43687 0.42938 0.0
C116 C 0.68582 0.4169 0.3731 0.0
C117 C 0.69567 0.4642 0.30287 0.0
C118 C 0.80925 0.5036 0.41836 0.0
N119 N 0.81673 0.55174 0.35321 0.0
H120 H 0.76703 0.56417 0.23788 0.0
H121 H 0.85334 0.51627 0.46323 0.0
H122 H 0.81953 0.67843 0.19937 0.0
H123 H 0.88086 0.76225 0.45573 0.0
O124 O 0.92929 0.66106 0.22322 0.0
O125 O 0.99641 0.73923 0.32629 0.0
O126 O 0.90848 0.65083 0.48325 0.0
C127 C 0.98872 0.72032 0.24369 0.0
H128 H 0.11223 0.60683 0.41474 0.0
H129 H 0.7728 0.76986 0.22741 0.0
H130 H 0.74186 0.40058 0.48115 0.0
H131 H 0.65259 0.45029 0.25561 0.0
Co132 Co 0.27092 0.90005 0.68259 0.0
C133 C 0.42333 0.95382 0.64902 0.0
C134 C 0.4043 0.022 0.73644 0.0
C135 C 0.47628 0.05606 0.7177 0.0
N136 N 0.37185 0.95808 0.69383 0.0
N137 N 0.48756 0.01287 0.66324 0.0
H138 H 0.41486 0.9075 0.61054 0.0
H139 H 0.37714 0.04217 0.77812 0.0
C140 C 0.24212 0.85873 0.88243 0.0
O141 O 0.27716 0.87807 0.95761 0.0
N142 N 0.16751 0.84775 0.66925 0.0
C143 C 0.13061 0.81722 0.59406 0.0
C144 C 0.05921 0.79598 0.60676 0.0
C145 C 0.11882 0.84971 0.724 0.0
N146 N 0.05208 0.81573 0.68884 0.0
C147 C 0.24347 0.75426 0.62701 0.0
C148 C 0.32069 0.73782 0.76282 0.0
C149 C 0.28156 0.67871 0.70657 0.0
C150 C 0.2441 0.68853 0.63634 0.0
C151 C 0.31831 0.80216 0.75178 0.0
N152 N 0.27765 0.80962 0.68663 0.0
H153 H 0.21548 0.75987 0.57134 0.0
H154 H 0.34974 0.84628 0.79663 0.0
H155 H 0.15375 0.81238 0.53278 0.0
H156 H 0.1313 0.87375 0.78914 0.0
O157 O 0.28089 0.92215 0.55658 0.0
O158 O 0.26986 0.98931 0.65962 0.0
O159 O 0.27032 0.90141 0.81663 0.0
C160 C 0.28107 0.98159 0.57702 0.0
H161 H 0.51812 0.10515 0.7481 0.0
H162 H 1.0156 0.76566 0.56084 0.0
H163 H 0.35394 0.73479 0.8146 0.0
H164 H 0.21492 0.64543 0.5891 0.0
Co165 Co 0.38354 0.26376 1.0158 0.0
C166 C 0.48218 0.41618 0.98215 0.0
C167 C 0.39501 0.39714 0.06965 0.0
C168 C 0.4329 0.46912 0.05084 0.0
N169 N 0.42647 0.3647 1.02703 0.0
N170 N 0.48734 0.48041 0.99634 0.0
H171 H 0.52001 0.40773 0.94364 0.0
H172 H 0.34771 0.36998 0.11138 0.0
C173 C 0.39606 0.23495 0.21564 0.0
O174 O 0.41178 0.26999 0.29082 0.0
N175 N 0.33237 0.16034 1.00248 0.0
C176 C 0.32593 0.12342 0.92729 0.0
C177 C 0.2757 0.05203 0.94 0.0
C178 C 0.28169 0.11168 0.05724 0.0
N179 N 0.24885 0.04493 1.0221 0.0
C180 C 0.50179 0.23613 0.96031 0.0
C181 C 0.59555 0.31356 0.09595 0.0
C182 C 0.61546 0.27431 1.03982 0.0
C183 C 0.56811 0.23673 0.96968 0.0
C184 C 0.52884 0.31119 0.0849 0.0
N185 N 0.48067 0.27045 1.01982 0.0
H186 H 0.46814 0.20805 0.90471 0.0
H187 H 0.5162 0.34268 0.12969 0.0
H188 H 0.3539 0.14654 0.86599 0.0
H189 H 0.27017 0.1242 0.12238 0.0
O190 O 0.37138 0.27372 0.8898 0.0
O191 O 0.29324 0.26272 0.99289 0.0
O192 O 0.38162 0.26317 0.14984 0.0
C193 C 0.31214 0.27392 0.91028 0.0
H194 H 0.42565 0.51096 0.08124 0.0
H195 H 0.26234 1.0084 0.89407 0.0
H196 H 0.63187 0.34689 0.14766 0.0
H197 H 0.58198 0.20745 0.92253 0.0
Co198 Co 0.65597 0.90001 0.41029 0.0
C199 C 0.55752 0.954 0.44391 0.0
C200 C 0.64473 0.02204 0.35644 0.0
C201 C 0.60697 0.05624 0.37532 0.0
N202 N 0.61317 0.95812 0.39902 0.0
N203 N 0.55249 0.01318 0.42986 0.0
H204 H 0.51961 0.90769 0.48237 0.0
H205 H 0.69202 0.04214 0.31471 0.0
C206 C 0.64352 0.85871 0.21043 0.0
O207 O 0.6279 0.87809 0.13522 0.0
N208 N 0.70702 0.84765 0.42361 0.0
C209 C 0.71334 0.81702 0.49876 0.0
C210 C 0.76347 0.79573 0.48603 0.0
C211 C 0.75768 0.84965 0.36885 0.0
N212 N 0.79031 0.81552 0.40394 0.0
C213 C 0.53756 0.75428 0.46592 0.0
C214 C 0.44396 0.73784 0.33004 0.0
C215 C 0.42394 0.67874 0.38633 0.0
C216 C 0.4712 0.68856 0.45659 0.0
C217 C 0.51069 0.80218 0.34108 0.0
N218 N 0.55879 0.80963 0.40626 0.0
H219 H 0.57114 0.75989 0.52161 0.0
H220 H 0.5234 0.84629 0.29621 0.0
H221 H 0.68538 0.81219 0.56006 0.0
H222 H 0.76933 0.87381 0.30378 0.0
O223 O 0.66811 0.9221 0.53629 0.0
O224 O 0.74634 0.98923 0.43324 0.0
O225 O 0.65793 0.90136 0.27624 0.0
C226 C 0.72738 0.98152 0.51583 0.0
H227 H 0.61431 0.10536 0.34492 0.0
H228 H 0.7768 0.76543 0.53193 0.0
H229 H 0.40771 0.73481 0.27823 0.0
H230 H 0.45725 0.64547 0.50385 0.0
Co231 Co 0.76863 0.64883 0.7437 0.0
C232 C 0.61616 0.55036 0.7773 0.0
C233 C 0.63539 0.6376 0.68985 0.0
C234 C 0.56343 0.59985 0.70873 0.0
N235 N 0.66772 0.60601 0.73243 0.0
N236 N 0.55198 0.54536 0.76326 0.0
H237 H 0.62453 0.51243 0.81576 0.0
H238 H 0.66261 0.6849 0.64812 0.0
C239 C 0.79748 0.63637 0.54383 0.0
O240 O 0.76247 0.62074 0.46863 0.0
N241 N 0.87204 0.69989 0.75704 0.0
C242 C 0.90898 0.70621 0.83219 0.0
C243 C 0.9804 0.75634 0.81946 0.0
C244 C 0.92071 0.75056 0.70228 0.0
N245 N 0.98747 0.78319 0.73737 0.0
C246 C 0.79593 0.53042 0.79937 0.0
C247 C 0.71876 0.43678 0.66351 0.0
C248 C 0.75785 0.41678 0.7198 0.0
C249 C 0.79528 0.46405 0.79006 0.0
C250 C 0.72116 0.50352 0.67454 0.0
N251 N 0.76181 0.55163 0.73971 0.0
H252 H 0.82389 0.564 0.85507 0.0
H253 H 0.68977 0.51622 0.62966 0.0
H254 H 0.88584 0.67825 0.89349 0.0
H255 H 0.90821 0.76222 0.63721 0.0
O256 O 0.75867 0.66099 0.8697 0.0
O257 O 0.7698 0.7392 0.76662 0.0
O258 O 0.76924 0.65076 0.60966 0.0
C259 C 0.75853 0.72026 0.84921 0.0
H260 H 0.52167 0.60722 0.67833 0.0
H261 H 0.02402 0.76967 0.86536 0.0
H262 H 0.68553 0.40051 0.61171 0.0
H263 H 0.82443 0.45012 0.83732 0.0
Co264 Co 0.13247 0.76151 0.07706 0.0
C265 C 0.07846 0.60904 0.11078 0.0
C266 C 1.01048 0.62822 1.02323 0.0
C267 C 0.97624 0.55627 1.04219 0.0
N268 N 0.07439 0.66057 0.06582 0.0
N269 N 1.01927 0.54484 0.09677 0.0
H270 H 0.12474 0.61743 0.14927 0.0
H271 H 0.99042 0.65542 0.98145 0.0
C272 C 0.17379 0.79035 0.8772 0.0
O273 O 0.15443 0.75535 0.802 0.0
N274 N 0.18478 0.86493 0.09036 0.0
C275 C 0.21535 0.90189 0.16551 0.0
C276 C 0.23657 0.9733 0.15275 0.0
C277 C 0.18272 0.91356 1.03559 0.0
N278 N 0.21678 0.98032 0.07065 0.0
C279 C 0.27827 0.789 0.1326 0.0
C280 C 0.29463 0.71164 0.9969 0.0
C281 C 0.35378 0.75085 0.05307 0.0
C282 C 0.344 0.78839 0.12324 0.0
C283 C 0.2303 0.71402 1.00795 0.0
N284 N 0.22287 0.75474 0.07305 0.0
H285 H 0.2727 0.81706 0.18823 0.0
H286 H 0.18617 0.68256 0.96314 0.0
H287 H 0.22019 0.87878 0.22682 0.0
H288 H 0.15856 0.90101 0.97052 0.0
O289 O 0.11035 0.75157 0.20306 0.0
O290 O 0.04325 0.76263 0.09996 0.0
O291 O 0.13115 0.76209 0.94302 0.0
C292 C 0.05094 0.7514 0.18256 0.0
H293 H 0.92712 0.51449 1.0118 0.0
H294 H 0.26681 0.01695 0.19865 0.0
H295 H 0.29763 0.67834 0.94516 0.0
H296 H 0.38713 0.81764 0.17041 0.0
Co297 Co 0.38357 0.12531 0.4103 0.0
C298 C 0.48219 0.07152 0.44388 0.0
C299 C 0.39496 1.00333 0.35648 0.0
C300 C 0.43287 0.96926 0.37523 0.0
N301 N 0.42644 0.06726 0.39907 0.0
N302 N 0.48734 1.01245 0.42968 0.0
H303 H 0.52005 0.11784 0.48235 0.0
H304 H 0.34763 0.98317 0.3148 0.0
C305 C 0.39601 0.16657 0.21042 0.0
O306 O 0.41162 0.14717 0.13522 0.0
N307 N 0.33247 0.17763 0.4236 0.0
C308 C 0.32613 0.20824 0.49875 0.0
C309 C 0.27602 0.22954 0.486 0.0
C310 C 0.28183 0.17565 0.36882 0.0
N311 N 0.2492 0.20978 0.40389 0.0
C312 C 0.50192 0.27108 0.46589 0.0
C313 C 0.59555 0.28753 0.33004 0.0
C314 C 0.61555 0.34664 0.38632 0.0
C315 C 0.56828 0.3368 0.45656 0.0
C316 C 0.52883 0.22319 0.34108 0.0
N317 N 0.48072 0.21572 0.40625 0.0
H318 H 0.46833 0.26546 0.52158 0.0
H319 H 0.51614 0.17908 0.29622 0.0
H320 H 0.35408 0.21306 0.56005 0.0
H321 H 0.2702 0.15151 0.30374 0.0
O322 O 0.37143 0.10323 0.53631 0.0
O323 O 0.29324 0.03606 0.43326 0.0
O324 O 0.38161 0.12394 0.27626 0.0
C325 C 0.31218 0.04379 0.51585 0.0
H326 H 0.4256 0.92016 0.34484 0.0
H327 H 0.26269 0.25984 0.53189 0.0
H328 H 0.63182 0.29056 0.27825 0.0
H329 H 0.58221 0.3799 0.50381 0.0
Co330 Co 0.27091 0.37645 0.74365 0.0
C331 C 0.42333 0.47507 0.77725 0.0
C332 C 0.40425 0.38787 0.68977 0.0
C333 C 0.47623 0.42574 0.70855 0.0
N334 N 0.37183 0.41935 0.7324 0.0
N335 N 0.48754 0.48021 0.76304 0.0
H336 H 0.41489 0.51292 0.81576 0.0
H337 H 0.37708 0.34055 0.64807 0.0
C338 C 0.24208 0.38894 0.54379 0.0
O339 O 0.2771 0.40461 0.46859 0.0
N340 N 0.16749 0.32534 0.75698 0.0
C341 C 0.13055 0.31899 0.83214 0.0
C342 C 0.05913 0.26887 0.8194 0.0
C343 C 0.11882 0.2747 0.7022 0.0
N344 N 0.05206 0.24206 0.73729 0.0
C345 C 0.24351 0.4948 0.79933 0.0
C346 C 0.32068 0.58847 0.66349 0.0
C347 C 0.28157 0.60845 0.71978 0.0
C348 C 0.24414 0.56115 0.79002 0.0
C349 C 0.3183 0.52175 0.6745 0.0
N350 N 0.27766 0.47362 0.73966 0.0
H351 H 0.21555 0.4612 0.85502 0.0
H352 H 0.34971 0.50908 0.62962 0.0
H353 H 0.15369 0.34693 0.89345 0.0
H354 H 0.13132 0.26307 0.63711 0.0
O355 O 0.28086 0.36428 0.86965 0.0
O356 O 0.26981 0.28611 0.76655 0.0
O357 O 0.27032 0.37454 0.60961 0.0
C358 C 0.28105 0.30504 0.84914 0.0
H359 H 0.51805 0.41847 0.67816 0.0
H360 H 1.01551 0.25554 0.8653 0.0
H361 H 0.35391 0.62476 0.6117 0.0
H362 H 0.21498 0.57507 0.83729 0.0
Co363 Co 0.90708 0.26375 0.07704 0.0
C364 C 0.9609 0.41617 0.11073 0.0
C365 C 0.029 0.39714 1.02319 0.0
C366 C 0.06312 0.46911 1.04204 0.0
N367 N 0.9651 0.3647 0.06581 0.0
N368 N 0.01998 0.4804 0.09656 0.0
H369 H 0.91461 0.40771 0.14925 0.0
H370 H 0.04914 0.36999 0.98145 0.0
C371 C 0.86577 0.23493 0.87718 0.0
O372 O 0.88512 0.26995 0.80198 0.0
N373 N 0.85482 0.16033 0.09033 0.0
C374 C 0.82426 0.12337 0.1655 0.0
C375 C 0.80304 0.05196 0.15274 0.0
C376 C 0.85685 0.1117 1.03555 0.0
N377 N 0.82279 0.04493 0.07062 0.0
C378 C 0.76124 0.23618 0.13259 0.0
C379 C 0.74486 0.31354 0.99689 0.0
C380 C 0.68572 0.27431 0.05306 0.0
C381 C 0.69551 0.23677 0.12323 0.0
C382 C 0.8092 0.31117 1.00793 0.0
N383 N 0.81665 0.27046 0.07303 0.0
H384 H 0.76682 0.20812 0.18821 0.0
H385 H 0.85333 0.34265 0.96312 0.0
H386 H 0.81944 0.14648 0.22681 0.0
H387 H 0.88098 0.12424 0.97046 0.0
O388 O 0.92921 0.2737 0.20304 0.0
O389 O 0.99633 0.2627 0.09992 0.0
O390 O 0.90841 0.26319 0.94299 0.0
C391 C 0.98864 0.27391 0.18252 0.0
H392 H 0.11222 0.51096 1.01166 0.0
H393 H 0.77279 1.00831 0.19865 0.0
H394 H 0.74185 0.34684 0.94516 0.0
H395 H 0.65238 0.20752 0.17041 0.0
loop_
_geom_bond_atom_site_label_1
_geom_bond_atom_site_label_2
_geom_bond_distance
_geom_bond_site_symmetry_2
_ccdc_geom_bond_type
Co0 N4 2.148 . S
Co0 N10 2.128 . S
Co0 N20 2.194 . S
Co0 O25 2.351 . S
Co0 O26 2.155 . S
Co0 O27 2.096 . S
C1 N4 1.301 . S
C1 N5 1.338 . S
C1 H6 0.930 . S
C2 C3 1.333 1_455 S
C2 N4 1.317 . S
C2 H7 0.930 . S
C3 C2 1.333 1_655 S
C3 N5 1.352 1_655 S
C3 H29 0.931 . S
N4 Co0 2.148 . S
N4 C1 1.301 . S
N4 C2 1.317 . S
N5 C1 1.338 . S
N5 C3 1.352 1_455 S
H6 C1 0.930 . S
H7 C2 0.930 . S
C8 O9 1.224 . S
C8 O27 1.247 . S
O9 C8 1.224 . S
N10 Co0 2.128 . S
N10 C11 1.355 . S
N10 C13 1.311 . S
C11 N10 1.355 . S
C11 C12 1.363 . S
C11 H23 0.929 . S
C12 C11 1.363 . S
C12 N14 1.375 . S
C12 H30 0.931 . S
C13 N10 1.311 . S
C13 N14 1.347 . S
C13 H24 0.929 . S
N14 C12 1.375 . S
N14 C13 1.347 . S
C15 C18 1.365 . S
C15 N20 1.328 . S
C15 H21 0.929 . S
C16 C17 1.362 . S
C16 C19 1.378 . S
C16 H31 0.929 . S
C17 C16 1.362 . S
C17 C18 1.366 . S
C18 C15 1.365 . S
C18 C17 1.366 . S
C18 H32 0.930 . S
C19 C16 1.378 . S
C19 N20 1.315 . S
C19 H22 0.930 . S
N20 Co0 2.194 . S
N20 C15 1.328 . S
N20 C19 1.315 . S
H21 C15 0.929 . S
H22 C19 0.930 . S
H23 C11 0.929 . S
H24 C13 0.929 . S
O25 Co0 2.351 . S
O25 C28 1.244 . S
O26 Co0 2.155 . S
O26 C28 1.240 . S
O27 Co0 2.096 . S
O27 C8 1.247 . S
C28 O25 1.244 . S
C28 O26 1.240 . S
H29 C3 0.931 . S
H30 C12 0.931 . S
H31 C16 0.929 . S
H32 C18 0.930 . S
Co33 N37 2.148 . S
Co33 N43 2.128 . S
Co33 N53 2.194 . S
Co33 O58 2.351 . S
Co33 O59 2.155 . S
Co33 O60 2.096 . S
C34 N37 1.301 . S
C34 N38 1.328 . S
C34 H39 0.930 . S
C35 C36 1.333 1_545 S
C35 N37 1.317 . S
C35 H40 0.930 . S
C36 C35 1.333 1_565 S
C36 N38 1.350 1_565 S
C36 H62 0.931 . S
N37 Co33 2.148 . S
N37 C34 1.301 . S
N37 C35 1.317 . S
N38 C34 1.328 . S
N38 C36 1.350 1_545 S
H39 C34 0.930 . S
H40 C35 0.930 . S
C41 O42 1.224 . S
C41 O60 1.247 . S
O42 C41 1.224 . S
N43 Co33 2.128 . S
N43 C44 1.355 . S
N43 C46 1.311 . S
C44 N43 1.355 . S
C44 C45 1.363 . S
C44 H56 0.929 . S
C45 C44 1.363 . S
C45 N47 1.375 . S
C45 H63 0.931 . S
C46 N43 1.311 . S
C46 N47 1.347 . S
C46 H57 0.929 . S
N47 C45 1.375 . S
N47 C46 1.347 . S
C48 C51 1.365 . S
C48 N53 1.328 . S
C48 H54 0.929 . S
C49 C50 1.362 . S
C49 C52 1.378 . S
C49 H64 0.929 . S
C50 C49 1.362 . S
C50 C51 1.366 . S
C51 C48 1.365 . S
C51 C50 1.366 . S
C51 H65 0.930 . S
C52 C49 1.378 . S
C52 N53 1.315 . S
C52 H55 0.930 . S
N53 Co33 2.194 . S
N53 C48 1.328 . S
N53 C52 1.315 . S
H54 C48 0.929 . S
H55 C52 0.930 . S
H56 C44 0.929 . S
H57 C46 0.929 . S
O58 Co33 2.351 . S
O58 C61 1.244 . S
O59 Co33 2.155 . S
O59 C61 1.240 . S
O60 Co33 2.096 . S
O60 C41 1.247 . S
C61 O58 1.244 . S
C61 O59 1.240 . S
H62 C36 0.931 . S
H63 C45 0.931 . S
H64 C49 0.929 . S
H65 C51 0.930 . S
Co66 N70 2.148 . S
Co66 N76 2.128 1_554 S
Co66 N86 2.194 1_554 S
Co66 O91 2.351 1_554 S
Co66 O92 2.155 1_554 S
Co66 O93 2.096 . S
C67 N70 1.303 . S
C67 N71 1.330 . S
C67 H72 0.926 1_554 S
C68 C69 1.333 . S
C68 N70 1.317 . S
C68 H73 0.930 . S
C69 C68 1.333 . S
C69 N71 1.350 . S
C69 H95 0.931 . S
N70 Co66 2.148 . S
N70 C67 1.303 . S
N70 C68 1.317 . S
N71 C67 1.330 . S
N71 C69 1.350 . S
H72 C67 0.926 1_556 S
H73 C68 0.930 . S
C74 O75 1.224 . S
C74 O93 1.247 . S
O75 C74 1.224 . S
N76 Co66 2.128 1_556 S
N76 C77 1.355 . S
N76 C79 1.311 1_556 S
C77 N76 1.355 . S
C77 C78 1.363 . S
C77 H89 0.929 . S
C78 C77 1.363 . S
C78 N80 1.375 . S
C78 H96 0.931 . S
C79 N76 1.311 1_554 S
C79 N80 1.347 1_554 S
C79 H90 0.929 . S
N80 C78 1.375 . S
N80 C79 1.347 1_556 S
C81 C84 1.365 . S
C81 N86 1.328 . S
C81 H87 0.929 . S
C82 C83 1.362 1_554 S
C82 C85 1.378 . S
C82 H97 0.929 . S
C83 C82 1.362 1_556 S
C83 C84 1.366 . S
C84 C81 1.365 . S
C84 C83 1.366 . S
C84 H98 0.930 . S
C85 C82 1.378 . S
C85 N86 1.315 1_554 S
C85 H88 0.930 . S
N86 Co66 2.194 1_556 S
N86 C81 1.328 . S
N86 C85 1.315 1_556 S
H87 C81 0.929 . S
H88 C85 0.930 . S
H89 C77 0.929 . S
H90 C79 0.929 . S
O91 Co66 2.351 1_556 S
O91 C94 1.244 . S
O92 Co66 2.155 1_556 S
O92 C94 1.240 . S
O93 Co66 2.096 . S
O93 C74 1.247 . S
C94 O91 1.244 . S
C94 O92 1.240 . S
H95 C69 0.931 . S
H96 C78 0.931 . S
H97 C82 0.929 . S
H98 C84 0.930 . S
Co99 N103 2.148 . S
Co99 N109 2.128 . S
Co99 N119 2.194 . S
Co99 O124 2.351 . S
Co99 O125 2.155 . S
Co99 O126 2.096 . S
C100 N103 1.301 . S
C100 N104 1.338 . S
C100 H105 0.930 . S
C101 C102 1.333 1_655 S
C101 N103 1.317 . S
C101 H106 0.930 . S
C102 C101 1.333 1_455 S
C102 N104 1.352 1_455 S
C102 H128 0.931 . S
N103 Co99 2.148 . S
N103 C100 1.301 . S
N103 C101 1.317 . S
N104 C100 1.338 . S
N104 C102 1.352 1_655 S
H105 C100 0.930 . S
H106 C101 0.930 . S
C107 O108 1.224 . S
C107 O126 1.247 . S
O108 C107 1.224 . S
N109 Co99 2.128 . S
N109 C110 1.355 . S
N109 C112 1.311 . S
C110 N109 1.355 . S
C110 C111 1.363 . S
C110 H122 0.929 . S
C111 C110 1.363 . S
C111 N113 1.375 . S
C111 H129 0.931 . S
C112 N109 1.311 . S
C112 N113 1.347 . S
C112 H123 0.929 . S
N113 C111 1.375 . S
N113 C112 1.347 . S
C114 C117 1.365 . S
C114 N119 1.328 . S
C114 H120 0.929 . S
C115 C116 1.362 . S
C115 C118 1.378 . S
C115 H130 0.929 . S
C116 C115 1.362 . S
C116 C117 1.366 . S
C117 C114 1.365 . S
C117 C116 1.366 . S
C117 H131 0.930 . S
C118 C115 1.378 . S
C118 N119 1.315 . S
C118 H121 0.930 . S
N119 Co99 2.194 . S
N119 C114 1.328 . S
N119 C118 1.315 . S
H120 C114 0.929 . S
H121 C118 0.930 . S
H122 C110 0.929 . S
H123 C112 0.929 . S
O124 Co99 2.351 . S
O124 C127 1.244 . S
O125 Co99 2.155 . S
O125 C127 1.240 . S
O126 Co99 2.096 . S
O126 C107 1.247 . S
C127 O124 1.244 . S
C127 O125 1.240 . S
H128 C102 0.931 . S
H129 C111 0.931 . S
H130 C115 0.929 . S
H131 C117 0.930 . S
Co132 N136 2.148 . S
Co132 N142 2.128 . S
Co132 N152 2.194 . S
Co132 O157 2.351 . S
Co132 O158 2.155 . S
Co132 O159 2.096 . S
C133 N136 1.301 . S
C133 N137 1.328 . S
C133 H138 0.930 . S
C134 C135 1.333 1_565 S
C134 N136 1.317 . S
C134 H139 0.930 . S
C135 C134 1.333 1_545 S
C135 N137 1.350 1_545 S
C135 H161 0.931 . S
N136 Co132 2.148 . S
N136 C133 1.301 . S
N136 C134 1.317 . S
N137 C133 1.328 . S
N137 C135 1.350 1_565 S
H138 C133 0.930 . S
H139 C134 0.930 . S
C140 O141 1.224 . S
C140 O159 1.247 . S
O141 C140 1.224 . S
N142 Co132 2.128 . S
N142 C143 1.355 . S
N142 C145 1.311 . S
C143 N142 1.355 . S
C143 C144 1.363 . S
C143 H155 0.929 . S
C144 C143 1.363 . S
C144 N146 1.375 . S
C144 H162 0.931 . S
C145 N142 1.311 . S
C145 N146 1.347 . S
C145 H156 0.929 . S
N146 C144 1.375 . S
N146 C145 1.347 . S
C147 C150 1.365 . S
C147 N152 1.328 . S
C147 H153 0.929 . S
C148 C149 1.362 . S
C148 C151 1.378 . S
C148 H163 0.929 . S
C149 C148 1.362 . S
C149 C150 1.366 . S
C150 C147 1.365 . S
C150 C149 1.366 . S
C150 H164 0.930 . S
C151 C148 1.378 . S
C151 N152 1.315 . S
C151 H154 0.930 . S
N152 Co132 2.194 . S
N152 C147 1.328 . S
N152 C151 1.315 . S
H153 C147 0.929 . S
H154 C151 0.930 . S
H155 C143 0.929 . S
H156 C145 0.929 . S
O157 Co132 2.351 . S
O157 C160 1.244 . S
O158 Co132 2.155 . S
O158 C160 1.240 . S
O159 Co132 2.096 . S
O159 C140 1.247 . S
C160 O157 1.244 . S
C160 O158 1.240 . S
H161 C135 0.931 . S
H162 C144 0.931 . S
H163 C148 0.929 . S
H164 C150 0.930 . S
Co165 N169 2.148 . S
Co165 N175 2.128 1_554 S
Co165 N185 2.194 1_554 S
Co165 O190 2.351 1_554 S
Co165 O191 2.155 1_554 S
Co165 O192 2.096 . S
C166 N169 1.303 . S
C166 N170 1.330 . S
C166 H171 0.926 1_554 S
C167 C168 1.333 . S
C167 N169 1.317 . S
C167 H172 0.930 . S
C168 C167 1.333 . S
C168 N170 1.350 . S
C168 H194 0.931 . S
N169 Co165 2.148 . S
N169 C166 1.303 . S
N169 C167 1.317 . S
N170 C166 1.330 . S
N170 C168 1.350 . S
H171 C166 0.926 1_556 S
H172 C167 0.930 . S
C173 O174 1.224 . S
C173 O192 1.247 . S
O174 C173 1.224 . S
N175 Co165 2.128 1_556 S
N175 C176 1.355 . S
N175 C178 1.311 1_556 S
C176 N175 1.355 . S
C176 C177 1.363 . S
C176 H188 0.929 . S
C177 C176 1.363 . S
C177 N179 1.375 . S
C177 H195 0.931 . S
C178 N175 1.311 1_554 S
C178 N179 1.347 1_554 S
C178 H189 0.929 . S
N179 C177 1.375 . S
N179 C178 1.347 1_556 S
C180 C183 1.365 . S
C180 N185 1.328 . S
C180 H186 0.929 . S
C181 C182 1.362 1_554 S
C181 C184 1.378 . S
C181 H196 0.929 . S
C182 C181 1.362 1_556 S
C182 C183 1.366 . S
C183 C180 1.365 . S
C183 C182 1.366 . S
C183 H197 0.930 . S
C184 C181 1.378 . S
C184 N185 1.315 1_554 S
C184 H187 0.930 . S
N185 Co165 2.194 1_556 S
N185 C180 1.328 . S
N185 C184 1.315 1_556 S
H186 C180 0.929 . S
H187 C184 0.930 . S
H188 C176 0.929 . S
H189 C178 0.929 . S
O190 Co165 2.351 1_556 S
O190 C193 1.244 . S
O191 Co165 2.155 1_556 S
O191 C193 1.240 . S
O192 Co165 2.096 . S
O192 C173 1.247 . S
C193 O190 1.244 . S
C193 O191 1.240 . S
H194 C168 0.931 . S
H195 C177 0.931 . S
H196 C181 0.929 . S
H197 C183 0.930 . S
Co198 N202 2.148 . S
Co198 N208 2.128 . S
Co198 N218 2.194 . S
Co198 O223 2.351 . S
Co198 O224 2.155 . S
Co198 O225 2.096 . S
C199 N202 1.301 . S
C199 N203 1.328 . S
C199 H204 0.930 . S
C200 C201 1.333 1_565 S
C200 N202 1.317 . S
C200 H205 0.930 . S
C201 C200 1.333 1_545 S
C201 N203 1.350 1_545 S
C201 H227 0.931 . S
N202 Co198 2.148 . S
N202 C199 1.301 . S
N202 C200 1.317 . S
N203 C199 1.328 . S
N203 C201 1.350 1_565 S
H204 C199 0.930 . S
H205 C200 0.930 . S
C206 O207 1.224 . S
C206 O225 1.247 . S
O207 C206 1.224 . S
N208 Co198 2.128 . S
N208 C209 1.355 . S
N208 C211 1.311 . S
C209 N208 1.355 . S
C209 C210 1.363 . S
C209 H221 0.929 . S
C210 C209 1.363 . S
C210 N212 1.375 . S
C210 H228 0.931 . S
C211 N208 1.311 . S
C211 N212 1.347 . S
C211 H222 0.929 . S
N212 C210 1.375 . S
N212 C211 1.347 . S
C213 C216 1.365 . S
C213 N218 1.328 . S
C213 H219 0.929 . S
C214 C215 1.362 . S
C214 C217 1.378 . S
C214 H229 0.929 . S
C215 C214 1.362 . S
C215 C216 1.366 . S
C216 C213 1.365 . S
C216 C215 1.366 . S
C216 H230 0.930 . S
C217 C214 1.378 . S
C217 N218 1.315 . S
C217 H220 0.930 . S
N218 Co198 2.194 . S
N218 C213 1.328 . S
N218 C217 1.315 . S
H219 C213 0.929 . S
H220 C217 0.930 . S
H221 C209 0.929 . S
H222 C211 0.929 . S
O223 Co198 2.351 . S
O223 C226 1.244 . S
O224 Co198 2.155 . S
O224 C226 1.240 . S
O225 Co198 2.096 . S
O225 C206 1.247 . S
C226 O223 1.244 . S
C226 O224 1.240 . S
H227 C201 0.931 . S
H228 C210 0.931 . S
H229 C214 0.929 . S
H230 C216 0.930 . S
Co231 N235 2.148 . S
Co231 N241 2.128 . S
Co231 N251 2.194 . S
Co231 O256 2.351 . S
Co231 O257 2.155 . S
Co231 O258 2.096 . S
C232 N235 1.301 . S
C232 N236 1.328 . S
C232 H237 0.930 . S
C233 C234 1.333 . S
C233 N235 1.317 . S
C233 H238 0.930 . S
C234 C233 1.333 . S
C234 N236 1.350 . S
C234 H260 0.931 . S
N235 Co231 2.148 . S
N235 C232 1.301 . S
N235 C233 1.317 . S
N236 C232 1.328 . S
N236 C234 1.350 . S
H237 C232 0.930 . S
H238 C233 0.930 . S
C239 O240 1.224 . S
C239 O258 1.247 . S
O240 C239 1.224 . S
N241 Co231 2.128 . S
N241 C242 1.355 . S
N241 C244 1.311 . S
C242 N241 1.355 . S
C242 C243 1.363 . S
C242 H254 0.929 . S
C243 C242 1.363 . S
C243 N245 1.375 . S
C243 H261 0.931 . S
C244 N241 1.311 . S
C244 N245 1.347 . S
C244 H255 0.929 . S
N245 C243 1.375 . S
N245 C244 1.347 . S
C246 C249 1.365 . S
C246 N251 1.328 . S
C246 H252 0.929 . S
C247 C248 1.362 . S
C247 C250 1.378 . S
C247 H262 0.929 . S
C248 C247 1.362 . S
C248 C249 1.366 . S
C249 C246 1.365 . S
C249 C248 1.366 . S
C249 H263 0.930 . S
C250 C247 1.378 . S
C250 N251 1.315 . S
C250 H253 0.930 . S
N251 Co231 2.194 . S
N251 C246 1.328 . S
N251 C250 1.315 . S
H252 C246 0.929 . S
H253 C250 0.930 . S
H254 C242 0.929 . S
H255 C244 0.929 . S
O256 Co231 2.351 . S
O256 C259 1.244 . S
O257 Co231 2.155 . S
O257 C259 1.240 . S
O258 Co231 2.096 . S
O258 C239 1.247 . S
C259 O256 1.244 . S
C259 O257 1.240 . S
H260 C234 0.931 . S
H261 C243 0.931 . S
H262 C247 0.929 . S
H263 C249 0.930 . S
Co264 N268 2.148 . S
Co264 N274 2.128 1_556 S
Co264 N284 2.194 1_556 S
Co264 O289 2.351 1_556 S
Co264 O290 2.155 1_556 S
Co264 O291 2.096 . S
C265 N268 1.303 . S
C265 N269 1.330 . S
C265 H270 0.926 1_556 S
C266 C267 1.333 1_455 S
C266 N268 1.317 . S
C266 H271 0.930 . S
C267 C266 1.333 1_655 S
C267 N269 1.350 1_655 S
C267 H293 0.931 . S
N268 Co264 2.148 . S
N268 C265 1.303 . S
N268 C266 1.317 . S
N269 C265 1.330 . S
N269 C267 1.350 1_455 S
H270 C265 0.926 1_554 S
H271 C266 0.930 . S
C272 O273 1.224 . S
C272 O291 1.247 . S
O273 C272 1.224 . S
N274 Co264 2.128 1_554 S
N274 C275 1.355 . S
N274 C277 1.311 1_554 S
C275 N274 1.355 . S
C275 C276 1.363 . S
C275 H287 0.929 . S
C276 C275 1.363 . S
C276 N278 1.375 . S
C276 H294 0.931 . S
C277 N274 1.311 1_556 S
C277 N278 1.347 1_556 S
C277 H288 0.929 . S
N278 C276 1.375 . S
N278 C277 1.347 1_554 S
C279 C282 1.365 . S
C279 N284 1.328 . S
C279 H285 0.929 . S
C280 C281 1.362 1_556 S
C280 C283 1.378 . S
C280 H295 0.929 . S
C281 C280 1.362 1_554 S
C281 C282 1.366 . S
C282 C279 1.365 . S
C282 C281 1.366 . S
C282 H296 0.930 . S
C283 C280 1.378 . S
C283 N284 1.315 1_556 S
C283 H286 0.930 . S
N284 Co264 2.194 1_554 S
N284 C279 1.328 . S
N284 C283 1.315 1_554 S
H285 C279 0.929 . S
H286 C283 0.930 . S
H287 C275 0.929 . S
H288 C277 0.929 . S
O289 Co264 2.351 1_554 S
O289 C292 1.244 . S
O290 Co264 2.155 1_554 S
O290 C292 1.240 . S
O291 Co264 2.096 . S
O291 C272 1.247 . S
C292 O289 1.244 . S
C292 O290 1.240 . S
H293 C267 0.931 . S
H294 C276 0.931 . S
H295 C280 0.929 . S
H296 C282 0.930 . S
Co297 N301 2.148 . S
Co297 N307 2.128 . S
Co297 N317 2.194 . S
Co297 O322 2.351 . S
Co297 O323 2.155 . S
Co297 O324 2.096 . S
C298 N301 1.301 . S
C298 N302 1.328 . S
C298 H303 0.930 . S
C299 C300 1.333 1_545 S
C299 N301 1.317 . S
C299 H304 0.930 . S
C300 C299 1.333 1_565 S
C300 N302 1.350 1_565 S
C300 H326 0.931 . S
N301 Co297 2.148 . S
N301 C298 1.301 . S
N301 C299 1.317 . S
N302 C298 1.328 . S
N302 C300 1.350 1_545 S
H303 C298 0.930 . S
H304 C299 0.930 . S
C305 O306 1.224 . S
C305 O324 1.247 . S
O306 C305 1.224 . S
N307 Co297 2.128 . S
N307 C308 1.355 . S
N307 C310 1.311 . S
C308 N307 1.355 . S
C308 C309 1.363 . S
C308 H320 0.929 . S
C309 C308 1.363 . S
C309 N311 1.375 . S
C309 H327 0.931 . S
C310 N307 1.311 . S
C310 N311 1.347 . S
C310 H321 0.929 . S
N311 C309 1.375 . S
N311 C310 1.347 . S
C312 C315 1.365 . S
C312 N317 1.328 . S
C312 H318 0.929 . S
C313 C314 1.362 . S
C313 C316 1.378 . S
C313 H328 0.929 . S
C314 C313 1.362 . S
C314 C315 1.366 . S
C315 C312 1.365 . S
C315 C314 1.366 . S
C315 H329 0.930 . S
C316 C313 1.378 . S
C316 N317 1.315 . S
C316 H319 0.930 . S
N317 Co297 2.194 . S
N317 C312 1.328 . S
N317 C316 1.315 . S
H318 C312 0.929 . S
H319 C316 0.930 . S
H320 C308 0.929 . S
H321 C310 0.929 . S
O322 Co297 2.351 . S
O322 C325 1.244 . S
O323 Co297 2.155 . S
O323 C325 1.240 . S
O324 Co297 2.096 . S
O324 C305 1.247 . S
C325 O322 1.244 . S
C325 O323 1.240 . S
H326 C300 0.931 . S
H327 C309 0.931 . S
H328 C313 0.929 . S
H329 C315 0.930 . S
Co330 N334 2.148 . S
Co330 N340 2.128 . S
Co330 N350 2.194 . S
Co330 O355 2.351 . S
Co330 O356 2.155 . S
Co330 O357 2.096 . S
C331 N334 1.301 . S
C331 N335 1.328 . S
C331 H336 0.930 . S
C332 C333 1.333 . S
C332 N334 1.317 . S
C332 H337 0.930 . S
C333 C332 1.333 . S
C333 N335 1.350 . S
C333 H359 0.931 . S
N334 Co330 2.148 . S
N334 C331 1.301 . S
N334 C332 1.317 . S
N335 C331 1.328 . S
N335 C333 1.350 . S
H336 C331 0.930 . S
H337 C332 0.930 . S
C338 O339 1.224 . S
C338 O357 1.247 . S
O339 C338 1.224 . S
N340 Co330 2.128 . S
N340 C341 1.355 . S
N340 C343 1.311 . S
C341 N340 1.355 . S
C341 C342 1.363 . S
C341 H353 0.929 . S
C342 C341 1.363 . S
C342 N344 1.375 . S
C342 H360 0.931 . S
C343 N340 1.311 . S
C343 N344 1.347 . S
C343 H354 0.929 . S
N344 C342 1.375 . S
N344 C343 1.347 . S
C345 C348 1.365 . S
C345 N350 1.328 . S
C345 H351 0.929 . S
C346 C347 1.362 . S
C346 C349 1.378 . S
C346 H361 0.929 . S
C347 C346 1.362 . S
C347 C348 1.366 . S
C348 C345 1.365 . S
C348 C347 1.366 . S
C348 H362 0.930 . S
C349 C346 1.378 . S
C349 N350 1.315 . S
C349 H352 0.930 . S
N350 Co330 2.194 . S
N350 C345 1.328 . S
N350 C349 1.315 . S
H351 C345 0.929 . S
H352 C349 0.930 . S
H353 C341 0.929 . S
H354 C343 0.929 . S
O355 Co330 2.351 . S
O355 C358 1.244 . S
O356 Co330 2.155 . S
O356 C358 1.240 . S
O357 Co330 2.096 . S
O357 C338 1.247 . S
C358 O355 1.244 . S
C358 O356 1.240 . S
H359 C333 0.931 . S
H360 C342 0.931 . S
H361 C346 0.929 . S
H362 C348 0.930 . S
Co363 N367 2.148 . S
Co363 N373 2.128 1_556 S
Co363 N383 2.194 1_556 S
Co363 O388 2.351 1_556 S
Co363 O389 2.155 1_556 S
Co363 O390 2.096 . S
C364 N367 1.303 . S
C364 N368 1.330 . S
C364 H369 0.926 1_556 S
C365 C366 1.333 1_655 S
C365 N367 1.317 . S
C365 H370 0.930 . S
C366 C365 1.333 1_455 S
C366 N368 1.350 1_455 S
C366 H392 0.931 . S
N367 Co363 2.148 . S
N367 C364 1.303 . S
N367 C365 1.317 . S
N368 C364 1.330 . S
N368 C366 1.350 1_655 S
H369 C364 0.926 1_554 S
H370 C365 0.930 . S
C371 O372 1.224 . S
C371 O390 1.247 . S
O372 C371 1.224 . S
N373 Co363 2.128 1_554 S
N373 C374 1.355 . S
N373 C376 1.311 1_554 S
C374 N373 1.355 . S
C374 C375 1.363 . S
C374 H386 0.929 . S
C375 C374 1.363 . S
C375 N377 1.375 . S
C375 H393 0.931 . S
C376 N373 1.311 1_556 S
C376 N377 1.347 1_556 S
C376 H387 0.929 . S
N377 C375 1.375 . S
N377 C376 1.347 1_554 S
C378 C381 1.365 . S
C378 N383 1.328 . S
C378 H384 0.929 . S
C379 C380 1.362 1_556 S
C379 C382 1.378 . S
C379 H394 0.929 . S
C380 C379 1.362 1_554 S
C380 C381 1.366 . S
C381 C378 1.365 . S
C381 C380 1.366 . S
C381 H395 0.930 . S
C382 C379 1.378 . S
C382 N383 1.315 1_556 S
C382 H385 0.930 . S
N383 Co363 2.194 1_554 S
N383 C378 1.328 . S
N383 C382 1.315 1_554 S
H384 C378 0.929 . S
H385 C382 0.930 . S
H386 C374 0.929 . S
H387 C376 0.929 . S
O388 Co363 2.351 1_554 S
O388 C391 1.244 . S
O389 Co363 2.155 1_554 S
O389 C391 1.240 . S
O390 Co363 2.096 . S
O390 C371 1.247 . S
C391 O388 1.244 . S
C391 O389 1.240 . S
H392 C366 0.931 . S
H393 C375 0.931 . S
H394 C379 0.929 . S
H395 C381 0.930 . S
C391 C28 2.114 1_655 S
C226 C61 2.314 1_565 S
C94 C259 2.114 . S
C292 C127 2.114 1_455 S
C325 C160 2.314 1_545 S
C358 C193 2.114 . S
C8 C338 1.607 . S
C41 C371 1.604 . S
C206 C74 1.604 . S
C239 C107 1.607 . S
C272 C140 1.604 . S
C173 C305 1.604 . S
N104 N5 1.316 1_655 S
N38 N137 1.321 1_545 S
N170 N71 1.310 . S
N203 N302 1.321 1_565 S
N236 N335 1.328 . S
N368 N269 1.310 1_655 S
N14 N311 1.022 . S
N47 N344 1.022 1_655 S
N377 N80 1.231 1_544 S
N113 N212 1.022 . S
N146 N245 1.022 1_455 S
N179 N278 1.231 1_546 S
C215 C17 2.498 . S
C248 C50 2.497 . S
C83 C281 2.706 1_556 S
C314 C116 2.498 . S
C149 C347 2.497 . S
C182 C380 2.706 1_556 S
