# Generated by pormake.
# Topology yfz, (5)-cn, num edge types: 1
# Building blocks:
#     Node 0, Type 0, BuildingBlock: XOMCOT_clean_sbu_1, # of connection points: 5
#     Node 1, Type 0, BuildingBlock: XOMCOT_clean_sbu_1, # of connection points: 5
#     Node 2, Type 0, BuildingBlock: XOMCOT_clean_sbu_1, # of connection points: 5
#     Node 3, Type 0, BuildingBlock: XOMCOT_clean_sbu_1, # of connection points: 5
#     Node 4, Type 0, BuildingBlock: XOMCOT_clean_sbu_1, # of connection points: 5
#     Node 5, Type 0, BuildingBlock: XOMCOT_clean_sbu_1, # of connection points: 5
#     Node 6, Type 0, BuildingBlock: XOMCOT_clean_sbu_1, # of connection points: 5
#     Node 7, Type 0, BuildingBlock: XOMCOT_clean_sbu_1, # of connection points: 5
#     Edge 8, Type (0, 0), BuildingBlock: XIVTED_clean_linker_0, # of connection points: 2
#     Edge 9, Type (0, 0), BuildingBlock: XIVTED_clean_linker_0, # of connection points: 2
#     Edge 10, Type (0, 0), BuildingBlock: XIVTED_clean_linker_0, # of connection points: 2
#     Edge 11, Type (0, 0), BuildingBlock: XIVTED_clean_linker_0, # of connection points: 2
#     Edge 12, Type (0, 0), BuildingBlock: XIVTED_clean_linker_0, # of connection points: 2
#     Edge 13, Type (0, 0), BuildingBlock: XIVTED_clean_linker_0, # of connection points: 2
#     Edge 14, Type (0, 0), BuildingBlock: XIVTED_clean_linker_0, # of connection points: 2
#     Edge 15, Type (0, 0), BuildingBlock: XIVTED_clean_linker_0, # of connection points: 2
#     Edge 16, Type (0, 0), BuildingBlock: XIVTED_clean_linker_0, # of connection points: 2
#     Edge 17, Type (0, 0), BuildingBlock: XIVTED_clean_linker_0, # of connection points: 2
#     Edge 18, Type (0, 0), BuildingBlock: XIVTED_clean_linker_0, # of connection points: 2
#     Edge 19, Type (0, 0), BuildingBlock: XIVTED_clean_linker_0, # of connection points: 2
#     Edge 20, Type (0, 0), BuildingBlock: XIVTED_clean_linker_0, # of connection points: 2
#     Edge 21, Type (0, 0), BuildingBlock: XIVTED_clean_linker_0, # of connection points: 2
#     Edge 22, Type (0, 0), BuildingBlock: XIVTED_clean_linker_0, # of connection points: 2
#     Edge 23, Type (0, 0), BuildingBlock: XIVTED_clean_linker_0, # of connection points: 2
#     Edge 24, Type (0, 0), BuildingBlock: XIVTED_clean_linker_0, # of connection points: 2
#     Edge 25, Type (0, 0), BuildingBlock: XIVTED_clean_linker_0, # of connection points: 2
#     Edge 26, Type (0, 0), BuildingBlock: XIVTED_clean_linker_0, # of connection points: 2
#     Edge 27, Type (0, 0), BuildingBlock: XIVTED_clean_linker_0, # of connection points: 2
# Relax obj value: 0.148
# Max RMSD: 0.137
# Mean RMSD: 0.137
data_MOF--net-yfz--node1-XOMCOT_clean_sbu_1--edge1-XIVTED_clean_linker_0
_symmetry_space_group_name_H-M    P1
_symmetry_Int_Tables_number       1
_symmetry_cell_setting            triclinic
loop_
_symmetry_equiv_pos_as_xyz
'x, y, z'
_cell_length_a     52.67005
_cell_length_b     52.707885
_cell_length_c     17.574071
_cell_angle_alpha  89.982271
_cell_angle_beta   89.937636
_cell_angle_gamma 90.024814
loop_
_atom_site_label
_atom_site_type_symbol
_atom_site_fract_x
_atom_site_fract_y
_atom_site_fract_z
_atom_type_partial_charge
C0 C 0.56961 0.06901 0.30321 0.0
C1 C 0.56617 0.06525 0.22645 0.0
N2 N 0.55501 0.08608 0.19701 0.0
N3 N 0.5608 0.09213 0.32219 0.0
C4 C 0.55147 0.10185 0.25678 0.0
H5 H 0.57916 0.05629 0.34208 0.0
Co6 Co 0.56466 0.10671 0.41805 0.0
C7 C 0.56496 0.16095 0.35965 0.0
O8 O 0.58964 0.16365 0.36412 0.0
N9 N 0.56784 0.12081 0.51647 0.0
C10 C 0.57589 0.14569 0.61594 0.0
C11 C 0.57734 0.14349 0.53818 0.0
C12 C 0.56103 0.10953 0.58262 0.0
N13 N 0.56555 0.12428 0.64397 0.0
O14 O 0.52977 0.09935 0.43807 0.0
H15 H 0.58555 0.15745 0.50097 0.0
H16 H 0.55288 0.09079 0.58598 0.0
O17 O 0.55416 0.14026 0.37964 0.0
C18 C 0.52585 0.07689 0.46183 0.0
O19 O 0.54526 0.06163 0.47202 0.0
N20 N 0.59996 0.11192 0.39801 0.0
C21 C 0.65235 0.11519 0.37145 0.0
C22 C 0.63491 0.12047 0.31345 0.0
C23 C 0.60895 0.11834 0.32745 0.0
C24 C 0.61675 0.10519 0.4537 0.0
C25 C 0.64295 0.10713 0.44215 0.0
H26 H 0.59611 0.12274 0.28158 0.0
H27 H 0.60997 0.09799 0.50758 0.0
H28 H 0.54345 0.12066 0.25234 0.0
H29 H 0.57291 0.04911 0.19423 0.0
H30 H 0.58262 0.16159 0.64921 0.0
H31 H 0.64123 0.12591 0.25709 0.0
H32 H 0.65568 0.10242 0.48838 0.0
C33 C 0.41954 0.54288 0.67859 0.0
C34 C 0.42248 0.53845 0.60213 0.0
N35 N 0.40059 0.52885 0.57482 0.0
N36 N 0.39595 0.536 0.70001 0.0
C37 C 0.3849 0.52722 0.63572 0.0
H38 H 0.43323 0.55187 0.71567 0.0
Co39 Co 0.38293 0.54278 0.79695 0.0
C40 C 0.32854 0.54839 0.73991 0.0
O41 O 0.32898 0.57313 0.73298 0.0
N42 N 0.37028 0.54894 0.895 0.0
C43 C 0.34686 0.56047 0.99433 0.0
C44 C 0.34932 0.56179 0.91657 0.0
C45 C 0.38035 0.54021 0.96069 0.0
N46 N 0.36634 0.54675 0.02221 0.0
O47 O 0.38531 0.50747 0.8233 0.0
H48 H 0.33672 0.5718 0.87869 0.0
H49 H 0.39745 0.5289 0.96292 0.0
O50 O 0.34801 0.53624 0.76335 0.0
C51 C 0.40681 0.49652 0.82709 0.0
O52 O 0.42726 0.50896 0.80628 0.0
N53 N 0.38231 0.57823 0.77313 0.0
C54 C 0.38475 0.63043 0.74481 0.0
C55 C 0.37762 0.61354 0.68725 0.0
C56 C 0.37679 0.58754 0.70227 0.0
C57 C 0.39127 0.5944 0.8277 0.0
C58 C 0.39197 0.62057 0.81549 0.0
H59 H 0.37079 0.57507 0.65711 0.0
H60 H 0.39807 0.58714 0.88142 0.0
H61 H 0.36531 0.52116 0.63272 0.0
H62 H 0.43887 0.54367 0.56836 0.0
H63 H 0.33202 0.56931 0.02764 0.0
H64 H 0.37214 0.62039 0.63151 0.0
H65 H 0.3985 0.63296 0.8606 0.0
C66 C 0.91061 0.42213 0.2122 0.0
C67 C 0.91408 0.42543 0.13527 0.0
N68 N 0.92416 0.40398 0.10635 0.0
N69 N 0.91845 0.39871 0.232 0.0
C70 C 0.92691 0.38822 0.16654 0.0
H71 H 0.90187 0.4355 0.25088 0.0
Co72 Co 0.9144 0.38445 0.32875 0.0
C73 C 0.90396 0.33154 0.26635 0.0
O74 O 0.87928 0.33207 0.27596 0.0
N75 N 0.91104 0.37051 0.42644 0.0
C76 C 0.90156 0.34683 0.52714 0.0
C77 C 0.89925 0.34912 0.44962 0.0
C78 C 0.92024 0.38095 0.49106 0.0
N79 N 0.9148 0.36687 0.55335 0.0
O80 O 0.9505 0.385 0.34424 0.0
H81 H 0.88895 0.33622 0.4136 0.0
H82 H 0.93069 0.39862 0.49209 0.0
O83 O 0.91795 0.35023 0.28608 0.0
C84 C 0.96243 0.406 0.3453 0.0
O85 O 0.95023 0.42704 0.32924 0.0
N86 N 0.87845 0.38562 0.31633 0.0
C87 C 0.82577 0.39111 0.30546 0.0
C88 C 0.84007 0.38344 0.24228 0.0
C89 C 0.86642 0.38105 0.24868 0.0
C90 C 0.86485 0.39489 0.37647 0.0
C91 C 0.8385 0.39715 0.3729 0.0
H92 H 0.87703 0.3749 0.1994 0.0
H93 H 0.87436 0.40084 0.42785 0.0
H94 H 0.93413 0.36907 0.16262 0.0
H95 H 0.90824 0.44184 0.10266 0.0
H96 H 0.89334 0.33194 0.56169 0.0
H97 H 0.83095 0.37889 0.18879 0.0
H98 H 0.8282 0.40404 0.42214 0.0
C99 C 0.05787 0.89795 0.73691 0.0
C100 C 0.05397 0.90129 0.66023 0.0
N101 N 0.07398 0.91401 0.6312 0.0
N102 N 0.08028 0.90842 0.75635 0.0
C103 C 0.08948 0.9184 0.69108 0.0
H104 H 0.04568 0.88762 0.77562 0.0
Co105 Co 0.09475 0.9066 0.85324 0.0
C106 C 0.14889 0.90318 0.79565 0.0
O107 O 0.1508 0.87873 0.808 0.0
N108 N 0.10866 0.90554 0.95185 0.0
C109 C 0.13315 0.89975 0.05336 0.0
C110 C 0.13137 0.89683 0.97603 0.0
C111 C 0.09691 0.91346 0.01612 0.0
N112 N 0.11146 0.91026 0.07872 0.0
O113 O 0.0881 0.94203 0.86639 0.0
H114 H 0.14567 0.88812 0.94117 0.0
H115 H 0.07796 0.92134 0.01694 0.0
O116 O 0.12853 0.91524 0.81191 0.0
C117 C 0.06466 0.94626 0.87849 0.0
O118 O 0.04894 0.92697 0.88299 0.0
N119 N 0.09902 0.87088 0.84102 0.0
C120 C 0.09794 0.81811 0.82408 0.0
C121 C 0.1045 0.83377 0.76282 0.0
C122 C 0.10472 0.86005 0.77223 0.0
C123 C 0.09162 0.85578 0.9003 0.0
C124 C 0.09154 0.82938 0.89361 0.0
H125 H 0.10978 0.87167 0.72393 0.0
H126 H 0.08499 0.86409 0.95285 0.0
H127 H 0.10757 0.92802 0.68717 0.0
H128 H 0.03824 0.89369 0.62787 0.0
H129 H 0.14892 0.89375 0.08845 0.0
H130 H 0.10946 0.82578 0.70801 0.0
H131 H 0.0856 0.81792 0.94162 0.0
C132 C 0.54683 0.42979 0.34383 0.0
C133 C 0.54273 0.433 0.42046 0.0
N134 N 0.5344 0.41085 0.44967 0.0
N135 N 0.54104 0.40577 0.32425 0.0
C136 C 0.53325 0.39472 0.3898 0.0
H137 H 0.55473 0.44372 0.30527 0.0
Co138 Co 0.54736 0.39222 0.22747 0.0
C139 C 0.55786 0.33913 0.28732 0.0
O140 O 0.58265 0.34082 0.28385 0.0
N141 N 0.55297 0.37901 0.12941 0.0
C142 C 0.56498 0.35585 0.03002 0.0
C143 C 0.56663 0.3586 0.10756 0.0
C144 C 0.5434 0.38845 0.06381 0.0
N145 N 0.55027 0.3746 1.00233 0.0
O146 O 0.51171 0.39196 0.20563 0.0
H147 H 0.57765 0.34669 0.14469 0.0
H148 H 0.53143 0.40511 0.06151 0.0
O149 O 0.54367 0.3575 0.26643 0.0
C150 C 0.49946 0.41268 0.19988 0.0
O151 O 0.51079 0.43405 0.21772 0.0
N152 N 0.58303 0.39412 0.24649 0.0
C153 C 0.63566 0.39885 0.26604 0.0
C154 C 0.61996 0.39145 0.32669 0.0
C155 C 0.59375 0.38949 0.31603 0.0
C156 C 0.59779 0.40357 0.18912 0.0
C157 C 0.6241 0.40544 0.19693 0.0
H158 H 0.58228 0.38324 0.36336 0.0
H159 H 0.5893 0.40956 0.13617 0.0
H160 H 0.52798 0.37495 0.39425 0.0
H161 H 0.54713 0.44989 0.45287 0.0
H162 H 0.57447 0.34146 0.99656 0.0
H163 H 0.62776 0.38711 0.38214 0.0
H164 H 0.6352 0.41159 0.14845 0.0
C165 C 0.05681 0.54249 0.81711 0.0
C166 C 0.05353 0.53831 0.8936 0.0
N167 N 0.07517 0.52845 0.92183 0.0
N168 N 0.08035 0.53519 0.79654 0.0
C169 C 0.09105 0.52645 0.86147 0.0
H170 H 0.04337 0.55157 0.77943 0.0
Co171 Co 0.09375 0.54124 0.69938 0.0
C172 C 0.14791 0.54619 0.75918 0.0
O173 O 0.1475 0.57086 0.76766 0.0
N174 N 0.10687 0.54662 0.60129 0.0
C175 C 0.13113 0.55751 0.50306 0.0
C176 C 0.12829 0.55891 0.58067 0.0
C177 C 0.09694 0.53813 0.5351 0.0
N178 N 0.11144 0.54432 0.47424 0.0
O179 O 0.09056 0.50584 0.67494 0.0
H180 H 0.14092 0.56865 0.61912 0.0
H181 H 0.07952 0.52732 0.53196 0.0
O182 O 0.12852 0.53426 0.73408 0.0
C183 C 0.06831 0.49664 0.66887 0.0
O184 O 0.04866 0.51115 0.68343 0.0
N185 N 0.09492 0.57684 0.72126 0.0
C186 C 0.09244 0.62935 0.74701 0.0
C187 C 0.09909 0.6126 0.8057 0.0
C188 C 0.09988 0.58652 0.792 0.0
C189 C 0.08649 0.59278 0.66536 0.0
C190 C 0.08577 0.61901 0.67627 0.0
H191 H 0.10521 0.57426 0.83843 0.0
H192 H 0.08009 0.58531 0.61148 0.0
H193 H 0.11051 0.52004 0.86524 0.0
H194 H 0.03709 0.54379 0.92672 0.0
H195 H 0.14635 0.56602 0.47044 0.0
H196 H 0.10345 0.61947 0.86224 0.0
H197 H 0.08015 0.63099 0.62918 0.0
C198 C 0.94107 0.07706 0.23823 0.0
C199 C 0.9448 0.0772 0.31577 0.0
N200 N 0.93518 0.09894 0.34407 0.0
N201 N 0.92933 0.0987 0.21759 0.0
C202 C 0.92612 0.11168 0.28317 0.0
H203 H 0.94564 0.06166 0.20001 0.0
Co204 Co 0.9167 0.10683 0.12174 0.0
C205 C 0.943 0.15652 0.10384 0.0
O206 O 0.95625 0.14916 0.04459 0.0
N207 N 0.90358 0.11483 0.02351 0.0
C208 C 0.8775 0.11815 0.92399 0.0
C209 C 0.87898 0.11462 1.00133 0.0
C210 C 0.91657 0.11836 0.95766 0.0
N211 N 0.90122 0.12027 0.89645 0.0
O212 O 0.94866 0.09739 0.07776 0.0
H213 H 0.86292 0.11074 0.03774 0.0
H214 H 0.93702 0.11835 0.95361 0.0
O215 O 0.92767 0.14134 0.13661 0.0
C216 C 0.94725 0.07609 0.0439 0.0
O217 O 0.92532 0.06419 0.04252 0.0
N218 N 0.88519 0.11397 0.16597 0.0
C219 C 0.83675 0.11798 0.22895 0.0
C220 C 0.85017 0.13977 0.20626 0.0
C221 C 0.87444 0.13737 0.17463 0.0
C222 C 0.87258 0.09267 0.18824 0.0
C223 C 0.84838 0.09423 0.2199 0.0
H224 H 0.88418 0.15427 0.15571 0.0
H225 H 0.88132 0.0743 0.18008 0.0
H226 H 0.9165 0.12978 0.28636 0.0
H227 H 0.95268 0.06184 0.34909 0.0
H228 H 0.86035 0.11751 0.89016 0.0
H229 H 0.84199 0.15849 0.21255 0.0
H230 H 0.83861 0.07686 0.23508 0.0
C231 C 0.41557 0.90304 0.71424 0.0
C232 C 0.41946 0.90619 0.79109 0.0
N233 N 0.39806 0.91567 0.82221 0.0
N234 N 0.3918 0.91037 0.69678 0.0
C235 C 0.38178 0.91851 0.76333 0.0
H236 H 0.42874 0.89468 0.6742 0.0
Co237 Co 0.37688 0.90614 0.60115 0.0
C238 C 0.32324 0.90159 0.66299 0.0
O239 O 0.32205 0.87687 0.65576 0.0
N240 N 0.3624 0.90263 0.50301 0.0
C241 C 0.33735 0.89379 0.40448 0.0
C242 C 0.33986 0.89256 0.48216 0.0
C243 C 0.37328 0.90958 0.43628 0.0
N244 N 0.3584 0.90456 0.37545 0.0
O245 O 0.38169 0.94152 0.58283 0.0
H246 H 0.32616 0.88414 0.51981 0.0
H247 H 0.39184 0.91811 0.43209 0.0
O248 O 0.34303 0.91394 0.64282 0.0
C249 C 0.40366 0.94678 0.55726 0.0
O250 O 0.41993 0.92832 0.54536 0.0
N251 N 0.37435 0.87047 0.61906 0.0
C252 C 0.37731 0.81792 0.64355 0.0
C253 C 0.37042 0.83445 0.70256 0.0
C254 C 0.36927 0.86052 0.68941 0.0
C255 C 0.38221 0.85474 0.56195 0.0
C256 C 0.38327 0.82847 0.5724 0.0
H257 H 0.3639 0.87262 0.73619 0.0
H258 H 0.38824 0.86244 0.50793 0.0
H259 H 0.36249 0.92523 0.76916 0.0
H260 H 0.43622 0.90042 0.82213 0.0
H261 H 0.32147 0.88661 0.37192 0.0
H262 H 0.36641 0.82746 0.75925 0.0
H263 H 0.38886 0.81663 0.52495 0.0
H264 H 0.4076 0.98614 0.65687 0.0
H265 H 0.48734 0.06976 0.36119 0.0
H266 H 0.41896 0.96576 0.42194 0.0
H267 H 0.50732 0.06115 0.5974 0.0
H268 H 0.44914 0.04381 0.38347 0.0
H269 H 0.43112 0.02586 0.63429 0.0
C270 C 0.41426 0.99054 0.60001 0.0
C271 C 0.41152 0.97291 0.54102 0.0
C272 C 0.46152 0.0483 0.43078 0.0
C273 C 0.43807 0.01781 0.51495 0.0
C274 C 0.48311 0.06316 0.41822 0.0
C275 C 0.50024 0.06742 0.47771 0.0
C276 C 0.45706 0.03808 0.50345 0.0
C277 C 0.4944 0.05816 0.55033 0.0
C278 C 0.42774 0.01301 0.5873 0.0
C279 C 0.4208 0.97904 0.46864 0.0
N280 N 0.47332 0.04374 0.56119 0.0
N281 N 0.43384 0.00097 0.45762 0.0
H282 H 0.48489 0.38194 0.08223 0.0
H283 H 0.44051 0.45855 0.80135 0.0
H284 H 0.46107 0.44688 0.21339 0.0
H285 H 0.38165 0.48231 0.9563 0.0
H286 H 0.45487 0.42754 0.89505 0.0
H287 H 0.45329 0.39282 0.98514 0.0
C288 C 0.47241 0.39795 0.09189 0.0
C289 C 0.47588 0.41391 0.15497 0.0
C290 C 0.43814 0.43874 0.90753 0.0
C291 C 0.44009 0.42646 0.04448 0.0
C292 C 0.43004 0.45653 0.85411 0.0
C293 C 0.41005 0.47307 0.87154 0.0
C294 C 0.42665 0.43812 0.97968 0.0
C295 C 0.39719 0.46989 0.94086 0.0
C296 C 0.45458 0.40425 0.03619 0.0
C297 C 0.45924 0.43439 0.16478 0.0
N298 N 0.4063 0.45338 0.99367 0.0
N299 N 0.44225 0.4403 0.10951 0.0
H300 H 0.00144 0.43664 0.30331 0.0
H301 H 0.03523 0.45985 0.71064 0.0
H302 H 0.97959 0.38123 0.47148 0.0
H303 H 0.0896 0.47948 0.53698 0.0
H304 H 0.0177 0.42727 0.62675 0.0
H305 H 0.03706 0.44931 0.38403 0.0
C306 C 0.0047 0.42658 0.3562 0.0
C307 C 0.98756 0.40804 0.38124 0.0
C308 C 0.03404 0.43806 0.60782 0.0
C309 C 0.02753 0.42302 0.47492 0.0
C310 C 0.04403 0.45662 0.65573 0.0
C311 C 0.06372 0.47234 0.63027 0.0
C312 C 0.04315 0.43603 0.53297 0.0
C313 C 0.07438 0.46767 0.5585 0.0
C314 C 0.02502 0.43378 0.40222 0.0
C315 C 0.99245 0.39563 0.45029 0.0
N316 N 0.0634 0.45044 0.51116 0.0
N317 N 0.01155 0.4039 0.49603 0.0
H318 H 0.99755 0.07689 0.08602 0.0
H319 H 0.02724 0.96552 0.79262 0.0
H320 H 0.94646 0.04901 0.9138 0.0
H321 H 0.07753 0.98451 0.97711 0.0
H322 H 0.00284 0.00387 0.81775 0.0
H323 H 0.03169 0.05073 0.03061 0.0
C324 C 0.99374 0.06572 0.03558 0.0
C325 C 0.96918 0.06465 1.00497 0.0
C326 C 0.01943 3e-05 0.85222 0.0
C327 C 0.00775 0.03501 0.94165 0.0
C328 C 0.0334 0.9782 0.83752 0.0
C329 C 0.05422 0.972 0.88312 0.0
C330 C 0.02587 0.01542 0.91456 0.0
C331 C 0.06155 0.98888 0.94066 0.0
C332 C 0.01312 0.05076 1.00424 0.0
C333 C 0.96506 0.04994 0.93989 0.0
N334 N 0.04703 0.00968 0.95593 0.0
N335 N 0.98405 0.03557 0.91085 0.0
H336 H 0.5555 0.18424 0.22503 0.0
H337 H 0.5607 0.31377 0.42083 0.0
H338 H 0.54312 0.19057 0.46646 0.0
H339 H 0.53169 0.30801 0.19249 0.0
H340 H 0.55118 0.26877 0.44081 0.0
H341 H 0.54307 0.22882 0.20999 0.0
C342 C 0.54916 0.19484 0.27434 0.0
C343 C 0.55001 0.18393 0.34687 0.0
C344 C 0.54619 0.27745 0.38701 0.0
C345 C 0.53703 0.23488 0.33099 0.0
C346 C 0.55164 0.30307 0.37575 0.0
C347 C 0.5468 0.31435 0.30524 0.0
C348 C 0.53678 0.26292 0.32622 0.0
C349 C 0.53542 0.29982 0.24789 0.0
C350 C 0.54219 0.22024 0.26594 0.0
C351 C 0.54234 0.19842 0.40954 0.0
N352 N 0.53133 0.2746 0.25896 0.0
N353 N 0.53673 0.22339 0.40047 0.0
H354 H 0.1711 0.52053 0.64466 0.0
H355 H 0.30591 0.5208 0.85153 0.0
H356 H 0.18156 0.54546 0.87599 0.0
H357 H 0.29451 0.54912 0.62409 0.0
H358 H 0.26048 0.51005 0.85847 0.0
H359 H 0.21679 0.51109 0.63677 0.0
C360 C 0.18286 0.52298 0.6947 0.0
C361 C 0.1728 0.53372 0.76114 0.0
C362 C 0.26819 0.51782 0.80626 0.0
C363 C 0.22449 0.5229 0.75265 0.0
C364 C 0.29401 0.52379 0.80207 0.0
C365 C 0.30371 0.53581 0.7371 0.0
C366 C 0.25233 0.52344 0.74441 0.0
C367 C 0.28757 0.53984 0.67503 0.0
C368 C 0.20882 0.51779 0.68996 0.0
C369 C 0.18877 0.53714 0.82395 0.0
N370 N 0.26255 0.53378 0.68027 0.0
N371 N 0.21395 0.53188 0.8181 0.0
H372 H 0.93719 0.17486 0.24757 0.0
H373 H 0.89737 0.31057 0.12709 0.0
H374 H 0.94899 0.19874 0.01543 0.0
H375 H 0.93575 0.29948 0.34086 0.0
H376 H 0.9124 0.26871 0.08476 0.0
H377 H 0.93295 0.21946 0.28536 0.0
C378 C 0.93919 0.18955 0.20481 0.0
C379 C 0.94347 0.18323 0.12836 0.0
C380 C 0.91788 0.27565 0.14039 0.0
C381 C 0.93802 0.23395 0.17075 0.0
C382 C 0.90929 0.29937 0.16446 0.0
C383 C 0.91554 0.30824 0.23711 0.0
C384 C 0.932 0.26049 0.19055 0.0
C385 C 0.9308 0.29318 0.28412 0.0
C386 C 0.93687 0.2149 0.22641 0.0
C387 C 0.94587 0.2029 0.07503 0.0
N388 N 0.93816 0.26972 0.26059 0.0
N389 N 0.9426 0.22743 0.09697 0.0
H390 H 0.28952 0.92439 0.56907 0.0
H391 H 0.18349 0.92211 0.89338 0.0
H392 H 0.30361 0.90691 0.80459 0.0
H393 H 0.16779 0.91279 0.65465 0.0
H394 H 0.22772 0.93247 0.86241 0.0
H395 H 0.24556 0.93573 0.60166 0.0
C396 C 0.28352 0.92388 0.62806 0.0
C397 C 0.29995 0.91492 0.68454 0.0
C398 C 0.21444 0.92891 0.81662 0.0
C399 C 0.25002 0.9273 0.7219 0.0
C400 C 0.18923 0.92324 0.83423 0.0
C401 C 0.17221 0.91683 0.77624 0.0
C402 C 0.22259 0.92788 0.74055 0.0
C403 C 0.18048 0.9179 0.70063 0.0
C404 C 0.25848 0.93012 0.64652 0.0
C405 C 0.29137 0.91394 0.75982 0.0
N406 N 0.20525 0.923 0.68486 0.0
N407 N 0.26686 0.91982 0.77632 0.0
H408 H 0.41098 0.78345 0.58213 0.0
H409 H 0.36428 0.66711 0.83561 0.0
H410 H 0.34712 0.78844 0.73605 0.0
H411 H 0.40426 0.65672 0.62357 0.0
H412 H 0.36268 0.71284 0.81106 0.0
H413 H 0.41306 0.73786 0.60616 0.0
C414 C 0.39724 0.77505 0.62045 0.0
C415 C 0.37879 0.79002 0.65694 0.0
C416 C 0.3718 0.70054 0.76994 0.0
C417 C 0.38163 0.73783 0.68614 0.0
C418 C 0.37287 0.67452 0.78415 0.0
C419 C 0.38438 0.65818 0.73145 0.0
C420 C 0.38266 0.71033 0.7031 0.0
C421 C 0.39502 0.66869 0.66529 0.0
C422 C 0.39859 0.749 0.63446 0.0
C423 C 0.36197 0.77792 0.7075 0.0
N424 N 0.39402 0.69414 0.65312 0.0
N425 N 0.36387 0.7526 0.72082 0.0
H426 H 0.79122 0.37238 0.40668 0.0
H427 H 0.67029 0.43161 0.2004 0.0
H428 H 0.79669 0.41369 0.19538 0.0
H429 H 0.66569 0.36672 0.35024 0.0
H430 H 0.71653 0.43007 0.20986 0.0
H431 H 0.74487 0.37517 0.39944 0.0
C432 C 0.78262 0.38214 0.35895 0.0
C433 C 0.79773 0.39279 0.30145 0.0
C434 C 0.70531 0.41622 0.24065 0.0
C435 C 0.74486 0.39615 0.29302 0.0
C436 C 0.67888 0.41697 0.23507 0.0
C437 C 0.66384 0.39918 0.27427 0.0
C438 C 0.71687 0.39779 0.28657 0.0
C439 C 0.67628 0.38111 0.31986 0.0
C440 C 0.75622 0.3836 0.35466 0.0
C441 C 0.78567 0.40504 0.24051 0.0
N442 N 0.70202 0.38092 0.32483 0.0
N443 N 0.7599 0.40651 0.23805 0.0
H444 H 0.11796 0.78179 0.91761 0.0
H445 H 0.06003 0.66518 0.68684 0.0
H446 H 0.0756 0.7911 0.70956 0.0
H447 H 0.12474 0.6576 0.83614 0.0
H448 H 0.0613 0.71103 0.70565 0.0
H449 H 0.11619 0.73564 0.90053 0.0
C450 C 0.10822 0.77408 0.86852 0.0
C451 C 0.09699 0.7902 0.81473 0.0
C452 C 0.0752 0.69927 0.73421 0.0
C453 C 0.09476 0.73764 0.79513 0.0
C454 C 0.07461 0.67306 0.72321 0.0
C455 C 0.09239 0.65731 0.75961 0.0
C456 C 0.09347 0.70989 0.78272 0.0
C457 C 0.11038 0.66879 0.8077 0.0
C458 C 0.10733 0.74781 0.85861 0.0
C459 C 0.08473 0.7793 0.75188 0.0
N460 N 0.11042 0.69434 0.81797 0.0
N461 N 0.08382 0.75367 0.74397 0.0
H462 H 0.8148 0.0903 0.34402 0.0
H463 H 0.67713 0.15182 0.28903 0.0
H464 H 0.79838 0.14947 0.18141 0.0
H465 H 0.69091 0.08416 0.42126 0.0
H466 H 0.72239 0.15422 0.26009 0.0
H467 H 0.7704 0.09092 0.38429 0.0
C468 C 0.80189 0.10345 0.31679 0.0
C469 C 0.81036 0.11972 0.25871 0.0
C470 C 0.71553 0.1389 0.29565 0.0
C471 C 0.75949 0.12068 0.30524 0.0
C472 C 0.68965 0.13742 0.31191 0.0
C473 C 0.68009 0.11762 0.35717 0.0
C474 C 0.7321 0.1205 0.32499 0.0
C475 C 0.69738 0.09988 0.38666 0.0
C476 C 0.77655 0.10385 0.34006 0.0
C477 C 0.79283 0.13674 0.22679 0.0
N478 N 0.72251 0.10168 0.36978 0.0
N479 N 0.76823 0.13668 0.2502 0.0
H480 H 0.56111 0.07742 0.7085 0.0
H481 H 0.55347 0.13286 0.13091 0.0
H482 H 0.55924 0.15742 0.761 0.0
H483 H 0.55021 0.05281 0.07953 0.0
H484 H 0.55286 0.14212 0.99532 0.0
H485 H 0.55478 0.06796 0.84312 0.0
C486 C 0.55916 0.09303 0.74799 0.0
C487 C 0.56093 0.1183 0.723 0.0
C488 C 0.55208 0.12252 0.01364 0.0
C489 C 0.55392 0.10753 0.87787 0.0
C490 C 0.55222 0.11718 0.09141 0.0
C491 C 0.55203 0.09194 0.1172 0.0
C492 C 0.55186 0.10252 0.96085 0.0
C493 C 0.55082 0.07252 0.06251 0.0
C494 C 0.55565 0.08759 0.8251 0.0
C495 C 0.55851 0.13767 0.77748 0.0
N496 N 0.55096 0.07821 0.98703 0.0
N497 N 0.55525 0.13188 0.85219 0.0
H498 H 0.35402 0.53363 0.50904 0.0
H499 H 0.41129 0.53302 0.08735 0.0
H500 H 0.43268 0.51818 0.45823 0.0
H501 H 0.33211 0.54578 0.13836 0.0
H502 H 0.41889 0.52422 0.22175 0.0
H503 H 0.34494 0.5344 0.37289 0.0
C504 C 0.36932 0.52995 0.46945 0.0
C505 C 0.39423 0.52604 0.49536 0.0
C506 C 0.39982 0.52886 0.20344 0.0
C507 C 0.38402 0.5274 0.33887 0.0
C508 C 0.39543 0.53381 0.12642 0.0
C509 C 0.37104 0.54048 0.10106 0.0
C510 C 0.37971 0.53059 0.25579 0.0
C511 C 0.35133 0.54131 0.15507 0.0
C512 C 0.36416 0.53061 0.39149 0.0
C513 C 0.4133 0.52172 0.4409 0.0
N514 N 0.35613 0.53658 0.22971 0.0
N515 N 0.40785 0.52272 0.36537 0.0
H516 H 0.92393 0.35725 0.0401 0.0
H517 H 0.9238 0.41317 0.61706 0.0
H518 H 0.93169 0.43704 0.98953 0.0
H519 H 0.91891 0.33335 0.67007 0.0
H520 H 0.93016 0.42218 0.75218 0.0
H521 H 0.92561 0.34802 0.90445 0.0
C522 C 0.92636 0.37285 1.00076 0.0
C523 C 0.9275 0.39803 0.02672 0.0
C524 C 0.92783 0.40268 0.73413 0.0
C525 C 0.92897 0.38755 0.87033 0.0
C526 C 0.92432 0.3975 0.65681 0.0
C527 C 0.92049 0.37246 0.63196 0.0
C528 C 0.9275 0.38269 0.78711 0.0
C529 C 0.9212 0.35298 0.68654 0.0
C530 C 0.92714 0.36756 0.92297 0.0
C531 C 0.93029 0.4174 0.9723 0.0
N532 N 0.92446 0.35852 0.76137 0.0
N533 N 0.93075 0.41177 0.89679 0.0
H534 H 0.06433 0.91204 0.14253 0.0
H535 H 0.12016 0.9207 0.5641 0.0
H536 H 0.14396 0.92039 0.19435 0.0
H537 H 0.03989 0.9173 0.51529 0.0
H538 H 0.12877 0.92411 0.4285 0.0
H539 H 0.0545 0.9173 0.27773 0.0
C540 C 0.07973 0.91527 0.18206 0.0
C541 C 0.10505 0.91544 0.15701 0.0
C542 C 0.10924 0.92281 0.4474 0.0
C543 C 0.09397 0.9212 0.31199 0.0
C544 C 0.10427 0.92104 0.5252 0.0
C545 C 0.07922 0.91849 0.55163 0.0
C546 C 0.08907 0.92191 0.39521 0.0
C547 C 0.05952 0.91872 0.49769 0.0
C548 C 0.07412 0.91815 0.25937 0.0
C549 C 0.12422 0.91953 0.21113 0.0
N550 N 0.06487 0.92018 0.4221 0.0
N551 N 0.1183 0.92207 0.28594 0.0
H552 H 0.52256 0.44332 0.56439 0.0
H553 H 0.54933 0.33991 0.888 0.0
H554 H 0.54046 0.36492 0.51853 0.0
H555 H 0.53657 0.41924 0.93522 0.0
H556 H 0.54184 0.34802 0.75343 0.0
H557 H 0.52312 0.4341 0.7007 0.0
C558 C 0.52648 0.42413 0.58286 0.0
C559 C 0.5317 0.40494 0.52959 0.0
C560 C 0.54057 0.36366 0.79318 0.0
C561 C 0.5323 0.39421 0.686 0.0
C562 C 0.54501 0.35907 0.87022 0.0
C563 C 0.544 0.37898 0.92333 0.0
C564 C 0.53505 0.38838 0.76846 0.0
C565 C 0.53757 0.40328 0.89667 0.0
C566 C 0.52673 0.41887 0.66079 0.0
C567 C 0.53617 0.38031 0.55708 0.0
N568 N 0.53355 0.40733 0.8211 0.0
N569 N 0.53657 0.37573 0.63326 0.0
H570 H 0.04238 0.51775 0.03659 0.0
H571 H 0.14636 0.54196 0.36023 0.0
H572 H 0.12139 0.5328 0.99004 0.0
H573 H 0.06635 0.53284 0.40617 0.0
H574 H 0.13823 0.5344 0.22567 0.0
H575 H 0.05156 0.51852 0.17282 0.0
C576 C 0.0617 0.52105 0.05497 0.0
C577 C 0.08108 0.52546 1.00156 0.0
C578 C 0.12245 0.53395 0.26519 0.0
C579 C 0.09177 0.52635 0.15785 0.0
C580 C 0.12705 0.53845 0.34223 0.0
C581 C 0.10697 0.53841 0.39502 0.0
C582 C 0.09757 0.52934 0.24022 0.0
C583 C 0.08245 0.53304 0.36799 0.0
C584 C 0.06694 0.52145 0.13283 0.0
C585 C 0.10586 0.52917 0.02883 0.0
N586 N 0.07843 0.52889 0.29251 0.0
N587 N 0.11044 0.52975 0.105 0.0
H588 H 0.89855 0.12862 0.40741 0.0
H589 H 0.94414 0.10056 0.83356 0.0
H590 H 0.96465 0.08392 0.46253 0.0
H591 H 0.87482 0.14 0.77799 0.0
H592 H 0.9544 0.09822 0.69824 0.0
H593 H 0.89209 0.13686 0.5426 0.0
C594 C 0.91194 0.1208 0.44774 0.0
C595 C 0.93217 0.10545 0.42334 0.0
C596 C 0.93703 0.10755 0.71563 0.0
C597 C 0.92462 0.11456 0.57885 0.0
C598 C 0.93124 0.10909 0.79307 0.0
C599 C 0.90852 0.12048 0.8173 0.0
C600 C 0.92001 0.1175 0.66183 0.0
C601 C 0.89236 0.13077 0.76183 0.0
C602 C 0.90811 0.12537 0.52515 0.0
C603 C 0.94862 0.09554 0.47873 0.0
N604 N 0.89837 0.12897 0.68677 0.0
N605 N 0.94443 0.10019 0.55381 0.0
H606 H 0.32456 0.90983 0.25985 0.0
H607 H 0.43167 0.92218 0.93817 0.0
H608 H 0.40489 0.90977 0.3084 0.0
H609 H 0.35165 0.91406 0.89102 0.0
H610 H 0.42217 0.92177 0.07436 0.0
H611 H 0.33412 0.91528 0.12519 0.0
C612 C 0.34423 0.91087 0.24238 0.0
C613 C 0.36392 0.90905 0.29597 0.0
C614 C 0.40669 0.92025 0.03411 0.0
C615 C 0.37504 0.91566 0.14104 0.0
C616 C 0.41211 0.92041 0.95622 0.0
C617 C 0.39249 0.918 0.90251 0.0
C618 C 0.38145 0.91766 0.0588 0.0
C619 C 0.36744 0.91621 0.9297 0.0
C620 C 0.34968 0.91415 0.16528 0.0
C621 C 0.38904 0.91119 0.26958 0.0
N622 N 0.36269 0.91593 0.00575 0.0
N623 N 0.39387 0.91424 0.19402 0.0
loop_
_geom_bond_atom_site_label_1
_geom_bond_atom_site_label_2
_geom_bond_distance
_geom_bond_site_symmetry_2
_ccdc_geom_bond_type
C0 C1 1.351 . S
C0 N3 1.368 . S
C0 H5 0.931 . S
C1 C0 1.351 . S
C1 N2 1.373 . S
C1 H29 0.930 . S
N2 C1 1.373 . S
N2 C4 1.340 . S
N3 C0 1.368 . S
N3 C4 1.321 . S
N3 Co6 2.135 . S
C4 N2 1.340 . S
C4 N3 1.321 . S
C4 H28 0.930 . S
H5 C0 0.931 . S
Co6 N3 2.135 . S
Co6 N9 2.121 . S
Co6 O14 2.055 . S
Co6 O17 2.039 . S
Co6 N20 2.140 . S
C7 O8 1.227 . S
C7 O17 1.265 . S
O8 C7 1.227 . S
N9 Co6 2.121 . S
N9 C11 1.375 . S
N9 C12 1.313 . S
C10 C11 1.338 . S
C10 N13 1.377 . S
C10 H30 0.930 . S
C11 N9 1.375 . S
C11 C10 1.338 . S
C11 H15 0.931 . S
C12 N9 1.313 . S
C12 N13 1.344 . S
C12 H16 0.930 . S
N13 C10 1.377 . S
N13 C12 1.344 . S
O14 Co6 2.055 . S
O14 C18 1.253 . S
H15 C11 0.931 . S
H16 C12 0.930 . S
O17 Co6 2.039 . S
O17 C7 1.265 . S
C18 O14 1.253 . S
C18 O19 1.227 . S
O19 C18 1.227 . S
N20 Co6 2.140 . S
N20 C23 1.346 . S
N20 C24 1.345 . S
C21 C22 1.387 . S
C21 C25 1.391 . S
C22 C21 1.387 . S
C22 C23 1.369 . S
C22 H31 0.929 . S
C23 N20 1.346 . S
C23 C22 1.369 . S
C23 H26 0.928 . S
C24 N20 1.345 . S
C24 C25 1.371 . S
C24 H27 0.931 . S
C25 C21 1.391 . S
C25 C24 1.371 . S
C25 H32 0.930 . S
H26 C23 0.928 . S
H27 C24 0.931 . S
H28 C4 0.930 . S
H29 C1 0.930 . S
H30 C10 0.930 . S
H31 C22 0.929 . S
H32 C25 0.930 . S
C33 C34 1.351 . S
C33 N36 1.368 . S
C33 H38 0.931 . S
C34 C33 1.351 . S
C34 N35 1.373 . S
C34 H62 0.930 . S
N35 C34 1.373 . S
N35 C37 1.340 . S
N36 C33 1.368 . S
N36 C37 1.321 . S
N36 Co39 2.135 . S
C37 N35 1.340 . S
C37 N36 1.321 . S
C37 H61 0.930 . S
H38 C33 0.931 . S
Co39 N36 2.135 . S
Co39 N42 2.121 . S
Co39 O47 2.055 . S
Co39 O50 2.039 . S
Co39 N53 2.140 . S
C40 O41 1.227 . S
C40 O50 1.265 . S
O41 C40 1.227 . S
N42 Co39 2.121 . S
N42 C44 1.375 . S
N42 C45 1.313 . S
C43 C44 1.338 1_554 S
C43 N46 1.377 . S
C43 H63 0.930 . S
C44 N42 1.375 . S
C44 C43 1.338 1_556 S
C44 H48 0.931 . S
C45 N42 1.313 . S
C45 N46 1.344 1_556 S
C45 H49 0.930 . S
N46 C43 1.377 . S
N46 C45 1.344 1_554 S
O47 Co39 2.055 . S
O47 C51 1.253 . S
H48 C44 0.931 . S
H49 C45 0.930 . S
O50 Co39 2.039 . S
O50 C40 1.265 . S
C51 O47 1.253 . S
C51 O52 1.227 . S
O52 C51 1.227 . S
N53 Co39 2.140 . S
N53 C56 1.346 . S
N53 C57 1.345 . S
C54 C55 1.387 . S
C54 C58 1.391 . S
C55 C54 1.387 . S
C55 C56 1.369 . S
C55 H64 0.929 . S
C56 N53 1.346 . S
C56 C55 1.369 . S
C56 H59 0.928 . S
C57 N53 1.345 . S
C57 C58 1.371 . S
C57 H60 0.931 . S
C58 C54 1.391 . S
C58 C57 1.371 . S
C58 H65 0.930 . S
H59 C56 0.928 . S
H60 C57 0.931 . S
H61 C37 0.930 . S
H62 C34 0.930 . S
H63 C43 0.930 . S
H64 C55 0.929 . S
H65 C58 0.930 . S
C66 C67 1.351 . S
C66 N69 1.368 . S
C66 H71 0.931 . S
C67 C66 1.351 . S
C67 N68 1.373 . S
C67 H95 0.930 . S
N68 C67 1.373 . S
N68 C70 1.340 . S
N69 C66 1.368 . S
N69 C70 1.321 . S
N69 Co72 2.135 . S
C70 N68 1.340 . S
C70 N69 1.321 . S
C70 H94 0.930 . S
H71 C66 0.931 . S
Co72 N69 2.135 . S
Co72 N75 2.121 . S
Co72 O80 2.055 . S
Co72 O83 2.039 . S
Co72 N86 2.140 . S
C73 O74 1.227 . S
C73 O83 1.265 . S
O74 C73 1.227 . S
N75 Co72 2.121 . S
N75 C77 1.375 . S
N75 C78 1.313 . S
C76 C77 1.338 . S
C76 N79 1.377 . S
C76 H96 0.930 . S
C77 N75 1.375 . S
C77 C76 1.338 . S
C77 H81 0.931 . S
C78 N75 1.313 . S
C78 N79 1.344 . S
C78 H82 0.930 . S
N79 C76 1.377 . S
N79 C78 1.344 . S
O80 Co72 2.055 . S
O80 C84 1.253 . S
H81 C77 0.931 . S
H82 C78 0.930 . S
O83 Co72 2.039 . S
O83 C73 1.265 . S
C84 O80 1.253 . S
C84 O85 1.227 . S
O85 C84 1.227 . S
N86 Co72 2.140 . S
N86 C89 1.346 . S
N86 C90 1.345 . S
C87 C88 1.387 . S
C87 C91 1.391 . S
C88 C87 1.387 . S
C88 C89 1.369 . S
C88 H97 0.929 . S
C89 N86 1.346 . S
C89 C88 1.369 . S
C89 H92 0.928 . S
C90 N86 1.345 . S
C90 C91 1.371 . S
C90 H93 0.931 . S
C91 C87 1.391 . S
C91 C90 1.371 . S
C91 H98 0.930 . S
H92 C89 0.928 . S
H93 C90 0.931 . S
H94 C70 0.930 . S
H95 C67 0.930 . S
H96 C76 0.930 . S
H97 C88 0.929 . S
H98 C91 0.930 . S
C99 C100 1.351 . S
C99 N102 1.368 . S
C99 H104 0.931 . S
C100 C99 1.351 . S
C100 N101 1.373 . S
C100 H128 0.930 . S
N101 C100 1.373 . S
N101 C103 1.340 . S
N102 C99 1.368 . S
N102 C103 1.321 . S
N102 Co105 2.135 . S
C103 N101 1.340 . S
C103 N102 1.321 . S
C103 H127 0.930 . S
H104 C99 0.931 . S
Co105 N102 2.135 . S
Co105 N108 2.121 . S
Co105 O113 2.055 . S
Co105 O116 2.039 . S
Co105 N119 2.140 . S
C106 O107 1.227 . S
C106 O116 1.265 . S
O107 C106 1.227 . S
N108 Co105 2.121 . S
N108 C110 1.375 . S
N108 C111 1.313 . S
C109 C110 1.338 1_554 S
C109 N112 1.377 . S
C109 H129 0.930 . S
C110 N108 1.375 . S
C110 C109 1.338 1_556 S
C110 H114 0.931 . S
C111 N108 1.313 . S
C111 N112 1.344 1_556 S
C111 H115 0.930 . S
N112 C109 1.377 . S
N112 C111 1.344 1_554 S
O113 Co105 2.055 . S
O113 C117 1.253 . S
H114 C110 0.931 . S
H115 C111 0.930 . S
O116 Co105 2.039 . S
O116 C106 1.265 . S
C117 O113 1.253 . S
C117 O118 1.227 . S
O118 C117 1.227 . S
N119 Co105 2.140 . S
N119 C122 1.346 . S
N119 C123 1.345 . S
C120 C121 1.387 . S
C120 C124 1.391 . S
C121 C120 1.387 . S
C121 C122 1.369 . S
C121 H130 0.929 . S
C122 N119 1.346 . S
C122 C121 1.369 . S
C122 H125 0.928 . S
C123 N119 1.345 . S
C123 C124 1.371 . S
C123 H126 0.931 . S
C124 C120 1.391 . S
C124 C123 1.371 . S
C124 H131 0.930 . S
H125 C122 0.928 . S
H126 C123 0.931 . S
H127 C103 0.930 . S
H128 C100 0.930 . S
H129 C109 0.930 . S
H130 C121 0.929 . S
H131 C124 0.930 . S
C132 C133 1.351 . S
C132 N135 1.368 . S
C132 H137 0.931 . S
C133 C132 1.351 . S
C133 N134 1.373 . S
C133 H161 0.930 . S
N134 C133 1.373 . S
N134 C136 1.340 . S
N135 C132 1.368 . S
N135 C136 1.321 . S
N135 Co138 2.135 . S
C136 N134 1.340 . S
C136 N135 1.321 . S
C136 H160 0.930 . S
H137 C132 0.931 . S
Co138 N135 2.135 . S
Co138 N141 2.121 . S
Co138 O146 2.055 . S
Co138 O149 2.039 . S
Co138 N152 2.140 . S
C139 O140 1.227 . S
C139 O149 1.265 . S
O140 C139 1.227 . S
N141 Co138 2.121 . S
N141 C143 1.375 . S
N141 C144 1.313 . S
C142 C143 1.338 1_556 S
C142 N145 1.377 . S
C142 H162 0.930 . S
C143 N141 1.375 . S
C143 C142 1.338 1_554 S
C143 H147 0.931 . S
C144 N141 1.313 . S
C144 N145 1.344 1_554 S
C144 H148 0.930 . S
N145 C142 1.377 . S
N145 C144 1.344 1_556 S
O146 Co138 2.055 . S
O146 C150 1.253 . S
H147 C143 0.931 . S
H148 C144 0.930 . S
O149 Co138 2.039 . S
O149 C139 1.265 . S
C150 O146 1.253 . S
C150 O151 1.227 . S
O151 C150 1.227 . S
N152 Co138 2.140 . S
N152 C155 1.346 . S
N152 C156 1.345 . S
C153 C154 1.387 . S
C153 C157 1.391 . S
C154 C153 1.387 . S
C154 C155 1.369 . S
C154 H163 0.929 . S
C155 N152 1.346 . S
C155 C154 1.369 . S
C155 H158 0.928 . S
C156 N152 1.345 . S
C156 C157 1.371 . S
C156 H159 0.931 . S
C157 C153 1.391 . S
C157 C156 1.371 . S
C157 H164 0.930 . S
H158 C155 0.928 . S
H159 C156 0.931 . S
H160 C136 0.930 . S
H161 C133 0.930 . S
H162 C142 0.930 . S
H163 C154 0.929 . S
H164 C157 0.930 . S
C165 C166 1.351 . S
C165 N168 1.368 . S
C165 H170 0.931 . S
C166 C165 1.351 . S
C166 N167 1.373 . S
C166 H194 0.930 . S
N167 C166 1.373 . S
N167 C169 1.340 . S
N168 C165 1.368 . S
N168 C169 1.321 . S
N168 Co171 2.135 . S
C169 N167 1.340 . S
C169 N168 1.321 . S
C169 H193 0.930 . S
H170 C165 0.931 . S
Co171 N168 2.135 . S
Co171 N174 2.121 . S
Co171 O179 2.055 . S
Co171 O182 2.039 . S
Co171 N185 2.140 . S
C172 O173 1.227 . S
C172 O182 1.265 . S
O173 C172 1.227 . S
N174 Co171 2.121 . S
N174 C176 1.375 . S
N174 C177 1.313 . S
C175 C176 1.338 . S
C175 N178 1.377 . S
C175 H195 0.930 . S
C176 N174 1.375 . S
C176 C175 1.338 . S
C176 H180 0.931 . S
C177 N174 1.313 . S
C177 N178 1.344 . S
C177 H181 0.930 . S
N178 C175 1.377 . S
N178 C177 1.344 . S
O179 Co171 2.055 . S
O179 C183 1.253 . S
H180 C176 0.931 . S
H181 C177 0.930 . S
O182 Co171 2.039 . S
O182 C172 1.265 . S
C183 O179 1.253 . S
C183 O184 1.227 . S
O184 C183 1.227 . S
N185 Co171 2.140 . S
N185 C188 1.346 . S
N185 C189 1.345 . S
C186 C187 1.387 . S
C186 C190 1.391 . S
C187 C186 1.387 . S
C187 C188 1.369 . S
C187 H196 0.929 . S
C188 N185 1.346 . S
C188 C187 1.369 . S
C188 H191 0.928 . S
C189 N185 1.345 . S
C189 C190 1.371 . S
C189 H192 0.931 . S
C190 C186 1.391 . S
C190 C189 1.371 . S
C190 H197 0.930 . S
H191 C188 0.928 . S
H192 C189 0.931 . S
H193 C169 0.930 . S
H194 C166 0.930 . S
H195 C175 0.930 . S
H196 C187 0.929 . S
H197 C190 0.930 . S
C198 C199 1.351 . S
C198 N201 1.368 . S
C198 H203 0.931 . S
C199 C198 1.351 . S
C199 N200 1.373 . S
C199 H227 0.930 . S
N200 C199 1.373 . S
N200 C202 1.340 . S
N201 C198 1.368 . S
N201 C202 1.321 . S
N201 Co204 2.135 . S
C202 N200 1.340 . S
C202 N201 1.321 . S
C202 H226 0.930 . S
H203 C198 0.931 . S
Co204 N201 2.135 . S
Co204 N207 2.121 . S
Co204 O212 2.055 . S
Co204 O215 2.039 . S
Co204 N218 2.140 . S
C205 O206 1.227 . S
C205 O215 1.265 . S
O206 C205 1.227 . S
N207 Co204 2.121 . S
N207 C209 1.375 . S
N207 C210 1.313 . S
C208 C209 1.338 1_556 S
C208 N211 1.377 . S
C208 H228 0.930 . S
C209 N207 1.375 . S
C209 C208 1.338 1_554 S
C209 H213 0.931 . S
C210 N207 1.313 . S
C210 N211 1.344 1_554 S
C210 H214 0.930 . S
N211 C208 1.377 . S
N211 C210 1.344 1_556 S
O212 Co204 2.055 . S
O212 C216 1.253 . S
H213 C209 0.931 . S
H214 C210 0.930 . S
O215 Co204 2.039 . S
O215 C205 1.265 . S
C216 O212 1.253 . S
C216 O217 1.227 . S
O217 C216 1.227 . S
N218 Co204 2.140 . S
N218 C221 1.346 . S
N218 C222 1.345 . S
C219 C220 1.387 . S
C219 C223 1.391 . S
C220 C219 1.387 . S
C220 C221 1.369 . S
C220 H229 0.929 . S
C221 N218 1.346 . S
C221 C220 1.369 . S
C221 H224 0.928 . S
C222 N218 1.345 . S
C222 C223 1.371 . S
C222 H225 0.931 . S
C223 C219 1.391 . S
C223 C222 1.371 . S
C223 H230 0.930 . S
H224 C221 0.928 . S
H225 C222 0.931 . S
H226 C202 0.930 . S
H227 C199 0.930 . S
H228 C208 0.930 . S
H229 C220 0.929 . S
H230 C223 0.930 . S
C231 C232 1.351 . S
C231 N234 1.368 . S
C231 H236 0.931 . S
C232 C231 1.351 . S
C232 N233 1.373 . S
C232 H260 0.930 . S
N233 C232 1.373 . S
N233 C235 1.340 . S
N234 C231 1.368 . S
N234 C235 1.321 . S
N234 Co237 2.135 . S
C235 N233 1.340 . S
C235 N234 1.321 . S
C235 H259 0.930 . S
H236 C231 0.931 . S
Co237 N234 2.135 . S
Co237 N240 2.121 . S
Co237 O245 2.055 . S
Co237 O248 2.039 . S
Co237 N251 2.140 . S
C238 O239 1.227 . S
C238 O248 1.265 . S
O239 C238 1.227 . S
N240 Co237 2.121 . S
N240 C242 1.375 . S
N240 C243 1.313 . S
C241 C242 1.338 . S
C241 N244 1.377 . S
C241 H261 0.930 . S
C242 N240 1.375 . S
C242 C241 1.338 . S
C242 H246 0.931 . S
C243 N240 1.313 . S
C243 N244 1.344 . S
C243 H247 0.930 . S
N244 C241 1.377 . S
N244 C243 1.344 . S
O245 Co237 2.055 . S
O245 C249 1.253 . S
H246 C242 0.931 . S
H247 C243 0.930 . S
O248 Co237 2.039 . S
O248 C238 1.265 . S
C249 O245 1.253 . S
C249 O250 1.227 . S
O250 C249 1.227 . S
N251 Co237 2.140 . S
N251 C254 1.346 . S
N251 C255 1.345 . S
C252 C253 1.387 . S
C252 C256 1.391 . S
C253 C252 1.387 . S
C253 C254 1.369 . S
C253 H262 0.929 . S
C254 N251 1.346 . S
C254 C253 1.369 . S
C254 H257 0.928 . S
C255 N251 1.345 . S
C255 C256 1.371 . S
C255 H258 0.931 . S
C256 C252 1.391 . S
C256 C255 1.371 . S
C256 H263 0.930 . S
H257 C254 0.928 . S
H258 C255 0.931 . S
H259 C235 0.930 . S
H260 C232 0.930 . S
H261 C241 0.930 . S
H262 C253 0.929 . S
H263 C256 0.930 . S
H264 C270 0.930 . S
H265 C274 0.930 . S
H266 C279 0.929 . S
H267 C277 0.929 . S
H268 C272 0.929 . S
H269 C278 0.929 . S
C270 H264 0.930 . S
C270 C271 1.367 . S
C270 C278 1.378 1_565 S
C271 C270 1.367 . S
C271 C279 1.433 . S
C272 H268 0.929 . S
C272 C274 1.378 1_565 S
C272 C276 1.350 1_565 S
C273 C276 1.463 1_565 S
C273 C278 1.350 1_565 S
C273 N281 1.427 . S
C274 H265 0.930 . S
C274 C272 1.378 1_545 S
C274 C275 1.367 . S
C275 C274 1.367 . S
C275 C277 1.433 . S
C276 C272 1.350 1_545 S
C276 C273 1.463 1_545 S
C276 N280 1.427 . S
C277 H267 0.929 . S
C277 C275 1.433 . S
C277 N280 1.384 . S
C278 H269 0.929 . S
C278 C270 1.378 1_545 S
C278 C273 1.350 1_545 S
C279 H266 0.929 . S
C279 C271 1.433 . S
C279 N281 1.384 . S
N280 C276 1.427 . S
N280 C277 1.384 . S
N281 C273 1.427 . S
N281 C279 1.384 . S
H282 C288 0.930 . S
H283 C292 0.930 . S
H284 C297 0.929 . S
H285 C295 0.929 . S
H286 C290 0.929 . S
H287 C296 0.929 . S
C288 H282 0.930 . S
C288 C289 1.367 . S
C288 C296 1.378 . S
C289 C288 1.367 . S
C289 C297 1.433 . S
C290 H286 0.929 . S
C290 C292 1.378 . S
C290 C294 1.350 . S
C291 C294 1.463 1_554 S
C291 C296 1.350 . S
C291 N299 1.427 . S
C292 H283 0.930 . S
C292 C290 1.378 . S
C292 C293 1.367 . S
C293 C292 1.367 . S
C293 C295 1.433 . S
C294 C290 1.350 . S
C294 C291 1.463 1_556 S
C294 N298 1.427 . S
C295 H285 0.929 . S
C295 C293 1.433 . S
C295 N298 1.384 . S
C296 H287 0.929 . S
C296 C288 1.378 . S
C296 C291 1.350 . S
C297 H284 0.929 . S
C297 C289 1.433 . S
C297 N299 1.384 . S
N298 C294 1.427 . S
N298 C295 1.384 . S
N299 C291 1.427 . S
N299 C297 1.384 . S
H300 C306 0.930 . S
H301 C310 0.930 . S
H302 C315 0.929 . S
H303 C313 0.929 . S
H304 C308 0.929 1_655 S
H305 C314 0.929 1_455 S
C306 H300 0.930 . S
C306 C307 1.367 . S
C306 C314 1.378 . S
C307 C306 1.367 . S
C307 C315 1.433 . S
C308 H304 0.929 1_455 S
C308 C310 1.378 . S
C308 C312 1.350 . S
C309 C312 1.463 1_655 S
C309 C314 1.350 . S
C309 N317 1.427 . S
C310 H301 0.930 . S
C310 C308 1.378 . S
C310 C311 1.367 . S
C311 C310 1.367 . S
C311 C313 1.433 . S
C312 C308 1.350 . S
C312 C309 1.463 1_455 S
C312 N316 1.427 . S
C313 H303 0.929 . S
C313 C311 1.433 . S
C313 N316 1.384 . S
C314 H305 0.929 1_655 S
C314 C306 1.378 . S
C314 C309 1.350 . S
C315 H302 0.929 . S
C315 C307 1.433 . S
C315 N317 1.384 . S
N316 C312 1.427 . S
N316 C313 1.384 . S
N317 C309 1.427 . S
N317 C315 1.384 . S
H318 C324 0.930 . S
H319 C328 0.930 . S
H320 C333 0.929 . S
H321 C331 0.929 . S
H322 C326 0.929 . S
H323 C332 0.929 . S
C324 H318 0.930 . S
C324 C325 1.367 . S
C324 C332 1.378 1_545 S
C325 C324 1.367 . S
C325 C333 1.433 . S
C326 H322 0.929 . S
C326 C328 1.378 1_545 S
C326 C330 1.350 1_545 S
C327 C330 1.463 1_644 S
C327 C332 1.350 1_545 S
C327 N335 1.427 . S
C328 H319 0.930 . S
C328 C326 1.378 1_565 S
C328 C329 1.367 . S
C329 C328 1.367 . S
C329 C331 1.433 . S
C330 C326 1.350 1_565 S
C330 C327 1.463 1_466 S
C330 N334 1.427 . S
C331 H321 0.929 . S
C331 C329 1.433 . S
C331 N334 1.384 . S
C332 H323 0.929 . S
C332 C324 1.378 1_565 S
C332 C327 1.350 1_565 S
C333 H320 0.929 . S
C333 C325 1.433 . S
C333 N335 1.384 . S
N334 C330 1.427 . S
N334 C331 1.384 . S
N335 C327 1.427 . S
N335 C333 1.384 . S
H336 C342 0.930 . S
H337 C346 0.930 . S
H338 C351 0.929 . S
H339 C349 0.929 . S
H340 C344 0.929 . S
H341 C350 0.929 . S
C342 H336 0.930 . S
C342 C343 1.367 . S
C342 C350 1.378 . S
C343 C342 1.367 . S
C343 C351 1.433 . S
C344 H340 0.929 . S
C344 C346 1.378 . S
C344 C348 1.350 . S
C345 C348 1.463 . S
C345 C350 1.350 . S
C345 N353 1.427 . S
C346 H337 0.930 . S
C346 C344 1.378 . S
C346 C347 1.367 . S
C347 C346 1.367 . S
C347 C349 1.433 . S
C348 C344 1.350 . S
C348 C345 1.463 . S
C348 N352 1.427 . S
C349 H339 0.929 . S
C349 C347 1.433 . S
C349 N352 1.384 . S
C350 H341 0.929 . S
C350 C342 1.378 . S
C350 C345 1.350 . S
C351 H338 0.929 . S
C351 C343 1.433 . S
C351 N353 1.384 . S
N352 C348 1.427 . S
N352 C349 1.384 . S
N353 C345 1.427 . S
N353 C351 1.384 . S
H354 C360 0.930 . S
H355 C364 0.930 . S
H356 C369 0.929 . S
H357 C367 0.929 . S
H358 C362 0.929 . S
H359 C368 0.929 . S
C360 H354 0.930 . S
C360 C361 1.367 . S
C360 C368 1.378 . S
C361 C360 1.367 . S
C361 C369 1.433 . S
C362 H358 0.929 . S
C362 C364 1.378 . S
C362 C366 1.350 . S
C363 C366 1.463 . S
C363 C368 1.350 . S
C363 N371 1.427 . S
C364 H355 0.930 . S
C364 C362 1.378 . S
C364 C365 1.367 . S
C365 C364 1.367 . S
C365 C367 1.433 . S
C366 C362 1.350 . S
C366 C363 1.463 . S
C366 N370 1.427 . S
C367 H357 0.929 . S
C367 C365 1.433 . S
C367 N370 1.384 . S
C368 H359 0.929 . S
C368 C360 1.378 . S
C368 C363 1.350 . S
C369 H356 0.929 . S
C369 C361 1.433 . S
C369 N371 1.384 . S
N370 C366 1.427 . S
N370 C367 1.384 . S
N371 C363 1.427 . S
N371 C369 1.384 . S
H372 C378 0.930 . S
H373 C382 0.930 . S
H374 C387 0.929 . S
H375 C385 0.929 . S
H376 C380 0.929 . S
H377 C386 0.929 . S
C378 H372 0.930 . S
C378 C379 1.367 . S
C378 C386 1.378 . S
C379 C378 1.367 . S
C379 C387 1.433 . S
C380 H376 0.929 . S
C380 C382 1.378 . S
C380 C384 1.350 . S
C381 C384 1.463 . S
C381 C386 1.350 . S
C381 N389 1.427 . S
C382 H373 0.930 . S
C382 C380 1.378 . S
C382 C383 1.367 . S
C383 C382 1.367 . S
C383 C385 1.433 . S
C384 C380 1.350 . S
C384 C381 1.463 . S
C384 N388 1.427 . S
C385 H375 0.929 . S
C385 C383 1.433 . S
C385 N388 1.384 . S
C386 H377 0.929 . S
C386 C378 1.378 . S
C386 C381 1.350 . S
C387 H374 0.929 . S
C387 C379 1.433 . S
C387 N389 1.384 . S
N388 C384 1.427 . S
N388 C385 1.384 . S
N389 C381 1.427 . S
N389 C387 1.384 . S
H390 C396 0.930 . S
H391 C400 0.930 . S
H392 C405 0.929 . S
H393 C403 0.929 . S
H394 C398 0.929 . S
H395 C404 0.929 . S
C396 H390 0.930 . S
C396 C397 1.367 . S
C396 C404 1.378 . S
C397 C396 1.367 . S
C397 C405 1.433 . S
C398 H394 0.929 . S
C398 C400 1.378 . S
C398 C402 1.350 . S
C399 C402 1.463 . S
C399 C404 1.350 . S
C399 N407 1.427 . S
C400 H391 0.930 . S
C400 C398 1.378 . S
C400 C401 1.367 . S
C401 C400 1.367 . S
C401 C403 1.433 . S
C402 C398 1.350 . S
C402 C399 1.463 . S
C402 N406 1.427 . S
C403 H393 0.929 . S
C403 C401 1.433 . S
C403 N406 1.384 . S
C404 H395 0.929 . S
C404 C396 1.378 . S
C404 C399 1.350 . S
C405 H392 0.929 . S
C405 C397 1.433 . S
C405 N407 1.384 . S
N406 C402 1.427 . S
N406 C403 1.384 . S
N407 C399 1.427 . S
N407 C405 1.384 . S
H408 C414 0.930 . S
H409 C418 0.930 . S
H410 C423 0.929 . S
H411 C421 0.929 . S
H412 C416 0.929 . S
H413 C422 0.929 . S
C414 H408 0.930 . S
C414 C415 1.367 . S
C414 C422 1.378 . S
C415 C414 1.367 . S
C415 C423 1.433 . S
C416 H412 0.929 . S
C416 C418 1.378 . S
C416 C420 1.350 . S
C417 C420 1.463 . S
C417 C422 1.350 . S
C417 N425 1.427 . S
C418 H409 0.930 . S
C418 C416 1.378 . S
C418 C419 1.367 . S
C419 C418 1.367 . S
C419 C421 1.433 . S
C420 C416 1.350 . S
C420 C417 1.463 . S
C420 N424 1.427 . S
C421 H411 0.929 . S
C421 C419 1.433 . S
C421 N424 1.384 . S
C422 H413 0.929 . S
C422 C414 1.378 . S
C422 C417 1.350 . S
C423 H410 0.929 . S
C423 C415 1.433 . S
C423 N425 1.384 . S
N424 C420 1.427 . S
N424 C421 1.384 . S
N425 C417 1.427 . S
N425 C423 1.384 . S
H426 C432 0.930 . S
H427 C436 0.930 . S
H428 C441 0.929 . S
H429 C439 0.929 . S
H430 C434 0.929 . S
H431 C440 0.929 . S
C432 H426 0.930 . S
C432 C433 1.367 . S
C432 C440 1.378 . S
C433 C432 1.367 . S
C433 C441 1.433 . S
C434 H430 0.929 . S
C434 C436 1.378 . S
C434 C438 1.350 . S
C435 C438 1.463 . S
C435 C440 1.350 . S
C435 N443 1.427 . S
C436 H427 0.930 . S
C436 C434 1.378 . S
C436 C437 1.367 . S
C437 C436 1.367 . S
C437 C439 1.433 . S
C438 C434 1.350 . S
C438 C435 1.463 . S
C438 N442 1.427 . S
C439 H429 0.929 . S
C439 C437 1.433 . S
C439 N442 1.384 . S
C440 H431 0.929 . S
C440 C432 1.378 . S
C440 C435 1.350 . S
C441 H428 0.929 . S
C441 C433 1.433 . S
C441 N443 1.384 . S
N442 C438 1.427 . S
N442 C439 1.384 . S
N443 C435 1.427 . S
N443 C441 1.384 . S
H444 C450 0.930 . S
H445 C454 0.930 . S
H446 C459 0.929 . S
H447 C457 0.929 . S
H448 C452 0.929 . S
H449 C458 0.929 . S
C450 H444 0.930 . S
C450 C451 1.367 . S
C450 C458 1.378 . S
C451 C450 1.367 . S
C451 C459 1.433 . S
C452 H448 0.929 . S
C452 C454 1.378 . S
C452 C456 1.350 . S
C453 C456 1.463 . S
C453 C458 1.350 . S
C453 N461 1.427 . S
C454 H445 0.930 . S
C454 C452 1.378 . S
C454 C455 1.367 . S
C455 C454 1.367 . S
C455 C457 1.433 . S
C456 C452 1.350 . S
C456 C453 1.463 . S
C456 N460 1.427 . S
C457 H447 0.929 . S
C457 C455 1.433 . S
C457 N460 1.384 . S
C458 H449 0.929 . S
C458 C450 1.378 . S
C458 C453 1.350 . S
C459 H446 0.929 . S
C459 C451 1.433 . S
C459 N461 1.384 . S
N460 C456 1.427 . S
N460 C457 1.384 . S
N461 C453 1.427 . S
N461 C459 1.384 . S
H462 C468 0.930 . S
H463 C472 0.930 . S
H464 C477 0.929 . S
H465 C475 0.929 . S
H466 C470 0.929 . S
H467 C476 0.929 . S
C468 H462 0.930 . S
C468 C469 1.367 . S
C468 C476 1.378 . S
C469 C468 1.367 . S
C469 C477 1.433 . S
C470 H466 0.929 . S
C470 C472 1.378 . S
C470 C474 1.350 . S
C471 C474 1.463 . S
C471 C476 1.350 . S
C471 N479 1.427 . S
C472 H463 0.930 . S
C472 C470 1.378 . S
C472 C473 1.367 . S
C473 C472 1.367 . S
C473 C475 1.433 . S
C474 C470 1.350 . S
C474 C471 1.463 . S
C474 N478 1.427 . S
C475 H465 0.929 . S
C475 C473 1.433 . S
C475 N478 1.384 . S
C476 H467 0.929 . S
C476 C468 1.378 . S
C476 C471 1.350 . S
C477 H464 0.929 . S
C477 C469 1.433 . S
C477 N479 1.384 . S
N478 C474 1.427 . S
N478 C475 1.384 . S
N479 C471 1.427 . S
N479 C477 1.384 . S
H480 C486 0.930 . S
H481 C490 0.930 1_554 S
H482 C495 0.929 . S
H483 C493 0.929 . S
H484 C488 0.929 . S
H485 C494 0.929 . S
C486 H480 0.930 . S
C486 C487 1.367 . S
C486 C494 1.378 . S
C487 C486 1.367 . S
C487 C495 1.433 . S
C488 H484 0.929 . S
C488 C490 1.378 . S
C488 C492 1.350 . S
C489 C492 1.463 . S
C489 C494 1.350 . S
C489 N497 1.427 . S
C490 H481 0.930 1_556 S
C490 C488 1.378 . S
C490 C491 1.367 1_556 S
C491 C490 1.367 1_554 S
C491 C493 1.433 1_554 S
C492 C488 1.350 . S
C492 C489 1.463 . S
C492 N496 1.427 . S
C493 H483 0.929 . S
C493 C491 1.433 1_556 S
C493 N496 1.384 . S
C494 H485 0.929 . S
C494 C486 1.378 . S
C494 C489 1.350 . S
C495 H482 0.929 . S
C495 C487 1.433 . S
C495 N497 1.384 . S
N496 C492 1.427 . S
N496 C493 1.384 . S
N497 C489 1.427 . S
N497 C495 1.384 . S
H498 C504 0.930 . S
H499 C508 0.930 . S
H500 C513 0.929 . S
H501 C511 0.929 . S
H502 C506 0.929 . S
H503 C512 0.929 . S
C504 H498 0.930 . S
C504 C505 1.367 . S
C504 C512 1.378 . S
C505 C504 1.367 . S
C505 C513 1.433 . S
C506 H502 0.929 . S
C506 C508 1.378 . S
C506 C510 1.350 . S
C507 C510 1.463 . S
C507 C512 1.350 . S
C507 N515 1.427 . S
C508 H499 0.930 . S
C508 C506 1.378 . S
C508 C509 1.367 . S
C509 C508 1.367 . S
C509 C511 1.433 . S
C510 C506 1.350 . S
C510 C507 1.463 . S
C510 N514 1.427 . S
C511 H501 0.929 . S
C511 C509 1.433 . S
C511 N514 1.384 . S
C512 H503 0.929 . S
C512 C504 1.378 . S
C512 C507 1.350 . S
C513 H500 0.929 . S
C513 C505 1.433 . S
C513 N515 1.384 . S
N514 C510 1.427 . S
N514 C511 1.384 . S
N515 C507 1.427 . S
N515 C513 1.384 . S
H516 C522 0.930 1_554 S
H517 C526 0.930 . S
H518 C531 0.929 . S
H519 C529 0.929 . S
H520 C524 0.929 . S
H521 C530 0.929 . S
C522 H516 0.930 1_556 S
C522 C523 1.367 1_556 S
C522 C530 1.378 . S
C523 C522 1.367 1_554 S
C523 C531 1.433 1_554 S
C524 H520 0.929 . S
C524 C526 1.378 . S
C524 C528 1.350 . S
C525 C528 1.463 . S
C525 C530 1.350 . S
C525 N533 1.427 . S
C526 H517 0.930 . S
C526 C524 1.378 . S
C526 C527 1.367 . S
C527 C526 1.367 . S
C527 C529 1.433 . S
C528 C524 1.350 . S
C528 C525 1.463 . S
C528 N532 1.427 . S
C529 H519 0.929 . S
C529 C527 1.433 . S
C529 N532 1.384 . S
C530 H521 0.929 . S
C530 C522 1.378 . S
C530 C525 1.350 . S
C531 H518 0.929 . S
C531 C523 1.433 1_556 S
C531 N533 1.384 . S
N532 C528 1.427 . S
N532 C529 1.384 . S
N533 C525 1.427 . S
N533 C531 1.384 . S
H534 C540 0.930 . S
H535 C544 0.930 . S
H536 C549 0.929 . S
H537 C547 0.929 . S
H538 C542 0.929 . S
H539 C548 0.929 . S
C540 H534 0.930 . S
C540 C541 1.367 . S
C540 C548 1.378 . S
C541 C540 1.367 . S
C541 C549 1.433 . S
C542 H538 0.929 . S
C542 C544 1.378 . S
C542 C546 1.350 . S
C543 C546 1.463 . S
C543 C548 1.350 . S
C543 N551 1.427 . S
C544 H535 0.930 . S
C544 C542 1.378 . S
C544 C545 1.367 . S
C545 C544 1.367 . S
C545 C547 1.433 . S
C546 C542 1.350 . S
C546 C543 1.463 . S
C546 N550 1.427 . S
C547 H537 0.929 . S
C547 C545 1.433 . S
C547 N550 1.384 . S
C548 H539 0.929 . S
C548 C540 1.378 . S
C548 C543 1.350 . S
C549 H536 0.929 . S
C549 C541 1.433 . S
C549 N551 1.384 . S
N550 C546 1.427 . S
N550 C547 1.384 . S
N551 C543 1.427 . S
N551 C549 1.384 . S
H552 C558 0.930 . S
H553 C562 0.930 . S
H554 C567 0.929 . S
H555 C565 0.929 . S
H556 C560 0.929 . S
H557 C566 0.929 . S
C558 H552 0.930 . S
C558 C559 1.367 . S
C558 C566 1.378 . S
C559 C558 1.367 . S
C559 C567 1.433 . S
C560 H556 0.929 . S
C560 C562 1.378 . S
C560 C564 1.350 . S
C561 C564 1.463 . S
C561 C566 1.350 . S
C561 N569 1.427 . S
C562 H553 0.930 . S
C562 C560 1.378 . S
C562 C563 1.367 . S
C563 C562 1.367 . S
C563 C565 1.433 . S
C564 C560 1.350 . S
C564 C561 1.463 . S
C564 N568 1.427 . S
C565 H555 0.929 . S
C565 C563 1.433 . S
C565 N568 1.384 . S
C566 H557 0.929 . S
C566 C558 1.378 . S
C566 C561 1.350 . S
C567 H554 0.929 . S
C567 C559 1.433 . S
C567 N569 1.384 . S
N568 C564 1.427 . S
N568 C565 1.384 . S
N569 C561 1.427 . S
N569 C567 1.384 . S
H570 C576 0.930 . S
H571 C580 0.930 . S
H572 C585 0.929 1_556 S
H573 C583 0.929 . S
H574 C578 0.929 . S
H575 C584 0.929 . S
C576 H570 0.930 . S
C576 C577 1.367 1_554 S
C576 C584 1.378 . S
C577 C576 1.367 1_556 S
C577 C585 1.433 1_556 S
C578 H574 0.929 . S
C578 C580 1.378 . S
C578 C582 1.350 . S
C579 C582 1.463 . S
C579 C584 1.350 . S
C579 N587 1.427 . S
C580 H571 0.930 . S
C580 C578 1.378 . S
C580 C581 1.367 . S
C581 C580 1.367 . S
C581 C583 1.433 . S
C582 C578 1.350 . S
C582 C579 1.463 . S
C582 N586 1.427 . S
C583 H573 0.929 . S
C583 C581 1.433 . S
C583 N586 1.384 . S
C584 H575 0.929 . S
C584 C576 1.378 . S
C584 C579 1.350 . S
C585 H572 0.929 1_554 S
C585 C577 1.433 1_554 S
C585 N587 1.384 . S
N586 C582 1.427 . S
N586 C583 1.384 . S
N587 C579 1.427 . S
N587 C585 1.384 . S
H588 C594 0.930 . S
H589 C598 0.930 . S
H590 C603 0.929 . S
H591 C601 0.929 . S
H592 C596 0.929 . S
H593 C602 0.929 . S
C594 H588 0.930 . S
C594 C595 1.367 . S
C594 C602 1.378 . S
C595 C594 1.367 . S
C595 C603 1.433 . S
C596 H592 0.929 . S
C596 C598 1.378 . S
C596 C600 1.350 . S
C597 C600 1.463 . S
C597 C602 1.350 . S
C597 N605 1.427 . S
C598 H589 0.930 . S
C598 C596 1.378 . S
C598 C599 1.367 . S
C599 C598 1.367 . S
C599 C601 1.433 . S
C600 C596 1.350 . S
C600 C597 1.463 . S
C600 N604 1.427 . S
C601 H591 0.929 . S
C601 C599 1.433 . S
C601 N604 1.384 . S
C602 H593 0.929 . S
C602 C594 1.378 . S
C602 C597 1.350 . S
C603 H590 0.929 . S
C603 C595 1.433 . S
C603 N605 1.384 . S
N604 C600 1.427 . S
N604 C601 1.384 . S
N605 C597 1.427 . S
N605 C603 1.384 . S
H606 C612 0.930 . S
H607 C616 0.930 . S
H608 C621 0.929 . S
H609 C619 0.929 1_556 S
H610 C614 0.929 . S
H611 C620 0.929 . S
C612 H606 0.930 . S
C612 C613 1.367 . S
C612 C620 1.378 . S
C613 C612 1.367 . S
C613 C621 1.433 . S
C614 H610 0.929 . S
C614 C616 1.378 . S
C614 C618 1.350 . S
C615 C618 1.463 . S
C615 C620 1.350 . S
C615 N623 1.427 . S
C616 H607 0.930 . S
C616 C614 1.378 . S
C616 C617 1.367 1_554 S
C617 C616 1.367 1_556 S
C617 C619 1.433 1_556 S
C618 C614 1.350 . S
C618 C615 1.463 . S
C618 N622 1.427 . S
C619 H609 0.929 1_554 S
C619 C617 1.433 1_554 S
C619 N622 1.384 . S
C620 H611 0.929 . S
C620 C612 1.378 . S
C620 C615 1.350 . S
C621 H608 0.929 . S
C621 C613 1.433 . S
C621 N623 1.384 . S
N622 C618 1.427 . S
N622 C619 1.384 . S
N623 C615 1.427 . S
N623 C621 1.384 . S
C271 C249 1.194 . S
C275 C18 1.194 . S
C289 C150 1.188 . S
C293 C51 1.188 . S
C307 C84 1.197 . S
C311 C183 1.197 . S
C325 C216 1.195 . S
C329 C117 1.195 . S
C343 C7 1.455 . S
C347 C139 1.450 . S
C361 C172 1.459 . S
C365 C40 1.450 . S
C379 C205 1.453 . S
C383 C73 1.451 . S
C397 C238 1.459 . S
C401 C106 1.451 . S
C415 C252 1.493 . S
C419 C54 1.488 . S
C433 C87 1.487 . S
C437 C153 1.493 . S
C451 C120 1.489 . S
C455 C186 1.492 . S
C469 C219 1.493 . S
C473 C21 1.486 . S
C487 N13 1.244 . S
C491 N2 1.243 . S
C505 N35 1.242 . S
C509 N46 1.243 . S
C523 N68 1.242 . S
C527 N79 1.243 . S
C541 N112 1.242 . S
C545 N101 1.241 . S
C559 N134 1.235 . S
C563 N145 1.236 . S
C577 N167 1.234 . S
C581 N178 1.235 . S
C595 N200 1.242 . S
C599 N211 1.243 . S
C613 N244 1.236 . S
C617 N233 1.234 . S
