# Generated by pormake.
# Topology msp, (4)-cn, num edge types: 1
# Building blocks:
#     Node 0, Type 0, BuildingBlock: GALJAG_clean_sbu_0, # of connection points: 4
#     Node 1, Type 0, BuildingBlock: GALJAG_clean_sbu_0, # of connection points: 4
#     Node 2, Type 0, BuildingBlock: GALJAG_clean_sbu_0, # of connection points: 4
#     Node 3, Type 0, BuildingBlock: GALJAG_clean_sbu_0, # of connection points: 4
#     Node 4, Type 0, BuildingBlock: GALJAG_clean_sbu_0, # of connection points: 4
#     Node 5, Type 0, BuildingBlock: GALJAG_clean_sbu_0, # of connection points: 4
#     Node 6, Type 0, BuildingBlock: GALJAG_clean_sbu_0, # of connection points: 4
#     Node 7, Type 0, BuildingBlock: GALJAG_clean_sbu_0, # of connection points: 4
#     Edge 8, Type (0, 0), BuildingBlock: UVAHIK_clean_linker_0, # of connection points: 2
#     Edge 9, Type (0, 0), BuildingBlock: UVAHIK_clean_linker_0, # of connection points: 2
#     Edge 10, Type (0, 0), BuildingBlock: UVAHIK_clean_linker_0, # of connection points: 2
#     Edge 11, Type (0, 0), BuildingBlock: UVAHIK_clean_linker_0, # of connection points: 2
#     Edge 12, Type (0, 0), BuildingBlock: UVAHIK_clean_linker_0, # of connection points: 2
#     Edge 13, Type (0, 0), BuildingBlock: UVAHIK_clean_linker_0, # of connection points: 2
#     Edge 14, Type (0, 0), BuildingBlock: UVAHIK_clean_linker_0, # of connection points: 2
#     Edge 15, Type (0, 0), BuildingBlock: UVAHIK_clean_linker_0, # of connection points: 2
#     Edge 16, Type (0, 0), BuildingBlock: UVAHIK_clean_linker_0, # of connection points: 2
#     Edge 17, Type (0, 0), BuildingBlock: UVAHIK_clean_linker_0, # of connection points: 2
#     Edge 18, Type (0, 0), BuildingBlock: UVAHIK_clean_linker_0, # of connection points: 2
#     Edge 19, Type (0, 0), BuildingBlock: UVAHIK_clean_linker_0, # of connection points: 2
#     Edge 20, Type (0, 0), BuildingBlock: UVAHIK_clean_linker_0, # of connection points: 2
#     Edge 21, Type (0, 0), BuildingBlock: UVAHIK_clean_linker_0, # of connection points: 2
#     Edge 22, Type (0, 0), BuildingBlock: UVAHIK_clean_linker_0, # of connection points: 2
#     Edge 23, Type (0, 0), BuildingBlock: UVAHIK_clean_linker_0, # of connection points: 2
# Relax obj value: 0.108
# Max RMSD: 0.183
# Mean RMSD: 0.183
data_MOF--net-msp--node1-GALJAG_clean_sbu_0--edge1-UVAHIK_clean_linker_0
_symmetry_space_group_name_H-M    P1
_symmetry_Int_Tables_number       1
_symmetry_cell_setting            triclinic
loop_
_symmetry_equiv_pos_as_xyz
'x, y, z'
_cell_length_a     27.871941
_cell_length_b     27.453569
_cell_length_c     56.11766
_cell_angle_alpha  90.035102
_cell_angle_beta   99.627992
_cell_angle_gamma 89.955257
loop_
_atom_site_label
_atom_site_type_symbol
_atom_site_fract_x
_atom_site_fract_y
_atom_site_fract_z
_atom_type_partial_charge
In0 In 0.03895 0.25638 0.37396 0.0
O1 O 0.97042 0.21639 0.35588 0.0
O2 O 0.97429 0.29308 0.35117 0.0
C3 C 0.08794 0.18426 0.40015 0.0
C4 C 0.09105 0.26229 0.3379 0.0
C5 C 0.03169 0.32379 0.40832 0.0
O6 O 0.04233 0.18851 0.39827 0.0
O7 O 0.10811 0.21601 0.38904 0.0
O8 O 0.05528 0.33159 0.39132 0.0
O9 O 0.01232 0.28225 0.40794 0.0
C10 C 0.95033 0.25442 0.34617 0.0
O11 O 0.09479 0.29384 0.35459 0.0
O12 O 0.06088 0.22863 0.33945 0.0
In13 In 0.45673 0.25743 0.62272 0.0
O14 O 0.52549 0.21825 0.64111 0.0
O15 O 0.5183 0.294 0.64777 0.0
C16 C 0.40995 0.18797 0.59384 0.0
C17 C 0.40153 0.25941 0.65764 0.0
C18 C 0.46721 0.32606 0.58951 0.0
O19 O 0.4558 0.1883 0.5995 0.0
O20 O 0.38854 0.22225 0.60271 0.0
O21 O 0.43961 0.33203 0.605 0.0
O22 O 0.48932 0.2858 0.5909 0.0
C23 C 0.54347 0.25588 0.65215 0.0
O24 O 0.40198 0.29434 0.64297 0.0
O25 O 0.42891 0.22409 0.65462 0.0
In26 In 0.95654 0.74728 0.6232 0.0
O27 O 0.90053 0.7095 0.64234 0.0
O28 O 0.9347 0.77425 0.65789 0.0
C29 C 0.96381 0.68007 0.58875 0.0
C30 C 0.04518 0.74912 0.651 0.0
C31 C 0.90759 0.81961 0.59713 0.0
O32 O 0.94026 0.67216 0.60575 0.0
O33 O 0.98316 0.72163 0.58918 0.0
O34 O 0.95318 0.81522 0.59893 0.0
O35 O 0.88743 0.78793 0.60828 0.0
C36 C 0.9044 0.74062 0.65923 0.0
O37 O 0.02493 0.78726 0.6415 0.0
O38 O 0.02137 0.71044 0.64579 0.0
In39 In 0.53894 0.74934 0.37441 0.0
O40 O 0.47038 0.7882 0.35547 0.0
O41 O 0.4772 0.71203 0.34982 0.0
C42 C 0.58561 0.81923 0.40305 0.0
C43 C 0.59423 0.74622 0.33954 0.0
C44 C 0.52866 0.68137 0.40794 0.0
O45 O 0.53975 0.81865 0.39752 0.0
O46 O 0.60709 0.78508 0.39413 0.0
O47 O 0.55623 0.67512 0.39246 0.0
O48 O 0.50647 0.7216 0.40638 0.0
C49 C 0.45222 0.75013 0.34492 0.0
O50 O 0.59379 0.71175 0.35447 0.0
O51 O 0.5668 0.78167 0.34227 0.0
In52 In 0.5386 0.75419 0.87418 0.0
O53 O 0.59513 0.7916 0.85523 0.0
O54 O 0.56062 0.72711 0.83955 0.0
C55 C 0.53154 0.82155 0.90859 0.0
C56 C 0.4501 0.75275 0.84623 0.0
C57 C 0.58679 0.68151 0.90031 0.0
O58 O 0.55517 0.8293 0.89161 0.0
O59 O 0.51201 0.78008 0.90817 0.0
O60 O 0.54125 0.68638 0.89849 0.0
O61 O 0.60729 0.7129 0.88915 0.0
C62 C 0.59121 0.76053 0.83832 0.0
O63 O 0.47012 0.71454 0.85576 0.0
O64 O 0.47406 0.79132 0.85148 0.0
In65 In 0.95608 0.75211 0.12233 0.0
O66 O 0.02488 0.71329 0.14104 0.0
O67 O 0.01822 0.78951 0.1466 0.0
C68 C 0.90887 0.68212 0.09396 0.0
C69 C 0.90132 0.7555 0.15742 0.0
C70 C 0.96596 0.8199 0.08865 0.0
O71 O 0.95476 0.68253 0.09939 0.0
O72 O 0.88765 0.71651 0.10284 0.0
O73 O 0.9391 0.82649 0.10441 0.0
O74 O 0.98762 0.77939 0.08998 0.0
C75 C 0.04323 0.75142 0.15145 0.0
O76 O 0.90143 0.78978 0.14235 0.0
O77 O 0.92884 0.7201 0.15472 0.0
In78 In 0.45709 0.2463 0.123 0.0
O79 O 0.40074 0.20913 0.14216 0.0
O80 O 0.43491 0.27409 0.15745 0.0
C81 C 0.46418 0.17876 0.08868 0.0
C82 C 0.54556 0.24792 0.15095 0.0
C83 C 0.40881 0.31873 0.09674 0.0
O84 O 0.44052 0.1711 0.10566 0.0
O85 O 0.48372 0.22021 0.08906 0.0
O86 O 0.45438 0.31403 0.09864 0.0
O87 O 0.38832 0.28727 0.10787 0.0
C88 C 0.40448 0.24062 0.15887 0.0
O89 O 0.52567 0.28601 0.14122 0.0
O90 O 0.52148 0.20935 0.1459 0.0
In91 In 0.03939 0.24493 0.87463 0.0
O92 O 0.09398 0.20796 0.8543 0.0
O93 O 0.06676 0.27806 0.84254 0.0
C94 C 0.02911 0.1764 0.90791 0.0
C95 C 0.95229 0.24666 0.8455 0.0
C96 C 0.08673 0.31434 0.90333 0.0
O97 O 0.05604 0.1701 0.89215 0.0
O98 O 0.00759 0.21697 0.90676 0.0
O99 O 0.04087 0.31427 0.89773 0.0
O100 O 0.10789 0.27982 0.8945 0.0
C101 C 0.0942 0.24278 0.83954 0.0
O102 O 0.97051 0.28426 0.85648 0.0
O103 O 0.97743 0.20849 0.84979 0.0
C104 C -6e-05 0.34877 0.44559 0.0
C105 C 0.02616 0.36038 0.42704 0.0
C106 C 0.9936 0.38328 0.4631 0.0
C107 C 0.99488 0.51581 0.47433 0.0
H108 H 0.00417 0.4769 0.54138 0.0
C109 C 0.99559 0.65524 0.55146 0.0
C110 C 0.96938 0.64355 0.57 0.0
C111 C 0.00199 0.62077 0.53394 0.0
C112 C 0.00085 0.48824 0.52269 0.0
H113 H 0.06659 0.41719 0.41237 0.0
H114 H 0.05583 0.47757 0.4431 0.0
H115 H 0.01764 0.41681 0.51116 0.0
H116 H 0.92898 0.58666 0.58464 0.0
H117 H 0.93983 0.52637 0.55388 0.0
H118 H 0.97809 0.58724 0.48586 0.0
C119 C 0.03971 0.44186 0.44395 0.0
C120 C 0.00865 0.45381 0.50537 0.0
C121 C 0.04615 0.40722 0.42643 0.0
C122 C 0.94943 0.59669 0.57059 0.0
C123 C 0.95591 0.5621 0.55306 0.0
C124 C 0.98709 0.55024 0.49166 0.0
C125 C 0.01327 0.43031 0.46247 0.0
C126 C 0.00573 0.46716 0.48097 0.0
C127 C 0.98237 0.57372 0.53455 0.0
C128 C 0.98998 0.53689 0.51605 0.0
H129 H 0.98397 0.313 0.44653 0.0
H130 H 0.9725 0.37334 0.4769 0.0
H131 H 0.99157 0.52715 0.45564 0.0
H132 H 0.01153 0.69103 0.55055 0.0
H133 H 0.0231 0.63076 0.52015 0.0
C134 C 0.54781 0.60023 0.4278 0.0
C135 C 0.52259 0.64472 0.42651 0.0
C136 C 0.54188 0.56581 0.44546 0.0
C137 C 0.45786 0.52979 0.48691 0.0
H138 H 0.57004 0.45982 0.52042 0.0
C139 C 0.44817 0.4075 0.56994 0.0
C140 C 0.47337 0.36302 0.5711 0.0
C141 C 0.45416 0.44217 0.5524 0.0
C142 C 0.53825 0.47867 0.51105 0.0
H143 H 0.47154 0.68815 0.44273 0.0
H144 H 0.46155 0.62841 0.47361 0.0
H145 H 0.58052 0.51925 0.48943 0.0
H146 H 0.52446 0.31985 0.55478 0.0
H147 H 0.53455 0.37999 0.52411 0.0
H148 H 0.41559 0.4892 0.50853 0.0
C149 C 0.48541 0.61974 0.46082 0.0
C150 C 0.54427 0.51272 0.49328 0.0
C151 C 0.49136 0.65411 0.4432 0.0
C152 C 0.50465 0.35388 0.5544 0.0
C153 C 0.51067 0.38849 0.53691 0.0
C154 C 0.45185 0.49575 0.50469 0.0
C155 C 0.51056 0.57516 0.46217 0.0
C156 C 0.50414 0.53869 0.48098 0.0
C157 C 0.48553 0.43306 0.53568 0.0
C158 C 0.49196 0.46973 0.51696 0.0
H159 H 0.57205 0.59194 0.41514 0.0
H160 H 0.56137 0.5316 0.44582 0.0
H161 H 0.42607 0.54863 0.47754 0.0
H162 H 0.42388 0.4156 0.58261 0.0
H163 H 0.43467 0.47636 0.55213 0.0
C164 C 0.44958 0.09529 0.07063 0.0
C165 C 0.46964 0.14209 0.06998 0.0
C166 C 0.45596 0.06057 0.05315 0.0
C167 C 0.48703 0.04827 0.99175 0.0
H168 H 0.51746 0.9149 0.0114 0.0
C169 C 0.54609 0.90497 0.92668 0.0
C170 C 0.52606 0.85815 0.92731 0.0
C171 C 0.53967 0.93966 0.94418 0.0
C172 C 0.50851 0.95188 0.00556 0.0
H173 H 0.51189 0.18931 0.05045 0.0
H174 H 0.52327 0.12882 0.02013 0.0
H175 H 0.50404 0.97515 0.04155 0.0
H176 H 0.48383 0.81086 0.94682 0.0
H177 H 0.47238 0.87129 0.97716 0.0
H178 H 0.49149 0.025 0.95576 0.0
C179 C 0.50216 0.11898 0.03394 0.0
C180 C 0.50074 0.98641 0.02285 0.0
C181 C 0.49587 0.15358 0.05142 0.0
C182 C 0.49983 0.8466 0.94587 0.0
C183 C 0.4935 0.88117 0.96336 0.0
C184 C 0.4948 0.01374 0.97446 0.0
C185 C 0.48243 0.07199 0.03461 0.0
C186 C 0.48993 0.03504 0.01616 0.0
C187 C 0.51318 0.92818 0.9627 0.0
C188 C 0.50562 0.96511 0.98115 0.0
H189 H 0.42912 0.08541 0.08471 0.0
H190 H 0.4398 0.02489 0.05402 0.0
H191 H 0.47808 0.08525 0.98591 0.0
H192 H 0.56655 0.9149 0.91262 0.0
H193 H 0.5558 0.97535 0.94332 0.0
C194 C 0.94782 0.90161 0.06925 0.0
C195 C 0.97193 0.85654 0.07007 0.0
C196 C 0.95387 0.93614 0.05166 0.0
C197 C 0.99218 0.94858 0.9919 0.0
H198 H 0.00777 0.08485 0.00968 0.0
C199 C 0.04711 0.0944 0.92705 0.0
C200 C 0.023 0.13946 0.92633 0.0
C201 C 0.04106 0.0597 0.94456 0.0
C202 C 0.00296 0.04701 0.00435 0.0
H203 H 0.02128 0.81228 0.05313 0.0
H204 H 0.03215 0.87257 0.02264 0.0
H205 H 0.9962 0.0248 0.0402 0.0
H206 H 0.97358 0.18347 0.94334 0.0
H207 H 0.96271 0.12291 0.97369 0.0
H208 H -0.00106 0.97081 0.95605 0.0
C209 C 0.0081 0.8811 0.03536 0.0
C210 C 0.99628 0.01259 0.02185 0.0
C211 C 0.0021 0.84666 0.05294 0.0
C212 C 0.99277 0.14913 0.94346 0.0
C213 C 0.98677 0.11452 0.96096 0.0
C214 C -0.00114 0.98301 0.9744 0.0
C215 C 0.9841 0.92627 0.0345 0.0
C216 C 0.99081 0.96296 0.01584 0.0
C217 C 0.01085 0.06939 0.96174 0.0
C218 C 0.00428 0.03264 0.98041 0.0
H219 H 0.92424 0.9102 0.08218 0.0
H220 H 0.93441 0.97035 0.05133 0.0
H221 H 0.98737 0.91074 0.98658 0.0
H222 H 0.07073 0.08598 0.91411 0.0
H223 H 0.06056 0.02551 0.94483 0.0
C224 C 0.61049 0.20481 0.17911 0.0
C225 C 0.59088 0.24861 0.1688 0.0
C226 C 0.65003 0.20531 0.19799 0.0
C227 C 0.75021 0.28195 0.22904 0.0
H228 H 0.74284 0.19602 0.28319 0.0
C229 C 0.88517 0.29731 0.31806 0.0
C230 C 0.90494 0.25357 0.32836 0.0
C231 C 0.84562 0.29669 0.2992 0.0
C232 C 0.74566 0.21988 0.26812 0.0
H233 H 0.59821 0.32721 0.16959 0.0
H234 H 0.66731 0.32817 0.20271 0.0
H235 H 0.67809 0.19484 0.24811 0.0
H236 H 0.89787 0.17495 0.32759 0.0
H237 H 0.82874 0.17379 0.29448 0.0
H238 H 0.81777 0.30699 0.24906 0.0
C239 C 0.6523 0.2934 0.19607 0.0
C240 C 0.70863 0.21916 0.248 0.0
C241 C 0.6127 0.29288 0.17714 0.0
C242 C 0.88326 0.20923 0.32004 0.0
C243 C 0.84363 0.2086 0.30111 0.0
C244 C 0.78723 0.28267 0.24916 0.0
C245 C 0.6708 0.24963 0.207 0.0
C246 C 0.71051 0.25016 0.22822 0.0
C247 C 0.825 0.25231 0.29019 0.0
C248 C 0.78534 0.25169 0.26894 0.0
H249 H 0.59457 0.17008 0.17298 0.0
H250 H 0.66404 0.17094 0.2057 0.0
H251 H 0.75304 0.30581 0.21398 0.0
H252 H 0.90098 0.3321 0.32419 0.0
H253 H 0.83149 0.33102 0.29148 0.0
C254 C 0.60565 0.29822 0.68218 0.0
C255 C 0.58839 0.25506 0.67028 0.0
C256 C 0.64554 0.29727 0.70086 0.0
C257 C 0.71228 0.21475 0.74627 0.0
H258 H 0.81014 0.31645 0.75338 0.0
C259 C 0.88966 0.20444 0.81568 0.0
C260 C 0.90714 0.24756 0.82753 0.0
C261 C 0.84957 0.20547 0.7971 0.0
C262 C 0.78273 0.28816 0.75182 0.0
H263 H 0.60012 0.17723 0.66812 0.0
H264 H 0.67037 0.1756 0.70068 0.0
H265 H 0.74456 0.31745 0.71866 0.0
H266 H 0.8956 0.3254 0.82976 0.0
H267 H 0.825 0.32719 0.79738 0.0
H268 H 0.75046 0.18545 0.77943 0.0
C269 C 0.65256 0.21008 0.69575 0.0
C270 C 0.74526 0.28863 0.73189 0.0
C271 C 0.61262 0.21105 0.677 0.0
C272 C 0.88292 0.29161 0.82091 0.0
C273 C 0.84279 0.29266 0.80226 0.0
C274 C 0.74974 0.21427 0.7662 0.0
C275 C 0.66906 0.25311 0.70808 0.0
C276 C 0.70963 0.25193 0.72889 0.0
C277 C 0.82608 0.24967 0.78995 0.0
C278 C 0.7854 0.25096 0.76919 0.0
H279 H 0.58763 0.33269 0.67744 0.0
H280 H 0.65701 0.33096 0.71014 0.0
H281 H 0.68488 0.18644 0.74471 0.0
H282 H 0.90766 0.16993 0.82035 0.0
H283 H 0.83795 0.17181 0.78783 0.0
C284 C 0.11061 0.7059 0.6788 0.0
C285 C 0.09058 0.74979 0.66881 0.0
C286 C 0.15017 0.70625 0.69766 0.0
C287 C 0.24971 0.78293 0.72929 0.0
H288 H 0.24295 0.69511 0.78278 0.0
C289 C 0.38493 0.79621 0.81837 0.0
C290 C 0.40477 0.75225 0.82837 0.0
C291 C 0.34538 0.79598 0.79949 0.0
C292 C 0.2456 0.7195 0.76789 0.0
H293 H 0.09719 0.82844 0.67015 0.0
H294 H 0.16634 0.82913 0.70326 0.0
H295 H 0.17818 0.69452 0.74771 0.0
H296 H 0.39786 0.67363 0.82703 0.0
H297 H 0.32877 0.67315 0.7939 0.0
H298 H 0.31715 0.80789 0.74947 0.0
C299 C 0.15164 0.79441 0.69638 0.0
C300 C 0.20856 0.71913 0.74778 0.0
C301 C 0.11201 0.79405 0.67745 0.0
C302 C 0.38319 0.70807 0.81972 0.0
C303 C 0.34358 0.70783 0.80078 0.0
C304 C 0.28676 0.78329 0.7494 0.0
C305 C 0.17054 0.75051 0.70699 0.0
C306 C 0.21023 0.75079 0.72823 0.0
C307 C 0.32484 0.75179 0.79017 0.0
C308 C 0.28511 0.75161 0.76894 0.0
H309 H 0.095 0.67118 0.67243 0.0
H310 H 0.1645 0.6718 0.70513 0.0
H311 H 0.25235 0.80732 0.7144 0.0
H312 H 0.40067 0.83087 0.82474 0.0
H313 H 0.33118 0.83048 0.79203 0.0
C314 C 0.38376 0.79417 0.3191 0.0
C315 C 0.40736 0.75031 0.32674 0.0
C316 C 0.34393 0.79431 0.30028 0.0
C317 C 0.28867 0.72126 0.2476 0.0
H318 H 0.17606 0.80338 0.24918 0.0
C319 C 0.11204 0.7075 0.17708 0.0
C320 C 0.08836 0.75133 0.16946 0.0
C321 C 0.15207 0.70746 0.1958 0.0
C322 C 0.20753 0.78067 0.24834 0.0
H323 H 0.40687 0.67206 0.32129 0.0
H324 H 0.33708 0.67224 0.28876 0.0
H325 H 0.24244 0.80316 0.28352 0.0
H326 H 0.08894 0.82962 0.17479 0.0
H327 H 0.15906 0.82959 0.20713 0.0
H328 H 0.25373 0.69875 0.21243 0.0
C329 C 0.34981 0.70662 0.29695 0.0
C330 C 0.24551 0.78052 0.26803 0.0
C331 C 0.38956 0.70649 0.31571 0.0
C332 C 0.10631 0.79521 0.18036 0.0
C333 C 0.14625 0.79517 0.19902 0.0
C334 C 0.25068 0.7214 0.22791 0.0
C335 C 0.327 0.75058 0.28876 0.0
C336 C 0.28649 0.75077 0.26789 0.0
C337 C 0.16911 0.75125 0.20723 0.0
C338 C 0.2097 0.75114 0.22805 0.0
H339 H 0.39684 0.8285 0.32722 0.0
H340 H 0.32736 0.82883 0.29426 0.0
H341 H 0.32013 0.69853 0.24677 0.0
H342 H 0.09886 0.67313 0.16905 0.0
H343 H 0.1687 0.67297 0.20183 0.0
C344 C 0.33687 0.20578 0.17792 0.0
C345 C 0.37392 0.24041 0.17797 0.0
C346 C 0.30632 0.20785 0.19531 0.0
C347 C 0.26177 0.2937 0.23738 0.0
H348 H 0.22299 0.1764 0.26753 0.0
C349 C 0.15831 0.29732 0.31866 0.0
C350 C 0.12136 0.26262 0.31869 0.0
C351 C 0.18869 0.29532 0.30119 0.0
C352 C 0.23304 0.20946 0.25907 0.0
H353 H 0.40891 0.30359 0.19656 0.0
H354 H 0.35617 0.30679 0.22699 0.0
H355 H 0.27735 0.17044 0.23783 0.0
H356 H 0.08633 0.1994 0.30016 0.0
H357 H 0.13875 0.19631 0.2696 0.0
H358 H 0.21746 0.33272 0.25862 0.0
C359 C 0.35005 0.27857 0.21332 0.0
C360 C 0.2642 0.20602 0.24206 0.0
C361 C 0.38048 0.27651 0.19598 0.0
C362 C 0.11469 0.22653 0.30068 0.0
C363 C 0.14494 0.22454 0.28326 0.0
C364 C 0.23061 0.29714 0.25439 0.0
C365 C 0.31229 0.24461 0.21305 0.0
C366 C 0.27896 0.2481 0.23104 0.0
C367 C 0.18263 0.25855 0.28346 0.0
C368 C 0.21586 0.25506 0.26542 0.0
H369 H 0.33089 0.17764 0.16421 0.0
H370 H 0.2773 0.18138 0.19451 0.0
H371 H 0.27184 0.32676 0.22893 0.0
H372 H 0.16437 0.32545 0.33237 0.0
H373 H 0.21766 0.32183 0.30194 0.0
C374 C 0.33893 0.29766 0.67901 0.0
C375 C 0.37068 0.25891 0.67661 0.0
C376 C 0.30907 0.29618 0.69671 0.0
C377 C 0.29627 0.23627 0.75428 0.0
H378 H 0.16152 0.27684 0.73783 0.0
C379 C 0.15668 0.20449 0.81811 0.0
C380 C 0.1249 0.24322 0.82051 0.0
C381 C 0.18647 0.20594 0.80038 0.0
C382 C 0.19919 0.26582 0.74278 0.0
H383 H 0.39632 0.18838 0.69085 0.0
H384 H 0.34411 0.18567 0.72152 0.0
H385 H 0.21453 0.28155 0.70747 0.0
H386 H 0.09913 0.31367 0.80622 0.0
H387 H 0.15123 0.31635 0.7755 0.0
H388 H 0.28093 0.22055 0.78959 0.0
C389 C 0.34258 0.21744 0.70998 0.0
C390 C 0.22957 0.26861 0.72539 0.0
C391 C 0.3723 0.21889 0.69231 0.0
C392 C 0.12317 0.28318 0.80477 0.0
C393 C 0.15283 0.28461 0.78707 0.0
C394 C 0.26589 0.23349 0.77167 0.0
C395 C 0.31053 0.25598 0.71236 0.0
C396 C 0.27844 0.25384 0.73094 0.0
C397 C 0.18493 0.2461 0.78471 0.0
C398 C 0.21701 0.24826 0.76611 0.0
H399 H 0.33698 0.329 0.66718 0.0
H400 H 0.28514 0.3267 0.69827 0.0
H401 H 0.33394 0.22525 0.75922 0.0
H402 H 0.15871 0.17319 0.82998 0.0
H403 H 0.21044 0.17545 0.79883 0.0
C404 C 0.61466 0.72574 0.80085 0.0
C405 C 0.62168 0.76115 0.81919 0.0
C406 C 0.64494 0.72409 0.78343 0.0
C407 C 0.7667 0.7605 0.77306 0.0
H408 H 0.71404 0.73318 0.70596 0.0
C409 C 0.88118 0.77521 0.69679 0.0
C410 C 0.87413 0.73982 0.67844 0.0
C411 C 0.85102 0.77674 0.71427 0.0
C412 C 0.72937 0.7402 0.72468 0.0
H413 H 0.66534 0.82318 0.83345 0.0
H414 H 0.71822 0.82059 0.80279 0.0
H415 H 0.65921 0.74027 0.7354 0.0
H416 H 0.83059 0.67769 0.66423 0.0
H417 H 0.7779 0.68008 0.69498 0.0
H418 H 0.83686 0.76045 0.76234 0.0
C419 C 0.68957 0.79375 0.80209 0.0
C420 C 0.69796 0.7444 0.74154 0.0
C421 C 0.65912 0.79546 0.81953 0.0
C422 C 0.83682 0.70539 0.67816 0.0
C423 C 0.80648 0.70699 0.69565 0.0
C424 C 0.79811 0.75631 0.75621 0.0
C425 C 0.683 0.75779 0.78395 0.0
C426 C 0.71626 0.75458 0.76592 0.0
C427 C 0.81304 0.74295 0.71378 0.0
C428 C 0.7798 0.74613 0.73182 0.0
H429 H 0.58615 0.69872 0.80014 0.0
H430 H 0.63925 0.69561 0.76989 0.0
H431 H 0.78202 0.76752 0.79179 0.0
H432 H 0.9096 0.80231 0.69746 0.0
H433 H 0.8567 0.80522 0.72781 0.0
C434 C 0.83875 0.79463 0.17849 0.0
C435 C 0.87065 0.75581 0.17647 0.0
C436 C 0.80901 0.79391 0.19625 0.0
C437 C 0.79658 0.73643 0.25446 0.0
H438 H 0.6617 0.77638 0.23765 0.0
C439 C 0.65698 0.70719 0.31854 0.0
C440 C 0.6251 0.74602 0.32058 0.0
C441 C 0.68683 0.70798 0.30084 0.0
C442 C 0.69941 0.76556 0.24269 0.0
H443 H 0.89669 0.68596 0.19144 0.0
H444 H 0.84465 0.68454 0.22222 0.0
H445 H 0.71463 0.77977 0.20721 0.0
H446 H 0.59925 0.81599 0.30568 0.0
H447 H 0.65146 0.81751 0.27498 0.0
H448 H 0.78133 0.72219 0.28993 0.0
C449 C 0.84292 0.7158 0.21034 0.0
C450 C 0.72974 0.76758 0.22527 0.0
C451 C 0.87254 0.71649 0.19261 0.0
C452 C 0.62337 0.78544 0.30451 0.0
C453 C 0.65309 0.7862 0.28682 0.0
C454 C 0.76624 0.7344 0.27188 0.0
C455 C 0.81071 0.7544 0.21232 0.0
C456 C 0.77866 0.75303 0.23095 0.0
C457 C 0.68526 0.74756 0.28481 0.0
C458 C 0.71732 0.74896 0.2662 0.0
H459 H 0.8366 0.82544 0.16632 0.0
H460 H 0.78495 0.82447 0.1975 0.0
H461 H 0.83428 0.7256 0.2595 0.0
H462 H 0.65901 0.6763 0.33067 0.0
H463 H 0.71086 0.6774 0.29957 0.0
C464 C 0.40573 0.12939 0.55932 0.0
C465 C 0.3829 0.15344 0.57647 0.0
C466 C 0.37775 0.10509 0.53986 0.0
C467 C 0.25129 0.06653 0.51368 0.0
H468 H 0.28037 0.1303 0.45625 0.0
C469 C 0.10469 0.13737 0.43865 0.0
C470 C 0.11704 0.14888 0.41612 0.0
C471 C 0.13867 0.11447 0.45628 0.0
C472 C 0.27194 0.11063 0.47174 0.0
H473 H 0.31392 0.1668 0.5883 0.0
H474 H 0.26534 0.12464 0.55458 0.0
H475 H 0.34048 0.13002 0.49252 0.0
H476 H 0.17142 0.14045 0.39305 0.0
H477 H 0.2296 0.09792 0.42319 0.0
H478 H 0.18162 0.04917 0.49306 0.0
C479 C 0.30457 0.12431 0.55594 0.0
C480 C 0.30674 0.11056 0.49269 0.0
C481 C 0.33237 0.14896 0.57515 0.0
C482 C 0.16148 0.1325 0.4105 0.0
C483 C 0.1949 0.10849 0.42785 0.0
C484 C 0.2165 0.06616 0.49258 0.0
C485 C 0.32668 0.10405 0.53749 0.0
C486 C 0.29588 0.09077 0.51422 0.0
C487 C 0.18519 0.10193 0.45145 0.0
C488 C 0.22547 0.09049 0.4717 0.0
H489 H 0.44471 0.13215 0.56001 0.0
H490 H 0.39577 0.08949 0.52597 0.0
H491 H 0.24222 0.05036 0.52996 0.0
H492 H 0.0706 0.14983 0.44337 0.0
H493 H 0.12973 0.1104 0.47421 0.0
C494 C 0.83397 0.87128 0.58677 0.0
C495 C 0.8785 0.85504 0.58118 0.0
C496 C 0.80062 0.89541 0.56943 0.0
C497 C 0.77941 0.93876 0.50488 0.0
H498 H 0.65521 0.87508 0.50452 0.0
C499 C 0.66316 0.8583 0.42175 0.0
C500 C 0.61265 0.8537 0.42047 0.0
C501 C 0.69106 0.8825 0.44109 0.0
C502 C 0.68901 0.8945 0.50447 0.0
H503 H 0.9251 0.85443 0.55399 0.0
H504 H 0.86608 0.89411 0.52318 0.0
H505 H 0.71525 0.87392 0.54081 0.0
H506 H 0.55096 0.87441 0.43715 0.0
H507 H 0.60003 0.91634 0.47139 0.0
H508 H 0.75379 0.95547 0.46759 0.0
C509 C 0.85704 0.88982 0.54108 0.0
C510 C 0.72377 0.89391 0.52544 0.0
C511 C 0.89095 0.86678 0.5587 0.0
C512 C 0.58991 0.87729 0.43779 0.0
C513 C 0.61798 0.90115 0.45738 0.0
C514 C 0.74464 0.93893 0.48376 0.0
C515 C 0.81047 0.90226 0.54587 0.0
C516 C 0.77031 0.91402 0.52562 0.0
C517 C 0.66905 0.90219 0.45971 0.0
C518 C 0.69995 0.91479 0.48307 0.0
H519 H 0.82394 0.86316 0.60418 0.0
H520 H 0.76586 0.90589 0.57407 0.0
H521 H 0.81434 0.95572 0.50451 0.0
H522 H 0.68154 0.84081 0.40848 0.0
H523 H 0.73028 0.8822 0.4424 0.0
C524 C 0.83102 0.64334 0.07549 0.0
C525 C 0.88155 0.64754 0.0767 0.0
C526 C 0.80291 0.61895 0.05627 0.0
C527 C 0.80475 0.60554 0.99294 0.0
H528 H 0.6789 0.54568 0.99324 0.0
C529 C 0.6598 0.629 0.91071 0.0
C530 C 0.6155 0.64589 0.91631 0.0
C531 C 0.69294 0.6047 0.92808 0.0
C532 C 0.71398 0.56224 0.99278 0.0
H533 H 0.94304 0.62589 0.06009 0.0
H534 H 0.8936 0.58362 0.02608 0.0
H535 H 0.73955 0.54604 0.03014 0.0
H536 H 0.56903 0.64745 0.94354 0.0
H537 H 0.6277 0.6075 0.9744 0.0
H538 H 0.77861 0.62564 0.95653 0.0
C539 C 0.8758 0.59929 0.04003 0.0
C540 C 0.7488 0.56215 0.01388 0.0
C541 C 0.90407 0.62335 0.05948 0.0
C542 C 0.60301 0.6346 0.93883 0.0
C543 C 0.63672 0.61141 0.95648 0.0
C544 C 0.76994 0.60607 0.97199 0.0
C545 C 0.82472 0.59865 0.03773 0.0
C546 C 0.79369 0.58584 0.01444 0.0
C547 C 0.68311 0.59833 0.95167 0.0
C548 C 0.72324 0.58647 0.97193 0.0
H549 H 0.81279 0.66128 0.08869 0.0
H550 H 0.7637 0.61957 0.05498 0.0
H551 H 0.83872 0.6246 0.99278 0.0
H552 H 0.66985 0.63676 0.89326 0.0
H553 H 0.72754 0.59373 0.92343 0.0
C554 C 0.33581 0.37121 0.08631 0.0
C555 C 0.38007 0.35425 0.08071 0.0
C556 C 0.30259 0.3953 0.0689 0.0
C557 C 0.28116 0.4366 0.004 0.0
H558 H 0.15673 0.3739 0.0044 0.0
C559 C 0.16463 0.35296 0.92186 0.0
C560 C 0.11406 0.34893 0.92057 0.0
C561 C 0.19262 0.37779 0.94096 0.0
C562 C 0.1906 0.39304 0.00413 0.0
H563 H 0.42642 0.35237 0.05343 0.0
H564 H 0.3676 0.39194 0.0225 0.0
H565 H 0.21687 0.37386 0.04065 0.0
H566 H 0.05243 0.37115 0.93693 0.0
H567 H 0.10169 0.41413 0.97077 0.0
H568 H 0.2555 0.4518 0.96655 0.0
C569 C 0.35867 0.38826 0.04045 0.0
C570 C 0.22543 0.39311 0.02507 0.0
C571 C 0.39247 0.36529 0.05813 0.0
C572 C 0.09142 0.37357 0.93761 0.0
C573 C 0.11959 0.39805 0.95695 0.0
C574 C 0.24633 0.43608 0.98291 0.0
C575 C 0.31229 0.40137 0.04527 0.0
C576 C 0.27205 0.41281 0.025 0.0
C577 C 0.17066 0.39868 0.95931 0.0
C578 C 0.20158 0.41223 0.98251 0.0
H579 H 0.32584 0.36364 0.10379 0.0
H580 H 0.268 0.40632 0.07355 0.0
H581 H 0.31615 0.45324 0.00343 0.0
H582 H 0.18294 0.33468 0.9088 0.0
H583 H 0.23185 0.37714 0.94232 0.0
loop_
_geom_bond_atom_site_label_1
_geom_bond_atom_site_label_2
_geom_bond_distance
_geom_bond_site_symmetry_2
_ccdc_geom_bond_type
In0 O1 2.294 1_455 S
In0 O2 2.326 1_455 S
In0 O6 2.266 . S
In0 O7 2.326 . S
In0 O8 2.266 . S
In0 O9 2.326 . S
In0 O11 2.294 . S
In0 O12 2.326 . S
O1 In0 2.294 1_655 S
O1 C10 1.240 . S
O2 In0 2.326 1_655 S
O2 C10 1.252 . S
C3 O6 1.252 . S
C3 O7 1.260 . S
C4 O11 1.240 . S
C4 O12 1.252 . S
C5 O8 1.252 . S
C5 O9 1.260 . S
O6 In0 2.266 . S
O6 C3 1.252 . S
O7 In0 2.326 . S
O7 C3 1.260 . S
O8 In0 2.266 . S
O8 C5 1.252 . S
O9 In0 2.326 . S
O9 C5 1.260 . S
C10 O1 1.240 . S
C10 O2 1.252 . S
O11 In0 2.294 . S
O11 C4 1.240 . S
O12 In0 2.326 . S
O12 C4 1.252 . S
In13 O14 2.294 . S
In13 O15 2.326 . S
In13 O19 2.266 . S
In13 O20 2.326 . S
In13 O21 2.266 . S
In13 O22 2.326 . S
In13 O24 2.294 . S
In13 O25 2.326 . S
O14 In13 2.294 . S
O14 C23 1.240 . S
O15 In13 2.326 . S
O15 C23 1.252 . S
C16 O19 1.252 . S
C16 O20 1.260 . S
C17 O24 1.240 . S
C17 O25 1.252 . S
C18 O21 1.252 . S
C18 O22 1.260 . S
O19 In13 2.266 . S
O19 C16 1.252 . S
O20 In13 2.326 . S
O20 C16 1.260 . S
O21 In13 2.266 . S
O21 C18 1.252 . S
O22 In13 2.326 . S
O22 C18 1.260 . S
C23 O14 1.240 . S
C23 O15 1.252 . S
O24 In13 2.294 . S
O24 C17 1.240 . S
O25 In13 2.326 . S
O25 C17 1.252 . S
In26 O27 2.294 . S
In26 O28 2.326 . S
In26 O32 2.266 . S
In26 O33 2.326 . S
In26 O34 2.266 . S
In26 O35 2.326 . S
In26 O37 2.294 1_655 S
In26 O38 2.326 1_655 S
O27 In26 2.294 . S
O27 C36 1.240 . S
O28 In26 2.326 . S
O28 C36 1.252 . S
C29 O32 1.252 . S
C29 O33 1.260 . S
C30 O37 1.240 . S
C30 O38 1.252 . S
C31 O34 1.252 . S
C31 O35 1.260 . S
O32 In26 2.266 . S
O32 C29 1.252 . S
O33 In26 2.326 . S
O33 C29 1.260 . S
O34 In26 2.266 . S
O34 C31 1.252 . S
O35 In26 2.326 . S
O35 C31 1.260 . S
C36 O27 1.240 . S
C36 O28 1.252 . S
O37 In26 2.294 1_455 S
O37 C30 1.240 . S
O38 In26 2.326 1_455 S
O38 C30 1.252 . S
In39 O40 2.294 . S
In39 O41 2.326 . S
In39 O45 2.266 . S
In39 O46 2.326 . S
In39 O47 2.266 . S
In39 O48 2.326 . S
In39 O50 2.294 . S
In39 O51 2.326 . S
O40 In39 2.294 . S
O40 C49 1.240 . S
O41 In39 2.326 . S
O41 C49 1.252 . S
C42 O45 1.252 . S
C42 O46 1.260 . S
C43 O50 1.240 . S
C43 O51 1.252 . S
C44 O47 1.252 . S
C44 O48 1.260 . S
O45 In39 2.266 . S
O45 C42 1.252 . S
O46 In39 2.326 . S
O46 C42 1.260 . S
O47 In39 2.266 . S
O47 C44 1.252 . S
O48 In39 2.326 . S
O48 C44 1.260 . S
C49 O40 1.240 . S
C49 O41 1.252 . S
O50 In39 2.294 . S
O50 C43 1.240 . S
O51 In39 2.326 . S
O51 C43 1.252 . S
In52 O53 2.294 . S
In52 O54 2.326 . S
In52 O58 2.266 . S
In52 O59 2.326 . S
In52 O60 2.266 . S
In52 O61 2.326 . S
In52 O63 2.294 . S
In52 O64 2.326 . S
O53 In52 2.294 . S
O53 C62 1.240 . S
O54 In52 2.326 . S
O54 C62 1.252 . S
C55 O58 1.252 . S
C55 O59 1.260 . S
C56 O63 1.240 . S
C56 O64 1.252 . S
C57 O60 1.252 . S
C57 O61 1.260 . S
O58 In52 2.266 . S
O58 C55 1.252 . S
O59 In52 2.326 . S
O59 C55 1.260 . S
O60 In52 2.266 . S
O60 C57 1.252 . S
O61 In52 2.326 . S
O61 C57 1.260 . S
C62 O53 1.240 . S
C62 O54 1.252 . S
O63 In52 2.294 . S
O63 C56 1.240 . S
O64 In52 2.326 . S
O64 C56 1.252 . S
In65 O66 2.294 1_655 S
In65 O67 2.326 1_655 S
In65 O71 2.266 . S
In65 O72 2.326 . S
In65 O73 2.266 . S
In65 O74 2.326 . S
In65 O76 2.294 . S
In65 O77 2.326 . S
O66 In65 2.294 1_455 S
O66 C75 1.240 . S
O67 In65 2.326 1_455 S
O67 C75 1.252 . S
C68 O71 1.252 . S
C68 O72 1.260 . S
C69 O76 1.240 . S
C69 O77 1.252 . S
C70 O73 1.252 . S
C70 O74 1.260 . S
O71 In65 2.266 . S
O71 C68 1.252 . S
O72 In65 2.326 . S
O72 C68 1.260 . S
O73 In65 2.266 . S
O73 C70 1.252 . S
O74 In65 2.326 . S
O74 C70 1.260 . S
C75 O66 1.240 . S
C75 O67 1.252 . S
O76 In65 2.294 . S
O76 C69 1.240 . S
O77 In65 2.326 . S
O77 C69 1.252 . S
In78 O79 2.294 . S
In78 O80 2.326 . S
In78 O84 2.266 . S
In78 O85 2.326 . S
In78 O86 2.266 . S
In78 O87 2.326 . S
In78 O89 2.294 . S
In78 O90 2.326 . S
O79 In78 2.294 . S
O79 C88 1.240 . S
O80 In78 2.326 . S
O80 C88 1.252 . S
C81 O84 1.252 . S
C81 O85 1.260 . S
C82 O89 1.240 . S
C82 O90 1.252 . S
C83 O86 1.252 . S
C83 O87 1.260 . S
O84 In78 2.266 . S
O84 C81 1.252 . S
O85 In78 2.326 . S
O85 C81 1.260 . S
O86 In78 2.266 . S
O86 C83 1.252 . S
O87 In78 2.326 . S
O87 C83 1.260 . S
C88 O79 1.240 . S
C88 O80 1.252 . S
O89 In78 2.294 . S
O89 C82 1.240 . S
O90 In78 2.326 . S
O90 C82 1.252 . S
In91 O92 2.294 . S
In91 O93 2.326 . S
In91 O97 2.266 . S
In91 O98 2.326 . S
In91 O99 2.266 . S
In91 O100 2.326 . S
In91 O102 2.294 1_455 S
In91 O103 2.326 1_455 S
O92 In91 2.294 . S
O92 C101 1.240 . S
O93 In91 2.326 . S
O93 C101 1.252 . S
C94 O97 1.252 . S
C94 O98 1.260 . S
C95 O102 1.240 . S
C95 O103 1.252 . S
C96 O99 1.252 . S
C96 O100 1.260 . S
O97 In91 2.266 . S
O97 C94 1.252 . S
O98 In91 2.326 . S
O98 C94 1.260 . S
O99 In91 2.266 . S
O99 C96 1.252 . S
O100 In91 2.326 . S
O100 C96 1.260 . S
C101 O92 1.240 . S
C101 O93 1.252 . S
O102 In91 2.294 1_655 S
O102 C95 1.240 . S
O103 In91 2.326 1_655 S
O103 C95 1.252 . S
C104 C105 1.349 . S
C104 C106 1.327 . S
C104 H129 0.950 . S
C105 C104 1.349 . S
C105 C121 1.349 . S
C106 C104 1.327 . S
C106 C125 1.429 . S
C106 H130 0.950 . S
C107 C124 1.574 . S
C107 C126 1.368 1_655 S
C107 H131 0.949 . S
H108 C112 0.949 . S
C109 C110 1.349 . S
C109 C111 1.327 . S
C109 H132 0.950 . S
C110 C109 1.349 . S
C110 C122 1.349 . S
C111 C109 1.327 . S
C111 C127 1.429 . S
C111 H133 0.950 . S
C112 H108 0.949 . S
C112 C120 1.574 . S
C112 C128 1.368 1_455 S
H113 C121 0.950 1_655 S
H114 C119 0.950 . S
H115 C120 0.949 . S
H116 C122 0.950 1_455 S
H117 C123 0.950 . S
H118 C124 0.949 . S
C119 H114 0.950 . S
C119 C121 1.327 1_655 S
C119 C125 1.429 1_655 S
C120 C112 1.574 . S
C120 H115 0.949 . S
C120 C126 1.368 . S
C121 C105 1.349 . S
C121 H113 0.950 1_455 S
C121 C119 1.327 1_455 S
C122 C110 1.349 . S
C122 H116 0.950 1_655 S
C122 C123 1.327 1_655 S
C123 H117 0.950 . S
C123 C122 1.327 1_455 S
C123 C127 1.429 1_455 S
C124 C107 1.574 . S
C124 H118 0.949 . S
C124 C128 1.368 . S
C125 C106 1.429 . S
C125 C119 1.429 1_455 S
C125 C126 1.523 . S
C126 C107 1.368 1_455 S
C126 C120 1.368 . S
C126 C125 1.523 . S
C127 C111 1.429 . S
C127 C123 1.429 1_655 S
C127 C128 1.523 . S
C128 C112 1.368 1_655 S
C128 C124 1.368 . S
C128 C127 1.523 . S
H129 C104 0.950 . S
H130 C106 0.950 . S
H131 C107 0.949 . S
H132 C109 0.950 . S
H133 C111 0.950 . S
C134 C135 1.349 . S
C134 C136 1.327 . S
C134 H159 0.950 . S
C135 C134 1.349 . S
C135 C151 1.349 . S
C136 C134 1.327 . S
C136 C155 1.429 . S
C136 H160 0.950 . S
C137 C154 1.574 . S
C137 C156 1.368 . S
C137 H161 0.949 . S
H138 C142 0.949 . S
C139 C140 1.349 . S
C139 C141 1.327 . S
C139 H162 0.950 . S
C140 C139 1.349 . S
C140 C152 1.349 . S
C141 C139 1.327 . S
C141 C157 1.429 . S
C141 H163 0.950 . S
C142 H138 0.949 . S
C142 C150 1.574 . S
C142 C158 1.368 . S
H143 C151 0.950 . S
H144 C149 0.950 . S
H145 C150 0.949 . S
H146 C152 0.950 . S
H147 C153 0.950 . S
H148 C154 0.949 . S
C149 H144 0.950 . S
C149 C151 1.327 . S
C149 C155 1.429 . S
C150 C142 1.574 . S
C150 H145 0.949 . S
C150 C156 1.368 . S
C151 C135 1.349 . S
C151 H143 0.950 . S
C151 C149 1.327 . S
C152 C140 1.349 . S
C152 H146 0.950 . S
C152 C153 1.327 . S
C153 H147 0.950 . S
C153 C152 1.327 . S
C153 C157 1.429 . S
C154 C137 1.574 . S
C154 H148 0.949 . S
C154 C158 1.368 . S
C155 C136 1.429 . S
C155 C149 1.429 . S
C155 C156 1.523 . S
C156 C137 1.368 . S
C156 C150 1.368 . S
C156 C155 1.523 . S
C157 C141 1.429 . S
C157 C153 1.429 . S
C157 C158 1.523 . S
C158 C142 1.368 . S
C158 C154 1.368 . S
C158 C157 1.523 . S
H159 C134 0.950 . S
H160 C136 0.950 . S
H161 C137 0.949 . S
H162 C139 0.950 . S
H163 C141 0.950 . S
C164 C165 1.349 . S
C164 C166 1.327 . S
C164 H189 0.950 . S
C165 C164 1.349 . S
C165 C181 1.349 . S
C166 C164 1.327 . S
C166 C185 1.429 . S
C166 H190 0.950 . S
C167 C184 1.574 . S
C167 C186 1.368 1_556 S
C167 H191 0.949 . S
H168 C172 0.949 . S
C169 C170 1.349 . S
C169 C171 1.327 . S
C169 H192 0.950 . S
C170 C169 1.349 . S
C170 C182 1.349 . S
C171 C169 1.327 . S
C171 C187 1.429 . S
C171 H193 0.950 . S
C172 H168 0.949 . S
C172 C180 1.574 . S
C172 C188 1.368 1_554 S
H173 C181 0.950 . S
H174 C179 0.950 . S
H175 C180 0.949 . S
H176 C182 0.950 . S
H177 C183 0.950 . S
H178 C184 0.949 . S
C179 H174 0.950 . S
C179 C181 1.327 . S
C179 C185 1.429 . S
C180 C172 1.574 . S
C180 H175 0.949 . S
C180 C186 1.368 1_565 S
C181 C165 1.349 . S
C181 H173 0.950 . S
C181 C179 1.327 . S
C182 C170 1.349 . S
C182 H176 0.950 . S
C182 C183 1.327 . S
C183 H177 0.950 . S
C183 C182 1.327 . S
C183 C187 1.429 . S
C184 C167 1.574 . S
C184 H178 0.949 . S
C184 C188 1.368 1_545 S
C185 C166 1.429 . S
C185 C179 1.429 . S
C185 C186 1.523 . S
C186 C167 1.368 1_554 S
C186 C180 1.368 1_545 S
C186 C185 1.523 . S
C187 C171 1.429 . S
C187 C183 1.429 . S
C187 C188 1.523 . S
C188 C172 1.368 1_556 S
C188 C184 1.368 1_565 S
C188 C187 1.523 . S
H189 C164 0.950 . S
H190 C166 0.950 . S
H191 C167 0.949 . S
H192 C169 0.950 . S
H193 C171 0.950 . S
C194 C195 1.349 . S
C194 C196 1.327 . S
C194 H219 0.950 . S
C195 C194 1.349 . S
C195 C211 1.349 . S
C196 C194 1.327 . S
C196 C215 1.429 . S
C196 H220 0.950 . S
C197 C214 1.574 . S
C197 C216 1.368 1_556 S
C197 H221 0.949 . S
H198 C202 0.949 . S
C199 C200 1.349 . S
C199 C201 1.327 . S
C199 H222 0.950 . S
C200 C199 1.349 . S
C200 C212 1.349 . S
C201 C199 1.327 . S
C201 C217 1.429 . S
C201 H223 0.950 . S
C202 H198 0.949 . S
C202 C210 1.574 . S
C202 C218 1.368 1_554 S
H203 C211 0.950 . S
H204 C209 0.950 . S
H205 C210 0.949 . S
H206 C212 0.950 . S
H207 C213 0.950 . S
H208 C214 0.949 . S
C209 H204 0.950 . S
C209 C211 1.327 . S
C209 C215 1.429 . S
C210 C202 1.574 . S
C210 H205 0.949 . S
C210 C216 1.368 1_445 S
C211 C195 1.349 . S
C211 H203 0.950 . S
C211 C209 1.327 . S
C212 C200 1.349 . S
C212 H206 0.950 . S
C212 C213 1.327 . S
C213 H207 0.950 . S
C213 C212 1.327 . S
C213 C217 1.429 . S
C214 C197 1.574 . S
C214 H208 0.949 . S
C214 C218 1.368 1_665 S
C215 C196 1.429 . S
C215 C209 1.429 . S
C215 C216 1.523 . S
C216 C197 1.368 1_554 S
C216 C210 1.368 1_665 S
C216 C215 1.523 . S
C217 C201 1.429 . S
C217 C213 1.429 . S
C217 C218 1.523 . S
C218 C202 1.368 1_556 S
C218 C214 1.368 1_445 S
C218 C217 1.523 . S
H219 C194 0.950 . S
H220 C196 0.950 . S
H221 C197 0.949 . S
H222 C199 0.950 . S
H223 C201 0.950 . S
C224 C225 1.349 . S
C224 C226 1.327 . S
C224 H249 0.950 . S
C225 C224 1.349 . S
C225 C241 1.349 . S
C226 C224 1.327 . S
C226 C245 1.429 . S
C226 H250 0.950 . S
C227 C244 1.574 . S
C227 C246 1.368 . S
C227 H251 0.949 . S
H228 C232 0.949 . S
C229 C230 1.349 . S
C229 C231 1.327 . S
C229 H252 0.950 . S
C230 C229 1.349 . S
C230 C242 1.349 . S
C231 C229 1.327 . S
C231 C247 1.429 . S
C231 H253 0.950 . S
C232 H228 0.949 . S
C232 C240 1.574 . S
C232 C248 1.368 . S
H233 C241 0.950 . S
H234 C239 0.950 . S
H235 C240 0.949 . S
H236 C242 0.950 . S
H237 C243 0.950 . S
H238 C244 0.949 . S
C239 H234 0.950 . S
C239 C241 1.327 . S
C239 C245 1.429 . S
C240 C232 1.574 . S
C240 H235 0.949 . S
C240 C246 1.368 . S
C241 C225 1.349 . S
C241 H233 0.950 . S
C241 C239 1.327 . S
C242 C230 1.349 . S
C242 H236 0.950 . S
C242 C243 1.327 . S
C243 H237 0.950 . S
C243 C242 1.327 . S
C243 C247 1.429 . S
C244 C227 1.574 . S
C244 H238 0.949 . S
C244 C248 1.368 . S
C245 C226 1.429 . S
C245 C239 1.429 . S
C245 C246 1.523 . S
C246 C227 1.368 . S
C246 C240 1.368 . S
C246 C245 1.523 . S
C247 C231 1.429 . S
C247 C243 1.429 . S
C247 C248 1.523 . S
C248 C232 1.368 . S
C248 C244 1.368 . S
C248 C247 1.523 . S
H249 C224 0.950 . S
H250 C226 0.950 . S
H251 C227 0.949 . S
H252 C229 0.950 . S
H253 C231 0.950 . S
C254 C255 1.349 . S
C254 C256 1.327 . S
C254 H279 0.950 . S
C255 C254 1.349 . S
C255 C271 1.349 . S
C256 C254 1.327 . S
C256 C275 1.429 . S
C256 H280 0.950 . S
C257 C274 1.574 . S
C257 C276 1.368 . S
C257 H281 0.949 . S
H258 C262 0.949 . S
C259 C260 1.349 . S
C259 C261 1.327 . S
C259 H282 0.950 . S
C260 C259 1.349 . S
C260 C272 1.349 . S
C261 C259 1.327 . S
C261 C277 1.429 . S
C261 H283 0.950 . S
C262 H258 0.949 . S
C262 C270 1.574 . S
C262 C278 1.368 . S
H263 C271 0.950 . S
H264 C269 0.950 . S
H265 C270 0.949 . S
H266 C272 0.950 . S
H267 C273 0.950 . S
H268 C274 0.949 . S
C269 H264 0.950 . S
C269 C271 1.327 . S
C269 C275 1.429 . S
C270 C262 1.574 . S
C270 H265 0.949 . S
C270 C276 1.368 . S
C271 C255 1.349 . S
C271 H263 0.950 . S
C271 C269 1.327 . S
C272 C260 1.349 . S
C272 H266 0.950 . S
C272 C273 1.327 . S
C273 H267 0.950 . S
C273 C272 1.327 . S
C273 C277 1.429 . S
C274 C257 1.574 . S
C274 H268 0.949 . S
C274 C278 1.368 . S
C275 C256 1.429 . S
C275 C269 1.429 . S
C275 C276 1.523 . S
C276 C257 1.368 . S
C276 C270 1.368 . S
C276 C275 1.523 . S
C277 C261 1.429 . S
C277 C273 1.429 . S
C277 C278 1.523 . S
C278 C262 1.368 . S
C278 C274 1.368 . S
C278 C277 1.523 . S
H279 C254 0.950 . S
H280 C256 0.950 . S
H281 C257 0.949 . S
H282 C259 0.950 . S
H283 C261 0.950 . S
C284 C285 1.349 . S
C284 C286 1.327 . S
C284 H309 0.950 . S
C285 C284 1.349 . S
C285 C301 1.349 . S
C286 C284 1.327 . S
C286 C305 1.429 . S
C286 H310 0.950 . S
C287 C304 1.574 . S
C287 C306 1.368 . S
C287 H311 0.949 . S
H288 C292 0.949 . S
C289 C290 1.349 . S
C289 C291 1.327 . S
C289 H312 0.950 . S
C290 C289 1.349 . S
C290 C302 1.349 . S
C291 C289 1.327 . S
C291 C307 1.429 . S
C291 H313 0.950 . S
C292 H288 0.949 . S
C292 C300 1.574 . S
C292 C308 1.368 . S
H293 C301 0.950 . S
H294 C299 0.950 . S
H295 C300 0.949 . S
H296 C302 0.950 . S
H297 C303 0.950 . S
H298 C304 0.949 . S
C299 H294 0.950 . S
C299 C301 1.327 . S
C299 C305 1.429 . S
C300 C292 1.574 . S
C300 H295 0.949 . S
C300 C306 1.368 . S
C301 C285 1.349 . S
C301 H293 0.950 . S
C301 C299 1.327 . S
C302 C290 1.349 . S
C302 H296 0.950 . S
C302 C303 1.327 . S
C303 H297 0.950 . S
C303 C302 1.327 . S
C303 C307 1.429 . S
C304 C287 1.574 . S
C304 H298 0.949 . S
C304 C308 1.368 . S
C305 C286 1.429 . S
C305 C299 1.429 . S
C305 C306 1.523 . S
C306 C287 1.368 . S
C306 C300 1.368 . S
C306 C305 1.523 . S
C307 C291 1.429 . S
C307 C303 1.429 . S
C307 C308 1.523 . S
C308 C292 1.368 . S
C308 C304 1.368 . S
C308 C307 1.523 . S
H309 C284 0.950 . S
H310 C286 0.950 . S
H311 C287 0.949 . S
H312 C289 0.950 . S
H313 C291 0.950 . S
C314 C315 1.349 . S
C314 C316 1.327 . S
C314 H339 0.950 . S
C315 C314 1.349 . S
C315 C331 1.349 . S
C316 C314 1.327 . S
C316 C335 1.429 . S
C316 H340 0.950 . S
C317 C334 1.574 . S
C317 C336 1.368 . S
C317 H341 0.949 . S
H318 C322 0.949 . S
C319 C320 1.349 . S
C319 C321 1.327 . S
C319 H342 0.950 . S
C320 C319 1.349 . S
C320 C332 1.349 . S
C321 C319 1.327 . S
C321 C337 1.429 . S
C321 H343 0.950 . S
C322 H318 0.949 . S
C322 C330 1.574 . S
C322 C338 1.368 . S
H323 C331 0.950 . S
H324 C329 0.950 . S
H325 C330 0.949 . S
H326 C332 0.950 . S
H327 C333 0.950 . S
H328 C334 0.949 . S
C329 H324 0.950 . S
C329 C331 1.327 . S
C329 C335 1.429 . S
C330 C322 1.574 . S
C330 H325 0.949 . S
C330 C336 1.368 . S
C331 C315 1.349 . S
C331 H323 0.950 . S
C331 C329 1.327 . S
C332 C320 1.349 . S
C332 H326 0.950 . S
C332 C333 1.327 . S
C333 H327 0.950 . S
C333 C332 1.327 . S
C333 C337 1.429 . S
C334 C317 1.574 . S
C334 H328 0.949 . S
C334 C338 1.368 . S
C335 C316 1.429 . S
C335 C329 1.429 . S
C335 C336 1.523 . S
C336 C317 1.368 . S
C336 C330 1.368 . S
C336 C335 1.523 . S
C337 C321 1.429 . S
C337 C333 1.429 . S
C337 C338 1.523 . S
C338 C322 1.368 . S
C338 C334 1.368 . S
C338 C337 1.523 . S
H339 C314 0.950 . S
H340 C316 0.950 . S
H341 C317 0.949 . S
H342 C319 0.950 . S
H343 C321 0.950 . S
C344 C345 1.349 . S
C344 C346 1.327 . S
C344 H369 0.950 . S
C345 C344 1.349 . S
C345 C361 1.349 . S
C346 C344 1.327 . S
C346 C365 1.429 . S
C346 H370 0.950 . S
C347 C364 1.574 . S
C347 C366 1.368 . S
C347 H371 0.949 . S
H348 C352 0.949 . S
C349 C350 1.349 . S
C349 C351 1.327 . S
C349 H372 0.950 . S
C350 C349 1.349 . S
C350 C362 1.349 . S
C351 C349 1.327 . S
C351 C367 1.429 . S
C351 H373 0.950 . S
C352 H348 0.949 . S
C352 C360 1.574 . S
C352 C368 1.368 . S
H353 C361 0.950 . S
H354 C359 0.950 . S
H355 C360 0.949 . S
H356 C362 0.950 . S
H357 C363 0.950 . S
H358 C364 0.949 . S
C359 H354 0.950 . S
C359 C361 1.327 . S
C359 C365 1.429 . S
C360 C352 1.574 . S
C360 H355 0.949 . S
C360 C366 1.368 . S
C361 C345 1.349 . S
C361 H353 0.950 . S
C361 C359 1.327 . S
C362 C350 1.349 . S
C362 H356 0.950 . S
C362 C363 1.327 . S
C363 H357 0.950 . S
C363 C362 1.327 . S
C363 C367 1.429 . S
C364 C347 1.574 . S
C364 H358 0.949 . S
C364 C368 1.368 . S
C365 C346 1.429 . S
C365 C359 1.429 . S
C365 C366 1.523 . S
C366 C347 1.368 . S
C366 C360 1.368 . S
C366 C365 1.523 . S
C367 C351 1.429 . S
C367 C363 1.429 . S
C367 C368 1.523 . S
C368 C352 1.368 . S
C368 C364 1.368 . S
C368 C367 1.523 . S
H369 C344 0.950 . S
H370 C346 0.950 . S
H371 C347 0.949 . S
H372 C349 0.950 . S
H373 C351 0.950 . S
C374 C375 1.349 . S
C374 C376 1.327 . S
C374 H399 0.950 . S
C375 C374 1.349 . S
C375 C391 1.349 . S
C376 C374 1.327 . S
C376 C395 1.429 . S
C376 H400 0.950 . S
C377 C394 1.574 . S
C377 C396 1.368 . S
C377 H401 0.949 . S
H378 C382 0.949 . S
C379 C380 1.349 . S
C379 C381 1.327 . S
C379 H402 0.950 . S
C380 C379 1.349 . S
C380 C392 1.349 . S
C381 C379 1.327 . S
C381 C397 1.429 . S
C381 H403 0.950 . S
C382 H378 0.949 . S
C382 C390 1.574 . S
C382 C398 1.368 . S
H383 C391 0.950 . S
H384 C389 0.950 . S
H385 C390 0.949 . S
H386 C392 0.950 . S
H387 C393 0.950 . S
H388 C394 0.949 . S
C389 H384 0.950 . S
C389 C391 1.327 . S
C389 C395 1.429 . S
C390 C382 1.574 . S
C390 H385 0.949 . S
C390 C396 1.368 . S
C391 C375 1.349 . S
C391 H383 0.950 . S
C391 C389 1.327 . S
C392 C380 1.349 . S
C392 H386 0.950 . S
C392 C393 1.327 . S
C393 H387 0.950 . S
C393 C392 1.327 . S
C393 C397 1.429 . S
C394 C377 1.574 . S
C394 H388 0.949 . S
C394 C398 1.368 . S
C395 C376 1.429 . S
C395 C389 1.429 . S
C395 C396 1.523 . S
C396 C377 1.368 . S
C396 C390 1.368 . S
C396 C395 1.523 . S
C397 C381 1.429 . S
C397 C393 1.429 . S
C397 C398 1.523 . S
C398 C382 1.368 . S
C398 C394 1.368 . S
C398 C397 1.523 . S
H399 C374 0.950 . S
H400 C376 0.950 . S
H401 C377 0.949 . S
H402 C379 0.950 . S
H403 C381 0.950 . S
C404 C405 1.349 . S
C404 C406 1.327 . S
C404 H429 0.950 . S
C405 C404 1.349 . S
C405 C421 1.349 . S
C406 C404 1.327 . S
C406 C425 1.429 . S
C406 H430 0.950 . S
C407 C424 1.574 . S
C407 C426 1.368 . S
C407 H431 0.949 . S
H408 C412 0.949 . S
C409 C410 1.349 . S
C409 C411 1.327 . S
C409 H432 0.950 . S
C410 C409 1.349 . S
C410 C422 1.349 . S
C411 C409 1.327 . S
C411 C427 1.429 . S
C411 H433 0.950 . S
C412 H408 0.949 . S
C412 C420 1.574 . S
C412 C428 1.368 . S
H413 C421 0.950 . S
H414 C419 0.950 . S
H415 C420 0.949 . S
H416 C422 0.950 . S
H417 C423 0.950 . S
H418 C424 0.949 . S
C419 H414 0.950 . S
C419 C421 1.327 . S
C419 C425 1.429 . S
C420 C412 1.574 . S
C420 H415 0.949 . S
C420 C426 1.368 . S
C421 C405 1.349 . S
C421 H413 0.950 . S
C421 C419 1.327 . S
C422 C410 1.349 . S
C422 H416 0.950 . S
C422 C423 1.327 . S
C423 H417 0.950 . S
C423 C422 1.327 . S
C423 C427 1.429 . S
C424 C407 1.574 . S
C424 H418 0.949 . S
C424 C428 1.368 . S
C425 C406 1.429 . S
C425 C419 1.429 . S
C425 C426 1.523 . S
C426 C407 1.368 . S
C426 C420 1.368 . S
C426 C425 1.523 . S
C427 C411 1.429 . S
C427 C423 1.429 . S
C427 C428 1.523 . S
C428 C412 1.368 . S
C428 C424 1.368 . S
C428 C427 1.523 . S
H429 C404 0.950 . S
H430 C406 0.950 . S
H431 C407 0.949 . S
H432 C409 0.950 . S
H433 C411 0.950 . S
C434 C435 1.349 . S
C434 C436 1.327 . S
C434 H459 0.950 . S
C435 C434 1.349 . S
C435 C451 1.349 . S
C436 C434 1.327 . S
C436 C455 1.429 . S
C436 H460 0.950 . S
C437 C454 1.574 . S
C437 C456 1.368 . S
C437 H461 0.949 . S
H438 C442 0.949 . S
C439 C440 1.349 . S
C439 C441 1.327 . S
C439 H462 0.950 . S
C440 C439 1.349 . S
C440 C452 1.349 . S
C441 C439 1.327 . S
C441 C457 1.429 . S
C441 H463 0.950 . S
C442 H438 0.949 . S
C442 C450 1.574 . S
C442 C458 1.368 . S
H443 C451 0.950 . S
H444 C449 0.950 . S
H445 C450 0.949 . S
H446 C452 0.950 . S
H447 C453 0.950 . S
H448 C454 0.949 . S
C449 H444 0.950 . S
C449 C451 1.327 . S
C449 C455 1.429 . S
C450 C442 1.574 . S
C450 H445 0.949 . S
C450 C456 1.368 . S
C451 C435 1.349 . S
C451 H443 0.950 . S
C451 C449 1.327 . S
C452 C440 1.349 . S
C452 H446 0.950 . S
C452 C453 1.327 . S
C453 H447 0.950 . S
C453 C452 1.327 . S
C453 C457 1.429 . S
C454 C437 1.574 . S
C454 H448 0.949 . S
C454 C458 1.368 . S
C455 C436 1.429 . S
C455 C449 1.429 . S
C455 C456 1.523 . S
C456 C437 1.368 . S
C456 C450 1.368 . S
C456 C455 1.523 . S
C457 C441 1.429 . S
C457 C453 1.429 . S
C457 C458 1.523 . S
C458 C442 1.368 . S
C458 C454 1.368 . S
C458 C457 1.523 . S
H459 C434 0.950 . S
H460 C436 0.950 . S
H461 C437 0.949 . S
H462 C439 0.950 . S
H463 C441 0.950 . S
C464 C465 1.349 . S
C464 C466 1.327 . S
C464 H489 0.950 . S
C465 C464 1.349 . S
C465 C481 1.349 . S
C466 C464 1.327 . S
C466 C485 1.429 . S
C466 H490 0.950 . S
C467 C484 1.574 . S
C467 C486 1.368 . S
C467 H491 0.949 . S
H468 C472 0.949 . S
C469 C470 1.349 . S
C469 C471 1.327 . S
C469 H492 0.950 . S
C470 C469 1.349 . S
C470 C482 1.349 . S
C471 C469 1.327 . S
C471 C487 1.429 . S
C471 H493 0.950 . S
C472 H468 0.949 . S
C472 C480 1.574 . S
C472 C488 1.368 . S
H473 C481 0.950 . S
H474 C479 0.950 . S
H475 C480 0.949 . S
H476 C482 0.950 . S
H477 C483 0.950 . S
H478 C484 0.949 . S
C479 H474 0.950 . S
C479 C481 1.327 . S
C479 C485 1.429 . S
C480 C472 1.574 . S
C480 H475 0.949 . S
C480 C486 1.368 . S
C481 C465 1.349 . S
C481 H473 0.950 . S
C481 C479 1.327 . S
C482 C470 1.349 . S
C482 H476 0.950 . S
C482 C483 1.327 . S
C483 H477 0.950 . S
C483 C482 1.327 . S
C483 C487 1.429 . S
C484 C467 1.574 . S
C484 H478 0.949 . S
C484 C488 1.368 . S
C485 C466 1.429 . S
C485 C479 1.429 . S
C485 C486 1.523 . S
C486 C467 1.368 . S
C486 C480 1.368 . S
C486 C485 1.523 . S
C487 C471 1.429 . S
C487 C483 1.429 . S
C487 C488 1.523 . S
C488 C472 1.368 . S
C488 C484 1.368 . S
C488 C487 1.523 . S
H489 C464 0.950 . S
H490 C466 0.950 . S
H491 C467 0.949 . S
H492 C469 0.950 . S
H493 C471 0.950 . S
C494 C495 1.349 . S
C494 C496 1.327 . S
C494 H519 0.950 . S
C495 C494 1.349 . S
C495 C511 1.349 . S
C496 C494 1.327 . S
C496 C515 1.429 . S
C496 H520 0.950 . S
C497 C514 1.574 . S
C497 C516 1.368 . S
C497 H521 0.949 . S
H498 C502 0.949 . S
C499 C500 1.349 . S
C499 C501 1.327 . S
C499 H522 0.950 . S
C500 C499 1.349 . S
C500 C512 1.349 . S
C501 C499 1.327 . S
C501 C517 1.429 . S
C501 H523 0.950 . S
C502 H498 0.949 . S
C502 C510 1.574 . S
C502 C518 1.368 . S
H503 C511 0.950 . S
H504 C509 0.950 . S
H505 C510 0.949 . S
H506 C512 0.950 . S
H507 C513 0.950 . S
H508 C514 0.949 . S
C509 H504 0.950 . S
C509 C511 1.327 . S
C509 C515 1.429 . S
C510 C502 1.574 . S
C510 H505 0.949 . S
C510 C516 1.368 . S
C511 C495 1.349 . S
C511 H503 0.950 . S
C511 C509 1.327 . S
C512 C500 1.349 . S
C512 H506 0.950 . S
C512 C513 1.327 . S
C513 H507 0.950 . S
C513 C512 1.327 . S
C513 C517 1.429 . S
C514 C497 1.574 . S
C514 H508 0.949 . S
C514 C518 1.368 . S
C515 C496 1.429 . S
C515 C509 1.429 . S
C515 C516 1.523 . S
C516 C497 1.368 . S
C516 C510 1.368 . S
C516 C515 1.523 . S
C517 C501 1.429 . S
C517 C513 1.429 . S
C517 C518 1.523 . S
C518 C502 1.368 . S
C518 C514 1.368 . S
C518 C517 1.523 . S
H519 C494 0.950 . S
H520 C496 0.950 . S
H521 C497 0.949 . S
H522 C499 0.950 . S
H523 C501 0.950 . S
C524 C525 1.349 . S
C524 C526 1.327 . S
C524 H549 0.950 . S
C525 C524 1.349 . S
C525 C541 1.349 . S
C526 C524 1.327 . S
C526 C545 1.429 . S
C526 H550 0.950 . S
C527 C544 1.574 1_554 S
C527 C546 1.368 . S
C527 H551 0.949 . S
H528 C532 0.949 . S
C529 C530 1.349 . S
C529 C531 1.327 . S
C529 H552 0.950 . S
C530 C529 1.349 . S
C530 C542 1.349 . S
C531 C529 1.327 . S
C531 C547 1.429 . S
C531 H553 0.950 . S
C532 H528 0.949 . S
C532 C540 1.574 1_556 S
C532 C548 1.368 . S
H533 C541 0.950 . S
H534 C539 0.950 . S
H535 C540 0.949 . S
H536 C542 0.950 . S
H537 C543 0.950 . S
H538 C544 0.949 . S
C539 H534 0.950 . S
C539 C541 1.327 . S
C539 C545 1.429 . S
C540 C532 1.574 1_554 S
C540 H535 0.949 . S
C540 C546 1.368 . S
C541 C525 1.349 . S
C541 H533 0.950 . S
C541 C539 1.327 . S
C542 C530 1.349 . S
C542 H536 0.950 . S
C542 C543 1.327 . S
C543 H537 0.950 . S
C543 C542 1.327 . S
C543 C547 1.429 . S
C544 C527 1.574 1_556 S
C544 H538 0.949 . S
C544 C548 1.368 . S
C545 C526 1.429 . S
C545 C539 1.429 . S
C545 C546 1.523 . S
C546 C527 1.368 . S
C546 C540 1.368 . S
C546 C545 1.523 . S
C547 C531 1.429 . S
C547 C543 1.429 . S
C547 C548 1.523 . S
C548 C532 1.368 . S
C548 C544 1.368 . S
C548 C547 1.523 . S
H549 C524 0.950 . S
H550 C526 0.950 . S
H551 C527 0.949 . S
H552 C529 0.950 . S
H553 C531 0.950 . S
C554 C555 1.349 . S
C554 C556 1.327 . S
C554 H579 0.950 . S
C555 C554 1.349 . S
C555 C571 1.349 . S
C556 C554 1.327 . S
C556 C575 1.429 . S
C556 H580 0.950 . S
C557 C574 1.574 1_554 S
C557 C576 1.368 . S
C557 H581 0.949 . S
H558 C562 0.949 . S
C559 C560 1.349 . S
C559 C561 1.327 . S
C559 H582 0.950 . S
C560 C559 1.349 . S
C560 C572 1.349 . S
C561 C559 1.327 . S
C561 C577 1.429 . S
C561 H583 0.950 . S
C562 H558 0.949 . S
C562 C570 1.574 1_556 S
C562 C578 1.368 . S
H563 C571 0.950 . S
H564 C569 0.950 . S
H565 C570 0.949 . S
H566 C572 0.950 . S
H567 C573 0.950 . S
H568 C574 0.949 . S
C569 H564 0.950 . S
C569 C571 1.327 . S
C569 C575 1.429 . S
C570 C562 1.574 1_554 S
C570 H565 0.949 . S
C570 C576 1.368 . S
C571 C555 1.349 . S
C571 H563 0.950 . S
C571 C569 1.327 . S
C572 C560 1.349 . S
C572 H566 0.950 . S
C572 C573 1.327 . S
C573 H567 0.950 . S
C573 C572 1.327 . S
C573 C577 1.429 . S
C574 C557 1.574 1_556 S
C574 H568 0.949 . S
C574 C578 1.368 . S
C575 C556 1.429 . S
C575 C569 1.429 . S
C575 C576 1.523 . S
C576 C557 1.368 . S
C576 C570 1.368 . S
C576 C575 1.523 . S
C577 C561 1.429 . S
C577 C573 1.429 . S
C577 C578 1.523 . S
C578 C562 1.368 . S
C578 C574 1.368 . S
C578 C577 1.523 . S
H579 C554 0.950 . S
H580 C556 0.950 . S
H581 C557 0.949 . S
H582 C559 0.950 . S
H583 C561 0.950 . S
C105 C5 1.544 . S
C110 C29 1.544 . S
C135 C44 1.544 . S
C140 C18 1.544 . S
C165 C81 1.544 . S
C170 C55 1.544 . S
C195 C70 1.544 . S
C200 C94 1.544 . S
C225 C82 1.755 . S
C230 C10 1.755 . S
C255 C23 1.755 . S
C260 C95 1.755 . S
C285 C30 1.755 . S
C290 C56 1.755 . S
C315 C49 1.755 . S
C320 C75 1.755 . S
C345 C88 1.585 . S
C350 C4 1.585 . S
C375 C17 1.584 . S
C380 C101 1.584 . S
C405 C62 1.585 . S
C410 C36 1.585 . S
C435 C69 1.584 . S
C440 C43 1.584 . S
C465 C16 0.349 . S
C470 C3 0.349 . S
C495 C31 0.349 . S
C500 C42 0.349 . S
C525 C68 0.349 . S
C530 C57 0.349 . S
C555 C83 0.349 . S
C560 C96 0.349 . S
