# Generated by pormake.
# Topology wlj, (5)-cn, num edge types: 1
# Building blocks:
#     Node 0, Type 0, BuildingBlock: XOMCOT_clean_sbu_0, # of connection points: 5
#     Node 1, Type 0, BuildingBlock: XOMCOT_clean_sbu_0, # of connection points: 5
#     Node 2, Type 0, BuildingBlock: XOMCOT_clean_sbu_0, # of connection points: 5
#     Node 3, Type 0, BuildingBlock: XOMCOT_clean_sbu_0, # of connection points: 5
#     Node 4, Type 0, BuildingBlock: XOMCOT_clean_sbu_0, # of connection points: 5
#     Node 5, Type 0, BuildingBlock: XOMCOT_clean_sbu_0, # of connection points: 5
#     Edge 6, Type (0, 0), BuildingBlock: MIFKUJ_clean_linker_0, # of connection points: 2
#     Edge 7, Type (0, 0), BuildingBlock: MIFKUJ_clean_linker_0, # of connection points: 2
#     Edge 8, Type (0, 0), BuildingBlock: MIFKUJ_clean_linker_0, # of connection points: 2
#     Edge 9, Type (0, 0), BuildingBlock: MIFKUJ_clean_linker_0, # of connection points: 2
#     Edge 10, Type (0, 0), BuildingBlock: MIFKUJ_clean_linker_0, # of connection points: 2
#     Edge 11, Type (0, 0), BuildingBlock: MIFKUJ_clean_linker_0, # of connection points: 2
#     Edge 12, Type (0, 0), BuildingBlock: MIFKUJ_clean_linker_0, # of connection points: 2
#     Edge 13, Type (0, 0), BuildingBlock: MIFKUJ_clean_linker_0, # of connection points: 2
#     Edge 14, Type (0, 0), BuildingBlock: MIFKUJ_clean_linker_0, # of connection points: 2
#     Edge 15, Type (0, 0), BuildingBlock: MIFKUJ_clean_linker_0, # of connection points: 2
#     Edge 16, Type (0, 0), BuildingBlock: MIFKUJ_clean_linker_0, # of connection points: 2
#     Edge 17, Type (0, 0), BuildingBlock: MIFKUJ_clean_linker_0, # of connection points: 2
#     Edge 18, Type (0, 0), BuildingBlock: MIFKUJ_clean_linker_0, # of connection points: 2
#     Edge 19, Type (0, 0), BuildingBlock: MIFKUJ_clean_linker_0, # of connection points: 2
#     Edge 20, Type (0, 0), BuildingBlock: MIFKUJ_clean_linker_0, # of connection points: 2
# Relax obj value: 0.141
# Max RMSD: 0.206
# Mean RMSD: 0.206
data_MOF--net-wlj--node1-XOMCOT_clean_sbu_0--edge1-MIFKUJ_clean_linker_0
_symmetry_space_group_name_H-M    P1
_symmetry_Int_Tables_number       1
_symmetry_cell_setting            triclinic
loop_
_symmetry_equiv_pos_as_xyz
'x, y, z'
_cell_length_a     32.435756
_cell_length_b     32.369461
_cell_length_c     69.470734
_cell_angle_alpha  90.000426
_cell_angle_beta   89.916913
_cell_angle_gamma 120.22767
loop_
_atom_site_label
_atom_site_type_symbol
_atom_site_fract_x
_atom_site_fract_y
_atom_site_fract_z
_atom_type_partial_charge
Co0 Co 0.55299 0.29918 0.25465 0.0
C1 C 0.52952 0.35869 0.22933 0.0
C2 C 0.47473 0.28459 0.22974 0.0
C3 C 0.46013 0.30884 0.21802 0.0
N4 N 0.51833 0.31561 0.23665 0.0
N5 N 0.49445 0.35535 0.21775 0.0
H6 H 0.56221 0.39159 0.23252 0.0
H7 H 0.45419 0.2471 0.23343 0.0
C8 C 0.53996 0.20672 0.23891 0.0
O9 O 0.58459 0.22115 0.2433 0.0
N10 N 0.58573 0.28078 0.27328 0.0
C11 C 0.62944 0.30685 0.28116 0.0
C12 C 0.63608 0.27908 0.29442 0.0
C13 C 0.56594 0.23818 0.28248 0.0
N14 N 0.5962 0.23563 0.29517 0.0
C15 C 0.64658 0.36695 0.2411 0.0
C16 C 0.64009 0.32735 0.20522 0.0
C17 C 0.68193 0.36959 0.21015 0.0
C18 C 0.68468 0.38953 0.22828 0.0
C19 C 0.60225 0.30628 0.21843 0.0
N20 N 0.60659 0.32475 0.23654 0.0
H21 H 0.64892 0.38476 0.25448 0.0
H22 H 0.56904 0.27618 0.21368 0.0
H23 H 0.65471 0.34377 0.27814 0.0
H24 H 0.53012 0.20939 0.27961 0.0
O25 O 0.57156 0.35693 0.26888 0.0
O26 O 0.50524 0.28811 0.27419 0.0
O27 O 0.52216 0.23323 0.24265 0.0
C28 C 0.53235 0.33313 0.27862 0.0
H29 H 0.42595 0.29371 0.21084 0.0
H30 H 0.6677 0.29062 0.30308 0.0
H31 H 0.63599 0.31176 0.19105 0.0
H32 H 0.71605 0.42266 0.23253 0.0
Co33 Co 0.71778 0.26099 0.92076 0.0
C34 C 0.65558 0.17455 0.89741 0.0
C35 C 0.72987 0.19635 0.89519 0.0
C36 C 0.70391 0.15401 0.88548 0.0
N37 N 0.69971 0.20932 0.90266 0.0
N38 N 0.65725 0.14011 0.88698 0.0
H39 H 0.62297 0.17303 0.90205 0.0
H40 H 0.76801 0.215 0.89743 0.0
C41 C 0.80909 0.3395 0.90453 0.0
O42 O 0.79288 0.36863 0.90817 0.0
N43 N 0.73785 0.31234 0.9396 0.0
C44 C 0.7125 0.32929 0.94863 0.0
C45 C 0.7416 0.36385 0.96164 0.0
C46 C 0.78129 0.33535 0.94806 0.0
N47 N 0.78499 0.3678 0.96121 0.0
C48 C 0.65665 0.29542 0.90768 0.0
C49 C 0.69598 0.32435 0.87144 0.0
C50 C 0.65984 0.33338 0.87727 0.0
C51 C 0.63922 0.3172 0.89546 0.0
C52 C 0.71227 0.30218 0.8842 0.0
N53 N 0.69497 0.29116 0.90262 0.0
H54 H 0.63814 0.28073 0.92102 0.0
H55 H 0.73881 0.29389 0.87919 0.0
H56 H 0.67509 0.31665 0.94676 0.0
H57 H 0.80985 0.32863 0.94448 0.0
O58 O 0.6593 0.22326 0.93472 0.0
O59 O 0.72623 0.2227 0.94029 0.0
O60 O 0.78401 0.2952 0.909 0.0
C61 C 0.68139 0.20623 0.94453 0.0
H62 H 0.71822 0.13422 0.87833 0.0
H63 H 0.73109 0.38355 0.97109 0.0
H64 H 0.71183 0.33462 0.85726 0.0
H65 H 0.60907 0.32041 0.90012 0.0
Co66 Co 0.76076 0.46937 0.58819 0.0
C67 C 0.84434 0.49101 0.56355 0.0
C68 C 0.82596 0.54615 0.56264 0.0
C69 C 0.86567 0.56009 0.55142 0.0
N70 N 0.81237 0.50279 0.57011 0.0
N71 N 0.87733 0.52554 0.55199 0.0
H72 H 0.84372 0.45826 0.56732 0.0
H73 H 0.80913 0.56701 0.56562 0.0
C74 C 0.68183 0.48096 0.57198 0.0
O75 O 0.65265 0.43586 0.57636 0.0
N76 N 0.70915 0.43796 0.60693 0.0
C77 C 0.68803 0.39338 0.61432 0.0
C78 C 0.65312 0.38783 0.62709 0.0
C79 C 0.68782 0.45927 0.61599 0.0
N80 N 0.65265 0.42924 0.6281 0.0
C81 C 0.73068 0.37402 0.57565 0.0
C82 C 0.69856 0.38013 0.53955 0.0
C83 C 0.69279 0.33622 0.54565 0.0
C84 C 0.71038 0.33396 0.56376 0.0
C85 C 0.71892 0.41946 0.55207 0.0
N86 N 0.73168 0.41515 0.57043 0.0
H87 H 0.74644 0.37192 0.58897 0.0
H88 H 0.72487 0.45342 0.54682 0.0
H89 H 0.69689 0.36628 0.61112 0.0
H90 H 0.69794 0.49617 0.61354 0.0
O91 O 0.79882 0.4503 0.60273 0.0
O92 O 0.79825 0.51764 0.60748 0.0
O93 O 0.72632 0.50027 0.57585 0.0
C94 C 0.81509 0.48996 0.61222 0.0
H95 H 0.88555 0.59401 0.54402 0.0
H96 H 0.62954 0.35524 0.63477 0.0
H97 H 0.68718 0.38397 0.52535 0.0
H98 H 0.70933 0.30162 0.56861 0.0
Co99 Co 0.30479 0.55185 0.75896 0.0
C100 C 0.37545 0.53191 0.77887 0.0
C101 C 0.30272 0.47852 0.78425 0.0
C102 C 0.33144 0.46431 0.79295 0.0
N103 N 0.32997 0.52205 0.77612 0.0
N104 N 0.37693 0.49782 0.78951 0.0
H105 H 0.40666 0.56137 0.77239 0.0
H106 H 0.26435 0.45703 0.78312 0.0
C107 C 0.24118 0.52333 0.79298 0.0
O108 O 0.28084 0.5449 0.80304 0.0
N109 N 0.27867 0.57889 0.74134 0.0
C110 C 0.3029 0.62106 0.73211 0.0
C111 C 0.27134 0.6273 0.72099 0.0
C112 C 0.23289 0.55983 0.73567 0.0
N113 N 0.22726 0.58883 0.72324 0.0
C114 C 0.37901 0.63677 0.77732 0.0
C115 C 0.32089 0.67073 0.79019 0.0
C116 C 0.36968 0.69666 0.79455 0.0
C117 C 0.39892 0.67942 0.78773 0.0
C118 C 0.30247 0.6282 0.77974 0.0
N119 N 0.33107 0.61049 0.77416 0.0
H120 H 0.40257 0.62593 0.77127 0.0
H121 H 0.265 0.60947 0.7761 0.0
H122 H 0.34086 0.64553 0.7334 0.0
H123 H 0.20434 0.5257 0.74073 0.0
O124 O 0.35795 0.57053 0.74185 0.0
O125 O 0.29062 0.50055 0.74088 0.0
O126 O 0.24323 0.52212 0.77456 0.0
C127 C 0.33345 0.52852 0.73408 0.0
H128 H 0.31996 0.43083 0.80038 0.0
H129 H 0.28047 0.65756 0.7117 0.0
H130 H 0.29699 0.68295 0.7949 0.0
H131 H 0.43715 0.69937 0.78997 0.0
Co132 Co 0.46923 0.75943 0.42662 0.0
C133 C 0.49652 0.85063 0.44735 0.0
C134 C 0.51767 0.80713 0.46293 0.0
C135 C 0.53214 0.84858 0.4731 0.0
N136 N 0.49477 0.80791 0.44681 0.0
N137 N 0.51911 0.8759 0.46323 0.0
H138 H 0.48204 0.86344 0.4364 0.0
H139 H 0.52434 0.7789 0.46712 0.0
C140 C 0.47978 0.68054 0.44403 0.0
O141 O 0.43558 0.65069 0.43879 0.0
N142 N 0.44539 0.71169 0.40599 0.0
C143 C 0.40972 0.70145 0.39343 0.0
C144 C 0.40574 0.66695 0.38079 0.0
C145 C 0.46448 0.68518 0.39981 0.0
N146 N 0.43997 0.65643 0.3849 0.0
C147 C 0.36895 0.71882 0.43369 0.0
C148 C 0.36698 0.68779 0.47086 0.0
C149 C 0.3242 0.67992 0.46257 0.0
C150 C 0.32582 0.69586 0.44367 0.0
C151 C 0.40945 0.71053 0.4602 0.0
N152 N 0.40993 0.72417 0.44149 0.0
H153 H 0.36927 0.73384 0.41989 0.0
H154 H 0.44186 0.71742 0.46724 0.0
H155 H 0.38917 0.71913 0.3926 0.0
H156 H 0.49572 0.68675 0.40608 0.0
O157 O 0.45169 0.79824 0.41171 0.0
O158 O 0.52188 0.80245 0.40992 0.0
O159 O 0.49919 0.72496 0.43977 0.0
C160 C 0.49394 0.81809 0.40409 0.0
H161 H 0.55219 0.85866 0.48641 0.0
H162 H 0.38048 0.65185 0.36907 0.0
H163 H 0.36804 0.67768 0.48562 0.0
H164 H 0.29406 0.69117 0.43657 0.0
Co165 Co 0.26185 0.71365 0.09131 0.0
C166 C 0.16543 0.65646 0.11 0.0
C167 C 0.22101 0.6997 0.12999 0.0
C168 C 0.17938 0.6729 0.1401 0.0
N169 N 0.21253 0.68955 0.11109 0.0
N170 N 0.1445 0.64567 0.12755 0.0
H171 H 0.14701 0.63895 0.09689 0.0
H172 H 0.25562 0.72358 0.13614 0.0
C173 C 0.33382 0.81649 0.10431 0.0
O174 O 0.36568 0.82143 0.09151 0.0
N175 N 0.31053 0.7364 0.07139 0.0
C176 C 0.33534 0.71521 0.06602 0.0
C177 C 0.3666 0.74182 0.05163 0.0
C178 C 0.3249 0.77392 0.05929 0.0
N179 N 0.36097 0.77956 0.04765 0.0
C180 C 0.27154 0.64134 0.11017 0.0
C181 C 0.36483 0.69685 0.12241 0.0
C182 C 0.34059 0.64763 0.12625 0.0
C183 C 0.29315 0.61993 0.12014 0.0
C184 C 0.34179 0.7169 0.11235 0.0
N185 N 0.29573 0.68917 0.10629 0.0
H186 H 0.23503 0.61932 0.10548 0.0
H187 H 0.36181 0.75426 0.109 0.0
H188 H 0.33146 0.68285 0.07228 0.0
H189 H 0.31155 0.79849 0.06011 0.0
O190 O 0.22469 0.65813 0.07559 0.0
O191 O 0.22074 0.72447 0.07418 0.0
O192 O 0.29391 0.77723 0.10585 0.0
C193 C 0.20618 0.68145 0.0677 0.0
H194 H 0.17521 0.67306 0.15556 0.0
H195 H 0.39213 0.73414 0.04496 0.0
H196 H 0.4017 0.71947 0.12666 0.0
H197 H 0.27273 0.58191 0.12306 0.0
H198 H 0.55552 0.13161 0.23506 0.0
H199 H 0.51408 0.0625 0.21373 0.0
H200 H 0.42209 0.11464 0.19446 0.0
H201 H 0.46213 0.18266 0.21629 0.0
H202 H 0.37206 0.02277 0.19621 0.0
H203 H 0.52253 0.13349 0.16835 0.0
H204 H 0.60995 0.18598 0.16719 0.0
H205 H 0.6281 0.0648 0.17607 0.0
H206 H 0.54073 0.01166 0.17756 0.0
H207 H 0.39483 0.91107 0.09846 0.0
H208 H 0.42289 0.97587 0.12185 0.0
H209 H 0.33329 0.87529 0.16539 0.0
H210 H 0.30349 0.81068 0.14166 0.0
H211 H 0.47298 0.9927 0.15125 0.0
H212 H 0.30807 0.93034 0.20115 0.0
H213 H 0.22022 0.88645 0.19882 0.0
H214 H 0.22957 0.92532 0.13921 0.0
H215 H 0.31741 0.96993 0.14124 0.0
C216 C 0.52613 0.12805 0.22642 0.0
C217 C 0.51234 0.16278 0.22728 0.0
C218 C 0.50255 0.08861 0.21417 0.0
C219 C 0.46551 0.08373 0.20214 0.0
C220 C 0.45053 0.11748 0.20354 0.0
C221 C 0.47356 0.15648 0.21604 0.0
C222 C 0.44402 0.04494 0.18745 0.0
C223 C 0.39412 0.0161 0.1864 0.0
C224 C 0.47257 0.03691 0.17425 0.0
C225 C 0.52512 0.06868 0.17325 0.0
C226 C 0.54518 0.11809 0.17018 0.0
C227 C 0.59471 0.14795 0.16945 0.0
C228 C 0.62456 0.12875 0.1716 0.0
C229 C 0.60493 0.07963 0.17443 0.0
C230 C 0.55541 0.04961 0.17521 0.0
C231 C 0.38066 0.90291 0.11296 0.0
C232 C 0.347 0.85581 0.11823 0.0
C233 C 0.39684 0.93997 0.12637 0.0
C234 C 0.3803 0.93079 0.14547 0.0
C235 C 0.34605 0.88372 0.1507 0.0
C236 C 0.32908 0.84668 0.13714 0.0
C237 C 0.40084 0.97017 0.15997 0.0
C238 C 0.45073 0.99913 0.16104 0.0
C239 C 0.37215 0.97943 0.17264 0.0
C240 C 0.31933 0.95302 0.17131 0.0
C241 C 0.29136 0.92964 0.18756 0.0
C242 C 0.24157 0.90462 0.18629 0.0
C243 C 0.21933 0.90296 0.16886 0.0
C244 C 0.24684 0.92647 0.15268 0.0
C245 C 0.29663 0.95157 0.15388 0.0
H246 H 0.18079 0.88355 0.16791 0.0
H247 H 0.6629 0.15193 0.17103 0.0
H248 H 0.2269 0.50031 0.83088 0.0
H249 H 0.15268 0.46575 0.84897 0.0
H250 H 0.07662 0.46068 0.79727 0.0
H251 H 0.15136 0.49438 0.77881 0.0
H252 H 0.09781 0.49907 0.85672 0.0
H253 H 0.96011 0.36981 0.80129 0.0
H254 H 0.95634 0.32007 0.77367 0.0
H255 H 0.07398 0.31021 0.79659 0.0
H256 H 0.07804 0.35934 0.82445 0.0
H257 H 0.86544 0.42864 0.88938 0.0
H258 H 0.93737 0.45691 0.86994 0.0
H259 H 0.92698 0.31918 0.87524 0.0
H260 H 0.85418 0.29018 0.89442 0.0
H261 H 0.94881 0.35026 0.83931 0.0
H262 H 1.00781 0.41537 0.90161 0.0
H263 H 0.01544 0.45986 0.93148 0.0
H264 H 0.06125 0.58837 0.89881 0.0
H265 H 0.05319 0.54449 0.8687 0.0
C266 C 0.19441 0.49169 0.82327 0.0
C267 C 0.19505 0.50024 0.80339 0.0
C268 C 0.15192 0.47197 0.83368 0.0
C269 C 0.10892 0.46053 0.82455 0.0
C270 C 0.10922 0.46861 0.80462 0.0
C271 C 0.15192 0.48797 0.79409 0.0
C272 C 0.06446 0.44147 0.83622 0.0
C273 C 0.06522 0.46659 0.85284 0.0
C274 C 0.02208 0.39863 0.83144 0.0
C275 C 0.01969 0.36871 0.81483 0.0
C276 C 0.98508 0.3569 0.80045 0.0
C277 C 0.9829 0.32884 0.78476 0.0
C278 C 0.01501 0.31214 0.78334 0.0
C279 C 0.04926 0.32333 0.79766 0.0
C280 C 0.05155 0.35134 0.81339 0.0
C281 C 0.87848 0.40433 0.88652 0.0
C282 C 0.85409 0.35716 0.89354 0.0
C283 C 0.91972 0.42062 0.8754 0.0
C284 C 0.93788 0.39033 0.87125 0.0
C285 C 0.9136 0.34318 0.87822 0.0
C286 C 0.87213 0.32674 0.88928 0.0
C287 C 0.98227 0.40803 0.85971 0.0
C288 C 0.98141 0.38282 0.84311 0.0
C289 C 0.02506 0.45009 0.8648 0.0
C290 C 0.02953 0.47653 0.88288 0.0
C291 C 0.01912 0.45302 0.90078 0.0
C292 C 0.02359 0.47814 0.91776 0.0
C293 C 0.03887 0.5269 0.91704 0.0
C294 C 0.04948 0.5506 0.89934 0.0
C295 C 0.04498 0.52563 0.88231 0.0
H296 H 0.04262 0.54636 0.9302 0.0
H297 H 0.01329 0.29044 0.77118 0.0
H298 H 0.44323 0.59313 0.46117 0.0
H299 H 0.483 0.56642 0.48353 0.0
H300 H 0.6134 0.70177 0.47772 0.0
H301 H 0.57368 0.72917 0.45532 0.0
H302 H 0.62617 0.62057 0.47675 0.0
H303 H 0.55234 0.68635 0.51602 0.0
H304 H 0.48644 0.69754 0.52717 0.0
H305 H 0.40531 0.54936 0.54309 0.0
H306 H 0.47041 0.53705 0.53169 0.0
H307 H 0.7332 0.57098 0.55639 0.0
H308 H 0.70368 0.61147 0.53557 0.0
H309 H 0.56077 0.49108 0.54063 0.0
H310 H 0.58976 0.45074 0.56161 0.0
H311 H 0.56024 0.57341 0.54279 0.0
H312 H 0.63003 0.50578 0.50123 0.0
H313 H 0.69441 0.49281 0.48949 0.0
H314 H 0.78189 0.64282 0.47753 0.0
H315 H 0.71823 0.65679 0.48949 0.0
C316 C 0.48048 0.61722 0.46448 0.0
C317 C 0.50522 0.6634 0.45648 0.0
C318 C 0.5031 0.6019 0.47735 0.0
C319 C 0.55099 0.63228 0.48243 0.0
C320 C 0.57637 0.67783 0.47401 0.0
C321 C 0.55358 0.69343 0.46125 0.0
C322 C 0.57381 0.61649 0.49692 0.0
C323 C 0.61238 0.61106 0.4913 0.0
C324 C 0.55522 0.60336 0.51579 0.0
C325 C 0.51612 0.61069 0.52284 0.0
C326 C 0.52029 0.65604 0.52175 0.0
C327 C 0.4831 0.66261 0.52813 0.0
C328 C 0.44167 0.62416 0.53579 0.0
C329 C 0.4374 0.5791 0.53713 0.0
C330 C 0.47446 0.57231 0.53072 0.0
C331 C 0.69542 0.55329 0.55322 0.0
C332 C 0.66391 0.50743 0.56058 0.0
C333 C 0.67863 0.57641 0.54123 0.0
C334 C 0.63008 0.55405 0.53631 0.0
C335 C 0.59838 0.50902 0.54418 0.0
C336 C 0.61509 0.48592 0.55614 0.0
C337 C 0.61219 0.57667 0.52256 0.0
C338 C 0.57446 0.58339 0.52832 0.0
C339 C 0.63145 0.59079 0.50379 0.0
C340 C 0.66959 0.58241 0.49646 0.0
C341 C 0.66314 0.53606 0.49624 0.0
C342 C 0.69947 0.52852 0.48953 0.0
C343 C 0.74227 0.56699 0.48283 0.0
C344 C 0.74876 0.61307 0.48277 0.0
C345 C 0.71256 0.62082 0.4895 0.0
H346 H 0.77036 0.56108 0.47763 0.0
H347 H 0.41291 0.62932 0.54073 0.0
H348 H 0.33568 0.5634 0.11708 0.0
H349 H 0.3703 0.52263 0.13438 0.0
H350 H 0.43513 0.6391 0.17492 0.0
H351 H 0.40016 0.68028 0.15764 0.0
H352 H 0.49572 0.60442 0.16447 0.0
H353 H 0.33753 0.54247 0.18833 0.0
H354 H 0.25056 0.50895 0.18615 0.0
H355 H 0.236 0.38577 0.15662 0.0
H356 H 0.32302 0.4189 0.15835 0.0
H357 H 0.52923 0.44679 0.22992 0.0
H358 H 0.51237 0.5062 0.21557 0.0
H359 H 0.4346 0.40755 0.16974 0.0
H360 H 0.45137 0.34867 0.18391 0.0
H361 H 0.38218 0.44032 0.18747 0.0
H362 H 0.54216 0.50642 0.16175 0.0
H363 H 0.62924 0.54077 0.16416 0.0
H364 H 0.64026 0.65646 0.19833 0.0
H365 H 0.55309 0.6224 0.19634 0.0
C366 C 0.35713 0.58035 0.12971 0.0
C367 C 0.36453 0.62473 0.13616 0.0
C368 C 0.3771 0.5571 0.13954 0.0
C369 C 0.40466 0.57751 0.1561 0.0
C370 C 0.41386 0.62272 0.16218 0.0
C371 C 0.39388 0.64616 0.1523 0.0
C372 C 0.42172 0.55013 0.16737 0.0
C373 C 0.47095 0.56885 0.16982 0.0
C374 C 0.38936 0.5037 0.17427 0.0
C375 C 0.33688 0.48335 0.17336 0.0
C376 C 0.31583 0.50838 0.18125 0.0
C377 C 0.26651 0.48943 0.18011 0.0
C378 C 0.23778 0.4453 0.17122 0.0
C379 C 0.25831 0.41997 0.1635 0.0
C380 C 0.30763 0.43879 0.16457 0.0
C381 C 0.50949 0.43837 0.21656 0.0
C382 C 0.4911 0.39294 0.20813 0.0
C383 C 0.49977 0.4722 0.20841 0.0
C384 C 0.4719 0.4611 0.19166 0.0
C385 C 0.45571 0.41667 0.18277 0.0
C386 C 0.46526 0.38304 0.19089 0.0
C387 C 0.45628 0.49375 0.18394 0.0
C388 C 0.40706 0.47606 0.18231 0.0
C389 C 0.4887 0.54107 0.17794 0.0
C390 C 0.54105 0.56156 0.1791 0.0
C391 C 0.56309 0.53894 0.16993 0.0
C392 C 0.61248 0.55841 0.17118 0.0
C393 C 0.64024 0.60068 0.18144 0.0
C394 C 0.61869 0.62366 0.19042 0.0
C395 C 0.56931 0.60431 0.18922 0.0
H396 H 0.67847 0.6157 0.18239 0.0
H397 H 0.1996 0.43069 0.17035 0.0
H398 H 0.34861 0.7687 0.79181 0.0
H399 H 0.38456 0.84391 0.80978 0.0
H400 H 0.47424 0.80274 0.84015 0.0
H401 H 0.43745 0.72696 0.82273 0.0
H402 H 0.4394 0.84297 0.86422 0.0
H403 H 0.51601 0.87923 0.80175 0.0
H404 H 0.51791 0.88228 0.76627 0.0
H405 H 0.45229 0.96906 0.76696 0.0
H406 H 0.44944 0.96598 0.80247 0.0
H407 H 0.6544 0.05548 0.88552 0.0
H408 H 0.59024 0.98003 0.87293 0.0
H409 H 0.50702 0.04687 0.86065 0.0
H410 H 0.57132 0.12296 0.87377 0.0
H411 H 0.52473 0.99637 0.82852 0.0
H412 H 0.45754 0.96834 0.89126 0.0
H413 H 0.45106 0.96143 0.92663 0.0
H414 H 0.49917 0.85981 0.92557 0.0
H415 H 0.50601 0.86613 0.89018 0.0
C416 C 0.37552 0.77537 0.80251 0.0
C417 C 0.39036 0.7419 0.80576 0.0
C418 C 0.39629 0.81855 0.81265 0.0
C419 C 0.43245 0.82918 0.82617 0.0
C420 C 0.44647 0.79536 0.82977 0.0
C421 C 0.42574 0.75224 0.81965 0.0
C422 C 0.45694 0.87602 0.83623 0.0
C423 C 0.45826 0.87651 0.85642 0.0
C424 C 0.48014 0.91991 0.82606 0.0
C425 C 0.48196 0.92188 0.80474 0.0
C426 C 0.50163 0.89863 0.79433 0.0
C427 C 0.50294 0.90042 0.77422 0.0
C428 C 0.48508 0.92571 0.76436 0.0
C429 C 0.46601 0.94939 0.77461 0.0
C430 C 0.46455 0.94765 0.79473 0.0
C431 C 0.62243 0.0542 0.88021 0.0
C432 C 0.618 0.09522 0.88048 0.0
C433 C 0.58558 0.01091 0.87322 0.0
C434 C 0.54384 1.00786 0.86601 0.0
C435 C 0.53888 0.04853 0.86636 0.0
C436 C 0.57548 0.09181 0.87382 0.0
C437 C 0.50812 0.96313 0.85648 0.0
C438 C 0.50499 0.96294 0.83634 0.0
C439 C 0.48344 0.91953 0.8667 0.0
C440 C 0.48249 0.9179 0.88805 0.0
C441 C 0.46723 0.9449 0.89858 0.0
C442 C 0.46306 0.94075 0.91861 0.0
C443 C 0.47432 0.9099 0.92832 0.0
C444 C 0.49012 0.88342 0.91801 0.0
C445 C 0.49407 0.88721 0.89796 0.0
H446 H 0.47118 0.90683 0.94383 0.0
H447 H 0.48614 0.92707 0.7488 0.0
H448 H 0.92006 0.57181 0.51914 0.0
H449 H 0.99413 0.58334 0.50546 0.0
H450 H 1.00238 0.4952 0.55014 0.0
H451 H 0.92841 0.48494 0.56442 0.0
H452 H 0.08674 0.57456 0.54554 0.0
H453 H 0.97796 0.45459 0.50361 0.0
H454 H 0.90823 0.4124 0.48228 0.0
H455 H 0.9691 0.53115 0.44308 0.0
H456 H 0.0389 0.57442 0.46431 0.0
H457 H 0.29173 0.60635 0.48898 0.0
H458 H 0.21486 0.56729 0.50595 0.0
H459 H 0.17576 0.66102 0.47761 0.0
H460 H 0.2527 0.70159 0.46138 0.0
H461 H 0.10582 0.56009 0.47542 0.0
H462 H 0.20822 0.68292 0.52156 0.0
H463 H 0.27767 0.72248 0.54321 0.0
H464 H 0.22767 0.59144 0.5746 0.0
H465 H 0.15823 0.55091 0.55293 0.0
C466 C 0.93749 0.55478 0.52608 0.0
C467 C 0.91844 0.5277 0.54294 0.0
C468 C 0.97966 0.56094 0.5181 0.0
C469 C 1.00365 0.53966 0.52661 0.0
C470 C 0.98436 0.51177 0.54327 0.0
C471 C 0.94192 0.5056 0.55132 0.0
C472 C 0.05009 0.54925 0.51846 0.0
C473 C 0.09071 0.57023 0.53029 0.0
C474 C 0.05548 0.54376 0.49854 0.0
C475 C 0.01364 0.51786 0.48562 0.0
C476 C 0.97636 0.47186 0.4905 0.0
C477 C 0.93682 0.44773 0.47842 0.0
C478 C 0.93421 0.4691 0.46135 0.0
C479 C 0.97118 0.51463 0.45631 0.0
C480 C 1.0108 0.53895 0.46835 0.0
C481 C 0.26709 0.61915 0.48657 0.0
C482 C 0.27841 0.65685 0.47357 0.0
C483 C 0.22308 0.59654 0.49619 0.0
C484 C 0.18956 0.61104 0.49287 0.0
C485 C 0.20094 0.64892 0.48017 0.0
C486 C 0.24495 0.67187 0.47078 0.0
C487 C 0.14218 0.58695 0.50237 0.0
C488 C 0.1015 0.56321 0.49075 0.0
C489 C 0.13676 0.58931 0.52247 0.0
C490 C 0.17843 0.61373 0.53547 0.0
C491 C 0.2123 0.66242 0.53295 0.0
C492 C 0.2516 0.68504 0.54525 0.0
C493 C 0.25718 0.65944 0.56022 0.0
C494 C 0.22337 0.61119 0.56296 0.0
C495 C 0.18404 0.58838 0.55068 0.0
H496 H 0.28762 0.67703 0.56974 0.0
H497 H 0.90356 0.45036 0.45201 0.0
H498 H 0.63638 0.40013 0.88763 0.0
H499 H 0.59754 0.43319 0.86806 0.0
H500 H 0.60547 0.35753 0.81845 0.0
H501 H 0.64353 0.323 0.83814 0.0
H502 H 0.62459 0.46035 0.81256 0.0
H503 H 0.50877 0.30441 0.83644 0.0
H504 H 0.47203 0.2422 0.86148 0.0
H505 H 0.44145 0.33444 0.89544 0.0
H506 H 0.47878 0.39754 0.87072 0.0
H507 H 0.43392 0.48099 0.76657 0.0
H508 H 0.49214 0.45838 0.77746 0.0
H509 H 0.46776 0.48364 0.83633 0.0
H510 H 0.40857 0.50415 0.82533 0.0
H511 H 0.45731 0.39935 0.83339 0.0
H512 H 0.57492 0.55638 0.81079 0.0
H513 H 0.61407 0.62096 0.78681 0.0
H514 H 0.64282 0.53012 0.75112 0.0
H515 H 0.60285 0.46448 0.77469 0.0
C516 C 0.63012 0.39058 0.87254 0.0
C517 C 0.64224 0.35817 0.86454 0.0
C518 C 0.60836 0.40992 0.86134 0.0
C519 C 0.59845 0.39755 0.84187 0.0
C520 C 0.61311 0.36764 0.83345 0.0
C521 C 0.63478 0.34794 0.84472 0.0
C522 C 0.56791 0.41168 0.83128 0.0
C523 C 0.58773 0.44656 0.81679 0.0
C524 C 0.52012 0.39398 0.83705 0.0
C525 C 0.49692 0.35582 0.8518 0.0
C526 C 0.49455 0.31156 0.84931 0.0
C527 C 0.47357 0.27612 0.86344 0.0
C528 C 0.4545 0.2844 0.88006 0.0
C529 C 0.45626 0.32809 0.88256 0.0
C530 C 0.47728 0.36369 0.86849 0.0
C531 C 0.44231 0.48286 0.78174 0.0
C532 C 0.41757 0.4946 0.79521 0.0
C533 C 0.47538 0.46994 0.78798 0.0
C534 C 0.48441 0.46928 0.80775 0.0
C535 C 0.46129 0.4836 0.82103 0.0
C536 C 0.42788 0.49569 0.81481 0.0
C537 C 0.5142 0.44962 0.815 0.0
C538 C 0.494 0.41315 0.82888 0.0
C539 C 0.56153 0.4661 0.80864 0.0
C540 C 0.58541 0.50536 0.79441 0.0
C541 C 0.58913 0.54997 0.79773 0.0
C542 C 0.61149 0.58676 0.78421 0.0
C543 C 0.63067 0.57951 0.7674 0.0
C544 C 0.62766 0.5355 0.76409 0.0
C545 C 0.60518 0.49851 0.77753 0.0
H546 H 0.64803 0.60805 0.75696 0.0
H547 H 0.43829 0.25692 0.89098 0.0
H548 H 0.62621 0.24632 0.55651 0.0
H549 H 0.59572 0.17265 0.53799 0.0
H550 H 0.67643 0.25345 0.4885 0.0
H551 H 0.70731 0.32792 0.50711 0.0
H552 H 0.58378 0.17388 0.47923 0.0
H553 H 0.72385 0.20576 0.51378 0.0
H554 H 0.77646 0.22794 0.54212 0.0
H555 H 0.66984 0.10445 0.57244 0.0
H556 H 0.61624 0.08194 0.54439 0.0
H557 H 0.55418 0.95294 0.43972 0.0
H558 H 0.58385 0.03615 0.44953 0.0
H559 H 0.53852 0.98882 0.50788 0.0
H560 H 0.51136 0.90647 0.49819 0.0
H561 H 0.62394 0.05882 0.50859 0.0
H562 H 0.48083 0.03173 0.47443 0.0
H563 H 0.42929 0.01043 0.44575 0.0
H564 H 0.5434 0.12453 0.41396 0.0
H565 H 0.59577 0.14626 0.4424 0.0
C566 C 0.6372 0.24853 0.54164 0.0
C567 C 0.66976 0.2928 0.53336 0.0
C568 C 0.61961 0.20642 0.53105 0.0
C569 C 0.63443 0.20753 0.51198 0.0
C570 C 0.66465 0.25187 0.50322 0.0
C571 C 0.68223 0.29431 0.51385 0.0
C572 C 0.62129 0.16188 0.50209 0.0
C573 C 0.59302 0.14886 0.48544 0.0
C574 C 0.63347 0.12936 0.5102 0.0
C575 C 0.6659 0.14234 0.52701 0.0
C576 C 0.71149 0.18349 0.52653 0.0
C577 C 0.74151 0.19612 0.54254 0.0
C578 C 0.72647 0.16767 0.55908 0.0
C579 C 0.68143 0.12646 0.55962 0.0
C580 C 0.65124 0.11372 0.54366 0.0
C581 C 0.55 0.96055 0.45455 0.0
C582 C 0.53064 0.9236 0.46826 0.0
C583 C 0.56682 1.00801 0.46015 0.0
C584 C 0.56329 0.019 0.47947 0.0
C585 C 0.54206 0.98153 0.49293 0.0
C586 C 0.52637 0.93448 0.48742 0.0
C587 C 0.58407 0.06932 0.48622 0.0
C588 C 0.61457 0.08362 0.50224 0.0
C589 C 0.57402 0.10283 0.47744 0.0
C590 C 0.54228 0.09034 0.46048 0.0
C591 C 0.49496 0.05214 0.4613 0.0
C592 C 0.46561 0.04002 0.44509 0.0
C593 C 0.48312 0.06605 0.42802 0.0
C594 C 0.52994 0.10439 0.42717 0.0
C595 C 0.55943 0.11668 0.44333 0.0
H596 H 0.46038 0.05656 0.41548 0.0
H597 H 0.74975 0.17751 0.57146 0.0
H598 H 0.11358 0.59012 0.15926 0.0
H599 H 0.0311 0.53689 0.16908 0.0
H600 H 0.9819 0.56941 0.11666 0.0
H601 H 0.06503 0.62254 0.10666 0.0
H602 H 0.9695 0.56173 0.17761 0.0
H603 H 0.8754 0.48636 0.10593 0.0
H604 H 0.88636 0.45536 0.075 0.0
H605 H 0.97584 0.41095 0.10281 0.0
H606 H 0.9666 0.44306 0.13371 0.0
H607 H 0.72803 0.46316 0.19933 0.0
H608 H 0.80178 0.50604 0.18065 0.0
H609 H 0.80231 0.37427 0.17215 0.0
H610 H 0.72751 0.33094 0.19043 0.0
H611 H 0.83764 0.43059 0.14076 0.0
H612 H 0.86435 0.44909 0.20914 0.0
H613 H 0.85216 0.46934 0.24208 0.0
H614 H 0.90046 0.61377 0.2244 0.0
H615 H 0.91225 0.59415 0.19126 0.0
C616 C 0.08521 0.58576 0.14978 0.0
C617 C 0.09575 0.611 0.13232 0.0
C618 C 0.03801 0.55513 0.15536 0.0
C619 C 1.00006 0.54909 0.14368 0.0
C620 C 1.01043 0.57291 0.12585 0.0
C621 C 0.05792 0.60345 0.12017 0.0
C622 C 0.95027 0.52144 0.15116 0.0
C623 C 0.94077 0.53314 0.16947 0.0
C624 C 0.91255 0.48393 0.14073 0.0
C625 C 0.92058 0.46735 0.12202 0.0
C626 C 0.89774 0.47034 0.10535 0.0
C627 C 0.90376 0.45272 0.08784 0.0
C628 C 0.93184 0.43126 0.08693 0.0
C629 C 0.95435 0.42785 0.1035 0.0
C630 C 0.94915 0.44618 0.12096 0.0
C631 C 0.74355 0.44326 0.19322 0.0
C632 C 0.72254 0.39389 0.19654 0.0
C633 C 0.78565 0.46776 0.18255 0.0
C634 C 0.80821 0.44359 0.17535 0.0
C635 C 0.78567 0.39372 0.17761 0.0
C636 C 0.74303 0.369 0.18808 0.0
C637 C 0.85722 0.47093 0.16717 0.0
C638 C 0.86644 0.45943 0.14877 0.0
C639 C 0.89516 0.50798 0.17772 0.0
C640 C 0.88876 0.52004 0.1977 0.0
C641 C 0.87211 0.48509 0.21226 0.0
C642 C 0.86529 0.49645 0.23096 0.0
C643 C 0.87543 0.54278 0.23532 0.0
C644 C 0.89256 0.57788 0.221 0.0
C645 C 0.89934 0.56667 0.20225 0.0
H646 H 0.8701 0.55151 0.24981 0.0
H647 H 0.93619 0.41733 0.07339 0.0
H648 H 0.43699 0.84116 0.38392 0.0
H649 H 0.46036 0.91216 0.36441 0.0
H650 H 0.6087 0.95937 0.37468 0.0
H651 H 0.5853 0.88764 0.3944 0.0
H652 H 0.58509 0.03074 0.38105 0.0
H653 H 0.56456 0.91992 0.33123 0.0
H654 H 0.52278 0.84384 0.31341 0.0
H655 H 0.40718 0.86856 0.30131 0.0
H656 H 0.44794 0.94448 0.31931 0.0
H657 H 0.66335 0.22102 0.31239 0.0
H658 H 0.65018 0.15106 0.33061 0.0
H659 H 0.49858 0.08587 0.32172 0.0
H660 H 0.51109 0.15605 0.30384 0.0
H661 H 0.53001 0.0241 0.31393 0.0
H662 H 0.54643 0.13125 0.36458 0.0
H663 H 0.5844 0.20568 0.38353 0.0
H664 H 0.70383 0.18681 0.39523 0.0
H665 H 0.66704 0.11272 0.37598 0.0
C666 C 0.47466 0.86629 0.38186 0.0
C667 C 0.50935 0.85873 0.39063 0.0
C668 C 0.48795 0.90686 0.37066 0.0
C669 C 0.53627 0.94097 0.36797 0.0
C670 C 0.57119 0.93339 0.37652 0.0
C671 C 0.55784 0.89231 0.38765 0.0
C672 C 0.54955 0.98518 0.35682 0.0
C673 C 0.57404 0.0295 0.36623 0.0
C674 C 0.5337 0.98329 0.33769 0.0
C675 C 0.50918 0.93776 0.32675 0.0
C676 C 0.53007 0.90898 0.3249 0.0
C677 C 0.50659 0.8659 0.31474 0.0
C678 C 0.46231 0.85133 0.30627 0.0
C679 C 0.44147 0.87988 0.30789 0.0
C680 C 0.46478 0.92297 0.31805 0.0
C681 C 0.62707 0.19232 0.31449 0.0
C682 C 0.58834 0.19468 0.30652 0.0
C683 C 0.61965 0.15212 0.32491 0.0
C684 C 0.57339 0.11324 0.32761 0.0
C685 C 0.53465 0.11537 0.31976 0.0
C686 C 0.54197 0.15566 0.30944 0.0
C687 C 0.56538 0.06979 0.33818 0.0
C688 C 0.5417 0.02555 0.32867 0.0
C689 C 0.58169 0.07177 0.35726 0.0
C690 C 0.60428 0.11676 0.36858 0.0
C691 C 0.58111 0.14329 0.37095 0.0
C692 C 0.60238 0.1854 0.38178 0.0
C693 C 0.64658 0.20106 0.39052 0.0
C694 C 0.66964 0.17468 0.38842 0.0
C695 C 0.64861 0.13266 0.37752 0.0
H696 H 0.6629 0.23356 0.39897 0.0
H697 H 0.44419 0.81797 0.29841 0.0
H698 H 0.80542 0.45377 0.97592 0.0
H699 H 0.87715 0.51039 0.99343 0.0
H700 H 0.93227 0.41431 0.98828 0.0
H701 H 0.86002 0.35688 0.9712 0.0
H702 H 0.9472 0.45233 0.02404 0.0
H703 H 0.97171 0.5098 0.95916 0.0
H704 H 0.95163 0.53603 0.92907 0.0
H705 H 0.95231 0.6524 0.95902 0.0
H706 H 0.97139 0.62625 0.98942 0.0
H707 H 0.1864 0.60422 0.04592 0.0
H708 H 0.11604 0.55651 0.02612 0.0
H709 H 0.06649 0.65511 0.03787 0.0
H710 H 0.13793 0.70396 0.05753 0.0
H711 H 0.04724 0.61811 0.99958 0.0
H712 H 0.02731 0.55944 0.06482 0.0
H713 H 0.05723 0.53592 0.09291 0.0
H714 H 0.0526 0.42075 0.06056 0.0
H715 H 0.02403 0.44437 0.03205 0.0
C716 C 0.83245 0.44431 0.9787 0.0
C717 C 0.82684 0.40068 0.97206 0.0
C718 C 0.8737 0.47698 0.98858 0.0
C719 C 0.91039 0.46688 0.992 0.0
C720 C 0.90452 0.42297 0.98577 0.0
C721 C 0.86331 0.39031 0.97584 0.0
C722 C 0.95515 0.50234 1.00183 0.0
C723 C 0.96916 0.48842 0.01859 0.0
C724 C 0.98362 0.54975 0.99491 0.0
C725 C 0.97245 0.56574 0.97663 0.0
C726 C 0.96713 0.54072 0.95938 0.0
C727 C 0.95599 0.5556 0.94226 0.0
C728 C 0.95063 0.5958 0.94214 0.0
C729 C 0.95643 0.62123 0.95915 0.0
C730 C 0.96738 0.60638 0.97633 0.0
C731 C 0.16099 0.61629 0.04404 0.0
C732 C 0.16738 0.65754 0.05344 0.0
C733 C 0.12077 0.58895 0.03271 0.0
C734 C 0.08555 0.60172 0.03083 0.0
C735 C 0.09317 0.64454 0.0392 0.0
C736 C 0.13392 0.67236 0.05042 0.0
C737 C 0.03921 0.56792 0.02164 0.0
C738 C 0.0249 0.58213 1.00508 0.0
C739 C 1.01063 0.52061 0.02862 0.0
C740 C 0.02395 0.50397 0.04622 0.0
C741 C 0.03281 0.52919 0.06366 0.0
C742 C 0.04984 0.51606 0.07962 0.0
C743 C 0.05727 0.47721 0.07846 0.0
C744 C 0.04712 0.45103 0.06139 0.0
C745 C 0.03052 0.46428 0.04532 0.0
H746 H 0.07041 0.4671 0.09084 0.0
H747 H 0.94207 0.60731 0.92886 0.0
H748 H 0.40147 0.58319 0.70798 0.0
H749 H 0.44953 0.56036 0.68832 0.0
H750 H 0.3682 0.41591 0.70968 0.0
H751 H 0.31902 0.43841 0.72908 0.0
H752 H 0.4727 0.4641 0.71396 0.0
H753 H 0.35287 0.42876 0.66595 0.0
H754 H 0.30124 0.44606 0.64555 0.0
H755 H 0.42481 0.56415 0.61976 0.0
H756 H 0.47722 0.54803 0.64024 0.0
H757 H 0.59224 0.37489 0.65697 0.0
H758 H 0.53374 0.38756 0.67366 0.0
H759 H 0.58007 0.5179 0.64169 0.0
H760 H 0.6368 0.50413 0.62402 0.0
H761 H 0.48885 0.47246 0.64286 0.0
H762 H 0.60929 0.51356 0.69041 0.0
H763 H 0.66443 0.50365 0.7117 0.0
H764 H 0.54584 0.38487 0.73963 0.0
H765 H 0.48996 0.39333 0.7182 0.0
C766 C 0.39308 0.54629 0.70811 0.0
C767 C 0.35633 0.51244 0.7199 0.0
C768 C 0.42059 0.53333 0.69691 0.0
C769 C 0.41243 0.48649 0.69757 0.0
C770 C 0.37492 0.45222 0.70895 0.0
C771 C 0.34664 0.46497 0.71987 0.0
C772 C 0.44537 0.47462 0.68737 0.0
C773 C 0.47571 0.4649 0.69839 0.0
C774 C 0.45042 0.47772 0.66713 0.0
C775 C 0.41897 0.48743 0.65477 0.0
C776 C 0.36905 0.4587 0.65607 0.0
C777 C 0.33964 0.46824 0.64446 0.0
C778 C 0.35973 0.50625 0.6314 0.0
C779 C 0.40929 0.53474 0.6299 0.0
C780 C 0.43887 0.52539 0.64149 0.0
C781 C 0.5901 0.40617 0.65328 0.0
C782 C 0.61977 0.43835 0.63895 0.0
C783 C 0.55673 0.41368 0.66309 0.0
C784 C 0.55269 0.45405 0.65918 0.0
C785 C 0.58241 0.48646 0.64504 0.0
C786 C 0.6154 0.4787 0.63503 0.0
C787 C 0.5167 0.46189 0.66941 0.0
C788 C 0.48583 0.47113 0.65842 0.0
C789 C 0.51182 0.45928 0.68975 0.0
C790 C 0.54543 0.45364 0.70248 0.0
C791 C 0.59496 0.48491 0.70091 0.0
C792 C 0.62636 0.47956 0.71301 0.0
C793 C 0.60866 0.44344 0.72692 0.0
C794 C 0.55951 0.41266 0.72878 0.0
C795 C 0.52795 0.41768 0.71664 0.0
H796 H 0.63302 0.43952 0.73634 0.0
H797 H 0.3369 0.51356 0.62242 0.0
H798 H 0.1471 0.50317 0.71657 0.0
H799 H 0.07511 0.4893 0.69981 0.0
H800 H 0.13664 0.64114 0.6915 0.0
H801 H 0.20807 0.65546 0.70885 0.0
H802 H 0.04346 0.60024 0.70083 0.0
H803 H 0.13687 0.57058 0.65514 0.0
H804 H 0.18231 0.53349 0.64318 0.0
H805 H 0.05751 0.39431 0.6482 0.0
H806 H 0.01146 0.43055 0.66043 0.0
H807 H 0.88169 0.57945 0.62514 0.0
H808 H 0.95056 0.59956 0.64589 0.0
H809 H 0.90174 0.44936 0.65294 0.0
H810 H 0.83435 0.42946 0.63184 0.0
H811 H 0.99083 0.49332 0.64393 0.0
H812 H 0.89707 0.52289 0.68986 0.0
H813 H 0.85186 0.56023 0.70183 0.0
H814 H 0.9766 0.6993 0.6963 0.0
H815 H 0.0224 0.66281 0.68406 0.0
C816 C 0.14521 0.53372 0.71143 0.0
C817 C 0.18381 0.58046 0.71395 0.0
C818 C 0.10409 0.52569 0.70169 0.0
C819 C 0.1007 0.56414 0.69412 0.0
C820 C 0.13848 0.61088 0.69711 0.0
C821 C 0.17959 0.61896 0.70688 0.0
C822 C 0.05841 0.55552 0.6826 0.0
C823 C 0.03218 0.57726 0.68826 0.0
C824 C 0.0433 0.52511 0.66633 0.0
C825 C 0.07085 0.50326 0.65887 0.0
C826 C 0.11921 0.53205 0.65382 0.0
C827 C 0.14505 0.51118 0.64697 0.0
C828 C 0.12284 0.46156 0.64498 0.0
C829 C 0.07468 0.43273 0.64978 0.0
C830 C 0.04868 0.45341 0.65665 0.0
C831 C 0.88536 0.55084 0.63142 0.0
C832 C 0.85279 0.50293 0.62684 0.0
C833 C 0.92469 0.56231 0.6433 0.0
C834 C 0.93148 0.52596 0.65106 0.0
C835 C 0.89768 0.4781 0.64705 0.0
C836 C 0.859 0.46675 0.63503 0.0
C837 C 0.97498 0.53716 0.66235 0.0
C838 C 1.00181 0.51616 0.65654 0.0
C839 C 0.99048 0.56819 0.67846 0.0
C840 C 0.96302 0.59014 0.68586 0.0
C841 C 0.91475 0.56145 0.69106 0.0
C842 C 0.88904 0.58246 0.69792 0.0
C843 C 0.91131 0.63211 0.69977 0.0
C844 C 0.95938 0.66085 0.69482 0.0
C845 C 0.98524 0.64002 0.68794 0.0
H846 H 0.89134 0.64831 0.70508 0.0
H847 H 0.14292 0.44547 0.63968 0.0
H848 H 0.59207 0.41426 0.29794 0.0
H849 H 0.57114 0.46173 0.31874 0.0
H850 H 0.42187 0.35735 0.31224 0.0
H851 H 0.44282 0.30901 0.29146 0.0
H852 H 0.44587 0.45316 0.30427 0.0
H853 H 0.4699 0.36592 0.35429 0.0
H854 H 0.51295 0.33304 0.37189 0.0
H855 H 0.62932 0.47507 0.38225 0.0
H856 H 0.58728 0.50881 0.36446 0.0
H857 H 0.37287 0.57409 0.36844 0.0
H858 H 0.38477 0.51363 0.35259 0.0
H859 H 0.53567 0.59683 0.36434 0.0
H860 H 0.52369 0.65723 0.38055 0.0
H861 H 0.50558 0.506 0.37063 0.0
H862 H 0.48804 0.59377 0.31894 0.0
H863 H 0.44955 0.62968 0.30014 0.0
H864 H 0.32657 0.49077 0.2915 0.0
H865 H 0.36408 0.45408 0.31048 0.0
C866 C 0.55478 0.40095 0.30118 0.0
C867 C 0.51904 0.35789 0.2931 0.0
C868 C 0.5429 0.42809 0.31311 0.0
C869 C 0.49497 0.41304 0.3171 0.0
C870 C 0.4591 0.36951 0.30939 0.0
C871 C 0.47107 0.34182 0.29764 0.0
C872 C 0.48285 0.44468 0.32826 0.0
C873 C 0.45799 0.46395 0.31893 0.0
C874 C 0.50022 0.46003 0.34713 0.0
C875 C 0.52556 0.43988 0.3579 0.0
C876 C 0.50484 0.39014 0.36018 0.0
C877 C 0.52904 0.37135 0.37022 0.0
C878 C 0.57389 0.40194 0.37815 0.0
C879 C 0.59459 0.45141 0.37609 0.0
C880 C 0.57056 0.47039 0.36605 0.0
C881 C 0.40867 0.57977 0.36752 0.0
C882 C 0.44741 0.62079 0.3756 0.0
C883 C 0.41544 0.54508 0.35845 0.0
C884 C 0.46125 0.55091 0.35694 0.0
C885 C 0.49995 0.59146 0.36528 0.0
C886 C 0.4931 0.62601 0.37455 0.0
C887 C 0.46874 0.51481 0.34661 0.0
C888 C 0.49293 0.49486 0.35605 0.0
C889 C 0.45134 0.49929 0.32771 0.0
C890 C 0.42866 0.52125 0.31631 0.0
C891 C 0.45262 0.57093 0.31316 0.0
C892 C 0.43101 0.59141 0.30245 0.0
C893 C 0.38558 0.56254 0.29468 0.0
C894 C 0.36172 0.5131 0.29756 0.0
C895 C 0.38315 0.49244 0.30828 0.0
H896 H 0.36892 0.57847 0.28638 0.0
H897 H 0.59256 0.38732 0.38591 0.0
H898 H 0.70564 0.14276 0.95955 0.0
H899 H 0.65453 0.07157 0.97907 0.0
H900 H 0.54566 0.11081 0.98036 0.0
H901 H 0.59626 0.18155 0.96105 0.0
H902 H 0.55207 0.07399 0.01489 0.0
H903 H 0.54352 0.03661 0.94781 0.0
H904 H 0.57553 0.03298 0.91622 0.0
H905 H 0.62314 0.94111 0.93937 0.0
H906 H 0.59244 0.94533 0.97139 0.0
H907 H 0.34511 0.85025 0.03489 0.0
H908 H 0.40203 0.92405 0.01849 0.0
H909 H 0.50551 0.87779 0.01768 0.0
H910 H 0.44976 0.80471 0.03423 0.0
H911 H 0.50406 0.91833 0.98365 0.0
H912 H 0.51333 0.9568 0.051 0.0
H913 H 0.48113 0.96117 0.08263 0.0
H914 H 0.43043 0.0495 0.05848 0.0
H915 H 0.46186 0.0452 0.02663 0.0
C916 C 0.67124 0.13665 0.96436 0.0
C917 C 0.65479 0.16747 0.95865 0.0
C918 C 0.64199 0.09592 0.97543 0.0
C919 C 0.59601 0.08559 0.98098 0.0
C920 C 0.5809 0.11797 0.97625 0.0
C921 C 0.60984 0.1583 0.96512 0.0
C922 C 0.56188 0.03938 0.99028 0.0
C923 C 0.54139 0.03997 0.00802 0.0
C924 C 0.54823 0.99493 0.98138 0.0
C925 C 0.56641 0.99199 0.96211 0.0
C926 C 0.56156 0.01631 0.94628 0.0
C927 C 0.57958 0.01421 0.92827 0.0
C928 C 0.60183 0.98717 0.92578 0.0
C929 C 0.60611 0.96223 0.94134 0.0
C930 C 0.58847 0.96454 0.95944 0.0
C931 C 0.37987 0.85555 0.03127 0.0
C932 C 0.39247 0.82108 0.03615 0.0
C933 C 0.41244 0.89788 0.02185 0.0
C934 C 0.45831 0.90674 0.01708 0.0
C935 C 0.47035 0.87177 0.02121 0.0
C936 C 0.43802 0.82963 0.03068 0.0
C937 C 0.49437 0.95293 0.0083 0.0
C938 C 0.51506 0.95232 0.99061 0.0
C939 C 0.50817 0.99736 0.01723 0.0
C940 C 0.48956 1.0003 0.03639 0.0
C941 C 0.49502 0.97688 0.0524 0.0
C942 C 0.47695 0.97939 0.07038 0.0
C943 C 0.45362 1.00548 0.07255 0.0
C944 C 0.44845 0.02925 0.05677 0.0
C945 C 0.46644 0.02684 0.03876 0.0
H946 H 0.43964 1.00739 0.08647 0.0
H947 H 0.61537 0.98515 0.91179 0.0
loop_
_geom_bond_atom_site_label_1
_geom_bond_atom_site_label_2
_geom_bond_distance
_geom_bond_site_symmetry_2
_ccdc_geom_bond_type
Co0 N4 2.148 . S
Co0 N10 2.128 . S
Co0 N20 2.194 . S
Co0 O25 2.351 . S
Co0 O26 2.155 . S
Co0 O27 2.096 . S
C1 N4 1.301 . S
C1 N5 1.328 . S
C1 H6 0.930 . S
C2 C3 1.333 . S
C2 N4 1.317 . S
C2 H7 0.930 . S
C3 C2 1.333 . S
C3 N5 1.350 . S
C3 H29 0.931 . S
N4 Co0 2.148 . S
N4 C1 1.301 . S
N4 C2 1.317 . S
N5 C1 1.328 . S
N5 C3 1.350 . S
H6 C1 0.930 . S
H7 C2 0.930 . S
C8 O9 1.224 . S
C8 O27 1.247 . S
O9 C8 1.224 . S
N10 Co0 2.128 . S
N10 C11 1.355 . S
N10 C13 1.311 . S
C11 N10 1.355 . S
C11 C12 1.363 . S
C11 H23 0.929 . S
C12 C11 1.363 . S
C12 N14 1.375 . S
C12 H30 0.931 . S
C13 N10 1.311 . S
C13 N14 1.347 . S
C13 H24 0.929 . S
N14 C12 1.375 . S
N14 C13 1.347 . S
C15 C18 1.365 . S
C15 N20 1.328 . S
C15 H21 0.929 . S
C16 C17 1.362 . S
C16 C19 1.378 . S
C16 H31 0.929 . S
C17 C16 1.362 . S
C17 C18 1.366 . S
C18 C15 1.365 . S
C18 C17 1.366 . S
C18 H32 0.930 . S
C19 C16 1.378 . S
C19 N20 1.315 . S
C19 H22 0.930 . S
N20 Co0 2.194 . S
N20 C15 1.328 . S
N20 C19 1.315 . S
H21 C15 0.929 . S
H22 C19 0.930 . S
H23 C11 0.929 . S
H24 C13 0.929 . S
O25 Co0 2.351 . S
O25 C28 1.244 . S
O26 Co0 2.155 . S
O26 C28 1.240 . S
O27 Co0 2.096 . S
O27 C8 1.247 . S
C28 O25 1.244 . S
C28 O26 1.240 . S
H29 C3 0.931 . S
H30 C12 0.931 . S
H31 C16 0.929 . S
H32 C18 0.930 . S
Co33 N37 2.148 . S
Co33 N43 2.128 . S
Co33 N53 2.194 . S
Co33 O58 2.351 . S
Co33 O59 2.155 . S
Co33 O60 2.096 . S
C34 N37 1.301 . S
C34 N38 1.328 . S
C34 H39 0.930 . S
C35 C36 1.333 . S
C35 N37 1.317 . S
C35 H40 0.930 . S
C36 C35 1.333 . S
C36 N38 1.350 . S
C36 H62 0.931 . S
N37 Co33 2.148 . S
N37 C34 1.301 . S
N37 C35 1.317 . S
N38 C34 1.328 . S
N38 C36 1.350 . S
H39 C34 0.930 . S
H40 C35 0.930 . S
C41 O42 1.224 . S
C41 O60 1.247 . S
O42 C41 1.224 . S
N43 Co33 2.128 . S
N43 C44 1.355 . S
N43 C46 1.311 . S
C44 N43 1.355 . S
C44 C45 1.363 . S
C44 H56 0.929 . S
C45 C44 1.363 . S
C45 N47 1.375 . S
C45 H63 0.931 . S
C46 N43 1.311 . S
C46 N47 1.347 . S
C46 H57 0.929 . S
N47 C45 1.375 . S
N47 C46 1.347 . S
C48 C51 1.365 . S
C48 N53 1.328 . S
C48 H54 0.929 . S
C49 C50 1.362 . S
C49 C52 1.378 . S
C49 H64 0.929 . S
C50 C49 1.362 . S
C50 C51 1.366 . S
C51 C48 1.365 . S
C51 C50 1.366 . S
C51 H65 0.930 . S
C52 C49 1.378 . S
C52 N53 1.315 . S
C52 H55 0.930 . S
N53 Co33 2.194 . S
N53 C48 1.328 . S
N53 C52 1.315 . S
H54 C48 0.929 . S
H55 C52 0.930 . S
H56 C44 0.929 . S
H57 C46 0.929 . S
O58 Co33 2.351 . S
O58 C61 1.244 . S
O59 Co33 2.155 . S
O59 C61 1.240 . S
O60 Co33 2.096 . S
O60 C41 1.247 . S
C61 O58 1.244 . S
C61 O59 1.240 . S
H62 C36 0.931 . S
H63 C45 0.931 . S
H64 C49 0.929 . S
H65 C51 0.930 . S
Co66 N70 2.148 . S
Co66 N76 2.128 . S
Co66 N86 2.194 . S
Co66 O91 2.351 . S
Co66 O92 2.155 . S
Co66 O93 2.096 . S
C67 N70 1.301 . S
C67 N71 1.328 . S
C67 H72 0.930 . S
C68 C69 1.333 . S
C68 N70 1.317 . S
C68 H73 0.930 . S
C69 C68 1.333 . S
C69 N71 1.350 . S
C69 H95 0.931 . S
N70 Co66 2.148 . S
N70 C67 1.301 . S
N70 C68 1.317 . S
N71 C67 1.328 . S
N71 C69 1.350 . S
H72 C67 0.930 . S
H73 C68 0.930 . S
C74 O75 1.224 . S
C74 O93 1.247 . S
O75 C74 1.224 . S
N76 Co66 2.128 . S
N76 C77 1.355 . S
N76 C79 1.311 . S
C77 N76 1.355 . S
C77 C78 1.363 . S
C77 H89 0.929 . S
C78 C77 1.363 . S
C78 N80 1.375 . S
C78 H96 0.931 . S
C79 N76 1.311 . S
C79 N80 1.347 . S
C79 H90 0.929 . S
N80 C78 1.375 . S
N80 C79 1.347 . S
C81 C84 1.365 . S
C81 N86 1.328 . S
C81 H87 0.929 . S
C82 C83 1.362 . S
C82 C85 1.378 . S
C82 H97 0.929 . S
C83 C82 1.362 . S
C83 C84 1.366 . S
C84 C81 1.365 . S
C84 C83 1.366 . S
C84 H98 0.930 . S
C85 C82 1.378 . S
C85 N86 1.315 . S
C85 H88 0.930 . S
N86 Co66 2.194 . S
N86 C81 1.328 . S
N86 C85 1.315 . S
H87 C81 0.929 . S
H88 C85 0.930 . S
H89 C77 0.929 . S
H90 C79 0.929 . S
O91 Co66 2.351 . S
O91 C94 1.244 . S
O92 Co66 2.155 . S
O92 C94 1.240 . S
O93 Co66 2.096 . S
O93 C74 1.247 . S
C94 O91 1.244 . S
C94 O92 1.240 . S
H95 C69 0.931 . S
H96 C78 0.931 . S
H97 C82 0.929 . S
H98 C84 0.930 . S
Co99 N103 2.148 . S
Co99 N109 2.128 . S
Co99 N119 2.194 . S
Co99 O124 2.351 . S
Co99 O125 2.155 . S
Co99 O126 2.096 . S
C100 N103 1.301 . S
C100 N104 1.328 . S
C100 H105 0.930 . S
C101 C102 1.333 . S
C101 N103 1.317 . S
C101 H106 0.930 . S
C102 C101 1.333 . S
C102 N104 1.350 . S
C102 H128 0.931 . S
N103 Co99 2.148 . S
N103 C100 1.301 . S
N103 C101 1.317 . S
N104 C100 1.328 . S
N104 C102 1.350 . S
H105 C100 0.930 . S
H106 C101 0.930 . S
C107 O108 1.224 . S
C107 O126 1.247 . S
O108 C107 1.224 . S
N109 Co99 2.128 . S
N109 C110 1.355 . S
N109 C112 1.311 . S
C110 N109 1.355 . S
C110 C111 1.363 . S
C110 H122 0.929 . S
C111 C110 1.363 . S
C111 N113 1.375 . S
C111 H129 0.931 . S
C112 N109 1.311 . S
C112 N113 1.347 . S
C112 H123 0.929 . S
N113 C111 1.375 . S
N113 C112 1.347 . S
C114 C117 1.365 . S
C114 N119 1.328 . S
C114 H120 0.929 . S
C115 C116 1.362 . S
C115 C118 1.378 . S
C115 H130 0.929 . S
C116 C115 1.362 . S
C116 C117 1.366 . S
C117 C114 1.365 . S
C117 C116 1.366 . S
C117 H131 0.930 . S
C118 C115 1.378 . S
C118 N119 1.315 . S
C118 H121 0.930 . S
N119 Co99 2.194 . S
N119 C114 1.328 . S
N119 C118 1.315 . S
H120 C114 0.929 . S
H121 C118 0.930 . S
H122 C110 0.929 . S
H123 C112 0.929 . S
O124 Co99 2.351 . S
O124 C127 1.244 . S
O125 Co99 2.155 . S
O125 C127 1.240 . S
O126 Co99 2.096 . S
O126 C107 1.247 . S
C127 O124 1.244 . S
C127 O125 1.240 . S
H128 C102 0.931 . S
H129 C111 0.931 . S
H130 C115 0.929 . S
H131 C117 0.930 . S
Co132 N136 2.148 . S
Co132 N142 2.128 . S
Co132 N152 2.194 . S
Co132 O157 2.351 . S
Co132 O158 2.155 . S
Co132 O159 2.096 . S
C133 N136 1.301 . S
C133 N137 1.328 . S
C133 H138 0.930 . S
C134 C135 1.333 . S
C134 N136 1.317 . S
C134 H139 0.930 . S
C135 C134 1.333 . S
C135 N137 1.350 . S
C135 H161 0.931 . S
N136 Co132 2.148 . S
N136 C133 1.301 . S
N136 C134 1.317 . S
N137 C133 1.328 . S
N137 C135 1.350 . S
H138 C133 0.930 . S
H139 C134 0.930 . S
C140 O141 1.224 . S
C140 O159 1.247 . S
O141 C140 1.224 . S
N142 Co132 2.128 . S
N142 C143 1.355 . S
N142 C145 1.311 . S
C143 N142 1.355 . S
C143 C144 1.363 . S
C143 H155 0.929 . S
C144 C143 1.363 . S
C144 N146 1.375 . S
C144 H162 0.931 . S
C145 N142 1.311 . S
C145 N146 1.347 . S
C145 H156 0.929 . S
N146 C144 1.375 . S
N146 C145 1.347 . S
C147 C150 1.365 . S
C147 N152 1.328 . S
C147 H153 0.929 . S
C148 C149 1.362 . S
C148 C151 1.378 . S
C148 H163 0.929 . S
C149 C148 1.362 . S
C149 C150 1.366 . S
C150 C147 1.365 . S
C150 C149 1.366 . S
C150 H164 0.930 . S
C151 C148 1.378 . S
C151 N152 1.315 . S
C151 H154 0.930 . S
N152 Co132 2.194 . S
N152 C147 1.328 . S
N152 C151 1.315 . S
H153 C147 0.929 . S
H154 C151 0.930 . S
H155 C143 0.929 . S
H156 C145 0.929 . S
O157 Co132 2.351 . S
O157 C160 1.244 . S
O158 Co132 2.155 . S
O158 C160 1.240 . S
O159 Co132 2.096 . S
O159 C140 1.247 . S
C160 O157 1.244 . S
C160 O158 1.240 . S
H161 C135 0.931 . S
H162 C144 0.931 . S
H163 C148 0.929 . S
H164 C150 0.930 . S
Co165 N169 2.148 . S
Co165 N175 2.128 . S
Co165 N185 2.194 . S
Co165 O190 2.351 . S
Co165 O191 2.155 . S
Co165 O192 2.096 . S
C166 N169 1.301 . S
C166 N170 1.328 . S
C166 H171 0.930 . S
C167 C168 1.333 . S
C167 N169 1.317 . S
C167 H172 0.930 . S
C168 C167 1.333 . S
C168 N170 1.350 . S
C168 H194 0.931 . S
N169 Co165 2.148 . S
N169 C166 1.301 . S
N169 C167 1.317 . S
N170 C166 1.328 . S
N170 C168 1.350 . S
H171 C166 0.930 . S
H172 C167 0.930 . S
C173 O174 1.224 . S
C173 O192 1.247 . S
O174 C173 1.224 . S
N175 Co165 2.128 . S
N175 C176 1.355 . S
N175 C178 1.311 . S
C176 N175 1.355 . S
C176 C177 1.363 . S
C176 H188 0.929 . S
C177 C176 1.363 . S
C177 N179 1.375 . S
C177 H195 0.931 . S
C178 N175 1.311 . S
C178 N179 1.347 . S
C178 H189 0.929 . S
N179 C177 1.375 . S
N179 C178 1.347 . S
C180 C183 1.365 . S
C180 N185 1.328 . S
C180 H186 0.929 . S
C181 C182 1.362 . S
C181 C184 1.378 . S
C181 H196 0.929 . S
C182 C181 1.362 . S
C182 C183 1.366 . S
C183 C180 1.365 . S
C183 C182 1.366 . S
C183 H197 0.930 . S
C184 C181 1.378 . S
C184 N185 1.315 . S
C184 H187 0.930 . S
N185 Co165 2.194 . S
N185 C180 1.328 . S
N185 C184 1.315 . S
H186 C180 0.929 . S
H187 C184 0.930 . S
H188 C176 0.929 . S
H189 C178 0.929 . S
O190 Co165 2.351 . S
O190 C193 1.244 . S
O191 Co165 2.155 . S
O191 C193 1.240 . S
O192 Co165 2.096 . S
O192 C173 1.247 . S
C193 O190 1.244 . S
C193 O191 1.240 . S
H194 C168 0.931 . S
H195 C177 0.931 . S
H196 C181 0.929 . S
H197 C183 0.930 . S
H198 C216 0.951 . S
H199 C218 0.951 . S
H200 C220 0.950 . S
H201 C221 0.950 . S
H202 C223 0.950 . S
H203 C226 0.950 . S
H204 C227 0.950 . S
H205 C229 0.950 . S
H206 C230 0.950 1_565 S
H207 C231 0.951 . S
H208 C233 0.951 . S
H209 C235 0.950 . S
H210 C236 0.950 . S
H211 C238 0.950 . S
H212 C241 0.950 . S
H213 C242 0.950 . S
H214 C244 0.950 . S
H215 C245 0.950 1_545 S
C216 H198 0.951 . S
C216 C217 1.366 . S
C216 C218 1.388 . S
C217 C216 1.366 . S
C217 C221 1.385 . S
C218 H199 0.951 . S
C218 C216 1.388 . S
C218 C219 1.366 . S
C219 C218 1.366 . S
C219 C220 1.414 . S
C219 C222 1.499 . S
C220 H200 0.950 . S
C220 C219 1.414 . S
C220 C221 1.374 . S
C221 H201 0.950 . S
C221 C217 1.385 . S
C221 C220 1.374 . S
C222 C219 1.499 . S
C222 C223 1.373 . S
C222 C224 1.389 . S
C223 H202 0.950 . S
C223 C222 1.373 . S
C223 C239 1.377 1_545 S
C224 C222 1.389 . S
C224 C225 1.524 . S
C224 C238 1.377 1_545 S
C225 C224 1.524 . S
C225 C226 1.397 . S
C225 C230 1.363 . S
C226 H203 0.950 . S
C226 C225 1.397 . S
C226 C227 1.334 . S
C227 H204 0.950 . S
C227 C226 1.334 . S
C227 C228 1.287 . S
C228 C227 1.287 . S
C228 C229 1.524 . S
C228 H247 0.913 . S
C229 H205 0.950 . S
C229 C228 1.524 . S
C229 C230 1.415 . S
C230 H206 0.950 1_545 S
C230 C225 1.363 . S
C230 C229 1.415 . S
C231 H207 0.951 . S
C231 C232 1.366 . S
C231 C233 1.388 . S
C232 C231 1.366 . S
C232 C236 1.385 . S
C233 H208 0.951 . S
C233 C231 1.388 . S
C233 C234 1.366 . S
C234 C233 1.366 . S
C234 C235 1.414 . S
C234 C237 1.499 . S
C235 H209 0.950 . S
C235 C234 1.414 . S
C235 C236 1.374 . S
C236 H210 0.950 . S
C236 C232 1.385 . S
C236 C235 1.374 . S
C237 C234 1.499 . S
C237 C238 1.373 . S
C237 C239 1.389 . S
C238 H211 0.950 . S
C238 C224 1.377 1_565 S
C238 C237 1.373 . S
C239 C223 1.377 1_565 S
C239 C237 1.389 . S
C239 C240 1.524 . S
C240 C239 1.524 . S
C240 C241 1.397 . S
C240 C245 1.363 . S
C241 H212 0.950 . S
C241 C240 1.397 . S
C241 C242 1.334 . S
C242 H213 0.950 . S
C242 C241 1.334 . S
C242 C243 1.287 . S
C243 C242 1.287 . S
C243 C244 1.524 . S
C243 H246 0.999 . S
C244 H214 0.950 . S
C244 C243 1.524 . S
C244 C245 1.415 . S
C245 H215 0.950 1_565 S
C245 C240 1.363 . S
C245 C244 1.415 . S
H246 C243 0.999 . S
H247 C228 0.913 . S
H248 C266 0.951 . S
H249 C268 0.951 . S
H250 C270 0.950 . S
H251 C271 0.950 . S
H252 C273 0.950 . S
H253 C276 0.950 . S
H254 C277 0.950 . S
H255 C279 0.950 . S
H256 C280 0.950 . S
H257 C281 0.951 . S
H258 C283 0.951 . S
H259 C285 0.950 . S
H260 C286 0.950 . S
H261 C288 0.950 . S
H262 C291 0.950 . S
H263 C292 0.950 . S
H264 C294 0.950 . S
H265 C295 0.950 . S
C266 H248 0.951 . S
C266 C267 1.366 . S
C266 C268 1.388 . S
C267 C266 1.366 . S
C267 C271 1.385 . S
C268 H249 0.951 . S
C268 C266 1.388 . S
C268 C269 1.366 . S
C269 C268 1.366 . S
C269 C270 1.414 . S
C269 C272 1.499 . S
C270 H250 0.950 . S
C270 C269 1.414 . S
C270 C271 1.374 . S
C271 H251 0.950 . S
C271 C267 1.385 . S
C271 C270 1.374 . S
C272 C269 1.499 . S
C272 C273 1.373 . S
C272 C274 1.389 . S
C273 H252 0.950 . S
C273 C272 1.373 . S
C273 C289 1.377 1_455 S
C274 C272 1.389 . S
C274 C275 1.524 . S
C274 C288 1.377 1_455 S
C275 C274 1.524 . S
C275 C276 1.397 . S
C275 C280 1.363 . S
C276 H253 0.950 . S
C276 C275 1.397 . S
C276 C277 1.334 . S
C277 H254 0.950 . S
C277 C276 1.334 . S
C277 C278 1.287 . S
C278 C277 1.287 . S
C278 C279 1.524 . S
C278 H297 0.913 . S
C279 H255 0.950 . S
C279 C278 1.524 . S
C279 C280 1.415 . S
C280 H256 0.950 . S
C280 C275 1.363 . S
C280 C279 1.415 . S
C281 H257 0.951 . S
C281 C282 1.366 . S
C281 C283 1.388 . S
C282 C281 1.366 . S
C282 C286 1.385 . S
C283 H258 0.951 . S
C283 C281 1.388 . S
C283 C284 1.366 . S
C284 C283 1.366 . S
C284 C285 1.414 . S
C284 C287 1.499 . S
C285 H259 0.950 . S
C285 C284 1.414 . S
C285 C286 1.374 . S
C286 H260 0.950 . S
C286 C282 1.385 . S
C286 C285 1.374 . S
C287 C284 1.499 . S
C287 C288 1.373 . S
C287 C289 1.389 . S
C288 H261 0.950 . S
C288 C274 1.377 1_655 S
C288 C287 1.373 . S
C289 C273 1.377 1_655 S
C289 C287 1.389 . S
C289 C290 1.524 . S
C290 C289 1.524 . S
C290 C291 1.397 . S
C290 C295 1.363 . S
C291 H262 0.950 . S
C291 C290 1.397 . S
C291 C292 1.334 . S
C292 H263 0.950 . S
C292 C291 1.334 . S
C292 C293 1.287 . S
C293 C292 1.287 . S
C293 C294 1.524 . S
C293 H296 0.999 . S
C294 H264 0.950 . S
C294 C293 1.524 . S
C294 C295 1.415 . S
C295 H265 0.950 . S
C295 C290 1.363 . S
C295 C294 1.415 . S
H296 C293 0.999 . S
H297 C278 0.913 . S
H298 C316 0.951 . S
H299 C318 0.951 . S
H300 C320 0.950 . S
H301 C321 0.950 . S
H302 C323 0.950 . S
H303 C326 0.950 . S
H304 C327 0.950 . S
H305 C329 0.950 . S
H306 C330 0.950 . S
H307 C331 0.951 . S
H308 C333 0.951 . S
H309 C335 0.950 . S
H310 C336 0.950 . S
H311 C338 0.950 . S
H312 C341 0.950 . S
H313 C342 0.950 . S
H314 C344 0.950 . S
H315 C345 0.950 . S
C316 H298 0.951 . S
C316 C317 1.366 . S
C316 C318 1.388 . S
C317 C316 1.366 . S
C317 C321 1.385 . S
C318 H299 0.951 . S
C318 C316 1.388 . S
C318 C319 1.366 . S
C319 C318 1.366 . S
C319 C320 1.414 . S
C319 C322 1.499 . S
C320 H300 0.950 . S
C320 C319 1.414 . S
C320 C321 1.374 . S
C321 H301 0.950 . S
C321 C317 1.385 . S
C321 C320 1.374 . S
C322 C319 1.499 . S
C322 C323 1.373 . S
C322 C324 1.389 . S
C323 H302 0.950 . S
C323 C322 1.373 . S
C323 C339 1.377 . S
C324 C322 1.389 . S
C324 C325 1.524 . S
C324 C338 1.377 . S
C325 C324 1.524 . S
C325 C326 1.397 . S
C325 C330 1.363 . S
C326 H303 0.950 . S
C326 C325 1.397 . S
C326 C327 1.334 . S
C327 H304 0.950 . S
C327 C326 1.334 . S
C327 C328 1.287 . S
C328 C327 1.287 . S
C328 C329 1.524 . S
C328 H347 0.913 . S
C329 H305 0.950 . S
C329 C328 1.524 . S
C329 C330 1.415 . S
C330 H306 0.950 . S
C330 C325 1.363 . S
C330 C329 1.415 . S
C331 H307 0.951 . S
C331 C332 1.366 . S
C331 C333 1.388 . S
C332 C331 1.366 . S
C332 C336 1.385 . S
C333 H308 0.951 . S
C333 C331 1.388 . S
C333 C334 1.366 . S
C334 C333 1.366 . S
C334 C335 1.414 . S
C334 C337 1.499 . S
C335 H309 0.950 . S
C335 C334 1.414 . S
C335 C336 1.374 . S
C336 H310 0.950 . S
C336 C332 1.385 . S
C336 C335 1.374 . S
C337 C334 1.499 . S
C337 C338 1.373 . S
C337 C339 1.389 . S
C338 H311 0.950 . S
C338 C324 1.377 . S
C338 C337 1.373 . S
C339 C323 1.377 . S
C339 C337 1.389 . S
C339 C340 1.524 . S
C340 C339 1.524 . S
C340 C341 1.397 . S
C340 C345 1.363 . S
C341 H312 0.950 . S
C341 C340 1.397 . S
C341 C342 1.334 . S
C342 H313 0.950 . S
C342 C341 1.334 . S
C342 C343 1.287 . S
C343 C342 1.287 . S
C343 C344 1.524 . S
C343 H346 0.999 . S
C344 H314 0.950 . S
C344 C343 1.524 . S
C344 C345 1.415 . S
C345 H315 0.950 . S
C345 C340 1.363 . S
C345 C344 1.415 . S
H346 C343 0.999 . S
H347 C328 0.913 . S
H348 C366 0.951 . S
H349 C368 0.951 . S
H350 C370 0.950 . S
H351 C371 0.950 . S
H352 C373 0.950 . S
H353 C376 0.950 . S
H354 C377 0.950 . S
H355 C379 0.950 . S
H356 C380 0.950 . S
H357 C381 0.951 . S
H358 C383 0.951 . S
H359 C385 0.950 . S
H360 C386 0.950 . S
H361 C388 0.950 . S
H362 C391 0.950 . S
H363 C392 0.950 . S
H364 C394 0.950 . S
H365 C395 0.950 . S
C366 H348 0.951 . S
C366 C367 1.366 . S
C366 C368 1.388 . S
C367 C366 1.366 . S
C367 C371 1.385 . S
C368 H349 0.951 . S
C368 C366 1.388 . S
C368 C369 1.366 . S
C369 C368 1.366 . S
C369 C370 1.414 . S
C369 C372 1.499 . S
C370 H350 0.950 . S
C370 C369 1.414 . S
C370 C371 1.374 . S
C371 H351 0.950 . S
C371 C367 1.385 . S
C371 C370 1.374 . S
C372 C369 1.499 . S
C372 C373 1.373 . S
C372 C374 1.389 . S
C373 H352 0.950 . S
C373 C372 1.373 . S
C373 C389 1.377 . S
C374 C372 1.389 . S
C374 C375 1.524 . S
C374 C388 1.377 . S
C375 C374 1.524 . S
C375 C376 1.397 . S
C375 C380 1.363 . S
C376 H353 0.950 . S
C376 C375 1.397 . S
C376 C377 1.334 . S
C377 H354 0.950 . S
C377 C376 1.334 . S
C377 C378 1.287 . S
C378 C377 1.287 . S
C378 C379 1.524 . S
C378 H397 0.913 . S
C379 H355 0.950 . S
C379 C378 1.524 . S
C379 C380 1.415 . S
C380 H356 0.950 . S
C380 C375 1.363 . S
C380 C379 1.415 . S
C381 H357 0.951 . S
C381 C382 1.366 . S
C381 C383 1.388 . S
C382 C381 1.366 . S
C382 C386 1.385 . S
C383 H358 0.951 . S
C383 C381 1.388 . S
C383 C384 1.366 . S
C384 C383 1.366 . S
C384 C385 1.414 . S
C384 C387 1.499 . S
C385 H359 0.950 . S
C385 C384 1.414 . S
C385 C386 1.374 . S
C386 H360 0.950 . S
C386 C382 1.385 . S
C386 C385 1.374 . S
C387 C384 1.499 . S
C387 C388 1.373 . S
C387 C389 1.389 . S
C388 H361 0.950 . S
C388 C374 1.377 . S
C388 C387 1.373 . S
C389 C373 1.377 . S
C389 C387 1.389 . S
C389 C390 1.524 . S
C390 C389 1.524 . S
C390 C391 1.397 . S
C390 C395 1.363 . S
C391 H362 0.950 . S
C391 C390 1.397 . S
C391 C392 1.334 . S
C392 H363 0.950 . S
C392 C391 1.334 . S
C392 C393 1.287 . S
C393 C392 1.287 . S
C393 C394 1.524 . S
C393 H396 0.999 . S
C394 H364 0.950 . S
C394 C393 1.524 . S
C394 C395 1.415 . S
C395 H365 0.950 . S
C395 C390 1.363 . S
C395 C394 1.415 . S
H396 C393 0.999 . S
H397 C378 0.913 . S
H398 C416 0.951 . S
H399 C418 0.951 . S
H400 C420 0.950 . S
H401 C421 0.950 . S
H402 C423 0.950 . S
H403 C426 0.950 . S
H404 C427 0.950 . S
H405 C429 0.950 . S
H406 C430 0.950 . S
H407 C431 0.951 . S
H408 C433 0.951 . S
H409 C435 0.950 . S
H410 C436 0.950 . S
H411 C438 0.950 . S
H412 C441 0.950 . S
H413 C442 0.950 . S
H414 C444 0.950 . S
H415 C445 0.950 . S
C416 H398 0.951 . S
C416 C417 1.366 . S
C416 C418 1.388 . S
C417 C416 1.366 . S
C417 C421 1.385 . S
C418 H399 0.951 . S
C418 C416 1.388 . S
C418 C419 1.366 . S
C419 C418 1.366 . S
C419 C420 1.414 . S
C419 C422 1.499 . S
C420 H400 0.950 . S
C420 C419 1.414 . S
C420 C421 1.374 . S
C421 H401 0.950 . S
C421 C417 1.385 . S
C421 C420 1.374 . S
C422 C419 1.499 . S
C422 C423 1.373 . S
C422 C424 1.389 . S
C423 H402 0.950 . S
C423 C422 1.373 . S
C423 C439 1.377 . S
C424 C422 1.389 . S
C424 C425 1.524 . S
C424 C438 1.377 . S
C425 C424 1.524 . S
C425 C426 1.397 . S
C425 C430 1.363 . S
C426 H403 0.950 . S
C426 C425 1.397 . S
C426 C427 1.334 . S
C427 H404 0.950 . S
C427 C426 1.334 . S
C427 C428 1.287 . S
C428 C427 1.287 . S
C428 C429 1.524 . S
C428 H447 0.913 . S
C429 H405 0.950 . S
C429 C428 1.524 . S
C429 C430 1.415 . S
C430 H406 0.950 . S
C430 C425 1.363 . S
C430 C429 1.415 . S
C431 H407 0.951 . S
C431 C432 1.366 . S
C431 C433 1.388 1_545 S
C432 C431 1.366 . S
C432 C436 1.385 . S
C433 H408 0.951 . S
C433 C431 1.388 1_565 S
C433 C434 1.366 . S
C434 C433 1.366 . S
C434 C435 1.414 1_565 S
C434 C437 1.499 . S
C435 H409 0.950 . S
C435 C434 1.414 1_545 S
C435 C436 1.374 . S
C436 H410 0.950 . S
C436 C432 1.385 . S
C436 C435 1.374 . S
C437 C434 1.499 . S
C437 C438 1.373 . S
C437 C439 1.389 . S
C438 H411 0.950 . S
C438 C424 1.377 . S
C438 C437 1.373 . S
C439 C423 1.377 . S
C439 C437 1.389 . S
C439 C440 1.524 . S
C440 C439 1.524 . S
C440 C441 1.397 . S
C440 C445 1.363 . S
C441 H412 0.950 . S
C441 C440 1.397 . S
C441 C442 1.334 . S
C442 H413 0.950 . S
C442 C441 1.334 . S
C442 C443 1.287 . S
C443 C442 1.287 . S
C443 C444 1.524 . S
C443 H446 0.999 . S
C444 H414 0.950 . S
C444 C443 1.524 . S
C444 C445 1.415 . S
C445 H415 0.950 . S
C445 C440 1.363 . S
C445 C444 1.415 . S
H446 C443 0.999 . S
H447 C428 0.913 . S
H448 C466 0.951 . S
H449 C468 0.951 . S
H450 C470 0.950 1_455 S
H451 C471 0.950 . S
H452 C473 0.950 . S
H453 C476 0.950 . S
H454 C477 0.950 . S
H455 C479 0.950 . S
H456 C480 0.950 . S
H457 C481 0.951 . S
H458 C483 0.951 . S
H459 C485 0.950 . S
H460 C486 0.950 . S
H461 C488 0.950 . S
H462 C491 0.950 . S
H463 C492 0.950 . S
H464 C494 0.950 . S
H465 C495 0.950 . S
C466 H448 0.951 . S
C466 C467 1.366 . S
C466 C468 1.388 . S
C467 C466 1.366 . S
C467 C471 1.385 . S
C468 H449 0.951 . S
C468 C466 1.388 . S
C468 C469 1.366 1_655 S
C469 C468 1.366 1_455 S
C469 C470 1.414 1_455 S
C469 C472 1.499 . S
C470 H450 0.950 1_655 S
C470 C469 1.414 1_655 S
C470 C471 1.374 . S
C471 H451 0.950 . S
C471 C467 1.385 . S
C471 C470 1.374 . S
C472 C469 1.499 . S
C472 C473 1.373 . S
C472 C474 1.389 . S
C473 H452 0.950 . S
C473 C472 1.373 . S
C473 C489 1.377 . S
C474 C472 1.389 . S
C474 C475 1.524 . S
C474 C488 1.377 . S
C475 C474 1.524 . S
C475 C476 1.397 1_455 S
C475 C480 1.363 . S
C476 H453 0.950 . S
C476 C475 1.397 1_655 S
C476 C477 1.334 . S
C477 H454 0.950 . S
C477 C476 1.334 . S
C477 C478 1.287 . S
C478 C477 1.287 . S
C478 C479 1.524 . S
C478 H497 0.913 . S
C479 H455 0.950 . S
C479 C478 1.524 . S
C479 C480 1.415 1_655 S
C480 H456 0.950 . S
C480 C475 1.363 . S
C480 C479 1.415 1_455 S
C481 H457 0.951 . S
C481 C482 1.366 . S
C481 C483 1.388 . S
C482 C481 1.366 . S
C482 C486 1.385 . S
C483 H458 0.951 . S
C483 C481 1.388 . S
C483 C484 1.366 . S
C484 C483 1.366 . S
C484 C485 1.414 . S
C484 C487 1.499 . S
C485 H459 0.950 . S
C485 C484 1.414 . S
C485 C486 1.374 . S
C486 H460 0.950 . S
C486 C482 1.385 . S
C486 C485 1.374 . S
C487 C484 1.499 . S
C487 C488 1.373 . S
C487 C489 1.389 . S
C488 H461 0.950 . S
C488 C474 1.377 . S
C488 C487 1.373 . S
C489 C473 1.377 . S
C489 C487 1.389 . S
C489 C490 1.524 . S
C490 C489 1.524 . S
C490 C491 1.397 . S
C490 C495 1.363 . S
C491 H462 0.950 . S
C491 C490 1.397 . S
C491 C492 1.334 . S
C492 H463 0.950 . S
C492 C491 1.334 . S
C492 C493 1.287 . S
C493 C492 1.287 . S
C493 C494 1.524 . S
C493 H496 0.999 . S
C494 H464 0.950 . S
C494 C493 1.524 . S
C494 C495 1.415 . S
C495 H465 0.950 . S
C495 C490 1.363 . S
C495 C494 1.415 . S
H496 C493 0.999 . S
H497 C478 0.913 . S
H498 C516 0.951 . S
H499 C518 0.951 . S
H500 C520 0.950 . S
H501 C521 0.950 . S
H502 C523 0.950 . S
H503 C526 0.950 . S
H504 C527 0.950 . S
H505 C529 0.950 . S
H506 C530 0.950 . S
H507 C531 0.951 . S
H508 C533 0.951 . S
H509 C535 0.950 . S
H510 C536 0.950 . S
H511 C538 0.950 . S
H512 C541 0.950 . S
H513 C542 0.950 . S
H514 C544 0.950 . S
H515 C545 0.950 . S
C516 H498 0.951 . S
C516 C517 1.366 . S
C516 C518 1.388 . S
C517 C516 1.366 . S
C517 C521 1.385 . S
C518 H499 0.951 . S
C518 C516 1.388 . S
C518 C519 1.366 . S
C519 C518 1.366 . S
C519 C520 1.414 . S
C519 C522 1.499 . S
C520 H500 0.950 . S
C520 C519 1.414 . S
C520 C521 1.374 . S
C521 H501 0.950 . S
C521 C517 1.385 . S
C521 C520 1.374 . S
C522 C519 1.499 . S
C522 C523 1.373 . S
C522 C524 1.389 . S
C523 H502 0.950 . S
C523 C522 1.373 . S
C523 C539 1.377 . S
C524 C522 1.389 . S
C524 C525 1.524 . S
C524 C538 1.377 . S
C525 C524 1.524 . S
C525 C526 1.397 . S
C525 C530 1.363 . S
C526 H503 0.950 . S
C526 C525 1.397 . S
C526 C527 1.334 . S
C527 H504 0.950 . S
C527 C526 1.334 . S
C527 C528 1.287 . S
C528 C527 1.287 . S
C528 C529 1.524 . S
C528 H547 0.913 . S
C529 H505 0.950 . S
C529 C528 1.524 . S
C529 C530 1.415 . S
C530 H506 0.950 . S
C530 C525 1.363 . S
C530 C529 1.415 . S
C531 H507 0.951 . S
C531 C532 1.366 . S
C531 C533 1.388 . S
C532 C531 1.366 . S
C532 C536 1.385 . S
C533 H508 0.951 . S
C533 C531 1.388 . S
C533 C534 1.366 . S
C534 C533 1.366 . S
C534 C535 1.414 . S
C534 C537 1.499 . S
C535 H509 0.950 . S
C535 C534 1.414 . S
C535 C536 1.374 . S
C536 H510 0.950 . S
C536 C532 1.385 . S
C536 C535 1.374 . S
C537 C534 1.499 . S
C537 C538 1.373 . S
C537 C539 1.389 . S
C538 H511 0.950 . S
C538 C524 1.377 . S
C538 C537 1.373 . S
C539 C523 1.377 . S
C539 C537 1.389 . S
C539 C540 1.524 . S
C540 C539 1.524 . S
C540 C541 1.397 . S
C540 C545 1.363 . S
C541 H512 0.950 . S
C541 C540 1.397 . S
C541 C542 1.334 . S
C542 H513 0.950 . S
C542 C541 1.334 . S
C542 C543 1.287 . S
C543 C542 1.287 . S
C543 C544 1.524 . S
C543 H546 0.999 . S
C544 H514 0.950 . S
C544 C543 1.524 . S
C544 C545 1.415 . S
C545 H515 0.950 . S
C545 C540 1.363 . S
C545 C544 1.415 . S
H546 C543 0.999 . S
H547 C528 0.913 . S
H548 C566 0.951 . S
H549 C568 0.951 . S
H550 C570 0.950 . S
H551 C571 0.950 . S
H552 C573 0.950 . S
H553 C576 0.950 . S
H554 C577 0.950 . S
H555 C579 0.950 . S
H556 C580 0.950 . S
H557 C581 0.951 . S
H558 C583 0.951 . S
H559 C585 0.950 . S
H560 C586 0.950 . S
H561 C588 0.950 . S
H562 C591 0.950 . S
H563 C592 0.950 . S
H564 C594 0.950 . S
H565 C595 0.950 . S
C566 H548 0.951 . S
C566 C567 1.366 . S
C566 C568 1.388 . S
C567 C566 1.366 . S
C567 C571 1.385 . S
C568 H549 0.951 . S
C568 C566 1.388 . S
C568 C569 1.366 . S
C569 C568 1.366 . S
C569 C570 1.414 . S
C569 C572 1.499 . S
C570 H550 0.950 . S
C570 C569 1.414 . S
C570 C571 1.374 . S
C571 H551 0.950 . S
C571 C567 1.385 . S
C571 C570 1.374 . S
C572 C569 1.499 . S
C572 C573 1.373 . S
C572 C574 1.389 . S
C573 H552 0.950 . S
C573 C572 1.373 . S
C573 C589 1.377 . S
C574 C572 1.389 . S
C574 C575 1.524 . S
C574 C588 1.377 . S
C575 C574 1.524 . S
C575 C576 1.397 . S
C575 C580 1.363 . S
C576 H553 0.950 . S
C576 C575 1.397 . S
C576 C577 1.334 . S
C577 H554 0.950 . S
C577 C576 1.334 . S
C577 C578 1.287 . S
C578 C577 1.287 . S
C578 C579 1.524 . S
C578 H597 0.913 . S
C579 H555 0.950 . S
C579 C578 1.524 . S
C579 C580 1.415 . S
C580 H556 0.950 . S
C580 C575 1.363 . S
C580 C579 1.415 . S
C581 H557 0.951 . S
C581 C582 1.366 . S
C581 C583 1.388 1_565 S
C582 C581 1.366 . S
C582 C586 1.385 . S
C583 H558 0.951 . S
C583 C581 1.388 1_545 S
C583 C584 1.366 . S
C584 C583 1.366 . S
C584 C585 1.414 1_545 S
C584 C587 1.499 . S
C585 H559 0.950 . S
C585 C584 1.414 1_565 S
C585 C586 1.374 . S
C586 H560 0.950 . S
C586 C582 1.385 . S
C586 C585 1.374 . S
C587 C584 1.499 . S
C587 C588 1.373 . S
C587 C589 1.389 . S
C588 H561 0.950 . S
C588 C574 1.377 . S
C588 C587 1.373 . S
C589 C573 1.377 . S
C589 C587 1.389 . S
C589 C590 1.524 . S
C590 C589 1.524 . S
C590 C591 1.397 . S
C590 C595 1.363 . S
C591 H562 0.950 . S
C591 C590 1.397 . S
C591 C592 1.334 . S
C592 H563 0.950 . S
C592 C591 1.334 . S
C592 C593 1.287 . S
C593 C592 1.287 . S
C593 C594 1.524 . S
C593 H596 0.999 . S
C594 H564 0.950 . S
C594 C593 1.524 . S
C594 C595 1.415 . S
C595 H565 0.950 . S
C595 C590 1.363 . S
C595 C594 1.415 . S
H596 C593 0.999 . S
H597 C578 0.913 . S
H598 C616 0.951 . S
H599 C618 0.951 . S
H600 C620 0.950 . S
H601 C621 0.950 . S
H602 C623 0.950 . S
H603 C626 0.950 . S
H604 C627 0.950 . S
H605 C629 0.950 . S
H606 C630 0.950 . S
H607 C631 0.951 . S
H608 C633 0.951 . S
H609 C635 0.950 . S
H610 C636 0.950 . S
H611 C638 0.950 . S
H612 C641 0.950 . S
H613 C642 0.950 . S
H614 C644 0.950 . S
H615 C645 0.950 . S
C616 H598 0.951 . S
C616 C617 1.366 . S
C616 C618 1.388 . S
C617 C616 1.366 . S
C617 C621 1.385 . S
C618 H599 0.951 . S
C618 C616 1.388 . S
C618 C619 1.366 1_455 S
C619 C618 1.366 1_655 S
C619 C620 1.414 . S
C619 C622 1.499 . S
C620 H600 0.950 . S
C620 C619 1.414 . S
C620 C621 1.374 1_655 S
C621 H601 0.950 . S
C621 C617 1.385 . S
C621 C620 1.374 1_455 S
C622 C619 1.499 . S
C622 C623 1.373 . S
C622 C624 1.389 . S
C623 H602 0.950 . S
C623 C622 1.373 . S
C623 C639 1.377 . S
C624 C622 1.389 . S
C624 C625 1.524 . S
C624 C638 1.377 . S
C625 C624 1.524 . S
C625 C626 1.397 . S
C625 C630 1.363 . S
C626 H603 0.950 . S
C626 C625 1.397 . S
C626 C627 1.334 . S
C627 H604 0.950 . S
C627 C626 1.334 . S
C627 C628 1.287 . S
C628 C627 1.287 . S
C628 C629 1.524 . S
C628 H647 0.913 . S
C629 H605 0.950 . S
C629 C628 1.524 . S
C629 C630 1.415 . S
C630 H606 0.950 . S
C630 C625 1.363 . S
C630 C629 1.415 . S
C631 H607 0.951 . S
C631 C632 1.366 . S
C631 C633 1.388 . S
C632 C631 1.366 . S
C632 C636 1.385 . S
C633 H608 0.951 . S
C633 C631 1.388 . S
C633 C634 1.366 . S
C634 C633 1.366 . S
C634 C635 1.414 . S
C634 C637 1.499 . S
C635 H609 0.950 . S
C635 C634 1.414 . S
C635 C636 1.374 . S
C636 H610 0.950 . S
C636 C632 1.385 . S
C636 C635 1.374 . S
C637 C634 1.499 . S
C637 C638 1.373 . S
C637 C639 1.389 . S
C638 H611 0.950 . S
C638 C624 1.377 . S
C638 C637 1.373 . S
C639 C623 1.377 . S
C639 C637 1.389 . S
C639 C640 1.524 . S
C640 C639 1.524 . S
C640 C641 1.397 . S
C640 C645 1.363 . S
C641 H612 0.950 . S
C641 C640 1.397 . S
C641 C642 1.334 . S
C642 H613 0.950 . S
C642 C641 1.334 . S
C642 C643 1.287 . S
C643 C642 1.287 . S
C643 C644 1.524 . S
C643 H646 0.999 . S
C644 H614 0.950 . S
C644 C643 1.524 . S
C644 C645 1.415 . S
C645 H615 0.950 . S
C645 C640 1.363 . S
C645 C644 1.415 . S
H646 C643 0.999 . S
H647 C628 0.913 . S
H648 C666 0.951 . S
H649 C668 0.951 . S
H650 C670 0.950 . S
H651 C671 0.950 . S
H652 C673 0.950 . S
H653 C676 0.950 . S
H654 C677 0.950 . S
H655 C679 0.950 . S
H656 C680 0.950 . S
H657 C681 0.951 . S
H658 C683 0.951 . S
H659 C685 0.950 . S
H660 C686 0.950 . S
H661 C688 0.950 . S
H662 C691 0.950 . S
H663 C692 0.950 . S
H664 C694 0.950 . S
H665 C695 0.950 . S
C666 H648 0.951 . S
C666 C667 1.366 . S
C666 C668 1.388 . S
C667 C666 1.366 . S
C667 C671 1.385 . S
C668 H649 0.951 . S
C668 C666 1.388 . S
C668 C669 1.366 . S
C669 C668 1.366 . S
C669 C670 1.414 . S
C669 C672 1.499 . S
C670 H650 0.950 . S
C670 C669 1.414 . S
C670 C671 1.374 . S
C671 H651 0.950 . S
C671 C667 1.385 . S
C671 C670 1.374 . S
C672 C669 1.499 . S
C672 C673 1.373 1_565 S
C672 C674 1.389 . S
C673 H652 0.950 . S
C673 C672 1.373 1_545 S
C673 C689 1.377 . S
C674 C672 1.389 . S
C674 C675 1.524 . S
C674 C688 1.377 1_565 S
C675 C674 1.524 . S
C675 C676 1.397 . S
C675 C680 1.363 . S
C676 H653 0.950 . S
C676 C675 1.397 . S
C676 C677 1.334 . S
C677 H654 0.950 . S
C677 C676 1.334 . S
C677 C678 1.287 . S
C678 C677 1.287 . S
C678 C679 1.524 . S
C678 H697 0.913 . S
C679 H655 0.950 . S
C679 C678 1.524 . S
C679 C680 1.415 . S
C680 H656 0.950 . S
C680 C675 1.363 . S
C680 C679 1.415 . S
C681 H657 0.951 . S
C681 C682 1.366 . S
C681 C683 1.388 . S
C682 C681 1.366 . S
C682 C686 1.385 . S
C683 H658 0.951 . S
C683 C681 1.388 . S
C683 C684 1.366 . S
C684 C683 1.366 . S
C684 C685 1.414 . S
C684 C687 1.499 . S
C685 H659 0.950 . S
C685 C684 1.414 . S
C685 C686 1.374 . S
C686 H660 0.950 . S
C686 C682 1.385 . S
C686 C685 1.374 . S
C687 C684 1.499 . S
C687 C688 1.373 . S
C687 C689 1.389 . S
C688 H661 0.950 . S
C688 C674 1.377 1_545 S
C688 C687 1.373 . S
C689 C673 1.377 . S
C689 C687 1.389 . S
C689 C690 1.524 . S
C690 C689 1.524 . S
C690 C691 1.397 . S
C690 C695 1.363 . S
C691 H662 0.950 . S
C691 C690 1.397 . S
C691 C692 1.334 . S
C692 H663 0.950 . S
C692 C691 1.334 . S
C692 C693 1.287 . S
C693 C692 1.287 . S
C693 C694 1.524 . S
C693 H696 0.999 . S
C694 H664 0.950 . S
C694 C693 1.524 . S
C694 C695 1.415 . S
C695 H665 0.950 . S
C695 C690 1.363 . S
C695 C694 1.415 . S
H696 C693 0.999 . S
H697 C678 0.913 . S
H698 C716 0.951 . S
H699 C718 0.951 . S
H700 C720 0.950 . S
H701 C721 0.950 . S
H702 C723 0.950 . S
H703 C726 0.950 . S
H704 C727 0.950 . S
H705 C729 0.950 . S
H706 C730 0.950 1_554 S
H707 C731 0.951 . S
H708 C733 0.951 . S
H709 C735 0.950 . S
H710 C736 0.950 . S
H711 C738 0.950 . S
H712 C741 0.950 . S
H713 C742 0.950 . S
H714 C744 0.950 . S
H715 C745 0.950 . S
C716 H698 0.951 . S
C716 C717 1.366 . S
C716 C718 1.388 . S
C717 C716 1.366 . S
C717 C721 1.385 . S
C718 H699 0.951 . S
C718 C716 1.388 . S
C718 C719 1.366 . S
C719 C718 1.366 . S
C719 C720 1.414 . S
C719 C722 1.499 . S
C720 H700 0.950 . S
C720 C719 1.414 . S
C720 C721 1.374 . S
C721 H701 0.950 . S
C721 C717 1.385 . S
C721 C720 1.374 . S
C722 C719 1.499 . S
C722 C723 1.373 . S
C722 C724 1.389 . S
C723 H702 0.950 . S
C723 C722 1.373 . S
C723 C739 1.377 1_656 S
C724 C722 1.389 . S
C724 C725 1.524 . S
C724 C738 1.377 1_556 S
C725 C724 1.524 . S
C725 C726 1.397 . S
C725 C730 1.363 . S
C726 H703 0.950 . S
C726 C725 1.397 . S
C726 C727 1.334 . S
C727 H704 0.950 . S
C727 C726 1.334 . S
C727 C728 1.287 . S
C728 C727 1.287 . S
C728 C729 1.524 . S
C728 H747 0.913 . S
C729 H705 0.950 . S
C729 C728 1.524 . S
C729 C730 1.415 . S
C730 H706 0.950 1_556 S
C730 C725 1.363 . S
C730 C729 1.415 . S
C731 H707 0.951 . S
C731 C732 1.366 . S
C731 C733 1.388 . S
C732 C731 1.366 . S
C732 C736 1.385 . S
C733 H708 0.951 . S
C733 C731 1.388 . S
C733 C734 1.366 . S
C734 C733 1.366 . S
C734 C735 1.414 . S
C734 C737 1.499 . S
C735 H709 0.950 . S
C735 C734 1.414 . S
C735 C736 1.374 . S
C736 H710 0.950 . S
C736 C732 1.385 . S
C736 C735 1.374 . S
C737 C734 1.499 . S
C737 C738 1.373 1_455 S
C737 C739 1.389 . S
C738 H711 0.950 . S
C738 C724 1.377 1_554 S
C738 C737 1.373 1_655 S
C739 C723 1.377 1_454 S
C739 C737 1.389 . S
C739 C740 1.524 . S
C740 C739 1.524 . S
C740 C741 1.397 . S
C740 C745 1.363 . S
C741 H712 0.950 . S
C741 C740 1.397 . S
C741 C742 1.334 . S
C742 H713 0.950 . S
C742 C741 1.334 . S
C742 C743 1.287 . S
C743 C742 1.287 . S
C743 C744 1.524 . S
C743 H746 0.999 . S
C744 H714 0.950 . S
C744 C743 1.524 . S
C744 C745 1.415 . S
C745 H715 0.950 . S
C745 C740 1.363 . S
C745 C744 1.415 . S
H746 C743 0.999 . S
H747 C728 0.913 . S
H748 C766 0.951 . S
H749 C768 0.951 . S
H750 C770 0.950 . S
H751 C771 0.950 . S
H752 C773 0.950 . S
H753 C776 0.950 . S
H754 C777 0.950 . S
H755 C779 0.950 . S
H756 C780 0.950 . S
H757 C781 0.951 . S
H758 C783 0.951 . S
H759 C785 0.950 . S
H760 C786 0.950 . S
H761 C788 0.950 . S
H762 C791 0.950 . S
H763 C792 0.950 . S
H764 C794 0.950 . S
H765 C795 0.950 . S
C766 H748 0.951 . S
C766 C767 1.366 . S
C766 C768 1.388 . S
C767 C766 1.366 . S
C767 C771 1.385 . S
C768 H749 0.951 . S
C768 C766 1.388 . S
C768 C769 1.366 . S
C769 C768 1.366 . S
C769 C770 1.414 . S
C769 C772 1.499 . S
C770 H750 0.950 . S
C770 C769 1.414 . S
C770 C771 1.374 . S
C771 H751 0.950 . S
C771 C767 1.385 . S
C771 C770 1.374 . S
C772 C769 1.499 . S
C772 C773 1.373 . S
C772 C774 1.389 . S
C773 H752 0.950 . S
C773 C772 1.373 . S
C773 C789 1.377 . S
C774 C772 1.389 . S
C774 C775 1.524 . S
C774 C788 1.377 . S
C775 C774 1.524 . S
C775 C776 1.397 . S
C775 C780 1.363 . S
C776 H753 0.950 . S
C776 C775 1.397 . S
C776 C777 1.334 . S
C777 H754 0.950 . S
C777 C776 1.334 . S
C777 C778 1.287 . S
C778 C777 1.287 . S
C778 C779 1.524 . S
C778 H797 0.913 . S
C779 H755 0.950 . S
C779 C778 1.524 . S
C779 C780 1.415 . S
C780 H756 0.950 . S
C780 C775 1.363 . S
C780 C779 1.415 . S
C781 H757 0.951 . S
C781 C782 1.366 . S
C781 C783 1.388 . S
C782 C781 1.366 . S
C782 C786 1.385 . S
C783 H758 0.951 . S
C783 C781 1.388 . S
C783 C784 1.366 . S
C784 C783 1.366 . S
C784 C785 1.414 . S
C784 C787 1.499 . S
C785 H759 0.950 . S
C785 C784 1.414 . S
C785 C786 1.374 . S
C786 H760 0.950 . S
C786 C782 1.385 . S
C786 C785 1.374 . S
C787 C784 1.499 . S
C787 C788 1.373 . S
C787 C789 1.389 . S
C788 H761 0.950 . S
C788 C774 1.377 . S
C788 C787 1.373 . S
C789 C773 1.377 . S
C789 C787 1.389 . S
C789 C790 1.524 . S
C790 C789 1.524 . S
C790 C791 1.397 . S
C790 C795 1.363 . S
C791 H762 0.950 . S
C791 C790 1.397 . S
C791 C792 1.334 . S
C792 H763 0.950 . S
C792 C791 1.334 . S
C792 C793 1.287 . S
C793 C792 1.287 . S
C793 C794 1.524 . S
C793 H796 0.999 . S
C794 H764 0.950 . S
C794 C793 1.524 . S
C794 C795 1.415 . S
C795 H765 0.950 . S
C795 C790 1.363 . S
C795 C794 1.415 . S
H796 C793 0.999 . S
H797 C778 0.913 . S
H798 C816 0.951 . S
H799 C818 0.951 . S
H800 C820 0.950 . S
H801 C821 0.950 . S
H802 C823 0.950 . S
H803 C826 0.950 . S
H804 C827 0.950 . S
H805 C829 0.950 . S
H806 C830 0.950 . S
H807 C831 0.951 . S
H808 C833 0.951 . S
H809 C835 0.950 . S
H810 C836 0.950 . S
H811 C838 0.950 . S
H812 C841 0.950 . S
H813 C842 0.950 . S
H814 C844 0.950 . S
H815 C845 0.950 . S
C816 H798 0.951 . S
C816 C817 1.366 . S
C816 C818 1.388 . S
C817 C816 1.366 . S
C817 C821 1.385 . S
C818 H799 0.951 . S
C818 C816 1.388 . S
C818 C819 1.366 . S
C819 C818 1.366 . S
C819 C820 1.414 . S
C819 C822 1.499 . S
C820 H800 0.950 . S
C820 C819 1.414 . S
C820 C821 1.374 . S
C821 H801 0.950 . S
C821 C817 1.385 . S
C821 C820 1.374 . S
C822 C819 1.499 . S
C822 C823 1.373 . S
C822 C824 1.389 . S
C823 H802 0.950 . S
C823 C822 1.373 . S
C823 C839 1.377 . S
C824 C822 1.389 . S
C824 C825 1.524 . S
C824 C838 1.377 1_455 S
C825 C824 1.524 . S
C825 C826 1.397 . S
C825 C830 1.363 1_455 S
C826 H803 0.950 . S
C826 C825 1.397 . S
C826 C827 1.334 . S
C827 H804 0.950 . S
C827 C826 1.334 . S
C827 C828 1.287 . S
C828 C827 1.287 . S
C828 C829 1.524 1_455 S
C828 H847 0.913 . S
C829 H805 0.950 . S
C829 C828 1.524 1_655 S
C829 C830 1.415 . S
C830 H806 0.950 . S
C830 C825 1.363 1_655 S
C830 C829 1.415 . S
C831 H807 0.951 . S
C831 C832 1.366 . S
C831 C833 1.388 . S
C832 C831 1.366 . S
C832 C836 1.385 . S
C833 H808 0.951 . S
C833 C831 1.388 . S
C833 C834 1.366 . S
C834 C833 1.366 . S
C834 C835 1.414 . S
C834 C837 1.499 . S
C835 H809 0.950 . S
C835 C834 1.414 . S
C835 C836 1.374 . S
C836 H810 0.950 . S
C836 C832 1.385 . S
C836 C835 1.374 . S
C837 C834 1.499 . S
C837 C838 1.373 . S
C837 C839 1.389 1_655 S
C838 H811 0.950 . S
C838 C824 1.377 1_655 S
C838 C837 1.373 . S
C839 C823 1.377 . S
C839 C837 1.389 1_455 S
C839 C840 1.524 . S
C840 C839 1.524 . S
C840 C841 1.397 1_455 S
C840 C845 1.363 . S
C841 H812 0.950 . S
C841 C840 1.397 1_655 S
C841 C842 1.334 . S
C842 H813 0.950 . S
C842 C841 1.334 . S
C842 C843 1.287 1_655 S
C843 C842 1.287 1_455 S
C843 C844 1.524 . S
C843 H846 0.999 . S
C844 H814 0.950 . S
C844 C843 1.524 . S
C844 C845 1.415 . S
C845 H815 0.950 . S
C845 C840 1.363 . S
C845 C844 1.415 . S
H846 C843 0.999 . S
H847 C828 0.913 . S
H848 C866 0.951 . S
H849 C868 0.951 . S
H850 C870 0.950 . S
H851 C871 0.950 . S
H852 C873 0.950 . S
H853 C876 0.950 . S
H854 C877 0.950 . S
H855 C879 0.950 . S
H856 C880 0.950 . S
H857 C881 0.951 . S
H858 C883 0.951 . S
H859 C885 0.950 . S
H860 C886 0.950 . S
H861 C888 0.950 . S
H862 C891 0.950 . S
H863 C892 0.950 . S
H864 C894 0.950 . S
H865 C895 0.950 . S
C866 H848 0.951 . S
C866 C867 1.366 . S
C866 C868 1.388 . S
C867 C866 1.366 . S
C867 C871 1.385 . S
C868 H849 0.951 . S
C868 C866 1.388 . S
C868 C869 1.366 . S
C869 C868 1.366 . S
C869 C870 1.414 . S
C869 C872 1.499 . S
C870 H850 0.950 . S
C870 C869 1.414 . S
C870 C871 1.374 . S
C871 H851 0.950 . S
C871 C867 1.385 . S
C871 C870 1.374 . S
C872 C869 1.499 . S
C872 C873 1.373 . S
C872 C874 1.389 . S
C873 H852 0.950 . S
C873 C872 1.373 . S
C873 C889 1.377 . S
C874 C872 1.389 . S
C874 C875 1.524 . S
C874 C888 1.377 . S
C875 C874 1.524 . S
C875 C876 1.397 . S
C875 C880 1.363 . S
C876 H853 0.950 . S
C876 C875 1.397 . S
C876 C877 1.334 . S
C877 H854 0.950 . S
C877 C876 1.334 . S
C877 C878 1.287 . S
C878 C877 1.287 . S
C878 C879 1.524 . S
C878 H897 0.913 . S
C879 H855 0.950 . S
C879 C878 1.524 . S
C879 C880 1.415 . S
C880 H856 0.950 . S
C880 C875 1.363 . S
C880 C879 1.415 . S
C881 H857 0.951 . S
C881 C882 1.366 . S
C881 C883 1.388 . S
C882 C881 1.366 . S
C882 C886 1.385 . S
C883 H858 0.951 . S
C883 C881 1.388 . S
C883 C884 1.366 . S
C884 C883 1.366 . S
C884 C885 1.414 . S
C884 C887 1.499 . S
C885 H859 0.950 . S
C885 C884 1.414 . S
C885 C886 1.374 . S
C886 H860 0.950 . S
C886 C882 1.385 . S
C886 C885 1.374 . S
C887 C884 1.499 . S
C887 C888 1.373 . S
C887 C889 1.389 . S
C888 H861 0.950 . S
C888 C874 1.377 . S
C888 C887 1.373 . S
C889 C873 1.377 . S
C889 C887 1.389 . S
C889 C890 1.524 . S
C890 C889 1.524 . S
C890 C891 1.397 . S
C890 C895 1.363 . S
C891 H862 0.950 . S
C891 C890 1.397 . S
C891 C892 1.334 . S
C892 H863 0.950 . S
C892 C891 1.334 . S
C892 C893 1.287 . S
C893 C892 1.287 . S
C893 C894 1.524 . S
C893 H896 0.999 . S
C894 H864 0.950 . S
C894 C893 1.524 . S
C894 C895 1.415 . S
C895 H865 0.950 . S
C895 C890 1.363 . S
C895 C894 1.415 . S
H896 C893 0.999 . S
H897 C878 0.913 . S
H898 C916 0.951 . S
H899 C918 0.951 . S
H900 C920 0.950 . S
H901 C921 0.950 . S
H902 C923 0.947 1_554 S
H903 C926 0.950 . S
H904 C927 0.950 . S
H905 C929 0.950 . S
H906 C930 0.950 . S
H907 C931 0.951 . S
H908 C933 0.951 . S
H909 C935 0.950 . S
H910 C936 0.950 . S
H911 C938 0.950 . S
H912 C941 0.930 1_565 S
H913 C942 0.950 . S
H914 C944 0.950 . S
H915 C945 0.950 . S
C916 H898 0.951 . S
C916 C917 1.366 . S
C916 C918 1.388 . S
C917 C916 1.366 . S
C917 C921 1.385 . S
C918 H899 0.951 . S
C918 C916 1.388 . S
C918 C919 1.366 . S
C919 C918 1.366 . S
C919 C920 1.414 . S
C919 C922 1.499 . S
C920 H900 0.950 . S
C920 C919 1.414 . S
C920 C921 1.374 . S
C921 H901 0.950 . S
C921 C917 1.385 . S
C921 C920 1.374 . S
C922 C919 1.499 . S
C922 C923 1.402 . S
C922 C924 1.389 1_545 S
C923 H902 0.947 1_556 S
C923 C922 1.402 . S
C923 C939 1.352 1_546 S
C924 C922 1.389 1_565 S
C924 C925 1.524 . S
C924 C938 1.377 . S
C925 C924 1.524 . S
C925 C926 1.397 . S
C925 C930 1.363 . S
C926 H903 0.950 . S
C926 C925 1.397 . S
C926 C927 1.334 . S
C927 H904 0.950 . S
C927 C926 1.334 . S
C927 C928 1.287 . S
C928 C927 1.287 . S
C928 C929 1.524 . S
C928 H947 0.913 . S
C929 H905 0.950 . S
C929 C928 1.524 . S
C929 C930 1.415 . S
C930 H906 0.950 . S
C930 C925 1.363 . S
C930 C929 1.415 . S
C931 H907 0.951 . S
C931 C932 1.366 . S
C931 C933 1.388 . S
C932 C931 1.366 . S
C932 C936 1.385 . S
C933 H908 0.951 . S
C933 C931 1.388 . S
C933 C934 1.366 . S
C934 C933 1.366 . S
C934 C935 1.414 . S
C934 C937 1.499 . S
C935 H909 0.950 . S
C935 C934 1.414 . S
C935 C936 1.374 . S
C936 H910 0.950 . S
C936 C932 1.385 . S
C936 C935 1.374 . S
C937 C934 1.499 . S
C937 C938 1.373 1_554 S
C937 C939 1.389 . S
C938 H911 0.950 . S
C938 C924 1.377 . S
C938 C937 1.373 1_556 S
C939 C923 1.352 1_564 S
C939 C937 1.389 . S
C939 C940 1.524 1_565 S
C940 C939 1.524 1_545 S
C940 C941 1.405 . S
C940 C945 1.363 . S
C941 H912 0.930 1_545 S
C941 C940 1.405 . S
C941 C942 1.346 . S
C942 H913 0.950 . S
C942 C941 1.346 . S
C942 C943 1.287 . S
C943 C942 1.287 . S
C943 C944 1.524 . S
C943 H946 0.999 . S
C944 H914 0.950 . S
C944 C943 1.524 . S
C944 C945 1.415 . S
C945 H915 0.950 . S
C945 C940 1.363 . S
C945 C944 1.415 . S
H946 C943 0.999 . S
H947 C928 0.913 . S
C217 C8 1.247 . S
C232 C173 1.246 . S
C267 C107 1.246 . S
C282 C41 1.246 . S
C317 C140 1.246 . S
C332 C74 1.246 . S
C367 C182 1.121 . S
C382 N5 1.098 . S
C417 C116 1.121 . S
C432 N38 1.098 . S
C467 N71 1.098 . S
C482 C149 1.121 . S
C517 C50 1.121 . S
C532 N104 1.098 . S
C567 C83 1.121 . S
C582 N137 1.098 . S
C617 N170 1.098 . S
C632 C17 1.121 . S
C667 C160 1.678 . S
C682 N14 1.657 . S
C717 N47 1.656 . S
C732 C193 1.678 . S
C767 C127 1.678 . S
C782 N80 1.657 . S
C817 N113 1.657 . S
C832 C94 1.678 . S
C867 C28 1.678 . S
C882 N146 1.657 . S
C917 C61 1.678 . S
C932 N179 1.656 . S
