# Generated by pormake.
# Topology nfc, (4)-cn, num edge types: 1
# Building blocks:
#     Node 0, Type 0, BuildingBlock: KOZSID_clean_sbu_0, # of connection points: 4
#     Node 1, Type 0, BuildingBlock: KOZSID_clean_sbu_0, # of connection points: 4
#     Node 2, Type 0, BuildingBlock: KOZSID_clean_sbu_0, # of connection points: 4
#     Node 3, Type 0, BuildingBlock: KOZSID_clean_sbu_0, # of connection points: 4
#     Node 4, Type 0, BuildingBlock: KOZSID_clean_sbu_0, # of connection points: 4
#     Node 5, Type 0, BuildingBlock: KOZSID_clean_sbu_0, # of connection points: 4
#     Node 6, Type 0, BuildingBlock: KOZSID_clean_sbu_0, # of connection points: 4
#     Node 7, Type 0, BuildingBlock: KOZSID_clean_sbu_0, # of connection points: 4
#     Node 8, Type 0, BuildingBlock: KOZSID_clean_sbu_0, # of connection points: 4
#     Node 9, Type 0, BuildingBlock: KOZSID_clean_sbu_0, # of connection points: 4
#     Node 10, Type 0, BuildingBlock: KOZSID_clean_sbu_0, # of connection points: 4
#     Node 11, Type 0, BuildingBlock: KOZSID_clean_sbu_0, # of connection points: 4
#     Node 12, Type 0, BuildingBlock: KOZSID_clean_sbu_0, # of connection points: 4
#     Node 13, Type 0, BuildingBlock: KOZSID_clean_sbu_0, # of connection points: 4
#     Node 14, Type 0, BuildingBlock: KOZSID_clean_sbu_0, # of connection points: 4
#     Node 15, Type 0, BuildingBlock: KOZSID_clean_sbu_0, # of connection points: 4
#     Edge 16, Type (0, 0), BuildingBlock: CIFDUS_clean_linker_0, # of connection points: 2
#     Edge 17, Type (0, 0), BuildingBlock: CIFDUS_clean_linker_0, # of connection points: 2
#     Edge 18, Type (0, 0), BuildingBlock: CIFDUS_clean_linker_0, # of connection points: 2
#     Edge 19, Type (0, 0), BuildingBlock: CIFDUS_clean_linker_0, # of connection points: 2
#     Edge 20, Type (0, 0), BuildingBlock: CIFDUS_clean_linker_0, # of connection points: 2
#     Edge 21, Type (0, 0), BuildingBlock: CIFDUS_clean_linker_0, # of connection points: 2
#     Edge 22, Type (0, 0), BuildingBlock: CIFDUS_clean_linker_0, # of connection points: 2
#     Edge 23, Type (0, 0), BuildingBlock: CIFDUS_clean_linker_0, # of connection points: 2
#     Edge 24, Type (0, 0), BuildingBlock: CIFDUS_clean_linker_0, # of connection points: 2
#     Edge 25, Type (0, 0), BuildingBlock: CIFDUS_clean_linker_0, # of connection points: 2
#     Edge 26, Type (0, 0), BuildingBlock: CIFDUS_clean_linker_0, # of connection points: 2
#     Edge 27, Type (0, 0), BuildingBlock: CIFDUS_clean_linker_0, # of connection points: 2
#     Edge 28, Type (0, 0), BuildingBlock: CIFDUS_clean_linker_0, # of connection points: 2
#     Edge 29, Type (0, 0), BuildingBlock: CIFDUS_clean_linker_0, # of connection points: 2
#     Edge 30, Type (0, 0), BuildingBlock: CIFDUS_clean_linker_0, # of connection points: 2
#     Edge 31, Type (0, 0), BuildingBlock: CIFDUS_clean_linker_0, # of connection points: 2
#     Edge 32, Type (0, 0), BuildingBlock: CIFDUS_clean_linker_0, # of connection points: 2
#     Edge 33, Type (0, 0), BuildingBlock: CIFDUS_clean_linker_0, # of connection points: 2
#     Edge 34, Type (0, 0), BuildingBlock: CIFDUS_clean_linker_0, # of connection points: 2
#     Edge 35, Type (0, 0), BuildingBlock: CIFDUS_clean_linker_0, # of connection points: 2
#     Edge 36, Type (0, 0), BuildingBlock: CIFDUS_clean_linker_0, # of connection points: 2
#     Edge 37, Type (0, 0), BuildingBlock: CIFDUS_clean_linker_0, # of connection points: 2
#     Edge 38, Type (0, 0), BuildingBlock: CIFDUS_clean_linker_0, # of connection points: 2
#     Edge 39, Type (0, 0), BuildingBlock: CIFDUS_clean_linker_0, # of connection points: 2
#     Edge 40, Type (0, 0), BuildingBlock: CIFDUS_clean_linker_0, # of connection points: 2
#     Edge 41, Type (0, 0), BuildingBlock: CIFDUS_clean_linker_0, # of connection points: 2
#     Edge 42, Type (0, 0), BuildingBlock: CIFDUS_clean_linker_0, # of connection points: 2
#     Edge 43, Type (0, 0), BuildingBlock: CIFDUS_clean_linker_0, # of connection points: 2
#     Edge 44, Type (0, 0), BuildingBlock: CIFDUS_clean_linker_0, # of connection points: 2
#     Edge 45, Type (0, 0), BuildingBlock: CIFDUS_clean_linker_0, # of connection points: 2
#     Edge 46, Type (0, 0), BuildingBlock: CIFDUS_clean_linker_0, # of connection points: 2
#     Edge 47, Type (0, 0), BuildingBlock: CIFDUS_clean_linker_0, # of connection points: 2
# Relax obj value: 0.082
# Max RMSD: 0.154
# Mean RMSD: 0.117
data_MOF--net-nfc--node1-KOZSID_clean_sbu_0--edge1-CIFDUS_clean_linker_0
_symmetry_space_group_name_H-M    P1
_symmetry_Int_Tables_number       1
_symmetry_cell_setting            triclinic
loop_
_symmetry_equiv_pos_as_xyz
'x, y, z'
_cell_length_a     38.50479
_cell_length_b     38.570517
_cell_length_c     31.739806
_cell_angle_alpha  83.434978
_cell_angle_beta   85.829793
_cell_angle_gamma 84.152271
loop_
_atom_site_label
_atom_site_type_symbol
_atom_site_fract_x
_atom_site_fract_y
_atom_site_fract_z
_atom_type_partial_charge
C0 C 0.97562 0.03378 0.09979 0.0
C1 C 0.95167 0.05884 0.1163 0.0
C2 C 0.93418 0.07636 0.083 0.0
C3 C 0.94842 0.06161 0.0476 0.0
N4 N 0.9738 0.0354 0.05607 0.0
Co5 Co 0.003 0.01086 0.01019 0.0
N6 N 0.97816 0.03797 0.96047 0.0
C7 C 0.9506 0.06211 0.96525 0.0
C8 C 0.93565 0.07453 0.9279 0.0
C9 C 0.95444 0.05709 0.89721 0.0
C10 C 0.98044 0.03498 0.91711 0.0
N11 N 0.03292 0.98704 0.96447 0.0
C12 C 0.0323 0.98974 0.92062 0.0
C13 C 0.06012 0.96882 0.90363 0.0
C14 C 0.07751 0.95133 0.93694 0.0
C15 C 0.06016 0.96283 0.97272 0.0
N16 N 0.02715 0.98292 0.05968 0.0
C17 C 0.05264 0.95661 0.05517 0.0
C18 C 0.06423 0.94052 0.09302 0.0
C19 C 0.04533 0.95776 0.12376 0.0
C20 C 0.02342 0.98418 0.10323 0.0
N21 N 0.96922 0.97521 0.01206 0.0
C22 C 0.92283 0.9309 0.98806 0.0
C23 C 0.95803 0.91919 0.99206 0.0
C24 C 0.98055 0.94145 1.00492 0.0
C25 C 0.9103 0.96311 1.00192 0.0
C26 C 0.93389 0.98469 0.01415 0.0
N27 N 0.03665 0.04667 1.00831 0.0
C28 C 0.09318 0.06113 0.02537 0.0
C29 C 0.07999 0.09588 0.02813 0.0
C30 C 0.04607 0.10644 0.01612 0.0
C31 C 0.02519 0.08161 1.00549 0.0
C32 C 0.07119 0.03709 0.01529 0.0
H33 H 0.99939 0.09104 0.99711 0.0
H34 H 0.08224 0.01065 0.01558 0.0
H35 H 0.00731 0.93152 1.00631 0.0
H36 H 0.92314 0.00962 0.02276 0.0
C37 C 0.93893 0.0718 1.00568 0.0
C38 C 0.99998 0.00974 0.12714 0.0
C39 C 0.00593 0.01103 0.89325 0.0
C40 C 0.06694 0.94951 0.01471 0.0
H41 H 0.94753 0.06449 0.14895 0.0
H42 H 0.91384 0.09781 0.08439 0.0
H43 H 0.91311 0.0935 0.92359 0.0
H44 H 0.94889 0.05988 0.86405 0.0
H45 H 0.0671 0.96607 0.87049 0.0
H46 H 0.09984 0.93196 0.93526 0.0
H47 H 0.08452 0.91912 0.09773 0.0
H48 H 0.04774 0.95159 0.15758 0.0
H49 H 0.96848 0.89376 0.98298 0.0
H50 H 0.88295 0.97276 1.00021 0.0
H51 H 0.11956 0.05196 0.03388 0.0
H52 H 0.03523 0.13345 0.01666 0.0
C53 C 0.24004 0.80851 0.29792 0.0
C54 C 0.25509 0.83724 0.30878 0.0
C55 C 0.28713 0.83762 0.28695 0.0
C56 C 0.29007 0.80907 0.26434 0.0
N57 N 0.2619 0.7907 0.27071 0.0
Co58 Co 0.25602 0.74687 0.24573 0.0
N59 N 0.30716 0.738 0.23208 0.0
C60 C 0.33065 0.76179 0.2306 0.0
C61 C 0.36401 0.74868 0.21906 0.0
C62 C 0.36132 0.71466 0.21222 0.0
C63 C 0.32629 0.70887 0.21997 0.0
N64 N 0.2497 0.70343 0.22003 0.0
C65 C 0.27359 0.67738 0.20843 0.0
C66 C 0.25765 0.65238 0.19042 0.0
C67 C 0.22277 0.66368 0.18986 0.0
C68 C 0.21927 0.69473 0.20765 0.0
N69 N 0.20506 0.75575 0.25993 0.0
C70 C 0.17947 0.74168 0.24297 0.0
C71 C 0.14669 0.75262 0.25932 0.0
C72 C 0.15205 0.775 0.28836 0.0
C73 C 0.18794 0.77635 0.28815 0.0
N74 N 0.25085 0.77382 0.19013 0.0
C75 C 0.24527 0.81117 0.1099 0.0
C76 C 0.226 0.82347 0.14515 0.0
C77 C 0.22952 0.80451 0.18532 0.0
C78 C 0.26694 0.77996 0.11541 0.0
C79 C 0.26913 0.76163 0.15544 0.0
N80 N 0.26139 0.71987 0.30105 0.0
C81 C 0.24229 0.67603 0.35544 0.0
C82 C 0.26599 0.68487 0.38318 0.0
C83 C 0.28838 0.71065 0.36778 0.0
C84 C 0.28603 0.72731 0.32663 0.0
C85 C 0.24006 0.69414 0.3149 0.0
H86 H 0.3035 0.74706 0.31601 0.0
H87 H 0.22056 0.68779 0.2951 0.0
H88 H 0.21496 0.81456 0.21239 0.0
H89 H 0.28565 0.73743 0.15801 0.0
C90 C 0.32103 0.79475 0.24456 0.0
C91 C 0.20469 0.79938 0.31264 0.0
C92 C 0.31167 0.67733 0.20961 0.0
C93 C 0.18759 0.714 0.21797 0.0
H94 H 0.24441 0.85575 0.33056 0.0
H95 H 0.30673 0.85543 0.28927 0.0
H96 H 0.38755 0.76212 0.21635 0.0
H97 H 0.38255 0.69655 0.2014 0.0
H98 H 0.27005 0.62884 0.17809 0.0
H99 H 0.20234 0.65048 0.17854 0.0
H100 H 0.12194 0.74424 0.25233 0.0
H101 H 0.1319 0.78883 0.30737 0.0
H102 H 0.2087 0.84745 0.14172 0.0
H103 H 0.2817 0.76938 0.0886 0.0
H104 H 0.22494 0.6558 0.36508 0.0
H105 H 0.30676 0.71922 0.3877 0.0
C106 C 0.45454 0.95667 0.56721 0.0
C107 C 0.43539 0.96818 0.60268 0.0
C108 C 0.44506 1.00051 0.60744 0.0
C109 C 0.47002 0.00702 0.5754 0.0
N110 N 0.47674 0.98109 0.54999 0.0
Co111 Co 0.51778 0.97852 0.5069 0.0
N112 N 0.52743 0.02869 0.5087 0.0
C113 C 0.51276 0.04939 0.53778 0.0
C114 C 0.52299 0.08272 0.5317 0.0
C115 C 0.54601 0.0832 0.49674 0.0
C116 C 0.54897 0.04987 0.48355 0.0
N117 N 0.55952 0.97573 0.46508 0.0
C118 C 0.5794 1.0009 0.44459 0.0
C119 C 0.60661 0.98593 0.41954 0.0
C120 C 0.60382 0.95058 0.42418 0.0
C121 C 0.57526 0.94571 0.45192 0.0
N122 N 0.50743 0.92884 0.5037 0.0
C123 C 0.52815 0.90536 0.4827 0.0
C124 C 0.51338 0.87474 0.48099 0.0
C125 C 0.48177 0.87855 0.50344 0.0
C126 C 0.47927 0.91098 0.51909 0.0
N127 N 0.48715 0.99411 0.46063 0.0
C128 C 0.44912 0.02039 0.39066 0.0
C129 C 0.47179 0.98987 0.38961 0.0
C130 C 0.4907 0.97733 0.42472 0.0
C131 C 0.4445 0.0369 0.42783 0.0
C132 C 0.46341 0.02291 0.46286 0.0
N133 N 0.54818 0.96312 0.554 0.0
C134 C 0.54893 0.93405 0.62491 0.0
C135 C 0.56762 0.96007 0.63683 0.0
C136 C 0.58228 0.9834 0.60515 0.0
C137 C 0.57301 0.98368 0.56323 0.0
C138 C 0.53944 0.93603 0.58331 0.0
H139 H 0.58303 0.00307 0.53958 0.0
H140 H 0.52171 0.91789 0.57703 0.0
H141 H 0.50909 0.95479 0.42191 0.0
H142 H 0.45972 0.03617 0.4911 0.0
C143 C 0.48756 0.03729 0.56817 0.0
C144 C 0.45282 0.92122 0.55346 0.0
C145 C 0.57495 0.03885 0.44961 0.0
C146 C 0.55952 0.91441 0.46126 0.0
H147 H 0.41744 0.95436 0.62452 0.0
H148 H 0.43569 0.0169 0.63217 0.0
H149 H 0.51438 0.10429 0.55014 0.0
H150 H 0.55956 0.10544 0.48304 0.0
H151 H 0.6265 0.99916 0.39997 0.0
H152 H 0.62008 0.9309 0.40817 0.0
H153 H 0.52403 0.85248 0.4647 0.0
H154 H 0.46319 0.85904 0.50863 0.0
H155 H 0.47627 0.97683 0.36093 0.0
H156 H 0.42733 0.06084 0.42933 0.0
H157 H 0.5378 0.91512 0.64865 0.0
H158 H 0.5976 0.00347 0.61324 0.0
C159 C 0.27416 0.17947 0.79843 0.0
C160 C 0.26617 0.146 0.81435 0.0
C161 C 0.23127 0.14502 0.81014 0.0
C162 C 0.21997 0.17781 0.79198 0.0
N163 N 0.24566 0.19948 0.78333 0.0
Co164 Co 0.23978 0.2505 0.76114 0.0
N165 N 0.18789 0.24994 0.75804 0.0
C166 C 0.16943 0.2217 0.76692 0.0
C167 C 0.13488 0.22835 0.75831 0.0
C168 C 0.13113 0.26274 0.74202 0.0
C169 C 0.16371 0.27519 0.74188 0.0
N170 N 0.23374 0.30193 0.74125 0.0
C171 C 0.20499 0.32267 0.72838 0.0
C172 C 0.21239 0.35707 0.71694 0.0
C173 C 0.24722 0.35793 0.72177 0.0
C174 C 0.25902 0.3242 0.73611 0.0
N175 N 0.29186 0.25066 0.76206 0.0
C176 C 0.31075 0.27803 0.74895 0.0
C177 C 0.34584 0.27075 0.75428 0.0
C178 C 0.34957 0.23685 0.77239 0.0
C179 C 0.31638 0.2253 0.7771 0.0
N180 N 0.24545 0.23939 0.70118 0.0
C181 C 0.24047 0.23121 0.61458 0.0
C182 C 0.25676 0.25901 0.6267 0.0
C183 C 0.25943 0.26226 0.66976 0.0
C184 C 0.22939 0.20606 0.6467 0.0
C185 C 0.23212 0.21059 0.68935 0.0
N186 N 0.23377 0.26162 0.82099 0.0
C187 C 0.25523 0.28586 0.88006 0.0
C188 C 0.23045 0.27012 0.90845 0.0
C189 C 0.20627 0.25156 0.89173 0.0
C190 C 0.20843 0.2476 0.8484 0.0
C191 C 0.25616 0.28164 0.83682 0.0
H192 H 0.18968 0.23246 0.83805 0.0
H193 H 0.27581 0.29413 0.81699 0.0
H194 H 0.27182 0.28423 0.67681 0.0
H195 H 0.22231 0.19092 0.71212 0.0
C196 C 0.18543 0.18925 0.78307 0.0
C197 C 0.30907 0.19112 0.79906 0.0
C198 C 0.17079 0.31063 0.72413 0.0
C199 C 0.29418 0.31155 0.73866 0.0
H200 H 0.28369 0.12466 0.82815 0.0
H201 H 0.21585 0.12322 0.8199 0.0
H202 H 0.11496 0.21016 0.76251 0.0
H203 H 0.10727 0.27681 0.73064 0.0
H204 H 0.19468 0.37899 0.70491 0.0
H205 H 0.26247 0.38009 0.71369 0.0
H206 H 0.36601 0.28861 0.74814 0.0
H207 H 0.3738 0.22283 0.78267 0.0
H208 H 0.26616 0.27915 0.60331 0.0
H209 H 0.21791 0.1832 0.63914 0.0
H210 H 0.27467 0.30048 0.89116 0.0
H211 H 0.18586 0.23971 0.91199 0.0
C212 C 0.98528 0.98527 0.6069 0.0
C213 C 0.96526 0.96183 0.63176 0.0
C214 C 0.94996 0.94366 0.60473 0.0
C215 C 0.96085 0.95697 0.56461 0.0
N216 N 0.9826 0.98238 0.56405 0.0
Co217 Co 0.99901 0.01133 0.50993 0.0
N218 N 0.97251 0.98747 0.47022 0.0
C219 C 0.95285 0.96076 0.48347 0.0
C220 C 0.94072 0.94585 0.45093 0.0
C221 C 0.95363 0.96376 0.41445 0.0
C222 C 0.97275 0.98932 0.4263 0.0
N223 N 0.01516 0.04059 0.45604 0.0
C224 C 0.01105 0.03902 0.41327 0.0
C225 C 0.02804 0.06493 0.38852 0.0
C226 C 0.04418 0.08239 0.41558 0.0
C227 C 0.03603 0.06675 0.45559 0.0
N228 N 0.02582 0.03492 0.54954 0.0
C229 C 0.04731 0.06004 0.53609 0.0
C230 C 0.06286 0.07203 0.56841 0.0
C231 C 0.05004 0.05408 0.60495 0.0
C232 C 0.02657 0.03234 0.59339 0.0
N233 N 0.03986 0.97628 0.50032 0.0
C234 C 0.08997 0.93162 0.45802 0.0
C235 C 0.09669 0.96564 0.46393 0.0
C236 C 0.07174 0.98714 0.4856 0.0
C237 C 0.05982 0.91887 0.47888 0.0
C238 C 0.03552 0.9414 0.50033 0.0
N239 N 0.95814 0.04627 0.51924 0.0
C240 C 0.93626 0.10369 0.53911 0.0
C241 C 0.90422 0.09154 0.55438 0.0
C242 C 0.89849 0.05744 0.54758 0.0
C243 C 0.92541 0.03562 0.52949 0.0
C244 C 0.96257 0.08084 0.52147 0.0
H245 H 0.91957 0.00979 0.52576 0.0
H246 H 0.98679 0.09131 0.51167 0.0
H247 H 0.07806 0.01304 0.48796 0.0
H248 H 0.01259 0.93052 0.51467 0.0
C249 C 0.94865 0.94853 0.52678 0.0
C250 C 0.00535 0.01044 0.62584 0.0
C251 C 0.99163 0.01358 0.39411 0.0
C252 C 0.05008 0.07369 0.49308 0.0
H253 H 0.96092 0.95882 0.66591 0.0
H254 H 0.93174 0.92405 0.61336 0.0
H255 H 0.92547 0.92356 0.45339 0.0
H256 H 0.95025 0.95763 0.38271 0.0
H257 H 0.02917 0.07043 0.35431 0.0
H258 H 0.06079 0.10342 0.40693 0.0
H259 H 0.0808 0.09213 0.56582 0.0
H260 H 0.05694 0.05715 0.63663 0.0
H261 H 0.12053 0.97622 0.45034 0.0
H262 H 0.05384 0.89235 0.47651 0.0
H263 H 0.94182 0.13008 0.54292 0.0
H264 H 0.87363 0.04722 0.55736 0.0
C265 C 0.27287 0.79883 0.68638 0.0
C266 C 0.25595 0.82131 0.65527 0.0
C267 C 0.22113 0.81703 0.66115 0.0
C268 C 0.21841 0.79147 0.69453 0.0
N269 N 0.24944 0.77895 0.7104 0.0
Co270 Co 0.25658 0.73623 0.75295 0.0
N271 N 0.20503 0.7291 0.76056 0.0
C272 C 0.17925 0.75041 0.74171 0.0
C273 C 0.14635 0.74084 0.75371 0.0
C274 C 0.15123 0.71176 0.78232 0.0
C275 C 0.18701 0.70489 0.78602 0.0
N276 N 0.26391 0.69271 0.79429 0.0
C277 C 0.24088 0.67105 0.81582 0.0
C278 C 0.25839 0.64322 0.83976 0.0
C279 C 0.29325 0.64753 0.83379 0.0
C280 C 0.29531 0.67749 0.80633 0.0
N281 N 0.30791 0.74413 0.74667 0.0
C282 C 0.33319 0.72434 0.76831 0.0
C283 C 0.36515 0.73734 0.76242 0.0
C284 C 0.36027 0.76708 0.73496 0.0
C285 C 0.32561 0.77025 0.72433 0.0
N286 N 0.25011 0.76584 0.80054 0.0
C287 C 0.23662 0.80267 0.87234 0.0
C288 C 0.26487 0.77712 0.86997 0.0
C289 C 0.27096 0.75903 0.8342 0.0
C290 C 0.21607 0.81066 0.83752 0.0
C291 C 0.22368 0.79249 0.80175 0.0
N292 N 0.26291 0.70675 0.7051 0.0
C293 C 0.30003 0.67005 0.65981 0.0
C294 C 0.27495 0.67439 0.62938 0.0
C295 C 0.24292 0.69312 0.63918 0.0
C296 C 0.2374 0.70845 0.67691 0.0
C297 C 0.29344 0.68623 0.69732 0.0
H298 H 0.21262 0.72266 0.68154 0.0
H299 H 0.31379 0.68256 0.71893 0.0
H300 H 0.29209 0.73899 0.83509 0.0
H301 H 0.2074 0.79994 0.77587 0.0
C302 C 0.18717 0.77799 0.71097 0.0
C303 C 0.3111 0.7979 0.69203 0.0
C304 C 0.20233 0.67537 0.81478 0.0
C305 C 0.32594 0.6936 0.79398 0.0
H306 H 0.26738 0.8388 0.63024 0.0
H307 H 0.20032 0.83042 0.64256 0.0
H308 H 0.12171 0.7534 0.74275 0.0
H309 H 0.13068 0.6973 0.79867 0.0
H310 H 0.24712 0.62204 0.8597 0.0
H311 H 0.31455 0.63108 0.84838 0.0
H312 H 0.38914 0.72666 0.77678 0.0
H313 H 0.38023 0.78444 0.72451 0.0
H314 H 0.28127 0.76987 0.89652 0.0
H315 H 0.19404 0.8305 0.83809 0.0
H316 H 0.32499 0.65508 0.65433 0.0
H317 H 0.22253 0.69784 0.61691 0.0
C318 C 0.43434 0.03908 0.97131 0.0
C319 C 0.40307 0.02568 0.96573 0.0
C320 C 0.40488 0.99254 0.98622 0.0
C321 C 0.43698 0.98758 1.00314 0.0
N322 N 0.45598 0.01544 0.99447 0.0
Co323 Co 0.50344 0.01958 0.01483 0.0
N324 N 0.50669 0.97007 0.04314 0.0
C325 C 0.48322 0.94641 0.04214 0.0
C326 C 0.49272 0.91427 0.06339 0.0
C327 C 0.5242 0.9175 0.07893 0.0
C328 C 0.53204 0.95164 0.06638 0.0
N329 N 0.54997 0.02429 0.03732 0.0
C330 C 0.57044 0.00139 0.06297 0.0
C331 C 0.59976 0.01617 0.07293 0.0
C332 C 0.59773 0.04959 0.05308 0.0
C333 C 0.56734 0.05338 0.03233 0.0
N334 N 0.50107 0.06829 0.98426 0.0
C335 C 0.5261 0.09074 0.98179 0.0
C336 C 0.51787 0.12185 0.95755 0.0
C337 C 0.48569 0.11908 0.94345 0.0
C338 C 0.47605 0.08634 0.9601 0.0
N339 N 0.48042 0.03735 0.06713 0.0
C340 C 0.45639 0.05849 0.14712 0.0
C341 C 0.47319 0.08118 0.11656 0.0
C342 C 0.4852 0.07006 0.07732 0.0
C343 C 0.44918 0.0262 0.1353 0.0
C344 C 0.46076 0.01656 0.09525 0.0
N345 N 0.52663 0.00206 0.96258 0.0
C346 C 0.57071 0.00644 0.90437 0.0
C347 C 0.55431 0.98365 0.88306 0.0
C348 C 0.52543 0.96827 0.90341 0.0
C349 C 0.51226 0.97759 0.943 0.0
C350 C 0.55651 0.01524 0.94395 0.0
H351 H 0.48983 0.96541 0.95651 0.0
H352 H 0.56955 0.03358 0.95814 0.0
H353 H 0.49919 0.0881 0.0564 0.0
H354 H 0.45452 0.99157 0.08846 0.0
C355 C 0.45108 0.95621 0.02443 0.0
C356 C 0.44236 0.07417 0.9533 0.0
C357 C 0.56325 0.96554 0.07869 0.0
C358 C 0.55554 0.08296 1.00569 0.0
H359 H 0.38134 0.03843 0.94824 0.0
H360 H 0.38537 0.97402 0.98792 0.0
H361 H 0.47806 0.89149 0.06799 0.0
H362 H 0.5394 0.89721 0.09803 0.0
H363 H 0.62052 0.00397 0.09242 0.0
H364 H 0.61639 0.06873 0.05337 0.0
H365 H 0.53308 0.1442 0.95162 0.0
H366 H 0.47074 0.1391 0.92373 0.0
H367 H 0.47835 0.107 0.12329 0.0
H368 H 0.43634 0.00737 0.1574 0.0
H369 H 0.59323 0.01885 0.88966 0.0
H370 H 0.51234 0.94993 0.88817 0.0
C371 C 0.19911 0.26798 0.34383 0.0
C372 C 0.17182 0.28466 0.36717 0.0
C373 C 0.15595 0.31029 0.33978 0.0
C374 C 0.17447 0.30792 0.30151 0.0
N375 N 0.20052 0.28155 0.30245 0.0
Co376 Co 0.23712 0.27159 0.25595 0.0
N377 N 0.2181 0.31336 0.21792 0.0
C378 C 0.19039 0.33644 0.22687 0.0
C379 C 0.1815 0.36027 0.19304 0.0
C380 C 0.20422 0.35125 0.16016 0.0
C381 C 0.22586 0.32244 0.176 0.0
N382 N 0.27417 0.26195 0.21008 0.0
C383 C 0.27708 0.27681 0.16941 0.0
C384 C 0.30588 0.2617 0.14701 0.0
C385 C 0.32108 0.23546 0.17422 0.0
C386 C 0.30083 0.23619 0.21155 0.0
N387 N 0.25573 0.22953 0.29356 0.0
C388 C 0.28229 0.20538 0.28401 0.0
C389 C 0.29029 0.1808 0.31753 0.0
C390 C 0.26825 0.19049 0.35074 0.0
C391 C 0.24815 0.22054 0.33544 0.0
N392 N 0.2061 0.24258 0.23072 0.0
C393 C 0.16469 0.20683 0.18373 0.0
C394 C 0.19922 0.19407 0.19108 0.0
C395 C 0.21922 0.21211 0.21459 0.0
C396 C 0.15074 0.23684 0.20211 0.0
C397 C 0.17164 0.25397 0.22555 0.0
N398 N 0.26809 0.30058 0.28113 0.0
C399 C 0.32097 0.30442 0.31616 0.0
C400 C 0.30722 0.33603 0.33095 0.0
C401 C 0.27463 0.3508 0.31779 0.0
C402 C 0.25574 0.33285 0.2929 0.0
C403 C 0.30123 0.28744 0.29115 0.0
H404 H 0.23077 0.34512 0.28474 0.0
H405 H 0.31283 0.26308 0.28168 0.0
H406 H 0.24545 0.20126 0.21848 0.0
H407 H 0.15954 0.27688 0.23821 0.0
C408 C 0.17104 0.3327 0.2659 0.0
C409 C 0.22532 0.24202 0.36279 0.0
C410 C 0.25108 0.30236 0.1495 0.0
C411 C 0.30296 0.21012 0.24603 0.0
H412 H 0.1651 0.28004 0.40088 0.0
H413 H 0.13487 0.32977 0.34751 0.0
H414 H 0.15985 0.38054 0.19181 0.0
H415 H 0.2038 0.36357 0.12782 0.0
H416 H 0.31387 0.26784 0.11381 0.0
H417 H 0.34293 0.2167 0.16683 0.0
H418 H 0.31133 0.15991 0.31856 0.0
H419 H 0.26831 0.17819 0.38315 0.0
H420 H 0.21093 0.17029 0.17862 0.0
H421 H 0.12407 0.24775 0.19748 0.0
H422 H 0.34622 0.29197 0.32527 0.0
H423 H 0.26339 0.37585 0.32725 0.0
C424 C 0.7123 0.35023 0.79612 0.0
C425 C 0.72822 0.37683 0.81088 0.0
C426 C 0.76262 0.37286 0.79707 0.0
C427 C 0.76574 0.34433 0.77455 0.0
N428 N 0.73538 0.32983 0.77293 0.0
Co429 Co 0.72828 0.28809 0.74313 0.0
N430 N 0.77937 0.28122 0.72465 0.0
C431 C 0.80487 0.30037 0.73381 0.0
C432 C 0.8374 0.28959 0.71694 0.0
C433 C 0.83244 0.26213 0.69527 0.0
C434 C 0.79692 0.25789 0.69988 0.0
N435 N 0.72115 0.24666 0.71267 0.0
C436 C 0.74397 0.22718 0.68803 0.0
C437 C 0.72745 0.20237 0.67046 0.0
C438 C 0.69312 0.20616 0.68453 0.0
C439 C 0.6905 0.2331 0.70953 0.0
N440 N 0.67728 0.29468 0.76206 0.0
C441 C 0.65202 0.27473 0.75422 0.0
C442 C 0.61976 0.28459 0.77255 0.0
C443 C 0.62464 0.31238 0.79368 0.0
C444 C 0.65974 0.31806 0.78677 0.0
N445 N 0.71982 0.31907 0.69005 0.0
C446 C 0.72298 0.33976 0.60312 0.0
C447 C 0.69398 0.32423 0.62264 0.0
C448 C 0.6926 0.31469 0.66634 0.0
C449 C 0.74711 0.35035 0.62845 0.0
C450 C 0.74454 0.34039 0.67216 0.0
N451 N 0.73708 0.25657 0.79585 0.0
C452 C 0.72196 0.20808 0.84692 0.0
C453 C 0.74949 0.21268 0.87133 0.0
C454 C 0.77094 0.23922 0.8571 0.0
C455 C 0.76424 0.26074 0.81976 0.0
C456 C 0.71642 0.23001 0.80935 0.0
H457 H 0.78111 0.2809 0.81127 0.0
H458 H 0.6951 0.22516 0.79204 0.0
H459 H 0.67092 0.3011 0.67944 0.0
H460 H 0.76449 0.34758 0.69011 0.0
C461 C 0.79711 0.32951 0.75639 0.0
C462 C 0.67526 0.34541 0.80527 0.0
C463 C 0.78112 0.23188 0.67923 0.0
C464 C 0.65946 0.24688 0.72948 0.0
H465 H 0.71625 0.39689 0.82995 0.0
H466 H 0.78303 0.38862 0.80321 0.0
H467 H 0.86173 0.3008 0.71942 0.0
H468 H 0.85265 0.24725 0.67755 0.0
H469 H 0.73885 0.1838 0.64907 0.0
H470 H 0.67239 0.19146 0.67678 0.0
H471 H 0.59562 0.27276 0.77104 0.0
H472 H 0.60463 0.32661 0.81243 0.0
H473 H 0.6744 0.31626 0.60383 0.0
H474 H 0.76965 0.36304 0.61429 0.0
H475 H 0.70465 0.18781 0.85687 0.0
H476 H 0.79215 0.24429 0.87551 0.0
C477 C 0.77044 0.68524 0.30399 0.0
C478 C 0.75588 0.65456 0.31982 0.0
C479 C 0.72101 0.66016 0.31334 0.0
C480 C 0.71625 0.69378 0.29398 0.0
N481 N 0.74607 0.70989 0.28705 0.0
Co482 Co 0.7504 0.75975 0.26246 0.0
N483 N 0.69874 0.76853 0.25459 0.0
C484 C 0.67458 0.7453 0.26463 0.0
C485 C 0.6417 0.75783 0.25289 0.0
C486 C 0.64512 0.79082 0.23335 0.0
C487 C 0.68002 0.7966 0.23448 0.0
N488 N 0.7546 0.80978 0.23872 0.0
C489 C 0.7305 0.83411 0.2207 0.0
C490 C 0.74459 0.8655 0.20725 0.0
C491 C 0.77901 0.86062 0.21615 0.0
C492 C 0.78394 0.82671 0.23462 0.0
N493 N 0.80216 0.75083 0.26929 0.0
C494 C 0.82634 0.77396 0.25859 0.0
C495 C 0.85964 0.76078 0.26787 0.0
C496 C 0.85659 0.72732 0.286 0.0
C497 C 0.82142 0.72199 0.28677 0.0
N498 N 0.75744 0.74528 0.20421 0.0
C499 C 0.76293 0.72977 0.11914 0.0
C500 C 0.78506 0.75201 0.13324 0.0
C501 C 0.78189 0.75935 0.17551 0.0
C502 C 0.73897 0.71434 0.1489 0.0
C503 C 0.73685 0.72221 0.19093 0.0
N504 N 0.7435 0.77394 0.32103 0.0
C505 C 0.76784 0.79463 0.38066 0.0
C506 C 0.74199 0.78045 0.40874 0.0
C507 C 0.71516 0.76589 0.39149 0.0
C508 C 0.71635 0.76304 0.34796 0.0
C509 C 0.76779 0.79154 0.33723 0.0
H510 H 0.6956 0.75084 0.3372 0.0
H511 H 0.78847 0.80243 0.3177 0.0
H512 H 0.79913 0.77692 0.18406 0.0
H513 H 0.71783 0.70987 0.21188 0.0
C514 C 0.68405 0.71124 0.28293 0.0
C515 C 0.80742 0.68979 0.30654 0.0
C516 C 0.69455 0.82827 0.21379 0.0
C517 C 0.81644 0.8088 0.24351 0.0
H518 H 0.76904 0.63077 0.33503 0.0
H519 H 0.70135 0.64208 0.32237 0.0
H520 H 0.61829 0.74417 0.25677 0.0
H521 H 0.62443 0.80821 0.21885 0.0
H522 H 0.73154 0.88912 0.19149 0.0
H523 H 0.79848 0.87907 0.20832 0.0
H524 H 0.88315 0.77429 0.26339 0.0
H525 H 0.87772 0.70924 0.29839 0.0
H526 H 0.80465 0.764 0.11173 0.0
H527 H 0.72105 0.69707 0.13967 0.0
H528 H 0.78904 0.80661 0.39216 0.0
H529 H 0.69369 0.75583 0.41161 0.0
C530 C 0.78683 0.29578 0.19768 0.0
C531 C 0.7718 0.32634 0.17619 0.0
C532 C 0.73652 0.32377 0.17816 0.0
C533 C 0.73179 0.29191 0.20073 0.0
N534 N 0.76174 0.2742 0.21386 0.0
Co535 Co 0.765 0.22599 0.24595 0.0
N536 N 0.71298 0.22628 0.25823 0.0
C537 C 0.68909 0.25002 0.23971 0.0
C538 C 0.65528 0.24468 0.25358 0.0
C539 C 0.65773 0.21538 0.28231 0.0
C540 C 0.69304 0.2041 0.28425 0.0
N541 N 0.76815 0.17776 0.27792 0.0
C542 C 0.74371 0.15932 0.3021 0.0
C543 C 0.75815 0.12606 0.31664 0.0
C544 C 0.79232 0.12334 0.30106 0.0
C545 C 0.79704 0.15493 0.27779 0.0
N546 N 0.81706 0.22569 0.23359 0.0
C547 C 0.8399 0.19693 0.23905 0.0
C548 C 0.87382 0.20321 0.22688 0.0
C549 C 0.87245 0.23807 0.21209 0.0
C550 C 0.83764 0.25132 0.21598 0.0
N551 N 0.76886 0.24631 0.29868 0.0
C552 C 0.7699 0.27063 0.37819 0.0
C553 C 0.79519 0.24456 0.3653 0.0
C554 C 0.79407 0.23266 0.32563 0.0
C555 C 0.74528 0.28559 0.34937 0.0
C556 C 0.74541 0.27327 0.30976 0.0
N557 N 0.76103 0.20556 0.19301 0.0
C558 C 0.77591 0.20543 0.11826 0.0
C559 C 0.75194 0.18104 0.11539 0.0
C560 C 0.73332 0.16821 0.1524 0.0
C561 C 0.73862 0.18047 0.19103 0.0
C562 C 0.77989 0.2174 0.15706 0.0
H563 H 0.72388 0.17021 0.21895 0.0
H564 H 0.79758 0.23709 0.15734 0.0
H565 H 0.81308 0.21176 0.31739 0.0
H566 H 0.72573 0.28485 0.28877 0.0
C567 C 0.69955 0.27897 0.21301 0.0
C568 C 0.82522 0.28722 0.19787 0.0
C569 C 0.70589 0.17062 0.30858 0.0
C570 C 0.8288 0.16524 0.25865 0.0
H571 H 0.78509 0.34792 0.1599 0.0
H572 H 0.71665 0.34298 0.16489 0.0
H573 H 0.63165 0.2606 0.24452 0.0
H574 H 0.6359 0.20344 0.29946 0.0
H575 H 0.74514 0.10558 0.33578 0.0
H576 H 0.81155 0.10105 0.30643 0.0
H577 H 0.89687 0.18466 0.22866 0.0
H578 H 0.89444 0.25199 0.1988 0.0
H579 H 0.81524 0.23273 0.38608 0.0
H580 H 0.725 0.30559 0.35789 0.0
H581 H 0.79033 0.2166 0.09024 0.0
H582 H 0.71448 0.14934 0.15136 0.0
C583 C 0.72674 0.75457 0.84801 0.0
C584 C 0.69667 0.76636 0.87094 0.0
C585 C 0.67744 0.78892 0.84325 0.0
C586 C 0.69678 0.78943 0.80517 0.0
N587 N 0.72674 0.7679 0.80673 0.0
Co588 Co 0.76333 0.76108 0.75958 0.0
N589 N 0.73944 0.8 0.72158 0.0
C590 C 0.71056 0.82118 0.73177 0.0
C591 C 0.70003 0.8452 0.69885 0.0
C592 C 0.72326 0.83865 0.66548 0.0
C593 C 0.74669 0.81085 0.68006 0.0
N594 N 0.79912 0.75315 0.71172 0.0
C595 C 0.79959 0.76737 0.67064 0.0
C596 C 0.82771 0.75276 0.64663 0.0
C597 C 0.84522 0.72777 0.67329 0.0
C598 C 0.82683 0.72856 0.71186 0.0
N599 N 0.78815 0.72341 0.79859 0.0
C600 C 0.81801 0.70329 0.78939 0.0
C601 C 0.83087 0.68267 0.82394 0.0
C602 C 0.80853 0.69093 0.8575 0.0
C603 C 0.78313 0.71601 0.84127 0.0
N604 N 0.73569 0.7266 0.73861 0.0
C605 C 0.69895 0.67966 0.70141 0.0
C606 C 0.7326 0.66975 0.71474 0.0
C607 C 0.75031 0.69339 0.73309 0.0
C608 C 0.68353 0.71307 0.70831 0.0
C609 C 0.70211 0.73583 0.72707 0.0
N610 N 0.791 0.79525 0.7806 0.0
C611 C 0.84648 0.80978 0.80076 0.0
C612 C 0.82998 0.83718 0.82214 0.0
C613 C 0.7938 0.84451 0.82043 0.0
C614 C 0.77495 0.82352 0.79924 0.0
C615 C 0.82668 0.78942 0.7802 0.0
H616 H 0.74735 0.83005 0.79934 0.0
H617 H 0.84077 0.7684 0.76543 0.0
H618 H 0.77595 0.68418 0.74198 0.0
H619 H 0.6889 0.76093 0.73117 0.0
C620 C 0.69111 0.81443 0.77027 0.0
C621 C 0.75642 0.73435 0.86767 0.0
C622 C 0.77301 0.79327 0.65245 0.0
C623 C 0.83465 0.70639 0.74866 0.0
H624 H 0.6904 0.76078 0.90468 0.0
H625 H 0.65357 0.80499 0.85076 0.0
H626 H 0.67709 0.86393 0.69846 0.0
H627 H 0.72209 0.85182 0.63357 0.0
H628 H 0.83434 0.75903 0.61307 0.0
H629 H 0.86817 0.71057 0.66529 0.0
H630 H 0.85459 0.66501 0.82496 0.0
H631 H 0.8114 0.68064 0.89033 0.0
H632 H 0.74536 0.64383 0.71101 0.0
H633 H 0.65751 0.72207 0.69837 0.0
H634 H 0.87448 0.80309 0.80123 0.0
H635 H 0.78004 0.86605 0.83578 0.0
C636 C 0.45298 0.50538 0.61691 0.0
C637 C 0.42493 0.5282 0.62965 0.0
C638 C 0.41597 0.55013 0.59448 0.0
C639 C 0.43904 0.5397 0.56242 0.0
N640 N 0.46169 0.51177 0.57473 0.0
Co641 Co 0.5021 0.49044 0.53959 0.0
N642 N 0.49183 0.52557 0.48946 0.0
C643 C 0.46632 0.55244 0.48716 0.0
C644 C 0.46432 0.57039 0.44741 0.0
C645 C 0.48931 0.55325 0.42254 0.0
C646 C 0.50503 0.52575 0.44872 0.0
N647 N 0.54275 0.46944 0.50459 0.0
C648 C 0.55078 0.47513 0.46222 0.0
C649 C 0.57949 0.45313 0.44961 0.0
C650 C 0.58948 0.43222 0.48517 0.0
C651 C 0.56632 0.44251 0.51729 0.0
N652 N 0.5121 0.45498 0.58946 0.0
C653 C 0.53736 0.42785 0.59129 0.0
C654 C 0.53862 0.40887 0.6305 0.0
C655 C 0.51321 0.42535 0.65544 0.0
C656 C 0.49802 0.45364 0.62992 0.0
N657 N 0.47145 0.45911 0.51795 0.0
C658 C 0.43344 0.4193 0.4722 0.0
C659 C 0.46518 0.40522 0.48844 0.0
C660 C 0.48342 0.42529 0.5116 0.0
C661 C 0.41989 0.45264 0.48172 0.0
C662 C 0.43912 0.47187 0.50461 0.0
N663 N 0.53276 0.52194 0.56105 0.0
C664 C 0.58379 0.53011 0.59756 0.0
C665 C 0.57171 0.56509 0.60096 0.0
C666 C 0.54078 0.57855 0.58244 0.0
C667 C 0.52207 0.55679 0.56245 0.0
C668 C 0.56401 0.50912 0.57762 0.0
H669 H 0.49869 0.5687 0.54916 0.0
H670 H 0.57413 0.48248 0.5769 0.0
H671 H 0.50765 0.41332 0.52282 0.0
H672 H 0.42785 0.4975 0.50966 0.0
C673 C 0.44234 0.55767 0.52165 0.0
C674 C 0.47251 0.48015 0.64639 0.0
C675 C 0.52944 0.49822 0.43263 0.0
C676 C 0.5622 0.42368 0.55741 0.0
H677 H 0.41302 0.5299 0.66134 0.0
H678 H 0.39616 0.5722 0.59297 0.0
H679 H 0.44563 0.59208 0.43721 0.0
H680 H 0.49424 0.55909 0.38858 0.0
H681 H 0.59093 0.45104 0.41776 0.0
H682 H 0.60959 0.41043 0.48678 0.0
H683 H 0.55704 0.38684 0.64036 0.0
H684 H 0.50749 0.41834 0.68906 0.0
H685 H 0.47618 0.37906 0.48274 0.0
H686 H 0.39526 0.46456 0.46994 0.0
H687 H 0.60782 0.51869 0.61137 0.0
H688 H 0.53094 0.6058 0.58349 0.0
C689 C 0.94667 0.46082 0.05729 0.0
C690 C 0.91479 0.47645 0.07226 0.0
C691 C 0.91272 0.51084 0.05539 0.0
C692 C 0.94326 0.51448 0.03091 0.0
N693 N 0.96481 0.48468 0.03147 0.0
Co694 Co 0.01082 0.47971 0.99757 0.0
N695 N 0.01277 0.53179 0.98399 0.0
C696 C 0.98539 0.55584 0.98955 0.0
C697 C 0.9929 0.58955 0.97646 0.0
C698 C 0.02707 0.58678 0.96092 0.0
C699 C 0.03872 0.55138 0.96537 0.0
N700 N 0.05677 0.47474 0.9635 0.0
C701 C 0.07902 0.49894 0.94623 0.0
C702 C 0.10771 0.48287 0.92454 0.0
C703 C 0.10304 0.44795 0.9273 0.0
C704 C 0.07197 0.44439 0.95067 0.0
N705 N 0.00872 0.42766 0.01112 0.0
C706 C 0.02978 0.40317 0.99222 0.0
C707 C 0.02327 0.36951 1.00721 0.0
C708 C 0.99605 0.37275 0.0372 0.0
C709 C 0.98712 0.40836 0.03875 0.0
N710 N 0.98599 0.47875 0.9461 0.0
C711 C 0.95127 0.47828 0.87191 0.0
C712 C 0.94102 0.4579 0.90915 0.0
C713 C 0.95849 0.45883 0.94611 0.0
C714 C 0.9791 0.49875 0.87247 0.0
C715 C 0.99619 0.4984 0.90956 0.0
N716 N 0.03557 0.48084 0.04873 0.0
C717 C 0.07996 0.45666 0.0963 0.0
C718 C 0.0698 0.48293 0.12285 0.0
C719 C 0.04247 0.50822 0.11136 0.0
C720 C 0.02563 0.50658 0.07447 0.0
C721 C 0.06268 0.4563 0.05912 0.0
H722 H 0.00421 0.52595 0.0672 0.0
H723 H 0.07107 0.43592 0.03916 0.0
H724 H 0.94979 0.44327 0.97449 0.0
H725 H 0.01789 0.51393 0.90821 0.0
C726 C 0.95405 0.54598 0.01034 0.0
C727 C 0.95666 0.42256 0.06499 0.0
C728 C 0.07286 0.53758 0.94622 0.0
C729 C 0.0578 0.41274 0.96427 0.0
H730 H 0.89466 0.46409 0.09242 0.0
H731 H 0.89156 0.53089 0.06069 0.0
H732 H 0.97561 0.61338 0.97812 0.0
H733 H 0.04143 0.6083 0.94665 0.0
H734 H 0.12949 0.49521 0.90779 0.0
H735 H 0.1205 0.4275 0.91423 0.0
H736 H 0.03723 0.34541 0.99818 0.0
H737 H 0.98411 0.35124 0.05561 0.0
H738 H 0.91972 0.44151 0.90971 0.0
H739 H 0.98835 0.51425 0.84397 0.0
H740 H 0.10085 0.43651 0.10434 0.0
H741 H 0.03319 0.52847 0.13157 0.0
C742 C 0.46906 0.5727 0.04505 0.0
C743 C 0.47602 0.6071 0.04718 0.0
C744 C 0.51163 0.60736 0.04458 0.0
C745 C 0.52451 0.5733 0.04093 0.0
N746 N 0.49922 0.55165 0.0401 0.0
Co747 Co 0.50713 0.50008 0.03792 0.0
N748 N 0.55735 0.50272 0.02016 0.0
C749 C 0.57651 0.52925 0.02414 0.0
C750 C 0.61022 0.52382 1.00705 0.0
C751 C 0.61219 0.49194 0.99119 0.0
C752 C 0.57945 0.47982 0.99952 0.0
N753 N 0.5156 0.44867 0.03608 0.0
C754 C 0.54145 0.4303 0.0145 0.0
C755 C 0.53721 0.39476 0.02009 0.0
C756 C 0.50742 0.39098 0.04607 0.0
C757 C 0.4952 0.42431 0.05476 0.0
N758 N 0.45677 0.49699 0.05546 0.0
C759 C 0.44207 0.46738 0.0704 0.0
C760 C 0.407 0.4731 0.08136 0.0
C761 C 0.39922 0.5086 0.07378 0.0
C762 C 0.43016 0.52266 0.05878 0.0
N763 N 0.4964 0.5058 0.97806 0.0
C764 C 0.49193 0.50588 0.89022 0.0
C765 C 0.47477 0.48205 0.91919 0.0
C766 C 0.47707 0.48267 0.96286 0.0
C767 C 0.50943 0.53111 0.90651 0.0
C768 C 0.51138 0.5306 0.95035 0.0
N769 N 0.51825 0.49414 0.09784 0.0
C770 C 0.50387 0.50778 0.16949 0.0
C771 C 0.53328 0.48669 0.18364 0.0
C772 C 0.55531 0.46939 0.15396 0.0
C773 C 0.5471 0.47316 0.11121 0.0
C774 C 0.49704 0.51135 0.12673 0.0
H775 H 0.5641 0.4592 0.08896 0.0
H776 H 0.47458 0.52832 0.11726 0.0
H777 H 0.46458 0.46328 0.98422 0.0
H778 H 0.52633 0.54938 0.96166 0.0
C779 C 0.55993 0.5613 0.03487 0.0
C780 C 0.43415 0.56043 0.05502 0.0
C781 C 0.57018 0.44611 0.989 0.0
C782 C 0.46141 0.43454 0.07091 0.0
H783 H 0.45735 0.62945 0.05199 0.0
H784 H 0.52633 0.62972 0.04539 0.0
H785 H 0.63032 0.54178 1.00408 0.0
H786 H 0.63485 0.4793 0.9749 0.0
H787 H 0.55344 0.37392 1.00616 0.0
H788 H 0.49493 0.36709 0.05504 0.0
H789 H 0.38922 0.45381 0.09357 0.0
H790 H 0.37401 0.52273 0.08035 0.0
H791 H 0.46095 0.46198 0.90836 0.0
H792 H 0.52228 0.55073 0.88557 0.0
H793 H 0.48649 0.52209 0.19127 0.0
H794 H 0.57839 0.45284 0.16377 0.0
C795 C 0.92755 0.51521 0.45298 0.0
C796 C 0.90073 0.50162 0.43505 0.0
C797 C 0.90887 0.46606 0.43737 0.0
C798 C 0.93998 0.45987 0.45669 0.0
N799 N 0.9518 0.48924 0.46712 0.0
Co800 Co 0.99608 0.49169 0.49491 0.0
N801 N 1.00048 0.44039 0.51324 0.0
C802 C 0.98333 0.41638 0.4977 0.0
C803 C 0.99181 0.38287 0.51596 0.0
C804 C 0.01607 0.38589 0.54452 0.0
C805 C 0.02108 0.42123 0.54205 0.0
N806 N 0.0405 0.49411 0.52231 0.0
C807 C 0.05781 0.47044 0.55026 0.0
C808 C 0.0884 0.48278 0.56068 0.0
C809 C 0.09048 0.51499 0.53801 0.0
C810 C 0.06114 0.52061 0.51515 0.0
N811 N 0.99176 0.543 0.47659 0.0
C812 C 0.01774 0.56415 0.47439 0.0
C813 C 0.00749 0.59823 0.45969 0.0
C814 C 0.97297 0.59855 0.45168 0.0
C815 C 0.96404 0.56449 0.46203 0.0
N816 N 0.96953 0.49997 0.54794 0.0
C817 C 0.93714 0.50716 0.62845 0.0
C818 C 0.96195 0.52971 0.6108 0.0
C819 C 0.9778 0.52567 0.57062 0.0
C820 C 0.92751 0.48213 0.60395 0.0
C821 C 0.94389 0.47911 0.56365 0.0
N822 N 0.02281 0.48327 0.44178 0.0
C823 C 0.03076 0.49594 0.36616 0.0
C824 C 0.05976 0.47102 0.36519 0.0
C825 C 0.07013 0.45231 0.40324 0.0
C826 C 0.05154 0.4592 0.44136 0.0
C827 C 0.01254 0.50146 0.40458 0.0
H828 H 0.06027 0.44478 0.47037 0.0
H829 H 0.98986 0.52022 0.40396 0.0
H830 H 0.99776 0.54249 0.55863 0.0
H831 H 0.93665 0.4591 0.54584 0.0
C832 C 0.95618 0.42687 0.47071 0.0
C833 C 0.93041 0.55293 0.45299 0.0
C834 C 0.04798 0.43495 0.5644 0.0
C835 C 0.0497 0.55209 0.49168 0.0
H836 H 0.87787 0.51592 0.42133 0.0
H837 H 0.89342 0.44695 0.42725 0.0
H838 H 0.98099 0.35918 0.51007 0.0
H839 H 0.02898 0.36448 0.56445 0.0
H840 H 0.10749 0.46963 0.58196 0.0
H841 H 0.11051 0.53259 0.53898 0.0
H842 H 0.02302 0.62037 0.45608 0.0
H843 H 0.95649 0.62112 0.43882 0.0
H844 H 0.97062 0.5491 0.6288 0.0
H845 H 0.90826 0.46436 0.61631 0.0
H846 H 0.02154 0.51041 0.33715 0.0
H847 H 0.09234 0.43267 0.40349 0.0
H848 H 0.94806 0.01144 0.1978 0.0
H849 H 0.05917 0.01361 0.17104 0.0
H850 H 0.06706 0.01388 0.24679 0.0
H851 H 0.04323 0.01276 0.32345 0.0
H852 H 0.93157 0.01714 0.34912 0.0
H853 H 0.92382 0.01533 0.27363 0.0
C854 C 0.97414 0.01249 0.20797 0.0
C855 C 0.003 0.01207 0.17642 0.0
C856 C 0.97868 0.01362 0.25293 0.0
C857 C 0.03616 0.01317 0.19276 0.0
C858 C 0.04078 0.01353 0.23688 0.0
C859 C 0.01699 0.01364 0.31292 0.0
C860 C 0.9881 0.01434 0.34441 0.0
C861 C 0.01237 0.0136 0.26779 0.0
C862 C 0.95475 0.01559 0.32772 0.0
C863 C 0.95017 0.0148 0.28368 0.0
H864 H 0.32016 0.67344 0.43655 0.0
H865 H 0.20952 0.66311 0.43386 0.0
H866 H 0.20549 0.64937 0.51029 0.0
H867 H 0.23025 0.65089 0.57843 0.0
H868 H 0.33752 0.67358 0.58164 0.0
H869 H 0.34603 0.67098 0.50525 0.0
C870 C 0.29505 0.66837 0.45248 0.0
C871 C 0.26511 0.6702 0.42888 0.0
C872 C 0.29221 0.6628 0.49704 0.0
C873 C 0.23325 0.66182 0.45046 0.0
C874 C 0.23072 0.6543 0.49454 0.0
C875 C 0.25557 0.65524 0.56254 0.0
C876 C 0.2828 0.66352 0.58585 0.0
C877 C 0.2596 0.65639 0.51821 0.0
C878 C 0.3159 0.66729 0.56483 0.0
C879 C 0.32071 0.66629 0.52088 0.0
H880 H 0.51149 0.99214 0.81945 0.0
H881 H 0.61968 0.966 0.84619 0.0
H882 H 0.63462 0.95785 0.77105 0.0
H883 H 0.6156 0.9561 0.69774 0.0
H884 H 0.5068 0.98315 0.67384 0.0
H885 H 0.49329 0.99318 0.74782 0.0
C886 C 0.53832 0.98439 0.80885 0.0
C887 C 0.56435 0.97899 0.83812 0.0
C888 C 0.54653 0.98008 0.7661 0.0
C889 C 0.5992 0.97 0.824 0.0
C890 C 0.60768 0.96536 0.78116 0.0
C891 C 0.58915 0.96449 0.70898 0.0
C892 C 0.5621 0.9686 0.68093 0.0
C893 C 0.58145 0.97007 0.7519 0.0
C894 C 0.52784 0.97957 0.69533 0.0
C895 C 0.52009 0.98526 0.73749 0.0
H896 H 0.24556 0.32485 0.94982 0.0
H897 H 0.21627 0.21879 0.97268 0.0
H898 H 0.21808 0.22043 0.0489 0.0
H899 H 0.2303 0.25096 0.10935 0.0
H900 H 0.26349 0.35512 0.08683 0.0
H901 H 0.25839 0.35513 0.01019 0.0
C902 C 0.23986 0.30195 0.97135 0.0
C903 C 0.23067 0.27181 0.95517 0.0
C904 C 0.24178 0.30269 0.01529 0.0
C905 C 0.22277 0.24266 0.98393 0.0
C906 C 0.22411 0.24339 0.02766 0.0
C907 C 0.23624 0.27364 0.08748 0.0
C908 C 0.24683 0.30317 0.1033 0.0
C909 C 0.23383 0.27314 0.04365 0.0
C910 C 0.2548 0.33238 0.07506 0.0
C911 C 0.25203 0.33228 0.03139 0.0
H912 H 0.01148 0.96064 0.70146 0.0
H913 H 0.99477 0.07192 0.66528 0.0
H914 H 0.99481 0.08248 0.73979 0.0
H915 H 1.00039 0.061 0.81775 0.0
H916 H 0.00781 0.94957 0.85457 0.0
H917 H 0.01009 0.93908 0.77986 0.0
C918 C 0.00703 0.98737 0.70933 0.0
C919 C 0.00348 0.01533 0.67518 0.0
C920 C 0.00558 0.99357 0.75389 0.0
C921 C 0.99847 0.0494 0.68876 0.0
C922 C 0.99821 0.05561 0.73225 0.0
C923 C 1.00188 0.03424 0.81005 0.0
C924 C 0.00449 0.00623 0.84423 0.0
C925 C 1.00186 0.02804 0.7656 0.0
C926 C 0.00667 0.97213 0.83087 0.0
C927 C 0.00775 0.96597 0.78732 0.0
H928 H 0.75223 0.33514 0.40606 0.0
H929 H 0.78073 0.22645 0.45037 0.0
H930 H 0.77106 0.23955 0.52356 0.0
H931 H 0.74989 0.28037 0.57498 0.0
H932 H 0.71857 0.38836 0.53283 0.0
H933 H 0.73321 0.37703 0.45845 0.0
C934 C 0.75627 0.31433 0.43171 0.0
C935 C 0.76717 0.27984 0.42253 0.0
C936 C 0.74968 0.32182 0.47397 0.0
C937 C 0.77294 0.25333 0.45627 0.0
C938 C 0.76702 0.26067 0.49825 0.0
C939 C 0.74651 0.30138 0.54932 0.0
C940 C 0.73302 0.33495 0.55859 0.0
C941 C 0.75475 0.29457 0.50734 0.0
C942 C 0.72882 0.3623 0.52581 0.0
C943 C 0.73716 0.35576 0.48357 0.0
H944 H 0.40417 0.03861 0.2059 0.0
H945 H 0.49633 0.09536 0.19089 0.0
H946 H 0.49555 0.09643 0.26702 0.0
H947 H 0.47739 0.06992 0.33779 0.0
H948 H 0.392 0.00487 0.35337 0.0
H949 H 0.38147 0.01801 0.27765 0.0
C950 C 0.42402 0.05139 0.21915 0.0
C951 C 0.4507 0.06613 0.19226 0.0
C952 C 0.42486 0.05002 0.26345 0.0
C953 C 0.47528 0.08383 0.21023 0.0
C954 C 0.47519 0.08413 0.2541 0.0
C955 C 0.45562 0.05988 0.32471 0.0
C956 C 0.43522 0.03686 0.35059 0.0
C957 C 0.45129 0.06576 0.28098 0.0
C958 C 0.4076 0.02307 0.33371 0.0
C959 C 0.40192 0.03026 0.29045 0.0
H960 H 0.77232 0.77743 0.05007 0.0
H961 H 0.75505 0.66879 0.08543 0.0
H962 H 0.75224 0.66031 0.01074 0.0
H963 H 0.75252 0.68443 0.93518 0.0
H964 H 0.7716 0.79235 0.90018 0.0
H965 H 0.77647 0.80041 0.97487 0.0
C966 C 0.76862 0.75169 0.04152 0.0
C967 C 0.76376 0.72386 0.0735 0.0
C968 C 0.76733 0.74691 0.99851 0.0
C969 C 0.7583 0.69087 0.06162 0.0
C970 C 0.75688 0.68592 0.01887 0.0
C971 C 0.75825 0.70946 0.94412 0.0
C972 C 0.76196 0.73773 0.91267 0.0
C973 C 0.76099 0.71383 0.98707 0.0
C974 C 0.76882 0.7703 0.9242 0.0
C975 C 0.77153 0.77488 0.96677 0.0
H976 H 0.52229 0.49927 0.69219 0.0
H977 H 0.41732 0.46857 0.70367 0.0
H978 H 0.41345 0.47488 0.77999 0.0
H979 H 0.44016 0.48925 0.84321 0.0
H980 H 0.5469 0.51609 0.83197 0.0
H981 H 0.54969 0.51167 0.75586 0.0
C982 C 0.49863 0.49402 0.7116 0.0
C983 C 0.46993 0.48398 0.69263 0.0
C984 C 0.49688 0.4972 0.75536 0.0
C985 C 0.43947 0.47685 0.71778 0.0
C986 C 0.43734 0.48035 0.7613 0.0
C987 C 0.46415 0.49387 0.82426 0.0
C988 C 0.49311 0.5034 0.84354 0.0
C989 C 0.46591 0.49051 0.78046 0.0
C990 C 0.52384 0.50959 0.81809 0.0
C991 C 0.52564 0.50673 0.77451 0.0
H992 H 0.69939 0.19926 0.93388 0.0
H993 H 0.81033 0.18183 0.90324 0.0
H994 H 0.82013 0.16236 0.97775 0.0
H995 H 0.79836 0.16185 0.05225 0.0
H996 H 0.68798 0.18324 0.08327 0.0
H997 H 0.67645 0.18815 1.00799 0.0
C998 C 0.72554 0.19006 0.94333 0.0
C999 C 0.75419 0.19261 0.91343 0.0
C1000 C 0.73105 0.17986 0.98636 0.0
C1001 C 0.78798 0.18072 0.926 0.0
C1002 C 0.79359 0.16962 0.96853 0.0
C1003 C 0.77172 0.16663 0.04246 0.0
C1004 C 0.74413 0.17284 0.07292 0.0
C1005 C 0.76553 0.17087 0.99918 0.0
C1006 C 0.70963 0.17842 0.06026 0.0
C1007 C 0.70309 0.18165 0.0172 0.0
H1008 H 0.07889 0.42765 0.18321 0.0
H1009 H 0.09283 0.53769 0.15622 0.0
H1010 H 0.09916 0.54174 0.2314 0.0
H1011 H 0.08695 0.51719 0.30494 0.0
H1012 H 0.06941 0.4082 0.3326 0.0
H1013 H 0.07952 0.40002 0.25714 0.0
C1014 C 0.08466 0.45215 0.19365 0.0
C1015 C 0.08455 0.48254 0.16462 0.0
C1016 C 0.08714 0.4545 0.23711 0.0
C1017 C 0.0921 0.51416 0.17834 0.0
C1018 C 0.09561 0.5165 0.22127 0.0
C1019 C 0.08649 0.49144 0.29442 0.0
C1020 C 0.07683 0.4635 0.3237 0.0
C1021 C 0.09101 0.48737 0.25107 0.0
C1022 C 0.07667 0.43008 0.31031 0.0
C1023 C 0.08208 0.42552 0.26718 0.0
H1024 H 0.74866 0.7467 0.60795 0.0
H1025 H 0.7885 0.84794 0.59407 0.0
H1026 H 0.78121 0.85378 0.51725 0.0
H1027 H 0.76355 0.82966 0.45436 0.0
H1028 H 0.72601 0.7269 0.46871 0.0
H1029 H 0.73159 0.72236 0.54507 0.0
C1030 C 0.75572 0.76995 0.58786 0.0
C1031 C 0.76896 0.79692 0.60605 0.0
C1032 C 0.75157 0.77294 0.54403 0.0
C1033 C 0.77816 0.82701 0.58028 0.0
C1034 C 0.77396 0.83029 0.53657 0.0
C1035 C 0.75678 0.80618 0.4741 0.0
C1036 C 0.74415 0.7788 0.4556 0.0
C1037 C 0.76073 0.80337 0.51807 0.0
C1038 C 0.73508 0.74876 0.48197 0.0
C1039 C 0.7386 0.74593 0.52569 0.0
H1040 H 0.48912 0.47033 0.25152 0.0
H1041 H 0.59389 0.49801 0.21731 0.0
H1042 H 0.60291 0.5026 0.2921 0.0
H1043 H 0.57873 0.50389 0.3665 0.0
H1044 H 0.4744 0.47478 0.40021 0.0
H1045 H 0.46714 0.46591 0.32634 0.0
C1046 C 0.51406 0.47695 0.26062 0.0
C1047 C 0.54074 0.48406 0.22911 0.0
C1048 C 0.5189 0.47967 0.30346 0.0
C1049 C 0.57307 0.49225 0.24114 0.0
C1050 C 0.5781 0.49515 0.2838 0.0
C1051 C 0.55475 0.49495 0.3576 0.0
C1052 C 0.52712 0.48991 0.38842 0.0
C1053 C 0.55092 0.48966 0.31512 0.0
C1054 C 0.4959 0.47885 0.37674 0.0
C1055 C 0.49178 0.47378 0.33463 0.0
H1056 H 0.18999 0.81505 0.06147 0.0
H1057 H 0.29537 0.84331 0.06086 0.0
H1058 H 0.29964 0.85036 0.98322 0.0
H1059 H 0.27829 0.83472 0.91758 0.0
H1060 H 0.17415 0.80304 0.91813 0.0
H1061 H 0.16398 0.81174 0.99336 0.0
C1062 C 0.21317 0.82438 0.04414 0.0
C1063 C 0.24236 0.82862 0.06641 0.0
C1064 C 0.21589 0.82689 0.99953 0.0
C1065 C 0.27259 0.84013 0.04402 0.0
C1066 C 0.27517 0.84371 0.99972 0.0
C1067 C 0.25303 0.83083 0.93399 0.0
C1068 C 0.2272 0.81776 0.91285 0.0
C1069 C 0.24777 0.83504 0.97734 0.0
C1070 C 0.19441 0.81307 0.93397 0.0
C1071 C 0.18872 0.81775 0.97704 0.0
H1072 H 0.92516 0.53292 0.819 0.0
H1073 H 0.9434 0.42022 0.83358 0.0
H1074 H 0.93356 0.41886 0.75849 0.0
H1075 H 0.93216 0.45061 0.68696 0.0
H1076 H 0.91646 0.56362 0.67209 0.0
H1077 H 0.91264 0.56408 0.74916 0.0
C1078 C 0.92598 0.50806 0.80584 0.0
C1079 C 0.93548 0.47677 0.83125 0.0
C1080 C 0.92139 0.50764 0.76255 0.0
C1081 C 0.93612 0.44461 0.8144 0.0
C1082 C 0.93086 0.44388 0.77143 0.0
C1083 C 0.92663 0.47528 0.70057 0.0
C1084 C 0.92531 0.50708 0.67392 0.0
C1085 C 0.92526 0.47535 0.74484 0.0
C1086 C 0.91831 0.53885 0.69204 0.0
C1087 C 0.91615 0.53912 0.73605 0.0
H1088 H 0.18627 0.21884 0.43334 0.0
H1089 H 0.28257 0.26384 0.39259 0.0
H1090 H 0.29682 0.26329 0.46668 0.0
H1091 H 0.28153 0.25029 0.54298 0.0
H1092 H 0.18317 0.20848 0.58365 0.0
H1093 H 0.17041 0.20695 0.50995 0.0
C1094 C 0.2102 0.22871 0.44094 0.0
C1095 C 0.23322 0.2417 0.40796 0.0
C1096 C 0.21799 0.22858 0.48355 0.0
C1097 C 0.26447 0.25391 0.41776 0.0
C1098 C 0.27258 0.25357 0.46001 0.0
C1099 C 0.25714 0.24111 0.53587 0.0
C1100 C 0.23353 0.22934 0.56922 0.0
C1101 C 0.24946 0.24108 0.49322 0.0
C1102 C 0.20232 0.21701 0.55896 0.0
C1103 C 0.19474 0.21644 0.51668 0.0
H1104 H 0.05681 0.13197 0.09378 0.0
H1105 H 0.14769 0.11105 0.0097 0.0
H1106 H 0.18172 0.1451 0.0496 0.0
H1107 H 0.18597 0.17836 0.11039 0.0
H1108 H 0.09563 0.19547 0.19702 0.0
H1109 H 0.06081 0.16575 0.15371 0.0
C1110 C 0.0839 0.13546 0.08377 0.0
C1111 C 0.09974 0.11946 0.04872 0.0
C1112 C 0.10337 0.1541 0.10748 0.0
C1113 C 0.13504 0.12334 0.03656 0.0
C1114 C 0.15444 0.14265 0.05941 0.0
C1115 C 0.15873 0.17535 0.11999 0.0
C1116 C 0.14349 0.18905 0.15701 0.0
C1117 C 0.139 0.15763 0.09537 0.0
C1118 C 0.10796 0.18554 0.16848 0.0
C1119 C 0.08805 0.16838 0.14385 0.0
H1120 H 0.11294 0.8612 0.4661 0.0
H1121 H 0.11708 0.95605 0.38009 0.0
H1122 H 0.15237 0.92386 0.32793 0.0
H1123 H 0.18149 0.86862 0.30565 0.0
H1124 H 0.17891 0.77365 0.3909 0.0
H1125 H 0.14311 0.8056 0.44391 0.0
C1126 C 0.12158 0.87479 0.43596 0.0
C1127 C 0.11258 0.91118 0.4274 0.0
C1128 C 0.14205 0.856 0.40578 0.0
C1129 C 0.12414 0.92829 0.38807 0.0
C1130 C 0.14414 0.90983 0.35796 0.0
C1131 C 0.17339 0.85511 0.33609 0.0
C1132 C 0.18329 0.81906 0.34486 0.0
C1133 C 0.15326 0.87373 0.36641 0.0
C1134 C 0.17189 0.80153 0.38383 0.0
C1135 C 0.15146 0.8198 0.41406 0.0
H1136 H 0.37871 0.78885 0.6511 0.0
H1137 H 0.29666 0.87011 0.67595 0.0
H1138 H 0.32926 0.91302 0.6312 0.0
H1139 H 0.38184 0.9283 0.58412 0.0
H1140 H 0.47188 0.85194 0.58422 0.0
H1141 H 0.43619 0.80722 0.61944 0.0
C1142 C 0.36803 0.81604 0.64812 0.0
C1143 C 0.33393 0.82513 0.66668 0.0
C1144 C 0.38876 0.84189 0.62583 0.0
C1145 C 0.32159 0.86108 0.661 0.0
C1146 C 0.34065 0.88609 0.63565 0.0
C1147 C 0.39423 0.90218 0.59255 0.0
C1148 C 0.42998 0.89405 0.57897 0.0
C1149 C 0.37438 0.87692 0.61765 0.0
C1150 C 0.4444 0.85942 0.59114 0.0
C1151 C 0.42395 0.8336 0.61233 0.0
H1152 H 0.31426 0.1763 0.88432 0.0
H1153 H 0.36617 0.15441 0.76419 0.0
H1154 H 0.41248 0.11687 0.80093 0.0
H1155 H 0.43815 0.08991 0.86779 0.0
H1156 H 0.38582 0.11133 0.98783 0.0
H1157 H 0.33987 0.14936 0.95108 0.0
C1158 C 0.33579 0.16323 0.86638 0.0
C1159 C 0.33707 0.16814 0.82171 0.0
C1160 C 0.36224 0.14169 0.8878 0.0
C1161 C 0.36489 0.15107 0.79861 0.0
C1162 C 0.3913 0.12965 0.81962 0.0
C1163 C 0.4167 0.10312 0.88568 0.0
C1164 C 0.41527 0.09811 0.93034 0.0
C1165 C 0.3903 0.12476 0.86422 0.0
C1166 C 0.38736 0.11504 0.95342 0.0
C1167 C 0.36112 0.13667 0.9324 0.0
H1168 H 0.93856 0.91214 0.90988 0.0
H1169 H 0.85765 0.90971 0.0111 0.0
H1170 H 0.82096 0.88115 0.96786 0.0
H1171 H 0.81274 0.85635 0.90138 0.0
H1172 H 0.89337 0.86162 0.79955 0.0
H1173 H 0.92957 0.88965 0.84308 0.0
C1174 C 0.91304 0.90492 0.92261 0.0
C1175 C 0.90091 0.91226 0.96371 0.0
C1176 C 0.89211 0.88932 0.89742 0.0
C1177 C 0.86748 0.90387 0.97959 0.0
C1178 C 0.84658 0.8877 0.95488 0.0
C1179 C 0.838 0.86414 0.88853 0.0
C1180 C 0.85044 0.85684 0.84738 0.0
C1181 C 0.85864 0.88038 0.91369 0.0
C1182 C 0.88344 0.86659 0.83133 0.0
C1183 C 0.90411 0.88264 0.85613 0.0
H1184 H 0.79974 0.16178 0.69061 0.0
H1185 H 0.8117 0.25346 0.60178 0.0
H1186 H 0.85015 0.21837 0.55435 0.0
H1187 H 0.8819 0.16154 0.53938 0.0
H1188 H 0.86861 0.06981 0.62829 0.0
H1189 H 0.82895 0.10465 0.674 0.0
C1190 C 0.81063 0.17387 0.66067 0.0
C1191 C 0.8031 0.21003 0.64959 0.0
C1192 C 0.83247 0.15348 0.63357 0.0
C1193 C 0.81731 0.22562 0.61085 0.0
C1194 C 0.83927 0.20557 0.58383 0.0
C1195 C 0.87024 0.1492 0.56871 0.0
C1196 C 0.87823 0.11303 0.58024 0.0
C1197 C 0.84732 0.16948 0.59502 0.0
C1198 C 0.8626 0.09744 0.61824 0.0
C1199 C 0.84008 0.11741 0.64463 0.0
H1200 H 0.695 0.14367 0.39383 0.0
H1201 H 0.65833 0.13834 0.27002 0.0
H1202 H 0.61565 0.09815 0.30107 0.0
H1203 H 0.58735 0.06417 0.36413 0.0
H1204 H 0.62445 0.06893 0.48785 0.0
H1205 H 0.66742 0.1088 0.45675 0.0
C1206 C 0.6777 0.13371 0.3736 0.0
C1207 C 0.68004 0.14476 0.32926 0.0
C1208 C 0.65281 0.11019 0.39196 0.0
C1209 C 0.65723 0.13098 0.30403 0.0
C1210 C 0.63268 0.10777 0.32192 0.0
C1211 C 0.60481 0.07393 0.38434 0.0
C1212 C 0.60189 0.06351 0.42881 0.0
C1213 C 0.62994 0.09717 0.36593 0.0
C1214 C 0.62535 0.07654 0.45389 0.0
C1215 C 0.65018 0.09944 0.43595 0.0
H1216 H 0.63925 0.87569 0.23149 0.0
H1217 H 0.70416 0.83649 0.12782 0.0
H1218 H 0.67039 0.8763 0.07661 0.0
H1219 H 0.62104 0.92146 0.06123 0.0
H1220 H 0.55594 0.96042 0.16482 0.0
H1221 H 0.59082 0.92189 0.21618 0.0
C1222 C 0.64586 0.87602 0.19765 0.0
C1223 C 0.6739 0.85314 0.18325 0.0
C1224 C 0.62626 0.899 0.16847 0.0
C1225 C 0.68255 0.85384 0.13945 0.0
C1226 C 0.66326 0.87657 0.11024 0.0
C1227 C 0.61486 0.9216 0.09509 0.0
C1228 C 0.58623 0.94375 0.10947 0.0
C1229 C 0.63493 0.89917 0.12432 0.0
C1230 C 0.57806 0.94367 0.15329 0.0
C1231 C 0.59791 0.92158 0.18254 0.0
H1232 H 0.64114 0.57294 0.59324 0.0
H1233 H 0.54475 0.60715 0.66073 0.0
H1234 H 0.57571 0.64518 0.69847 0.0
H1235 H 0.63004 0.66877 0.71195 0.0
H1236 H 0.72616 0.63639 0.64234 0.0
H1237 H 0.69559 0.59697 0.60643 0.0
C1238 C 0.62706 0.58856 0.61645 0.0
C1239 C 0.59082 0.58741 0.62421 0.0
C1240 C 0.64496 0.61053 0.63773 0.0
C1241 C 0.57266 0.60799 0.65399 0.0
C1242 C 0.59033 0.62958 0.67565 0.0
C1243 C 0.64425 0.65334 0.68865 0.0
C1244 C 0.68033 0.6555 0.67994 0.0
C1245 C 0.62644 0.6312 0.66758 0.0
C1246 C 0.69847 0.63484 0.65015 0.0
C1247 C 0.68098 0.61247 0.62936 0.0
H1248 H 0.56908 0.44956 0.90343 0.0
H1249 H 0.62331 0.39673 0.00997 0.0
H1250 H 0.66114 0.36117 0.96249 0.0
H1251 H 0.67794 0.34431 0.8905 0.0
H1252 H 0.62386 0.397 0.78378 0.0
H1253 H 0.58675 0.43348 0.83102 0.0
C1254 C 0.58931 0.43028 0.91596 0.0
C1255 C 0.59355 0.42543 0.95987 0.0
C1256 C 0.61082 0.40995 0.88842 0.0
C1257 C 0.61974 0.40059 0.97615 0.0
C1258 C 0.64126 0.38034 0.94906 0.0
C1259 C 0.65807 0.36391 0.8778 0.0
C1260 C 0.65338 0.36806 0.83398 0.0
C1261 C 0.63694 0.38464 0.90517 0.0
C1262 C 0.62768 0.39344 0.81754 0.0
C1263 C 0.60655 0.41422 0.8445 0.0
H1264 H 0.86491 0.34017 0.21572 0.0
H1265 H 0.84067 0.28502 0.11273 0.0
H1266 H 0.87831 0.32047 0.06323 0.0
H1267 H 0.91808 0.36839 0.04803 0.0
H1268 H 0.94266 0.42355 0.1509 0.0
H1269 H 0.90548 0.38774 0.20058 0.0
C1270 C 0.86796 0.33582 0.18247 0.0
C1271 C 0.84969 0.30953 0.16832 0.0
C1272 C 0.88998 0.35666 0.15373 0.0
C1273 C 0.85419 0.30473 0.12485 0.0
C1274 C 0.87584 0.32517 0.09637 0.0
C1275 C 0.91568 0.37236 0.08141 0.0
C1276 C 0.93393 0.39881 0.09535 0.0
C1277 C 0.89394 0.35135 0.11022 0.0
C1278 C 0.92945 0.40358 0.13886 0.0
C1279 C 0.90801 0.38295 0.16748 0.0
H1280 H 0.91921 0.56584 0.36892 0.0
H1281 H 0.88322 0.5991 0.49079 0.0
H1282 H 0.84125 0.64398 0.45665 0.0
H1283 H 0.81556 0.67459 0.39136 0.0
H1284 H 0.85241 0.64162 0.26958 0.0
H1285 H 0.89306 0.59571 0.304 0.0
C1286 C 0.90186 0.58277 0.38786 0.0
C1287 C 0.90382 0.57905 0.43226 0.0
C1288 C 0.87805 0.60855 0.36791 0.0
C1289 C 0.88178 0.60139 0.45661 0.0
C1290 C 0.8579 0.62703 0.43707 0.0
C1291 C 0.83245 0.65714 0.37261 0.0
C1292 C 0.83116 0.66125 0.32811 0.0
C1293 C 0.85587 0.63097 0.3927 0.0
C1294 C 0.8531 0.63875 0.30388 0.0
C1295 C 0.8763 0.6126 0.32355 0.0
H1296 H 0.37723 0.34193 0.33016 0.0
H1297 H 0.27933 0.36711 0.40033 0.0
H1298 H 0.30978 0.39441 0.45065 0.0
H1299 H 0.36414 0.4112 0.47477 0.0
H1300 H 0.46217 0.38539 0.40546 0.0
H1301 H 0.43186 0.35723 0.3555 0.0
C1302 C 0.3626 0.35311 0.35666 0.0
C1303 C 0.32603 0.35275 0.3612 0.0
C1304 C 0.38031 0.36833 0.38587 0.0
C1305 C 0.30741 0.3677 0.39552 0.0
C1306 C 0.32482 0.38303 0.42457 0.0
C1307 C 0.37881 0.3994 0.4487 0.0
C1308 C 0.41527 0.40027 0.4438 0.0
C1309 C 0.36123 0.38358 0.41997 0.0
C1310 C 0.4341 0.38458 0.4102 0.0
C1311 C 0.41677 0.36876 0.38145 0.0
H1312 H 0.42048 0.56006 0.13991 0.0
H1313 H 0.38872 0.61309 0.02006 0.0
H1314 H 0.34722 0.65364 0.05738 0.0
H1315 H 0.32142 0.67494 0.12456 0.0
H1316 H 0.35422 0.62238 0.24419 0.0
H1317 H 0.39411 0.58058 0.20681 0.0
C1318 C 0.40423 0.58035 0.12209 0.0
C1319 C 0.40731 0.58364 0.0774 0.0
C1320 C 0.38085 0.6036 0.14379 0.0
C1321 C 0.38644 0.6101 0.05447 0.0
C1322 C 0.3629 0.63325 0.07581 0.0
C1323 C 0.3372 0.65409 0.14223 0.0
C1324 C 0.33492 0.65131 0.18692 0.0
C1325 C 0.36006 0.6304 0.12046 0.0
C1326 C 0.35558 0.62466 0.20978 0.0
C1327 C 0.3783 0.60089 0.18842 0.0
H1328 H 0.157 0.62785 0.79584 0.0
H1329 H 0.19557 0.66917 0.90195 0.0
H1330 H 0.15986 0.63166 0.95141 0.0
H1331 H 0.1171 0.58613 0.96547 0.0
H1332 H 0.07914 0.54445 0.85922 0.0
H1333 H 0.11439 0.58241 0.80984 0.0
C1334 C 0.15754 0.62875 0.82979 0.0
C1335 C 0.1793 0.65174 0.84476 0.0
C1336 C 0.13676 0.60666 0.85846 0.0
C1337 C 0.17942 0.652 0.88913 0.0
C1338 C 0.15883 0.63042 0.9176 0.0
C1339 C 0.11656 0.58532 0.93151 0.0
C1340 C 0.09532 0.56188 0.91646 0.0
C1341 C 0.13733 0.60747 0.90284 0.0
C1342 C 0.09518 0.56171 0.87208 0.0
C1343 C 0.11543 0.58361 0.84366 0.0
H1344 H 0.04676 0.41606 0.65006 0.0
H1345 H 0.10555 0.39797 0.53271 0.0
H1346 H 0.14864 0.3577 0.57141 0.0
H1347 H 0.17012 0.32815 0.63905 0.0
H1348 H 0.11159 0.34574 0.75666 0.0
H1349 H 0.06789 0.38551 0.71799 0.0
C1350 C 0.06899 0.4031 0.63321 0.0
C1351 C 0.07316 0.40977 0.58875 0.0
C1352 C 0.09365 0.37996 0.65579 0.0
C1353 C 0.10198 0.39303 0.56697 0.0
C1354 C 0.12657 0.3701 0.58908 0.0
C1355 C 0.14768 0.34069 0.656 0.0
C1356 C 0.14382 0.3341 0.70047 0.0
C1357 C 0.12277 0.36343 0.6335 0.0
C1358 C 0.11483 0.35044 0.72236 0.0
C1359 C 0.08994 0.37315 0.70026 0.0
loop_
_geom_bond_atom_site_label_1
_geom_bond_atom_site_label_2
_geom_bond_distance
_geom_bond_site_symmetry_2
_ccdc_geom_bond_type
C0 C1 1.443 . S
C0 N4 1.376 . S
C0 C38 1.389 1_545 S
C1 C0 1.443 . S
C1 C2 1.340 . S
C1 H41 0.951 . S
C2 C1 1.340 . S
C2 C3 1.439 . S
C2 H42 0.950 . S
C3 C2 1.439 . S
C3 N4 1.374 . S
C3 C37 1.395 1_554 S
N4 C0 1.376 . S
N4 C3 1.374 . S
N4 Co5 2.008 1_655 S
Co5 N4 2.008 1_455 S
Co5 N6 1.995 1_454 S
Co5 N11 2.008 1_544 S
Co5 N16 1.995 1_545 S
Co5 N21 2.282 1_444 S
Co5 N27 2.282 . S
N6 Co5 1.995 1_656 S
N6 C7 1.376 . S
N6 C10 1.383 . S
C7 N6 1.376 . S
C7 C8 1.446 . S
C7 C37 1.391 . S
C8 C7 1.446 . S
C8 C9 1.339 . S
C8 H43 0.949 . S
C9 C8 1.339 . S
C9 C10 1.439 . S
C9 H44 0.950 . S
C10 N6 1.383 . S
C10 C9 1.439 . S
C10 C39 1.392 1_655 S
N11 Co5 2.008 1_566 S
N11 C12 1.376 . S
N11 C15 1.374 . S
C12 N11 1.376 . S
C12 C13 1.443 . S
C12 C39 1.389 1_565 S
C13 C12 1.443 . S
C13 C14 1.340 . S
C13 H45 0.951 . S
C14 C13 1.340 . S
C14 C15 1.439 . S
C14 H46 0.950 . S
C15 N11 1.374 . S
C15 C14 1.439 . S
C15 C40 1.395 1_556 S
N16 Co5 1.995 1_565 S
N16 C17 1.376 . S
N16 C20 1.383 . S
C17 N16 1.376 . S
C17 C18 1.446 . S
C17 C40 1.391 . S
C18 C17 1.446 . S
C18 C19 1.339 . S
C18 H47 0.949 . S
C19 C18 1.339 . S
C19 C20 1.439 . S
C19 H48 0.950 . S
C20 N16 1.383 . S
C20 C19 1.439 . S
C20 C38 1.392 1_455 S
N21 Co5 2.282 1_666 S
N21 C24 1.332 . S
N21 C26 1.332 . S
C22 C23 1.386 . S
C22 C25 1.388 . S
C23 C22 1.386 . S
C23 C24 1.382 . S
C23 H49 0.950 . S
C24 N21 1.332 . S
C24 C23 1.382 . S
C24 H35 0.952 . S
C25 C22 1.388 . S
C25 C26 1.382 . S
C25 H50 0.950 . S
C26 N21 1.332 . S
C26 C25 1.382 . S
C26 H36 0.948 1_565 S
N27 Co5 2.282 . S
N27 C31 1.332 . S
N27 C32 1.332 . S
C28 C29 1.388 . S
C28 C32 1.382 . S
C28 H51 0.950 . S
C29 C28 1.388 . S
C29 C30 1.386 . S
C30 C29 1.386 . S
C30 C31 1.382 . S
C30 H52 0.950 . S
C31 N27 1.332 . S
C31 C30 1.382 . S
C31 H33 0.952 . S
C32 N27 1.332 . S
C32 C28 1.382 . S
C32 H34 0.948 1_545 S
H33 C31 0.952 . S
H34 C32 0.948 1_565 S
H35 C24 0.952 . S
H36 C26 0.948 1_545 S
C37 C3 1.395 1_556 S
C37 C7 1.391 . S
C38 C0 1.389 1_565 S
C38 C20 1.392 1_655 S
C39 C10 1.392 1_455 S
C39 C12 1.389 1_545 S
C40 C15 1.395 1_554 S
C40 C17 1.391 . S
H41 C1 0.951 . S
H42 C2 0.950 . S
H43 C8 0.949 . S
H44 C9 0.950 . S
H45 C13 0.951 . S
H46 C14 0.950 . S
H47 C18 0.949 . S
H48 C19 0.950 . S
H49 C23 0.950 . S
H50 C25 0.950 . S
H51 C28 0.950 . S
H52 C30 0.950 . S
C53 C54 1.443 . S
C53 N57 1.376 . S
C53 C91 1.389 . S
C54 C53 1.443 . S
C54 C55 1.340 . S
C54 H94 0.951 . S
C55 C54 1.340 . S
C55 C56 1.439 . S
C55 H95 0.950 . S
C56 C55 1.439 . S
C56 N57 1.374 . S
C56 C90 1.395 . S
N57 C53 1.376 . S
N57 C56 1.374 . S
N57 Co58 2.008 . S
Co58 N57 2.008 . S
Co58 N59 1.995 . S
Co58 N64 2.008 . S
Co58 N69 1.995 . S
Co58 N74 2.282 . S
Co58 N80 2.282 . S
N59 Co58 1.995 . S
N59 C60 1.376 . S
N59 C63 1.383 . S
C60 N59 1.376 . S
C60 C61 1.446 . S
C60 C90 1.391 . S
C61 C60 1.446 . S
C61 C62 1.339 . S
C61 H96 0.949 . S
C62 C61 1.339 . S
C62 C63 1.439 . S
C62 H97 0.950 . S
C63 N59 1.383 . S
C63 C62 1.439 . S
C63 C92 1.392 . S
N64 Co58 2.008 . S
N64 C65 1.376 . S
N64 C68 1.374 . S
C65 N64 1.376 . S
C65 C66 1.443 . S
C65 C92 1.389 . S
C66 C65 1.443 . S
C66 C67 1.340 . S
C66 H98 0.951 . S
C67 C66 1.340 . S
C67 C68 1.439 . S
C67 H99 0.950 . S
C68 N64 1.374 . S
C68 C67 1.439 . S
C68 C93 1.395 . S
N69 Co58 1.995 . S
N69 C70 1.376 . S
N69 C73 1.383 . S
C70 N69 1.376 . S
C70 C71 1.446 . S
C70 C93 1.391 . S
C71 C70 1.446 . S
C71 C72 1.339 . S
C71 H100 0.949 . S
C72 C71 1.339 . S
C72 C73 1.439 . S
C72 H101 0.950 . S
C73 N69 1.383 . S
C73 C72 1.439 . S
C73 C91 1.392 . S
N74 Co58 2.282 . S
N74 C77 1.332 . S
N74 C79 1.332 . S
C75 C76 1.386 . S
C75 C78 1.388 . S
C76 C75 1.386 . S
C76 C77 1.382 . S
C76 H102 0.950 . S
C77 N74 1.332 . S
C77 C76 1.382 . S
C77 H88 0.952 . S
C78 C75 1.388 . S
C78 C79 1.382 . S
C78 H103 0.950 . S
C79 N74 1.332 . S
C79 C78 1.382 . S
C79 H89 0.948 . S
N80 Co58 2.282 . S
N80 C84 1.332 . S
N80 C85 1.332 . S
C81 C82 1.388 . S
C81 C85 1.382 . S
C81 H104 0.950 . S
C82 C81 1.388 . S
C82 C83 1.386 . S
C83 C82 1.386 . S
C83 C84 1.382 . S
C83 H105 0.950 . S
C84 N80 1.332 . S
C84 C83 1.382 . S
C84 H86 0.952 . S
C85 N80 1.332 . S
C85 C81 1.382 . S
C85 H87 0.948 . S
H86 C84 0.952 . S
H87 C85 0.948 . S
H88 C77 0.952 . S
H89 C79 0.948 . S
C90 C56 1.395 . S
C90 C60 1.391 . S
C91 C53 1.389 . S
C91 C73 1.392 . S
C92 C63 1.392 . S
C92 C65 1.389 . S
C93 C68 1.395 . S
C93 C70 1.391 . S
H94 C54 0.951 . S
H95 C55 0.950 . S
H96 C61 0.949 . S
H97 C62 0.950 . S
H98 C66 0.951 . S
H99 C67 0.950 . S
H100 C71 0.949 . S
H101 C72 0.950 . S
H102 C76 0.950 . S
H103 C78 0.950 . S
H104 C81 0.950 . S
H105 C83 0.950 . S
C106 C107 1.443 . S
C106 N110 1.376 1_565 S
C106 C144 1.389 . S
C107 C106 1.443 . S
C107 C108 1.340 1_565 S
C107 H147 0.951 . S
C108 C107 1.340 1_545 S
C108 C109 1.439 . S
C108 H148 0.950 . S
C109 C108 1.439 . S
C109 N110 1.374 . S
C109 C143 1.395 . S
N110 C106 1.376 1_545 S
N110 C109 1.374 . S
N110 Co111 2.008 . S
Co111 N110 2.008 . S
Co111 N112 1.995 . S
Co111 N117 2.008 1_545 S
Co111 N122 1.995 1_545 S
Co111 N127 2.282 1_545 S
Co111 N133 2.282 . S
N112 Co111 1.995 . S
N112 C113 1.376 . S
N112 C116 1.383 . S
C113 N112 1.376 . S
C113 C114 1.446 . S
C113 C143 1.391 . S
C114 C113 1.446 . S
C114 C115 1.339 . S
C114 H149 0.949 . S
C115 C114 1.339 . S
C115 C116 1.439 . S
C115 H150 0.950 . S
C116 N112 1.383 . S
C116 C115 1.439 . S
C116 C145 1.392 . S
N117 Co111 2.008 1_565 S
N117 C118 1.376 1_565 S
N117 C121 1.374 . S
C118 N117 1.376 1_545 S
C118 C119 1.443 . S
C118 C145 1.389 . S
C119 C118 1.443 . S
C119 C120 1.340 1_545 S
C119 H151 0.951 . S
C120 C119 1.340 1_565 S
C120 C121 1.439 . S
C120 H152 0.950 . S
C121 N117 1.374 . S
C121 C120 1.439 . S
C121 C146 1.395 . S
N122 Co111 1.995 1_565 S
N122 C123 1.376 . S
N122 C126 1.383 . S
C123 N122 1.376 . S
C123 C124 1.446 . S
C123 C146 1.391 . S
C124 C123 1.446 . S
C124 C125 1.339 . S
C124 H153 0.949 . S
C125 C124 1.339 . S
C125 C126 1.439 . S
C125 H154 0.950 . S
C126 N122 1.383 . S
C126 C125 1.439 . S
C126 C144 1.392 . S
N127 Co111 2.282 1_565 S
N127 C130 1.332 . S
N127 C132 1.332 1_565 S
C128 C129 1.386 . S
C128 C131 1.388 1_565 S
C129 C128 1.386 . S
C129 C130 1.382 . S
C129 H155 0.950 . S
C130 N127 1.332 . S
C130 C129 1.382 . S
C130 H141 0.952 . S
C131 C128 1.388 1_545 S
C131 C132 1.382 . S
C131 H156 0.950 . S
C132 N127 1.332 1_545 S
C132 C131 1.382 . S
C132 H142 0.948 . S
N133 Co111 2.282 . S
N133 C137 1.332 . S
N133 C138 1.332 1_545 S
C134 C135 1.388 1_565 S
C134 C138 1.382 . S
C134 H157 0.950 . S
C135 C134 1.388 1_545 S
C135 C136 1.386 . S
C136 C135 1.386 . S
C136 C137 1.382 . S
C136 H158 0.950 . S
C137 N133 1.332 . S
C137 C136 1.382 . S
C137 H139 0.952 . S
C138 N133 1.332 1_565 S
C138 C134 1.382 . S
C138 H140 0.948 . S
H139 C137 0.952 . S
H140 C138 0.948 . S
H141 C130 0.952 . S
H142 C132 0.948 . S
C143 C109 1.395 . S
C143 C113 1.391 . S
C144 C106 1.389 . S
C144 C126 1.392 . S
C145 C116 1.392 . S
C145 C118 1.389 . S
C146 C121 1.395 . S
C146 C123 1.391 . S
H147 C107 0.951 . S
H148 C108 0.950 . S
H149 C114 0.949 . S
H150 C115 0.950 . S
H151 C119 0.951 . S
H152 C120 0.950 . S
H153 C124 0.949 . S
H154 C125 0.950 . S
H155 C129 0.950 . S
H156 C131 0.950 . S
H157 C134 0.950 . S
H158 C136 0.950 . S
C159 C160 1.443 . S
C159 N163 1.376 . S
C159 C197 1.389 . S
C160 C159 1.443 . S
C160 C161 1.340 . S
C160 H200 0.951 . S
C161 C160 1.340 . S
C161 C162 1.439 . S
C161 H201 0.950 . S
C162 C161 1.439 . S
C162 N163 1.374 . S
C162 C196 1.395 . S
N163 C159 1.376 . S
N163 C162 1.374 . S
N163 Co164 2.008 . S
Co164 N163 2.008 . S
Co164 N165 1.995 . S
Co164 N170 2.008 . S
Co164 N175 1.995 . S
Co164 N180 2.282 . S
Co164 N186 2.282 . S
N165 Co164 1.995 . S
N165 C166 1.376 . S
N165 C169 1.383 . S
C166 N165 1.376 . S
C166 C167 1.446 . S
C166 C196 1.391 . S
C167 C166 1.446 . S
C167 C168 1.339 . S
C167 H202 0.949 . S
C168 C167 1.339 . S
C168 C169 1.439 . S
C168 H203 0.950 . S
C169 N165 1.383 . S
C169 C168 1.439 . S
C169 C198 1.392 . S
N170 Co164 2.008 . S
N170 C171 1.376 . S
N170 C174 1.374 . S
C171 N170 1.376 . S
C171 C172 1.443 . S
C171 C198 1.389 . S
C172 C171 1.443 . S
C172 C173 1.340 . S
C172 H204 0.951 . S
C173 C172 1.340 . S
C173 C174 1.439 . S
C173 H205 0.950 . S
C174 N170 1.374 . S
C174 C173 1.439 . S
C174 C199 1.395 . S
N175 Co164 1.995 . S
N175 C176 1.376 . S
N175 C179 1.383 . S
C176 N175 1.376 . S
C176 C177 1.446 . S
C176 C199 1.391 . S
C177 C176 1.446 . S
C177 C178 1.339 . S
C177 H206 0.949 . S
C178 C177 1.339 . S
C178 C179 1.439 . S
C178 H207 0.950 . S
C179 N175 1.383 . S
C179 C178 1.439 . S
C179 C197 1.392 . S
N180 Co164 2.282 . S
N180 C183 1.332 . S
N180 C185 1.332 . S
C181 C182 1.386 . S
C181 C184 1.388 . S
C182 C181 1.386 . S
C182 C183 1.382 . S
C182 H208 0.950 . S
C183 N180 1.332 . S
C183 C182 1.382 . S
C183 H194 0.952 . S
C184 C181 1.388 . S
C184 C185 1.382 . S
C184 H209 0.950 . S
C185 N180 1.332 . S
C185 C184 1.382 . S
C185 H195 0.948 . S
N186 Co164 2.282 . S
N186 C190 1.332 . S
N186 C191 1.332 . S
C187 C188 1.388 . S
C187 C191 1.382 . S
C187 H210 0.950 . S
C188 C187 1.388 . S
C188 C189 1.386 . S
C189 C188 1.386 . S
C189 C190 1.382 . S
C189 H211 0.950 . S
C190 N186 1.332 . S
C190 C189 1.382 . S
C190 H192 0.952 . S
C191 N186 1.332 . S
C191 C187 1.382 . S
C191 H193 0.948 . S
H192 C190 0.952 . S
H193 C191 0.948 . S
H194 C183 0.952 . S
H195 C185 0.948 . S
C196 C162 1.395 . S
C196 C166 1.391 . S
C197 C159 1.389 . S
C197 C179 1.392 . S
C198 C169 1.392 . S
C198 C171 1.389 . S
C199 C174 1.395 . S
C199 C176 1.391 . S
H200 C160 0.951 . S
H201 C161 0.950 . S
H202 C167 0.949 . S
H203 C168 0.950 . S
H204 C172 0.951 . S
H205 C173 0.950 . S
H206 C177 0.949 . S
H207 C178 0.950 . S
H208 C182 0.950 . S
H209 C184 0.950 . S
H210 C187 0.950 . S
H211 C189 0.950 . S
C212 C213 1.443 . S
C212 N216 1.376 . S
C212 C250 1.389 1_655 S
C213 C212 1.443 . S
C213 C214 1.340 . S
C213 H253 0.951 . S
C214 C213 1.340 . S
C214 C215 1.439 . S
C214 H254 0.950 . S
C215 C214 1.439 . S
C215 N216 1.374 . S
C215 C249 1.395 . S
N216 C212 1.376 . S
N216 C215 1.374 . S
N216 Co217 2.008 1_665 S
Co217 N216 2.008 1_445 S
Co217 N218 1.995 1_445 S
Co217 N223 2.008 . S
Co217 N228 1.995 . S
Co217 N233 2.282 1_545 S
Co217 N239 2.282 1_455 S
N218 Co217 1.995 1_665 S
N218 C219 1.376 . S
N218 C222 1.383 . S
C219 N218 1.376 . S
C219 C220 1.446 . S
C219 C249 1.391 . S
C220 C219 1.446 . S
C220 C221 1.339 . S
C220 H255 0.949 . S
C221 C220 1.339 . S
C221 C222 1.439 . S
C221 H256 0.950 . S
C222 N218 1.383 . S
C222 C221 1.439 . S
C222 C251 1.392 1_565 S
N223 Co217 2.008 . S
N223 C224 1.376 . S
N223 C227 1.374 . S
C224 N223 1.376 . S
C224 C225 1.443 . S
C224 C251 1.389 1_455 S
C225 C224 1.443 . S
C225 C226 1.340 . S
C225 H257 0.951 . S
C226 C225 1.340 . S
C226 C227 1.439 . S
C226 H258 0.950 . S
C227 N223 1.374 . S
C227 C226 1.439 . S
C227 C252 1.395 . S
N228 Co217 1.995 . S
N228 C229 1.376 . S
N228 C232 1.383 . S
C229 N228 1.376 . S
C229 C230 1.446 . S
C229 C252 1.391 . S
C230 C229 1.446 . S
C230 C231 1.339 . S
C230 H259 0.949 . S
C231 C230 1.339 . S
C231 C232 1.439 . S
C231 H260 0.950 . S
C232 N228 1.383 . S
C232 C231 1.439 . S
C232 C250 1.392 1_545 S
N233 Co217 2.282 1_565 S
N233 C236 1.332 . S
N233 C238 1.332 . S
C234 C235 1.386 . S
C234 C237 1.388 . S
C235 C234 1.386 . S
C235 C236 1.382 . S
C235 H261 0.950 . S
C236 N233 1.332 . S
C236 C235 1.382 . S
C236 H247 0.952 . S
C237 C234 1.388 . S
C237 C238 1.382 . S
C237 H262 0.950 . S
C238 N233 1.332 . S
C238 C237 1.382 . S
C238 H248 0.948 . S
N239 Co217 2.282 1_655 S
N239 C243 1.332 . S
N239 C244 1.332 . S
C240 C241 1.388 . S
C240 C244 1.382 . S
C240 H263 0.950 . S
C241 C240 1.388 . S
C241 C242 1.386 . S
C242 C241 1.386 . S
C242 C243 1.382 . S
C242 H264 0.950 . S
C243 N239 1.332 . S
C243 C242 1.382 . S
C243 H245 0.952 . S
C244 N239 1.332 . S
C244 C240 1.382 . S
C244 H246 0.948 . S
H245 C243 0.952 . S
H246 C244 0.948 . S
H247 C236 0.952 . S
H248 C238 0.948 . S
C249 C215 1.395 . S
C249 C219 1.391 . S
C250 C212 1.389 1_455 S
C250 C232 1.392 1_565 S
C251 C222 1.392 1_545 S
C251 C224 1.389 1_655 S
C252 C227 1.395 . S
C252 C229 1.391 . S
H253 C213 0.951 . S
H254 C214 0.950 . S
H255 C220 0.949 . S
H256 C221 0.950 . S
H257 C225 0.951 . S
H258 C226 0.950 . S
H259 C230 0.949 . S
H260 C231 0.950 . S
H261 C235 0.950 . S
H262 C237 0.950 . S
H263 C240 0.950 . S
H264 C242 0.950 . S
C265 C266 1.443 . S
C265 N269 1.376 . S
C265 C303 1.389 . S
C266 C265 1.443 . S
C266 C267 1.340 . S
C266 H306 0.951 . S
C267 C266 1.340 . S
C267 C268 1.439 . S
C267 H307 0.950 . S
C268 C267 1.439 . S
C268 N269 1.374 . S
C268 C302 1.395 . S
N269 C265 1.376 . S
N269 C268 1.374 . S
N269 Co270 2.008 . S
Co270 N269 2.008 . S
Co270 N271 1.995 . S
Co270 N276 2.008 . S
Co270 N281 1.995 . S
Co270 N286 2.282 . S
Co270 N292 2.282 . S
N271 Co270 1.995 . S
N271 C272 1.376 . S
N271 C275 1.383 . S
C272 N271 1.376 . S
C272 C273 1.446 . S
C272 C302 1.391 . S
C273 C272 1.446 . S
C273 C274 1.339 . S
C273 H308 0.949 . S
C274 C273 1.339 . S
C274 C275 1.439 . S
C274 H309 0.950 . S
C275 N271 1.383 . S
C275 C274 1.439 . S
C275 C304 1.392 . S
N276 Co270 2.008 . S
N276 C277 1.376 . S
N276 C280 1.374 . S
C277 N276 1.376 . S
C277 C278 1.443 . S
C277 C304 1.389 . S
C278 C277 1.443 . S
C278 C279 1.340 . S
C278 H310 0.951 . S
C279 C278 1.340 . S
C279 C280 1.439 . S
C279 H311 0.950 . S
C280 N276 1.374 . S
C280 C279 1.439 . S
C280 C305 1.395 . S
N281 Co270 1.995 . S
N281 C282 1.376 . S
N281 C285 1.383 . S
C282 N281 1.376 . S
C282 C283 1.446 . S
C282 C305 1.391 . S
C283 C282 1.446 . S
C283 C284 1.339 . S
C283 H312 0.949 . S
C284 C283 1.339 . S
C284 C285 1.439 . S
C284 H313 0.950 . S
C285 N281 1.383 . S
C285 C284 1.439 . S
C285 C303 1.392 . S
N286 Co270 2.282 . S
N286 C289 1.332 . S
N286 C291 1.332 . S
C287 C288 1.386 . S
C287 C290 1.388 . S
C288 C287 1.386 . S
C288 C289 1.382 . S
C288 H314 0.950 . S
C289 N286 1.332 . S
C289 C288 1.382 . S
C289 H300 0.952 . S
C290 C287 1.388 . S
C290 C291 1.382 . S
C290 H315 0.950 . S
C291 N286 1.332 . S
C291 C290 1.382 . S
C291 H301 0.948 . S
N292 Co270 2.282 . S
N292 C296 1.332 . S
N292 C297 1.332 . S
C293 C294 1.388 . S
C293 C297 1.382 . S
C293 H316 0.950 . S
C294 C293 1.388 . S
C294 C295 1.386 . S
C295 C294 1.386 . S
C295 C296 1.382 . S
C295 H317 0.950 . S
C296 N292 1.332 . S
C296 C295 1.382 . S
C296 H298 0.952 . S
C297 N292 1.332 . S
C297 C293 1.382 . S
C297 H299 0.948 . S
H298 C296 0.952 . S
H299 C297 0.948 . S
H300 C289 0.952 . S
H301 C291 0.948 . S
C302 C268 1.395 . S
C302 C272 1.391 . S
C303 C265 1.389 . S
C303 C285 1.392 . S
C304 C275 1.392 . S
C304 C277 1.389 . S
C305 C280 1.395 . S
C305 C282 1.391 . S
H306 C266 0.951 . S
H307 C267 0.950 . S
H308 C273 0.949 . S
H309 C274 0.950 . S
H310 C278 0.951 . S
H311 C279 0.950 . S
H312 C283 0.949 . S
H313 C284 0.950 . S
H314 C288 0.950 . S
H315 C290 0.950 . S
H316 C293 0.950 . S
H317 C295 0.950 . S
C318 C319 1.443 . S
C318 N322 1.370 1_545 S
C318 C356 1.389 . S
C319 C318 1.443 . S
C319 C320 1.340 1_545 S
C319 H359 0.951 . S
C320 C319 1.340 1_565 S
C320 C321 1.439 . S
C320 H360 0.950 . S
C321 C320 1.439 . S
C321 N322 1.382 . S
C321 C355 1.395 1_556 S
N322 C318 1.370 1_565 S
N322 C321 1.382 . S
N322 Co323 2.007 1_566 S
Co323 N322 2.007 1_544 S
Co323 N324 1.995 1_545 S
Co323 N329 2.006 . S
Co323 N334 1.995 1_554 S
Co323 N339 2.282 . S
Co323 N345 2.282 1_544 S
N324 Co323 1.995 1_565 S
N324 C325 1.376 . S
N324 C328 1.383 . S
C325 N324 1.376 . S
C325 C326 1.446 . S
C325 C355 1.391 . S
C326 C325 1.446 . S
C326 C327 1.339 . S
C326 H361 0.949 . S
C327 C326 1.339 . S
C327 C328 1.439 . S
C327 H362 0.950 . S
C328 N324 1.383 . S
C328 C327 1.439 . S
C328 C357 1.392 . S
N329 Co323 2.006 . S
N329 C330 1.365 1_545 S
N329 C333 1.389 . S
C330 N329 1.365 1_565 S
C330 C331 1.443 . S
C330 C357 1.389 . S
C331 C330 1.443 . S
C331 C332 1.340 1_565 S
C331 H363 0.951 . S
C332 C331 1.340 1_545 S
C332 C333 1.439 . S
C332 H364 0.950 . S
C333 N329 1.389 . S
C333 C332 1.439 . S
C333 C358 1.395 1_554 S
N334 Co323 1.995 1_556 S
N334 C335 1.376 . S
N334 C338 1.383 . S
C335 N334 1.376 . S
C335 C336 1.446 . S
C335 C358 1.391 . S
C336 C335 1.446 . S
C336 C337 1.339 . S
C336 H365 0.949 . S
C337 C336 1.339 . S
C337 C338 1.439 . S
C337 H366 0.950 . S
C338 N334 1.383 . S
C338 C337 1.439 . S
C338 C356 1.392 . S
N339 Co323 2.282 . S
N339 C342 1.332 . S
N339 C344 1.332 1_545 S
C340 C341 1.386 . S
C340 C343 1.388 1_545 S
C341 C340 1.386 . S
C341 C342 1.382 . S
C341 H367 0.950 . S
C342 N339 1.332 . S
C342 C341 1.382 . S
C342 H353 0.952 . S
C343 C340 1.388 1_565 S
C343 C344 1.382 . S
C343 H368 0.950 . S
C344 N339 1.332 1_565 S
C344 C343 1.382 . S
C344 H354 0.948 . S
N345 Co323 2.282 1_566 S
N345 C349 1.332 . S
N345 C350 1.332 1_565 S
C346 C347 1.388 1_545 S
C346 C350 1.382 . S
C346 H369 0.950 . S
C347 C346 1.388 1_565 S
C347 C348 1.386 . S
C348 C347 1.386 . S
C348 C349 1.382 . S
C348 H370 0.950 . S
C349 N345 1.332 . S
C349 C348 1.382 . S
C349 H351 0.952 . S
C350 N345 1.332 1_545 S
C350 C346 1.382 . S
C350 H352 0.948 . S
H351 C349 0.952 . S
H352 C350 0.948 . S
H353 C342 0.952 . S
H354 C344 0.948 . S
C355 C321 1.395 1_554 S
C355 C325 1.391 . S
C356 C318 1.389 . S
C356 C338 1.392 . S
C357 C328 1.392 . S
C357 C330 1.389 . S
C358 C333 1.395 1_556 S
C358 C335 1.391 . S
H359 C319 0.951 . S
H360 C320 0.950 . S
H361 C326 0.949 . S
H362 C327 0.950 . S
H363 C331 0.951 . S
H364 C332 0.950 . S
H365 C336 0.949 . S
H366 C337 0.950 . S
H367 C341 0.950 . S
H368 C343 0.950 . S
H369 C346 0.950 . S
H370 C348 0.950 . S
C371 C372 1.443 . S
C371 N375 1.376 . S
C371 C409 1.389 . S
C372 C371 1.443 . S
C372 C373 1.340 . S
C372 H412 0.951 . S
C373 C372 1.340 . S
C373 C374 1.439 . S
C373 H413 0.950 . S
C374 C373 1.439 . S
C374 N375 1.374 . S
C374 C408 1.395 . S
N375 C371 1.376 . S
N375 C374 1.374 . S
N375 Co376 2.008 . S
Co376 N375 2.008 . S
Co376 N377 1.995 . S
Co376 N382 2.008 . S
Co376 N387 1.995 . S
Co376 N392 2.282 . S
Co376 N398 2.282 . S
N377 Co376 1.995 . S
N377 C378 1.376 . S
N377 C381 1.383 . S
C378 N377 1.376 . S
C378 C379 1.446 . S
C378 C408 1.391 . S
C379 C378 1.446 . S
C379 C380 1.339 . S
C379 H414 0.949 . S
C380 C379 1.339 . S
C380 C381 1.439 . S
C380 H415 0.950 . S
C381 N377 1.383 . S
C381 C380 1.439 . S
C381 C410 1.392 . S
N382 Co376 2.008 . S
N382 C383 1.376 . S
N382 C386 1.374 . S
C383 N382 1.376 . S
C383 C384 1.443 . S
C383 C410 1.389 . S
C384 C383 1.443 . S
C384 C385 1.340 . S
C384 H416 0.951 . S
C385 C384 1.340 . S
C385 C386 1.439 . S
C385 H417 0.950 . S
C386 N382 1.374 . S
C386 C385 1.439 . S
C386 C411 1.395 . S
N387 Co376 1.995 . S
N387 C388 1.376 . S
N387 C391 1.383 . S
C388 N387 1.376 . S
C388 C389 1.446 . S
C388 C411 1.391 . S
C389 C388 1.446 . S
C389 C390 1.339 . S
C389 H418 0.949 . S
C390 C389 1.339 . S
C390 C391 1.439 . S
C390 H419 0.950 . S
C391 N387 1.383 . S
C391 C390 1.439 . S
C391 C409 1.392 . S
N392 Co376 2.282 . S
N392 C395 1.332 . S
N392 C397 1.332 . S
C393 C394 1.386 . S
C393 C396 1.388 . S
C394 C393 1.386 . S
C394 C395 1.382 . S
C394 H420 0.950 . S
C395 N392 1.332 . S
C395 C394 1.382 . S
C395 H406 0.952 . S
C396 C393 1.388 . S
C396 C397 1.382 . S
C396 H421 0.950 . S
C397 N392 1.332 . S
C397 C396 1.382 . S
C397 H407 0.948 . S
N398 Co376 2.282 . S
N398 C402 1.332 . S
N398 C403 1.332 . S
C399 C400 1.388 . S
C399 C403 1.382 . S
C399 H422 0.950 . S
C400 C399 1.388 . S
C400 C401 1.386 . S
C401 C400 1.386 . S
C401 C402 1.382 . S
C401 H423 0.950 . S
C402 N398 1.332 . S
C402 C401 1.382 . S
C402 H404 0.952 . S
C403 N398 1.332 . S
C403 C399 1.382 . S
C403 H405 0.948 . S
H404 C402 0.952 . S
H405 C403 0.948 . S
H406 C395 0.952 . S
H407 C397 0.948 . S
C408 C374 1.395 . S
C408 C378 1.391 . S
C409 C371 1.389 . S
C409 C391 1.392 . S
C410 C381 1.392 . S
C410 C383 1.389 . S
C411 C386 1.395 . S
C411 C388 1.391 . S
H412 C372 0.951 . S
H413 C373 0.950 . S
H414 C379 0.949 . S
H415 C380 0.950 . S
H416 C384 0.951 . S
H417 C385 0.950 . S
H418 C389 0.949 . S
H419 C390 0.950 . S
H420 C394 0.950 . S
H421 C396 0.950 . S
H422 C399 0.950 . S
H423 C401 0.950 . S
C424 C425 1.443 . S
C424 N428 1.376 . S
C424 C462 1.389 . S
C425 C424 1.443 . S
C425 C426 1.340 . S
C425 H465 0.951 . S
C426 C425 1.340 . S
C426 C427 1.439 . S
C426 H466 0.950 . S
C427 C426 1.439 . S
C427 N428 1.374 . S
C427 C461 1.395 . S
N428 C424 1.376 . S
N428 C427 1.374 . S
N428 Co429 2.008 . S
Co429 N428 2.008 . S
Co429 N430 1.995 . S
Co429 N435 2.008 . S
Co429 N440 1.995 . S
Co429 N445 2.282 . S
Co429 N451 2.282 . S
N430 Co429 1.995 . S
N430 C431 1.376 . S
N430 C434 1.383 . S
C431 N430 1.376 . S
C431 C432 1.446 . S
C431 C461 1.391 . S
C432 C431 1.446 . S
C432 C433 1.339 . S
C432 H467 0.949 . S
C433 C432 1.339 . S
C433 C434 1.439 . S
C433 H468 0.950 . S
C434 N430 1.383 . S
C434 C433 1.439 . S
C434 C463 1.392 . S
N435 Co429 2.008 . S
N435 C436 1.376 . S
N435 C439 1.374 . S
C436 N435 1.376 . S
C436 C437 1.443 . S
C436 C463 1.389 . S
C437 C436 1.443 . S
C437 C438 1.340 . S
C437 H469 0.951 . S
C438 C437 1.340 . S
C438 C439 1.439 . S
C438 H470 0.950 . S
C439 N435 1.374 . S
C439 C438 1.439 . S
C439 C464 1.395 . S
N440 Co429 1.995 . S
N440 C441 1.376 . S
N440 C444 1.383 . S
C441 N440 1.376 . S
C441 C442 1.446 . S
C441 C464 1.391 . S
C442 C441 1.446 . S
C442 C443 1.339 . S
C442 H471 0.949 . S
C443 C442 1.339 . S
C443 C444 1.439 . S
C443 H472 0.950 . S
C444 N440 1.383 . S
C444 C443 1.439 . S
C444 C462 1.392 . S
N445 Co429 2.282 . S
N445 C448 1.332 . S
N445 C450 1.332 . S
C446 C447 1.386 . S
C446 C449 1.388 . S
C447 C446 1.386 . S
C447 C448 1.382 . S
C447 H473 0.950 . S
C448 N445 1.332 . S
C448 C447 1.382 . S
C448 H459 0.952 . S
C449 C446 1.388 . S
C449 C450 1.382 . S
C449 H474 0.950 . S
C450 N445 1.332 . S
C450 C449 1.382 . S
C450 H460 0.948 . S
N451 Co429 2.282 . S
N451 C455 1.332 . S
N451 C456 1.332 . S
C452 C453 1.388 . S
C452 C456 1.382 . S
C452 H475 0.950 . S
C453 C452 1.388 . S
C453 C454 1.386 . S
C454 C453 1.386 . S
C454 C455 1.382 . S
C454 H476 0.950 . S
C455 N451 1.332 . S
C455 C454 1.382 . S
C455 H457 0.952 . S
C456 N451 1.332 . S
C456 C452 1.382 . S
C456 H458 0.948 . S
H457 C455 0.952 . S
H458 C456 0.948 . S
H459 C448 0.952 . S
H460 C450 0.948 . S
C461 C427 1.395 . S
C461 C431 1.391 . S
C462 C424 1.389 . S
C462 C444 1.392 . S
C463 C434 1.392 . S
C463 C436 1.389 . S
C464 C439 1.395 . S
C464 C441 1.391 . S
H465 C425 0.951 . S
H466 C426 0.950 . S
H467 C432 0.949 . S
H468 C433 0.950 . S
H469 C437 0.951 . S
H470 C438 0.950 . S
H471 C442 0.949 . S
H472 C443 0.950 . S
H473 C447 0.950 . S
H474 C449 0.950 . S
H475 C452 0.950 . S
H476 C454 0.950 . S
C477 C478 1.443 . S
C477 N481 1.376 . S
C477 C515 1.389 . S
C478 C477 1.443 . S
C478 C479 1.340 . S
C478 H518 0.951 . S
C479 C478 1.340 . S
C479 C480 1.439 . S
C479 H519 0.950 . S
C480 C479 1.439 . S
C480 N481 1.374 . S
C480 C514 1.395 . S
N481 C477 1.376 . S
N481 C480 1.374 . S
N481 Co482 2.008 . S
Co482 N481 2.008 . S
Co482 N483 1.995 . S
Co482 N488 2.008 . S
Co482 N493 1.995 . S
Co482 N498 2.282 . S
Co482 N504 2.282 . S
N483 Co482 1.995 . S
N483 C484 1.376 . S
N483 C487 1.383 . S
C484 N483 1.376 . S
C484 C485 1.446 . S
C484 C514 1.391 . S
C485 C484 1.446 . S
C485 C486 1.339 . S
C485 H520 0.949 . S
C486 C485 1.339 . S
C486 C487 1.439 . S
C486 H521 0.950 . S
C487 N483 1.383 . S
C487 C486 1.439 . S
C487 C516 1.392 . S
N488 Co482 2.008 . S
N488 C489 1.376 . S
N488 C492 1.374 . S
C489 N488 1.376 . S
C489 C490 1.443 . S
C489 C516 1.389 . S
C490 C489 1.443 . S
C490 C491 1.340 . S
C490 H522 0.951 . S
C491 C490 1.340 . S
C491 C492 1.439 . S
C491 H523 0.950 . S
C492 N488 1.374 . S
C492 C491 1.439 . S
C492 C517 1.395 . S
N493 Co482 1.995 . S
N493 C494 1.376 . S
N493 C497 1.383 . S
C494 N493 1.376 . S
C494 C495 1.446 . S
C494 C517 1.391 . S
C495 C494 1.446 . S
C495 C496 1.339 . S
C495 H524 0.949 . S
C496 C495 1.339 . S
C496 C497 1.439 . S
C496 H525 0.950 . S
C497 N493 1.383 . S
C497 C496 1.439 . S
C497 C515 1.392 . S
N498 Co482 2.282 . S
N498 C501 1.332 . S
N498 C503 1.332 . S
C499 C500 1.386 . S
C499 C502 1.388 . S
C500 C499 1.386 . S
C500 C501 1.382 . S
C500 H526 0.950 . S
C501 N498 1.332 . S
C501 C500 1.382 . S
C501 H512 0.952 . S
C502 C499 1.388 . S
C502 C503 1.382 . S
C502 H527 0.950 . S
C503 N498 1.332 . S
C503 C502 1.382 . S
C503 H513 0.948 . S
N504 Co482 2.282 . S
N504 C508 1.332 . S
N504 C509 1.332 . S
C505 C506 1.388 . S
C505 C509 1.382 . S
C505 H528 0.950 . S
C506 C505 1.388 . S
C506 C507 1.386 . S
C507 C506 1.386 . S
C507 C508 1.382 . S
C507 H529 0.950 . S
C508 N504 1.332 . S
C508 C507 1.382 . S
C508 H510 0.952 . S
C509 N504 1.332 . S
C509 C505 1.382 . S
C509 H511 0.948 . S
H510 C508 0.952 . S
H511 C509 0.948 . S
H512 C501 0.952 . S
H513 C503 0.948 . S
C514 C480 1.395 . S
C514 C484 1.391 . S
C515 C477 1.389 . S
C515 C497 1.392 . S
C516 C487 1.392 . S
C516 C489 1.389 . S
C517 C492 1.395 . S
C517 C494 1.391 . S
H518 C478 0.951 . S
H519 C479 0.950 . S
H520 C485 0.949 . S
H521 C486 0.950 . S
H522 C490 0.951 . S
H523 C491 0.950 . S
H524 C495 0.949 . S
H525 C496 0.950 . S
H526 C500 0.950 . S
H527 C502 0.950 . S
H528 C505 0.950 . S
H529 C507 0.950 . S
C530 C531 1.443 . S
C530 N534 1.376 . S
C530 C568 1.389 . S
C531 C530 1.443 . S
C531 C532 1.340 . S
C531 H571 0.951 . S
C532 C531 1.340 . S
C532 C533 1.439 . S
C532 H572 0.950 . S
C533 C532 1.439 . S
C533 N534 1.374 . S
C533 C567 1.395 . S
N534 C530 1.376 . S
N534 C533 1.374 . S
N534 Co535 2.008 . S
Co535 N534 2.008 . S
Co535 N536 1.995 . S
Co535 N541 2.008 . S
Co535 N546 1.995 . S
Co535 N551 2.282 . S
Co535 N557 2.282 . S
N536 Co535 1.995 . S
N536 C537 1.376 . S
N536 C540 1.383 . S
C537 N536 1.376 . S
C537 C538 1.446 . S
C537 C567 1.391 . S
C538 C537 1.446 . S
C538 C539 1.339 . S
C538 H573 0.949 . S
C539 C538 1.339 . S
C539 C540 1.439 . S
C539 H574 0.950 . S
C540 N536 1.383 . S
C540 C539 1.439 . S
C540 C569 1.392 . S
N541 Co535 2.008 . S
N541 C542 1.376 . S
N541 C545 1.374 . S
C542 N541 1.376 . S
C542 C543 1.443 . S
C542 C569 1.389 . S
C543 C542 1.443 . S
C543 C544 1.340 . S
C543 H575 0.951 . S
C544 C543 1.340 . S
C544 C545 1.439 . S
C544 H576 0.950 . S
C545 N541 1.374 . S
C545 C544 1.439 . S
C545 C570 1.395 . S
N546 Co535 1.995 . S
N546 C547 1.376 . S
N546 C550 1.383 . S
C547 N546 1.376 . S
C547 C548 1.446 . S
C547 C570 1.391 . S
C548 C547 1.446 . S
C548 C549 1.339 . S
C548 H577 0.949 . S
C549 C548 1.339 . S
C549 C550 1.439 . S
C549 H578 0.950 . S
C550 N546 1.383 . S
C550 C549 1.439 . S
C550 C568 1.392 . S
N551 Co535 2.282 . S
N551 C554 1.332 . S
N551 C556 1.332 . S
C552 C553 1.386 . S
C552 C555 1.388 . S
C553 C552 1.386 . S
C553 C554 1.382 . S
C553 H579 0.950 . S
C554 N551 1.332 . S
C554 C553 1.382 . S
C554 H565 0.952 . S
C555 C552 1.388 . S
C555 C556 1.382 . S
C555 H580 0.950 . S
C556 N551 1.332 . S
C556 C555 1.382 . S
C556 H566 0.948 . S
N557 Co535 2.282 . S
N557 C561 1.332 . S
N557 C562 1.332 . S
C558 C559 1.388 . S
C558 C562 1.382 . S
C558 H581 0.950 . S
C559 C558 1.388 . S
C559 C560 1.386 . S
C560 C559 1.386 . S
C560 C561 1.382 . S
C560 H582 0.950 . S
C561 N557 1.332 . S
C561 C560 1.382 . S
C561 H563 0.952 . S
C562 N557 1.332 . S
C562 C558 1.382 . S
C562 H564 0.948 . S
H563 C561 0.952 . S
H564 C562 0.948 . S
H565 C554 0.952 . S
H566 C556 0.948 . S
C567 C533 1.395 . S
C567 C537 1.391 . S
C568 C530 1.389 . S
C568 C550 1.392 . S
C569 C540 1.392 . S
C569 C542 1.389 . S
C570 C545 1.395 . S
C570 C547 1.391 . S
H571 C531 0.951 . S
H572 C532 0.950 . S
H573 C538 0.949 . S
H574 C539 0.950 . S
H575 C543 0.951 . S
H576 C544 0.950 . S
H577 C548 0.949 . S
H578 C549 0.950 . S
H579 C553 0.950 . S
H580 C555 0.950 . S
H581 C558 0.950 . S
H582 C560 0.950 . S
C583 C584 1.443 . S
C583 N587 1.376 . S
C583 C621 1.389 . S
C584 C583 1.443 . S
C584 C585 1.340 . S
C584 H624 0.951 . S
C585 C584 1.340 . S
C585 C586 1.439 . S
C585 H625 0.950 . S
C586 C585 1.439 . S
C586 N587 1.374 . S
C586 C620 1.395 . S
N587 C583 1.376 . S
N587 C586 1.374 . S
N587 Co588 2.008 . S
Co588 N587 2.008 . S
Co588 N589 1.995 . S
Co588 N594 2.008 . S
Co588 N599 1.995 . S
Co588 N604 2.282 . S
Co588 N610 2.282 . S
N589 Co588 1.995 . S
N589 C590 1.376 . S
N589 C593 1.383 . S
C590 N589 1.376 . S
C590 C591 1.446 . S
C590 C620 1.391 . S
C591 C590 1.446 . S
C591 C592 1.339 . S
C591 H626 0.949 . S
C592 C591 1.339 . S
C592 C593 1.439 . S
C592 H627 0.950 . S
C593 N589 1.383 . S
C593 C592 1.439 . S
C593 C622 1.392 . S
N594 Co588 2.008 . S
N594 C595 1.376 . S
N594 C598 1.374 . S
C595 N594 1.376 . S
C595 C596 1.443 . S
C595 C622 1.389 . S
C596 C595 1.443 . S
C596 C597 1.340 . S
C596 H628 0.951 . S
C597 C596 1.340 . S
C597 C598 1.439 . S
C597 H629 0.950 . S
C598 N594 1.374 . S
C598 C597 1.439 . S
C598 C623 1.395 . S
N599 Co588 1.995 . S
N599 C600 1.376 . S
N599 C603 1.383 . S
C600 N599 1.376 . S
C600 C601 1.446 . S
C600 C623 1.391 . S
C601 C600 1.446 . S
C601 C602 1.339 . S
C601 H630 0.949 . S
C602 C601 1.339 . S
C602 C603 1.439 . S
C602 H631 0.950 . S
C603 N599 1.383 . S
C603 C602 1.439 . S
C603 C621 1.392 . S
N604 Co588 2.282 . S
N604 C607 1.332 . S
N604 C609 1.332 . S
C605 C606 1.386 . S
C605 C608 1.388 . S
C606 C605 1.386 . S
C606 C607 1.382 . S
C606 H632 0.950 . S
C607 N604 1.332 . S
C607 C606 1.382 . S
C607 H618 0.952 . S
C608 C605 1.388 . S
C608 C609 1.382 . S
C608 H633 0.950 . S
C609 N604 1.332 . S
C609 C608 1.382 . S
C609 H619 0.948 . S
N610 Co588 2.282 . S
N610 C614 1.332 . S
N610 C615 1.332 . S
C611 C612 1.388 . S
C611 C615 1.382 . S
C611 H634 0.950 . S
C612 C611 1.388 . S
C612 C613 1.386 . S
C613 C612 1.386 . S
C613 C614 1.382 . S
C613 H635 0.950 . S
C614 N610 1.332 . S
C614 C613 1.382 . S
C614 H616 0.952 . S
C615 N610 1.332 . S
C615 C611 1.382 . S
C615 H617 0.948 . S
H616 C614 0.952 . S
H617 C615 0.948 . S
H618 C607 0.952 . S
H619 C609 0.948 . S
C620 C586 1.395 . S
C620 C590 1.391 . S
C621 C583 1.389 . S
C621 C603 1.392 . S
C622 C593 1.392 . S
C622 C595 1.389 . S
C623 C598 1.395 . S
C623 C600 1.391 . S
H624 C584 0.951 . S
H625 C585 0.950 . S
H626 C591 0.949 . S
H627 C592 0.950 . S
H628 C596 0.951 . S
H629 C597 0.950 . S
H630 C601 0.949 . S
H631 C602 0.950 . S
H632 C606 0.950 . S
H633 C608 0.950 . S
H634 C611 0.950 . S
H635 C613 0.950 . S
C636 C637 1.443 . S
C636 N640 1.376 . S
C636 C674 1.389 . S
C637 C636 1.443 . S
C637 C638 1.340 . S
C637 H677 0.951 . S
C638 C637 1.340 . S
C638 C639 1.439 . S
C638 H678 0.950 . S
C639 C638 1.439 . S
C639 N640 1.374 . S
C639 C673 1.395 . S
N640 C636 1.376 . S
N640 C639 1.374 . S
N640 Co641 2.008 . S
Co641 N640 2.008 . S
Co641 N642 1.995 . S
Co641 N647 2.008 . S
Co641 N652 1.995 . S
Co641 N657 2.282 . S
Co641 N663 2.282 . S
N642 Co641 1.995 . S
N642 C643 1.376 . S
N642 C646 1.383 . S
C643 N642 1.376 . S
C643 C644 1.446 . S
C643 C673 1.391 . S
C644 C643 1.446 . S
C644 C645 1.339 . S
C644 H679 0.949 . S
C645 C644 1.339 . S
C645 C646 1.439 . S
C645 H680 0.950 . S
C646 N642 1.383 . S
C646 C645 1.439 . S
C646 C675 1.392 . S
N647 Co641 2.008 . S
N647 C648 1.376 . S
N647 C651 1.374 . S
C648 N647 1.376 . S
C648 C649 1.443 . S
C648 C675 1.389 . S
C649 C648 1.443 . S
C649 C650 1.340 . S
C649 H681 0.951 . S
C650 C649 1.340 . S
C650 C651 1.439 . S
C650 H682 0.950 . S
C651 N647 1.374 . S
C651 C650 1.439 . S
C651 C676 1.395 . S
N652 Co641 1.995 . S
N652 C653 1.376 . S
N652 C656 1.383 . S
C653 N652 1.376 . S
C653 C654 1.446 . S
C653 C676 1.391 . S
C654 C653 1.446 . S
C654 C655 1.339 . S
C654 H683 0.949 . S
C655 C654 1.339 . S
C655 C656 1.439 . S
C655 H684 0.950 . S
C656 N652 1.383 . S
C656 C655 1.439 . S
C656 C674 1.392 . S
N657 Co641 2.282 . S
N657 C660 1.332 . S
N657 C662 1.332 . S
C658 C659 1.386 . S
C658 C661 1.388 . S
C659 C658 1.386 . S
C659 C660 1.382 . S
C659 H685 0.950 . S
C660 N657 1.332 . S
C660 C659 1.382 . S
C660 H671 0.952 . S
C661 C658 1.388 . S
C661 C662 1.382 . S
C661 H686 0.950 . S
C662 N657 1.332 . S
C662 C661 1.382 . S
C662 H672 0.948 . S
N663 Co641 2.282 . S
N663 C667 1.332 . S
N663 C668 1.332 . S
C664 C665 1.388 . S
C664 C668 1.382 . S
C664 H687 0.950 . S
C665 C664 1.388 . S
C665 C666 1.386 . S
C666 C665 1.386 . S
C666 C667 1.382 . S
C666 H688 0.950 . S
C667 N663 1.332 . S
C667 C666 1.382 . S
C667 H669 0.952 . S
C668 N663 1.332 . S
C668 C664 1.382 . S
C668 H670 0.948 . S
H669 C667 0.952 . S
H670 C668 0.948 . S
H671 C660 0.952 . S
H672 C662 0.948 . S
C673 C639 1.395 . S
C673 C643 1.391 . S
C674 C636 1.389 . S
C674 C656 1.392 . S
C675 C646 1.392 . S
C675 C648 1.389 . S
C676 C651 1.395 . S
C676 C653 1.391 . S
H677 C637 0.951 . S
H678 C638 0.950 . S
H679 C644 0.949 . S
H680 C645 0.950 . S
H681 C649 0.951 . S
H682 C650 0.950 . S
H683 C654 0.949 . S
H684 C655 0.950 . S
H685 C659 0.950 . S
H686 C661 0.950 . S
H687 C664 0.950 . S
H688 C666 0.950 . S
C689 C690 1.443 . S
C689 N693 1.376 . S
C689 C727 1.389 . S
C690 C689 1.443 . S
C690 C691 1.340 . S
C690 H730 0.951 . S
C691 C690 1.340 . S
C691 C692 1.439 . S
C691 H731 0.950 . S
C692 C691 1.439 . S
C692 N693 1.374 . S
C692 C726 1.395 . S
N693 C689 1.376 . S
N693 C692 1.374 . S
N693 Co694 2.008 1_655 S
Co694 N693 2.008 1_455 S
Co694 N695 1.995 1_454 S
Co694 N700 2.008 1_554 S
Co694 N705 1.995 . S
Co694 N710 2.282 1_454 S
Co694 N716 2.282 . S
N695 Co694 1.995 1_656 S
N695 C696 1.376 . S
N695 C699 1.383 1_655 S
C696 N695 1.376 . S
C696 C697 1.446 . S
C696 C726 1.391 1_556 S
C697 C696 1.446 . S
C697 C698 1.339 1_655 S
C697 H732 0.949 . S
C698 C697 1.339 1_455 S
C698 C699 1.439 . S
C698 H733 0.950 . S
C699 N695 1.383 1_455 S
C699 C698 1.439 . S
C699 C728 1.392 . S
N700 Co694 2.008 1_556 S
N700 C701 1.376 . S
N700 C704 1.374 . S
C701 N700 1.376 . S
C701 C702 1.443 . S
C701 C728 1.389 . S
C702 C701 1.443 . S
C702 C703 1.340 . S
C702 H734 0.951 . S
C703 C702 1.340 . S
C703 C704 1.439 . S
C703 H735 0.950 . S
C704 N700 1.374 . S
C704 C703 1.439 . S
C704 C729 1.395 . S
N705 Co694 1.995 . S
N705 C706 1.376 . S
N705 C709 1.383 1_455 S
C706 N705 1.376 . S
C706 C707 1.446 . S
C706 C729 1.391 1_554 S
C707 C706 1.446 . S
C707 C708 1.339 1_455 S
C707 H736 0.949 . S
C708 C707 1.339 1_655 S
C708 C709 1.439 . S
C708 H737 0.950 . S
C709 N705 1.383 1_655 S
C709 C708 1.439 . S
C709 C727 1.392 . S
N710 Co694 2.282 1_656 S
N710 C713 1.332 1_655 S
N710 C715 1.332 . S
C711 C712 1.386 1_655 S
C711 C714 1.388 . S
C712 C711 1.386 1_455 S
C712 C713 1.382 . S
C712 H738 0.950 . S
C713 N710 1.332 1_455 S
C713 C712 1.382 . S
C713 H724 0.952 . S
C714 C711 1.388 . S
C714 C715 1.382 . S
C714 H739 0.950 . S
C715 N710 1.332 . S
C715 C714 1.382 . S
C715 H725 0.948 . S
N716 Co694 2.282 . S
N716 C720 1.332 1_455 S
N716 C721 1.332 . S
C717 C718 1.388 . S
C717 C721 1.382 . S
C717 H740 0.950 . S
C718 C717 1.388 . S
C718 C719 1.386 1_455 S
C719 C718 1.386 1_655 S
C719 C720 1.382 . S
C719 H741 0.950 . S
C720 N716 1.332 1_655 S
C720 C719 1.382 . S
C720 H722 0.952 . S
C721 N716 1.332 . S
C721 C717 1.382 . S
C721 H723 0.948 . S
H722 C720 0.952 . S
H723 C721 0.948 . S
H724 C713 0.952 . S
H725 C715 0.948 . S
C726 C692 1.395 . S
C726 C696 1.391 1_554 S
C727 C689 1.389 . S
C727 C709 1.392 . S
C728 C699 1.392 . S
C728 C701 1.389 . S
C729 C704 1.395 . S
C729 C706 1.391 1_556 S
H730 C690 0.951 . S
H731 C691 0.950 . S
H732 C697 0.949 . S
H733 C698 0.950 . S
H734 C702 0.951 . S
H735 C703 0.950 . S
H736 C707 0.949 . S
H737 C708 0.950 . S
H738 C712 0.950 . S
H739 C714 0.950 . S
H740 C717 0.950 . S
H741 C719 0.950 . S
C742 C743 1.443 . S
C742 N746 1.376 . S
C742 C780 1.389 . S
C743 C742 1.443 . S
C743 C744 1.340 . S
C743 H783 0.951 . S
C744 C743 1.340 . S
C744 C745 1.439 . S
C744 H784 0.950 . S
C745 C744 1.439 . S
C745 N746 1.374 . S
C745 C779 1.395 1_554 S
N746 C742 1.376 . S
N746 C745 1.374 . S
N746 Co747 2.008 . S
Co747 N746 2.008 . S
Co747 N748 1.995 1_554 S
Co747 N753 2.008 1_554 S
Co747 N758 1.995 . S
Co747 N763 2.282 1_554 S
Co747 N769 2.282 . S
N748 Co747 1.995 1_556 S
N748 C749 1.376 . S
N748 C752 1.383 . S
C749 N748 1.376 . S
C749 C750 1.446 . S
C749 C779 1.391 . S
C750 C749 1.446 . S
C750 C751 1.339 . S
C750 H785 0.949 . S
C751 C750 1.339 . S
C751 C752 1.439 . S
C751 H786 0.950 . S
C752 N748 1.383 . S
C752 C751 1.439 . S
C752 C781 1.392 . S
N753 Co747 2.008 1_556 S
N753 C754 1.376 . S
N753 C757 1.374 . S
C754 N753 1.376 . S
C754 C755 1.443 . S
C754 C781 1.389 . S
C755 C754 1.443 . S
C755 C756 1.340 . S
C755 H787 0.951 . S
C756 C755 1.340 . S
C756 C757 1.439 . S
C756 H788 0.950 . S
C757 N753 1.374 . S
C757 C756 1.439 . S
C757 C782 1.395 1_556 S
N758 Co747 1.995 . S
N758 C759 1.376 . S
N758 C762 1.383 . S
C759 N758 1.376 . S
C759 C760 1.446 . S
C759 C782 1.391 . S
C760 C759 1.446 . S
C760 C761 1.339 . S
C760 H789 0.949 . S
C761 C760 1.339 . S
C761 C762 1.439 . S
C761 H790 0.950 . S
C762 N758 1.383 . S
C762 C761 1.439 . S
C762 C780 1.392 . S
N763 Co747 2.282 1_556 S
N763 C766 1.332 . S
N763 C768 1.332 . S
C764 C765 1.386 . S
C764 C767 1.388 . S
C765 C764 1.386 . S
C765 C766 1.382 . S
C765 H791 0.950 . S
C766 N763 1.332 . S
C766 C765 1.382 . S
C766 H777 0.952 . S
C767 C764 1.388 . S
C767 C768 1.382 . S
C767 H792 0.950 . S
C768 N763 1.332 . S
C768 C767 1.382 . S
C768 H778 0.948 . S
N769 Co747 2.282 . S
N769 C773 1.332 . S
N769 C774 1.332 . S
C770 C771 1.388 . S
C770 C774 1.382 . S
C770 H793 0.950 . S
C771 C770 1.388 . S
C771 C772 1.386 . S
C772 C771 1.386 . S
C772 C773 1.382 . S
C772 H794 0.950 . S
C773 N769 1.332 . S
C773 C772 1.382 . S
C773 H775 0.952 . S
C774 N769 1.332 . S
C774 C770 1.382 . S
C774 H776 0.948 . S
H775 C773 0.952 . S
H776 C774 0.948 . S
H777 C766 0.952 . S
H778 C768 0.948 . S
C779 C745 1.395 1_556 S
C779 C749 1.391 . S
C780 C742 1.389 . S
C780 C762 1.392 . S
C781 C752 1.392 . S
C781 C754 1.389 . S
C782 C757 1.395 1_554 S
C782 C759 1.391 . S
H783 C743 0.951 . S
H784 C744 0.950 . S
H785 C750 0.949 . S
H786 C751 0.950 . S
H787 C755 0.951 . S
H788 C756 0.950 . S
H789 C760 0.949 . S
H790 C761 0.950 . S
H791 C765 0.950 . S
H792 C767 0.950 . S
H793 C770 0.950 . S
H794 C772 0.950 . S
C795 C796 1.443 . S
C795 N799 1.376 . S
C795 C833 1.389 . S
C796 C795 1.443 . S
C796 C797 1.340 . S
C796 H836 0.951 . S
C797 C796 1.340 . S
C797 C798 1.439 . S
C797 H837 0.950 . S
C798 C797 1.439 . S
C798 N799 1.374 . S
C798 C832 1.395 . S
N799 C795 1.376 . S
N799 C798 1.374 . S
N799 Co800 2.008 1_655 S
Co800 N799 2.008 1_455 S
Co800 N801 1.995 . S
Co800 N806 2.008 . S
Co800 N811 1.995 1_455 S
Co800 N816 2.282 1_455 S
Co800 N822 2.282 . S
N801 Co800 1.995 . S
N801 C802 1.376 1_455 S
N801 C805 1.383 . S
C802 N801 1.376 1_655 S
C802 C803 1.446 . S
C802 C832 1.391 . S
C803 C802 1.446 . S
C803 C804 1.339 1_655 S
C803 H838 0.949 . S
C804 C803 1.339 1_455 S
C804 C805 1.439 . S
C804 H839 0.950 . S
C805 N801 1.383 . S
C805 C804 1.439 . S
C805 C834 1.392 . S
N806 Co800 2.008 . S
N806 C807 1.376 . S
N806 C810 1.374 . S
C807 N806 1.376 . S
C807 C808 1.443 . S
C807 C834 1.389 . S
C808 C807 1.443 . S
C808 C809 1.340 . S
C808 H840 0.951 . S
C809 C808 1.340 . S
C809 C810 1.439 . S
C809 H841 0.950 . S
C810 N806 1.374 . S
C810 C809 1.439 . S
C810 C835 1.395 . S
N811 Co800 1.995 1_655 S
N811 C812 1.376 1_655 S
N811 C815 1.383 . S
C812 N811 1.376 1_455 S
C812 C813 1.446 . S
C812 C835 1.391 . S
C813 C812 1.446 . S
C813 C814 1.339 1_455 S
C813 H842 0.949 . S
C814 C813 1.339 1_655 S
C814 C815 1.439 . S
C814 H843 0.950 . S
C815 N811 1.383 . S
C815 C814 1.439 . S
C815 C833 1.392 . S
N816 Co800 2.282 1_655 S
N816 C819 1.332 1_655 S
N816 C821 1.332 . S
C817 C818 1.386 1_655 S
C817 C820 1.388 . S
C818 C817 1.386 1_455 S
C818 C819 1.382 . S
C818 H844 0.950 . S
C819 N816 1.332 1_455 S
C819 C818 1.382 . S
C819 H830 0.952 . S
C820 C817 1.388 . S
C820 C821 1.382 . S
C820 H845 0.950 . S
C821 N816 1.332 . S
C821 C820 1.382 . S
C821 H831 0.948 . S
N822 Co800 2.282 . S
N822 C826 1.332 1_455 S
N822 C827 1.332 . S
C823 C824 1.388 . S
C823 C827 1.382 . S
C823 H846 0.950 . S
C824 C823 1.388 . S
C824 C825 1.386 1_455 S
C825 C824 1.386 1_655 S
C825 C826 1.382 . S
C825 H847 0.950 . S
C826 N822 1.332 1_655 S
C826 C825 1.382 . S
C826 H828 0.952 . S
C827 N822 1.332 . S
C827 C823 1.382 . S
C827 H829 0.948 . S
H828 C826 0.952 . S
H829 C827 0.948 . S
H830 C819 0.952 . S
H831 C821 0.948 . S
C832 C798 1.395 . S
C832 C802 1.391 . S
C833 C795 1.389 . S
C833 C815 1.392 . S
C834 C805 1.392 . S
C834 C807 1.389 . S
C835 C810 1.395 . S
C835 C812 1.391 . S
H836 C796 0.951 . S
H837 C797 0.950 . S
H838 C803 0.949 . S
H839 C804 0.950 . S
H840 C808 0.951 . S
H841 C809 0.950 . S
H842 C813 0.949 . S
H843 C814 0.950 . S
H844 C818 0.950 . S
H845 C820 0.950 . S
H846 C823 0.950 . S
H847 C825 0.950 . S
H848 C854 0.930 . S
H849 C857 0.930 . S
H850 C858 0.930 . S
H851 C859 0.930 . S
H852 C862 0.930 . S
H853 C863 0.930 . S
C854 H848 0.930 . S
C854 C855 1.355 1_545 S
C854 C856 1.415 . S
C855 C854 1.355 1_565 S
C855 C857 1.419 1_655 S
C856 C854 1.415 . S
C856 C861 1.420 1_645 S
C856 C863 1.409 . S
C857 H849 0.930 . S
C857 C855 1.419 1_455 S
C857 C858 1.362 . S
C858 H850 0.930 . S
C858 C857 1.362 . S
C858 C861 1.413 . S
C859 H851 0.930 . S
C859 C860 1.355 1_465 S
C859 C861 1.416 . S
C860 C859 1.355 1_645 S
C860 C862 1.419 . S
C861 C856 1.420 1_465 S
C861 C858 1.413 . S
C861 C859 1.416 . S
C862 H852 0.930 . S
C862 C860 1.419 . S
C862 C863 1.362 . S
C863 H853 0.930 . S
C863 C856 1.409 . S
C863 C862 1.362 . S
H864 C870 0.930 . S
H865 C873 0.930 . S
H866 C874 0.930 . S
H867 C875 0.930 . S
H868 C878 0.930 . S
H869 C879 0.930 . S
C870 H864 0.930 . S
C870 C871 1.355 . S
C870 C872 1.415 . S
C871 C870 1.355 . S
C871 C873 1.419 . S
C872 C870 1.415 . S
C872 C877 1.425 . S
C872 C879 1.409 . S
C873 H865 0.930 . S
C873 C871 1.419 . S
C873 C874 1.362 . S
C874 H866 0.930 . S
C874 C873 1.362 . S
C874 C877 1.409 . S
C875 H867 0.930 . S
C875 C876 1.355 . S
C875 C877 1.415 . S
C876 C875 1.355 . S
C876 C878 1.419 . S
C877 C872 1.425 . S
C877 C874 1.409 . S
C877 C875 1.415 . S
C878 H868 0.930 . S
C878 C876 1.419 . S
C878 C879 1.362 . S
C879 H869 0.930 . S
C879 C872 1.409 . S
C879 C878 1.362 . S
H880 C886 0.930 1_545 S
H881 C889 0.930 . S
H882 C890 0.930 . S
H883 C891 0.930 . S
H884 C894 0.930 . S
H885 C895 0.930 . S
C886 H880 0.930 1_565 S
C886 C887 1.355 . S
C886 C888 1.415 1_565 S
C887 C886 1.355 . S
C887 C889 1.419 . S
C888 C886 1.415 1_545 S
C888 C893 1.425 1_545 S
C888 C895 1.409 . S
C889 H881 0.930 . S
C889 C887 1.419 . S
C889 C890 1.362 . S
C890 H882 0.930 . S
C890 C889 1.362 . S
C890 C893 1.409 . S
C891 H883 0.930 . S
C891 C892 1.355 1_565 S
C891 C893 1.415 . S
C892 C891 1.355 1_545 S
C892 C894 1.419 . S
C893 C888 1.425 1_565 S
C893 C890 1.409 . S
C893 C891 1.415 . S
C894 H884 0.930 . S
C894 C892 1.419 . S
C894 C895 1.362 . S
C895 H885 0.930 . S
C895 C888 1.409 . S
C895 C894 1.362 . S
H896 C902 0.930 . S
H897 C905 0.930 . S
H898 C906 0.930 . S
H899 C907 0.930 . S
H900 C910 0.930 . S
H901 C911 0.930 . S
C902 H896 0.930 . S
C902 C903 1.355 . S
C902 C904 1.415 1_556 S
C903 C902 1.355 . S
C903 C905 1.419 . S
C904 C902 1.415 1_554 S
C904 C909 1.425 . S
C904 C911 1.409 . S
C905 H897 0.930 . S
C905 C903 1.419 . S
C905 C906 1.362 1_556 S
C906 H898 0.930 . S
C906 C905 1.362 1_554 S
C906 C909 1.409 . S
C907 H899 0.930 . S
C907 C908 1.355 . S
C907 C909 1.415 . S
C908 C907 1.355 . S
C908 C910 1.419 . S
C909 C904 1.425 . S
C909 C906 1.409 . S
C909 C907 1.415 . S
C910 H900 0.930 . S
C910 C908 1.419 . S
C910 C911 1.362 . S
C911 H901 0.930 . S
C911 C904 1.409 . S
C911 C910 1.362 . S
H912 C918 0.930 . S
H913 C921 0.930 . S
H914 C922 0.930 . S
H915 C923 0.930 . S
H916 C926 0.930 . S
H917 C927 0.930 . S
C918 H912 0.930 . S
C918 C919 1.355 1_655 S
C918 C920 1.408 1_655 S
C919 C918 1.355 1_455 S
C919 C921 1.419 1_565 S
C920 C918 1.408 1_455 S
C920 C925 1.446 1_565 S
C920 C927 1.397 1_455 S
C921 H913 0.930 . S
C921 C919 1.419 1_545 S
C921 C922 1.362 . S
C922 H914 0.930 . S
C922 C921 1.362 . S
C922 C925 1.409 . S
C923 H915 0.930 . S
C923 C924 1.355 . S
C923 C925 1.415 . S
C924 C923 1.355 . S
C924 C926 1.419 1_445 S
C925 C920 1.446 1_545 S
C925 C922 1.409 . S
C925 C923 1.415 . S
C926 H916 0.930 . S
C926 C924 1.419 1_665 S
C926 C927 1.362 . S
C927 H917 0.930 . S
C927 C920 1.397 1_655 S
C927 C926 1.362 . S
H928 C934 0.930 . S
H929 C937 0.930 . S
H930 C938 0.930 . S
H931 C939 0.930 . S
H932 C942 0.930 . S
H933 C943 0.930 . S
C934 H928 0.930 . S
C934 C935 1.355 . S
C934 C936 1.415 . S
C935 C934 1.355 . S
C935 C937 1.419 . S
C936 C934 1.415 . S
C936 C941 1.425 . S
C936 C943 1.409 . S
C937 H929 0.930 . S
C937 C935 1.419 . S
C937 C938 1.362 . S
C938 H930 0.930 . S
C938 C937 1.362 . S
C938 C941 1.409 . S
C939 H931 0.930 . S
C939 C940 1.355 . S
C939 C941 1.415 . S
C940 C939 1.355 . S
C940 C942 1.419 . S
C941 C936 1.425 . S
C941 C938 1.409 . S
C941 C939 1.415 . S
C942 H932 0.930 . S
C942 C940 1.419 . S
C942 C943 1.362 . S
C943 H933 0.930 . S
C943 C936 1.409 . S
C943 C942 1.362 . S
H944 C950 0.930 . S
H945 C953 0.930 . S
H946 C954 0.930 . S
H947 C955 0.930 . S
H948 C958 0.930 . S
H949 C959 0.930 . S
C950 H944 0.930 . S
C950 C951 1.355 . S
C950 C952 1.415 . S
C951 C950 1.355 . S
C951 C953 1.419 1_545 S
C952 C950 1.415 . S
C952 C957 1.425 1_545 S
C952 C959 1.409 . S
C953 H945 0.930 . S
C953 C951 1.419 1_565 S
C953 C954 1.362 . S
C954 H946 0.930 . S
C954 C953 1.362 . S
C954 C957 1.409 . S
C955 H947 0.930 . S
C955 C956 1.355 . S
C955 C957 1.415 . S
C956 C955 1.355 . S
C956 C958 1.419 1_565 S
C957 C952 1.425 1_565 S
C957 C954 1.409 . S
C957 C955 1.415 . S
C958 H948 0.930 . S
C958 C956 1.419 1_545 S
C958 C959 1.362 . S
C959 H949 0.930 . S
C959 C952 1.409 . S
C959 C958 1.362 . S
H960 C966 0.930 . S
H961 C969 0.930 . S
H962 C970 0.926 1_556 S
H963 C971 0.930 . S
H964 C974 0.930 . S
H965 C975 0.930 . S
C966 H960 0.930 . S
C966 C967 1.355 . S
C966 C968 1.415 1_554 S
C967 C966 1.355 . S
C967 C969 1.419 . S
C968 C966 1.415 1_556 S
C968 C973 1.425 . S
C968 C975 1.409 . S
C969 H961 0.930 . S
C969 C967 1.419 . S
C969 C970 1.373 . S
C970 H962 0.926 1_554 S
C970 C969 1.373 . S
C970 C973 1.402 1_554 S
C971 H963 0.930 . S
C971 C972 1.355 . S
C971 C973 1.415 . S
C972 C971 1.355 . S
C972 C974 1.419 . S
C973 C968 1.425 . S
C973 C970 1.402 1_556 S
C973 C971 1.415 . S
C974 H964 0.930 . S
C974 C972 1.419 . S
C974 C975 1.362 . S
C975 H965 0.930 . S
C975 C968 1.409 . S
C975 C974 1.362 . S
H976 C982 0.930 . S
H977 C985 0.930 . S
H978 C986 0.930 . S
H979 C987 0.930 . S
H980 C990 0.930 . S
H981 C991 0.930 . S
C982 H976 0.930 . S
C982 C983 1.355 . S
C982 C984 1.415 . S
C983 C982 1.355 . S
C983 C985 1.419 . S
C984 C982 1.415 . S
C984 C989 1.425 . S
C984 C991 1.409 . S
C985 H977 0.930 . S
C985 C983 1.419 . S
C985 C986 1.362 . S
C986 H978 0.930 . S
C986 C985 1.362 . S
C986 C989 1.409 . S
C987 H979 0.930 . S
C987 C988 1.355 . S
C987 C989 1.415 . S
C988 C987 1.355 . S
C988 C990 1.419 . S
C989 C984 1.425 . S
C989 C986 1.409 . S
C989 C987 1.415 . S
C990 H980 0.930 . S
C990 C988 1.419 . S
C990 C991 1.362 . S
C991 H981 0.930 . S
C991 C984 1.409 . S
C991 C990 1.362 . S
H992 C998 0.930 . S
H993 C1001 0.930 . S
H994 C1002 0.929 1_554 S
H995 C1003 0.930 . S
H996 C1006 0.930 . S
H997 C1007 0.930 . S
C998 H992 0.930 . S
C998 C999 1.355 . S
C998 C1000 1.415 . S
C999 C998 1.355 . S
C999 C1001 1.419 . S
C1000 C998 1.415 . S
C1000 C1005 1.425 1_556 S
C1000 C1007 1.409 1_556 S
C1001 H993 0.930 . S
C1001 C999 1.419 . S
C1001 C1002 1.362 . S
C1002 H994 0.929 1_556 S
C1002 C1001 1.362 . S
C1002 C1005 1.409 1_556 S
C1003 H995 0.930 . S
C1003 C1004 1.355 . S
C1003 C1005 1.415 . S
C1004 C1003 1.355 . S
C1004 C1006 1.419 . S
C1005 C1000 1.425 1_554 S
C1005 C1002 1.409 1_554 S
C1005 C1003 1.415 . S
C1006 H996 0.930 . S
C1006 C1004 1.419 . S
C1006 C1007 1.362 . S
C1007 H997 0.930 . S
C1007 C1000 1.409 1_554 S
C1007 C1006 1.362 . S
H1008 C1014 0.930 . S
H1009 C1017 0.930 . S
H1010 C1018 0.930 . S
H1011 C1019 0.930 . S
H1012 C1022 0.930 . S
H1013 C1023 0.930 . S
C1014 H1008 0.930 . S
C1014 C1015 1.355 1_655 S
C1014 C1016 1.415 . S
C1015 C1014 1.355 1_455 S
C1015 C1017 1.419 . S
C1016 C1014 1.415 . S
C1016 C1021 1.425 1_655 S
C1016 C1023 1.409 . S
C1017 H1009 0.930 . S
C1017 C1015 1.419 . S
C1017 C1018 1.362 . S
C1018 H1010 0.930 . S
C1018 C1017 1.362 . S
C1018 C1021 1.409 . S
C1019 H1011 0.930 . S
C1019 C1020 1.355 . S
C1019 C1021 1.415 . S
C1020 C1019 1.355 . S
C1020 C1022 1.419 1_455 S
C1021 C1016 1.425 1_455 S
C1021 C1018 1.409 . S
C1021 C1019 1.415 . S
C1022 H1012 0.930 . S
C1022 C1020 1.419 1_655 S
C1022 C1023 1.362 . S
C1023 H1013 0.930 . S
C1023 C1016 1.409 . S
C1023 C1022 1.362 . S
H1024 C1030 0.930 . S
H1025 C1033 0.930 . S
H1026 C1034 0.930 . S
H1027 C1035 0.930 . S
H1028 C1038 0.930 . S
H1029 C1039 0.930 . S
C1030 H1024 0.930 . S
C1030 C1031 1.355 . S
C1030 C1032 1.415 . S
C1031 C1030 1.355 . S
C1031 C1033 1.419 . S
C1032 C1030 1.415 . S
C1032 C1037 1.425 . S
C1032 C1039 1.409 . S
C1033 H1025 0.930 . S
C1033 C1031 1.419 . S
C1033 C1034 1.362 . S
C1034 H1026 0.930 . S
C1034 C1033 1.362 . S
C1034 C1037 1.409 . S
C1035 H1027 0.930 . S
C1035 C1036 1.355 . S
C1035 C1037 1.415 . S
C1036 C1035 1.355 . S
C1036 C1038 1.419 . S
C1037 C1032 1.425 . S
C1037 C1034 1.409 . S
C1037 C1035 1.415 . S
C1038 H1028 0.930 . S
C1038 C1036 1.419 . S
C1038 C1039 1.362 . S
C1039 H1029 0.930 . S
C1039 C1032 1.409 . S
C1039 C1038 1.362 . S
H1040 C1046 0.930 . S
H1041 C1049 0.930 . S
H1042 C1050 0.930 . S
H1043 C1051 0.930 . S
H1044 C1054 0.930 . S
H1045 C1055 0.930 . S
C1046 H1040 0.930 . S
C1046 C1047 1.355 . S
C1046 C1048 1.415 . S
C1047 C1046 1.355 . S
C1047 C1049 1.419 . S
C1048 C1046 1.415 . S
C1048 C1053 1.425 . S
C1048 C1055 1.409 . S
C1049 H1041 0.930 . S
C1049 C1047 1.419 . S
C1049 C1050 1.362 . S
C1050 H1042 0.930 . S
C1050 C1049 1.362 . S
C1050 C1053 1.409 . S
C1051 H1043 0.930 . S
C1051 C1052 1.355 . S
C1051 C1053 1.415 . S
C1052 C1051 1.355 . S
C1052 C1054 1.419 . S
C1053 C1048 1.425 . S
C1053 C1050 1.409 . S
C1053 C1051 1.415 . S
C1054 H1044 0.930 . S
C1054 C1052 1.419 . S
C1054 C1055 1.362 . S
C1055 H1045 0.930 . S
C1055 C1048 1.409 . S
C1055 C1054 1.362 . S
H1056 C1062 0.930 . S
H1057 C1065 0.930 . S
H1058 C1066 0.932 1_556 S
H1059 C1067 0.930 . S
H1060 C1070 0.930 . S
H1061 C1071 0.930 . S
C1062 H1056 0.930 . S
C1062 C1063 1.355 . S
C1062 C1064 1.415 . S
C1063 C1062 1.355 . S
C1063 C1065 1.419 . S
C1064 C1062 1.415 . S
C1064 C1069 1.425 1_554 S
C1064 C1071 1.409 1_554 S
C1065 H1057 0.930 . S
C1065 C1063 1.419 . S
C1065 C1066 1.362 . S
C1066 H1058 0.932 1_554 S
C1066 C1065 1.362 . S
C1066 C1069 1.409 1_554 S
C1067 H1059 0.930 . S
C1067 C1068 1.355 . S
C1067 C1069 1.415 . S
C1068 C1067 1.355 . S
C1068 C1070 1.419 . S
C1069 C1064 1.425 1_556 S
C1069 C1066 1.409 1_556 S
C1069 C1067 1.415 . S
C1070 H1060 0.930 . S
C1070 C1068 1.419 . S
C1070 C1071 1.362 . S
C1071 H1061 0.930 . S
C1071 C1064 1.409 1_556 S
C1071 C1070 1.362 . S
H1072 C1078 0.930 . S
H1073 C1081 0.930 . S
H1074 C1082 0.930 . S
H1075 C1083 0.930 . S
H1076 C1086 0.930 . S
H1077 C1087 0.930 . S
C1078 H1072 0.930 . S
C1078 C1079 1.355 . S
C1078 C1080 1.415 . S
C1079 C1078 1.355 . S
C1079 C1081 1.419 1_655 S
C1080 C1078 1.415 . S
C1080 C1085 1.425 1_655 S
C1080 C1087 1.409 . S
C1081 H1073 0.930 . S
C1081 C1079 1.419 1_455 S
C1081 C1082 1.362 . S
C1082 H1074 0.930 . S
C1082 C1081 1.362 . S
C1082 C1085 1.409 . S
C1083 H1075 0.930 . S
C1083 C1084 1.355 1_455 S
C1083 C1085 1.415 . S
C1084 C1083 1.355 1_655 S
C1084 C1086 1.419 . S
C1085 C1080 1.425 1_455 S
C1085 C1082 1.409 . S
C1085 C1083 1.415 . S
C1086 H1076 0.930 . S
C1086 C1084 1.419 . S
C1086 C1087 1.362 . S
C1087 H1077 0.930 . S
C1087 C1080 1.409 . S
C1087 C1086 1.362 . S
H1088 C1094 0.930 . S
H1089 C1097 0.930 . S
H1090 C1098 0.930 . S
H1091 C1099 0.930 . S
H1092 C1102 0.930 . S
H1093 C1103 0.930 . S
C1094 H1088 0.930 . S
C1094 C1095 1.355 . S
C1094 C1096 1.415 . S
C1095 C1094 1.355 . S
C1095 C1097 1.419 . S
C1096 C1094 1.415 . S
C1096 C1101 1.425 . S
C1096 C1103 1.409 . S
C1097 H1089 0.930 . S
C1097 C1095 1.419 . S
C1097 C1098 1.362 . S
C1098 H1090 0.930 . S
C1098 C1097 1.362 . S
C1098 C1101 1.409 . S
C1099 H1091 0.930 . S
C1099 C1100 1.355 . S
C1099 C1101 1.415 . S
C1100 C1099 1.355 . S
C1100 C1102 1.419 . S
C1101 C1096 1.425 . S
C1101 C1098 1.409 . S
C1101 C1099 1.415 . S
C1102 H1092 0.930 . S
C1102 C1100 1.419 . S
C1102 C1103 1.362 . S
C1103 H1093 0.930 . S
C1103 C1096 1.409 . S
C1103 C1102 1.362 . S
H1104 C1110 0.930 . S
H1105 C1113 0.930 . S
H1106 C1114 0.930 . S
H1107 C1115 0.930 . S
H1108 C1118 0.930 . S
H1109 C1119 0.930 . S
C1110 H1104 0.930 . S
C1110 C1111 1.355 . S
C1110 C1112 1.415 . S
C1111 C1110 1.355 . S
C1111 C1113 1.419 . S
C1112 C1110 1.415 . S
C1112 C1117 1.425 . S
C1112 C1119 1.409 . S
C1113 H1105 0.930 . S
C1113 C1111 1.419 . S
C1113 C1114 1.362 . S
C1114 H1106 0.930 . S
C1114 C1113 1.362 . S
C1114 C1117 1.409 . S
C1115 H1107 0.930 . S
C1115 C1116 1.355 . S
C1115 C1117 1.415 . S
C1116 C1115 1.355 . S
C1116 C1118 1.419 . S
C1117 C1112 1.425 . S
C1117 C1114 1.409 . S
C1117 C1115 1.415 . S
C1118 H1108 0.930 . S
C1118 C1116 1.419 . S
C1118 C1119 1.362 . S
C1119 H1109 0.930 . S
C1119 C1112 1.409 . S
C1119 C1118 1.362 . S
H1120 C1126 0.930 . S
H1121 C1129 0.930 . S
H1122 C1130 0.930 . S
H1123 C1131 0.930 . S
H1124 C1134 0.930 . S
H1125 C1135 0.930 . S
C1126 H1120 0.930 . S
C1126 C1127 1.355 . S
C1126 C1128 1.415 . S
C1127 C1126 1.355 . S
C1127 C1129 1.419 . S
C1128 C1126 1.415 . S
C1128 C1133 1.425 . S
C1128 C1135 1.409 . S
C1129 H1121 0.930 . S
C1129 C1127 1.419 . S
C1129 C1130 1.362 . S
C1130 H1122 0.930 . S
C1130 C1129 1.362 . S
C1130 C1133 1.409 . S
C1131 H1123 0.930 . S
C1131 C1132 1.355 . S
C1131 C1133 1.415 . S
C1132 C1131 1.355 . S
C1132 C1134 1.419 . S
C1133 C1128 1.425 . S
C1133 C1130 1.409 . S
C1133 C1131 1.415 . S
C1134 H1124 0.930 . S
C1134 C1132 1.419 . S
C1134 C1135 1.362 . S
C1135 H1125 0.930 . S
C1135 C1128 1.409 . S
C1135 C1134 1.362 . S
H1136 C1142 0.930 . S
H1137 C1145 0.930 . S
H1138 C1146 0.930 . S
H1139 C1147 0.930 . S
H1140 C1150 0.930 . S
H1141 C1151 0.930 . S
C1142 H1136 0.930 . S
C1142 C1143 1.355 . S
C1142 C1144 1.415 . S
C1143 C1142 1.355 . S
C1143 C1145 1.419 . S
C1144 C1142 1.415 . S
C1144 C1149 1.425 . S
C1144 C1151 1.409 . S
C1145 H1137 0.930 . S
C1145 C1143 1.419 . S
C1145 C1146 1.362 . S
C1146 H1138 0.930 . S
C1146 C1145 1.362 . S
C1146 C1149 1.409 . S
C1147 H1139 0.930 . S
C1147 C1148 1.355 . S
C1147 C1149 1.415 . S
C1148 C1147 1.355 . S
C1148 C1150 1.419 . S
C1149 C1144 1.425 . S
C1149 C1146 1.409 . S
C1149 C1147 1.415 . S
C1150 H1140 0.930 . S
C1150 C1148 1.419 . S
C1150 C1151 1.362 . S
C1151 H1141 0.930 . S
C1151 C1144 1.409 . S
C1151 C1150 1.362 . S
H1152 C1158 0.930 . S
H1153 C1161 0.930 . S
H1154 C1162 0.930 . S
H1155 C1163 0.930 . S
H1156 C1166 0.930 . S
H1157 C1167 0.930 . S
C1158 H1152 0.930 . S
C1158 C1159 1.355 . S
C1158 C1160 1.415 . S
C1159 C1158 1.355 . S
C1159 C1161 1.419 . S
C1160 C1158 1.415 . S
C1160 C1165 1.425 . S
C1160 C1167 1.409 . S
C1161 H1153 0.930 . S
C1161 C1159 1.419 . S
C1161 C1162 1.362 . S
C1162 H1154 0.930 . S
C1162 C1161 1.362 . S
C1162 C1165 1.409 . S
C1163 H1155 0.930 . S
C1163 C1164 1.355 . S
C1163 C1165 1.415 . S
C1164 C1163 1.355 . S
C1164 C1166 1.419 . S
C1165 C1160 1.425 . S
C1165 C1162 1.409 . S
C1165 C1163 1.415 . S
C1166 H1156 0.930 . S
C1166 C1164 1.419 . S
C1166 C1167 1.362 . S
C1167 H1157 0.930 . S
C1167 C1160 1.409 . S
C1167 C1166 1.362 . S
H1168 C1174 0.930 . S
H1169 C1177 0.930 . S
H1170 C1178 0.930 . S
H1171 C1179 0.930 . S
H1172 C1182 0.930 . S
H1173 C1183 0.930 . S
C1174 H1168 0.930 . S
C1174 C1175 1.355 . S
C1174 C1176 1.415 . S
C1175 C1174 1.355 . S
C1175 C1177 1.419 . S
C1176 C1174 1.415 . S
C1176 C1181 1.425 . S
C1176 C1183 1.409 . S
C1177 H1169 0.930 . S
C1177 C1175 1.419 . S
C1177 C1178 1.362 . S
C1178 H1170 0.930 . S
C1178 C1177 1.362 . S
C1178 C1181 1.409 . S
C1179 H1171 0.930 . S
C1179 C1180 1.355 . S
C1179 C1181 1.415 . S
C1180 C1179 1.355 . S
C1180 C1182 1.419 . S
C1181 C1176 1.425 . S
C1181 C1178 1.409 . S
C1181 C1179 1.415 . S
C1182 H1172 0.930 . S
C1182 C1180 1.419 . S
C1182 C1183 1.362 . S
C1183 H1173 0.930 . S
C1183 C1176 1.409 . S
C1183 C1182 1.362 . S
H1184 C1190 0.930 . S
H1185 C1193 0.930 . S
H1186 C1194 0.930 . S
H1187 C1195 0.930 . S
H1188 C1198 0.930 . S
H1189 C1199 0.930 . S
C1190 H1184 0.930 . S
C1190 C1191 1.355 . S
C1190 C1192 1.415 . S
C1191 C1190 1.355 . S
C1191 C1193 1.419 . S
C1192 C1190 1.415 . S
C1192 C1197 1.425 . S
C1192 C1199 1.409 . S
C1193 H1185 0.930 . S
C1193 C1191 1.419 . S
C1193 C1194 1.362 . S
C1194 H1186 0.930 . S
C1194 C1193 1.362 . S
C1194 C1197 1.409 . S
C1195 H1187 0.930 . S
C1195 C1196 1.355 . S
C1195 C1197 1.415 . S
C1196 C1195 1.355 . S
C1196 C1198 1.419 . S
C1197 C1192 1.425 . S
C1197 C1194 1.409 . S
C1197 C1195 1.415 . S
C1198 H1188 0.930 . S
C1198 C1196 1.419 . S
C1198 C1199 1.362 . S
C1199 H1189 0.930 . S
C1199 C1192 1.409 . S
C1199 C1198 1.362 . S
H1200 C1206 0.930 . S
H1201 C1209 0.930 . S
H1202 C1210 0.930 . S
H1203 C1211 0.930 . S
H1204 C1214 0.930 . S
H1205 C1215 0.930 . S
C1206 H1200 0.930 . S
C1206 C1207 1.355 . S
C1206 C1208 1.415 . S
C1207 C1206 1.355 . S
C1207 C1209 1.419 . S
C1208 C1206 1.415 . S
C1208 C1213 1.425 . S
C1208 C1215 1.409 . S
C1209 H1201 0.930 . S
C1209 C1207 1.419 . S
C1209 C1210 1.362 . S
C1210 H1202 0.930 . S
C1210 C1209 1.362 . S
C1210 C1213 1.409 . S
C1211 H1203 0.930 . S
C1211 C1212 1.355 . S
C1211 C1213 1.415 . S
C1212 C1211 1.355 . S
C1212 C1214 1.419 . S
C1213 C1208 1.425 . S
C1213 C1210 1.409 . S
C1213 C1211 1.415 . S
C1214 H1204 0.930 . S
C1214 C1212 1.419 . S
C1214 C1215 1.362 . S
C1215 H1205 0.930 . S
C1215 C1208 1.409 . S
C1215 C1214 1.362 . S
H1216 C1222 0.930 . S
H1217 C1225 0.930 . S
H1218 C1226 0.930 . S
H1219 C1227 0.930 . S
H1220 C1230 0.930 . S
H1221 C1231 0.930 . S
C1222 H1216 0.930 . S
C1222 C1223 1.355 . S
C1222 C1224 1.415 . S
C1223 C1222 1.355 . S
C1223 C1225 1.419 . S
C1224 C1222 1.415 . S
C1224 C1229 1.425 . S
C1224 C1231 1.409 . S
C1225 H1217 0.930 . S
C1225 C1223 1.419 . S
C1225 C1226 1.362 . S
C1226 H1218 0.930 . S
C1226 C1225 1.362 . S
C1226 C1229 1.409 . S
C1227 H1219 0.930 . S
C1227 C1228 1.355 . S
C1227 C1229 1.415 . S
C1228 C1227 1.355 . S
C1228 C1230 1.419 . S
C1229 C1224 1.425 . S
C1229 C1226 1.409 . S
C1229 C1227 1.415 . S
C1230 H1220 0.930 . S
C1230 C1228 1.419 . S
C1230 C1231 1.362 . S
C1231 H1221 0.930 . S
C1231 C1224 1.409 . S
C1231 C1230 1.362 . S
H1232 C1238 0.930 . S
H1233 C1241 0.930 . S
H1234 C1242 0.930 . S
H1235 C1243 0.930 . S
H1236 C1246 0.930 . S
H1237 C1247 0.930 . S
C1238 H1232 0.930 . S
C1238 C1239 1.355 . S
C1238 C1240 1.415 . S
C1239 C1238 1.355 . S
C1239 C1241 1.419 . S
C1240 C1238 1.415 . S
C1240 C1245 1.425 . S
C1240 C1247 1.409 . S
C1241 H1233 0.930 . S
C1241 C1239 1.419 . S
C1241 C1242 1.362 . S
C1242 H1234 0.930 . S
C1242 C1241 1.362 . S
C1242 C1245 1.409 . S
C1243 H1235 0.930 . S
C1243 C1244 1.355 . S
C1243 C1245 1.415 . S
C1244 C1243 1.355 . S
C1244 C1246 1.419 . S
C1245 C1240 1.425 . S
C1245 C1242 1.409 . S
C1245 C1243 1.415 . S
C1246 H1236 0.930 . S
C1246 C1244 1.419 . S
C1246 C1247 1.362 . S
C1247 H1237 0.930 . S
C1247 C1240 1.409 . S
C1247 C1246 1.362 . S
H1248 C1254 0.930 . S
H1249 C1257 0.930 . S
H1250 C1258 0.930 . S
H1251 C1259 0.930 . S
H1252 C1262 0.930 . S
H1253 C1263 0.930 . S
C1254 H1248 0.930 . S
C1254 C1255 1.355 . S
C1254 C1256 1.415 . S
C1255 C1254 1.355 . S
C1255 C1257 1.419 . S
C1256 C1254 1.415 . S
C1256 C1261 1.425 . S
C1256 C1263 1.409 . S
C1257 H1249 0.930 . S
C1257 C1255 1.419 . S
C1257 C1258 1.362 . S
C1258 H1250 0.930 . S
C1258 C1257 1.362 . S
C1258 C1261 1.409 . S
C1259 H1251 0.930 . S
C1259 C1260 1.355 . S
C1259 C1261 1.415 . S
C1260 C1259 1.355 . S
C1260 C1262 1.419 . S
C1261 C1256 1.425 . S
C1261 C1258 1.409 . S
C1261 C1259 1.415 . S
C1262 H1252 0.930 . S
C1262 C1260 1.419 . S
C1262 C1263 1.362 . S
C1263 H1253 0.930 . S
C1263 C1256 1.409 . S
C1263 C1262 1.362 . S
H1264 C1270 0.930 . S
H1265 C1273 0.930 . S
H1266 C1274 0.930 . S
H1267 C1275 0.930 . S
H1268 C1278 0.930 . S
H1269 C1279 0.930 . S
C1270 H1264 0.930 . S
C1270 C1271 1.355 . S
C1270 C1272 1.415 . S
C1271 C1270 1.355 . S
C1271 C1273 1.419 . S
C1272 C1270 1.415 . S
C1272 C1277 1.425 . S
C1272 C1279 1.409 . S
C1273 H1265 0.930 . S
C1273 C1271 1.419 . S
C1273 C1274 1.362 . S
C1274 H1266 0.930 . S
C1274 C1273 1.362 . S
C1274 C1277 1.409 . S
C1275 H1267 0.930 . S
C1275 C1276 1.355 . S
C1275 C1277 1.415 . S
C1276 C1275 1.355 . S
C1276 C1278 1.419 . S
C1277 C1272 1.425 . S
C1277 C1274 1.409 . S
C1277 C1275 1.415 . S
C1278 H1268 0.930 . S
C1278 C1276 1.419 . S
C1278 C1279 1.362 . S
C1279 H1269 0.930 . S
C1279 C1272 1.409 . S
C1279 C1278 1.362 . S
H1280 C1286 0.930 . S
H1281 C1289 0.930 . S
H1282 C1290 0.930 . S
H1283 C1291 0.930 . S
H1284 C1294 0.930 . S
H1285 C1295 0.930 . S
C1286 H1280 0.930 . S
C1286 C1287 1.355 . S
C1286 C1288 1.415 . S
C1287 C1286 1.355 . S
C1287 C1289 1.419 . S
C1288 C1286 1.415 . S
C1288 C1293 1.425 . S
C1288 C1295 1.409 . S
C1289 H1281 0.930 . S
C1289 C1287 1.419 . S
C1289 C1290 1.362 . S
C1290 H1282 0.930 . S
C1290 C1289 1.362 . S
C1290 C1293 1.409 . S
C1291 H1283 0.930 . S
C1291 C1292 1.355 . S
C1291 C1293 1.415 . S
C1292 C1291 1.355 . S
C1292 C1294 1.419 . S
C1293 C1288 1.425 . S
C1293 C1290 1.409 . S
C1293 C1291 1.415 . S
C1294 H1284 0.930 . S
C1294 C1292 1.419 . S
C1294 C1295 1.362 . S
C1295 H1285 0.930 . S
C1295 C1288 1.409 . S
C1295 C1294 1.362 . S
H1296 C1302 0.930 . S
H1297 C1305 0.930 . S
H1298 C1306 0.930 . S
H1299 C1307 0.930 . S
H1300 C1310 0.930 . S
H1301 C1311 0.930 . S
C1302 H1296 0.930 . S
C1302 C1303 1.355 . S
C1302 C1304 1.415 . S
C1303 C1302 1.355 . S
C1303 C1305 1.419 . S
C1304 C1302 1.415 . S
C1304 C1309 1.425 . S
C1304 C1311 1.409 . S
C1305 H1297 0.930 . S
C1305 C1303 1.419 . S
C1305 C1306 1.362 . S
C1306 H1298 0.930 . S
C1306 C1305 1.362 . S
C1306 C1309 1.409 . S
C1307 H1299 0.930 . S
C1307 C1308 1.355 . S
C1307 C1309 1.415 . S
C1308 C1307 1.355 . S
C1308 C1310 1.419 . S
C1309 C1304 1.425 . S
C1309 C1306 1.409 . S
C1309 C1307 1.415 . S
C1310 H1300 0.930 . S
C1310 C1308 1.419 . S
C1310 C1311 1.362 . S
C1311 H1301 0.930 . S
C1311 C1304 1.409 . S
C1311 C1310 1.362 . S
H1312 C1318 0.930 . S
H1313 C1321 0.930 . S
H1314 C1322 0.930 . S
H1315 C1323 0.930 . S
H1316 C1326 0.930 . S
H1317 C1327 0.930 . S
C1318 H1312 0.930 . S
C1318 C1319 1.355 . S
C1318 C1320 1.415 . S
C1319 C1318 1.355 . S
C1319 C1321 1.419 . S
C1320 C1318 1.415 . S
C1320 C1325 1.425 . S
C1320 C1327 1.409 . S
C1321 H1313 0.930 . S
C1321 C1319 1.419 . S
C1321 C1322 1.362 . S
C1322 H1314 0.930 . S
C1322 C1321 1.362 . S
C1322 C1325 1.409 . S
C1323 H1315 0.930 . S
C1323 C1324 1.355 . S
C1323 C1325 1.415 . S
C1324 C1323 1.355 . S
C1324 C1326 1.419 . S
C1325 C1320 1.425 . S
C1325 C1322 1.409 . S
C1325 C1323 1.415 . S
C1326 H1316 0.930 . S
C1326 C1324 1.419 . S
C1326 C1327 1.362 . S
C1327 H1317 0.930 . S
C1327 C1320 1.409 . S
C1327 C1326 1.362 . S
H1328 C1334 0.930 . S
H1329 C1337 0.930 . S
H1330 C1338 0.930 . S
H1331 C1339 0.930 . S
H1332 C1342 0.930 . S
H1333 C1343 0.930 . S
C1334 H1328 0.930 . S
C1334 C1335 1.355 . S
C1334 C1336 1.415 . S
C1335 C1334 1.355 . S
C1335 C1337 1.419 . S
C1336 C1334 1.415 . S
C1336 C1341 1.425 . S
C1336 C1343 1.409 . S
C1337 H1329 0.930 . S
C1337 C1335 1.419 . S
C1337 C1338 1.362 . S
C1338 H1330 0.930 . S
C1338 C1337 1.362 . S
C1338 C1341 1.409 . S
C1339 H1331 0.930 . S
C1339 C1340 1.355 . S
C1339 C1341 1.415 . S
C1340 C1339 1.355 . S
C1340 C1342 1.419 . S
C1341 C1336 1.425 . S
C1341 C1338 1.409 . S
C1341 C1339 1.415 . S
C1342 H1332 0.930 . S
C1342 C1340 1.419 . S
C1342 C1343 1.362 . S
C1343 H1333 0.930 . S
C1343 C1336 1.409 . S
C1343 C1342 1.362 . S
H1344 C1350 0.930 . S
H1345 C1353 0.930 . S
H1346 C1354 0.930 . S
H1347 C1355 0.930 . S
H1348 C1358 0.930 . S
H1349 C1359 0.930 . S
C1350 H1344 0.930 . S
C1350 C1351 1.355 . S
C1350 C1352 1.415 . S
C1351 C1350 1.355 . S
C1351 C1353 1.419 . S
C1352 C1350 1.415 . S
C1352 C1357 1.425 . S
C1352 C1359 1.409 . S
C1353 H1345 0.930 . S
C1353 C1351 1.419 . S
C1353 C1354 1.362 . S
C1354 H1346 0.930 . S
C1354 C1353 1.362 . S
C1354 C1357 1.409 . S
C1355 H1347 0.930 . S
C1355 C1356 1.355 . S
C1355 C1357 1.415 . S
C1356 C1355 1.355 . S
C1356 C1358 1.419 . S
C1357 C1352 1.425 . S
C1357 C1354 1.409 . S
C1357 C1355 1.415 . S
C1358 H1348 0.930 . S
C1358 C1356 1.419 . S
C1358 C1359 1.362 . S
C1359 H1349 0.930 . S
C1359 C1352 1.409 . S
C1359 C1358 1.362 . S
C855 C38 2.203 . S
C860 C251 2.207 . S
C871 C82 0.572 . S
C876 C294 0.578 . S
C887 C347 0.610 . S
C892 C135 0.599 . S
C903 C188 1.376 . S
C908 C410 1.386 . S
C919 C250 2.198 . S
C924 C39 2.194 . S
C935 C552 0.662 . S
C940 C446 0.677 . S
C951 C340 0.534 . S
C956 C128 0.539 . S
C967 C499 1.381 . S
C972 C621 1.374 . S
C983 C674 1.419 . S
C988 C764 1.410 . S
C999 C453 0.594 . S
C1004 C559 0.577 . S
C1015 C718 0.562 . S
C1020 C824 0.557 . S
C1031 C622 1.416 . S
C1036 C506 1.409 . S
C1047 C771 1.405 . S
C1052 C675 1.397 . S
C1063 C75 0.584 . S
C1068 C287 0.567 . S
C1079 C711 0.593 . S
C1084 C817 0.607 . S
C1095 C409 1.390 . S
C1100 C181 1.389 . S
C1111 C29 1.259 . S
C1116 C393 1.254 . S
C1127 C234 1.452 . S
C1132 C91 1.455 . S
C1143 C303 1.987 . S
C1148 C144 1.995 . S
C1159 C197 1.668 . S
C1164 C356 1.665 . S
C1175 C22 1.223 . S
C1180 C612 1.227 . S
C1191 C463 1.470 . S
C1196 C241 1.468 . S
C1207 C569 1.987 . S
C1212 C145 1.990 . S
C1223 C516 1.646 . S
C1228 C357 1.648 . S
C1239 C665 1.241 . S
C1244 C605 1.240 . S
C1255 C781 1.519 . S
C1260 C462 1.519 . S
C1271 C568 1.998 . S
C1276 C727 2.000 . S
C1287 C833 1.657 . S
C1292 C515 1.657 . S
C1303 C400 1.215 . S
C1308 C658 1.216 . S
C1319 C780 1.514 . S
C1324 C92 1.512 . S
C1335 C304 1.991 . S
C1340 C728 1.990 . S
C1351 C834 1.662 . S
C1356 C198 1.662 . S
