# Generated by pormake.
# Topology und, (4)-cn, num edge types: 1
# Building blocks:
#     Node 0, Type 0, BuildingBlock: QUQFOY_clean_sbu_1, # of connection points: 4
#     Node 1, Type 0, BuildingBlock: QUQFOY_clean_sbu_1, # of connection points: 4
#     Node 2, Type 0, BuildingBlock: QUQFOY_clean_sbu_1, # of connection points: 4
#     Node 3, Type 0, BuildingBlock: QUQFOY_clean_sbu_1, # of connection points: 4
#     Node 4, Type 0, BuildingBlock: QUQFOY_clean_sbu_1, # of connection points: 4
#     Node 5, Type 0, BuildingBlock: QUQFOY_clean_sbu_1, # of connection points: 4
#     Node 6, Type 0, BuildingBlock: QUQFOY_clean_sbu_1, # of connection points: 4
#     Node 7, Type 0, BuildingBlock: QUQFOY_clean_sbu_1, # of connection points: 4
#     Node 8, Type 0, BuildingBlock: QUQFOY_clean_sbu_1, # of connection points: 4
#     Node 9, Type 0, BuildingBlock: QUQFOY_clean_sbu_1, # of connection points: 4
#     Node 10, Type 0, BuildingBlock: QUQFOY_clean_sbu_1, # of connection points: 4
#     Node 11, Type 0, BuildingBlock: QUQFOY_clean_sbu_1, # of connection points: 4
#     Node 12, Type 0, BuildingBlock: QUQFOY_clean_sbu_1, # of connection points: 4
#     Node 13, Type 0, BuildingBlock: QUQFOY_clean_sbu_1, # of connection points: 4
#     Node 14, Type 0, BuildingBlock: QUQFOY_clean_sbu_1, # of connection points: 4
#     Node 15, Type 0, BuildingBlock: QUQFOY_clean_sbu_1, # of connection points: 4
#     Edge 16, Type (0, 0), BuildingBlock: CIFDUS_clean_linker_0, # of connection points: 2
#     Edge 17, Type (0, 0), BuildingBlock: CIFDUS_clean_linker_0, # of connection points: 2
#     Edge 18, Type (0, 0), BuildingBlock: CIFDUS_clean_linker_0, # of connection points: 2
#     Edge 19, Type (0, 0), BuildingBlock: CIFDUS_clean_linker_0, # of connection points: 2
#     Edge 20, Type (0, 0), BuildingBlock: CIFDUS_clean_linker_0, # of connection points: 2
#     Edge 21, Type (0, 0), BuildingBlock: CIFDUS_clean_linker_0, # of connection points: 2
#     Edge 22, Type (0, 0), BuildingBlock: CIFDUS_clean_linker_0, # of connection points: 2
#     Edge 23, Type (0, 0), BuildingBlock: CIFDUS_clean_linker_0, # of connection points: 2
#     Edge 24, Type (0, 0), BuildingBlock: CIFDUS_clean_linker_0, # of connection points: 2
#     Edge 25, Type (0, 0), BuildingBlock: CIFDUS_clean_linker_0, # of connection points: 2
#     Edge 26, Type (0, 0), BuildingBlock: CIFDUS_clean_linker_0, # of connection points: 2
#     Edge 27, Type (0, 0), BuildingBlock: CIFDUS_clean_linker_0, # of connection points: 2
#     Edge 28, Type (0, 0), BuildingBlock: CIFDUS_clean_linker_0, # of connection points: 2
#     Edge 29, Type (0, 0), BuildingBlock: CIFDUS_clean_linker_0, # of connection points: 2
#     Edge 30, Type (0, 0), BuildingBlock: CIFDUS_clean_linker_0, # of connection points: 2
#     Edge 31, Type (0, 0), BuildingBlock: CIFDUS_clean_linker_0, # of connection points: 2
#     Edge 32, Type (0, 0), BuildingBlock: CIFDUS_clean_linker_0, # of connection points: 2
#     Edge 33, Type (0, 0), BuildingBlock: CIFDUS_clean_linker_0, # of connection points: 2
#     Edge 34, Type (0, 0), BuildingBlock: CIFDUS_clean_linker_0, # of connection points: 2
#     Edge 35, Type (0, 0), BuildingBlock: CIFDUS_clean_linker_0, # of connection points: 2
#     Edge 36, Type (0, 0), BuildingBlock: CIFDUS_clean_linker_0, # of connection points: 2
#     Edge 37, Type (0, 0), BuildingBlock: CIFDUS_clean_linker_0, # of connection points: 2
#     Edge 38, Type (0, 0), BuildingBlock: CIFDUS_clean_linker_0, # of connection points: 2
#     Edge 39, Type (0, 0), BuildingBlock: CIFDUS_clean_linker_0, # of connection points: 2
#     Edge 40, Type (0, 0), BuildingBlock: CIFDUS_clean_linker_0, # of connection points: 2
#     Edge 41, Type (0, 0), BuildingBlock: CIFDUS_clean_linker_0, # of connection points: 2
#     Edge 42, Type (0, 0), BuildingBlock: CIFDUS_clean_linker_0, # of connection points: 2
#     Edge 43, Type (0, 0), BuildingBlock: CIFDUS_clean_linker_0, # of connection points: 2
#     Edge 44, Type (0, 0), BuildingBlock: CIFDUS_clean_linker_0, # of connection points: 2
#     Edge 45, Type (0, 0), BuildingBlock: CIFDUS_clean_linker_0, # of connection points: 2
#     Edge 46, Type (0, 0), BuildingBlock: CIFDUS_clean_linker_0, # of connection points: 2
#     Edge 47, Type (0, 0), BuildingBlock: CIFDUS_clean_linker_0, # of connection points: 2
# Relax obj value: 0.051
# Max RMSD: 0.108
# Mean RMSD: 0.090
data_MOF--net-und--node1-QUQFOY_clean_sbu_1--edge1-CIFDUS_clean_linker_0
_symmetry_space_group_name_H-M    P1
_symmetry_Int_Tables_number       1
_symmetry_cell_setting            triclinic
loop_
_symmetry_equiv_pos_as_xyz
'x, y, z'
_cell_length_a     53.937437
_cell_length_b     53.824419
_cell_length_c     20.139394
_cell_angle_alpha  90.538778
_cell_angle_beta   89.392573
_cell_angle_gamma 93.81169
loop_
_atom_site_label
_atom_site_type_symbol
_atom_site_fract_x
_atom_site_fract_y
_atom_site_fract_z
_atom_type_partial_charge
O0 O 0.27453 0.37098 0.91718 0.0
Cd1 Cd 0.27921 0.39393 -0.00224 0.0
Cd2 Cd 0.23992 0.41499 0.94802 0.0
O3 O 0.23801 0.38311 0.88777 0.0
O4 O 0.30041 0.3757 0.05808 0.0
O5 O 0.26127 0.38278 0.08149 0.0
C6 C 0.28134 0.37241 0.09691 0.0
C7 C 0.20578 0.42925 0.00655 0.0
C8 C 0.25558 0.36857 0.88038 0.0
C9 C 0.28931 0.44471 0.94417 0.0
O10 O 0.26693 0.44281 0.92467 0.0
O11 O 0.29788 0.42776 0.97906 0.0
O12 O 0.20782 0.43139 0.94293 0.0
O13 O 0.22251 0.41761 0.03676 0.0
O14 O 0.89356 0.06952 0.34812 0.0
Cd15 Cd 0.91795 0.09946 0.32509 0.0
Cd16 Cd 0.94046 0.06509 0.25943 0.0
O17 O 0.90634 0.0453 0.26754 0.0
O18 O 0.89932 0.13039 0.3277 0.0
O19 O 0.91509 0.11475 0.2356 0.0
C20 C 0.90236 0.13143 0.26402 0.0
C21 C 0.96346 0.06892 0.16104 0.0
C22 C 0.89093 0.0496 0.31382 0.0
C23 C 0.96504 0.08585 0.38206 0.0
O24 O 0.9625 0.06741 0.34236 0.0
O25 O 0.9503 0.1033 0.37922 0.0
O26 O 0.96104 0.0481 0.19244 0.0
O27 O 0.9514 0.08721 0.18336 0.0
O28 O 0.26976 0.76875 0.41742 0.0
Cd29 Cd 0.26601 0.74717 0.5002 0.0
Cd30 Cd 0.29833 0.72101 0.43599 0.0
O31 O 0.3026 0.75197 0.37501 0.0
O32 O 0.25055 0.76959 0.5652 0.0
O33 O 0.2882 0.75643 0.57745 0.0
C34 C 0.27101 0.77033 0.5979 0.0
C35 C 0.33067 0.70466 0.4937 0.0
C36 C 0.2869 0.76861 0.37388 0.0
C37 C 0.24644 0.69789 0.45066 0.0
O38 O 0.26729 0.69705 0.4209 0.0
O39 O 0.24255 0.71565 0.4907 0.0
O40 O 0.32812 0.7009 0.43062 0.0
O41 O 0.31544 0.71877 0.52329 0.0
O42 O 0.64351 0.06642 0.83976 0.0
Cd43 Cd 0.61711 0.03988 0.80603 0.0
Cd44 Cd 0.60468 0.07811 0.7392 0.0
O45 O 0.64067 0.09229 0.75636 0.0
O46 O 0.63115 1.00635 0.81376 0.0
O47 O 0.62372 0.02387 0.71777 0.0
C48 C 0.63239 1.0057 0.74964 0.0
C49 C 0.584 0.07384 0.63876 0.0
C50 C 0.65158 0.08578 0.80853 0.0
C51 C 0.57201 0.06246 0.85288 0.0
O52 O 0.58046 0.08059 0.81764 0.0
O53 O 0.58209 0.04172 0.84944 0.0
O54 O 0.58878 0.09554 0.66541 0.0
O55 O 0.59302 0.05491 0.66635 0.0
O56 O 0.79869 0.76419 0.93089 0.0
Cd57 Cd 0.80047 0.74 0.00883 0.0
Cd58 Cd 0.75197 0.73778 0.99273 0.0
O59 O 0.75967 0.75522 0.90312 0.0
O60 O 0.83434 0.72728 0.00054 0.0
O61 O 0.79974 0.70343 0.98582 0.0
C62 C 0.82375 0.70602 0.98312 0.0
C63 C 0.72151 0.70578 0.01187 0.0
C64 C 0.78065 0.76674 0.89208 0.0
C65 C 0.77258 0.76443 0.11428 0.0
O66 O 0.75486 0.76083 0.07369 0.0
O67 O 0.79338 0.75528 0.10229 0.0
O68 O 0.71589 0.72763 0.99402 0.0
O69 O 0.74475 0.70131 0.01267 0.0
O70 O 0.07006 0.04555 0.8409 0.0
Cd71 Cd 0.09392 0.04137 0.7618 0.0
Cd72 Cd 0.09403 0.09061 0.76818 0.0
O73 O 0.0779 0.08562 0.861 0.0
O74 O 0.10163 1.00587 0.76931 0.0
O75 O 0.12981 0.03706 0.78449 0.0
C76 C 0.12387 1.01341 0.7863 0.0
C77 C 0.12582 0.12026 0.74027 0.0
C78 C 0.06724 0.0647 0.87681 0.0
C79 C 0.06808 0.06503 0.65344 0.0
O80 O 0.07018 0.0841 0.69093 0.0
O81 O 0.07902 0.0456 0.66809 0.0
O82 O 0.10411 0.12655 0.75863 0.0
O83 O 0.13023 0.09698 0.74329 0.0
O84 O 0.75333 0.36536 0.40054 0.0
Cd85 Cd 0.74422 0.38995 0.47449 0.0
Cd86 Cd 0.79245 0.39426 0.48272 0.0
O87 O 0.7932 0.37666 0.391 0.0
O88 O 0.71073 0.40025 0.45046 0.0
O89 O 0.74427 0.42631 0.45234 0.0
C90 C 0.72091 0.42224 0.43959 0.0
C91 C 0.81772 0.42839 0.51818 0.0
C92 C 0.77409 0.36371 0.37091 0.0
C93 C 0.76365 0.36758 0.59255 0.0
O94 O 0.78402 0.37119 0.56097 0.0
O95 O 0.744 0.37618 0.57027 0.0
O96 O 0.82657 0.40708 0.5066 0.0
O97 O 0.79487 0.43111 0.50276 0.0
O98 O 0.47417 0.09349 0.32992 0.0
Cd99 Cd 0.44943 0.09454 0.25292 0.0
Cd100 Cd 0.44696 0.04646 0.27254 0.0
O101 O 0.46473 0.05481 0.36106 0.0
O102 O 0.43661 0.12852 0.258 0.0
O103 O 0.41314 0.09401 0.27772 0.0
C104 C 0.41553 0.11808 0.27724 0.0
C105 C 0.41379 1.01749 0.25398 0.0
C106 C 0.47667 0.07574 0.36997 0.0
C107 C 0.47274 0.06499 0.14859 0.0
O108 O 0.4698 0.04787 0.19132 0.0
O109 O 0.46355 0.08591 0.15912 0.0
O110 O 0.43504 1.01077 0.27331 0.0
O111 O 0.41055 0.04105 0.25218 0.0
O112 O 0.78979 0.87449 0.44131 0.0
Cd113 Cd 0.78551 0.89659 0.5238 0.0
Cd114 Cd 0.74996 0.91216 0.4532 0.0
O115 O 0.75195 0.87808 0.40443 0.0
O116 O 0.80166 0.87881 0.59626 0.0
O117 O 0.76116 0.883 0.59223 0.0
C118 C 0.77969 0.87352 0.62038 0.0
C119 C 0.71498 0.92656 0.50737 0.0
C120 C 0.77234 0.86741 0.40229 0.0
C121 C 0.79553 0.946 0.46767 0.0
O122 O 0.77759 0.93923 0.42972 0.0
O123 O 0.80007 0.93303 0.51803 0.0
O124 O 0.71709 0.92711 0.4434 0.0
O125 O 0.73213 0.91654 0.54011 0.0
O126 O 0.39437 0.56056 0.82248 0.0
Cd127 Cd 0.4187 0.59131 0.80545 0.0
Cd128 Cd 0.44428 0.55798 0.74203 0.0
O129 O 0.41291 0.53461 0.75586 0.0
O130 O 0.39935 0.62168 0.81064 0.0
O131 O 0.41685 0.60851 0.718 0.0
C132 C 0.40337 0.62428 0.74767 0.0
C133 C 0.46658 0.56198 0.64263 0.0
C134 C 0.3952 0.53917 0.7954 0.0
C135 C 0.46657 0.5801 0.86609 0.0
O136 O 0.46659 0.56281 0.82294 0.0
O137 O 0.44974 0.59559 0.86565 0.0
O138 O 0.46608 0.5418 0.67672 0.0
O139 O 0.45285 0.57938 0.66264 0.0
O140 O 0.76441 0.26291 0.9063 0.0
Cd141 Cd 0.76162 0.23886 0.98517 0.0
Cd142 Cd 0.80121 0.22299 0.92952 0.0
O143 O 0.8038 0.25744 0.88491 0.0
O144 O 0.73989 0.25488 0.05134 0.0
O145 O 0.78001 0.25086 0.0667 0.0
C146 C 0.75946 0.25952 0.08685 0.0
C147 C 0.83181 0.20782 0.99607 0.0
C148 C 0.78453 0.26937 0.87593 0.0
C149 C 0.75476 0.19065 0.91654 0.0
O150 O 0.77555 0.1971 0.88946 0.0
O151 O 0.74681 0.20308 0.96545 0.0
O152 O 0.83403 0.20781 0.93212 0.0
O153 O 0.81261 0.21742 0.02212 0.0
O154 O 0.14554 0.57162 0.33552 0.0
Cd155 Cd 0.11638 0.54605 0.31273 0.0
Cd156 Cd 0.09999 0.58515 0.25253 0.0
O157 O 0.13497 0.60129 0.2684 0.0
O158 O 0.12999 0.51245 0.31973 0.0
O159 O 0.11862 0.52832 0.22474 0.0
C160 C 0.12853 0.51064 0.25588 0.0
C161 C 0.07916 0.58431 0.15237 0.0
C162 C 0.15005 0.59281 0.3091 0.0
C163 C 0.07129 0.56763 0.37127 0.0
O164 O 0.07659 0.58564 0.33239 0.0
O165 O 0.08346 0.54812 0.3679 0.0
O166 O 0.08399 0.60494 0.18421 0.0
O167 O 0.08778 0.56429 0.17515 0.0
O168 O 0.28801 0.26671 0.40469 0.0
Cd169 Cd 0.29807 0.24352 0.47945 0.0
Cd170 Cd 0.24862 0.23838 0.48831 0.0
O171 O 0.24827 0.2548 0.3961 0.0
O172 O 0.33394 0.23938 0.45971 0.0
O173 O 0.30541 0.20808 0.4549 0.0
C174 C 0.32826 0.21627 0.44599 0.0
C175 C 0.22305 0.20435 0.52368 0.0
C176 C 0.26732 0.2678 0.37547 0.0
C177 C 0.27596 0.26726 0.59624 0.0
O178 O 0.25586 0.2629 0.56488 0.0
O179 O 0.29588 0.25836 0.57501 0.0
O180 O 0.21429 0.22552 0.51149 0.0
O181 O 0.24618 0.2017 0.50974 0.0
O182 O 0.57421 0.54189 0.32525 0.0
Cd183 Cd 0.59682 0.53709 0.24367 0.0
Cd184 Cd 0.59717 0.58593 0.25017 0.0
O185 O 0.58145 0.58218 0.34359 0.0
O186 O 0.60299 0.50112 0.24929 0.0
O187 O 0.63268 0.53101 0.2622 0.0
C188 C 0.62574 0.50758 0.26365 0.0
C189 C 0.63231 0.61013 0.21802 0.0
C190 C 0.57132 0.56117 0.36066 0.0
C191 C 0.57012 0.56123 0.13717 0.0
O192 O 0.57255 0.5803 0.17452 0.0
O193 O 0.58109 0.54175 0.15122 0.0
O194 O 0.61192 0.62008 0.23402 0.0
O195 O 0.63349 0.58644 0.22646 0.0
O196 O 0.2521 0.87858 0.91286 0.0
Cd197 Cd 0.24683 0.90082 0.9948 0.0
Cd198 Cd 0.29521 0.89993 0.99207 0.0
O199 O 0.29253 0.8852 0.89738 0.0
O200 O 0.21232 0.91073 0.98122 0.0
O201 O 0.24516 0.93761 0.97861 0.0
C202 C 0.22159 0.93303 0.97003 0.0
C203 C 0.31988 0.93391 0.02969 0.0
C204 C 0.27158 0.87559 0.8785 0.0
C205 C 0.26813 0.87215 0.10121 0.0
O206 O 0.28758 0.87465 0.06535 0.0
O207 O 0.24912 0.88378 0.08679 0.0
O208 O 0.32938 0.91329 0.01331 0.0
O209 O 0.29657 0.93605 0.01838 0.0
O210 O 0.97158 0.5824 0.84852 0.0
Cd211 Cd 0.94747 0.58916 0.77326 0.0
Cd212 Cd 0.94127 0.54023 0.7805 0.0
O213 O 0.95713 0.54435 0.87311 0.0
O214 O 0.94206 0.62531 0.78397 0.0
O215 O 0.91216 0.59581 0.79969 0.0
C216 C 0.91952 0.61915 0.80241 0.0
C217 C 0.90887 0.51137 0.7522 0.0
C218 C 0.97151 0.56346 0.88573 0.0
C219 C 0.97034 0.56186 0.66472 0.0
O220 O 0.96615 0.54359 0.70342 0.0
O221 O 0.96145 0.58268 0.67833 0.0
O222 O 0.92992 0.50453 0.77242 0.0
O223 O 0.90526 0.53486 0.75409 0.0
H224 H 0.24267 0.34542 0.15515 0.0
H225 H 0.32212 0.36066 0.16447 0.0
H226 H 0.32471 0.32923 0.25021 0.0
H227 H 0.3048 0.29678 0.31986 0.0
H228 H 0.22551 0.28011 0.30963 0.0
H229 H 0.22253 0.31245 0.22595 0.0
C230 C 0.26047 0.34208 0.17676 0.0
C231 C 0.28216 0.35547 0.15397 0.0
C232 C 0.26192 0.32346 0.2249 0.0
C233 C 0.30517 0.35065 0.1814 0.0
C234 C 0.30668 0.33261 0.23016 0.0
C235 C 0.28682 0.30008 0.29928 0.0
C236 C 0.26542 0.28594 0.32102 0.0
C237 C 0.28524 0.31871 0.25165 0.0
C238 C 0.24232 0.29057 0.29358 0.0
C239 C 0.24058 0.30918 0.24602 0.0
H240 H 0.99599 0.04942 0.4095 0.0
H241 H 0.9785 0.12368 0.46846 0.0
H242 H 1.00993 0.12407 0.55474 0.0
H243 H 0.04091 0.10291 0.61596 0.0
H244 H 0.05783 0.02816 0.5604 0.0
H245 H 0.02809 0.02852 0.46947 0.0
C246 C 0.99911 0.06576 0.44096 0.0
C247 C 0.9848 0.08647 0.43262 0.0
C248 C 1.01705 0.06577 0.49096 0.0
C249 C 0.98913 0.10746 0.47391 0.0
C250 C 1.00712 0.10771 0.52325 0.0
C251 C 0.03829 0.08668 0.58384 0.0
C252 C 0.05157 0.06548 0.59522 0.0
C253 C 1.02097 0.08689 0.53258 0.0
C254 C 0.04786 0.0447 0.55287 0.0
C255 C 0.03081 0.04488 0.50099 0.0
H256 H 0.23947 0.80371 0.64333 0.0
H257 H 0.31224 0.77759 0.67617 0.0
H258 H 0.31989 0.80943 0.76253 0.0
H259 H 0.30545 0.84452 0.82983 0.0
H260 H 0.23219 0.86934 0.7969 0.0
H261 H 0.2254 0.83851 0.70839 0.0
C262 C 0.25698 0.80483 0.66955 0.0
C263 C 0.27519 0.78819 0.65357 0.0
C264 C 0.2613 0.82322 0.71848 0.0
C265 C 0.29783 0.79007 0.68784 0.0
C266 C 0.30227 0.80837 0.73693 0.0
C267 C 0.28822 0.8434 0.80235 0.0
C268 C 0.26941 0.85925 0.81942 0.0
C269 C 0.28416 0.82512 0.75252 0.0
C270 C 0.24695 0.85735 0.78445 0.0
C271 C 0.243 0.83966 0.73412 0.0
H272 H 0.49193 0.09856 0.05699 0.0
H273 H 0.48848 0.02051 0.10667 0.0
H274 H 0.51784 1.01255 0.01795 0.0
H275 H 0.54689 0.02799 0.93118 0.0
H276 H 0.55054 0.10593 0.88067 0.0
H277 H 0.51881 0.11348 0.96401 0.0
C278 C 0.49735 0.07978 0.0478 0.0
C279 C 0.48819 0.0603 0.08907 0.0
C280 C 0.51453 0.07523 0.99671 0.0
C281 C 0.49542 0.03601 0.07628 0.0
C282 C 0.51227 0.03136 0.02547 0.0
C283 C 0.54064 0.04659 0.93806 0.0
C284 C 0.55132 0.06633 0.90009 0.0
C285 C 0.52236 0.0509 0.98627 0.0
C286 C 0.54278 0.09032 0.90937 0.0
C287 C 0.5246 0.09472 0.95716 0.0
H288 H 0.30389 0.84141 0.13232 0.0
H289 H 0.23204 0.86374 0.1973 0.0
H290 H 0.23205 0.83407 0.28875 0.0
H291 H 0.25209 0.80133 0.34811 0.0
H292 H 0.32338 0.77835 0.28038 0.0
H293 H 0.32393 0.80902 0.19158 0.0
C294 C 0.28821 0.83995 0.16654 0.0
C295 C 0.26797 0.85484 0.15795 0.0
C296 C 0.28824 0.82275 0.21824 0.0
C297 C 0.24782 0.85252 0.20271 0.0
C298 C 0.24784 0.83556 0.25494 0.0
C299 C 0.26785 0.80306 0.31417 0.0
C300 C 0.28772 0.78755 0.32096 0.0
C301 C 0.2679 0.82051 0.26289 0.0
C302 C 0.30786 0.79 0.27625 0.0
C303 C 0.30818 0.80753 0.22551 0.0
H304 H 0.50291 0.04028 0.42673 0.0
H305 H 0.49287 0.11914 0.43018 0.0
H306 H 0.52627 0.12575 0.51063 0.0
H307 H 0.5583 0.10919 0.57985 0.0
H308 H 0.56917 0.03046 0.57484 0.0
H309 H 0.53586 0.02383 0.49411 0.0
C310 C 0.50785 0.05885 0.44579 0.0
C311 C 0.49527 0.07915 0.42316 0.0
C312 C 0.5275 0.0626 0.49084 0.0
C313 C 0.50221 0.10319 0.44716 0.0
C314 C 0.52138 0.107 0.49289 0.0
C315 C 0.55361 0.09061 0.56055 0.0
C316 C 0.56626 0.07038 0.58334 0.0
C317 C 0.53426 0.08688 0.51472 0.0
C318 C 0.55982 0.04641 0.55797 0.0
C319 C 0.54063 0.04255 0.51214 0.0
H320 H 0.2377 0.29309 0.64171 0.0
H321 H 0.314 0.27934 0.68283 0.0
H322 H 0.31389 0.30881 0.77613 0.0
H323 H 0.29262 0.33944 0.84285 0.0
H324 H 0.21679 0.35415 0.79877 0.0
H325 H 0.21628 0.32312 0.70929 0.0
C326 C 0.25433 0.29635 0.67121 0.0
C327 C 0.27587 0.28397 0.65516 0.0
C328 C 0.25423 0.31353 0.72393 0.0
C329 C 0.2972 0.28859 0.69396 0.0
C330 C 0.29714 0.30546 0.74724 0.0
C331 C 0.27588 0.33582 0.81399 0.0
C332 C 0.25474 0.34917 0.82757 0.0
C333 C 0.27583 0.31819 0.7622 0.0
C334 C 0.23332 0.34423 0.78937 0.0
C335 C 0.23302 0.32648 0.73821 0.0
H336 H 0.03969 0.10048 0.93136 0.0
H337 H 0.05567 0.02335 0.94954 0.0
H338 H 0.02443 1.01771 0.03745 0.0
H339 H 0.99214 0.03428 0.10762 0.0
H340 H 0.97497 0.11107 0.08882 0.0
H341 H 1.0068 0.11713 0.002 0.0
C342 C 0.03652 0.08256 0.95528 0.0
C343 C 0.05007 0.06241 0.93435 0.0
C344 C 1.01806 0.07926 0.00488 0.0
C345 C 0.04549 0.03916 0.96488 0.0
C346 C 0.02757 0.03588 0.01496 0.0
C347 C 0.9952 0.05233 0.0843 0.0
C348 C 0.98113 0.07216 0.10459 0.0
C349 C 1.01358 0.05571 0.03486 0.0
C350 C 0.98545 0.09543 0.07391 0.0
C351 C 1.00375 0.09896 0.02452 0.0
H352 H 0.74515 0.79236 0.83273 0.0
H353 H 0.82389 0.78237 0.83087 0.0
H354 H 0.83063 0.81529 0.74899 0.0
H355 H 0.81441 0.84725 0.67926 0.0
H356 H 0.73584 0.85808 0.6814 0.0
H357 H 0.72886 0.82481 0.76267 0.0
C358 C 0.76372 0.79719 0.81366 0.0
C359 C 0.78397 0.78484 0.83747 0.0
C360 C 0.76756 0.81655 0.76752 0.0
C361 C 0.80799 0.79158 0.81322 0.0
C362 C 0.81188 0.81047 0.76662 0.0
C363 C 0.79577 0.84252 0.69787 0.0
C364 C 0.77571 0.85521 0.67444 0.0
C365 C 0.79186 0.82324 0.74395 0.0
C366 C 0.75165 0.84869 0.69886 0.0
C367 C 0.74761 0.82956 0.74503 0.0
H368 H 0.73655 0.33427 0.31774 0.0
H369 H 0.81572 0.35134 0.30147 0.0
H370 H 0.81846 0.31918 0.21543 0.0
H371 H 0.79814 0.28654 0.14384 0.0
H372 H 0.71879 0.27077 0.15915 0.0
H373 H 0.71645 0.30185 0.24766 0.0
C374 C 0.75445 0.33108 0.29539 0.0
C375 C 0.77589 0.34532 0.31603 0.0
C376 C 0.75589 0.31258 0.24631 0.0
C377 C 0.79889 0.3408 0.28634 0.0
C378 C 0.80049 0.32231 0.23738 0.0
C379 C 0.7804 0.28968 0.16726 0.0
C380 C 0.75867 0.27626 0.1453 0.0
C381 C 0.7791 0.30805 0.21708 0.0
C382 C 0.73577 0.2808 0.1753 0.0
C383 C 0.73441 0.29865 0.22568 0.0
H384 H 0.74532 0.29386 0.83231 0.0
H385 H 0.82486 0.29099 0.81056 0.0
H386 H 0.82532 0.32266 0.72471 0.0
H387 H 0.80308 0.34896 0.65154 0.0
H388 H 0.72337 0.35107 0.6689 0.0
H389 H 0.72312 0.32198 0.76179 0.0
C390 C 0.76281 0.3003 0.80922 0.0
C391 C 0.78502 0.28991 0.82756 0.0
C392 C 0.7629 0.31827 0.75915 0.0
C393 C 0.80749 0.29851 0.79714 0.0
C394 C 0.80777 0.31663 0.74804 0.0
C395 C 0.78559 0.34324 0.67572 0.0
C396 C 0.76322 0.35203 0.65283 0.0
C397 C 0.78555 0.32629 0.72796 0.0
C398 C 0.74083 0.34453 0.68535 0.0
C399 C 0.74068 0.32785 0.73829 0.0
H400 H 0.80745 0.78653 0.1981 0.0
H401 H 0.72855 0.77932 0.1613 0.0
H402 H 0.72143 0.81006 0.24726 0.0
H403 H 0.73755 0.84089 0.32878 0.0
H404 H 0.81624 0.84811 0.36756 0.0
H405 H 0.82335 0.81567 0.28548 0.0
C406 C 0.78869 0.79144 0.20956 0.0
C407 C 0.76866 0.78074 0.17271 0.0
C408 C 0.78462 0.80941 0.25912 0.0
C409 C 0.74443 0.78738 0.1883 0.0
C410 C 0.74026 0.80504 0.2375 0.0
C411 C 0.75624 0.83534 0.31936 0.0
C412 C 0.77629 0.8471 0.35389 0.0
C413 C 0.76024 0.81654 0.27235 0.0
C414 C 0.8004 0.83944 0.34159 0.0
C415 C 0.80453 0.82086 0.29458 0.0
H416 H 0.53958 0.59734 0.1067 0.0
H417 H 0.5628 0.52609 0.03859 0.0
H418 H 0.53342 0.52638 0.94695 0.0
H419 H 0.50028 0.54609 0.88924 0.0
H420 H 0.47604 0.61661 0.95993 0.0
H421 H 0.50694 0.61736 0.04798 0.0
C422 C 0.53839 0.5819 0.07165 0.0
C423 C 0.55338 0.56169 0.07956 0.0
C424 C 0.52126 0.58203 0.01987 0.0
C425 C 0.55146 0.54184 0.03374 0.0
C426 C 0.53466 0.54199 0.98141 0.0
C427 C 0.50179 0.56174 0.9236 0.0
C428 C 0.48582 0.58128 0.91801 0.0
C429 C 0.51933 0.56188 0.97446 0.0
C430 C 0.48803 0.60131 0.9632 0.0
C431 C 0.5057 0.60175 0.01352 0.0
H432 H 0.04851 0.53135 0.44869 0.0
H433 H 0.04878 0.60979 0.40565 0.0
H434 H 1.01664 0.61486 0.48953 0.0
H435 H 0.98953 0.59746 0.57887 0.0
H436 H 0.989 0.51887 0.62067 0.0
H437 H 1.01977 0.51354 0.53355 0.0
C438 C 0.04151 0.54953 0.45761 0.0
C439 C 0.05121 0.57012 0.42118 0.0
C440 C 0.02285 0.55237 0.50582 0.0
C441 C 0.04171 0.59354 0.43297 0.0
C442 C 0.0233 0.59652 0.48104 0.0
C443 C 0.99595 0.57914 0.56844 0.0
C444 C 0.98705 0.55871 0.60678 0.0
C445 C 1.01385 0.57611 0.51821 0.0
C446 C 0.9956 0.53505 0.59239 0.0
C447 C 1.01328 0.53192 0.54254 0.0
H448 H 0.04918 0.54497 0.11005 0.0
H449 H 0.07 0.6222 0.06992 0.0
H450 H 0.03806 0.62258 0.98495 0.0
H451 H 1.00356 0.60153 0.92497 0.0
H452 H 0.98139 0.52465 0.96673 0.0
H453 H 1.01427 0.52373 0.04927 0.0
C454 C 0.04695 0.56174 0.08188 0.0
C455 C 0.06204 0.58347 0.09566 0.0
C456 C 0.02805 0.56203 0.03445 0.0
C457 C 0.05867 0.60523 0.05987 0.0
C458 C 0.04033 0.6055 0.01161 0.0
C459 C 1.00577 0.58455 0.95222 0.0
C460 C 0.98994 0.5632 0.9397 0.0
C461 C 0.02472 0.58412 -0.00083 0.0
C462 C 0.99318 0.5414 0.97563 0.0
C463 C 1.01209 0.54081 0.02252 0.0
H464 H 0.49835 0.52927 0.59431 0.0
H465 H 0.47474 0.60341 0.56515 0.0
H466 H 0.50649 0.61057 0.47845 0.0
H467 H 0.54107 0.59554 0.4106 0.0
H468 H 0.56336 0.52091 0.43929 0.0
H469 H 0.53235 0.51437 0.5275 0.0
C470 C 0.49999 0.54697 0.56877 0.0
C471 C 0.48412 0.56573 0.58605 0.0
C472 C 0.51833 0.551 0.51954 0.0
C473 C 0.48662 0.58857 0.55253 0.0
C474 C 0.50488 0.59275 0.50325 0.0
C475 C 0.53934 0.57803 0.437 0.0
C476 C 0.55458 0.5588 0.41897 0.0
C477 C 0.52096 0.57413 0.48662 0.0
C478 C 0.55186 0.536 0.45252 0.0
C479 C 0.53407 0.5322 0.50269 0.0
H480 H 0.12856 0.50162 0.1223 0.0
H481 H 0.15535 0.47412 0.30706 0.0
H482 H 0.18 0.44482 0.24644 0.0
H483 H 0.19726 0.42991 0.14067 0.0
H484 H 0.17052 0.45764 0.95608 0.0
H485 H 0.1425 0.4836 0.01683 0.0
C486 C 0.13948 0.48896 0.1494 0.0
C487 C 0.14023 0.4903 0.2192 0.0
C488 C 0.15385 0.47225 0.11416 0.0
C489 C 0.15443 0.47362 0.25337 0.0
C490 C 0.16866 0.45688 0.21869 0.0
C491 C 0.18504 0.44134 0.11369 0.0
C492 C 0.18625 0.44195 0.04383 0.0
C493 C 0.16903 0.45647 0.14903 0.0
C494 C 0.17014 0.45683 0.0098 0.0
C495 C 0.15412 0.47179 0.04454 0.0
H496 H 0.80879 0.96134 0.3443 0.0
H497 H 0.8202 0.97892 0.55151 0.0
H498 H 0.84935 1.01398 0.52155 0.0
H499 H 0.87287 0.03843 0.43637 0.0
H500 H 0.86487 1.01786 0.2299 0.0
H501 H 0.833 0.98515 0.25934 0.0
C502 C 0.81749 0.97304 0.3828 0.0
C503 C 0.81225 0.96779 0.44996 0.0
C504 C 0.83487 0.9925 0.36523 0.0
C505 C 0.82398 0.98269 0.4995 0.0
C506 C 0.84061 1.0027 0.48238 0.0
C507 C 0.86393 0.02692 0.39786 0.0
C508 C 0.87096 0.03062 0.33104 0.0
C509 C 0.84636 1.00762 0.41542 0.0
C510 C 0.85968 1.01532 0.28162 0.0
C511 C 0.84149 0.99666 0.29845 0.0
H512 H 0.33664 0.70426 0.62778 0.0
H513 H 0.36587 0.67496 0.44493 0.0
H514 H 0.39253 0.64896 0.50757 0.0
H515 H 0.40491 0.63188 0.61406 0.0
H516 H 0.37471 0.6603 0.79679 0.0
H517 H 0.35128 0.68936 0.73442 0.0
C518 C 0.34908 0.69245 0.60158 0.0
C519 C 0.3491 0.69147 0.53171 0.0
C520 C 0.3641 0.6772 0.63792 0.0
C521 C 0.36537 0.67603 0.49866 0.0
C522 C 0.3806 0.66108 0.53446 0.0
C523 C 0.39344 0.64463 0.64033 0.0
C524 C 0.39145 0.64374 0.71002 0.0
C525 C 0.37971 0.66109 0.60408 0.0
C526 C 0.37651 0.66046 0.74317 0.0
C527 C 0.36305 0.67708 0.70753 0.0
H528 H 0.72297 0.15742 0.98017 0.0
H529 H 0.75079 0.17851 0.78588 0.0
H530 H 0.72159 0.14761 0.73433 0.0
H531 H 0.68645 0.11601 0.74445 0.0
H532 H 0.66119 0.0926 0.93936 0.0
H533 H 0.69109 0.12273 0.99064 0.0
C534 C 0.72272 0.15505 0.92662 0.0
C535 C 0.73878 0.17028 0.88682 0.0
C536 C 0.70629 0.13686 0.89741 0.0
C537 C 0.73858 0.16689 0.81752 0.0
C538 C 0.72183 0.14933 0.78799 0.0
C539 C 0.68771 0.11741 0.79809 0.0
C540 C 0.67157 0.10227 0.83803 0.0
C541 C 0.70535 0.13442 0.82739 0.0
C542 C 0.67351 0.10401 0.90752 0.0
C543 C 0.69052 0.12132 0.93695 0.0
H544 H 0.14774 0.63821 0.36272 0.0
H545 H 0.19906 0.58312 0.31028 0.0
H546 H 0.23388 0.61072 0.35103 0.0
H547 H 0.24946 0.65106 0.39974 0.0
H548 H 0.19702 0.70423 0.4608 0.0
H549 H 0.16276 0.67668 0.41968 0.0
C550 C 0.16662 0.63239 0.36004 0.0
C551 C 0.17113 0.60908 0.33255 0.0
C552 C 0.18619 0.64787 0.38571 0.0
C553 C 0.1954 0.60122 0.33071 0.0
C554 C 0.21519 0.61693 0.35411 0.0
C555 C 0.2305 0.65647 0.4045 0.0
C556 C 0.22579 0.6797 0.43294 0.0
C557 C 0.21079 0.64035 0.38156 0.0
C558 C 0.20113 0.68641 0.43943 0.0
C559 C 0.18154 0.67075 0.41549 0.0
H560 H 0.63521 0.99769 0.61594 0.0
H561 H 0.65926 0.96962 0.80298 0.0
H562 H 0.68545 0.9411 0.74437 0.0
H563 H 0.70448 0.92687 0.64027 0.0
H564 H 0.68036 0.95496 0.45329 0.0
H565 H 0.65115 0.98044 0.51156 0.0
C566 C 0.64592 0.98511 0.64394 0.0
C567 C 0.64541 0.98601 0.71387 0.0
C568 C 0.6611 0.96882 0.60988 0.0
C569 C 0.65931 0.96942 0.7492 0.0
C570 C 0.6744 0.95314 0.71568 0.0
C571 C 0.6926 0.93831 0.61216 0.0
C572 C 0.69483 0.93914 0.54243 0.0
C573 C 0.6759 0.95309 0.64606 0.0
C574 C 0.67914 0.95397 0.50693 0.0
C575 C 0.66246 0.96866 0.54026 0.0
H576 H 0.34853 0.54296 0.84635 0.0
H577 H 0.40149 0.48951 0.79129 0.0
H578 H 0.37392 0.45585 0.83594 0.0
H579 H 0.33525 0.4416 0.89317 0.0
H580 H 0.2804 0.49394 0.93937 0.0
H581 H 0.30825 0.52814 0.89638 0.0
C582 C 0.35391 0.52391 0.84371 0.0
C583 C 0.37706 0.51876 0.81574 0.0
C584 C 0.33777 0.50453 0.86863 0.0
C585 C 0.38371 0.49397 0.81213 0.0
C586 C 0.36804 0.47471 0.83812 0.0
C587 C 0.32954 0.46055 0.89422 0.0
C588 C 0.30614 0.46547 0.92042 0.0
C589 C 0.34518 0.47981 0.86711 0.0
C590 C 0.29851 0.4899 0.91994 0.0
C591 C 0.31437 0.50937 0.89524 0.0
H592 H 0.83316 0.20634 0.13116 0.0
H593 H 0.87061 0.18122 0.95487 0.0
H594 H 0.89699 0.15671 0.02269 0.0
H595 H 0.90719 0.13978 0.1312 0.0
H596 H 0.86969 0.16481 0.3075 0.0
H597 H 0.84579 0.19209 0.24059 0.0
C598 C 0.84727 0.19572 0.10759 0.0
C599 C 0.84972 0.19547 0.03794 0.0
C600 C 0.86232 0.18151 0.14688 0.0
C601 C 0.86824 0.18172 0.00832 0.0
C602 C 0.88331 0.16761 0.04708 0.0
C603 C 0.89398 0.15139 0.15511 0.0
C604 C 0.8901 0.15005 0.22424 0.0
C605 C 0.88016 0.16696 0.11627 0.0
C606 C 0.87302 0.16538 0.25439 0.0
C607 C 0.85927 0.18095 0.21612 0.0
H608 H 0.87056 0.71138 0.93305 0.0
H609 H 0.81002 0.65633 0.96626 0.0
H610 H 0.83385 0.62457 0.91159 0.0
H611 H 0.8721 0.61256 0.85353 0.0
H612 H 0.93148 0.66877 0.8172 0.0
H613 H 0.90777 0.69988 0.87293 0.0
C614 C 0.86263 0.69237 0.92904 0.0
C615 C 0.83865 0.68619 0.95455 0.0
C616 C 0.87615 0.67443 0.89609 0.0
C617 C 0.82852 0.66156 0.94756 0.0
C618 C 0.84211 0.64342 0.91601 0.0
C619 C 0.87975 0.63166 0.8573 0.0
C620 C 0.90362 0.63821 0.831 0.0
C621 C 0.86593 0.64966 0.88969 0.0
C622 C 0.9132 0.66309 0.83665 0.0
C623 C 0.89969 0.68095 0.8689 0.0
H624 H 0.18194 0.21107 0.59687 0.0
H625 H 0.2301 0.15437 0.53365 0.0
H626 H 0.20521 0.12331 0.5989 0.0
H627 H 0.16903 0.11236 0.67259 0.0
H628 H 0.12238 0.17031 0.73733 0.0
H629 H 0.14775 0.20085 0.67382 0.0
C630 C 0.18691 0.19186 0.59674 0.0
C631 C 0.20758 0.18493 0.55952 0.0
C632 C 0.17297 0.1744 0.63549 0.0
C633 C 0.21409 0.1601 0.56132 0.0
C634 C 0.19994 0.14239 0.59889 0.0
C635 C 0.16467 0.13174 0.67359 0.0
C636 C 0.14375 0.13897 0.70968 0.0
C637 C 0.17931 0.14935 0.63628 0.0
C638 C 0.1383 0.16416 0.71006 0.0
C639 C 0.15273 0.18167 0.6734 0.0
H640 H 0.67679 0.41536 0.37736 0.0
H641 H 0.73294 0.47248 0.43207 0.0
H642 H 0.70924 0.50396 0.3788 0.0
H643 H 0.67187 0.51527 0.3187 0.0
H644 H 0.61657 0.45732 0.26298 0.0
H645 H 0.64086 0.42618 0.31369 0.0
C646 C 0.68382 0.43472 0.37804 0.0
C647 C 0.70645 0.4416 0.40936 0.0
C648 C 0.67035 0.45256 0.34648 0.0
C649 C 0.71547 0.46671 0.40868 0.0
C650 C 0.70197 0.4847 0.37805 0.0
C651 C 0.66531 0.49579 0.3169 0.0
C652 C 0.64237 0.48871 0.28712 0.0
C653 C 0.67934 0.47785 0.34682 0.0
C654 C 0.63411 0.46337 0.28556 0.0
C655 C 0.64794 0.4455 0.31485 0.0
H656 H 0.37206 0.02577 0.18361 0.0
H657 H 0.415 0.96713 0.25725 0.0
H658 H 0.39023 0.9365 0.1922 0.0
H659 H 0.35824 0.92652 0.10961 0.0
H660 H 0.31369 0.98405 0.03813 0.0
H661 H 0.33747 1.01506 0.10639 0.0
C662 C 0.37567 1.00623 0.18642 0.0
C663 C 0.39547 0.99881 0.22511 0.0
C664 C 0.36147 0.98861 0.14812 0.0
C665 C 0.39994 0.97341 0.2279 0.0
C666 C 0.3859 0.95586 0.19029 0.0
C667 C 0.35387 0.9459 0.10844 0.0
C668 C 0.33465 0.95314 0.06781 0.0
C669 C 0.36706 0.96333 0.14907 0.0
C670 C 0.32868 0.97814 0.06836 0.0
C671 C 0.34216 0.99581 0.10764 0.0
H672 H 0.85519 0.42096 0.60094 0.0
H673 H 0.81222 0.4788 0.52404 0.0
H674 H 0.83539 0.50973 0.59401 0.0
H675 H 0.86875 0.52018 0.67554 0.0
H676 H 0.9099 0.46108 0.75411 0.0
H677 H 0.88609 0.43071 0.68609 0.0
C678 C 0.85104 0.44039 0.59884 0.0
C679 C 0.8324 0.4477 0.55636 0.0
C680 C 0.86383 0.45776 0.6404 0.0
C681 C 0.82675 0.4728 0.55571 0.0
C682 C 0.83988 0.49042 0.59599 0.0
C683 C 0.87217 0.5006 0.67864 0.0
C684 C 0.89117 0.49297 0.71982 0.0
C685 C 0.85848 0.4831 0.63865 0.0
C686 C 0.89546 0.46753 0.72287 0.0
C687 C 0.88196 0.45012 0.68362 0.0
H688 H 0.32248 0.16738 0.40521 0.0
H689 H 0.37687 0.22973 0.42018 0.0
H690 H 0.40788 0.20543 0.3661 0.0
H691 H 0.41988 0.16667 0.31453 0.0
H692 H 0.36662 0.10343 0.30218 0.0
H693 H 0.33489 0.12791 0.35433 0.0
C694 C 0.34115 0.17558 0.397 0.0
C695 C 0.34725 0.2004 0.417 0.0
C696 C 0.35909 0.16142 0.36562 0.0
C697 C 0.37157 0.2107 0.40565 0.0
C698 C 0.38936 0.19684 0.37439 0.0
C699 C 0.40127 0.15827 0.32254 0.0
C700 C 0.39561 0.1333 0.30383 0.0
C701 C 0.38333 0.17225 0.35388 0.0
C702 C 0.37147 0.12265 0.3157 0.0
C703 C 0.35333 0.13662 0.34581 0.0
H704 H 0.62755 0.65127 0.14584 0.0
H705 H 0.68195 0.60171 0.21004 0.0
H706 H 0.71444 0.62589 0.1475 0.0
H707 H 0.72732 0.66203 0.07668 0.0
H708 H 0.67163 0.70994 0.00994 0.0
H709 H 0.63963 0.68512 0.07018 0.0
C710 C 0.64657 0.64587 0.14674 0.0
C711 C 0.65248 0.62507 0.18359 0.0
C712 C 0.66484 0.65935 0.10934 0.0
C713 C 0.67704 0.61787 0.18268 0.0
C714 C 0.69556 0.63161 0.14667 0.0
C715 C 0.70812 0.66676 0.07441 0.0
C716 C 0.70196 0.68792 0.03895 0.0
C717 C 0.68967 0.65244 0.10979 0.0
C718 C 0.67697 0.69382 0.03682 0.0
C719 C 0.65863 0.67973 0.07165 0.0
H720 H 0.17727 0.92443 0.91018 0.0
H721 H 0.23147 0.98367 0.96272 0.0
H722 H 0.20666 1.01388 0.90769 0.0
H723 H 0.16924 0.02331 0.84461 0.0
H724 H 0.11632 0.96303 0.78985 0.0
H725 H 0.1412 0.9334 0.84477 0.0
C726 C 0.18358 0.94399 0.91028 0.0
C727 C 0.20602 0.95183 0.94133 0.0
C728 C 0.16959 0.96105 0.87725 0.0
C729 C 0.21414 0.97718 0.93969 0.0
C730 C 0.20002 0.99443 0.90793 0.0
C731 C 0.16333 1.00365 0.84403 0.0
C732 C 0.14089 0.99548 0.81304 0.0
C733 C 0.17774 0.98655 0.87622 0.0
C734 C 0.13347 0.96993 0.81316 0.0
C735 C 0.14762 0.95292 0.84491 0.0
loop_
_geom_bond_atom_site_label_1
_geom_bond_atom_site_label_2
_geom_bond_distance
_geom_bond_site_symmetry_2
_ccdc_geom_bond_type
O0 Cd1 2.223 1_556 S
O0 C8 1.315 . S
Cd1 O0 2.223 1_554 S
Cd1 O4 2.297 . S
Cd1 O5 2.439 . S
Cd1 O11 2.240 . S
Cd2 O3 2.240 . S
Cd2 O10 2.223 . S
Cd2 O12 2.297 . S
Cd2 O13 2.439 1_556 S
O3 Cd2 2.240 . S
O3 C8 1.279 . S
O4 Cd1 2.297 . S
O4 C6 1.247 . S
O5 Cd1 2.439 . S
O5 C6 1.208 . S
C6 O4 1.247 . S
C6 O5 1.208 . S
C7 O12 1.247 1_554 S
C7 O13 1.208 . S
C8 O0 1.315 . S
C8 O3 1.279 . S
C9 O10 1.315 . S
C9 O11 1.279 1_556 S
O10 Cd2 2.223 . S
O10 C9 1.315 . S
O11 Cd1 2.240 . S
O11 C9 1.279 1_554 S
O12 Cd2 2.297 . S
O12 C7 1.247 1_556 S
O13 Cd2 2.439 1_554 S
O13 C7 1.208 . S
O14 Cd15 2.223 . S
O14 C22 1.315 . S
Cd15 O14 2.223 . S
Cd15 O18 2.297 . S
Cd15 O19 2.439 . S
Cd15 O25 2.240 . S
Cd16 O17 2.240 . S
Cd16 O24 2.223 . S
Cd16 O26 2.297 . S
Cd16 O27 2.439 . S
O17 Cd16 2.240 . S
O17 C22 1.279 . S
O18 Cd15 2.297 . S
O18 C20 1.247 . S
O19 Cd15 2.439 . S
O19 C20 1.208 . S
C20 O18 1.247 . S
C20 O19 1.208 . S
C21 O26 1.247 . S
C21 O27 1.208 . S
C22 O14 1.315 . S
C22 O17 1.279 . S
C23 O24 1.315 . S
C23 O25 1.279 . S
O24 Cd16 2.223 . S
O24 C23 1.315 . S
O25 Cd15 2.240 . S
O25 C23 1.279 . S
O26 Cd16 2.297 . S
O26 C21 1.247 . S
O27 Cd16 2.439 . S
O27 C21 1.208 . S
O28 Cd29 2.223 . S
O28 C36 1.315 . S
Cd29 O28 2.223 . S
Cd29 O32 2.297 . S
Cd29 O33 2.439 . S
Cd29 O39 2.240 . S
Cd30 O31 2.240 . S
Cd30 O38 2.223 . S
Cd30 O40 2.297 . S
Cd30 O41 2.439 . S
O31 Cd30 2.240 . S
O31 C36 1.279 . S
O32 Cd29 2.297 . S
O32 C34 1.247 . S
O33 Cd29 2.439 . S
O33 C34 1.208 . S
C34 O32 1.247 . S
C34 O33 1.208 . S
C35 O40 1.247 . S
C35 O41 1.208 . S
C36 O28 1.315 . S
C36 O31 1.279 . S
C37 O38 1.315 . S
C37 O39 1.279 . S
O38 Cd30 2.223 . S
O38 C37 1.315 . S
O39 Cd29 2.240 . S
O39 C37 1.279 . S
O40 Cd30 2.297 . S
O40 C35 1.247 . S
O41 Cd30 2.439 . S
O41 C35 1.208 . S
O42 Cd43 2.223 . S
O42 C50 1.315 . S
Cd43 O42 2.223 . S
Cd43 O46 2.297 . S
Cd43 O47 2.439 . S
Cd43 O53 2.240 . S
Cd44 O45 2.240 . S
Cd44 O52 2.223 . S
Cd44 O54 2.297 . S
Cd44 O55 2.439 . S
O45 Cd44 2.240 . S
O45 C50 1.279 . S
O46 Cd43 2.297 . S
O46 C48 1.247 . S
O47 Cd43 2.439 . S
O47 C48 1.208 . S
C48 O46 1.247 . S
C48 O47 1.208 . S
C49 O54 1.247 . S
C49 O55 1.208 . S
C50 O42 1.315 . S
C50 O45 1.279 . S
C51 O52 1.315 . S
C51 O53 1.279 . S
O52 Cd44 2.223 . S
O52 C51 1.315 . S
O53 Cd43 2.240 . S
O53 C51 1.279 . S
O54 Cd44 2.297 . S
O54 C49 1.247 . S
O55 Cd44 2.439 . S
O55 C49 1.208 . S
O56 Cd57 2.223 1_556 S
O56 C64 1.315 . S
Cd57 O56 2.223 1_554 S
Cd57 O60 2.297 1_554 S
Cd57 O61 2.439 1_554 S
Cd57 O67 2.240 . S
Cd58 O59 2.240 1_554 S
Cd58 O66 2.223 . S
Cd58 O68 2.297 . S
Cd58 O69 2.439 . S
O59 Cd58 2.240 1_556 S
O59 C64 1.279 . S
O60 Cd57 2.297 1_556 S
O60 C62 1.247 . S
O61 Cd57 2.439 1_556 S
O61 C62 1.208 . S
C62 O60 1.247 . S
C62 O61 1.208 . S
C63 O68 1.247 . S
C63 O69 1.208 . S
C64 O56 1.315 . S
C64 O59 1.279 . S
C65 O66 1.315 . S
C65 O67 1.279 . S
O66 Cd58 2.223 . S
O66 C65 1.315 . S
O67 Cd57 2.240 . S
O67 C65 1.279 . S
O68 Cd58 2.297 . S
O68 C63 1.247 . S
O69 Cd58 2.439 . S
O69 C63 1.208 . S
O70 Cd71 2.223 1_545 S
O70 C78 1.315 . S
Cd71 O70 2.223 1_565 S
Cd71 O74 2.297 . S
Cd71 O75 2.439 1_565 S
Cd71 O81 2.240 1_565 S
Cd72 O73 2.240 . S
Cd72 O80 2.223 . S
Cd72 O82 2.297 . S
Cd72 O83 2.439 . S
O73 Cd72 2.240 . S
O73 C78 1.279 . S
O74 Cd71 2.297 . S
O74 C76 1.247 . S
O75 Cd71 2.439 1_545 S
O75 C76 1.208 1_545 S
C76 O74 1.247 . S
C76 O75 1.208 1_565 S
C77 O82 1.247 . S
C77 O83 1.208 . S
C78 O70 1.315 . S
C78 O73 1.279 . S
C79 O80 1.315 . S
C79 O81 1.279 . S
O80 Cd72 2.223 . S
O80 C79 1.315 . S
O81 Cd71 2.240 1_545 S
O81 C79 1.279 . S
O82 Cd72 2.297 . S
O82 C77 1.247 . S
O83 Cd72 2.439 . S
O83 C77 1.208 . S
O84 Cd85 2.223 . S
O84 C92 1.315 . S
Cd85 O84 2.223 . S
Cd85 O88 2.297 . S
Cd85 O89 2.439 . S
Cd85 O95 2.240 . S
Cd86 O87 2.240 . S
Cd86 O94 2.223 . S
Cd86 O96 2.297 . S
Cd86 O97 2.439 . S
O87 Cd86 2.240 . S
O87 C92 1.279 . S
O88 Cd85 2.297 . S
O88 C90 1.247 . S
O89 Cd85 2.439 . S
O89 C90 1.208 . S
C90 O88 1.247 . S
C90 O89 1.208 . S
C91 O96 1.247 . S
C91 O97 1.208 . S
C92 O84 1.315 . S
C92 O87 1.279 . S
C93 O94 1.315 . S
C93 O95 1.279 . S
O94 Cd86 2.223 . S
O94 C93 1.315 . S
O95 Cd85 2.240 . S
O95 C93 1.279 . S
O96 Cd86 2.297 . S
O96 C91 1.247 . S
O97 Cd86 2.439 . S
O97 C91 1.208 . S
O98 Cd99 2.223 . S
O98 C106 1.315 . S
Cd99 O98 2.223 . S
Cd99 O102 2.297 . S
Cd99 O103 2.439 . S
Cd99 O109 2.240 . S
Cd100 O101 2.240 . S
Cd100 O108 2.223 . S
Cd100 O110 2.297 . S
Cd100 O111 2.439 . S
O101 Cd100 2.240 . S
O101 C106 1.279 . S
O102 Cd99 2.297 . S
O102 C104 1.247 . S
O103 Cd99 2.439 . S
O103 C104 1.208 . S
C104 O102 1.247 . S
C104 O103 1.208 . S
C105 O110 1.247 . S
C105 O111 1.208 . S
C106 O98 1.315 . S
C106 O101 1.279 . S
C107 O108 1.315 . S
C107 O109 1.279 . S
O108 Cd100 2.223 . S
O108 C107 1.315 . S
O109 Cd99 2.240 . S
O109 C107 1.279 . S
O110 Cd100 2.297 . S
O110 C105 1.247 . S
O111 Cd100 2.439 . S
O111 C105 1.208 . S
O112 Cd113 2.223 . S
O112 C120 1.315 . S
Cd113 O112 2.223 . S
Cd113 O116 2.297 . S
Cd113 O117 2.439 . S
Cd113 O123 2.240 . S
Cd114 O115 2.240 . S
Cd114 O122 2.223 . S
Cd114 O124 2.297 . S
Cd114 O125 2.439 . S
O115 Cd114 2.240 . S
O115 C120 1.279 . S
O116 Cd113 2.297 . S
O116 C118 1.247 . S
O117 Cd113 2.439 . S
O117 C118 1.208 . S
C118 O116 1.247 . S
C118 O117 1.208 . S
C119 O124 1.247 . S
C119 O125 1.208 . S
C120 O112 1.315 . S
C120 O115 1.279 . S
C121 O122 1.315 . S
C121 O123 1.279 . S
O122 Cd114 2.223 . S
O122 C121 1.315 . S
O123 Cd113 2.240 . S
O123 C121 1.279 . S
O124 Cd114 2.297 . S
O124 C119 1.247 . S
O125 Cd114 2.439 . S
O125 C119 1.208 . S
O126 Cd127 2.223 . S
O126 C134 1.315 . S
Cd127 O126 2.223 . S
Cd127 O130 2.297 . S
Cd127 O131 2.439 . S
Cd127 O137 2.240 . S
Cd128 O129 2.240 . S
Cd128 O136 2.223 . S
Cd128 O138 2.297 . S
Cd128 O139 2.439 . S
O129 Cd128 2.240 . S
O129 C134 1.279 . S
O130 Cd127 2.297 . S
O130 C132 1.247 . S
O131 Cd127 2.439 . S
O131 C132 1.208 . S
C132 O130 1.247 . S
C132 O131 1.208 . S
C133 O138 1.247 . S
C133 O139 1.208 . S
C134 O126 1.315 . S
C134 O129 1.279 . S
C135 O136 1.315 . S
C135 O137 1.279 . S
O136 Cd128 2.223 . S
O136 C135 1.315 . S
O137 Cd127 2.240 . S
O137 C135 1.279 . S
O138 Cd128 2.297 . S
O138 C133 1.247 . S
O139 Cd128 2.439 . S
O139 C133 1.208 . S
O140 Cd141 2.223 1_556 S
O140 C148 1.315 . S
Cd141 O140 2.223 1_554 S
Cd141 O144 2.297 . S
Cd141 O145 2.439 . S
Cd141 O151 2.240 . S
Cd142 O143 2.240 . S
Cd142 O150 2.223 . S
Cd142 O152 2.297 . S
Cd142 O153 2.439 1_556 S
O143 Cd142 2.240 . S
O143 C148 1.279 . S
O144 Cd141 2.297 . S
O144 C146 1.247 . S
O145 Cd141 2.439 . S
O145 C146 1.208 . S
C146 O144 1.247 . S
C146 O145 1.208 . S
C147 O152 1.247 1_554 S
C147 O153 1.208 . S
C148 O140 1.315 . S
C148 O143 1.279 . S
C149 O150 1.315 . S
C149 O151 1.279 1_556 S
O150 Cd142 2.223 . S
O150 C149 1.315 . S
O151 Cd141 2.240 . S
O151 C149 1.279 1_554 S
O152 Cd142 2.297 . S
O152 C147 1.247 1_556 S
O153 Cd142 2.439 1_554 S
O153 C147 1.208 . S
O154 Cd155 2.223 . S
O154 C162 1.315 . S
Cd155 O154 2.223 . S
Cd155 O158 2.297 . S
Cd155 O159 2.439 . S
Cd155 O165 2.240 . S
Cd156 O157 2.240 . S
Cd156 O164 2.223 . S
Cd156 O166 2.297 . S
Cd156 O167 2.439 . S
O157 Cd156 2.240 . S
O157 C162 1.279 . S
O158 Cd155 2.297 . S
O158 C160 1.247 . S
O159 Cd155 2.439 . S
O159 C160 1.208 . S
C160 O158 1.247 . S
C160 O159 1.208 . S
C161 O166 1.247 . S
C161 O167 1.208 . S
C162 O154 1.315 . S
C162 O157 1.279 . S
C163 O164 1.315 . S
C163 O165 1.279 . S
O164 Cd156 2.223 . S
O164 C163 1.315 . S
O165 Cd155 2.240 . S
O165 C163 1.279 . S
O166 Cd156 2.297 . S
O166 C161 1.247 . S
O167 Cd156 2.439 . S
O167 C161 1.208 . S
O168 Cd169 2.223 . S
O168 C176 1.315 . S
Cd169 O168 2.223 . S
Cd169 O172 2.297 . S
Cd169 O173 2.439 . S
Cd169 O179 2.240 . S
Cd170 O171 2.240 . S
Cd170 O178 2.223 . S
Cd170 O180 2.297 . S
Cd170 O181 2.439 . S
O171 Cd170 2.240 . S
O171 C176 1.279 . S
O172 Cd169 2.297 . S
O172 C174 1.247 . S
O173 Cd169 2.439 . S
O173 C174 1.208 . S
C174 O172 1.247 . S
C174 O173 1.208 . S
C175 O180 1.247 . S
C175 O181 1.208 . S
C176 O168 1.315 . S
C176 O171 1.279 . S
C177 O178 1.315 . S
C177 O179 1.279 . S
O178 Cd170 2.223 . S
O178 C177 1.315 . S
O179 Cd169 2.240 . S
O179 C177 1.279 . S
O180 Cd170 2.297 . S
O180 C175 1.247 . S
O181 Cd170 2.439 . S
O181 C175 1.208 . S
O182 Cd183 2.223 . S
O182 C190 1.315 . S
Cd183 O182 2.223 . S
Cd183 O186 2.297 . S
Cd183 O187 2.439 . S
Cd183 O193 2.240 . S
Cd184 O185 2.240 . S
Cd184 O192 2.223 . S
Cd184 O194 2.297 . S
Cd184 O195 2.439 . S
O185 Cd184 2.240 . S
O185 C190 1.279 . S
O186 Cd183 2.297 . S
O186 C188 1.247 . S
O187 Cd183 2.439 . S
O187 C188 1.208 . S
C188 O186 1.247 . S
C188 O187 1.208 . S
C189 O194 1.247 . S
C189 O195 1.208 . S
C190 O182 1.315 . S
C190 O185 1.279 . S
C191 O192 1.315 . S
C191 O193 1.279 . S
O192 Cd184 2.223 . S
O192 C191 1.315 . S
O193 Cd183 2.240 . S
O193 C191 1.279 . S
O194 Cd184 2.297 . S
O194 C189 1.247 . S
O195 Cd184 2.439 . S
O195 C189 1.208 . S
O196 Cd197 2.223 1_556 S
O196 C204 1.315 . S
Cd197 O196 2.223 1_554 S
Cd197 O200 2.297 1_554 S
Cd197 O201 2.439 1_554 S
Cd197 O207 2.240 . S
Cd198 O199 2.240 1_554 S
Cd198 O206 2.223 . S
Cd198 O208 2.297 . S
Cd198 O209 2.439 . S
O199 Cd198 2.240 1_556 S
O199 C204 1.279 . S
O200 Cd197 2.297 1_556 S
O200 C202 1.247 . S
O201 Cd197 2.439 1_556 S
O201 C202 1.208 . S
C202 O200 1.247 . S
C202 O201 1.208 . S
C203 O208 1.247 . S
C203 O209 1.208 . S
C204 O196 1.315 . S
C204 O199 1.279 . S
C205 O206 1.315 . S
C205 O207 1.279 . S
O206 Cd198 2.223 . S
O206 C205 1.315 . S
O207 Cd197 2.240 . S
O207 C205 1.279 . S
O208 Cd198 2.297 . S
O208 C203 1.247 . S
O209 Cd198 2.439 . S
O209 C203 1.208 . S
O210 Cd211 2.223 . S
O210 C218 1.315 . S
Cd211 O210 2.223 . S
Cd211 O214 2.297 . S
Cd211 O215 2.439 . S
Cd211 O221 2.240 . S
Cd212 O213 2.240 . S
Cd212 O220 2.223 . S
Cd212 O222 2.297 . S
Cd212 O223 2.439 . S
O213 Cd212 2.240 . S
O213 C218 1.279 . S
O214 Cd211 2.297 . S
O214 C216 1.247 . S
O215 Cd211 2.439 . S
O215 C216 1.208 . S
C216 O214 1.247 . S
C216 O215 1.208 . S
C217 O222 1.247 . S
C217 O223 1.208 . S
C218 O210 1.315 . S
C218 O213 1.279 . S
C219 O220 1.315 . S
C219 O221 1.279 . S
O220 Cd212 2.223 . S
O220 C219 1.315 . S
O221 Cd211 2.240 . S
O221 C219 1.279 . S
O222 Cd212 2.297 . S
O222 C217 1.247 . S
O223 Cd212 2.439 . S
O223 C217 1.208 . S
H224 C230 0.930 . S
H225 C233 0.930 . S
H226 C234 0.930 . S
H227 C235 0.930 . S
H228 C238 0.930 . S
H229 C239 0.930 . S
C230 H224 0.930 . S
C230 C231 1.355 . S
C230 C232 1.415 . S
C231 C230 1.355 . S
C231 C233 1.419 . S
C232 C230 1.415 . S
C232 C237 1.425 . S
C232 C239 1.409 . S
C233 H225 0.930 . S
C233 C231 1.419 . S
C233 C234 1.362 . S
C234 H226 0.930 . S
C234 C233 1.362 . S
C234 C237 1.409 . S
C235 H227 0.930 . S
C235 C236 1.355 . S
C235 C237 1.415 . S
C236 C235 1.355 . S
C236 C238 1.419 . S
C237 C232 1.425 . S
C237 C234 1.409 . S
C237 C235 1.415 . S
C238 H228 0.930 . S
C238 C236 1.419 . S
C238 C239 1.362 . S
C239 H229 0.930 . S
C239 C232 1.409 . S
C239 C238 1.362 . S
H240 C246 0.930 . S
H241 C249 0.930 . S
H242 C250 0.930 . S
H243 C251 0.930 . S
H244 C254 0.930 . S
H245 C255 0.930 . S
C246 H240 0.930 . S
C246 C247 1.355 . S
C246 C248 1.415 . S
C247 C246 1.355 . S
C247 C249 1.419 . S
C248 C246 1.415 . S
C248 C253 1.425 . S
C248 C255 1.409 1_655 S
C249 H241 0.930 . S
C249 C247 1.419 . S
C249 C250 1.362 . S
C250 H242 0.930 . S
C250 C249 1.362 . S
C250 C253 1.409 . S
C251 H243 0.930 . S
C251 C252 1.354 1_655 S
C251 C253 1.415 . S
C252 C251 1.354 1_455 S
C252 C254 1.419 . S
C253 C248 1.425 . S
C253 C250 1.409 . S
C253 C251 1.415 . S
C254 H244 0.930 . S
C254 C252 1.419 . S
C254 C255 1.362 . S
C255 H245 0.930 . S
C255 C248 1.409 1_455 S
C255 C254 1.362 . S
H256 C262 0.930 . S
H257 C265 0.930 . S
H258 C266 0.930 . S
H259 C267 0.930 . S
H260 C270 0.930 . S
H261 C271 0.930 . S
C262 H256 0.930 . S
C262 C263 1.355 . S
C262 C264 1.415 . S
C263 C262 1.355 . S
C263 C265 1.419 . S
C264 C262 1.415 . S
C264 C269 1.425 . S
C264 C271 1.409 . S
C265 H257 0.930 . S
C265 C263 1.419 . S
C265 C266 1.362 . S
C266 H258 0.930 . S
C266 C265 1.362 . S
C266 C269 1.409 . S
C267 H259 0.930 . S
C267 C268 1.355 . S
C267 C269 1.415 . S
C268 C267 1.355 . S
C268 C270 1.419 . S
C269 C264 1.425 . S
C269 C266 1.409 . S
C269 C267 1.415 . S
C270 H260 0.930 . S
C270 C268 1.419 . S
C270 C271 1.362 . S
C271 H261 0.930 . S
C271 C264 1.409 . S
C271 C270 1.362 . S
H272 C278 0.930 . S
H273 C281 0.930 . S
H274 C282 0.930 . S
H275 C283 0.930 . S
H276 C286 0.930 . S
H277 C287 0.930 . S
C278 H272 0.930 . S
C278 C279 1.355 . S
C278 C280 1.415 1_554 S
C279 C278 1.355 . S
C279 C281 1.419 . S
C280 C278 1.415 1_556 S
C280 C285 1.425 . S
C280 C287 1.409 . S
C281 H273 0.930 . S
C281 C279 1.419 . S
C281 C282 1.362 . S
C282 H274 0.930 . S
C282 C281 1.362 . S
C282 C285 1.409 1_554 S
C283 H275 0.930 . S
C283 C284 1.355 . S
C283 C285 1.415 . S
C284 C283 1.355 . S
C284 C286 1.419 . S
C285 C280 1.425 . S
C285 C282 1.409 1_556 S
C285 C283 1.415 . S
C286 H276 0.930 . S
C286 C284 1.419 . S
C286 C287 1.362 . S
C287 H277 0.930 . S
C287 C280 1.409 . S
C287 C286 1.362 . S
H288 C294 0.930 . S
H289 C297 0.930 . S
H290 C298 0.930 . S
H291 C299 0.930 . S
H292 C302 0.930 . S
H293 C303 0.930 . S
C294 H288 0.930 . S
C294 C295 1.355 . S
C294 C296 1.415 . S
C295 C294 1.355 . S
C295 C297 1.419 . S
C296 C294 1.415 . S
C296 C301 1.425 . S
C296 C303 1.409 . S
C297 H289 0.930 . S
C297 C295 1.419 . S
C297 C298 1.362 . S
C298 H290 0.930 . S
C298 C297 1.362 . S
C298 C301 1.409 . S
C299 H291 0.930 . S
C299 C300 1.355 . S
C299 C301 1.415 . S
C300 C299 1.355 . S
C300 C302 1.419 . S
C301 C296 1.425 . S
C301 C298 1.409 . S
C301 C299 1.415 . S
C302 H292 0.930 . S
C302 C300 1.419 . S
C302 C303 1.362 . S
C303 H293 0.930 . S
C303 C296 1.409 . S
C303 C302 1.362 . S
H304 C310 0.930 . S
H305 C313 0.930 . S
H306 C314 0.930 . S
H307 C315 0.930 . S
H308 C318 0.930 . S
H309 C319 0.930 . S
C310 H304 0.930 . S
C310 C311 1.355 . S
C310 C312 1.415 . S
C311 C310 1.355 . S
C311 C313 1.419 . S
C312 C310 1.415 . S
C312 C317 1.425 . S
C312 C319 1.409 . S
C313 H305 0.930 . S
C313 C311 1.419 . S
C313 C314 1.362 . S
C314 H306 0.930 . S
C314 C313 1.362 . S
C314 C317 1.409 . S
C315 H307 0.930 . S
C315 C316 1.355 . S
C315 C317 1.415 . S
C316 C315 1.355 . S
C316 C318 1.419 . S
C317 C312 1.425 . S
C317 C314 1.409 . S
C317 C315 1.415 . S
C318 H308 0.930 . S
C318 C316 1.419 . S
C318 C319 1.362 . S
C319 H309 0.930 . S
C319 C312 1.409 . S
C319 C318 1.362 . S
H320 C326 0.930 . S
H321 C329 0.930 . S
H322 C330 0.930 . S
H323 C331 0.930 . S
H324 C334 0.930 . S
H325 C335 0.930 . S
C326 H320 0.930 . S
C326 C327 1.355 . S
C326 C328 1.415 . S
C327 C326 1.355 . S
C327 C329 1.419 . S
C328 C326 1.415 . S
C328 C333 1.425 . S
C328 C335 1.409 . S
C329 H321 0.930 . S
C329 C327 1.419 . S
C329 C330 1.362 . S
C330 H322 0.930 . S
C330 C329 1.362 . S
C330 C333 1.409 . S
C331 H323 0.930 . S
C331 C332 1.355 . S
C331 C333 1.415 . S
C332 C331 1.355 . S
C332 C334 1.419 . S
C333 C328 1.425 . S
C333 C330 1.409 . S
C333 C331 1.415 . S
C334 H324 0.930 . S
C334 C332 1.419 . S
C334 C335 1.362 . S
C335 H325 0.930 . S
C335 C328 1.409 . S
C335 C334 1.362 . S
H336 C342 0.930 1_655 S
H337 C345 0.930 . S
H338 C346 0.930 1_554 S
H339 C347 0.910 1_455 S
H340 C350 0.930 . S
H341 C351 0.930 . S
C342 H336 0.930 1_455 S
C342 C343 1.355 . S
C342 C344 1.415 1_455 S
C343 C342 1.355 . S
C343 C345 1.419 . S
C344 C342 1.415 1_655 S
C344 C349 1.425 1_655 S
C344 C351 1.409 . S
C345 H337 0.930 . S
C345 C343 1.419 . S
C345 C346 1.362 . S
C346 H338 0.930 1_556 S
C346 C345 1.362 . S
C346 C349 1.409 . S
C347 H339 0.910 1_655 S
C347 C348 1.355 . S
C347 C349 1.415 1_654 S
C348 C347 1.355 . S
C348 C350 1.419 1_554 S
C349 C344 1.425 1_455 S
C349 C346 1.409 . S
C349 C347 1.415 1_456 S
C350 H340 0.930 . S
C350 C348 1.419 1_556 S
C350 C351 1.362 . S
C351 H341 0.930 . S
C351 C344 1.409 . S
C351 C350 1.362 . S
H352 C358 0.930 . S
H353 C361 0.930 . S
H354 C362 0.930 . S
H355 C363 0.930 . S
H356 C366 0.930 . S
H357 C367 0.930 . S
C358 H352 0.930 . S
C358 C359 1.355 . S
C358 C360 1.415 . S
C359 C358 1.355 . S
C359 C361 1.419 . S
C360 C358 1.415 . S
C360 C365 1.425 . S
C360 C367 1.409 . S
C361 H353 0.930 . S
C361 C359 1.419 . S
C361 C362 1.362 . S
C362 H354 0.930 . S
C362 C361 1.362 . S
C362 C365 1.409 . S
C363 H355 0.930 . S
C363 C364 1.355 . S
C363 C365 1.415 . S
C364 C363 1.355 . S
C364 C366 1.419 . S
C365 C360 1.425 . S
C365 C362 1.409 . S
C365 C363 1.415 . S
C366 H356 0.930 . S
C366 C364 1.419 . S
C366 C367 1.362 . S
C367 H357 0.930 . S
C367 C360 1.409 . S
C367 C366 1.362 . S
H368 C374 0.930 . S
H369 C377 0.930 . S
H370 C378 0.930 . S
H371 C379 0.930 . S
H372 C382 0.930 . S
H373 C383 0.930 . S
C374 H368 0.930 . S
C374 C375 1.355 . S
C374 C376 1.415 . S
C375 C374 1.355 . S
C375 C377 1.419 . S
C376 C374 1.415 . S
C376 C381 1.425 . S
C376 C383 1.409 . S
C377 H369 0.930 . S
C377 C375 1.419 . S
C377 C378 1.362 . S
C378 H370 0.930 . S
C378 C377 1.362 . S
C378 C381 1.409 . S
C379 H371 0.930 . S
C379 C380 1.355 . S
C379 C381 1.415 . S
C380 C379 1.355 . S
C380 C382 1.419 . S
C381 C376 1.425 . S
C381 C378 1.409 . S
C381 C379 1.415 . S
C382 H372 0.930 . S
C382 C380 1.419 . S
C382 C383 1.362 . S
C383 H373 0.930 . S
C383 C376 1.409 . S
C383 C382 1.362 . S
H384 C390 0.930 . S
H385 C393 0.930 . S
H386 C394 0.930 . S
H387 C395 0.930 . S
H388 C398 0.930 . S
H389 C399 0.930 . S
C390 H384 0.930 . S
C390 C391 1.355 . S
C390 C392 1.415 . S
C391 C390 1.355 . S
C391 C393 1.419 . S
C392 C390 1.415 . S
C392 C397 1.425 . S
C392 C399 1.409 . S
C393 H385 0.930 . S
C393 C391 1.419 . S
C393 C394 1.362 . S
C394 H386 0.930 . S
C394 C393 1.362 . S
C394 C397 1.409 . S
C395 H387 0.930 . S
C395 C396 1.355 . S
C395 C397 1.415 . S
C396 C395 1.355 . S
C396 C398 1.419 . S
C397 C392 1.425 . S
C397 C394 1.409 . S
C397 C395 1.415 . S
C398 H388 0.930 . S
C398 C396 1.419 . S
C398 C399 1.362 . S
C399 H389 0.930 . S
C399 C392 1.409 . S
C399 C398 1.362 . S
H400 C406 0.930 . S
H401 C409 0.930 . S
H402 C410 0.930 . S
H403 C411 0.930 . S
H404 C414 0.930 . S
H405 C415 0.930 . S
C406 H400 0.930 . S
C406 C407 1.355 . S
C406 C408 1.415 . S
C407 C406 1.355 . S
C407 C409 1.419 . S
C408 C406 1.415 . S
C408 C413 1.425 . S
C408 C415 1.409 . S
C409 H401 0.930 . S
C409 C407 1.419 . S
C409 C410 1.362 . S
C410 H402 0.930 . S
C410 C409 1.362 . S
C410 C413 1.409 . S
C411 H403 0.930 . S
C411 C412 1.355 . S
C411 C413 1.415 . S
C412 C411 1.355 . S
C412 C414 1.419 . S
C413 C408 1.425 . S
C413 C410 1.409 . S
C413 C411 1.415 . S
C414 H404 0.930 . S
C414 C412 1.419 . S
C414 C415 1.362 . S
C415 H405 0.930 . S
C415 C408 1.409 . S
C415 C414 1.362 . S
H416 C422 0.930 . S
H417 C425 0.930 . S
H418 C426 0.930 . S
H419 C427 0.930 . S
H420 C430 0.930 . S
H421 C431 0.930 . S
C422 H416 0.930 . S
C422 C423 1.355 . S
C422 C424 1.415 1_554 S
C423 C422 1.355 . S
C423 C425 1.419 . S
C424 C422 1.415 1_556 S
C424 C429 1.425 . S
C424 C431 1.409 . S
C425 H417 0.930 . S
C425 C423 1.419 . S
C425 C426 1.362 . S
C426 H418 0.930 . S
C426 C425 1.362 . S
C426 C429 1.409 1_554 S
C427 H419 0.930 . S
C427 C428 1.355 . S
C427 C429 1.415 . S
C428 C427 1.355 . S
C428 C430 1.419 . S
C429 C424 1.425 . S
C429 C426 1.409 1_556 S
C429 C427 1.415 . S
C430 H420 0.930 . S
C430 C428 1.419 . S
C430 C431 1.362 . S
C431 H421 0.930 . S
C431 C424 1.409 . S
C431 C430 1.362 . S
H432 C438 0.930 . S
H433 C441 0.930 . S
H434 C442 0.930 1_655 S
H435 C443 0.930 . S
H436 C446 0.930 . S
H437 C447 0.930 . S
C438 H432 0.930 . S
C438 C439 1.355 . S
C438 C440 1.415 . S
C439 C438 1.355 . S
C439 C441 1.419 . S
C440 C438 1.415 . S
C440 C445 1.450 . S
C440 C447 1.409 . S
C441 H433 0.930 . S
C441 C439 1.419 . S
C441 C442 1.362 . S
C442 H434 0.930 1_455 S
C442 C441 1.362 . S
C442 C445 1.412 . S
C443 H435 0.930 . S
C443 C444 1.355 . S
C443 C445 1.389 1_655 S
C444 C443 1.355 . S
C444 C446 1.419 . S
C445 C440 1.450 . S
C445 C442 1.412 . S
C445 C443 1.389 1_455 S
C446 H436 0.930 . S
C446 C444 1.419 . S
C446 C447 1.362 1_655 S
C447 H437 0.930 . S
C447 C440 1.409 . S
C447 C446 1.362 1_455 S
H448 C454 0.930 1_655 S
H449 C457 0.930 1_554 S
H450 C458 0.930 . S
H451 C459 0.930 1_455 S
H452 C462 0.930 . S
H453 C463 0.930 1_554 S
C454 H448 0.930 1_455 S
C454 C455 1.355 . S
C454 C456 1.415 1_454 S
C455 C454 1.355 . S
C455 C457 1.419 1_554 S
C456 C454 1.415 1_656 S
C456 C461 1.425 1_655 S
C456 C463 1.409 . S
C457 H449 0.930 1_556 S
C457 C455 1.419 1_556 S
C457 C458 1.362 . S
C458 H450 0.930 . S
C458 C457 1.362 . S
C458 C461 1.409 . S
C459 H451 0.930 1_655 S
C459 C460 1.355 . S
C459 C461 1.415 1_655 S
C460 C459 1.355 . S
C460 C462 1.419 . S
C461 C456 1.425 1_455 S
C461 C458 1.409 . S
C461 C459 1.415 1_455 S
C462 H452 0.930 . S
C462 C460 1.419 . S
C462 C463 1.362 . S
C463 H453 0.930 1_556 S
C463 C456 1.409 . S
C463 C462 1.362 . S
H464 C470 0.930 . S
H465 C473 0.930 . S
H466 C474 0.930 . S
H467 C475 0.930 . S
H468 C478 0.930 . S
H469 C479 0.930 . S
C470 H464 0.930 . S
C470 C471 1.355 . S
C470 C472 1.415 . S
C471 C470 1.355 . S
C471 C473 1.419 . S
C472 C470 1.415 . S
C472 C477 1.425 . S
C472 C479 1.409 . S
C473 H465 0.930 . S
C473 C471 1.419 . S
C473 C474 1.362 . S
C474 H466 0.930 . S
C474 C473 1.362 . S
C474 C477 1.409 . S
C475 H467 0.930 . S
C475 C476 1.355 . S
C475 C477 1.415 . S
C476 C475 1.355 . S
C476 C478 1.419 . S
C477 C472 1.425 . S
C477 C474 1.409 . S
C477 C475 1.415 . S
C478 H468 0.930 . S
C478 C476 1.419 . S
C478 C479 1.362 . S
C479 H469 0.930 . S
C479 C472 1.409 . S
C479 C478 1.362 . S
H480 C486 0.930 . S
H481 C489 0.930 . S
H482 C490 0.930 . S
H483 C491 0.930 . S
H484 C494 0.930 . S
H485 C495 0.930 . S
C486 H480 0.930 . S
C486 C487 1.355 . S
C486 C488 1.415 . S
C487 C486 1.355 . S
C487 C489 1.419 . S
C488 C486 1.415 . S
C488 C493 1.425 . S
C488 C495 1.409 . S
C489 H481 0.930 . S
C489 C487 1.419 . S
C489 C490 1.362 . S
C490 H482 0.930 . S
C490 C489 1.362 . S
C490 C493 1.409 . S
C491 H483 0.930 . S
C491 C492 1.355 . S
C491 C493 1.415 . S
C492 C491 1.355 . S
C492 C494 1.419 . S
C493 C488 1.425 . S
C493 C490 1.409 . S
C493 C491 1.415 . S
C494 H484 0.930 . S
C494 C492 1.419 . S
C494 C495 1.362 . S
C495 H485 0.930 . S
C495 C488 1.409 . S
C495 C494 1.362 . S
H496 C502 0.930 . S
H497 C505 0.930 . S
H498 C506 0.930 . S
H499 C507 0.930 . S
H500 C510 0.930 . S
H501 C511 0.930 . S
C502 H496 0.930 . S
C502 C503 1.355 . S
C502 C504 1.415 . S
C503 C502 1.355 . S
C503 C505 1.419 . S
C504 C502 1.415 . S
C504 C509 1.425 . S
C504 C511 1.409 . S
C505 H497 0.930 . S
C505 C503 1.419 . S
C505 C506 1.362 . S
C506 H498 0.930 . S
C506 C505 1.362 . S
C506 C509 1.409 . S
C507 H499 0.930 . S
C507 C508 1.355 . S
C507 C509 1.415 . S
C508 C507 1.355 . S
C508 C510 1.419 . S
C509 C504 1.425 . S
C509 C506 1.409 . S
C509 C507 1.415 . S
C510 H500 0.930 . S
C510 C508 1.419 . S
C510 C511 1.362 . S
C511 H501 0.930 . S
C511 C504 1.409 . S
C511 C510 1.362 . S
H512 C518 0.930 . S
H513 C521 0.930 . S
H514 C522 0.930 . S
H515 C523 0.930 . S
H516 C526 0.930 . S
H517 C527 0.930 . S
C518 H512 0.930 . S
C518 C519 1.355 . S
C518 C520 1.415 . S
C519 C518 1.355 . S
C519 C521 1.419 . S
C520 C518 1.415 . S
C520 C525 1.425 . S
C520 C527 1.409 . S
C521 H513 0.930 . S
C521 C519 1.419 . S
C521 C522 1.362 . S
C522 H514 0.930 . S
C522 C521 1.362 . S
C522 C525 1.409 . S
C523 H515 0.930 . S
C523 C524 1.355 . S
C523 C525 1.415 . S
C524 C523 1.355 . S
C524 C526 1.419 . S
C525 C520 1.425 . S
C525 C522 1.409 . S
C525 C523 1.415 . S
C526 H516 0.930 . S
C526 C524 1.419 . S
C526 C527 1.362 . S
C527 H517 0.930 . S
C527 C520 1.409 . S
C527 C526 1.362 . S
H528 C534 0.945 . S
H529 C537 0.930 . S
H530 C538 0.930 . S
H531 C539 0.930 . S
H532 C542 0.930 . S
H533 C543 0.930 . S
C534 H528 0.945 . S
C534 C535 1.355 . S
C534 C536 1.415 . S
C535 C534 1.355 . S
C535 C537 1.419 . S
C536 C534 1.415 . S
C536 C541 1.425 . S
C536 C543 1.409 . S
C537 H529 0.930 . S
C537 C535 1.419 . S
C537 C538 1.362 . S
C538 H530 0.930 . S
C538 C537 1.362 . S
C538 C541 1.409 . S
C539 H531 0.930 . S
C539 C540 1.355 . S
C539 C541 1.415 . S
C540 C539 1.355 . S
C540 C542 1.419 . S
C541 C536 1.425 . S
C541 C538 1.409 . S
C541 C539 1.415 . S
C542 H532 0.930 . S
C542 C540 1.419 . S
C542 C543 1.362 . S
C543 H533 0.930 . S
C543 C536 1.409 . S
C543 C542 1.362 . S
H544 C550 0.930 . S
H545 C553 0.930 . S
H546 C554 0.930 . S
H547 C555 0.930 . S
H548 C558 0.930 . S
H549 C559 0.930 . S
C550 H544 0.930 . S
C550 C551 1.355 . S
C550 C552 1.415 . S
C551 C550 1.355 . S
C551 C553 1.419 . S
C552 C550 1.415 . S
C552 C557 1.425 . S
C552 C559 1.409 . S
C553 H545 0.930 . S
C553 C551 1.419 . S
C553 C554 1.362 . S
C554 H546 0.930 . S
C554 C553 1.362 . S
C554 C557 1.409 . S
C555 H547 0.930 . S
C555 C556 1.355 . S
C555 C557 1.415 . S
C556 C555 1.355 . S
C556 C558 1.419 . S
C557 C552 1.425 . S
C557 C554 1.409 . S
C557 C555 1.415 . S
C558 H548 0.930 . S
C558 C556 1.419 . S
C558 C559 1.362 . S
C559 H549 0.930 . S
C559 C552 1.409 . S
C559 C558 1.362 . S
H560 C566 0.930 . S
H561 C569 0.930 . S
H562 C570 0.930 . S
H563 C571 0.930 . S
H564 C574 0.930 . S
H565 C575 0.930 1_545 S
C566 H560 0.930 . S
C566 C567 1.355 . S
C566 C568 1.415 1_545 S
C567 C566 1.355 . S
C567 C569 1.419 1_545 S
C568 C566 1.415 1_565 S
C568 C573 1.425 . S
C568 C575 1.409 . S
C569 H561 0.930 . S
C569 C567 1.419 1_565 S
C569 C570 1.362 . S
C570 H562 0.930 . S
C570 C569 1.362 . S
C570 C573 1.409 . S
C571 H563 0.930 . S
C571 C572 1.355 . S
C571 C573 1.415 . S
C572 C571 1.355 . S
C572 C574 1.419 . S
C573 C568 1.425 . S
C573 C570 1.409 . S
C573 C571 1.415 . S
C574 H564 0.930 . S
C574 C572 1.419 . S
C574 C575 1.362 . S
C575 H565 0.930 1_565 S
C575 C568 1.409 . S
C575 C574 1.362 . S
H576 C582 0.930 . S
H577 C585 0.930 . S
H578 C586 0.930 . S
H579 C587 0.930 . S
H580 C590 0.930 . S
H581 C591 0.930 . S
C582 H576 0.930 . S
C582 C583 1.355 . S
C582 C584 1.415 . S
C583 C582 1.355 . S
C583 C585 1.419 . S
C584 C582 1.415 . S
C584 C589 1.425 . S
C584 C591 1.409 . S
C585 H577 0.930 . S
C585 C583 1.419 . S
C585 C586 1.362 . S
C586 H578 0.930 . S
C586 C585 1.362 . S
C586 C589 1.409 . S
C587 H579 0.930 . S
C587 C588 1.355 . S
C587 C589 1.415 . S
C588 C587 1.355 . S
C588 C590 1.419 . S
C589 C584 1.425 . S
C589 C586 1.409 . S
C589 C587 1.415 . S
C590 H580 0.930 . S
C590 C588 1.419 . S
C590 C591 1.362 . S
C591 H581 0.930 . S
C591 C584 1.409 . S
C591 C590 1.362 . S
H592 C598 0.930 . S
H593 C601 0.930 . S
H594 C602 0.930 . S
H595 C603 0.930 . S
H596 C606 0.930 . S
H597 C607 0.930 . S
C598 H592 0.930 . S
C598 C599 1.355 . S
C598 C600 1.415 . S
C599 C598 1.355 . S
C599 C601 1.419 . S
C600 C598 1.415 . S
C600 C605 1.425 . S
C600 C607 1.409 . S
C601 H593 0.930 . S
C601 C599 1.419 . S
C601 C602 1.362 . S
C602 H594 0.930 . S
C602 C601 1.362 . S
C602 C605 1.409 . S
C603 H595 0.930 . S
C603 C604 1.355 . S
C603 C605 1.415 . S
C604 C603 1.355 . S
C604 C606 1.419 . S
C605 C600 1.425 . S
C605 C602 1.409 . S
C605 C603 1.415 . S
C606 H596 0.930 . S
C606 C604 1.419 . S
C606 C607 1.362 . S
C607 H597 0.930 . S
C607 C600 1.409 . S
C607 C606 1.362 . S
H608 C614 0.930 . S
H609 C617 0.930 . S
H610 C618 0.930 . S
H611 C619 0.930 . S
H612 C622 0.930 . S
H613 C623 0.930 . S
C614 H608 0.930 . S
C614 C615 1.355 . S
C614 C616 1.415 . S
C615 C614 1.355 . S
C615 C617 1.419 . S
C616 C614 1.415 . S
C616 C621 1.425 . S
C616 C623 1.409 . S
C617 H609 0.930 . S
C617 C615 1.419 . S
C617 C618 1.362 . S
C618 H610 0.930 . S
C618 C617 1.362 . S
C618 C621 1.409 . S
C619 H611 0.930 . S
C619 C620 1.355 . S
C619 C621 1.415 . S
C620 C619 1.355 . S
C620 C622 1.419 . S
C621 C616 1.425 . S
C621 C618 1.409 . S
C621 C619 1.415 . S
C622 H612 0.930 . S
C622 C620 1.419 . S
C622 C623 1.362 . S
C623 H613 0.930 . S
C623 C616 1.409 . S
C623 C622 1.362 . S
H624 C630 0.930 . S
H625 C633 0.930 . S
H626 C634 0.930 . S
H627 C635 0.930 . S
H628 C638 0.930 . S
H629 C639 0.930 . S
C630 H624 0.930 . S
C630 C631 1.355 . S
C630 C632 1.415 . S
C631 C630 1.355 . S
C631 C633 1.419 . S
C632 C630 1.415 . S
C632 C637 1.425 . S
C632 C639 1.409 . S
C633 H625 0.930 . S
C633 C631 1.419 . S
C633 C634 1.362 . S
C634 H626 0.930 . S
C634 C633 1.362 . S
C634 C637 1.409 . S
C635 H627 0.930 . S
C635 C636 1.355 . S
C635 C637 1.415 . S
C636 C635 1.355 . S
C636 C638 1.419 . S
C637 C632 1.425 . S
C637 C634 1.409 . S
C637 C635 1.415 . S
C638 H628 0.930 . S
C638 C636 1.419 . S
C638 C639 1.362 . S
C639 H629 0.930 . S
C639 C632 1.409 . S
C639 C638 1.362 . S
H640 C646 0.930 . S
H641 C649 0.930 . S
H642 C650 0.930 . S
H643 C651 0.930 . S
H644 C654 0.930 . S
H645 C655 0.930 . S
C646 H640 0.930 . S
C646 C647 1.355 . S
C646 C648 1.415 . S
C647 C646 1.355 . S
C647 C649 1.419 . S
C648 C646 1.415 . S
C648 C653 1.425 . S
C648 C655 1.409 . S
C649 H641 0.930 . S
C649 C647 1.419 . S
C649 C650 1.362 . S
C650 H642 0.930 . S
C650 C649 1.362 . S
C650 C653 1.409 . S
C651 H643 0.930 . S
C651 C652 1.355 . S
C651 C653 1.415 . S
C652 C651 1.355 . S
C652 C654 1.419 . S
C653 C648 1.425 . S
C653 C650 1.409 . S
C653 C651 1.415 . S
C654 H644 0.930 . S
C654 C652 1.419 . S
C654 C655 1.362 . S
C655 H645 0.930 . S
C655 C648 1.409 . S
C655 C654 1.362 . S
H656 C662 0.930 1_545 S
H657 C665 0.930 . S
H658 C666 0.930 . S
H659 C667 0.930 . S
H660 C670 0.930 . S
H661 C671 0.930 . S
C662 H656 0.930 1_565 S
C662 C663 1.355 . S
C662 C664 1.415 . S
C663 C662 1.355 . S
C663 C665 1.419 . S
C664 C662 1.415 . S
C664 C669 1.425 . S
C664 C671 1.409 . S
C665 H657 0.930 . S
C665 C663 1.419 . S
C665 C666 1.362 . S
C666 H658 0.930 . S
C666 C665 1.362 . S
C666 C669 1.409 . S
C667 H659 0.930 . S
C667 C668 1.355 . S
C667 C669 1.415 . S
C668 C667 1.355 . S
C668 C670 1.419 . S
C669 C664 1.425 . S
C669 C666 1.409 . S
C669 C667 1.415 . S
C670 H660 0.930 . S
C670 C668 1.419 . S
C670 C671 1.362 . S
C671 H661 0.930 . S
C671 C664 1.409 . S
C671 C670 1.362 . S
H672 C678 0.930 . S
H673 C681 0.930 . S
H674 C682 0.930 . S
H675 C683 0.930 . S
H676 C686 0.930 . S
H677 C687 0.930 . S
C678 H672 0.930 . S
C678 C679 1.355 . S
C678 C680 1.415 . S
C679 C678 1.355 . S
C679 C681 1.419 . S
C680 C678 1.415 . S
C680 C685 1.425 . S
C680 C687 1.409 . S
C681 H673 0.930 . S
C681 C679 1.419 . S
C681 C682 1.362 . S
C682 H674 0.930 . S
C682 C681 1.362 . S
C682 C685 1.409 . S
C683 H675 0.930 . S
C683 C684 1.355 . S
C683 C685 1.415 . S
C684 C683 1.355 . S
C684 C686 1.419 . S
C685 C680 1.425 . S
C685 C682 1.409 . S
C685 C683 1.415 . S
C686 H676 0.930 . S
C686 C684 1.419 . S
C686 C687 1.362 . S
C687 H677 0.930 . S
C687 C680 1.409 . S
C687 C686 1.362 . S
H688 C694 0.930 . S
H689 C697 0.930 . S
H690 C698 0.930 . S
H691 C699 0.930 . S
H692 C702 0.930 . S
H693 C703 0.930 . S
C694 H688 0.930 . S
C694 C695 1.355 . S
C694 C696 1.415 . S
C695 C694 1.355 . S
C695 C697 1.419 . S
C696 C694 1.415 . S
C696 C701 1.425 . S
C696 C703 1.409 . S
C697 H689 0.930 . S
C697 C695 1.419 . S
C697 C698 1.362 . S
C698 H690 0.930 . S
C698 C697 1.362 . S
C698 C701 1.409 . S
C699 H691 0.930 . S
C699 C700 1.355 . S
C699 C701 1.415 . S
C700 C699 1.355 . S
C700 C702 1.419 . S
C701 C696 1.425 . S
C701 C698 1.409 . S
C701 C699 1.415 . S
C702 H692 0.930 . S
C702 C700 1.419 . S
C702 C703 1.362 . S
C703 H693 0.930 . S
C703 C696 1.409 . S
C703 C702 1.362 . S
H704 C710 0.930 . S
H705 C713 0.930 . S
H706 C714 0.930 . S
H707 C715 0.930 . S
H708 C718 0.930 . S
H709 C719 0.930 . S
C710 H704 0.930 . S
C710 C711 1.355 . S
C710 C712 1.415 . S
C711 C710 1.355 . S
C711 C713 1.419 . S
C712 C710 1.415 . S
C712 C717 1.425 . S
C712 C719 1.409 . S
C713 H705 0.930 . S
C713 C711 1.419 . S
C713 C714 1.362 . S
C714 H706 0.930 . S
C714 C713 1.362 . S
C714 C717 1.409 . S
C715 H707 0.930 . S
C715 C716 1.355 . S
C715 C717 1.415 . S
C716 C715 1.355 . S
C716 C718 1.419 . S
C717 C712 1.425 . S
C717 C714 1.409 . S
C717 C715 1.415 . S
C718 H708 0.930 . S
C718 C716 1.419 . S
C718 C719 1.362 . S
C719 H709 0.930 . S
C719 C712 1.409 . S
C719 C718 1.362 . S
H720 C726 0.930 . S
H721 C729 0.930 . S
H722 C730 0.930 . S
H723 C731 0.930 . S
H724 C734 0.930 . S
H725 C735 0.930 . S
C726 H720 0.930 . S
C726 C727 1.355 . S
C726 C728 1.415 . S
C727 C726 1.355 . S
C727 C729 1.419 . S
C728 C726 1.415 . S
C728 C733 1.425 . S
C728 C735 1.409 . S
C729 H721 0.930 . S
C729 C727 1.419 . S
C729 C730 1.362 . S
C730 H722 0.930 . S
C730 C729 1.362 . S
C730 C733 1.409 . S
C731 H723 0.930 . S
C731 C732 1.355 . S
C731 C733 1.415 . S
C732 C731 1.355 . S
C732 C734 1.419 . S
C733 C728 1.425 . S
C733 C730 1.409 . S
C733 C731 1.415 . S
C734 H724 0.930 . S
C734 C732 1.419 . S
C734 C735 1.362 . S
C735 H725 0.930 . S
C735 C728 1.409 . S
C735 C734 1.362 . S
C231 C6 1.322 . S
C236 C176 1.380 . S
C247 C23 1.795 . S
C252 C79 1.776 . S
C263 C34 1.356 . S
C268 C204 1.340 . S
C279 C107 1.779 . S
C284 C51 1.777 . S
C295 C205 1.785 . S
C300 C36 1.776 . S
C311 C106 1.352 . S
C316 C49 1.335 . S
C327 C177 1.774 . S
C332 C8 1.787 . S
C343 C78 1.350 . S
C348 C21 1.337 . S
C359 C64 1.351 . S
C364 C118 1.337 . S
C375 C92 1.366 . S
C380 C146 1.320 . S
C391 C148 1.809 . S
C396 C93 1.808 . S
C407 C65 1.774 . S
C412 C120 1.785 . S
C423 C191 1.810 . S
C428 C135 1.797 . S
C439 C163 1.777 . S
C444 C219 1.786 . S
C455 C161 1.345 . S
C460 C218 1.345 . S
C471 C133 1.359 . S
C476 C190 1.338 . S
C487 C160 1.539 . S
C492 C7 1.555 . S
C503 C121 1.435 . S
C508 C22 1.421 1_565 S
C519 C35 1.533 . S
C524 C132 1.546 . S
C535 C149 1.403 . S
C540 C50 1.427 . S
C551 C162 1.398 . S
C556 C37 1.440 . S
C567 C48 1.533 . S
C572 C119 1.547 . S
C583 C134 1.445 . S
C588 C9 1.401 . S
C599 C147 1.543 . S
C604 C20 1.559 . S
C615 C62 1.412 . S
C620 C216 1.389 . S
C631 C175 1.578 . S
C636 C77 1.546 . S
C647 C90 1.412 . S
C652 C188 1.382 . S
C663 C105 1.518 1_565 S
C668 C203 1.547 . S
C679 C91 1.575 . S
C684 C217 1.577 . S
C695 C174 1.371 . S
C700 C104 1.401 . S
C711 C189 1.582 . S
C716 C63 1.559 . S
C727 C202 1.413 . S
C732 C76 1.386 . S
