# Generated by pormake.
# Topology uol, (4)-cn, num edge types: 1
# Building blocks:
#     Node 0, Type 0, BuildingBlock: NAWXER_clean_sbu_0, # of connection points: 4
#     Node 1, Type 0, BuildingBlock: NAWXER_clean_sbu_0, # of connection points: 4
#     Node 2, Type 0, BuildingBlock: NAWXER_clean_sbu_0, # of connection points: 4
#     Node 3, Type 0, BuildingBlock: NAWXER_clean_sbu_0, # of connection points: 4
#     Node 4, Type 0, BuildingBlock: NAWXER_clean_sbu_0, # of connection points: 4
#     Node 5, Type 0, BuildingBlock: NAWXER_clean_sbu_0, # of connection points: 4
#     Node 6, Type 0, BuildingBlock: NAWXER_clean_sbu_0, # of connection points: 4
#     Node 7, Type 0, BuildingBlock: NAWXER_clean_sbu_0, # of connection points: 4
#     Node 8, Type 0, BuildingBlock: NAWXER_clean_sbu_0, # of connection points: 4
#     Node 9, Type 0, BuildingBlock: NAWXER_clean_sbu_0, # of connection points: 4
#     Node 10, Type 0, BuildingBlock: NAWXER_clean_sbu_0, # of connection points: 4
#     Node 11, Type 0, BuildingBlock: NAWXER_clean_sbu_0, # of connection points: 4
#     Edge 12, Type (0, 0), BuildingBlock: CIFDUS_clean_linker_0, # of connection points: 2
#     Edge 13, Type (0, 0), BuildingBlock: CIFDUS_clean_linker_0, # of connection points: 2
#     Edge 14, Type (0, 0), BuildingBlock: CIFDUS_clean_linker_0, # of connection points: 2
#     Edge 15, Type (0, 0), BuildingBlock: CIFDUS_clean_linker_0, # of connection points: 2
#     Edge 16, Type (0, 0), BuildingBlock: CIFDUS_clean_linker_0, # of connection points: 2
#     Edge 17, Type (0, 0), BuildingBlock: CIFDUS_clean_linker_0, # of connection points: 2
#     Edge 18, Type (0, 0), BuildingBlock: CIFDUS_clean_linker_0, # of connection points: 2
#     Edge 19, Type (0, 0), BuildingBlock: CIFDUS_clean_linker_0, # of connection points: 2
#     Edge 20, Type (0, 0), BuildingBlock: CIFDUS_clean_linker_0, # of connection points: 2
#     Edge 21, Type (0, 0), BuildingBlock: CIFDUS_clean_linker_0, # of connection points: 2
#     Edge 22, Type (0, 0), BuildingBlock: CIFDUS_clean_linker_0, # of connection points: 2
#     Edge 23, Type (0, 0), BuildingBlock: CIFDUS_clean_linker_0, # of connection points: 2
#     Edge 24, Type (0, 0), BuildingBlock: CIFDUS_clean_linker_0, # of connection points: 2
#     Edge 25, Type (0, 0), BuildingBlock: CIFDUS_clean_linker_0, # of connection points: 2
#     Edge 26, Type (0, 0), BuildingBlock: CIFDUS_clean_linker_0, # of connection points: 2
#     Edge 27, Type (0, 0), BuildingBlock: CIFDUS_clean_linker_0, # of connection points: 2
#     Edge 28, Type (0, 0), BuildingBlock: CIFDUS_clean_linker_0, # of connection points: 2
#     Edge 29, Type (0, 0), BuildingBlock: CIFDUS_clean_linker_0, # of connection points: 2
#     Edge 30, Type (0, 0), BuildingBlock: CIFDUS_clean_linker_0, # of connection points: 2
#     Edge 31, Type (0, 0), BuildingBlock: CIFDUS_clean_linker_0, # of connection points: 2
#     Edge 32, Type (0, 0), BuildingBlock: CIFDUS_clean_linker_0, # of connection points: 2
#     Edge 33, Type (0, 0), BuildingBlock: CIFDUS_clean_linker_0, # of connection points: 2
#     Edge 34, Type (0, 0), BuildingBlock: CIFDUS_clean_linker_0, # of connection points: 2
#     Edge 35, Type (0, 0), BuildingBlock: CIFDUS_clean_linker_0, # of connection points: 2
# Relax obj value: 0.141
# Max RMSD: 0.284
# Mean RMSD: 0.284
data_MOF--net-uol--node1-NAWXER_clean_sbu_0--edge1-CIFDUS_clean_linker_0
_symmetry_space_group_name_H-M    P1
_symmetry_Int_Tables_number       1
_symmetry_cell_setting            triclinic
loop_
_symmetry_equiv_pos_as_xyz
'x, y, z'
_cell_length_a     29.389092
_cell_length_b     29.413557
_cell_length_c     57.348053
_cell_angle_alpha  90.120079
_cell_angle_beta   89.89455
_cell_angle_gamma 120.19802
loop_
_atom_site_label
_atom_site_type_symbol
_atom_site_fract_x
_atom_site_fract_y
_atom_site_fract_z
_atom_type_partial_charge
C0 C 0.16658 0.33385 0.07723 0.0
C1 C 0.04398 0.29966 0.14087 0.0
O2 O 0.18763 0.36864 0.0934 0.0
Zn3 Zn 0.1617 0.38586 0.12619 0.0
O4 O 0.11836 0.29857 0.07872 0.0
Zn5 Zn 0.10507 0.3201 0.10826 0.0
O6 O 0.10794 0.39299 0.09908 0.0
O7 O 0.16834 0.45319 0.12207 0.0
O8 O 0.03632 0.27577 0.12157 0.0
O9 O 0.08853 0.34114 0.14473 0.0
O10 O 0.21077 0.38438 0.14716 0.0
O11 O 0.15671 0.30706 0.13134 0.0
C12 C 0.13429 0.44083 0.10616 0.0
C13 C 0.19553 0.33586 0.14492 0.0
C14 C 0.87615 0.17105 0.30566 0.0
C15 C 0.70659 0.12663 0.27276 0.0
O16 O 0.85671 0.12829 0.29371 0.0
Zn17 Zn 0.78562 0.08138 0.27305 0.0
O18 O 0.85112 0.19574 0.30711 0.0
Zn19 Zn 0.79228 0.14856 0.28854 0.0
O20 O 0.75605 0.07817 0.31015 0.0
O21 O 0.7549 0.01532 0.28864 0.0
O22 O 0.7386 0.16653 0.28453 0.0
O23 O 0.71869 0.09165 0.26741 0.0
O24 O 0.81228 0.08364 0.24215 0.0
O25 O 0.82826 0.16123 0.2545 0.0
C26 C 0.74478 0.03014 0.30779 0.0
C27 C 0.8327 0.13267 0.23874 0.0
C28 C 0.70339 0.86938 0.47602 0.0
C29 C 0.58576 0.69929 0.44306 0.0
O30 O 0.72975 0.85583 0.4626 0.0
Zn31 Zn 0.70904 0.78472 0.44165 0.0
O32 O 0.65504 0.83739 0.47968 0.0
Zn33 Zn 0.64882 0.78272 0.46038 0.0
O34 O 0.69302 0.75257 0.47917 0.0
O35 O 0.75179 0.75917 0.45356 0.0
O36 O 0.57855 0.72606 0.45833 0.0
O37 O 0.63227 0.71541 0.43513 0.0
O38 O 0.72855 0.81196 0.41114 0.0
O39 O 0.66338 0.81999 0.42574 0.0
C40 C 0.73216 0.74654 0.47377 0.0
C41 C 0.69549 0.82728 0.40898 0.0
C42 C 0.8491 0.66784 0.58158 0.0
C43 C 0.97912 0.70638 0.64171 0.0
O44 O 0.82743 0.64022 0.59987 0.0
Zn45 Zn 0.85513 0.62709 0.63293 0.0
O46 O 0.89889 0.69531 0.58046 0.0
Zn47 Zn 0.91371 0.68054 0.61109 0.0
O48 O 0.90059 0.60168 0.60791 0.0
O49 O 0.83577 0.55448 0.63223 0.0
O50 O 0.98499 0.72166 0.6207 0.0
O51 O 0.93332 0.67078 0.6488 0.0
O52 O 0.81459 0.64363 0.65341 0.0
O53 O 0.87421 0.71153 0.63311 0.0
C54 C 0.86837 0.55711 0.61708 0.0
C55 C 0.83658 0.69205 0.64812 0.0
C56 C 0.1514 0.83596 0.81778 0.0
C57 C 0.31462 0.88919 0.77636 0.0
O58 O 0.15938 0.87043 0.80212 0.0
Zn59 Zn 0.22127 0.9156 0.77651 0.0
O60 O 0.18564 0.82243 0.82109 0.0
Zn61 Zn 0.23382 0.86579 0.79762 0.0
O62 O 0.26397 0.94428 0.81172 0.0
O63 O 0.24668 0.98723 0.78511 0.0
O64 O 0.29555 0.85976 0.79403 0.0
O65 O 0.29097 0.91202 0.76785 0.0
O66 O 0.18366 0.89413 0.74786 0.0
O67 O 0.18666 0.8297 0.76618 0.0
C68 C 0.26602 0.98674 0.80478 0.0
C69 C 0.1711 0.84612 0.74887 0.0
C70 C 0.29345 0.26887 0.96874 0.0
C71 C 0.35026 0.19327 0.90812 0.0
O72 O 0.33125 0.26267 0.97595 0.0
Zn73 Zn 0.38089 0.23545 0.96127 0.0
O74 O 0.2787 0.2585 0.94768 0.0
Zn75 Zn 0.32712 0.23621 0.93796 0.0
O76 O 0.30028 0.16318 0.95741 0.0
O77 O 0.36486 0.1778 0.98161 0.0
O78 O 0.3193 0.21148 0.90676 0.0
O79 O 0.37633 0.1997 0.92705 0.0
O80 O 0.45056 0.29505 0.96387 0.0
O81 O 0.40349 0.30688 0.93729 0.0
C82 C 0.31918 0.14721 0.97353 0.0
C83 C 0.44683 0.32383 0.94849 0.0
C84 C 0.67802 0.82451 0.69861 0.0
C85 C 0.57338 0.88974 0.73527 0.0
O86 O 0.70655 0.86388 0.71197 0.0
Zn87 Zn 0.69363 0.91713 0.73401 0.0
O88 O 0.62974 0.80986 0.69569 0.0
Zn89 Zn 0.6282 0.86052 0.71588 0.0
O90 O 0.67494 0.93286 0.69692 0.0
O91 O 0.73921 0.98506 0.72054 0.0
O92 O 0.56094 0.85537 0.71947 0.0
O93 O 0.6211 0.91547 0.74253 0.0
O94 O 0.714 0.90469 0.76382 0.0
O95 O 0.6441 0.83515 0.74917 0.0
C96 C 0.71664 0.97717 0.70093 0.0
C97 C 0.67858 0.85659 0.76542 0.0
C98 C 0.81539 0.69233 0.94221 0.0
C99 C 0.74196 0.73711 0.87682 0.0
O100 O 0.81198 0.66424 0.92436 0.0
Zn101 Zn 0.78033 0.65482 0.88899 0.0
O102 O 0.79717 0.72321 0.94106 0.0
Zn103 Zn 0.77476 0.70967 0.90948 0.0
O104 O 0.70643 0.63122 0.91129 0.0
O105 O 0.72337 0.58389 0.88675 0.0
O106 O 0.74877 0.75284 0.89778 0.0
O107 O 0.75165 0.70064 0.87094 0.0
O108 O 0.84068 0.66927 0.87117 0.0
O109 O 0.849 0.73852 0.89015 0.0
C110 C 0.69257 0.58719 0.90119 0.0
C111 C 0.86804 0.71766 0.87638 0.0
C112 C 0.17758 0.8697 0.03722 0.0
C113 C 0.12945 0.69844 0.069 0.0
O114 O 0.13884 0.85322 0.05152 0.0
Zn115 Zn 0.08972 0.78167 0.07095 0.0
O116 O 0.1959 0.84021 0.03162 0.0
Zn117 Zn 0.15067 0.78248 0.05158 0.0
O118 O 0.07737 0.74983 0.03322 0.0
O119 O 0.02078 0.75323 0.05726 0.0
O120 O 0.16342 0.72433 0.05344 0.0
O121 O 0.10008 0.71549 0.07702 0.0
O122 O 0.09849 0.80889 0.10178 0.0
O123 O 0.17219 0.81955 0.08617 0.0
C124 C 0.03084 0.74116 0.03744 0.0
C125 C 0.14769 0.82631 0.10323 0.0
C126 C 0.31963 0.04028 0.19875 0.0
C127 C 0.33755 0.14549 0.26684 0.0
O128 O 0.35411 0.08876 0.19499 0.0
Zn129 Zn 0.38907 0.16074 0.21583 0.0
O130 O 0.29954 0.02643 0.21889 0.0
Zn131 Zn 0.3342 0.09396 0.23315 0.0
O132 O 0.30305 0.1366 0.21344 0.0
O133 O 0.37301 0.20465 0.19793 0.0
O134 O 0.31199 0.09595 0.26431 0.0
O135 O 0.36774 0.17447 0.25035 0.0
O136 O 0.46233 0.18485 0.21796 0.0
O137 O 0.4148 0.1118 0.23777 0.0
C138 C 0.32358 0.17878 0.20107 0.0
C139 C 0.45989 0.14901 0.23096 0.0
C140 C 0.33056 0.43789 0.4004 0.0
C141 C 0.15562 0.32942 0.36876 0.0
O142 O 0.31317 0.3896 0.40589 0.0
Zn143 Zn 0.24024 0.31609 0.39976 0.0
O144 O 0.30174 0.44967 0.38848 0.0
Zn145 Zn 0.24251 0.3811 0.38496 0.0
O146 O 0.20744 0.36097 0.41956 0.0
O147 O 0.21435 0.29295 0.43057 0.0
O148 O 0.18692 0.3786 0.36729 0.0
O149 O 0.16972 0.30078 0.38006 0.0
O150 O 0.26277 0.27413 0.3838 0.0
O151 O 0.27065 0.34018 0.36264 0.0
C152 C 0.1999 0.32608 0.43488 0.0
C153 C 0.27574 0.29946 0.36478 0.0
C154 C 0.90032 0.31789 0.57192 0.0
C155 C 0.86005 0.15021 0.53799 0.0
O156 O 0.93541 0.30618 0.5776 0.0
Zn157 Zn 0.94678 0.23975 0.57196 0.0
O158 O 0.86153 0.28618 0.55952 0.0
Zn159 Zn 0.88061 0.23326 0.55551 0.0
O160 O 0.86522 0.19571 0.58917 0.0
O161 O 0.94191 0.21175 0.60279 0.0
O162 O 0.83528 0.1751 0.53616 0.0
O163 O 0.90178 0.16934 0.55061 0.0
O164 O 0.01412 0.2707 0.55719 0.0
O165 O 0.9527 0.27033 0.53495 0.0
C166 C 0.89249 0.19077 0.60535 0.0
C167 C 1.00051 0.28124 0.53787 0.0
H168 H 0.12769 0.61664 0.04608 0.0
H169 H 0.12353 0.67454 0.1147 0.0
H170 H 0.12364 0.59904 0.13243 0.0
H171 H 0.12882 0.51861 0.12838 0.0
H172 H 0.12422 0.45541 0.06003 0.0
H173 H 0.12296 0.53044 0.04207 0.0
C174 C 0.12657 0.61234 0.06489 0.0
C175 C 0.12621 0.65103 0.07916 0.0
C176 C 0.12493 0.56796 0.07493 0.0
C177 C 0.12386 0.64502 0.10347 0.0
C178 C 0.12403 0.60202 0.11359 0.0
C179 C 0.127 0.52116 0.10957 0.0
C180 C 0.127 0.48213 0.09546 0.0
C181 C 0.12507 0.56356 0.0995 0.0
C182 C 0.12403 0.48515 0.07114 0.0
C183 C 0.12364 0.52811 0.06092 0.0
H184 H 0.6859 0.20479 0.26467 0.0
H185 H 0.61443 0.03594 0.26337 0.0
H186 H 0.53051 0.0273 0.2512 0.0
H187 H 0.47756 0.0684 0.24074 0.0
H188 H 0.55258 0.23765 0.23919 0.0
H189 H 0.63487 0.24555 0.25272 0.0
C190 C 0.65188 0.16609 0.26179 0.0
C191 C 0.65611 0.12108 0.26506 0.0
C192 C 0.6044 0.16155 0.25428 0.0
C193 C 0.61204 0.07119 0.26092 0.0
C194 C 0.56408 0.06624 0.25403 0.0
C195 C 0.51199 0.10688 0.24345 0.0
C196 C 0.50909 0.15236 0.23907 0.0
C197 C 0.55978 0.1112 0.25064 0.0
C198 C 0.55401 0.20208 0.24234 0.0
C199 C 0.60103 0.20666 0.25013 0.0
H200 H 0.55656 0.59506 0.44197 0.0
H201 H 0.51105 0.70654 0.41991 0.0
H202 H 0.42931 0.63564 0.40362 0.0
H203 H 0.36907 0.5425 0.39744 0.0
H204 H 0.40955 0.42831 0.42131 0.0
H205 H 0.49481 0.49945 0.43519 0.0
C206 C 0.52881 0.60345 0.43332 0.0
C207 C 0.53945 0.65559 0.43192 0.0
C208 C 0.48095 0.56212 0.42457 0.0
C209 C 0.50329 0.66648 0.42106 0.0
C210 C 0.45663 0.62604 0.41182 0.0
C211 C 0.39655 0.53296 0.40554 0.0
C212 C 0.38291 0.48015 0.40833 0.0
C213 C 0.44475 0.57376 0.41376 0.0
C214 C 0.41902 0.46868 0.41901 0.0
C215 C 0.46779 0.50934 0.42693 0.0
H216 H 0.95063 0.54445 0.60407 0.0
H217 H 0.7819 0.46084 0.61248 0.0
H218 H 0.77677 0.37997 0.59846 0.0
H219 H 0.81999 0.33287 0.58376 0.0
H220 H 0.98919 0.41309 0.57878 0.0
H221 H 0.99468 0.49536 0.59156 0.0
C222 C 0.91287 0.50843 0.6028 0.0
C223 C 0.86668 0.50851 0.60915 0.0
C224 C 0.91036 0.46156 0.59537 0.0
C225 C 0.81798 0.46158 0.60776 0.0
C226 C 0.81499 0.41539 0.59969 0.0
C227 C 0.85803 0.36845 0.58544 0.0
C228 C 0.90408 0.36726 0.58014 0.0
C229 C 0.86087 0.41492 0.59343 0.0
C230 C 0.95322 0.41324 0.58277 0.0
C231 C 0.95633 0.46021 0.59002 0.0
H232 H 0.49126 0.88952 0.71389 0.0
H233 H 0.56342 0.90637 0.78113 0.0
H234 H 0.48964 0.9084 0.80002 0.0
H235 H 0.40185 0.89991 0.79745 0.0
H236 H 0.3336 0.89108 0.72995 0.0
H237 H 0.40866 0.89169 0.71099 0.0
C238 C 0.49092 0.89417 0.73265 0.0
C239 C 0.53221 0.89731 0.74618 0.0
C240 C 0.44904 0.89649 0.74328 0.0
C241 C 0.53198 0.90403 0.77041 0.0
C242 C 0.48973 0.9049 0.7812 0.0
C243 C 0.4038 0.89856 0.77859 0.0
C244 C 0.36227 0.89487 0.76506 0.0
C245 C 0.44765 0.90031 0.76784 0.0
C246 C 0.3653 0.89395 0.74065 0.0
C247 C 0.40803 0.8941 0.72984 0.0
H248 H 0.47794 0.37236 0.90656 0.0
H249 H 0.51776 0.39247 0.9796 0.0
H250 H 0.59483 0.47872 0.97173 0.0
H251 H 0.65341 0.54676 0.94371 0.0
H252 H 0.61944 0.52147 0.87026 0.0
H253 H 0.53753 0.43934 0.87848 0.0
C254 C 0.50335 0.39595 0.92072 0.0
C255 C 0.49225 0.37645 0.94361 0.0
C256 C 0.54863 0.44456 0.91593 0.0
C257 C 0.52578 0.40679 0.96182 0.0
C258 C 0.56973 0.45608 0.95734 0.0
C259 C 0.62756 0.52343 0.92961 0.0
C260 C 0.64169 0.54005 0.90648 0.0
C261 C 0.58186 0.47517 0.93444 0.0
C262 C 0.60887 0.50924 0.88821 0.0
C263 C 0.56222 0.46235 0.8929 0.0
H264 H 0.35391 0.27974 0.19217 0.0
H265 H 0.21974 0.12287 0.18822 0.0
H266 H 0.16747 0.15751 0.17039 0.0
H267 H 0.16127 0.2329 0.15505 0.0
H268 H 0.29536 0.38969 0.16147 0.0
H269 H 0.34632 0.35454 0.17929 0.0
C270 C 0.31323 0.25308 0.18736 0.0
C271 C 0.29079 0.19885 0.19118 0.0
C272 C 0.28348 0.27331 0.1776 0.0
C273 C 0.23779 0.16482 0.18535 0.0
C274 C 0.20803 0.1846 0.17513 0.0
C275 C 0.20159 0.25926 0.16042 0.0
C276 C 0.22459 0.31377 0.15683 0.0
C277 C 0.23062 0.23882 0.17103 0.0
C278 C 0.27667 0.3476 0.1641 0.0
C279 C 0.30595 0.32755 0.17422 0.0
H280 H 0.93904 0.26996 0.3218 0.0
H281 H 0.92872 0.11878 0.31603 0.0
H282 H 0.01352 0.1536 0.33589 0.0
H283 H 0.09134 0.22781 0.35463 0.0
H284 H 0.10222 0.37958 0.35821 0.0
H285 H 0.0165 0.34366 0.33959 0.0
C286 C 0.95521 0.24451 0.32495 0.0
C287 C 0.92752 0.19183 0.31754 0.0
C288 C 1.00417 0.26494 0.33601 0.0
C289 C 0.94933 0.15957 0.32152 0.0
C290 C 0.99776 0.17941 0.33293 0.0
C291 C 0.07472 0.25283 0.35141 0.0
C292 C 0.10307 0.30624 0.35782 0.0
C293 C 0.02562 0.23212 0.34023 0.0
C294 C 0.08135 0.33839 0.35334 0.0
C295 C 0.03226 0.31789 0.34272 0.0
H296 H 0.76205 0.08715 0.52116 0.0
H297 H 0.9135 0.09839 0.52801 0.0
H298 H 0.87966 0.01347 0.50824 0.0
H299 H 0.80565 0.93466 0.48959 0.0
H300 H 0.6536 0.92319 0.48546 0.0
H301 H 0.6891 0.00949 0.50339 0.0
C302 C 0.78781 0.07121 0.51824 0.0
C303 C 0.84021 0.09911 0.52596 0.0
C304 C 0.7679 0.02217 0.50732 0.0
C305 C 0.87288 0.07757 0.52228 0.0
C306 C 0.85359 0.02908 0.51094 0.0
C307 C 0.78059 0.95137 0.49253 0.0
C308 C 0.72713 0.92262 0.48624 0.0
C309 C 0.80102 1.00084 0.50344 0.0
C310 C 0.69482 0.94439 0.49032 0.0
C311 C 0.71505 0.9938 0.50053 0.0
H312 H 0.7358 0.66036 0.65871 0.0
H313 H 0.89149 0.79687 0.65861 0.0
H314 H 0.8563 0.85055 0.67446 0.0
H315 H 0.78071 0.85798 0.68851 0.0
H316 H 0.6245 0.72203 0.6854 0.0
H317 H 0.66032 0.6688 0.67044 0.0
C318 C 0.76203 0.70181 0.66232 0.0
C319 C 0.81614 0.72464 0.65789 0.0
C320 C 0.74133 0.73249 0.67067 0.0
C321 C 0.84967 0.77856 0.66205 0.0
C322 C 0.82956 0.80916 0.67108 0.0
C323 C 0.75461 0.81675 0.68447 0.0
C324 C 0.7001 0.7939 0.68812 0.0
C325 C 0.7754 0.7865 0.67546 0.0
C326 C 0.66658 0.74059 0.68261 0.0
C327 C 0.68703 0.71004 0.67418 0.0
H328 H 0.93646 0.68424 0.86769 0.0
H329 H 0.91958 0.8213 0.86367 0.0
H330 H 1.00642 0.87086 0.84509 0.0
H331 H 0.08586 0.8736 0.82865 0.0
H332 H 0.1039 0.73744 0.83565 0.0
H333 H 0.01804 0.68916 0.85448 0.0
C334 C 0.95193 0.72503 0.86279 0.0
C335 C 0.92166 0.74903 0.86673 0.0
C336 C 1.00203 0.75333 0.85264 0.0
C337 C 0.94234 0.80211 0.86074 0.0
C338 C 0.99182 0.83031 0.85007 0.0
C339 C 0.07097 0.83346 0.83443 0.0
C340 C 0.10099 0.80899 0.83064 0.0
C341 C 0.02182 0.80613 0.84572 0.0
C342 C 0.08163 0.7572 0.83844 0.0
C343 C 0.03244 0.72946 0.84913 0.0
H344 H 0.19885 0.90309 0.99246 0.0
H345 H 0.21279 0.95744 0.06333 0.0
H346 H 0.25913 0.04896 0.05001 0.0
H347 H 0.29725 0.11353 0.01809 0.0
H348 H 0.27475 0.05925 0.94694 0.0
H349 H 0.22996 0.96765 0.96026 0.0
C350 C 0.21202 0.93517 1.00486 0.0
C351 C 0.20311 0.92413 0.02876 0.0
C352 C 0.23695 0.98747 0.997 0.0
C353 C 0.21941 0.9655 0.04481 0.0
C354 C 0.24594 0.01765 0.03723 0.0
C355 C 0.2822 0.08145 1.0056 0.0
C356 C 0.28929 0.09255 0.98167 0.0
C357 C 0.25514 0.02912 0.01337 0.0
C358 C 0.26932 0.05114 0.96548 0.0
C359 C 0.24399 0.99895 0.97308 0.0
H360 H 0.1341 0.29312 0.03389 0.0
H361 H 0.27211 0.37088 0.07745 0.0
H362 H 0.32451 0.35969 0.04725 0.0
H363 H 0.32955 0.32232 0.00952 0.0
H364 H 0.19251 0.24851 0.96519 0.0
H365 H 0.14142 0.26404 0.99451 0.0
C366 C 0.17575 0.30801 0.03665 0.0
C367 C 0.19912 0.33232 0.05792 0.0
C368 C 0.20575 0.30199 0.01912 0.0
C369 C 0.25326 0.35208 0.06119 0.0
C370 C 0.28318 0.34548 0.04398 0.0
C371 C 0.28863 0.31009 0.00622 0.0
C372 C 0.2647 0.28386 0.98534 0.0
C373 C 0.25963 0.31967 0.02305 0.0
C374 C 0.21186 0.26882 0.98113 0.0
C375 C 0.18253 0.27746 0.99793 0.0
H376 H 0.90372 0.23601 0.2316 0.0
H377 H 0.83241 0.08403 0.19808 0.0
H378 H 0.88851 0.12329 0.16393 0.0
H379 H 0.96159 0.19973 0.14462 0.0
H380 H 0.03661 0.35054 0.17924 0.0
H381 H 0.97507 0.31291 0.21182 0.0
C382 C 0.90002 0.21156 0.21672 0.0
C383 C 0.86394 0.15715 0.2174 0.0
C384 C 0.93325 0.23418 0.19736 0.0
C385 C 0.86001 0.12597 0.19805 0.0
C386 C 0.89208 0.1484 0.1785 0.0
C387 C 0.96402 0.22452 0.15915 0.0
C388 C 1.00361 0.27787 0.15949 0.0
C389 C 0.92938 0.20231 0.17811 0.0
C390 C 1.0066 0.30932 0.17858 0.0
C391 C 0.97146 0.28782 0.19723 0.0
H392 H 0.73592 0.93422 0.31091 0.0
H393 H 0.70876 0.04409 0.34984 0.0
H394 H 0.68461 0.98736 0.38421 0.0
H395 H 0.67932 0.91025 0.40421 0.0
H396 H 0.71382 0.80536 0.36544 0.0
H397 H 0.72632 0.85597 0.32996 0.0
C398 C 0.72404 0.94554 0.32679 0.0
C399 C 0.72441 0.99346 0.32781 0.0
C400 C 0.71169 0.91358 0.34659 0.0
C401 C 0.70908 1.0075 0.34861 0.0
C402 C 0.69532 0.9751 0.36828 0.0
C403 C 0.6886 0.89812 0.38786 0.0
C404 C 0.69571 0.85431 0.38734 0.0
C405 C 0.69762 0.92859 0.36764 0.0
C406 C 0.70844 0.83918 0.3662 0.0
C407 C 0.71566 0.8681 0.34594 0.0
H408 H 0.87855 0.69984 0.53715 0.0
H409 H 0.74703 0.64588 0.58435 0.0
H410 H 0.69781 0.66391 0.55498 0.0
H411 H 0.69478 0.70086 0.51656 0.0
H412 H 0.82675 0.75217 0.46959 0.0
H413 H 0.87278 0.72932 0.49813 0.0
C414 C 0.8389 0.69152 0.54094 0.0
C415 C 0.81666 0.67192 0.56291 0.0
C416 C 0.81093 0.70192 0.52404 0.0
C417 C 0.76502 0.66083 0.56749 0.0
C418 C 0.73697 0.67146 0.55076 0.0
C419 C 0.73343 0.70669 0.51256 0.0
C420 C 0.75729 0.72863 0.49101 0.0
C421 C 0.75992 0.69296 0.52909 0.0
C422 C 0.80728 0.73545 0.48602 0.0
C423 C 0.83386 0.72247 0.50236 0.0
H424 H 0.16982 0.86703 0.70323 0.0
H425 H 0.09431 0.74327 0.75405 0.0
H426 H 0.0289 0.68692 0.72496 0.0
H427 H 0.98912 0.67623 0.68577 0.0
H428 H 0.06884 0.79977 0.6349 0.0
H429 H 0.13677 0.85241 0.66319 0.0
C430 C 0.13936 0.82746 0.70783 0.0
C431 C 0.1364 0.80942 0.73072 0.0
C432 C 0.10248 0.79533 0.69102 0.0
C433 C 0.09732 0.7579 0.73646 0.0
C434 C 0.05979 0.72584 0.71988 0.0
C435 C 0.02172 0.71438 0.68083 0.0
C436 C 0.02343 0.73415 0.65829 0.0
C437 C 0.06131 0.74459 0.69721 0.0
C438 C 0.06631 0.78346 0.65209 0.0
C439 C 0.10521 0.81384 0.6683 0.0
H440 H 0.31782 0.18805 0.86351 0.0
H441 H 0.38003 0.11903 0.91085 0.0
H442 H 0.36256 0.05026 0.88229 0.0
H443 H 0.32084 1.00459 0.84549 0.0
H444 H 0.25907 0.07477 0.79843 0.0
H445 H 0.28526 0.14809 0.82522 0.0
C446 C 0.32839 0.15848 0.86743 0.0
C447 C 0.34979 0.15845 0.88933 0.0
C448 C 0.31768 0.11878 0.85108 0.0
C449 C 0.3637 0.12012 0.89408 0.0
C450 C 0.35327 0.08047 0.87783 0.0
C451 C 0.31359 0.03619 0.841 0.0
C452 C 0.28735 0.0337 0.8201 0.0
C453 C 0.32885 0.07854 0.85653 0.0
C454 C 0.27887 0.07537 0.81443 0.0
C455 C 0.29378 0.1174 0.82977 0.0
H456 H 0.71495 0.89004 0.80907 0.0
H457 H 0.64574 0.75186 0.7654 0.0
H458 H 0.65796 0.70157 0.79626 0.0
H459 H 0.69374 0.69878 0.8349 0.0
H460 H 0.75821 0.83629 0.87905 0.0
H461 H 0.74225 0.88479 0.84886 0.0
C462 C 0.7021 0.84877 0.80642 0.0
C463 C 0.6799 0.82475 0.78499 0.0
C464 C 0.70867 0.82006 0.82429 0.0
C465 C 0.66279 0.77112 0.78183 0.0
C466 C 0.67006 0.74246 0.7994 0.0
C467 C 0.70388 0.73922 0.83792 0.0
C468 C 0.72751 0.76402 0.85908 0.0
C469 C 0.69379 0.76678 0.82058 0.0
C470 C 0.73989 0.81624 0.86292 0.0
C471 C 0.73097 0.84413 0.84563 0.0
H472 H 0.89529 0.67126 0.9453 0.0
H473 H 0.80116 0.7163 0.98638 0.0
H474 H 0.85673 0.73028 0.02033 0.0
H475 H 0.93687 0.73814 0.03721 0.0
H476 H 0.03477 0.69896 0.9955 0.0
H477 H 0.97294 0.67403 0.96306 0.0
C478 C 0.8864 0.6831 0.96183 0.0
C479 C 0.84427 0.6928 0.96335 0.0
C480 C 0.9196 0.69275 0.98111 0.0
C481 C 0.83355 0.70881 0.98477 0.0
C482 C 0.86537 0.71694 1.00417 0.0
C483 C 0.94436 0.72347 0.02114 0.0
C484 C 0.99056 0.72076 0.01877 0.0
C485 C 0.9093 0.71038 1.00237 0.0
C486 C 0.99969 0.7018 0.99777 0.0
C487 C 0.96434 0.68753 0.97918 0.0
H488 H 0.24773 0.90916 0.10509 0.0
H489 H 0.11169 0.81234 0.14769 0.0
H490 H 0.15566 0.86732 0.18162 0.0
H491 H 0.22943 0.94621 0.19838 0.0
H492 H 0.36287 0.04835 0.15541 0.0
H493 H 0.32352 0.98786 0.12243 0.0
C494 C 0.22821 0.89976 0.12192 0.0
C495 C 0.17669 0.85674 0.12398 0.0
C496 C 0.25309 0.93267 0.14119 0.0
C497 C 0.15131 0.84536 0.14573 0.0
C498 C 0.1764 0.87677 0.1651 0.0
C499 C 0.25038 0.955 0.18191 0.0
C500 C 0.29909 1.00171 0.17938 0.0
C501 C 0.22683 0.92104 0.16292 0.0
C502 C 0.3253 0.01268 0.15781 0.0
C503 C 0.30278 0.97815 0.13895 0.0
H504 H 0.35326 0.24438 0.27167 0.0
H505 H 0.30265 0.0997 0.30925 0.0
H506 H 0.28199 0.13601 0.34329 0.0
H507 H 0.27378 0.20659 0.36157 0.0
H508 H 0.31944 0.34979 0.32358 0.0
H509 H 0.34662 0.31632 0.29048 0.0
C510 C 0.33836 0.22112 0.28743 0.0
C511 C 0.32959 0.16948 0.28798 0.0
C512 C 0.32529 0.24178 0.30676 0.0
C513 C 0.30962 0.1395 0.30839 0.0
C514 C 0.29774 0.1602 0.32784 0.0
C515 C 0.29004 0.23076 0.34614 0.0
C516 C 0.29452 0.28063 0.34506 0.0
C517 C 0.30468 0.21095 0.32709 0.0
C518 C 0.3154 0.31119 0.32484 0.0
C519 C 0.33098 0.29209 0.30592 0.0
H520 H 0.12502 0.3528 0.44267 0.0
H521 H 0.21265 0.29005 0.47644 0.0
H522 H 0.16213 0.27601 0.51223 0.0
H523 H 0.08878 0.27503 0.53285 0.0
H524 H 0.99545 0.33025 0.49827 0.0
H525 H 0.05258 0.35416 0.46395 0.0
C526 C 0.13347 0.33679 0.458 0.0
C527 C 0.17247 0.32251 0.45698 0.0
C528 C 0.10302 0.32718 0.4783 0.0
C529 C 0.18263 0.30111 0.47682 0.0
C530 C 0.15377 0.29308 0.49727 0.0
C531 C 0.08138 0.29305 0.51795 0.0
C532 C 0.03802 0.30096 0.51812 0.0
C533 C 0.11324 0.30502 0.49806 0.0
C534 C 0.02856 0.32369 0.49854 0.0
C535 C 0.06115 0.33728 0.47891 0.0
H536 H 0.81686 0.05948 0.69854 0.0
H537 H 0.66954 0.98396 0.66112 0.0
H538 H 0.71022 0.0459 0.62891 0.0
H539 H 0.78878 0.11831 0.61047 0.0
H540 H 0.93731 0.19014 0.64692 0.0
H541 H 0.89495 0.13298 0.68045 0.0
C542 C 0.79347 0.05694 0.68346 0.0
C543 C 0.74021 0.01719 0.68226 0.0
C544 C 0.81743 0.09185 0.66477 0.0
C545 C 0.71064 0.0141 0.66247 0.0
C546 C 0.73388 0.04948 0.64403 0.0
C547 C 0.81179 0.12185 0.62585 0.0
C548 C 0.86614 0.15848 0.6262 0.0
C549 C 0.78742 0.08805 0.64486 0.0
C550 C 0.89547 0.16216 0.64617 0.0
C551 C 0.87127 0.1295 0.66535 0.0
loop_
_geom_bond_atom_site_label_1
_geom_bond_atom_site_label_2
_geom_bond_distance
_geom_bond_site_symmetry_2
_ccdc_geom_bond_type
C0 O2 1.247 . S
C0 O4 1.258 . S
C1 O8 1.247 . S
C1 O9 1.258 . S
O2 C0 1.247 . S
O2 Zn3 2.028 . S
Zn3 O2 2.028 . S
Zn3 O7 2.035 . S
Zn3 O9 2.035 . S
Zn3 O10 2.028 . S
O4 C0 1.258 . S
O4 Zn5 2.035 . S
Zn5 O4 2.035 . S
Zn5 O6 2.028 . S
Zn5 O8 2.028 . S
Zn5 O11 2.035 . S
O6 Zn5 2.028 . S
O6 C12 1.247 . S
O7 Zn3 2.035 . S
O7 C12 1.258 . S
O8 C1 1.247 . S
O8 Zn5 2.028 . S
O9 C1 1.258 . S
O9 Zn3 2.035 . S
O10 Zn3 2.028 . S
O10 C13 1.247 . S
O11 Zn5 2.035 . S
O11 C13 1.258 . S
C12 O6 1.247 . S
C12 O7 1.258 . S
C13 O10 1.247 . S
C13 O11 1.258 . S
C14 O16 1.247 . S
C14 O18 1.258 . S
C15 O22 1.247 . S
C15 O23 1.258 . S
O16 C14 1.247 . S
O16 Zn17 2.028 . S
Zn17 O16 2.028 . S
Zn17 O21 2.035 . S
Zn17 O23 2.035 . S
Zn17 O24 2.028 . S
O18 C14 1.258 . S
O18 Zn19 2.035 . S
Zn19 O18 2.035 . S
Zn19 O20 2.028 . S
Zn19 O22 2.028 . S
Zn19 O25 2.035 . S
O20 Zn19 2.028 . S
O20 C26 1.247 . S
O21 Zn17 2.035 . S
O21 C26 1.258 . S
O22 C15 1.247 . S
O22 Zn19 2.028 . S
O23 C15 1.258 . S
O23 Zn17 2.035 . S
O24 Zn17 2.028 . S
O24 C27 1.247 . S
O25 Zn19 2.035 . S
O25 C27 1.258 . S
C26 O20 1.247 . S
C26 O21 1.258 . S
C27 O24 1.247 . S
C27 O25 1.258 . S
C28 O30 1.247 . S
C28 O32 1.258 . S
C29 O36 1.247 . S
C29 O37 1.258 . S
O30 C28 1.247 . S
O30 Zn31 2.028 . S
Zn31 O30 2.028 . S
Zn31 O35 2.035 . S
Zn31 O37 2.035 . S
Zn31 O38 2.028 . S
O32 C28 1.258 . S
O32 Zn33 2.035 . S
Zn33 O32 2.035 . S
Zn33 O34 2.028 . S
Zn33 O36 2.028 . S
Zn33 O39 2.035 . S
O34 Zn33 2.028 . S
O34 C40 1.247 . S
O35 Zn31 2.035 . S
O35 C40 1.258 . S
O36 C29 1.247 . S
O36 Zn33 2.028 . S
O37 C29 1.258 . S
O37 Zn31 2.035 . S
O38 Zn31 2.028 . S
O38 C41 1.247 . S
O39 Zn33 2.035 . S
O39 C41 1.258 . S
C40 O34 1.247 . S
C40 O35 1.258 . S
C41 O38 1.247 . S
C41 O39 1.258 . S
C42 O44 1.247 . S
C42 O46 1.258 . S
C43 O50 1.247 . S
C43 O51 1.258 . S
O44 C42 1.247 . S
O44 Zn45 2.028 . S
Zn45 O44 2.028 . S
Zn45 O49 2.035 . S
Zn45 O51 2.035 . S
Zn45 O52 2.028 . S
O46 C42 1.258 . S
O46 Zn47 2.035 . S
Zn47 O46 2.035 . S
Zn47 O48 2.028 . S
Zn47 O50 2.028 . S
Zn47 O53 2.035 . S
O48 Zn47 2.028 . S
O48 C54 1.247 . S
O49 Zn45 2.035 . S
O49 C54 1.258 . S
O50 C43 1.247 . S
O50 Zn47 2.028 . S
O51 C43 1.258 . S
O51 Zn45 2.035 . S
O52 Zn45 2.028 . S
O52 C55 1.247 . S
O53 Zn47 2.035 . S
O53 C55 1.258 . S
C54 O48 1.247 . S
C54 O49 1.258 . S
C55 O52 1.247 . S
C55 O53 1.258 . S
C56 O58 1.247 . S
C56 O60 1.258 . S
C57 O64 1.247 . S
C57 O65 1.258 . S
O58 C56 1.247 . S
O58 Zn59 2.028 . S
Zn59 O58 2.028 . S
Zn59 O63 2.035 . S
Zn59 O65 2.035 . S
Zn59 O66 2.028 . S
O60 C56 1.258 . S
O60 Zn61 2.035 . S
Zn61 O60 2.035 . S
Zn61 O62 2.028 . S
Zn61 O64 2.028 . S
Zn61 O67 2.035 . S
O62 Zn61 2.028 . S
O62 C68 1.247 . S
O63 Zn59 2.035 . S
O63 C68 1.258 . S
O64 C57 1.247 . S
O64 Zn61 2.028 . S
O65 C57 1.258 . S
O65 Zn59 2.035 . S
O66 Zn59 2.028 . S
O66 C69 1.247 . S
O67 Zn61 2.035 . S
O67 C69 1.258 . S
C68 O62 1.247 . S
C68 O63 1.258 . S
C69 O66 1.247 . S
C69 O67 1.258 . S
C70 O72 1.247 . S
C70 O74 1.258 . S
C71 O78 1.247 . S
C71 O79 1.258 . S
O72 C70 1.247 . S
O72 Zn73 2.028 . S
Zn73 O72 2.028 . S
Zn73 O77 2.035 . S
Zn73 O79 2.035 . S
Zn73 O80 2.028 . S
O74 C70 1.258 . S
O74 Zn75 2.035 . S
Zn75 O74 2.035 . S
Zn75 O76 2.028 . S
Zn75 O78 2.028 . S
Zn75 O81 2.035 . S
O76 Zn75 2.028 . S
O76 C82 1.247 . S
O77 Zn73 2.035 . S
O77 C82 1.258 . S
O78 C71 1.247 . S
O78 Zn75 2.028 . S
O79 C71 1.258 . S
O79 Zn73 2.035 . S
O80 Zn73 2.028 . S
O80 C83 1.247 . S
O81 Zn75 2.035 . S
O81 C83 1.258 . S
C82 O76 1.247 . S
C82 O77 1.258 . S
C83 O80 1.247 . S
C83 O81 1.258 . S
C84 O86 1.247 . S
C84 O88 1.258 . S
C85 O92 1.247 . S
C85 O93 1.258 . S
O86 C84 1.247 . S
O86 Zn87 2.028 . S
Zn87 O86 2.028 . S
Zn87 O91 2.035 . S
Zn87 O93 2.035 . S
Zn87 O94 2.028 . S
O88 C84 1.258 . S
O88 Zn89 2.035 . S
Zn89 O88 2.035 . S
Zn89 O90 2.028 . S
Zn89 O92 2.028 . S
Zn89 O95 2.035 . S
O90 Zn89 2.028 . S
O90 C96 1.247 . S
O91 Zn87 2.035 . S
O91 C96 1.258 . S
O92 C85 1.247 . S
O92 Zn89 2.028 . S
O93 C85 1.258 . S
O93 Zn87 2.035 . S
O94 Zn87 2.028 . S
O94 C97 1.247 . S
O95 Zn89 2.035 . S
O95 C97 1.258 . S
C96 O90 1.247 . S
C96 O91 1.258 . S
C97 O94 1.247 . S
C97 O95 1.258 . S
C98 O100 1.247 . S
C98 O102 1.258 . S
C99 O106 1.247 . S
C99 O107 1.258 . S
O100 C98 1.247 . S
O100 Zn101 2.028 . S
Zn101 O100 2.028 . S
Zn101 O105 2.035 . S
Zn101 O107 2.035 . S
Zn101 O108 2.028 . S
O102 C98 1.258 . S
O102 Zn103 2.035 . S
Zn103 O102 2.035 . S
Zn103 O104 2.028 . S
Zn103 O106 2.028 . S
Zn103 O109 2.035 . S
O104 Zn103 2.028 . S
O104 C110 1.247 . S
O105 Zn101 2.035 . S
O105 C110 1.258 . S
O106 C99 1.247 . S
O106 Zn103 2.028 . S
O107 C99 1.258 . S
O107 Zn101 2.035 . S
O108 Zn101 2.028 . S
O108 C111 1.247 . S
O109 Zn103 2.035 . S
O109 C111 1.258 . S
C110 O104 1.247 . S
C110 O105 1.258 . S
C111 O108 1.247 . S
C111 O109 1.258 . S
C112 O114 1.247 . S
C112 O116 1.258 . S
C113 O120 1.247 . S
C113 O121 1.258 . S
O114 C112 1.247 . S
O114 Zn115 2.028 . S
Zn115 O114 2.028 . S
Zn115 O119 2.035 . S
Zn115 O121 2.035 . S
Zn115 O122 2.028 . S
O116 C112 1.258 . S
O116 Zn117 2.035 . S
Zn117 O116 2.035 . S
Zn117 O118 2.028 . S
Zn117 O120 2.028 . S
Zn117 O123 2.035 . S
O118 Zn117 2.028 . S
O118 C124 1.247 . S
O119 Zn115 2.035 . S
O119 C124 1.258 . S
O120 C113 1.247 . S
O120 Zn117 2.028 . S
O121 C113 1.258 . S
O121 Zn115 2.035 . S
O122 Zn115 2.028 . S
O122 C125 1.247 . S
O123 Zn117 2.035 . S
O123 C125 1.258 . S
C124 O118 1.247 . S
C124 O119 1.258 . S
C125 O122 1.247 . S
C125 O123 1.258 . S
C126 O128 1.247 . S
C126 O130 1.258 . S
C127 O134 1.247 . S
C127 O135 1.258 . S
O128 C126 1.247 . S
O128 Zn129 2.028 . S
Zn129 O128 2.028 . S
Zn129 O133 2.035 . S
Zn129 O135 2.035 . S
Zn129 O136 2.028 . S
O130 C126 1.258 . S
O130 Zn131 2.035 . S
Zn131 O130 2.035 . S
Zn131 O132 2.028 . S
Zn131 O134 2.028 . S
Zn131 O137 2.035 . S
O132 Zn131 2.028 . S
O132 C138 1.247 . S
O133 Zn129 2.035 . S
O133 C138 1.258 . S
O134 C127 1.247 . S
O134 Zn131 2.028 . S
O135 C127 1.258 . S
O135 Zn129 2.035 . S
O136 Zn129 2.028 . S
O136 C139 1.247 . S
O137 Zn131 2.035 . S
O137 C139 1.258 . S
C138 O132 1.247 . S
C138 O133 1.258 . S
C139 O136 1.247 . S
C139 O137 1.258 . S
C140 O142 1.247 . S
C140 O144 1.258 . S
C141 O148 1.247 . S
C141 O149 1.258 . S
O142 C140 1.247 . S
O142 Zn143 2.028 . S
Zn143 O142 2.028 . S
Zn143 O147 2.035 . S
Zn143 O149 2.035 . S
Zn143 O150 2.028 . S
O144 C140 1.258 . S
O144 Zn145 2.035 . S
Zn145 O144 2.035 . S
Zn145 O146 2.028 . S
Zn145 O148 2.028 . S
Zn145 O151 2.035 . S
O146 Zn145 2.028 . S
O146 C152 1.247 . S
O147 Zn143 2.035 . S
O147 C152 1.258 . S
O148 C141 1.247 . S
O148 Zn145 2.028 . S
O149 C141 1.258 . S
O149 Zn143 2.035 . S
O150 Zn143 2.028 . S
O150 C153 1.247 . S
O151 Zn145 2.035 . S
O151 C153 1.258 . S
C152 O146 1.247 . S
C152 O147 1.258 . S
C153 O150 1.247 . S
C153 O151 1.258 . S
C154 O156 1.247 . S
C154 O158 1.258 . S
C155 O162 1.247 . S
C155 O163 1.258 . S
O156 C154 1.247 . S
O156 Zn157 2.028 . S
Zn157 O156 2.028 . S
Zn157 O161 2.035 . S
Zn157 O163 2.035 . S
Zn157 O164 2.028 . S
O158 C154 1.258 . S
O158 Zn159 2.035 . S
Zn159 O158 2.035 . S
Zn159 O160 2.028 . S
Zn159 O162 2.028 . S
Zn159 O165 2.035 . S
O160 Zn159 2.028 . S
O160 C166 1.247 . S
O161 Zn157 2.035 . S
O161 C166 1.258 . S
O162 C155 1.247 . S
O162 Zn159 2.028 . S
O163 C155 1.258 . S
O163 Zn157 2.035 . S
O164 Zn157 2.028 . S
O164 C167 1.247 . S
O165 Zn159 2.035 . S
O165 C167 1.258 . S
C166 O160 1.247 . S
C166 O161 1.258 . S
C167 O164 1.247 . S
C167 O165 1.258 . S
H168 C174 0.930 . S
H169 C177 0.930 . S
H170 C178 0.930 . S
H171 C179 0.930 . S
H172 C182 0.930 . S
H173 C183 0.930 . S
C174 H168 0.930 . S
C174 C175 1.355 . S
C174 C176 1.415 . S
C175 C174 1.355 . S
C175 C177 1.419 . S
C176 C174 1.415 . S
C176 C181 1.425 . S
C176 C183 1.409 . S
C177 H169 0.930 . S
C177 C175 1.419 . S
C177 C178 1.362 . S
C178 H170 0.930 . S
C178 C177 1.362 . S
C178 C181 1.409 . S
C179 H171 0.930 . S
C179 C180 1.355 . S
C179 C181 1.415 . S
C180 C179 1.355 . S
C180 C182 1.419 . S
C181 C176 1.425 . S
C181 C178 1.409 . S
C181 C179 1.415 . S
C182 H172 0.930 . S
C182 C180 1.419 . S
C182 C183 1.362 . S
C183 H173 0.930 . S
C183 C176 1.409 . S
C183 C182 1.362 . S
H184 C190 0.930 . S
H185 C193 0.930 . S
H186 C194 0.930 . S
H187 C195 0.930 . S
H188 C198 0.930 . S
H189 C199 0.930 . S
C190 H184 0.930 . S
C190 C191 1.355 . S
C190 C192 1.415 . S
C191 C190 1.355 . S
C191 C193 1.419 . S
C192 C190 1.415 . S
C192 C197 1.425 . S
C192 C199 1.409 . S
C193 H185 0.930 . S
C193 C191 1.419 . S
C193 C194 1.362 . S
C194 H186 0.930 . S
C194 C193 1.362 . S
C194 C197 1.409 . S
C195 H187 0.930 . S
C195 C196 1.355 . S
C195 C197 1.415 . S
C196 C195 1.355 . S
C196 C198 1.419 . S
C197 C192 1.425 . S
C197 C194 1.409 . S
C197 C195 1.415 . S
C198 H188 0.930 . S
C198 C196 1.419 . S
C198 C199 1.362 . S
C199 H189 0.930 . S
C199 C192 1.409 . S
C199 C198 1.362 . S
H200 C206 0.930 . S
H201 C209 0.930 . S
H202 C210 0.930 . S
H203 C211 0.930 . S
H204 C214 0.930 . S
H205 C215 0.930 . S
C206 H200 0.930 . S
C206 C207 1.355 . S
C206 C208 1.415 . S
C207 C206 1.355 . S
C207 C209 1.419 . S
C208 C206 1.415 . S
C208 C213 1.425 . S
C208 C215 1.409 . S
C209 H201 0.930 . S
C209 C207 1.419 . S
C209 C210 1.362 . S
C210 H202 0.930 . S
C210 C209 1.362 . S
C210 C213 1.409 . S
C211 H203 0.930 . S
C211 C212 1.355 . S
C211 C213 1.415 . S
C212 C211 1.355 . S
C212 C214 1.419 . S
C213 C208 1.425 . S
C213 C210 1.409 . S
C213 C211 1.415 . S
C214 H204 0.930 . S
C214 C212 1.419 . S
C214 C215 1.362 . S
C215 H205 0.930 . S
C215 C208 1.409 . S
C215 C214 1.362 . S
H216 C222 0.930 . S
H217 C225 0.930 . S
H218 C226 0.930 . S
H219 C227 0.930 . S
H220 C230 0.930 . S
H221 C231 0.930 . S
C222 H216 0.930 . S
C222 C223 1.355 . S
C222 C224 1.415 . S
C223 C222 1.355 . S
C223 C225 1.419 . S
C224 C222 1.415 . S
C224 C229 1.425 . S
C224 C231 1.409 . S
C225 H217 0.930 . S
C225 C223 1.419 . S
C225 C226 1.362 . S
C226 H218 0.930 . S
C226 C225 1.362 . S
C226 C229 1.409 . S
C227 H219 0.930 . S
C227 C228 1.355 . S
C227 C229 1.415 . S
C228 C227 1.355 . S
C228 C230 1.419 . S
C229 C224 1.425 . S
C229 C226 1.409 . S
C229 C227 1.415 . S
C230 H220 0.930 . S
C230 C228 1.419 . S
C230 C231 1.362 . S
C231 H221 0.930 . S
C231 C224 1.409 . S
C231 C230 1.362 . S
H232 C238 0.930 . S
H233 C241 0.930 . S
H234 C242 0.930 . S
H235 C243 0.930 . S
H236 C246 0.930 . S
H237 C247 0.930 . S
C238 H232 0.930 . S
C238 C239 1.355 . S
C238 C240 1.415 . S
C239 C238 1.355 . S
C239 C241 1.419 . S
C240 C238 1.415 . S
C240 C245 1.425 . S
C240 C247 1.409 . S
C241 H233 0.930 . S
C241 C239 1.419 . S
C241 C242 1.362 . S
C242 H234 0.930 . S
C242 C241 1.362 . S
C242 C245 1.409 . S
C243 H235 0.930 . S
C243 C244 1.355 . S
C243 C245 1.415 . S
C244 C243 1.355 . S
C244 C246 1.419 . S
C245 C240 1.425 . S
C245 C242 1.409 . S
C245 C243 1.415 . S
C246 H236 0.930 . S
C246 C244 1.419 . S
C246 C247 1.362 . S
C247 H237 0.930 . S
C247 C240 1.409 . S
C247 C246 1.362 . S
H248 C254 0.930 . S
H249 C257 0.930 . S
H250 C258 0.930 . S
H251 C259 0.930 . S
H252 C262 0.930 . S
H253 C263 0.930 . S
C254 H248 0.930 . S
C254 C255 1.355 . S
C254 C256 1.415 . S
C255 C254 1.355 . S
C255 C257 1.419 . S
C256 C254 1.415 . S
C256 C261 1.425 . S
C256 C263 1.409 . S
C257 H249 0.930 . S
C257 C255 1.419 . S
C257 C258 1.362 . S
C258 H250 0.930 . S
C258 C257 1.362 . S
C258 C261 1.409 . S
C259 H251 0.930 . S
C259 C260 1.355 . S
C259 C261 1.415 . S
C260 C259 1.355 . S
C260 C262 1.419 . S
C261 C256 1.425 . S
C261 C258 1.409 . S
C261 C259 1.415 . S
C262 H252 0.930 . S
C262 C260 1.419 . S
C262 C263 1.362 . S
C263 H253 0.930 . S
C263 C256 1.409 . S
C263 C262 1.362 . S
H264 C270 0.930 . S
H265 C273 0.930 . S
H266 C274 0.930 . S
H267 C275 0.930 . S
H268 C278 0.930 . S
H269 C279 0.930 . S
C270 H264 0.930 . S
C270 C271 1.355 . S
C270 C272 1.415 . S
C271 C270 1.355 . S
C271 C273 1.419 . S
C272 C270 1.415 . S
C272 C277 1.425 . S
C272 C279 1.409 . S
C273 H265 0.930 . S
C273 C271 1.419 . S
C273 C274 1.362 . S
C274 H266 0.930 . S
C274 C273 1.362 . S
C274 C277 1.409 . S
C275 H267 0.930 . S
C275 C276 1.355 . S
C275 C277 1.415 . S
C276 C275 1.355 . S
C276 C278 1.419 . S
C277 C272 1.425 . S
C277 C274 1.409 . S
C277 C275 1.415 . S
C278 H268 0.930 . S
C278 C276 1.419 . S
C278 C279 1.362 . S
C279 H269 0.930 . S
C279 C272 1.409 . S
C279 C278 1.362 . S
H280 C286 0.930 . S
H281 C289 0.930 . S
H282 C290 0.930 . S
H283 C291 0.930 . S
H284 C294 0.930 . S
H285 C295 0.930 . S
C286 H280 0.930 . S
C286 C287 1.355 . S
C286 C288 1.415 1_655 S
C287 C286 1.355 . S
C287 C289 1.419 . S
C288 C286 1.415 1_455 S
C288 C293 1.425 1_455 S
C288 C295 1.409 . S
C289 H281 0.930 . S
C289 C287 1.419 . S
C289 C290 1.362 . S
C290 H282 0.930 . S
C290 C289 1.362 . S
C290 C293 1.409 . S
C291 H283 0.930 . S
C291 C292 1.355 . S
C291 C293 1.415 1_455 S
C292 C291 1.355 . S
C292 C294 1.419 . S
C293 C288 1.425 1_655 S
C293 C290 1.409 . S
C293 C291 1.415 1_655 S
C294 H284 0.930 . S
C294 C292 1.419 . S
C294 C295 1.362 . S
C295 H285 0.930 . S
C295 C288 1.409 . S
C295 C294 1.362 . S
H296 C302 0.930 . S
H297 C305 0.930 . S
H298 C306 0.930 . S
H299 C307 0.930 . S
H300 C310 0.930 . S
H301 C311 0.930 . S
C302 H296 0.930 . S
C302 C303 1.355 . S
C302 C304 1.415 1_545 S
C303 C302 1.355 . S
C303 C305 1.419 . S
C304 C302 1.415 1_565 S
C304 C309 1.425 1_565 S
C304 C311 1.409 . S
C305 H297 0.930 . S
C305 C303 1.419 . S
C305 C306 1.362 . S
C306 H298 0.930 . S
C306 C305 1.362 . S
C306 C309 1.409 . S
C307 H299 0.930 . S
C307 C308 1.355 . S
C307 C309 1.415 1_565 S
C308 C307 1.355 . S
C308 C310 1.419 . S
C309 C304 1.425 1_545 S
C309 C306 1.409 . S
C309 C307 1.415 1_545 S
C310 H300 0.930 . S
C310 C308 1.419 . S
C310 C311 1.362 . S
C311 H301 0.930 . S
C311 C304 1.409 . S
C311 C310 1.362 . S
H312 C318 0.930 . S
H313 C321 0.930 . S
H314 C322 0.930 . S
H315 C323 0.930 . S
H316 C326 0.930 . S
H317 C327 0.930 . S
C318 H312 0.930 . S
C318 C319 1.355 . S
C318 C320 1.415 . S
C319 C318 1.355 . S
C319 C321 1.419 . S
C320 C318 1.415 . S
C320 C325 1.425 . S
C320 C327 1.409 . S
C321 H313 0.930 . S
C321 C319 1.419 . S
C321 C322 1.362 . S
C322 H314 0.930 . S
C322 C321 1.362 . S
C322 C325 1.409 . S
C323 H315 0.930 . S
C323 C324 1.355 . S
C323 C325 1.415 . S
C324 C323 1.355 . S
C324 C326 1.419 . S
C325 C320 1.425 . S
C325 C322 1.409 . S
C325 C323 1.415 . S
C326 H316 0.930 . S
C326 C324 1.419 . S
C326 C327 1.362 . S
C327 H317 0.930 . S
C327 C320 1.409 . S
C327 C326 1.362 . S
H328 C334 0.930 . S
H329 C337 0.930 . S
H330 C338 0.930 . S
H331 C339 0.930 . S
H332 C342 0.930 . S
H333 C343 0.930 . S
C334 H328 0.930 . S
C334 C335 1.355 . S
C334 C336 1.415 1_655 S
C335 C334 1.355 . S
C335 C337 1.419 . S
C336 C334 1.415 1_455 S
C336 C341 1.425 1_455 S
C336 C343 1.409 . S
C337 H329 0.930 . S
C337 C335 1.419 . S
C337 C338 1.362 . S
C338 H330 0.930 . S
C338 C337 1.362 . S
C338 C341 1.409 . S
C339 H331 0.930 . S
C339 C340 1.355 . S
C339 C341 1.415 1_455 S
C340 C339 1.355 . S
C340 C342 1.419 . S
C341 C336 1.425 1_655 S
C341 C338 1.409 . S
C341 C339 1.415 1_655 S
C342 H332 0.930 . S
C342 C340 1.419 . S
C342 C343 1.362 . S
C343 H333 0.930 . S
C343 C336 1.409 . S
C343 C342 1.362 . S
H344 C350 0.930 1_556 S
H345 C353 0.930 . S
H346 C354 0.930 . S
H347 C355 0.930 1_554 S
H348 C358 0.930 . S
H349 C359 0.930 . S
C350 H344 0.930 1_554 S
C350 C351 1.355 . S
C350 C352 1.415 1_554 S
C351 C350 1.355 . S
C351 C353 1.419 . S
C352 C350 1.415 1_556 S
C352 C357 1.425 1_566 S
C352 C359 1.409 . S
C353 H345 0.930 . S
C353 C351 1.419 . S
C353 C354 1.362 1_565 S
C354 H346 0.930 . S
C354 C353 1.362 1_545 S
C354 C357 1.409 . S
C355 H347 0.930 1_556 S
C355 C356 1.355 . S
C355 C357 1.415 1_556 S
C356 C355 1.355 . S
C356 C358 1.419 . S
C357 C352 1.425 1_544 S
C357 C354 1.409 . S
C357 C355 1.415 1_554 S
C358 H348 0.930 . S
C358 C356 1.419 . S
C358 C359 1.362 1_545 S
C359 H349 0.930 . S
C359 C352 1.409 . S
C359 C358 1.362 1_565 S
H360 C366 0.930 . S
H361 C369 0.930 . S
H362 C370 0.930 . S
H363 C371 0.930 . S
H364 C374 0.930 . S
H365 C375 0.943 . S
C366 H360 0.930 . S
C366 C367 1.355 . S
C366 C368 1.415 . S
C367 C366 1.355 . S
C367 C369 1.419 . S
C368 C366 1.415 . S
C368 C373 1.425 . S
C368 C375 1.384 1_554 S
C369 H361 0.930 . S
C369 C367 1.419 . S
C369 C370 1.362 . S
C370 H362 0.930 . S
C370 C369 1.362 . S
C370 C373 1.409 . S
C371 H363 0.930 . S
C371 C372 1.355 1_554 S
C371 C373 1.415 . S
C372 C371 1.355 1_556 S
C372 C374 1.419 . S
C373 C368 1.425 . S
C373 C370 1.409 . S
C373 C371 1.415 . S
C374 H364 0.930 . S
C374 C372 1.419 . S
C374 C375 1.375 . S
C375 H365 0.943 . S
C375 C368 1.384 1_556 S
C375 C374 1.375 . S
H376 C382 0.930 . S
H377 C385 0.930 . S
H378 C386 0.930 . S
H379 C387 0.930 . S
H380 C390 0.930 . S
H381 C391 0.930 . S
C382 H376 0.930 . S
C382 C383 1.355 . S
C382 C384 1.415 . S
C383 C382 1.355 . S
C383 C385 1.419 . S
C384 C382 1.415 . S
C384 C389 1.425 . S
C384 C391 1.409 . S
C385 H377 0.930 . S
C385 C383 1.419 . S
C385 C386 1.362 . S
C386 H378 0.930 . S
C386 C385 1.362 . S
C386 C389 1.409 . S
C387 H379 0.930 . S
C387 C388 1.355 . S
C387 C389 1.415 1_455 S
C388 C387 1.355 . S
C388 C390 1.419 . S
C389 C384 1.425 . S
C389 C386 1.409 . S
C389 C387 1.415 1_655 S
C390 H380 0.930 . S
C390 C388 1.419 . S
C390 C391 1.362 1_455 S
C391 H381 0.930 . S
C391 C384 1.409 . S
C391 C390 1.362 1_655 S
H392 C398 0.930 . S
H393 C401 0.930 . S
H394 C402 0.930 . S
H395 C403 0.930 . S
H396 C406 0.930 . S
H397 C407 0.930 . S
C398 H392 0.930 . S
C398 C399 1.355 . S
C398 C400 1.415 1_545 S
C399 C398 1.355 . S
C399 C401 1.419 . S
C400 C398 1.415 1_565 S
C400 C405 1.425 . S
C400 C407 1.409 . S
C401 H393 0.930 . S
C401 C399 1.419 . S
C401 C402 1.362 1_545 S
C402 H394 0.930 . S
C402 C401 1.362 1_565 S
C402 C405 1.409 . S
C403 H395 0.930 . S
C403 C404 1.355 . S
C403 C405 1.415 . S
C404 C403 1.355 . S
C404 C406 1.419 . S
C405 C400 1.425 . S
C405 C402 1.409 . S
C405 C403 1.415 . S
C406 H396 0.930 . S
C406 C404 1.419 . S
C406 C407 1.362 . S
C407 H397 0.930 . S
C407 C400 1.409 . S
C407 C406 1.362 . S
H408 C414 0.930 . S
H409 C417 0.930 . S
H410 C418 0.930 . S
H411 C419 0.930 . S
H412 C422 0.930 . S
H413 C423 0.930 . S
C414 H408 0.930 . S
C414 C415 1.355 . S
C414 C416 1.415 . S
C415 C414 1.355 . S
C415 C417 1.419 . S
C416 C414 1.415 . S
C416 C421 1.425 . S
C416 C423 1.409 . S
C417 H409 0.930 . S
C417 C415 1.419 . S
C417 C418 1.362 . S
C418 H410 0.930 . S
C418 C417 1.362 . S
C418 C421 1.409 . S
C419 H411 0.930 . S
C419 C420 1.355 . S
C419 C421 1.415 . S
C420 C419 1.355 . S
C420 C422 1.419 . S
C421 C416 1.425 . S
C421 C418 1.409 . S
C421 C419 1.415 . S
C422 H412 0.930 . S
C422 C420 1.419 . S
C422 C423 1.362 . S
C423 H413 0.930 . S
C423 C416 1.409 . S
C423 C422 1.362 . S
H424 C430 0.930 . S
H425 C433 0.930 . S
H426 C434 0.930 1_655 S
H427 C435 0.930 . S
H428 C438 0.930 . S
H429 C439 0.930 . S
C430 H424 0.930 . S
C430 C431 1.355 . S
C430 C432 1.415 . S
C431 C430 1.355 . S
C431 C433 1.419 . S
C432 C430 1.415 . S
C432 C437 1.425 . S
C432 C439 1.409 . S
C433 H425 0.930 . S
C433 C431 1.419 . S
C433 C434 1.362 . S
C434 H426 0.930 1_455 S
C434 C433 1.362 . S
C434 C437 1.409 . S
C435 H427 0.930 . S
C435 C436 1.355 . S
C435 C437 1.415 1_655 S
C436 C435 1.355 . S
C436 C438 1.419 1_655 S
C437 C432 1.425 . S
C437 C434 1.409 . S
C437 C435 1.415 1_455 S
C438 H428 0.930 . S
C438 C436 1.419 1_455 S
C438 C439 1.362 . S
C439 H429 0.930 . S
C439 C432 1.409 . S
C439 C438 1.362 . S
H440 C446 0.930 . S
H441 C449 0.930 . S
H442 C450 0.930 . S
H443 C451 0.930 . S
H444 C454 0.930 . S
H445 C455 0.930 . S
C446 H440 0.930 . S
C446 C447 1.355 . S
C446 C448 1.415 . S
C447 C446 1.355 . S
C447 C449 1.419 . S
C448 C446 1.415 . S
C448 C453 1.425 . S
C448 C455 1.409 . S
C449 H441 0.930 . S
C449 C447 1.419 . S
C449 C450 1.362 . S
C450 H442 0.930 . S
C450 C449 1.362 . S
C450 C453 1.409 . S
C451 H443 0.930 . S
C451 C452 1.355 . S
C451 C453 1.415 1_565 S
C452 C451 1.355 . S
C452 C454 1.419 . S
C453 C448 1.425 . S
C453 C450 1.409 . S
C453 C451 1.415 1_545 S
C454 H444 0.930 . S
C454 C452 1.419 . S
C454 C455 1.362 1_565 S
C455 H445 0.930 . S
C455 C448 1.409 . S
C455 C454 1.362 1_545 S
H456 C462 0.930 . S
H457 C465 0.930 . S
H458 C466 0.930 . S
H459 C467 0.930 . S
H460 C470 0.930 . S
H461 C471 0.930 . S
C462 H456 0.930 . S
C462 C463 1.355 . S
C462 C464 1.415 . S
C463 C462 1.355 . S
C463 C465 1.419 . S
C464 C462 1.415 . S
C464 C469 1.425 . S
C464 C471 1.409 . S
C465 H457 0.930 . S
C465 C463 1.419 . S
C465 C466 1.362 . S
C466 H458 0.930 . S
C466 C465 1.362 . S
C466 C469 1.409 . S
C467 H459 0.930 . S
C467 C468 1.355 . S
C467 C469 1.415 . S
C468 C467 1.355 . S
C468 C470 1.419 . S
C469 C464 1.425 . S
C469 C466 1.409 . S
C469 C467 1.415 . S
C470 H460 0.930 . S
C470 C468 1.419 . S
C470 C471 1.362 . S
C471 H461 0.930 . S
C471 C464 1.409 . S
C471 C470 1.362 . S
H472 C478 0.930 . S
H473 C481 0.930 . S
H474 C482 0.930 . S
H475 C483 0.918 1_654 S
H476 C486 0.930 . S
H477 C487 0.930 . S
C478 H472 0.930 . S
C478 C479 1.355 . S
C478 C480 1.415 . S
C479 C478 1.355 . S
C479 C481 1.419 . S
C480 C478 1.415 . S
C480 C485 1.425 . S
C480 C487 1.409 1_655 S
C481 H473 0.930 . S
C481 C479 1.419 . S
C481 C482 1.362 . S
C482 H474 0.930 . S
C482 C481 1.362 . S
C482 C485 1.409 . S
C483 H475 0.918 1_456 S
C483 C484 1.359 . S
C483 C485 1.422 1_455 S
C484 C483 1.359 . S
C484 C486 1.419 . S
C485 C480 1.425 . S
C485 C482 1.409 . S
C485 C483 1.422 1_655 S
C486 H476 0.930 . S
C486 C484 1.419 . S
C486 C487 1.362 . S
C487 H477 0.930 . S
C487 C480 1.409 1_455 S
C487 C486 1.362 . S
H488 C494 0.930 . S
H489 C497 0.930 . S
H490 C498 0.930 . S
H491 C499 0.930 . S
H492 C502 0.930 . S
H493 C503 0.930 . S
C494 H488 0.930 . S
C494 C495 1.355 . S
C494 C496 1.415 . S
C495 C494 1.355 . S
C495 C497 1.419 . S
C496 C494 1.415 . S
C496 C501 1.425 . S
C496 C503 1.409 1_565 S
C497 H489 0.930 . S
C497 C495 1.419 . S
C497 C498 1.362 . S
C498 H490 0.930 . S
C498 C497 1.362 . S
C498 C501 1.409 . S
C499 H491 0.930 . S
C499 C500 1.355 1_565 S
C499 C501 1.415 . S
C500 C499 1.355 1_545 S
C500 C502 1.419 . S
C501 C496 1.425 . S
C501 C498 1.409 . S
C501 C499 1.415 . S
C502 H492 0.930 . S
C502 C500 1.419 . S
C502 C503 1.362 . S
C503 H493 0.930 . S
C503 C496 1.409 1_545 S
C503 C502 1.362 . S
H504 C510 0.930 . S
H505 C513 0.930 . S
H506 C514 0.930 . S
H507 C515 0.930 . S
H508 C518 0.930 . S
H509 C519 0.930 . S
C510 H504 0.930 . S
C510 C511 1.355 . S
C510 C512 1.415 . S
C511 C510 1.355 . S
C511 C513 1.419 . S
C512 C510 1.415 . S
C512 C517 1.425 . S
C512 C519 1.409 . S
C513 H505 0.930 . S
C513 C511 1.419 . S
C513 C514 1.362 . S
C514 H506 0.930 . S
C514 C513 1.362 . S
C514 C517 1.409 . S
C515 H507 0.930 . S
C515 C516 1.355 . S
C515 C517 1.415 . S
C516 C515 1.355 . S
C516 C518 1.419 . S
C517 C512 1.425 . S
C517 C514 1.409 . S
C517 C515 1.415 . S
C518 H508 0.930 . S
C518 C516 1.419 . S
C518 C519 1.362 . S
C519 H509 0.930 . S
C519 C512 1.409 . S
C519 C518 1.362 . S
H520 C526 0.930 . S
H521 C529 0.930 . S
H522 C530 0.930 . S
H523 C531 0.930 . S
H524 C534 0.930 . S
H525 C535 0.930 . S
C526 H520 0.930 . S
C526 C527 1.355 . S
C526 C528 1.415 . S
C527 C526 1.355 . S
C527 C529 1.419 . S
C528 C526 1.415 . S
C528 C533 1.425 . S
C528 C535 1.409 1_455 S
C529 H521 0.930 . S
C529 C527 1.419 . S
C529 C530 1.362 . S
C530 H522 0.930 . S
C530 C529 1.362 . S
C530 C533 1.409 . S
C531 H523 0.930 . S
C531 C532 1.355 1_455 S
C531 C533 1.415 . S
C532 C531 1.355 1_655 S
C532 C534 1.419 . S
C533 C528 1.425 . S
C533 C530 1.409 . S
C533 C531 1.415 . S
C534 H524 0.930 . S
C534 C532 1.419 . S
C534 C535 1.362 . S
C535 H525 0.930 . S
C535 C528 1.409 1_655 S
C535 C534 1.362 . S
H536 C542 0.930 1_545 S
H537 C545 0.930 . S
H538 C546 0.930 . S
H539 C547 0.930 . S
H540 C550 0.930 . S
H541 C551 0.930 . S
C542 H536 0.930 1_565 S
C542 C543 1.355 . S
C542 C544 1.415 1_565 S
C543 C542 1.355 . S
C543 C545 1.419 . S
C544 C542 1.415 1_545 S
C544 C549 1.425 . S
C544 C551 1.409 . S
C545 H537 0.930 . S
C545 C543 1.419 . S
C545 C546 1.362 . S
C546 H538 0.930 . S
C546 C545 1.362 . S
C546 C549 1.409 1_565 S
C547 H539 0.930 . S
C547 C548 1.355 . S
C547 C549 1.415 . S
C548 C547 1.355 . S
C548 C550 1.419 . S
C549 C544 1.425 . S
C549 C546 1.409 1_545 S
C549 C547 1.415 . S
C550 H540 0.930 . S
C550 C548 1.419 . S
C550 C551 1.362 . S
C551 H541 0.930 . S
C551 C544 1.409 . S
C551 C550 1.362 . S
C175 C113 1.616 . S
C180 C12 1.589 . S
C191 C15 1.616 . S
C196 C139 1.583 . S
C207 C29 1.567 . S
C212 C140 1.607 . S
C223 C54 1.574 . S
C228 C154 1.614 . S
C239 C85 1.602 . S
C244 C57 1.609 . S
C255 C83 1.568 . S
C260 C110 1.596 . S
C271 C138 1.426 . S
C276 C13 1.414 . S
C287 C14 1.406 . S
C292 C141 1.380 . S
C303 C155 1.392 . S
C308 C28 1.375 . S
C319 C55 1.423 . S
C324 C84 1.423 . S
C335 C111 1.381 . S
C340 C56 1.373 . S
C351 C112 1.424 . S
C356 C82 1.424 . S
C367 C0 1.902 . S
C372 C70 1.891 . S
C383 C27 1.904 . S
C388 C1 1.905 . S
C399 C26 1.898 . S
C404 C41 1.899 . S
C415 C42 1.902 . S
C420 C40 1.890 . S
C431 C69 1.901 . S
C436 C43 1.885 . S
C447 C71 1.919 . S
C452 C68 1.860 . S
C463 C97 1.929 . S
C468 C99 1.855 . S
C479 C98 1.919 . S
C484 C124 1.896 1_556 S
C495 C125 1.930 . S
C500 C126 1.870 . S
C511 C127 1.928 . S
C516 C153 1.875 . S
C527 C152 1.922 . S
C532 C167 1.890 . S
C543 C96 1.907 . S
C548 C166 1.907 . S
