# Generated by pormake.
# Topology ecn, (8)-cn, num edge types: 1
# Building blocks:
#     Node 0, Type 0, BuildingBlock: TAGTUT_clean_sbu_3, # of connection points: 8
#     Node 1, Type 0, BuildingBlock: TAGTUT_clean_sbu_3, # of connection points: 8
#     Node 2, Type 0, BuildingBlock: TAGTUT_clean_sbu_3, # of connection points: 8
#     Node 3, Type 0, BuildingBlock: TAGTUT_clean_sbu_3, # of connection points: 8
#     Node 4, Type 0, BuildingBlock: TAGTUT_clean_sbu_3, # of connection points: 8
#     Node 5, Type 0, BuildingBlock: TAGTUT_clean_sbu_3, # of connection points: 8
#     Node 6, Type 0, BuildingBlock: TAGTUT_clean_sbu_3, # of connection points: 8
#     Node 7, Type 0, BuildingBlock: TAGTUT_clean_sbu_3, # of connection points: 8
#     Node 8, Type 0, BuildingBlock: TAGTUT_clean_sbu_3, # of connection points: 8
#     Edge 9, Type (0, 0), None
#     Edge 10, Type (0, 0), None
#     Edge 11, Type (0, 0), None
#     Edge 12, Type (0, 0), None
#     Edge 13, Type (0, 0), None
#     Edge 14, Type (0, 0), None
#     Edge 15, Type (0, 0), None
#     Edge 16, Type (0, 0), None
#     Edge 17, Type (0, 0), None
#     Edge 18, Type (0, 0), None
#     Edge 19, Type (0, 0), None
#     Edge 20, Type (0, 0), None
#     Edge 21, Type (0, 0), None
#     Edge 22, Type (0, 0), None
#     Edge 23, Type (0, 0), None
#     Edge 24, Type (0, 0), None
#     Edge 25, Type (0, 0), None
#     Edge 26, Type (0, 0), None
#     Edge 27, Type (0, 0), None
#     Edge 28, Type (0, 0), None
#     Edge 29, Type (0, 0), None
#     Edge 30, Type (0, 0), None
#     Edge 31, Type (0, 0), None
#     Edge 32, Type (0, 0), None
#     Edge 33, Type (0, 0), None
#     Edge 34, Type (0, 0), None
#     Edge 35, Type (0, 0), None
#     Edge 36, Type (0, 0), None
#     Edge 37, Type (0, 0), None
#     Edge 38, Type (0, 0), None
#     Edge 39, Type (0, 0), None
#     Edge 40, Type (0, 0), None
#     Edge 41, Type (0, 0), None
#     Edge 42, Type (0, 0), None
#     Edge 43, Type (0, 0), None
#     Edge 44, Type (0, 0), None
# Relax obj value: 0.144
# Max RMSD: 0.269
# Mean RMSD: 0.269
data_MOF--net-ecn--node1-TAGTUT_clean_sbu_3--edge1-none
_symmetry_space_group_name_H-M    P1
_symmetry_Int_Tables_number       1
_symmetry_cell_setting            triclinic
loop_
_symmetry_equiv_pos_as_xyz
'x, y, z'
_cell_length_a     28.103295
_cell_length_b     28.103146
_cell_length_c     6.7474575
_cell_angle_alpha  89.998269
_cell_angle_beta   90.004516
_cell_angle_gamma 119.99975
loop_
_atom_site_label
_atom_site_type_symbol
_atom_site_fract_x
_atom_site_fract_y
_atom_site_fract_z
_atom_type_partial_charge
C0 C 0.06066 0.28261 0.29243 0.0
C1 C 0.88348 0.19934 0.72824 0.0
C2 C 0.90467 0.04427 0.85983 0.0
Mg3 Mg 0.15262 0.23994 0.3391 0.0
Mg4 Mg 0.17866 0.20779 0.93131 0.0
O5 O 0.12825 0.18319 0.13428 0.0
Mg6 Mg 0.06005 0.17985 0.02844 0.0
O7 O -0.00754 0.18091 0.92019 0.0
Mg8 Mg 0.94709 0.16694 0.14342 0.0
Mg9 Mg 0.95473 0.15144 0.67396 0.0
C10 C 0.09587 0.09706 0.8255 0.0
O11 O 0.09799 0.2158 0.72011 0.0
O12 O 0.22007 0.21955 0.39777 0.0
O13 O 0.02728 0.21864 0.60816 0.0
O14 O 0.21602 0.31567 0.18965 0.0
O15 O 0.24127 0.20654 0.08766 0.0
O16 O 0.19792 0.28916 0.87446 0.0
O17 O 0.01097 0.14318 0.31535 0.0
O18 O 0.08773 0.15203 0.4188 0.0
C19 C 0.04684 0.157 0.4561 0.0
C20 C 0.2489 0.20981 0.27418 0.0
O21 O 0.0553 0.09693 0.91818 0.0
O22 O 0.89858 0.2041 0.91494 0.0
O23 O 0.13344 0.14053 0.744 0.0
O24 O 0.89834 0.07187 0.00342 0.0
O25 O 0.89247 0.16943 0.61242 0.0
O26 O 0.93367 0.06897 0.7094 0.0
O27 O 0.08619 0.26089 0.20614 0.0
O28 O 0.00775 0.25893 0.27447 0.0
C29 C 0.22135 0.32623 0.00567 0.0
C30 C 0.06277 0.20523 0.58142 0.0
C31 C 0.6769 0.76538 0.29243 0.0
C32 C 0.76017 0.67147 0.72825 0.0
C33 C 0.91523 0.84772 0.85984 0.0
Mg34 Mg 0.71958 0.90001 0.33911 0.0
Mg35 Mg 0.75171 0.95819 0.93132 0.0
O36 O 0.77632 0.93238 0.13429 0.0
Mg37 Mg 0.77966 0.86752 0.02847 0.0
O38 O 0.77859 0.79887 0.92022 0.0
Mg39 Mg 0.79257 0.76747 0.14344 0.0
Mg40 Mg 0.80806 0.79062 0.674 0.0
C41 C 0.86244 -0.01387 0.82538 0.0
O42 O 0.74371 0.86952 0.7201 0.0
O43 O 0.73997 -0.01215 0.39778 0.0
O44 O 0.74086 0.79596 0.60818 0.0
O45 O 0.64385 0.88768 0.18969 0.0
O46 O 0.75294 0.02204 0.08764 0.0
O47 O 0.67034 0.89606 0.8745 0.0
O48 O 0.81633 0.85511 0.31539 0.0
O49 O 0.80748 0.92302 0.41881 0.0
C50 C 0.80251 0.87717 0.45613 0.0
C51 C 0.74969 0.02641 0.27416 0.0
O52 O 0.86258 0.94571 0.91821 0.0
O53 O 0.7554 0.68181 0.91495 0.0
O54 O 0.81896 0.98024 0.74397 0.0
O55 O 0.88763 0.81379 0.00344 0.0
O56 O 0.79008 0.71037 0.61244 0.0
O57 O 0.89053 0.85204 0.70941 0.0
O58 O 0.69862 0.81263 0.20615 0.0
O59 O 0.70058 0.73614 0.27448 0.0
C60 C 0.63328 0.88244 0.00571 0.0
C61 C 0.75428 0.84487 0.58144 0.0
C62 C 0.19413 0.89885 0.29243 0.0
C63 C 0.28804 0.07602 0.72824 0.0
C64 C 0.11177 0.05482 0.85991 0.0
Mg65 Mg 0.0595 0.80689 0.33908 0.0
Mg66 Mg 0.00131 0.78085 0.93128 0.0
O67 O 0.02713 0.83127 0.13424 0.0
Mg68 Mg 0.09198 0.89947 0.02843 0.0
O69 O 0.16063 0.96705 0.92018 0.0
Mg70 Mg 0.19204 0.01242 0.14343 0.0
Mg71 Mg 0.16888 0.00478 0.67393 0.0
C72 C 0.97337 0.86364 0.82536 0.0
O73 O 0.08999 0.86152 0.72009 0.0
O74 O 0.97167 0.73945 0.39775 0.0
O75 O 0.16355 0.93223 0.60818 0.0
O76 O 0.07183 0.74349 0.18965 0.0
O77 O 0.93746 0.71823 0.08762 0.0
O78 O 0.06342 0.76159 0.87446 0.0
O79 O 0.1044 0.94854 0.31535 0.0
O80 O 0.03649 0.87179 0.41876 0.0
C81 C 0.08234 0.91267 0.45608 0.0
C82 C 0.9331 0.71061 0.27414 0.0
O83 O 0.0138 0.9042 0.91818 0.0
O84 O 0.2777 0.06092 0.91494 0.0
O85 O -0.02074 0.82606 0.74394 0.0
O86 O 0.14572 0.06117 0.00349 0.0
O87 O 0.24914 0.06704 0.61242 0.0
O88 O 0.10747 0.02584 0.70936 0.0
O89 O 0.14688 0.87332 0.20613 0.0
O90 O 0.22337 0.95176 0.27447 0.0
C91 C 0.07706 0.73816 0.00568 0.0
C92 C 0.11464 0.89674 0.58142 0.0
C93 C 0.72732 0.61595 0.62576 0.0
C94 C 0.55014 0.53267 0.06156 0.0
C95 C 0.57132 0.3776 0.19317 0.0
Mg96 Mg 0.81928 0.57328 0.67246 0.0
Mg97 Mg 0.84532 0.54116 0.26464 0.0
O98 O 0.79491 0.51654 0.46763 0.0
Mg99 Mg 0.72671 0.51318 0.36179 0.0
O100 O 0.65912 0.51424 0.25353 0.0
Mg101 Mg 0.61374 0.50027 0.47675 0.0
Mg102 Mg 0.62139 0.48476 0.0073 0.0
C103 C 0.76255 0.43041 0.15885 0.0
O104 O 0.76465 0.54914 0.05345 0.0
O105 O 0.88673 0.5529 0.73111 0.0
O106 O 0.69393 0.55197 0.94149 0.0
O107 O 0.88267 0.64902 0.52304 0.0
O108 O 0.90796 0.53996 0.42094 0.0
O109 O 0.86451 0.62252 0.20784 0.0
O110 O 0.67763 0.47651 0.64869 0.0
O111 O 0.75439 0.48537 0.75214 0.0
C112 C 0.7135 0.49033 0.78944 0.0
C113 C 0.91558 0.5432 0.60746 0.0
O114 O 0.72197 0.43027 0.25152 0.0
O115 O 0.56525 0.53744 0.24826 0.0
O116 O 0.80012 0.47388 0.07737 0.0
O117 O 0.565 0.4052 0.33676 0.0
O118 O 0.55913 0.50276 0.94575 0.0
O119 O 0.60033 0.40229 0.04273 0.0
O120 O 0.75285 0.59423 0.53949 0.0
O121 O 0.6744 0.59226 0.60781 0.0
C122 C 0.88794 0.65958 0.33907 0.0
C123 C 0.72943 0.53856 0.91476 0.0
C124 C 0.34356 0.0987 0.62577 0.0
C125 C 0.42683 0.0048 0.06157 0.0
C126 C 0.5819 0.18105 0.19317 0.0
Mg127 Mg 0.38623 0.23332 0.67247 0.0
Mg128 Mg 0.41833 0.29147 0.26464 0.0
O129 O 0.44298 0.2657 0.46764 0.0
Mg130 Mg 0.44632 0.20085 0.36181 0.0
O131 O 0.44526 0.1322 0.25356 0.0
Mg132 Mg 0.45924 0.1008 0.47678 0.0
Mg133 Mg 0.47473 0.12395 0.00734 0.0
C134 C 0.52909 0.31946 0.15873 0.0
O135 O 0.41037 0.20284 0.05344 0.0
O136 O 0.40661 0.32116 0.73111 0.0
O137 O 0.40753 0.12928 0.94151 0.0
O138 O 0.3105 0.22098 0.52308 0.0
O139 O 0.41952 0.35531 0.42092 0.0
O140 O 0.33698 0.22929 0.20788 0.0
O141 O 0.483 0.18844 0.64873 0.0
O142 O 0.47415 0.25634 0.75216 0.0
C143 C 0.46918 0.21049 0.78947 0.0
C144 C 0.4163 0.3597 0.60744 0.0
O145 O 0.52923 0.27904 0.25155 0.0
O146 O 0.42207 0.01513 0.24827 0.0
O147 O 0.48561 0.31356 0.07734 0.0
O148 O 0.5543 0.14712 0.33677 0.0
O149 O 0.45675 0.0437 0.94578 0.0
O150 O 0.5572 0.18536 0.04274 0.0
O151 O 0.36529 0.14595 0.5395 0.0
O152 O 0.36724 0.06946 0.60782 0.0
C153 C 0.29992 0.21567 0.33911 0.0
C154 C 0.42094 0.17819 0.91477 0.0
C155 C 0.86081 0.23219 0.62576 0.0
C156 C 0.95471 0.40936 0.06156 0.0
C157 C 0.77845 0.38816 0.19324 0.0
Mg158 Mg 0.72619 0.14023 0.67244 0.0
Mg159 Mg 0.66803 0.11419 0.26461 0.0
O160 O 0.69381 0.1646 0.4676 0.0
Mg161 Mg 0.75866 0.2328 0.36178 0.0
O162 O 0.8273 0.30039 0.25352 0.0
Mg163 Mg 0.85871 0.34577 0.47677 0.0
Mg164 Mg 0.83556 0.33812 0.00727 0.0
C165 C 0.64004 0.19696 0.15871 0.0
O166 O 0.75667 0.19486 0.05343 0.0
O167 O 0.63835 0.07278 0.73108 0.0
O168 O 0.83022 0.26558 0.94151 0.0
O169 O 0.73853 0.07684 0.52304 0.0
O170 O 0.60419 0.05154 0.4209 0.0
O171 O 0.73019 0.095 0.20784 0.0
O172 O 0.77107 0.28188 0.64869 0.0
O173 O 0.70316 0.20512 0.7521 0.0
C174 C 0.74901 0.24601 0.78943 0.0
C175 C 0.59981 0.04393 0.60742 0.0
O176 O 0.68047 0.23753 0.25152 0.0
O177 O 0.94437 0.39426 0.24827 0.0
O178 O 0.64594 0.15938 0.0773 0.0
O179 O 0.81239 0.39451 0.33683 0.0
O180 O 0.91581 0.40038 0.94575 0.0
O181 O 0.77415 0.35919 0.04269 0.0
O182 O 0.81356 0.20666 0.53948 0.0
O183 O 0.89005 0.28511 0.60781 0.0
C184 C 0.74383 0.07157 0.33907 0.0
C185 C 0.78132 0.23008 0.91476 0.0
C186 C 0.39399 0.94928 0.95907 0.0
C187 C 0.2168 0.866 0.39489 0.0
C188 C 0.23799 0.71093 0.52649 0.0
Mg189 Mg 0.48595 0.90662 0.00575 0.0
Mg190 Mg 0.51199 0.87447 0.59794 0.0
O191 O 0.46158 0.84987 0.80092 0.0
Mg192 Mg 0.39337 0.84652 0.69509 0.0
O193 O 0.32579 0.84758 0.58684 0.0
Mg194 Mg 0.28041 0.8336 0.81007 0.0
Mg195 Mg 0.28805 0.8181 0.34061 0.0
C196 C 0.42921 0.76373 0.49215 0.0
O197 O 0.43132 0.88247 0.38676 0.0
O198 O 0.55339 0.88623 0.06443 0.0
O199 O 0.3606 0.88531 0.27481 0.0
O200 O 0.54935 0.98234 0.8563 0.0
O201 O 0.57461 0.87325 0.75429 0.0
O202 O 0.53122 0.95584 0.5411 0.0
O203 O 0.3443 0.80985 0.982 0.0
O204 O 0.42106 0.81871 0.08544 0.0
C205 C 0.38017 0.82367 0.12275 0.0
C206 C 0.58221 0.87648 0.94082 0.0
O207 O 0.38863 0.7636 0.58483 0.0
O208 O 0.2319 0.87076 0.5816 0.0
O209 O 0.46677 0.8072 0.41066 0.0
O210 O 0.23167 0.73853 0.67008 0.0
O211 O 0.22579 0.83608 0.27908 0.0
O212 O 0.267 0.73563 0.37605 0.0
O213 O 0.41951 0.92756 0.87279 0.0
O214 O 0.34107 0.92559 0.94113 0.0
C215 C 0.55464 -0.0071 0.67232 0.0
C216 C 0.3961 0.8719 0.24807 0.0
C217 C 0.01023 0.43203 0.95908 0.0
C218 C 0.09351 0.33813 0.39491 0.0
C219 C 0.24857 0.51439 0.52649 0.0
Mg220 Mg 0.0529 0.56666 0.00576 0.0
Mg221 Mg 0.08502 0.62483 0.59795 0.0
O222 O 0.10964 0.59904 0.80093 0.0
Mg223 Mg 0.11299 0.53418 0.69512 0.0
O224 O 0.11193 0.46554 0.58687 0.0
Mg225 Mg 0.12591 0.43413 0.8101 0.0
Mg226 Mg 0.1414 0.45728 0.34065 0.0
C227 C 0.19576 0.65279 0.49204 0.0
O228 O 0.07704 0.53617 0.38675 0.0
O229 O 0.07328 0.65449 0.06443 0.0
O230 O 0.07419 0.46262 0.27483 0.0
O231 O 0.97717 0.55433 0.85634 0.0
O232 O 0.08624 0.68868 0.75427 0.0
O233 O 0.00366 0.56269 0.54114 0.0
O234 O 0.14966 0.52177 0.98204 0.0
O235 O 0.14081 0.58968 0.08546 0.0
C236 C 0.13584 0.54383 0.12278 0.0
C237 C 0.08301 0.69305 0.9408 0.0
O238 O 0.1959 0.61237 0.58486 0.0
O239 O 0.08875 0.34847 0.58161 0.0
O240 O 0.15229 0.6469 0.41063 0.0
O241 O 0.22097 0.48046 0.67009 0.0
O242 O 0.12342 0.37704 0.2791 0.0
O243 O 0.22387 0.5187 0.37606 0.0
O244 O 0.03195 0.47928 0.8728 0.0
O245 O 0.03391 0.4028 0.94114 0.0
C246 C 0.9666 0.54905 0.67237 0.0
C247 C 0.08761 0.51152 0.24808 0.0
C248 C 0.52747 0.56552 0.95907 0.0
C249 C 0.62137 0.7427 0.3949 0.0
C250 C 0.44511 0.72149 0.52656 0.0
Mg251 Mg 0.39285 0.47357 0.00573 0.0
Mg252 Mg 0.33466 0.44752 0.59791 0.0
O253 O 0.36047 0.49793 0.80089 0.0
Mg254 Mg 0.42532 0.56614 0.69508 0.0
O255 O 0.49396 0.63373 0.58683 0.0
Mg256 Mg 0.52538 0.6791 0.81009 0.0
Mg257 Mg 0.50222 0.67146 0.34058 0.0
C258 C 0.30671 0.5303 0.49202 0.0
O259 O 0.42333 0.52819 0.38674 0.0
O260 O 0.30502 0.40612 0.0644 0.0
O261 O 0.49689 0.59891 0.27483 0.0
O262 O 0.40518 0.41017 0.85631 0.0
O263 O 0.27082 0.38489 0.75425 0.0
O264 O 0.39679 0.42828 0.54109 0.0
O265 O 0.43773 0.61521 0.982 0.0
O266 O 0.36983 0.53845 0.08541 0.0
C267 C 0.41568 0.57934 0.12273 0.0
C268 C 0.26646 0.37729 0.94078 0.0
O269 O 0.34714 0.57087 0.58483 0.0
O270 O 0.61104 0.7276 0.5816 0.0
O271 O 0.3126 0.49272 0.41059 0.0
O272 O 0.47905 0.72784 0.67015 0.0
O273 O 0.58247 0.73372 0.27907 0.0
O274 O 0.44081 0.69252 0.37602 0.0
O275 O 0.48022 0.54 0.87278 0.0
O276 O 0.55671 0.61844 0.94113 0.0
C277 C 0.41044 0.40487 0.67233 0.0
C278 C 0.44798 0.56341 0.24807 0.0
loop_
_geom_bond_atom_site_label_1
_geom_bond_atom_site_label_2
_geom_bond_distance
_geom_bond_site_symmetry_2
_ccdc_geom_bond_type
C0 O27 1.312 . S
C0 O28 1.208 . S
C1 O22 1.331 1_556 S
C1 O25 1.244 . S
C2 O24 1.264 . S
C2 O26 1.273 1_554 S
Mg3 O5 1.936 . S
Mg3 O12 2.081 . S
Mg3 O14 2.023 1_554 S
Mg3 O18 2.031 . S
Mg3 O27 2.291 . S
Mg4 O5 1.963 1_556 S
Mg4 O15 1.942 1_556 S
Mg4 O16 1.955 . S
Mg4 O23 1.986 . S
O5 Mg3 1.936 . S
O5 Mg4 1.963 1_554 S
O5 Mg6 1.915 1_554 S
Mg6 O5 1.915 1_556 S
Mg6 O7 1.915 . S
Mg6 O11 2.013 . S
Mg6 O17 2.114 1_556 S
Mg6 O21 2.013 . S
Mg6 O27 2.114 1_556 S
O7 Mg6 1.915 . S
O7 Mg8 1.936 1_456 S
O7 Mg9 1.963 1_455 S
Mg8 O7 1.936 1_654 S
Mg8 O17 2.291 1_655 S
Mg8 O22 2.081 . S
Mg8 O24 2.023 . S
Mg8 O28 2.031 1_655 S
Mg9 O7 1.963 1_655 S
Mg9 O13 1.986 1_655 S
Mg9 O25 1.942 . S
Mg9 O26 1.955 . S
C10 O21 1.191 . S
C10 O23 1.307 . S
O11 Mg6 2.013 . S
O11 C30 1.191 . S
O12 Mg3 2.081 . S
O12 C20 1.331 . S
O13 Mg9 1.986 1_455 S
O13 C30 1.307 . S
O14 Mg3 2.023 1_556 S
O14 C29 1.264 . S
O15 Mg4 1.942 1_554 S
O15 C20 1.244 . S
O16 Mg4 1.955 . S
O16 C29 1.273 . S
O17 Mg6 2.114 1_554 S
O17 Mg8 2.291 1_455 S
O17 C19 1.312 . S
O18 Mg3 2.031 . S
O18 C19 1.208 . S
C19 O17 1.312 . S
C19 O18 1.208 . S
C20 O12 1.331 . S
C20 O15 1.244 . S
O21 Mg6 2.013 . S
O21 C10 1.191 . S
O22 C1 1.331 1_554 S
O22 Mg8 2.081 . S
O23 Mg4 1.986 . S
O23 C10 1.307 . S
O24 C2 1.264 . S
O24 Mg8 2.023 . S
O25 C1 1.244 . S
O25 Mg9 1.942 . S
O26 C2 1.273 1_556 S
O26 Mg9 1.955 . S
O27 C0 1.312 . S
O27 Mg3 2.291 . S
O27 Mg6 2.114 1_554 S
O28 C0 1.208 . S
O28 Mg8 2.031 1_455 S
C29 O14 1.264 . S
C29 O16 1.273 . S
C30 O11 1.191 . S
C30 O13 1.307 . S
C31 O58 1.312 . S
C31 O59 1.208 . S
C32 O53 1.331 1_556 S
C32 O56 1.244 . S
C33 O55 1.264 . S
C33 O57 1.273 1_554 S
Mg34 O36 1.936 . S
Mg34 O43 2.081 . S
Mg34 O45 2.023 1_554 S
Mg34 O49 2.031 . S
Mg34 O58 2.291 . S
Mg35 O36 1.963 1_556 S
Mg35 O46 1.942 1_566 S
Mg35 O47 1.955 . S
Mg35 O54 1.986 1_565 S
O36 Mg34 1.936 . S
O36 Mg35 1.963 1_554 S
O36 Mg37 1.915 1_554 S
Mg37 O36 1.915 1_556 S
Mg37 O38 1.915 . S
Mg37 O42 2.013 . S
Mg37 O48 2.114 1_556 S
Mg37 O52 2.013 . S
Mg37 O58 2.114 1_556 S
O38 Mg37 1.915 . S
O38 Mg39 1.936 1_556 S
O38 Mg40 1.963 . S
Mg39 O38 1.936 1_554 S
Mg39 O48 2.291 . S
Mg39 O53 2.081 . S
Mg39 O55 2.023 . S
Mg39 O59 2.031 . S
Mg40 O38 1.963 . S
Mg40 O44 1.986 . S
Mg40 O56 1.942 . S
Mg40 O57 1.955 . S
C41 O52 1.191 . S
C41 O54 1.307 1_565 S
O42 Mg37 2.013 . S
O42 C61 1.191 . S
O43 Mg34 2.081 . S
O43 C51 1.331 1_565 S
O44 Mg40 1.986 . S
O44 C61 1.307 . S
O45 Mg34 2.023 1_556 S
O45 C60 1.264 . S
O46 Mg35 1.942 1_544 S
O46 C51 1.244 . S
O47 Mg35 1.955 . S
O47 C60 1.273 . S
O48 Mg37 2.114 1_554 S
O48 Mg39 2.291 . S
O48 C50 1.312 . S
O49 Mg34 2.031 . S
O49 C50 1.208 . S
C50 O48 1.312 . S
C50 O49 1.208 . S
C51 O43 1.331 1_545 S
C51 O46 1.244 . S
O52 Mg37 2.013 . S
O52 C41 1.191 . S
O53 C32 1.331 1_554 S
O53 Mg39 2.081 . S
O54 Mg35 1.986 1_545 S
O54 C41 1.307 1_545 S
O55 C33 1.264 . S
O55 Mg39 2.023 . S
O56 C32 1.244 . S
O56 Mg40 1.942 . S
O57 C33 1.273 1_556 S
O57 Mg40 1.955 . S
O58 C31 1.312 . S
O58 Mg34 2.291 . S
O58 Mg37 2.114 1_554 S
O59 C31 1.208 . S
O59 Mg39 2.031 . S
C60 O45 1.264 . S
C60 O47 1.273 . S
C61 O42 1.191 . S
C61 O44 1.307 . S
C62 O89 1.312 . S
C62 O90 1.208 . S
C63 O84 1.331 1_556 S
C63 O87 1.244 . S
C64 O86 1.264 . S
C64 O88 1.273 1_554 S
Mg65 O67 1.936 . S
Mg65 O74 2.081 . S
Mg65 O76 2.023 1_554 S
Mg65 O80 2.031 . S
Mg65 O89 2.291 . S
Mg66 O67 1.963 1_556 S
Mg66 O77 1.942 1_456 S
Mg66 O78 1.955 . S
Mg66 O85 1.986 1_455 S
O67 Mg65 1.936 . S
O67 Mg66 1.963 1_554 S
O67 Mg68 1.915 1_554 S
Mg68 O67 1.915 1_556 S
Mg68 O69 1.915 . S
Mg68 O73 2.013 . S
Mg68 O79 2.114 1_556 S
Mg68 O83 2.013 . S
Mg68 O89 2.114 1_556 S
O69 Mg68 1.915 . S
O69 Mg70 1.936 1_566 S
O69 Mg71 1.963 1_565 S
Mg70 O69 1.936 1_544 S
Mg70 O79 2.291 1_545 S
Mg70 O84 2.081 . S
Mg70 O86 2.023 . S
Mg70 O90 2.031 1_545 S
Mg71 O69 1.963 1_545 S
Mg71 O75 1.986 1_545 S
Mg71 O87 1.942 . S
Mg71 O88 1.955 . S
C72 O83 1.191 . S
C72 O85 1.307 1_455 S
O73 Mg68 2.013 . S
O73 C92 1.191 . S
O74 Mg65 2.081 . S
O74 C82 1.331 1_455 S
O75 Mg71 1.986 1_565 S
O75 C92 1.307 . S
O76 Mg65 2.023 1_556 S
O76 C91 1.264 . S
O77 Mg66 1.942 1_654 S
O77 C82 1.244 . S
O78 Mg66 1.955 . S
O78 C91 1.273 . S
O79 Mg68 2.114 1_554 S
O79 Mg70 2.291 1_565 S
O79 C81 1.312 . S
O80 Mg65 2.031 . S
O80 C81 1.208 . S
C81 O79 1.312 . S
C81 O80 1.208 . S
C82 O74 1.331 1_655 S
C82 O77 1.244 . S
O83 Mg68 2.013 . S
O83 C72 1.191 . S
O84 C63 1.331 1_554 S
O84 Mg70 2.081 . S
O85 Mg66 1.986 1_655 S
O85 C72 1.307 1_655 S
O86 C64 1.264 . S
O86 Mg70 2.023 . S
O87 C63 1.244 . S
O87 Mg71 1.942 . S
O88 C64 1.273 1_556 S
O88 Mg71 1.955 . S
O89 C62 1.312 . S
O89 Mg65 2.291 . S
O89 Mg68 2.114 1_554 S
O90 C62 1.208 . S
O90 Mg70 2.031 1_565 S
C91 O76 1.264 . S
C91 O78 1.273 . S
C92 O73 1.191 . S
C92 O75 1.307 . S
C93 O120 1.312 . S
C93 O121 1.208 . S
C94 O115 1.331 . S
C94 O118 1.244 . S
C95 O117 1.264 . S
C95 O119 1.273 . S
Mg96 O98 1.936 . S
Mg96 O105 2.081 . S
Mg96 O107 2.023 . S
Mg96 O111 2.031 . S
Mg96 O120 2.291 . S
Mg97 O98 1.963 . S
Mg97 O108 1.942 . S
Mg97 O109 1.955 . S
Mg97 O116 1.986 . S
O98 Mg96 1.936 . S
O98 Mg97 1.963 . S
O98 Mg99 1.915 . S
Mg99 O98 1.915 . S
Mg99 O100 1.915 . S
Mg99 O104 2.013 . S
Mg99 O110 2.114 . S
Mg99 O114 2.013 . S
Mg99 O120 2.114 . S
O100 Mg99 1.915 . S
O100 Mg101 1.936 . S
O100 Mg102 1.963 . S
Mg101 O100 1.936 . S
Mg101 O110 2.291 . S
Mg101 O115 2.081 . S
Mg101 O117 2.023 . S
Mg101 O121 2.031 . S
Mg102 O100 1.963 . S
Mg102 O106 1.986 1_554 S
Mg102 O118 1.942 . S
Mg102 O119 1.955 . S
C103 O114 1.191 . S
C103 O116 1.307 . S
O104 Mg99 2.013 . S
O104 C123 1.191 1_554 S
O105 Mg96 2.081 . S
O105 C113 1.331 . S
O106 Mg102 1.986 1_556 S
O106 C123 1.307 . S
O107 Mg96 2.023 . S
O107 C122 1.264 . S
O108 Mg97 1.942 . S
O108 C113 1.244 . S
O109 Mg97 1.955 . S
O109 C122 1.273 . S
O110 Mg99 2.114 . S
O110 Mg101 2.291 . S
O110 C112 1.312 . S
O111 Mg96 2.031 . S
O111 C112 1.208 . S
C112 O110 1.312 . S
C112 O111 1.208 . S
C113 O105 1.331 . S
C113 O108 1.244 . S
O114 Mg99 2.013 . S
O114 C103 1.191 . S
O115 C94 1.331 . S
O115 Mg101 2.081 . S
O116 Mg97 1.986 . S
O116 C103 1.307 . S
O117 C95 1.264 . S
O117 Mg101 2.023 . S
O118 C94 1.244 . S
O118 Mg102 1.942 . S
O119 C95 1.273 . S
O119 Mg102 1.955 . S
O120 C93 1.312 . S
O120 Mg96 2.291 . S
O120 Mg99 2.114 . S
O121 C93 1.208 . S
O121 Mg101 2.031 . S
C122 O107 1.264 . S
C122 O109 1.273 . S
C123 O104 1.191 1_556 S
C123 O106 1.307 . S
C124 O151 1.312 . S
C124 O152 1.208 . S
C125 O146 1.331 . S
C125 O149 1.244 . S
C126 O148 1.264 . S
C126 O150 1.273 . S
Mg127 O129 1.936 . S
Mg127 O136 2.081 . S
Mg127 O138 2.023 . S
Mg127 O142 2.031 . S
Mg127 O151 2.291 . S
Mg128 O129 1.963 . S
Mg128 O139 1.942 . S
Mg128 O140 1.955 . S
Mg128 O147 1.986 . S
O129 Mg127 1.936 . S
O129 Mg128 1.963 . S
O129 Mg130 1.915 . S
Mg130 O129 1.915 . S
Mg130 O131 1.915 . S
Mg130 O135 2.013 . S
Mg130 O141 2.114 . S
Mg130 O145 2.013 . S
Mg130 O151 2.114 . S
O131 Mg130 1.915 . S
O131 Mg132 1.936 . S
O131 Mg133 1.963 . S
Mg132 O131 1.936 . S
Mg132 O141 2.291 . S
Mg132 O146 2.081 . S
Mg132 O148 2.023 . S
Mg132 O152 2.031 . S
Mg133 O131 1.963 . S
Mg133 O137 1.986 1_554 S
Mg133 O149 1.942 . S
Mg133 O150 1.955 . S
C134 O145 1.191 . S
C134 O147 1.307 . S
O135 Mg130 2.013 . S
O135 C154 1.191 1_554 S
O136 Mg127 2.081 . S
O136 C144 1.331 . S
O137 Mg133 1.986 1_556 S
O137 C154 1.307 . S
O138 Mg127 2.023 . S
O138 C153 1.264 . S
O139 Mg128 1.942 . S
O139 C144 1.244 . S
O140 Mg128 1.955 . S
O140 C153 1.273 . S
O141 Mg130 2.114 . S
O141 Mg132 2.291 . S
O141 C143 1.312 . S
O142 Mg127 2.031 . S
O142 C143 1.208 . S
C143 O141 1.312 . S
C143 O142 1.208 . S
C144 O136 1.331 . S
C144 O139 1.244 . S
O145 Mg130 2.013 . S
O145 C134 1.191 . S
O146 C125 1.331 . S
O146 Mg132 2.081 . S
O147 Mg128 1.986 . S
O147 C134 1.307 . S
O148 C126 1.264 . S
O148 Mg132 2.023 . S
O149 C125 1.244 . S
O149 Mg133 1.942 . S
O150 C126 1.273 . S
O150 Mg133 1.955 . S
O151 C124 1.312 . S
O151 Mg127 2.291 . S
O151 Mg130 2.114 . S
O152 C124 1.208 . S
O152 Mg132 2.031 . S
C153 O138 1.264 . S
C153 O140 1.273 . S
C154 O135 1.191 1_556 S
C154 O137 1.307 . S
C155 O182 1.312 . S
C155 O183 1.208 . S
C156 O177 1.331 . S
C156 O180 1.244 . S
C157 O179 1.264 . S
C157 O181 1.273 . S
Mg158 O160 1.936 . S
Mg158 O167 2.081 . S
Mg158 O169 2.023 . S
Mg158 O173 2.031 . S
Mg158 O182 2.291 . S
Mg159 O160 1.963 . S
Mg159 O170 1.942 . S
Mg159 O171 1.955 . S
Mg159 O178 1.986 . S
O160 Mg158 1.936 . S
O160 Mg159 1.963 . S
O160 Mg161 1.915 . S
Mg161 O160 1.915 . S
Mg161 O162 1.915 . S
Mg161 O166 2.013 . S
Mg161 O172 2.114 . S
Mg161 O176 2.013 . S
Mg161 O182 2.114 . S
O162 Mg161 1.915 . S
O162 Mg163 1.936 . S
O162 Mg164 1.963 . S
Mg163 O162 1.936 . S
Mg163 O172 2.291 . S
Mg163 O177 2.081 . S
Mg163 O179 2.023 . S
Mg163 O183 2.031 . S
Mg164 O162 1.963 . S
Mg164 O168 1.986 1_554 S
Mg164 O180 1.942 . S
Mg164 O181 1.955 . S
C165 O176 1.191 . S
C165 O178 1.307 . S
O166 Mg161 2.013 . S
O166 C185 1.191 1_554 S
O167 Mg158 2.081 . S
O167 C175 1.331 . S
O168 Mg164 1.986 1_556 S
O168 C185 1.307 . S
O169 Mg158 2.023 . S
O169 C184 1.264 . S
O170 Mg159 1.942 . S
O170 C175 1.244 . S
O171 Mg159 1.955 . S
O171 C184 1.273 . S
O172 Mg161 2.114 . S
O172 Mg163 2.291 . S
O172 C174 1.312 . S
O173 Mg158 2.031 . S
O173 C174 1.208 . S
C174 O172 1.312 . S
C174 O173 1.208 . S
C175 O167 1.331 . S
C175 O170 1.244 . S
O176 Mg161 2.013 . S
O176 C165 1.191 . S
O177 C156 1.331 . S
O177 Mg163 2.081 . S
O178 Mg159 1.986 . S
O178 C165 1.307 . S
O179 C157 1.264 . S
O179 Mg163 2.023 . S
O180 C156 1.244 . S
O180 Mg164 1.942 . S
O181 C157 1.273 . S
O181 Mg164 1.955 . S
O182 C155 1.312 . S
O182 Mg158 2.291 . S
O182 Mg161 2.114 . S
O183 C155 1.208 . S
O183 Mg163 2.031 . S
C184 O169 1.264 . S
C184 O171 1.273 . S
C185 O166 1.191 1_556 S
C185 O168 1.307 . S
C186 O213 1.312 . S
C186 O214 1.208 . S
C187 O208 1.331 . S
C187 O211 1.244 . S
C188 O210 1.264 . S
C188 O212 1.273 . S
Mg189 O191 1.936 . S
Mg189 O198 2.081 . S
Mg189 O200 2.023 1_565 S
Mg189 O204 2.031 1_556 S
Mg189 O213 2.291 . S
Mg190 O191 1.963 . S
Mg190 O201 1.942 . S
Mg190 O202 1.955 . S
Mg190 O209 1.986 . S
O191 Mg189 1.936 . S
O191 Mg190 1.963 . S
O191 Mg192 1.915 . S
Mg192 O191 1.915 . S
Mg192 O193 1.915 . S
Mg192 O197 2.013 . S
Mg192 O203 2.114 . S
Mg192 O207 2.013 . S
Mg192 O213 2.114 . S
O193 Mg192 1.915 . S
O193 Mg194 1.936 . S
O193 Mg195 1.963 . S
Mg194 O193 1.936 . S
Mg194 O203 2.291 . S
Mg194 O208 2.081 . S
Mg194 O210 2.023 . S
Mg194 O214 2.031 . S
Mg195 O193 1.963 . S
Mg195 O199 1.986 . S
Mg195 O211 1.942 . S
Mg195 O212 1.955 . S
C196 O207 1.191 . S
C196 O209 1.307 . S
O197 Mg192 2.013 . S
O197 C216 1.191 . S
O198 Mg189 2.081 . S
O198 C206 1.331 . S
O199 Mg195 1.986 . S
O199 C216 1.307 . S
O200 Mg189 2.023 1_545 S
O200 C215 1.264 . S
O201 Mg190 1.942 . S
O201 C206 1.244 . S
O202 Mg190 1.955 . S
O202 C215 1.273 1_565 S
O203 Mg192 2.114 . S
O203 Mg194 2.291 . S
O203 C205 1.312 1_556 S
O204 Mg189 2.031 1_554 S
O204 C205 1.208 . S
C205 O203 1.312 1_554 S
C205 O204 1.208 . S
C206 O198 1.331 . S
C206 O201 1.244 . S
O207 Mg192 2.013 . S
O207 C196 1.191 . S
O208 C187 1.331 . S
O208 Mg194 2.081 . S
O209 Mg190 1.986 . S
O209 C196 1.307 . S
O210 C188 1.264 . S
O210 Mg194 2.023 . S
O211 C187 1.244 . S
O211 Mg195 1.942 . S
O212 C188 1.273 . S
O212 Mg195 1.955 . S
O213 C186 1.312 . S
O213 Mg189 2.291 . S
O213 Mg192 2.114 . S
O214 C186 1.208 . S
O214 Mg194 2.031 . S
C215 O200 1.264 . S
C215 O202 1.273 1_545 S
C216 O197 1.191 . S
C216 O199 1.307 . S
C217 O244 1.312 . S
C217 O245 1.208 . S
C218 O239 1.331 . S
C218 O242 1.244 . S
C219 O241 1.264 . S
C219 O243 1.273 . S
Mg220 O222 1.936 . S
Mg220 O229 2.081 . S
Mg220 O231 2.023 1_455 S
Mg220 O235 2.031 1_556 S
Mg220 O244 2.291 . S
Mg221 O222 1.963 . S
Mg221 O232 1.942 . S
Mg221 O233 1.955 . S
Mg221 O240 1.986 . S
O222 Mg220 1.936 . S
O222 Mg221 1.963 . S
O222 Mg223 1.915 . S
Mg223 O222 1.915 . S
Mg223 O224 1.915 . S
Mg223 O228 2.013 . S
Mg223 O234 2.114 . S
Mg223 O238 2.013 . S
Mg223 O244 2.114 . S
O224 Mg223 1.915 . S
O224 Mg225 1.936 . S
O224 Mg226 1.963 . S
Mg225 O224 1.936 . S
Mg225 O234 2.291 . S
Mg225 O239 2.081 . S
Mg225 O241 2.023 . S
Mg225 O245 2.031 . S
Mg226 O224 1.963 . S
Mg226 O230 1.986 . S
Mg226 O242 1.942 . S
Mg226 O243 1.955 . S
C227 O238 1.191 . S
C227 O240 1.307 . S
O228 Mg223 2.013 . S
O228 C247 1.191 . S
O229 Mg220 2.081 . S
O229 C237 1.331 . S
O230 Mg226 1.986 . S
O230 C247 1.307 . S
O231 Mg220 2.023 1_655 S
O231 C246 1.264 . S
O232 Mg221 1.942 . S
O232 C237 1.244 . S
O233 Mg221 1.955 . S
O233 C246 1.273 1_455 S
O234 Mg223 2.114 . S
O234 Mg225 2.291 . S
O234 C236 1.312 1_556 S
O235 Mg220 2.031 1_554 S
O235 C236 1.208 . S
C236 O234 1.312 1_554 S
C236 O235 1.208 . S
C237 O229 1.331 . S
C237 O232 1.244 . S
O238 Mg223 2.013 . S
O238 C227 1.191 . S
O239 C218 1.331 . S
O239 Mg225 2.081 . S
O240 Mg221 1.986 . S
O240 C227 1.307 . S
O241 C219 1.264 . S
O241 Mg225 2.023 . S
O242 C218 1.244 . S
O242 Mg226 1.942 . S
O243 C219 1.273 . S
O243 Mg226 1.955 . S
O244 C217 1.312 . S
O244 Mg220 2.291 . S
O244 Mg223 2.114 . S
O245 C217 1.208 . S
O245 Mg225 2.031 . S
C246 O231 1.264 . S
C246 O233 1.273 1_655 S
C247 O228 1.191 . S
C247 O230 1.307 . S
C248 O275 1.312 . S
C248 O276 1.208 . S
C249 O270 1.331 . S
C249 O273 1.244 . S
C250 O272 1.264 . S
C250 O274 1.273 . S
Mg251 O253 1.936 . S
Mg251 O260 2.081 . S
Mg251 O262 2.023 . S
Mg251 O266 2.031 1_556 S
Mg251 O275 2.291 . S
Mg252 O253 1.963 . S
Mg252 O263 1.942 . S
Mg252 O264 1.955 . S
Mg252 O271 1.986 . S
O253 Mg251 1.936 . S
O253 Mg252 1.963 . S
O253 Mg254 1.915 . S
Mg254 O253 1.915 . S
Mg254 O255 1.915 . S
Mg254 O259 2.013 . S
Mg254 O265 2.114 . S
Mg254 O269 2.013 . S
Mg254 O275 2.114 . S
O255 Mg254 1.915 . S
O255 Mg256 1.936 . S
O255 Mg257 1.963 . S
Mg256 O255 1.936 . S
Mg256 O265 2.291 . S
Mg256 O270 2.081 . S
Mg256 O272 2.023 . S
Mg256 O276 2.031 . S
Mg257 O255 1.963 . S
Mg257 O261 1.986 . S
Mg257 O273 1.942 . S
Mg257 O274 1.955 . S
C258 O269 1.191 . S
C258 O271 1.307 . S
O259 Mg254 2.013 . S
O259 C278 1.191 . S
O260 Mg251 2.081 . S
O260 C268 1.331 . S
O261 Mg257 1.986 . S
O261 C278 1.307 . S
O262 Mg251 2.023 . S
O262 C277 1.264 . S
O263 Mg252 1.942 . S
O263 C268 1.244 . S
O264 Mg252 1.955 . S
O264 C277 1.273 . S
O265 Mg254 2.114 . S
O265 Mg256 2.291 . S
O265 C267 1.312 1_556 S
O266 Mg251 2.031 1_554 S
O266 C267 1.208 . S
C267 O265 1.312 1_554 S
C267 O266 1.208 . S
C268 O260 1.331 . S
C268 O263 1.244 . S
O269 Mg254 2.013 . S
O269 C258 1.191 . S
O270 C249 1.331 . S
O270 Mg256 2.081 . S
O271 Mg252 1.986 . S
O271 C258 1.307 . S
O272 C250 1.264 . S
O272 Mg256 2.023 . S
O273 C249 1.244 . S
O273 Mg257 1.942 . S
O274 C250 1.273 . S
O274 Mg257 1.955 . S
O275 C248 1.312 . S
O275 Mg251 2.291 . S
O275 Mg254 2.114 . S
O276 C248 1.208 . S
O276 Mg256 2.031 . S
C277 O262 1.264 . S
C277 O264 1.273 . S
C278 O259 1.191 . S
C278 O261 1.307 . S
C20 C153 1.323 . S
C184 C51 1.323 . S
C82 C122 1.323 . S
C32 C93 3.560 . S
C63 C124 3.560 . S
C1 C155 3.560 . S
C113 C246 1.323 . S
C277 C144 1.323 . S
C215 C175 1.323 . S
C125 C186 3.560 1_544 S
C217 C156 3.561 1_456 S
C248 C94 3.560 1_556 S
C206 C60 1.323 . S
C237 C91 1.323 . S
C29 C268 1.323 . S
C0 C218 3.560 . S
C31 C249 3.561 . S
C187 C62 3.561 . S
C64 C10 2.406 1_554 S
C2 C41 2.407 1_544 S
C33 C72 2.407 1_654 S
C157 C103 2.407 . S
C95 C134 2.406 . S
C126 C165 2.406 . S
C196 C250 2.407 . S
C227 C188 2.407 . S
C258 C219 2.406 . S
C30 C19 1.185 . S
C50 C61 1.185 . S
C92 C81 1.185 . S
C112 C123 1.185 . S
C154 C143 1.185 . S
C174 C185 1.185 . S
C216 C205 1.185 . S
C247 C236 1.185 . S
C278 C267 1.185 . S
