# Generated by pormake.
# Topology rkf, (6)-cn, num edge types: 1
# Building blocks:
#     Node 0, Type 0, BuildingBlock: MIFKUJ_clean_sbu_0, # of connection points: 6
#     Node 1, Type 0, BuildingBlock: MIFKUJ_clean_sbu_0, # of connection points: 6
#     Node 2, Type 0, BuildingBlock: MIFKUJ_clean_sbu_0, # of connection points: 6
#     Node 3, Type 0, BuildingBlock: MIFKUJ_clean_sbu_0, # of connection points: 6
#     Node 4, Type 0, BuildingBlock: MIFKUJ_clean_sbu_0, # of connection points: 6
#     Node 5, Type 0, BuildingBlock: MIFKUJ_clean_sbu_0, # of connection points: 6
#     Edge 6, Type (0, 0), BuildingBlock: CIFDUS_clean_linker_0, # of connection points: 2
#     Edge 7, Type (0, 0), BuildingBlock: CIFDUS_clean_linker_0, # of connection points: 2
#     Edge 8, Type (0, 0), BuildingBlock: CIFDUS_clean_linker_0, # of connection points: 2
#     Edge 9, Type (0, 0), BuildingBlock: CIFDUS_clean_linker_0, # of connection points: 2
#     Edge 10, Type (0, 0), BuildingBlock: CIFDUS_clean_linker_0, # of connection points: 2
#     Edge 11, Type (0, 0), BuildingBlock: CIFDUS_clean_linker_0, # of connection points: 2
#     Edge 12, Type (0, 0), BuildingBlock: CIFDUS_clean_linker_0, # of connection points: 2
#     Edge 13, Type (0, 0), BuildingBlock: CIFDUS_clean_linker_0, # of connection points: 2
#     Edge 14, Type (0, 0), BuildingBlock: CIFDUS_clean_linker_0, # of connection points: 2
#     Edge 15, Type (0, 0), BuildingBlock: CIFDUS_clean_linker_0, # of connection points: 2
#     Edge 16, Type (0, 0), BuildingBlock: CIFDUS_clean_linker_0, # of connection points: 2
#     Edge 17, Type (0, 0), BuildingBlock: CIFDUS_clean_linker_0, # of connection points: 2
#     Edge 18, Type (0, 0), BuildingBlock: CIFDUS_clean_linker_0, # of connection points: 2
#     Edge 19, Type (0, 0), BuildingBlock: CIFDUS_clean_linker_0, # of connection points: 2
#     Edge 20, Type (0, 0), BuildingBlock: CIFDUS_clean_linker_0, # of connection points: 2
#     Edge 21, Type (0, 0), BuildingBlock: CIFDUS_clean_linker_0, # of connection points: 2
#     Edge 22, Type (0, 0), BuildingBlock: CIFDUS_clean_linker_0, # of connection points: 2
#     Edge 23, Type (0, 0), BuildingBlock: CIFDUS_clean_linker_0, # of connection points: 2
# Relax obj value: 0.335
# Max RMSD: 0.299
# Mean RMSD: 0.299
data_MOF--net-rkf--node1-MIFKUJ_clean_sbu_0--edge1-CIFDUS_clean_linker_0
_symmetry_space_group_name_H-M    P1
_symmetry_Int_Tables_number       1
_symmetry_cell_setting            triclinic
loop_
_symmetry_equiv_pos_as_xyz
'x, y, z'
_cell_length_a     19.934783
_cell_length_b     20.204688
_cell_length_c     40.942734
_cell_angle_alpha  89.326874
_cell_angle_beta   89.979815
_cell_angle_gamma 121.38608
loop_
_atom_site_label
_atom_site_type_symbol
_atom_site_fract_x
_atom_site_fract_y
_atom_site_fract_z
_atom_type_partial_charge
Zn0 Zn 0.35346 0.23184 0.96336 0.0
Zn1 Zn 0.36945 0.16474 0.06062 0.0
C2 C 0.22168 0.07539 0.95488 0.0
O3 O 0.26184 0.05707 0.97448 0.0
C4 C 0.42558 0.21619 0.11892 0.0
O5 O 0.34906 0.18574 0.11963 0.0
O6 O 0.3823 0.31564 0.92949 0.0
O7 O 0.36326 0.2674 1.00991 0.0
O8 O 0.32464 0.23514 0.05998 0.0
C9 C 0.34479 0.35076 0.92989 0.0
O10 O 0.30047 0.34122 0.95539 0.0
O11 O 0.24598 0.14639 0.94939 0.0
C12 C 0.2847 0.01762 0.10179 0.0
O13 O 0.35464 0.03711 0.11256 0.0
O14 O 0.27938 0.05842 0.07899 0.0
O15 O 0.40569 0.16543 0.01389 0.0
O16 O 0.4246 0.18824 0.96101 0.0
O17 O 0.45802 0.2149 0.09251 0.0
C18 C 0.31093 0.25016 0.03152 0.0
C19 C 0.43512 0.1601 0.98718 0.0
Zn20 Zn 0.23144 0.1975 0.40686 0.0
Zn21 Zn 0.318 0.29831 0.31526 0.0
C22 C 0.06228 0.12381 0.40873 0.0
O23 O -0.00887 0.08755 0.39654 0.0
C24 C 0.47261 0.4243 0.28147 0.0
O25 O 0.53085 0.49692 0.28122 0.0
O26 O 0.23018 0.13751 0.44787 0.0
O27 O 0.28582 0.17583 0.37107 0.0
O28 O 0.34202 0.21151 0.32261 0.0
C29 C 0.20129 0.06528 0.4438 0.0
O30 O 0.1764 0.03703 0.41457 0.0
O31 O 0.12149 0.15602 0.38974 0.0
C32 C 0.24415 0.3005 0.25157 0.0
O33 O 0.30757 0.36955 0.2481 0.0
O34 O 0.23391 0.2623 0.2781 0.0
O35 O 0.27487 0.30254 0.35905 0.0
O36 O 0.29478 0.31351 0.41141 0.0
O37 O 0.41942 0.40224 0.30356 0.0
C38 C 0.32132 0.16667 0.34747 0.0
C39 C 0.3162 0.34275 0.38295 0.0
Zn40 Zn 0.97495 0.16826 0.63068 0.0
Zn41 Zn 0.05521 0.2711 0.72433 0.0
C42 C 0.11893 0.22734 0.5945 0.0
O43 O 0.13447 0.29606 0.60354 0.0
C44 C 0.00668 0.26075 0.7866 0.0
O45 O 0.05819 0.23884 0.78665 0.0
O46 O 0.88379 0.086 0.60394 0.0
O47 O 0.96666 0.13212 0.67796 0.0
O48 O 0.00464 0.15731 0.72924 0.0
C49 C 0.88738 0.09071 0.57281 0.0
O50 O 0.94012 0.15667 0.55894 0.0
O51 O 0.0647 0.16783 0.60926 0.0
C52 C 0.19424 0.3812 0.757 0.0
O53 O 0.15235 0.41385 0.75975 0.0
O54 O 0.16967 0.32358 0.73809 0.0
O55 O 0.03121 0.27999 0.67742 0.0
O56 O -0.00513 0.27835 0.62749 0.0
O57 O -0.0073 0.28465 0.75995 0.0
C58 C 0.96164 0.10974 0.70753 0.0
C59 C 0.0247 0.31633 0.65345 0.0
Zn60 Zn 0.78777 0.97895 0.07162 0.0
Zn61 Zn 0.71416 0.88591 0.97596 0.0
C62 C 0.70173 0.90318 0.12551 0.0
O63 O 0.71122 0.97238 0.12776 0.0
C64 C 0.76973 0.02787 0.94055 0.0
O65 O 0.81574 0.05453 0.96611 0.0
O66 O 0.87222 0.06435 0.10091 0.0
O67 O 0.82356 0.95353 0.03084 0.0
O68 O 0.82865 0.91794 0.98133 0.0
C69 C 0.93986 0.07437 0.10662 0.0
O70 O 0.96362 0.0354 0.08971 0.0
O71 O 0.7292 0.88765 0.10076 0.0
C72 C 0.61931 0.75707 0.93347 0.0
O73 O 0.58968 0.79959 0.9251 0.0
O74 O 0.66435 0.77701 0.95809 0.0
O75 O 0.67824 0.90287 0.02059 0.0
O76 O 0.70715 -0.00057 0.0537 0.0
O77 O 0.71553 0.95675 0.94038 0.0
C78 C 0.8626 0.94747 1.00808 0.0
C79 C 0.67024 0.95913 0.02892 0.0
Zn80 Zn 0.88272 0.68618 0.29576 0.0
Zn81 Zn 0.86227 0.69951 0.39466 0.0
C82 C 0.75952 0.70931 0.27621 0.0
O83 O 0.72123 0.6333 0.27516 0.0
C84 C 0.88219 0.58614 0.43095 0.0
O85 O 0.94464 0.61104 0.41226 0.0
O86 O 0.95691 0.70226 0.25706 0.0
O87 O 0.94532 0.72952 0.33551 0.0
O88 O 0.98182 0.76215 0.38531 0.0
C89 C 0.95159 0.73253 0.23032 0.0
O90 O 0.88987 0.73872 0.22584 0.0
O91 O 0.83057 0.74599 0.28558 0.0
C92 C 0.81113 0.76474 0.44634 0.0
O93 O 0.79432 0.70087 0.46213 0.0
O94 O 0.83709 0.77486 0.41707 0.0
O95 O 0.80393 0.66023 0.35113 0.0
O96 O 0.79432 0.58147 0.31266 0.0
O97 O 0.83677 0.61174 0.42588 0.0
C98 C 0.00029 0.76709 0.35528 0.0
C99 C 0.77094 0.59143 0.34029 0.0
Zn100 Zn 0.92566 0.70163 0.75765 0.0
Zn101 Zn 0.94786 0.69932 0.65303 0.0
C102 C -0.00178 0.79636 0.80876 0.0
O103 O -0.01002 0.72925 0.81661 0.0
C104 C 0.84629 0.55907 0.61686 0.0
O105 O 0.78984 0.55694 0.6343 0.0
O106 O 0.8453 0.62955 0.7915 0.0
O107 O 0.87631 0.70005 0.71415 0.0
O108 O 0.85047 0.70445 0.66295 0.0
C109 C 0.7754 0.61584 0.79208 0.0
O110 O 0.74666 0.62761 0.76529 0.0
O111 O 0.97799 0.80508 0.7803 0.0
C112 C 0.06231 0.79419 0.60314 0.0
O113 O 0.05675 0.72772 0.59734 0.0
O114 O 0.02484 0.79851 0.62743 0.0
O115 O -0.01148 0.69103 0.69718 0.0
O116 O 0.00953 0.67484 0.74781 0.0
O117 O 0.91717 0.60925 0.62347 0.0
C118 C 0.8354 0.70878 0.69282 0.0
C119 C 0.02384 0.67252 0.71762 0.0
H120 H 0.95294 0.10023 1.00275 0.0
H121 H 0.95932 0.89204 0.0173 0.0
H122 H 0.10227 0.96994 0.02494 0.0
H123 H 0.22224 0.09714 0.03017 0.0
H124 H 0.21741 0.30546 0.014 0.0
H125 H 0.07531 0.22765 1.00397 0.0
C126 C -0.01371 0.07241 1.00718 0.0
C127 C 0.94751 -0.00845 1.00963 0.0
C128 C 0.06743 0.11726 1.01119 0.0
C129 C -0.01057 0.95466 0.01537 0.0
C130 C 0.07044 -0.00103 0.01982 0.0
C131 C 0.18987 0.12502 0.02395 0.0
C132 C 0.22898 0.20594 0.02203 0.0
C133 C 0.10955 0.08017 0.01817 0.0
C134 C 0.18771 0.24278 0.01463 0.0
C135 C 0.10695 0.1985 1.00918 0.0
H136 H 0.1378 0.83796 0.3889 0.0
H137 H 0.03941 0.82693 0.29384 0.0
H138 H 0.15655 0.94774 0.27753 0.0
H139 H 0.26425 0.07193 0.29652 0.0
H140 H 0.35452 0.08953 0.39358 0.0
H141 H 0.2699 0.94949 0.40155 0.0
C142 C 0.14338 0.86095 0.36432 0.0
C143 C 0.07925 0.82522 0.34303 0.0
C144 C 0.21041 0.93193 0.35532 0.0
C145 C 0.08759 0.85396 0.31088 0.0
C146 C 0.15461 0.92347 0.30152 0.0
C147 C 0.26814 0.04438 0.31878 0.0
C148 C 0.3129 0.09046 0.3449 0.0
C149 C 0.2135 0.96557 0.32439 0.0
C150 C 0.31899 0.05471 0.3734 0.0
C151 C 0.26907 0.97496 0.37825 0.0
H152 H 0.8388 0.77497 0.75027 0.0
H153 H 0.74074 0.73657 0.65365 0.0
H154 H 0.75636 0.86448 0.65337 0.0
H155 H 0.84414 -0.00178 0.67145 0.0
H156 H 0.95817 0.0389 0.76506 0.0
H157 H 0.8915 0.9 0.77556 0.0
C158 C 0.81714 0.79287 0.72979 0.0
C159 C 0.79474 0.7498 0.70099 0.0
C160 C 0.83353 0.86888 0.72861 0.0
C161 C 0.76231 0.77117 0.67548 0.0
C162 C 0.77262 0.84491 0.67506 0.0
C163 C 0.85315 0.97656 0.69438 0.0
C164 C 0.9092 0.02794 0.71659 0.0
C165 C 0.81638 0.89673 0.69987 0.0
C166 C 0.91762 -7e-05 0.74695 0.0
C167 C 0.87907 0.92055 0.75312 0.0
H168 H 0.38013 0.33121 0.86788 0.0
H169 H 0.28288 0.44273 0.92322 0.0
H170 H 0.23926 0.47399 0.87282 0.0
H171 H 0.21222 0.45303 0.81456 0.0
H172 H 0.29725 0.32988 0.7597 0.0
H173 H 0.36394 0.32146 0.80831 0.0
C174 C 0.35126 0.36417 0.86887 0.0
C175 C 0.33446 0.38427 0.89932 0.0
C176 C 0.32368 0.37938 0.83987 0.0
C177 C 0.29635 0.42636 0.90014 0.0
C178 C 0.2711 0.444 0.87133 0.0
C179 C 0.24696 0.42603 0.81289 0.0
C180 C 0.24938 0.39173 0.78351 0.0
C181 C 0.282 0.41835 0.84122 0.0
C182 C 0.29429 0.35656 0.78201 0.0
C183 C 0.33201 0.35134 0.80986 0.0
H184 H 0.08413 0.22845 0.24351 0.0
H185 H 0.29853 0.28705 0.19327 0.0
H186 H 0.22471 0.22319 0.14407 0.0
H187 H 0.09858 0.14884 0.11516 0.0
H188 H 0.88484 0.10017 0.16326 0.0
H189 H 0.95826 0.1624 0.21286 0.0
C190 C 0.11434 0.227 0.22175 0.0
C191 C 0.19661 0.26158 0.22216 0.0
C192 C 0.07153 0.19243 0.19294 0.0
C193 C 0.23526 0.26051 0.19362 0.0
C194 C 0.19305 0.22406 0.16543 0.0
C195 C 0.0682 0.1525 0.13641 0.0
C196 C -0.01378 0.11983 0.13539 0.0
C197 C 0.11113 0.18972 0.16475 0.0
C198 C 0.94794 0.12547 0.16316 0.0
C199 C -0.0101 0.16061 0.19169 0.0
H200 H 0.87647 0.07907 0.50625 0.0
H201 H 0.81272 0.94032 0.59472 0.0
H202 H 0.77567 0.82523 0.56282 0.0
H203 H 0.77792 0.76751 0.51072 0.0
H204 H 0.8415 0.90524 0.42202 0.0
H205 H 0.85897 0.01593 0.45295 0.0
C206 C 0.85274 0.02334 0.51853 0.0
C207 C 0.84853 0.01893 0.55298 0.0
C208 C 0.83181 0.95699 0.49998 0.0
C209 C 0.81709 0.94592 0.56835 0.0
C210 C 0.79628 0.87992 0.55009 0.0
C211 C 0.79474 0.82139 0.49798 0.0
C212 C 0.81003 0.82823 0.46409 0.0
C213 C 0.80617 0.88535 0.51602 0.0
C214 C 0.83031 0.89831 0.4481 0.0
C215 C 0.84038 0.96181 0.46582 0.0
H216 H 0.71685 0.69977 0.93127 0.0
H217 H 0.52476 0.69493 0.8804 0.0
H218 H 0.54778 0.63608 0.83336 0.0
H219 H 0.63702 0.60874 0.8033 0.0
H220 H 0.83347 0.62017 0.85322 0.0
H221 H 0.79339 0.65234 0.90392 0.0
C222 C 0.67857 0.68395 0.91028 0.0
C223 C 0.61995 0.70313 0.90923 0.0
C224 C 0.69376 0.65233 0.88281 0.0
C225 C 0.5709 0.6818 0.88178 0.0
C226 C 0.58429 0.64843 0.85475 0.0
C227 C 0.66999 0.61625 0.82544 0.0
C228 C 0.73907 0.61343 0.82415 0.0
C229 C 0.64786 0.63691 0.85441 0.0
C230 C 0.78046 0.62261 0.85327 0.0
C231 C 0.75784 0.64156 0.88233 0.0
H232 H 0.95631 0.80189 0.17215 0.0
H233 H 0.10034 0.75682 0.23622 0.0
H234 H 0.2147 0.83695 0.20103 0.0
H235 H 0.27579 0.92688 0.15394 0.0
H236 H 0.13135 0.97393 0.09094 0.0
H237 H 0.01561 0.88605 0.12379 0.0
C238 C 0.01242 0.80861 0.1783 0.0
C239 C 0.01921 0.77283 0.20692 0.0
C240 C 0.07827 0.85574 0.15817 0.0
C241 C 0.09282 0.78286 0.21434 0.0
C242 C 0.15851 0.82919 0.19426 0.0
C243 C 0.21889 0.91727 0.14709 0.0
C244 C 0.21285 0.95733 0.11979 0.0
C245 C 0.15224 0.86691 0.16637 0.0
C246 C 0.13826 0.94399 0.11157 0.0
C247 C 0.07184 0.89378 0.13048 0.0
H248 H 0.09761 0.78368 0.54053 0.0
H249 H 0.11334 0.94898 0.61051 0.0
H250 H 0.16833 0.05116 0.56814 0.0
H251 H 0.20317 0.09077 0.50983 0.0
H252 H 0.16803 0.9175 0.43997 0.0
H253 H 0.13215 0.82231 0.48362 0.0
C254 C 0.11389 0.84224 0.54674 0.0
C255 C 0.10158 0.85858 0.57872 0.0
C256 C 0.14229 0.89955 0.52209 0.0
C257 C 0.12213 0.93473 0.58608 0.0
C258 C 0.15346 -0.00686 0.56183 0.0
C259 C 0.18777 0.03224 0.50425 0.0
C260 C 0.18799 0.01146 0.47149 0.0
C261 C 0.16244 0.97588 0.52952 0.0
C262 C 0.16869 0.93546 0.46479 0.0
C263 C 0.14754 0.8806 0.48979 0.0
H264 H 0.39755 0.01849 1.00893 0.0
H265 H 0.58426 0.22861 0.96439 0.0
H266 H 0.6736 0.17976 0.96911 0.0
H267 H 0.70171 0.08381 0.99246 0.0
H268 H 0.51287 0.86965 0.03316 0.0
H269 H 0.42002 0.91234 0.02288 0.0
C270 C 0.4576 0.05282 0.99995 0.0
C271 C 0.48546 0.12726 0.98696 0.0
C272 C 0.5076 0.02346 1.00191 0.0
C273 C 0.56246 0.17128 0.97474 0.0
C274 C 0.6133 0.14343 0.97743 0.0
C275 C 0.63961 0.04547 0.99776 0.0
C276 C 0.61338 0.97371 0.01315 0.0
C277 C 0.58699 0.07042 0.99172 0.0
C278 C 0.53344 0.92462 0.02069 0.0
C279 C 0.48077 0.94945 0.01525 0.0
H280 H 0.43349 0.31479 0.38006 0.0
H281 H 0.38379 0.49797 0.37324 0.0
H282 H 0.52306 0.59244 0.36165 0.0
H283 H 0.65683 0.62094 0.35138 0.0
H284 H 0.70487 0.43618 0.35289 0.0
H285 H 0.5677 0.34317 0.36878 0.0
C286 C 0.45365 0.37555 0.37617 0.0
C287 C 0.39958 0.40023 0.37754 0.0
C288 C 0.53292 0.42855 0.36868 0.0
C289 C 0.42517 0.47852 0.37241 0.0
C290 C 0.50442 0.53214 0.36576 0.0
C291 C 0.63741 0.56042 0.35569 0.0
C292 C 0.69059 0.53513 0.35161 0.0
C293 C 0.55855 0.50761 0.36365 0.0
C294 C 0.6647 0.45654 0.3562 0.0
C295 C 0.58655 0.40369 0.36521 0.0
H296 H 0.08884 0.40782 0.70557 0.0
H297 H 0.00714 0.40683 0.60804 0.0
H298 H 0.0222 0.53331 0.61707 0.0
H299 H 0.03378 0.6297 0.65615 0.0
H300 H 0.10063 0.62113 0.75552 0.0
H301 H 0.12098 0.51601 0.7419 0.0
C302 C 0.07531 0.43574 0.6862 0.0
C303 C 0.04454 0.39711 0.6567 0.0
C304 C 0.08172 0.50687 0.6919 0.0
C305 C 0.02909 0.43465 0.63133 0.0
C306 C 0.03777 0.50693 0.63644 0.0
C307 C 0.05361 0.60529 0.67468 0.0
C308 C 0.06162 0.63009 0.70712 0.0
C309 C 0.06015 0.54148 0.66718 0.0
C310 C 0.09158 0.60117 0.73056 0.0
C311 C 0.10262 0.54052 0.72284 0.0
H312 H 0.38136 0.165 0.17898 0.0
H313 H 0.56552 0.35589 0.12377 0.0
H314 H 0.60646 0.43702 0.1728 0.0
H315 H 0.5703 0.45905 0.22823 0.0
H316 H 0.36329 0.27201 0.27379 0.0
H317 H 0.35122 0.18382 0.23318 0.0
C318 C 0.43209 0.22374 0.17799 0.0
C319 C 0.46984 0.25517 0.1482 0.0
C320 C 0.4504 0.27093 0.205 0.0
C321 C 0.53583 0.33078 0.14681 0.0
C322 C 0.55818 0.37737 0.17464 0.0
C323 C 0.5234 0.39867 0.2295 0.0
C324 C 0.46913 0.37135 0.25576 0.0
C325 C 0.51267 0.34921 0.20341 0.0
C326 C 0.40857 0.2936 0.25619 0.0
C327 C 0.40067 0.2431 0.23202 0.0
H328 H 0.1562 0.25096 0.44321 0.0
H329 H -0.00376 0.00467 0.45264 0.0
H330 H 0.009 0.01299 0.51229 0.0
H331 H 0.058 0.09264 0.5611 0.0
H332 H 0.21936 0.3399 0.55134 0.0
H333 H 0.2184 0.32819 0.49205 0.0
C334 C 0.12508 0.1992 0.45844 0.0
C335 C 0.07357 0.12763 0.44411 0.0
C336 C 0.13431 0.20452 0.49236 0.0
C337 C 0.03336 0.06062 0.46366 0.0
C338 C 0.04168 0.06535 0.49754 0.0
C339 C 0.0944 0.14395 0.54615 0.0
C340 C 0.13746 0.21743 0.56064 0.0
C341 C 0.09088 0.13735 0.51214 0.0
C342 C 0.18505 0.28284 0.54081 0.0
C343 C 0.18382 0.27635 0.5069 0.0
H344 H 0.85277 0.15559 0.79631 0.0
H345 H 0.06286 0.32873 0.84424 0.0
H346 H 0.00191 0.27702 0.89763 0.0
H347 H 0.89779 0.17097 0.92996 0.0
H348 H 0.69156 0.9897 0.88221 0.0
H349 H 0.74104 0.05647 0.82961 0.0
C350 C 0.88337 0.18395 0.81854 0.0
C351 C 0.96108 0.24712 0.81662 0.0
C352 C 0.8492 0.1513 0.84915 0.0
C353 C 0.00208 0.28148 0.84538 0.0
C354 C 0.96764 0.2512 0.87584 0.0
C355 C 0.86266 0.14681 0.90821 0.0
C356 C 0.79142 0.07503 0.91004 0.0
C357 C 0.89248 0.18435 0.87797 0.0
C358 C 0.74685 0.04467 0.88151 0.0
C359 C 0.77523 0.08274 0.85137 0.0
H360 H 0.74164 0.94926 0.18721 0.0
H361 H 0.61633 0.74586 0.12783 0.0
H362 H 0.6059 0.66359 0.17429 0.0
H363 H 0.65498 0.6536 0.22739 0.0
H364 H 0.80049 0.85989 0.28309 0.0
H365 H 0.77901 0.93739 0.24289 0.0
C366 C 0.70988 0.88667 0.18486 0.0
C367 C 0.67966 0.85303 0.15447 0.0
C368 C 0.70872 0.84077 0.21092 0.0
C369 C 0.63997 0.77234 0.1512 0.0
C370 C 0.63435 0.72562 0.17765 0.0
C371 C 0.68002 0.71512 0.23125 0.0
C372 C 0.7299 0.75145 0.25781 0.0
C373 C 0.6718 0.75967 0.20707 0.0
C374 C 0.76236 0.83112 0.26255 0.0
C375 C 0.75048 0.87535 0.23952 0.0
H376 H 0.75561 0.51277 0.47147 0.0
H377 H -0.00196 0.57708 0.46247 0.0
H378 H 0.00276 0.55626 0.52099 0.0
H379 H 0.94762 0.5506 0.57519 0.0
H380 H 0.70668 0.49115 0.58434 0.0
H381 H 0.69129 0.47736 0.52533 0.0
C382 C 0.80876 0.51994 0.48217 0.0
C383 C 0.87703 0.54877 0.46288 0.0
C384 C 0.81171 0.50987 0.51598 0.0
C385 C 0.94493 0.55605 0.47685 0.0
C386 C 0.9479 0.54471 0.51041 0.0
C387 C 0.89093 0.53201 0.56443 0.0
C388 C 0.82918 0.52425 0.58406 0.0
C389 C 0.88311 0.52631 0.53039 0.0
C390 C 0.75566 0.49877 0.56979 0.0
C391 C 0.74693 0.49144 0.53595 0.0
H392 H 0.01195 0.7796 0.87323 0.0
H393 H 0.05166 0.95155 0.7998 0.0
H394 H 0.11403 0.05371 0.84074 0.0
H395 H 0.17106 0.09443 0.89573 0.0
H396 H 0.13509 0.92067 0.96763 0.0
H397 H 0.05561 0.8184 0.929 0.0
C398 C 0.03396 0.83939 0.86609 0.0
C399 C 0.02907 0.8583 0.83336 0.0
C400 C 0.07012 0.89728 0.88952 0.0
C401 C 0.05588 0.93573 0.82476 0.0
C402 C 0.09145 -0.00597 0.84815 0.0
C403 C 0.14426 0.03411 0.90317 0.0
C404 C 0.15971 0.01499 0.93435 0.0
C405 C 0.10082 0.97561 0.88041 0.0
C406 C 0.12468 0.93673 0.94367 0.0
C407 C 0.07961 0.8783 0.92154 0.0
loop_
_geom_bond_atom_site_label_1
_geom_bond_atom_site_label_2
_geom_bond_distance
_geom_bond_site_symmetry_2
_ccdc_geom_bond_type
Zn0 O6 1.969 . S
Zn0 O7 1.965 . S
Zn0 O11 2.024 1_545 S
Zn0 O16 1.969 . S
Zn1 O8 1.969 . S
Zn1 O14 1.969 1_545 S
Zn1 O15 1.965 1_545 S
Zn1 O17 2.024 . S
C2 O3 1.229 . S
C2 O11 1.058 . S
O3 C2 1.229 . S
C4 O5 1.229 . S
C4 O17 1.058 . S
O5 C4 1.229 . S
O6 Zn0 1.969 . S
O6 C9 1.267 . S
O7 Zn0 1.965 . S
O7 C18 1.260 1_556 S
O8 Zn1 1.969 . S
O8 C18 1.258 . S
C9 O6 1.267 . S
C9 O10 1.228 . S
O10 C9 1.228 . S
O11 Zn0 2.024 1_565 S
O11 C2 1.058 . S
C12 O13 1.228 . S
C12 O14 1.267 . S
O13 C12 1.228 . S
O14 Zn1 1.969 1_565 S
O14 C12 1.267 . S
O15 Zn1 1.965 1_565 S
O15 C19 1.260 1_565 S
O16 Zn0 1.969 . S
O16 C19 1.258 1_556 S
O17 Zn1 2.024 . S
O17 C4 1.058 . S
C18 O7 1.260 1_554 S
C18 O8 1.258 . S
C19 O15 1.260 1_545 S
C19 O16 1.258 1_554 S
Zn20 O26 1.969 . S
Zn20 O27 1.965 . S
Zn20 O31 2.024 . S
Zn20 O36 1.969 . S
Zn21 O28 1.969 . S
Zn21 O34 1.969 . S
Zn21 O35 1.965 . S
Zn21 O37 2.024 . S
C22 O23 1.229 . S
C22 O31 1.058 . S
O23 C22 1.229 . S
C24 O25 1.229 . S
C24 O37 1.058 . S
O25 C24 1.229 . S
O26 Zn20 1.969 . S
O26 C29 1.267 . S
O27 Zn20 1.965 . S
O27 C38 1.260 . S
O28 Zn21 1.969 . S
O28 C38 1.258 . S
C29 O26 1.267 . S
C29 O30 1.228 . S
O30 C29 1.228 . S
O31 Zn20 2.024 . S
O31 C22 1.058 . S
C32 O33 1.228 . S
C32 O34 1.267 . S
O33 C32 1.228 . S
O34 Zn21 1.969 . S
O34 C32 1.267 . S
O35 Zn21 1.965 . S
O35 C39 1.260 . S
O36 Zn20 1.969 . S
O36 C39 1.258 . S
O37 Zn21 2.024 . S
O37 C24 1.058 . S
C38 O27 1.260 . S
C38 O28 1.258 . S
C39 O35 1.260 . S
C39 O36 1.258 . S
Zn40 O46 1.969 . S
Zn40 O47 1.965 . S
Zn40 O51 2.024 1_655 S
Zn40 O56 1.969 1_655 S
Zn41 O48 1.969 . S
Zn41 O54 1.969 . S
Zn41 O55 1.965 . S
Zn41 O57 2.024 1_455 S
C42 O43 1.229 . S
C42 O51 1.058 . S
O43 C42 1.229 . S
C44 O45 1.229 . S
C44 O57 1.058 . S
O45 C44 1.229 . S
O46 Zn40 1.969 . S
O46 C49 1.267 . S
O47 Zn40 1.965 . S
O47 C58 1.260 . S
O48 Zn41 1.969 . S
O48 C58 1.258 1_455 S
C49 O46 1.267 . S
C49 O50 1.228 . S
O50 C49 1.228 . S
O51 Zn40 2.024 1_455 S
O51 C42 1.058 . S
C52 O53 1.228 . S
C52 O54 1.267 . S
O53 C52 1.228 . S
O54 Zn41 1.969 . S
O54 C52 1.267 . S
O55 Zn41 1.965 . S
O55 C59 1.260 . S
O56 Zn40 1.969 1_455 S
O56 C59 1.258 . S
O57 Zn41 2.024 1_655 S
O57 C44 1.058 . S
C58 O47 1.260 . S
C58 O48 1.258 1_655 S
C59 O55 1.260 . S
C59 O56 1.258 . S
Zn60 O66 1.969 . S
Zn60 O67 1.965 . S
Zn60 O71 2.024 1_545 S
Zn60 O76 1.969 . S
Zn61 O68 1.969 . S
Zn61 O74 1.969 1_545 S
Zn61 O75 1.965 1_545 S
Zn61 O77 2.024 . S
C62 O63 1.229 . S
C62 O71 1.058 . S
O63 C62 1.229 . S
C64 O65 1.229 . S
C64 O77 1.058 . S
O65 C64 1.229 . S
O66 Zn60 1.969 . S
O66 C69 1.267 . S
O67 Zn60 1.965 . S
O67 C78 1.260 . S
O68 Zn61 1.969 . S
O68 C78 1.258 1_556 S
C69 O66 1.267 . S
C69 O70 1.228 . S
O70 C69 1.228 . S
O71 Zn60 2.024 1_565 S
O71 C62 1.058 . S
C72 O73 1.228 . S
C72 O74 1.267 . S
O73 C72 1.228 . S
O74 Zn61 1.969 1_565 S
O74 C72 1.267 . S
O75 Zn61 1.965 1_565 S
O75 C79 1.260 1_566 S
O76 Zn60 1.969 . S
O76 C79 1.258 . S
O77 Zn61 2.024 . S
O77 C64 1.058 . S
C78 O67 1.260 . S
C78 O68 1.258 1_554 S
C79 O75 1.260 1_544 S
C79 O76 1.258 . S
Zn80 O86 1.969 . S
Zn80 O87 1.965 . S
Zn80 O91 2.024 . S
Zn80 O96 1.969 . S
Zn81 O88 1.969 . S
Zn81 O94 1.969 . S
Zn81 O95 1.965 . S
Zn81 O97 2.024 . S
C82 O83 1.229 . S
C82 O91 1.058 . S
O83 C82 1.229 . S
C84 O85 1.229 . S
C84 O97 1.058 . S
O85 C84 1.229 . S
O86 Zn80 1.969 . S
O86 C89 1.267 . S
O87 Zn80 1.965 . S
O87 C98 1.260 . S
O88 Zn81 1.969 . S
O88 C98 1.258 . S
C89 O86 1.267 . S
C89 O90 1.228 . S
O90 C89 1.228 . S
O91 Zn80 2.024 . S
O91 C82 1.058 . S
C92 O93 1.228 . S
C92 O94 1.267 . S
O93 C92 1.228 . S
O94 Zn81 1.969 . S
O94 C92 1.267 . S
O95 Zn81 1.965 . S
O95 C99 1.260 . S
O96 Zn80 1.969 . S
O96 C99 1.258 . S
O97 Zn81 2.024 . S
O97 C84 1.058 . S
C98 O87 1.260 . S
C98 O88 1.258 . S
C99 O95 1.260 . S
C99 O96 1.258 . S
Zn100 O106 1.969 . S
Zn100 O107 1.965 . S
Zn100 O111 2.024 1_655 S
Zn100 O116 1.969 1_655 S
Zn101 O108 1.969 . S
Zn101 O114 1.969 . S
Zn101 O115 1.965 . S
Zn101 O117 2.024 1_455 S
C102 O103 1.229 . S
C102 O111 1.058 . S
O103 C102 1.229 . S
C104 O105 1.229 . S
C104 O117 1.058 . S
O105 C104 1.229 . S
O106 Zn100 1.969 . S
O106 C109 1.267 . S
O107 Zn100 1.965 . S
O107 C118 1.260 . S
O108 Zn101 1.969 . S
O108 C118 1.258 1_455 S
C109 O106 1.267 . S
C109 O110 1.228 . S
O110 C109 1.228 . S
O111 Zn100 2.024 1_455 S
O111 C102 1.058 . S
C112 O113 1.228 . S
C112 O114 1.267 . S
O113 C112 1.228 . S
O114 Zn101 1.969 . S
O114 C112 1.267 . S
O115 Zn101 1.965 . S
O115 C119 1.260 . S
O116 Zn100 1.969 1_455 S
O116 C119 1.258 . S
O117 Zn101 2.024 1_655 S
O117 C104 1.058 . S
C118 O107 1.260 . S
C118 O108 1.258 1_655 S
C119 O115 1.260 . S
C119 O116 1.258 . S
H120 C126 0.930 . S
H121 C129 0.930 . S
H122 C130 0.930 . S
H123 C131 0.930 . S
H124 C134 0.930 . S
H125 C135 0.930 . S
C126 H120 0.930 . S
C126 C127 1.355 1_455 S
C126 C128 1.415 . S
C127 C126 1.355 1_655 S
C127 C129 1.419 1_545 S
C128 C126 1.415 . S
C128 C133 1.425 . S
C128 C135 1.409 . S
C129 H121 0.930 . S
C129 C127 1.419 1_565 S
C129 C130 1.362 . S
C130 H122 0.930 . S
C130 C129 1.362 . S
C130 C133 1.409 1_665 S
C131 H123 0.930 . S
C131 C132 1.355 1_565 S
C131 C133 1.415 1_565 S
C132 C131 1.355 1_545 S
C132 C134 1.419 . S
C133 C128 1.425 . S
C133 C130 1.409 1_445 S
C133 C131 1.415 1_545 S
C134 H124 0.930 . S
C134 C132 1.419 . S
C134 C135 1.362 . S
C135 H125 0.930 . S
C135 C128 1.409 . S
C135 C134 1.362 . S
H136 C142 0.930 . S
H137 C145 0.930 . S
H138 C146 0.930 1_545 S
H139 C147 0.930 . S
H140 C150 0.930 . S
H141 C151 0.930 . S
C142 H136 0.930 . S
C142 C143 1.355 1_455 S
C142 C144 1.415 . S
C143 C142 1.355 1_655 S
C143 C145 1.419 . S
C144 C142 1.415 . S
C144 C149 1.425 1_565 S
C144 C151 1.409 . S
C145 H137 0.930 . S
C145 C143 1.419 . S
C145 C146 1.362 . S
C146 H138 0.930 1_565 S
C146 C145 1.362 . S
C146 C149 1.409 1_665 S
C147 H139 0.930 . S
C147 C148 1.355 . S
C147 C149 1.415 . S
C148 C147 1.355 . S
C148 C150 1.419 . S
C149 C144 1.425 1_545 S
C149 C146 1.409 1_445 S
C149 C147 1.415 . S
C150 H140 0.930 . S
C150 C148 1.419 . S
C150 C151 1.362 1_545 S
C151 H141 0.930 . S
C151 C144 1.409 . S
C151 C150 1.362 1_565 S
H152 C158 0.930 . S
H153 C161 0.930 . S
H154 C162 0.930 . S
H155 C163 0.930 . S
H156 C166 0.930 . S
H157 C167 0.930 . S
C158 H152 0.930 . S
C158 C159 1.355 1_455 S
C158 C160 1.415 . S
C159 C158 1.355 1_655 S
C159 C161 1.419 . S
C160 C158 1.415 . S
C160 C165 1.425 1_455 S
C160 C167 1.409 1_565 S
C161 H153 0.930 . S
C161 C159 1.419 . S
C161 C162 1.362 . S
C162 H154 0.930 . S
C162 C161 1.362 . S
C162 C165 1.409 . S
C163 H155 0.930 . S
C163 C164 1.355 1_655 S
C163 C165 1.415 1_545 S
C164 C163 1.355 1_455 S
C164 C166 1.419 . S
C165 C160 1.425 1_655 S
C165 C162 1.409 . S
C165 C163 1.415 1_565 S
C166 H156 0.930 . S
C166 C164 1.419 . S
C166 C167 1.362 . S
C167 H157 0.930 . S
C167 C160 1.409 1_545 S
C167 C166 1.362 . S
H168 C174 0.930 . S
H169 C177 0.930 . S
H170 C178 0.930 . S
H171 C179 0.930 . S
H172 C182 0.930 . S
H173 C183 0.930 . S
C174 H168 0.930 . S
C174 C175 1.355 . S
C174 C176 1.415 . S
C175 C174 1.355 . S
C175 C177 1.419 . S
C176 C174 1.415 . S
C176 C181 1.425 . S
C176 C183 1.409 . S
C177 H169 0.930 . S
C177 C175 1.419 . S
C177 C178 1.362 . S
C178 H170 0.930 . S
C178 C177 1.362 . S
C178 C181 1.409 . S
C179 H171 0.930 . S
C179 C180 1.355 . S
C179 C181 1.415 . S
C180 C179 1.355 . S
C180 C182 1.419 . S
C181 C176 1.425 . S
C181 C178 1.409 . S
C181 C179 1.415 . S
C182 H172 0.930 . S
C182 C180 1.419 . S
C182 C183 1.362 . S
C183 H173 0.930 . S
C183 C176 1.409 . S
C183 C182 1.362 . S
H184 C190 0.930 . S
H185 C193 0.930 . S
H186 C194 0.930 . S
H187 C195 0.930 . S
H188 C198 0.930 . S
H189 C199 0.930 1_655 S
C190 H184 0.930 . S
C190 C191 1.355 . S
C190 C192 1.415 . S
C191 C190 1.355 . S
C191 C193 1.419 . S
C192 C190 1.415 . S
C192 C197 1.425 . S
C192 C199 1.409 . S
C193 H185 0.930 . S
C193 C191 1.419 . S
C193 C194 1.362 . S
C194 H186 0.930 . S
C194 C193 1.362 . S
C194 C197 1.409 . S
C195 H187 0.930 . S
C195 C196 1.355 1_455 S
C195 C197 1.415 . S
C196 C195 1.355 1_655 S
C196 C198 1.419 . S
C197 C192 1.425 . S
C197 C194 1.409 . S
C197 C195 1.415 . S
C198 H188 0.930 . S
C198 C196 1.419 . S
C198 C199 1.362 1_655 S
C199 H189 0.930 1_455 S
C199 C192 1.409 . S
C199 C198 1.362 1_455 S
H200 C206 0.930 . S
H201 C209 0.930 . S
H202 C210 0.930 . S
H203 C211 0.930 . S
H204 C214 0.930 . S
H205 C215 0.930 . S
C206 H200 0.930 . S
C206 C207 1.355 . S
C206 C208 1.415 1_545 S
C207 C206 1.355 . S
C207 C209 1.419 1_545 S
C208 C206 1.415 1_565 S
C208 C213 1.425 . S
C208 C215 1.409 1_565 S
C209 H201 0.930 . S
C209 C207 1.419 1_565 S
C209 C210 1.362 . S
C210 H202 0.930 . S
C210 C209 1.362 . S
C210 C213 1.409 . S
C211 H203 0.930 . S
C211 C212 1.355 . S
C211 C213 1.415 . S
C212 C211 1.355 . S
C212 C214 1.419 . S
C213 C208 1.425 . S
C213 C210 1.409 . S
C213 C211 1.415 . S
C214 H204 0.930 . S
C214 C212 1.419 . S
C214 C215 1.362 1_565 S
C215 H205 0.930 . S
C215 C208 1.409 1_545 S
C215 C214 1.362 1_545 S
H216 C222 0.930 . S
H217 C225 0.930 . S
H218 C226 0.930 . S
H219 C227 0.930 . S
H220 C230 0.930 . S
H221 C231 0.930 . S
C222 H216 0.930 . S
C222 C223 1.355 . S
C222 C224 1.415 . S
C223 C222 1.355 . S
C223 C225 1.419 . S
C224 C222 1.415 . S
C224 C229 1.425 . S
C224 C231 1.409 . S
C225 H217 0.930 . S
C225 C223 1.419 . S
C225 C226 1.362 . S
C226 H218 0.930 . S
C226 C225 1.362 . S
C226 C229 1.409 . S
C227 H219 0.930 . S
C227 C228 1.355 . S
C227 C229 1.415 . S
C228 C227 1.355 . S
C228 C230 1.419 . S
C229 C224 1.425 . S
C229 C226 1.409 . S
C229 C227 1.415 . S
C230 H220 0.930 . S
C230 C228 1.419 . S
C230 C231 1.362 . S
C231 H221 0.930 . S
C231 C224 1.409 . S
C231 C230 1.362 . S
H232 C238 0.930 1_655 S
H233 C241 0.930 . S
H234 C242 0.930 . S
H235 C243 0.930 . S
H236 C246 0.930 . S
H237 C247 0.930 . S
C238 H232 0.930 1_455 S
C238 C239 1.355 1_455 S
C238 C240 1.415 . S
C239 C238 1.355 1_655 S
C239 C241 1.419 1_655 S
C240 C238 1.415 . S
C240 C245 1.425 . S
C240 C247 1.409 . S
C241 H233 0.930 . S
C241 C239 1.419 1_455 S
C241 C242 1.362 . S
C242 H234 0.930 . S
C242 C241 1.362 . S
C242 C245 1.409 . S
C243 H235 0.930 . S
C243 C244 1.355 . S
C243 C245 1.415 . S
C244 C243 1.355 . S
C244 C246 1.419 . S
C245 C240 1.425 . S
C245 C242 1.409 . S
C245 C243 1.415 . S
C246 H236 0.930 . S
C246 C244 1.419 . S
C246 C247 1.362 . S
C247 H237 0.930 . S
C247 C240 1.409 . S
C247 C246 1.362 . S
H248 C254 0.930 . S
H249 C257 0.930 . S
H250 C258 0.933 . S
H251 C259 0.930 . S
H252 C262 0.930 . S
H253 C263 0.930 . S
C254 H248 0.930 . S
C254 C255 1.355 . S
C254 C256 1.415 . S
C255 C254 1.355 . S
C255 C257 1.419 . S
C256 C254 1.415 . S
C256 C261 1.425 . S
C256 C263 1.409 . S
C257 H249 0.930 . S
C257 C255 1.419 . S
C257 C258 1.360 1_565 S
C258 H250 0.933 . S
C258 C257 1.360 1_545 S
C258 C261 1.409 1_545 S
C259 H251 0.930 . S
C259 C260 1.355 . S
C259 C261 1.415 1_545 S
C260 C259 1.355 . S
C260 C262 1.419 1_545 S
C261 C256 1.425 . S
C261 C258 1.409 1_565 S
C261 C259 1.415 1_565 S
C262 H252 0.930 . S
C262 C260 1.419 1_565 S
C262 C263 1.362 . S
C263 H253 0.930 . S
C263 C256 1.409 . S
C263 C262 1.362 . S
H264 C270 0.930 . S
H265 C273 0.930 . S
H266 C274 0.930 . S
H267 C275 0.930 . S
H268 C278 0.930 . S
H269 C279 0.930 . S
C270 H264 0.930 . S
C270 C271 1.355 1_565 S
C270 C272 1.415 . S
C271 C270 1.355 1_545 S
C271 C273 1.419 . S
C272 C270 1.415 . S
C272 C277 1.425 1_565 S
C272 C279 1.409 . S
C273 H265 0.930 . S
C273 C271 1.419 . S
C273 C274 1.362 . S
C274 H266 0.930 . S
C274 C273 1.362 . S
C274 C277 1.409 . S
C275 H267 0.930 . S
C275 C276 1.355 . S
C275 C277 1.415 . S
C276 C275 1.355 . S
C276 C278 1.419 1_545 S
C277 C272 1.425 1_545 S
C277 C274 1.409 . S
C277 C275 1.415 . S
C278 H268 0.930 . S
C278 C276 1.419 1_565 S
C278 C279 1.362 . S
C279 H269 0.930 . S
C279 C272 1.409 . S
C279 C278 1.362 . S
H280 C286 0.930 . S
H281 C289 0.930 . S
H282 C290 0.930 . S
H283 C291 0.930 . S
H284 C294 0.930 . S
H285 C295 0.930 . S
C286 H280 0.930 . S
C286 C287 1.355 . S
C286 C288 1.415 . S
C287 C286 1.355 . S
C287 C289 1.419 . S
C288 C286 1.415 . S
C288 C293 1.425 . S
C288 C295 1.409 . S
C289 H281 0.930 . S
C289 C287 1.419 . S
C289 C290 1.362 . S
C290 H282 0.930 . S
C290 C289 1.362 . S
C290 C293 1.409 . S
C291 H283 0.930 . S
C291 C292 1.355 . S
C291 C293 1.415 . S
C292 C291 1.355 . S
C292 C294 1.419 . S
C293 C288 1.425 . S
C293 C290 1.409 . S
C293 C291 1.415 . S
C294 H284 0.930 . S
C294 C292 1.419 . S
C294 C295 1.362 . S
C295 H285 0.930 . S
C295 C288 1.409 . S
C295 C294 1.362 . S
H296 C302 0.930 . S
H297 C305 0.930 . S
H298 C306 0.930 . S
H299 C307 0.930 1_655 S
H300 C310 0.930 . S
H301 C311 0.930 . S
C302 H296 0.930 . S
C302 C303 1.355 . S
C302 C304 1.415 . S
C303 C302 1.355 . S
C303 C305 1.419 1_455 S
C304 C302 1.415 . S
C304 C309 1.425 . S
C304 C311 1.409 . S
C305 H297 0.930 . S
C305 C303 1.419 1_655 S
C305 C306 1.362 . S
C306 H298 0.930 . S
C306 C305 1.362 . S
C306 C309 1.409 1_655 S
C307 H299 0.930 1_455 S
C307 C308 1.355 . S
C307 C309 1.415 . S
C308 C307 1.355 . S
C308 C310 1.419 . S
C309 C304 1.425 . S
C309 C306 1.409 1_455 S
C309 C307 1.415 . S
C310 H300 0.930 . S
C310 C308 1.419 . S
C310 C311 1.362 . S
C311 H301 0.930 . S
C311 C304 1.409 . S
C311 C310 1.362 . S
H312 C318 0.930 . S
H313 C321 0.930 . S
H314 C322 0.930 . S
H315 C323 0.930 . S
H316 C326 0.930 . S
H317 C327 0.930 . S
C318 H312 0.930 . S
C318 C319 1.355 . S
C318 C320 1.415 . S
C319 C318 1.355 . S
C319 C321 1.419 . S
C320 C318 1.415 . S
C320 C325 1.425 . S
C320 C327 1.409 . S
C321 H313 0.930 . S
C321 C319 1.419 . S
C321 C322 1.362 . S
C322 H314 0.930 . S
C322 C321 1.362 . S
C322 C325 1.409 . S
C323 H315 0.930 . S
C323 C324 1.355 . S
C323 C325 1.415 . S
C324 C323 1.355 . S
C324 C326 1.419 . S
C325 C320 1.425 . S
C325 C322 1.409 . S
C325 C323 1.415 . S
C326 H316 0.930 . S
C326 C324 1.419 . S
C326 C327 1.362 . S
C327 H317 0.930 . S
C327 C320 1.409 . S
C327 C326 1.362 . S
H328 C334 0.930 . S
H329 C337 0.930 . S
H330 C338 0.930 . S
H331 C339 0.930 . S
H332 C342 0.930 . S
H333 C343 0.930 . S
C334 H328 0.930 . S
C334 C335 1.355 . S
C334 C336 1.415 . S
C335 C334 1.355 . S
C335 C337 1.419 . S
C336 C334 1.415 . S
C336 C341 1.425 . S
C336 C343 1.409 . S
C337 H329 0.930 . S
C337 C335 1.419 . S
C337 C338 1.362 . S
C338 H330 0.930 . S
C338 C337 1.362 . S
C338 C341 1.409 . S
C339 H331 0.930 . S
C339 C340 1.355 . S
C339 C341 1.415 . S
C340 C339 1.355 . S
C340 C342 1.419 . S
C341 C336 1.425 . S
C341 C338 1.409 . S
C341 C339 1.415 . S
C342 H332 0.930 . S
C342 C340 1.419 . S
C342 C343 1.362 . S
C343 H333 0.930 . S
C343 C336 1.409 . S
C343 C342 1.362 . S
H344 C350 0.930 . S
H345 C353 0.930 . S
H346 C354 0.930 1_455 S
H347 C355 0.930 1_455 S
H348 C358 0.930 . S
H349 C359 0.930 . S
C350 H344 0.930 . S
C350 C351 1.355 . S
C350 C352 1.415 . S
C351 C350 1.355 . S
C351 C353 1.419 . S
C352 C350 1.415 . S
C352 C357 1.425 . S
C352 C359 1.409 . S
C353 H345 0.930 . S
C353 C351 1.419 . S
C353 C354 1.362 . S
C354 H346 0.930 1_655 S
C354 C353 1.362 . S
C354 C357 1.409 . S
C355 H347 0.930 1_655 S
C355 C356 1.355 . S
C355 C357 1.415 . S
C356 C355 1.355 . S
C356 C358 1.419 . S
C357 C352 1.425 . S
C357 C354 1.409 . S
C357 C355 1.415 . S
C358 H348 0.930 . S
C358 C356 1.419 . S
C358 C359 1.362 . S
C359 H349 0.930 . S
C359 C352 1.409 . S
C359 C358 1.362 . S
H360 C366 0.930 . S
H361 C369 0.930 . S
H362 C370 0.930 . S
H363 C371 0.930 . S
H364 C374 0.930 . S
H365 C375 0.930 . S
C366 H360 0.930 . S
C366 C367 1.355 . S
C366 C368 1.415 . S
C367 C366 1.355 . S
C367 C369 1.419 . S
C368 C366 1.415 . S
C368 C373 1.425 . S
C368 C375 1.409 . S
C369 H361 0.930 . S
C369 C367 1.419 . S
C369 C370 1.362 . S
C370 H362 0.930 . S
C370 C369 1.362 . S
C370 C373 1.409 . S
C371 H363 0.930 . S
C371 C372 1.355 . S
C371 C373 1.415 . S
C372 C371 1.355 . S
C372 C374 1.419 . S
C373 C368 1.425 . S
C373 C370 1.409 . S
C373 C371 1.415 . S
C374 H364 0.930 . S
C374 C372 1.419 . S
C374 C375 1.362 . S
C375 H365 0.930 . S
C375 C368 1.409 . S
C375 C374 1.362 . S
H376 C382 0.930 . S
H377 C385 0.930 . S
H378 C386 0.930 . S
H379 C387 0.930 . S
H380 C390 0.930 . S
H381 C391 0.930 . S
C382 H376 0.930 . S
C382 C383 1.355 . S
C382 C384 1.415 . S
C383 C382 1.355 . S
C383 C385 1.419 . S
C384 C382 1.415 . S
C384 C389 1.425 . S
C384 C391 1.409 . S
C385 H377 0.930 . S
C385 C383 1.419 . S
C385 C386 1.362 . S
C386 H378 0.930 . S
C386 C385 1.362 . S
C386 C389 1.409 . S
C387 H379 0.930 . S
C387 C388 1.355 . S
C387 C389 1.415 . S
C388 C387 1.355 . S
C388 C390 1.419 . S
C389 C384 1.425 . S
C389 C386 1.409 . S
C389 C387 1.415 . S
C390 H380 0.930 . S
C390 C388 1.419 . S
C390 C391 1.362 . S
C391 H381 0.930 . S
C391 C384 1.409 . S
C391 C390 1.362 . S
H392 C398 0.930 . S
H393 C401 0.930 . S
H394 C402 0.930 1_545 S
H395 C403 0.930 . S
H396 C406 0.930 . S
H397 C407 0.930 . S
C398 H392 0.930 . S
C398 C399 1.355 . S
C398 C400 1.415 . S
C399 C398 1.355 . S
C399 C401 1.419 . S
C400 C398 1.415 . S
C400 C405 1.425 . S
C400 C407 1.409 . S
C401 H393 0.930 . S
C401 C399 1.419 . S
C401 C402 1.362 . S
C402 H394 0.930 1_565 S
C402 C401 1.362 . S
C402 C405 1.409 . S
C403 H395 0.930 . S
C403 C404 1.355 . S
C403 C405 1.415 . S
C404 C403 1.355 . S
C404 C406 1.419 . S
C405 C400 1.425 . S
C405 C402 1.409 . S
C405 C403 1.415 . S
C406 H396 0.930 . S
C406 C404 1.419 . S
C406 C407 1.362 . S
C407 H397 0.930 . S
C407 C400 1.409 . S
C407 C406 1.362 . S
C127 C78 0.439 . S
C132 C18 0.379 . S
C143 C98 0.430 . S
C148 C38 0.370 . S
C159 C118 0.360 . S
C164 C58 0.418 1_455 S
C175 C9 1.604 . S
C180 C52 1.724 . S
C191 C32 1.678 . S
C196 C69 1.669 . S
C207 C49 1.640 . S
C212 C92 1.697 . S
C223 C72 1.695 . S
C228 C109 1.649 . S
C239 C89 1.675 . S
C244 C12 1.671 . S
C255 C112 1.732 . S
C260 C29 1.595 . S
C271 C19 0.969 . S
C276 C79 0.942 . S
C287 C39 0.927 . S
C292 C99 0.955 . S
C303 C59 0.927 . S
C308 C119 0.909 . S
C319 C4 1.136 . S
C324 C24 1.033 . S
C335 C22 1.080 . S
C340 C42 1.110 . S
C351 C44 1.004 . S
C356 C64 1.047 . S
C367 C62 1.208 . S
C372 C82 1.233 . S
C383 C84 1.182 . S
C388 C104 1.146 . S
C399 C102 1.186 . S
C404 C2 1.230 . S
