# Generated by pormake.
# Topology una, (4)-cn, num edge types: 1
# Building blocks:
#     Node 0, Type 0, BuildingBlock: TATPOV_clean_sbu_0, # of connection points: 4
#     Node 1, Type 0, BuildingBlock: TATPOV_clean_sbu_0, # of connection points: 4
#     Node 2, Type 0, BuildingBlock: TATPOV_clean_sbu_0, # of connection points: 4
#     Node 3, Type 0, BuildingBlock: TATPOV_clean_sbu_0, # of connection points: 4
#     Node 4, Type 0, BuildingBlock: TATPOV_clean_sbu_0, # of connection points: 4
#     Node 5, Type 0, BuildingBlock: TATPOV_clean_sbu_0, # of connection points: 4
#     Node 6, Type 0, BuildingBlock: TATPOV_clean_sbu_0, # of connection points: 4
#     Node 7, Type 0, BuildingBlock: TATPOV_clean_sbu_0, # of connection points: 4
#     Node 8, Type 0, BuildingBlock: TATPOV_clean_sbu_0, # of connection points: 4
#     Node 9, Type 0, BuildingBlock: TATPOV_clean_sbu_0, # of connection points: 4
#     Node 10, Type 0, BuildingBlock: TATPOV_clean_sbu_0, # of connection points: 4
#     Node 11, Type 0, BuildingBlock: TATPOV_clean_sbu_0, # of connection points: 4
#     Edge 12, Type (0, 0), BuildingBlock: KIFKEQ_clean_linker_1, # of connection points: 2
#     Edge 13, Type (0, 0), BuildingBlock: KIFKEQ_clean_linker_1, # of connection points: 2
#     Edge 14, Type (0, 0), BuildingBlock: KIFKEQ_clean_linker_1, # of connection points: 2
#     Edge 15, Type (0, 0), BuildingBlock: KIFKEQ_clean_linker_1, # of connection points: 2
#     Edge 16, Type (0, 0), BuildingBlock: KIFKEQ_clean_linker_1, # of connection points: 2
#     Edge 17, Type (0, 0), BuildingBlock: KIFKEQ_clean_linker_1, # of connection points: 2
#     Edge 18, Type (0, 0), BuildingBlock: KIFKEQ_clean_linker_1, # of connection points: 2
#     Edge 19, Type (0, 0), BuildingBlock: KIFKEQ_clean_linker_1, # of connection points: 2
#     Edge 20, Type (0, 0), BuildingBlock: KIFKEQ_clean_linker_1, # of connection points: 2
#     Edge 21, Type (0, 0), BuildingBlock: KIFKEQ_clean_linker_1, # of connection points: 2
#     Edge 22, Type (0, 0), BuildingBlock: KIFKEQ_clean_linker_1, # of connection points: 2
#     Edge 23, Type (0, 0), BuildingBlock: KIFKEQ_clean_linker_1, # of connection points: 2
#     Edge 24, Type (0, 0), BuildingBlock: KIFKEQ_clean_linker_1, # of connection points: 2
#     Edge 25, Type (0, 0), BuildingBlock: KIFKEQ_clean_linker_1, # of connection points: 2
#     Edge 26, Type (0, 0), BuildingBlock: KIFKEQ_clean_linker_1, # of connection points: 2
#     Edge 27, Type (0, 0), BuildingBlock: KIFKEQ_clean_linker_1, # of connection points: 2
#     Edge 28, Type (0, 0), BuildingBlock: KIFKEQ_clean_linker_1, # of connection points: 2
#     Edge 29, Type (0, 0), BuildingBlock: KIFKEQ_clean_linker_1, # of connection points: 2
#     Edge 30, Type (0, 0), BuildingBlock: KIFKEQ_clean_linker_1, # of connection points: 2
#     Edge 31, Type (0, 0), BuildingBlock: KIFKEQ_clean_linker_1, # of connection points: 2
#     Edge 32, Type (0, 0), BuildingBlock: KIFKEQ_clean_linker_1, # of connection points: 2
#     Edge 33, Type (0, 0), BuildingBlock: KIFKEQ_clean_linker_1, # of connection points: 2
#     Edge 34, Type (0, 0), BuildingBlock: KIFKEQ_clean_linker_1, # of connection points: 2
#     Edge 35, Type (0, 0), BuildingBlock: KIFKEQ_clean_linker_1, # of connection points: 2
# Relax obj value: 0.133
# Max RMSD: 0.161
# Mean RMSD: 0.161
data_MOF--net-una--node1-TATPOV_clean_sbu_0--edge1-KIFKEQ_clean_linker_1
_symmetry_space_group_name_H-M    P1
_symmetry_Int_Tables_number       1
_symmetry_cell_setting            triclinic
loop_
_symmetry_equiv_pos_as_xyz
'x, y, z'
_cell_length_a     59.611363
_cell_length_b     59.58308
_cell_length_c     20.430189
_cell_angle_alpha  90.010783
_cell_angle_beta   89.97436
_cell_angle_gamma 119.99077
loop_
_atom_site_label
_atom_site_type_symbol
_atom_site_fract_x
_atom_site_fract_y
_atom_site_fract_z
_atom_type_partial_charge
Zn0 Zn 0.16876 0.46751 0.13615 0.0
Zn1 Zn 0.12715 0.43415 0.06814 0.0
O2 O 0.15531 0.44633 0.99815 0.0
O3 O 0.19059 0.47069 0.0558 0.0
O4 O 0.09416 0.40902 0.02148 0.0
O5 O 0.15423 0.49114 0.15039 0.0
O6 O 0.11943 0.463 0.0966 0.0
C7 C 0.17983 0.46023 0.00205 0.0
C8 C 0.14577 0.41679 0.18892 0.0
O9 O 0.1318 0.41131 0.13766 0.0
O10 O 0.16193 0.44013 0.20254 0.0
C11 C 0.0904 0.41272 0.96218 0.0
O12 O 0.10856 0.43291 0.93085 0.0
C13 C 0.13193 0.48426 0.12795 0.0
Zn14 Zn 0.71203 0.17178 0.30008 0.0
Zn15 Zn 0.69611 0.12796 0.2405 0.0
O16 O 0.71339 0.15333 0.16468 0.0
O17 O 0.73259 0.19027 0.21876 0.0
O18 O 0.68227 0.09294 0.19852 0.0
O19 O 0.67613 0.16545 0.31315 0.0
O20 O 0.66227 0.12657 0.27253 0.0
C21 C 0.72854 0.17777 0.16579 0.0
C22 C 0.73387 0.14442 0.35719 0.0
O23 O 0.72377 0.13031 0.30675 0.0
O24 O 0.7292 0.16242 0.37033 0.0
C25 C 0.69658 0.08484 0.17429 0.0
O26 O 0.72187 0.09971 0.17695 0.0
C27 C 0.65756 0.14334 0.29801 0.0
Zn28 Zn 0.53351 0.7038 0.46511 0.0
Zn29 Zn 0.56618 0.69367 0.40011 0.0
O30 O 0.55599 0.71055 0.32805 0.0
O31 O 0.53012 0.72062 0.38148 0.0
O32 O 0.58889 0.68241 0.35497 0.0
O33 O 0.50898 0.66633 0.48496 0.0
O34 O 0.53587 0.65815 0.43016 0.0
C35 C 0.54168 0.72079 0.32916 0.0
C36 C 0.5849 0.73092 0.51727 0.0
O37 O 0.59006 0.721 0.46834 0.0
O38 O 0.56181 0.72532 0.52873 0.0
C39 C 0.6092 0.69686 0.32214 0.0
O40 O 0.61712 0.72169 0.31677 0.0
C41 C 0.51497 0.65023 0.46256 0.0
Zn42 Zn 0.82544 0.53813 0.62892 0.0
Zn43 Zn 0.8696 0.5657 0.57099 0.0
O44 O 0.84508 0.55858 0.49371 0.0
O45 O 0.80796 0.54127 0.54692 0.0
O46 O 0.90539 0.58657 0.53285 0.0
O47 O 0.8307 0.50786 0.64151 0.0
O48 O 0.86983 0.53255 0.60207 0.0
C49 C 0.82072 0.54976 0.49431 0.0
C50 C 0.85286 0.58686 0.68772 0.0
O51 O 0.8671 0.59089 0.63751 0.0
O52 O 0.83469 0.56422 0.70029 0.0
C53 C 0.91213 0.60492 0.49195 0.0
O54 O 0.89509 0.61141 0.47288 0.0
C55 C 0.8527 0.51105 0.62665 0.0
Zn56 Zn 0.29907 0.82875 0.78608 0.0
Zn57 Zn 0.30856 0.87141 0.72184 0.0
O58 O 0.29221 0.84466 0.6488 0.0
O59 O 0.28267 0.80878 0.70193 0.0
O60 O 0.31959 0.90571 0.67869 0.0
O61 O 0.33651 0.84202 0.80649 0.0
O62 O 0.3442 0.87701 0.75204 0.0
C63 C 0.28233 0.82013 0.64971 0.0
C64 C 0.27106 0.85192 0.83861 0.0
O65 O 0.28084 0.86714 0.78987 0.0
O66 O 0.2771 0.83474 0.84998 0.0
C67 C 0.30564 0.91138 0.64315 0.0
O68 O 0.2813 0.89387 0.63268 0.0
C69 C 0.35238 0.86423 0.78436 0.0
Zn70 Zn 0.46444 0.29232 0.971 0.0
Zn71 Zn 0.434 0.30583 0.91149 0.0
O72 O 0.44224 0.28842 0.83609 0.0
O73 O 0.46514 0.27419 0.88756 0.0
O74 O 0.41117 0.31836 0.87229 0.0
O75 O 0.49182 0.32884 0.98792 0.0
O76 O 0.46607 0.34057 0.94126 0.0
C77 C 0.45441 0.2759 0.83573 0.0
C78 C 0.41463 0.26778 0.02786 0.0
O79 O 0.40996 0.27826 0.97933 0.0
O80 O 0.43746 0.27251 0.03877 0.0
C81 C 0.39661 0.30823 0.8228 0.0
O82 O 0.39572 0.28801 0.79444 0.0
C83 C 0.48742 0.34654 0.96958 0.0
Zn84 Zn 0.53524 0.83024 0.79559 0.0
Zn85 Zn 0.56813 0.87292 0.86023 0.0
O86 O 0.55758 0.84599 0.93289 0.0
O87 O 0.53143 0.81012 0.87959 0.0
O88 O 0.59113 0.90704 0.90449 0.0
O89 O 0.51106 0.84344 0.77477 0.0
O90 O 0.53806 0.87843 0.82964 0.0
C91 C 0.54297 0.82146 0.93193 0.0
C92 C 0.58657 0.85373 0.74372 0.0
O93 O 0.59187 0.86894 0.79243 0.0
O94 O 0.56342 0.83644 0.73225 0.0
C95 C 0.61026 0.91223 0.94144 0.0
O96 O 0.61668 0.89443 0.95216 0.0
C97 C 0.5172 0.86559 0.79699 0.0
Zn98 Zn 0.70846 0.53932 0.9523 0.0
Zn99 Zn 0.69341 0.56788 0.01252 0.0
O100 O 0.71079 0.55969 0.08778 0.0
O101 O 0.72926 0.54133 0.03314 0.0
O102 O 0.68015 0.58951 0.05472 0.0
O103 O 0.67227 0.51007 0.94049 0.0
O104 O 0.65919 0.5356 0.98189 0.0
C105 C 0.72564 0.55007 0.08621 0.0
C106 C 0.7307 0.5885 0.89472 0.0
O107 O 0.72094 0.59279 0.94546 0.0
O108 O 0.72562 0.5657 0.8816 0.0
C109 C 0.6946 0.61102 0.08303 0.0
O110 O 0.71975 0.62024 0.08454 0.0
C111 C 0.654 0.51396 0.95654 0.0
Zn112 Zn 0.16911 0.70091 0.12215 0.0
Zn113 Zn 0.12729 0.69387 0.1879 0.0
O114 O 0.15534 0.71054 0.25796 0.0
O115 O 0.19044 0.71797 0.20416 0.0
O116 O 0.09402 0.68628 0.23294 0.0
O117 O 0.15366 0.66286 0.10573 0.0
O118 O 0.11951 0.65698 0.16145 0.0
C119 C 0.17971 0.71949 0.2563 0.0
C120 C 0.14732 0.72973 0.06738 0.0
O121 O 0.13235 0.7209 0.11685 0.0
O122 O 0.16387 0.72281 0.05642 0.0
C123 C 0.09037 0.6809 0.29363 0.0
O124 O 0.10896 0.68096 0.32828 0.0
C125 C 0.1315 0.64781 0.1294 0.0
Zn126 Zn 0.46571 0.17351 0.29533 0.0
Zn127 Zn 0.43657 0.12949 0.3555 0.0
O128 O 0.44397 0.15522 0.43017 0.0
O129 O 0.46594 0.19238 0.37818 0.0
O130 O 0.41531 0.09456 0.39776 0.0
O131 O 0.49397 0.16564 0.2783 0.0
O132 O 0.46916 0.12791 0.32498 0.0
C133 C 0.45548 0.1799 0.43017 0.0
C134 C 0.41571 0.14632 0.23905 0.0
O135 O 0.41158 0.13138 0.28774 0.0
O136 O 0.43824 0.16502 0.22809 0.0
C137 C 0.3927 0.08617 0.42086 0.0
O138 O 0.382 0.1008 0.41738 0.0
C139 C 0.49029 0.14377 0.29646 0.0
Zn140 Zn 0.29661 0.46805 0.4676 0.0
Zn141 Zn 0.30621 0.43529 0.5337 0.0
O142 O 0.29075 0.44698 0.60631 0.0
O143 O 0.27831 0.47039 0.54968 0.0
O144 O 0.31577 0.41055 0.57597 0.0
O145 O 0.33439 0.49259 0.45147 0.0
O146 O 0.34213 0.46487 0.50369 0.0
C147 C 0.27946 0.46028 0.60328 0.0
C148 C 0.26918 0.41753 0.41478 0.0
O149 O 0.2781 0.41226 0.46557 0.0
O150 O 0.27606 0.44079 0.40111 0.0
C151 C 0.30942 0.40131 0.63345 0.0
O152 O 0.29496 0.40737 0.66943 0.0
C153 C 0.35027 0.48612 0.47272 0.0
Zn154 Zn 0.82654 0.28892 0.62063 0.0
Zn155 Zn 0.87085 0.30612 0.67871 0.0
O156 O 0.84632 0.2885 0.75587 0.0
O157 O 0.80917 0.2684 0.70294 0.0
O158 O 0.90653 0.32157 0.7175 0.0
O159 O 0.83152 0.32434 0.60737 0.0
O160 O 0.87065 0.33919 0.64708 0.0
C161 C 0.82199 0.27282 0.75547 0.0
C162 C 0.85474 0.26815 0.56249 0.0
O163 O 0.86898 0.27865 0.61251 0.0
O164 O 0.83626 0.27215 0.54997 0.0
C165 C 0.91396 0.30954 0.75503 0.0
O166 O 0.89777 0.2852 0.76974 0.0
C167 C 0.85342 0.34331 0.62219 0.0
H168 H 0.15193 0.37801 0.13895 0.0
H169 H 0.14686 0.4121 0.32048 0.0
H170 H 0.17585 0.36009 0.1945 0.0
H171 H 0.17008 0.39389 0.37625 0.0
H172 H 0.26304 0.4123 0.28344 0.0
H173 H 0.22148 0.39371 0.22826 0.0
H174 H 0.18245 0.3606 0.411 0.0
H175 H 0.22443 0.3789 0.46597 0.0
C176 C 0.15445 0.38024 0.19153 0.0
C177 C 0.14793 0.39668 0.22548 0.0
C178 C 0.16828 0.3701 0.22325 0.0
C179 C 0.17532 0.376 0.28942 0.0
C180 C 0.16498 0.3889 0.32531 0.0
C181 C 0.15167 0.39942 0.29339 0.0
C182 C 0.24566 0.39969 0.3109 0.0
C183 C 0.24684 0.39724 0.37887 0.0
C184 C 0.22174 0.38895 0.27932 0.0
C185 C 0.19862 0.37612 0.31562 0.0
C186 C 0.19995 0.37054 0.38195 0.0
C187 C 0.22399 0.3809 0.41334 0.0
H188 H 0.85342 0.26051 0.4316 0.0
H189 H 0.85333 0.226 0.61703 0.0
H190 H 0.83147 0.21797 0.38116 0.0
H191 H 0.83063 0.18301 0.56695 0.0
H192 H 0.74155 0.14538 0.48801 0.0
H193 H 0.78403 0.16885 0.53825 0.0
H194 H 0.81966 0.17198 0.35185 0.0
H195 H 0.77677 0.14776 0.30195 0.0
C196 C 0.85012 0.2439 0.46057 0.0
C197 C 0.85471 0.24643 0.52818 0.0
C198 C 0.83749 0.21939 0.43174 0.0
C199 C 0.8287 0.19701 0.47053 0.0
C200 C 0.83697 0.19989 0.53603 0.0
C201 C 0.85012 0.22454 0.56462 0.0
C202 C 0.75837 0.14951 0.45883 0.0
C203 C 0.75597 0.14513 0.39112 0.0
C204 C 0.78285 0.16303 0.48756 0.0
C205 C 0.80528 0.1729 0.44855 0.0
C206 C 0.80272 0.16483 0.38292 0.0
C207 C 0.77813 0.1508 0.35443 0.0
H208 H 0.62433 0.77528 0.46707 0.0
H209 H 0.58983 0.73657 0.6487 0.0
H210 H 0.64316 0.81722 0.52261 0.0
H211 H 0.60897 0.77807 0.70451 0.0
H212 H 0.59193 0.85335 0.61239 0.0
H213 H 0.61013 0.83009 0.55673 0.0
H214 H 0.64302 0.82352 0.73907 0.0
H215 H 0.62514 0.84753 0.79448 0.0
C216 C 0.62222 0.77565 0.51968 0.0
C217 C 0.60545 0.75284 0.5537 0.0
C218 C 0.63287 0.79967 0.5514 0.0
C219 C 0.62715 0.801 0.61762 0.0
C220 C 0.61386 0.77781 0.65354 0.0
C221 C 0.60281 0.75393 0.62162 0.0
C222 C 0.60447 0.84842 0.63962 0.0
C223 C 0.60697 0.85197 0.7076 0.0
C224 C 0.61498 0.83506 0.60778 0.0
C225 C 0.62756 0.82446 0.64386 0.0
C226 C 0.63326 0.83132 0.71018 0.0
C227 C 0.62315 0.8452 0.74182 0.0
H228 H 0.85051 0.62711 0.63336 0.0
H229 H 0.85141 0.59303 0.81869 0.0
H230 H 0.82722 0.64674 0.68366 0.0
H231 H 0.82885 0.61298 0.86935 0.0
H232 H 0.73832 0.59464 0.76375 0.0
H233 H 0.78075 0.6137 0.71304 0.0
H234 H 0.81659 0.64691 0.89872 0.0
H235 H 0.77375 0.6282 0.94907 0.0
C236 C 0.84733 0.62531 0.68578 0.0
C237 C 0.85236 0.60829 0.72214 0.0
C238 C 0.83383 0.63642 0.7145 0.0
C239 C 0.82565 0.63093 0.78006 0.0
C240 C 0.83481 0.61764 0.81874 0.0
C241 C 0.84779 0.60614 0.78977 0.0
C242 C 0.75517 0.60747 0.79265 0.0
C243 C 0.75285 0.60968 0.8603 0.0
C244 C 0.77961 0.61846 0.76365 0.0
C245 C 0.80209 0.63128 0.80233 0.0
C246 C 0.7996 0.63693 0.8679 0.0
C247 C 0.77504 0.62634 0.89664 0.0
H248 H 0.26518 0.8511 0.96999 0.0
H249 H 0.22636 0.84588 0.78793 0.0
H250 H 0.22366 0.82817 0.0256 0.0
H251 H 0.18443 0.82216 0.84327 0.0
H252 H 0.15353 0.77491 0.11549 0.0
H253 H 0.17771 0.81657 0.05909 0.0
H254 H 0.17262 0.77636 0.87895 0.0
H255 H 0.14922 0.7351 0.93566 0.0
C256 C 0.24776 0.84635 0.94275 0.0
C257 C 0.24886 0.85002 0.87481 0.0
C258 C 0.22388 0.83319 0.97456 0.0
C259 C 0.20072 0.8229 0.93849 0.0
C260 C 0.20197 0.82977 0.87215 0.0
C261 C 0.22597 0.84347 0.84057 0.0
C262 C 0.15627 0.77502 0.06303 0.0
C263 C 0.14983 0.75193 0.02984 0.0
C264 C 0.17023 0.79887 0.03084 0.0
C265 C 0.17745 0.79976 0.96491 0.0
C266 C 0.16732 0.77641 0.92966 0.0
C267 C 0.15391 0.75268 0.9621 0.0
H268 H 0.40975 0.14722 0.10796 0.0
H269 H 0.37529 0.14859 0.2923 0.0
H270 H 0.38984 0.16956 0.05602 0.0
H271 H 0.35576 0.17176 0.24076 0.0
H272 H 0.40912 0.26052 0.15893 0.0
H273 H 0.38971 0.21822 0.21066 0.0
H274 H 0.35575 0.18188 0.02596 0.0
H275 H 0.37477 0.2246 0.97462 0.0
C276 C 0.39655 0.15088 0.13637 0.0
C277 C 0.39427 0.14652 0.20407 0.0
C278 C 0.38507 0.16373 0.10668 0.0
C279 C 0.37173 0.17301 0.14475 0.0
C280 C 0.3661 0.16501 0.21039 0.0
C281 C 0.37717 0.1516 0.23981 0.0
C282 C 0.39607 0.2436 0.13048 0.0
C283 C 0.39364 0.24571 0.06286 0.0
C284 C 0.38487 0.21926 0.16006 0.0
C285 C 0.37166 0.19664 0.12196 0.0
C286 C 0.36597 0.19897 0.05636 0.0
C287 C 0.37675 0.22345 0.02705 0.0
H288 H 0.10123 0.49143 0.04107 0.0
H289 H 0.14067 0.51839 0.2262 0.0
H290 H 0.09239 0.52748 0.04002 0.0
H291 H 0.13129 0.55385 0.22587 0.0
H292 H 0.10258 0.61072 0.2199 0.0
H293 H 0.09412 0.56596 0.22193 0.0
H294 H 0.12895 0.57684 0.03079 0.0
H295 H 0.13796 0.62156 0.02945 0.0
C296 C 0.10724 0.50454 0.08247 0.0
C297 C 0.12182 0.50231 0.13346 0.0
C298 C 0.10224 0.52515 0.08176 0.0
C299 C 0.11117 0.54339 0.13286 0.0
C300 C 0.12396 0.53992 0.18621 0.0
C301 C 0.12947 0.51973 0.18618 0.0
C302 C 0.10771 0.60325 0.17761 0.0
C303 C 0.1211 0.61959 0.12473 0.0
C304 C 0.10296 0.57773 0.17888 0.0
C305 C 0.11092 0.56802 0.12655 0.0
C306 C 0.12238 0.58375 0.07148 0.0
C307 C 0.12767 0.60937 0.07087 0.0
H308 H 0.61194 0.10039 0.25879 0.0
H309 H 0.64225 0.1752 0.352 0.0
H310 H 0.56864 0.09597 0.25667 0.0
H311 H 0.59951 0.17076 0.34889 0.0
H312 H 0.53581 0.17272 0.23218 0.0
H313 H 0.57409 0.16825 0.2353 0.0
H314 H 0.5326 0.09795 0.34789 0.0
H315 H 0.49375 0.10244 0.34575 0.0
C316 C 0.60934 0.11563 0.27973 0.0
C317 C 0.63065 0.1383 0.30477 0.0
C318 C 0.5846 0.11305 0.27853 0.0
C319 C 0.58098 0.13319 0.30184 0.0
C320 C 0.60194 0.15511 0.32994 0.0
C321 C 0.62642 0.1576 0.33169 0.0
C322 C 0.53455 0.15606 0.25698 0.0
C323 C 0.51177 0.13815 0.28962 0.0
C324 C 0.55653 0.15355 0.25869 0.0
C325 C 0.55629 0.13297 0.29252 0.0
C326 C 0.53316 0.11399 0.32155 0.0
C327 C 0.51102 0.11661 0.32031 0.0
H328 H 0.3886 0.49464 0.5593 0.0
H329 H 0.37476 0.51994 0.3733 0.0
H330 H 0.43318 0.53127 0.5589 0.0
H331 H 0.41937 0.55593 0.37208 0.0
H332 H 0.48103 0.62599 0.56207 0.0
H333 H 0.44486 0.58146 0.56349 0.0
H334 H 0.46937 0.56721 0.37692 0.0
H335 H 0.50614 0.61168 0.37627 0.0
C336 C 0.39535 0.50751 0.51742 0.0
C337 C 0.37826 0.50463 0.46651 0.0
C338 C 0.42075 0.52844 0.51733 0.0
C339 C 0.4296 0.5463 0.46543 0.0
C340 C 0.41307 0.54226 0.41232 0.0
C341 C 0.38755 0.52178 0.41319 0.0
C342 C 0.47911 0.61313 0.52226 0.0
C343 C 0.49626 0.62227 0.46892 0.0
C344 C 0.45852 0.58764 0.52327 0.0
C345 C 0.4544 0.57102 0.47028 0.0
C346 C 0.47226 0.57971 0.41839 0.0
C347 C 0.49327 0.60507 0.41815 0.0
H348 H 0.89507 0.50761 0.58625 0.0
H349 H 0.82032 0.46391 0.68011 0.0
H350 H 0.89879 0.46836 0.58311 0.0
H351 H 0.8241 0.42523 0.67637 0.0
H352 H 0.82067 0.35762 0.56889 0.0
H353 H 0.82411 0.39995 0.57224 0.0
H354 H 0.89902 0.43219 0.66448 0.0
H355 H 0.89564 0.38936 0.6617 0.0
C356 C 0.87967 0.48984 0.60705 0.0
C357 C 0.85724 0.48883 0.63262 0.0
C358 C 0.88183 0.46744 0.60525 0.0
C359 C 0.86152 0.44377 0.62845 0.0
C360 C 0.83983 0.44316 0.65708 0.0
C361 C 0.83774 0.46539 0.65935 0.0
C362 C 0.83806 0.37368 0.58931 0.0
C363 C 0.85772 0.36997 0.61589 0.0
C364 C 0.83997 0.39792 0.59136 0.0
C365 C 0.86162 0.41916 0.6196 0.0
C366 C 0.8821 0.41603 0.64262 0.0
C367 C 0.88012 0.39156 0.64103 0.0
H368 H 0.37679 0.85499 0.88418 0.0
H369 H 0.39087 0.89443 0.69849 0.0
H370 H 0.42153 0.86403 0.88611 0.0
H371 H 0.43558 0.90282 0.69965 0.0
H372 H 0.48386 0.85646 0.69654 0.0
H373 H 0.44767 0.86477 0.69467 0.0
H374 H 0.47136 0.90277 0.88231 0.0
H375 H 0.50816 0.89511 0.88342 0.0
C376 C 0.38964 0.86608 0.84451 0.0
C377 C 0.38039 0.8739 0.79103 0.0
C378 C 0.41525 0.87138 0.84581 0.0
C379 C 0.43189 0.88408 0.79299 0.0
C380 C 0.42307 0.89306 0.74099 0.0
C381 C 0.39758 0.88831 0.74046 0.0
C382 C 0.48177 0.86725 0.73647 0.0
C383 C 0.49868 0.87503 0.79026 0.0
C384 C 0.46117 0.87212 0.73523 0.0
C385 C 0.45679 0.88436 0.78841 0.0
C386 C 0.47445 0.89336 0.8407 0.0
C387 C 0.49547 0.88904 0.8412 0.0
H388 H 0.49014 0.3903 0.91551 0.0
H389 H 0.53262 0.36467 0.03631 0.0
H390 H 0.52864 0.43385 0.91057 0.0
H391 H 0.57059 0.40765 0.03035 0.0
H392 H 0.63761 0.4665 0.90293 0.0
H393 H 0.5947 0.42847 0.90928 0.0
H394 H 0.56563 0.47345 0.0043 0.0
H395 H 0.60909 0.51205 -0.00101 0.0
C396 C 0.50739 0.39404 0.94207 0.0
C397 C 0.50842 0.37389 0.97548 0.0
C398 C 0.52933 0.41891 0.9392 0.0
C399 C 0.55249 0.42381 0.96945 0.0
C400 C 0.55296 0.40418 0.00616 0.0
C401 C 0.53118 0.37957 0.00944 0.0
C402 C 0.62213 0.46857 0.92445 0.0
C403 C 0.62693 0.49231 0.95129 0.0
C404 C 0.59756 0.44674 0.92801 0.0
C405 C 0.5771 0.44811 0.95782 0.0
C406 C 0.58123 0.47205 0.98106 0.0
C407 C 0.60605 0.49404 0.97803 0.0
H408 H 0.29794 0.47207 0.72776 0.0
H409 H 0.23113 0.45342 0.60904 0.0
H410 H 0.27572 0.47558 0.82387 0.0
H411 H 0.20764 0.45412 0.70525 0.0
H412 H 0.17363 0.4723 0.8777 0.0
H413 H 0.19951 0.47578 0.78205 0.0
H414 H 0.24607 0.45452 0.90165 0.0
H415 H 0.22169 0.45388 0.99758 0.0
C416 C 0.27832 0.46846 0.7227 0.0
C417 C 0.26622 0.46264 0.66137 0.0
C418 C 0.26535 0.47016 0.77789 0.0
C419 C 0.23956 0.46501 0.7734 0.0
C420 C 0.22758 0.45897 0.71136 0.0
C421 C 0.24093 0.45828 0.65593 0.0
C422 C 0.18968 0.46876 0.88311 0.0
C423 C 0.19584 0.46295 0.94459 0.0
C424 C 0.20441 0.4704 0.82816 0.0
C425 C 0.22499 0.46518 0.83299 0.0
C426 C 0.23096 0.45934 0.89527 0.0
C427 C 0.21683 0.4587 0.95052 0.0
H428 H 0.77786 0.21755 0.15556 0.0
H429 H 0.70958 0.16907 0.04153 0.0
H430 H 0.80096 0.23994 0.05689 0.0
H431 H 0.73164 0.19284 0.943 0.0
H432 H 0.78321 0.22306 0.76616 0.0
H433 H 0.76132 0.19975 0.86498 0.0
H434 H 0.80739 0.26943 0.97862 0.0
H435 H 0.83074 0.29178 0.87984 0.0
C436 C 0.76771 0.21203 0.10917 0.0
C437 C 0.74204 0.19162 0.10583 0.0
C438 C 0.78085 0.22502 0.05244 0.0
C439 C 0.76832 0.21846 0.99119 0.0
C440 C 0.74233 0.19818 0.98853 0.0
C441 C 0.7295 0.18463 0.04508 0.0
C442 C 0.78864 0.23325 0.81253 0.0
C443 C 0.80862 0.25914 0.81569 0.0
C444 C 0.77592 0.21999 0.86935 0.0
C445 C 0.78229 0.23257 0.93055 0.0
C446 C 0.8022 0.25873 0.9331 0.0
C447 C 0.8155 0.27171 0.87642 0.0
H448 H 0.55618 0.71791 0.20383 0.0
H449 H 0.52246 0.75383 0.32145 0.0
H450 H 0.55464 0.74161 0.10798 0.0
H451 H 0.52111 0.77758 0.22556 0.0
H452 H 0.55773 0.83884 0.05722 0.0
H453 H 0.55553 0.81338 0.15329 0.0
H454 H 0.52064 0.74377 0.03613 0.0
H455 H 0.52264 0.76907 0.94009 0.0
C456 C 0.54832 0.73073 0.20917 0.0
C457 C 0.53946 0.734 0.27025 0.0
C458 C 0.54734 0.7442 0.15426 0.0
C459 C 0.53781 0.76145 0.15951 0.0
C460 C 0.52873 0.76455 0.22034 0.0
C461 C 0.52938 0.75082 0.27507 0.0
C462 C 0.54942 0.81808 0.05204 0.0
C463 C 0.54039 0.80598 0.99102 0.0
C464 C 0.54807 0.80352 0.10707 0.0
C465 C 0.53798 0.77664 0.10197 0.0
C466 C 0.5287 0.7645 0.04122 0.0
C467 C 0.52973 0.77899 0.98639 0.0
H468 H 0.78211 0.56095 0.48408 0.0
H469 H 0.82901 0.53907 0.36997 0.0
H470 H 0.75984 0.562 0.38568 0.0
H471 H 0.80527 0.53769 0.27163 0.0
H472 H 0.77488 0.55925 0.09483 0.0
H473 H 0.79843 0.56027 0.19287 0.0
H474 H 0.72977 0.53887 0.30896 0.0
H475 H 0.70729 0.54029 0.21103 0.0
C476 C 0.78732 0.55597 0.4377 0.0
C477 C 0.80722 0.54996 0.43429 0.0
C478 C 0.77438 0.55629 0.38113 0.0
C479 C 0.78043 0.54974 0.31995 0.0
C480 C 0.8003 0.54344 0.31713 0.0
C481 C 0.81384 0.54399 0.37355 0.0
C482 C 0.76497 0.55486 0.14157 0.0
C483 C 0.73937 0.54976 0.1457 0.0
C484 C 0.77837 0.55519 0.19794 0.0
C485 C 0.76617 0.54958 0.25964 0.0
C486 C 0.74023 0.54398 0.26307 0.0
C487 C 0.72715 0.54452 0.20687 0.0
H488 H 0.16335 0.71771 0.38217 0.0
H489 H 0.2322 0.7514 0.26168 0.0
H490 H 0.18954 0.74135 0.47686 0.0
H491 H 0.25826 0.77517 0.35647 0.0
H492 H 0.28479 0.83734 0.52425 0.0
H493 H 0.26087 0.81185 0.42881 0.0
H494 H 0.22586 0.74251 0.54697 0.0
H495 H 0.24984 0.76781 0.6423 0.0
C496 C 0.18407 0.73004 0.37595 0.0
C497 C 0.1957 0.73269 0.31443 0.0
C498 C 0.19905 0.74347 0.4302 0.0
C499 C 0.22589 0.76009 0.42382 0.0
C500 C 0.23757 0.7626 0.36253 0.0
C501 C 0.22266 0.74888 0.30846 0.0
C502 C 0.27216 0.81664 0.52975 0.0
C503 C 0.26919 0.80462 0.59086 0.0
C504 C 0.25857 0.80205 0.47509 0.0
C505 C 0.24148 0.77526 0.48071 0.0
C506 C 0.23876 0.76318 0.5415 0.0
C507 C 0.25261 0.77767 0.59591 0.0
H508 H 0.47249 0.2421 0.82332 0.0
H509 H 0.43829 0.27921 0.71236 0.0
H510 H 0.47301 0.21901 0.72542 0.0
H511 H 0.43881 0.25596 0.61435 0.0
H512 H 0.47177 0.23146 0.44172 0.0
H513 H 0.47181 0.2549 0.5395 0.0
H514 H 0.44029 0.18417 0.65187 0.0
H515 H 0.44026 0.16058 0.55401 0.0
C516 C 0.46516 0.24542 0.77803 0.0
C517 C 0.45537 0.26254 0.77564 0.0
C518 C 0.46531 0.23203 0.72209 0.0
C519 C 0.45589 0.23565 0.6624 0.0
C520 C 0.44637 0.25297 0.65968 0.0
C521 C 0.446 0.2662 0.71582 0.0
C522 C 0.46492 0.22087 0.48727 0.0
C523 C 0.45604 0.19413 0.49009 0.0
C524 C 0.46479 0.2343 0.54314 0.0
C525 C 0.456 0.22135 0.60317 0.0
C526 C 0.44736 0.19468 0.60627 0.0
C527 C 0.44726 0.18117 0.55021 0.0
H528 H 0.07787 0.41266 0.83368 0.0
H529 H 0.04618 0.37371 0.01751 0.0
H530 H 0.03597 0.38609 0.78154 0.0
H531 H 0.00404 0.34758 0.96569 0.0
H532 H 0.93636 0.2904 0.83859 0.0
H533 H 0.9797 0.31364 0.88631 0.0
H534 H 0.99426 0.3831 0.7839 0.0
H535 H 0.9514 0.35986 0.73526 0.0
C536 C 0.06196 0.39842 0.86299 0.0
C537 C 0.06532 0.39544 0.92986 0.0
C538 C 0.03789 0.38326 0.83316 0.0
C539 C 0.01655 0.36486 0.86954 0.0
C540 C 0.02011 0.36139 0.93605 0.0
C541 C 0.04424 0.37648 0.96586 0.0
C542 C 0.94888 0.31059 0.82602 0.0
C543 C 0.9404 0.32326 0.78311 0.0
C544 C 0.97367 0.32394 0.85364 0.0
C545 C 0.99049 0.35023 0.83887 0.0
C546 C 0.98201 0.36277 0.79554 0.0
C547 C 0.95731 0.34946 0.76797 0.0
H548 H 0.6519 0.93037 0.02466 0.0
H549 H 0.60032 0.9521 0.93215 0.0
H550 H 0.67347 0.97201 0.08183 0.0
H551 H 0.622 0.99358 0.9884 0.0
H552 H 0.6451 0.0506 0.15684 0.0
H553 H 0.6253 0.009 0.10097 0.0
H554 H 0.70106 0.01933 0.06123 0.0
H555 H 0.72103 0.06101 0.11809 0.0
C556 C 0.64526 0.94405 0.0162 0.0
C557 C 0.62429 0.93783 0.9741 0.0
C558 C 0.65769 0.96793 0.04873 0.0
C559 C 0.6493 0.98599 0.04002 0.0
C560 C 0.62864 0.97991 0.99704 0.0
C561 C 0.61631 0.95615 0.96447 0.0
C562 C 0.6576 0.04403 0.1364 0.0
C563 C 0.68467 0.05921 0.14174 0.0
C564 C 0.64622 0.02023 0.10402 0.0
C565 C 0.66162 0.01096 0.07624 0.0
C566 C 0.68869 0.02588 0.0825 0.0
C567 C 0.70011 0.04981 0.11479 0.0
H568 H 0.64335 0.59616 0.09145 0.0
H569 H 0.71936 0.65724 0.14919 0.0
H570 H 0.62377 0.6179 0.14859 0.0
H571 H 0.69959 0.67888 0.20733 0.0
H572 H 0.65324 0.7214 0.24706 0.0
H573 H 0.67464 0.70156 0.18801 0.0
H574 H 0.61788 0.62647 0.26262 0.0
H575 H 0.59639 0.64606 0.32066 0.0
C576 C 0.65591 0.61424 0.11631 0.0
C577 C 0.68293 0.62489 0.11598 0.0
C578 C 0.64466 0.62664 0.14939 0.0
C579 C 0.66012 0.65 0.18294 0.0
C580 C 0.68718 0.66098 0.18158 0.0
C581 C 0.69848 0.64851 0.14854 0.0
C582 C 0.64539 0.70068 0.25095 0.0
C583 C 0.62302 0.68532 0.2883 0.0
C584 C 0.65772 0.68934 0.21737 0.0
C585 C 0.64782 0.66242 0.22024 0.0
C586 C 0.62572 0.6472 0.25847 0.0
C587 C 0.61349 0.65848 0.29209 0.0
H588 H 0.04543 0.67121 0.23296 0.0
H589 H 0.07771 0.67254 0.42323 0.0
H590 H 0.0028 0.65469 0.28241 0.0
H591 H 0.03526 0.65668 0.47283 0.0
H592 H 0.95159 0.59597 0.52193 0.0
H593 H 0.99481 0.61641 0.47509 0.0
H594 H 0.97663 0.66477 0.35454 0.0
H595 H 0.93296 0.64383 0.40056 0.0
C596 C 0.04351 0.66831 0.28545 0.0
C597 C 0.06493 0.67296 0.32407 0.0
C598 C 0.01907 0.65896 0.31386 0.0
C599 C 0.01555 0.65415 0.38155 0.0
C600 C 0.03719 0.65967 0.42038 0.0
C601 C 0.06156 0.6689 0.39196 0.0
C602 C 0.95677 0.61102 0.4856 0.0
C603 C 0.93876 0.61821 0.46491 0.0
C604 C 0.98168 0.62289 0.45904 0.0
C605 C 0.98926 0.64231 0.41117 0.0
C606 C 0.97133 0.6497 0.39085 0.0
C607 C 0.94635 0.63779 0.41749 0.0
H608 H 0.40995 0.05187 0.4368 0.0
H609 H 0.34422 0.06189 0.476 0.0
H610 H 0.38794 0.00977 0.49012 0.0
H611 H 0.32229 0.01971 0.53048 0.0
H612 H 0.28239 0.93042 0.5618 0.0
H613 H 0.30265 0.97266 0.50745 0.0
H614 H 0.37535 0.99314 0.60114 0.0
H615 H 0.3554 0.95108 0.65444 0.0
C616 C 0.3908 0.04513 0.45688 0.0
C617 C 0.3789 0.06033 0.45234 0.0
C618 C 0.37824 0.02102 0.4878 0.0
C619 C 0.35345 0.01148 0.51498 0.0
C620 C 0.34132 0.02646 0.50962 0.0
C621 C 0.35394 0.05068 0.47872 0.0
C622 C 0.30267 0.94399 0.57089 0.0
C623 C 0.3173 0.93729 0.61214 0.0
C624 C 0.31424 0.96821 0.54001 0.0
C625 C 0.34066 0.98616 0.54959 0.0
C626 C 0.35508 0.97959 0.5918 0.0
C627 C 0.34356 0.95549 0.62267 0.0
H628 H 0.30438 0.38291 0.7585 0.0
H629 H 0.33754 0.38308 0.57018 0.0
H630 H 0.3233 0.35836 0.80479 0.0
H631 H 0.35661 0.35878 0.61671 0.0
H632 H 0.36839 0.29562 0.70942 0.0
H633 H 0.34502 0.31598 0.66394 0.0
H634 H 0.36766 0.36749 0.83033 0.0
H635 H 0.3908 0.34708 0.87608 0.0
C636 C 0.31557 0.3776 0.72688 0.0
C637 C 0.31955 0.38508 0.66072 0.0
C638 C 0.32651 0.36365 0.7535 0.0
C639 C 0.34153 0.35673 0.71446 0.0
C640 C 0.34493 0.3636 0.64791 0.0
C641 C 0.33413 0.37768 0.62137 0.0
C642 C 0.36825 0.31118 0.7365 0.0
C643 C 0.38153 0.31978 0.79627 0.0
C644 C 0.35496 0.32291 0.71028 0.0
C645 C 0.35452 0.34335 0.74353 0.0
C646 C 0.36739 0.35159 0.80389 0.0
C647 C 0.3808 0.33999 0.82988 0.0
loop_
_geom_bond_atom_site_label_1
_geom_bond_atom_site_label_2
_geom_bond_distance
_geom_bond_site_symmetry_2
_ccdc_geom_bond_type
Zn0 O3 2.031 . S
Zn0 O5 2.049 . S
Zn0 O10 2.067 . S
Zn1 O2 1.962 1_554 S
Zn1 O4 1.986 . S
Zn1 O6 1.996 . S
Zn1 O9 1.943 . S
O2 Zn1 1.962 1_556 S
O2 C7 1.254 . S
O3 Zn0 2.031 . S
O3 C7 1.269 1_554 S
O4 Zn1 1.986 . S
O4 C11 1.262 . S
O5 Zn0 2.049 . S
O5 C13 1.260 . S
O6 Zn1 1.996 . S
O6 C13 1.257 . S
C7 O2 1.254 . S
C7 O3 1.269 1_556 S
C8 O9 1.249 . S
C8 O10 1.270 . S
O9 Zn1 1.943 . S
O9 C8 1.249 . S
O10 Zn0 2.067 . S
O10 C8 1.270 . S
C11 O4 1.262 . S
C11 O12 1.232 1_554 S
O12 C11 1.232 1_556 S
C13 O5 1.260 . S
C13 O6 1.257 . S
Zn14 O17 2.031 . S
Zn14 O19 2.049 . S
Zn14 O24 2.067 . S
Zn15 O16 1.962 . S
Zn15 O18 1.986 . S
Zn15 O20 1.996 . S
Zn15 O23 1.943 . S
O16 Zn15 1.962 . S
O16 C21 1.254 . S
O17 Zn14 2.031 . S
O17 C21 1.269 . S
O18 Zn15 1.986 . S
O18 C25 1.262 . S
O19 Zn14 2.049 . S
O19 C27 1.260 . S
O20 Zn15 1.996 . S
O20 C27 1.257 . S
C21 O16 1.254 . S
C21 O17 1.269 . S
C22 O23 1.249 . S
C22 O24 1.270 . S
O23 Zn15 1.943 . S
O23 C22 1.249 . S
O24 Zn14 2.067 . S
O24 C22 1.270 . S
C25 O18 1.262 . S
C25 O26 1.232 . S
O26 C25 1.232 . S
C27 O19 1.260 . S
C27 O20 1.257 . S
Zn28 O31 2.031 . S
Zn28 O33 2.049 . S
Zn28 O38 2.067 . S
Zn29 O30 1.962 . S
Zn29 O32 1.986 . S
Zn29 O34 1.996 . S
Zn29 O37 1.943 . S
O30 Zn29 1.962 . S
O30 C35 1.254 . S
O31 Zn28 2.031 . S
O31 C35 1.269 . S
O32 Zn29 1.986 . S
O32 C39 1.262 . S
O33 Zn28 2.049 . S
O33 C41 1.260 . S
O34 Zn29 1.996 . S
O34 C41 1.257 . S
C35 O30 1.254 . S
C35 O31 1.269 . S
C36 O37 1.249 . S
C36 O38 1.270 . S
O37 Zn29 1.943 . S
O37 C36 1.249 . S
O38 Zn28 2.067 . S
O38 C36 1.270 . S
C39 O32 1.262 . S
C39 O40 1.232 . S
O40 C39 1.232 . S
C41 O33 1.260 . S
C41 O34 1.257 . S
Zn42 O45 2.031 . S
Zn42 O47 2.049 . S
Zn42 O52 2.067 . S
Zn43 O44 1.962 . S
Zn43 O46 1.986 . S
Zn43 O48 1.996 . S
Zn43 O51 1.943 . S
O44 Zn43 1.962 . S
O44 C49 1.254 . S
O45 Zn42 2.031 . S
O45 C49 1.269 . S
O46 Zn43 1.986 . S
O46 C53 1.262 . S
O47 Zn42 2.049 . S
O47 C55 1.260 . S
O48 Zn43 1.996 . S
O48 C55 1.257 . S
C49 O44 1.254 . S
C49 O45 1.269 . S
C50 O51 1.249 . S
C50 O52 1.270 . S
O51 Zn43 1.943 . S
O51 C50 1.249 . S
O52 Zn42 2.067 . S
O52 C50 1.270 . S
C53 O46 1.262 . S
C53 O54 1.232 . S
O54 C53 1.232 . S
C55 O47 1.260 . S
C55 O48 1.257 . S
Zn56 O59 2.031 . S
Zn56 O61 2.049 . S
Zn56 O66 2.067 . S
Zn57 O58 1.962 . S
Zn57 O60 1.986 . S
Zn57 O62 1.996 . S
Zn57 O65 1.943 . S
O58 Zn57 1.962 . S
O58 C63 1.254 . S
O59 Zn56 2.031 . S
O59 C63 1.269 . S
O60 Zn57 1.986 . S
O60 C67 1.262 . S
O61 Zn56 2.049 . S
O61 C69 1.260 . S
O62 Zn57 1.996 . S
O62 C69 1.257 . S
C63 O58 1.254 . S
C63 O59 1.269 . S
C64 O65 1.249 . S
C64 O66 1.270 . S
O65 Zn57 1.943 . S
O65 C64 1.249 . S
O66 Zn56 2.067 . S
O66 C64 1.270 . S
C67 O60 1.262 . S
C67 O68 1.232 . S
O68 C67 1.232 . S
C69 O61 1.260 . S
C69 O62 1.257 . S
Zn70 O73 2.031 . S
Zn70 O75 2.049 . S
Zn70 O80 2.067 . S
Zn71 O72 1.962 . S
Zn71 O74 1.986 . S
Zn71 O76 1.996 . S
Zn71 O79 1.943 . S
O72 Zn71 1.962 . S
O72 C77 1.254 . S
O73 Zn70 2.031 . S
O73 C77 1.269 . S
O74 Zn71 1.986 . S
O74 C81 1.262 . S
O75 Zn70 2.049 . S
O75 C83 1.260 . S
O76 Zn71 1.996 . S
O76 C83 1.257 . S
C77 O72 1.254 . S
C77 O73 1.269 . S
C78 O79 1.249 . S
C78 O80 1.270 . S
O79 Zn71 1.943 . S
O79 C78 1.249 . S
O80 Zn70 2.067 . S
O80 C78 1.270 . S
C81 O74 1.262 . S
C81 O82 1.232 . S
O82 C81 1.232 . S
C83 O75 1.260 . S
C83 O76 1.257 . S
Zn84 O87 2.031 . S
Zn84 O89 2.049 . S
Zn84 O94 2.067 . S
Zn85 O86 1.962 . S
Zn85 O88 1.986 . S
Zn85 O90 1.996 . S
Zn85 O93 1.943 . S
O86 Zn85 1.962 . S
O86 C91 1.254 . S
O87 Zn84 2.031 . S
O87 C91 1.269 . S
O88 Zn85 1.986 . S
O88 C95 1.262 . S
O89 Zn84 2.049 . S
O89 C97 1.260 . S
O90 Zn85 1.996 . S
O90 C97 1.257 . S
C91 O86 1.254 . S
C91 O87 1.269 . S
C92 O93 1.249 . S
C92 O94 1.270 . S
O93 Zn85 1.943 . S
O93 C92 1.249 . S
O94 Zn84 2.067 . S
O94 C92 1.270 . S
C95 O88 1.262 . S
C95 O96 1.232 . S
O96 C95 1.232 . S
C97 O89 1.260 . S
C97 O90 1.257 . S
Zn98 O101 2.031 . S
Zn98 O103 2.049 1_554 S
Zn98 O108 2.067 1_554 S
Zn99 O100 1.962 . S
Zn99 O102 1.986 . S
Zn99 O104 1.996 . S
Zn99 O107 1.943 1_554 S
O100 Zn99 1.962 . S
O100 C105 1.254 . S
O101 Zn98 2.031 . S
O101 C105 1.269 . S
O102 Zn99 1.986 . S
O102 C109 1.262 . S
O103 Zn98 2.049 1_556 S
O103 C111 1.260 1_556 S
O104 Zn99 1.996 . S
O104 C111 1.257 . S
C105 O100 1.254 . S
C105 O101 1.269 . S
C106 O107 1.249 . S
C106 O108 1.270 . S
O107 Zn99 1.943 1_556 S
O107 C106 1.249 . S
O108 Zn98 2.067 1_556 S
O108 C106 1.270 . S
C109 O102 1.262 . S
C109 O110 1.232 . S
O110 C109 1.232 . S
C111 O103 1.260 1_554 S
C111 O104 1.257 . S
Zn112 O115 2.031 . S
Zn112 O117 2.049 . S
Zn112 O122 2.067 . S
Zn113 O114 1.962 . S
Zn113 O116 1.986 . S
Zn113 O118 1.996 . S
Zn113 O121 1.943 . S
O114 Zn113 1.962 . S
O114 C119 1.254 . S
O115 Zn112 2.031 . S
O115 C119 1.269 . S
O116 Zn113 1.986 . S
O116 C123 1.262 . S
O117 Zn112 2.049 . S
O117 C125 1.260 . S
O118 Zn113 1.996 . S
O118 C125 1.257 . S
C119 O114 1.254 . S
C119 O115 1.269 . S
C120 O121 1.249 . S
C120 O122 1.270 . S
O121 Zn113 1.943 . S
O121 C120 1.249 . S
O122 Zn112 2.067 . S
O122 C120 1.270 . S
C123 O116 1.262 . S
C123 O124 1.232 . S
O124 C123 1.232 . S
C125 O117 1.260 . S
C125 O118 1.257 . S
Zn126 O129 2.031 . S
Zn126 O131 2.049 . S
Zn126 O136 2.067 . S
Zn127 O128 1.962 . S
Zn127 O130 1.986 . S
Zn127 O132 1.996 . S
Zn127 O135 1.943 . S
O128 Zn127 1.962 . S
O128 C133 1.254 . S
O129 Zn126 2.031 . S
O129 C133 1.269 . S
O130 Zn127 1.986 . S
O130 C137 1.262 . S
O131 Zn126 2.049 . S
O131 C139 1.260 . S
O132 Zn127 1.996 . S
O132 C139 1.257 . S
C133 O128 1.254 . S
C133 O129 1.269 . S
C134 O135 1.249 . S
C134 O136 1.270 . S
O135 Zn127 1.943 . S
O135 C134 1.249 . S
O136 Zn126 2.067 . S
O136 C134 1.270 . S
C137 O130 1.262 . S
C137 O138 1.232 . S
O138 C137 1.232 . S
C139 O131 1.260 . S
C139 O132 1.257 . S
Zn140 O143 2.031 . S
Zn140 O145 2.049 . S
Zn140 O150 2.067 . S
Zn141 O142 1.962 . S
Zn141 O144 1.986 . S
Zn141 O146 1.996 . S
Zn141 O149 1.943 . S
O142 Zn141 1.962 . S
O142 C147 1.254 . S
O143 Zn140 2.031 . S
O143 C147 1.269 . S
O144 Zn141 1.986 . S
O144 C151 1.262 . S
O145 Zn140 2.049 . S
O145 C153 1.260 . S
O146 Zn141 1.996 . S
O146 C153 1.257 . S
C147 O142 1.254 . S
C147 O143 1.269 . S
C148 O149 1.249 . S
C148 O150 1.270 . S
O149 Zn141 1.943 . S
O149 C148 1.249 . S
O150 Zn140 2.067 . S
O150 C148 1.270 . S
C151 O144 1.262 . S
C151 O152 1.232 . S
O152 C151 1.232 . S
C153 O145 1.260 . S
C153 O146 1.257 . S
Zn154 O157 2.031 . S
Zn154 O159 2.049 . S
Zn154 O164 2.067 . S
Zn155 O156 1.962 . S
Zn155 O158 1.986 . S
Zn155 O160 1.996 . S
Zn155 O163 1.943 . S
O156 Zn155 1.962 . S
O156 C161 1.254 . S
O157 Zn154 2.031 . S
O157 C161 1.269 . S
O158 Zn155 1.986 . S
O158 C165 1.262 . S
O159 Zn154 2.049 . S
O159 C167 1.260 . S
O160 Zn155 1.996 . S
O160 C167 1.257 . S
C161 O156 1.254 . S
C161 O157 1.269 . S
C162 O163 1.249 . S
C162 O164 1.270 . S
O163 Zn155 1.943 . S
O163 C162 1.249 . S
O164 Zn154 2.067 . S
O164 C162 1.270 . S
C165 O158 1.262 . S
C165 O166 1.232 . S
O166 C165 1.232 . S
C167 O159 1.260 . S
C167 O160 1.257 . S
H168 C176 0.950 . S
H169 C181 0.950 . S
H170 C178 0.950 . S
H171 C180 0.950 . S
H172 C182 0.950 . S
H173 C184 0.950 . S
H174 C186 0.950 . S
H175 C187 0.950 . S
C176 H168 0.950 . S
C176 C177 1.386 . S
C176 C178 1.391 . S
C177 C176 1.386 . S
C177 C181 1.393 . S
C178 H170 0.950 . S
C178 C176 1.391 . S
C178 C179 1.400 . S
C179 C178 1.400 . S
C179 C180 1.398 . S
C179 C185 1.491 . S
C180 H171 0.950 . S
C180 C179 1.398 . S
C180 C181 1.391 . S
C181 H169 0.950 . S
C181 C177 1.393 . S
C181 C180 1.391 . S
C182 H172 0.950 . S
C182 C183 1.386 . S
C182 C184 1.391 . S
C183 C182 1.386 . S
C183 C187 1.393 . S
C184 H173 0.950 . S
C184 C182 1.391 . S
C184 C185 1.400 . S
C185 C179 1.491 . S
C185 C184 1.400 . S
C185 C186 1.398 . S
C186 H174 0.950 . S
C186 C185 1.398 . S
C186 C187 1.391 . S
C187 H175 0.950 . S
C187 C183 1.393 . S
C187 C186 1.391 . S
H188 C196 0.950 . S
H189 C201 0.950 . S
H190 C198 0.950 . S
H191 C200 0.950 . S
H192 C202 0.950 . S
H193 C204 0.950 . S
H194 C206 0.950 . S
H195 C207 0.950 . S
C196 H188 0.950 . S
C196 C197 1.386 . S
C196 C198 1.391 . S
C197 C196 1.386 . S
C197 C201 1.393 . S
C198 H190 0.950 . S
C198 C196 1.391 . S
C198 C199 1.400 . S
C199 C198 1.400 . S
C199 C200 1.398 . S
C199 C205 1.491 . S
C200 H191 0.950 . S
C200 C199 1.398 . S
C200 C201 1.391 . S
C201 H189 0.950 . S
C201 C197 1.393 . S
C201 C200 1.391 . S
C202 H192 0.950 . S
C202 C203 1.386 . S
C202 C204 1.391 . S
C203 C202 1.386 . S
C203 C207 1.393 . S
C204 H193 0.950 . S
C204 C202 1.391 . S
C204 C205 1.400 . S
C205 C199 1.491 . S
C205 C204 1.400 . S
C205 C206 1.398 . S
C206 H194 0.950 . S
C206 C205 1.398 . S
C206 C207 1.391 . S
C207 H195 0.950 . S
C207 C203 1.393 . S
C207 C206 1.391 . S
H208 C216 0.950 . S
H209 C221 0.950 . S
H210 C218 0.950 . S
H211 C220 0.950 . S
H212 C222 0.950 . S
H213 C224 0.950 . S
H214 C226 0.950 . S
H215 C227 0.950 . S
C216 H208 0.950 . S
C216 C217 1.386 . S
C216 C218 1.391 . S
C217 C216 1.386 . S
C217 C221 1.393 . S
C218 H210 0.950 . S
C218 C216 1.391 . S
C218 C219 1.400 . S
C219 C218 1.400 . S
C219 C220 1.398 . S
C219 C225 1.491 . S
C220 H211 0.950 . S
C220 C219 1.398 . S
C220 C221 1.391 . S
C221 H209 0.950 . S
C221 C217 1.393 . S
C221 C220 1.391 . S
C222 H212 0.950 . S
C222 C223 1.386 . S
C222 C224 1.391 . S
C223 C222 1.386 . S
C223 C227 1.393 . S
C224 H213 0.950 . S
C224 C222 1.391 . S
C224 C225 1.400 . S
C225 C219 1.491 . S
C225 C224 1.400 . S
C225 C226 1.398 . S
C226 H214 0.950 . S
C226 C225 1.398 . S
C226 C227 1.391 . S
C227 H215 0.950 . S
C227 C223 1.393 . S
C227 C226 1.391 . S
H228 C236 0.950 . S
H229 C241 0.950 . S
H230 C238 0.950 . S
H231 C240 0.950 . S
H232 C242 0.950 . S
H233 C244 0.950 . S
H234 C246 0.950 . S
H235 C247 0.950 . S
C236 H228 0.950 . S
C236 C237 1.386 . S
C236 C238 1.391 . S
C237 C236 1.386 . S
C237 C241 1.393 . S
C238 H230 0.950 . S
C238 C236 1.391 . S
C238 C239 1.400 . S
C239 C238 1.400 . S
C239 C240 1.398 . S
C239 C245 1.491 . S
C240 H231 0.950 . S
C240 C239 1.398 . S
C240 C241 1.391 . S
C241 H229 0.950 . S
C241 C237 1.393 . S
C241 C240 1.391 . S
C242 H232 0.950 . S
C242 C243 1.386 . S
C242 C244 1.391 . S
C243 C242 1.386 . S
C243 C247 1.393 . S
C244 H233 0.950 . S
C244 C242 1.391 . S
C244 C245 1.400 . S
C245 C239 1.491 . S
C245 C244 1.400 . S
C245 C246 1.398 . S
C246 H234 0.950 . S
C246 C245 1.398 . S
C246 C247 1.391 . S
C247 H235 0.950 . S
C247 C243 1.393 . S
C247 C246 1.391 . S
H248 C256 0.950 . S
H249 C261 0.950 . S
H250 C258 0.950 . S
H251 C260 0.950 . S
H252 C262 0.950 . S
H253 C264 0.950 . S
H254 C266 0.950 . S
H255 C267 0.950 . S
C256 H248 0.950 . S
C256 C257 1.386 . S
C256 C258 1.391 . S
C257 C256 1.386 . S
C257 C261 1.393 . S
C258 H250 0.950 . S
C258 C256 1.391 . S
C258 C259 1.400 . S
C259 C258 1.400 . S
C259 C260 1.398 . S
C259 C265 1.491 . S
C260 H251 0.950 . S
C260 C259 1.398 . S
C260 C261 1.391 . S
C261 H249 0.950 . S
C261 C257 1.393 . S
C261 C260 1.391 . S
C262 H252 0.950 . S
C262 C263 1.386 . S
C262 C264 1.391 1_554 S
C263 C262 1.386 . S
C263 C267 1.393 . S
C264 H253 0.950 . S
C264 C262 1.391 1_556 S
C264 C265 1.400 . S
C265 C259 1.491 . S
C265 C264 1.400 . S
C265 C266 1.398 1_556 S
C266 H254 0.950 . S
C266 C265 1.398 1_554 S
C266 C267 1.391 . S
C267 H255 0.950 . S
C267 C263 1.393 . S
C267 C266 1.391 . S
H268 C276 0.950 . S
H269 C281 0.950 . S
H270 C278 0.950 . S
H271 C280 0.950 . S
H272 C282 0.950 . S
H273 C284 0.950 . S
H274 C286 0.950 . S
H275 C287 0.950 . S
C276 H268 0.950 . S
C276 C277 1.386 . S
C276 C278 1.391 . S
C277 C276 1.386 . S
C277 C281 1.393 . S
C278 H270 0.950 . S
C278 C276 1.391 . S
C278 C279 1.400 . S
C279 C278 1.400 . S
C279 C280 1.398 . S
C279 C285 1.491 . S
C280 H271 0.950 . S
C280 C279 1.398 . S
C280 C281 1.391 . S
C281 H269 0.950 . S
C281 C277 1.393 . S
C281 C280 1.391 . S
C282 H272 0.950 . S
C282 C283 1.386 . S
C282 C284 1.391 . S
C283 C282 1.386 . S
C283 C287 1.393 1_554 S
C284 H273 0.950 . S
C284 C282 1.391 . S
C284 C285 1.400 . S
C285 C279 1.491 . S
C285 C284 1.400 . S
C285 C286 1.398 . S
C286 H274 0.950 . S
C286 C285 1.398 . S
C286 C287 1.391 1_554 S
C287 H275 0.950 . S
C287 C283 1.393 1_556 S
C287 C286 1.391 1_556 S
H288 C296 0.950 . S
H289 C301 0.950 . S
H290 C298 0.950 . S
H291 C300 0.950 . S
H292 C302 0.950 . S
H293 C304 0.950 . S
H294 C306 0.950 . S
H295 C307 0.950 . S
C296 H288 0.950 . S
C296 C297 1.386 . S
C296 C298 1.391 . S
C297 C296 1.386 . S
C297 C301 1.393 . S
C298 H290 0.950 . S
C298 C296 1.391 . S
C298 C299 1.400 . S
C299 C298 1.400 . S
C299 C300 1.398 . S
C299 C305 1.491 . S
C300 H291 0.950 . S
C300 C299 1.398 . S
C300 C301 1.391 . S
C301 H289 0.950 . S
C301 C297 1.393 . S
C301 C300 1.391 . S
C302 H292 0.950 . S
C302 C303 1.386 . S
C302 C304 1.391 . S
C303 C302 1.386 . S
C303 C307 1.393 . S
C304 H293 0.950 . S
C304 C302 1.391 . S
C304 C305 1.400 . S
C305 C299 1.491 . S
C305 C304 1.400 . S
C305 C306 1.398 . S
C306 H294 0.950 . S
C306 C305 1.398 . S
C306 C307 1.391 . S
C307 H295 0.950 . S
C307 C303 1.393 . S
C307 C306 1.391 . S
H308 C316 0.950 . S
H309 C321 0.950 . S
H310 C318 0.950 . S
H311 C320 0.950 . S
H312 C322 0.950 . S
H313 C324 0.950 . S
H314 C326 0.950 . S
H315 C327 0.950 . S
C316 H308 0.950 . S
C316 C317 1.386 . S
C316 C318 1.391 . S
C317 C316 1.386 . S
C317 C321 1.393 . S
C318 H310 0.950 . S
C318 C316 1.391 . S
C318 C319 1.400 . S
C319 C318 1.400 . S
C319 C320 1.398 . S
C319 C325 1.491 . S
C320 H311 0.950 . S
C320 C319 1.398 . S
C320 C321 1.391 . S
C321 H309 0.950 . S
C321 C317 1.393 . S
C321 C320 1.391 . S
C322 H312 0.950 . S
C322 C323 1.386 . S
C322 C324 1.391 . S
C323 C322 1.386 . S
C323 C327 1.393 . S
C324 H313 0.950 . S
C324 C322 1.391 . S
C324 C325 1.400 . S
C325 C319 1.491 . S
C325 C324 1.400 . S
C325 C326 1.398 . S
C326 H314 0.950 . S
C326 C325 1.398 . S
C326 C327 1.391 . S
C327 H315 0.950 . S
C327 C323 1.393 . S
C327 C326 1.391 . S
H328 C336 0.950 . S
H329 C341 0.950 . S
H330 C338 0.950 . S
H331 C340 0.950 . S
H332 C342 0.950 . S
H333 C344 0.950 . S
H334 C346 0.950 . S
H335 C347 0.950 . S
C336 H328 0.950 . S
C336 C337 1.386 . S
C336 C338 1.391 . S
C337 C336 1.386 . S
C337 C341 1.393 . S
C338 H330 0.950 . S
C338 C336 1.391 . S
C338 C339 1.400 . S
C339 C338 1.400 . S
C339 C340 1.398 . S
C339 C345 1.491 . S
C340 H331 0.950 . S
C340 C339 1.398 . S
C340 C341 1.391 . S
C341 H329 0.950 . S
C341 C337 1.393 . S
C341 C340 1.391 . S
C342 H332 0.950 . S
C342 C343 1.386 . S
C342 C344 1.391 . S
C343 C342 1.386 . S
C343 C347 1.393 . S
C344 H333 0.950 . S
C344 C342 1.391 . S
C344 C345 1.400 . S
C345 C339 1.491 . S
C345 C344 1.400 . S
C345 C346 1.398 . S
C346 H334 0.950 . S
C346 C345 1.398 . S
C346 C347 1.391 . S
C347 H335 0.950 . S
C347 C343 1.393 . S
C347 C346 1.391 . S
H348 C356 0.950 . S
H349 C361 0.950 . S
H350 C358 0.950 . S
H351 C360 0.950 . S
H352 C362 0.950 . S
H353 C364 0.950 . S
H354 C366 0.950 . S
H355 C367 0.950 . S
C356 H348 0.950 . S
C356 C357 1.386 . S
C356 C358 1.391 . S
C357 C356 1.386 . S
C357 C361 1.393 . S
C358 H350 0.950 . S
C358 C356 1.391 . S
C358 C359 1.400 . S
C359 C358 1.400 . S
C359 C360 1.398 . S
C359 C365 1.491 . S
C360 H351 0.950 . S
C360 C359 1.398 . S
C360 C361 1.391 . S
C361 H349 0.950 . S
C361 C357 1.393 . S
C361 C360 1.391 . S
C362 H352 0.950 . S
C362 C363 1.386 . S
C362 C364 1.391 . S
C363 C362 1.386 . S
C363 C367 1.393 . S
C364 H353 0.950 . S
C364 C362 1.391 . S
C364 C365 1.400 . S
C365 C359 1.491 . S
C365 C364 1.400 . S
C365 C366 1.398 . S
C366 H354 0.950 . S
C366 C365 1.398 . S
C366 C367 1.391 . S
C367 H355 0.950 . S
C367 C363 1.393 . S
C367 C366 1.391 . S
H368 C376 0.950 . S
H369 C381 0.950 . S
H370 C378 0.950 . S
H371 C380 0.950 . S
H372 C382 0.950 . S
H373 C384 0.950 . S
H374 C386 0.950 . S
H375 C387 0.950 . S
C376 H368 0.950 . S
C376 C377 1.386 . S
C376 C378 1.391 . S
C377 C376 1.386 . S
C377 C381 1.393 . S
C378 H370 0.950 . S
C378 C376 1.391 . S
C378 C379 1.400 . S
C379 C378 1.400 . S
C379 C380 1.398 . S
C379 C385 1.491 . S
C380 H371 0.950 . S
C380 C379 1.398 . S
C380 C381 1.391 . S
C381 H369 0.950 . S
C381 C377 1.393 . S
C381 C380 1.391 . S
C382 H372 0.950 . S
C382 C383 1.386 . S
C382 C384 1.391 . S
C383 C382 1.386 . S
C383 C387 1.393 . S
C384 H373 0.950 . S
C384 C382 1.391 . S
C384 C385 1.400 . S
C385 C379 1.491 . S
C385 C384 1.400 . S
C385 C386 1.398 . S
C386 H374 0.950 . S
C386 C385 1.398 . S
C386 C387 1.391 . S
C387 H375 0.950 . S
C387 C383 1.393 . S
C387 C386 1.391 . S
H388 C396 0.950 . S
H389 C401 0.950 1_554 S
H390 C398 0.950 . S
H391 C400 0.950 . S
H392 C402 0.950 . S
H393 C404 0.950 . S
H394 C406 0.950 . S
H395 C407 0.950 . S
C396 H388 0.950 . S
C396 C397 1.386 . S
C396 C398 1.391 . S
C397 C396 1.386 . S
C397 C401 1.393 . S
C398 H390 0.950 . S
C398 C396 1.391 . S
C398 C399 1.400 . S
C399 C398 1.400 . S
C399 C400 1.398 1_556 S
C399 C405 1.491 . S
C400 H391 0.950 . S
C400 C399 1.398 1_554 S
C400 C401 1.391 1_554 S
C401 H389 0.950 1_556 S
C401 C397 1.393 . S
C401 C400 1.391 1_556 S
C402 H392 0.950 . S
C402 C403 1.386 . S
C402 C404 1.391 . S
C403 C402 1.386 . S
C403 C407 1.393 1_554 S
C404 H393 0.950 . S
C404 C402 1.391 . S
C404 C405 1.400 1_554 S
C405 C399 1.491 . S
C405 C404 1.400 1_556 S
C405 C406 1.398 . S
C406 H394 0.950 . S
C406 C405 1.398 . S
C406 C407 1.391 . S
C407 H395 0.950 . S
C407 C403 1.393 1_556 S
C407 C406 1.391 . S
H408 C416 0.950 . S
H409 C421 0.950 . S
H410 C418 0.950 . S
H411 C420 0.950 . S
H412 C422 0.950 . S
H413 C424 0.950 . S
H414 C426 0.950 . S
H415 C427 0.950 . S
C416 H408 0.950 . S
C416 C417 1.386 . S
C416 C418 1.391 . S
C417 C416 1.386 . S
C417 C421 1.393 . S
C418 H410 0.950 . S
C418 C416 1.391 . S
C418 C419 1.400 . S
C419 C418 1.400 . S
C419 C420 1.398 . S
C419 C425 1.491 . S
C420 H411 0.950 . S
C420 C419 1.398 . S
C420 C421 1.391 . S
C421 H409 0.950 . S
C421 C417 1.393 . S
C421 C420 1.391 . S
C422 H412 0.950 . S
C422 C423 1.386 . S
C422 C424 1.391 . S
C423 C422 1.386 . S
C423 C427 1.393 . S
C424 H413 0.950 . S
C424 C422 1.391 . S
C424 C425 1.400 . S
C425 C419 1.491 . S
C425 C424 1.400 . S
C425 C426 1.398 . S
C426 H414 0.950 . S
C426 C425 1.398 . S
C426 C427 1.391 . S
C427 H415 0.950 . S
C427 C423 1.393 . S
C427 C426 1.391 . S
H428 C436 0.950 . S
H429 C441 0.950 . S
H430 C438 0.950 . S
H431 C440 0.950 . S
H432 C442 0.950 . S
H433 C444 0.950 . S
H434 C446 0.950 . S
H435 C447 0.950 . S
C436 H428 0.950 . S
C436 C437 1.386 . S
C436 C438 1.391 . S
C437 C436 1.386 . S
C437 C441 1.393 . S
C438 H430 0.950 . S
C438 C436 1.391 . S
C438 C439 1.400 1_554 S
C439 C438 1.400 1_556 S
C439 C440 1.398 . S
C439 C445 1.491 . S
C440 H431 0.950 . S
C440 C439 1.398 . S
C440 C441 1.391 1_556 S
C441 H429 0.950 . S
C441 C437 1.393 . S
C441 C440 1.391 1_554 S
C442 H432 0.950 . S
C442 C443 1.386 . S
C442 C444 1.391 . S
C443 C442 1.386 . S
C443 C447 1.393 . S
C444 H433 0.950 . S
C444 C442 1.391 . S
C444 C445 1.400 . S
C445 C439 1.491 . S
C445 C444 1.400 . S
C445 C446 1.398 . S
C446 H434 0.950 . S
C446 C445 1.398 . S
C446 C447 1.391 . S
C447 H435 0.950 . S
C447 C443 1.393 . S
C447 C446 1.391 . S
H448 C456 0.950 . S
H449 C461 0.950 . S
H450 C458 0.950 . S
H451 C460 0.950 . S
H452 C462 0.950 . S
H453 C464 0.950 . S
H454 C466 0.950 . S
H455 C467 0.950 1_556 S
C456 H448 0.950 . S
C456 C457 1.386 . S
C456 C458 1.391 . S
C457 C456 1.386 . S
C457 C461 1.393 . S
C458 H450 0.950 . S
C458 C456 1.391 . S
C458 C459 1.400 . S
C459 C458 1.400 . S
C459 C460 1.398 . S
C459 C465 1.491 . S
C460 H451 0.950 . S
C460 C459 1.398 . S
C460 C461 1.391 . S
C461 H449 0.950 . S
C461 C457 1.393 . S
C461 C460 1.391 . S
C462 H452 0.950 . S
C462 C463 1.386 . S
C462 C464 1.391 . S
C463 C462 1.386 . S
C463 C467 1.393 . S
C464 H453 0.950 . S
C464 C462 1.391 . S
C464 C465 1.400 . S
C465 C459 1.491 . S
C465 C464 1.400 . S
C465 C466 1.398 . S
C466 H454 0.950 . S
C466 C465 1.398 . S
C466 C467 1.391 . S
C467 H455 0.950 1_554 S
C467 C463 1.393 . S
C467 C466 1.391 . S
H468 C476 0.950 . S
H469 C481 0.950 . S
H470 C478 0.950 . S
H471 C480 0.950 . S
H472 C482 0.950 . S
H473 C484 0.950 . S
H474 C486 0.950 . S
H475 C487 0.950 . S
C476 H468 0.950 . S
C476 C477 1.386 . S
C476 C478 1.391 . S
C477 C476 1.386 . S
C477 C481 1.393 . S
C478 H470 0.950 . S
C478 C476 1.391 . S
C478 C479 1.400 . S
C479 C478 1.400 . S
C479 C480 1.398 . S
C479 C485 1.491 . S
C480 H471 0.950 . S
C480 C479 1.398 . S
C480 C481 1.391 . S
C481 H469 0.950 . S
C481 C477 1.393 . S
C481 C480 1.391 . S
C482 H472 0.950 . S
C482 C483 1.386 . S
C482 C484 1.391 . S
C483 C482 1.386 . S
C483 C487 1.393 . S
C484 H473 0.950 . S
C484 C482 1.391 . S
C484 C485 1.400 . S
C485 C479 1.491 . S
C485 C484 1.400 . S
C485 C486 1.398 . S
C486 H474 0.950 . S
C486 C485 1.398 . S
C486 C487 1.391 . S
C487 H475 0.950 . S
C487 C483 1.393 . S
C487 C486 1.391 . S
H488 C496 0.950 . S
H489 C501 0.950 . S
H490 C498 0.950 . S
H491 C500 0.950 . S
H492 C502 0.950 . S
H493 C504 0.950 . S
H494 C506 0.950 . S
H495 C507 0.950 . S
C496 H488 0.950 . S
C496 C497 1.386 . S
C496 C498 1.391 . S
C497 C496 1.386 . S
C497 C501 1.393 . S
C498 H490 0.950 . S
C498 C496 1.391 . S
C498 C499 1.400 . S
C499 C498 1.400 . S
C499 C500 1.398 . S
C499 C505 1.491 . S
C500 H491 0.950 . S
C500 C499 1.398 . S
C500 C501 1.391 . S
C501 H489 0.950 . S
C501 C497 1.393 . S
C501 C500 1.391 . S
C502 H492 0.950 . S
C502 C503 1.386 . S
C502 C504 1.391 . S
C503 C502 1.386 . S
C503 C507 1.393 . S
C504 H493 0.950 . S
C504 C502 1.391 . S
C504 C505 1.400 . S
C505 C499 1.491 . S
C505 C504 1.400 . S
C505 C506 1.398 . S
C506 H494 0.950 . S
C506 C505 1.398 . S
C506 C507 1.391 . S
C507 H495 0.950 . S
C507 C503 1.393 . S
C507 C506 1.391 . S
H508 C516 0.950 . S
H509 C521 0.950 . S
H510 C518 0.950 . S
H511 C520 0.950 . S
H512 C522 0.950 . S
H513 C524 0.950 . S
H514 C526 0.950 . S
H515 C527 0.950 . S
C516 H508 0.950 . S
C516 C517 1.386 . S
C516 C518 1.391 . S
C517 C516 1.386 . S
C517 C521 1.393 . S
C518 H510 0.950 . S
C518 C516 1.391 . S
C518 C519 1.400 . S
C519 C518 1.400 . S
C519 C520 1.398 . S
C519 C525 1.491 . S
C520 H511 0.950 . S
C520 C519 1.398 . S
C520 C521 1.391 . S
C521 H509 0.950 . S
C521 C517 1.393 . S
C521 C520 1.391 . S
C522 H512 0.950 . S
C522 C523 1.386 . S
C522 C524 1.391 . S
C523 C522 1.386 . S
C523 C527 1.393 . S
C524 H513 0.950 . S
C524 C522 1.391 . S
C524 C525 1.400 . S
C525 C519 1.491 . S
C525 C524 1.400 . S
C525 C526 1.398 . S
C526 H514 0.950 . S
C526 C525 1.398 . S
C526 C527 1.391 . S
C527 H515 0.950 . S
C527 C523 1.393 . S
C527 C526 1.391 . S
H528 C536 0.950 . S
H529 C541 0.950 . S
H530 C538 0.950 . S
H531 C540 0.950 1_655 S
H532 C542 0.950 . S
H533 C544 0.950 . S
H534 C546 0.950 1_455 S
H535 C547 0.950 . S
C536 H528 0.950 . S
C536 C537 1.386 . S
C536 C538 1.391 . S
C537 C536 1.386 . S
C537 C541 1.393 1_556 S
C538 H530 0.950 . S
C538 C536 1.391 . S
C538 C539 1.400 . S
C539 C538 1.400 . S
C539 C540 1.398 . S
C539 C545 1.491 1_455 S
C540 H531 0.950 1_455 S
C540 C539 1.398 . S
C540 C541 1.391 1_556 S
C541 H529 0.950 . S
C541 C537 1.393 1_554 S
C541 C540 1.391 1_554 S
C542 H532 0.950 . S
C542 C543 1.386 . S
C542 C544 1.391 . S
C543 C542 1.386 . S
C543 C547 1.393 . S
C544 H533 0.950 . S
C544 C542 1.391 . S
C544 C545 1.400 . S
C545 C539 1.491 1_655 S
C545 C544 1.400 . S
C545 C546 1.398 . S
C546 H534 0.950 1_655 S
C546 C545 1.398 . S
C546 C547 1.391 . S
C547 H535 0.950 . S
C547 C543 1.393 . S
C547 C546 1.391 . S
H548 C556 0.950 . S
H549 C561 0.950 . S
H550 C558 0.950 . S
H551 C560 0.950 . S
H552 C562 0.950 . S
H553 C564 0.950 . S
H554 C566 0.950 . S
H555 C567 0.950 . S
C556 H548 0.950 . S
C556 C557 1.386 . S
C556 C558 1.391 . S
C557 C556 1.386 . S
C557 C561 1.393 . S
C558 H550 0.950 . S
C558 C556 1.391 . S
C558 C559 1.400 1_556 S
C559 C558 1.400 1_554 S
C559 C560 1.398 . S
C559 C565 1.491 1_565 S
C560 H551 0.950 . S
C560 C559 1.398 . S
C560 C561 1.391 1_554 S
C561 H549 0.950 . S
C561 C557 1.393 . S
C561 C560 1.391 1_556 S
C562 H552 0.950 . S
C562 C563 1.386 . S
C562 C564 1.391 . S
C563 C562 1.386 . S
C563 C567 1.393 . S
C564 H553 0.950 . S
C564 C562 1.391 . S
C564 C565 1.400 . S
C565 C559 1.491 1_545 S
C565 C564 1.400 . S
C565 C566 1.398 . S
C566 H554 0.950 . S
C566 C565 1.398 . S
C566 C567 1.391 . S
C567 H555 0.950 . S
C567 C563 1.393 . S
C567 C566 1.391 . S
H568 C576 0.950 . S
H569 C581 0.950 . S
H570 C578 0.950 . S
H571 C580 0.950 . S
H572 C582 0.950 . S
H573 C584 0.950 . S
H574 C586 0.950 . S
H575 C587 0.950 . S
C576 H568 0.950 . S
C576 C577 1.386 . S
C576 C578 1.391 . S
C577 C576 1.386 . S
C577 C581 1.393 . S
C578 H570 0.950 . S
C578 C576 1.391 . S
C578 C579 1.400 . S
C579 C578 1.400 . S
C579 C580 1.398 . S
C579 C585 1.491 . S
C580 H571 0.950 . S
C580 C579 1.398 . S
C580 C581 1.391 . S
C581 H569 0.950 . S
C581 C577 1.393 . S
C581 C580 1.391 . S
C582 H572 0.950 . S
C582 C583 1.386 . S
C582 C584 1.391 . S
C583 C582 1.386 . S
C583 C587 1.393 . S
C584 H573 0.950 . S
C584 C582 1.391 . S
C584 C585 1.400 . S
C585 C579 1.491 . S
C585 C584 1.400 . S
C585 C586 1.398 . S
C586 H574 0.950 . S
C586 C585 1.398 . S
C586 C587 1.391 . S
C587 H575 0.950 . S
C587 C583 1.393 . S
C587 C586 1.391 . S
H588 C596 0.950 . S
H589 C601 0.950 . S
H590 C598 0.950 1_655 S
H591 C600 0.950 . S
H592 C602 0.950 . S
H593 C604 0.950 1_455 S
H594 C606 0.950 . S
H595 C607 0.950 . S
C596 H588 0.950 . S
C596 C597 1.386 . S
C596 C598 1.391 . S
C597 C596 1.386 . S
C597 C601 1.393 . S
C598 H590 0.950 1_455 S
C598 C596 1.391 . S
C598 C599 1.400 . S
C599 C598 1.400 . S
C599 C600 1.398 . S
C599 C605 1.491 1_455 S
C600 H591 0.950 . S
C600 C599 1.398 . S
C600 C601 1.391 . S
C601 H589 0.950 . S
C601 C597 1.393 . S
C601 C600 1.391 . S
C602 H592 0.950 . S
C602 C603 1.386 . S
C602 C604 1.391 . S
C603 C602 1.386 . S
C603 C607 1.393 . S
C604 H593 0.950 1_655 S
C604 C602 1.391 . S
C604 C605 1.400 . S
C605 C599 1.491 1_655 S
C605 C604 1.400 . S
C605 C606 1.398 . S
C606 H594 0.950 . S
C606 C605 1.398 . S
C606 C607 1.391 . S
C607 H595 0.950 . S
C607 C603 1.393 . S
C607 C606 1.391 . S
H608 C616 0.950 . S
H609 C621 0.950 . S
H610 C618 0.950 . S
H611 C620 0.950 . S
H612 C622 0.950 . S
H613 C624 0.950 . S
H614 C626 0.950 . S
H615 C627 0.950 . S
C616 H608 0.950 . S
C616 C617 1.386 . S
C616 C618 1.391 . S
C617 C616 1.386 . S
C617 C621 1.393 . S
C618 H610 0.950 . S
C618 C616 1.391 . S
C618 C619 1.400 . S
C619 C618 1.400 . S
C619 C620 1.398 . S
C619 C625 1.491 1_545 S
C620 H611 0.950 . S
C620 C619 1.398 . S
C620 C621 1.391 . S
C621 H609 0.950 . S
C621 C617 1.393 . S
C621 C620 1.391 . S
C622 H612 0.950 . S
C622 C623 1.386 . S
C622 C624 1.391 . S
C623 C622 1.386 . S
C623 C627 1.393 . S
C624 H613 0.950 . S
C624 C622 1.391 . S
C624 C625 1.400 . S
C625 C619 1.491 1_565 S
C625 C624 1.400 . S
C625 C626 1.398 . S
C626 H614 0.950 . S
C626 C625 1.398 . S
C626 C627 1.391 . S
C627 H615 0.950 . S
C627 C623 1.393 . S
C627 C626 1.391 . S
H628 C636 0.950 . S
H629 C641 0.950 . S
H630 C638 0.950 . S
H631 C640 0.950 . S
H632 C642 0.950 . S
H633 C644 0.950 . S
H634 C646 0.950 . S
H635 C647 0.950 . S
C636 H628 0.950 . S
C636 C637 1.386 . S
C636 C638 1.391 . S
C637 C636 1.386 . S
C637 C641 1.393 . S
C638 H630 0.950 . S
C638 C636 1.391 . S
C638 C639 1.400 . S
C639 C638 1.400 . S
C639 C640 1.398 . S
C639 C645 1.491 . S
C640 H631 0.950 . S
C640 C639 1.398 . S
C640 C641 1.391 . S
C641 H629 0.950 . S
C641 C637 1.393 . S
C641 C640 1.391 . S
C642 H632 0.950 . S
C642 C643 1.386 . S
C642 C644 1.391 . S
C643 C642 1.386 . S
C643 C647 1.393 . S
C644 H633 0.950 . S
C644 C642 1.391 . S
C644 C645 1.400 . S
C645 C639 1.491 . S
C645 C644 1.400 . S
C645 C646 1.398 . S
C646 H634 0.950 . S
C646 C645 1.398 . S
C646 C647 1.391 . S
C647 H635 0.950 . S
C647 C643 1.393 . S
C647 C646 1.391 . S
C177 C8 1.363 . S
C183 C148 1.345 . S
C197 C162 1.374 . S
C203 C22 1.341 . S
C217 C36 1.355 . S
C223 C92 1.353 . S
C237 C50 1.364 . S
C243 C106 1.344 . S
C257 C64 1.373 . S
C263 C120 1.344 . S
C277 C134 1.373 . S
C283 C78 1.340 1_554 S
C297 C13 1.483 . S
C303 C125 1.459 . S
C317 C27 1.482 . S
C323 C139 1.460 . S
C337 C153 1.479 . S
C343 C41 1.463 . S
C357 C55 1.480 . S
C363 C167 1.463 . S
C377 C69 1.464 . S
C383 C97 1.477 . S
C397 C83 1.485 . S
C403 C111 1.457 . S
C417 C147 0.850 . S
C423 C7 0.864 . S
C437 C21 0.864 . S
C443 C161 0.850 . S
C457 C35 0.854 . S
C463 C91 0.863 1_554 S
C477 C49 0.865 . S
C483 C105 0.851 . S
C497 C119 0.852 . S
C503 C63 0.864 . S
C517 C77 0.860 . S
C523 C133 0.851 . S
C537 C11 1.434 1_556 S
C543 C165 1.428 . S
C557 C95 1.442 . S
C563 C25 1.445 . S
C577 C109 1.420 . S
C583 C39 1.422 . S
C597 C123 1.435 . S
C603 C53 1.440 . S
C617 C137 1.427 . S
C623 C67 1.422 . S
C637 C151 1.436 . S
C643 C81 1.431 . S
