# Generated by pormake.
# Topology wjw, (5)-cn, num edge types: 1
# Building blocks:
#     Node 0, Type 0, BuildingBlock: XOMCOT_clean_sbu_0, # of connection points: 5
#     Node 1, Type 0, BuildingBlock: XOMCOT_clean_sbu_0, # of connection points: 5
#     Node 2, Type 0, BuildingBlock: XOMCOT_clean_sbu_0, # of connection points: 5
#     Node 3, Type 0, BuildingBlock: XOMCOT_clean_sbu_0, # of connection points: 5
#     Node 4, Type 0, BuildingBlock: XOMCOT_clean_sbu_0, # of connection points: 5
#     Node 5, Type 0, BuildingBlock: XOMCOT_clean_sbu_0, # of connection points: 5
#     Node 6, Type 0, BuildingBlock: XOMCOT_clean_sbu_0, # of connection points: 5
#     Node 7, Type 0, BuildingBlock: XOMCOT_clean_sbu_0, # of connection points: 5
#     Node 8, Type 0, BuildingBlock: XOMCOT_clean_sbu_0, # of connection points: 5
#     Node 9, Type 0, BuildingBlock: XOMCOT_clean_sbu_0, # of connection points: 5
#     Node 10, Type 0, BuildingBlock: XOMCOT_clean_sbu_0, # of connection points: 5
#     Node 11, Type 0, BuildingBlock: XOMCOT_clean_sbu_0, # of connection points: 5
#     Edge 12, Type (0, 0), BuildingBlock: XIVTED_clean_linker_0, # of connection points: 2
#     Edge 13, Type (0, 0), BuildingBlock: XIVTED_clean_linker_0, # of connection points: 2
#     Edge 14, Type (0, 0), BuildingBlock: XIVTED_clean_linker_0, # of connection points: 2
#     Edge 15, Type (0, 0), BuildingBlock: XIVTED_clean_linker_0, # of connection points: 2
#     Edge 16, Type (0, 0), BuildingBlock: XIVTED_clean_linker_0, # of connection points: 2
#     Edge 17, Type (0, 0), BuildingBlock: XIVTED_clean_linker_0, # of connection points: 2
#     Edge 18, Type (0, 0), BuildingBlock: XIVTED_clean_linker_0, # of connection points: 2
#     Edge 19, Type (0, 0), BuildingBlock: XIVTED_clean_linker_0, # of connection points: 2
#     Edge 20, Type (0, 0), BuildingBlock: XIVTED_clean_linker_0, # of connection points: 2
#     Edge 21, Type (0, 0), BuildingBlock: XIVTED_clean_linker_0, # of connection points: 2
#     Edge 22, Type (0, 0), BuildingBlock: XIVTED_clean_linker_0, # of connection points: 2
#     Edge 23, Type (0, 0), BuildingBlock: XIVTED_clean_linker_0, # of connection points: 2
#     Edge 24, Type (0, 0), BuildingBlock: XIVTED_clean_linker_0, # of connection points: 2
#     Edge 25, Type (0, 0), BuildingBlock: XIVTED_clean_linker_0, # of connection points: 2
#     Edge 26, Type (0, 0), BuildingBlock: XIVTED_clean_linker_0, # of connection points: 2
#     Edge 27, Type (0, 0), BuildingBlock: XIVTED_clean_linker_0, # of connection points: 2
#     Edge 28, Type (0, 0), BuildingBlock: XIVTED_clean_linker_0, # of connection points: 2
#     Edge 29, Type (0, 0), BuildingBlock: XIVTED_clean_linker_0, # of connection points: 2
#     Edge 30, Type (0, 0), BuildingBlock: XIVTED_clean_linker_0, # of connection points: 2
#     Edge 31, Type (0, 0), BuildingBlock: XIVTED_clean_linker_0, # of connection points: 2
#     Edge 32, Type (0, 0), BuildingBlock: XIVTED_clean_linker_0, # of connection points: 2
#     Edge 33, Type (0, 0), BuildingBlock: XIVTED_clean_linker_0, # of connection points: 2
#     Edge 34, Type (0, 0), BuildingBlock: XIVTED_clean_linker_0, # of connection points: 2
#     Edge 35, Type (0, 0), BuildingBlock: XIVTED_clean_linker_0, # of connection points: 2
#     Edge 36, Type (0, 0), BuildingBlock: XIVTED_clean_linker_0, # of connection points: 2
#     Edge 37, Type (0, 0), BuildingBlock: XIVTED_clean_linker_0, # of connection points: 2
#     Edge 38, Type (0, 0), BuildingBlock: XIVTED_clean_linker_0, # of connection points: 2
#     Edge 39, Type (0, 0), BuildingBlock: XIVTED_clean_linker_0, # of connection points: 2
#     Edge 40, Type (0, 0), BuildingBlock: XIVTED_clean_linker_0, # of connection points: 2
#     Edge 41, Type (0, 0), BuildingBlock: XIVTED_clean_linker_0, # of connection points: 2
# Relax obj value: 0.220
# Max RMSD: 0.191
# Mean RMSD: 0.187
data_MOF--net-wjw--node1-XOMCOT_clean_sbu_0--edge1-XIVTED_clean_linker_0
_symmetry_space_group_name_H-M    P1
_symmetry_Int_Tables_number       1
_symmetry_cell_setting            triclinic
loop_
_symmetry_equiv_pos_as_xyz
'x, y, z'
_cell_length_a     40.513073
_cell_length_b     40.44149
_cell_length_c     37.508437
_cell_angle_alpha  89.967086
_cell_angle_beta   90.031045
_cell_angle_gamma 119.87533
loop_
_atom_site_label
_atom_site_type_symbol
_atom_site_fract_x
_atom_site_fract_y
_atom_site_fract_z
_atom_type_partial_charge
Co0 Co 0.14226 0.3876 0.29211 0.0
C1 C 0.09165 0.42203 0.30055 0.0
C2 C 0.0646 0.36303 0.31521 0.0
C3 C 0.03851 0.37514 0.31862 0.0
N4 N 0.09809 0.39243 0.30411 0.0
N5 N 0.05558 0.41224 0.30941 0.0
H6 H 0.11214 0.44988 0.29092 0.0
H7 H 0.05949 0.33454 0.32038 0.0
C8 C 0.13343 0.3773 0.37093 0.0
O9 O 0.12227 0.40272 0.37168 0.0
N10 N 0.18502 0.38128 0.28 0.0
C11 C 0.21525 0.40444 0.25971 0.0
C12 C 0.24118 0.39182 0.26114 0.0
C13 C 0.19256 0.35468 0.29304 0.0
N14 N 0.22683 0.36057 0.28214 0.0
C15 C 0.18289 0.46896 0.28357 0.0
C16 C 0.23216 0.48519 0.34027 0.0
C17 C 0.23677 0.51501 0.31804 0.0
C18 C 0.21156 0.50654 0.28945 0.0
C19 C 0.2033 0.44795 0.33326 0.0
N20 N 0.17817 0.44017 0.30584 0.0
H21 H 0.16519 0.46295 0.26025 0.0
H22 H 0.203 0.42537 0.34874 0.0
H23 H 0.2187 0.42939 0.24579 0.0
H24 H 0.17406 0.33242 0.31134 0.0
O25 O 0.13555 0.3959 0.24282 0.0
O26 O 0.10826 0.33943 0.26943 0.0
O27 O 0.14237 0.36806 0.34144 0.0
C28 C 0.11225 0.35938 0.24086 0.0
H29 H 0.00935 0.35801 0.32748 0.0
H30 H 0.26866 0.40491 0.24812 0.0
H31 H 0.25204 0.49022 0.36172 0.0
H32 H 0.2145 0.52864 0.27123 0.0
Co33 Co 0.75763 0.14184 0.62386 0.0
C34 C 0.67331 0.09508 0.63236 0.0
C35 C 0.70439 0.07901 0.66818 0.0
C36 C 0.66628 0.05653 0.67516 0.0
N37 N 0.70882 0.10339 0.64172 0.0
N38 N 0.64681 0.06664 0.65274 0.0
H39 H 0.66709 0.11016 0.61198 0.0
H40 H 0.72742 0.07791 0.68168 0.0
C41 C 0.79781 0.18393 0.68998 0.0
O42 O 0.81025 0.21615 0.67247 0.0
N43 N 0.808 0.17932 0.60664 0.0
C44 C 0.81867 0.20207 0.57758 0.0
C45 C 0.85787 0.22396 0.57706 0.0
C46 C 0.841 0.18616 0.62192 0.0
N47 N 0.8717 0.21422 0.60536 0.0
C48 C 0.73818 0.19676 0.59689 0.0
C49 C 0.72033 0.21571 0.66199 0.0
C50 C 0.72202 0.23707 0.63185 0.0
C51 C 0.72951 0.22609 0.59872 0.0
C52 C 0.7289 0.18639 0.65882 0.0
N53 N 0.74094 0.17948 0.62708 0.0
H54 H 0.74235 0.18778 0.57109 0.0
H55 H 0.72653 0.16977 0.6822 0.0
H56 H 0.79994 0.20278 0.55761 0.0
H57 H 0.84256 0.17111 0.64512 0.0
O58 O 0.74167 0.12453 0.57586 0.0
O59 O 0.76907 0.1021 0.61249 0.0
O60 O 0.77684 0.15203 0.67449 0.0
C61 C 0.75397 0.10078 0.58149 0.0
H62 H 0.65376 0.0344 0.69523 0.0
H63 H 0.87476 0.24599 0.55789 0.0
H64 H 0.71365 0.22222 0.68808 0.0
H65 H 0.7288 0.24008 0.57434 0.0
Co66 Co 0.61333 0.75786 0.96274 0.0
C67 C 0.5747 0.67373 0.96906 0.0
C68 C 0.62331 0.70219 0.00358 0.0
C69 C 0.60854 0.66352 0.00699 0.0
N70 N 0.60208 0.70848 0.9799 0.0
N71 N 0.57808 0.64569 0.98525 0.0
H72 H 0.5536 0.66915 0.94902 0.0
H73 H 0.64832 0.72426 0.01684 0.0
C74 C 0.61971 0.80081 0.02955 0.0
O75 O 0.60027 0.81464 0.01361 0.0
N76 N 0.62699 0.80859 0.94589 0.0
C77 C 0.61129 0.82048 0.9208 0.0
C78 C 0.63046 0.85986 0.92051 0.0
C79 C 0.65663 0.84084 0.95885 0.0
N80 N 0.65853 0.87245 0.94496 0.0
C81 C 0.53758 0.73972 0.94214 0.0
C82 C 0.50731 0.72591 0.01009 0.0
C83 C 0.48523 0.72634 0.98159 0.0
C84 C 0.50013 0.73175 0.94705 0.0
C85 C 0.54433 0.73329 0.00381 0.0
N86 N 0.56021 0.74353 0.97062 0.0
H87 H 0.54828 0.74273 0.91534 0.0
H88 H 0.56027 0.73116 0.02588 0.0
H89 H 0.58758 0.80251 0.9039 0.0
H90 H 0.67571 0.84116 0.97921 0.0
O91 O 0.60909 0.74012 0.91457 0.0
O92 O 0.66238 0.76664 0.94642 0.0
O93 O 0.6277 0.77809 0.01291 0.0
C94 C 0.64497 0.75046 0.91682 0.0
H95 H 0.61942 0.64961 0.02415 0.0
H96 H 0.62321 0.87774 0.90471 0.0
H97 H 0.4961 0.72003 0.03699 0.0
H98 H 0.48345 0.73097 0.92416 0.0
Co99 Co 0.85712 0.60837 0.29949 0.0
C100 C 0.90267 0.57009 0.30753 0.0
C101 C 0.92049 0.61715 0.34369 0.0
C102 C 0.94412 0.60211 0.34794 0.0
N103 N 0.89456 0.59702 0.31845 0.0
N104 N 0.93295 0.57259 0.32515 0.0
H105 H 0.88752 0.55 0.28636 0.0
H106 H 0.92259 0.64161 0.35746 0.0
C107 C 0.81846 0.61543 0.36504 0.0
O108 O 0.78532 0.59643 0.34898 0.0
N109 N 0.82029 0.62135 0.28056 0.0
C110 C 0.79302 0.60344 0.25563 0.0
C111 C 0.7713 0.62088 0.25364 0.0
C112 C 0.81599 0.65074 0.29177 0.0
N113 N 0.78559 0.65037 0.27666 0.0
C114 C 0.80437 0.53248 0.27575 0.0
C115 C 0.77872 0.50049 0.34216 0.0
C116 C 0.76065 0.47855 0.3118 0.0
C117 C 0.77523 0.49463 0.27828 0.0
C118 C 0.80844 0.53804 0.3383 0.0
N119 N 0.81854 0.55471 0.30541 0.0
H120 H 0.81537 0.54389 0.24969 0.0
H121 H 0.82303 0.55355 0.36198 0.0
H122 H 0.78833 0.57912 0.24011 0.0
H123 H 0.83316 0.6704 0.31253 0.0
O124 O 0.87372 0.60595 0.25207 0.0
O125 O 0.89753 0.65823 0.28535 0.0
O126 O 0.84894 0.62195 0.34905 0.0
C127 C 0.8985 0.64194 0.25576 0.0
H128 H 0.96776 0.61221 0.36636 0.0
H129 H 0.74624 0.61189 0.23727 0.0
H130 H 0.76964 0.4893 0.36877 0.0
H131 H 0.76419 0.47828 0.25401 0.0
Co132 Co 0.25153 0.86631 0.63865 0.0
C133 C 0.33746 0.9128 0.644 0.0
C134 C 0.30796 0.93598 0.67288 0.0
C135 C 0.34629 0.96017 0.67686 0.0
N136 N 0.30216 0.90576 0.65298 0.0
N137 N 0.36479 0.94563 0.65872 0.0
H138 H 0.3435 0.89491 0.62717 0.0
H139 H 0.28557 0.94021 0.68365 0.0
C140 C 0.2517 0.863 0.71798 0.0
O141 O 0.28624 0.86785 0.71645 0.0
N142 N 0.20063 0.82854 0.62472 0.0
C143 C 0.19026 0.80368 0.59745 0.0
C144 C 0.15131 0.77995 0.59868 0.0
C145 C 0.16816 0.81983 0.64204 0.0
N146 N 0.13761 0.79005 0.6269 0.0
C147 C 0.28697 0.82135 0.62179 0.0
C148 C 0.24536 0.76378 0.67011 0.0
C149 C 0.2705 0.75989 0.64725 0.0
C150 C 0.29181 0.78937 0.62304 0.0
C151 C 0.24153 0.79608 0.66808 0.0
N152 N 0.26299 0.82511 0.64492 0.0
H153 H 0.30104 0.84207 0.60093 0.0
H154 H 0.21955 0.79644 0.68397 0.0
H155 H 0.20974 0.80224 0.57865 0.0
H156 H 0.16689 0.83483 0.66538 0.0
O157 O 0.26553 0.87843 0.58922 0.0
O158 O 0.24183 0.90626 0.62367 0.0
O159 O 0.23382 0.86161 0.68949 0.0
C160 C 0.25518 0.904 0.59279 0.0
H161 H 0.35958 0.98683 0.6914 0.0
H162 H 0.13458 0.75626 0.58097 0.0
H163 H 0.22784 0.74146 0.68883 0.0
H164 H 0.31053 0.78685 0.604 0.0
Co165 Co 0.38814 0.25108 0.96409 0.0
C166 C 0.4254 0.33644 0.97093 0.0
C167 C 0.37078 0.30626 -0.00391 0.0
C168 C 0.38365 0.34467 -0.00124 0.0
N169 N 0.39711 0.30095 0.97905 0.0
N170 N 0.41798 0.36357 0.98291 0.0
H171 H 0.45008 0.34279 0.95529 0.0
H172 H 0.3436 0.28354 0.00535 0.0
C173 C 0.38612 0.24874 0.0433 0.0
O174 O 0.41481 0.28388 0.04301 0.0
N175 N 0.37742 0.20107 0.94912 0.0
C176 C 0.39383 0.1923 0.92232 0.0
C177 C 0.38025 0.15349 0.92294 0.0
C178 C 0.35416 0.16781 0.96554 0.0
N179 N 0.35559 0.13834 0.95035 0.0
C180 C 0.46935 0.28864 0.95262 0.0
C181 C 0.48324 0.24611 0.00176 0.0
C182 C 0.51345 0.27334 0.98141 0.0
C183 C 0.50639 0.29498 0.95669 0.0
C184 C 0.44693 0.24129 -0.0026 0.0
N185 N 0.44037 0.26332 0.97392 0.0
H186 H 0.46376 0.30272 0.93098 0.0
H187 H 0.42382 0.2182 0.01161 0.0
H188 H 0.41508 0.2128 0.90439 0.0
H189 H 0.33682 0.16519 0.98845 0.0
O190 O 0.39407 0.26768 0.91528 0.0
O191 O 0.33956 0.241 0.94522 0.0
O192 O 0.3717 0.23124 0.01406 0.0
C193 C 0.35798 0.25681 0.91595 0.0
H194 H 0.36881 0.35763 0.01128 0.0
H195 H 0.38902 0.13791 0.90557 0.0
H196 H 0.48746 0.22793 0.02023 0.0
H197 H 0.52883 0.31506 0.93935 0.0
Co198 Co 0.61207 0.85496 0.36018 0.0
C199 C 0.5749 0.90226 0.35596 0.0
C200 C 0.623 0.92191 0.32088 0.0
C201 C 0.60849 0.94612 0.31788 0.0
N202 N 0.60194 0.8945 0.34466 0.0
N203 N 0.57829 0.93376 0.33991 0.0
H204 H 0.55372 0.88563 0.37587 0.0
H205 H 0.64746 0.92428 0.30695 0.0
C206 C 0.61066 0.81508 0.29309 0.0
O207 O 0.59046 0.78271 0.31021 0.0
N208 N 0.62451 0.81635 0.37554 0.0
C209 C 0.61034 0.79104 0.40265 0.0
C210 C 0.62724 0.76875 0.40226 0.0
C211 C 0.65171 0.81063 0.36077 0.0
N212 N 0.65303 0.781 0.37574 0.0
C213 C 0.537 0.79913 0.38498 0.0
C214 C 0.5018 0.78535 0.31933 0.0
C215 C 0.48148 0.76165 0.34804 0.0
C216 C 0.49917 0.76998 0.38162 0.0
C217 C 0.53967 0.81371 0.32388 0.0
N218 N 0.55783 0.81805 0.35571 0.0
H219 H 0.54937 0.80653 0.41119 0.0
H220 H 0.55453 0.83189 0.30151 0.0
H221 H 0.58979 0.78878 0.42203 0.0
H222 H 0.66909 0.8268 0.33837 0.0
O223 O 0.61311 0.87016 0.409 0.0
O224 O 0.66305 0.89367 0.37263 0.0
O225 O 0.62159 0.84683 0.30899 0.0
C226 C 0.64915 0.8939 0.40386 0.0
H227 H 0.61912 0.9707 0.3005 0.0
H228 H 0.62097 0.74527 0.42008 0.0
H229 H 0.48875 0.78188 0.29338 0.0
H230 H 0.48445 0.75366 0.40505 0.0
Co231 Co 0.75738 0.61225 0.69301 0.0
C232 C 0.67375 0.57532 0.68229 0.0
C233 C 0.70533 0.62272 0.64697 0.0
C234 C 0.66728 0.60722 0.63952 0.0
N235 N 0.70937 0.60247 0.6734 0.0
N236 N 0.64754 0.57754 0.66172 0.0
H237 H 0.66725 0.55402 0.70273 0.0
H238 H 0.72849 0.64714 0.634 0.0
C239 C 0.80292 0.61903 0.6282 0.0
O240 O 0.81485 0.5982 0.64465 0.0
N241 N 0.8069 0.62464 0.71234 0.0
C242 C 0.81679 0.60935 0.73949 0.0
C243 C 0.85603 0.62755 0.74156 0.0
C244 C 0.84021 0.65343 0.70013 0.0
N245 N 0.87058 0.65482 0.71628 0.0
C246 C 0.73915 0.53554 0.7113 0.0
C247 C 0.72446 0.50736 0.64254 0.0
C248 C 0.72506 0.48414 0.66998 0.0
C249 C 0.73113 0.49818 0.70498 0.0
C250 C 0.73249 0.54441 0.65014 0.0
N251 N 0.74282 0.55916 0.68374 0.0
H252 H 0.74195 0.54521 0.73843 0.0
H253 H 0.73078 0.56137 0.62874 0.0
H254 H 0.79752 0.58685 0.75695 0.0
H255 H 0.84226 0.67255 0.67897 0.0
O256 O 0.73695 0.6064 0.74022 0.0
O257 O 0.76596 0.66099 0.71019 0.0
O258 O 0.78046 0.62797 0.64392 0.0
C259 C 0.74804 0.64259 0.73886 0.0
H260 H 0.65496 0.61718 0.61954 0.0
H261 H 0.87249 0.6203 0.75939 0.0
H262 H 0.71789 0.49704 0.61537 0.0
H263 H 0.73056 0.48086 0.72725 0.0
Co264 Co 0.14348 0.75937 0.03176 0.0
C265 C 0.09466 0.6739 0.0244 0.0
C266 C 0.06823 0.70492 0.00495 0.0
C267 C 0.04263 0.66665 0.00185 0.0
N268 N 0.10105 0.70966 0.01884 0.0
N269 N 0.0593 0.64721 0.01408 0.0
H270 H 0.11449 0.66697 0.03654 0.0
H271 H 0.06319 0.72795 -0.00221 0.0
C272 C 0.13918 0.75929 0.95269 0.0
O273 O 0.13096 0.72351 0.95339 0.0
N274 N 0.18428 0.80927 0.04467 0.0
C275 C 0.21101 0.8181 0.06997 0.0
C276 C 0.23645 0.85677 0.06832 0.0
C277 C 0.19359 0.84234 0.02811 0.0
N278 N 0.22551 0.87176 0.04178 0.0
C279 C 0.18599 0.72032 0.04203 0.0
C280 C 0.2402 0.76026 0.9905 0.0
C281 C 0.24386 0.73374 0.01151 0.0
C282 C 0.21621 0.71331 0.03735 0.0
C283 C 0.20922 0.7658 -0.00445 0.0
N284 N 0.1818 0.74519 0.02037 0.0
H285 H 0.16702 0.70704 0.06426 0.0
H286 H 0.20889 0.78855 0.98087 0.0
H287 H 0.2125 0.79773 0.08762 0.0
H288 H 0.17752 0.84485 0.00628 0.0
O289 O 0.13521 0.74443 0.08106 0.0
O290 O 0.1071 0.77164 0.05219 0.0
O291 O 0.14475 0.77793 0.98167 0.0
C292 C 0.11074 0.75634 0.08141 0.0
H293 H 0.01407 0.65414 0.9912 0.0
H294 H 0.26176 0.87235 0.08448 0.0
H295 H 0.26184 0.77752 0.97113 0.0
H296 H 0.21912 0.69375 0.05507 0.0
Co297 Co 0.38447 0.13582 0.35599 0.0
C298 C 0.42204 0.08769 0.35077 0.0
C299 C 0.36719 0.06238 0.32591 0.0
C300 C 0.38048 0.03711 0.32368 0.0
N301 N 0.39335 0.09436 0.34258 0.0
N302 N 0.41497 0.05308 0.33931 0.0
H303 H 0.44696 0.10663 0.36585 0.0
H304 H 0.33996 0.0576 0.31638 0.0
C305 C 0.38458 0.13552 0.27649 0.0
O306 O 0.41217 0.12739 0.27752 0.0
N307 N 0.3742 0.17586 0.36943 0.0
C308 C 0.39309 0.20322 0.39396 0.0
C309 C 0.38017 0.22891 0.39247 0.0
C310 C 0.34975 0.18484 0.35369 0.0
N311 N 0.353 0.21732 0.3671 0.0
C312 C 0.46502 0.17827 0.37117 0.0
C313 C 0.48325 0.23256 0.3187 0.0
C314 C 0.51248 0.23503 0.34057 0.0
C315 C 0.50282 0.20747 0.36737 0.0
C316 C 0.44607 0.20277 0.32321 0.0
N317 N 0.43746 0.17488 0.34804 0.0
H318 H 0.45782 0.15894 0.39341 0.0
H319 H 0.42405 0.20347 0.30765 0.0
H320 H 0.4156 0.20507 0.41084 0.0
H321 H 0.33119 0.16889 0.33183 0.0
O322 O 0.38722 0.12485 0.40562 0.0
O323 O 0.33475 0.09802 0.37255 0.0
O324 O 0.37035 0.13978 0.30531 0.0
C325 C 0.35102 0.10035 0.40309 0.0
H326 H 0.36588 0.00918 0.31143 0.0
H327 H 0.39039 0.25445 0.40845 0.0
H328 H 0.48864 0.2543 0.29905 0.0
H329 H 0.5241 0.20857 0.38556 0.0
Co330 Co 0.25327 0.38834 0.67994 0.0
C331 C 0.33882 0.42568 0.67335 0.0
C332 C 0.30818 0.37054 0.64889 0.0
C333 C 0.34636 0.38377 0.64474 0.0
N334 N 0.30321 0.39708 0.66604 0.0
N335 N 0.36554 0.41833 0.66015 0.0
H336 H 0.34552 0.45117 0.68798 0.0
H337 H 0.28533 0.34315 0.64015 0.0
C338 C 0.25156 0.38375 0.60077 0.0
O339 O 0.2863 0.41311 0.60071 0.0
N340 N 0.20298 0.37751 0.69364 0.0
C341 C 0.19331 0.39534 0.71835 0.0
C342 C 0.15436 0.38045 0.71708 0.0
C343 C 0.17013 0.35211 0.67789 0.0
N344 N 0.14001 0.35353 0.69137 0.0
C345 C 0.28998 0.46999 0.68932 0.0
C346 C 0.24791 0.48199 0.63823 0.0
C347 C 0.27357 0.51289 0.65909 0.0
C348 C 0.29511 0.50664 0.68469 0.0
C349 C 0.24366 0.44599 0.64372 0.0
N350 N 0.26532 0.4403 0.66828 0.0
H351 H 0.30431 0.46519 0.71124 0.0
H352 H 0.22118 0.42239 0.62943 0.0
H353 H 0.21327 0.4183 0.73525 0.0
H354 H 0.16829 0.33318 0.65667 0.0
O355 O 0.2692 0.39582 0.72902 0.0
O356 O 0.24329 0.34039 0.70048 0.0
O357 O 0.23404 0.37014 0.63016 0.0
C358 C 0.25854 0.3597 0.7295 0.0
H359 H 0.35911 0.36881 0.63203 0.0
H360 H 0.1381 0.38978 0.73279 0.0
H361 H 0.2302 0.48524 0.61849 0.0
H362 H 0.31421 0.52935 0.70235 0.0
Co363 Co 0.86247 0.25288 0.01916 0.0
C364 C 0.90739 0.33694 0.01401 0.0
C365 C 0.92548 0.30928 0.97622 0.0
C366 C 0.94911 0.34803 0.97333 0.0
N367 N 0.89941 0.30246 0.00163 0.0
N368 N 0.93776 0.36536 -0.00286 0.0
H369 H 0.89212 0.34101 0.03566 0.0
H370 H 0.92772 0.28752 0.96144 0.0
C371 C 0.8233 0.21008 0.95316 0.0
O372 O 0.79072 0.19608 0.97023 0.0
N373 N 0.82653 0.20202 0.03644 0.0
C374 C 0.80067 0.19018 0.06305 0.0
C375 C 0.78057 0.15081 0.06333 0.0
C376 C 0.82318 0.16973 0.02254 0.0
N377 N 0.79446 0.13816 0.03736 0.0
C378 C 0.80526 0.27039 0.04335 0.0
C379 C 0.7857 0.28407 0.97662 0.0
C380 C 0.76398 0.28289 0.00609 0.0
C381 C 0.77507 0.27765 0.04003 0.0
C382 C 0.81603 0.27736 0.98131 0.0
N383 N 0.8232 0.26709 0.0139 0.0
H384 H 0.81417 0.26745 0.06967 0.0
H385 H 0.83332 0.27988 0.95847 0.0
H386 H 0.79609 0.20819 0.08108 0.0
H387 H 0.84068 0.16934 0.00094 0.0
O388 O 0.87827 0.27032 0.0671 0.0
O389 O 0.90341 0.24394 0.03256 0.0
O390 O 0.8545 0.23298 0.9688 0.0
C391 C 0.90363 0.25989 0.06278 0.0
H392 H 0.97288 0.36233 0.95517 0.0
H393 H 0.75656 0.13298 0.08028 0.0
H394 H 0.77914 0.28989 0.95015 0.0
H395 H 0.75985 0.27796 0.06364 0.0
H396 H 0.9461 0.22526 0.07551 0.0
H397 H 0.09986 0.39763 0.18789 0.0
H398 H 0.93119 0.31911 0.1088 0.0
H399 H 0.06607 0.2837 0.224 0.0
H400 H 0.04959 0.37075 0.14304 0.0
H401 H 1.00044 0.24757 0.11701 0.0
C402 C 0.95415 0.25034 0.09167 0.0
C403 C 0.93416 0.27031 0.08907 0.0
C404 C 0.05365 0.35171 0.16049 0.0
C405 C 0.99628 0.29631 0.13491 0.0
C406 C 0.08244 0.36691 0.18589 0.0
C407 C 0.08689 0.34281 0.20987 0.0
C408 C 0.02962 0.31215 0.15858 0.0
C409 C 0.06334 0.3032 0.2061 0.0
C410 C 0.98495 0.26293 0.11515 0.0
C411 C 0.94563 0.3027 0.11033 0.0
N412 N 0.03545 0.28895 0.18088 0.0
N413 N 0.97628 0.315 0.13203 0.0
H414 H 0.63873 0.88824 0.4759 0.0
H415 H 0.75125 0.10625 0.50941 0.0
H416 H 0.71108 0.96411 0.39345 0.0
H417 H 0.74206 0.02915 0.59332 0.0
H418 H 0.73306 0.05476 0.46595 0.0
H419 H 0.67243 0.93907 0.51991 0.0
C420 C 0.66204 0.91545 0.4672 0.0
C421 C 0.67218 0.92218 0.43112 0.0
C422 C 0.73567 0.04935 0.49381 0.0
C423 C 0.71 0.98029 0.48085 0.0
C424 C 0.74586 0.07857 0.51854 0.0
C425 C 0.74803 0.07172 0.55484 0.0
C426 C 0.72648 0.01285 0.50571 0.0
C427 C 0.74082 0.03548 0.56546 0.0
C428 C 0.6813 0.94428 0.49226 0.0
C429 C 0.70255 0.95783 0.42111 0.0
N430 N 0.72957 0.00704 0.54104 0.0
N431 N 0.71997 0.98591 0.44578 0.0
H432 H 0.72143 0.78051 0.90332 0.0
H433 H 0.69003 0.60686 0.78578 0.0
H434 H 0.6099 0.69486 0.86747 0.0
H435 H 0.77978 0.71878 0.75512 0.0
H436 H 0.66708 0.63625 0.82857 0.0
H437 H 0.74996 0.75655 0.85948 0.0
C438 C 0.70305 0.75698 0.88606 0.0
C439 C 0.66331 0.73965 0.88885 0.0
C440 C 0.69196 0.65431 0.81262 0.0
C441 C 0.69544 0.71181 0.84007 0.0
C442 C 0.70525 0.63763 0.78842 0.0
C443 C 0.73678 0.66051 0.76688 0.0
C444 C 0.71077 0.69409 0.81587 0.0
C445 C 0.75524 0.70026 0.77121 0.0
C446 C 0.71929 0.74346 0.86119 0.0
C447 C 0.64066 0.7092 0.86603 0.0
N448 N 0.74204 0.71595 0.79548 0.0
N449 N 0.65704 0.69588 0.84298 0.0
H450 H 0.06394 0.78565 0.09637 0.0
H451 H 0.92573 0.6096 0.21005 0.0
H452 H 0.09592 0.7045 0.13372 0.0
H453 H 0.94158 0.71889 0.24275 0.0
H454 H 0.98049 0.64209 0.17036 0.0
H455 H 0.01246 0.76095 0.14101 0.0
C456 C 0.06053 0.76315 0.1143 0.0
C457 C 0.08407 0.74698 0.11138 0.0
C458 C 0.97181 0.65889 0.18614 0.0
C459 C 0.02518 0.71825 0.16109 0.0
C460 C 0.94043 0.64045 0.20847 0.0
C461 C 0.92921 0.6617 0.22958 0.0
C462 C 0.99156 0.69878 0.18426 0.0
C463 C 0.94953 0.70163 0.22684 0.0
C464 C 0.03129 0.74918 0.13961 0.0
C465 C 0.07848 0.71784 0.13511 0.0
N466 N 0.97975 0.71907 0.20425 0.0
N467 N 0.04912 0.70389 0.15851 0.0
H468 H 0.36601 0.11052 0.47442 0.0
H469 H 0.25786 0.89419 0.52111 0.0
H470 H 0.29046 0.02859 0.39731 0.0
H471 H 0.26838 0.97654 0.59994 0.0
H472 H 0.2753 0.94293 0.47467 0.0
H473 H 0.33619 0.06207 0.52129 0.0
C474 C 0.34284 0.08248 0.46751 0.0
C475 C 0.33053 0.07341 0.43212 0.0
C476 C 0.27324 0.95007 0.5021 0.0
C477 C 0.29726 0.01801 0.48503 0.0
C478 C 0.26347 0.92242 0.52852 0.0
C479 C 0.26169 0.93151 0.56424 0.0
C480 C 0.28236 0.98719 0.51176 0.0
C481 C 0.26924 0.96844 0.57259 0.0
C482 C 0.32584 0.05499 0.49417 0.0
C483 C 0.30052 0.0367 0.42439 0.0
N484 N 0.27994 0.99523 0.54658 0.0
N485 N 0.28531 0.01003 0.45058 0.0
H486 H 0.31279 0.39737 0.77963 0.0
H487 H 0.28217 0.22436 0.89879 0.0
H488 H 0.22755 0.28408 0.74726 0.0
H489 H 0.39401 0.31382 0.86798 0.0
H490 H 0.25426 0.24759 0.85358 0.0
H491 H 0.33505 0.36953 0.82489 0.0
C492 C 0.29829 0.36664 0.78249 0.0
C493 C 0.26835 0.34292 0.75968 0.0
C494 C 0.28488 0.26172 0.85671 0.0
C495 C 0.29361 0.31112 0.81136 0.0
C496 C 0.30077 0.24858 0.88232 0.0
C497 C 0.3404 0.26713 0.88687 0.0
C498 C 0.30887 0.29424 0.83664 0.0
C499 C 0.36334 0.29849 0.86509 0.0
C500 C 0.31123 0.35085 0.80806 0.0
C501 C 0.25083 0.30326 0.76432 0.0
N502 N 0.34721 0.31142 0.84127 0.0
N503 N 0.26366 0.28845 0.78984 0.0
H504 H 0.10514 0.37582 0.43728 0.0
H505 H 0.28069 0.3882 0.53434 0.0
H506 H 0.185 0.35341 0.38127 0.0
H507 H 0.17505 0.35147 0.59027 0.0
H508 H 0.24649 0.37564 0.47767 0.0
H509 H 0.12963 0.3667 0.4939 0.0
C510 C 0.12739 0.36838 0.43693 0.0
C511 C 0.14332 0.3657 0.40466 0.0
C512 C 0.23069 0.36964 0.50238 0.0
C513 C 0.17182 0.35596 0.46903 0.0
C514 C 0.2502 0.37695 0.53464 0.0
C515 C 0.23062 0.37105 0.5669 0.0
C516 C 0.1916 0.35732 0.5025 0.0
C517 C 0.19111 0.3563 0.56593 0.0
C518 C 0.14124 0.36305 0.46917 0.0
C519 C 0.17197 0.3558 0.40559 0.0
N520 N 0.17294 0.35063 0.53419 0.0
N521 N 0.18588 0.35205 0.43734 0.0
H522 H 0.76059 0.12632 0.73806 0.0
H523 H 0.88003 0.25056 0.90516 0.0
H524 H 0.85191 0.24291 0.72938 0.0
H525 H 0.76694 0.15309 0.91385 0.0
H526 H 0.87731 0.24149 0.84057 0.0
H527 H 0.77007 0.12953 0.80258 0.0
C528 C 0.7829 0.15247 0.74968 0.0
C529 C 0.8053 0.18457 0.72844 0.0
C530 C 0.85324 0.22197 0.85669 0.0
C531 C 0.81626 0.18828 0.80204 0.0
C532 C 0.85481 0.22698 0.89352 0.0
C533 C 0.82348 0.20273 0.91477 0.0
C534 C 0.8203 0.19226 0.84113 0.0
C535 C 0.79152 0.17268 0.89833 0.0
C536 C 0.78816 0.15429 0.78648 0.0
C537 C 0.83375 0.21769 0.74489 0.0
N538 N 0.7907 0.16834 0.8624 0.0
N539 N 0.83838 0.21874 0.7808 0.0
H540 H 0.60547 0.7556 0.25442 0.0
H541 H 0.64551 0.76504 0.0742 0.0
H542 H 0.63372 0.8732 0.24476 0.0
H543 H 0.61123 0.85048 0.07286 0.0
H544 H 0.65039 0.77005 0.13903 0.0
H545 H 0.61443 0.75369 0.19037 0.0
C546 C 0.61404 0.78117 0.23885 0.0
C547 C 0.6188 0.81458 0.25487 0.0
C548 C 0.64156 0.7875 0.12458 0.0
C549 C 0.62978 0.81287 0.1816 0.0
C550 C 0.63919 0.785 0.08751 0.0
C551 C 0.62726 0.80689 0.06815 0.0
C552 C 0.63186 0.81202 0.14236 0.0
C553 C 0.61991 0.83261 0.08679 0.0
C554 C 0.61961 0.78021 0.2023 0.0
C555 C 0.6299 0.84689 0.23345 0.0
N556 N 0.62215 0.83433 0.12294 0.0
N557 N 0.63451 0.84507 0.19776 0.0
H558 H 0.85994 0.61885 0.58982 0.0
H559 H 0.88152 0.64855 0.40772 0.0
H560 H 0.76441 0.63766 0.57973 0.0
H561 H 0.76 0.60414 0.40955 0.0
H562 H 0.88348 0.65783 0.47199 0.0
H563 H 0.86856 0.62513 0.52534 0.0
C564 C 0.84122 0.62499 0.57404 0.0
C565 C 0.81141 0.62769 0.59006 0.0
C566 C 0.85636 0.6458 0.45839 0.0
C567 C 0.82128 0.63534 0.51633 0.0
C568 C 0.85521 0.64078 0.4216 0.0
C569 C 0.82037 0.62481 0.40329 0.0
C570 C 0.82241 0.63467 0.47704 0.0
C571 C 0.78737 0.61599 0.42266 0.0
C572 C 0.84636 0.62895 0.53725 0.0
C573 C 0.78789 0.63558 0.56843 0.0
N574 N 0.78917 0.62085 0.45859 0.0
N575 N 0.79295 0.63851 0.53253 0.0
H576 H 0.19088 0.8342 0.94106 0.0
H577 H 0.17545 0.81867 0.72937 0.0
H578 H 0.11193 0.73055 0.88666 0.0
H579 H 0.28216 0.88553 0.78441 0.0
H580 H 0.14313 0.79776 0.78702 0.0
H581 H 0.21535 0.86488 0.88321 0.0
C582 C 0.17808 0.81822 0.91694 0.0
C583 C 0.14955 0.77976 0.91848 0.0
C584 C 0.17352 0.81743 0.78635 0.0
C585 C 0.17716 0.81458 0.85269 0.0
C586 C 0.19193 0.8295 0.7536 0.0
C587 C 0.23151 0.85365 0.7523 0.0
C588 C 0.19481 0.83025 0.81787 0.0
C589 C 0.25163 0.8666 0.7844 0.0
C590 C 0.19223 0.83563 0.88407 0.0
C591 C 0.13419 0.76017 0.88649 0.0
N592 N 0.23302 0.8547 0.81601 0.0
N593 N 0.14829 0.7778 0.85477 0.0
H594 H 0.35945 0.17279 0.05344 0.0
H595 H 0.35703 0.18408 0.26551 0.0
H596 H 0.38935 0.27682 0.11001 0.0
H597 H 0.39042 0.11202 0.20976 0.0
H598 H 0.34877 0.20792 0.20807 0.0
H599 H 0.35063 0.14006 0.11067 0.0
C600 C 0.36329 0.18848 0.0779 0.0
C601 C 0.3753 0.22754 0.07715 0.0
C602 C 0.35736 0.18648 0.20853 0.0
C603 C 0.36509 0.19043 0.14226 0.0
C604 C 0.36189 0.17272 0.24118 0.0
C605 C 0.3747 0.14626 0.24227 0.0
C606 C 0.36498 0.17311 0.17687 0.0
C607 C 0.38085 0.1327 0.20999 0.0
C608 C 0.35853 0.1699 0.11043 0.0
C609 C 0.38035 0.24673 0.10955 0.0
N610 N 0.37598 0.14634 0.1785 0.0
N611 N 0.37527 0.22797 0.1409 0.0
H612 H 0.89927 0.49905 0.30257 0.0
H613 H 0.09132 0.48892 0.31912 0.0
H614 H 0.00699 0.59342 0.33622 0.0
H615 H 0.98114 0.39061 0.29914 0.0
H616 H 0.06175 0.52883 0.32037 0.0
H617 H 0.92959 0.45999 0.29608 0.0
C618 C 0.92932 0.51163 0.30836 0.0
C619 C 0.95054 0.5495 0.32019 0.0
C620 C 0.04403 0.49853 0.31565 0.0
C621 C 0.98541 0.50497 0.31301 0.0
C622 C 0.06096 0.47576 0.31471 0.0
C623 C 0.03867 0.4363 0.30916 0.0
C624 C 0.0045 0.48181 0.31083 0.0
C625 C 0.99933 0.42077 0.30404 0.0
C626 C 0.94658 0.48927 0.30486 0.0
C627 C 0.98936 0.56421 0.32763 0.0
N628 N 0.98351 0.44354 0.30501 0.0
N629 N 0.00551 0.54194 0.32393 0.0
H630 H 0.60135 0.04697 0.71027 0.0
H631 H 0.40637 0.94571 0.60171 0.0
H632 H 0.60005 0.05066 0.5955 0.0
H633 H 0.41582 0.98358 0.71055 0.0
H634 H 0.47634 0.9769 0.59861 0.0
H635 H 0.53213 0.01686 0.71076 0.0
C636 C 0.58633 0.04138 0.68514 0.0
C637 C 0.60626 0.05115 0.6528 0.0
C638 C 0.46296 0.97837 0.62308 0.0
C639 C 0.52694 0.01645 0.65305 0.0
C640 C 0.42318 0.96036 0.62494 0.0
C641 C 0.40545 0.96223 0.65642 0.0
C642 C 0.48484 0.99765 0.65312 0.0
C643 C 0.4284 0.98184 0.68569 0.0
C644 C 0.54687 0.02434 0.6854 0.0
C645 C 0.58556 0.04371 0.62095 0.0
N646 N 0.46681 0.99858 0.68339 0.0
N647 N 0.54683 0.02641 0.6218 0.0
H648 H 0.49497 0.40421 0.97872 0.0
H649 H 0.50283 0.60597 0.96893 0.0
H650 H 0.39479 0.41592 0.97837 0.0
H651 H 0.60037 0.59292 0.99004 0.0
H652 H 0.46325 0.53644 0.96427 0.0
H653 H 0.53455 0.47352 0.97484 0.0
C654 C 0.48129 0.42135 0.97751 0.0
C655 C 0.44153 0.40427 0.97913 0.0
C656 C 0.49336 0.54885 0.96981 0.0
C657 C 0.48663 0.48365 0.97493 0.0
C658 C 0.51594 0.58849 0.97225 0.0
C659 C 0.55483 0.60516 0.98025 0.0
C660 C 0.50991 0.52584 0.97509 0.0
C661 C 0.57039 0.5812 0.98452 0.0
C662 C 0.50389 0.46093 0.97551 0.0
C663 C 0.42534 0.42793 0.97781 0.0
N664 N 0.54789 0.5428 0.98195 0.0
N665 N 0.44795 0.46642 0.97584 0.0
H666 H 0.50292 0.89787 0.35601 0.0
H667 H 0.49211 0.09018 0.34306 0.0
H668 H 0.5997 0.00855 0.33417 0.0
H669 H 0.39288 0.97784 0.34445 0.0
H670 H 0.53246 0.06123 0.34736 0.0
H671 H 0.46263 0.92721 0.35954 0.0
C672 C 0.51574 0.92837 0.35233 0.0
C673 C 0.55464 0.95076 0.34448 0.0
C674 C 0.50185 0.0429 0.34682 0.0
C675 C 0.50884 0.98448 0.3483 0.0
C676 C 0.47879 0.05944 0.34458 0.0
C677 C 0.43904 0.03641 0.34318 0.0
C678 C 0.48508 0.00299 0.34789 0.0
C679 C 0.42338 0.99666 0.34487 0.0
C680 C 0.49273 0.94507 0.3541 0.0
C681 C 0.56974 0.99013 0.33966 0.0
N682 N 0.44642 0.98122 0.34711 0.0
N683 N 0.54684 0.0057 0.34159 0.0
H684 H 0.6013 0.55188 0.60463 0.0
H685 H 0.40816 0.46321 0.71496 0.0
H686 H 0.60151 0.5481 0.71943 0.0
H687 H 0.41547 0.42723 0.60855 0.0
H688 H 0.47817 0.50179 0.71676 0.0
H689 H 0.53191 0.51302 0.605 0.0
C690 C 0.58657 0.54279 0.62992 0.0
C691 C 0.60694 0.5531 0.66203 0.0
C692 C 0.46432 0.48534 0.69311 0.0
C693 C 0.52765 0.509 0.66276 0.0
C694 C 0.42454 0.46369 0.69197 0.0
C695 C 0.40623 0.44208 0.66157 0.0
C696 C 0.4856 0.48585 0.66334 0.0
C697 C 0.42859 0.44324 0.63257 0.0
C698 C 0.54708 0.52053 0.63014 0.0
C699 C 0.58667 0.54038 0.69414 0.0
N700 N 0.46705 0.46492 0.63407 0.0
N701 N 0.54795 0.5192 0.69376 0.0
H702 H 0.90359 0.40451 0.02035 0.0
H703 H 0.09589 0.60658 0.00923 0.0
H704 H 0.01215 0.41839 0.98881 0.0
H705 H 0.98465 0.59455 0.02233 0.0
H706 H 0.06663 0.53712 0.00893 0.0
H707 H 0.93379 0.47369 0.02839 0.0
C708 C 0.93381 0.42208 0.0154 0.0
C709 C 0.95532 0.40573 0.00357 0.0
C710 C 0.04862 0.54968 0.01198 0.0
C711 C 0.99002 0.48474 0.01256 0.0
C712 C 0.06536 0.58933 0.01238 0.0
C713 C 0.04266 0.60638 0.01556 0.0
C714 C 0.0089 0.52688 0.015 0.0
C715 C 0.00314 0.5826 0.0192 0.0
C716 C 0.95099 0.46154 0.01978 0.0
C717 C 0.99435 0.42985 -0.00269 0.0
N718 N 0.98751 0.54407 0.01877 0.0
N719 N 0.01042 0.4681 0.00183 0.0
H720 H 0.30249 0.38846 0.29161 0.0
H721 H 0.28162 0.18638 0.3399 0.0
H722 H 0.19362 0.28527 0.29816 0.0
H723 H 0.38109 0.29376 0.3656 0.0
H724 H 0.25027 0.22106 0.31809 0.0
H725 H 0.33338 0.35305 0.312 0.0
C726 C 0.28512 0.35827 0.29704 0.0
C727 C 0.24542 0.33976 0.29314 0.0
C728 C 0.27892 0.23698 0.32861 0.0
C729 C 0.28055 0.29907 0.31663 0.0
C730 C 0.29685 0.21723 0.34088 0.0
C731 C 0.33393 0.23721 0.35473 0.0
C732 C 0.29845 0.27702 0.32969 0.0
C733 C 0.35231 0.2772 0.35562 0.0
C734 C 0.30272 0.33814 0.30895 0.0
C735 C 0.22425 0.30067 0.3011 0.0
N736 N 0.33448 0.29578 0.34311 0.0
N737 N 0.24208 0.28156 0.31232 0.0
H738 H 0.89538 0.22342 0.67406 0.0
H739 H 0.11625 0.32969 0.62385 0.0
H740 H 0.93641 0.24836 0.5658 0.0
H741 H 0.07535 0.33042 0.72977 0.0
H742 H 0.05062 0.29464 0.60263 0.0
H743 H 0.96107 0.25697 0.69541 0.0
C744 C 0.91825 0.23558 0.65474 0.0
C745 C 0.91043 0.23286 0.61803 0.0
C746 C 0.05596 0.30244 0.63052 0.0
C747 C 0.98575 0.27171 0.64236 0.0
C748 C 0.09344 0.32221 0.64272 0.0
C749 C 0.1013 0.33283 0.67871 0.0
C750 C 0.02595 0.29282 0.65451 0.0
C751 C 0.07055 0.32299 0.70181 0.0
C752 C 0.95574 0.25505 0.66698 0.0
C753 C 0.9412 0.24993 0.59427 0.0
N754 N 0.0342 0.30336 0.68936 0.0
N755 N 0.97753 0.26851 0.60684 0.0
H756 H 0.79208 0.11664 0.9686 0.0
H757 H 0.68175 0.89392 0.01298 0.0
H758 H 0.75836 0.07221 0.07509 0.0
H759 H 0.68607 0.93842 0.90749 0.0
H760 H 0.71745 0.959 0.03578 0.0
H761 H 0.76109 0.05155 0.94557 0.0
C762 C 0.77861 0.09315 0.98722 0.0
C763 C 0.77799 0.09982 0.02391 0.0
C764 C 0.71076 0.95457 0.00762 0.0
C765 C 0.74209 0.02519 -0.0024 0.0
C766 C 0.6907 0.91742 -0.00551 0.0
C767 C 0.68117 0.91078 0.95817 0.0
C768 C 0.72171 0.9854 0.98426 0.0
C769 C 0.69274 0.94235 0.93565 0.0
C770 C 0.7606 0.056 0.97399 0.0
C771 C 0.75934 0.06827 0.04666 0.0
N772 N 0.71252 0.97833 0.94904 0.0
N773 N 0.7422 0.03228 0.03315 0.0
H774 H 0.82025 0.72395 0.29894 0.0
H775 H 0.62837 0.70547 0.37423 0.0
H776 H 0.71011 0.62465 0.28216 0.0
H777 H 0.72379 0.81503 0.34665 0.0
H778 H 0.66157 0.67451 0.34864 0.0
H779 H 0.78871 0.75756 0.32349 0.0
C780 C 0.78948 0.70939 0.30022 0.0
C781 C 0.76772 0.6716 0.28832 0.0
C782 C 0.6753 0.70534 0.34825 0.0
C783 C 0.73169 0.70933 0.31684 0.0
C784 C 0.65655 0.723 0.36317 0.0
C785 C 0.67347 0.76284 0.36265 0.0
C786 C 0.71154 0.72765 0.33317 0.0
C787 C 0.70978 0.78422 0.34739 0.0
C788 C 0.77155 0.72852 0.31411 0.0
C789 C 0.72792 0.65392 0.29053 0.0
N790 N 0.72778 0.76637 0.33341 0.0
N791 N 0.71122 0.67279 0.30485 0.0
H792 H 0.07312 0.75367 0.58751 0.0
H793 H 0.93447 0.68089 0.75673 0.0
H794 H 0.11376 0.7836 0.69549 0.0
H795 H 0.89575 0.67704 0.64885 0.0
H796 H 1.00051 0.715 0.73522 0.0
H797 H 0.00766 0.72141 0.60981 0.0
C798 C 0.06825 0.75338 0.61591 0.0
C799 C 0.09892 0.77146 0.63964 0.0
C800 C 0.97749 0.70688 0.71635 0.0
C801 C 0.02414 0.73459 0.66545 0.0
C802 C 0.93989 0.68735 0.72861 0.0
C803 C 0.9096 0.67641 0.70464 0.0
C804 C 0.98477 0.71498 0.6798 0.0
C805 C 0.91817 0.68553 0.66841 0.0
C806 C 0.03091 0.73517 0.62864 0.0
C807 C 0.09097 0.7705 0.67622 0.0
N808 N 0.95488 0.70405 0.65711 0.0
N809 N 0.05437 0.75222 0.68802 0.0
H810 H 0.33035 0.07415 0.91069 0.0
H811 H 0.26721 0.93605 0.08049 0.0
H812 H 0.3393 0.11405 0.01875 0.0
H813 H 0.22877 0.89578 0.97372 0.0
H814 H 0.30007 0.00169 0.05798 0.0
H815 H 0.29906 0.00835 0.93293 0.0
C816 C 0.32579 0.06903 0.93907 0.0
C817 C 0.33715 0.09953 0.96289 0.0
C818 C 0.28436 0.97845 0.03951 0.0
C819 C 0.30167 0.02463 0.98854 0.0
C820 C 0.26581 0.94105 0.05232 0.0
C821 C 0.24506 0.91048 0.02898 0.0
C822 C 0.28256 0.98528 0.00301 0.0
C823 C 0.24394 0.91853 0.99271 0.0
C824 C 0.30781 0.03156 0.95174 0.0
C825 C 0.33043 0.09137 -0.00058 0.0
N826 N 0.26254 0.95512 0.98081 0.0
N827 N 0.31327 0.05474 0.01114 0.0
H828 H 0.45478 0.71544 0.28924 0.0
H829 H 0.26445 0.55583 0.38 0.0
H830 H 0.42007 0.72974 0.39437 0.0
H831 H 0.28479 0.56238 0.26664 0.0
H832 H 0.32215 0.61819 0.38707 0.0
H833 H 0.39327 0.6583 0.28138 0.0
C834 C 0.43413 0.70703 0.31055 0.0
C835 C 0.44293 0.72781 0.34255 0.0
C836 C 0.31372 0.60611 0.36064 0.0
C837 C 0.37236 0.66125 0.33394 0.0
C838 C 0.28094 0.57051 0.35661 0.0
C839 C 0.26982 0.55394 0.32268 0.0
C840 C 0.3358 0.62493 0.33057 0.0
C841 C 0.29206 0.57425 0.29323 0.0
C842 C 0.39898 0.6741 0.30608 0.0
C843 C 0.41503 0.71449 0.36946 0.0
N844 N 0.32414 0.60848 0.2979 0.0
N845 N 0.38112 0.68191 0.36465 0.0
H846 H 0.75556 0.4649 0.61428 0.0
H847 H 0.67436 0.24857 0.67642 0.0
H848 H 0.68484 0.41688 0.70737 0.0
H849 H 0.76005 0.30434 0.59505 0.0
H850 H 0.67206 0.30743 0.68426 0.0
H851 H 0.75102 0.40349 0.6026 0.0
C852 C 0.73869 0.44131 0.63207 0.0
C853 C 0.7206 0.44614 0.6619 0.0
C854 C 0.69118 0.30664 0.66457 0.0
C855 C 0.7157 0.37563 0.6489 0.0
C856 C 0.69266 0.27307 0.66016 0.0
C857 C 0.71759 0.27137 0.63512 0.0
C858 C 0.71469 0.33875 0.64373 0.0
C859 C 0.74001 0.30395 0.61435 0.0
C860 C 0.73634 0.40627 0.62552 0.0
C861 C 0.69965 0.41461 0.68432 0.0
N862 N 0.73811 0.33623 0.61922 0.0
N863 N 0.69782 0.38071 0.6774 0.0
H864 H 0.417 0.6796 0.94848 0.0
H865 H 0.31637 0.78956 0.02358 0.0
H866 H 0.46883 0.76683 0.02898 0.0
H867 H 0.24985 0.67127 -0.00638 0.0
H868 H 0.37441 0.7853 0.01831 0.0
H869 H 0.35648 0.6789 0.9576 0.0
C870 C 0.41551 0.6984 0.96816 0.0
C871 C 0.44778 0.72326 0.98809 0.0
C872 C 0.34711 0.76022 0.01304 0.0
C873 C 0.37939 0.72307 -0.00188 0.0
C874 C 0.31415 0.7627 0.01588 0.0
C875 C 0.27857 0.73071 0.00898 0.0
C876 C 0.34451 0.72571 0.00251 0.0
C877 C 0.27693 0.69646 -0.00079 0.0
C878 C 0.38108 0.69787 0.97344 0.0
C879 C 0.44448 0.74703 0.01332 0.0
N880 N 0.3096 0.6949 -0.00414 0.0
N881 N 0.41102 0.74669 0.01732 0.0
H882 H 0.56595 0.27429 0.39285 0.0
H883 H 0.69986 0.44438 0.26592 0.0
H884 H 0.54968 0.27018 0.27874 0.0
H885 H 0.7419 0.42413 0.36476 0.0
H886 H 0.64265 0.38262 0.27197 0.0
H887 H 0.62874 0.33077 0.38517 0.0
C888 C 0.57564 0.2848 0.36615 0.0
C889 C 0.55208 0.26747 0.33642 0.0
C890 C 0.66456 0.39158 0.29218 0.0
C891 C 0.62361 0.33273 0.3277 0.0
C892 C 0.69754 0.42688 0.28867 0.0
C893 C 0.72624 0.43986 0.31478 0.0
C894 C 0.6596 0.36912 0.32236 0.0
C895 C 0.72051 0.41592 0.3442 0.0
C896 C 0.61146 0.31721 0.36186 0.0
C897 C 0.56624 0.28299 0.30257 0.0
N898 N 0.6877 0.38187 0.34735 0.0
N899 N 0.60081 0.31491 0.2992 0.0
H900 H 0.21057 0.68726 0.64907 0.0
H901 H 0.33639 0.58519 0.66047 0.0
H902 H 0.33326 0.75029 0.64461 0.0
H903 H 0.2139 0.52587 0.6518 0.0
H904 H 0.33698 0.64614 0.65622 0.0
H905 H 0.21229 0.62804 0.65125 0.0
C906 C 0.23796 0.68863 0.64872 0.0
C907 C 0.27185 0.72383 0.64707 0.0
C908 C 0.31005 0.61972 0.65506 0.0
C909 C 0.27409 0.65573 0.64928 0.0
C910 C 0.30967 0.58497 0.65766 0.0
C911 C 0.27507 0.55032 0.65619 0.0
C912 C 0.27554 0.61976 0.65133 0.0
C913 C 0.24133 0.55174 0.65238 0.0
C914 C 0.23894 0.65472 0.64976 0.0
C915 C 0.30647 0.72375 0.64585 0.0
N916 N 0.24244 0.58577 0.65018 0.0
N917 N 0.30675 0.69019 0.64722 0.0
H918 H 0.53044 0.21752 0.96873 0.0
H919 H 0.74196 0.32848 0.04103 0.0
H920 H 0.5817 0.3357 -0.00082 0.0
H921 H 0.70596 0.24142 0.96024 0.0
H922 H 0.68146 0.3283 0.03367 0.0
H923 H 0.59282 0.22187 0.97333 0.0
C924 C 0.55496 0.24436 0.97643 0.0
C925 C 0.55121 0.27631 0.98363 0.0
C926 C 0.68708 0.30951 0.01742 0.0
C927 C 0.62225 0.28139 0.98935 0.0
C928 C 0.72136 0.30948 0.0217 0.0
C929 C 0.72885 0.28501 0.00111 0.0
C930 C 0.6599 0.2842 0.99306 0.0
C931 C 0.70136 0.26096 0.97638 0.0
C932 C 0.59046 0.24689 0.97889 0.0
C933 C 0.5837 0.31054 -0.00665 0.0
N934 N 0.66793 0.26085 0.97332 0.0
N935 N 0.61797 0.31214 -0.00369 0.0
loop_
_geom_bond_atom_site_label_1
_geom_bond_atom_site_label_2
_geom_bond_distance
_geom_bond_site_symmetry_2
_ccdc_geom_bond_type
Co0 N4 2.148 . S
Co0 N10 2.128 . S
Co0 N20 2.194 . S
Co0 O25 2.351 . S
Co0 O26 2.155 . S
Co0 O27 2.096 . S
C1 N4 1.301 . S
C1 N5 1.328 . S
C1 H6 0.930 . S
C2 C3 1.333 . S
C2 N4 1.317 . S
C2 H7 0.930 . S
C3 C2 1.333 . S
C3 N5 1.350 . S
C3 H29 0.931 . S
N4 Co0 2.148 . S
N4 C1 1.301 . S
N4 C2 1.317 . S
N5 C1 1.328 . S
N5 C3 1.350 . S
H6 C1 0.930 . S
H7 C2 0.930 . S
C8 O9 1.224 . S
C8 O27 1.247 . S
O9 C8 1.224 . S
N10 Co0 2.128 . S
N10 C11 1.355 . S
N10 C13 1.311 . S
C11 N10 1.355 . S
C11 C12 1.363 . S
C11 H23 0.929 . S
C12 C11 1.363 . S
C12 N14 1.375 . S
C12 H30 0.931 . S
C13 N10 1.311 . S
C13 N14 1.347 . S
C13 H24 0.929 . S
N14 C12 1.375 . S
N14 C13 1.347 . S
C15 C18 1.365 . S
C15 N20 1.328 . S
C15 H21 0.929 . S
C16 C17 1.362 . S
C16 C19 1.378 . S
C16 H31 0.929 . S
C17 C16 1.362 . S
C17 C18 1.366 . S
C18 C15 1.365 . S
C18 C17 1.366 . S
C18 H32 0.930 . S
C19 C16 1.378 . S
C19 N20 1.315 . S
C19 H22 0.930 . S
N20 Co0 2.194 . S
N20 C15 1.328 . S
N20 C19 1.315 . S
H21 C15 0.929 . S
H22 C19 0.930 . S
H23 C11 0.929 . S
H24 C13 0.929 . S
O25 Co0 2.351 . S
O25 C28 1.244 . S
O26 Co0 2.155 . S
O26 C28 1.240 . S
O27 Co0 2.096 . S
O27 C8 1.247 . S
C28 O25 1.244 . S
C28 O26 1.240 . S
H29 C3 0.931 . S
H30 C12 0.931 . S
H31 C16 0.929 . S
H32 C18 0.930 . S
Co33 N37 2.148 . S
Co33 N43 2.128 . S
Co33 N53 2.194 . S
Co33 O58 2.351 . S
Co33 O59 2.155 . S
Co33 O60 2.096 . S
C34 N37 1.301 . S
C34 N38 1.328 . S
C34 H39 0.930 . S
C35 C36 1.333 . S
C35 N37 1.317 . S
C35 H40 0.930 . S
C36 C35 1.333 . S
C36 N38 1.350 . S
C36 H62 0.931 . S
N37 Co33 2.148 . S
N37 C34 1.301 . S
N37 C35 1.317 . S
N38 C34 1.328 . S
N38 C36 1.350 . S
H39 C34 0.930 . S
H40 C35 0.930 . S
C41 O42 1.224 . S
C41 O60 1.247 . S
O42 C41 1.224 . S
N43 Co33 2.128 . S
N43 C44 1.355 . S
N43 C46 1.311 . S
C44 N43 1.355 . S
C44 C45 1.363 . S
C44 H56 0.929 . S
C45 C44 1.363 . S
C45 N47 1.375 . S
C45 H63 0.931 . S
C46 N43 1.311 . S
C46 N47 1.347 . S
C46 H57 0.929 . S
N47 C45 1.375 . S
N47 C46 1.347 . S
C48 C51 1.365 . S
C48 N53 1.328 . S
C48 H54 0.929 . S
C49 C50 1.362 . S
C49 C52 1.378 . S
C49 H64 0.929 . S
C50 C49 1.362 . S
C50 C51 1.366 . S
C51 C48 1.365 . S
C51 C50 1.366 . S
C51 H65 0.930 . S
C52 C49 1.378 . S
C52 N53 1.315 . S
C52 H55 0.930 . S
N53 Co33 2.194 . S
N53 C48 1.328 . S
N53 C52 1.315 . S
H54 C48 0.929 . S
H55 C52 0.930 . S
H56 C44 0.929 . S
H57 C46 0.929 . S
O58 Co33 2.351 . S
O58 C61 1.244 . S
O59 Co33 2.155 . S
O59 C61 1.240 . S
O60 Co33 2.096 . S
O60 C41 1.247 . S
C61 O58 1.244 . S
C61 O59 1.240 . S
H62 C36 0.931 . S
H63 C45 0.931 . S
H64 C49 0.929 . S
H65 C51 0.930 . S
Co66 N70 2.148 . S
Co66 N76 2.128 1_554 S
Co66 N86 2.194 1_554 S
Co66 O91 2.351 1_554 S
Co66 O92 2.155 1_554 S
Co66 O93 2.096 . S
C67 N70 1.301 1_556 S
C67 N71 1.328 1_556 S
C67 H72 0.930 . S
C68 C69 1.333 . S
C68 N70 1.317 . S
C68 H73 0.930 . S
C69 C68 1.333 . S
C69 N71 1.350 . S
C69 H95 0.931 . S
N70 Co66 2.148 . S
N70 C67 1.301 1_554 S
N70 C68 1.317 . S
N71 C67 1.328 1_554 S
N71 C69 1.350 . S
H72 C67 0.930 . S
H73 C68 0.930 . S
C74 O75 1.224 . S
C74 O93 1.247 . S
O75 C74 1.224 . S
N76 Co66 2.128 1_556 S
N76 C77 1.355 . S
N76 C79 1.311 1_556 S
C77 N76 1.355 . S
C77 C78 1.363 . S
C77 H89 0.929 . S
C78 C77 1.363 . S
C78 N80 1.375 . S
C78 H96 0.931 . S
C79 N76 1.311 1_554 S
C79 N80 1.347 1_554 S
C79 H90 0.929 . S
N80 C78 1.375 . S
N80 C79 1.347 1_556 S
C81 C84 1.365 . S
C81 N86 1.328 . S
C81 H87 0.929 . S
C82 C83 1.362 1_554 S
C82 C85 1.378 . S
C82 H97 0.929 . S
C83 C82 1.362 1_556 S
C83 C84 1.366 . S
C84 C81 1.365 . S
C84 C83 1.366 . S
C84 H98 0.930 . S
C85 C82 1.378 . S
C85 N86 1.315 1_554 S
C85 H88 0.930 . S
N86 Co66 2.194 1_556 S
N86 C81 1.328 . S
N86 C85 1.315 1_556 S
H87 C81 0.929 . S
H88 C85 0.930 . S
H89 C77 0.929 . S
H90 C79 0.929 . S
O91 Co66 2.351 1_556 S
O91 C94 1.244 . S
O92 Co66 2.155 1_556 S
O92 C94 1.240 . S
O93 Co66 2.096 . S
O93 C74 1.247 . S
C94 O91 1.244 . S
C94 O92 1.240 . S
H95 C69 0.931 . S
H96 C78 0.931 . S
H97 C82 0.929 . S
H98 C84 0.930 . S
Co99 N103 2.148 . S
Co99 N109 2.128 . S
Co99 N119 2.194 . S
Co99 O124 2.351 . S
Co99 O125 2.155 . S
Co99 O126 2.096 . S
C100 N103 1.301 . S
C100 N104 1.328 . S
C100 H105 0.930 . S
C101 C102 1.333 . S
C101 N103 1.317 . S
C101 H106 0.930 . S
C102 C101 1.333 . S
C102 N104 1.350 . S
C102 H128 0.931 . S
N103 Co99 2.148 . S
N103 C100 1.301 . S
N103 C101 1.317 . S
N104 C100 1.328 . S
N104 C102 1.350 . S
H105 C100 0.930 . S
H106 C101 0.930 . S
C107 O108 1.224 . S
C107 O126 1.247 . S
O108 C107 1.224 . S
N109 Co99 2.128 . S
N109 C110 1.355 . S
N109 C112 1.311 . S
C110 N109 1.355 . S
C110 C111 1.363 . S
C110 H122 0.929 . S
C111 C110 1.363 . S
C111 N113 1.375 . S
C111 H129 0.931 . S
C112 N109 1.311 . S
C112 N113 1.347 . S
C112 H123 0.929 . S
N113 C111 1.375 . S
N113 C112 1.347 . S
C114 C117 1.365 . S
C114 N119 1.328 . S
C114 H120 0.929 . S
C115 C116 1.362 . S
C115 C118 1.378 . S
C115 H130 0.929 . S
C116 C115 1.362 . S
C116 C117 1.366 . S
C117 C114 1.365 . S
C117 C116 1.366 . S
C117 H131 0.930 . S
C118 C115 1.378 . S
C118 N119 1.315 . S
C118 H121 0.930 . S
N119 Co99 2.194 . S
N119 C114 1.328 . S
N119 C118 1.315 . S
H120 C114 0.929 . S
H121 C118 0.930 . S
H122 C110 0.929 . S
H123 C112 0.929 . S
O124 Co99 2.351 . S
O124 C127 1.244 . S
O125 Co99 2.155 . S
O125 C127 1.240 . S
O126 Co99 2.096 . S
O126 C107 1.247 . S
C127 O124 1.244 . S
C127 O125 1.240 . S
H128 C102 0.931 . S
H129 C111 0.931 . S
H130 C115 0.929 . S
H131 C117 0.930 . S
Co132 N136 2.148 . S
Co132 N142 2.128 . S
Co132 N152 2.194 . S
Co132 O157 2.351 . S
Co132 O158 2.155 . S
Co132 O159 2.096 . S
C133 N136 1.301 . S
C133 N137 1.328 . S
C133 H138 0.930 . S
C134 C135 1.333 . S
C134 N136 1.317 . S
C134 H139 0.930 . S
C135 C134 1.333 . S
C135 N137 1.350 . S
C135 H161 0.931 . S
N136 Co132 2.148 . S
N136 C133 1.301 . S
N136 C134 1.317 . S
N137 C133 1.328 . S
N137 C135 1.350 . S
H138 C133 0.930 . S
H139 C134 0.930 . S
C140 O141 1.224 . S
C140 O159 1.247 . S
O141 C140 1.224 . S
N142 Co132 2.128 . S
N142 C143 1.355 . S
N142 C145 1.311 . S
C143 N142 1.355 . S
C143 C144 1.363 . S
C143 H155 0.929 . S
C144 C143 1.363 . S
C144 N146 1.375 . S
C144 H162 0.931 . S
C145 N142 1.311 . S
C145 N146 1.347 . S
C145 H156 0.929 . S
N146 C144 1.375 . S
N146 C145 1.347 . S
C147 C150 1.365 . S
C147 N152 1.328 . S
C147 H153 0.929 . S
C148 C149 1.362 . S
C148 C151 1.378 . S
C148 H163 0.929 . S
C149 C148 1.362 . S
C149 C150 1.366 . S
C150 C147 1.365 . S
C150 C149 1.366 . S
C150 H164 0.930 . S
C151 C148 1.378 . S
C151 N152 1.315 . S
C151 H154 0.930 . S
N152 Co132 2.194 . S
N152 C147 1.328 . S
N152 C151 1.315 . S
H153 C147 0.929 . S
H154 C151 0.930 . S
H155 C143 0.929 . S
H156 C145 0.929 . S
O157 Co132 2.351 . S
O157 C160 1.244 . S
O158 Co132 2.155 . S
O158 C160 1.240 . S
O159 Co132 2.096 . S
O159 C140 1.247 . S
C160 O157 1.244 . S
C160 O158 1.240 . S
H161 C135 0.931 . S
H162 C144 0.931 . S
H163 C148 0.929 . S
H164 C150 0.930 . S
Co165 N169 2.148 . S
Co165 N175 2.128 1_554 S
Co165 N185 2.194 1_554 S
Co165 O190 2.351 1_554 S
Co165 O191 2.155 1_554 S
Co165 O192 2.096 . S
C166 N169 1.301 1_556 S
C166 N170 1.328 1_556 S
C166 H171 0.930 . S
C167 C168 1.333 . S
C167 N169 1.317 . S
C167 H172 0.930 . S
C168 C167 1.333 . S
C168 N170 1.350 . S
C168 H194 0.931 . S
N169 Co165 2.148 . S
N169 C166 1.301 1_554 S
N169 C167 1.317 . S
N170 C166 1.328 1_554 S
N170 C168 1.350 . S
H171 C166 0.930 . S
H172 C167 0.930 . S
C173 O174 1.224 . S
C173 O192 1.247 . S
O174 C173 1.224 . S
N175 Co165 2.128 1_556 S
N175 C176 1.355 . S
N175 C178 1.311 1_556 S
C176 N175 1.355 . S
C176 C177 1.363 . S
C176 H188 0.929 . S
C177 C176 1.363 . S
C177 N179 1.375 . S
C177 H195 0.931 . S
C178 N175 1.311 1_554 S
C178 N179 1.347 1_554 S
C178 H189 0.929 . S
N179 C177 1.375 . S
N179 C178 1.347 1_556 S
C180 C183 1.365 . S
C180 N185 1.328 . S
C180 H186 0.929 . S
C181 C182 1.362 1_554 S
C181 C184 1.378 . S
C181 H196 0.929 . S
C182 C181 1.362 1_556 S
C182 C183 1.366 . S
C183 C180 1.365 . S
C183 C182 1.366 . S
C183 H197 0.930 . S
C184 C181 1.378 . S
C184 N185 1.315 1_554 S
C184 H187 0.930 . S
N185 Co165 2.194 1_556 S
N185 C180 1.328 . S
N185 C184 1.315 1_556 S
H186 C180 0.929 . S
H187 C184 0.930 . S
H188 C176 0.929 . S
H189 C178 0.929 . S
O190 Co165 2.351 1_556 S
O190 C193 1.244 . S
O191 Co165 2.155 1_556 S
O191 C193 1.240 . S
O192 Co165 2.096 . S
O192 C173 1.247 . S
C193 O190 1.244 . S
C193 O191 1.240 . S
H194 C168 0.931 . S
H195 C177 0.931 . S
H196 C181 0.929 . S
H197 C183 0.930 . S
Co198 N202 2.148 . S
Co198 N208 2.128 . S
Co198 N218 2.194 . S
Co198 O223 2.351 . S
Co198 O224 2.155 . S
Co198 O225 2.096 . S
C199 N202 1.301 . S
C199 N203 1.328 . S
C199 H204 0.930 . S
C200 C201 1.333 . S
C200 N202 1.317 . S
C200 H205 0.930 . S
C201 C200 1.333 . S
C201 N203 1.350 . S
C201 H227 0.931 . S
N202 Co198 2.148 . S
N202 C199 1.301 . S
N202 C200 1.317 . S
N203 C199 1.328 . S
N203 C201 1.350 . S
H204 C199 0.930 . S
H205 C200 0.930 . S
C206 O207 1.224 . S
C206 O225 1.247 . S
O207 C206 1.224 . S
N208 Co198 2.128 . S
N208 C209 1.355 . S
N208 C211 1.311 . S
C209 N208 1.355 . S
C209 C210 1.363 . S
C209 H221 0.929 . S
C210 C209 1.363 . S
C210 N212 1.375 . S
C210 H228 0.931 . S
C211 N208 1.311 . S
C211 N212 1.347 . S
C211 H222 0.929 . S
N212 C210 1.375 . S
N212 C211 1.347 . S
C213 C216 1.365 . S
C213 N218 1.328 . S
C213 H219 0.929 . S
C214 C215 1.362 . S
C214 C217 1.378 . S
C214 H229 0.929 . S
C215 C214 1.362 . S
C215 C216 1.366 . S
C216 C213 1.365 . S
C216 C215 1.366 . S
C216 H230 0.930 . S
C217 C214 1.378 . S
C217 N218 1.315 . S
C217 H220 0.930 . S
N218 Co198 2.194 . S
N218 C213 1.328 . S
N218 C217 1.315 . S
H219 C213 0.929 . S
H220 C217 0.930 . S
H221 C209 0.929 . S
H222 C211 0.929 . S
O223 Co198 2.351 . S
O223 C226 1.244 . S
O224 Co198 2.155 . S
O224 C226 1.240 . S
O225 Co198 2.096 . S
O225 C206 1.247 . S
C226 O223 1.244 . S
C226 O224 1.240 . S
H227 C201 0.931 . S
H228 C210 0.931 . S
H229 C214 0.929 . S
H230 C216 0.930 . S
Co231 N235 2.148 . S
Co231 N241 2.128 . S
Co231 N251 2.194 . S
Co231 O256 2.351 . S
Co231 O257 2.155 . S
Co231 O258 2.096 . S
C232 N235 1.301 . S
C232 N236 1.328 . S
C232 H237 0.930 . S
C233 C234 1.333 . S
C233 N235 1.317 . S
C233 H238 0.930 . S
C234 C233 1.333 . S
C234 N236 1.350 . S
C234 H260 0.931 . S
N235 Co231 2.148 . S
N235 C232 1.301 . S
N235 C233 1.317 . S
N236 C232 1.328 . S
N236 C234 1.350 . S
H237 C232 0.930 . S
H238 C233 0.930 . S
C239 O240 1.224 . S
C239 O258 1.247 . S
O240 C239 1.224 . S
N241 Co231 2.128 . S
N241 C242 1.355 . S
N241 C244 1.311 . S
C242 N241 1.355 . S
C242 C243 1.363 . S
C242 H254 0.929 . S
C243 C242 1.363 . S
C243 N245 1.375 . S
C243 H261 0.931 . S
C244 N241 1.311 . S
C244 N245 1.347 . S
C244 H255 0.929 . S
N245 C243 1.375 . S
N245 C244 1.347 . S
C246 C249 1.365 . S
C246 N251 1.328 . S
C246 H252 0.929 . S
C247 C248 1.362 . S
C247 C250 1.378 . S
C247 H262 0.929 . S
C248 C247 1.362 . S
C248 C249 1.366 . S
C249 C246 1.365 . S
C249 C248 1.366 . S
C249 H263 0.930 . S
C250 C247 1.378 . S
C250 N251 1.315 . S
C250 H253 0.930 . S
N251 Co231 2.194 . S
N251 C246 1.328 . S
N251 C250 1.315 . S
H252 C246 0.929 . S
H253 C250 0.930 . S
H254 C242 0.929 . S
H255 C244 0.929 . S
O256 Co231 2.351 . S
O256 C259 1.244 . S
O257 Co231 2.155 . S
O257 C259 1.240 . S
O258 Co231 2.096 . S
O258 C239 1.247 . S
C259 O256 1.244 . S
C259 O257 1.240 . S
H260 C234 0.931 . S
H261 C243 0.931 . S
H262 C247 0.929 . S
H263 C249 0.930 . S
Co264 N268 2.148 . S
Co264 N274 2.128 1_556 S
Co264 N284 2.194 1_556 S
Co264 O289 2.351 1_556 S
Co264 O290 2.155 1_556 S
Co264 O291 2.096 . S
C265 N268 1.301 1_554 S
C265 N269 1.328 1_554 S
C265 H270 0.930 . S
C266 C267 1.333 . S
C266 N268 1.317 . S
C266 H271 0.930 . S
C267 C266 1.333 . S
C267 N269 1.350 . S
C267 H293 0.931 . S
N268 Co264 2.148 . S
N268 C265 1.301 1_556 S
N268 C266 1.317 . S
N269 C265 1.328 1_556 S
N269 C267 1.350 . S
H270 C265 0.930 . S
H271 C266 0.930 . S
C272 O273 1.224 . S
C272 O291 1.247 . S
O273 C272 1.224 . S
N274 Co264 2.128 1_554 S
N274 C275 1.355 . S
N274 C277 1.311 1_554 S
C275 N274 1.355 . S
C275 C276 1.363 . S
C275 H287 0.929 . S
C276 C275 1.363 . S
C276 N278 1.375 . S
C276 H294 0.931 . S
C277 N274 1.311 1_556 S
C277 N278 1.347 1_556 S
C277 H288 0.929 . S
N278 C276 1.375 . S
N278 C277 1.347 1_554 S
C279 C282 1.365 . S
C279 N284 1.328 . S
C279 H285 0.929 . S
C280 C281 1.362 1_556 S
C280 C283 1.378 . S
C280 H295 0.929 . S
C281 C280 1.362 1_554 S
C281 C282 1.366 . S
C282 C279 1.365 . S
C282 C281 1.366 . S
C282 H296 0.930 . S
C283 C280 1.378 . S
C283 N284 1.315 1_556 S
C283 H286 0.930 . S
N284 Co264 2.194 1_554 S
N284 C279 1.328 . S
N284 C283 1.315 1_554 S
H285 C279 0.929 . S
H286 C283 0.930 . S
H287 C275 0.929 . S
H288 C277 0.929 . S
O289 Co264 2.351 1_554 S
O289 C292 1.244 . S
O290 Co264 2.155 1_554 S
O290 C292 1.240 . S
O291 Co264 2.096 . S
O291 C272 1.247 . S
C292 O289 1.244 . S
C292 O290 1.240 . S
H293 C267 0.931 . S
H294 C276 0.931 . S
H295 C280 0.929 . S
H296 C282 0.930 . S
Co297 N301 2.148 . S
Co297 N307 2.128 . S
Co297 N317 2.194 . S
Co297 O322 2.351 . S
Co297 O323 2.155 . S
Co297 O324 2.096 . S
C298 N301 1.301 . S
C298 N302 1.328 . S
C298 H303 0.930 . S
C299 C300 1.333 . S
C299 N301 1.317 . S
C299 H304 0.930 . S
C300 C299 1.333 . S
C300 N302 1.350 . S
C300 H326 0.931 . S
N301 Co297 2.148 . S
N301 C298 1.301 . S
N301 C299 1.317 . S
N302 C298 1.328 . S
N302 C300 1.350 . S
H303 C298 0.930 . S
H304 C299 0.930 . S
C305 O306 1.224 . S
C305 O324 1.247 . S
O306 C305 1.224 . S
N307 Co297 2.128 . S
N307 C308 1.355 . S
N307 C310 1.311 . S
C308 N307 1.355 . S
C308 C309 1.363 . S
C308 H320 0.929 . S
C309 C308 1.363 . S
C309 N311 1.375 . S
C309 H327 0.931 . S
C310 N307 1.311 . S
C310 N311 1.347 . S
C310 H321 0.929 . S
N311 C309 1.375 . S
N311 C310 1.347 . S
C312 C315 1.365 . S
C312 N317 1.328 . S
C312 H318 0.929 . S
C313 C314 1.362 . S
C313 C316 1.378 . S
C313 H328 0.929 . S
C314 C313 1.362 . S
C314 C315 1.366 . S
C315 C312 1.365 . S
C315 C314 1.366 . S
C315 H329 0.930 . S
C316 C313 1.378 . S
C316 N317 1.315 . S
C316 H319 0.930 . S
N317 Co297 2.194 . S
N317 C312 1.328 . S
N317 C316 1.315 . S
H318 C312 0.929 . S
H319 C316 0.930 . S
H320 C308 0.929 . S
H321 C310 0.929 . S
O322 Co297 2.351 . S
O322 C325 1.244 . S
O323 Co297 2.155 . S
O323 C325 1.240 . S
O324 Co297 2.096 . S
O324 C305 1.247 . S
C325 O322 1.244 . S
C325 O323 1.240 . S
H326 C300 0.931 . S
H327 C309 0.931 . S
H328 C313 0.929 . S
H329 C315 0.930 . S
Co330 N334 2.148 . S
Co330 N340 2.128 . S
Co330 N350 2.194 . S
Co330 O355 2.351 . S
Co330 O356 2.155 . S
Co330 O357 2.096 . S
C331 N334 1.301 . S
C331 N335 1.328 . S
C331 H336 0.930 . S
C332 C333 1.333 . S
C332 N334 1.317 . S
C332 H337 0.930 . S
C333 C332 1.333 . S
C333 N335 1.350 . S
C333 H359 0.931 . S
N334 Co330 2.148 . S
N334 C331 1.301 . S
N334 C332 1.317 . S
N335 C331 1.328 . S
N335 C333 1.350 . S
H336 C331 0.930 . S
H337 C332 0.930 . S
C338 O339 1.224 . S
C338 O357 1.247 . S
O339 C338 1.224 . S
N340 Co330 2.128 . S
N340 C341 1.355 . S
N340 C343 1.311 . S
C341 N340 1.355 . S
C341 C342 1.363 . S
C341 H353 0.929 . S
C342 C341 1.363 . S
C342 N344 1.375 . S
C342 H360 0.931 . S
C343 N340 1.311 . S
C343 N344 1.347 . S
C343 H354 0.929 . S
N344 C342 1.375 . S
N344 C343 1.347 . S
C345 C348 1.365 . S
C345 N350 1.328 . S
C345 H351 0.929 . S
C346 C347 1.362 . S
C346 C349 1.378 . S
C346 H361 0.929 . S
C347 C346 1.362 . S
C347 C348 1.366 . S
C348 C345 1.365 . S
C348 C347 1.366 . S
C348 H362 0.930 . S
C349 C346 1.378 . S
C349 N350 1.315 . S
C349 H352 0.930 . S
N350 Co330 2.194 . S
N350 C345 1.328 . S
N350 C349 1.315 . S
H351 C345 0.929 . S
H352 C349 0.930 . S
H353 C341 0.929 . S
H354 C343 0.929 . S
O355 Co330 2.351 . S
O355 C358 1.244 . S
O356 Co330 2.155 . S
O356 C358 1.240 . S
O357 Co330 2.096 . S
O357 C338 1.247 . S
C358 O355 1.244 . S
C358 O356 1.240 . S
H359 C333 0.931 . S
H360 C342 0.931 . S
H361 C346 0.929 . S
H362 C348 0.930 . S
Co363 N367 2.148 . S
Co363 N373 2.128 1_556 S
Co363 N383 2.194 1_556 S
Co363 O388 2.351 1_556 S
Co363 O389 2.155 1_556 S
Co363 O390 2.096 . S
C364 N367 1.301 1_554 S
C364 N368 1.328 1_554 S
C364 H369 0.930 . S
C365 C366 1.333 . S
C365 N367 1.317 . S
C365 H370 0.930 . S
C366 C365 1.333 . S
C366 N368 1.350 . S
C366 H392 0.931 . S
N367 Co363 2.148 . S
N367 C364 1.301 1_556 S
N367 C365 1.317 . S
N368 C364 1.328 1_556 S
N368 C366 1.350 . S
H369 C364 0.930 . S
H370 C365 0.930 . S
C371 O372 1.224 . S
C371 O390 1.247 . S
O372 C371 1.224 . S
N373 Co363 2.128 1_554 S
N373 C374 1.355 . S
N373 C376 1.311 1_554 S
C374 N373 1.355 . S
C374 C375 1.363 . S
C374 H386 0.929 . S
C375 C374 1.363 . S
C375 N377 1.375 . S
C375 H393 0.931 . S
C376 N373 1.311 1_556 S
C376 N377 1.347 1_556 S
C376 H387 0.929 . S
N377 C375 1.375 . S
N377 C376 1.347 1_554 S
C378 C381 1.365 . S
C378 N383 1.328 . S
C378 H384 0.929 . S
C379 C380 1.362 1_556 S
C379 C382 1.378 . S
C379 H394 0.929 . S
C380 C379 1.362 1_554 S
C380 C381 1.366 . S
C381 C378 1.365 . S
C381 C380 1.366 . S
C381 H395 0.930 . S
C382 C379 1.378 . S
C382 N383 1.315 1_556 S
C382 H385 0.930 . S
N383 Co363 2.194 1_554 S
N383 C378 1.328 . S
N383 C382 1.315 1_554 S
H384 C378 0.929 . S
H385 C382 0.930 . S
H386 C374 0.929 . S
H387 C376 0.929 . S
O388 Co363 2.351 1_554 S
O388 C391 1.244 . S
O389 Co363 2.155 1_554 S
O389 C391 1.240 . S
O390 Co363 2.096 . S
O390 C371 1.247 . S
C391 O388 1.244 . S
C391 O389 1.240 . S
H392 C366 0.931 . S
H393 C375 0.931 . S
H394 C379 0.929 . S
H395 C381 0.930 . S
H396 C402 0.930 . S
H397 C406 0.930 . S
H398 C411 0.929 . S
H399 C409 0.929 . S
H400 C404 0.929 . S
H401 C410 0.929 . S
C402 H396 0.930 . S
C402 C403 1.367 . S
C402 C410 1.378 . S
C403 C402 1.367 . S
C403 C411 1.433 . S
C404 H400 0.929 . S
C404 C406 1.378 . S
C404 C408 1.350 . S
C405 C408 1.463 1_655 S
C405 C410 1.350 . S
C405 N413 1.427 . S
C406 H397 0.930 . S
C406 C404 1.378 . S
C406 C407 1.367 . S
C407 C406 1.367 . S
C407 C409 1.433 . S
C408 C404 1.350 . S
C408 C405 1.463 1_455 S
C408 N412 1.427 . S
C409 H399 0.929 . S
C409 C407 1.433 . S
C409 N412 1.384 . S
C410 H401 0.929 . S
C410 C402 1.378 . S
C410 C405 1.350 . S
C411 H398 0.929 . S
C411 C403 1.433 . S
C411 N413 1.384 . S
N412 C408 1.427 . S
N412 C409 1.384 . S
N413 C405 1.427 . S
N413 C411 1.384 . S
H414 C420 0.930 . S
H415 C424 0.930 . S
H416 C429 0.929 . S
H417 C427 0.929 . S
H418 C422 0.929 . S
H419 C428 0.929 . S
C420 H414 0.930 . S
C420 C421 1.367 . S
C420 C428 1.378 . S
C421 C420 1.367 . S
C421 C429 1.433 . S
C422 H418 0.929 . S
C422 C424 1.378 . S
C422 C426 1.350 . S
C423 C426 1.463 1_565 S
C423 C428 1.350 . S
C423 N431 1.440 . S
C424 H415 0.930 . S
C424 C422 1.378 . S
C424 C425 1.367 . S
C425 C424 1.367 . S
C425 C427 1.433 . S
C426 C422 1.350 . S
C426 C423 1.463 1_545 S
C426 N430 1.440 . S
C427 H417 0.929 . S
C427 C425 1.433 . S
C427 N430 1.394 . S
C428 H419 0.929 . S
C428 C420 1.378 . S
C428 C423 1.350 . S
C429 H416 0.929 . S
C429 C421 1.433 . S
C429 N431 1.394 . S
N430 C426 1.440 . S
N430 C427 1.394 . S
N431 C423 1.440 . S
N431 C429 1.394 . S
H432 C438 0.930 . S
H433 C442 0.930 . S
H434 C447 0.929 . S
H435 C445 0.929 . S
H436 C440 0.929 . S
H437 C446 0.929 . S
C438 H432 0.930 . S
C438 C439 1.367 . S
C438 C446 1.378 . S
C439 C438 1.367 . S
C439 C447 1.433 . S
C440 H436 0.929 . S
C440 C442 1.378 . S
C440 C444 1.350 . S
C441 C444 1.463 . S
C441 C446 1.350 . S
C441 N449 1.427 . S
C442 H433 0.930 . S
C442 C440 1.378 . S
C442 C443 1.367 . S
C443 C442 1.367 . S
C443 C445 1.433 . S
C444 C440 1.350 . S
C444 C441 1.463 . S
C444 N448 1.427 . S
C445 H435 0.929 . S
C445 C443 1.433 . S
C445 N448 1.384 . S
C446 H437 0.929 . S
C446 C438 1.378 . S
C446 C441 1.350 . S
C447 H434 0.929 . S
C447 C439 1.433 . S
C447 N449 1.384 . S
N448 C444 1.427 . S
N448 C445 1.384 . S
N449 C441 1.427 . S
N449 C447 1.384 . S
H450 C456 0.930 . S
H451 C460 0.930 . S
H452 C465 0.929 . S
H453 C463 0.929 . S
H454 C458 0.929 . S
H455 C464 0.929 . S
C456 H450 0.930 . S
C456 C457 1.367 . S
C456 C464 1.378 . S
C457 C456 1.367 . S
C457 C465 1.433 . S
C458 H454 0.929 . S
C458 C460 1.378 . S
C458 C462 1.350 . S
C459 C462 1.463 1_455 S
C459 C464 1.350 . S
C459 N467 1.427 . S
C460 H451 0.930 . S
C460 C458 1.378 . S
C460 C461 1.367 . S
C461 C460 1.367 . S
C461 C463 1.433 . S
C462 C458 1.350 . S
C462 C459 1.463 1_655 S
C462 N466 1.427 . S
C463 H453 0.929 . S
C463 C461 1.433 . S
C463 N466 1.384 . S
C464 H455 0.929 . S
C464 C456 1.378 . S
C464 C459 1.350 . S
C465 H452 0.929 . S
C465 C457 1.433 . S
C465 N467 1.384 . S
N466 C462 1.427 . S
N466 C463 1.384 . S
N467 C459 1.427 . S
N467 C465 1.384 . S
H468 C474 0.930 . S
H469 C478 0.930 . S
H470 C483 0.929 . S
H471 C481 0.929 . S
H472 C476 0.929 . S
H473 C482 0.929 . S
C474 H468 0.930 . S
C474 C475 1.367 . S
C474 C482 1.378 . S
C475 C474 1.367 . S
C475 C483 1.433 . S
C476 H472 0.929 . S
C476 C478 1.378 . S
C476 C480 1.350 . S
C477 C480 1.463 1_545 S
C477 C482 1.350 . S
C477 N485 1.427 1_545 S
C478 H469 0.930 . S
C478 C476 1.378 . S
C478 C479 1.367 . S
C479 C478 1.367 . S
C479 C481 1.433 . S
C480 C476 1.350 . S
C480 C477 1.463 1_565 S
C480 N484 1.427 1_565 S
C481 H471 0.929 . S
C481 C479 1.433 . S
C481 N484 1.384 1_565 S
C482 H473 0.929 . S
C482 C474 1.378 . S
C482 C477 1.350 . S
C483 H470 0.929 . S
C483 C475 1.433 . S
C483 N485 1.384 1_545 S
N484 C480 1.427 1_545 S
N484 C481 1.384 1_545 S
N485 C477 1.427 1_565 S
N485 C483 1.384 1_565 S
H486 C492 0.930 . S
H487 C496 0.930 . S
H488 C501 0.929 . S
H489 C499 0.929 . S
H490 C494 0.929 . S
H491 C500 0.929 . S
C492 H486 0.930 . S
C492 C493 1.367 . S
C492 C500 1.378 . S
C493 C492 1.367 . S
C493 C501 1.433 . S
C494 H490 0.929 . S
C494 C496 1.378 . S
C494 C498 1.350 . S
C495 C498 1.463 . S
C495 C500 1.350 . S
C495 N503 1.427 . S
C496 H487 0.930 . S
C496 C494 1.378 . S
C496 C497 1.367 . S
C497 C496 1.367 . S
C497 C499 1.433 . S
C498 C494 1.350 . S
C498 C495 1.463 . S
C498 N502 1.427 . S
C499 H489 0.929 . S
C499 C497 1.433 . S
C499 N502 1.384 . S
C500 H491 0.929 . S
C500 C492 1.378 . S
C500 C495 1.350 . S
C501 H488 0.929 . S
C501 C493 1.433 . S
C501 N503 1.384 . S
N502 C498 1.427 . S
N502 C499 1.384 . S
N503 C495 1.427 . S
N503 C501 1.384 . S
H504 C510 0.930 . S
H505 C514 0.930 . S
H506 C519 0.929 . S
H507 C517 0.929 . S
H508 C512 0.929 . S
H509 C518 0.929 . S
C510 H504 0.930 . S
C510 C511 1.367 . S
C510 C518 1.378 . S
C511 C510 1.367 . S
C511 C519 1.433 . S
C512 H508 0.929 . S
C512 C514 1.378 . S
C512 C516 1.350 . S
C513 C516 1.463 . S
C513 C518 1.350 . S
C513 N521 1.427 . S
C514 H505 0.930 . S
C514 C512 1.378 . S
C514 C515 1.367 . S
C515 C514 1.367 . S
C515 C517 1.433 . S
C516 C512 1.350 . S
C516 C513 1.463 . S
C516 N520 1.427 . S
C517 H507 0.929 . S
C517 C515 1.433 . S
C517 N520 1.384 . S
C518 H509 0.929 . S
C518 C510 1.378 . S
C518 C513 1.350 . S
C519 H506 0.929 . S
C519 C511 1.433 . S
C519 N521 1.384 . S
N520 C516 1.427 . S
N520 C517 1.384 . S
N521 C513 1.427 . S
N521 C519 1.384 . S
H522 C528 0.930 . S
H523 C532 0.930 . S
H524 C537 0.929 . S
H525 C535 0.929 . S
H526 C530 0.929 . S
H527 C536 0.929 . S
C528 H522 0.930 . S
C528 C529 1.367 . S
C528 C536 1.378 . S
C529 C528 1.367 . S
C529 C537 1.433 . S
C530 H526 0.929 . S
C530 C532 1.378 . S
C530 C534 1.350 . S
C531 C534 1.463 . S
C531 C536 1.350 . S
C531 N539 1.427 . S
C532 H523 0.930 . S
C532 C530 1.378 . S
C532 C533 1.367 . S
C533 C532 1.367 . S
C533 C535 1.433 . S
C534 C530 1.350 . S
C534 C531 1.463 . S
C534 N538 1.427 . S
C535 H525 0.929 . S
C535 C533 1.433 . S
C535 N538 1.384 . S
C536 H527 0.929 . S
C536 C528 1.378 . S
C536 C531 1.350 . S
C537 H524 0.929 . S
C537 C529 1.433 . S
C537 N539 1.384 . S
N538 C534 1.427 . S
N538 C535 1.384 . S
N539 C531 1.427 . S
N539 C537 1.384 . S
H540 C546 0.930 . S
H541 C550 0.930 . S
H542 C555 0.929 . S
H543 C553 0.929 . S
H544 C548 0.929 . S
H545 C554 0.929 . S
C546 H540 0.930 . S
C546 C547 1.367 . S
C546 C554 1.378 . S
C547 C546 1.367 . S
C547 C555 1.433 . S
C548 H544 0.929 . S
C548 C550 1.378 . S
C548 C552 1.350 . S
C549 C552 1.463 . S
C549 C554 1.350 . S
C549 N557 1.427 . S
C550 H541 0.930 . S
C550 C548 1.378 . S
C550 C551 1.367 . S
C551 C550 1.367 . S
C551 C553 1.433 . S
C552 C548 1.350 . S
C552 C549 1.463 . S
C552 N556 1.427 . S
C553 H543 0.929 . S
C553 C551 1.433 . S
C553 N556 1.384 . S
C554 H545 0.929 . S
C554 C546 1.378 . S
C554 C549 1.350 . S
C555 H542 0.929 . S
C555 C547 1.433 . S
C555 N557 1.384 . S
N556 C552 1.427 . S
N556 C553 1.384 . S
N557 C549 1.427 . S
N557 C555 1.384 . S
H558 C564 0.930 . S
H559 C568 0.930 . S
H560 C573 0.929 . S
H561 C571 0.929 . S
H562 C566 0.929 . S
H563 C572 0.929 . S
C564 H558 0.930 . S
C564 C565 1.367 . S
C564 C572 1.378 . S
C565 C564 1.367 . S
C565 C573 1.433 . S
C566 H562 0.929 . S
C566 C568 1.378 . S
C566 C570 1.350 . S
C567 C570 1.463 . S
C567 C572 1.350 . S
C567 N575 1.427 . S
C568 H559 0.930 . S
C568 C566 1.378 . S
C568 C569 1.367 . S
C569 C568 1.367 . S
C569 C571 1.433 . S
C570 C566 1.350 . S
C570 C567 1.463 . S
C570 N574 1.427 . S
C571 H561 0.929 . S
C571 C569 1.433 . S
C571 N574 1.384 . S
C572 H563 0.929 . S
C572 C564 1.378 . S
C572 C567 1.350 . S
C573 H560 0.929 . S
C573 C565 1.433 . S
C573 N575 1.384 . S
N574 C570 1.427 . S
N574 C571 1.384 . S
N575 C567 1.427 . S
N575 C573 1.384 . S
H576 C582 0.930 . S
H577 C586 0.930 . S
H578 C591 0.929 . S
H579 C589 0.929 . S
H580 C584 0.929 . S
H581 C590 0.929 . S
C582 H576 0.930 . S
C582 C583 1.367 . S
C582 C590 1.378 . S
C583 C582 1.367 . S
C583 C591 1.433 . S
C584 H580 0.929 . S
C584 C586 1.378 . S
C584 C588 1.350 . S
C585 C588 1.463 . S
C585 C590 1.350 . S
C585 N593 1.427 . S
C586 H577 0.930 . S
C586 C584 1.378 . S
C586 C587 1.367 . S
C587 C586 1.367 . S
C587 C589 1.433 . S
C588 C584 1.350 . S
C588 C585 1.463 . S
C588 N592 1.427 . S
C589 H579 0.929 . S
C589 C587 1.433 . S
C589 N592 1.384 . S
C590 H581 0.929 . S
C590 C582 1.378 . S
C590 C585 1.350 . S
C591 H578 0.929 . S
C591 C583 1.433 . S
C591 N593 1.384 . S
N592 C588 1.427 . S
N592 C589 1.384 . S
N593 C585 1.427 . S
N593 C591 1.384 . S
H594 C600 0.930 . S
H595 C604 0.930 . S
H596 C609 0.929 . S
H597 C607 0.929 . S
H598 C602 0.929 . S
H599 C608 0.929 . S
C600 H594 0.930 . S
C600 C601 1.367 . S
C600 C608 1.378 . S
C601 C600 1.367 . S
C601 C609 1.433 . S
C602 H598 0.929 . S
C602 C604 1.378 . S
C602 C606 1.350 . S
C603 C606 1.463 . S
C603 C608 1.350 . S
C603 N611 1.427 . S
C604 H595 0.930 . S
C604 C602 1.378 . S
C604 C605 1.367 . S
C605 C604 1.367 . S
C605 C607 1.433 . S
C606 C602 1.350 . S
C606 C603 1.463 . S
C606 N610 1.427 . S
C607 H597 0.929 . S
C607 C605 1.433 . S
C607 N610 1.384 . S
C608 H599 0.929 . S
C608 C600 1.378 . S
C608 C603 1.350 . S
C609 H596 0.929 . S
C609 C601 1.433 . S
C609 N611 1.384 . S
N610 C606 1.427 . S
N610 C607 1.384 . S
N611 C603 1.427 . S
N611 C609 1.384 . S
H612 C618 0.930 . S
H613 C622 0.930 . S
H614 C627 0.929 . S
H615 C625 0.929 . S
H616 C620 0.929 . S
H617 C626 0.929 . S
C618 H612 0.930 . S
C618 C619 1.367 . S
C618 C626 1.378 . S
C619 C618 1.367 . S
C619 C627 1.433 . S
C620 H616 0.929 . S
C620 C622 1.378 . S
C620 C624 1.350 . S
C621 C624 1.463 1_655 S
C621 C626 1.350 . S
C621 N629 1.427 1_655 S
C622 H613 0.930 . S
C622 C620 1.378 . S
C622 C623 1.367 . S
C623 C622 1.367 . S
C623 C625 1.433 . S
C624 C620 1.350 . S
C624 C621 1.463 1_455 S
C624 N628 1.427 1_455 S
C625 H615 0.929 . S
C625 C623 1.433 . S
C625 N628 1.384 1_455 S
C626 H617 0.929 . S
C626 C618 1.378 . S
C626 C621 1.350 . S
C627 H614 0.929 . S
C627 C619 1.433 . S
C627 N629 1.384 1_655 S
N628 C624 1.427 1_655 S
N628 C625 1.384 1_655 S
N629 C621 1.427 1_455 S
N629 C627 1.384 1_455 S
H630 C636 0.930 . S
H631 C640 0.930 . S
H632 C645 0.929 . S
H633 C643 0.929 . S
H634 C638 0.929 . S
H635 C644 0.929 . S
C636 H630 0.930 . S
C636 C637 1.367 . S
C636 C644 1.378 . S
C637 C636 1.367 . S
C637 C645 1.433 . S
C638 H634 0.929 . S
C638 C640 1.378 . S
C638 C642 1.350 . S
C639 C642 1.463 1_545 S
C639 C644 1.350 . S
C639 N647 1.427 . S
C640 H631 0.930 . S
C640 C638 1.378 . S
C640 C641 1.367 . S
C641 C640 1.367 . S
C641 C643 1.433 . S
C642 C638 1.350 . S
C642 C639 1.463 1_565 S
C642 N646 1.427 . S
C643 H633 0.929 . S
C643 C641 1.433 . S
C643 N646 1.384 . S
C644 H635 0.929 . S
C644 C636 1.378 . S
C644 C639 1.350 . S
C645 H632 0.929 . S
C645 C637 1.433 . S
C645 N647 1.384 . S
N646 C642 1.427 . S
N646 C643 1.384 . S
N647 C639 1.427 . S
N647 C645 1.384 . S
H648 C654 0.930 . S
H649 C658 0.930 . S
H650 C663 0.929 . S
H651 C661 0.929 . S
H652 C656 0.929 . S
H653 C662 0.929 . S
C654 H648 0.930 . S
C654 C655 1.367 . S
C654 C662 1.378 . S
C655 C654 1.367 . S
C655 C663 1.433 1_554 S
C656 H652 0.929 . S
C656 C658 1.378 . S
C656 C660 1.350 1_556 S
C657 C660 1.463 . S
C657 C662 1.350 . S
C657 N665 1.427 1_554 S
C658 H649 0.930 . S
C658 C656 1.378 . S
C658 C659 1.367 1_556 S
C659 C658 1.367 1_554 S
C659 C661 1.433 . S
C660 C656 1.350 1_554 S
C660 C657 1.463 . S
C660 N664 1.427 . S
C661 H651 0.929 . S
C661 C659 1.433 . S
C661 N664 1.384 . S
C662 H653 0.929 . S
C662 C654 1.378 . S
C662 C657 1.350 . S
C663 H650 0.929 . S
C663 C655 1.433 1_556 S
C663 N665 1.384 . S
N664 C660 1.427 . S
N664 C661 1.384 . S
N665 C657 1.427 1_556 S
N665 C663 1.384 . S
H666 C672 0.930 . S
H667 C676 0.930 . S
H668 C681 0.929 . S
H669 C679 0.929 . S
H670 C674 0.929 . S
H671 C680 0.929 . S
C672 H666 0.930 . S
C672 C673 1.367 . S
C672 C680 1.378 . S
C673 C672 1.367 . S
C673 C681 1.433 . S
C674 H670 0.929 . S
C674 C676 1.378 . S
C674 C678 1.350 . S
C675 C678 1.463 1_565 S
C675 C680 1.350 . S
C675 N683 1.427 1_565 S
C676 H667 0.930 . S
C676 C674 1.378 . S
C676 C677 1.367 . S
C677 C676 1.367 . S
C677 C679 1.433 . S
C678 C674 1.350 . S
C678 C675 1.463 1_545 S
C678 N682 1.427 1_545 S
C679 H669 0.929 . S
C679 C677 1.433 . S
C679 N682 1.384 1_545 S
C680 H671 0.929 . S
C680 C672 1.378 . S
C680 C675 1.350 . S
C681 H668 0.929 . S
C681 C673 1.433 . S
C681 N683 1.384 1_565 S
N682 C678 1.427 1_565 S
N682 C679 1.384 1_565 S
N683 C675 1.427 1_545 S
N683 C681 1.384 1_545 S
H684 C690 0.930 . S
H685 C694 0.930 . S
H686 C699 0.929 . S
H687 C697 0.929 . S
H688 C692 0.929 . S
H689 C698 0.929 . S
C690 H684 0.930 . S
C690 C691 1.367 . S
C690 C698 1.378 . S
C691 C690 1.367 . S
C691 C699 1.433 . S
C692 H688 0.929 . S
C692 C694 1.378 . S
C692 C696 1.350 . S
C693 C696 1.463 . S
C693 C698 1.350 . S
C693 N701 1.427 . S
C694 H685 0.930 . S
C694 C692 1.378 . S
C694 C695 1.367 . S
C695 C694 1.367 . S
C695 C697 1.433 . S
C696 C692 1.350 . S
C696 C693 1.463 . S
C696 N700 1.427 . S
C697 H687 0.929 . S
C697 C695 1.433 . S
C697 N700 1.384 . S
C698 H689 0.929 . S
C698 C690 1.378 . S
C698 C693 1.350 . S
C699 H686 0.929 . S
C699 C691 1.433 . S
C699 N701 1.384 . S
N700 C696 1.427 . S
N700 C697 1.384 . S
N701 C693 1.427 . S
N701 C699 1.384 . S
H702 C708 0.930 . S
H703 C712 0.930 . S
H704 C717 0.929 . S
H705 C715 0.929 . S
H706 C710 0.929 . S
H707 C716 0.929 . S
C708 H702 0.930 . S
C708 C709 1.367 1_554 S
C708 C716 1.378 . S
C709 C708 1.367 1_556 S
C709 C717 1.433 . S
C710 H706 0.929 . S
C710 C712 1.378 . S
C710 C714 1.350 . S
C711 C714 1.463 1_655 S
C711 C716 1.350 1_556 S
C711 N719 1.427 . S
C712 H703 0.930 . S
C712 C710 1.378 . S
C712 C713 1.367 . S
C713 C712 1.367 . S
C713 C715 1.433 1_556 S
C714 C710 1.350 . S
C714 C711 1.463 1_455 S
C714 N718 1.427 1_556 S
C715 H705 0.929 . S
C715 C713 1.433 1_554 S
C715 N718 1.384 . S
C716 H707 0.929 . S
C716 C708 1.378 . S
C716 C711 1.350 1_554 S
C717 H704 0.929 . S
C717 C709 1.433 . S
C717 N719 1.384 . S
N718 C714 1.427 1_554 S
N718 C715 1.384 . S
N719 C711 1.427 . S
N719 C717 1.384 . S
H720 C726 0.930 . S
H721 C730 0.930 . S
H722 C735 0.929 . S
H723 C733 0.929 . S
H724 C728 0.929 . S
H725 C734 0.929 . S
C726 H720 0.930 . S
C726 C727 1.367 . S
C726 C734 1.378 . S
C727 C726 1.367 . S
C727 C735 1.433 . S
C728 H724 0.929 . S
C728 C730 1.378 . S
C728 C732 1.350 . S
C729 C732 1.463 . S
C729 C734 1.350 . S
C729 N737 1.427 . S
C730 H721 0.930 . S
C730 C728 1.378 . S
C730 C731 1.367 . S
C731 C730 1.367 . S
C731 C733 1.433 . S
C732 C728 1.350 . S
C732 C729 1.463 . S
C732 N736 1.427 . S
C733 H723 0.929 . S
C733 C731 1.433 . S
C733 N736 1.384 . S
C734 H725 0.929 . S
C734 C726 1.378 . S
C734 C729 1.350 . S
C735 H722 0.929 . S
C735 C727 1.433 . S
C735 N737 1.384 . S
N736 C732 1.427 . S
N736 C733 1.384 . S
N737 C729 1.427 . S
N737 C735 1.384 . S
H738 C744 0.930 . S
H739 C748 0.930 . S
H740 C753 0.929 . S
H741 C751 0.929 . S
H742 C746 0.929 . S
H743 C752 0.929 . S
C744 H738 0.930 . S
C744 C745 1.367 . S
C744 C752 1.378 . S
C745 C744 1.367 . S
C745 C753 1.433 . S
C746 H742 0.929 . S
C746 C748 1.378 . S
C746 C750 1.350 . S
C747 C750 1.463 1_655 S
C747 C752 1.350 . S
C747 N755 1.427 . S
C748 H739 0.930 . S
C748 C746 1.378 . S
C748 C749 1.367 . S
C749 C748 1.367 . S
C749 C751 1.433 . S
C750 C746 1.350 . S
C750 C747 1.463 1_455 S
C750 N754 1.427 . S
C751 H741 0.929 . S
C751 C749 1.433 . S
C751 N754 1.384 . S
C752 H743 0.929 . S
C752 C744 1.378 . S
C752 C747 1.350 . S
C753 H740 0.929 . S
C753 C745 1.433 . S
C753 N755 1.384 . S
N754 C750 1.427 . S
N754 C751 1.384 . S
N755 C747 1.427 . S
N755 C753 1.384 . S
H756 C762 0.930 . S
H757 C766 0.930 . S
H758 C771 0.929 . S
H759 C769 0.929 . S
H760 C764 0.929 . S
H761 C770 0.929 . S
C762 H756 0.930 . S
C762 C763 1.367 1_556 S
C762 C770 1.378 . S
C763 C762 1.367 1_554 S
C763 C771 1.433 . S
C764 H760 0.929 . S
C764 C766 1.378 . S
C764 C768 1.369 . S
C765 C768 1.462 1_546 S
C765 C770 1.363 . S
C765 N773 1.414 1_556 S
C766 H757 0.930 . S
C766 C764 1.378 . S
C766 C767 1.367 1_554 S
C767 C766 1.367 1_556 S
C767 C769 1.433 . S
C768 C764 1.369 . S
C768 C765 1.462 1_564 S
C768 N772 1.408 1_554 S
C769 H759 0.929 . S
C769 C767 1.433 . S
C769 N772 1.384 . S
C770 H761 0.929 . S
C770 C762 1.378 . S
C770 C765 1.363 . S
C771 H758 0.929 . S
C771 C763 1.433 . S
C771 N773 1.384 . S
N772 C768 1.408 1_556 S
N772 C769 1.384 . S
N773 C765 1.414 1_554 S
N773 C771 1.384 . S
H774 C780 0.930 . S
H775 C784 0.930 . S
H776 C789 0.929 . S
H777 C787 0.929 . S
H778 C782 0.929 . S
H779 C788 0.929 . S
C780 H774 0.930 . S
C780 C781 1.367 . S
C780 C788 1.378 . S
C781 C780 1.367 . S
C781 C789 1.433 . S
C782 H778 0.929 . S
C782 C784 1.378 . S
C782 C786 1.350 . S
C783 C786 1.463 . S
C783 C788 1.350 . S
C783 N791 1.427 . S
C784 H775 0.930 . S
C784 C782 1.378 . S
C784 C785 1.367 . S
C785 C784 1.367 . S
C785 C787 1.433 . S
C786 C782 1.350 . S
C786 C783 1.463 . S
C786 N790 1.427 . S
C787 H777 0.929 . S
C787 C785 1.433 . S
C787 N790 1.384 . S
C788 H779 0.929 . S
C788 C780 1.378 . S
C788 C783 1.350 . S
C789 H776 0.929 . S
C789 C781 1.433 . S
C789 N791 1.384 . S
N790 C786 1.427 . S
N790 C787 1.384 . S
N791 C783 1.427 . S
N791 C789 1.384 . S
H792 C798 0.930 . S
H793 C802 0.930 . S
H794 C807 0.929 . S
H795 C805 0.929 . S
H796 C800 0.929 . S
H797 C806 0.929 . S
C798 H792 0.930 . S
C798 C799 1.367 . S
C798 C806 1.378 . S
C799 C798 1.367 . S
C799 C807 1.433 . S
C800 H796 0.929 . S
C800 C802 1.378 . S
C800 C804 1.350 . S
C801 C804 1.463 1_455 S
C801 C806 1.350 . S
C801 N809 1.427 . S
C802 H793 0.930 . S
C802 C800 1.378 . S
C802 C803 1.367 . S
C803 C802 1.367 . S
C803 C805 1.433 . S
C804 C800 1.350 . S
C804 C801 1.463 1_655 S
C804 N808 1.427 . S
C805 H795 0.929 . S
C805 C803 1.433 . S
C805 N808 1.384 . S
C806 H797 0.929 . S
C806 C798 1.378 . S
C806 C801 1.350 . S
C807 H794 0.929 . S
C807 C799 1.433 . S
C807 N809 1.384 . S
N808 C804 1.427 . S
N808 C805 1.384 . S
N809 C801 1.427 . S
N809 C807 1.384 . S
H810 C816 0.930 . S
H811 C820 0.930 . S
H812 C825 0.929 . S
H813 C823 0.929 . S
H814 C818 0.929 . S
H815 C824 0.929 . S
C816 H810 0.930 . S
C816 C817 1.367 . S
C816 C824 1.378 . S
C817 C816 1.367 . S
C817 C825 1.433 1_556 S
C818 H814 0.929 . S
C818 C820 1.378 . S
C818 C822 1.350 . S
C819 C822 1.463 1_546 S
C819 C824 1.350 . S
C819 N827 1.427 1_556 S
C820 H811 0.930 . S
C820 C818 1.378 . S
C820 C821 1.367 . S
C821 C820 1.367 . S
C821 C823 1.433 1_554 S
C822 C818 1.350 . S
C822 C819 1.463 1_564 S
C822 N826 1.427 1_554 S
C823 H813 0.929 . S
C823 C821 1.433 1_556 S
C823 N826 1.384 . S
C824 H815 0.929 . S
C824 C816 1.378 . S
C824 C819 1.350 . S
C825 H812 0.929 . S
C825 C817 1.433 1_554 S
C825 N827 1.384 . S
N826 C822 1.427 1_556 S
N826 C823 1.384 . S
N827 C819 1.427 1_554 S
N827 C825 1.384 . S
H828 C834 0.930 . S
H829 C838 0.930 . S
H830 C843 0.929 . S
H831 C841 0.929 . S
H832 C836 0.929 . S
H833 C842 0.929 . S
C834 H828 0.930 . S
C834 C835 1.367 . S
C834 C842 1.378 . S
C835 C834 1.367 . S
C835 C843 1.433 . S
C836 H832 0.929 . S
C836 C838 1.378 . S
C836 C840 1.350 . S
C837 C840 1.463 . S
C837 C842 1.350 . S
C837 N845 1.427 . S
C838 H829 0.930 . S
C838 C836 1.378 . S
C838 C839 1.367 . S
C839 C838 1.367 . S
C839 C841 1.433 . S
C840 C836 1.350 . S
C840 C837 1.463 . S
C840 N844 1.427 . S
C841 H831 0.929 . S
C841 C839 1.433 . S
C841 N844 1.384 . S
C842 H833 0.929 . S
C842 C834 1.378 . S
C842 C837 1.350 . S
C843 H830 0.929 . S
C843 C835 1.433 . S
C843 N845 1.384 . S
N844 C840 1.427 . S
N844 C841 1.384 . S
N845 C837 1.427 . S
N845 C843 1.384 . S
H846 C852 0.930 . S
H847 C856 0.930 . S
H848 C861 0.929 . S
H849 C859 0.929 . S
H850 C854 0.929 . S
H851 C860 0.929 . S
C852 H846 0.930 . S
C852 C853 1.367 . S
C852 C860 1.378 . S
C853 C852 1.367 . S
C853 C861 1.433 . S
C854 H850 0.929 . S
C854 C856 1.378 . S
C854 C858 1.350 . S
C855 C858 1.463 . S
C855 C860 1.350 . S
C855 N863 1.427 . S
C856 H847 0.930 . S
C856 C854 1.378 . S
C856 C857 1.367 . S
C857 C856 1.367 . S
C857 C859 1.433 . S
C858 C854 1.350 . S
C858 C855 1.463 . S
C858 N862 1.427 . S
C859 H849 0.929 . S
C859 C857 1.433 . S
C859 N862 1.384 . S
C860 H851 0.929 . S
C860 C852 1.378 . S
C860 C855 1.350 . S
C861 H848 0.929 . S
C861 C853 1.433 . S
C861 N863 1.384 . S
N862 C858 1.427 . S
N862 C859 1.384 . S
N863 C855 1.427 . S
N863 C861 1.384 . S
H864 C870 0.930 . S
H865 C874 0.930 . S
H866 C879 0.929 . S
H867 C877 0.929 . S
H868 C872 0.929 . S
H869 C878 0.929 . S
C870 H864 0.930 . S
C870 C871 1.367 . S
C870 C878 1.378 . S
C871 C870 1.367 . S
C871 C879 1.433 . S
C872 H868 0.929 . S
C872 C874 1.378 . S
C872 C876 1.350 . S
C873 C876 1.463 1_556 S
C873 C878 1.350 . S
C873 N881 1.427 . S
C874 H865 0.930 . S
C874 C872 1.378 . S
C874 C875 1.367 . S
C875 C874 1.367 . S
C875 C877 1.433 . S
C876 C872 1.350 . S
C876 C873 1.463 1_554 S
C876 N880 1.427 . S
C877 H867 0.929 . S
C877 C875 1.433 . S
C877 N880 1.384 . S
C878 H869 0.929 . S
C878 C870 1.378 . S
C878 C873 1.350 . S
C879 H866 0.929 . S
C879 C871 1.433 . S
C879 N881 1.384 . S
N880 C876 1.427 . S
N880 C877 1.384 . S
N881 C873 1.427 . S
N881 C879 1.384 . S
H882 C888 0.930 . S
H883 C892 0.930 . S
H884 C897 0.929 . S
H885 C895 0.929 . S
H886 C890 0.929 . S
H887 C896 0.929 . S
C888 H882 0.930 . S
C888 C889 1.367 . S
C888 C896 1.378 . S
C889 C888 1.367 . S
C889 C897 1.433 . S
C890 H886 0.929 . S
C890 C892 1.378 . S
C890 C894 1.350 . S
C891 C894 1.463 . S
C891 C896 1.350 . S
C891 N899 1.427 . S
C892 H883 0.930 . S
C892 C890 1.378 . S
C892 C893 1.367 . S
C893 C892 1.367 . S
C893 C895 1.433 . S
C894 C890 1.350 . S
C894 C891 1.463 . S
C894 N898 1.427 . S
C895 H885 0.929 . S
C895 C893 1.433 . S
C895 N898 1.384 . S
C896 H887 0.929 . S
C896 C888 1.378 . S
C896 C891 1.350 . S
C897 H884 0.929 . S
C897 C889 1.433 . S
C897 N899 1.384 . S
N898 C894 1.427 . S
N898 C895 1.384 . S
N899 C891 1.427 . S
N899 C897 1.384 . S
H900 C906 0.930 . S
H901 C910 0.930 . S
H902 C915 0.929 . S
H903 C913 0.929 . S
H904 C908 0.929 . S
H905 C914 0.929 . S
C906 H900 0.930 . S
C906 C907 1.367 . S
C906 C914 1.378 . S
C907 C906 1.367 . S
C907 C915 1.433 . S
C908 H904 0.929 . S
C908 C910 1.378 . S
C908 C912 1.350 . S
C909 C912 1.463 . S
C909 C914 1.350 . S
C909 N917 1.427 . S
C910 H901 0.930 . S
C910 C908 1.378 . S
C910 C911 1.367 . S
C911 C910 1.367 . S
C911 C913 1.433 . S
C912 C908 1.350 . S
C912 C909 1.463 . S
C912 N916 1.427 . S
C913 H903 0.929 . S
C913 C911 1.433 . S
C913 N916 1.384 . S
C914 H905 0.929 . S
C914 C906 1.378 . S
C914 C909 1.350 . S
C915 H902 0.929 . S
C915 C907 1.433 . S
C915 N917 1.384 . S
N916 C912 1.427 . S
N916 C913 1.384 . S
N917 C909 1.427 . S
N917 C915 1.384 . S
H918 C924 0.930 . S
H919 C928 0.930 . S
H920 C933 0.929 . S
H921 C931 0.929 . S
H922 C926 0.929 . S
H923 C932 0.929 . S
C924 H918 0.930 . S
C924 C925 1.367 . S
C924 C932 1.378 . S
C925 C924 1.367 . S
C925 C933 1.433 . S
C926 H922 0.929 . S
C926 C928 1.378 . S
C926 C930 1.350 . S
C927 C930 1.463 1_556 S
C927 C932 1.350 . S
C927 N935 1.427 . S
C928 H919 0.930 . S
C928 C926 1.378 . S
C928 C929 1.367 . S
C929 C928 1.367 . S
C929 C931 1.433 . S
C930 C926 1.350 . S
C930 C927 1.463 1_554 S
C930 N934 1.427 . S
C931 H921 0.929 . S
C931 C929 1.433 . S
C931 N934 1.384 . S
C932 H923 0.929 . S
C932 C924 1.378 . S
C932 C927 1.350 . S
C933 H920 0.929 . S
C933 C925 1.433 . S
C933 N935 1.384 . S
N934 C930 1.427 . S
N934 C931 1.384 . S
N935 C927 1.427 . S
N935 C933 1.384 . S
C403 C391 1.787 . S
C407 C28 1.781 . S
C421 C226 1.882 . S
C425 C61 1.880 . S
C439 C94 1.786 . S
C443 C259 1.780 . S
C457 C292 1.787 . S
C461 C127 1.781 . S
C475 C325 1.881 . S
C479 C160 1.880 . S
C493 C358 1.784 . S
C497 C193 1.784 . S
C511 C8 0.544 . S
C515 C338 0.534 . S
C529 C41 0.597 . S
C533 C371 0.575 . S
C547 C206 0.591 . S
C551 C74 0.565 . S
C565 C239 0.531 . S
C569 C107 0.500 . S
C583 C272 0.560 . S
C587 C140 0.560 . S
C601 C173 0.569 . S
C605 C305 0.556 . S
C619 N104 1.251 . S
C623 N5 1.255 . S
C637 N38 1.253 . S
C641 N137 1.264 . S
C655 N170 1.256 . S
C659 N71 1.264 . S
C673 N203 1.261 . S
C677 N302 1.261 . S
C691 N236 1.247 . S
C695 N335 1.257 . S
C709 N368 1.264 . S
C713 N269 1.256 . S
C727 N14 1.010 . S
C731 N311 1.014 . S
C745 N47 1.017 . S
C749 N344 1.014 . S
C763 N377 0.994 . S
C767 N80 0.994 . S
C781 N113 1.016 . S
C785 N212 1.012 . S
C799 N146 1.001 . S
C803 N245 1.001 . S
C817 N179 0.979 . S
C821 N278 0.983 . S
C835 C215 1.804 . S
C839 C17 1.803 . S
C853 C248 1.803 . S
C857 C50 1.803 . S
C871 C83 1.807 . S
C875 C281 1.809 . S
C889 C314 1.811 . S
C893 C116 1.811 . S
C907 C149 1.804 . S
C911 C347 1.803 . S
C925 C182 1.808 . S
C929 C380 1.807 . S
