# Generated by pormake.
# Topology qtz-x, (6)-cn, num edge types: 1
# Building blocks:
#     Node 0, Type 0, BuildingBlock: KUMBOL_clean_sbu_1, # of connection points: 6
#     Node 1, Type 0, BuildingBlock: KUMBOL_clean_sbu_1, # of connection points: 6
#     Node 2, Type 0, BuildingBlock: KUMBOL_clean_sbu_1, # of connection points: 6
#     Edge 3, Type (0, 0), BuildingBlock: FUNLAD_clean_linker_1, # of connection points: 2
#     Edge 4, Type (0, 0), BuildingBlock: FUNLAD_clean_linker_1, # of connection points: 2
#     Edge 5, Type (0, 0), BuildingBlock: FUNLAD_clean_linker_1, # of connection points: 2
#     Edge 6, Type (0, 0), BuildingBlock: FUNLAD_clean_linker_1, # of connection points: 2
#     Edge 7, Type (0, 0), BuildingBlock: FUNLAD_clean_linker_1, # of connection points: 2
#     Edge 8, Type (0, 0), BuildingBlock: FUNLAD_clean_linker_1, # of connection points: 2
#     Edge 9, Type (0, 0), BuildingBlock: FUNLAD_clean_linker_1, # of connection points: 2
#     Edge 10, Type (0, 0), BuildingBlock: FUNLAD_clean_linker_1, # of connection points: 2
#     Edge 11, Type (0, 0), BuildingBlock: FUNLAD_clean_linker_1, # of connection points: 2
# Relax obj value: 0.199
# Max RMSD: 0.277
# Mean RMSD: 0.277
data_MOF--net-qtz-x--node1-KUMBOL_clean_sbu_1--edge1-FUNLAD_clean_linker_1
_symmetry_space_group_name_H-M    P1
_symmetry_Int_Tables_number       1
_symmetry_cell_setting            triclinic
loop_
_symmetry_equiv_pos_as_xyz
'x, y, z'
_cell_length_a     15.575552
_cell_length_b     15.591301
_cell_length_c     53.653731
_cell_angle_alpha  89.722845
_cell_angle_beta   90.341243
_cell_angle_gamma 120.03584
loop_
_atom_site_label
_atom_site_type_symbol
_atom_site_fract_x
_atom_site_fract_y
_atom_site_fract_z
_atom_type_partial_charge
C0 C 0.42102 0.51296 0.1718 0.0
C1 C 0.52385 0.68059 0.1563 0.0
C2 C 0.43421 0.60604 0.16674 0.0
C3 C 0.59827 0.65874 0.15006 0.0
C4 C 0.4975 0.49217 0.16658 0.0
C5 C 0.5851 0.56469 0.15517 0.0
N6 N 0.33681 0.44545 0.18355 0.0
C7 C 0.32752 0.35853 0.19209 0.0
C8 C 0.48563 0.4008 0.17407 0.0
C9 C 0.40103 0.33443 0.18723 0.0
Gd10 Gd 0.95892 0.38642 0.15273 0.0
Gd11 Gd 0.22043 0.49537 0.19229 0.0
N12 N 0.36166 0.62548 0.17337 0.0
C13 C 0.53725 0.77577 0.15319 0.0
C14 C 0.37658 0.71956 0.17166 0.0
C15 C 0.4637 0.79556 0.16115 0.0
H16 H 0.3209 0.73573 0.17827 0.0
H17 H 0.47446 0.86951 0.15941 0.0
H18 H 0.89861 0.1476 0.14327 0.0
H19 H 0.26501 0.30892 0.20341 0.0
H20 H 0.78253 0.98287 0.16014 0.0
H21 H 0.605 0.83498 0.14525 0.0
H22 H 0.66741 0.71489 0.14193 0.0
H23 H 0.87377 0.53311 0.17055 0.0
H24 H 0.54297 0.38242 0.17067 0.0
H25 H 0.39305 0.26526 0.19397 0.0
H26 H 0.57896 0.04082 0.21631 0.0
H27 H 0.64436 0.54978 0.15095 0.0
H28 H 0.62338 0.36809 0.21827 0.0
H29 H 0.73923 0.5248 0.19693 0.0
N30 N 0.83533 0.38441 0.17786 0.0
C31 C 0.7693 0.2962 0.18826 0.0
C32 C 0.82364 0.4652 0.18009 0.0
C33 C 0.68233 0.37169 0.20689 0.0
C34 C 0.74768 0.46042 0.19488 0.0
C35 C 0.69176 0.28777 0.20339 0.0
H36 H 0.56521 0.18777 0.22581 0.0
N37 N 0.84994 0.22389 0.16702 0.0
C38 C 0.77772 0.21377 0.18295 0.0
C39 C 0.7121 0.03679 0.18494 0.0
C40 C 0.70763 0.12013 0.19257 0.0
C41 C 0.84932 0.1417 0.15805 0.0
C42 C 0.78182 0.04746 0.16716 0.0
O43 O 0.22966 0.54631 0.15212 0.0
O44 O 0.09739 0.41325 0.13289 0.0
O45 O 0.85208 0.30227 0.12381 0.0
O46 O 0.92463 0.4619 0.12343 0.0
O47 O 0.15021 0.59238 0.19052 0.0
O48 O 0.0493 0.55392 0.15505 0.0
O49 O 0.9703 0.42635 0.19337 0.0
O50 O 0.07347 0.37162 0.20459 0.0
O51 O 0.22218 0.57511 0.22569 0.0
O52 O 0.30981 0.50345 0.22436 0.0
O53 O 0.04611 0.30548 0.14862 0.0
O54 O 0.13118 0.32789 0.18594 0.0
C55 C 0.18398 0.4949 0.13209 0.0
C56 C 0.10284 0.61389 0.17331 0.0
C57 C 0.76418 0.37307 0.10552 0.0
C58 C 0.65661 0.3694 0.0718 0.0
C59 C 0.60073 0.34766 0.11472 0.0
C60 C 0.68973 0.35522 0.12279 0.0
C61 C 0.58427 0.35509 0.08938 0.0
C62 C 0.74761 0.38078 0.08016 0.0
C63 C 0.85824 0.37989 0.11305 0.0
C64 C 0.63283 0.11201 0.20859 0.0
C65 C 0.62485 0.19564 0.21396 0.0
H66 H 0.65941 0.96352 0.1918 0.0
C67 C 1.00581 0.39323 0.21058 0.0
C68 C 0.09003 0.27754 0.16529 0.0
C69 C 0.37155 0.64783 0.24879 0.0
C70 C 0.44608 0.74857 0.28597 0.0
C71 C 0.53589 0.79294 0.24668 0.0
C72 C 0.45738 0.71061 0.23525 0.0
C73 C 0.53051 0.81226 0.27183 0.0
C74 C 0.36607 0.66745 0.27408 0.0
C75 C 0.28795 0.56069 0.23703 0.0
H76 H 0.54368 0.3346 0.12804 0.0
H77 H 0.69962 0.34623 0.14234 0.0
H78 H 0.51421 0.34753 0.08347 0.0
H79 H 0.80616 0.39572 0.06706 0.0
H80 H 0.60133 0.84181 0.236 0.0
H81 H 0.4641 0.69596 0.21594 0.0
H82 H 0.59213 0.87759 0.27997 0.0
H83 H 0.3001 0.61839 0.28462 0.0
C84 C 0.43964 0.74211 0.50323 0.0
C85 C 0.53147 0.66422 0.48871 0.0
C86 C 0.52952 0.74484 0.50001 0.0
C87 C 0.44271 0.58223 0.48041 0.0
C88 C 0.35037 0.65978 0.49494 0.0
C89 C 0.35245 0.58009 0.48348 0.0
N90 N 0.43951 0.81982 0.5146 0.0
C91 C 0.35297 0.81956 0.51853 0.0
C92 C 0.26141 0.6595 0.49867 0.0
C93 C 0.26262 0.7392 0.51075 0.0
Gd94 Gd 0.74698 0.20381 0.48684 0.0
Gd95 Gd 0.59366 0.94886 0.52803 0.0
N96 N 0.61448 0.8252 0.50837 0.0
C97 C 0.62236 0.66733 0.48656 0.0
C98 C 0.70226 0.82555 0.50751 0.0
C99 C 0.70776 0.74762 0.49634 0.0
H100 H 0.76808 0.88361 0.51602 0.0
H101 H 0.77763 0.74862 0.4957 0.0
H102 H 0.56564 0.26055 0.47593 0.0
H103 H 0.35348 0.88052 0.52813 0.0
H104 H 0.51893 0.38041 0.49063 0.0
H105 H 0.62697 0.60697 0.478 0.0
H106 H 0.44299 0.51969 0.47177 0.0
H107 H 0.98483 0.29741 0.50204 0.0
H108 H 0.1914 0.59785 0.49247 0.0
H109 H 0.19382 0.73832 0.5142 0.0
H110 H 0.79532 0.60729 0.54049 0.0
H111 H 0.28455 0.51608 0.47709 0.0
H112 H 0.08045 0.56634 0.54272 0.0
H113 H 0.11611 0.44137 0.52503 0.0
N114 N 0.87671 0.34041 0.5072 0.0
C115 C 0.85617 0.40942 0.51623 0.0
C116 C 0.969 0.35168 0.50982 0.0
C117 C 0.02277 0.50342 0.53272 0.0
C118 C 0.04318 0.43291 0.52277 0.0
C119 C 0.92863 0.49267 0.52937 0.0
H120 H 0.95975 0.62691 0.54875 0.0
N121 N 0.69542 0.31694 0.49864 0.0
C122 C 0.76247 0.3967 0.51207 0.0
C123 C 0.64948 0.4604 0.51341 0.0
C124 C 0.74044 0.46949 0.52023 0.0
C125 C 0.61183 0.31435 0.48968 0.0
C126 C 0.58637 0.38425 0.49741 0.0
O127 O 0.56637 0.93585 0.48628 0.0
O128 O 0.72092 0.05447 0.4755 0.0
O129 O 0.71357 0.2317 0.44932 0.0
O130 O 0.86576 0.28701 0.46058 0.0
O131 O 0.76327 0.02764 0.52972 0.0
O132 O 0.83001 0.12131 0.49355 0.0
O133 O 0.77582 0.2137 0.52824 0.0
O134 O 0.62309 0.09708 0.54217 0.0
O135 O 0.64606 0.9093 0.56136 0.0
O136 O 0.49343 0.87436 0.55884 0.0
O137 O 0.5777 0.11717 0.48484 0.0
O138 O 0.52151 0.04311 0.52347 0.0
C139 C 0.63374 0.9826 0.4692 0.0
C140 C 0.83728 0.07756 0.51399 0.0
C141 C 0.83461 0.3801 0.43079 0.0
C142 C 0.85111 0.46757 0.39195 0.0
C143 C 0.91012 0.55923 0.43067 0.0
C144 C 0.87928 0.47058 0.44368 0.0
C145 C 0.89729 0.55808 0.4048 0.0
C146 C 0.81892 0.37901 0.40509 0.0
C147 C 0.80644 0.28592 0.44332 0.0
C148 C 0.8114 0.55122 0.53392 0.0
C149 C 0.90522 0.56268 0.53851 0.0
H150 H 0.62963 0.51452 0.51934 0.0
C151 C 0.71164 0.17242 0.54627 0.0
C152 C 0.50977 0.08064 0.50247 0.0
C153 C 0.52757 0.76969 0.58371 0.0
C154 C 0.50856 0.6743 0.62158 0.0
C155 C 0.45546 0.59155 0.58139 0.0
C156 C 0.48626 0.68239 0.56965 0.0
C157 C 0.46608 0.58704 0.60717 0.0
C158 C 0.53843 0.76524 0.60957 0.0
C159 C 0.55938 0.86623 0.57197 0.0
H160 H 0.94521 0.62897 0.4406 0.0
H161 H 0.89142 0.47283 0.46361 0.0
H162 H 0.92306 0.6273 0.39487 0.0
H163 H 0.78526 0.30923 0.3951 0.0
H164 H 0.42251 0.52422 0.5705 0.0
H165 H 0.47713 0.68422 0.54974 0.0
H166 H 0.43931 0.51499 0.61557 0.0
H167 H 0.57052 0.83305 0.62038 0.0
C168 C 0.46263 0.60957 0.83061 0.0
C169 C 0.28587 0.5075 0.82329 0.0
C170 C 0.37555 0.51956 0.83309 0.0
C171 C 0.28635 0.58562 0.81 0.0
C172 C 0.46302 0.68912 0.81796 0.0
C173 C 0.37486 0.67599 0.80725 0.0
N174 N 0.54702 0.61976 0.84094 0.0
C175 C 0.63227 0.70965 0.84123 0.0
C176 C 0.55181 0.77994 0.81676 0.0
C177 C 0.63644 0.79066 0.8288 0.0
Gd178 Gd 0.68078 0.36181 0.81959 0.0
Gd179 Gd 0.53562 0.47851 0.85979 0.0
N180 N 0.37768 0.44564 0.84612 0.0
C181 C 0.19805 0.41828 0.82769 0.0
C182 C 0.29125 0.3608 0.85171 0.0
C183 C 0.20061 0.34524 0.84229 0.0
H184 H 0.2912 0.3052 0.86379 0.0
H185 H 0.13262 0.27734 0.84653 0.0
H186 H 0.91498 0.52742 0.83468 0.0
H187 H 0.69727 0.71846 0.85079 0.0
H188 H 0.05666 0.53129 0.85673 0.0
H189 H 0.12762 0.40626 0.82057 0.0
H190 H 0.21841 0.57764 0.80222 0.0
H191 H 0.51468 0.11822 0.81035 0.0
H192 H 0.55524 0.84272 0.80709 0.0
H193 H 0.70473 0.86131 0.82857 0.0
H194 H 0.93657 0.19226 0.87997 0.0
H195 H 0.37421 0.73591 0.79722 0.0
H196 H 0.61174 0.94911 0.85252 0.0
H197 H 0.48681 0.95706 0.82553 0.0
N198 N 0.64926 0.20231 0.83071 0.0
C199 C 0.72187 0.19898 0.84418 0.0
C200 C 0.56776 0.11661 0.82306 0.0
C201 C 0.62356 0.02038 0.84629 0.0
C202 C 0.5526 0.02468 0.83118 0.0
C203 C 0.71079 0.10782 0.85236 0.0
H204 H 0.78011 0.03705 0.87225 0.0
N205 N 0.81874 0.37321 0.84053 0.0
C206 C 0.80976 0.28662 0.84883 0.0
C207 C 0.97788 0.37466 0.86463 0.0
C208 C 0.88874 0.28524 0.86147 0.0
C209 C 0.90667 0.4601 0.84269 0.0
C210 C 0.98722 0.46226 0.85494 0.0
O211 O 0.57838 0.52632 0.81964 0.0
O212 O 0.55632 0.3802 0.80482 0.0
O213 O 0.76287 0.44755 0.78742 0.0
O214 O 0.70993 0.29036 0.78861 0.0
O215 O 0.44281 0.31194 0.853 0.0
O216 O 0.51075 0.26352 0.82063 0.0
O217 O 0.71519 0.39194 0.86067 0.0
O218 O 0.56005 0.35361 0.87024 0.0
O219 O 0.44619 0.47408 0.89125 0.0
O220 O 0.60559 0.55933 0.8937 0.0
O221 O 0.75464 0.52876 0.82319 0.0
O222 O 0.70363 0.56117 0.86094 0.0
C223 C 0.56535 0.46693 0.80099 0.0
C224 C 0.43693 0.24879 0.83569 0.0
C225 C 0.85152 0.3907 0.76398 0.0
C226 C 0.94282 0.41569 0.72531 0.0
C227 C 0.02305 0.42999 0.76529 0.0
C228 C 0.93527 0.40679 0.77765 0.0
C229 C 0.02715 0.43542 0.73928 0.0
C230 C 0.85564 0.39546 0.73791 0.0
C231 C 0.75977 0.37245 0.77616 0.0
C232 C 0.87691 0.19481 0.87013 0.0
C233 C 0.7879 0.10643 0.86573 0.0
H234 H 0.04049 0.37656 0.87408 0.0
C235 C 0.64711 0.37087 0.87741 0.0
C236 C 0.76849 0.5848 0.84284 0.0
C237 C 0.51527 0.61043 0.91869 0.0
C238 C 0.50409 0.67737 0.95875 0.0
C239 C 0.49309 0.75358 0.92008 0.0
C240 C 0.50375 0.68353 0.90634 0.0
C241 C 0.49254 0.75032 0.94616 0.0
C242 C 0.51704 0.60866 0.94484 0.0
C243 C 0.52221 0.53316 0.90485 0.0
H244 H 0.08791 0.44327 0.77586 0.0
H245 H 0.93314 0.40199 0.79771 0.0
H246 H 0.09556 0.45314 0.73001 0.0
H247 H 0.79101 0.38476 0.72759 0.0
H248 H 0.4843 0.80999 0.91051 0.0
H249 H 0.50216 0.68588 0.88618 0.0
H250 H 0.48366 0.805 0.95644 0.0
H251 H 0.52509 0.55158 0.9544 0.0
H252 H 0.16138 0.76284 0.18943 0.0
C253 C 0.11127 0.7125 0.17533 0.0
H254 H 1.00572 0.69177 0.14754 0.0
H255 H 0.92757 0.01888 0.19636 0.0
H256 H 0.77625 0.86845 0.20768 0.0
H257 H 0.75718 0.70421 0.19949 0.0
H258 H 0.88963 0.68959 0.18008 0.0
C259 C 0.05927 0.74185 0.16109 0.0
C260 C 0.06888 0.8413 0.16467 0.0
C261 C 0.99079 0.84887 0.17597 0.0
C262 C 1.00154 0.94367 0.18056 0.0
C263 C 0.92304 0.94881 0.1923 0.0
C264 C 0.83585 0.86307 0.19894 0.0
C265 C 0.82511 0.7706 0.19432 0.0
C266 C 0.90162 0.76319 0.18312 0.0
H267 H 0.07085 0.15351 0.14171 0.0
C268 C 0.08808 0.18312 0.16053 0.0
H269 H 0.11064 0.15459 0.19778 0.0
H270 H 0.22961 0.85347 0.14079 0.0
H271 H 0.37827 1.00372 0.12818 0.0
H272 H 0.39572 0.16773 0.13563 0.0
H273 H 0.26459 0.1824 0.1557 0.0
C274 C 0.10042 0.13001 0.17854 0.0
C275 C 0.08916 0.03093 0.1732 0.0
C276 C 0.1659 0.0233 0.16113 0.0
C277 C 0.15601 0.92853 0.15698 0.0
C278 C 0.23384 0.92339 0.14483 0.0
C279 C 0.31943 0.00908 0.13736 0.0
C280 C 0.32925 0.10143 0.14154 0.0
C281 C 0.25353 0.10886 0.15318 0.0
H282 H 0.40345 0.10304 0.47985 0.0
C283 C 0.41781 0.0848 0.49841 0.0
H284 H 0.36921 0.05724 0.53582 0.0
H285 H 0.12873 0.28623 0.51876 0.0
H286 H 0.28357 0.42406 0.53397 0.0
H287 H 0.43086 0.40584 0.54022 0.0
H288 H 0.4242 0.25018 0.53128 0.0
C289 C 0.35433 0.0714 0.51689 0.0
C290 C 0.26582 0.08269 0.51249 0.0
C291 C 0.26959 0.1728 0.5187 0.0
C292 C 0.18447 0.18306 0.5152 0.0
C293 C 0.19122 0.27472 0.52102 0.0
C294 C 0.27952 0.35421 0.52983 0.0
C295 C 0.36238 0.34396 0.53339 0.0
C296 C 0.35767 0.25428 0.52811 0.0
H297 H 0.93302 0.03388 0.53457 0.0
C298 C 0.92934 0.07366 0.51828 0.0
H299 H 1.00461 0.15435 0.486 0.0
H300 H 0.23552 0.90311 0.49712 0.0
H301 H 0.08282 0.76705 0.48044 0.0
H302 H 0.93448 0.78345 0.47499 0.0
H303 H 0.93733 0.93543 0.48642 0.0
C304 C 1.00599 0.11341 0.50229 0.0
C305 C 0.09486 0.10233 0.50608 0.0
C306 C 0.09147 0.01263 0.4995 0.0
C307 C 0.1772 1.00311 0.50257 0.0
C308 C 0.17217 0.91342 0.4955 0.0
C309 C 0.08517 0.83508 0.48578 0.0
C310 C 1.00156 0.84431 0.48274 0.0
C311 C 1.00423 0.9319 0.48943 0.0
H312 H 0.89024 0.70533 0.86409 0.0
C313 C 0.86392 0.67771 0.84541 0.0
H314 H 0.88998 0.70076 0.80688 0.0
H315 H 0.21762 0.115 0.86908 0.0
H316 H 0.07589 0.11636 0.88689 0.0
H317 H 0.90564 0.98573 0.87639 0.0
H318 H 0.87657 0.85185 0.84858 0.0
C319 C 0.91757 0.72859 0.82549 0.0
C320 C 0.01819 0.81837 0.82796 0.0
C321 C 0.03341 0.90095 0.84246 0.0
C322 C 0.13127 0.98109 0.84667 0.0
C323 C 0.14486 0.0563 0.86365 0.0
C324 C 0.06405 0.0574 0.87427 0.0
C325 C 0.96826 0.98367 0.86845 0.0
C326 C 0.95266 0.90634 0.85273 0.0
H327 H 0.28025 0.17711 0.82463 0.0
C328 C 0.33812 0.16287 0.83117 0.0
H329 H 0.37312 0.0562 0.844 0.0
H330 H 0.01707 0.67317 0.79879 0.0
H331 H 0.15526 0.68536 0.77549 0.0
H332 H 0.31976 0.83676 0.77741 0.0
H333 H 0.34854 0.97337 0.80412 0.0
C334 C 0.3155 0.07032 0.8372 0.0
C335 C 0.21279 0.98444 0.83399 0.0
C336 C 0.19639 0.90554 0.81795 0.0
C337 C 0.09984 0.82114 0.81555 0.0
C338 C 0.08752 0.74097 0.80057 0.0
C339 C 0.16646 0.74667 0.78714 0.0
C340 C 0.25923 0.83144 0.78839 0.0
C341 C 0.27475 0.90952 0.8038 0.0
H342 H 0.54849 0.64776 0.99569 0.0
C343 C 0.50018 0.66952 0.98633 0.0
H344 H 0.38132 0.69663 0.9902 0.0
H345 H 0.34829 0.44569 0.09417 0.0
H346 H 0.34274 0.31657 0.06791 0.0
H347 H 0.36443 0.33989 0.02242 0.0
H348 H 0.39386 0.49229 1.00302 0.0
C349 C 0.43089 0.67663 0.99957 0.0
C350 C 0.41876 0.65972 0.02709 0.0
C351 C 0.39443 0.56647 0.03774 0.0
C352 C 0.3744 0.54983 0.06371 0.0
C353 C 0.3583 0.45962 0.07432 0.0
C354 C 0.3558 0.38533 0.05951 0.0
C355 C 0.36846 0.39866 0.03392 0.0
C356 C 0.3867 0.48754 0.02304 0.0
H357 H 0.18963 0.4813 0.09152 0.0
C358 C 0.23275 0.52369 0.10756 0.0
H359 H 0.37001 0.64205 0.11967 0.0
H360 H 0.47676 0.85077 0.01376 0.0
H361 H 0.48147 0.97848 0.04047 0.0
H362 H 0.43368 0.94429 0.08466 0.0
H363 H 0.38237 0.78301 0.10264 0.0
C364 C 0.32655 0.59711 0.10412 0.0
C365 C 0.36975 0.62246 0.07855 0.0
C366 C 0.39911 0.71705 0.06832 0.0
C367 C 0.42449 0.73596 0.04264 0.0
C368 C 0.45463 0.83164 0.03299 0.0
C369 C 0.45804 0.90573 0.04811 0.0
C370 C 0.43131 0.88657 0.07303 0.0
C371 C 0.40193 0.79348 0.08311 0.0
H372 H 0.77004 0.40764 0.35665 0.0
C373 C 0.84061 0.46291 0.36462 0.0
H374 H 0.99208 0.56214 0.35782 0.0
H375 H 0.8347 0.25116 0.26105 0.0
H376 H 0.79244 0.11989 0.29133 0.0
H377 H 0.81448 0.15659 0.33635 0.0
H378 H 0.87485 0.32318 0.35133 0.0
C379 C 0.92045 0.50918 0.34991 0.0
C380 C 0.91512 0.48705 0.32281 0.0
C381 C 0.88721 0.38996 0.31448 0.0
C382 C 0.88224 0.37008 0.28854 0.0
C383 C 0.84538 0.27115 0.28057 0.0
C384 C 0.82018 0.19501 0.29773 0.0
C385 C 0.83203 0.21558 0.32307 0.0
C386 C 0.86563 0.31172 0.33144 0.0
H387 H 0.03191 0.38955 0.25086 0.0
C388 C 0.98929 0.40392 0.23704 0.0
H389 H 0.88376 0.44895 0.23076 0.0
H390 H 0.96567 0.67914 0.33235 0.0
H391 H 0.01122 0.81023 0.30185 0.0
H392 H 0.01435 0.77793 0.25698 0.0
H393 H 0.97122 0.61443 0.24232 0.0
C394 C 0.9246 0.43178 0.24439 0.0
C395 C 0.91396 0.44868 0.27112 0.0
C396 C 0.94048 0.54513 0.27933 0.0
C397 C 0.94036 0.56415 0.30522 0.0
C398 C 0.96588 0.66086 0.31293 0.0
C399 C 0.992 0.73679 0.29561 0.0
C400 C 0.99368 0.7186 0.27035 0.0
C401 C 0.96859 0.62418 0.2622 0.0
H402 H 0.53276 0.43555 0.76125 0.0
C403 C 0.55264 0.49235 0.77538 0.0
H404 H 0.58855 0.64043 0.78203 0.0
H405 H 0.7061 0.71688 0.66593 0.0
H406 H 0.86787 0.81043 0.68553 0.0
H407 H 0.88626 0.80903 0.73122 0.0
H408 H 0.74275 0.71373 0.75761 0.0
C409 C 0.56457 0.58057 0.76866 0.0
C410 C 0.55083 0.59824 0.74207 0.0
C411 C 0.63474 0.65711 0.72705 0.0
C412 C 0.62388 0.65875 0.70073 0.0
C413 C 0.70969 0.71441 0.68604 0.0
C414 C 0.80311 0.76812 0.69705 0.0
C415 C 0.81349 0.76725 0.72278 0.0
C416 C 0.73059 0.71224 0.7377 0.0
H417 H 0.5361 0.74048 0.65929 0.0
C418 C 0.52087 0.67408 0.64912 0.0
H419 H 0.50382 0.53073 0.65297 0.0
H420 H 0.37355 0.49074 0.76606 0.0
H421 H 0.21147 0.39612 0.74666 0.0
H422 H 0.19239 0.39611 0.70091 0.0
H423 H 0.33553 0.49069 0.67437 0.0
C424 C 0.51732 0.59831 0.66206 0.0
C425 C 0.5287 0.60274 0.68963 0.0
C426 C 0.44421 0.54748 0.70481 0.0
C427 C 0.45517 0.54626 0.73109 0.0
C428 C 0.3695 0.49187 0.74592 0.0
C429 C 0.27598 0.43798 0.73503 0.0
C430 C 0.26529 0.43802 0.70929 0.0
C431 C 0.34807 0.49241 0.69427 0.0
H432 H 0.74593 0.39484 0.90956 0.0
C433 C 0.67133 0.37644 0.9041 0.0
H434 H 0.52698 0.33585 0.91632 0.0
H435 H 0.57939 0.16163 0.0183 0.0
H436 H 0.4916 0.0096 0.99437 0.0
H437 H 0.46341 0.01426 0.94928 0.0
H438 H 0.52264 0.17094 0.92771 0.0
C439 C 0.60262 0.35734 0.92156 0.0
C440 C 0.62424 0.3559 0.94843 0.0
C441 C 0.58882 0.26377 0.96072 0.0
C442 C 0.60592 0.2612 0.98667 0.0
C443 C 0.56951 0.16801 0.99854 0.0
C444 C 0.51875 0.08015 0.98506 0.0
C445 C 0.50272 0.08275 0.95966 0.0
C446 C 0.53702 0.17321 0.94753 0.0
H447 H 0.58157 0.39398 0.03957 0.0
C448 C 0.63589 0.37276 0.04492 0.0
H449 H 0.72718 0.3178 0.03187 0.0
H450 H 0.70285 0.54462 0.93031 0.0
H451 H 0.79022 0.69693 0.95393 0.0
H452 H 0.8213 0.69307 0.99896 0.0
H453 H 0.76446 0.53711 0.02052 0.0
C454 C 0.6793 0.34746 0.02707 0.0
C455 C 0.65775 0.35087 1.00025 0.0
C456 C 0.69331 0.44322 0.98792 0.0
C457 C 0.67649 0.44563 0.96194 0.0
C458 C 0.71273 0.53856 0.95002 0.0
C459 C 0.76354 0.62661 0.96336 0.0
C460 C 0.78091 0.6244 0.9887 0.0
C461 C 0.74719 0.53411 1.00089 0.0
H462 H 0.36509 0.73318 0.32112 0.0
C463 C 0.43861 0.76521 0.31297 0.0
H464 H 0.59287 0.84492 0.32067 0.0
H465 H 0.55534 0.06257 0.41529 0.0
H466 H 0.60571 0.19378 0.38462 0.0
H467 H 0.61446 0.16134 0.34002 0.0
H468 H 0.57013 0.99672 0.32574 0.0
C469 C 0.51828 0.81377 0.32794 0.0
C470 C 0.50876 0.83132 0.35476 0.0
C471 C 0.53703 0.92839 0.36284 0.0
C472 C 0.5353 0.94792 0.38863 0.0
C473 C 0.55936 0.04457 0.39604 0.0
C474 C 0.58767 0.12043 0.3786 0.0
C475 C 0.59218 0.10205 0.35348 0.0
C476 C 0.56681 0.00725 0.34556 0.0
H477 H 0.67701 0.98889 0.43012 0.0
C478 C 0.61423 0.95497 0.44276 0.0
H479 H 0.45962 0.85865 0.44592 0.0
H480 H 0.44848 0.63631 0.34561 0.0
H481 H 0.39616 0.50501 0.3763 0.0
H482 H 0.3945 0.53943 0.42109 0.0
H483 H 0.44528 0.70544 0.43542 0.0
C484 C 0.5232 0.8943 0.43358 0.0
C485 C 0.50922 0.87111 0.40643 0.0
C486 C 0.47671 0.77317 0.39829 0.0
C487 C 0.47693 0.75324 0.37242 0.0
C488 C 0.44805 0.65545 0.36494 0.0
C489 C 0.41827 0.57938 0.38239 0.0
C490 C 0.41742 0.59875 0.4076 0.0
C491 C 0.44667 0.69441 0.41558 0.0
H492 H 0.01919 0.45902 0.68875 0.0
C493 C 0.94739 0.41579 0.69768 0.0
H494 H 0.79539 0.31175 0.69196 0.0
H495 H 0.75316 0.40131 0.5807 0.0
H496 H 0.68009 0.4892 0.60066 0.0
H497 H 0.69443 0.51652 0.64615 0.0
H498 H 0.78242 0.45666 0.67192 0.0
C499 C 0.86753 0.3579 0.68355 0.0
C500 C 0.87227 0.35431 0.65597 0.0
C501 C 0.82049 0.38966 0.64125 0.0
C502 C 0.81127 0.37314 0.61512 0.0
C503 C 0.76034 0.41019 0.60074 0.0
C504 C 0.71864 0.46121 0.61193 0.0
C505 C 0.72678 0.47665 0.63754 0.0
C506 C 0.77712 0.44156 0.65212 0.0
H507 H 0.67969 0.18303 0.58567 0.0
C508 C 0.73693 0.21458 0.57147 0.0
H509 H 0.88797 0.31628 0.56405 0.0
H510 H 0.98032 0.27962 0.67852 0.0
H511 H 0.06073 0.20091 0.65802 0.0
H512 H 0.04831 0.17684 0.61245 0.0
H513 H 0.95456 0.231 0.58716 0.0
C514 C 0.82851 0.28703 0.57762 0.0
C515 C 0.85281 0.3203 0.60387 0.0
C516 C 0.91114 0.29183 0.61821 0.0
C517 C 0.91985 0.30753 0.64441 0.0
C518 C 0.97338 0.27251 0.65849 0.0
C519 C 0.01954 0.22648 0.64696 0.0
C520 C 0.01244 0.2128 0.62131 0.0
C521 C 0.95842 0.24431 0.60702 0.0
loop_
_geom_bond_atom_site_label_1
_geom_bond_atom_site_label_2
_geom_bond_distance
_geom_bond_site_symmetry_2
_ccdc_geom_bond_type
C0 C2 1.422 . S
C0 C4 1.415 . S
C0 N6 1.369 . S
C1 C2 1.421 . S
C1 C3 1.417 . S
C1 C13 1.422 . S
C2 C0 1.422 . S
C2 C1 1.421 . S
C2 N12 1.359 . S
C3 C1 1.417 . S
C3 C5 1.329 . S
C3 H22 0.930 . S
C4 C0 1.415 . S
C4 C5 1.437 . S
C4 C8 1.413 . S
C5 C3 1.329 . S
C5 C4 1.437 . S
C5 H27 0.929 . S
N6 C0 1.369 . S
N6 C7 1.338 . S
N6 Gd11 2.622 . S
C7 N6 1.338 . S
C7 C9 1.378 . S
C7 H19 0.929 . S
C8 C4 1.413 . S
C8 C9 1.348 . S
C8 H24 0.931 . S
C9 C7 1.378 . S
C9 C8 1.348 . S
C9 H25 0.930 . S
Gd10 N30 2.622 . S
Gd10 N37 2.570 . S
Gd10 O44 2.353 1_655 S
Gd10 O45 2.468 . S
Gd10 O46 2.427 . S
Gd10 O48 2.388 . S
Gd10 O49 2.386 . S
Gd10 O53 2.307 . S
Gd10 C63 2.805 . S
Gd11 N6 2.622 . S
Gd11 N12 2.570 . S
Gd11 O43 2.386 . S
Gd11 O47 2.307 . S
Gd11 O50 2.353 1_455 S
Gd11 O51 2.468 . S
Gd11 O52 2.427 . S
Gd11 O54 2.388 . S
Gd11 C75 2.805 . S
N12 C2 1.359 . S
N12 Gd11 2.570 . S
N12 C14 1.343 . S
C13 C1 1.422 . S
C13 C15 1.321 . S
C13 H21 0.931 . S
C14 N12 1.343 . S
C14 C15 1.390 . S
C14 H16 0.931 . S
C15 C13 1.321 . S
C15 C14 1.390 . S
C15 H17 0.930 . S
H16 C14 0.931 . S
H17 C15 0.930 . S
H18 C41 0.931 . S
H19 C7 0.929 . S
H20 C42 0.930 . S
H21 C13 0.931 . S
H22 C3 0.930 . S
H23 C32 0.929 . S
H24 C8 0.931 . S
H25 C9 0.930 . S
H26 C64 0.930 . S
H27 C5 0.929 . S
H28 C33 0.931 . S
H29 C34 0.930 . S
N30 Gd10 2.622 . S
N30 C31 1.369 . S
N30 C32 1.338 . S
C31 N30 1.369 . S
C31 C35 1.415 . S
C31 C38 1.422 . S
C32 H23 0.929 . S
C32 N30 1.338 . S
C32 C34 1.378 . S
C33 H28 0.931 . S
C33 C34 1.348 . S
C33 C35 1.413 . S
C34 H29 0.930 . S
C34 C32 1.378 . S
C34 C33 1.348 . S
C35 C31 1.415 . S
C35 C33 1.413 . S
C35 C65 1.437 . S
H36 C65 0.929 . S
N37 Gd10 2.570 . S
N37 C38 1.359 . S
N37 C41 1.343 . S
C38 C31 1.422 . S
C38 N37 1.359 . S
C38 C40 1.421 . S
C39 C40 1.422 . S
C39 C42 1.321 . S
C39 H66 0.931 . S
C40 C38 1.421 . S
C40 C39 1.422 . S
C40 C64 1.417 . S
C41 H18 0.931 . S
C41 N37 1.343 . S
C41 C42 1.390 . S
C42 H20 0.930 . S
C42 C39 1.321 . S
C42 C41 1.390 . S
O43 Gd11 2.386 . S
O43 C55 1.265 . S
O44 Gd10 2.353 1_455 S
O44 C55 1.242 . S
O45 Gd10 2.468 . S
O45 C63 1.263 . S
O46 Gd10 2.427 . S
O46 C63 1.252 . S
O47 Gd11 2.307 . S
O47 C56 1.261 . S
O48 Gd10 2.388 . S
O48 C56 1.252 1_655 S
O49 Gd10 2.386 . S
O49 C67 1.265 . S
O50 Gd11 2.353 1_655 S
O50 C67 1.242 . S
O51 Gd11 2.468 . S
O51 C75 1.263 . S
O52 Gd11 2.427 . S
O52 C75 1.252 . S
O53 Gd10 2.307 . S
O53 C68 1.261 . S
O54 Gd11 2.388 . S
O54 C68 1.252 1_455 S
C55 O43 1.265 . S
C55 O44 1.242 . S
C56 O47 1.261 . S
C56 O48 1.252 1_455 S
C57 C60 1.394 . S
C57 C62 1.370 . S
C57 C63 1.500 . S
C58 C61 1.383 . S
C58 C62 1.395 . S
C59 C60 1.396 . S
C59 C61 1.365 . S
C59 H76 0.929 . S
C60 C57 1.394 . S
C60 C59 1.396 . S
C60 H77 0.930 . S
C61 C58 1.383 . S
C61 C59 1.365 . S
C61 H78 0.931 . S
C62 C57 1.370 . S
C62 C58 1.395 . S
C62 H79 0.930 . S
C63 Gd10 2.805 . S
C63 O45 1.263 . S
C63 O46 1.252 . S
C63 C57 1.500 . S
C64 H26 0.930 . S
C64 C40 1.417 . S
C64 C65 1.329 . S
C65 C35 1.437 . S
C65 H36 0.929 . S
C65 C64 1.329 . S
H66 C39 0.931 . S
C67 O49 1.265 . S
C67 O50 1.242 . S
C68 O53 1.261 . S
C68 O54 1.252 1_655 S
C69 C72 1.394 . S
C69 C74 1.370 . S
C69 C75 1.500 . S
C70 C73 1.383 . S
C70 C74 1.395 . S
C71 C72 1.396 . S
C71 C73 1.365 . S
C71 H80 0.929 . S
C72 C69 1.394 . S
C72 C71 1.396 . S
C72 H81 0.930 . S
C73 C70 1.383 . S
C73 C71 1.365 . S
C73 H82 0.931 . S
C74 C69 1.370 . S
C74 C70 1.395 . S
C74 H83 0.930 . S
C75 Gd11 2.805 . S
C75 O51 1.263 . S
C75 O52 1.252 . S
C75 C69 1.500 . S
H76 C59 0.929 . S
H77 C60 0.930 . S
H78 C61 0.931 . S
H79 C62 0.930 . S
H80 C71 0.929 . S
H81 C72 0.930 . S
H82 C73 0.931 . S
H83 C74 0.930 . S
C84 C86 1.422 . S
C84 C88 1.415 . S
C84 N90 1.369 . S
C85 C86 1.421 . S
C85 C87 1.417 . S
C85 C97 1.422 . S
C86 C84 1.422 . S
C86 C85 1.421 . S
C86 N96 1.359 . S
C87 C85 1.417 . S
C87 C89 1.329 . S
C87 H106 0.930 . S
C88 C84 1.415 . S
C88 C89 1.437 . S
C88 C92 1.413 . S
C89 C87 1.329 . S
C89 C88 1.437 . S
C89 H111 0.929 . S
N90 C84 1.369 . S
N90 C91 1.338 . S
N90 Gd95 2.622 . S
C91 N90 1.338 . S
C91 C93 1.378 . S
C91 H103 0.929 . S
C92 C88 1.413 . S
C92 C93 1.348 . S
C92 H108 0.931 . S
C93 C91 1.378 . S
C93 C92 1.348 . S
C93 H109 0.930 . S
Gd94 N114 2.622 . S
Gd94 N121 2.570 . S
Gd94 O128 2.353 . S
Gd94 O129 2.468 . S
Gd94 O130 2.427 . S
Gd94 O132 2.388 . S
Gd94 O133 2.386 . S
Gd94 O137 2.307 . S
Gd94 C147 2.805 . S
Gd95 N90 2.622 . S
Gd95 N96 2.570 . S
Gd95 O127 2.386 . S
Gd95 O131 2.307 1_565 S
Gd95 O134 2.353 1_565 S
Gd95 O135 2.468 . S
Gd95 O136 2.427 . S
Gd95 O138 2.388 1_565 S
Gd95 C159 2.805 . S
N96 C86 1.359 . S
N96 Gd95 2.570 . S
N96 C98 1.343 . S
C97 C85 1.422 . S
C97 C99 1.321 . S
C97 H105 0.931 . S
C98 N96 1.343 . S
C98 C99 1.390 . S
C98 H100 0.931 . S
C99 C97 1.321 . S
C99 C98 1.390 . S
C99 H101 0.930 . S
H100 C98 0.931 . S
H101 C99 0.930 . S
H102 C125 0.931 . S
H103 C91 0.929 . S
H104 C126 0.930 . S
H105 C97 0.931 . S
H106 C87 0.930 . S
H107 C116 0.929 . S
H108 C92 0.931 . S
H109 C93 0.930 . S
H110 C148 0.930 1_455 S
H111 C89 0.929 . S
H112 C117 0.931 . S
H113 C118 0.930 . S
N114 Gd94 2.622 . S
N114 C115 1.369 . S
N114 C116 1.338 1_655 S
C115 N114 1.369 . S
C115 C119 1.415 1_655 S
C115 C122 1.422 . S
C116 H107 0.929 . S
C116 N114 1.338 1_455 S
C116 C118 1.378 . S
C117 H112 0.931 . S
C117 C118 1.348 . S
C117 C119 1.413 . S
C118 H113 0.930 . S
C118 C116 1.378 . S
C118 C117 1.348 . S
C119 C115 1.415 1_455 S
C119 C117 1.413 . S
C119 C149 1.437 . S
H120 C149 0.929 . S
N121 Gd94 2.570 . S
N121 C122 1.359 . S
N121 C125 1.343 . S
C122 C115 1.422 . S
C122 N121 1.359 . S
C122 C124 1.421 . S
C123 C124 1.422 . S
C123 C126 1.321 . S
C123 H150 0.931 . S
C124 C122 1.421 . S
C124 C123 1.422 . S
C124 C148 1.417 . S
C125 H102 0.931 . S
C125 N121 1.343 . S
C125 C126 1.390 . S
C126 H104 0.930 . S
C126 C123 1.321 . S
C126 C125 1.390 . S
O127 Gd95 2.386 . S
O127 C139 1.265 1_565 S
O128 Gd94 2.353 . S
O128 C139 1.242 . S
O129 Gd94 2.468 . S
O129 C147 1.263 . S
O130 Gd94 2.427 . S
O130 C147 1.252 . S
O131 Gd95 2.307 1_545 S
O131 C140 1.261 . S
O132 Gd94 2.388 . S
O132 C140 1.252 . S
O133 Gd94 2.386 . S
O133 C151 1.265 . S
O134 Gd95 2.353 1_545 S
O134 C151 1.242 . S
O135 Gd95 2.468 . S
O135 C159 1.263 . S
O136 Gd95 2.427 . S
O136 C159 1.252 . S
O137 Gd94 2.307 . S
O137 C152 1.261 . S
O138 Gd95 2.388 1_545 S
O138 C152 1.252 . S
C139 O127 1.265 1_545 S
C139 O128 1.242 . S
C140 O131 1.261 . S
C140 O132 1.252 . S
C141 C144 1.394 . S
C141 C146 1.370 . S
C141 C147 1.500 . S
C142 C145 1.383 . S
C142 C146 1.395 . S
C143 C144 1.396 . S
C143 C145 1.365 . S
C143 H160 0.929 . S
C144 C141 1.394 . S
C144 C143 1.396 . S
C144 H161 0.930 . S
C145 C142 1.383 . S
C145 C143 1.365 . S
C145 H162 0.931 . S
C146 C141 1.370 . S
C146 C142 1.395 . S
C146 H163 0.930 . S
C147 Gd94 2.805 . S
C147 O129 1.263 . S
C147 O130 1.252 . S
C147 C141 1.500 . S
C148 H110 0.930 1_655 S
C148 C124 1.417 . S
C148 C149 1.329 1_655 S
C149 C119 1.437 . S
C149 H120 0.929 . S
C149 C148 1.329 1_455 S
H150 C123 0.931 . S
C151 O133 1.265 . S
C151 O134 1.242 . S
C152 O137 1.261 . S
C152 O138 1.252 . S
C153 C156 1.394 . S
C153 C158 1.370 . S
C153 C159 1.500 . S
C154 C157 1.383 . S
C154 C158 1.395 . S
C155 C156 1.396 . S
C155 C157 1.365 . S
C155 H164 0.929 . S
C156 C153 1.394 . S
C156 C155 1.396 . S
C156 H165 0.930 . S
C157 C154 1.383 . S
C157 C155 1.365 . S
C157 H166 0.931 . S
C158 C153 1.370 . S
C158 C154 1.395 . S
C158 H167 0.930 . S
C159 Gd95 2.805 . S
C159 O135 1.263 . S
C159 O136 1.252 . S
C159 C153 1.500 . S
H160 C143 0.929 . S
H161 C144 0.930 . S
H162 C145 0.931 . S
H163 C146 0.930 . S
H164 C155 0.929 . S
H165 C156 0.930 . S
H166 C157 0.931 . S
H167 C158 0.930 . S
C168 C170 1.422 . S
C168 C172 1.415 . S
C168 N174 1.369 . S
C169 C170 1.421 . S
C169 C171 1.417 . S
C169 C181 1.422 . S
C170 C168 1.422 . S
C170 C169 1.421 . S
C170 N180 1.359 . S
C171 C169 1.417 . S
C171 C173 1.329 . S
C171 H190 0.930 . S
C172 C168 1.415 . S
C172 C173 1.437 . S
C172 C176 1.413 . S
C173 C171 1.329 . S
C173 C172 1.437 . S
C173 H195 0.929 . S
N174 C168 1.369 . S
N174 C175 1.338 . S
N174 Gd179 2.622 . S
C175 N174 1.338 . S
C175 C177 1.378 . S
C175 H187 0.929 . S
C176 C172 1.413 . S
C176 C177 1.348 . S
C176 H192 0.931 . S
C177 C175 1.378 . S
C177 C176 1.348 . S
C177 H193 0.930 . S
Gd178 N198 2.622 . S
Gd178 N205 2.570 . S
Gd178 O212 2.353 . S
Gd178 O213 2.468 . S
Gd178 O214 2.427 . S
Gd178 O216 2.388 . S
Gd178 O217 2.386 . S
Gd178 O221 2.307 . S
Gd178 C231 2.805 . S
Gd179 N174 2.622 . S
Gd179 N180 2.570 . S
Gd179 O211 2.386 . S
Gd179 O215 2.307 . S
Gd179 O218 2.353 . S
Gd179 O219 2.468 . S
Gd179 O220 2.427 . S
Gd179 O222 2.388 . S
Gd179 C243 2.805 . S
N180 C170 1.359 . S
N180 Gd179 2.570 . S
N180 C182 1.343 . S
C181 C169 1.422 . S
C181 C183 1.321 . S
C181 H189 0.931 . S
C182 N180 1.343 . S
C182 C183 1.390 . S
C182 H184 0.931 . S
C183 C181 1.321 . S
C183 C182 1.390 . S
C183 H185 0.930 . S
H184 C182 0.931 . S
H185 C183 0.930 . S
H186 C209 0.931 . S
H187 C175 0.929 . S
H188 C210 0.930 . S
H189 C181 0.931 . S
H190 C171 0.930 . S
H191 C200 0.929 . S
H192 C176 0.931 . S
H193 C177 0.930 . S
H194 C232 0.930 . S
H195 C173 0.929 . S
H196 C201 0.931 . S
H197 C202 0.930 . S
N198 Gd178 2.622 . S
N198 C199 1.369 . S
N198 C200 1.338 . S
C199 N198 1.369 . S
C199 C203 1.415 . S
C199 C206 1.422 . S
C200 H191 0.929 . S
C200 N198 1.338 . S
C200 C202 1.378 1_545 S
C201 H196 0.931 . S
C201 C202 1.348 . S
C201 C203 1.413 1_565 S
C202 H197 0.930 . S
C202 C200 1.378 1_565 S
C202 C201 1.348 . S
C203 C199 1.415 . S
C203 C201 1.413 1_545 S
C203 C233 1.437 . S
H204 C233 0.929 1_565 S
N205 Gd178 2.570 . S
N205 C206 1.359 . S
N205 C209 1.343 . S
C206 C199 1.422 . S
C206 N205 1.359 . S
C206 C208 1.421 . S
C207 C208 1.422 1_455 S
C207 C210 1.321 . S
C207 H234 0.931 . S
C208 C206 1.421 . S
C208 C207 1.422 1_655 S
C208 C232 1.417 . S
C209 H186 0.931 . S
C209 N205 1.343 . S
C209 C210 1.390 1_655 S
C210 H188 0.930 . S
C210 C207 1.321 . S
C210 C209 1.390 1_455 S
O211 Gd179 2.386 . S
O211 C223 1.265 . S
O212 Gd178 2.353 . S
O212 C223 1.242 . S
O213 Gd178 2.468 . S
O213 C231 1.263 . S
O214 Gd178 2.427 . S
O214 C231 1.252 . S
O215 Gd179 2.307 . S
O215 C224 1.261 . S
O216 Gd178 2.388 . S
O216 C224 1.252 . S
O217 Gd178 2.386 . S
O217 C235 1.265 . S
O218 Gd179 2.353 . S
O218 C235 1.242 . S
O219 Gd179 2.468 . S
O219 C243 1.263 . S
O220 Gd179 2.427 . S
O220 C243 1.252 . S
O221 Gd178 2.307 . S
O221 C236 1.261 . S
O222 Gd179 2.388 . S
O222 C236 1.252 . S
C223 O211 1.265 . S
C223 O212 1.242 . S
C224 O215 1.261 . S
C224 O216 1.252 . S
C225 C228 1.394 . S
C225 C230 1.370 . S
C225 C231 1.500 . S
C226 C229 1.383 . S
C226 C230 1.395 . S
C227 C228 1.396 . S
C227 C229 1.365 . S
C227 H244 0.929 . S
C228 C225 1.394 . S
C228 C227 1.396 . S
C228 H245 0.930 . S
C229 C226 1.383 . S
C229 C227 1.365 . S
C229 H246 0.931 . S
C230 C225 1.370 . S
C230 C226 1.395 . S
C230 H247 0.930 . S
C231 Gd178 2.805 . S
C231 O213 1.263 . S
C231 O214 1.252 . S
C231 C225 1.500 . S
C232 H194 0.930 . S
C232 C208 1.417 . S
C232 C233 1.329 . S
C233 C203 1.437 . S
C233 H204 0.929 1_545 S
C233 C232 1.329 . S
H234 C207 0.931 . S
C235 O217 1.265 . S
C235 O218 1.242 . S
C236 O221 1.261 . S
C236 O222 1.252 . S
C237 C240 1.394 . S
C237 C242 1.370 . S
C237 C243 1.500 . S
C238 C241 1.383 . S
C238 C242 1.395 . S
C239 C240 1.396 . S
C239 C241 1.365 . S
C239 H248 0.929 . S
C240 C237 1.394 . S
C240 C239 1.396 . S
C240 H249 0.930 . S
C241 C238 1.383 . S
C241 C239 1.365 . S
C241 H250 0.931 . S
C242 C237 1.370 . S
C242 C238 1.395 . S
C242 H251 0.930 . S
C243 Gd179 2.805 . S
C243 O219 1.263 . S
C243 O220 1.252 . S
C243 C237 1.500 . S
H244 C227 0.929 . S
H245 C228 0.930 . S
H246 C229 0.931 . S
H247 C230 0.930 . S
H248 C239 0.929 . S
H249 C240 0.930 . S
H250 C241 0.931 . S
H251 C242 0.930 . S
H252 C253 0.951 . S
C253 H252 0.951 . S
C253 C259 1.265 1_455 S
H254 C259 0.950 . S
H255 C263 0.949 1_545 S
H256 C264 0.950 . S
H257 C265 0.951 . S
H258 C266 0.951 . S
C259 C253 1.265 1_655 S
C259 H254 0.950 . S
C259 C260 1.478 . S
C260 C259 1.478 . S
C260 C261 1.397 . S
C260 C277 1.394 1_655 S
C261 C260 1.397 . S
C261 C262 1.438 . S
C261 C266 1.429 . S
C262 C261 1.438 . S
C262 C263 1.428 . S
C262 C275 1.394 1_665 S
C263 H255 0.949 1_565 S
C263 C262 1.428 . S
C263 C264 1.345 . S
C264 H256 0.950 . S
C264 C263 1.345 . S
C264 C265 1.424 . S
C265 H257 0.951 . S
C265 C264 1.424 . S
C265 C266 1.347 . S
C266 H258 0.951 . S
C266 C261 1.429 . S
C266 C265 1.347 . S
H267 C268 0.951 . S
C268 H267 0.951 . S
C268 C274 1.265 1_655 S
H269 C274 0.950 . S
H270 C278 0.949 . S
H271 C279 0.950 . S
H272 C280 0.951 . S
H273 C281 0.951 . S
C274 C268 1.265 1_455 S
C274 H269 0.950 . S
C274 C275 1.478 . S
C275 C262 1.394 1_445 S
C275 C274 1.478 . S
C275 C276 1.397 . S
C276 C275 1.397 . S
C276 C277 1.438 1_545 S
C276 C281 1.429 . S
C277 C260 1.394 1_455 S
C277 C276 1.438 1_565 S
C277 C278 1.428 . S
C278 H270 0.949 . S
C278 C277 1.428 . S
C278 C279 1.345 . S
C279 H271 0.950 . S
C279 C278 1.345 . S
C279 C280 1.424 1_565 S
C280 H272 0.951 . S
C280 C279 1.424 1_545 S
C280 C281 1.347 . S
C281 H273 0.951 . S
C281 C276 1.429 . S
C281 C280 1.347 . S
H282 C283 0.951 . S
C283 H282 0.951 . S
C283 C289 1.265 . S
H284 C289 0.950 . S
H285 C293 0.949 . S
H286 C294 0.950 . S
H287 C295 0.951 . S
H288 C296 0.951 . S
C289 C283 1.265 . S
C289 H284 0.950 . S
C289 C290 1.478 . S
C290 C289 1.478 . S
C290 C291 1.397 . S
C290 C307 1.394 . S
C291 C290 1.397 . S
C291 C292 1.438 . S
C291 C296 1.429 . S
C292 C291 1.438 . S
C292 C293 1.428 . S
C292 C305 1.394 . S
C293 H285 0.949 . S
C293 C292 1.428 . S
C293 C294 1.345 . S
C294 H286 0.950 . S
C294 C293 1.345 . S
C294 C295 1.424 . S
C295 H287 0.951 . S
C295 C294 1.424 . S
C295 C296 1.347 . S
C296 H288 0.951 . S
C296 C291 1.429 . S
C296 C295 1.347 . S
H297 C298 0.951 . S
C298 H297 0.951 . S
C298 C304 1.265 1_655 S
H299 C304 0.950 1_655 S
H300 C308 0.949 . S
H301 C309 0.950 . S
H302 C310 0.951 . S
H303 C311 0.951 1_655 S
C304 C298 1.265 1_455 S
C304 H299 0.950 1_455 S
C304 C305 1.478 . S
C305 C292 1.394 . S
C305 C304 1.478 . S
C305 C306 1.397 . S
C306 C305 1.397 . S
C306 C307 1.438 . S
C306 C311 1.429 1_545 S
C307 C290 1.394 . S
C307 C306 1.438 . S
C307 C308 1.428 1_545 S
C308 H300 0.949 . S
C308 C307 1.428 1_565 S
C308 C309 1.345 . S
C309 H301 0.950 . S
C309 C308 1.345 . S
C309 C310 1.424 . S
C310 H302 0.951 . S
C310 C309 1.424 . S
C310 C311 1.347 . S
C311 H303 0.951 1_455 S
C311 C306 1.429 1_565 S
C311 C310 1.347 . S
H312 C313 0.951 1_455 S
C313 H312 0.951 1_655 S
C313 C319 1.265 . S
H314 C319 0.950 . S
H315 C323 0.949 . S
H316 C324 0.950 . S
H317 C325 0.951 . S
H318 C326 0.943 1_655 S
C319 C313 1.265 . S
C319 H314 0.950 . S
C319 C320 1.478 1_655 S
C320 C319 1.478 1_455 S
C320 C321 1.397 . S
C320 C337 1.394 . S
C321 C320 1.397 . S
C321 C322 1.438 . S
C321 C326 1.429 . S
C322 C321 1.438 . S
C322 C323 1.428 1_565 S
C322 C335 1.394 1_565 S
C323 H315 0.949 . S
C323 C322 1.428 1_545 S
C323 C324 1.345 . S
C324 H316 0.950 . S
C324 C323 1.345 . S
C324 C325 1.424 1_545 S
C325 H317 0.951 . S
C325 C324 1.424 1_565 S
C325 C326 1.347 . S
C326 H318 0.943 1_455 S
C326 C321 1.429 . S
C326 C325 1.347 . S
H327 C328 0.951 . S
C328 H327 0.951 . S
C328 C334 1.265 . S
H329 C334 0.950 . S
H330 C338 0.949 . S
H331 C339 0.950 . S
H332 C340 0.951 . S
H333 C341 0.951 1_545 S
C334 C328 1.265 . S
C334 H329 0.950 . S
C334 C335 1.478 . S
C335 C322 1.394 1_545 S
C335 C334 1.478 . S
C335 C336 1.397 1_545 S
C336 C335 1.397 1_565 S
C336 C337 1.438 . S
C336 C341 1.429 . S
C337 C320 1.394 . S
C337 C336 1.438 . S
C337 C338 1.428 . S
C338 H330 0.949 . S
C338 C337 1.428 . S
C338 C339 1.345 . S
C339 H331 0.950 . S
C339 C338 1.345 . S
C339 C340 1.424 . S
C340 H332 0.951 . S
C340 C339 1.424 . S
C340 C341 1.347 . S
C341 H333 0.951 1_565 S
C341 C336 1.429 . S
C341 C340 1.347 . S
H342 C343 0.951 . S
C343 H342 0.951 . S
C343 C349 1.265 . S
H344 C349 0.950 . S
H345 C353 0.949 . S
H346 C354 0.950 . S
H347 C355 0.951 . S
H348 C356 0.951 . S
C349 C343 1.265 . S
C349 H344 0.950 . S
C349 C350 1.478 1_556 S
C350 C349 1.478 1_554 S
C350 C351 1.397 . S
C350 C367 1.394 . S
C351 C350 1.397 . S
C351 C352 1.438 . S
C351 C356 1.429 . S
C352 C351 1.438 . S
C352 C353 1.428 . S
C352 C365 1.394 . S
C353 H345 0.949 . S
C353 C352 1.428 . S
C353 C354 1.345 . S
C354 H346 0.950 . S
C354 C353 1.345 . S
C354 C355 1.424 . S
C355 H347 0.951 . S
C355 C354 1.424 . S
C355 C356 1.347 . S
C356 H348 0.951 . S
C356 C351 1.429 . S
C356 C355 1.347 . S
H357 C358 0.951 . S
C358 H357 0.951 . S
C358 C364 1.265 . S
H359 C364 0.950 . S
H360 C368 0.949 1_556 S
H361 C369 0.950 . S
H362 C370 0.951 . S
H363 C371 0.951 . S
C364 C358 1.265 . S
C364 H359 0.950 . S
C364 C365 1.478 . S
C365 C352 1.394 . S
C365 C364 1.478 . S
C365 C366 1.397 . S
C366 C365 1.397 . S
C366 C367 1.438 . S
C366 C371 1.429 . S
C367 C350 1.394 . S
C367 C366 1.438 . S
C367 C368 1.428 . S
C368 H360 0.949 1_554 S
C368 C367 1.428 . S
C368 C369 1.345 . S
C369 H361 0.950 . S
C369 C368 1.345 . S
C369 C370 1.424 . S
C370 H362 0.951 . S
C370 C369 1.424 . S
C370 C371 1.347 . S
C371 H363 0.951 . S
C371 C366 1.429 . S
C371 C370 1.347 . S
H372 C373 0.951 . S
C373 H372 0.951 . S
C373 C379 1.265 . S
H374 C379 0.950 . S
H375 C383 0.949 . S
H376 C384 0.950 . S
H377 C385 0.951 . S
H378 C386 0.951 . S
C379 C373 1.265 . S
C379 H374 0.950 . S
C379 C380 1.478 . S
C380 C379 1.478 . S
C380 C381 1.397 . S
C380 C397 1.394 . S
C381 C380 1.397 . S
C381 C382 1.438 . S
C381 C386 1.429 . S
C382 C381 1.438 . S
C382 C383 1.428 . S
C382 C395 1.394 . S
C383 H375 0.949 . S
C383 C382 1.428 . S
C383 C384 1.345 . S
C384 H376 0.950 . S
C384 C383 1.345 . S
C384 C385 1.424 . S
C385 H377 0.951 . S
C385 C384 1.424 . S
C385 C386 1.347 . S
C386 H378 0.951 . S
C386 C381 1.429 . S
C386 C385 1.347 . S
H387 C388 0.951 . S
C388 H387 0.951 . S
C388 C394 1.265 . S
H389 C394 0.950 . S
H390 C398 0.949 . S
H391 C399 0.950 . S
H392 C400 0.951 . S
H393 C401 0.951 . S
C394 C388 1.265 . S
C394 H389 0.950 . S
C394 C395 1.478 . S
C395 C382 1.394 . S
C395 C394 1.478 . S
C395 C396 1.397 . S
C396 C395 1.397 . S
C396 C397 1.438 . S
C396 C401 1.429 . S
C397 C380 1.394 . S
C397 C396 1.438 . S
C397 C398 1.428 . S
C398 H390 0.949 . S
C398 C397 1.428 . S
C398 C399 1.345 . S
C399 H391 0.950 . S
C399 C398 1.345 . S
C399 C400 1.424 . S
C400 H392 0.951 . S
C400 C399 1.424 . S
C400 C401 1.347 . S
C401 H393 0.951 . S
C401 C396 1.429 . S
C401 C400 1.347 . S
H402 C403 0.951 . S
C403 H402 0.951 . S
C403 C409 1.265 . S
H404 C409 0.950 . S
H405 C413 0.949 . S
H406 C414 0.950 . S
H407 C415 0.951 . S
H408 C416 0.951 . S
C409 C403 1.265 . S
C409 H404 0.950 . S
C409 C410 1.478 . S
C410 C409 1.478 . S
C410 C411 1.397 . S
C410 C427 1.394 . S
C411 C410 1.397 . S
C411 C412 1.438 . S
C411 C416 1.429 . S
C412 C411 1.438 . S
C412 C413 1.428 . S
C412 C425 1.394 . S
C413 H405 0.949 . S
C413 C412 1.428 . S
C413 C414 1.345 . S
C414 H406 0.950 . S
C414 C413 1.345 . S
C414 C415 1.424 . S
C415 H407 0.951 . S
C415 C414 1.424 . S
C415 C416 1.347 . S
C416 H408 0.951 . S
C416 C411 1.429 . S
C416 C415 1.347 . S
H417 C418 0.951 . S
C418 H417 0.951 . S
C418 C424 1.265 . S
H419 C424 0.950 . S
H420 C428 0.949 . S
H421 C429 0.950 . S
H422 C430 0.951 . S
H423 C431 0.951 . S
C424 C418 1.265 . S
C424 H419 0.950 . S
C424 C425 1.478 . S
C425 C412 1.394 . S
C425 C424 1.478 . S
C425 C426 1.397 . S
C426 C425 1.397 . S
C426 C427 1.438 . S
C426 C431 1.429 . S
C427 C410 1.394 . S
C427 C426 1.438 . S
C427 C428 1.428 . S
C428 H420 0.949 . S
C428 C427 1.428 . S
C428 C429 1.345 . S
C429 H421 0.950 . S
C429 C428 1.345 . S
C429 C430 1.424 . S
C430 H422 0.951 . S
C430 C429 1.424 . S
C430 C431 1.347 . S
C431 H423 0.951 . S
C431 C426 1.429 . S
C431 C430 1.347 . S
H432 C433 0.951 . S
C433 H432 0.951 . S
C433 C439 1.265 . S
H434 C439 0.950 . S
H435 C443 0.949 . S
H436 C444 0.950 . S
H437 C445 0.951 1_565 S
H438 C446 0.951 . S
C439 C433 1.265 . S
C439 H434 0.950 . S
C439 C440 1.478 . S
C440 C439 1.478 . S
C440 C441 1.397 . S
C440 C457 1.394 . S
C441 C440 1.397 . S
C441 C442 1.438 . S
C441 C446 1.429 . S
C442 C441 1.438 . S
C442 C443 1.428 . S
C442 C455 1.394 . S
C443 H435 0.949 . S
C443 C442 1.428 . S
C443 C444 1.345 1_545 S
C444 H436 0.950 . S
C444 C443 1.345 1_565 S
C444 C445 1.424 1_565 S
C445 H437 0.951 1_545 S
C445 C444 1.424 1_545 S
C445 C446 1.347 . S
C446 H438 0.951 . S
C446 C441 1.429 . S
C446 C445 1.347 . S
H447 C448 0.951 . S
C448 H447 0.951 . S
C448 C454 1.265 . S
H449 C454 0.950 . S
H450 C458 0.949 . S
H451 C459 0.950 . S
H452 C460 0.960 . S
H453 C461 0.951 1_554 S
C454 C448 1.265 . S
C454 H449 0.950 . S
C454 C455 1.478 1_554 S
C455 C442 1.394 . S
C455 C454 1.478 1_556 S
C455 C456 1.397 . S
C456 C455 1.397 . S
C456 C457 1.438 . S
C456 C461 1.429 . S
C457 C440 1.394 . S
C457 C456 1.438 . S
C457 C458 1.428 . S
C458 H450 0.949 . S
C458 C457 1.428 . S
C458 C459 1.345 . S
C459 H451 0.950 . S
C459 C458 1.345 . S
C459 C460 1.424 . S
C460 H452 0.960 . S
C460 C459 1.424 . S
C460 C461 1.347 . S
C461 H453 0.951 1_556 S
C461 C456 1.429 . S
C461 C460 1.347 . S
H462 C463 0.951 . S
C463 H462 0.951 . S
C463 C469 1.265 . S
H464 C469 0.950 . S
H465 C473 0.949 . S
H466 C474 0.950 . S
H467 C475 0.951 . S
H468 C476 0.952 . S
C469 C463 1.265 . S
C469 H464 0.950 . S
C469 C470 1.478 . S
C470 C469 1.478 . S
C470 C471 1.397 . S
C470 C487 1.394 . S
C471 C470 1.397 . S
C471 C472 1.438 . S
C471 C476 1.429 1_565 S
C472 C471 1.438 . S
C472 C473 1.428 1_565 S
C472 C485 1.394 . S
C473 H465 0.949 . S
C473 C472 1.428 1_545 S
C473 C474 1.345 . S
C474 H466 0.950 . S
C474 C473 1.345 . S
C474 C475 1.424 . S
C475 H467 0.951 . S
C475 C474 1.424 . S
C475 C476 1.347 . S
C476 H468 0.952 . S
C476 C471 1.429 1_545 S
C476 C475 1.347 . S
H477 C478 0.951 1_545 S
C478 H477 0.951 1_565 S
C478 C484 1.265 . S
H479 C484 0.950 . S
H480 C488 0.949 . S
H481 C489 0.950 . S
H482 C490 0.951 . S
H483 C491 0.951 . S
C484 C478 1.265 . S
C484 H479 0.950 . S
C484 C485 1.478 . S
C485 C472 1.394 . S
C485 C484 1.478 . S
C485 C486 1.397 . S
C486 C485 1.397 . S
C486 C487 1.438 . S
C486 C491 1.429 . S
C487 C470 1.394 . S
C487 C486 1.438 . S
C487 C488 1.428 . S
C488 H480 0.949 . S
C488 C487 1.428 . S
C488 C489 1.345 . S
C489 H481 0.950 . S
C489 C488 1.345 . S
C489 C490 1.424 . S
C490 H482 0.951 . S
C490 C489 1.424 . S
C490 C491 1.347 . S
C491 H483 0.951 . S
C491 C486 1.429 . S
C491 C490 1.347 . S
H492 C493 0.951 1_455 S
C493 H492 0.951 1_655 S
C493 C499 1.265 . S
H494 C499 0.950 . S
H495 C503 0.949 . S
H496 C504 0.950 . S
H497 C505 0.951 . S
H498 C506 0.951 . S
C499 C493 1.265 . S
C499 H494 0.950 . S
C499 C500 1.478 . S
C500 C499 1.478 . S
C500 C501 1.397 . S
C500 C517 1.394 . S
C501 C500 1.397 . S
C501 C502 1.438 . S
C501 C506 1.429 . S
C502 C501 1.438 . S
C502 C503 1.428 . S
C502 C515 1.394 . S
C503 H495 0.949 . S
C503 C502 1.428 . S
C503 C504 1.345 . S
C504 H496 0.950 . S
C504 C503 1.345 . S
C504 C505 1.424 . S
C505 H497 0.951 . S
C505 C504 1.424 . S
C505 C506 1.347 . S
C506 H498 0.951 . S
C506 C501 1.429 . S
C506 C505 1.347 . S
H507 C508 0.951 . S
C508 H507 0.951 . S
C508 C514 1.265 . S
H509 C514 0.950 . S
H510 C518 0.949 . S
H511 C519 0.950 . S
H512 C520 0.951 1_455 S
H513 C521 0.951 . S
C514 C508 1.265 . S
C514 H509 0.950 . S
C514 C515 1.478 . S
C515 C502 1.394 . S
C515 C514 1.478 . S
C515 C516 1.397 . S
C516 C515 1.397 . S
C516 C517 1.438 . S
C516 C521 1.429 . S
C517 C500 1.394 . S
C517 C516 1.438 . S
C517 C518 1.428 . S
C518 H510 0.949 . S
C518 C517 1.428 . S
C518 C519 1.345 1_655 S
C519 H511 0.950 . S
C519 C518 1.345 1_455 S
C519 C520 1.424 1_455 S
C520 H512 0.951 1_655 S
C520 C519 1.424 1_655 S
C520 C521 1.347 . S
C521 H513 0.951 . S
C521 C516 1.429 . S
C521 C520 1.347 . S
C253 C56 1.544 . S
C268 C68 1.544 . S
C283 C152 1.560 . S
C298 C140 1.560 . S
C313 C236 1.537 . S
C328 C224 1.537 . S
C343 C238 1.390 . S
C358 C55 1.569 . S
C373 C142 1.084 . S
C388 C67 1.311 . S
C403 C223 1.569 . S
C418 C154 1.389 . S
C433 C235 1.392 . S
C448 C58 0.953 . S
C463 C70 1.433 . S
C478 C139 1.593 1_565 S
C493 C226 1.120 . S
C508 C151 1.365 . S
