# Generated by pormake.
# Topology fob, (5)-cn, num edge types: 1
# Building blocks:
#     Node 0, Type 0, BuildingBlock: XOMCOT_clean_sbu_0, # of connection points: 5
#     Node 1, Type 0, BuildingBlock: XOMCOT_clean_sbu_0, # of connection points: 5
#     Node 2, Type 0, BuildingBlock: XOMCOT_clean_sbu_0, # of connection points: 5
#     Node 3, Type 0, BuildingBlock: XOMCOT_clean_sbu_0, # of connection points: 5
#     Node 4, Type 0, BuildingBlock: XOMCOT_clean_sbu_0, # of connection points: 5
#     Node 5, Type 0, BuildingBlock: XOMCOT_clean_sbu_0, # of connection points: 5
#     Node 6, Type 0, BuildingBlock: XOMCOT_clean_sbu_0, # of connection points: 5
#     Node 7, Type 0, BuildingBlock: XOMCOT_clean_sbu_0, # of connection points: 5
#     Node 8, Type 0, BuildingBlock: XOMCOT_clean_sbu_0, # of connection points: 5
#     Node 9, Type 0, BuildingBlock: XOMCOT_clean_sbu_0, # of connection points: 5
#     Node 10, Type 0, BuildingBlock: XOMCOT_clean_sbu_0, # of connection points: 5
#     Node 11, Type 0, BuildingBlock: XOMCOT_clean_sbu_0, # of connection points: 5
#     Node 12, Type 0, BuildingBlock: XOMCOT_clean_sbu_0, # of connection points: 5
#     Node 13, Type 0, BuildingBlock: XOMCOT_clean_sbu_0, # of connection points: 5
#     Node 14, Type 0, BuildingBlock: XOMCOT_clean_sbu_0, # of connection points: 5
#     Node 15, Type 0, BuildingBlock: XOMCOT_clean_sbu_0, # of connection points: 5
#     Edge 16, Type (0, 0), BuildingBlock: CIFDUS_clean_linker_0, # of connection points: 2
#     Edge 17, Type (0, 0), BuildingBlock: CIFDUS_clean_linker_0, # of connection points: 2
#     Edge 18, Type (0, 0), BuildingBlock: CIFDUS_clean_linker_0, # of connection points: 2
#     Edge 19, Type (0, 0), BuildingBlock: CIFDUS_clean_linker_0, # of connection points: 2
#     Edge 20, Type (0, 0), BuildingBlock: CIFDUS_clean_linker_0, # of connection points: 2
#     Edge 21, Type (0, 0), BuildingBlock: CIFDUS_clean_linker_0, # of connection points: 2
#     Edge 22, Type (0, 0), BuildingBlock: CIFDUS_clean_linker_0, # of connection points: 2
#     Edge 23, Type (0, 0), BuildingBlock: CIFDUS_clean_linker_0, # of connection points: 2
#     Edge 24, Type (0, 0), BuildingBlock: CIFDUS_clean_linker_0, # of connection points: 2
#     Edge 25, Type (0, 0), BuildingBlock: CIFDUS_clean_linker_0, # of connection points: 2
#     Edge 26, Type (0, 0), BuildingBlock: CIFDUS_clean_linker_0, # of connection points: 2
#     Edge 27, Type (0, 0), BuildingBlock: CIFDUS_clean_linker_0, # of connection points: 2
#     Edge 28, Type (0, 0), BuildingBlock: CIFDUS_clean_linker_0, # of connection points: 2
#     Edge 29, Type (0, 0), BuildingBlock: CIFDUS_clean_linker_0, # of connection points: 2
#     Edge 30, Type (0, 0), BuildingBlock: CIFDUS_clean_linker_0, # of connection points: 2
#     Edge 31, Type (0, 0), BuildingBlock: CIFDUS_clean_linker_0, # of connection points: 2
#     Edge 32, Type (0, 0), BuildingBlock: CIFDUS_clean_linker_0, # of connection points: 2
#     Edge 33, Type (0, 0), BuildingBlock: CIFDUS_clean_linker_0, # of connection points: 2
#     Edge 34, Type (0, 0), BuildingBlock: CIFDUS_clean_linker_0, # of connection points: 2
#     Edge 35, Type (0, 0), BuildingBlock: CIFDUS_clean_linker_0, # of connection points: 2
#     Edge 36, Type (0, 0), BuildingBlock: CIFDUS_clean_linker_0, # of connection points: 2
#     Edge 37, Type (0, 0), BuildingBlock: CIFDUS_clean_linker_0, # of connection points: 2
#     Edge 38, Type (0, 0), BuildingBlock: CIFDUS_clean_linker_0, # of connection points: 2
#     Edge 39, Type (0, 0), BuildingBlock: CIFDUS_clean_linker_0, # of connection points: 2
#     Edge 40, Type (0, 0), BuildingBlock: CIFDUS_clean_linker_0, # of connection points: 2
#     Edge 41, Type (0, 0), BuildingBlock: CIFDUS_clean_linker_0, # of connection points: 2
#     Edge 42, Type (0, 0), BuildingBlock: CIFDUS_clean_linker_0, # of connection points: 2
#     Edge 43, Type (0, 0), BuildingBlock: CIFDUS_clean_linker_0, # of connection points: 2
#     Edge 44, Type (0, 0), BuildingBlock: CIFDUS_clean_linker_0, # of connection points: 2
#     Edge 45, Type (0, 0), BuildingBlock: CIFDUS_clean_linker_0, # of connection points: 2
#     Edge 46, Type (0, 0), BuildingBlock: CIFDUS_clean_linker_0, # of connection points: 2
#     Edge 47, Type (0, 0), BuildingBlock: CIFDUS_clean_linker_0, # of connection points: 2
#     Edge 48, Type (0, 0), BuildingBlock: CIFDUS_clean_linker_0, # of connection points: 2
#     Edge 49, Type (0, 0), BuildingBlock: CIFDUS_clean_linker_0, # of connection points: 2
#     Edge 50, Type (0, 0), BuildingBlock: CIFDUS_clean_linker_0, # of connection points: 2
#     Edge 51, Type (0, 0), BuildingBlock: CIFDUS_clean_linker_0, # of connection points: 2
#     Edge 52, Type (0, 0), BuildingBlock: CIFDUS_clean_linker_0, # of connection points: 2
#     Edge 53, Type (0, 0), BuildingBlock: CIFDUS_clean_linker_0, # of connection points: 2
#     Edge 54, Type (0, 0), BuildingBlock: CIFDUS_clean_linker_0, # of connection points: 2
#     Edge 55, Type (0, 0), BuildingBlock: CIFDUS_clean_linker_0, # of connection points: 2
# Relax obj value: 0.072
# Max RMSD: 0.137
# Mean RMSD: 0.137
data_MOF--net-fob--node1-XOMCOT_clean_sbu_0--edge1-CIFDUS_clean_linker_0
_symmetry_space_group_name_H-M    P1
_symmetry_Int_Tables_number       1
_symmetry_cell_setting            triclinic
loop_
_symmetry_equiv_pos_as_xyz
'x, y, z'
_cell_length_a     23.849295
_cell_length_b     57.940554
_cell_length_c     44.190257
_cell_angle_alpha  100.05062
_cell_angle_beta   89.696061
_cell_angle_gamma 90.031602
loop_
_atom_site_label
_atom_site_type_symbol
_atom_site_fract_x
_atom_site_fract_y
_atom_site_fract_z
_atom_type_partial_charge
Co0 Co 0.12951 0.14143 0.4643 0.0
C1 C 0.07571 0.09761 0.47513 0.0
C2 C 0.16326 0.09288 0.46408 0.0
C3 C 0.14181 0.07195 0.46952 0.0
N4 N 0.12174 0.10885 0.46744 0.0
N5 N 0.08678 0.07492 0.47646 0.0
H6 H 0.03514 0.1059 0.47961 0.0
H7 H 0.2064 0.09635 0.4587 0.0
C8 C 0.19448 0.13904 0.4052 0.0
O9 O 0.15606 0.15137 0.39405 0.0
N10 N 0.1393 0.17447 0.46102 0.0
C11 C 0.11301 0.18697 0.44216 0.0
C12 C 0.13737 0.20865 0.44474 0.0
C13 C 0.18003 0.18897 0.47447 0.0
N14 N 0.17963 0.20996 0.46504 0.0
C15 C 0.019 0.15114 0.44627 0.0
C16 C 0.01722 0.12084 0.39063 0.0
C17 C 0.97064 0.13556 0.39903 0.0
C18 C 0.97198 0.15055 0.42762 0.0
C19 C 0.06413 0.1223 0.40992 0.0
N20 N 0.06566 0.13829 0.43656 0.0
H21 H 0.01925 0.16315 0.46792 0.0
H22 H 0.09924 0.11068 0.40341 0.0
H23 H 0.08102 0.18064 0.42566 0.0
H24 H 0.21043 0.18408 0.49025 0.0
O25 O 0.08886 0.15005 0.50244 0.0
O26 O 0.18086 0.14499 0.49854 0.0
O27 O 0.18741 0.13266 0.43112 0.0
C28 C 0.13694 0.14974 0.51611 0.0
H29 H 0.16539 0.05596 0.46923 0.0
H30 H 0.12673 0.22186 0.43118 0.0
H31 H 0.01756 0.10827 0.36941 0.0
H32 H 0.93787 0.16247 0.43535 0.0
Co33 Co 0.09072 0.1489 0.74552 0.0
C34 C 0.04405 0.19671 0.75142 0.0
C35 C 0.12855 0.19715 0.76799 0.0
C36 C 0.11115 0.21993 0.76892 0.0
N37 N 0.08645 0.18263 0.75702 0.0
N38 N 0.05811 0.21965 0.75831 0.0
H39 H 0.00489 0.19022 0.74097 0.0
H40 H 0.16985 0.1916 0.77373 0.0
C41 C 0.15135 0.13608 0.79986 0.0
O42 O 0.11179 0.12081 0.80274 0.0
N43 N 0.09633 0.11483 0.73297 0.0
C44 C 0.06098 0.10085 0.71423 0.0
C45 C 0.08232 0.07855 0.708 0.0
C46 C 0.14035 0.10073 0.73647 0.0
N47 N 0.13236 0.07838 0.72194 0.0
C48 C 0.9798 0.13592 0.76035 0.0
C49 C 0.98097 0.15378 0.82244 0.0
C50 C 0.93329 0.14155 0.80976 0.0
C51 C 0.93289 0.13313 0.77813 0.0
C52 C 0.02756 0.15615 0.80357 0.0
N53 N 0.02776 0.146 0.77318 0.0
H54 H 0.97635 0.1306 0.73597 0.0
H55 H 0.06338 0.16609 0.81343 0.0
H56 H 0.02373 0.10642 0.70383 0.0
H57 H 0.17878 0.10686 0.748 0.0
O58 O 0.04794 0.15082 0.70937 0.0
O59 O 0.14069 0.15251 0.71179 0.0
O60 O 0.14907 0.14832 0.7785 0.0
C61 C 0.09531 0.15295 0.69555 0.0
H62 H 0.13617 0.23547 0.77625 0.0
H63 H 0.06265 0.06373 0.69371 0.0
H64 H 0.98249 0.16124 0.84666 0.0
H65 H 0.89592 0.12484 0.76693 0.0
Co66 Co 0.87499 0.89536 0.50587 0.0
C67 C 0.92629 0.94136 0.50587 0.0
C68 C 0.83838 0.94466 0.51635 0.0
C69 C 0.85923 0.96646 0.51381 0.0
N70 N 0.88061 0.92904 0.51138 0.0
N71 N 0.91446 0.96429 0.50697 0.0
H72 H 0.96693 0.93344 0.50021 0.0
H73 H 0.79503 0.94033 0.51999 0.0
C74 C 0.8111 0.88917 0.56168 0.0
O75 O 0.85086 0.87471 0.56698 0.0
N76 N 0.86761 0.8612 0.49879 0.0
C77 C 0.90114 0.84568 0.48079 0.0
C78 C 0.87672 0.82396 0.47637 0.0
C79 C 0.82162 0.84854 0.50364 0.0
N80 N 0.82662 0.82562 0.49084 0.0
C81 C 0.97863 0.88152 0.53021 0.0
C82 C 0.97604 0.91368 0.58428 0.0
C83 C 0.0233 0.89922 0.57761 0.0
C84 C 0.02353 0.88271 0.55036 0.0
C85 C 0.93127 0.91156 0.56365 0.0
N86 N 0.93257 0.89539 0.53707 0.0
H87 H 0.98252 0.87005 0.50852 0.0
H88 H 0.89603 0.92335 0.5687 0.0
H89 H 0.93892 0.84989 0.46933 0.0
H90 H 0.78403 0.85612 0.51489 0.0
O91 O 0.924 0.89314 0.47108 0.0
O92 O 0.83124 0.89571 0.46908 0.0
O93 O 0.81294 0.89859 0.5376 0.0
C94 C 0.87941 0.89421 0.45467 0.0
H95 H 0.83487 0.98236 0.51517 0.0
H96 H 0.89343 0.80852 0.46183 0.0
H97 H 0.97425 0.92703 0.60472 0.0
H98 H 0.05863 0.87097 0.54417 0.0
Co99 Co 0.87977 0.89564 0.2246 0.0
C100 C 0.91647 0.84725 0.22792 0.0
C101 C 0.83245 0.8482 0.21097 0.0
C102 C 0.84559 0.82538 0.21289 0.0
N103 N 0.87693 0.86185 0.22028 0.0
N104 N 0.89837 0.82475 0.22367 0.0
H105 H 0.95692 0.85313 0.23722 0.0
H106 H 0.79281 0.85444 0.20377 0.0
C107 C 0.83076 0.90397 0.16561 0.0
O108 O 0.87475 0.91678 0.16156 0.0
N109 N 0.87975 0.92982 0.22985 0.0
C110 C 0.91573 0.94527 0.24593 0.0
C111 C 0.8944 0.9676 0.24808 0.0
C112 C 0.83564 0.94307 0.22412 0.0
N113 N 0.84392 0.96616 0.23436 0.0
C114 C 0.99406 0.90358 0.20628 0.0
C115 C 0.98864 0.87411 0.15002 0.0
C116 C 0.03841 0.88637 0.15829 0.0
C117 C 0.04097 0.9012 0.18686 0.0
C118 C 0.94264 0.87724 0.16991 0.0
N119 N 0.94481 0.89255 0.19719 0.0
H120 H 0.99836 0.91358 0.22897 0.0
H121 H 0.90507 0.86723 0.16334 0.0
H122 H 0.95254 0.94085 0.25777 0.0
H123 H 0.797 0.93588 0.21385 0.0
O124 O 0.91737 0.89712 0.26327 0.0
O125 O 0.82498 0.89799 0.25715 0.0
O126 O 0.8266 0.89416 0.18924 0.0
C127 C 0.86744 0.89813 0.27556 0.0
H128 H 0.81816 0.81043 0.20683 0.0
H129 H 0.91293 0.98347 0.26059 0.0
H130 H 0.98529 0.86213 0.12836 0.0
H131 H 0.07952 0.91018 0.19461 0.0
Co132 Co 0.12247 0.64578 0.9683 0.0
C133 C 0.07765 0.59894 0.97627 0.0
C134 C 0.16191 0.59655 0.95933 0.0
C135 C 0.14446 0.57447 0.96288 0.0
N136 N 0.11933 0.61187 0.96676 0.0
N137 N 0.0912 0.57603 0.97336 0.0
H138 H 0.03928 0.60607 -0.01308 0.0
H139 H 0.20345 0.60106 0.95241 0.0
C140 C 0.1859 0.62912 0.90935 0.0
O141 O 0.14517 0.61446 0.89962 0.0
N142 N 0.12781 0.67923 0.97034 0.0
C143 C 0.08635 0.69514 0.97163 0.0
C144 C 0.11022 0.71704 0.97304 0.0
C145 C 0.17594 0.69149 0.9713 0.0
N146 N 0.16657 0.71466 0.97293 0.0
C147 C 0.01018 0.63791 0.94778 0.0
C148 C 0.02037 0.65151 0.89126 0.0
C149 C 0.96914 0.64236 0.89956 0.0
C150 C 0.96424 0.63602 0.92846 0.0
C151 C 0.06618 0.65272 0.9114 0.0
N152 N 0.06151 0.6446 0.93861 0.0
H153 H 0.00326 0.63473 0.97067 0.0
H154 H 0.10494 0.66042 0.90525 0.0
H155 H 0.04205 0.69115 0.97172 0.0
H156 H 0.21705 0.68352 0.97069 0.0
O157 O 0.07716 0.65064 0.00471 0.0
O158 O 0.16985 0.64824 0.00445 0.0
O159 O 0.18307 0.64212 0.93578 0.0
C160 C 0.1232 0.65099 0.02021 0.0
H161 H 0.16909 0.55856 0.95806 0.0
H162 H 0.08786 0.73347 0.97477 0.0
H163 H 0.02498 0.65752 0.8695 0.0
H164 H 0.92449 0.63024 0.9365 0.0
Co165 Co 0.13167 0.65352 0.25112 0.0
C166 C 0.08732 0.70147 0.25168 0.0
C167 C 0.16922 0.70181 0.27171 0.0
C168 C 0.1537 0.72452 0.27084 0.0
N169 N 0.12763 0.68736 0.25978 0.0
N170 N 0.10238 0.72433 0.25807 0.0
H171 H 0.04915 0.69505 0.24 0.0
H172 H 0.20913 0.69623 0.27941 0.0
C173 C 0.19553 0.63983 0.30399 0.0
O174 O 0.16252 0.62168 0.3041 0.0
N175 N 0.13732 0.61947 0.24183 0.0
C176 C 0.09619 0.60336 0.23586 0.0
C177 C 0.11955 0.58133 0.23213 0.0
C178 C 0.1853 0.60689 0.2403 0.0
N179 N 0.17564 0.58351 0.23525 0.0
C180 C 0.01496 0.64687 0.26183 0.0
C181 C 0.01746 0.65265 0.32511 0.0
C182 C 0.96767 0.64483 0.3098 0.0
C183 C 0.96646 0.6429 0.27782 0.0
C184 C 0.06538 0.65653 0.30807 0.0
N185 N 0.06478 0.65195 0.27663 0.0
H186 H 0.0125 0.64476 0.23717 0.0
H187 H 0.10263 0.66304 0.32037 0.0
H188 H 0.05209 0.60693 0.23447 0.0
H189 H 0.22634 0.61483 0.2438 0.0
O190 O 0.09567 0.65334 0.21225 0.0
O191 O 0.18744 0.65536 0.2195 0.0
O192 O 0.18564 0.65455 0.28631 0.0
C193 C 0.14548 0.65469 0.20069 0.0
H194 H 0.17885 0.73996 0.27851 0.0
H195 H 0.09647 0.56501 0.22852 0.0
H196 H 0.01991 0.65516 0.34993 0.0
H197 H 0.92836 0.63802 0.26505 0.0
Co198 Co 0.89642 0.39274 0.0033 0.0
C199 C 0.94589 0.4395 0.00386 0.0
C200 C 0.85837 0.44183 0.01566 0.0
C201 C 0.87839 0.46407 0.01519 0.0
N202 N 0.90077 0.42649 0.0086 0.0
N203 N 0.93343 0.4626 0.00764 0.0
H204 H 0.98647 0.43205 -0.00321 0.0
H205 H 0.81564 0.43716 0.02025 0.0
C206 C 0.8226 0.38262 0.05435 0.0
O207 O 0.85631 0.36532 0.05762 0.0
N208 N 0.89093 0.35861 -0.00291 0.0
C209 C 0.93234 0.34246 -0.00653 0.0
C210 C 0.90915 0.32046 -0.01283 0.0
C211 C 0.84301 0.34597 -0.00783 0.0
N212 N 0.85299 0.32263 0.98639 0.0
C213 C 0.00696 0.38688 0.02522 0.0
C214 C 0.99028 0.41001 0.08469 0.0
C215 C 0.044 0.40183 0.07543 0.0
C216 C 0.05198 0.39005 0.04538 0.0
C217 C 0.94578 0.40591 0.06386 0.0
N218 N 0.95403 0.39383 0.03467 0.0
H219 H 0.01579 0.37987 0.00149 0.0
H220 H 0.90564 0.41367 0.07085 0.0
H221 H 0.97661 0.34585 -0.00557 0.0
H222 H 0.80174 0.35375 -0.00763 0.0
O223 O 0.94474 0.39034 0.96799 0.0
O224 O 0.85209 0.39248 0.96651 0.0
O225 O 0.83334 0.39562 0.03446 0.0
C226 C 0.89983 0.39119 0.9518 0.0
H227 H 0.85404 0.48006 0.01992 0.0
H228 H 0.93205 0.30408 0.9835 0.0
H229 H 0.98303 0.41985 0.10755 0.0
H230 H 0.09342 0.38439 0.03703 0.0
Co231 Co 0.89476 0.40758 0.72602 0.0
C232 C 0.93813 0.35988 0.72668 0.0
C233 C 0.85368 0.35909 0.70995 0.0
C234 C 0.8701 0.3365 0.71131 0.0
N235 N 0.89642 0.37368 0.7195 0.0
N236 N 0.92316 0.337 0.72197 0.0
H237 H 0.97778 0.36661 0.73622 0.0
H238 H 0.81292 0.36452 0.70319 0.0
C239 C 0.84097 0.4168 0.66824 0.0
O240 O 0.88311 0.43063 0.66431 0.0
N241 N 0.89106 0.44187 0.73365 0.0
C242 C 0.9252 0.45718 0.75136 0.0
C243 C 0.9041 0.47951 0.75342 0.0
C244 C 0.84781 0.45521 0.72695 0.0
N245 N 0.85542 0.47829 0.73789 0.0
C246 C 0.00691 0.41904 0.70832 0.0
C247 C 0.00583 0.39122 0.65076 0.0
C248 C 0.05335 0.40477 0.65993 0.0
C249 C 0.05375 0.4187 0.68914 0.0
C250 C 0.95927 0.39253 0.6704 0.0
N251 N 0.95934 0.40699 0.69844 0.0
H252 H 0.00994 0.42843 0.73141 0.0
H253 H 0.92311 0.3818 0.66308 0.0
H254 H 0.96128 0.45262 0.76371 0.0
H255 H 0.80984 0.44813 0.71578 0.0
O256 O 0.93347 0.40824 0.76433 0.0
O257 O 0.84095 0.40746 0.75864 0.0
O258 O 0.84007 0.40614 0.6912 0.0
C259 C 0.88391 0.40755 0.7767 0.0
H260 H 0.84463 0.32095 0.70511 0.0
H261 H 0.92286 0.49532 0.76593 0.0
H262 H 0.00456 0.37984 0.62854 0.0
H263 H 0.09067 0.42871 0.69743 0.0
Co264 Co 0.585 0.15616 0.96994 0.0
C265 C 0.54868 0.10822 0.97725 0.0
C266 C 0.63165 0.10772 0.95873 0.0
C267 C 0.61833 0.08542 0.96342 0.0
N268 N 0.58712 0.12198 0.96635 0.0
N269 N 0.56603 0.08581 0.97518 0.0
H270 H 0.50999 0.1146 -0.01173 0.0
H271 H 0.67233 0.11325 0.95184 0.0
C272 C 0.65495 0.14297 0.91216 0.0
O273 O 0.61955 0.12625 0.90116 0.0
N274 N 0.58382 0.18992 0.97455 0.0
C275 C 0.53883 0.20411 0.97958 0.0
C276 C 0.55696 0.22704 0.98327 0.0
C277 C 0.62856 0.20424 0.97539 0.0
N278 N 0.61341 0.22709 0.98061 0.0
C279 C 0.47489 0.14505 0.94561 0.0
C280 C 0.48669 0.16378 0.8927 0.0
C281 C 0.43577 0.15262 0.89768 0.0
C282 C 0.43079 0.14319 0.92476 0.0
C283 C 0.53069 0.16452 0.91383 0.0
N284 N 0.52523 0.15442 0.93944 0.0
H285 H 0.46748 0.13951 0.96719 0.0
H286 H 0.56864 0.17378 0.90994 0.0
H287 H 0.49598 0.1982 0.98079 0.0
H288 H 0.67142 0.19803 0.97316 0.0
O289 O 0.54003 0.15814 0.00675 0.0
O290 O 0.63304 0.15853 0.00527 0.0
O291 O 0.64613 0.15581 0.93825 0.0
C292 C 0.58731 0.15912 0.02155 0.0
H293 H 0.64617 0.07043 0.96004 0.0
H294 H 0.53054 0.24246 -0.01248 0.0
H295 H 0.49249 0.17232 0.87301 0.0
H296 H 0.3931 0.13437 0.93026 0.0
Co297 Co 0.63559 0.15337 0.24891 0.0
C298 C 0.60073 0.20293 0.24849 0.0
C299 C 0.67574 0.2014 0.27426 0.0
C300 C 0.66371 0.22458 0.27369 0.0
N301 N 0.63513 0.18767 0.25934 0.0
N302 N 0.61623 0.22546 0.25763 0.0
H303 H 0.56708 0.19783 0.23246 0.0
H304 H 0.71327 0.19519 0.28379 0.0
C305 C 0.68892 0.159 0.31118 0.0
O306 O 0.64533 0.17138 0.32284 0.0
N307 N 0.63878 0.11964 0.23788 0.0
C308 C 0.59774 0.10473 0.22642 0.0
C309 C 0.61889 0.08221 0.22194 0.0
C310 C 0.68416 0.10617 0.23992 0.0
N311 N 0.67332 0.08315 0.23048 0.0
C312 C 0.52336 0.16176 0.27022 0.0
C313 C 0.51986 0.1299 0.30987 0.0
C314 C 0.47035 0.14154 0.30421 0.0
C315 C 0.47323 0.15803 0.28464 0.0
C316 C 0.56997 0.13444 0.29507 0.0
N317 N 0.57141 0.15047 0.27566 0.0
H318 H 0.522 0.17273 0.25315 0.0
H319 H 0.60699 0.1244 0.29826 0.0
H320 H 0.5555 0.10988 0.22176 0.0
H321 H 0.72414 0.11316 0.24857 0.0
O322 O 0.5938 0.15473 0.21243 0.0
O323 O 0.68663 0.15581 0.21514 0.0
O324 O 0.69195 0.15135 0.28232 0.0
C325 C 0.64148 0.15607 0.1986 0.0
H326 H 0.68839 0.23957 0.28396 0.0
H327 H 0.59596 0.06644 0.21279 0.0
H328 H 0.51946 0.11676 0.32455 0.0
H329 H 0.43645 0.16764 0.27966 0.0
Co330 Co 0.39248 0.89786 0.00408 0.0
C331 C 0.42041 0.9463 -0.00514 0.0
C332 C 0.38454 0.94608 0.03934 0.0
C333 C 0.40231 0.96853 0.03787 0.0
N334 N 0.39591 0.93205 0.01233 0.0
N335 N 0.42538 0.96862 0.00993 0.0
H336 H 0.43678 0.9403 0.97203 0.0
H337 H 0.36789 0.94019 0.05949 0.0
C338 C 0.30684 0.88336 0.04886 0.0
O339 O 0.32573 0.86179 0.04355 0.0
N340 N 0.39022 0.86385 -0.00522 0.0
C341 C 0.43259 0.84879 -0.00341 0.0
C342 C 0.41305 0.82626 -0.01221 0.0
C343 C 0.34654 0.85031 0.98316 0.0
N344 N 0.3586 0.8272 0.97981 0.0
C345 C 0.50046 0.90865 0.02865 0.0
C346 C 0.4928 0.88672 0.07913 0.0
C347 C 0.54267 0.89838 0.07411 0.0
C348 C 0.54576 0.90964 0.04854 0.0
C349 C 0.44782 0.88671 0.05905 0.0
N350 N 0.45196 0.89748 0.03401 0.0
H351 H 0.50434 0.91712 0.00885 0.0
H352 H 0.41088 0.87748 0.06357 0.0
H353 H 0.47469 0.85376 0.00401 0.0
H354 H 0.30555 0.85733 0.97957 0.0
O355 O 0.43917 0.89666 0.96839 0.0
O356 O 0.34622 0.89886 0.96846 0.0
O357 O 0.33021 0.89937 0.03639 0.0
C358 C 0.39317 0.8975 0.95298 0.0
H359 H 0.40142 0.98325 0.05667 0.0
H360 H 0.43711 0.81042 -0.01228 0.0
H361 H 0.48856 0.87731 0.09813 0.0
H362 H 0.58264 0.91936 0.04388 0.0
Co363 Co 0.36998 0.90476 0.7249 0.0
C364 C 0.40357 0.85527 0.72673 0.0
C365 C 0.32407 0.85687 0.70517 0.0
C366 C 0.33538 0.8338 0.70683 0.0
N367 N 0.3678 0.87041 0.71665 0.0
N368 N 0.38564 0.83282 0.72029 0.0
H369 H 0.43982 0.86054 0.74073 0.0
H370 H 0.28512 0.86327 0.69739 0.0
C371 C 0.31537 0.89544 0.66347 0.0
O372 O 0.3576 0.88163 0.6533 0.0
N373 N 0.37069 0.93865 0.73409 0.0
C374 C 0.41359 0.95227 0.74623 0.0
C375 C 0.39661 0.97535 0.75076 0.0
C376 C 0.32825 0.95353 0.73131 0.0
N377 N 0.34304 0.9761 0.74131 0.0
C378 C 0.48165 0.89436 0.7015 0.0
C379 C 0.47736 0.92077 0.65524 0.0
C380 C 0.52573 0.90749 0.658 0.0
C381 C 0.52741 0.89434 0.68181 0.0
C382 C 0.43196 0.91989 0.6752 0.0
N383 N 0.43338 0.90585 0.69707 0.0
H384 H 0.48595 0.88551 0.72072 0.0
H385 H 0.39545 0.93051 0.67301 0.0
H386 H 0.45428 0.94583 0.75157 0.0
H387 H 0.28708 0.94794 0.72281 0.0
O388 O 0.41058 0.90393 0.7621 0.0
O389 O 0.31772 0.90429 0.75821 0.0
O390 O 0.314 0.90602 0.69134 0.0
C391 C 0.36176 0.90375 0.77537 0.0
H392 H 0.30815 0.819 0.69923 0.0
H393 H 0.42187 0.99044 0.76003 0.0
H394 H 0.47464 0.93194 0.63807 0.0
H395 H 0.56364 0.88391 0.68533 0.0
Co396 Co 0.62298 0.6382 0.46982 0.0
C397 C 0.59514 0.58887 0.47582 0.0
C398 C 0.67974 0.59216 0.46094 0.0
C399 C 0.67083 0.56924 0.46418 0.0
N400 N 0.63163 0.6044 0.46712 0.0
N401 N 0.61754 0.56723 0.47357 0.0
H402 H 0.55382 0.59327 0.48492 0.0
H403 H 0.71959 0.59947 0.45574 0.0
C404 C 0.7002 0.62741 0.41432 0.0
O405 O 0.66779 0.6101 0.40159 0.0
N406 N 0.61748 0.67172 0.47326 0.0
C407 C 0.57277 0.68569 0.47196 0.0
C408 C 0.59174 0.70851 0.47403 0.0
C409 C 0.66223 0.68599 0.47656 0.0
N410 N 0.64821 0.70855 0.47671 0.0
C411 C 0.51775 0.62365 0.44309 0.0
C412 C 0.52858 0.64177 0.38962 0.0
C413 C 0.47936 0.62972 0.39483 0.0
C414 C 0.47431 0.62077 0.42203 0.0
C415 C 0.57209 0.64381 0.41127 0.0
N416 N 0.56703 0.63404 0.43722 0.0
H417 H 0.51009 0.61847 0.46485 0.0
H418 H 0.60889 0.65386 0.4076 0.0
H419 H 0.52985 0.67971 0.46906 0.0
H420 H 0.70444 0.67974 0.47881 0.0
O421 O 0.57258 0.6393 0.50409 0.0
O422 O 0.66503 0.64271 0.50774 0.0
O423 O 0.68768 0.63933 0.44056 0.0
C424 C 0.61662 0.64234 0.52146 0.0
H425 H 0.70183 0.55538 0.4611 0.0
H426 H 0.56607 0.7237 0.47274 0.0
H427 H 0.53315 0.64962 0.36923 0.0
H428 H 0.43586 0.61243 0.42765 0.0
Co429 Co 0.62218 0.66285 0.7549 0.0
C430 C 0.57403 0.71013 0.75331 0.0
C431 C 0.65431 0.71187 0.77536 0.0
C432 C 0.63722 0.73426 0.77392 0.0
N433 N 0.61477 0.6967 0.76256 0.0
N434 N 0.58702 0.73324 0.75981 0.0
H435 H 0.53714 0.7031 0.74081 0.0
H436 H 0.69404 0.70708 0.78412 0.0
C437 C 0.68358 0.65363 0.81084 0.0
O438 O 0.64732 0.63712 0.814 0.0
N439 N 0.6318 0.6287 0.74625 0.0
C440 C 0.59816 0.61262 0.72945 0.0
C441 C 0.62286 0.5909 0.72619 0.0
C442 C 0.67828 0.61643 0.75111 0.0
N443 N 0.67324 0.59325 0.73999 0.0
C444 C 0.51232 0.64848 0.7711 0.0
C445 C 0.51281 0.67072 0.83158 0.0
C446 C 0.46687 0.65625 0.82113 0.0
C447 C 0.46723 0.64529 0.79015 0.0
C448 C 0.55809 0.67275 0.81184 0.0
N449 N 0.55869 0.66072 0.78236 0.0
H450 H 0.50919 0.64129 0.74711 0.0
H451 H 0.59264 0.6841 0.8203 0.0
H452 H 0.55978 0.61623 0.7184 0.0
H453 H 0.71622 0.62438 0.76136 0.0
O454 O 0.58247 0.6612 0.71674 0.0
O455 O 0.67471 0.66499 0.7223 0.0
O456 O 0.67805 0.66551 0.78932 0.0
C457 C 0.6315 0.66288 0.70418 0.0
H458 H 0.66073 0.75007 0.78213 0.0
H459 H 0.6051 0.57469 0.7142 0.0
H460 H 0.51396 0.68062 0.8547 0.0
H461 H 0.43337 0.63407 0.78031 0.0
Co462 Co 0.4004 0.39587 0.50787 0.0
C463 C 0.44223 0.44425 0.51314 0.0
C464 C 0.35487 0.44344 0.52494 0.0
C465 C 0.37099 0.46645 0.52662 0.0
N466 N 0.39962 0.42962 0.5166 0.0
N467 N 0.42589 0.46693 0.51907 0.0
H468 H 0.48405 0.43833 0.50603 0.0
H469 H 0.31303 0.43724 0.52862 0.0
C470 C 0.33111 0.38071 0.55743 0.0
O471 O 0.36933 0.36468 0.55923 0.0
N472 N 0.39942 0.36181 0.49837 0.0
C473 C 0.44174 0.34609 0.49437 0.0
C474 C 0.41944 0.32387 0.48775 0.0
C475 C 0.35228 0.34886 0.49314 0.0
N476 N 0.36311 0.32563 0.48718 0.0
C477 C 0.51223 0.39092 0.52826 0.0
C478 C 0.49461 0.40789 0.58991 0.0
C479 C 0.54902 0.40145 0.57956 0.0
C480 C 0.5574 0.39291 0.54829 0.0
C481 C 0.45031 0.40569 0.56889 0.0
N482 N 0.45898 0.39633 0.5386 0.0
H483 H 0.52087 0.38556 0.50411 0.0
H484 H 0.40971 0.4124 0.57694 0.0
H485 H 0.48583 0.34997 0.49564 0.0
H486 H 0.3107 0.35644 0.49462 0.0
O487 O 0.44788 0.3967 0.47283 0.0
O488 O 0.35516 0.39656 0.47147 0.0
O489 O 0.33788 0.39521 0.53894 0.0
C490 C 0.40263 0.39701 0.4568 0.0
H491 H 0.34376 0.48158 0.53175 0.0
H492 H 0.44313 0.3077 0.48329 0.0
H493 H 0.48672 0.41536 0.61377 0.0
H494 H 0.59878 0.38796 0.53919 0.0
Co495 Co 0.39009 0.39712 0.22583 0.0
C496 C 0.42937 0.34911 0.22971 0.0
C497 C 0.3455 0.34934 0.21231 0.0
C498 C 0.35997 0.32664 0.21383 0.0
N499 N 0.38901 0.3634 0.22214 0.0
N500 N 0.4126 0.32642 0.22496 0.0
H501 H 0.46947 0.35533 0.23918 0.0
H502 H 0.30562 0.35516 0.20487 0.0
C503 C 0.32706 0.40674 0.1706 0.0
O504 O 0.36202 0.42368 0.1674 0.0
N505 N 0.38899 0.43119 0.23006 0.0
C506 C 0.43141 0.44685 0.23385 0.0
C507 C 0.40964 0.46907 0.23568 0.0
C508 C 0.342 0.44433 0.23078 0.0
N509 N 0.35337 0.46747 0.23349 0.0
C510 C 0.50568 0.40065 0.20827 0.0
C511 C 0.49466 0.37783 0.14826 0.0
C512 C 0.54747 0.38609 0.15869 0.0
C513 C 0.55286 0.39756 0.1891 0.0
C514 C 0.44829 0.38182 0.168 0.0
N515 N 0.45361 0.39397 0.19732 0.0
H516 H 0.51148 0.40787 0.23224 0.0
H517 H 0.40869 0.37421 0.15989 0.0
H518 H 0.47525 0.44295 0.23533 0.0
H519 H 0.30023 0.43694 0.22889 0.0
O520 O 0.42984 0.39961 0.26421 0.0
O521 O 0.33733 0.39951 0.25952 0.0
O522 O 0.3338 0.39451 0.19166 0.0
C523 C 0.38073 0.40034 0.27737 0.0
H524 H 0.33344 0.31148 0.20713 0.0
H525 H 0.43373 0.48509 0.23768 0.0
H526 H 0.48941 0.36816 0.12516 0.0
H527 H 0.59355 0.4033 0.19828 0.0
H528 H 0.16255 0.25518 0.46024 0.0
H529 H 0.28595 0.20805 0.48667 0.0
H530 H 0.35344 0.24004 0.49666 0.0
H531 H 0.37833 0.28116 0.49646 0.0
H532 H 0.25632 0.32747 0.46692 0.0
H533 H 0.18763 0.29593 0.45935 0.0
C534 C 0.20431 0.25176 0.4679 0.0
C535 C 0.21891 0.22908 0.47248 0.0
C536 C 0.24336 0.27011 0.47296 0.0
C537 C 0.273 0.22527 0.4832 0.0
C538 C 0.31192 0.24356 0.48869 0.0
C539 C 0.33699 0.28434 0.48804 0.0
C540 C 0.32281 0.30676 0.48226 0.0
C541 C 0.29772 0.266 0.48335 0.0
C542 C 0.26844 0.31056 0.47194 0.0
C543 C 0.22909 0.29246 0.46745 0.0
H544 H 0.90586 1.0112 0.52501 0.0
H545 H 0.00637 0.95745 0.47009 0.0
H546 H 0.06845 0.98712 0.45591 0.0
H547 H 0.09376 0.02824 0.45827 0.0
H548 H 0.99386 0.08238 0.51262 0.0
H549 H 0.93103 0.0527 0.52701 0.0
C550 C 0.94111 1.00598 0.5098 0.0
C551 C 0.95144 0.98203 0.49892 0.0
C552 C 0.97652 0.02322 0.50135 0.0
C553 C 0.99779 0.97563 0.47942 0.0
C554 C 0.03319 0.99263 0.47102 0.0
C555 C 0.05858 0.03358 0.47349 0.0
C556 C 0.04878 0.05752 0.48441 0.0
C557 C 0.02299 1.01645 0.48185 0.0
C558 C 1.00215 0.06411 0.5036 0.0
C559 C 0.9664 0.04712 0.51202 0.0
H560 H 0.21311 0.07207 0.76271 0.0
H561 H 0.1358 0.03939 0.67782 0.0
H562 H 0.19298 1.00461 0.67694 0.0
H563 H 0.26475 0.98299 0.70024 0.0
H564 H 0.34528 1.01581 0.78379 0.0
H565 H 0.28796 0.05098 0.78496 0.0
C566 C 0.20919 0.05748 0.74383 0.0
C567 C 0.1694 0.05843 0.72061 0.0
C568 C 0.2429 0.03743 0.74319 0.0
C569 C 0.1649 0.03914 0.69644 0.0
C570 C 0.19794 1.01918 0.69577 0.0
C571 C 0.26941 0.9978 0.71878 0.0
C572 C 0.30898 0.99675 0.74195 0.0
C573 C 0.23671 1.01803 0.71913 0.0
C574 C 0.31535 1.01625 0.76557 0.0
C575 C 0.28245 0.03633 0.7663 0.0
H576 H 0.88399 0.29589 0.73479 0.0
H577 H 0.03651 0.33374 0.7237 0.0
H578 H 0.09191 0.30086 0.73483 0.0
H579 H 0.09723 0.26104 0.74662 0.0
H580 H 0.94487 0.22302 0.75725 0.0
H581 H 0.8893 0.2561 0.74667 0.0
C582 C 0.92932 0.29692 0.73447 0.0
C583 C 0.95584 0.31739 0.72835 0.0
C584 C 0.96103 0.27784 0.74069 0.0
C585 C 0.01478 0.31842 0.72866 0.0
C586 C 0.04658 0.29953 0.73487 0.0
C587 C 0.05189 0.26004 0.74701 0.0
C588 C 0.02538 0.23949 0.7528 0.0
C589 C 0.02017 0.27916 0.74092 0.0
C590 C 0.96647 0.23846 0.75257 0.0
C591 C 0.93463 0.25743 0.74665 0.0
H592 H 0.84649 0.77917 0.47649 0.0
H593 H 0.71464 0.82943 0.50521 0.0
H594 H 0.64744 0.79753 0.5039 0.0
H595 H 0.62582 0.75505 0.49384 0.0
H596 H 0.75844 0.70603 0.46123 0.0
H597 H 0.82494 0.73783 0.46449 0.0
C598 C 0.80304 0.78341 0.48202 0.0
C599 C 0.7862 0.80692 0.49064 0.0
C600 C 0.76434 0.76507 0.48057 0.0
C601 C 0.72952 0.81164 0.49862 0.0
C602 C 0.69074 0.79334 0.4977 0.0
C603 C 0.66911 0.75133 0.48722 0.0
C604 C 0.68677 0.72794 0.47777 0.0
C605 C 0.70763 0.76994 0.48855 0.0
C606 C 0.74337 0.7236 0.4694 0.0
C607 C 0.78168 0.74188 0.471 0.0
H608 H 0.86994 1.01117 0.23282 0.0
H609 H 0.7302 0.9639 0.23299 0.0
H610 H 0.66481 0.99596 0.23107 0.0
H611 H 0.64711 0.03767 0.23073 0.0
H612 H 0.78722 0.08476 0.2296 0.0
H613 H 0.85226 0.0527 0.23123 0.0
C614 C 0.82518 1.00792 0.23265 0.0
C615 C 0.80521 0.98512 0.23307 0.0
C616 C 0.7877 0.02647 0.23159 0.0
C617 C 0.74697 0.98116 0.23231 0.0
C618 C 0.70943 0.99955 0.2314 0.0
C619 C 0.69179 0.04095 0.23047 0.0
C620 C 0.7118 0.06381 0.23025 0.0
C621 C 0.7293 1.0223 0.23109 0.0
C622 C 0.77016 0.06757 0.23032 0.0
C623 C 0.80762 0.04916 0.23106 0.0
H624 H 0.01065 0.81879 0.22599 0.0
H625 H 0.85275 0.78455 0.23645 0.0
H626 H 0.90197 0.75006 0.2471 0.0
H627 H 0.99018 0.72965 0.2545 0.0
H628 H 0.14775 0.76424 0.24476 0.0
H629 H 0.09848 0.79853 0.23345 0.0
C630 C 0.98691 0.80391 0.23086 0.0
C631 C 0.92792 0.80441 0.23027 0.0
C632 C 0.01551 0.7841 0.2373 0.0
C633 C 0.89809 0.78468 0.23622 0.0
C634 C 0.92625 0.76491 0.24254 0.0
C635 C 0.01367 0.74462 0.24968 0.0
C636 C 0.07262 0.74434 0.25071 0.0
C637 C 0.98498 0.7644 0.24315 0.0
C638 C 0.1024 0.76405 0.24468 0.0
C639 C 0.07423 0.78367 0.23801 0.0
H640 H 0.36821 0.7848 -0.00309 0.0
H641 H 0.25948 0.82599 0.94947 0.0
H642 H 0.18968 0.79469 0.94325 0.0
H643 H 0.15864 0.75576 0.95224 0.0
H644 H 0.26869 0.7148 -0.00083 0.0
H645 H 0.33924 0.74566 0.00401 0.0
C646 C 0.32982 0.78688 0.98471 0.0
C647 C 0.31938 0.8079 0.97377 0.0
C648 C 0.28989 0.76879 0.98114 0.0
C649 C 0.26857 0.81022 0.95851 0.0
C650 C 0.22861 0.79226 0.95485 0.0
C651 C 0.19796 0.75366 0.96364 0.0
C652 C 0.20823 0.73296 0.97534 0.0
C653 C 0.23854 0.77155 0.96637 0.0
C654 C 0.25983 0.73038 -0.01036 0.0
C655 C 0.30016 0.74809 -0.00743 0.0
H656 H 0.90324 0.50409 -0.00731 0.0
H657 H 0.04707 0.46392 0.01173 0.0
H658 H 0.10922 0.49555 0.00262 0.0
H659 H 0.12269 0.53487 -0.01059 0.0
H660 H 0.978 0.5747 0.97069 0.0
H661 H 0.91636 0.54324 0.9803 0.0
C662 C 0.94807 0.50229 -0.00474 0.0
C663 C 0.97018 0.48153 0.00292 0.0
C664 C 0.98356 0.52061 -0.00981 0.0
C665 C 0.0287 0.4795 0.00551 0.0
C666 C 0.06435 0.49767 0.00046 0.0
C667 C 0.07773 0.53662 -0.01272 0.0
C668 C 0.0552 0.55727 0.97948 0.0
C669 C 0.04226 0.5183 -0.00731 0.0
C670 C 0.99664 0.55926 0.97716 0.0
C671 C 0.96125 0.54117 0.98244 0.0
H672 H 0.16385 0.53761 0.2108 0.0
H673 H 0.2778 0.58708 0.26283 0.0
H674 H 0.34287 0.55543 0.26698 0.0
H675 H 0.3667 0.51348 0.25694 0.0
H676 H 0.25161 0.46404 0.20594 0.0
H677 H 0.18716 0.49578 0.20118 0.0
C678 C 0.20267 0.54154 0.22323 0.0
C679 C 0.21553 0.56487 0.2364 0.0
C680 C 0.23964 0.52316 0.22602 0.0
C681 C 0.26676 0.56948 0.252 0.0
C682 C 0.30397 0.5513 0.25464 0.0
C683 C 0.32772 0.50963 0.24462 0.0
C684 C 0.31432 0.48628 0.2318 0.0
C685 C 0.29076 0.52805 0.24184 0.0
C686 C 0.263 0.4817 0.21635 0.0
C687 C 0.22617 0.49991 0.21341 0.0
H688 H 0.71496 0.22941 0.95423 0.0
H689 H 0.59434 0.2704 0.01383 0.0
H690 H 0.65691 0.30428 0.01977 0.0
H691 H 0.74795 0.32191 0.00953 0.0
H692 H 0.86826 0.28045 0.95026 0.0
H693 H 0.80425 0.24715 0.943 0.0
C694 C 0.70246 0.24569 0.96868 0.0
C695 C 0.65001 0.24724 0.98362 0.0
C696 C 0.73878 0.26507 0.97213 0.0
C697 C 0.63416 0.2687 0.0018 0.0
C698 C 0.67008 0.28809 0.00534 0.0
C699 C 0.75975 0.30568 -0.00527 0.0
C700 C 0.81301 0.30367 0.98062 0.0
C701 C 0.72266 0.28646 -0.00928 0.0
C702 C 0.82794 0.28239 0.96177 0.0
C703 C 0.79125 0.26334 0.9575 0.0
H704 H 0.68273 0.55103 0.70282 0.0
H705 H 0.75296 0.59357 0.78363 0.0
H706 H 0.81607 0.56171 0.79012 0.0
H707 H 0.84905 0.52124 0.7739 0.0
H708 H 0.77898 0.47888 0.6928 0.0
H709 H 0.71699 0.51095 0.68602 0.0
C710 C 0.7115 0.55335 0.72199 0.0
C711 C 0.71263 0.57477 0.74278 0.0
C712 C 0.7474 0.53484 0.72576 0.0
C713 C 0.75129 0.57746 0.76709 0.0
C714 C 0.78722 0.55914 0.77096 0.0
C715 C 0.82068 0.51901 0.75457 0.0
C716 C 0.81874 0.49745 0.73405 0.0
C717 C 0.7854 0.53768 0.75054 0.0
C718 C 0.78092 0.495 0.70935 0.0
C719 C 0.74565 0.51345 0.70527 0.0
H720 H 0.57712 0.0395 0.95315 0.0
H721 H 0.48691 0.089 0.02024 0.0
H722 H 0.43423 0.05713 0.03622 0.0
H723 H 0.4133 1.01511 0.03128 0.0
H724 H 0.50621 0.96546 0.96555 0.0
H725 H 0.55752 0.99734 0.94896 0.0
C726 C 0.54632 0.04331 0.97145 0.0
C727 C 0.53602 0.06674 0.98524 0.0
C728 C 0.51615 0.02481 0.98074 0.0
C729 C 0.49528 0.07128 0.00871 0.0
C730 C 0.46523 0.053 0.01806 0.0
C731 C 0.44498 1.01118 0.01348 0.0
C732 C 0.45522 0.98772 -0.00027 0.0
C733 C 0.47519 0.02968 0.00421 0.0
C734 C 0.49622 0.9832 0.97634 0.0
C735 C 0.52617 1.00149 0.96693 0.0
H736 H 0.52525 0.32176 0.23082 0.0
H737 H 0.36821 0.28505 0.23413 0.0
H738 H 0.41783 0.25048 0.24345 0.0
H739 H 0.50535 0.23047 0.25137 0.0
H740 H 0.66267 0.26692 0.25025 0.0
H741 H 0.61344 0.30183 0.24006 0.0
C742 C 0.50176 0.30631 0.23383 0.0
C743 C 0.44282 0.30617 0.23136 0.0
C744 C 0.53065 0.28637 0.23972 0.0
C745 C 0.41346 0.28575 0.23515 0.0
C746 C 0.44183 0.26589 0.24074 0.0
C747 C 0.52891 0.24598 0.24859 0.0
C748 C 0.58758 0.24603 0.25137 0.0
C749 C 0.50034 0.26597 0.24298 0.0
C750 C 0.61744 0.26646 0.24839 0.0
C751 C 0.5893 0.2864 0.24246 0.0
H752 H 0.49683 0.8271 0.72563 0.0
H753 H 0.33833 0.79207 0.73047 0.0
H754 H 0.38673 0.75753 0.74226 0.0
H755 H 0.4748 0.73751 0.75248 0.0
H756 H 0.63238 0.77329 0.74726 0.0
H757 H 0.58369 0.80725 0.73492 0.0
C758 C 0.47273 0.81203 0.72957 0.0
C759 C 0.41394 0.81234 0.72731 0.0
C760 C 0.50078 0.79228 0.73644 0.0
C761 C 0.38361 0.79234 0.73182 0.0
C762 C 0.41129 0.77258 0.73871 0.0
C763 C 0.49839 0.75267 0.74841 0.0
C764 C 0.55723 0.75284 0.75123 0.0
C765 C 0.46996 0.77234 0.74115 0.0
C766 C 0.5871 0.77275 0.74598 0.0
C767 C 0.55929 0.7922 0.73869 0.0
H768 H 0.53436 0.56498 0.51464 0.0
H769 H 0.6393 0.52243 0.44714 0.0
H770 H 0.59059 0.48716 0.45627 0.0
H771 H 0.51513 0.46869 0.48159 0.0
H772 H 0.41003 0.51135 0.54897 0.0
H773 H 0.46114 0.54636 0.54126 0.0
C774 C 0.54638 0.54803 0.50178 0.0
C775 C 0.59025 0.5464 0.48008 0.0
C776 C 0.5179 0.52785 0.50698 0.0
C777 C 0.60605 0.52418 0.46415 0.0
C778 C 0.57797 0.50401 0.46923 0.0
C779 C 0.50388 0.48556 0.49494 0.0
C780 C 0.45851 0.48733 0.51574 0.0
C781 C 0.53352 0.50566 0.49041 0.0
C782 C 0.44414 0.50948 0.53248 0.0
C783 C 0.47353 0.52952 0.52819 0.0
H784 H 0.21761 0.13723 0.34461 0.0
H785 H 0.29485 0.1317 0.43108 0.0
H786 H 0.38754 0.13 0.40707 0.0
H787 H 0.44718 0.13407 0.36251 0.0
H788 H 0.36893 0.13738 0.2755 0.0
H789 H 0.27656 0.13588 0.29866 0.0
C790 C 0.25472 0.13539 0.35808 0.0
C791 C 0.24941 0.13488 0.38958 0.0
C792 C 0.3079 0.13425 0.34411 0.0
C793 C 0.29778 0.13215 0.40672 0.0
C794 C 0.3509 0.13128 0.39305 0.0
C795 C 0.40998 0.13398 0.34849 0.0
C796 C 0.41514 0.13656 0.31755 0.0
C797 C 0.35658 0.13285 0.36189 0.0
C798 C 0.36629 0.13624 0.29967 0.0
C799 C 0.3133 0.13525 0.31283 0.0
H800 H 0.79481 0.14404 0.29442 0.0
H801 H 0.6868 0.16284 0.37357 0.0
H802 H 0.76277 0.15511 0.40725 0.0
H803 H 0.85995 0.14393 0.41439 0.0
H804 H 0.97087 0.12877 0.33579 0.0
H805 H 0.89302 0.1332 0.30176 0.0
C806 C 0.78783 0.14639 0.31904 0.0
C807 C 0.73518 0.15412 0.33144 0.0
C808 C 0.83207 0.14231 0.33838 0.0
C809 C 0.72697 0.15711 0.3634 0.0
C810 C 0.77036 0.1526 0.38269 0.0
C811 C 0.86765 0.14185 0.38988 0.0
C812 C 0.9219 0.13619 0.37795 0.0
C813 C 0.82321 0.14541 0.37046 0.0
C814 C 0.92982 0.13282 0.34587 0.0
C815 C 0.88532 0.13563 0.32631 0.0
H816 H 0.26121 0.14325 0.78759 0.0
H817 H 0.14665 0.13625 0.86121 0.0
H818 H 0.22359 0.14249 0.89815 0.0
H819 H 0.32242 0.15014 0.90942 0.0
H820 H 0.43997 0.15147 0.83484 0.0
H821 H 0.36256 0.14818 0.79869 0.0
C822 C 0.2533 0.14314 0.81176 0.0
C823 C 0.19843 0.13942 0.82178 0.0
C824 C 0.29811 0.14597 0.83273 0.0
C825 C 0.18862 0.13899 0.85301 0.0
C826 C 0.23254 0.14263 0.87412 0.0
C827 C 0.33198 0.14917 0.88526 0.0
C828 C 0.38798 0.15101 0.87531 0.0
C829 C 0.28749 0.14604 0.86421 0.0
C830 C 0.39782 0.15059 0.84372 0.0
C831 C 0.35341 0.14842 0.82279 0.0
H832 H 0.88167 0.17295 0.85483 0.0
H833 H 0.87169 0.10163 0.80648 0.0
H834 H 0.78394 0.09601 0.83276 0.0
H835 H 0.70862 0.11146 0.86873 0.0
H836 H 0.71968 0.18229 0.91856 0.0
H837 H 0.80798 0.18794 0.89259 0.0
C838 C 0.86071 0.15609 0.85041 0.0
C839 C 0.88308 0.13783 0.8285 0.0
C840 C 0.81001 0.15292 0.86567 0.0
C841 C 0.855 0.11613 0.82287 0.0
C842 C 0.80478 0.11286 0.83792 0.0
C843 C 0.73019 0.12817 0.87374 0.0
C844 C 0.70736 0.14644 0.89538 0.0
C845 C 0.78148 0.13121 0.85907 0.0
C846 C 0.73631 0.1679 0.90197 0.0
C847 C 0.7869 0.17116 0.88716 0.0
H848 H 0.6372 0.90429 0.67062 0.0
H849 H 0.5237 0.90995 0.59638 0.0
H850 H 0.60254 0.90681 0.56051 0.0
H851 H 0.70332 0.8997 0.54946 0.0
H852 H 0.8139 0.88966 0.623 0.0
H853 H 0.7363 0.89659 0.65971 0.0
C854 C 0.62924 0.90451 0.64655 0.0
C855 C 0.57412 0.90714 0.63638 0.0
C856 C 0.67436 0.90168 0.62579 0.0
C857 C 0.56551 0.90822 0.60514 0.0
C858 C 0.61059 0.90619 0.58447 0.0
C859 C 0.71031 0.8992 0.57358 0.0
C860 C 0.76407 0.89417 0.58359 0.0
C861 C 0.66511 0.90256 0.59444 0.0
C862 C 0.7727 0.89333 0.61478 0.0
C863 C 0.72843 0.89736 0.63577 0.0
H864 H 0.20822 0.90664 0.68087 0.0
H865 H 0.31457 0.88824 0.60099 0.0
H866 H 0.23389 0.88955 0.56745 0.0
H867 H 0.13343 0.89473 0.56096 0.0
H868 H 0.02523 0.90933 0.64073 0.0
H869 H 0.10682 0.91144 0.67423 0.0
C870 C 0.21375 0.90311 0.6561 0.0
C871 C 0.26716 0.89735 0.64334 0.0
C872 C 0.167 0.90329 0.63701 0.0
C873 C 0.27375 0.89258 0.61128 0.0
C874 C 0.22771 0.89337 0.59214 0.0
C875 C 0.12732 0.89803 0.58567 0.0
C876 C 0.07293 0.90159 0.5982 0.0
C877 C 0.17409 0.89839 0.60477 0.0
C878 C 0.06647 0.90669 0.63034 0.0
C879 C 0.1131 0.90772 0.64955 0.0
H880 H 0.72139 0.90104 0.17964 0.0
H881 H 0.83468 0.90392 0.10402 0.0
H882 H 0.75526 0.90137 0.06863 0.0
H883 H 0.65422 0.89809 0.05954 0.0
H884 H 0.5407 0.89968 0.13651 0.0
H885 H 0.62003 0.90003 0.17097 0.0
C886 C 0.72859 0.90097 0.15536 0.0
C887 C 0.78348 0.90244 0.14424 0.0
C888 C 0.68289 0.90015 0.13546 0.0
C889 C 0.79255 0.9028 0.11294 0.0
C890 C 0.74728 0.9013 0.09278 0.0
C891 C 0.64651 0.89892 0.0839 0.0
C892 C 0.59118 0.89876 0.09522 0.0
C893 C 0.69227 0.90004 0.10385 0.0
C894 C 0.58258 0.89926 0.12686 0.0
C895 C 0.62797 0.8997 0.14672 0.0
H896 H 0.10622 0.91927 0.13964 0.0
H897 H 0.0822 0.84462 0.13145 0.0
H898 H 0.16314 0.83741 0.09716 0.0
H899 H 0.2395 0.85202 0.06937 0.0
H900 H 0.26452 0.92648 0.07554 0.0
H901 H 0.18414 0.93412 0.11078 0.0
C902 C 0.11907 0.90147 0.1304 0.0
C903 C 0.08828 0.88248 0.13792 0.0
C904 C 0.1655 0.89744 0.11037 0.0
C905 C 0.10489 0.85948 0.12568 0.0
C906 C 0.15123 0.85536 0.10619 0.0
C907 C 0.22776 0.86999 0.07845 0.0
C908 C 0.25827 0.88866 0.06995 0.0
C909 C 0.18162 0.87418 0.09832 0.0
C910 C 0.24178 0.91178 0.08172 0.0
C911 C 0.1959 0.91614 0.1019 0.0
H912 H 0.29265 0.64171 0.9256 0.0
H913 H 0.18474 0.62414 0.84696 0.0
H914 H 0.26086 0.63236 0.81306 0.0
H915 H 0.35644 0.64563 0.80615 0.0
H916 H 0.46844 0.65817 0.88404 0.0
H917 H 0.39152 0.6518 0.91789 0.0
C918 C 0.28601 0.63956 0.901 0.0
C919 C 0.23321 0.63235 0.88875 0.0
C920 C 0.33033 0.64382 0.88158 0.0
C921 C 0.22516 0.62948 0.85687 0.0
C922 C 0.26856 0.63433 0.83753 0.0
C923 C 0.36507 0.64648 0.83034 0.0
C924 C 0.41914 0.65252 0.8421 0.0
C925 C 0.32127 0.64158 0.84966 0.0
C926 C 0.42756 0.6542 0.87398 0.0
C927 C 0.38356 0.65023 0.89349 0.0
H928 H 0.73678 0.61965 0.83465 0.0
H929 H 0.7506 0.69208 0.82439 0.0
H930 H 0.84289 0.69465 0.84858 0.0
H931 H 0.91944 0.67629 0.87348 0.0
H932 H 0.90584 0.60357 0.8823 0.0
H933 H 0.81459 0.60088 0.85707 0.0
C934 C 0.7598 0.63604 0.83797 0.0
C935 C 0.73675 0.6557 0.82805 0.0
C936 C 0.8134 0.6372 0.85112 0.0
C937 C 0.76744 0.67673 0.832 0.0
C938 C 0.82032 0.67817 0.84567 0.0
C939 C 0.89686 0.65979 0.86926 0.0
C940 C 0.91914 0.64015 0.8796 0.0
C941 C 0.8439 0.65848 0.8552 0.0
C942 C 0.88928 0.61891 0.87447 0.0
C943 C 0.83701 0.6174 0.86028 0.0
H944 H 0.25533 0.60489 0.32192 0.0
H945 H 0.25512 0.67962 0.32433 0.0
H946 H 0.34592 0.68296 0.35018 0.0
H947 H 0.42457 0.66463 0.37337 0.0
H948 H 0.42455 0.58988 0.37035 0.0
H949 H 0.33544 0.58643 0.34284 0.0
C950 C 0.27492 0.62193 0.32839 0.0
C951 C 0.24828 0.64201 0.32161 0.0
C952 C 0.32757 0.62364 0.34268 0.0
C953 C 0.27472 0.66391 0.3295 0.0
C954 C 0.32673 0.66583 0.34415 0.0
C955 C 0.40549 0.64758 0.36607 0.0
C956 C 0.43098 0.62753 0.37369 0.0
C957 C 0.35365 0.6458 0.35081 0.0
C958 C 0.40554 0.60553 0.36462 0.0
C959 C 0.35448 0.60358 0.34913 0.0
H960 H 0.74626 0.60447 0.36063 0.0
H961 H 0.77116 0.66408 0.43284 0.0
H962 H 0.85604 0.67454 0.40753 0.0
H963 H 0.92312 0.66721 0.36437 0.0
H964 H 0.89905 0.60722 0.29267 0.0
H965 H 0.81436 0.59665 0.31816 0.0
C966 C 0.77021 0.61974 0.37084 0.0
C967 C 0.75203 0.63344 0.3986 0.0
C968 C 0.81938 0.62569 0.35619 0.0
C969 C 0.78391 0.65316 0.41149 0.0
C970 C 0.83265 0.6592 0.39703 0.0
C971 C 0.89965 0.6517 0.35449 0.0
C972 C 0.91733 0.63819 0.32648 0.0
C973 C 0.85084 0.64561 0.36935 0.0
C974 C 0.88597 0.61823 0.31391 0.0
C975 C 0.83759 0.61206 0.32855 0.0
H976 H 0.61355 0.41818 0.13816 0.0
H977 H 0.5925 0.34389 0.13435 0.0
H978 H 0.67709 0.33616 0.10241 0.0
H979 H 0.7574 0.35069 0.07583 0.0
H980 H 0.77425 0.42482 0.07619 0.0
H981 H 0.69107 0.43258 0.10913 0.0
C982 C 0.62769 0.40034 0.13022 0.0
C983 C 0.59741 0.3816 0.13857 0.0
C984 C 0.67554 0.39606 0.11135 0.0
C985 C 0.61539 0.35852 0.12805 0.0
C986 C 0.6637 0.35413 0.10991 0.0
C987 C 0.74288 0.36853 0.08327 0.0
C988 C 0.77208 0.38719 0.07395 0.0
C989 C 0.69423 0.37277 0.1015 0.0
C990 C 0.75236 0.4102 0.08316 0.0
C991 C 0.70492 0.41463 0.10201 0.0
H992 H 0.11675 0.37035 0.09098 0.0
H993 H 0.08112 0.44434 0.1047 0.0
H994 H 0.16833 0.45271 0.13377 0.0
H995 H 0.25584 0.43874 0.1543 0.0
H996 H 0.28673 0.36449 0.14406 0.0
H997 H 0.20087 0.35632 0.114 0.0
C998 C 0.12806 0.38827 0.1006 0.0
C999 C 0.09294 0.40673 0.09587 0.0
C1000 C 0.17772 0.39284 0.11739 0.0
C1001 C 0.10749 0.42989 0.10843 0.0
C1002 C 0.15747 0.43466 0.12475 0.0
C1003 C 0.24376 0.42083 0.14522 0.0
C1004 C 0.27754 0.40221 0.15085 0.0
C1005 C 0.19319 0.41627 0.1291 0.0
C1006 C 0.26128 0.37903 0.13966 0.0
C1007 C 0.21222 0.37437 0.12265 0.0
H1008 H 0.73748 0.40026 0.67892 0.0
H1009 H 0.83268 0.43106 0.61273 0.0
H1010 H 0.75 0.4298 0.58005 0.0
H1011 H 0.65113 0.41969 0.57017 0.0
H1012 H 0.55558 0.38921 0.63642 0.0
H1013 H 0.63788 0.39108 0.66963 0.0
C1014 C 0.74029 0.40659 0.65727 0.0
C1015 C 0.79134 0.41556 0.64813 0.0
C1016 C 0.69247 0.40607 0.6388 0.0
C1017 C 0.79398 0.424 0.62023 0.0
C1018 C 0.74671 0.42332 0.60157 0.0
C1019 C 0.6484 0.41336 0.59183 0.0
C1020 C 0.59753 0.40412 0.60073 0.0
C1021 C 0.69583 0.41435 0.61062 0.0
C1022 C 0.59421 0.3965 0.62916 0.0
C1023 C 0.64132 0.3974 0.64801 0.0
H1024 H 0.11733 0.36697 0.63762 0.0
H1025 H 0.10096 0.44098 0.63757 0.0
H1026 H 0.18461 0.44011 0.60489 0.0
H1027 H 0.2634 0.41827 0.57698 0.0
H1028 H 0.28327 0.34476 0.58032 0.0
H1029 H 0.19765 0.34539 0.61104 0.0
C1030 C 0.13209 0.38282 0.63022 0.0
C1031 C 0.10311 0.40396 0.63964 0.0
C1032 C 0.18096 0.38227 0.61218 0.0
C1033 C 0.1228 0.42452 0.63045 0.0
C1034 C 0.17052 0.42402 0.61181 0.0
C1035 C 0.24883 0.4024 0.5844 0.0
C1036 C 0.27956 0.3815 0.57637 0.0
C1037 C 0.20011 0.403 0.60263 0.0
C1038 C 0.26056 0.36111 0.58638 0.0
C1039 C 0.21148 0.36143 0.60386 0.0
H1040 H 0.18568 0.15069 0.65669 0.0
H1041 H 0.00621 0.16067 0.66102 0.0
H1042 H 0.00408 0.1622 0.60642 0.0
H1043 H 0.05163 0.15845 0.55691 0.0
H1044 H 0.23056 0.14757 0.55112 0.0
H1045 H 0.23452 0.14887 0.60674 0.0
C1046 C 0.14628 0.15339 0.64567 0.0
C1047 C 0.09618 0.15537 0.66285 0.0
C1048 C 0.14515 0.15404 0.61398 0.0
C1049 C 0.04537 0.15888 0.6483 0.0
C1050 C 0.04403 0.15979 0.61704 0.0
C1051 C 0.09163 0.15658 0.56781 0.0
C1052 C 0.14064 0.15282 0.54992 0.0
C1053 C 0.09346 0.15704 0.59959 0.0
C1054 C 0.19214 0.15046 0.56442 0.0
C1055 C 0.19442 0.15113 0.5962 0.0
H1056 H 0.79648 0.89902 0.41372 0.0
H1057 H 0.97516 0.88937 0.42106 0.0
H1058 H 0.98702 0.89023 0.36666 0.0
H1059 H 0.94751 0.89374 0.31703 0.0
H1060 H 0.76922 0.90305 0.30833 0.0
H1061 H 0.75644 0.90242 0.36317 0.0
C1062 C 0.83788 0.89705 0.40333 0.0
C1063 C 0.88477 0.89414 0.42141 0.0
C1064 C 0.84462 0.8976 0.37183 0.0
C1065 C 0.93827 0.89165 0.40769 0.0
C1066 C 0.94523 0.89216 0.37655 0.0
C1067 C 0.90585 0.89573 0.32712 0.0
C1068 C 0.85946 0.8985 0.30873 0.0
C1069 C 0.89881 0.89518 0.35844 0.0
C1070 C 0.80568 0.90092 0.32209 0.0
C1071 C 0.79832 0.90053 0.35341 0.0
H1072 H 0.20968 0.64915 0.0605 0.0
H1073 H 0.03064 0.65929 0.05589 0.0
H1074 H 0.02267 0.66206 0.11112 0.0
H1075 H 0.06483 0.66022 0.1604 0.0
H1076 H 0.24319 0.65014 0.16698 0.0
H1077 H 0.25319 0.64889 0.11142 0.0
C1078 C 0.1691 0.6521 0.07169 0.0
C1079 C 0.12087 0.65386 0.05404 0.0
C1080 C 0.16456 0.65363 0.10377 0.0
C1081 C 0.0685 0.65773 0.06883 0.0
C1082 C 0.06375 0.65933 0.10047 0.0
C1083 C 0.106 0.65779 0.14975 0.0
C1084 C 0.15311 0.6551 0.16765 0.0
C1085 C 0.11129 0.65705 0.11808 0.0
C1086 C 0.20623 0.65222 0.15358 0.0
C1087 C 0.21192 0.65145 0.12184 0.0
H1088 H 0.8164 0.39932 0.91286 0.0
H1089 H 0.99393 0.38557 0.91665 0.0
H1090 H 0.00465 0.38993 0.86317 0.0
H1091 H 0.96454 0.39834 0.81559 0.0
H1092 H 0.7872 0.41169 0.81067 0.0
H1093 H 0.77556 0.40696 0.86431 0.0
C1094 C 0.85727 0.39711 0.90187 0.0
C1095 C 0.90424 0.39216 0.91873 0.0
C1096 C 0.86334 0.39978 0.87099 0.0
C1097 C 0.95704 0.38942 0.90423 0.0
C1098 C 0.96333 0.39197 0.87364 0.0
C1099 C 0.92338 0.40035 0.82629 0.0
C1100 C 0.87691 0.40552 0.80931 0.0
C1101 C 0.91693 0.39735 0.8569 0.0
C1102 C 0.82371 0.40779 0.82335 0.0
C1103 C 0.81699 0.40503 0.85398 0.0
H1104 H 0.55219 0.15917 0.16257 0.0
H1105 H 0.73304 0.15662 0.1606 0.0
H1106 H 0.73233 0.15806 0.10543 0.0
H1107 H 0.67956 0.15897 0.05765 0.0
H1108 H 0.49857 0.161 0.06074 0.0
H1109 H 0.50019 0.16086 0.11584 0.0
C1110 C 0.59163 0.15896 0.15017 0.0
C1111 C 0.64265 0.15768 0.16561 0.0
C1112 C 0.59078 0.15967 0.1187 0.0
C1113 C 0.69324 0.15756 0.1492 0.0
C1114 C 0.69279 0.15836 0.11769 0.0
C1115 C 0.64051 0.15949 0.07043 0.0
C1116 C 0.58898 0.15997 0.05512 0.0
C1117 C 0.64173 0.15926 0.10218 0.0
C1118 C 0.53875 0.16061 0.07195 0.0
C1119 C 0.53963 0.16051 0.10346 0.0
H1120 H 0.44649 0.89962 0.81417 0.0
H1121 H 0.26636 0.90527 0.81039 0.0
H1122 H 0.25967 0.90347 0.86523 0.0
H1123 H 0.30566 0.90065 0.9144 0.0
H1124 H 0.48609 0.89504 0.91703 0.0
H1125 H 0.49187 0.89641 0.86243 0.0
C1126 C 0.40572 0.90049 0.82531 0.0
C1127 C 0.35705 0.90265 0.80834 0.0
C1128 C 0.40223 0.89942 0.85663 0.0
C1129 C 0.3045 0.90363 0.82305 0.0
C1130 C 0.30065 0.90261 0.85437 0.0
C1131 C 0.34614 0.89968 0.90295 0.0
C1132 C 0.39531 0.89777 0.91973 0.0
C1133 C 0.3493 0.90054 0.87142 0.0
C1134 C 0.44755 0.89652 0.90466 0.0
C1135 C 0.45099 0.89732 0.87341 0.0
H1136 H 0.69871 0.65304 0.56423 0.0
H1137 H 0.5213 0.63905 0.55425 0.0
H1138 H 0.51009 0.645 0.60986 0.0
H1139 H 0.55037 0.65377 0.66127 0.0
H1140 H 0.72768 0.66746 0.67194 0.0
H1141 H 0.73913 0.66221 0.61615 0.0
C1142 C 0.65768 0.65126 0.57427 0.0
C1143 C 0.61099 0.6456 0.55517 0.0
C1144 C 0.65141 0.65475 0.60637 0.0
C1145 C 0.55798 0.64342 0.56845 0.0
C1146 C 0.55145 0.64683 0.60027 0.0
C1147 C 0.59148 0.65575 0.65141 0.0
C1148 C 0.63805 0.66102 0.67065 0.0
C1149 C 0.59782 0.65251 0.61942 0.0
C1150 C 0.69111 0.66342 0.65756 0.0
C1151 C 0.69773 0.66037 0.62567 0.0
H1152 H 0.46381 0.39988 0.31871 0.0
H1153 H 0.28371 0.4019 0.31099 0.0
H1154 H 0.27392 0.40114 0.36596 0.0
H1155 H 0.317 0.39919 0.41629 0.0
H1156 H 0.49747 0.39705 0.42283 0.0
H1157 H 0.50643 0.39851 0.3684 0.0
C1158 C 0.42239 0.40027 0.32905 0.0
C1159 C 0.37463 0.40095 0.3108 0.0
C1160 C 0.41707 0.3997 0.36052 0.0
C1161 C 0.32124 0.40139 0.32456 0.0
C1162 C 0.31558 0.40091 0.35599 0.0
C1163 C 0.35819 0.39906 0.40575 0.0
C1164 C 0.4064 0.39796 0.42363 0.0
C1165 C 0.36324 0.39993 0.3742 0.0
C1166 C 0.45956 0.39785 0.40966 0.0
C1167 C 0.46486 0.3987 0.37848 0.0
loop_
_geom_bond_atom_site_label_1
_geom_bond_atom_site_label_2
_geom_bond_distance
_geom_bond_site_symmetry_2
_ccdc_geom_bond_type
Co0 N4 2.148 . S
Co0 N10 2.128 . S
Co0 N20 2.194 . S
Co0 O25 2.351 . S
Co0 O26 2.155 . S
Co0 O27 2.096 . S
C1 N4 1.301 . S
C1 N5 1.328 . S
C1 H6 0.930 . S
C2 C3 1.333 . S
C2 N4 1.317 . S
C2 H7 0.930 . S
C3 C2 1.333 . S
C3 N5 1.350 . S
C3 H29 0.931 . S
N4 Co0 2.148 . S
N4 C1 1.301 . S
N4 C2 1.317 . S
N5 C1 1.328 . S
N5 C3 1.350 . S
H6 C1 0.930 . S
H7 C2 0.930 . S
C8 O9 1.224 . S
C8 O27 1.247 . S
O9 C8 1.224 . S
N10 Co0 2.128 . S
N10 C11 1.355 . S
N10 C13 1.311 . S
C11 N10 1.355 . S
C11 C12 1.363 . S
C11 H23 0.929 . S
C12 C11 1.363 . S
C12 N14 1.375 . S
C12 H30 0.931 . S
C13 N10 1.311 . S
C13 N14 1.347 . S
C13 H24 0.929 . S
N14 C12 1.375 . S
N14 C13 1.347 . S
C15 C18 1.365 . S
C15 N20 1.328 1_655 S
C15 H21 0.929 . S
C16 C17 1.362 . S
C16 C19 1.378 1_655 S
C16 H31 0.929 . S
C17 C16 1.362 . S
C17 C18 1.366 . S
C18 C15 1.365 . S
C18 C17 1.366 . S
C18 H32 0.930 . S
C19 C16 1.378 1_455 S
C19 N20 1.315 . S
C19 H22 0.930 . S
N20 Co0 2.194 . S
N20 C15 1.328 1_455 S
N20 C19 1.315 . S
H21 C15 0.929 . S
H22 C19 0.930 . S
H23 C11 0.929 . S
H24 C13 0.929 . S
O25 Co0 2.351 . S
O25 C28 1.244 . S
O26 Co0 2.155 . S
O26 C28 1.240 . S
O27 Co0 2.096 . S
O27 C8 1.247 . S
C28 O25 1.244 . S
C28 O26 1.240 . S
H29 C3 0.931 . S
H30 C12 0.931 . S
H31 C16 0.929 . S
H32 C18 0.930 . S
Co33 N37 2.148 . S
Co33 N43 2.128 . S
Co33 N53 2.194 . S
Co33 O58 2.351 . S
Co33 O59 2.155 . S
Co33 O60 2.096 . S
C34 N37 1.301 . S
C34 N38 1.328 . S
C34 H39 0.930 . S
C35 C36 1.333 . S
C35 N37 1.317 . S
C35 H40 0.930 . S
C36 C35 1.333 . S
C36 N38 1.350 . S
C36 H62 0.931 . S
N37 Co33 2.148 . S
N37 C34 1.301 . S
N37 C35 1.317 . S
N38 C34 1.328 . S
N38 C36 1.350 . S
H39 C34 0.930 . S
H40 C35 0.930 . S
C41 O42 1.224 . S
C41 O60 1.247 . S
O42 C41 1.224 . S
N43 Co33 2.128 . S
N43 C44 1.355 . S
N43 C46 1.311 . S
C44 N43 1.355 . S
C44 C45 1.363 . S
C44 H56 0.929 . S
C45 C44 1.363 . S
C45 N47 1.375 . S
C45 H63 0.931 . S
C46 N43 1.311 . S
C46 N47 1.347 . S
C46 H57 0.929 . S
N47 C45 1.375 . S
N47 C46 1.347 . S
C48 C51 1.365 . S
C48 N53 1.328 1_655 S
C48 H54 0.929 . S
C49 C50 1.362 . S
C49 C52 1.378 1_655 S
C49 H64 0.929 . S
C50 C49 1.362 . S
C50 C51 1.366 . S
C51 C48 1.365 . S
C51 C50 1.366 . S
C51 H65 0.930 . S
C52 C49 1.378 1_455 S
C52 N53 1.315 . S
C52 H55 0.930 . S
N53 Co33 2.194 . S
N53 C48 1.328 1_455 S
N53 C52 1.315 . S
H54 C48 0.929 . S
H55 C52 0.930 . S
H56 C44 0.929 . S
H57 C46 0.929 . S
O58 Co33 2.351 . S
O58 C61 1.244 . S
O59 Co33 2.155 . S
O59 C61 1.240 . S
O60 Co33 2.096 . S
O60 C41 1.247 . S
C61 O58 1.244 . S
C61 O59 1.240 . S
H62 C36 0.931 . S
H63 C45 0.931 . S
H64 C49 0.929 . S
H65 C51 0.930 . S
Co66 N70 2.148 . S
Co66 N76 2.128 . S
Co66 N86 2.194 . S
Co66 O91 2.351 . S
Co66 O92 2.155 . S
Co66 O93 2.096 . S
C67 N70 1.301 . S
C67 N71 1.328 . S
C67 H72 0.930 . S
C68 C69 1.333 . S
C68 N70 1.317 . S
C68 H73 0.930 . S
C69 C68 1.333 . S
C69 N71 1.350 . S
C69 H95 0.931 . S
N70 Co66 2.148 . S
N70 C67 1.301 . S
N70 C68 1.317 . S
N71 C67 1.328 . S
N71 C69 1.350 . S
H72 C67 0.930 . S
H73 C68 0.930 . S
C74 O75 1.224 . S
C74 O93 1.247 . S
O75 C74 1.224 . S
N76 Co66 2.128 . S
N76 C77 1.355 . S
N76 C79 1.311 . S
C77 N76 1.355 . S
C77 C78 1.363 . S
C77 H89 0.929 . S
C78 C77 1.363 . S
C78 N80 1.375 . S
C78 H96 0.931 . S
C79 N76 1.311 . S
C79 N80 1.347 . S
C79 H90 0.929 . S
N80 C78 1.375 . S
N80 C79 1.347 . S
C81 C84 1.365 . S
C81 N86 1.328 1_455 S
C81 H87 0.929 . S
C82 C83 1.362 . S
C82 C85 1.378 1_455 S
C82 H97 0.929 . S
C83 C82 1.362 . S
C83 C84 1.366 . S
C84 C81 1.365 . S
C84 C83 1.366 . S
C84 H98 0.930 . S
C85 C82 1.378 1_655 S
C85 N86 1.315 . S
C85 H88 0.930 . S
N86 Co66 2.194 . S
N86 C81 1.328 1_655 S
N86 C85 1.315 . S
H87 C81 0.929 . S
H88 C85 0.930 . S
H89 C77 0.929 . S
H90 C79 0.929 . S
O91 Co66 2.351 . S
O91 C94 1.244 . S
O92 Co66 2.155 . S
O92 C94 1.240 . S
O93 Co66 2.096 . S
O93 C74 1.247 . S
C94 O91 1.244 . S
C94 O92 1.240 . S
H95 C69 0.931 . S
H96 C78 0.931 . S
H97 C82 0.929 . S
H98 C84 0.930 . S
Co99 N103 2.148 . S
Co99 N109 2.128 . S
Co99 N119 2.194 . S
Co99 O124 2.351 . S
Co99 O125 2.155 . S
Co99 O126 2.096 . S
C100 N103 1.301 . S
C100 N104 1.328 . S
C100 H105 0.930 . S
C101 C102 1.333 . S
C101 N103 1.317 . S
C101 H106 0.930 . S
C102 C101 1.333 . S
C102 N104 1.350 . S
C102 H128 0.931 . S
N103 Co99 2.148 . S
N103 C100 1.301 . S
N103 C101 1.317 . S
N104 C100 1.328 . S
N104 C102 1.350 . S
H105 C100 0.930 . S
H106 C101 0.930 . S
C107 O108 1.224 . S
C107 O126 1.247 . S
O108 C107 1.224 . S
N109 Co99 2.128 . S
N109 C110 1.355 . S
N109 C112 1.311 . S
C110 N109 1.355 . S
C110 C111 1.363 . S
C110 H122 0.929 . S
C111 C110 1.363 . S
C111 N113 1.375 . S
C111 H129 0.931 . S
C112 N109 1.311 . S
C112 N113 1.347 . S
C112 H123 0.929 . S
N113 C111 1.375 . S
N113 C112 1.347 . S
C114 C117 1.365 . S
C114 N119 1.328 1_455 S
C114 H120 0.929 . S
C115 C116 1.362 . S
C115 C118 1.378 1_455 S
C115 H130 0.929 . S
C116 C115 1.362 . S
C116 C117 1.366 . S
C117 C114 1.365 . S
C117 C116 1.366 . S
C117 H131 0.930 . S
C118 C115 1.378 1_655 S
C118 N119 1.315 . S
C118 H121 0.930 . S
N119 Co99 2.194 . S
N119 C114 1.328 1_655 S
N119 C118 1.315 . S
H120 C114 0.929 . S
H121 C118 0.930 . S
H122 C110 0.929 . S
H123 C112 0.929 . S
O124 Co99 2.351 . S
O124 C127 1.244 . S
O125 Co99 2.155 . S
O125 C127 1.240 . S
O126 Co99 2.096 . S
O126 C107 1.247 . S
C127 O124 1.244 . S
C127 O125 1.240 . S
H128 C102 0.931 . S
H129 C111 0.931 . S
H130 C115 0.929 . S
H131 C117 0.930 . S
Co132 N136 2.148 . S
Co132 N142 2.128 . S
Co132 N152 2.194 . S
Co132 O157 2.351 1_556 S
Co132 O158 2.155 1_556 S
Co132 O159 2.096 . S
C133 N136 1.301 . S
C133 N137 1.328 . S
C133 H138 0.930 . S
C134 C135 1.333 . S
C134 N136 1.317 . S
C134 H139 0.930 . S
C135 C134 1.333 . S
C135 N137 1.350 . S
C135 H161 0.931 . S
N136 Co132 2.148 . S
N136 C133 1.301 . S
N136 C134 1.317 . S
N137 C133 1.328 . S
N137 C135 1.350 . S
H138 C133 0.930 . S
H139 C134 0.930 . S
C140 O141 1.224 . S
C140 O159 1.247 . S
O141 C140 1.224 . S
N142 Co132 2.128 . S
N142 C143 1.355 . S
N142 C145 1.311 . S
C143 N142 1.355 . S
C143 C144 1.363 . S
C143 H155 0.937 . S
C144 C143 1.363 . S
C144 N146 1.375 . S
C144 H162 0.931 . S
C145 N142 1.311 . S
C145 N146 1.347 . S
C145 H156 0.929 . S
N146 C144 1.375 . S
N146 C145 1.347 . S
C147 C150 1.365 . S
C147 N152 1.328 1_655 S
C147 H153 0.929 . S
C148 C149 1.362 . S
C148 C151 1.378 1_655 S
C148 H163 0.929 . S
C149 C148 1.362 . S
C149 C150 1.366 . S
C150 C147 1.365 . S
C150 C149 1.366 . S
C150 H164 0.930 . S
C151 C148 1.378 1_455 S
C151 N152 1.315 . S
C151 H154 0.930 . S
N152 Co132 2.194 . S
N152 C147 1.328 1_455 S
N152 C151 1.315 . S
H153 C147 0.929 . S
H154 C151 0.930 . S
H155 C143 0.937 . S
H156 C145 0.929 . S
O157 Co132 2.351 1_554 S
O157 C160 1.244 . S
O158 Co132 2.155 1_554 S
O158 C160 1.240 . S
O159 Co132 2.096 . S
O159 C140 1.247 . S
C160 O157 1.244 . S
C160 O158 1.240 . S
H161 C135 0.931 . S
H162 C144 0.931 . S
H163 C148 0.929 . S
H164 C150 0.930 . S
Co165 N169 2.148 . S
Co165 N175 2.128 . S
Co165 N185 2.194 . S
Co165 O190 2.351 . S
Co165 O191 2.155 . S
Co165 O192 2.096 . S
C166 N169 1.301 . S
C166 N170 1.328 . S
C166 H171 0.930 . S
C167 C168 1.333 . S
C167 N169 1.317 . S
C167 H172 0.930 . S
C168 C167 1.333 . S
C168 N170 1.350 . S
C168 H194 0.931 . S
N169 Co165 2.148 . S
N169 C166 1.301 . S
N169 C167 1.317 . S
N170 C166 1.328 . S
N170 C168 1.350 . S
H171 C166 0.930 . S
H172 C167 0.930 . S
C173 O174 1.224 . S
C173 O192 1.247 . S
O174 C173 1.224 . S
N175 Co165 2.128 . S
N175 C176 1.355 . S
N175 C178 1.311 . S
C176 N175 1.355 . S
C176 C177 1.363 . S
C176 H188 0.929 . S
C177 C176 1.363 . S
C177 N179 1.375 . S
C177 H195 0.931 . S
C178 N175 1.311 . S
C178 N179 1.347 . S
C178 H189 0.929 . S
N179 C177 1.375 . S
N179 C178 1.347 . S
C180 C183 1.365 . S
C180 N185 1.328 1_655 S
C180 H186 0.929 . S
C181 C182 1.362 . S
C181 C184 1.378 1_655 S
C181 H196 0.929 . S
C182 C181 1.362 . S
C182 C183 1.366 . S
C183 C180 1.365 . S
C183 C182 1.366 . S
C183 H197 0.930 . S
C184 C181 1.378 1_455 S
C184 N185 1.315 . S
C184 H187 0.930 . S
N185 Co165 2.194 . S
N185 C180 1.328 1_455 S
N185 C184 1.315 . S
H186 C180 0.929 . S
H187 C184 0.930 . S
H188 C176 0.929 . S
H189 C178 0.929 . S
O190 Co165 2.351 . S
O190 C193 1.244 . S
O191 Co165 2.155 . S
O191 C193 1.240 . S
O192 Co165 2.096 . S
O192 C173 1.247 . S
C193 O190 1.244 . S
C193 O191 1.240 . S
H194 C168 0.931 . S
H195 C177 0.931 . S
H196 C181 0.929 . S
H197 C183 0.930 . S
Co198 N202 2.148 . S
Co198 N208 2.128 . S
Co198 N218 2.194 . S
Co198 O223 2.351 1_554 S
Co198 O224 2.155 1_554 S
Co198 O225 2.096 . S
C199 N202 1.301 . S
C199 N203 1.328 . S
C199 H204 0.930 . S
C200 C201 1.333 . S
C200 N202 1.317 . S
C200 H205 0.930 . S
C201 C200 1.333 . S
C201 N203 1.350 . S
C201 H227 0.931 . S
N202 Co198 2.148 . S
N202 C199 1.301 . S
N202 C200 1.317 . S
N203 C199 1.328 . S
N203 C201 1.350 . S
H204 C199 0.930 . S
H205 C200 0.930 . S
C206 O207 1.224 . S
C206 O225 1.247 . S
O207 C206 1.224 . S
N208 Co198 2.128 . S
N208 C209 1.355 . S
N208 C211 1.311 . S
C209 N208 1.355 . S
C209 C210 1.363 . S
C209 H221 0.937 . S
C210 C209 1.363 . S
C210 N212 1.375 . S
C210 H228 0.931 . S
C211 N208 1.311 . S
C211 N212 1.347 . S
C211 H222 0.929 . S
N212 C210 1.375 . S
N212 C211 1.347 . S
C213 C216 1.365 . S
C213 N218 1.328 1_455 S
C213 H219 0.929 . S
C214 C215 1.362 . S
C214 C217 1.378 1_455 S
C214 H229 0.929 . S
C215 C214 1.362 . S
C215 C216 1.366 . S
C216 C213 1.365 . S
C216 C215 1.366 . S
C216 H230 0.930 . S
C217 C214 1.378 1_655 S
C217 N218 1.315 . S
C217 H220 0.930 . S
N218 Co198 2.194 . S
N218 C213 1.328 1_655 S
N218 C217 1.315 . S
H219 C213 0.929 . S
H220 C217 0.930 . S
H221 C209 0.937 . S
H222 C211 0.929 . S
O223 Co198 2.351 1_556 S
O223 C226 1.244 . S
O224 Co198 2.155 1_556 S
O224 C226 1.240 . S
O225 Co198 2.096 . S
O225 C206 1.247 . S
C226 O223 1.244 . S
C226 O224 1.240 . S
H227 C201 0.931 . S
H228 C210 0.931 . S
H229 C214 0.929 . S
H230 C216 0.930 . S
Co231 N235 2.148 . S
Co231 N241 2.128 . S
Co231 N251 2.194 . S
Co231 O256 2.351 . S
Co231 O257 2.155 . S
Co231 O258 2.096 . S
C232 N235 1.301 . S
C232 N236 1.328 . S
C232 H237 0.930 . S
C233 C234 1.333 . S
C233 N235 1.317 . S
C233 H238 0.930 . S
C234 C233 1.333 . S
C234 N236 1.350 . S
C234 H260 0.931 . S
N235 Co231 2.148 . S
N235 C232 1.301 . S
N235 C233 1.317 . S
N236 C232 1.328 . S
N236 C234 1.350 . S
H237 C232 0.930 . S
H238 C233 0.930 . S
C239 O240 1.224 . S
C239 O258 1.247 . S
O240 C239 1.224 . S
N241 Co231 2.128 . S
N241 C242 1.355 . S
N241 C244 1.311 . S
C242 N241 1.355 . S
C242 C243 1.363 . S
C242 H254 0.929 . S
C243 C242 1.363 . S
C243 N245 1.375 . S
C243 H261 0.931 . S
C244 N241 1.311 . S
C244 N245 1.347 . S
C244 H255 0.929 . S
N245 C243 1.375 . S
N245 C244 1.347 . S
C246 C249 1.365 . S
C246 N251 1.328 1_455 S
C246 H252 0.929 . S
C247 C248 1.362 . S
C247 C250 1.378 1_455 S
C247 H262 0.929 . S
C248 C247 1.362 . S
C248 C249 1.366 . S
C249 C246 1.365 . S
C249 C248 1.366 . S
C249 H263 0.930 . S
C250 C247 1.378 1_655 S
C250 N251 1.315 . S
C250 H253 0.930 . S
N251 Co231 2.194 . S
N251 C246 1.328 1_655 S
N251 C250 1.315 . S
H252 C246 0.929 . S
H253 C250 0.930 . S
H254 C242 0.929 . S
H255 C244 0.929 . S
O256 Co231 2.351 . S
O256 C259 1.244 . S
O257 Co231 2.155 . S
O257 C259 1.240 . S
O258 Co231 2.096 . S
O258 C239 1.247 . S
C259 O256 1.244 . S
C259 O257 1.240 . S
H260 C234 0.931 . S
H261 C243 0.931 . S
H262 C247 0.929 . S
H263 C249 0.930 . S
Co264 N268 2.148 . S
Co264 N274 2.128 . S
Co264 N284 2.194 . S
Co264 O289 2.351 1_556 S
Co264 O290 2.155 1_556 S
Co264 O291 2.096 . S
C265 N268 1.301 . S
C265 N269 1.328 . S
C265 H270 0.930 . S
C266 C267 1.333 . S
C266 N268 1.317 . S
C266 H271 0.930 . S
C267 C266 1.333 . S
C267 N269 1.350 . S
C267 H293 0.931 . S
N268 Co264 2.148 . S
N268 C265 1.301 . S
N268 C266 1.317 . S
N269 C265 1.328 . S
N269 C267 1.350 . S
H270 C265 0.930 . S
H271 C266 0.930 . S
C272 O273 1.224 . S
C272 O291 1.247 . S
O273 C272 1.224 . S
N274 Co264 2.128 . S
N274 C275 1.355 . S
N274 C277 1.311 . S
C275 N274 1.355 . S
C275 C276 1.363 . S
C275 H287 0.937 . S
C276 C275 1.363 . S
C276 N278 1.375 . S
C276 H294 0.931 . S
C277 N274 1.311 . S
C277 N278 1.347 . S
C277 H288 0.929 . S
N278 C276 1.375 . S
N278 C277 1.347 . S
C279 C282 1.365 . S
C279 N284 1.328 . S
C279 H285 0.929 . S
C280 C281 1.362 . S
C280 C283 1.378 . S
C280 H295 0.929 . S
C281 C280 1.362 . S
C281 C282 1.366 . S
C282 C279 1.365 . S
C282 C281 1.366 . S
C282 H296 0.930 . S
C283 C280 1.378 . S
C283 N284 1.315 . S
C283 H286 0.930 . S
N284 Co264 2.194 . S
N284 C279 1.328 . S
N284 C283 1.315 . S
H285 C279 0.929 . S
H286 C283 0.930 . S
H287 C275 0.937 . S
H288 C277 0.929 . S
O289 Co264 2.351 1_554 S
O289 C292 1.244 . S
O290 Co264 2.155 1_554 S
O290 C292 1.240 . S
O291 Co264 2.096 . S
O291 C272 1.247 . S
C292 O289 1.244 . S
C292 O290 1.240 . S
H293 C267 0.931 . S
H294 C276 0.931 . S
H295 C280 0.929 . S
H296 C282 0.930 . S
Co297 N301 2.148 . S
Co297 N307 2.128 . S
Co297 N317 2.194 . S
Co297 O322 2.351 . S
Co297 O323 2.155 . S
Co297 O324 2.096 . S
C298 N301 1.301 . S
C298 N302 1.328 . S
C298 H303 0.930 . S
C299 C300 1.333 . S
C299 N301 1.317 . S
C299 H304 0.930 . S
C300 C299 1.333 . S
C300 N302 1.350 . S
C300 H326 0.931 . S
N301 Co297 2.148 . S
N301 C298 1.301 . S
N301 C299 1.317 . S
N302 C298 1.328 . S
N302 C300 1.350 . S
H303 C298 0.930 . S
H304 C299 0.930 . S
C305 O306 1.224 . S
C305 O324 1.247 . S
O306 C305 1.224 . S
N307 Co297 2.128 . S
N307 C308 1.355 . S
N307 C310 1.311 . S
C308 N307 1.355 . S
C308 C309 1.363 . S
C308 H320 0.929 . S
C309 C308 1.363 . S
C309 N311 1.375 . S
C309 H327 0.931 . S
C310 N307 1.311 . S
C310 N311 1.347 . S
C310 H321 0.929 . S
N311 C309 1.375 . S
N311 C310 1.347 . S
C312 C315 1.365 . S
C312 N317 1.328 . S
C312 H318 0.929 . S
C313 C314 1.362 . S
C313 C316 1.378 . S
C313 H328 0.929 . S
C314 C313 1.362 . S
C314 C315 1.366 . S
C315 C312 1.365 . S
C315 C314 1.366 . S
C315 H329 0.930 . S
C316 C313 1.378 . S
C316 N317 1.315 . S
C316 H319 0.930 . S
N317 Co297 2.194 . S
N317 C312 1.328 . S
N317 C316 1.315 . S
H318 C312 0.929 . S
H319 C316 0.930 . S
H320 C308 0.929 . S
H321 C310 0.929 . S
O322 Co297 2.351 . S
O322 C325 1.244 . S
O323 Co297 2.155 . S
O323 C325 1.240 . S
O324 Co297 2.096 . S
O324 C305 1.247 . S
C325 O322 1.244 . S
C325 O323 1.240 . S
H326 C300 0.931 . S
H327 C309 0.931 . S
H328 C313 0.929 . S
H329 C315 0.930 . S
Co330 N334 2.148 . S
Co330 N340 2.128 . S
Co330 N350 2.194 . S
Co330 O355 2.351 1_554 S
Co330 O356 2.155 1_554 S
Co330 O357 2.096 . S
C331 N334 1.301 . S
C331 N335 1.328 . S
C331 H336 0.930 . S
C332 C333 1.333 . S
C332 N334 1.317 . S
C332 H337 0.930 . S
C333 C332 1.333 . S
C333 N335 1.350 . S
C333 H359 0.931 . S
N334 Co330 2.148 . S
N334 C331 1.301 . S
N334 C332 1.317 . S
N335 C331 1.328 . S
N335 C333 1.350 . S
H336 C331 0.930 . S
H337 C332 0.930 . S
C338 O339 1.224 . S
C338 O357 1.247 . S
O339 C338 1.224 . S
N340 Co330 2.128 . S
N340 C341 1.355 . S
N340 C343 1.311 . S
C341 N340 1.355 . S
C341 C342 1.363 . S
C341 H353 0.937 . S
C342 C341 1.363 . S
C342 N344 1.375 . S
C342 H360 0.931 . S
C343 N340 1.311 . S
C343 N344 1.347 . S
C343 H354 0.929 . S
N344 C342 1.375 . S
N344 C343 1.347 . S
C345 C348 1.365 . S
C345 N350 1.328 . S
C345 H351 0.929 . S
C346 C347 1.362 . S
C346 C349 1.378 . S
C346 H361 0.929 . S
C347 C346 1.362 . S
C347 C348 1.366 . S
C348 C345 1.365 . S
C348 C347 1.366 . S
C348 H362 0.930 . S
C349 C346 1.378 . S
C349 N350 1.315 . S
C349 H352 0.930 . S
N350 Co330 2.194 . S
N350 C345 1.328 . S
N350 C349 1.315 . S
H351 C345 0.929 . S
H352 C349 0.930 . S
H353 C341 0.937 . S
H354 C343 0.929 . S
O355 Co330 2.351 1_556 S
O355 C358 1.244 . S
O356 Co330 2.155 1_556 S
O356 C358 1.240 . S
O357 Co330 2.096 . S
O357 C338 1.247 . S
C358 O355 1.244 . S
C358 O356 1.240 . S
H359 C333 0.931 . S
H360 C342 0.931 . S
H361 C346 0.929 . S
H362 C348 0.930 . S
Co363 N367 2.148 . S
Co363 N373 2.128 . S
Co363 N383 2.194 . S
Co363 O388 2.351 . S
Co363 O389 2.155 . S
Co363 O390 2.096 . S
C364 N367 1.301 . S
C364 N368 1.328 . S
C364 H369 0.930 . S
C365 C366 1.333 . S
C365 N367 1.317 . S
C365 H370 0.930 . S
C366 C365 1.333 . S
C366 N368 1.350 . S
C366 H392 0.931 . S
N367 Co363 2.148 . S
N367 C364 1.301 . S
N367 C365 1.317 . S
N368 C364 1.328 . S
N368 C366 1.350 . S
H369 C364 0.930 . S
H370 C365 0.930 . S
C371 O372 1.224 . S
C371 O390 1.247 . S
O372 C371 1.224 . S
N373 Co363 2.128 . S
N373 C374 1.355 . S
N373 C376 1.311 . S
C374 N373 1.355 . S
C374 C375 1.363 . S
C374 H386 0.929 . S
C375 C374 1.363 . S
C375 N377 1.375 . S
C375 H393 0.931 . S
C376 N373 1.311 . S
C376 N377 1.347 . S
C376 H387 0.929 . S
N377 C375 1.375 . S
N377 C376 1.347 . S
C378 C381 1.365 . S
C378 N383 1.328 . S
C378 H384 0.929 . S
C379 C380 1.362 . S
C379 C382 1.378 . S
C379 H394 0.929 . S
C380 C379 1.362 . S
C380 C381 1.366 . S
C381 C378 1.365 . S
C381 C380 1.366 . S
C381 H395 0.930 . S
C382 C379 1.378 . S
C382 N383 1.315 . S
C382 H385 0.930 . S
N383 Co363 2.194 . S
N383 C378 1.328 . S
N383 C382 1.315 . S
H384 C378 0.929 . S
H385 C382 0.930 . S
H386 C374 0.929 . S
H387 C376 0.929 . S
O388 Co363 2.351 . S
O388 C391 1.244 . S
O389 Co363 2.155 . S
O389 C391 1.240 . S
O390 Co363 2.096 . S
O390 C371 1.247 . S
C391 O388 1.244 . S
C391 O389 1.240 . S
H392 C366 0.931 . S
H393 C375 0.931 . S
H394 C379 0.929 . S
H395 C381 0.930 . S
Co396 N400 2.148 . S
Co396 N406 2.128 . S
Co396 N416 2.194 . S
Co396 O421 2.351 . S
Co396 O422 2.155 . S
Co396 O423 2.096 . S
C397 N400 1.301 . S
C397 N401 1.328 . S
C397 H402 0.930 . S
C398 C399 1.333 . S
C398 N400 1.317 . S
C398 H403 0.930 . S
C399 C398 1.333 . S
C399 N401 1.350 . S
C399 H425 0.931 . S
N400 Co396 2.148 . S
N400 C397 1.301 . S
N400 C398 1.317 . S
N401 C397 1.328 . S
N401 C399 1.350 . S
H402 C397 0.930 . S
H403 C398 0.930 . S
C404 O405 1.224 . S
C404 O423 1.247 . S
O405 C404 1.224 . S
N406 Co396 2.128 . S
N406 C407 1.355 . S
N406 C409 1.311 . S
C407 N406 1.355 . S
C407 C408 1.363 . S
C407 H419 0.929 . S
C408 C407 1.363 . S
C408 N410 1.375 . S
C408 H426 0.931 . S
C409 N406 1.311 . S
C409 N410 1.347 . S
C409 H420 0.929 . S
N410 C408 1.375 . S
N410 C409 1.347 . S
C411 C414 1.365 . S
C411 N416 1.328 . S
C411 H417 0.929 . S
C412 C413 1.362 . S
C412 C415 1.378 . S
C412 H427 0.929 . S
C413 C412 1.362 . S
C413 C414 1.366 . S
C414 C411 1.365 . S
C414 C413 1.366 . S
C414 H428 0.930 . S
C415 C412 1.378 . S
C415 N416 1.315 . S
C415 H418 0.930 . S
N416 Co396 2.194 . S
N416 C411 1.328 . S
N416 C415 1.315 . S
H417 C411 0.929 . S
H418 C415 0.930 . S
H419 C407 0.929 . S
H420 C409 0.929 . S
O421 Co396 2.351 . S
O421 C424 1.244 . S
O422 Co396 2.155 . S
O422 C424 1.240 . S
O423 Co396 2.096 . S
O423 C404 1.247 . S
C424 O421 1.244 . S
C424 O422 1.240 . S
H425 C399 0.931 . S
H426 C408 0.931 . S
H427 C412 0.929 . S
H428 C414 0.930 . S
Co429 N433 2.148 . S
Co429 N439 2.128 . S
Co429 N449 2.194 . S
Co429 O454 2.351 . S
Co429 O455 2.155 . S
Co429 O456 2.096 . S
C430 N433 1.301 . S
C430 N434 1.328 . S
C430 H435 0.930 . S
C431 C432 1.333 . S
C431 N433 1.317 . S
C431 H436 0.930 . S
C432 C431 1.333 . S
C432 N434 1.350 . S
C432 H458 0.931 . S
N433 Co429 2.148 . S
N433 C430 1.301 . S
N433 C431 1.317 . S
N434 C430 1.328 . S
N434 C432 1.350 . S
H435 C430 0.930 . S
H436 C431 0.930 . S
C437 O438 1.224 . S
C437 O456 1.247 . S
O438 C437 1.224 . S
N439 Co429 2.128 . S
N439 C440 1.355 . S
N439 C442 1.311 . S
C440 N439 1.355 . S
C440 C441 1.363 . S
C440 H452 0.929 . S
C441 C440 1.363 . S
C441 N443 1.375 . S
C441 H459 0.931 . S
C442 N439 1.311 . S
C442 N443 1.347 . S
C442 H453 0.929 . S
N443 C441 1.375 . S
N443 C442 1.347 . S
C444 C447 1.365 . S
C444 N449 1.328 . S
C444 H450 0.929 . S
C445 C446 1.362 . S
C445 C448 1.378 . S
C445 H460 0.929 . S
C446 C445 1.362 . S
C446 C447 1.366 . S
C447 C444 1.365 . S
C447 C446 1.366 . S
C447 H461 0.930 . S
C448 C445 1.378 . S
C448 N449 1.315 . S
C448 H451 0.930 . S
N449 Co429 2.194 . S
N449 C444 1.328 . S
N449 C448 1.315 . S
H450 C444 0.929 . S
H451 C448 0.930 . S
H452 C440 0.929 . S
H453 C442 0.929 . S
O454 Co429 2.351 . S
O454 C457 1.244 . S
O455 Co429 2.155 . S
O455 C457 1.240 . S
O456 Co429 2.096 . S
O456 C437 1.247 . S
C457 O454 1.244 . S
C457 O455 1.240 . S
H458 C432 0.931 . S
H459 C441 0.931 . S
H460 C445 0.929 . S
H461 C447 0.930 . S
Co462 N466 2.148 . S
Co462 N472 2.128 . S
Co462 N482 2.194 . S
Co462 O487 2.351 . S
Co462 O488 2.155 . S
Co462 O489 2.096 . S
C463 N466 1.301 . S
C463 N467 1.328 . S
C463 H468 0.930 . S
C464 C465 1.333 . S
C464 N466 1.317 . S
C464 H469 0.930 . S
C465 C464 1.333 . S
C465 N467 1.350 . S
C465 H491 0.931 . S
N466 Co462 2.148 . S
N466 C463 1.301 . S
N466 C464 1.317 . S
N467 C463 1.328 . S
N467 C465 1.350 . S
H468 C463 0.930 . S
H469 C464 0.930 . S
C470 O471 1.224 . S
C470 O489 1.247 . S
O471 C470 1.224 . S
N472 Co462 2.128 . S
N472 C473 1.355 . S
N472 C475 1.311 . S
C473 N472 1.355 . S
C473 C474 1.363 . S
C473 H485 0.929 . S
C474 C473 1.363 . S
C474 N476 1.375 . S
C474 H492 0.931 . S
C475 N472 1.311 . S
C475 N476 1.347 . S
C475 H486 0.929 . S
N476 C474 1.375 . S
N476 C475 1.347 . S
C477 C480 1.365 . S
C477 N482 1.328 . S
C477 H483 0.929 . S
C478 C479 1.362 . S
C478 C481 1.378 . S
C478 H493 0.929 . S
C479 C478 1.362 . S
C479 C480 1.366 . S
C480 C477 1.365 . S
C480 C479 1.366 . S
C480 H494 0.930 . S
C481 C478 1.378 . S
C481 N482 1.315 . S
C481 H484 0.930 . S
N482 Co462 2.194 . S
N482 C477 1.328 . S
N482 C481 1.315 . S
H483 C477 0.929 . S
H484 C481 0.930 . S
H485 C473 0.929 . S
H486 C475 0.929 . S
O487 Co462 2.351 . S
O487 C490 1.244 . S
O488 Co462 2.155 . S
O488 C490 1.240 . S
O489 Co462 2.096 . S
O489 C470 1.247 . S
C490 O487 1.244 . S
C490 O488 1.240 . S
H491 C465 0.931 . S
H492 C474 0.931 . S
H493 C478 0.929 . S
H494 C480 0.930 . S
Co495 N499 2.148 . S
Co495 N505 2.128 . S
Co495 N515 2.194 . S
Co495 O520 2.351 . S
Co495 O521 2.155 . S
Co495 O522 2.096 . S
C496 N499 1.301 . S
C496 N500 1.328 . S
C496 H501 0.930 . S
C497 C498 1.333 . S
C497 N499 1.317 . S
C497 H502 0.930 . S
C498 C497 1.333 . S
C498 N500 1.350 . S
C498 H524 0.931 . S
N499 Co495 2.148 . S
N499 C496 1.301 . S
N499 C497 1.317 . S
N500 C496 1.328 . S
N500 C498 1.350 . S
H501 C496 0.930 . S
H502 C497 0.930 . S
C503 O504 1.224 . S
C503 O522 1.247 . S
O504 C503 1.224 . S
N505 Co495 2.128 . S
N505 C506 1.355 . S
N505 C508 1.311 . S
C506 N505 1.355 . S
C506 C507 1.363 . S
C506 H518 0.929 . S
C507 C506 1.363 . S
C507 N509 1.375 . S
C507 H525 0.931 . S
C508 N505 1.311 . S
C508 N509 1.347 . S
C508 H519 0.929 . S
N509 C507 1.375 . S
N509 C508 1.347 . S
C510 C513 1.365 . S
C510 N515 1.328 . S
C510 H516 0.929 . S
C511 C512 1.362 . S
C511 C514 1.378 . S
C511 H526 0.929 . S
C512 C511 1.362 . S
C512 C513 1.366 . S
C513 C510 1.365 . S
C513 C512 1.366 . S
C513 H527 0.930 . S
C514 C511 1.378 . S
C514 N515 1.315 . S
C514 H517 0.930 . S
N515 Co495 2.194 . S
N515 C510 1.328 . S
N515 C514 1.315 . S
H516 C510 0.929 . S
H517 C514 0.930 . S
H518 C506 0.929 . S
H519 C508 0.929 . S
O520 Co495 2.351 . S
O520 C523 1.244 . S
O521 Co495 2.155 . S
O521 C523 1.240 . S
O522 Co495 2.096 . S
O522 C503 1.247 . S
C523 O520 1.244 . S
C523 O521 1.240 . S
H524 C498 0.931 . S
H525 C507 0.931 . S
H526 C511 0.929 . S
H527 C513 0.930 . S
H528 C534 0.930 . S
H529 C537 0.930 . S
H530 C538 0.930 . S
H531 C539 0.930 . S
H532 C542 0.930 . S
H533 C543 0.930 . S
C534 H528 0.930 . S
C534 C535 1.355 . S
C534 C536 1.415 . S
C535 C534 1.355 . S
C535 C537 1.419 . S
C536 C534 1.415 . S
C536 C541 1.425 . S
C536 C543 1.409 . S
C537 H529 0.930 . S
C537 C535 1.419 . S
C537 C538 1.362 . S
C538 H530 0.930 . S
C538 C537 1.362 . S
C538 C541 1.409 . S
C539 H531 0.930 . S
C539 C540 1.355 . S
C539 C541 1.415 . S
C540 C539 1.355 . S
C540 C542 1.419 . S
C541 C536 1.425 . S
C541 C538 1.409 . S
C541 C539 1.415 . S
C542 H532 0.930 . S
C542 C540 1.419 . S
C542 C543 1.362 . S
C543 H533 0.930 . S
C543 C536 1.409 . S
C543 C542 1.362 . S
H544 C550 0.930 . S
H545 C553 0.930 . S
H546 C554 0.930 . S
H547 C555 0.930 . S
H548 C558 0.930 . S
H549 C559 0.930 . S
C550 H544 0.930 . S
C550 C551 1.355 . S
C550 C552 1.415 1_565 S
C551 C550 1.355 . S
C551 C553 1.419 1_655 S
C552 C550 1.415 1_545 S
C552 C557 1.425 1_645 S
C552 C559 1.409 . S
C553 H545 0.930 . S
C553 C551 1.419 1_455 S
C553 C554 1.362 . S
C554 H546 0.930 . S
C554 C553 1.362 . S
C554 C557 1.409 . S
C555 H547 0.930 . S
C555 C556 1.355 . S
C555 C557 1.415 1_545 S
C556 C555 1.355 . S
C556 C558 1.419 1_455 S
C557 C552 1.425 1_465 S
C557 C554 1.409 . S
C557 C555 1.415 1_565 S
C558 H548 0.930 . S
C558 C556 1.419 1_655 S
C558 C559 1.362 . S
C559 H549 0.930 . S
C559 C552 1.409 . S
C559 C558 1.362 . S
H560 C566 0.930 . S
H561 C569 0.930 . S
H562 C570 0.930 . S
H563 C571 0.930 . S
H564 C574 0.930 . S
H565 C575 0.930 . S
C566 H560 0.930 . S
C566 C567 1.355 . S
C566 C568 1.415 . S
C567 C566 1.355 . S
C567 C569 1.419 . S
C568 C566 1.415 . S
C568 C573 1.425 1_545 S
C568 C575 1.409 . S
C569 H561 0.930 . S
C569 C567 1.419 . S
C569 C570 1.362 1_545 S
C570 H562 0.930 . S
C570 C569 1.362 1_565 S
C570 C573 1.409 . S
C571 H563 0.930 . S
C571 C572 1.355 . S
C571 C573 1.415 . S
C572 C571 1.355 . S
C572 C574 1.419 . S
C573 C568 1.425 1_565 S
C573 C570 1.409 . S
C573 C571 1.415 . S
C574 H564 0.930 . S
C574 C572 1.419 . S
C574 C575 1.362 1_565 S
C575 H565 0.930 . S
C575 C568 1.409 . S
C575 C574 1.362 1_545 S
H576 C582 0.930 . S
H577 C585 0.930 . S
H578 C586 0.930 . S
H579 C587 0.930 . S
H580 C590 0.930 . S
H581 C591 0.930 . S
C582 H576 0.930 . S
C582 C583 1.355 . S
C582 C584 1.415 . S
C583 C582 1.355 . S
C583 C585 1.419 1_655 S
C584 C582 1.415 . S
C584 C589 1.425 1_655 S
C584 C591 1.409 . S
C585 H577 0.930 . S
C585 C583 1.419 1_455 S
C585 C586 1.362 . S
C586 H578 0.930 . S
C586 C585 1.362 . S
C586 C589 1.409 . S
C587 H579 0.930 . S
C587 C588 1.355 . S
C587 C589 1.415 . S
C588 C587 1.355 . S
C588 C590 1.419 1_455 S
C589 C584 1.425 1_455 S
C589 C586 1.409 . S
C589 C587 1.415 . S
C590 H580 0.930 . S
C590 C588 1.419 1_655 S
C590 C591 1.362 . S
C591 H581 0.930 . S
C591 C584 1.409 . S
C591 C590 1.362 . S
H592 C598 0.930 . S
H593 C601 0.930 . S
H594 C602 0.930 . S
H595 C603 0.930 . S
H596 C606 0.930 . S
H597 C607 0.930 . S
C598 H592 0.930 . S
C598 C599 1.355 . S
C598 C600 1.415 . S
C599 C598 1.355 . S
C599 C601 1.419 . S
C600 C598 1.415 . S
C600 C605 1.425 . S
C600 C607 1.409 . S
C601 H593 0.930 . S
C601 C599 1.419 . S
C601 C602 1.362 . S
C602 H594 0.930 . S
C602 C601 1.362 . S
C602 C605 1.409 . S
C603 H595 0.930 . S
C603 C604 1.355 . S
C603 C605 1.415 . S
C604 C603 1.355 . S
C604 C606 1.419 . S
C605 C600 1.425 . S
C605 C602 1.409 . S
C605 C603 1.415 . S
C606 H596 0.930 . S
C606 C604 1.419 . S
C606 C607 1.362 . S
C607 H597 0.930 . S
C607 C600 1.409 . S
C607 C606 1.362 . S
H608 C614 0.930 . S
H609 C617 0.930 . S
H610 C618 0.930 . S
H611 C619 0.930 . S
H612 C622 0.930 . S
H613 C623 0.930 . S
C614 H608 0.930 . S
C614 C615 1.355 . S
C614 C616 1.415 1_565 S
C615 C614 1.355 . S
C615 C617 1.419 . S
C616 C614 1.415 1_545 S
C616 C621 1.425 1_545 S
C616 C623 1.409 . S
C617 H609 0.930 . S
C617 C615 1.419 . S
C617 C618 1.362 . S
C618 H610 0.930 . S
C618 C617 1.362 . S
C618 C621 1.409 . S
C619 H611 0.930 . S
C619 C620 1.355 . S
C619 C621 1.415 1_545 S
C620 C619 1.355 . S
C620 C622 1.419 . S
C621 C616 1.425 1_565 S
C621 C618 1.409 . S
C621 C619 1.415 1_565 S
C622 H612 0.930 . S
C622 C620 1.419 . S
C622 C623 1.362 . S
C623 H613 0.930 . S
C623 C616 1.409 . S
C623 C622 1.362 . S
H624 C630 0.930 . S
H625 C633 0.930 . S
H626 C634 0.930 . S
H627 C635 0.930 . S
H628 C638 0.930 . S
H629 C639 0.930 . S
C630 H624 0.930 . S
C630 C631 1.355 1_455 S
C630 C632 1.415 . S
C631 C630 1.355 1_655 S
C631 C633 1.419 . S
C632 C630 1.415 . S
C632 C637 1.425 1_455 S
C632 C639 1.409 . S
C633 H625 0.930 . S
C633 C631 1.419 . S
C633 C634 1.362 . S
C634 H626 0.930 . S
C634 C633 1.362 . S
C634 C637 1.409 . S
C635 H627 0.930 . S
C635 C636 1.355 1_655 S
C635 C637 1.415 . S
C636 C635 1.355 1_455 S
C636 C638 1.419 . S
C637 C632 1.425 1_655 S
C637 C634 1.409 . S
C637 C635 1.415 . S
C638 H628 0.930 . S
C638 C636 1.419 . S
C638 C639 1.362 . S
C639 H629 0.930 . S
C639 C632 1.409 . S
C639 C638 1.362 . S
H640 C646 0.930 . S
H641 C649 0.919 1_556 S
H642 C650 0.930 . S
H643 C651 0.930 . S
H644 C654 0.919 1_554 S
H645 C655 0.930 . S
C646 H640 0.930 . S
C646 C647 1.355 . S
C646 C648 1.415 . S
C647 C646 1.355 . S
C647 C649 1.432 . S
C648 C646 1.415 . S
C648 C653 1.425 1_554 S
C648 C655 1.409 . S
C649 H641 0.919 1_554 S
C649 C647 1.432 . S
C649 C650 1.357 1_554 S
C650 H642 0.930 . S
C650 C649 1.357 1_556 S
C650 C653 1.409 . S
C651 H643 0.930 . S
C651 C652 1.355 . S
C651 C653 1.415 . S
C652 C651 1.355 . S
C652 C654 1.432 . S
C653 C648 1.425 1_556 S
C653 C650 1.409 . S
C653 C651 1.415 . S
C654 H644 0.919 1_556 S
C654 C652 1.432 . S
C654 C655 1.357 1_556 S
C655 H645 0.930 . S
C655 C648 1.409 . S
C655 C654 1.357 1_554 S
H656 C662 0.930 . S
H657 C665 0.930 . S
H658 C666 0.930 . S
H659 C667 0.930 . S
H660 C670 0.930 . S
H661 C671 0.930 . S
C662 H656 0.930 . S
C662 C663 1.355 1_556 S
C662 C664 1.410 1_655 S
C663 C662 1.355 1_554 S
C663 C665 1.419 . S
C664 C662 1.410 1_455 S
C664 C669 1.425 1_456 S
C664 C671 1.414 . S
C665 H657 0.930 . S
C665 C663 1.419 . S
C665 C666 1.362 . S
C666 H658 0.930 . S
C666 C665 1.362 . S
C666 C669 1.414 . S
C667 H659 0.930 . S
C667 C668 1.355 1_554 S
C667 C669 1.410 1_455 S
C668 C667 1.355 1_556 S
C668 C670 1.419 . S
C669 C664 1.425 1_654 S
C669 C666 1.414 . S
C669 C667 1.410 1_655 S
C670 H660 0.930 . S
C670 C668 1.419 . S
C670 C671 1.362 . S
C671 H661 0.930 . S
C671 C664 1.414 . S
C671 C670 1.362 . S
H672 C678 0.930 . S
H673 C681 0.930 . S
H674 C682 0.930 . S
H675 C683 0.930 . S
H676 C686 0.930 . S
H677 C687 0.930 . S
C678 H672 0.930 . S
C678 C679 1.355 . S
C678 C680 1.415 . S
C679 C678 1.355 . S
C679 C681 1.419 . S
C680 C678 1.415 . S
C680 C685 1.425 . S
C680 C687 1.409 . S
C681 H673 0.930 . S
C681 C679 1.419 . S
C681 C682 1.362 . S
C682 H674 0.930 . S
C682 C681 1.362 . S
C682 C685 1.409 . S
C683 H675 0.930 . S
C683 C684 1.355 . S
C683 C685 1.415 . S
C684 C683 1.355 . S
C684 C686 1.419 . S
C685 C680 1.425 . S
C685 C682 1.409 . S
C685 C683 1.415 . S
C686 H676 0.930 . S
C686 C684 1.419 . S
C686 C687 1.362 . S
C687 H677 0.930 . S
C687 C680 1.409 . S
C687 C686 1.362 . S
H688 C694 0.930 . S
H689 C697 0.930 . S
H690 C698 0.930 . S
H691 C699 0.930 . S
H692 C702 0.930 . S
H693 C703 0.930 . S
C694 H688 0.930 . S
C694 C695 1.355 . S
C694 C696 1.415 . S
C695 C694 1.355 . S
C695 C697 1.419 1_556 S
C696 C694 1.415 . S
C696 C701 1.425 1_556 S
C696 C703 1.409 . S
C697 H689 0.930 . S
C697 C695 1.419 1_554 S
C697 C698 1.362 . S
C698 H690 0.930 . S
C698 C697 1.362 . S
C698 C701 1.409 . S
C699 H691 0.930 . S
C699 C700 1.355 . S
C699 C701 1.415 . S
C700 C699 1.355 . S
C700 C702 1.419 1_554 S
C701 C696 1.425 1_554 S
C701 C698 1.409 . S
C701 C699 1.415 . S
C702 H692 0.930 . S
C702 C700 1.419 1_556 S
C702 C703 1.362 . S
C703 H693 0.930 . S
C703 C696 1.409 . S
C703 C702 1.362 . S
H704 C710 0.930 . S
H705 C713 0.930 . S
H706 C714 0.930 . S
H707 C715 0.930 . S
H708 C718 0.930 . S
H709 C719 0.930 . S
C710 H704 0.930 . S
C710 C711 1.355 . S
C710 C712 1.415 . S
C711 C710 1.355 . S
C711 C713 1.419 . S
C712 C710 1.415 . S
C712 C717 1.425 . S
C712 C719 1.409 . S
C713 H705 0.930 . S
C713 C711 1.419 . S
C713 C714 1.362 . S
C714 H706 0.930 . S
C714 C713 1.362 . S
C714 C717 1.409 . S
C715 H707 0.930 . S
C715 C716 1.355 . S
C715 C717 1.415 . S
C716 C715 1.355 . S
C716 C718 1.419 . S
C717 C712 1.425 . S
C717 C714 1.409 . S
C717 C715 1.415 . S
C718 H708 0.930 . S
C718 C716 1.419 . S
C718 C719 1.362 . S
C719 H709 0.930 . S
C719 C712 1.409 . S
C719 C718 1.362 . S
H720 C726 0.930 . S
H721 C729 0.930 1_554 S
H722 C730 0.930 1_565 S
H723 C731 0.930 . S
H724 C734 0.930 1_556 S
H725 C735 0.930 1_545 S
C726 H720 0.930 . S
C726 C727 1.355 . S
C726 C728 1.415 . S
C727 C726 1.355 . S
C727 C729 1.429 . S
C728 C726 1.415 . S
C728 C733 1.425 1_546 S
C728 C735 1.409 1_545 S
C729 H721 0.930 1_556 S
C729 C727 1.429 . S
C729 C730 1.353 1_556 S
C730 H722 0.930 1_545 S
C730 C729 1.353 1_554 S
C730 C733 1.409 1_545 S
C731 H723 0.930 . S
C731 C732 1.355 . S
C731 C733 1.415 . S
C732 C731 1.355 . S
C732 C734 1.429 . S
C733 C728 1.425 1_564 S
C733 C730 1.409 1_565 S
C733 C731 1.415 . S
C734 H724 0.930 1_554 S
C734 C732 1.429 . S
C734 C735 1.353 1_554 S
C735 H725 0.930 1_565 S
C735 C728 1.409 1_565 S
C735 C734 1.353 1_556 S
H736 C742 0.930 . S
H737 C745 0.930 . S
H738 C746 0.930 . S
H739 C747 0.930 . S
H740 C750 0.930 . S
H741 C751 0.930 . S
C742 H736 0.930 . S
C742 C743 1.355 . S
C742 C744 1.415 . S
C743 C742 1.355 . S
C743 C745 1.419 . S
C744 C742 1.415 . S
C744 C749 1.425 . S
C744 C751 1.409 . S
C745 H737 0.930 . S
C745 C743 1.419 . S
C745 C746 1.362 . S
C746 H738 0.930 . S
C746 C745 1.362 . S
C746 C749 1.409 . S
C747 H739 0.930 . S
C747 C748 1.355 . S
C747 C749 1.415 . S
C748 C747 1.355 . S
C748 C750 1.419 . S
C749 C744 1.425 . S
C749 C746 1.409 . S
C749 C747 1.415 . S
C750 H740 0.930 . S
C750 C748 1.419 . S
C750 C751 1.362 . S
C751 H741 0.930 . S
C751 C744 1.409 . S
C751 C750 1.362 . S
H752 C758 0.930 . S
H753 C761 0.930 . S
H754 C762 0.930 . S
H755 C763 0.930 . S
H756 C766 0.930 . S
H757 C767 0.930 . S
C758 H752 0.930 . S
C758 C759 1.355 . S
C758 C760 1.415 . S
C759 C758 1.355 . S
C759 C761 1.419 . S
C760 C758 1.415 . S
C760 C765 1.425 . S
C760 C767 1.409 . S
C761 H753 0.930 . S
C761 C759 1.419 . S
C761 C762 1.362 . S
C762 H754 0.930 . S
C762 C761 1.362 . S
C762 C765 1.409 . S
C763 H755 0.930 . S
C763 C764 1.355 . S
C763 C765 1.415 . S
C764 C763 1.355 . S
C764 C766 1.419 . S
C765 C760 1.425 . S
C765 C762 1.409 . S
C765 C763 1.415 . S
C766 H756 0.930 . S
C766 C764 1.419 . S
C766 C767 1.362 . S
C767 H757 0.930 . S
C767 C760 1.409 . S
C767 C766 1.362 . S
H768 C774 0.930 . S
H769 C777 0.930 . S
H770 C778 0.930 . S
H771 C779 0.930 . S
H772 C782 0.930 . S
H773 C783 0.930 . S
C774 H768 0.930 . S
C774 C775 1.355 . S
C774 C776 1.415 . S
C775 C774 1.355 . S
C775 C777 1.419 . S
C776 C774 1.415 . S
C776 C781 1.425 . S
C776 C783 1.409 . S
C777 H769 0.930 . S
C777 C775 1.419 . S
C777 C778 1.362 . S
C778 H770 0.930 . S
C778 C777 1.362 . S
C778 C781 1.409 . S
C779 H771 0.930 . S
C779 C780 1.355 . S
C779 C781 1.415 . S
C780 C779 1.355 . S
C780 C782 1.419 . S
C781 C776 1.425 . S
C781 C778 1.409 . S
C781 C779 1.415 . S
C782 H772 0.930 . S
C782 C780 1.419 . S
C782 C783 1.362 . S
C783 H773 0.930 . S
C783 C776 1.409 . S
C783 C782 1.362 . S
H784 C790 0.930 . S
H785 C793 0.930 . S
H786 C794 0.930 . S
H787 C795 0.930 . S
H788 C798 0.930 . S
H789 C799 0.930 . S
C790 H784 0.930 . S
C790 C791 1.355 . S
C790 C792 1.415 . S
C791 C790 1.355 . S
C791 C793 1.419 . S
C792 C790 1.415 . S
C792 C797 1.425 . S
C792 C799 1.409 . S
C793 H785 0.930 . S
C793 C791 1.419 . S
C793 C794 1.362 . S
C794 H786 0.930 . S
C794 C793 1.362 . S
C794 C797 1.409 . S
C795 H787 0.930 . S
C795 C796 1.355 . S
C795 C797 1.415 . S
C796 C795 1.355 . S
C796 C798 1.419 . S
C797 C792 1.425 . S
C797 C794 1.409 . S
C797 C795 1.415 . S
C798 H788 0.930 . S
C798 C796 1.419 . S
C798 C799 1.362 . S
C799 H789 0.930 . S
C799 C792 1.409 . S
C799 C798 1.362 . S
H800 C806 0.930 . S
H801 C809 0.930 . S
H802 C810 0.930 . S
H803 C811 0.930 . S
H804 C814 0.930 . S
H805 C815 0.930 . S
C806 H800 0.930 . S
C806 C807 1.355 . S
C806 C808 1.415 . S
C807 C806 1.355 . S
C807 C809 1.419 . S
C808 C806 1.415 . S
C808 C813 1.425 . S
C808 C815 1.409 . S
C809 H801 0.930 . S
C809 C807 1.419 . S
C809 C810 1.362 . S
C810 H802 0.930 . S
C810 C809 1.362 . S
C810 C813 1.409 . S
C811 H803 0.930 . S
C811 C812 1.355 . S
C811 C813 1.415 . S
C812 C811 1.355 . S
C812 C814 1.419 . S
C813 C808 1.425 . S
C813 C810 1.409 . S
C813 C811 1.415 . S
C814 H804 0.930 . S
C814 C812 1.419 . S
C814 C815 1.362 . S
C815 H805 0.930 . S
C815 C808 1.409 . S
C815 C814 1.362 . S
H816 C822 0.930 . S
H817 C825 0.930 . S
H818 C826 0.930 . S
H819 C827 0.930 . S
H820 C830 0.930 . S
H821 C831 0.930 . S
C822 H816 0.930 . S
C822 C823 1.355 . S
C822 C824 1.415 . S
C823 C822 1.355 . S
C823 C825 1.419 . S
C824 C822 1.415 . S
C824 C829 1.425 . S
C824 C831 1.409 . S
C825 H817 0.930 . S
C825 C823 1.419 . S
C825 C826 1.362 . S
C826 H818 0.930 . S
C826 C825 1.362 . S
C826 C829 1.409 . S
C827 H819 0.930 . S
C827 C828 1.355 . S
C827 C829 1.415 . S
C828 C827 1.355 . S
C828 C830 1.419 . S
C829 C824 1.425 . S
C829 C826 1.409 . S
C829 C827 1.415 . S
C830 H820 0.930 . S
C830 C828 1.419 . S
C830 C831 1.362 . S
C831 H821 0.930 . S
C831 C824 1.409 . S
C831 C830 1.362 . S
H832 C838 0.930 . S
H833 C841 0.930 . S
H834 C842 0.930 . S
H835 C843 0.930 . S
H836 C846 0.930 . S
H837 C847 0.930 . S
C838 H832 0.930 . S
C838 C839 1.355 . S
C838 C840 1.415 . S
C839 C838 1.355 . S
C839 C841 1.419 . S
C840 C838 1.415 . S
C840 C845 1.425 . S
C840 C847 1.409 . S
C841 H833 0.930 . S
C841 C839 1.419 . S
C841 C842 1.362 . S
C842 H834 0.930 . S
C842 C841 1.362 . S
C842 C845 1.409 . S
C843 H835 0.930 . S
C843 C844 1.355 . S
C843 C845 1.415 . S
C844 C843 1.355 . S
C844 C846 1.419 . S
C845 C840 1.425 . S
C845 C842 1.409 . S
C845 C843 1.415 . S
C846 H836 0.930 . S
C846 C844 1.419 . S
C846 C847 1.362 . S
C847 H837 0.930 . S
C847 C840 1.409 . S
C847 C846 1.362 . S
H848 C854 0.930 . S
H849 C857 0.930 . S
H850 C858 0.930 . S
H851 C859 0.930 . S
H852 C862 0.930 . S
H853 C863 0.930 . S
C854 H848 0.930 . S
C854 C855 1.355 . S
C854 C856 1.415 . S
C855 C854 1.355 . S
C855 C857 1.419 . S
C856 C854 1.415 . S
C856 C861 1.425 . S
C856 C863 1.409 . S
C857 H849 0.930 . S
C857 C855 1.419 . S
C857 C858 1.362 . S
C858 H850 0.930 . S
C858 C857 1.362 . S
C858 C861 1.409 . S
C859 H851 0.930 . S
C859 C860 1.355 . S
C859 C861 1.415 . S
C860 C859 1.355 . S
C860 C862 1.419 . S
C861 C856 1.425 . S
C861 C858 1.409 . S
C861 C859 1.415 . S
C862 H852 0.930 . S
C862 C860 1.419 . S
C862 C863 1.362 . S
C863 H853 0.930 . S
C863 C856 1.409 . S
C863 C862 1.362 . S
H864 C870 0.930 . S
H865 C873 0.930 . S
H866 C874 0.930 . S
H867 C875 0.930 . S
H868 C878 0.930 . S
H869 C879 0.930 . S
C870 H864 0.930 . S
C870 C871 1.355 . S
C870 C872 1.415 . S
C871 C870 1.355 . S
C871 C873 1.419 . S
C872 C870 1.415 . S
C872 C877 1.425 . S
C872 C879 1.409 . S
C873 H865 0.930 . S
C873 C871 1.419 . S
C873 C874 1.362 . S
C874 H866 0.930 . S
C874 C873 1.362 . S
C874 C877 1.409 . S
C875 H867 0.930 . S
C875 C876 1.355 . S
C875 C877 1.415 . S
C876 C875 1.355 . S
C876 C878 1.419 . S
C877 C872 1.425 . S
C877 C874 1.409 . S
C877 C875 1.415 . S
C878 H868 0.930 . S
C878 C876 1.419 . S
C878 C879 1.362 . S
C879 H869 0.930 . S
C879 C872 1.409 . S
C879 C878 1.362 . S
H880 C886 0.930 . S
H881 C889 0.930 . S
H882 C890 0.930 . S
H883 C891 0.930 . S
H884 C894 0.930 . S
H885 C895 0.930 . S
C886 H880 0.930 . S
C886 C887 1.355 . S
C886 C888 1.415 . S
C887 C886 1.355 . S
C887 C889 1.419 . S
C888 C886 1.415 . S
C888 C893 1.425 . S
C888 C895 1.409 . S
C889 H881 0.930 . S
C889 C887 1.419 . S
C889 C890 1.362 . S
C890 H882 0.930 . S
C890 C889 1.362 . S
C890 C893 1.409 . S
C891 H883 0.930 . S
C891 C892 1.355 . S
C891 C893 1.415 . S
C892 C891 1.355 . S
C892 C894 1.419 . S
C893 C888 1.425 . S
C893 C890 1.409 . S
C893 C891 1.415 . S
C894 H884 0.930 . S
C894 C892 1.419 . S
C894 C895 1.362 . S
C895 H885 0.930 . S
C895 C888 1.409 . S
C895 C894 1.362 . S
H896 C902 0.930 . S
H897 C905 0.930 . S
H898 C906 0.930 . S
H899 C907 0.930 . S
H900 C910 0.930 . S
H901 C911 0.930 . S
C902 H896 0.930 . S
C902 C903 1.355 . S
C902 C904 1.415 . S
C903 C902 1.355 . S
C903 C905 1.419 . S
C904 C902 1.415 . S
C904 C909 1.425 . S
C904 C911 1.409 . S
C905 H897 0.930 . S
C905 C903 1.419 . S
C905 C906 1.362 . S
C906 H898 0.930 . S
C906 C905 1.362 . S
C906 C909 1.409 . S
C907 H899 0.930 . S
C907 C908 1.355 . S
C907 C909 1.415 . S
C908 C907 1.355 . S
C908 C910 1.419 . S
C909 C904 1.425 . S
C909 C906 1.409 . S
C909 C907 1.415 . S
C910 H900 0.930 . S
C910 C908 1.419 . S
C910 C911 1.362 . S
C911 H901 0.930 . S
C911 C904 1.409 . S
C911 C910 1.362 . S
H912 C918 0.930 . S
H913 C921 0.930 . S
H914 C922 0.930 . S
H915 C923 0.930 . S
H916 C926 0.930 . S
H917 C927 0.930 . S
C918 H912 0.930 . S
C918 C919 1.355 . S
C918 C920 1.415 . S
C919 C918 1.355 . S
C919 C921 1.419 . S
C920 C918 1.415 . S
C920 C925 1.425 . S
C920 C927 1.409 . S
C921 H913 0.930 . S
C921 C919 1.419 . S
C921 C922 1.362 . S
C922 H914 0.930 . S
C922 C921 1.362 . S
C922 C925 1.409 . S
C923 H915 0.930 . S
C923 C924 1.355 . S
C923 C925 1.415 . S
C924 C923 1.355 . S
C924 C926 1.419 . S
C925 C920 1.425 . S
C925 C922 1.409 . S
C925 C923 1.415 . S
C926 H916 0.930 . S
C926 C924 1.419 . S
C926 C927 1.362 . S
C927 H917 0.930 . S
C927 C920 1.409 . S
C927 C926 1.362 . S
H928 C934 0.930 . S
H929 C937 0.930 . S
H930 C938 0.930 . S
H931 C939 0.930 . S
H932 C942 0.930 . S
H933 C943 0.930 . S
C934 H928 0.930 . S
C934 C935 1.355 . S
C934 C936 1.415 . S
C935 C934 1.355 . S
C935 C937 1.419 . S
C936 C934 1.415 . S
C936 C941 1.425 . S
C936 C943 1.409 . S
C937 H929 0.930 . S
C937 C935 1.419 . S
C937 C938 1.362 . S
C938 H930 0.930 . S
C938 C937 1.362 . S
C938 C941 1.409 . S
C939 H931 0.930 . S
C939 C940 1.355 . S
C939 C941 1.415 . S
C940 C939 1.355 . S
C940 C942 1.419 . S
C941 C936 1.425 . S
C941 C938 1.409 . S
C941 C939 1.415 . S
C942 H932 0.930 . S
C942 C940 1.419 . S
C942 C943 1.362 . S
C943 H933 0.930 . S
C943 C936 1.409 . S
C943 C942 1.362 . S
H944 C950 0.930 . S
H945 C953 0.930 . S
H946 C954 0.930 . S
H947 C955 0.930 . S
H948 C958 0.930 . S
H949 C959 0.930 . S
C950 H944 0.930 . S
C950 C951 1.355 . S
C950 C952 1.415 . S
C951 C950 1.355 . S
C951 C953 1.419 . S
C952 C950 1.415 . S
C952 C957 1.425 . S
C952 C959 1.409 . S
C953 H945 0.930 . S
C953 C951 1.419 . S
C953 C954 1.362 . S
C954 H946 0.930 . S
C954 C953 1.362 . S
C954 C957 1.409 . S
C955 H947 0.930 . S
C955 C956 1.355 . S
C955 C957 1.415 . S
C956 C955 1.355 . S
C956 C958 1.419 . S
C957 C952 1.425 . S
C957 C954 1.409 . S
C957 C955 1.415 . S
C958 H948 0.930 . S
C958 C956 1.419 . S
C958 C959 1.362 . S
C959 H949 0.930 . S
C959 C952 1.409 . S
C959 C958 1.362 . S
H960 C966 0.930 . S
H961 C969 0.930 . S
H962 C970 0.930 . S
H963 C971 0.930 . S
H964 C974 0.930 . S
H965 C975 0.930 . S
C966 H960 0.930 . S
C966 C967 1.355 . S
C966 C968 1.415 . S
C967 C966 1.355 . S
C967 C969 1.419 . S
C968 C966 1.415 . S
C968 C973 1.425 . S
C968 C975 1.409 . S
C969 H961 0.930 . S
C969 C967 1.419 . S
C969 C970 1.362 . S
C970 H962 0.930 . S
C970 C969 1.362 . S
C970 C973 1.409 . S
C971 H963 0.930 . S
C971 C972 1.355 . S
C971 C973 1.415 . S
C972 C971 1.355 . S
C972 C974 1.419 . S
C973 C968 1.425 . S
C973 C970 1.409 . S
C973 C971 1.415 . S
C974 H964 0.930 . S
C974 C972 1.419 . S
C974 C975 1.362 . S
C975 H965 0.930 . S
C975 C968 1.409 . S
C975 C974 1.362 . S
H976 C982 0.930 . S
H977 C985 0.930 . S
H978 C986 0.930 . S
H979 C987 0.930 . S
H980 C990 0.930 . S
H981 C991 0.930 . S
C982 H976 0.930 . S
C982 C983 1.355 . S
C982 C984 1.415 . S
C983 C982 1.355 . S
C983 C985 1.419 . S
C984 C982 1.415 . S
C984 C989 1.425 . S
C984 C991 1.409 . S
C985 H977 0.930 . S
C985 C983 1.419 . S
C985 C986 1.362 . S
C986 H978 0.930 . S
C986 C985 1.362 . S
C986 C989 1.409 . S
C987 H979 0.930 . S
C987 C988 1.355 . S
C987 C989 1.415 . S
C988 C987 1.355 . S
C988 C990 1.419 . S
C989 C984 1.425 . S
C989 C986 1.409 . S
C989 C987 1.415 . S
C990 H980 0.930 . S
C990 C988 1.419 . S
C990 C991 1.362 . S
C991 H981 0.930 . S
C991 C984 1.409 . S
C991 C990 1.362 . S
H992 C998 0.930 . S
H993 C1001 0.930 . S
H994 C1002 0.930 . S
H995 C1003 0.930 . S
H996 C1006 0.930 . S
H997 C1007 0.930 . S
C998 H992 0.930 . S
C998 C999 1.355 . S
C998 C1000 1.415 . S
C999 C998 1.355 . S
C999 C1001 1.419 . S
C1000 C998 1.415 . S
C1000 C1005 1.425 . S
C1000 C1007 1.409 . S
C1001 H993 0.930 . S
C1001 C999 1.419 . S
C1001 C1002 1.362 . S
C1002 H994 0.930 . S
C1002 C1001 1.362 . S
C1002 C1005 1.409 . S
C1003 H995 0.930 . S
C1003 C1004 1.355 . S
C1003 C1005 1.415 . S
C1004 C1003 1.355 . S
C1004 C1006 1.419 . S
C1005 C1000 1.425 . S
C1005 C1002 1.409 . S
C1005 C1003 1.415 . S
C1006 H996 0.930 . S
C1006 C1004 1.419 . S
C1006 C1007 1.362 . S
C1007 H997 0.930 . S
C1007 C1000 1.409 . S
C1007 C1006 1.362 . S
H1008 C1014 0.930 . S
H1009 C1017 0.930 . S
H1010 C1018 0.930 . S
H1011 C1019 0.930 . S
H1012 C1022 0.930 . S
H1013 C1023 0.930 . S
C1014 H1008 0.930 . S
C1014 C1015 1.355 . S
C1014 C1016 1.415 . S
C1015 C1014 1.355 . S
C1015 C1017 1.419 . S
C1016 C1014 1.415 . S
C1016 C1021 1.425 . S
C1016 C1023 1.409 . S
C1017 H1009 0.930 . S
C1017 C1015 1.419 . S
C1017 C1018 1.362 . S
C1018 H1010 0.930 . S
C1018 C1017 1.362 . S
C1018 C1021 1.409 . S
C1019 H1011 0.930 . S
C1019 C1020 1.355 . S
C1019 C1021 1.415 . S
C1020 C1019 1.355 . S
C1020 C1022 1.419 . S
C1021 C1016 1.425 . S
C1021 C1018 1.409 . S
C1021 C1019 1.415 . S
C1022 H1012 0.930 . S
C1022 C1020 1.419 . S
C1022 C1023 1.362 . S
C1023 H1013 0.930 . S
C1023 C1016 1.409 . S
C1023 C1022 1.362 . S
H1024 C1030 0.930 . S
H1025 C1033 0.930 . S
H1026 C1034 0.930 . S
H1027 C1035 0.930 . S
H1028 C1038 0.930 . S
H1029 C1039 0.930 . S
C1030 H1024 0.930 . S
C1030 C1031 1.355 . S
C1030 C1032 1.415 . S
C1031 C1030 1.355 . S
C1031 C1033 1.419 . S
C1032 C1030 1.415 . S
C1032 C1037 1.425 . S
C1032 C1039 1.409 . S
C1033 H1025 0.930 . S
C1033 C1031 1.419 . S
C1033 C1034 1.362 . S
C1034 H1026 0.930 . S
C1034 C1033 1.362 . S
C1034 C1037 1.409 . S
C1035 H1027 0.930 . S
C1035 C1036 1.355 . S
C1035 C1037 1.415 . S
C1036 C1035 1.355 . S
C1036 C1038 1.419 . S
C1037 C1032 1.425 . S
C1037 C1034 1.409 . S
C1037 C1035 1.415 . S
C1038 H1028 0.930 . S
C1038 C1036 1.419 . S
C1038 C1039 1.362 . S
C1039 H1029 0.930 . S
C1039 C1032 1.409 . S
C1039 C1038 1.362 . S
H1040 C1046 0.930 . S
H1041 C1049 0.930 . S
H1042 C1050 0.930 . S
H1043 C1051 0.930 . S
H1044 C1054 0.930 . S
H1045 C1055 0.930 . S
C1046 H1040 0.930 . S
C1046 C1047 1.355 . S
C1046 C1048 1.415 . S
C1047 C1046 1.355 . S
C1047 C1049 1.419 . S
C1048 C1046 1.415 . S
C1048 C1053 1.425 . S
C1048 C1055 1.409 . S
C1049 H1041 0.930 . S
C1049 C1047 1.419 . S
C1049 C1050 1.362 . S
C1050 H1042 0.930 . S
C1050 C1049 1.362 . S
C1050 C1053 1.409 . S
C1051 H1043 0.930 . S
C1051 C1052 1.355 . S
C1051 C1053 1.415 . S
C1052 C1051 1.355 . S
C1052 C1054 1.419 . S
C1053 C1048 1.425 . S
C1053 C1050 1.409 . S
C1053 C1051 1.415 . S
C1054 H1044 0.930 . S
C1054 C1052 1.419 . S
C1054 C1055 1.362 . S
C1055 H1045 0.930 . S
C1055 C1048 1.409 . S
C1055 C1054 1.362 . S
H1056 C1062 0.930 . S
H1057 C1065 0.930 . S
H1058 C1066 0.930 . S
H1059 C1067 0.930 . S
H1060 C1070 0.930 . S
H1061 C1071 0.930 . S
C1062 H1056 0.930 . S
C1062 C1063 1.355 . S
C1062 C1064 1.415 . S
C1063 C1062 1.355 . S
C1063 C1065 1.419 . S
C1064 C1062 1.415 . S
C1064 C1069 1.425 . S
C1064 C1071 1.409 . S
C1065 H1057 0.930 . S
C1065 C1063 1.419 . S
C1065 C1066 1.362 . S
C1066 H1058 0.930 . S
C1066 C1065 1.362 . S
C1066 C1069 1.409 . S
C1067 H1059 0.930 . S
C1067 C1068 1.355 . S
C1067 C1069 1.415 . S
C1068 C1067 1.355 . S
C1068 C1070 1.419 . S
C1069 C1064 1.425 . S
C1069 C1066 1.409 . S
C1069 C1067 1.415 . S
C1070 H1060 0.930 . S
C1070 C1068 1.419 . S
C1070 C1071 1.362 . S
C1071 H1061 0.930 . S
C1071 C1064 1.409 . S
C1071 C1070 1.362 . S
H1072 C1078 0.930 . S
H1073 C1081 0.930 . S
H1074 C1082 0.930 . S
H1075 C1083 0.930 . S
H1076 C1086 0.930 . S
H1077 C1087 0.930 . S
C1078 H1072 0.930 . S
C1078 C1079 1.355 . S
C1078 C1080 1.415 . S
C1079 C1078 1.355 . S
C1079 C1081 1.419 . S
C1080 C1078 1.415 . S
C1080 C1085 1.425 . S
C1080 C1087 1.409 . S
C1081 H1073 0.930 . S
C1081 C1079 1.419 . S
C1081 C1082 1.362 . S
C1082 H1074 0.930 . S
C1082 C1081 1.362 . S
C1082 C1085 1.409 . S
C1083 H1075 0.930 . S
C1083 C1084 1.355 . S
C1083 C1085 1.415 . S
C1084 C1083 1.355 . S
C1084 C1086 1.419 . S
C1085 C1080 1.425 . S
C1085 C1082 1.409 . S
C1085 C1083 1.415 . S
C1086 H1076 0.930 . S
C1086 C1084 1.419 . S
C1086 C1087 1.362 . S
C1087 H1077 0.930 . S
C1087 C1080 1.409 . S
C1087 C1086 1.362 . S
H1088 C1094 0.930 . S
H1089 C1097 0.930 . S
H1090 C1098 0.947 . S
H1091 C1099 0.930 . S
H1092 C1102 0.930 . S
H1093 C1103 0.930 . S
C1094 H1088 0.930 . S
C1094 C1095 1.355 . S
C1094 C1096 1.415 . S
C1095 C1094 1.355 . S
C1095 C1097 1.419 . S
C1096 C1094 1.415 . S
C1096 C1101 1.425 . S
C1096 C1103 1.409 . S
C1097 H1089 0.930 . S
C1097 C1095 1.419 . S
C1097 C1098 1.362 . S
C1098 H1090 0.947 . S
C1098 C1097 1.362 . S
C1098 C1101 1.409 . S
C1099 H1091 0.930 . S
C1099 C1100 1.355 . S
C1099 C1101 1.415 . S
C1100 C1099 1.355 . S
C1100 C1102 1.419 . S
C1101 C1096 1.425 . S
C1101 C1098 1.409 . S
C1101 C1099 1.415 . S
C1102 H1092 0.930 . S
C1102 C1100 1.419 . S
C1102 C1103 1.362 . S
C1103 H1093 0.930 . S
C1103 C1096 1.409 . S
C1103 C1102 1.362 . S
H1104 C1110 0.930 . S
H1105 C1113 0.930 . S
H1106 C1114 0.930 . S
H1107 C1115 0.930 . S
H1108 C1118 0.930 . S
H1109 C1119 0.930 . S
C1110 H1104 0.930 . S
C1110 C1111 1.355 . S
C1110 C1112 1.415 . S
C1111 C1110 1.355 . S
C1111 C1113 1.419 . S
C1112 C1110 1.415 . S
C1112 C1117 1.425 . S
C1112 C1119 1.409 . S
C1113 H1105 0.930 . S
C1113 C1111 1.419 . S
C1113 C1114 1.362 . S
C1114 H1106 0.930 . S
C1114 C1113 1.362 . S
C1114 C1117 1.409 . S
C1115 H1107 0.930 . S
C1115 C1116 1.355 . S
C1115 C1117 1.415 . S
C1116 C1115 1.355 . S
C1116 C1118 1.419 . S
C1117 C1112 1.425 . S
C1117 C1114 1.409 . S
C1117 C1115 1.415 . S
C1118 H1108 0.930 . S
C1118 C1116 1.419 . S
C1118 C1119 1.362 . S
C1119 H1109 0.930 . S
C1119 C1112 1.409 . S
C1119 C1118 1.362 . S
H1120 C1126 0.930 . S
H1121 C1129 0.930 . S
H1122 C1130 0.930 . S
H1123 C1131 0.930 . S
H1124 C1134 0.930 . S
H1125 C1135 0.930 . S
C1126 H1120 0.930 . S
C1126 C1127 1.355 . S
C1126 C1128 1.415 . S
C1127 C1126 1.355 . S
C1127 C1129 1.419 . S
C1128 C1126 1.415 . S
C1128 C1133 1.425 . S
C1128 C1135 1.409 . S
C1129 H1121 0.930 . S
C1129 C1127 1.419 . S
C1129 C1130 1.362 . S
C1130 H1122 0.930 . S
C1130 C1129 1.362 . S
C1130 C1133 1.409 . S
C1131 H1123 0.930 . S
C1131 C1132 1.355 . S
C1131 C1133 1.415 . S
C1132 C1131 1.355 . S
C1132 C1134 1.419 . S
C1133 C1128 1.425 . S
C1133 C1130 1.409 . S
C1133 C1131 1.415 . S
C1134 H1124 0.930 . S
C1134 C1132 1.419 . S
C1134 C1135 1.362 . S
C1135 H1125 0.930 . S
C1135 C1128 1.409 . S
C1135 C1134 1.362 . S
H1136 C1142 0.930 . S
H1137 C1145 0.930 . S
H1138 C1146 0.930 . S
H1139 C1147 0.930 . S
H1140 C1150 0.930 . S
H1141 C1151 0.930 . S
C1142 H1136 0.930 . S
C1142 C1143 1.355 . S
C1142 C1144 1.415 . S
C1143 C1142 1.355 . S
C1143 C1145 1.419 . S
C1144 C1142 1.415 . S
C1144 C1149 1.425 . S
C1144 C1151 1.409 . S
C1145 H1137 0.930 . S
C1145 C1143 1.419 . S
C1145 C1146 1.362 . S
C1146 H1138 0.930 . S
C1146 C1145 1.362 . S
C1146 C1149 1.409 . S
C1147 H1139 0.930 . S
C1147 C1148 1.355 . S
C1147 C1149 1.415 . S
C1148 C1147 1.355 . S
C1148 C1150 1.419 . S
C1149 C1144 1.425 . S
C1149 C1146 1.409 . S
C1149 C1147 1.415 . S
C1150 H1140 0.930 . S
C1150 C1148 1.419 . S
C1150 C1151 1.362 . S
C1151 H1141 0.930 . S
C1151 C1144 1.409 . S
C1151 C1150 1.362 . S
H1152 C1158 0.930 . S
H1153 C1161 0.930 . S
H1154 C1162 0.930 . S
H1155 C1163 0.930 . S
H1156 C1166 0.930 . S
H1157 C1167 0.930 . S
C1158 H1152 0.930 . S
C1158 C1159 1.355 . S
C1158 C1160 1.415 . S
C1159 C1158 1.355 . S
C1159 C1161 1.419 . S
C1160 C1158 1.415 . S
C1160 C1165 1.425 . S
C1160 C1167 1.409 . S
C1161 H1153 0.930 . S
C1161 C1159 1.419 . S
C1161 C1162 1.362 . S
C1162 H1154 0.930 . S
C1162 C1161 1.362 . S
C1162 C1165 1.409 . S
C1163 H1155 0.930 . S
C1163 C1164 1.355 . S
C1163 C1165 1.415 . S
C1164 C1163 1.355 . S
C1164 C1166 1.419 . S
C1165 C1160 1.425 . S
C1165 C1162 1.409 . S
C1165 C1163 1.415 . S
C1166 H1156 0.930 . S
C1166 C1164 1.419 . S
C1166 C1167 1.362 . S
C1167 H1157 0.930 . S
C1167 C1160 1.409 . S
C1167 C1166 1.362 . S
C535 N14 1.616 . S
C540 N476 1.616 . S
C551 N71 1.605 . S
C556 N5 1.605 . S
C567 N47 1.624 . S
C572 N377 1.624 . S
C583 N236 1.611 . S
C588 N38 1.611 . S
C599 N80 1.638 . S
C604 N410 1.638 . S
C615 N113 1.624 . S
C620 N311 1.624 . S
C631 N104 1.591 . S
C636 N170 1.591 . S
C647 N344 1.624 . S
C652 N146 1.624 . S
C663 N203 1.603 . S
C668 N137 1.603 . S
C679 N179 1.660 . S
C684 N509 1.660 . S
C695 N278 1.613 . S
C700 N212 1.613 . S
C711 N443 1.628 . S
C716 N245 1.628 . S
C727 N269 1.588 . S
C732 N335 1.588 . S
C743 N500 1.590 . S
C748 N302 1.590 . S
C759 N368 1.593 . S
C764 N434 1.593 . S
C775 N401 1.597 . S
C780 N467 1.597 . S
C791 C8 1.288 . S
C796 C314 1.276 . S
C807 C305 1.248 . S
C812 C17 1.275 . S
C823 C41 1.245 . S
C828 C281 1.253 . S
C839 C50 1.284 . S
C844 C272 1.255 . S
C855 C380 1.262 . S
C860 C74 1.244 . S
C871 C371 1.244 . S
C876 C83 1.256 . S
C887 C107 1.251 . S
C892 C347 1.244 . S
C903 C116 1.269 . S
C908 C338 1.289 . S
C919 C140 1.252 . S
C924 C446 1.281 . S
C935 C437 1.288 . S
C940 C149 1.260 . S
C951 C173 1.255 . S
C956 C413 1.242 . S
C967 C404 1.264 . S
C972 C182 1.288 . S
C983 C512 1.253 . S
C988 C206 1.245 . S
C999 C215 1.250 . S
C1004 C503 1.283 . S
C1015 C239 1.272 . S
C1020 C479 1.289 . S
C1031 C248 1.287 . S
C1036 C470 1.278 . S
C1047 C61 1.052 . S
C1052 C28 1.040 . S
C1063 C94 1.052 . S
C1068 C127 1.037 . S
C1079 C160 1.051 . S
C1084 C193 1.041 . S
C1095 C226 1.052 . S
C1100 C259 1.040 . S
C1111 C325 1.040 . S
C1116 C292 1.048 . S
C1127 C391 1.040 . S
C1132 C358 1.052 . S
C1143 C424 1.042 . S
C1148 C457 1.046 . S
C1159 C523 1.040 . S
C1164 C490 1.052 . S
