# Generated by pormake.
# Topology wge, (5)-cn, num edge types: 1
# Building blocks:
#     Node 0, Type 0, BuildingBlock: XOMCOT_clean_sbu_0, # of connection points: 5
#     Node 1, Type 0, BuildingBlock: XOMCOT_clean_sbu_0, # of connection points: 5
#     Node 2, Type 0, BuildingBlock: XOMCOT_clean_sbu_0, # of connection points: 5
#     Node 3, Type 0, BuildingBlock: XOMCOT_clean_sbu_0, # of connection points: 5
#     Node 4, Type 0, BuildingBlock: XOMCOT_clean_sbu_0, # of connection points: 5
#     Node 5, Type 0, BuildingBlock: XOMCOT_clean_sbu_0, # of connection points: 5
#     Node 6, Type 0, BuildingBlock: XOMCOT_clean_sbu_0, # of connection points: 5
#     Node 7, Type 0, BuildingBlock: XOMCOT_clean_sbu_0, # of connection points: 5
#     Node 8, Type 0, BuildingBlock: XOMCOT_clean_sbu_0, # of connection points: 5
#     Node 9, Type 0, BuildingBlock: XOMCOT_clean_sbu_0, # of connection points: 5
#     Node 10, Type 0, BuildingBlock: XOMCOT_clean_sbu_0, # of connection points: 5
#     Node 11, Type 0, BuildingBlock: XOMCOT_clean_sbu_0, # of connection points: 5
#     Node 12, Type 0, BuildingBlock: XOMCOT_clean_sbu_0, # of connection points: 5
#     Node 13, Type 0, BuildingBlock: XOMCOT_clean_sbu_0, # of connection points: 5
#     Node 14, Type 0, BuildingBlock: XOMCOT_clean_sbu_0, # of connection points: 5
#     Node 15, Type 0, BuildingBlock: XOMCOT_clean_sbu_0, # of connection points: 5
#     Node 16, Type 0, BuildingBlock: XOMCOT_clean_sbu_0, # of connection points: 5
#     Node 17, Type 0, BuildingBlock: XOMCOT_clean_sbu_0, # of connection points: 5
#     Node 18, Type 0, BuildingBlock: XOMCOT_clean_sbu_0, # of connection points: 5
#     Node 19, Type 0, BuildingBlock: XOMCOT_clean_sbu_0, # of connection points: 5
#     Node 20, Type 0, BuildingBlock: XOMCOT_clean_sbu_0, # of connection points: 5
#     Node 21, Type 0, BuildingBlock: XOMCOT_clean_sbu_0, # of connection points: 5
#     Node 22, Type 0, BuildingBlock: XOMCOT_clean_sbu_0, # of connection points: 5
#     Node 23, Type 0, BuildingBlock: XOMCOT_clean_sbu_0, # of connection points: 5
#     Node 24, Type 0, BuildingBlock: XOMCOT_clean_sbu_0, # of connection points: 5
#     Node 25, Type 0, BuildingBlock: XOMCOT_clean_sbu_0, # of connection points: 5
#     Node 26, Type 0, BuildingBlock: XOMCOT_clean_sbu_0, # of connection points: 5
#     Node 27, Type 0, BuildingBlock: XOMCOT_clean_sbu_0, # of connection points: 5
#     Node 28, Type 0, BuildingBlock: XOMCOT_clean_sbu_0, # of connection points: 5
#     Node 29, Type 0, BuildingBlock: XOMCOT_clean_sbu_0, # of connection points: 5
#     Node 30, Type 0, BuildingBlock: XOMCOT_clean_sbu_0, # of connection points: 5
#     Node 31, Type 0, BuildingBlock: XOMCOT_clean_sbu_0, # of connection points: 5
#     Edge 32, Type (0, 0), BuildingBlock: OJICUG_clean_linker_0, # of connection points: 2
#     Edge 33, Type (0, 0), BuildingBlock: OJICUG_clean_linker_0, # of connection points: 2
#     Edge 34, Type (0, 0), BuildingBlock: OJICUG_clean_linker_0, # of connection points: 2
#     Edge 35, Type (0, 0), BuildingBlock: OJICUG_clean_linker_0, # of connection points: 2
#     Edge 36, Type (0, 0), BuildingBlock: OJICUG_clean_linker_0, # of connection points: 2
#     Edge 37, Type (0, 0), BuildingBlock: OJICUG_clean_linker_0, # of connection points: 2
#     Edge 38, Type (0, 0), BuildingBlock: OJICUG_clean_linker_0, # of connection points: 2
#     Edge 39, Type (0, 0), BuildingBlock: OJICUG_clean_linker_0, # of connection points: 2
#     Edge 40, Type (0, 0), BuildingBlock: OJICUG_clean_linker_0, # of connection points: 2
#     Edge 41, Type (0, 0), BuildingBlock: OJICUG_clean_linker_0, # of connection points: 2
#     Edge 42, Type (0, 0), BuildingBlock: OJICUG_clean_linker_0, # of connection points: 2
#     Edge 43, Type (0, 0), BuildingBlock: OJICUG_clean_linker_0, # of connection points: 2
#     Edge 44, Type (0, 0), BuildingBlock: OJICUG_clean_linker_0, # of connection points: 2
#     Edge 45, Type (0, 0), BuildingBlock: OJICUG_clean_linker_0, # of connection points: 2
#     Edge 46, Type (0, 0), BuildingBlock: OJICUG_clean_linker_0, # of connection points: 2
#     Edge 47, Type (0, 0), BuildingBlock: OJICUG_clean_linker_0, # of connection points: 2
#     Edge 48, Type (0, 0), BuildingBlock: OJICUG_clean_linker_0, # of connection points: 2
#     Edge 49, Type (0, 0), BuildingBlock: OJICUG_clean_linker_0, # of connection points: 2
#     Edge 50, Type (0, 0), BuildingBlock: OJICUG_clean_linker_0, # of connection points: 2
#     Edge 51, Type (0, 0), BuildingBlock: OJICUG_clean_linker_0, # of connection points: 2
#     Edge 52, Type (0, 0), BuildingBlock: OJICUG_clean_linker_0, # of connection points: 2
#     Edge 53, Type (0, 0), BuildingBlock: OJICUG_clean_linker_0, # of connection points: 2
#     Edge 54, Type (0, 0), BuildingBlock: OJICUG_clean_linker_0, # of connection points: 2
#     Edge 55, Type (0, 0), BuildingBlock: OJICUG_clean_linker_0, # of connection points: 2
#     Edge 56, Type (0, 0), BuildingBlock: OJICUG_clean_linker_0, # of connection points: 2
#     Edge 57, Type (0, 0), BuildingBlock: OJICUG_clean_linker_0, # of connection points: 2
#     Edge 58, Type (0, 0), BuildingBlock: OJICUG_clean_linker_0, # of connection points: 2
#     Edge 59, Type (0, 0), BuildingBlock: OJICUG_clean_linker_0, # of connection points: 2
#     Edge 60, Type (0, 0), BuildingBlock: OJICUG_clean_linker_0, # of connection points: 2
#     Edge 61, Type (0, 0), BuildingBlock: OJICUG_clean_linker_0, # of connection points: 2
#     Edge 62, Type (0, 0), BuildingBlock: OJICUG_clean_linker_0, # of connection points: 2
#     Edge 63, Type (0, 0), BuildingBlock: OJICUG_clean_linker_0, # of connection points: 2
#     Edge 64, Type (0, 0), BuildingBlock: OJICUG_clean_linker_0, # of connection points: 2
#     Edge 65, Type (0, 0), BuildingBlock: OJICUG_clean_linker_0, # of connection points: 2
#     Edge 66, Type (0, 0), BuildingBlock: OJICUG_clean_linker_0, # of connection points: 2
#     Edge 67, Type (0, 0), BuildingBlock: OJICUG_clean_linker_0, # of connection points: 2
#     Edge 68, Type (0, 0), BuildingBlock: OJICUG_clean_linker_0, # of connection points: 2
#     Edge 69, Type (0, 0), BuildingBlock: OJICUG_clean_linker_0, # of connection points: 2
#     Edge 70, Type (0, 0), BuildingBlock: OJICUG_clean_linker_0, # of connection points: 2
#     Edge 71, Type (0, 0), BuildingBlock: OJICUG_clean_linker_0, # of connection points: 2
#     Edge 72, Type (0, 0), BuildingBlock: OJICUG_clean_linker_0, # of connection points: 2
#     Edge 73, Type (0, 0), BuildingBlock: OJICUG_clean_linker_0, # of connection points: 2
#     Edge 74, Type (0, 0), BuildingBlock: OJICUG_clean_linker_0, # of connection points: 2
#     Edge 75, Type (0, 0), BuildingBlock: OJICUG_clean_linker_0, # of connection points: 2
#     Edge 76, Type (0, 0), BuildingBlock: OJICUG_clean_linker_0, # of connection points: 2
#     Edge 77, Type (0, 0), BuildingBlock: OJICUG_clean_linker_0, # of connection points: 2
#     Edge 78, Type (0, 0), BuildingBlock: OJICUG_clean_linker_0, # of connection points: 2
#     Edge 79, Type (0, 0), BuildingBlock: OJICUG_clean_linker_0, # of connection points: 2
#     Edge 80, Type (0, 0), BuildingBlock: OJICUG_clean_linker_0, # of connection points: 2
#     Edge 81, Type (0, 0), BuildingBlock: OJICUG_clean_linker_0, # of connection points: 2
#     Edge 82, Type (0, 0), BuildingBlock: OJICUG_clean_linker_0, # of connection points: 2
#     Edge 83, Type (0, 0), BuildingBlock: OJICUG_clean_linker_0, # of connection points: 2
#     Edge 84, Type (0, 0), BuildingBlock: OJICUG_clean_linker_0, # of connection points: 2
#     Edge 85, Type (0, 0), BuildingBlock: OJICUG_clean_linker_0, # of connection points: 2
#     Edge 86, Type (0, 0), BuildingBlock: OJICUG_clean_linker_0, # of connection points: 2
#     Edge 87, Type (0, 0), BuildingBlock: OJICUG_clean_linker_0, # of connection points: 2
#     Edge 88, Type (0, 0), BuildingBlock: OJICUG_clean_linker_0, # of connection points: 2
#     Edge 89, Type (0, 0), BuildingBlock: OJICUG_clean_linker_0, # of connection points: 2
#     Edge 90, Type (0, 0), BuildingBlock: OJICUG_clean_linker_0, # of connection points: 2
#     Edge 91, Type (0, 0), BuildingBlock: OJICUG_clean_linker_0, # of connection points: 2
#     Edge 92, Type (0, 0), BuildingBlock: OJICUG_clean_linker_0, # of connection points: 2
#     Edge 93, Type (0, 0), BuildingBlock: OJICUG_clean_linker_0, # of connection points: 2
#     Edge 94, Type (0, 0), BuildingBlock: OJICUG_clean_linker_0, # of connection points: 2
#     Edge 95, Type (0, 0), BuildingBlock: OJICUG_clean_linker_0, # of connection points: 2
#     Edge 96, Type (0, 0), BuildingBlock: OJICUG_clean_linker_0, # of connection points: 2
#     Edge 97, Type (0, 0), BuildingBlock: OJICUG_clean_linker_0, # of connection points: 2
#     Edge 98, Type (0, 0), BuildingBlock: OJICUG_clean_linker_0, # of connection points: 2
#     Edge 99, Type (0, 0), BuildingBlock: OJICUG_clean_linker_0, # of connection points: 2
#     Edge 100, Type (0, 0), BuildingBlock: OJICUG_clean_linker_0, # of connection points: 2
#     Edge 101, Type (0, 0), BuildingBlock: OJICUG_clean_linker_0, # of connection points: 2
#     Edge 102, Type (0, 0), BuildingBlock: OJICUG_clean_linker_0, # of connection points: 2
#     Edge 103, Type (0, 0), BuildingBlock: OJICUG_clean_linker_0, # of connection points: 2
#     Edge 104, Type (0, 0), BuildingBlock: OJICUG_clean_linker_0, # of connection points: 2
#     Edge 105, Type (0, 0), BuildingBlock: OJICUG_clean_linker_0, # of connection points: 2
#     Edge 106, Type (0, 0), BuildingBlock: OJICUG_clean_linker_0, # of connection points: 2
#     Edge 107, Type (0, 0), BuildingBlock: OJICUG_clean_linker_0, # of connection points: 2
#     Edge 108, Type (0, 0), BuildingBlock: OJICUG_clean_linker_0, # of connection points: 2
#     Edge 109, Type (0, 0), BuildingBlock: OJICUG_clean_linker_0, # of connection points: 2
#     Edge 110, Type (0, 0), BuildingBlock: OJICUG_clean_linker_0, # of connection points: 2
#     Edge 111, Type (0, 0), BuildingBlock: OJICUG_clean_linker_0, # of connection points: 2
# Relax obj value: 0.125
# Max RMSD: 0.143
# Mean RMSD: 0.143
data_MOF--net-wge--node1-XOMCOT_clean_sbu_0--edge1-OJICUG_clean_linker_0
_symmetry_space_group_name_H-M    P1
_symmetry_Int_Tables_number       1
_symmetry_cell_setting            triclinic
loop_
_symmetry_equiv_pos_as_xyz
'x, y, z'
_cell_length_a     50.751539
_cell_length_b     50.795284
_cell_length_c     31.582715
_cell_angle_alpha  90.021368
_cell_angle_beta   90.010781
_cell_angle_gamma 90.012258
loop_
_atom_site_label
_atom_site_type_symbol
_atom_site_fract_x
_atom_site_fract_y
_atom_site_fract_z
_atom_type_partial_charge
Co0 Co 0.25201 0.12966 0.06173 0.0
C1 C 0.28135 0.14022 0.13855 0.0
C2 C 0.29942 0.10962 0.10234 0.0
C3 C 0.30849 0.10814 0.14337 0.0
N4 N 0.282 0.12958 0.09947 0.0
N5 N 0.29648 0.12699 0.16622 0.0
H6 H 0.26641 0.15383 0.1488 0.0
H7 H 0.3022 0.09474 0.07828 0.0
C8 C 0.29947 0.12717 1.00355 0.0
O9 O 0.31138 0.14388 0.02892 0.0
N10 N 0.22155 0.12955 0.02506 0.0
C11 C 0.19584 0.12888 0.03626 0.0
C12 C 0.18064 0.12941 1.00021 0.0
C13 C 0.22156 0.1309 0.98252 0.0
N14 N 0.19694 0.13092 0.96674 0.0
C15 C 0.24736 0.18423 0.08383 0.0
C16 C 0.26622 0.20582 0.00959 0.0
C17 C 0.26018 0.22264 0.04344 0.0
C18 C 0.25008 0.21146 0.08053 0.0
C19 C 0.26346 0.17846 0.01445 0.0
N20 N 0.25542 0.16777 0.05215 0.0
H21 H 0.23833 0.17658 0.11206 0.0
H22 H 0.26759 0.16617 0.98748 0.0
H23 H 0.18834 0.12802 0.06823 0.0
H24 H 0.23911 0.13136 0.96316 0.0
O25 O 0.22906 0.13013 0.11108 0.0
O26 O 0.24384 0.09389 0.08102 0.0
O27 O 0.2757 0.1201 0.0115 0.0
C28 C 0.23045 0.1046 0.1117 0.0
H29 H 0.32014 0.09242 0.15669 0.0
H30 H 0.15934 0.12878 0.99862 0.0
H31 H 0.27332 0.21368 0.97983 0.0
H32 H 0.2439 0.22373 0.10677 0.0
Co33 Co 0.18348 1.00013 0.31415 0.0
C34 C 0.17471 1.03038 0.3908 0.0
C35 C 0.20645 0.04619 0.35435 0.0
C36 C 0.20859 0.05535 0.3952 0.0
N37 N 0.18535 1.03011 0.35174 0.0
N38 N 0.1889 0.04485 0.4182 0.0
H39 H 0.16013 1.01642 0.40126 0.0
H40 H 0.22153 0.04782 0.33031 0.0
C41 C 0.18786 0.04735 0.2564 0.0
O42 O 0.17155 0.05971 0.28188 0.0
N43 N 0.182 0.96976 0.27744 0.0
C44 C 0.18199 0.94401 0.28833 0.0
C45 C 0.18128 0.929 0.25204 0.0
C46 C 0.18084 0.96999 0.2349 0.0
N47 N 0.18031 0.9455 0.2188 0.0
C48 C 0.1288 0.99798 0.33673 0.0
C49 C 0.1077 1.01675 0.26205 0.0
C50 C 0.09065 1.01114 0.29583 0.0
C51 C 0.10161 1.00118 0.3332 0.0
C52 C 0.13503 1.01346 0.2671 0.0
N53 N 0.14549 1.00533 0.30492 0.0
H54 H 0.13619 0.98898 0.36515 0.0
H55 H 0.14744 1.01715 0.24012 0.0
H56 H 0.18272 0.93638 0.32023 0.0
H57 H 0.18112 0.98761 0.21572 0.0
O58 O 0.182 0.9773 0.36351 0.0
O59 O 0.21887 0.99024 0.33309 0.0
O60 O 0.19402 1.02333 0.264 0.0
C61 C 0.20758 0.97747 0.36392 0.0
H62 H 0.22522 0.06589 0.40822 0.0
H63 H 0.1816 0.90773 0.25013 0.0
H64 H 0.10005 1.02378 0.23211 0.0
H65 H 0.08919 0.99531 0.35944 0.0
Co66 Co 0.31151 0.92977 0.56559 0.0
C67 C 0.28227 0.92318 0.64381 0.0
C68 C 0.26704 0.95505 0.60707 0.0
C69 C 0.25836 0.9578 0.64813 0.0
N70 N 0.28241 0.93343 0.60453 0.0
N71 N 0.26836 0.93789 0.67118 0.0
H72 H 0.29592 0.90839 0.65436 0.0
H73 H 0.26555 0.96988 0.58263 0.0
C74 C 0.26352 0.93447 0.50939 0.0
O75 O 0.25082 0.91911 0.53593 0.0
N76 N 0.34073 0.92643 0.52765 0.0
C77 C 0.36073 0.90911 0.53056 0.0
C78 C 0.37452 0.90943 0.49301 0.0
C79 C 0.34271 0.93729 0.48909 0.0
N80 N 0.36289 0.92696 0.46691 0.0
C81 C 0.31145 0.87534 0.59031 0.0
C82 C 0.29345 0.85425 0.51509 0.0
C83 C 0.29839 0.83722 0.54919 0.0
C84 C 0.30791 0.8482 0.58689 0.0
C85 C 0.29712 0.8815 0.52002 0.0
N86 N 0.30477 0.89197 0.55808 0.0
H87 H 0.3207 0.88269 0.61856 0.0
H88 H 0.29453 0.89392 0.49265 0.0
H89 H 0.36404 0.89603 0.55705 0.0
H90 H 0.32906 0.95177 0.47697 0.0
O91 O 0.33565 0.92845 0.61347 0.0
O92 O 0.32297 0.96504 0.58194 0.0
O93 O 0.28779 0.93998 0.51613 0.0
C94 C 0.33617 0.95403 0.61254 0.0
H95 H 0.24842 0.97479 0.6611 0.0
H96 H 0.39075 0.89662 0.48469 0.0
H97 H 0.2869 0.84662 0.48485 0.0
H98 H 0.31349 0.83581 0.61332 0.0
Co99 Co 0.38183 0.06072 0.81209 0.0
C100 C 0.38706 0.03222 0.89121 0.0
C101 C 0.35579 1.01686 0.85325 0.0
C102 C 0.35197 1.00894 0.89444 0.0
N103 N 0.37766 0.0319 0.85134 0.0
N104 N 0.37152 1.01897 0.91825 0.0
H105 H 0.40183 0.04581 0.90205 0.0
H106 H 0.34139 1.01524 0.82813 0.0
C107 C 0.37803 1.01236 0.75667 0.0
O108 O 0.39335 1.00018 0.7839 0.0
N109 N 0.3856 0.0897 0.77386 0.0
C110 C 0.40265 0.1099 0.77752 0.0
C111 C 0.40285 0.12363 0.73995 0.0
C112 C 0.37546 0.09147 0.73474 0.0
N113 N 0.38594 0.11177 0.71303 0.0
C114 C 0.43611 0.06037 0.83813 0.0
C115 C 0.45781 0.04338 0.76277 0.0
C116 C 0.47462 0.04821 0.7972 0.0
C117 C 0.46333 0.05716 0.83502 0.0
C118 C 0.43046 0.04668 0.76739 0.0
N119 N 0.41971 0.0539 0.80546 0.0
H120 H 0.42853 0.06933 0.86644 0.0
H121 H 0.4182 0.04421 0.73979 0.0
H122 H 0.41517 0.11343 0.80465 0.0
H123 H 0.36135 0.07765 0.72198 0.0
O124 O 0.38288 0.08511 0.85965 0.0
O125 O 0.34641 0.07239 0.82775 0.0
O126 O 0.37206 0.03659 0.76275 0.0
C127 C 0.35729 0.08565 0.85844 0.0
H128 H 0.33449 0.99964 0.90681 0.0
H129 H 0.41558 0.14004 0.73227 0.0
H130 H 0.46568 0.03723 0.73247 0.0
H131 H 0.47554 0.06261 0.86176 0.0
Co132 Co 0.25186 0.93314 0.94922 0.0
C133 C 0.28141 0.92265 0.87261 0.0
C134 C 0.29899 0.95365 0.90861 0.0
C135 C 0.30803 0.95516 0.86759 0.0
N136 N 0.28188 0.93342 0.9116 0.0
N137 N 0.29636 0.93604 0.84489 0.0
H138 H 0.26667 0.90879 0.86243 0.0
H139 H 0.30149 0.96867 0.93253 0.0
C140 C 0.29934 0.93579 0.00722 0.0
O141 O 0.31124 0.91917 0.9817 0.0
N142 N 0.22138 0.93309 0.9858 0.0
C143 C 0.19567 0.93367 0.97455 0.0
C144 C 0.18045 0.93307 0.01057 0.0
C145 C 0.22137 0.93171 0.02834 0.0
N146 N 0.19674 0.9316 0.04406 0.0
C147 C 0.24739 0.87855 0.92714 0.0
C148 C 0.26635 0.85705 1.0014 0.0
C149 C 0.26033 0.84019 0.96759 0.0
C150 C 0.25018 0.85132 0.93049 0.0
C151 C 0.26351 0.88441 0.9965 0.0
N152 N 0.25543 0.89504 0.95878 0.0
H153 H 0.23833 0.88615 0.8989 0.0
H154 H 0.26761 0.89671 0.02345 0.0
H155 H 0.1882 0.93454 0.94256 0.0
H156 H 0.23891 0.93132 0.04774 0.0
O157 O 0.22897 0.93259 0.89979 0.0
O158 O 0.24354 0.96889 0.92996 0.0
O159 O 0.27551 0.94276 0.99948 0.0
C160 C 0.23025 0.95813 0.8992 0.0
H161 H 0.31933 0.9711 0.85413 0.0
H162 H 0.15915 0.93364 0.01212 0.0
H163 H 0.27349 0.84924 0.03117 0.0
H164 H 0.244 0.83901 0.90428 0.0
Co165 Co 0.38197 1.00218 0.19846 0.0
C166 C 0.38667 0.03159 0.12015 0.0
C167 C 0.35467 0.04543 0.15803 0.0
C168 C 0.35062 0.05335 0.1169 0.0
N169 N 0.37711 1.03125 0.15991 0.0
N170 N 0.37067 0.04432 0.09315 0.0
H171 H 0.40202 1.0187 0.10925 0.0
H172 H 0.34014 0.04629 0.18304 0.0
C173 C 0.37779 0.05013 0.25427 0.0
O174 O 0.39278 0.06245 0.22674 0.0
N175 N 0.38636 0.9729 0.23586 0.0
C176 C 0.4042 0.95339 0.23217 0.0
C177 C 0.40345 0.93838 0.26843 0.0
C178 C 0.37476 0.96945 0.2736 0.0
N179 N 0.38493 0.9486 0.29425 0.0
C180 C 0.43613 1.00326 0.17186 0.0
C181 C 0.45792 1.02023 0.24719 0.0
C182 C 0.47466 1.01562 0.21261 0.0
C183 C 0.46333 1.0067 0.1748 0.0
C184 C 0.4306 1.01669 0.24275 0.0
N185 N 0.41978 1.00949 0.20471 0.0
H186 H 0.42855 0.99426 0.14357 0.0
H187 H 0.41843 1.0189 0.2705 0.0
H188 H 0.41754 0.95093 0.20576 0.0
H189 H 0.3602 0.98271 0.28666 0.0
O190 O 0.38308 0.97823 0.15034 0.0
O191 O 0.34663 0.99011 0.18311 0.0
O192 O 0.37216 1.02578 0.24845 0.0
C193 C 0.35751 0.97728 0.15197 0.0
H194 H 0.33273 0.06185 0.10452 0.0
H195 H 0.41592 0.92169 0.2757 0.0
H196 H 0.46582 1.02633 0.27749 0.0
H197 H 0.4755 1.00139 0.14795 0.0
Co198 Co 0.3116 0.13327 0.44499 0.0
C199 C 0.28175 0.13946 0.36735 0.0
C200 C 0.26746 0.10715 0.40404 0.0
C201 C 0.25891 0.10413 0.36294 0.0
N202 N 0.28224 0.12918 0.40662 0.0
N203 N 0.26834 0.12433 0.33991 0.0
H204 H 0.29495 0.15466 0.35683 0.0
H205 H 0.26642 0.09225 0.42844 0.0
C206 C 0.26402 0.12838 0.50176 0.0
O207 O 0.25117 0.14344 0.47498 0.0
N208 N 0.34115 0.13702 0.48213 0.0
C209 C 0.36074 0.15481 0.47886 0.0
C210 C 0.37587 0.15357 0.515 0.0
C211 C 0.3447 0.12494 0.51945 0.0
N212 N 0.36565 0.13478 0.54029 0.0
C213 C 0.31127 0.18761 0.41968 0.0
C214 C 0.29341 0.20894 0.49477 0.0
C215 C 0.29827 0.22585 0.4605 0.0
C216 C 0.3077 0.21475 0.42285 0.0
C217 C 0.29709 0.18167 0.49009 0.0
N218 N 0.30468 0.17108 0.45209 0.0
H219 H 0.32052 0.18018 0.39147 0.0
H220 H 0.29459 0.16937 0.5176 0.0
H221 H 0.36315 0.16848 0.45291 0.0
H222 H 0.33139 0.1103 0.53218 0.0
O223 O 0.33533 0.13446 0.39661 0.0
O224 O 0.32317 0.09797 0.42896 0.0
O225 O 0.28837 0.12314 0.49512 0.0
C226 C 0.33605 0.10889 0.39795 0.0
H227 H 0.24957 0.08681 0.34993 0.0
H228 H 0.39258 0.16594 0.52261 0.0
H229 H 0.28693 0.21667 0.52498 0.0
H230 H 0.31322 0.22706 0.39629 0.0
Co231 Co 0.18356 0.06257 0.69654 0.0
C232 C 0.17477 0.03235 0.61989 0.0
C233 C 0.20654 1.01656 0.6563 0.0
C234 C 0.20868 1.00742 0.61543 0.0
N235 N 0.18543 0.03261 0.65894 0.0
N236 N 0.18896 1.01792 0.59246 0.0
H237 H 0.16017 0.04629 0.60947 0.0
H238 H 0.22163 1.01493 0.68034 0.0
C239 C 0.18785 1.0153 0.75426 0.0
O240 O 0.17162 1.0029 0.72865 0.0
N241 N 0.18209 0.09293 0.73328 0.0
C242 C 0.18224 0.11868 0.72243 0.0
C243 C 0.18154 0.13366 0.75875 0.0
C244 C 0.18082 0.09267 0.77581 0.0
N245 N 0.18041 0.11715 0.79196 0.0
C246 C 0.12891 0.06496 0.67374 0.0
C247 C 0.10762 0.04592 0.74808 0.0
C248 C 0.09062 0.05174 0.7143 0.0
C249 C 0.1017 0.06184 0.67711 0.0
C250 C 0.13497 0.04916 0.74321 0.0
N251 N 0.14553 0.05744 0.70555 0.0
H252 H 0.13638 0.07404 0.64543 0.0
H253 H 0.14732 0.04534 0.77022 0.0
H254 H 0.18312 0.12633 0.69056 0.0
H255 H 0.18096 0.07503 0.79495 0.0
O256 O 0.18225 0.08542 0.64717 0.0
O257 O 0.21902 0.07241 0.6778 0.0
O258 O 0.19397 0.03934 0.74673 0.0
C259 C 0.20784 0.0852 0.6469 0.0
H260 H 0.22532 0.99692 0.6024 0.0
H261 H 0.18202 0.15494 0.7607 0.0
H262 H 0.09991 0.03876 0.7779 0.0
H263 H 0.08934 0.06788 0.65088 0.0
Co264 Co 0.81156 0.93103 0.94781 0.0
C265 C 0.78181 0.9265 0.86992 0.0
C266 C 0.76869 0.95886 0.9076 0.0
C267 C 0.761 0.96306 0.86641 0.0
N268 N 0.78234 0.93612 0.90963 0.0
N269 N 0.76961 0.9428 0.84275 0.0
H270 H 0.79437 0.91085 0.85917 0.0
H271 H 0.76821 0.97347 0.93252 0.0
C272 C 0.76392 0.93639 1.00447 0.0
O273 O 0.75116 0.92154 0.97725 0.0
N274 N 0.84098 0.92644 0.98488 0.0
C275 C 0.86 0.90803 0.98183 0.0
C276 C 0.87514 0.909 0.01799 0.0
C277 C 0.84489 0.93862 0.02202 0.0
N278 N 0.86551 0.92824 0.04299 0.0
C279 C 0.80956 0.87681 0.92185 0.0
C280 C 0.79257 0.8555 0.99746 0.0
C281 C 0.79684 0.83859 0.96296 0.0
C282 C 0.80575 0.84969 0.925 0.0
C283 C 0.79642 0.88276 0.99278 0.0
N284 N 0.80368 0.89336 0.95462 0.0
H285 H 0.81858 0.88415 0.89343 0.0
H286 H 0.79441 0.89506 0.02043 0.0
H287 H 0.86197 0.89415 0.95606 0.0
H288 H 0.83202 0.95371 0.03455 0.0
O289 O 0.83529 0.92925 0.89935 0.0
O290 O 0.82422 0.96606 0.9316 0.0
O291 O 0.78837 0.94153 0.99817 0.0
C292 C 0.83672 0.95478 0.90047 0.0
H293 H 0.75303 0.98117 0.85395 0.0
H294 H 0.89141 0.89612 0.02584 0.0
H295 H 0.78649 0.84776 0.02787 0.0
H296 H 0.81079 0.83738 0.89818 0.0
Co297 Co 0.88329 0.0596 0.69792 0.0
C298 C 0.89122 1.03074 0.61999 0.0
C299 C 0.8591 1.01506 0.65566 0.0
C300 C 0.85655 1.00706 0.6142 0.0
N301 N 0.88066 1.0304 0.65909 0.0
N302 N 0.87655 1.01743 0.59181 0.0
H303 H 0.90611 0.04451 0.61022 0.0
H304 H 0.84406 1.01341 0.67976 0.0
C305 C 0.87914 1.01143 0.75455 0.0
O306 O 0.89444 0.99881 0.72783 0.0
N307 N 0.88582 0.08903 0.73552 0.0
C308 C 0.90219 0.10975 0.73149 0.0
C309 C 0.90205 0.12369 0.76887 0.0
C310 C 0.87571 0.0907 0.77465 0.0
N311 N 0.88561 0.11143 0.79603 0.0
C312 C 0.93774 0.06181 0.67376 0.0
C313 C 0.95945 0.0433 0.74814 0.0
C314 C 0.97631 0.04942 0.71429 0.0
C315 C 0.965 0.05919 0.67706 0.0
C316 C 0.93203 0.04603 0.74333 0.0
N317 N 0.92131 0.05398 0.70561 0.0
H318 H 0.93011 0.07122 0.64585 0.0
H319 H 0.9197 0.04249 0.77052 0.0
H320 H 0.91458 0.11351 0.70429 0.0
H321 H 0.86211 0.0765 0.78772 0.0
O322 O 0.88408 0.08362 0.64984 0.0
O323 O 0.84766 0.07018 0.68092 0.0
O324 O 0.87349 0.03568 0.74774 0.0
C325 C 0.85849 0.08356 0.65035 0.0
H326 H 0.83956 0.99756 0.60045 0.0
H327 H 0.91431 0.1405 0.77629 0.0
H328 H 0.96734 0.03651 0.77807 0.0
H329 H 0.97719 0.06562 0.65088 0.0
Co330 Co 0.75338 0.1309 0.44815 0.0
C331 C 0.78332 0.13578 0.37055 0.0
C332 C 0.79642 0.10329 0.40792 0.0
C333 C 0.80415 0.09925 0.36669 0.0
N334 N 0.78273 0.126 0.41015 0.0
N335 N 0.79554 0.11959 0.34322 0.0
H336 H 0.77078 0.15148 0.35995 0.0
H337 H 0.79689 0.08859 0.43268 0.0
C338 C 0.80088 0.12568 0.50519 0.0
O339 O 0.81369 0.14055 0.47808 0.0
N340 N 0.72381 0.13536 0.48494 0.0
C341 C 0.70467 0.15362 0.48154 0.0
C342 C 0.68947 0.15277 0.51762 0.0
C343 C 0.71991 0.12339 0.52223 0.0
N344 N 0.69918 0.13375 0.54294 0.0
C345 C 0.75491 0.18515 0.42237 0.0
C346 C 0.77186 0.20656 0.49796 0.0
C347 C 0.76736 0.22346 0.46354 0.0
C348 C 0.75845 0.2123 0.4256 0.0
C349 C 0.76825 0.17926 0.49321 0.0
N350 N 0.76101 0.16863 0.45505 0.0
H351 H 0.7459 0.17776 0.39395 0.0
H352 H 0.77041 0.16698 0.52082 0.0
H353 H 0.70266 0.16735 0.45558 0.0
H354 H 0.73287 0.10848 0.53508 0.0
O355 O 0.7298 0.13253 0.39951 0.0
O356 O 0.74097 0.09579 0.43185 0.0
O357 O 0.77646 0.1205 0.49868 0.0
C358 C 0.7285 0.10699 0.40063 0.0
H359 H 0.81216 0.0812 0.35409 0.0
H360 H 0.6731 0.16559 0.52522 0.0
H361 H 0.77795 0.21433 0.52836 0.0
H362 H 0.75323 0.22458 0.39884 0.0
Co363 Co 0.68166 1.00269 0.19716 0.0
C364 C 0.67489 0.03248 0.11998 0.0
C365 C 0.70768 0.04644 0.15594 0.0
C366 C 0.71077 0.05429 0.11452 0.0
N367 N 0.68538 0.03216 0.15913 0.0
N368 N 0.69032 0.04502 0.09195 0.0
H369 H 0.65935 1.01951 0.11002 0.0
H370 H 0.72277 0.04723 0.18009 0.0
C371 C 0.6865 0.05027 0.25442 0.0
O372 O 0.6716 0.06312 0.22741 0.0
N373 N 0.67814 0.97295 0.2338 0.0
C374 C 0.66067 0.95312 0.22976 0.0
C375 C 0.66182 0.93778 0.26563 0.0
C376 C 0.68995 0.96935 0.27132 0.0
N377 N 0.68024 0.94811 0.29151 0.0
C378 C 0.62724 1.00227 0.17223 0.0
C379 C 0.60582 1.02048 0.24702 0.0
C380 C 0.58893 1.01529 0.21282 0.0
C381 C 0.60007 1.00567 0.17534 0.0
C382 C 0.63315 1.01701 0.24236 0.0
N383 N 0.64377 1.00926 0.20447 0.0
H384 H 0.6347 0.99288 0.14417 0.0
H385 H 0.64545 1.0198 0.26981 0.0
H386 H 0.64725 0.95067 0.20345 0.0
H387 H 0.70428 0.98278 0.28466 0.0
O388 O 0.68054 0.97916 0.14842 0.0
O389 O 0.71709 0.99132 0.18053 0.0
O390 O 0.69174 1.0259 0.24774 0.0
C391 C 0.70613 0.97854 0.14941 0.0
H392 H 0.72835 0.06275 0.10094 0.0
H393 H 0.64964 0.92085 0.27266 0.0
H394 H 0.59802 1.02707 0.27712 0.0
H395 H 0.58776 0.99992 0.14888 0.0
Co396 Co 0.81145 0.13188 0.06375 0.0
C397 C 0.78206 0.137 0.14191 0.0
C398 C 0.7672 0.10563 0.10373 0.0
C399 C 0.75894 0.10186 0.14478 0.0
N400 N 0.78214 0.12755 0.10206 0.0
N401 N 0.76876 0.1214 0.16878 0.0
H402 H 0.79554 0.1518 0.15297 0.0
H403 H 0.76596 0.09118 0.07865 0.0
C404 C 0.76396 0.1267 0.00639 0.0
O405 O 0.75124 0.14208 0.03288 0.0
N406 N 0.84099 0.13592 0.02678 0.0
C407 C 0.86029 0.15402 0.03015 0.0
C408 C 0.8755 0.15299 0.9941 0.0
C409 C 0.84479 0.12386 0.98952 0.0
N410 N 0.86562 0.13402 0.96882 0.0
C411 C 0.80965 0.18624 0.08882 0.0
C412 C 0.79327 0.20715 0.01256 0.0
C413 C 0.79724 0.22423 0.04693 0.0
C414 C 0.8059 0.21334 0.08521 0.0
C415 C 0.79708 0.17992 0.01769 0.0
N416 N 0.80399 0.16954 0.05617 0.0
H417 H 0.8184 0.17903 0.11754 0.0
H418 H 0.79525 0.16746 0.9902 0.0
H419 H 0.8624 0.16779 0.05606 0.0
H420 H 0.83171 0.10904 0.97669 0.0
O421 O 0.83522 0.1337 0.11218 0.0
O422 O 0.82361 0.09682 0.08055 0.0
O423 O 0.78825 0.12122 0.01343 0.0
C424 C 0.83636 0.10815 0.11138 0.0
H425 H 0.74961 0.08439 0.15703 0.0
H426 H 0.89199 0.16566 0.9865 0.0
H427 H 0.78739 0.21472 0.98193 0.0
H428 H 0.81073 0.22579 0.11197 0.0
Co429 Co 0.68185 0.05953 0.81383 0.0
C430 C 0.67407 1.0306 0.8918 0.0
C431 C 0.70461 1.01331 0.85451 0.0
C432 C 0.7068 1.0042 0.89544 0.0
N433 N 0.68414 1.03016 0.85239 0.0
N434 N 0.68787 1.01562 0.9189 0.0
H435 H 0.66035 0.04526 0.90263 0.0
H436 H 0.71915 1.01082 0.82983 0.0
C437 C 0.68544 1.01179 0.75608 0.0
O438 O 0.66945 0.9993 0.78191 0.0
N439 N 0.67956 0.08911 0.77647 0.0
C440 C 0.66319 0.10982 0.78057 0.0
C441 C 0.6633 0.12378 0.74322 0.0
C442 C 0.68963 0.0908 0.73731 0.0
N443 N 0.6797 0.11153 0.71599 0.0
C444 C 0.62735 0.06093 0.83799 0.0
C445 C 0.60587 0.04361 0.76266 0.0
C446 C 0.58896 0.04864 0.79691 0.0
C447 C 0.60014 0.05788 0.83462 0.0
C448 C 0.63324 0.04675 0.76756 0.0
N449 N 0.64386 0.05401 0.80571 0.0
H450 H 0.63487 0.06989 0.86634 0.0
H451 H 0.64563 0.04397 0.7402 0.0
H452 H 0.65076 0.11351 0.80774 0.0
H453 H 0.70317 0.07658 0.72413 0.0
O454 O 0.68095 0.08347 0.86206 0.0
O455 O 0.71743 0.06991 0.83133 0.0
O456 O 0.69172 0.03577 0.76385 0.0
C457 C 0.70654 0.08335 0.86178 0.0
H458 H 0.7229 0.99285 0.90822 0.0
H459 H 0.65099 0.14055 0.73582 0.0
H460 H 0.59807 0.0373 0.7324 0.0
H461 H 0.58785 0.06352 0.86117 0.0
Co462 Co 0.75353 0.93175 0.56285 0.0
C463 C 0.7826 0.92632 0.64135 0.0
C464 C 0.79774 0.95767 0.60343 0.0
C465 C 0.80606 0.96125 0.64449 0.0
N466 N 0.78262 0.93587 0.6016 0.0
N467 N 0.79611 0.9417 0.66831 0.0
H468 H 0.76899 0.9116 0.65228 0.0
H469 H 0.79914 0.97216 0.57846 0.0
C470 C 0.80146 0.93658 0.50618 0.0
O471 O 0.81406 0.92112 0.53269 0.0
N472 N 0.7243 0.92795 0.52511 0.0
C473 C 0.70447 0.91044 0.52842 0.0
C474 C 0.69072 0.91023 0.49082 0.0
C475 C 0.72226 0.93838 0.48628 0.0
N476 N 0.70223 0.92759 0.46431 0.0
C477 C 0.75463 0.87744 0.58806 0.0
C478 C 0.77146 0.85616 0.51231 0.0
C479 C 0.76703 0.83922 0.54671 0.0
C480 C 0.75817 0.8503 0.58472 0.0
C481 C 0.76789 0.88346 0.51721 0.0
N482 N 0.76073 0.894 0.55545 0.0
H483 H 0.74573 0.88479 0.61656 0.0
H484 H 0.77012 0.89584 0.48971 0.0
H485 H 0.7013 0.89756 0.5552 0.0
H486 H 0.73581 0.95284 0.47378 0.0
O487 O 0.72944 0.93005 0.61082 0.0
O488 O 0.7415 0.96689 0.57959 0.0
O489 O 0.77721 0.94222 0.51309 0.0
C490 C 0.72851 0.9556 0.61019 0.0
H491 H 0.81555 0.97861 0.65685 0.0
H492 H 0.67466 0.89714 0.48275 0.0
H493 H 0.7775 0.84843 0.48187 0.0
H494 H 0.75303 0.83797 0.61145 0.0
Co495 Co 0.88351 1.00351 0.3136 0.0
C496 C 0.89169 0.03239 0.3916 0.0
C497 C 0.86085 0.04956 0.3548 0.0
C498 C 0.85877 0.05854 0.39583 0.0
N499 N 0.88141 0.03284 0.35232 0.0
N500 N 0.87791 0.04721 0.41896 0.0
H501 H 0.90557 1.01782 0.40218 0.0
H502 H 0.84616 0.05197 0.33032 0.0
C503 C 0.87988 0.05142 0.25633 0.0
O504 O 0.89592 0.0638 0.28224 0.0
N505 N 0.88562 0.97396 0.27611 0.0
C506 C 0.90172 0.95306 0.28038 0.0
C507 C 0.90148 0.93901 0.24312 0.0
C508 C 0.87559 0.97231 0.2369 0.0
N509 N 0.88527 0.95138 0.21575 0.0
C510 C 0.93802 1.00159 0.33738 0.0
C511 C 0.95948 1.01888 0.26206 0.0
C512 C 0.97643 1.01339 0.29607 0.0
C513 C 0.96525 1.0042 0.33378 0.0
C514 C 0.93208 1.01615 0.26718 0.0
N515 N 0.9215 1.00885 0.30532 0.0
H516 H 0.93048 0.99263 0.36572 0.0
H517 H 0.91963 1.01923 0.23996 0.0
H518 H 0.91403 0.94925 0.30765 0.0
H519 H 0.86223 0.98665 0.2236 0.0
O520 O 0.88443 0.97953 0.36173 0.0
O521 O 0.84793 0.99325 0.3312 0.0
O522 O 0.87363 1.0274 0.26381 0.0
C523 C 0.85884 0.97973 0.36155 0.0
H524 H 0.84261 0.06969 0.40889 0.0
H525 H 0.91356 0.92204 0.23591 0.0
H526 H 0.96726 1.0252 0.2318 0.0
H527 H 0.97754 0.99823 0.36014 0.0
Co528 Co 0.75227 0.63261 0.56325 0.0
C529 C 0.78187 0.63703 0.64135 0.0
C530 C 0.79584 0.60537 0.60295 0.0
C531 C 0.80378 0.60111 0.64402 0.0
N532 N 0.78158 0.62774 0.60141 0.0
N533 N 0.79459 0.62089 0.66816 0.0
H534 H 0.76885 0.65221 0.65244 0.0
H535 H 0.79669 0.59096 0.57776 0.0
C536 C 0.79971 0.62727 0.5059 0.0
O537 O 0.81257 0.64234 0.5327 0.0
N538 N 0.72276 0.63703 0.52633 0.0
C539 C 0.70365 0.65533 0.52957 0.0
C540 C 0.68831 0.65421 0.49365 0.0
C541 C 0.71872 0.62478 0.4893 0.0
N542 N 0.69792 0.63499 0.46858 0.0
C543 C 0.75453 0.68686 0.5889 0.0
C544 C 0.77076 0.708 0.51272 0.0
C545 C 0.7668 0.725 0.54721 0.0
C546 C 0.75826 0.71398 0.58547 0.0
C547 C 0.76697 0.68075 0.51768 0.0
N548 N 0.76008 0.67025 0.55608 0.0
H549 H 0.74581 0.67958 0.61759 0.0
H550 H 0.76874 0.66837 0.49008 0.0
H551 H 0.70172 0.66923 0.55534 0.0
H552 H 0.7316 0.60973 0.47667 0.0
O553 O 0.72858 0.63448 0.61176 0.0
O554 O 0.73974 0.5976 0.57978 0.0
O555 O 0.77535 0.62199 0.51278 0.0
C556 C 0.72717 0.60895 0.61077 0.0
H557 H 0.81238 0.58321 0.65607 0.0
H558 H 0.67189 0.66695 0.48601 0.0
H559 H 0.77655 0.71566 0.48212 0.0
H560 H 0.75347 0.72635 0.61233 0.0
Co561 Co 0.68 0.50459 0.81345 0.0
C562 C 0.67258 0.53308 0.89203 0.0
C563 C 0.70237 0.55117 0.85414 0.0
C564 C 0.70461 0.56038 0.89503 0.0
N565 N 0.6823 0.5338 0.8524 0.0
N566 N 0.68618 0.54845 0.91885 0.0
H567 H 0.65933 0.51807 0.90314 0.0
H568 H 0.71662 0.55409 0.82915 0.0
C569 C 0.68352 0.55245 0.75592 0.0
O570 O 0.66734 0.56482 0.78159 0.0
N571 N 0.67774 0.47519 0.77569 0.0
C572 C 0.66117 0.45459 0.77921 0.0
C573 C 0.66179 0.44056 0.74194 0.0
C574 C 0.68842 0.47336 0.73696 0.0
N575 N 0.67873 0.45262 0.71532 0.0
C576 C 0.62551 0.50357 0.8378 0.0
C577 C 0.60399 0.52047 0.76229 0.0
C578 C 0.58711 0.51571 0.79667 0.0
C579 C 0.59831 0.5067 0.83448 0.0
C580 C 0.63137 0.51729 0.76715 0.0
N581 N 0.64201 0.5102 0.80535 0.0
H582 H 0.63303 0.49477 0.86626 0.0
H583 H 0.64377 0.51993 0.73975 0.0
H584 H 0.64837 0.45098 0.80595 0.0
H585 H 0.70231 0.48745 0.72437 0.0
O586 O 0.679 0.4804 0.86134 0.0
O587 O 0.71555 0.49408 0.83097 0.0
O588 O 0.68994 0.52852 0.76372 0.0
C589 C 0.7046 0.48047 0.86117 0.0
H590 H 0.72041 0.57228 0.90749 0.0
H591 H 0.64952 0.42381 0.73418 0.0
H592 H 0.59618 0.52662 0.73196 0.0
H593 H 0.58604 0.50128 0.86116 0.0
Co594 Co 0.80926 0.43094 0.06283 0.0
C595 C 0.77977 0.42446 0.14056 0.0
C596 C 0.76472 0.45627 0.10357 0.0
C597 C 0.75642 0.45939 0.14477 0.0
N598 N 0.77983 0.4345 0.1011 0.0
N599 N 0.7664 0.43959 0.16804 0.0
H600 H 0.79332 0.40958 0.15106 0.0
H601 H 0.7634 0.47103 0.07901 0.0
C602 C 0.76172 0.436 0.00527 0.0
O603 O 0.7489 0.42058 0.03158 0.0
N604 N 0.83896 0.42754 0.02598 0.0
C605 C 0.85869 0.40994 0.02965 0.0
C606 C 0.87393 0.41114 0.99367 0.0
C607 C 0.84252 0.43947 0.98855 0.0
N608 N 0.86364 0.42971 0.96807 0.0
C609 C 0.80907 0.37654 0.08742 0.0
C610 C 0.79177 0.35532 0.0119 0.0
C611 C 0.79655 0.33836 0.04613 0.0
C612 C 0.80568 0.3494 0.084 0.0
C613 C 0.79519 0.38263 0.01688 0.0
N614 N 0.80255 0.39314 0.05506 0.0
H615 H 0.81815 0.3839 0.11579 0.0
H616 H 0.79267 0.39505 0.9895 0.0
H617 H 0.8611 0.39638 0.05576 0.0
H618 H 0.82912 0.4539 0.97547 0.0
O619 O 0.83294 0.42949 0.11139 0.0
O620 O 0.82074 0.4662 0.07994 0.0
O621 O 0.78601 0.44139 0.01244 0.0
C622 C 0.83362 0.45506 0.11077 0.0
H623 H 0.74696 0.4766 0.1577 0.0
H624 H 0.89075 0.39886 0.98634 0.0
H625 H 0.78554 0.3476 0.98154 0.0
H626 H 0.8111 0.33704 0.11056 0.0
Co627 Co 0.88094 0.56015 0.31268 0.0
C628 C 0.88809 0.53079 0.39034 0.0
C629 C 0.85554 0.51619 0.35444 0.0
C630 C 0.85277 0.50804 0.39576 0.0
N631 N 0.87752 0.53095 0.35126 0.0
N632 N 0.87308 0.51768 0.4183 0.0
H633 H 0.90333 0.5441 0.40033 0.0
H634 H 0.84043 0.51508 0.33035 0.0
C635 C 0.87614 0.51214 0.25618 0.0
O636 O 0.8914 0.4995 0.28295 0.0
N637 N 0.88421 0.58958 0.27523 0.0
C638 C 0.90086 0.61006 0.27968 0.0
C639 C 0.90126 0.624 0.24232 0.0
C640 C 0.87452 0.59139 0.23584 0.0
N641 N 0.88491 0.61197 0.21475 0.0
C642 C 0.93549 0.56066 0.33695 0.0
C643 C 0.95659 0.54235 0.26197 0.0
C644 C 0.97363 0.54753 0.29598 0.0
C645 C 0.96266 0.55722 0.33354 0.0
C646 C 0.92928 0.54585 0.26693 0.0
N647 N 0.91881 0.55364 0.30492 0.0
H648 H 0.92814 0.57006 0.36508 0.0
H649 H 0.91683 0.54301 0.23965 0.0
H650 H 0.91307 0.61362 0.30716 0.0
H651 H 0.86086 0.57737 0.22237 0.0
O652 O 0.88227 0.58405 0.36097 0.0
O653 O 0.84558 0.57154 0.32967 0.0
O654 O 0.87067 0.53645 0.26283 0.0
C655 C 0.85668 0.58457 0.3604 0.0
H656 H 0.83547 0.49902 0.40931 0.0
H657 H 0.91382 0.64065 0.23519 0.0
H658 H 0.96425 0.5357 0.23181 0.0
H659 H 0.97508 0.56295 0.35988 0.0
Co660 Co 0.75356 0.4303 0.44735 0.0
C661 C 0.78265 0.42411 0.36917 0.0
C662 C 0.79763 0.456 0.40611 0.0
C663 C 0.80548 0.45939 0.36475 0.0
N664 N 0.78281 0.43403 0.40873 0.0
N665 N 0.79555 0.43953 0.34153 0.0
H666 H 0.76921 0.40908 0.35884 0.0
H667 H 0.79895 0.47073 0.43075 0.0
C668 C 0.80135 0.43553 0.50439 0.0
O669 O 0.81419 0.42031 0.47781 0.0
N670 N 0.72409 0.42681 0.48464 0.0
C671 C 0.70445 0.40906 0.48151 0.0
C672 C 0.68941 0.41038 0.51771 0.0
C673 C 0.72066 0.43895 0.52195 0.0
N674 N 0.69973 0.42917 0.54291 0.0
C675 C 0.7539 0.37587 0.42263 0.0
C676 C 0.77167 0.35473 0.49789 0.0
C677 C 0.76683 0.33772 0.4637 0.0
C678 C 0.75745 0.34873 0.42597 0.0
C679 C 0.76807 0.38202 0.49301 0.0
N680 N 0.76047 0.3925 0.45495 0.0
H681 H 0.74467 0.38319 0.39436 0.0
H682 H 0.77065 0.39444 0.52039 0.0
H683 H 0.70197 0.39535 0.45561 0.0
H684 H 0.73403 0.45356 0.53461 0.0
O685 O 0.72966 0.4288 0.39905 0.0
O686 O 0.74189 0.46553 0.43045 0.0
O687 O 0.777 0.44078 0.49748 0.0
C688 C 0.72895 0.45437 0.39967 0.0
H689 H 0.81456 0.47681 0.35178 0.0
H690 H 0.6727 0.39805 0.52544 0.0
H691 H 0.7781 0.34705 0.52816 0.0
H692 H 0.75198 0.33635 0.39944 0.0
Co693 Co 0.88255 0.5037 0.69709 0.0
C694 C 0.88989 0.53232 0.61868 0.0
C695 C 0.85916 0.54932 0.65591 0.0
C696 C 0.85663 0.55804 0.61483 0.0
N697 N 0.87995 0.53286 0.65818 0.0
N698 N 0.87569 0.54681 0.59144 0.0
H699 H 0.90383 0.51783 0.60798 0.0
H700 H 0.8446 0.55165 0.68062 0.0
C701 C 0.87849 0.55166 0.75423 0.0
O702 O 0.89435 0.56413 0.72818 0.0
N703 N 0.88506 0.47434 0.7348 0.0
C704 C 0.90185 0.45392 0.73141 0.0
C705 C 0.90148 0.44006 0.76884 0.0
C706 C 0.87446 0.47255 0.77358 0.0
N707 N 0.88446 0.45206 0.79539 0.0
C708 C 0.93711 0.50295 0.67315 0.0
C709 C 0.95824 0.52031 0.74872 0.0
C710 C 0.9753 0.51541 0.71461 0.0
C711 C 0.9643 0.50617 0.67676 0.0
C712 C 0.93091 0.51698 0.74359 0.0
N713 N 0.92046 0.50967 0.70534 0.0
H714 H 0.92974 0.49396 0.64472 0.0
H715 H 0.91841 0.51964 0.77086 0.0
H716 H 0.91469 0.45038 0.70467 0.0
H717 H 0.86046 0.48655 0.78612 0.0
O718 O 0.88379 0.47955 0.64912 0.0
O719 O 0.84711 0.49285 0.67953 0.0
O720 O 0.87238 0.52759 0.74678 0.0
C721 C 0.8582 0.4794 0.64926 0.0
H722 H 0.84021 0.56887 0.60193 0.0
H723 H 0.91398 0.42352 0.77677 0.0
H724 H 0.9659 0.52663 0.77907 0.0
H725 H 0.9767 0.50064 0.6503 0.0
Co726 Co 0.8108 0.63184 0.94773 0.0
C727 C 0.78074 0.63607 0.87012 0.0
C728 C 0.76802 0.60364 0.90793 0.0
C729 C 0.76035 0.59927 0.86676 0.0
N730 N 0.78144 0.62652 0.90986 0.0
N731 N 0.7687 0.61959 0.84301 0.0
H732 H 0.79309 0.65187 0.85931 0.0
H733 H 0.76771 0.58906 0.9329 0.0
C734 C 0.7634 0.62635 1.00499 0.0
O735 O 0.75046 0.64104 0.97779 0.0
N736 N 0.84036 0.63665 0.98442 0.0
C737 C 0.85931 0.65511 0.98105 0.0
C738 C 0.8747 0.6542 0.01694 0.0
C739 C 0.84455 0.6245 0.02147 0.0
N740 N 0.8653 0.63493 0.04208 0.0
C741 C 0.80861 0.686 0.92163 0.0
C742 C 0.79198 0.70743 0.99737 0.0
C743 C 0.79625 0.72431 0.96284 0.0
C744 C 0.80495 0.71314 0.9248 0.0
C745 C 0.79569 0.68014 0.99267 0.0
N746 N 0.8028 0.6695 0.95447 0.0
H747 H 0.81751 0.67862 0.89312 0.0
H748 H 0.79374 0.66788 0.02035 0.0
H749 H 0.86109 0.66898 0.95523 0.0
H750 H 0.83181 0.60936 0.0342 0.0
O751 O 0.83431 0.63365 0.89902 0.0
O752 O 0.82355 0.59683 0.9315 0.0
O753 O 0.78785 0.62133 0.99843 0.0
C754 C 0.83588 0.60814 0.90021 0.0
H755 H 0.75255 0.58103 0.85446 0.0
H756 H 0.891 0.66712 0.02452 0.0
H757 H 0.78605 0.71521 0.02783 0.0
H758 H 0.80999 0.72541 0.89794 0.0
Co759 Co 0.68182 0.55974 0.19801 0.0
C760 C 0.67499 0.53064 0.12011 0.0
C761 C 0.70818 0.51689 0.1553 0.0
C762 C 0.71127 0.50959 0.11363 0.0
N763 N 0.68565 0.53073 0.15913 0.0
N764 N 0.69053 0.51869 0.09156 0.0
H765 H 0.65916 0.54339 0.11071 0.0
H766 H 0.72339 0.51613 0.17926 0.0
C767 C 0.68693 0.51146 0.25388 0.0
O768 O 0.67221 0.49868 0.2265 0.0
N769 N 0.67819 0.58899 0.23574 0.0
C770 C 0.6614 0.60936 0.23148 0.0
C771 C 0.66108 0.62331 0.26885 0.0
C772 C 0.68805 0.59087 0.27501 0.0
N773 N 0.67764 0.6114 0.29622 0.0
C774 C 0.62738 0.56046 0.17309 0.0
C775 C 0.60589 0.54119 0.24712 0.0
C776 C 0.58902 0.54685 0.21309 0.0
C777 C 0.60019 0.55697 0.176 0.0
C778 C 0.63325 0.54468 0.24262 0.0
N779 N 0.64391 0.553 0.20506 0.0
H780 H 0.63486 0.57022 0.14537 0.0
H781 H 0.64554 0.54144 0.26995 0.0
H782 H 0.64912 0.61288 0.20407 0.0
H783 H 0.70191 0.57699 0.28826 0.0
O784 O 0.68064 0.58378 0.14994 0.0
O785 O 0.71722 0.57143 0.18165 0.0
O786 O 0.69196 0.53593 0.24778 0.0
C787 C 0.70622 0.58443 0.15081 0.0
H788 H 0.72898 0.50164 0.09968 0.0
H789 H 0.6485 0.63991 0.27609 0.0
H790 H 0.59805 0.53419 0.27695 0.0
H791 H 0.5879 0.56304 0.14972 0.0
Co792 Co 0.31136 0.43263 0.44718 0.0
C793 C 0.2811 0.42709 0.37022 0.0
C794 C 0.26946 0.46103 0.40545 0.0
C795 C 0.26238 0.46461 0.36377 0.0
N796 N 0.282 0.43774 0.40922 0.0
N797 N 0.27012 0.44333 0.34169 0.0
H798 H 0.29275 0.41045 0.3608 0.0
H799 H 0.26959 0.47625 0.42941 0.0
C800 C 0.26375 0.43829 0.50383 0.0
O801 O 0.25067 0.42413 0.47606 0.0
N802 N 0.341 0.42784 0.48372 0.0
C803 C 0.36036 0.40989 0.47928 0.0
C804 C 0.37591 0.41052 0.51497 0.0
C805 C 0.34509 0.4394 0.5213 0.0
N806 N 0.3662 0.4291 0.54112 0.0
C807 C 0.31076 0.37843 0.42114 0.0
C808 C 0.29205 0.35681 0.49543 0.0
C809 C 0.29744 0.34003 0.4612 0.0
C810 C 0.30722 0.35128 0.42393 0.0
C811 C 0.29565 0.38412 0.4911 0.0
N812 N 0.30373 0.39487 0.45348 0.0
H813 H 0.32039 0.38593 0.3933 0.0
H814 H 0.29282 0.39628 0.51868 0.0
H815 H 0.36239 0.3966 0.45273 0.0
H816 H 0.33212 0.45406 0.53486 0.0
O817 O 0.3348 0.43133 0.3984 0.0
O818 O 0.32378 0.46784 0.43161 0.0
O819 O 0.28835 0.44282 0.49788 0.0
C820 C 0.33611 0.45685 0.40005 0.0
H821 H 0.25551 0.48281 0.34995 0.0
H822 H 0.39261 0.39794 0.52165 0.0
H823 H 0.2853 0.34894 0.52538 0.0
H824 H 0.31312 0.33906 0.39745 0.0
Co825 Co 0.38222 0.56193 0.19757 0.0
C826 C 0.38468 0.53204 0.11949 0.0
C827 C 0.35289 0.5195 0.15891 0.0
C828 C 0.34769 0.5118 0.11801 0.0
N829 N 0.37592 0.53279 0.15969 0.0
N830 N 0.36764 0.51999 0.09328 0.0
H831 H 0.40033 0.54431 0.10789 0.0
H832 H 0.3388 0.51923 0.1846 0.0
C833 C 0.37693 0.5146 0.2544 0.0
O834 O 0.39151 0.50184 0.22681 0.0
N835 N 0.38781 0.59127 0.23439 0.0
C836 C 0.40673 0.60979 0.23124 0.0
C837 C 0.40591 0.62526 0.26704 0.0
C838 C 0.37549 0.59582 0.27118 0.0
N839 N 0.38622 0.61636 0.29187 0.0
C840 C 0.43619 0.55826 0.17036 0.0
C841 C 0.45781 0.54268 0.24656 0.0
C842 C 0.47464 0.54636 0.21178 0.0
C843 C 0.46335 0.5545 0.17346 0.0
C844 C 0.43054 0.54658 0.242 0.0
N845 N 0.41978 0.55323 0.20366 0.0
H846 H 0.42875 0.56675 0.1416 0.0
H847 H 0.41837 0.54521 0.2699 0.0
H848 H 0.42078 0.61123 0.2056 0.0
H849 H 0.35993 0.58347 0.28365 0.0
O850 O 0.38422 0.58553 0.14905 0.0
O851 O 0.34736 0.57536 0.18207 0.0
O852 O 0.37177 0.53903 0.24821 0.0
C853 C 0.35872 0.58755 0.15071 0.0
H854 H 0.32922 0.50394 0.10665 0.0
H855 H 0.41911 0.64131 0.27473 0.0
H856 H 0.46561 0.53713 0.27719 0.0
H857 H 0.47555 0.55909 0.1463 0.0
Co858 Co 0.25466 0.63328 0.94711 0.0
C859 C 0.28288 0.64074 0.86813 0.0
C860 C 0.30239 0.61243 0.90704 0.0
C861 C 0.31195 0.61029 0.86633 0.0
N862 N 0.28396 0.63156 0.90808 0.0
N863 N 0.29913 0.62777 0.84187 0.0
H864 H 0.26725 0.65307 0.85646 0.0
H865 H 0.30609 0.59868 0.93247 0.0
C866 C 0.30232 0.63069 0.00526 0.0
O867 O 0.31435 0.6475 0.98023 0.0
N868 N 0.22521 0.63495 0.98488 0.0
C869 C 0.20449 0.65139 0.98169 0.0
C870 C 0.19053 0.65047 0.019 0.0
C871 C 0.2235 0.62402 0.02343 0.0
N872 N 0.20274 0.63346 0.04531 0.0
C873 C 0.25351 0.68771 0.9232 0.0
C874 C 0.26832 0.70911 0.99997 0.0
C875 C 0.26369 0.7261 0.96568 0.0
C876 C 0.25576 0.71493 0.92719 0.0
C877 C 0.2659 0.68173 0.99449 0.0
N878 N 0.25978 0.67121 0.95577 0.0
H879 H 0.24551 0.68018 0.89415 0.0
H880 H 0.26828 0.66921 0.0218 0.0
H881 H 0.20079 0.66437 0.95521 0.0
H882 H 0.23773 0.61018 0.03575 0.0
O883 O 0.2304 0.63433 0.89938 0.0
O884 O 0.2446 0.59776 0.92911 0.0
O885 O 0.27869 0.62348 0.99674 0.0
C886 C 0.23077 0.60876 0.89918 0.0
H887 H 0.32498 0.5952 0.85451 0.0
H888 H 0.17375 0.66263 0.02702 0.0
H889 H 0.2737 0.71684 0.03073 0.0
H890 H 0.25045 0.72719 0.90046 0.0
Co891 Co 0.18236 0.5041 0.69762 0.0
C892 C 0.17494 0.53281 0.61943 0.0
C893 C 0.20668 0.54877 0.65568 0.0
C894 C 0.20941 0.55683 0.61428 0.0
N895 N 0.18522 0.53324 0.65872 0.0
N896 N 0.18966 0.54627 0.59151 0.0
H897 H 0.16024 0.51891 0.6094 0.0
H898 H 0.22152 0.55059 0.68006 0.0
C899 C 0.18695 0.5521 0.75436 0.0
O900 O 0.17134 0.56472 0.72809 0.0
N901 N 0.17962 0.47475 0.73532 0.0
C902 C 0.16272 0.45443 0.73182 0.0
C903 C 0.16286 0.44062 0.7693 0.0
C904 C 0.19006 0.47295 0.77421 0.0
N905 N 0.17985 0.45255 0.796 0.0
C906 C 0.12779 0.50306 0.67368 0.0
C907 C 0.10662 0.52114 0.74875 0.0
C908 C 0.08958 0.51579 0.71479 0.0
C909 C 0.1006 0.50622 0.67719 0.0
C910 C 0.13397 0.51791 0.74369 0.0
N911 N 0.14444 0.51021 0.70566 0.0
H912 H 0.13517 0.49376 0.64551 0.0
H913 H 0.14645 0.52091 0.77089 0.0
H914 H 0.14995 0.45092 0.70498 0.0
H915 H 0.2041 0.48689 0.78683 0.0
O916 O 0.18112 0.48003 0.64961 0.0
O917 O 0.21778 0.49313 0.68041 0.0
O918 O 0.19262 0.5279 0.74726 0.0
C919 C 0.20672 0.47986 0.64992 0.0
H920 H 0.22633 0.56664 0.60096 0.0
H921 H 0.1502 0.42419 0.77714 0.0
H922 H 0.09893 0.52772 0.77893 0.0
H923 H 0.0882 0.50036 0.6509 0.0
Co924 Co 0.31064 0.63042 0.5622 0.0
C925 C 0.28137 0.63674 0.64005 0.0
C926 C 0.26872 0.60293 0.60534 0.0
C927 C 0.26187 0.59965 0.64716 0.0
N928 N 0.2817 0.62595 0.60112 0.0
N929 N 0.27024 0.62083 0.66891 0.0
H930 H 0.29347 0.65316 0.64912 0.0
H931 H 0.2684 0.58763 0.58152 0.0
C932 C 0.26227 0.62483 0.50681 0.0
O933 O 0.2494 0.63917 0.53458 0.0
N934 N 0.33985 0.63467 0.52449 0.0
C935 C 0.36029 0.65131 0.52947 0.0
C936 C 0.37427 0.65221 0.49213 0.0
C937 C 0.34167 0.6255 0.48478 0.0
N938 N 0.36226 0.63618 0.46406 0.0
C939 C 0.3111 0.68469 0.58755 0.0
C940 C 0.2914 0.70625 0.51386 0.0
C941 C 0.29738 0.72307 0.5478 0.0
C942 C 0.30769 0.71186 0.58473 0.0
C943 C 0.29486 0.67892 0.51824 0.0
N944 N 0.30344 0.66822 0.55562 0.0
H945 H 0.321 0.6772 0.61513 0.0
H946 H 0.29147 0.66668 0.4909 0.0
H947 H 0.3639 0.66309 0.55741 0.0
H948 H 0.32774 0.61192 0.47088 0.0
O949 O 0.33466 0.63173 0.61026 0.0
O950 O 0.3228 0.59516 0.57801 0.0
O951 O 0.28687 0.6202 0.51246 0.0
C952 C 0.33557 0.60619 0.60909 0.0
H953 H 0.25472 0.58166 0.6613 0.0
H954 H 0.39097 0.66478 0.48545 0.0
H955 H 0.28423 0.71412 0.48415 0.0
H956 H 0.31401 0.7241 0.61093 0.0
Co957 Co 0.18065 0.55863 0.3134 0.0
C958 C 0.17386 0.52946 0.39134 0.0
C959 C 0.20524 0.51361 0.35423 0.0
C960 C 0.20824 0.50526 0.39543 0.0
N961 N 0.18382 0.52924 0.35184 0.0
N962 N 0.18873 0.51578 0.41877 0.0
H963 H 0.15932 0.54338 0.4019 0.0
H964 H 0.21988 0.51183 0.32954 0.0
C965 C 0.18526 0.51105 0.25605 0.0
O966 O 0.16956 0.49843 0.28216 0.0
N967 N 0.17768 0.58823 0.27631 0.0
C968 C 0.16024 0.60812 0.27968 0.0
C969 C 0.16159 0.62313 0.24347 0.0
C970 C 0.18967 0.59148 0.23883 0.0
N971 N 0.18009 0.61253 0.21802 0.0
C972 C 0.12615 0.55891 0.33772 0.0
C973 C 0.10492 0.54176 0.26211 0.0
C974 C 0.0879 0.54665 0.29626 0.0
C975 C 0.09896 0.55574 0.33416 0.0
C976 C 0.13227 0.54502 0.26719 0.0
N977 N 0.14277 0.55228 0.30543 0.0
H978 H 0.13353 0.56789 0.36616 0.0
H979 H 0.14472 0.54242 0.23986 0.0
H980 H 0.14665 0.61078 0.3057 0.0
H981 H 0.20399 0.57788 0.22593 0.0
O982 O 0.17932 0.58241 0.36179 0.0
O983 O 0.21602 0.56974 0.33065 0.0
O984 O 0.19097 0.53523 0.26329 0.0
C985 C 0.20492 0.5828 0.36133 0.0
H986 H 0.22519 0.49526 0.40829 0.0
H987 H 0.14945 0.63999 0.23588 0.0
H988 H 0.09722 0.53554 0.23173 0.0
H989 H 0.0866 0.56127 0.36067 0.0
Co990 Co 0.25356 0.42954 0.06408 0.0
C991 C 0.28253 0.42264 0.14237 0.0
C992 C 0.30118 0.45136 0.10314 0.0
C993 C 0.31082 0.45382 0.14377 0.0
N994 N 0.28322 0.43178 0.10237 0.0
N995 N 0.2985 0.43612 0.16846 0.0
H996 H 0.26724 0.40998 0.15421 0.0
H997 H 0.30442 0.4652 0.07767 0.0
C998 C 0.30065 0.43248 1.00507 0.0
O999 O 0.31296 0.41595 0.03022 0.0
N1000 N 0.22371 0.42738 0.02727 0.0
C1001 C 0.20346 0.41034 0.03076 0.0
C1002 C 0.18835 0.41201 0.99468 0.0
C1003 C 0.22057 0.43946 0.98986 0.0
N1004 N 0.19924 0.4303 0.9692 0.0
C1005 C 0.25312 0.37512 0.08835 0.0
C1006 C 0.26745 0.35375 0.01134 0.0
C1007 C 0.26319 0.33676 0.04573 0.0
C1008 C 0.25552 0.34791 0.08436 0.0
C1009 C 0.26489 0.38111 0.0168 0.0
N1010 N 0.25901 0.39164 0.05561 0.0
H1011 H 0.24526 0.38262 0.11751 0.0
H1012 H 0.26692 0.3936 0.98939 0.0
H1013 H 0.20067 0.39675 0.05671 0.0
H1014 H 0.23444 0.45346 0.97684 0.0
O1015 O 0.22977 0.42844 0.11243 0.0
O1016 O 0.24328 0.46502 0.08191 0.0
O1017 O 0.27696 0.43943 0.01371 0.0
C1018 C 0.22982 0.45402 0.11225 0.0
H1019 H 0.32347 0.46927 0.15542 0.0
H1020 H 0.17126 0.40015 0.98714 0.0
H1021 H 0.27262 0.34604 0.98047 0.0
H1022 H 0.25047 0.33563 0.11121 0.0
Co1023 Co 0.3802 0.50126 0.81244 0.0
C1024 C 0.38352 0.5307 0.89092 0.0
C1025 C 0.35166 0.54386 0.85216 0.0
C1026 C 0.34694 0.55163 0.89317 0.0
N1027 N 0.37444 0.5302 0.8509 0.0
N1028 N 0.36694 0.54308 0.91749 0.0
H1029 H 0.39905 0.51815 0.90217 0.0
H1030 H 0.33741 0.54445 0.82671 0.0
C1031 C 0.37525 0.54905 0.75617 0.0
O1032 O 0.38996 0.56173 0.7837 0.0
N1033 N 0.38534 0.4722 0.77484 0.0
C1034 C 0.40339 0.45288 0.77842 0.0
C1035 C 0.40432 0.43927 0.74068 0.0
C1036 C 0.3753 0.46998 0.73577 0.0
N1037 N 0.38686 0.45039 0.7139 0.0
C1038 C 0.43433 0.5041 0.83914 0.0
C1039 C 0.45582 0.52009 0.76307 0.0
C1040 C 0.47271 0.51608 0.79768 0.0
C1041 C 0.4615 0.50773 0.83592 0.0
C1042 C 0.42852 0.5164 0.7678 0.0
N1043 N 0.41784 0.50957 0.80611 0.0
H1044 H 0.42692 0.49544 0.8678 0.0
H1045 H 0.41627 0.51809 0.74004 0.0
H1046 H 0.41614 0.45001 0.80547 0.0
H1047 H 0.36057 0.48313 0.723 0.0
O1048 O 0.38213 0.47731 0.86049 0.0
O1049 O 0.34524 0.48812 0.82808 0.0
O1050 O 0.36981 0.5247 0.76244 0.0
C1051 C 0.3566 0.4756 0.85912 0.0
H1052 H 0.32873 0.55986 0.90487 0.0
H1053 H 0.41791 0.42362 0.73271 0.0
H1054 H 0.46359 0.52578 0.73249 0.0
H1055 H 0.47377 0.50293 0.8629 0.0
C1056 C 0.21369 0.04835 0.18755 0.0
C1057 C 0.19847 0.06138 0.21844 0.0
H1058 H 0.23556 0.05158 0.12937 0.0
C1059 C 0.19345 0.08841 0.21298 0.0
H1060 H 0.21797 1.02755 0.19065 0.0
C1061 C 0.20348 0.10209 0.17805 0.0
C1062 C 0.21875 0.08919 0.14724 0.0
H1063 H 0.18191 0.09922 0.236 0.0
H1064 H 0.19938 0.12295 0.17543 0.0
C1065 C 0.22367 0.06209 0.1523 0.0
C1066 C 0.20911 0.95093 0.43079 0.0
C1067 C 0.22254 0.96538 0.39954 0.0
H1068 H 0.21131 0.92994 0.48941 0.0
C1069 C 0.24982 0.96932 0.40432 0.0
H1070 H 0.18808 0.94761 0.42834 0.0
C1071 C 0.26323 0.95926 0.43979 0.0
C1072 C 0.24969 0.94492 0.47119 0.0
H1073 H 0.26074 0.98055 0.38106 0.0
H1074 H 0.28418 0.96287 0.44267 0.0
C1075 C 0.22247 0.94079 0.46598 0.0
C1076 C 0.34444 0.99688 0.65109 0.0
C1077 C 0.34843 0.96953 0.6475 0.0
H1078 H 0.35042 0.03184 0.68819 0.0
C1079 C 0.36263 0.95667 0.67965 0.0
H1080 H 0.33337 1.0074 0.62716 0.0
C1081 C 0.3724 0.97064 0.71457 0.0
C1082 C 0.36811 0.99791 0.71863 0.0
H1083 H 0.36593 0.93562 0.67818 0.0
H1084 H 0.38301 0.95989 0.73877 0.0
C1085 C 0.3541 1.01088 0.68626 0.0
C1086 C 0.31461 0.09268 0.89841 0.0
C1087 C 0.34171 0.09782 0.89346 0.0
H1088 H 0.28 0.09762 0.93695 0.0
C1089 C 0.35446 0.11302 0.92454 0.0
H1090 H 0.30421 0.08077 0.87538 0.0
C1091 C 0.34064 0.12266 0.95971 0.0
C1092 C 0.31365 0.11722 0.96519 0.0
H1093 H 0.37532 0.11723 0.92205 0.0
H1094 H 0.35134 0.13408 0.98301 0.0
C1095 C 0.30076 0.10219 0.93391 0.0
C1096 C 0.22343 1.00063 0.85861 0.0
C1097 C 0.21858 0.97351 0.86361 0.0
H1098 H 0.21772 0.03517 0.82026 0.0
C1099 C 0.20342 0.96057 0.83267 0.0
H1100 H 0.23522 1.01117 0.88163 0.0
C1101 C 0.19343 0.97423 0.79768 0.0
C1102 C 0.19839 1.00128 0.79228 0.0
H1103 H 0.19938 0.93969 0.83524 0.0
H1104 H 0.182 0.96339 0.77456 0.0
C1105 C 0.21349 1.01435 0.8233 0.0
C1106 C 0.30075 0.9605 0.07709 0.0
C1107 C 0.31362 0.94575 0.04546 0.0
H1108 H 0.3043 0.98166 0.13583 0.0
C1109 C 0.3407 0.9406 0.05048 0.0
H1110 H 0.27992 0.96484 0.0744 0.0
C1111 C 0.35462 0.95023 0.08555 0.0
C1112 C 0.34188 0.96512 0.117 0.0
H1113 H 0.35139 0.92941 0.02688 0.0
H1114 H 0.37554 0.94626 0.0877 0.0
C1115 C 0.31469 0.96999 0.1125 0.0
C1116 C 0.34438 0.06588 0.35989 0.0
C1117 C 0.34823 0.09327 0.36307 0.0
H1118 H 0.35047 1.03074 0.32319 0.0
C1119 C 0.36224 0.10606 0.33066 0.0
H1120 H 0.33343 0.05542 0.38404 0.0
C1121 C 0.37197 0.09197 0.29587 0.0
C1122 C 0.36786 0.06465 0.29222 0.0
H1123 H 0.36542 0.12713 0.33181 0.0
H1124 H 0.38244 0.10268 0.27146 0.0
C1125 C 0.35402 0.05174 0.32484 0.0
C1126 C 0.25021 0.09346 0.60679 0.0
C1127 C 0.22289 0.09732 0.61139 0.0
H1128 H 0.28467 0.10007 0.56868 0.0
C1129 C 0.20951 0.11175 0.58006 0.0
H1130 H 0.26109 0.08224 0.63012 0.0
C1131 C 0.22295 0.12193 0.54498 0.0
C1132 C 0.25019 0.1179 0.53995 0.0
H1133 H 0.18847 0.11501 0.58236 0.0
H1134 H 0.21179 0.13275 0.52149 0.0
C1135 C 0.2637 0.10359 0.57143 0.0
C1136 C 0.87294 0.97017 0.79777 0.0
C1137 C 0.86899 0.99746 0.79304 0.0
H1138 H 0.86613 0.93556 0.83499 0.0
C1139 C 0.85516 1.01086 0.8252 0.0
H1140 H 0.88338 0.95906 0.7738 0.0
C1141 C 0.84541 0.99728 0.86081 0.0
C1142 C 0.8491 0.96992 0.86507 0.0
H1143 H 0.85169 0.03184 0.82278 0.0
H1144 H 0.83448 1.00814 0.88452 0.0
C1145 C 0.86307 0.95663 0.83308 0.0
C1146 C 0.80183 0.1012 0.57543 0.0
C1147 C 0.81498 0.11547 0.54351 0.0
H1148 H 0.80504 0.08018 0.63441 0.0
C1149 C 0.84222 0.11983 0.54822 0.0
H1150 H 0.78089 0.09742 0.57298 0.0
C1151 C 0.85598 0.11003 0.58331 0.0
C1152 C 0.84299 0.09562 0.61508 0.0
H1153 H 0.85315 0.13062 0.52444 0.0
H1154 H 0.87701 0.11351 0.58521 0.0
C1155 C 0.81567 0.09143 0.61082 0.0
C1156 C 0.71995 0.0644 0.36097 0.0
C1157 C 0.71627 0.09178 0.36515 0.0
H1158 H 0.71369 1.02979 0.32294 0.0
C1159 C 0.70243 0.10505 0.33302 0.0
H1160 H 0.73078 0.05357 0.38482 0.0
C1161 C 0.69268 0.09149 0.29766 0.0
C1162 C 0.69658 0.06419 0.29301 0.0
H1163 H 0.69937 0.12612 0.33486 0.0
H1164 H 0.68233 0.1026 0.27359 0.0
C1165 C 0.71028 0.05079 0.32531 0.0
C1166 C 0.72237 0.94275 0.04679 0.0
C1167 C 0.74973 0.94664 0.04266 0.0
H1168 H 0.68745 0.94946 0.08328 0.0
C1169 C 0.76291 0.96046 0.07508 0.0
H1170 H 0.71142 0.93233 0.02259 0.0
C1171 C 0.74902 0.97021 0.11041 0.0
C1172 C 0.7216 0.96647 0.11411 0.0
H1173 H 0.78394 0.96387 0.07309 0.0
H1174 H 0.75968 0.98109 0.13441 0.0
C1175 C 0.70855 0.95256 0.08182 0.0
C1176 C 0.84499 0.0657 0.15115 0.0
C1177 C 0.84891 0.09301 0.14662 0.0
H1178 H 0.85139 1.03117 0.18913 0.0
C1179 C 0.86341 0.10624 0.17808 0.0
H1180 H 0.83368 0.0549 0.12782 0.0
C1181 C 0.8736 0.09267 0.21312 0.0
C1182 C 0.86942 0.06544 0.21812 0.0
H1183 H 0.86667 0.12727 0.17592 0.0
H1184 H 0.88446 0.10371 0.2367 0.0
C1185 C 0.85504 0.05211 0.1865 0.0
C1186 C 0.74927 0.0914 0.90154 0.0
C1187 C 0.72198 0.09563 0.89699 0.0
H1188 H 0.78398 0.09766 0.93945 0.0
C1189 C 0.70896 0.11041 0.9283 0.0
H1190 H 0.75992 0.0799 0.87829 0.0
C1191 C 0.72268 0.12055 0.96323 0.0
C1192 C 0.74989 0.11614 0.96825 0.0
H1193 H 0.68796 0.11396 0.92615 0.0
H1194 H 0.71174 0.13164 0.98665 0.0
C1195 C 0.76306 0.10149 0.93677 0.0
C1196 C 0.71033 1.01136 0.68626 0.0
C1197 C 0.69576 0.99796 0.71757 0.0
H1198 H 0.73173 1.00875 0.62759 0.0
C1199 C 0.69124 0.97083 0.71197 0.0
H1200 H 0.71423 0.03223 0.68936 0.0
C1201 C 0.70129 0.95741 0.67666 0.0
C1202 C 0.71601 0.97069 0.64554 0.0
H1203 H 0.68022 0.95974 0.73527 0.0
H1204 H 0.69777 0.93644 0.67407 0.0
C1205 C 0.72024 0.99791 0.65064 0.0
C1206 C 0.84277 0.94264 0.46306 0.0
C1207 C 0.81556 0.94706 0.46805 0.0
H1208 H 0.87748 0.9492 0.42596 0.0
C1209 C 0.80239 0.96166 0.43654 0.0
H1210 H 0.8537 0.93158 0.48652 0.0
C1211 C 0.81615 0.9717 0.40129 0.0
C1212 C 0.84343 0.96748 0.39676 0.0
H1213 H 0.78147 0.96549 0.43918 0.0
H1214 H 0.80548 0.98317 0.37802 0.0
C1215 C 0.85647 0.95273 0.42811 0.0
C1216 C 0.7085 0.55304 0.6862 0.0
C1217 C 0.69404 0.56641 0.71767 0.0
H1218 H 0.72992 0.55573 0.62757 0.0
C1219 C 0.68983 0.59362 0.71247 0.0
H1220 H 0.71219 0.53212 0.68899 0.0
C1221 C 0.70004 0.60712 0.67737 0.0
C1222 C 0.71459 0.59385 0.64604 0.0
H1223 H 0.67891 0.60469 0.73594 0.0
H1224 H 0.69674 0.62814 0.67508 0.0
C1225 C 0.71855 0.56657 0.65077 0.0
C1226 C 0.70688 0.45289 0.92717 0.0
C1227 C 0.71997 0.46789 0.8962 0.0
H1228 H 0.70952 0.43122 0.98511 0.0
C1229 C 0.74727 0.47202 0.90096 0.0
H1230 H 0.68587 0.4494 0.92487 0.0
C1231 C 0.76098 0.46164 0.93604 0.0
C1232 C 0.74774 0.44678 0.96718 0.0
H1233 H 0.75798 0.48367 0.87798 0.0
H1234 H 0.7819 0.46542 0.93888 0.0
C1235 C 0.72052 0.44246 0.96195 0.0
C1236 C 0.86983 0.47078 0.21332 0.0
C1237 C 0.86587 0.49807 0.21788 0.0
H1238 H 0.86303 0.43607 0.17635 0.0
C1239 C 0.85194 0.51138 0.18574 0.0
H1240 H 0.88035 0.45975 0.2373 0.0
C1241 C 0.84211 0.49768 0.15029 0.0
C1242 C 0.84585 0.47031 0.14618 0.0
H1243 H 0.84848 0.53236 0.18803 0.0
H1244 H 0.83115 0.50845 0.12653 0.0
C1245 C 0.85991 0.45713 0.17816 0.0
C1246 C 0.80036 0.60276 0.43565 0.0
C1247 C 0.81368 0.61691 0.46754 0.0
H1248 H 0.80326 0.58173 0.37662 0.0
C1249 C 0.84096 0.62102 0.46271 0.0
H1250 H 0.77938 0.59917 0.43816 0.0
C1251 C 0.85458 0.61108 0.42754 0.0
C1252 C 0.84139 0.59681 0.39579 0.0
H1253 H 0.85203 0.63172 0.48647 0.0
H1254 H 0.87563 0.61436 0.42555 0.0
C1255 C 0.81404 0.59288 0.40018 0.0
C1256 C 0.71063 0.51073 0.3248 0.0
C1257 C 0.69704 0.49739 0.29229 0.0
H1258 H 0.73106 0.50783 0.38434 0.0
C1259 C 0.69328 0.47005 0.2966 0.0
H1260 H 0.71394 0.53174 0.32272 0.0
C1261 C 0.70305 0.4564 0.33186 0.0
C1262 C 0.71678 0.46962 0.3642 0.0
H1263 H 0.68302 0.45898 0.27236 0.0
H1264 H 0.70009 0.4353 0.33345 0.0
C1265 C 0.72033 0.49702 0.36032 0.0
C1266 C 0.85614 0.45228 0.5827 0.0
C1267 C 0.84294 0.46693 0.614 0.0
H1268 H 0.85362 0.43105 0.5243 0.0
C1269 C 0.81561 0.47088 0.60935 0.0
H1270 H 0.87717 0.44895 0.58491 0.0
C1271 C 0.80197 0.46068 0.57407 0.0
C1272 C 0.8153 0.44616 0.54261 0.0
H1273 H 0.80482 0.48228 0.63257 0.0
H1274 H 0.78101 0.46431 0.57135 0.0
C1275 C 0.84256 0.44202 0.54771 0.0
C1276 C 0.85412 0.55218 0.82453 0.0
C1277 C 0.8682 0.56559 0.79267 0.0
H1278 H 0.83325 0.55485 0.88369 0.0
C1279 C 0.87234 0.59282 0.79771 0.0
H1280 H 0.85051 0.53124 0.82186 0.0
C1281 C 0.86243 0.60632 0.83304 0.0
C1282 C 0.84825 0.59302 0.86477 0.0
H1283 H 0.88298 0.60393 0.77396 0.0
H1284 H 0.86565 0.62736 0.8352 0.0
C1285 C 0.84435 0.5657 0.86019 0.0
C1286 C 0.74898 0.59269 0.11127 0.0
C1287 C 0.7216 0.59655 0.11542 0.0
H1288 H 0.7837 0.59883 0.07338 0.0
C1289 C 0.70844 0.61052 0.08332 0.0
H1290 H 0.75972 0.58174 0.13509 0.0
C1291 C 0.7221 0.62024 0.04806 0.0
C1292 C 0.74941 0.6162 0.04347 0.0
H1293 H 0.68737 0.61371 0.0851 0.0
H1294 H 0.71105 0.63069 0.02403 0.0
C1295 C 0.76271 0.60235 0.07571 0.0
C1296 C 0.35381 0.51363 0.32575 0.0
C1297 C 0.36709 0.50043 0.29281 0.0
H1298 H 0.33392 0.51041 0.38571 0.0
C1299 C 0.37089 0.47307 0.29665 0.0
H1300 H 0.3505 0.53466 0.32396 0.0
C1301 C 0.36146 0.45926 0.33192 0.0
C1302 C 0.34805 0.47232 0.36472 0.0
H1303 H 0.3809 0.46211 0.27204 0.0
H1304 H 0.36441 0.43815 0.33315 0.0
C1305 C 0.34445 0.49974 0.36132 0.0
C1306 C 0.3164 0.59576 0.11037 0.0
C1307 C 0.34361 0.60017 0.11555 0.0
H1308 H 0.28209 0.60154 0.07158 0.0
C1309 C 0.35684 0.61504 0.08457 0.0
H1310 H 0.30563 0.58411 0.13328 0.0
C1311 C 0.34336 0.6251 0.04933 0.0
C1312 C 0.31625 0.62037 0.04363 0.0
H1313 H 0.3778 0.61867 0.08724 0.0
H1314 H 0.35439 0.63628 0.02612 0.0
C1315 C 0.30293 0.60562 0.07477 0.0
C1316 C 0.22268 0.56632 0.85888 0.0
C1317 C 0.2183 0.59352 0.86398 0.0
H1318 H 0.21646 0.53191 0.82048 0.0
C1319 C 0.20318 0.60665 0.83318 0.0
H1320 H 0.23442 0.5556 0.88173 0.0
C1321 C 0.19291 0.59313 0.79816 0.0
C1322 C 0.19752 0.56602 0.79258 0.0
H1323 H 0.1995 0.62759 0.83579 0.0
H1324 H 0.18158 0.60412 0.77511 0.0
C1325 C 0.21246 0.55275 0.82359 0.0
C1326 C 0.20881 0.45399 0.5822 0.0
C1327 C 0.22203 0.46782 0.61442 0.0
H1328 H 0.21136 0.43402 0.52272 0.0
C1329 C 0.24942 0.47157 0.61039 0.0
H1330 H 0.18773 0.45089 0.58392 0.0
C1331 C 0.26313 0.46194 0.57479 0.0
C1332 C 0.24977 0.44828 0.5424 0.0
H1333 H 0.26021 0.48238 0.63433 0.0
H1334 H 0.28414 0.46539 0.57254 0.0
C1335 C 0.22245 0.44435 0.54687 0.0
C1336 C 0.36995 0.59036 0.71302 0.0
C1337 C 0.36572 0.5631 0.71743 0.0
H1338 H 0.3641 0.62505 0.67569 0.0
C1339 C 0.35237 0.54981 0.68463 0.0
H1340 H 0.38006 0.60137 0.73749 0.0
C1341 C 0.34333 0.56351 0.64868 0.0
C1342 C 0.34734 0.59084 0.64471 0.0
H1343 H 0.34874 0.52885 0.68682 0.0
H1344 H 0.33271 0.55278 0.62444 0.0
C1345 C 0.36085 0.604 0.67734 0.0
C1346 C 0.22073 0.61827 0.46445 0.0
C1347 C 0.24813 0.61471 0.46848 0.0
H1348 H 0.18588 0.61131 0.42787 0.0
C1349 C 0.26146 0.60129 0.43581 0.0
H1350 H 0.20967 0.6284 0.48884 0.0
C1351 C 0.24769 0.59155 0.40038 0.0
C1352 C 0.22022 0.59492 0.39678 0.0
H1353 H 0.28253 0.59814 0.43769 0.0
H1354 H 0.25849 0.58096 0.3762 0.0
C1355 C 0.20701 0.60849 0.42927 0.0
C1356 C 0.19166 0.46987 0.21283 0.0
C1357 C 0.19606 0.49705 0.21809 0.0
H1358 H 0.19861 0.43526 0.17574 0.0
C1359 C 0.21104 0.51026 0.18708 0.0
H1360 H 0.18034 0.45891 0.23593 0.0
C1361 C 0.22145 0.49658 0.15205 0.0
C1362 C 0.21726 0.46932 0.14728 0.0
H1363 H 0.21486 0.53116 0.18995 0.0
H1364 H 0.23319 0.50726 0.12915 0.0
C1365 C 0.20215 0.45624 0.17812 0.0
C1366 C 0.34147 0.43799 0.96051 0.0
C1367 C 0.31439 0.44277 0.96649 0.0
H1368 H 0.37577 0.44435 0.92229 0.0
C1369 C 0.30097 0.45755 0.93547 0.0
H1370 H 0.35257 0.42679 0.98358 0.0
C1371 C 0.31435 0.46742 0.89976 0.0
C1372 C 0.34153 0.46296 0.89433 0.0
H1373 H 0.28013 0.46163 0.93886 0.0
H1374 H 0.30352 0.47912 0.87697 0.0
C1375 C 0.35483 0.44803 0.92515 0.0
C1376 C 0.27598 0.14877 0.27407 0.0
C1377 C 0.27332 0.12461 0.2952 0.0
H1378 H 0.28649 0.16843 0.21657 0.0
C1379 C 0.27951 0.10121 0.2737 0.0
H1380 H 0.27157 0.16705 0.29021 0.0
C1381 C 0.2883 0.10201 0.23189 0.0
C1382 C 0.29107 0.12624 0.21082 0.0
H1383 H 0.2783 0.08234 0.2895 0.0
H1384 H 0.2923 0.08362 0.21582 0.0
C1385 C 0.28479 0.14958 0.23233 0.0
C1386 C 0.16524 0.03562 0.48437 0.0
C1387 C 0.18908 0.03992 0.46294 0.0
H1388 H 0.14663 1.02423 0.54237 0.0
C1389 C 0.21298 0.03561 0.48432 0.0
H1390 H 0.1466 0.03854 0.46835 0.0
C1391 C 0.21299 1.02716 0.5263 0.0
C1392 C 0.18911 1.02285 0.54772 0.0
H1393 H 0.23167 0.03809 0.46834 0.0
H1394 H 0.2317 1.02468 0.54225 0.0
C1395 C 0.16526 1.02715 0.52633 0.0
C1396 C 0.27868 0.96131 0.73745 0.0
C1397 C 0.27323 0.93774 0.71591 0.0
H1398 H 0.29087 0.97926 0.79538 0.0
C1399 C 0.27654 0.91366 0.73705 0.0
H1400 H 0.27692 0.98014 0.72165 0.0
C1401 C 0.28532 0.91311 0.77882 0.0
C1402 C 0.29091 0.93662 0.80032 0.0
H1403 H 0.2727 0.89526 0.72087 0.0
H1404 H 0.28753 0.89432 0.79461 0.0
C1405 C 0.28744 0.96077 0.77927 0.0
C1406 C 0.39474 1.02835 0.9847 0.0
C1407 C 0.37104 1.02378 0.96302 0.0
H1408 H 0.41305 0.03974 0.04281 0.0
C1409 C 0.34701 1.02718 0.98445 0.0
H1410 H 0.4135 1.02595 0.96883 0.0
C1411 C 0.34676 0.035 0.02676 0.0
C1412 C 0.37053 0.03966 0.04834 0.0
H1413 H 0.32838 1.02441 0.9684 0.0
H1414 H 0.32798 0.03675 0.04273 0.0
C1415 C 0.39448 0.03638 0.0268 0.0
C1416 C 0.7881 0.96626 0.73454 0.0
C1417 C 0.7913 0.94222 0.71309 0.0
H1418 H 0.77834 0.98537 0.79264 0.0
C1419 C 0.78627 0.9186 0.73465 0.0
H1420 H 0.79125 0.98484 0.71862 0.0
C1421 C 0.77783 0.91895 0.77653 0.0
C1422 C 0.77469 0.94291 0.79806 0.0
H1423 H 0.78852 0.89982 0.71881 0.0
H1424 H 0.77404 0.90043 0.79237 0.0
C1425 C 0.77994 0.96659 0.77667 0.0
C1426 C 0.90103 0.03657 0.48494 0.0
C1427 C 0.87741 0.04203 0.46359 0.0
H1428 H 0.91911 1.02333 0.54232 0.0
C1429 C 0.85332 0.03828 0.48468 0.0
H1430 H 0.9198 0.03908 0.46914 0.0
C1431 C 0.85292 1.02906 0.52624 0.0
C1432 C 0.8766 1.02338 0.54742 0.0
H1433 H 0.83476 0.04172 0.46872 0.0
H1434 H 0.83411 1.02696 0.54203 0.0
C1435 C 0.90063 1.02727 0.52639 0.0
C1436 C 0.78721 0.14371 0.27726 0.0
C1437 C 0.79049 0.11967 0.29849 0.0
H1438 H 0.77632 0.16306 0.21984 0.0
C1439 C 0.78535 0.09606 0.27677 0.0
H1440 H 0.79093 0.16218 0.29333 0.0
C1441 C 0.77712 0.09656 0.23466 0.0
C1442 C 0.77373 0.12069 0.21353 0.0
H1443 H 0.78707 0.07722 0.29246 0.0
H1444 H 0.77405 0.07803 0.2185 0.0
C1445 C 0.7787 0.14422 0.2354 0.0
C1446 C 0.7128 1.02351 0.9847 0.0
C1447 C 0.68859 1.02065 0.96359 0.0
H1448 H 0.73241 0.034 0.0421 0.0
C1449 C 0.66518 1.02683 0.98502 0.0
H1450 H 0.73123 1.01947 0.96873 0.0
C1451 C 0.66592 0.03609 0.02648 0.0
C1452 C 0.69007 0.03911 0.04753 0.0
H1453 H 0.64631 1.02495 0.96929 0.0
H1454 H 0.64759 0.04068 0.04239 0.0
C1455 C 0.71353 0.03262 0.02632 0.0
C1456 C 0.78514 0.6439 0.73483 0.0
C1457 C 0.78973 0.62029 0.71296 0.0
H1458 H 0.77339 0.66206 0.79281 0.0
C1459 C 0.78626 0.59623 0.73425 0.0
H1460 H 0.78764 0.66271 0.71921 0.0
C1461 C 0.77833 0.59587 0.7765 0.0
C1462 C 0.77355 0.61955 0.79821 0.0
H1463 H 0.78906 0.57764 0.71817 0.0
H1464 H 0.77655 0.57706 0.79228 0.0
C1465 C 0.77688 0.64353 0.77681 0.0
C1466 C 0.71299 0.53199 0.02571 0.0
C1467 C 0.68983 0.52487 0.04727 0.0
H1468 H 0.72997 0.54569 0.9679 0.0
C1469 C 0.66547 0.52742 0.02671 0.0
H1470 H 0.732 0.53098 0.04116 0.0
C1471 C 0.66422 0.53676 0.98536 0.0
C1472 C 0.68733 0.5435 0.96352 0.0
H1473 H 0.64736 0.52235 0.0429 0.0
H1474 H 0.64521 0.53823 0.96997 0.0
C1475 C 0.71175 0.54119 0.98418 0.0
C1476 C 0.78511 0.46373 0.27583 0.0
C1477 C 0.78986 0.43985 0.29698 0.0
H1478 H 0.77347 0.48243 0.21825 0.0
C1479 C 0.78544 0.41605 0.27555 0.0
H1480 H 0.78768 0.48242 0.29176 0.0
C1481 C 0.77634 0.41605 0.23398 0.0
C1482 C 0.77176 0.43986 0.21269 0.0
H1483 H 0.78878 0.39739 0.29125 0.0
H1484 H 0.77323 0.39741 0.21811 0.0
C1485 C 0.7762 0.46374 0.23405 0.0
C1486 C 0.89831 0.53585 0.52514 0.0
C1487 C 0.87487 0.54148 0.54686 0.0
H1488 H 0.91595 0.52265 0.46741 0.0
C1489 C 0.85062 0.53799 0.52609 0.0
H1490 H 0.9172 0.53818 0.54065 0.0
C1491 C 0.8499 0.52897 0.48443 0.0
C1492 C 0.87341 0.52323 0.46282 0.0
H1493 H 0.83218 0.54153 0.54232 0.0
H1494 H 0.83098 0.52716 0.46889 0.0
C1495 C 0.89759 0.52671 0.48362 0.0
C1496 C 0.28617 0.4154 0.2357 0.0
C1497 C 0.29398 0.43792 0.21324 0.0
H1498 H 0.27113 0.39978 0.29369 0.0
C1499 C 0.29315 0.46256 0.2335 0.0
H1500 H 0.28654 0.39622 0.22074 0.0
C1501 C 0.28429 0.4646 0.2752 0.0
C1502 C 0.27602 0.44205 0.2973 0.0
H1503 H 0.29855 0.48036 0.21681 0.0
H1504 H 0.28443 0.48371 0.29033 0.0
C1505 C 0.27711 0.41746 0.27713 0.0
C1506 C 0.39064 0.53513 0.98396 0.0
C1507 C 0.36675 0.53894 0.96245 0.0
H1508 H 0.40954 0.52455 0.04182 0.0
C1509 C 0.34292 0.53549 0.98444 0.0
H1510 H 0.40929 0.5377 0.96785 0.0
C1511 C 0.34307 0.52829 0.02705 0.0
C1512 C 0.36705 0.52425 0.04835 0.0
H1513 H 0.32414 0.53774 0.96865 0.0
H1514 H 0.32442 0.52649 0.04336 0.0
C1515 C 0.39079 0.52755 0.02622 0.0
C1516 C 0.28478 0.59951 0.7351 0.0
C1517 C 0.27644 0.6221 0.71317 0.0
H1518 H 0.29921 0.58366 0.79335 0.0
C1519 C 0.27766 0.64666 0.73337 0.0
H1520 H 0.28484 0.58042 0.71988 0.0
C1521 C 0.28677 0.64865 0.7748 0.0
C1522 C 0.29462 0.62608 0.79709 0.0
H1523 H 0.27167 0.66436 0.71687 0.0
H1524 H 0.28713 0.66779 0.78991 0.0
C1525 C 0.29378 0.60148 0.77674 0.0
C1526 C 0.21331 0.5262 0.4841 0.0
C1527 C 0.18929 0.52143 0.4633 0.0
H1528 H 0.23231 0.53842 0.54123 0.0
C1529 C 0.16558 0.52619 0.48482 0.0
H1530 H 0.23192 0.52336 0.46801 0.0
C1531 C 0.16581 0.53574 0.52612 0.0
C1532 C 0.18975 0.54047 0.54702 0.0
H1533 H 0.14684 0.52289 0.46931 0.0
H1534 H 0.14724 0.53912 0.5421 0.0
C1535 C 0.21354 0.53561 0.52562 0.0
C1536 C 0.17063 0.11277 0.90852 0.0
C1537 C 0.19001 0.13029 0.9229 0.0
H1538 H 0.15251 0.09477 0.85451 0.0
C1539 C 0.20416 0.14551 0.89362 0.0
H1540 H 0.15965 0.10077 0.93068 0.0
C1541 C 0.19981 0.1424 0.85034 0.0
C1542 C 0.18164 0.12364 0.83593 0.0
H1543 H 0.21908 0.15924 0.9043 0.0
H1544 H 0.21166 0.1535 0.82812 0.0
C1545 C 0.16667 0.10927 0.86524 0.0
C1546 C 0.19961 0.92016 0.16047 0.0
C1547 C 0.1815 0.93897 0.17484 0.0
H1548 H 0.21882 0.90325 0.10652 0.0
C1549 C 0.16655 0.95335 0.14552 0.0
H1550 H 0.21144 0.90906 0.18271 0.0
C1551 C 0.17047 0.9498 0.10225 0.0
C1552 C 0.1898 0.93224 0.0879 0.0
H1553 H 0.15243 0.96789 0.15624 0.0
H1554 H 0.15951 0.96181 0.08007 0.0
C1555 C 0.20394 0.91701 0.11719 0.0
C1556 C 0.35364 0.94463 0.35298 0.0
C1557 C 0.37915 0.94117 0.33699 0.0
H1558 H 0.32829 0.94223 0.40647 0.0
C1559 C 0.39915 0.93198 0.36392 0.0
H1560 H 0.33782 0.95128 0.33262 0.0
C1561 C 0.39384 0.92714 0.40659 0.0
C1562 C 0.36842 0.93129 0.42286 0.0
H1563 H 0.41907 0.92946 0.35236 0.0
H1564 H 0.40974 0.9208 0.42701 0.0
C1565 C 0.34829 0.93964 0.39539 0.0
C1566 C 0.37405 0.0975 0.64094 0.0
C1567 C 0.38209 0.11749 0.66892 0.0
H1568 H 0.36293 0.08741 0.57772 0.0
C1569 C 0.38634 0.14299 0.65312 0.0
H1570 H 0.37137 0.07746 0.65166 0.0
C1571 C 0.38187 0.14853 0.61043 0.0
C1572 C 0.37295 0.12869 0.58299 0.0
H1573 H 0.39243 0.15879 0.67392 0.0
H1574 H 0.38441 0.16852 0.59927 0.0
C1575 C 0.36942 0.1031 0.59849 0.0
C1576 C 0.88064 0.91423 0.11356 0.0
C1577 C 0.87285 0.93428 0.08567 0.0
H1578 H 0.89008 0.9039 0.17744 0.0
C1579 C 0.8703 0.9601 0.10072 0.0
H1580 H 0.8824 0.8941 0.1027 0.0
C1581 C 0.87474 0.96573 0.1432 0.0
C1582 C 0.88159 0.94558 0.17163 0.0
H1583 H 0.86467 0.97591 0.07958 0.0
H1584 H 0.87283 0.98594 0.15358 0.0
C1585 C 0.8849 0.91983 0.15628 0.0
C1586 C 0.88106 0.14819 0.89854 0.0
C1587 C 0.87298 0.1281 0.92614 0.0
H1588 H 0.89081 0.1587 0.83484 0.0
C1589 C 0.87023 0.10237 0.91081 0.0
H1590 H 0.88298 0.16827 0.90964 0.0
C1591 C 0.87476 0.09687 0.86833 0.0
C1592 C 0.8819 0.11709 0.84017 0.0
H1593 H 0.86438 0.08653 0.93174 0.0
H1594 H 0.87271 0.07673 0.85771 0.0
C1595 C 0.88541 0.14274 0.8558 0.0
C1596 C 0.68398 0.1481 0.61329 0.0
C1597 C 0.69183 0.12793 0.58567 0.0
H1598 H 0.67455 0.15876 0.67708 0.0
C1599 C 0.69447 0.1022 0.60105 0.0
H1600 H 0.68213 0.16817 0.60216 0.0
C1601 C 0.6901 0.0968 0.6436 0.0
C1602 C 0.68323 0.1171 0.67178 0.0
H1603 H 0.70014 0.0863 0.58011 0.0
H1604 H 0.69209 0.07666 0.65426 0.0
C1605 C 0.67977 0.14274 0.6561 0.0
C1606 C 0.6661 0.9315 0.36114 0.0
C1607 C 0.6861 0.94062 0.33416 0.0
H1608 H 0.65549 0.92074 0.42441 0.0
C1609 C 0.7116 0.94422 0.35009 0.0
H1610 H 0.64619 0.92888 0.34958 0.0
C1611 C 0.71693 0.93953 0.39257 0.0
C1612 C 0.69677 0.93137 0.42013 0.0
H1613 H 0.72738 0.95085 0.32964 0.0
H1614 H 0.73691 0.94228 0.40367 0.0
C1615 C 0.67139 0.92696 0.40389 0.0
C1616 C 0.67756 0.64297 0.35564 0.0
C1617 C 0.68122 0.61727 0.34032 0.0
H1618 H 0.68004 0.66881 0.4091 0.0
C1619 C 0.68851 0.59724 0.3687 0.0
H1620 H 0.67203 0.65879 0.33449 0.0
C1621 C 0.69311 0.60298 0.41108 0.0
C1622 C 0.69032 0.62879 0.42609 0.0
H1623 H 0.69068 0.57707 0.35829 0.0
H1624 H 0.6991 0.58728 0.43216 0.0
C1625 C 0.68202 0.64868 0.39828 0.0
C1626 C 0.69589 0.46097 0.60095 0.0
C1627 C 0.69252 0.43531 0.58561 0.0
H1628 H 0.69357 0.48678 0.65386 0.0
C1629 C 0.68373 0.41548 0.61314 0.0
H1630 H 0.7023 0.47662 0.58009 0.0
C1631 C 0.67913 0.42113 0.65575 0.0
C1632 C 0.68307 0.44673 0.67137 0.0
H1633 H 0.68134 0.39545 0.60209 0.0
H1634 H 0.6731 0.40534 0.6766 0.0
C1635 C 0.6911 0.46667 0.64332 0.0
C1636 C 0.87979 0.4156 0.89816 0.0
C1637 C 0.871 0.4356 0.92538 0.0
H1638 H 0.89035 0.40507 0.8348 0.0
C1639 C 0.86769 0.46117 0.90971 0.0
H1640 H 0.88215 0.39564 0.90951 0.0
C1641 C 0.87245 0.46661 0.86726 0.0
C1642 C 0.88036 0.44647 0.83948 0.0
H1643 H 0.86129 0.47695 0.93035 0.0
H1644 H 0.86999 0.48665 0.85642 0.0
C1645 C 0.88436 0.42098 0.85546 0.0
C1646 C 0.88509 0.6434 0.15518 0.0
C1647 C 0.88163 0.61769 0.17056 0.0
H1648 H 0.88258 0.66909 0.10157 0.0
C1649 C 0.87482 0.5975 0.14216 0.0
H1650 H 0.89028 0.65933 0.17637 0.0
C1651 C 0.8704 0.60309 0.09968 0.0
C1652 C 0.87291 0.6289 0.08462 0.0
H1653 H 0.87284 0.57732 0.15262 0.0
H1654 H 0.86473 0.58726 0.07858 0.0
C1655 C 0.88081 0.64896 0.11245 0.0
C1656 C 0.38302 0.41461 0.61049 0.0
C1657 C 0.37417 0.43478 0.58362 0.0
H1658 H 0.39358 0.40376 0.67383 0.0
C1659 C 0.37118 0.46032 0.5996 0.0
H1660 H 0.38522 0.39468 0.59886 0.0
C1661 C 0.37595 0.46549 0.64209 0.0
C1662 C 0.3836 0.44514 0.66959 0.0
H1663 H 0.36484 0.47625 0.57922 0.0
H1664 H 0.37352 0.48546 0.65335 0.0
C1665 C 0.38767 0.41976 0.65328 0.0
C1666 C 0.34813 0.62667 0.39112 0.0
C1667 C 0.36823 0.63315 0.41991 0.0
H1668 H 0.33821 0.61674 0.32737 0.0
C1669 C 0.39411 0.6363 0.40501 0.0
H1670 H 0.32784 0.62494 0.40127 0.0
C1671 C 0.39993 0.63193 0.36239 0.0
C1672 C 0.37996 0.62427 0.3342 0.0
H1673 H 0.40996 0.64124 0.42652 0.0
H1674 H 0.42019 0.63338 0.35191 0.0
C1675 C 0.35397 0.6222 0.34875 0.0
C1676 C 0.21709 0.62079 0.11706 0.0
C1677 C 0.19703 0.62896 0.08928 0.0
H1678 H 0.22732 0.60951 0.18015 0.0
C1679 C 0.17152 0.63302 0.10526 0.0
H1680 H 0.23714 0.61822 0.10627 0.0
C1681 C 0.16608 0.62846 0.14793 0.0
C1682 C 0.18603 0.61959 0.1752 0.0
H1683 H 0.15563 0.63915 0.08465 0.0
H1684 H 0.14611 0.63098 0.15928 0.0
C1685 C 0.21159 0.61602 0.1595 0.0
C1686 C 0.19196 0.46704 0.86792 0.0
C1687 C 0.18371 0.44701 0.84017 0.0
H1688 H 0.20301 0.47733 0.9311 0.0
C1689 C 0.17909 0.42165 0.8563 0.0
H1690 H 0.19494 0.48699 0.85697 0.0
C1691 C 0.18327 0.41633 0.89911 0.0
C1692 C 0.19232 0.43622 0.92633 0.0
H1693 H 0.17286 0.4058 0.83571 0.0
H1694 H 0.18038 0.39646 0.91059 0.0
C1695 C 0.19635 0.46165 0.91048 0.0
C1696 C 0.25471 0.26628 0.00587 0.0
C1697 C 0.26381 0.25171 0.04083 0.0
H1698 H 0.2471 0.30464 0.97998 0.0
C1699 C 0.27502 0.26531 0.07513 0.0
H1700 H 0.24591 0.25635 0.97901 0.0
C1701 C 0.2759 0.29278 0.07559 0.0
C1702 C 0.2654 0.30752 0.04187 0.0
H1703 H 0.28272 0.25466 0.10216 0.0
H1704 H 0.28433 0.30252 0.10294 0.0
C1705 C 0.25544 0.29394 0.00642 0.0
C1706 C 1.01955 1.00673 0.25713 0.0
C1707 C 1.00566 1.016 0.29274 0.0
H1708 H 0.05739 0.99779 0.2301 0.0
C1709 C 1.0201 1.02605 0.32714 0.0
H1710 H 1.00904 0.99876 0.23017 0.0
C1711 C 0.0476 1.02543 0.32714 0.0
C1712 C 0.06154 1.0148 0.2927 0.0
H1713 H 1.01007 0.03389 0.35467 0.0
H1714 H 0.058 0.03281 0.35466 0.0
C1715 C 0.04724 1.00615 0.2571 0.0
C1716 C 0.28443 0.76634 0.57984 0.0
C1717 C 0.29434 0.75224 0.545 0.0
H1718 H 0.27739 0.80397 0.608 0.0
C1719 C 0.30318 0.7664 0.50944 0.0
H1720 H 0.27698 0.75606 0.60739 0.0
C1721 C 0.3035 0.79407 0.50983 0.0
C1722 C 0.29495 0.80809 0.54577 0.0
H1723 H 0.31106 0.75614 0.48219 0.0
H1724 H 0.31162 0.80441 0.48284 0.0
C1725 C 0.28471 0.79384 0.5802 0.0
C1726 C 0.51812 0.03478 0.8282 0.0
C1727 C 0.50384 0.04531 0.79402 0.0
H1728 H 0.55592 1.02708 0.85543 0.0
C1729 C 0.51789 0.05461 0.75859 0.0
H1730 H 0.50798 1.02691 0.85559 0.0
C1731 C 0.54559 0.05469 0.75849 0.0
C1732 C 0.55977 0.04549 0.79382 0.0
H1733 H 0.50752 0.06296 0.73181 0.0
H1734 H 0.55584 0.06311 0.73164 0.0
C1735 C 0.54565 0.03487 0.8281 0.0
C1736 C 0.25513 0.79659 0.00538 0.0
C1737 C 0.26405 0.81113 0.97028 0.0
H1738 H 0.24778 0.75822 0.0315 0.0
C1739 C 0.27519 0.79753 0.93593 0.0
H1740 H 0.2464 0.80652 0.03229 0.0
C1741 C 0.27616 0.77007 0.93558 0.0
C1742 C 0.26585 0.75533 0.96945 0.0
H1743 H 0.28275 0.80817 0.9088 0.0
H1744 H 0.28451 0.76031 0.90819 0.0
C1745 C 0.25597 0.76892 1.00494 0.0
C1746 C 0.54562 1.00934 0.25126 0.0
C1747 C 0.55977 1.01849 0.21589 0.0
H1748 H 0.5076 1.00103 0.278 0.0
C1749 C 0.54564 1.02903 0.18155 0.0
H1750 H 0.55589 1.00097 0.27813 0.0
C1751 C 0.51812 1.0291 0.18148 0.0
C1752 C 0.50387 1.01861 0.21573 0.0
H1753 H 0.55591 0.03674 0.15417 0.0
H1754 H 0.50795 0.03691 0.15407 0.0
C1755 C 0.51794 1.00938 0.25118 0.0
C1756 C 0.30371 0.26908 0.49944 0.0
C1757 C 0.29492 0.25499 0.46373 0.0
H1758 H 0.31153 0.30705 0.52672 0.0
C1759 C 0.28452 0.26917 0.42934 0.0
H1760 H 0.31196 0.2588 0.52639 0.0
C1761 C 0.28429 0.29667 0.42953 0.0
C1762 C 0.29443 0.31085 0.46413 0.0
H1763 H 0.27704 0.25897 0.40171 0.0
H1764 H 0.27668 0.30689 0.40202 0.0
C1765 C 0.30346 0.29675 0.49964 0.0
C1766 C 0.04747 0.03801 0.68248 0.0
C1767 C 0.06148 0.04814 0.71728 0.0
H1768 H 1.0099 1.02993 0.65474 0.0
C1769 C 0.04721 0.05628 0.75321 0.0
H1770 H 0.05782 1.031 0.65468 0.0
C1771 C 1.0195 0.05567 0.75324 0.0
C1772 C 1.00556 0.04689 0.71736 0.0
H1773 H 0.05737 0.06426 0.78049 0.0
H1774 H 1.00903 0.06322 0.78053 0.0
C1775 C 1.01996 0.03738 0.68253 0.0
C1776 C 0.80305 0.79525 1.00133 0.0
C1777 C 0.79351 0.80942 0.96621 0.0
H1778 H 0.81156 0.75724 0.02787 0.0
C1779 C 0.78248 0.79528 0.93226 0.0
H1780 H 0.81181 0.8055 0.02791 0.0
C1781 C 0.78232 0.76777 0.93225 0.0
C1782 C 0.79321 0.75351 0.96617 0.0
H1783 H 0.77444 0.80553 0.90511 0.0
H1784 H 0.77417 0.75761 0.90507 0.0
C1785 C 0.8029 0.76758 1.0013 0.0
C1786 C 0.76098 0.26672 0.50218 0.0
C1787 C 0.77042 0.25266 0.46686 0.0
H1788 H 0.75232 0.30466 0.52898 0.0
C1789 C 0.78109 0.26693 0.43277 0.0
H1790 H 0.75251 0.25638 0.52889 0.0
C1791 C 0.78095 0.29444 0.43281 0.0
C1792 C 0.77016 0.30857 0.46696 0.0
H1793 H 0.78906 0.25678 0.40546 0.0
H1794 H 0.78879 0.3047 0.40552 0.0
C1795 C 0.76087 0.2944 0.50224 0.0
C1796 C 0.78258 0.26756 0.07694 0.0
C1797 C 0.79383 0.25334 0.04328 0.0
H1798 H 0.77415 0.30531 0.10374 0.0
C1799 C 0.80348 0.2674 0.00813 0.0
H1800 H 0.77443 0.25739 0.10409 0.0
C1801 C 0.80327 0.29508 0.0079 0.0
C1802 C 0.79342 0.30921 0.04283 0.0
H1803 H 0.81239 0.25709 0.98175 0.0
H1804 H 0.81201 0.30537 0.98136 0.0
C1805 C 0.78239 0.29506 0.07672 0.0
C1806 C 0.78133 0.79591 0.57723 0.0
C1807 C 0.7702 0.81005 0.5434 0.0
H1808 H 0.7895 0.75824 0.60445 0.0
C1809 C 0.76036 0.7959 0.50847 0.0
H1810 H 0.78959 0.80616 0.60423 0.0
C1811 C 0.76028 0.76822 0.50861 0.0
C1812 C 0.77006 0.75415 0.54368 0.0
H1813 H 0.75154 0.80617 0.48198 0.0
H1814 H 0.75139 0.7579 0.48223 0.0
C1815 C 0.78127 0.7684 0.57736 0.0
C1816 C 0.54362 0.5093 0.75866 0.0
C1817 C 0.5579 0.51888 0.79364 0.0
H1818 H 0.50551 0.50069 0.73247 0.0
C1819 C 0.54386 0.52987 0.82772 0.0
H1820 H 0.55381 0.5006 0.73198 0.0
C1821 C 0.51632 0.52996 0.82799 0.0
C1822 C 0.50194 0.51905 0.7942 0.0
H1823 H 0.55421 0.53793 0.85478 0.0
H1824 H 0.50626 0.53813 0.85523 0.0
C1825 C 0.51592 0.50937 0.75895 0.0
C1826 C 0.04438 0.53314 0.32701 0.0
C1827 C 0.0587 0.54364 0.29285 0.0
H1828 H 1.00655 0.52569 0.35434 0.0
C1829 C 0.04469 0.55299 0.25742 0.0
H1830 H 0.0545 0.52524 0.35441 0.0
C1831 C 1.01698 0.5532 0.25736 0.0
C1832 C 1.00278 0.5441 0.29274 0.0
H1833 H 0.05509 0.56132 0.23065 0.0
H1834 H 1.00675 0.56167 0.23053 0.0
C1835 C 1.01686 0.53339 0.32697 0.0
C1836 C 0.0463 0.50969 0.75351 0.0
C1837 C 0.0604 0.51891 0.7181 0.0
H1838 H 1.00829 0.50118 0.78026 0.0
C1839 C 0.04618 0.52941 0.68383 0.0
H1840 H 0.05665 0.50138 0.78036 0.0
C1841 C 1.01867 0.52932 0.68378 0.0
C1842 C 1.00447 0.5187 0.71799 0.0
H1843 H 0.05639 0.5372 0.65643 0.0
H1844 H 1.00845 0.53706 0.65636 0.0
C1845 C 1.0186 0.50958 0.75345 0.0
C1846 C 0.51832 0.5328 0.18118 0.0
C1847 C 0.50389 0.54339 0.2152 0.0
H1848 H 0.55625 0.52524 0.15424 0.0
C1849 C 0.51785 0.55276 0.25071 0.0
H1850 H 0.50829 0.52485 0.15373 0.0
C1851 C 0.54555 0.5528 0.2511 0.0
C1852 C 0.55985 0.54358 0.21592 0.0
H1853 H 0.50744 0.5612 0.27738 0.0
H1854 H 0.55573 0.56123 0.27803 0.0
C1855 C 0.54585 0.53296 0.1815 0.0
loop_
_geom_bond_atom_site_label_1
_geom_bond_atom_site_label_2
_geom_bond_distance
_geom_bond_site_symmetry_2
_ccdc_geom_bond_type
Co0 N4 2.148 . S
Co0 N10 2.128 . S
Co0 N20 2.194 . S
Co0 O25 2.351 . S
Co0 O26 2.155 . S
Co0 O27 2.096 . S
C1 N4 1.301 . S
C1 N5 1.328 . S
C1 H6 0.930 . S
C2 C3 1.333 . S
C2 N4 1.317 . S
C2 H7 0.930 . S
C3 C2 1.333 . S
C3 N5 1.350 . S
C3 H29 0.931 . S
N4 Co0 2.148 . S
N4 C1 1.301 . S
N4 C2 1.317 . S
N5 C1 1.328 . S
N5 C3 1.350 . S
H6 C1 0.930 . S
H7 C2 0.930 . S
C8 O9 1.224 . S
C8 O27 1.247 . S
O9 C8 1.224 . S
N10 Co0 2.128 . S
N10 C11 1.355 . S
N10 C13 1.311 1_554 S
C11 N10 1.355 . S
C11 C12 1.363 1_554 S
C11 H23 0.929 . S
C12 C11 1.363 1_556 S
C12 N14 1.375 . S
C12 H30 0.931 . S
C13 N10 1.311 1_556 S
C13 N14 1.347 . S
C13 H24 0.929 . S
N14 C12 1.375 . S
N14 C13 1.347 . S
C15 C18 1.365 . S
C15 N20 1.328 . S
C15 H21 0.929 . S
C16 C17 1.362 . S
C16 C19 1.378 . S
C16 H31 0.929 . S
C17 C16 1.362 . S
C17 C18 1.366 . S
C18 C15 1.365 . S
C18 C17 1.366 . S
C18 H32 0.930 . S
C19 C16 1.378 . S
C19 N20 1.315 . S
C19 H22 0.930 . S
N20 Co0 2.194 . S
N20 C15 1.328 . S
N20 C19 1.315 . S
H21 C15 0.929 . S
H22 C19 0.930 . S
H23 C11 0.929 . S
H24 C13 0.929 . S
O25 Co0 2.351 . S
O25 C28 1.244 . S
O26 Co0 2.155 . S
O26 C28 1.240 . S
O27 Co0 2.096 . S
O27 C8 1.247 . S
C28 O25 1.244 . S
C28 O26 1.240 . S
H29 C3 0.931 . S
H30 C12 0.931 . S
H31 C16 0.929 . S
H32 C18 0.930 . S
Co33 N37 2.148 . S
Co33 N43 2.128 . S
Co33 N53 2.194 . S
Co33 O58 2.351 . S
Co33 O59 2.155 . S
Co33 O60 2.096 . S
C34 N37 1.301 . S
C34 N38 1.328 . S
C34 H39 0.930 . S
C35 C36 1.333 . S
C35 N37 1.317 1_545 S
C35 H40 0.930 . S
C36 C35 1.333 . S
C36 N38 1.350 1_545 S
C36 H62 0.931 . S
N37 Co33 2.148 . S
N37 C34 1.301 . S
N37 C35 1.317 1_565 S
N38 C34 1.328 . S
N38 C36 1.350 1_565 S
H39 C34 0.930 . S
H40 C35 0.930 . S
C41 O42 1.224 . S
C41 O60 1.247 . S
O42 C41 1.224 . S
N43 Co33 2.128 . S
N43 C44 1.355 . S
N43 C46 1.311 . S
C44 N43 1.355 . S
C44 C45 1.363 . S
C44 H56 0.929 . S
C45 C44 1.363 . S
C45 N47 1.375 . S
C45 H63 0.931 . S
C46 N43 1.311 . S
C46 N47 1.347 . S
C46 H57 0.929 . S
N47 C45 1.375 . S
N47 C46 1.347 . S
C48 C51 1.365 . S
C48 N53 1.328 . S
C48 H54 0.929 . S
C49 C50 1.362 . S
C49 C52 1.378 . S
C49 H64 0.929 . S
C50 C49 1.362 . S
C50 C51 1.366 . S
C51 C48 1.365 . S
C51 C50 1.366 . S
C51 H65 0.930 . S
C52 C49 1.378 . S
C52 N53 1.315 . S
C52 H55 0.930 . S
N53 Co33 2.194 . S
N53 C48 1.328 . S
N53 C52 1.315 . S
H54 C48 0.929 . S
H55 C52 0.930 . S
H56 C44 0.929 . S
H57 C46 0.929 . S
O58 Co33 2.351 . S
O58 C61 1.244 . S
O59 Co33 2.155 . S
O59 C61 1.240 . S
O60 Co33 2.096 . S
O60 C41 1.247 . S
C61 O58 1.244 . S
C61 O59 1.240 . S
H62 C36 0.931 . S
H63 C45 0.931 . S
H64 C49 0.929 . S
H65 C51 0.930 . S
Co66 N70 2.148 . S
Co66 N76 2.128 . S
Co66 N86 2.194 . S
Co66 O91 2.351 . S
Co66 O92 2.155 . S
Co66 O93 2.096 . S
C67 N70 1.301 . S
C67 N71 1.328 . S
C67 H72 0.930 . S
C68 C69 1.333 . S
C68 N70 1.317 . S
C68 H73 0.930 . S
C69 C68 1.333 . S
C69 N71 1.350 . S
C69 H95 0.931 . S
N70 Co66 2.148 . S
N70 C67 1.301 . S
N70 C68 1.317 . S
N71 C67 1.328 . S
N71 C69 1.350 . S
H72 C67 0.930 . S
H73 C68 0.930 . S
C74 O75 1.224 . S
C74 O93 1.247 . S
O75 C74 1.224 . S
N76 Co66 2.128 . S
N76 C77 1.355 . S
N76 C79 1.311 . S
C77 N76 1.355 . S
C77 C78 1.363 . S
C77 H89 0.929 . S
C78 C77 1.363 . S
C78 N80 1.375 . S
C78 H96 0.931 . S
C79 N76 1.311 . S
C79 N80 1.347 . S
C79 H90 0.929 . S
N80 C78 1.375 . S
N80 C79 1.347 . S
C81 C84 1.365 . S
C81 N86 1.328 . S
C81 H87 0.929 . S
C82 C83 1.362 . S
C82 C85 1.378 . S
C82 H97 0.929 . S
C83 C82 1.362 . S
C83 C84 1.366 . S
C84 C81 1.365 . S
C84 C83 1.366 . S
C84 H98 0.930 . S
C85 C82 1.378 . S
C85 N86 1.315 . S
C85 H88 0.930 . S
N86 Co66 2.194 . S
N86 C81 1.328 . S
N86 C85 1.315 . S
H87 C81 0.929 . S
H88 C85 0.930 . S
H89 C77 0.929 . S
H90 C79 0.929 . S
O91 Co66 2.351 . S
O91 C94 1.244 . S
O92 Co66 2.155 . S
O92 C94 1.240 . S
O93 Co66 2.096 . S
O93 C74 1.247 . S
C94 O91 1.244 . S
C94 O92 1.240 . S
H95 C69 0.931 . S
H96 C78 0.931 . S
H97 C82 0.929 . S
H98 C84 0.930 . S
Co99 N103 2.148 . S
Co99 N109 2.128 . S
Co99 N119 2.194 . S
Co99 O124 2.351 . S
Co99 O125 2.155 . S
Co99 O126 2.096 . S
C100 N103 1.301 . S
C100 N104 1.328 . S
C100 H105 0.930 . S
C101 C102 1.333 . S
C101 N103 1.317 1_565 S
C101 H106 0.930 . S
C102 C101 1.333 . S
C102 N104 1.350 1_565 S
C102 H128 0.931 . S
N103 Co99 2.148 . S
N103 C100 1.301 . S
N103 C101 1.317 1_545 S
N104 C100 1.328 . S
N104 C102 1.350 1_545 S
H105 C100 0.930 . S
H106 C101 0.930 . S
C107 O108 1.224 . S
C107 O126 1.247 . S
O108 C107 1.224 . S
N109 Co99 2.128 . S
N109 C110 1.355 . S
N109 C112 1.311 . S
C110 N109 1.355 . S
C110 C111 1.363 . S
C110 H122 0.929 . S
C111 C110 1.363 . S
C111 N113 1.375 . S
C111 H129 0.931 . S
C112 N109 1.311 . S
C112 N113 1.347 . S
C112 H123 0.929 . S
N113 C111 1.375 . S
N113 C112 1.347 . S
C114 C117 1.365 . S
C114 N119 1.328 . S
C114 H120 0.929 . S
C115 C116 1.362 . S
C115 C118 1.378 . S
C115 H130 0.929 . S
C116 C115 1.362 . S
C116 C117 1.366 . S
C117 C114 1.365 . S
C117 C116 1.366 . S
C117 H131 0.930 . S
C118 C115 1.378 . S
C118 N119 1.315 . S
C118 H121 0.930 . S
N119 Co99 2.194 . S
N119 C114 1.328 . S
N119 C118 1.315 . S
H120 C114 0.929 . S
H121 C118 0.930 . S
H122 C110 0.929 . S
H123 C112 0.929 . S
O124 Co99 2.351 . S
O124 C127 1.244 . S
O125 Co99 2.155 . S
O125 C127 1.240 . S
O126 Co99 2.096 . S
O126 C107 1.247 . S
C127 O124 1.244 . S
C127 O125 1.240 . S
H128 C102 0.931 . S
H129 C111 0.931 . S
H130 C115 0.929 . S
H131 C117 0.930 . S
Co132 N136 2.148 . S
Co132 N142 2.128 . S
Co132 N152 2.194 . S
Co132 O157 2.351 . S
Co132 O158 2.155 . S
Co132 O159 2.096 . S
C133 N136 1.301 . S
C133 N137 1.328 . S
C133 H138 0.930 . S
C134 C135 1.333 . S
C134 N136 1.317 . S
C134 H139 0.930 . S
C135 C134 1.333 . S
C135 N137 1.350 . S
C135 H161 0.931 . S
N136 Co132 2.148 . S
N136 C133 1.301 . S
N136 C134 1.317 . S
N137 C133 1.328 . S
N137 C135 1.350 . S
H138 C133 0.930 . S
H139 C134 0.930 . S
C140 O141 1.224 . S
C140 O159 1.247 . S
O141 C140 1.224 . S
N142 Co132 2.128 . S
N142 C143 1.355 . S
N142 C145 1.311 1_556 S
C143 N142 1.355 . S
C143 C144 1.363 1_556 S
C143 H155 0.929 . S
C144 C143 1.363 1_554 S
C144 N146 1.375 . S
C144 H162 0.931 . S
C145 N142 1.311 1_554 S
C145 N146 1.347 . S
C145 H156 0.929 . S
N146 C144 1.375 . S
N146 C145 1.347 . S
C147 C150 1.365 . S
C147 N152 1.328 . S
C147 H153 0.929 . S
C148 C149 1.362 . S
C148 C151 1.378 . S
C148 H163 0.929 . S
C149 C148 1.362 . S
C149 C150 1.366 . S
C150 C147 1.365 . S
C150 C149 1.366 . S
C150 H164 0.930 . S
C151 C148 1.378 . S
C151 N152 1.315 . S
C151 H154 0.930 . S
N152 Co132 2.194 . S
N152 C147 1.328 . S
N152 C151 1.315 . S
H153 C147 0.929 . S
H154 C151 0.930 . S
H155 C143 0.929 . S
H156 C145 0.929 . S
O157 Co132 2.351 . S
O157 C160 1.244 . S
O158 Co132 2.155 . S
O158 C160 1.240 . S
O159 Co132 2.096 . S
O159 C140 1.247 . S
C160 O157 1.244 . S
C160 O158 1.240 . S
H161 C135 0.931 . S
H162 C144 0.931 . S
H163 C148 0.929 . S
H164 C150 0.930 . S
Co165 N169 2.148 . S
Co165 N175 2.128 . S
Co165 N185 2.194 . S
Co165 O190 2.351 . S
Co165 O191 2.155 . S
Co165 O192 2.096 . S
C166 N169 1.301 . S
C166 N170 1.328 . S
C166 H171 0.930 . S
C167 C168 1.333 . S
C167 N169 1.317 1_545 S
C167 H172 0.930 . S
C168 C167 1.333 . S
C168 N170 1.350 1_545 S
C168 H194 0.931 . S
N169 Co165 2.148 . S
N169 C166 1.301 . S
N169 C167 1.317 1_565 S
N170 C166 1.328 . S
N170 C168 1.350 1_565 S
H171 C166 0.930 . S
H172 C167 0.930 . S
C173 O174 1.224 . S
C173 O192 1.247 . S
O174 C173 1.224 . S
N175 Co165 2.128 . S
N175 C176 1.355 . S
N175 C178 1.311 . S
C176 N175 1.355 . S
C176 C177 1.363 . S
C176 H188 0.929 . S
C177 C176 1.363 . S
C177 N179 1.375 . S
C177 H195 0.931 . S
C178 N175 1.311 . S
C178 N179 1.347 . S
C178 H189 0.929 . S
N179 C177 1.375 . S
N179 C178 1.347 . S
C180 C183 1.365 . S
C180 N185 1.328 . S
C180 H186 0.929 . S
C181 C182 1.362 . S
C181 C184 1.378 . S
C181 H196 0.929 . S
C182 C181 1.362 . S
C182 C183 1.366 . S
C183 C180 1.365 . S
C183 C182 1.366 . S
C183 H197 0.930 . S
C184 C181 1.378 . S
C184 N185 1.315 . S
C184 H187 0.930 . S
N185 Co165 2.194 . S
N185 C180 1.328 . S
N185 C184 1.315 . S
H186 C180 0.929 . S
H187 C184 0.930 . S
H188 C176 0.929 . S
H189 C178 0.929 . S
O190 Co165 2.351 . S
O190 C193 1.244 . S
O191 Co165 2.155 . S
O191 C193 1.240 . S
O192 Co165 2.096 . S
O192 C173 1.247 . S
C193 O190 1.244 . S
C193 O191 1.240 . S
H194 C168 0.931 . S
H195 C177 0.931 . S
H196 C181 0.929 . S
H197 C183 0.930 . S
Co198 N202 2.148 . S
Co198 N208 2.128 . S
Co198 N218 2.194 . S
Co198 O223 2.351 . S
Co198 O224 2.155 . S
Co198 O225 2.096 . S
C199 N202 1.301 . S
C199 N203 1.328 . S
C199 H204 0.930 . S
C200 C201 1.333 . S
C200 N202 1.317 . S
C200 H205 0.930 . S
C201 C200 1.333 . S
C201 N203 1.350 . S
C201 H227 0.931 . S
N202 Co198 2.148 . S
N202 C199 1.301 . S
N202 C200 1.317 . S
N203 C199 1.328 . S
N203 C201 1.350 . S
H204 C199 0.930 . S
H205 C200 0.930 . S
C206 O207 1.224 . S
C206 O225 1.247 . S
O207 C206 1.224 . S
N208 Co198 2.128 . S
N208 C209 1.355 . S
N208 C211 1.311 . S
C209 N208 1.355 . S
C209 C210 1.363 . S
C209 H221 0.929 . S
C210 C209 1.363 . S
C210 N212 1.375 . S
C210 H228 0.931 . S
C211 N208 1.311 . S
C211 N212 1.347 . S
C211 H222 0.929 . S
N212 C210 1.375 . S
N212 C211 1.347 . S
C213 C216 1.365 . S
C213 N218 1.328 . S
C213 H219 0.929 . S
C214 C215 1.362 . S
C214 C217 1.378 . S
C214 H229 0.929 . S
C215 C214 1.362 . S
C215 C216 1.366 . S
C216 C213 1.365 . S
C216 C215 1.366 . S
C216 H230 0.930 . S
C217 C214 1.378 . S
C217 N218 1.315 . S
C217 H220 0.930 . S
N218 Co198 2.194 . S
N218 C213 1.328 . S
N218 C217 1.315 . S
H219 C213 0.929 . S
H220 C217 0.930 . S
H221 C209 0.929 . S
H222 C211 0.929 . S
O223 Co198 2.351 . S
O223 C226 1.244 . S
O224 Co198 2.155 . S
O224 C226 1.240 . S
O225 Co198 2.096 . S
O225 C206 1.247 . S
C226 O223 1.244 . S
C226 O224 1.240 . S
H227 C201 0.931 . S
H228 C210 0.931 . S
H229 C214 0.929 . S
H230 C216 0.930 . S
Co231 N235 2.148 . S
Co231 N241 2.128 . S
Co231 N251 2.194 . S
Co231 O256 2.351 . S
Co231 O257 2.155 . S
Co231 O258 2.096 . S
C232 N235 1.301 . S
C232 N236 1.328 . S
C232 H237 0.930 . S
C233 C234 1.333 . S
C233 N235 1.317 1_565 S
C233 H238 0.930 . S
C234 C233 1.333 . S
C234 N236 1.350 1_565 S
C234 H260 0.931 . S
N235 Co231 2.148 . S
N235 C232 1.301 . S
N235 C233 1.317 1_545 S
N236 C232 1.328 . S
N236 C234 1.350 1_545 S
H237 C232 0.930 . S
H238 C233 0.930 . S
C239 O240 1.224 . S
C239 O258 1.247 . S
O240 C239 1.224 . S
N241 Co231 2.128 . S
N241 C242 1.355 . S
N241 C244 1.311 . S
C242 N241 1.355 . S
C242 C243 1.363 . S
C242 H254 0.929 . S
C243 C242 1.363 . S
C243 N245 1.375 . S
C243 H261 0.931 . S
C244 N241 1.311 . S
C244 N245 1.347 . S
C244 H255 0.929 . S
N245 C243 1.375 . S
N245 C244 1.347 . S
C246 C249 1.365 . S
C246 N251 1.328 . S
C246 H252 0.929 . S
C247 C248 1.362 . S
C247 C250 1.378 . S
C247 H262 0.929 . S
C248 C247 1.362 . S
C248 C249 1.366 . S
C249 C246 1.365 . S
C249 C248 1.366 . S
C249 H263 0.930 . S
C250 C247 1.378 . S
C250 N251 1.315 . S
C250 H253 0.930 . S
N251 Co231 2.194 . S
N251 C246 1.328 . S
N251 C250 1.315 . S
H252 C246 0.929 . S
H253 C250 0.930 . S
H254 C242 0.929 . S
H255 C244 0.929 . S
O256 Co231 2.351 . S
O256 C259 1.244 . S
O257 Co231 2.155 . S
O257 C259 1.240 . S
O258 Co231 2.096 . S
O258 C239 1.247 . S
C259 O256 1.244 . S
C259 O257 1.240 . S
H260 C234 0.931 . S
H261 C243 0.931 . S
H262 C247 0.929 . S
H263 C249 0.930 . S
Co264 N268 2.148 . S
Co264 N274 2.128 . S
Co264 N284 2.194 . S
Co264 O289 2.351 . S
Co264 O290 2.155 . S
Co264 O291 2.096 . S
C265 N268 1.301 . S
C265 N269 1.328 . S
C265 H270 0.930 . S
C266 C267 1.333 . S
C266 N268 1.317 . S
C266 H271 0.930 . S
C267 C266 1.333 . S
C267 N269 1.350 . S
C267 H293 0.931 . S
N268 Co264 2.148 . S
N268 C265 1.301 . S
N268 C266 1.317 . S
N269 C265 1.328 . S
N269 C267 1.350 . S
H270 C265 0.930 . S
H271 C266 0.930 . S
C272 O273 1.224 . S
C272 O291 1.247 . S
O273 C272 1.224 . S
N274 Co264 2.128 . S
N274 C275 1.355 . S
N274 C277 1.311 1_556 S
C275 N274 1.355 . S
C275 C276 1.363 1_556 S
C275 H287 0.929 . S
C276 C275 1.363 1_554 S
C276 N278 1.375 . S
C276 H294 0.931 . S
C277 N274 1.311 1_554 S
C277 N278 1.347 . S
C277 H288 0.929 . S
N278 C276 1.375 . S
N278 C277 1.347 . S
C279 C282 1.365 . S
C279 N284 1.328 . S
C279 H285 0.929 . S
C280 C281 1.362 . S
C280 C283 1.378 . S
C280 H295 0.929 . S
C281 C280 1.362 . S
C281 C282 1.366 . S
C282 C279 1.365 . S
C282 C281 1.366 . S
C282 H296 0.930 . S
C283 C280 1.378 . S
C283 N284 1.315 . S
C283 H286 0.930 . S
N284 Co264 2.194 . S
N284 C279 1.328 . S
N284 C283 1.315 . S
H285 C279 0.929 . S
H286 C283 0.930 . S
H287 C275 0.929 . S
H288 C277 0.929 . S
O289 Co264 2.351 . S
O289 C292 1.244 . S
O290 Co264 2.155 . S
O290 C292 1.240 . S
O291 Co264 2.096 . S
O291 C272 1.247 . S
C292 O289 1.244 . S
C292 O290 1.240 . S
H293 C267 0.931 . S
H294 C276 0.931 . S
H295 C280 0.929 . S
H296 C282 0.930 . S
Co297 N301 2.148 . S
Co297 N307 2.128 . S
Co297 N317 2.194 . S
Co297 O322 2.351 . S
Co297 O323 2.155 . S
Co297 O324 2.096 . S
C298 N301 1.301 . S
C298 N302 1.328 . S
C298 H303 0.930 . S
C299 C300 1.333 . S
C299 N301 1.317 1_565 S
C299 H304 0.930 . S
C300 C299 1.333 . S
C300 N302 1.350 1_565 S
C300 H326 0.931 . S
N301 Co297 2.148 . S
N301 C298 1.301 . S
N301 C299 1.317 1_545 S
N302 C298 1.328 . S
N302 C300 1.350 1_545 S
H303 C298 0.930 . S
H304 C299 0.930 . S
C305 O306 1.224 . S
C305 O324 1.247 . S
O306 C305 1.224 . S
N307 Co297 2.128 . S
N307 C308 1.355 . S
N307 C310 1.311 . S
C308 N307 1.355 . S
C308 C309 1.363 . S
C308 H320 0.929 . S
C309 C308 1.363 . S
C309 N311 1.375 . S
C309 H327 0.931 . S
C310 N307 1.311 . S
C310 N311 1.347 . S
C310 H321 0.929 . S
N311 C309 1.375 . S
N311 C310 1.347 . S
C312 C315 1.365 . S
C312 N317 1.328 . S
C312 H318 0.929 . S
C313 C314 1.362 . S
C313 C316 1.378 . S
C313 H328 0.929 . S
C314 C313 1.362 . S
C314 C315 1.366 . S
C315 C312 1.365 . S
C315 C314 1.366 . S
C315 H329 0.930 . S
C316 C313 1.378 . S
C316 N317 1.315 . S
C316 H319 0.930 . S
N317 Co297 2.194 . S
N317 C312 1.328 . S
N317 C316 1.315 . S
H318 C312 0.929 . S
H319 C316 0.930 . S
H320 C308 0.929 . S
H321 C310 0.929 . S
O322 Co297 2.351 . S
O322 C325 1.244 . S
O323 Co297 2.155 . S
O323 C325 1.240 . S
O324 Co297 2.096 . S
O324 C305 1.247 . S
C325 O322 1.244 . S
C325 O323 1.240 . S
H326 C300 0.931 . S
H327 C309 0.931 . S
H328 C313 0.929 . S
H329 C315 0.930 . S
Co330 N334 2.148 . S
Co330 N340 2.128 . S
Co330 N350 2.194 . S
Co330 O355 2.351 . S
Co330 O356 2.155 . S
Co330 O357 2.096 . S
C331 N334 1.301 . S
C331 N335 1.328 . S
C331 H336 0.930 . S
C332 C333 1.333 . S
C332 N334 1.317 . S
C332 H337 0.930 . S
C333 C332 1.333 . S
C333 N335 1.350 . S
C333 H359 0.931 . S
N334 Co330 2.148 . S
N334 C331 1.301 . S
N334 C332 1.317 . S
N335 C331 1.328 . S
N335 C333 1.350 . S
H336 C331 0.930 . S
H337 C332 0.930 . S
C338 O339 1.224 . S
C338 O357 1.247 . S
O339 C338 1.224 . S
N340 Co330 2.128 . S
N340 C341 1.355 . S
N340 C343 1.311 . S
C341 N340 1.355 . S
C341 C342 1.363 . S
C341 H353 0.929 . S
C342 C341 1.363 . S
C342 N344 1.375 . S
C342 H360 0.931 . S
C343 N340 1.311 . S
C343 N344 1.347 . S
C343 H354 0.929 . S
N344 C342 1.375 . S
N344 C343 1.347 . S
C345 C348 1.365 . S
C345 N350 1.328 . S
C345 H351 0.929 . S
C346 C347 1.362 . S
C346 C349 1.378 . S
C346 H361 0.929 . S
C347 C346 1.362 . S
C347 C348 1.366 . S
C348 C345 1.365 . S
C348 C347 1.366 . S
C348 H362 0.930 . S
C349 C346 1.378 . S
C349 N350 1.315 . S
C349 H352 0.930 . S
N350 Co330 2.194 . S
N350 C345 1.328 . S
N350 C349 1.315 . S
H351 C345 0.929 . S
H352 C349 0.930 . S
H353 C341 0.929 . S
H354 C343 0.929 . S
O355 Co330 2.351 . S
O355 C358 1.244 . S
O356 Co330 2.155 . S
O356 C358 1.240 . S
O357 Co330 2.096 . S
O357 C338 1.247 . S
C358 O355 1.244 . S
C358 O356 1.240 . S
H359 C333 0.931 . S
H360 C342 0.931 . S
H361 C346 0.929 . S
H362 C348 0.930 . S
Co363 N367 2.148 . S
Co363 N373 2.128 . S
Co363 N383 2.194 . S
Co363 O388 2.351 . S
Co363 O389 2.155 . S
Co363 O390 2.096 . S
C364 N367 1.301 . S
C364 N368 1.328 . S
C364 H369 0.930 . S
C365 C366 1.333 . S
C365 N367 1.317 1_545 S
C365 H370 0.930 . S
C366 C365 1.333 . S
C366 N368 1.350 1_545 S
C366 H392 0.931 . S
N367 Co363 2.148 . S
N367 C364 1.301 . S
N367 C365 1.317 1_565 S
N368 C364 1.328 . S
N368 C366 1.350 1_565 S
H369 C364 0.930 . S
H370 C365 0.930 . S
C371 O372 1.224 . S
C371 O390 1.247 . S
O372 C371 1.224 . S
N373 Co363 2.128 . S
N373 C374 1.355 . S
N373 C376 1.311 . S
C374 N373 1.355 . S
C374 C375 1.363 . S
C374 H386 0.929 . S
C375 C374 1.363 . S
C375 N377 1.375 . S
C375 H393 0.931 . S
C376 N373 1.311 . S
C376 N377 1.347 . S
C376 H387 0.929 . S
N377 C375 1.375 . S
N377 C376 1.347 . S
C378 C381 1.365 . S
C378 N383 1.328 . S
C378 H384 0.929 . S
C379 C380 1.362 . S
C379 C382 1.378 . S
C379 H394 0.929 . S
C380 C379 1.362 . S
C380 C381 1.366 . S
C381 C378 1.365 . S
C381 C380 1.366 . S
C381 H395 0.930 . S
C382 C379 1.378 . S
C382 N383 1.315 . S
C382 H385 0.930 . S
N383 Co363 2.194 . S
N383 C378 1.328 . S
N383 C382 1.315 . S
H384 C378 0.929 . S
H385 C382 0.930 . S
H386 C374 0.929 . S
H387 C376 0.929 . S
O388 Co363 2.351 . S
O388 C391 1.244 . S
O389 Co363 2.155 . S
O389 C391 1.240 . S
O390 Co363 2.096 . S
O390 C371 1.247 . S
C391 O388 1.244 . S
C391 O389 1.240 . S
H392 C366 0.931 . S
H393 C375 0.931 . S
H394 C379 0.929 . S
H395 C381 0.930 . S
Co396 N400 2.148 . S
Co396 N406 2.128 . S
Co396 N416 2.194 . S
Co396 O421 2.351 . S
Co396 O422 2.155 . S
Co396 O423 2.096 . S
C397 N400 1.301 . S
C397 N401 1.328 . S
C397 H402 0.930 . S
C398 C399 1.333 . S
C398 N400 1.317 . S
C398 H403 0.930 . S
C399 C398 1.333 . S
C399 N401 1.350 . S
C399 H425 0.931 . S
N400 Co396 2.148 . S
N400 C397 1.301 . S
N400 C398 1.317 . S
N401 C397 1.328 . S
N401 C399 1.350 . S
H402 C397 0.930 . S
H403 C398 0.930 . S
C404 O405 1.224 . S
C404 O423 1.247 . S
O405 C404 1.224 . S
N406 Co396 2.128 . S
N406 C407 1.355 . S
N406 C409 1.311 1_554 S
C407 N406 1.355 . S
C407 C408 1.363 1_554 S
C407 H419 0.929 . S
C408 C407 1.363 1_556 S
C408 N410 1.375 . S
C408 H426 0.931 . S
C409 N406 1.311 1_556 S
C409 N410 1.347 . S
C409 H420 0.929 . S
N410 C408 1.375 . S
N410 C409 1.347 . S
C411 C414 1.365 . S
C411 N416 1.328 . S
C411 H417 0.929 . S
C412 C413 1.362 . S
C412 C415 1.378 . S
C412 H427 0.929 . S
C413 C412 1.362 . S
C413 C414 1.366 . S
C414 C411 1.365 . S
C414 C413 1.366 . S
C414 H428 0.930 . S
C415 C412 1.378 . S
C415 N416 1.315 . S
C415 H418 0.930 . S
N416 Co396 2.194 . S
N416 C411 1.328 . S
N416 C415 1.315 . S
H417 C411 0.929 . S
H418 C415 0.930 . S
H419 C407 0.929 . S
H420 C409 0.929 . S
O421 Co396 2.351 . S
O421 C424 1.244 . S
O422 Co396 2.155 . S
O422 C424 1.240 . S
O423 Co396 2.096 . S
O423 C404 1.247 . S
C424 O421 1.244 . S
C424 O422 1.240 . S
H425 C399 0.931 . S
H426 C408 0.931 . S
H427 C412 0.929 . S
H428 C414 0.930 . S
Co429 N433 2.148 . S
Co429 N439 2.128 . S
Co429 N449 2.194 . S
Co429 O454 2.351 . S
Co429 O455 2.155 . S
Co429 O456 2.096 . S
C430 N433 1.301 . S
C430 N434 1.328 . S
C430 H435 0.930 . S
C431 C432 1.333 . S
C431 N433 1.317 1_565 S
C431 H436 0.930 . S
C432 C431 1.333 . S
C432 N434 1.350 1_565 S
C432 H458 0.931 . S
N433 Co429 2.148 . S
N433 C430 1.301 . S
N433 C431 1.317 1_545 S
N434 C430 1.328 . S
N434 C432 1.350 1_545 S
H435 C430 0.930 . S
H436 C431 0.930 . S
C437 O438 1.224 . S
C437 O456 1.247 . S
O438 C437 1.224 . S
N439 Co429 2.128 . S
N439 C440 1.355 . S
N439 C442 1.311 . S
C440 N439 1.355 . S
C440 C441 1.363 . S
C440 H452 0.929 . S
C441 C440 1.363 . S
C441 N443 1.375 . S
C441 H459 0.931 . S
C442 N439 1.311 . S
C442 N443 1.347 . S
C442 H453 0.929 . S
N443 C441 1.375 . S
N443 C442 1.347 . S
C444 C447 1.365 . S
C444 N449 1.328 . S
C444 H450 0.929 . S
C445 C446 1.362 . S
C445 C448 1.378 . S
C445 H460 0.929 . S
C446 C445 1.362 . S
C446 C447 1.366 . S
C447 C444 1.365 . S
C447 C446 1.366 . S
C447 H461 0.930 . S
C448 C445 1.378 . S
C448 N449 1.315 . S
C448 H451 0.930 . S
N449 Co429 2.194 . S
N449 C444 1.328 . S
N449 C448 1.315 . S
H450 C444 0.929 . S
H451 C448 0.930 . S
H452 C440 0.929 . S
H453 C442 0.929 . S
O454 Co429 2.351 . S
O454 C457 1.244 . S
O455 Co429 2.155 . S
O455 C457 1.240 . S
O456 Co429 2.096 . S
O456 C437 1.247 . S
C457 O454 1.244 . S
C457 O455 1.240 . S
H458 C432 0.931 . S
H459 C441 0.931 . S
H460 C445 0.929 . S
H461 C447 0.930 . S
Co462 N466 2.148 . S
Co462 N472 2.128 . S
Co462 N482 2.194 . S
Co462 O487 2.351 . S
Co462 O488 2.155 . S
Co462 O489 2.096 . S
C463 N466 1.301 . S
C463 N467 1.328 . S
C463 H468 0.930 . S
C464 C465 1.333 . S
C464 N466 1.317 . S
C464 H469 0.930 . S
C465 C464 1.333 . S
C465 N467 1.350 . S
C465 H491 0.931 . S
N466 Co462 2.148 . S
N466 C463 1.301 . S
N466 C464 1.317 . S
N467 C463 1.328 . S
N467 C465 1.350 . S
H468 C463 0.930 . S
H469 C464 0.930 . S
C470 O471 1.224 . S
C470 O489 1.247 . S
O471 C470 1.224 . S
N472 Co462 2.128 . S
N472 C473 1.355 . S
N472 C475 1.311 . S
C473 N472 1.355 . S
C473 C474 1.363 . S
C473 H485 0.929 . S
C474 C473 1.363 . S
C474 N476 1.375 . S
C474 H492 0.931 . S
C475 N472 1.311 . S
C475 N476 1.347 . S
C475 H486 0.929 . S
N476 C474 1.375 . S
N476 C475 1.347 . S
C477 C480 1.365 . S
C477 N482 1.328 . S
C477 H483 0.929 . S
C478 C479 1.362 . S
C478 C481 1.378 . S
C478 H493 0.929 . S
C479 C478 1.362 . S
C479 C480 1.366 . S
C480 C477 1.365 . S
C480 C479 1.366 . S
C480 H494 0.930 . S
C481 C478 1.378 . S
C481 N482 1.315 . S
C481 H484 0.930 . S
N482 Co462 2.194 . S
N482 C477 1.328 . S
N482 C481 1.315 . S
H483 C477 0.929 . S
H484 C481 0.930 . S
H485 C473 0.929 . S
H486 C475 0.929 . S
O487 Co462 2.351 . S
O487 C490 1.244 . S
O488 Co462 2.155 . S
O488 C490 1.240 . S
O489 Co462 2.096 . S
O489 C470 1.247 . S
C490 O487 1.244 . S
C490 O488 1.240 . S
H491 C465 0.931 . S
H492 C474 0.931 . S
H493 C478 0.929 . S
H494 C480 0.930 . S
Co495 N499 2.148 . S
Co495 N505 2.128 . S
Co495 N515 2.194 . S
Co495 O520 2.351 . S
Co495 O521 2.155 . S
Co495 O522 2.096 . S
C496 N499 1.301 . S
C496 N500 1.328 . S
C496 H501 0.930 . S
C497 C498 1.333 . S
C497 N499 1.317 1_545 S
C497 H502 0.930 . S
C498 C497 1.333 . S
C498 N500 1.350 1_545 S
C498 H524 0.931 . S
N499 Co495 2.148 . S
N499 C496 1.301 . S
N499 C497 1.317 1_565 S
N500 C496 1.328 . S
N500 C498 1.350 1_565 S
H501 C496 0.930 . S
H502 C497 0.930 . S
C503 O504 1.224 . S
C503 O522 1.247 . S
O504 C503 1.224 . S
N505 Co495 2.128 . S
N505 C506 1.355 . S
N505 C508 1.311 . S
C506 N505 1.355 . S
C506 C507 1.363 . S
C506 H518 0.929 . S
C507 C506 1.363 . S
C507 N509 1.375 . S
C507 H525 0.931 . S
C508 N505 1.311 . S
C508 N509 1.347 . S
C508 H519 0.929 . S
N509 C507 1.375 . S
N509 C508 1.347 . S
C510 C513 1.365 . S
C510 N515 1.328 . S
C510 H516 0.929 . S
C511 C512 1.362 . S
C511 C514 1.378 . S
C511 H526 0.929 . S
C512 C511 1.362 . S
C512 C513 1.366 . S
C513 C510 1.365 . S
C513 C512 1.366 . S
C513 H527 0.930 . S
C514 C511 1.378 . S
C514 N515 1.315 . S
C514 H517 0.930 . S
N515 Co495 2.194 . S
N515 C510 1.328 . S
N515 C514 1.315 . S
H516 C510 0.929 . S
H517 C514 0.930 . S
H518 C506 0.929 . S
H519 C508 0.929 . S
O520 Co495 2.351 . S
O520 C523 1.244 . S
O521 Co495 2.155 . S
O521 C523 1.240 . S
O522 Co495 2.096 . S
O522 C503 1.247 . S
C523 O520 1.244 . S
C523 O521 1.240 . S
H524 C498 0.931 . S
H525 C507 0.931 . S
H526 C511 0.929 . S
H527 C513 0.930 . S
Co528 N532 2.148 . S
Co528 N538 2.128 . S
Co528 N548 2.194 . S
Co528 O553 2.351 . S
Co528 O554 2.155 . S
Co528 O555 2.096 . S
C529 N532 1.301 . S
C529 N533 1.328 . S
C529 H534 0.930 . S
C530 C531 1.333 . S
C530 N532 1.317 . S
C530 H535 0.930 . S
C531 C530 1.333 . S
C531 N533 1.350 . S
C531 H557 0.931 . S
N532 Co528 2.148 . S
N532 C529 1.301 . S
N532 C530 1.317 . S
N533 C529 1.328 . S
N533 C531 1.350 . S
H534 C529 0.930 . S
H535 C530 0.930 . S
C536 O537 1.224 . S
C536 O555 1.247 . S
O537 C536 1.224 . S
N538 Co528 2.128 . S
N538 C539 1.355 . S
N538 C541 1.311 . S
C539 N538 1.355 . S
C539 C540 1.363 . S
C539 H551 0.929 . S
C540 C539 1.363 . S
C540 N542 1.375 . S
C540 H558 0.931 . S
C541 N538 1.311 . S
C541 N542 1.347 . S
C541 H552 0.929 . S
N542 C540 1.375 . S
N542 C541 1.347 . S
C543 C546 1.365 . S
C543 N548 1.328 . S
C543 H549 0.929 . S
C544 C545 1.362 . S
C544 C547 1.378 . S
C544 H559 0.929 . S
C545 C544 1.362 . S
C545 C546 1.366 . S
C546 C543 1.365 . S
C546 C545 1.366 . S
C546 H560 0.930 . S
C547 C544 1.378 . S
C547 N548 1.315 . S
C547 H550 0.930 . S
N548 Co528 2.194 . S
N548 C543 1.328 . S
N548 C547 1.315 . S
H549 C543 0.929 . S
H550 C547 0.930 . S
H551 C539 0.929 . S
H552 C541 0.929 . S
O553 Co528 2.351 . S
O553 C556 1.244 . S
O554 Co528 2.155 . S
O554 C556 1.240 . S
O555 Co528 2.096 . S
O555 C536 1.247 . S
C556 O553 1.244 . S
C556 O554 1.240 . S
H557 C531 0.931 . S
H558 C540 0.931 . S
H559 C544 0.929 . S
H560 C546 0.930 . S
Co561 N565 2.148 . S
Co561 N571 2.128 . S
Co561 N581 2.194 . S
Co561 O586 2.351 . S
Co561 O587 2.155 . S
Co561 O588 2.096 . S
C562 N565 1.301 . S
C562 N566 1.328 . S
C562 H567 0.930 . S
C563 C564 1.333 . S
C563 N565 1.317 . S
C563 H568 0.930 . S
C564 C563 1.333 . S
C564 N566 1.350 . S
C564 H590 0.931 . S
N565 Co561 2.148 . S
N565 C562 1.301 . S
N565 C563 1.317 . S
N566 C562 1.328 . S
N566 C564 1.350 . S
H567 C562 0.930 . S
H568 C563 0.930 . S
C569 O570 1.224 . S
C569 O588 1.247 . S
O570 C569 1.224 . S
N571 Co561 2.128 . S
N571 C572 1.355 . S
N571 C574 1.311 . S
C572 N571 1.355 . S
C572 C573 1.363 . S
C572 H584 0.929 . S
C573 C572 1.363 . S
C573 N575 1.375 . S
C573 H591 0.931 . S
C574 N571 1.311 . S
C574 N575 1.347 . S
C574 H585 0.929 . S
N575 C573 1.375 . S
N575 C574 1.347 . S
C576 C579 1.365 . S
C576 N581 1.328 . S
C576 H582 0.929 . S
C577 C578 1.362 . S
C577 C580 1.378 . S
C577 H592 0.929 . S
C578 C577 1.362 . S
C578 C579 1.366 . S
C579 C576 1.365 . S
C579 C578 1.366 . S
C579 H593 0.930 . S
C580 C577 1.378 . S
C580 N581 1.315 . S
C580 H583 0.930 . S
N581 Co561 2.194 . S
N581 C576 1.328 . S
N581 C580 1.315 . S
H582 C576 0.929 . S
H583 C580 0.930 . S
H584 C572 0.929 . S
H585 C574 0.929 . S
O586 Co561 2.351 . S
O586 C589 1.244 . S
O587 Co561 2.155 . S
O587 C589 1.240 . S
O588 Co561 2.096 . S
O588 C569 1.247 . S
C589 O586 1.244 . S
C589 O587 1.240 . S
H590 C564 0.931 . S
H591 C573 0.931 . S
H592 C577 0.929 . S
H593 C579 0.930 . S
Co594 N598 2.148 . S
Co594 N604 2.128 . S
Co594 N614 2.194 . S
Co594 O619 2.351 . S
Co594 O620 2.155 . S
Co594 O621 2.096 . S
C595 N598 1.301 . S
C595 N599 1.328 . S
C595 H600 0.930 . S
C596 C597 1.333 . S
C596 N598 1.317 . S
C596 H601 0.930 . S
C597 C596 1.333 . S
C597 N599 1.350 . S
C597 H623 0.931 . S
N598 Co594 2.148 . S
N598 C595 1.301 . S
N598 C596 1.317 . S
N599 C595 1.328 . S
N599 C597 1.350 . S
H600 C595 0.930 . S
H601 C596 0.930 . S
C602 O603 1.224 . S
C602 O621 1.247 . S
O603 C602 1.224 . S
N604 Co594 2.128 . S
N604 C605 1.355 . S
N604 C607 1.311 1_554 S
C605 N604 1.355 . S
C605 C606 1.363 1_554 S
C605 H617 0.929 . S
C606 C605 1.363 1_556 S
C606 N608 1.375 . S
C606 H624 0.931 . S
C607 N604 1.311 1_556 S
C607 N608 1.347 . S
C607 H618 0.929 . S
N608 C606 1.375 . S
N608 C607 1.347 . S
C609 C612 1.365 . S
C609 N614 1.328 . S
C609 H615 0.929 . S
C610 C611 1.362 . S
C610 C613 1.378 . S
C610 H625 0.929 . S
C611 C610 1.362 . S
C611 C612 1.366 . S
C612 C609 1.365 . S
C612 C611 1.366 . S
C612 H626 0.930 . S
C613 C610 1.378 . S
C613 N614 1.315 . S
C613 H616 0.930 . S
N614 Co594 2.194 . S
N614 C609 1.328 . S
N614 C613 1.315 . S
H615 C609 0.929 . S
H616 C613 0.930 . S
H617 C605 0.929 . S
H618 C607 0.929 . S
O619 Co594 2.351 . S
O619 C622 1.244 . S
O620 Co594 2.155 . S
O620 C622 1.240 . S
O621 Co594 2.096 . S
O621 C602 1.247 . S
C622 O619 1.244 . S
C622 O620 1.240 . S
H623 C597 0.931 . S
H624 C606 0.931 . S
H625 C610 0.929 . S
H626 C612 0.930 . S
Co627 N631 2.148 . S
Co627 N637 2.128 . S
Co627 N647 2.194 . S
Co627 O652 2.351 . S
Co627 O653 2.155 . S
Co627 O654 2.096 . S
C628 N631 1.301 . S
C628 N632 1.328 . S
C628 H633 0.930 . S
C629 C630 1.333 . S
C629 N631 1.317 . S
C629 H634 0.930 . S
C630 C629 1.333 . S
C630 N632 1.350 . S
C630 H656 0.931 . S
N631 Co627 2.148 . S
N631 C628 1.301 . S
N631 C629 1.317 . S
N632 C628 1.328 . S
N632 C630 1.350 . S
H633 C628 0.930 . S
H634 C629 0.930 . S
C635 O636 1.224 . S
C635 O654 1.247 . S
O636 C635 1.224 . S
N637 Co627 2.128 . S
N637 C638 1.355 . S
N637 C640 1.311 . S
C638 N637 1.355 . S
C638 C639 1.363 . S
C638 H650 0.929 . S
C639 C638 1.363 . S
C639 N641 1.375 . S
C639 H657 0.931 . S
C640 N637 1.311 . S
C640 N641 1.347 . S
C640 H651 0.929 . S
N641 C639 1.375 . S
N641 C640 1.347 . S
C642 C645 1.365 . S
C642 N647 1.328 . S
C642 H648 0.929 . S
C643 C644 1.362 . S
C643 C646 1.378 . S
C643 H658 0.929 . S
C644 C643 1.362 . S
C644 C645 1.366 . S
C645 C642 1.365 . S
C645 C644 1.366 . S
C645 H659 0.930 . S
C646 C643 1.378 . S
C646 N647 1.315 . S
C646 H649 0.930 . S
N647 Co627 2.194 . S
N647 C642 1.328 . S
N647 C646 1.315 . S
H648 C642 0.929 . S
H649 C646 0.930 . S
H650 C638 0.929 . S
H651 C640 0.929 . S
O652 Co627 2.351 . S
O652 C655 1.244 . S
O653 Co627 2.155 . S
O653 C655 1.240 . S
O654 Co627 2.096 . S
O654 C635 1.247 . S
C655 O652 1.244 . S
C655 O653 1.240 . S
H656 C630 0.931 . S
H657 C639 0.931 . S
H658 C643 0.929 . S
H659 C645 0.930 . S
Co660 N664 2.148 . S
Co660 N670 2.128 . S
Co660 N680 2.194 . S
Co660 O685 2.351 . S
Co660 O686 2.155 . S
Co660 O687 2.096 . S
C661 N664 1.301 . S
C661 N665 1.328 . S
C661 H666 0.930 . S
C662 C663 1.333 . S
C662 N664 1.317 . S
C662 H667 0.930 . S
C663 C662 1.333 . S
C663 N665 1.350 . S
C663 H689 0.931 . S
N664 Co660 2.148 . S
N664 C661 1.301 . S
N664 C662 1.317 . S
N665 C661 1.328 . S
N665 C663 1.350 . S
H666 C661 0.930 . S
H667 C662 0.930 . S
C668 O669 1.224 . S
C668 O687 1.247 . S
O669 C668 1.224 . S
N670 Co660 2.128 . S
N670 C671 1.355 . S
N670 C673 1.311 . S
C671 N670 1.355 . S
C671 C672 1.363 . S
C671 H683 0.929 . S
C672 C671 1.363 . S
C672 N674 1.375 . S
C672 H690 0.931 . S
C673 N670 1.311 . S
C673 N674 1.347 . S
C673 H684 0.929 . S
N674 C672 1.375 . S
N674 C673 1.347 . S
C675 C678 1.365 . S
C675 N680 1.328 . S
C675 H681 0.929 . S
C676 C677 1.362 . S
C676 C679 1.378 . S
C676 H691 0.929 . S
C677 C676 1.362 . S
C677 C678 1.366 . S
C678 C675 1.365 . S
C678 C677 1.366 . S
C678 H692 0.930 . S
C679 C676 1.378 . S
C679 N680 1.315 . S
C679 H682 0.930 . S
N680 Co660 2.194 . S
N680 C675 1.328 . S
N680 C679 1.315 . S
H681 C675 0.929 . S
H682 C679 0.930 . S
H683 C671 0.929 . S
H684 C673 0.929 . S
O685 Co660 2.351 . S
O685 C688 1.244 . S
O686 Co660 2.155 . S
O686 C688 1.240 . S
O687 Co660 2.096 . S
O687 C668 1.247 . S
C688 O685 1.244 . S
C688 O686 1.240 . S
H689 C663 0.931 . S
H690 C672 0.931 . S
H691 C676 0.929 . S
H692 C678 0.930 . S
Co693 N697 2.148 . S
Co693 N703 2.128 . S
Co693 N713 2.194 . S
Co693 O718 2.351 . S
Co693 O719 2.155 . S
Co693 O720 2.096 . S
C694 N697 1.301 . S
C694 N698 1.328 . S
C694 H699 0.930 . S
C695 C696 1.333 . S
C695 N697 1.317 . S
C695 H700 0.930 . S
C696 C695 1.333 . S
C696 N698 1.350 . S
C696 H722 0.931 . S
N697 Co693 2.148 . S
N697 C694 1.301 . S
N697 C695 1.317 . S
N698 C694 1.328 . S
N698 C696 1.350 . S
H699 C694 0.930 . S
H700 C695 0.930 . S
C701 O702 1.224 . S
C701 O720 1.247 . S
O702 C701 1.224 . S
N703 Co693 2.128 . S
N703 C704 1.355 . S
N703 C706 1.311 . S
C704 N703 1.355 . S
C704 C705 1.363 . S
C704 H716 0.929 . S
C705 C704 1.363 . S
C705 N707 1.375 . S
C705 H723 0.931 . S
C706 N703 1.311 . S
C706 N707 1.347 . S
C706 H717 0.929 . S
N707 C705 1.375 . S
N707 C706 1.347 . S
C708 C711 1.365 . S
C708 N713 1.328 . S
C708 H714 0.929 . S
C709 C710 1.362 . S
C709 C712 1.378 . S
C709 H724 0.929 . S
C710 C709 1.362 . S
C710 C711 1.366 . S
C711 C708 1.365 . S
C711 C710 1.366 . S
C711 H725 0.930 . S
C712 C709 1.378 . S
C712 N713 1.315 . S
C712 H715 0.930 . S
N713 Co693 2.194 . S
N713 C708 1.328 . S
N713 C712 1.315 . S
H714 C708 0.929 . S
H715 C712 0.930 . S
H716 C704 0.929 . S
H717 C706 0.929 . S
O718 Co693 2.351 . S
O718 C721 1.244 . S
O719 Co693 2.155 . S
O719 C721 1.240 . S
O720 Co693 2.096 . S
O720 C701 1.247 . S
C721 O718 1.244 . S
C721 O719 1.240 . S
H722 C696 0.931 . S
H723 C705 0.931 . S
H724 C709 0.929 . S
H725 C711 0.930 . S
Co726 N730 2.148 . S
Co726 N736 2.128 . S
Co726 N746 2.194 . S
Co726 O751 2.351 . S
Co726 O752 2.155 . S
Co726 O753 2.096 . S
C727 N730 1.301 . S
C727 N731 1.328 . S
C727 H732 0.930 . S
C728 C729 1.333 . S
C728 N730 1.317 . S
C728 H733 0.930 . S
C729 C728 1.333 . S
C729 N731 1.350 . S
C729 H755 0.931 . S
N730 Co726 2.148 . S
N730 C727 1.301 . S
N730 C728 1.317 . S
N731 C727 1.328 . S
N731 C729 1.350 . S
H732 C727 0.930 . S
H733 C728 0.930 . S
C734 O735 1.224 . S
C734 O753 1.247 . S
O735 C734 1.224 . S
N736 Co726 2.128 . S
N736 C737 1.355 . S
N736 C739 1.311 1_556 S
C737 N736 1.355 . S
C737 C738 1.363 1_556 S
C737 H749 0.929 . S
C738 C737 1.363 1_554 S
C738 N740 1.375 . S
C738 H756 0.931 . S
C739 N736 1.311 1_554 S
C739 N740 1.347 . S
C739 H750 0.929 . S
N740 C738 1.375 . S
N740 C739 1.347 . S
C741 C744 1.365 . S
C741 N746 1.328 . S
C741 H747 0.929 . S
C742 C743 1.362 . S
C742 C745 1.378 . S
C742 H757 0.929 . S
C743 C742 1.362 . S
C743 C744 1.366 . S
C744 C741 1.365 . S
C744 C743 1.366 . S
C744 H758 0.930 . S
C745 C742 1.378 . S
C745 N746 1.315 . S
C745 H748 0.930 . S
N746 Co726 2.194 . S
N746 C741 1.328 . S
N746 C745 1.315 . S
H747 C741 0.929 . S
H748 C745 0.930 . S
H749 C737 0.929 . S
H750 C739 0.929 . S
O751 Co726 2.351 . S
O751 C754 1.244 . S
O752 Co726 2.155 . S
O752 C754 1.240 . S
O753 Co726 2.096 . S
O753 C734 1.247 . S
C754 O751 1.244 . S
C754 O752 1.240 . S
H755 C729 0.931 . S
H756 C738 0.931 . S
H757 C742 0.929 . S
H758 C744 0.930 . S
Co759 N763 2.148 . S
Co759 N769 2.128 . S
Co759 N779 2.194 . S
Co759 O784 2.351 . S
Co759 O785 2.155 . S
Co759 O786 2.096 . S
C760 N763 1.301 . S
C760 N764 1.328 . S
C760 H765 0.930 . S
C761 C762 1.333 . S
C761 N763 1.317 . S
C761 H766 0.930 . S
C762 C761 1.333 . S
C762 N764 1.350 . S
C762 H788 0.931 . S
N763 Co759 2.148 . S
N763 C760 1.301 . S
N763 C761 1.317 . S
N764 C760 1.328 . S
N764 C762 1.350 . S
H765 C760 0.930 . S
H766 C761 0.930 . S
C767 O768 1.224 . S
C767 O786 1.247 . S
O768 C767 1.224 . S
N769 Co759 2.128 . S
N769 C770 1.355 . S
N769 C772 1.311 . S
C770 N769 1.355 . S
C770 C771 1.363 . S
C770 H782 0.929 . S
C771 C770 1.363 . S
C771 N773 1.375 . S
C771 H789 0.931 . S
C772 N769 1.311 . S
C772 N773 1.347 . S
C772 H783 0.929 . S
N773 C771 1.375 . S
N773 C772 1.347 . S
C774 C777 1.365 . S
C774 N779 1.328 . S
C774 H780 0.929 . S
C775 C776 1.362 . S
C775 C778 1.378 . S
C775 H790 0.929 . S
C776 C775 1.362 . S
C776 C777 1.366 . S
C777 C774 1.365 . S
C777 C776 1.366 . S
C777 H791 0.930 . S
C778 C775 1.378 . S
C778 N779 1.315 . S
C778 H781 0.930 . S
N779 Co759 2.194 . S
N779 C774 1.328 . S
N779 C778 1.315 . S
H780 C774 0.929 . S
H781 C778 0.930 . S
H782 C770 0.929 . S
H783 C772 0.929 . S
O784 Co759 2.351 . S
O784 C787 1.244 . S
O785 Co759 2.155 . S
O785 C787 1.240 . S
O786 Co759 2.096 . S
O786 C767 1.247 . S
C787 O784 1.244 . S
C787 O785 1.240 . S
H788 C762 0.931 . S
H789 C771 0.931 . S
H790 C775 0.929 . S
H791 C777 0.930 . S
Co792 N796 2.148 . S
Co792 N802 2.128 . S
Co792 N812 2.194 . S
Co792 O817 2.351 . S
Co792 O818 2.155 . S
Co792 O819 2.096 . S
C793 N796 1.301 . S
C793 N797 1.328 . S
C793 H798 0.930 . S
C794 C795 1.333 . S
C794 N796 1.317 . S
C794 H799 0.930 . S
C795 C794 1.333 . S
C795 N797 1.350 . S
C795 H821 0.931 . S
N796 Co792 2.148 . S
N796 C793 1.301 . S
N796 C794 1.317 . S
N797 C793 1.328 . S
N797 C795 1.350 . S
H798 C793 0.930 . S
H799 C794 0.930 . S
C800 O801 1.224 . S
C800 O819 1.247 . S
O801 C800 1.224 . S
N802 Co792 2.128 . S
N802 C803 1.355 . S
N802 C805 1.311 . S
C803 N802 1.355 . S
C803 C804 1.363 . S
C803 H815 0.929 . S
C804 C803 1.363 . S
C804 N806 1.375 . S
C804 H822 0.931 . S
C805 N802 1.311 . S
C805 N806 1.347 . S
C805 H816 0.929 . S
N806 C804 1.375 . S
N806 C805 1.347 . S
C807 C810 1.365 . S
C807 N812 1.328 . S
C807 H813 0.929 . S
C808 C809 1.362 . S
C808 C811 1.378 . S
C808 H823 0.929 . S
C809 C808 1.362 . S
C809 C810 1.366 . S
C810 C807 1.365 . S
C810 C809 1.366 . S
C810 H824 0.930 . S
C811 C808 1.378 . S
C811 N812 1.315 . S
C811 H814 0.930 . S
N812 Co792 2.194 . S
N812 C807 1.328 . S
N812 C811 1.315 . S
H813 C807 0.929 . S
H814 C811 0.930 . S
H815 C803 0.929 . S
H816 C805 0.929 . S
O817 Co792 2.351 . S
O817 C820 1.244 . S
O818 Co792 2.155 . S
O818 C820 1.240 . S
O819 Co792 2.096 . S
O819 C800 1.247 . S
C820 O817 1.244 . S
C820 O818 1.240 . S
H821 C795 0.931 . S
H822 C804 0.931 . S
H823 C808 0.929 . S
H824 C810 0.930 . S
Co825 N829 2.148 . S
Co825 N835 2.128 . S
Co825 N845 2.194 . S
Co825 O850 2.351 . S
Co825 O851 2.155 . S
Co825 O852 2.096 . S
C826 N829 1.301 . S
C826 N830 1.328 . S
C826 H831 0.930 . S
C827 C828 1.333 . S
C827 N829 1.317 . S
C827 H832 0.930 . S
C828 C827 1.333 . S
C828 N830 1.350 . S
C828 H854 0.931 . S
N829 Co825 2.148 . S
N829 C826 1.301 . S
N829 C827 1.317 . S
N830 C826 1.328 . S
N830 C828 1.350 . S
H831 C826 0.930 . S
H832 C827 0.930 . S
C833 O834 1.224 . S
C833 O852 1.247 . S
O834 C833 1.224 . S
N835 Co825 2.128 . S
N835 C836 1.355 . S
N835 C838 1.311 . S
C836 N835 1.355 . S
C836 C837 1.363 . S
C836 H848 0.929 . S
C837 C836 1.363 . S
C837 N839 1.375 . S
C837 H855 0.931 . S
C838 N835 1.311 . S
C838 N839 1.347 . S
C838 H849 0.929 . S
N839 C837 1.375 . S
N839 C838 1.347 . S
C840 C843 1.365 . S
C840 N845 1.328 . S
C840 H846 0.929 . S
C841 C842 1.362 . S
C841 C844 1.378 . S
C841 H856 0.929 . S
C842 C841 1.362 . S
C842 C843 1.366 . S
C843 C840 1.365 . S
C843 C842 1.366 . S
C843 H857 0.930 . S
C844 C841 1.378 . S
C844 N845 1.315 . S
C844 H847 0.930 . S
N845 Co825 2.194 . S
N845 C840 1.328 . S
N845 C844 1.315 . S
H846 C840 0.929 . S
H847 C844 0.930 . S
H848 C836 0.929 . S
H849 C838 0.929 . S
O850 Co825 2.351 . S
O850 C853 1.244 . S
O851 Co825 2.155 . S
O851 C853 1.240 . S
O852 Co825 2.096 . S
O852 C833 1.247 . S
C853 O850 1.244 . S
C853 O851 1.240 . S
H854 C828 0.931 . S
H855 C837 0.931 . S
H856 C841 0.929 . S
H857 C843 0.930 . S
Co858 N862 2.148 . S
Co858 N868 2.128 . S
Co858 N878 2.194 . S
Co858 O883 2.351 . S
Co858 O884 2.155 . S
Co858 O885 2.096 . S
C859 N862 1.301 . S
C859 N863 1.328 . S
C859 H864 0.930 . S
C860 C861 1.333 . S
C860 N862 1.317 . S
C860 H865 0.930 . S
C861 C860 1.333 . S
C861 N863 1.350 . S
C861 H887 0.931 . S
N862 Co858 2.148 . S
N862 C859 1.301 . S
N862 C860 1.317 . S
N863 C859 1.328 . S
N863 C861 1.350 . S
H864 C859 0.930 . S
H865 C860 0.930 . S
C866 O867 1.224 . S
C866 O885 1.247 . S
O867 C866 1.224 . S
N868 Co858 2.128 . S
N868 C869 1.355 . S
N868 C871 1.311 1_556 S
C869 N868 1.355 . S
C869 C870 1.363 1_556 S
C869 H881 0.929 . S
C870 C869 1.363 1_554 S
C870 N872 1.375 . S
C870 H888 0.931 . S
C871 N868 1.311 1_554 S
C871 N872 1.347 . S
C871 H882 0.929 . S
N872 C870 1.375 . S
N872 C871 1.347 . S
C873 C876 1.365 . S
C873 N878 1.328 . S
C873 H879 0.929 . S
C874 C875 1.362 . S
C874 C877 1.378 . S
C874 H889 0.929 . S
C875 C874 1.362 . S
C875 C876 1.366 . S
C876 C873 1.365 . S
C876 C875 1.366 . S
C876 H890 0.930 . S
C877 C874 1.378 . S
C877 N878 1.315 . S
C877 H880 0.930 . S
N878 Co858 2.194 . S
N878 C873 1.328 . S
N878 C877 1.315 . S
H879 C873 0.929 . S
H880 C877 0.930 . S
H881 C869 0.929 . S
H882 C871 0.929 . S
O883 Co858 2.351 . S
O883 C886 1.244 . S
O884 Co858 2.155 . S
O884 C886 1.240 . S
O885 Co858 2.096 . S
O885 C866 1.247 . S
C886 O883 1.244 . S
C886 O884 1.240 . S
H887 C861 0.931 . S
H888 C870 0.931 . S
H889 C874 0.929 . S
H890 C876 0.930 . S
Co891 N895 2.148 . S
Co891 N901 2.128 . S
Co891 N911 2.194 . S
Co891 O916 2.351 . S
Co891 O917 2.155 . S
Co891 O918 2.096 . S
C892 N895 1.301 . S
C892 N896 1.328 . S
C892 H897 0.930 . S
C893 C894 1.333 . S
C893 N895 1.317 . S
C893 H898 0.930 . S
C894 C893 1.333 . S
C894 N896 1.350 . S
C894 H920 0.931 . S
N895 Co891 2.148 . S
N895 C892 1.301 . S
N895 C893 1.317 . S
N896 C892 1.328 . S
N896 C894 1.350 . S
H897 C892 0.930 . S
H898 C893 0.930 . S
C899 O900 1.224 . S
C899 O918 1.247 . S
O900 C899 1.224 . S
N901 Co891 2.128 . S
N901 C902 1.355 . S
N901 C904 1.311 . S
C902 N901 1.355 . S
C902 C903 1.363 . S
C902 H914 0.929 . S
C903 C902 1.363 . S
C903 N905 1.375 . S
C903 H921 0.931 . S
C904 N901 1.311 . S
C904 N905 1.347 . S
C904 H915 0.929 . S
N905 C903 1.375 . S
N905 C904 1.347 . S
C906 C909 1.365 . S
C906 N911 1.328 . S
C906 H912 0.929 . S
C907 C908 1.362 . S
C907 C910 1.378 . S
C907 H922 0.929 . S
C908 C907 1.362 . S
C908 C909 1.366 . S
C909 C906 1.365 . S
C909 C908 1.366 . S
C909 H923 0.930 . S
C910 C907 1.378 . S
C910 N911 1.315 . S
C910 H913 0.930 . S
N911 Co891 2.194 . S
N911 C906 1.328 . S
N911 C910 1.315 . S
H912 C906 0.929 . S
H913 C910 0.930 . S
H914 C902 0.929 . S
H915 C904 0.929 . S
O916 Co891 2.351 . S
O916 C919 1.244 . S
O917 Co891 2.155 . S
O917 C919 1.240 . S
O918 Co891 2.096 . S
O918 C899 1.247 . S
C919 O916 1.244 . S
C919 O917 1.240 . S
H920 C894 0.931 . S
H921 C903 0.931 . S
H922 C907 0.929 . S
H923 C909 0.930 . S
Co924 N928 2.148 . S
Co924 N934 2.128 . S
Co924 N944 2.194 . S
Co924 O949 2.351 . S
Co924 O950 2.155 . S
Co924 O951 2.096 . S
C925 N928 1.301 . S
C925 N929 1.328 . S
C925 H930 0.930 . S
C926 C927 1.333 . S
C926 N928 1.317 . S
C926 H931 0.930 . S
C927 C926 1.333 . S
C927 N929 1.350 . S
C927 H953 0.931 . S
N928 Co924 2.148 . S
N928 C925 1.301 . S
N928 C926 1.317 . S
N929 C925 1.328 . S
N929 C927 1.350 . S
H930 C925 0.930 . S
H931 C926 0.930 . S
C932 O933 1.224 . S
C932 O951 1.247 . S
O933 C932 1.224 . S
N934 Co924 2.128 . S
N934 C935 1.355 . S
N934 C937 1.311 . S
C935 N934 1.355 . S
C935 C936 1.363 . S
C935 H947 0.929 . S
C936 C935 1.363 . S
C936 N938 1.375 . S
C936 H954 0.931 . S
C937 N934 1.311 . S
C937 N938 1.347 . S
C937 H948 0.929 . S
N938 C936 1.375 . S
N938 C937 1.347 . S
C939 C942 1.365 . S
C939 N944 1.328 . S
C939 H945 0.929 . S
C940 C941 1.362 . S
C940 C943 1.378 . S
C940 H955 0.929 . S
C941 C940 1.362 . S
C941 C942 1.366 . S
C942 C939 1.365 . S
C942 C941 1.366 . S
C942 H956 0.930 . S
C943 C940 1.378 . S
C943 N944 1.315 . S
C943 H946 0.930 . S
N944 Co924 2.194 . S
N944 C939 1.328 . S
N944 C943 1.315 . S
H945 C939 0.929 . S
H946 C943 0.930 . S
H947 C935 0.929 . S
H948 C937 0.929 . S
O949 Co924 2.351 . S
O949 C952 1.244 . S
O950 Co924 2.155 . S
O950 C952 1.240 . S
O951 Co924 2.096 . S
O951 C932 1.247 . S
C952 O949 1.244 . S
C952 O950 1.240 . S
H953 C927 0.931 . S
H954 C936 0.931 . S
H955 C940 0.929 . S
H956 C942 0.930 . S
Co957 N961 2.148 . S
Co957 N967 2.128 . S
Co957 N977 2.194 . S
Co957 O982 2.351 . S
Co957 O983 2.155 . S
Co957 O984 2.096 . S
C958 N961 1.301 . S
C958 N962 1.328 . S
C958 H963 0.930 . S
C959 C960 1.333 . S
C959 N961 1.317 . S
C959 H964 0.930 . S
C960 C959 1.333 . S
C960 N962 1.350 . S
C960 H986 0.931 . S
N961 Co957 2.148 . S
N961 C958 1.301 . S
N961 C959 1.317 . S
N962 C958 1.328 . S
N962 C960 1.350 . S
H963 C958 0.930 . S
H964 C959 0.930 . S
C965 O966 1.224 . S
C965 O984 1.247 . S
O966 C965 1.224 . S
N967 Co957 2.128 . S
N967 C968 1.355 . S
N967 C970 1.311 . S
C968 N967 1.355 . S
C968 C969 1.363 . S
C968 H980 0.929 . S
C969 C968 1.363 . S
C969 N971 1.375 . S
C969 H987 0.931 . S
C970 N967 1.311 . S
C970 N971 1.347 . S
C970 H981 0.929 . S
N971 C969 1.375 . S
N971 C970 1.347 . S
C972 C975 1.365 . S
C972 N977 1.328 . S
C972 H978 0.929 . S
C973 C974 1.362 . S
C973 C976 1.378 . S
C973 H988 0.929 . S
C974 C973 1.362 . S
C974 C975 1.366 . S
C975 C972 1.365 . S
C975 C974 1.366 . S
C975 H989 0.930 . S
C976 C973 1.378 . S
C976 N977 1.315 . S
C976 H979 0.930 . S
N977 Co957 2.194 . S
N977 C972 1.328 . S
N977 C976 1.315 . S
H978 C972 0.929 . S
H979 C976 0.930 . S
H980 C968 0.929 . S
H981 C970 0.929 . S
O982 Co957 2.351 . S
O982 C985 1.244 . S
O983 Co957 2.155 . S
O983 C985 1.240 . S
O984 Co957 2.096 . S
O984 C965 1.247 . S
C985 O982 1.244 . S
C985 O983 1.240 . S
H986 C960 0.931 . S
H987 C969 0.931 . S
H988 C973 0.929 . S
H989 C975 0.930 . S
Co990 N994 2.148 . S
Co990 N1000 2.128 . S
Co990 N1010 2.194 . S
Co990 O1015 2.351 . S
Co990 O1016 2.155 . S
Co990 O1017 2.096 . S
C991 N994 1.301 . S
C991 N995 1.328 . S
C991 H996 0.930 . S
C992 C993 1.333 . S
C992 N994 1.317 . S
C992 H997 0.930 . S
C993 C992 1.333 . S
C993 N995 1.350 . S
C993 H1019 0.931 . S
N994 Co990 2.148 . S
N994 C991 1.301 . S
N994 C992 1.317 . S
N995 C991 1.328 . S
N995 C993 1.350 . S
H996 C991 0.930 . S
H997 C992 0.930 . S
C998 O999 1.224 . S
C998 O1017 1.247 . S
O999 C998 1.224 . S
N1000 Co990 2.128 . S
N1000 C1001 1.355 . S
N1000 C1003 1.311 1_554 S
C1001 N1000 1.355 . S
C1001 C1002 1.363 1_554 S
C1001 H1013 0.929 . S
C1002 C1001 1.363 1_556 S
C1002 N1004 1.375 . S
C1002 H1020 0.931 . S
C1003 N1000 1.311 1_556 S
C1003 N1004 1.347 . S
C1003 H1014 0.929 . S
N1004 C1002 1.375 . S
N1004 C1003 1.347 . S
C1005 C1008 1.365 . S
C1005 N1010 1.328 . S
C1005 H1011 0.929 . S
C1006 C1007 1.362 . S
C1006 C1009 1.378 . S
C1006 H1021 0.929 . S
C1007 C1006 1.362 . S
C1007 C1008 1.366 . S
C1008 C1005 1.365 . S
C1008 C1007 1.366 . S
C1008 H1022 0.930 . S
C1009 C1006 1.378 . S
C1009 N1010 1.315 . S
C1009 H1012 0.930 . S
N1010 Co990 2.194 . S
N1010 C1005 1.328 . S
N1010 C1009 1.315 . S
H1011 C1005 0.929 . S
H1012 C1009 0.930 . S
H1013 C1001 0.929 . S
H1014 C1003 0.929 . S
O1015 Co990 2.351 . S
O1015 C1018 1.244 . S
O1016 Co990 2.155 . S
O1016 C1018 1.240 . S
O1017 Co990 2.096 . S
O1017 C998 1.247 . S
C1018 O1015 1.244 . S
C1018 O1016 1.240 . S
H1019 C993 0.931 . S
H1020 C1002 0.931 . S
H1021 C1006 0.929 . S
H1022 C1008 0.930 . S
Co1023 N1027 2.148 . S
Co1023 N1033 2.128 . S
Co1023 N1043 2.194 . S
Co1023 O1048 2.351 . S
Co1023 O1049 2.155 . S
Co1023 O1050 2.096 . S
C1024 N1027 1.301 . S
C1024 N1028 1.328 . S
C1024 H1029 0.930 . S
C1025 C1026 1.333 . S
C1025 N1027 1.317 . S
C1025 H1030 0.930 . S
C1026 C1025 1.333 . S
C1026 N1028 1.350 . S
C1026 H1052 0.931 . S
N1027 Co1023 2.148 . S
N1027 C1024 1.301 . S
N1027 C1025 1.317 . S
N1028 C1024 1.328 . S
N1028 C1026 1.350 . S
H1029 C1024 0.930 . S
H1030 C1025 0.930 . S
C1031 O1032 1.224 . S
C1031 O1050 1.247 . S
O1032 C1031 1.224 . S
N1033 Co1023 2.128 . S
N1033 C1034 1.355 . S
N1033 C1036 1.311 . S
C1034 N1033 1.355 . S
C1034 C1035 1.363 . S
C1034 H1046 0.929 . S
C1035 C1034 1.363 . S
C1035 N1037 1.375 . S
C1035 H1053 0.931 . S
C1036 N1033 1.311 . S
C1036 N1037 1.347 . S
C1036 H1047 0.929 . S
N1037 C1035 1.375 . S
N1037 C1036 1.347 . S
C1038 C1041 1.365 . S
C1038 N1043 1.328 . S
C1038 H1044 0.929 . S
C1039 C1040 1.362 . S
C1039 C1042 1.378 . S
C1039 H1054 0.929 . S
C1040 C1039 1.362 . S
C1040 C1041 1.366 . S
C1041 C1038 1.365 . S
C1041 C1040 1.366 . S
C1041 H1055 0.930 . S
C1042 C1039 1.378 . S
C1042 N1043 1.315 . S
C1042 H1045 0.930 . S
N1043 Co1023 2.194 . S
N1043 C1038 1.328 . S
N1043 C1042 1.315 . S
H1044 C1038 0.929 . S
H1045 C1042 0.930 . S
H1046 C1034 0.929 . S
H1047 C1036 0.929 . S
O1048 Co1023 2.351 . S
O1048 C1051 1.244 . S
O1049 Co1023 2.155 . S
O1049 C1051 1.240 . S
O1050 Co1023 2.096 . S
O1050 C1031 1.247 . S
C1051 O1048 1.244 . S
C1051 O1049 1.240 . S
H1052 C1026 0.931 . S
H1053 C1035 0.931 . S
H1054 C1039 0.929 . S
H1055 C1041 0.930 . S
C1056 C1057 1.387 . S
C1056 H1060 0.950 . S
C1056 C1065 1.390 . S
C1057 C1056 1.387 . S
C1057 C1059 1.387 . S
H1058 C1065 0.950 . S
C1059 C1057 1.387 . S
C1059 C1061 1.390 . S
C1059 H1063 0.950 . S
H1060 C1056 0.950 . S
C1061 C1059 1.390 . S
C1061 C1062 1.387 . S
C1061 H1064 0.950 . S
C1062 C1061 1.387 . S
C1062 C1065 1.387 . S
H1063 C1059 0.950 . S
H1064 C1061 0.950 . S
C1065 C1056 1.390 . S
C1065 H1058 0.950 . S
C1065 C1062 1.387 . S
C1066 C1067 1.387 . S
C1066 H1070 0.950 . S
C1066 C1075 1.390 . S
C1067 C1066 1.387 . S
C1067 C1069 1.387 . S
H1068 C1075 0.950 . S
C1069 C1067 1.387 . S
C1069 C1071 1.390 . S
C1069 H1073 0.950 . S
H1070 C1066 0.950 . S
C1071 C1069 1.390 . S
C1071 C1072 1.387 . S
C1071 H1074 0.950 . S
C1072 C1071 1.387 . S
C1072 C1075 1.387 . S
H1073 C1069 0.950 . S
H1074 C1071 0.950 . S
C1075 C1066 1.390 . S
C1075 H1068 0.950 . S
C1075 C1072 1.387 . S
C1076 C1077 1.387 . S
C1076 H1080 0.950 . S
C1076 C1085 1.390 . S
C1077 C1076 1.387 . S
C1077 C1079 1.387 . S
H1078 C1085 0.950 . S
C1079 C1077 1.387 . S
C1079 C1081 1.390 . S
C1079 H1083 0.950 . S
H1080 C1076 0.950 . S
C1081 C1079 1.390 . S
C1081 C1082 1.387 . S
C1081 H1084 0.950 . S
C1082 C1081 1.387 . S
C1082 C1085 1.387 . S
H1083 C1079 0.950 . S
H1084 C1081 0.950 . S
C1085 C1076 1.390 . S
C1085 H1078 0.950 . S
C1085 C1082 1.387 . S
C1086 C1087 1.387 . S
C1086 H1090 0.950 . S
C1086 C1095 1.390 . S
C1087 C1086 1.387 . S
C1087 C1089 1.387 . S
H1088 C1095 0.950 . S
C1089 C1087 1.387 . S
C1089 C1091 1.390 . S
C1089 H1093 0.950 . S
H1090 C1086 0.950 . S
C1091 C1089 1.390 . S
C1091 C1092 1.387 . S
C1091 H1094 0.950 . S
C1092 C1091 1.387 . S
C1092 C1095 1.387 . S
H1093 C1089 0.950 . S
H1094 C1091 0.950 . S
C1095 C1086 1.390 . S
C1095 H1088 0.950 . S
C1095 C1092 1.387 . S
C1096 C1097 1.387 . S
C1096 H1100 0.950 . S
C1096 C1105 1.390 . S
C1097 C1096 1.387 . S
C1097 C1099 1.387 . S
H1098 C1105 0.950 1_545 S
C1099 C1097 1.387 . S
C1099 C1101 1.390 . S
C1099 H1103 0.950 . S
H1100 C1096 0.950 . S
C1101 C1099 1.390 . S
C1101 C1102 1.387 . S
C1101 H1104 0.950 . S
C1102 C1101 1.387 . S
C1102 C1105 1.387 . S
H1103 C1099 0.950 . S
H1104 C1101 0.950 . S
C1105 C1096 1.390 . S
C1105 H1098 0.950 1_565 S
C1105 C1102 1.387 . S
C1106 C1107 1.387 . S
C1106 H1110 0.950 . S
C1106 C1115 1.390 . S
C1107 C1106 1.387 . S
C1107 C1109 1.387 . S
H1108 C1115 0.950 . S
C1109 C1107 1.387 . S
C1109 C1111 1.390 . S
C1109 H1113 0.950 . S
H1110 C1106 0.950 . S
C1111 C1109 1.390 . S
C1111 C1112 1.387 . S
C1111 H1114 0.950 . S
C1112 C1111 1.387 . S
C1112 C1115 1.387 . S
H1113 C1109 0.950 . S
H1114 C1111 0.950 . S
C1115 C1106 1.390 . S
C1115 H1108 0.950 . S
C1115 C1112 1.387 . S
C1116 C1117 1.387 . S
C1116 H1120 0.950 . S
C1116 C1125 1.390 . S
C1117 C1116 1.387 . S
C1117 C1119 1.387 . S
H1118 C1125 0.950 . S
C1119 C1117 1.387 . S
C1119 C1121 1.390 . S
C1119 H1123 0.950 . S
H1120 C1116 0.950 . S
C1121 C1119 1.390 . S
C1121 C1122 1.387 . S
C1121 H1124 0.950 . S
C1122 C1121 1.387 . S
C1122 C1125 1.387 . S
H1123 C1119 0.950 . S
H1124 C1121 0.950 . S
C1125 C1116 1.390 . S
C1125 H1118 0.950 . S
C1125 C1122 1.387 . S
C1126 C1127 1.387 . S
C1126 H1130 0.950 . S
C1126 C1135 1.390 . S
C1127 C1126 1.387 . S
C1127 C1129 1.387 . S
H1128 C1135 0.950 . S
C1129 C1127 1.387 . S
C1129 C1131 1.390 . S
C1129 H1133 0.950 . S
H1130 C1126 0.950 . S
C1131 C1129 1.390 . S
C1131 C1132 1.387 . S
C1131 H1134 0.950 . S
C1132 C1131 1.387 . S
C1132 C1135 1.387 . S
H1133 C1129 0.950 . S
H1134 C1131 0.950 . S
C1135 C1126 1.390 . S
C1135 H1128 0.950 . S
C1135 C1132 1.387 . S
C1136 C1137 1.387 . S
C1136 H1140 0.950 . S
C1136 C1145 1.390 . S
C1137 C1136 1.387 . S
C1137 C1139 1.387 . S
H1138 C1145 0.950 . S
C1139 C1137 1.387 . S
C1139 C1141 1.390 . S
C1139 H1143 0.950 . S
H1140 C1136 0.950 . S
C1141 C1139 1.390 . S
C1141 C1142 1.387 . S
C1141 H1144 0.950 . S
C1142 C1141 1.387 . S
C1142 C1145 1.387 . S
H1143 C1139 0.950 . S
H1144 C1141 0.950 . S
C1145 C1136 1.390 . S
C1145 H1138 0.950 . S
C1145 C1142 1.387 . S
C1146 C1147 1.387 . S
C1146 H1150 0.950 . S
C1146 C1155 1.390 . S
C1147 C1146 1.387 . S
C1147 C1149 1.387 . S
H1148 C1155 0.950 . S
C1149 C1147 1.387 . S
C1149 C1151 1.390 . S
C1149 H1153 0.950 . S
H1150 C1146 0.950 . S
C1151 C1149 1.390 . S
C1151 C1152 1.387 . S
C1151 H1154 0.950 . S
C1152 C1151 1.387 . S
C1152 C1155 1.387 . S
H1153 C1149 0.950 . S
H1154 C1151 0.950 . S
C1155 C1146 1.390 . S
C1155 H1148 0.950 . S
C1155 C1152 1.387 . S
C1156 C1157 1.387 . S
C1156 H1160 0.950 . S
C1156 C1165 1.390 . S
C1157 C1156 1.387 . S
C1157 C1159 1.387 . S
H1158 C1165 0.950 . S
C1159 C1157 1.387 . S
C1159 C1161 1.390 . S
C1159 H1163 0.950 . S
H1160 C1156 0.950 . S
C1161 C1159 1.390 . S
C1161 C1162 1.387 . S
C1161 H1164 0.950 . S
C1162 C1161 1.387 . S
C1162 C1165 1.387 . S
H1163 C1159 0.950 . S
H1164 C1161 0.950 . S
C1165 C1156 1.390 . S
C1165 H1158 0.950 . S
C1165 C1162 1.387 . S
C1166 C1167 1.387 . S
C1166 H1170 0.950 . S
C1166 C1175 1.390 . S
C1167 C1166 1.387 . S
C1167 C1169 1.387 . S
H1168 C1175 0.950 . S
C1169 C1167 1.387 . S
C1169 C1171 1.390 . S
C1169 H1173 0.950 . S
H1170 C1166 0.950 . S
C1171 C1169 1.390 . S
C1171 C1172 1.387 . S
C1171 H1174 0.950 . S
C1172 C1171 1.387 . S
C1172 C1175 1.387 . S
H1173 C1169 0.950 . S
H1174 C1171 0.950 . S
C1175 C1166 1.390 . S
C1175 H1168 0.950 . S
C1175 C1172 1.387 . S
C1176 C1177 1.387 . S
C1176 H1180 0.950 . S
C1176 C1185 1.390 . S
C1177 C1176 1.387 . S
C1177 C1179 1.387 . S
H1178 C1185 0.950 . S
C1179 C1177 1.387 . S
C1179 C1181 1.390 . S
C1179 H1183 0.950 . S
H1180 C1176 0.950 . S
C1181 C1179 1.390 . S
C1181 C1182 1.387 . S
C1181 H1184 0.950 . S
C1182 C1181 1.387 . S
C1182 C1185 1.387 . S
H1183 C1179 0.950 . S
H1184 C1181 0.950 . S
C1185 C1176 1.390 . S
C1185 H1178 0.950 . S
C1185 C1182 1.387 . S
C1186 C1187 1.387 . S
C1186 H1190 0.950 . S
C1186 C1195 1.390 . S
C1187 C1186 1.387 . S
C1187 C1189 1.387 . S
H1188 C1195 0.950 . S
C1189 C1187 1.387 . S
C1189 C1191 1.390 . S
C1189 H1193 0.950 . S
H1190 C1186 0.950 . S
C1191 C1189 1.390 . S
C1191 C1192 1.387 . S
C1191 H1194 0.950 . S
C1192 C1191 1.387 . S
C1192 C1195 1.387 . S
H1193 C1189 0.950 . S
H1194 C1191 0.950 . S
C1195 C1186 1.390 . S
C1195 H1188 0.950 . S
C1195 C1192 1.387 . S
C1196 C1197 1.387 . S
C1196 H1200 0.950 . S
C1196 C1205 1.390 . S
C1197 C1196 1.387 . S
C1197 C1199 1.387 . S
H1198 C1205 0.950 . S
C1199 C1197 1.387 . S
C1199 C1201 1.390 . S
C1199 H1203 0.950 . S
H1200 C1196 0.950 . S
C1201 C1199 1.390 . S
C1201 C1202 1.387 . S
C1201 H1204 0.950 . S
C1202 C1201 1.387 . S
C1202 C1205 1.387 . S
H1203 C1199 0.950 . S
H1204 C1201 0.950 . S
C1205 C1196 1.390 . S
C1205 H1198 0.950 . S
C1205 C1202 1.387 . S
C1206 C1207 1.387 . S
C1206 H1210 0.950 . S
C1206 C1215 1.390 . S
C1207 C1206 1.387 . S
C1207 C1209 1.387 . S
H1208 C1215 0.950 . S
C1209 C1207 1.387 . S
C1209 C1211 1.390 . S
C1209 H1213 0.950 . S
H1210 C1206 0.950 . S
C1211 C1209 1.390 . S
C1211 C1212 1.387 . S
C1211 H1214 0.950 . S
C1212 C1211 1.387 . S
C1212 C1215 1.387 . S
H1213 C1209 0.950 . S
H1214 C1211 0.950 . S
C1215 C1206 1.390 . S
C1215 H1208 0.950 . S
C1215 C1212 1.387 . S
C1216 C1217 1.387 . S
C1216 H1220 0.950 . S
C1216 C1225 1.390 . S
C1217 C1216 1.387 . S
C1217 C1219 1.387 . S
H1218 C1225 0.950 . S
C1219 C1217 1.387 . S
C1219 C1221 1.390 . S
C1219 H1223 0.950 . S
H1220 C1216 0.950 . S
C1221 C1219 1.390 . S
C1221 C1222 1.387 . S
C1221 H1224 0.950 . S
C1222 C1221 1.387 . S
C1222 C1225 1.387 . S
H1223 C1219 0.950 . S
H1224 C1221 0.950 . S
C1225 C1216 1.390 . S
C1225 H1218 0.950 . S
C1225 C1222 1.387 . S
C1226 C1227 1.387 . S
C1226 H1230 0.950 . S
C1226 C1235 1.390 . S
C1227 C1226 1.387 . S
C1227 C1229 1.387 . S
H1228 C1235 0.950 . S
C1229 C1227 1.387 . S
C1229 C1231 1.390 . S
C1229 H1233 0.950 . S
H1230 C1226 0.950 . S
C1231 C1229 1.390 . S
C1231 C1232 1.387 . S
C1231 H1234 0.950 . S
C1232 C1231 1.387 . S
C1232 C1235 1.387 . S
H1233 C1229 0.950 . S
H1234 C1231 0.950 . S
C1235 C1226 1.390 . S
C1235 H1228 0.950 . S
C1235 C1232 1.387 . S
C1236 C1237 1.387 . S
C1236 H1240 0.950 . S
C1236 C1245 1.390 . S
C1237 C1236 1.387 . S
C1237 C1239 1.387 . S
H1238 C1245 0.950 . S
C1239 C1237 1.387 . S
C1239 C1241 1.390 . S
C1239 H1243 0.950 . S
H1240 C1236 0.950 . S
C1241 C1239 1.390 . S
C1241 C1242 1.387 . S
C1241 H1244 0.950 . S
C1242 C1241 1.387 . S
C1242 C1245 1.387 . S
H1243 C1239 0.950 . S
H1244 C1241 0.950 . S
C1245 C1236 1.390 . S
C1245 H1238 0.950 . S
C1245 C1242 1.387 . S
C1246 C1247 1.387 . S
C1246 H1250 0.950 . S
C1246 C1255 1.390 . S
C1247 C1246 1.387 . S
C1247 C1249 1.387 . S
H1248 C1255 0.950 . S
C1249 C1247 1.387 . S
C1249 C1251 1.390 . S
C1249 H1253 0.950 . S
H1250 C1246 0.950 . S
C1251 C1249 1.390 . S
C1251 C1252 1.387 . S
C1251 H1254 0.950 . S
C1252 C1251 1.387 . S
C1252 C1255 1.387 . S
H1253 C1249 0.950 . S
H1254 C1251 0.950 . S
C1255 C1246 1.390 . S
C1255 H1248 0.950 . S
C1255 C1252 1.387 . S
C1256 C1257 1.387 . S
C1256 H1260 0.950 . S
C1256 C1265 1.390 . S
C1257 C1256 1.387 . S
C1257 C1259 1.387 . S
H1258 C1265 0.950 . S
C1259 C1257 1.387 . S
C1259 C1261 1.390 . S
C1259 H1263 0.950 . S
H1260 C1256 0.950 . S
C1261 C1259 1.390 . S
C1261 C1262 1.387 . S
C1261 H1264 0.950 . S
C1262 C1261 1.387 . S
C1262 C1265 1.387 . S
H1263 C1259 0.950 . S
H1264 C1261 0.950 . S
C1265 C1256 1.390 . S
C1265 H1258 0.950 . S
C1265 C1262 1.387 . S
C1266 C1267 1.387 . S
C1266 H1270 0.950 . S
C1266 C1275 1.390 . S
C1267 C1266 1.387 . S
C1267 C1269 1.387 . S
H1268 C1275 0.950 . S
C1269 C1267 1.387 . S
C1269 C1271 1.390 . S
C1269 H1273 0.950 . S
H1270 C1266 0.950 . S
C1271 C1269 1.390 . S
C1271 C1272 1.387 . S
C1271 H1274 0.950 . S
C1272 C1271 1.387 . S
C1272 C1275 1.387 . S
H1273 C1269 0.950 . S
H1274 C1271 0.950 . S
C1275 C1266 1.390 . S
C1275 H1268 0.950 . S
C1275 C1272 1.387 . S
C1276 C1277 1.387 . S
C1276 H1280 0.950 . S
C1276 C1285 1.390 . S
C1277 C1276 1.387 . S
C1277 C1279 1.387 . S
H1278 C1285 0.950 . S
C1279 C1277 1.387 . S
C1279 C1281 1.390 . S
C1279 H1283 0.950 . S
H1280 C1276 0.950 . S
C1281 C1279 1.390 . S
C1281 C1282 1.387 . S
C1281 H1284 0.950 . S
C1282 C1281 1.387 . S
C1282 C1285 1.387 . S
H1283 C1279 0.950 . S
H1284 C1281 0.950 . S
C1285 C1276 1.390 . S
C1285 H1278 0.950 . S
C1285 C1282 1.387 . S
C1286 C1287 1.387 . S
C1286 H1290 0.950 . S
C1286 C1295 1.390 . S
C1287 C1286 1.387 . S
C1287 C1289 1.387 . S
H1288 C1295 0.950 . S
C1289 C1287 1.387 . S
C1289 C1291 1.390 . S
C1289 H1293 0.950 . S
H1290 C1286 0.950 . S
C1291 C1289 1.390 . S
C1291 C1292 1.387 . S
C1291 H1294 0.950 . S
C1292 C1291 1.387 . S
C1292 C1295 1.387 . S
H1293 C1289 0.950 . S
H1294 C1291 0.950 . S
C1295 C1286 1.390 . S
C1295 H1288 0.950 . S
C1295 C1292 1.387 . S
C1296 C1297 1.387 . S
C1296 H1300 0.950 . S
C1296 C1305 1.390 . S
C1297 C1296 1.387 . S
C1297 C1299 1.387 . S
H1298 C1305 0.950 . S
C1299 C1297 1.387 . S
C1299 C1301 1.390 . S
C1299 H1303 0.950 . S
H1300 C1296 0.950 . S
C1301 C1299 1.390 . S
C1301 C1302 1.387 . S
C1301 H1304 0.950 . S
C1302 C1301 1.387 . S
C1302 C1305 1.387 . S
H1303 C1299 0.950 . S
H1304 C1301 0.950 . S
C1305 C1296 1.390 . S
C1305 H1298 0.950 . S
C1305 C1302 1.387 . S
C1306 C1307 1.387 . S
C1306 H1310 0.950 . S
C1306 C1315 1.390 . S
C1307 C1306 1.387 . S
C1307 C1309 1.387 . S
H1308 C1315 0.950 . S
C1309 C1307 1.387 . S
C1309 C1311 1.390 . S
C1309 H1313 0.950 . S
H1310 C1306 0.950 . S
C1311 C1309 1.390 . S
C1311 C1312 1.387 . S
C1311 H1314 0.950 . S
C1312 C1311 1.387 . S
C1312 C1315 1.387 . S
H1313 C1309 0.950 . S
H1314 C1311 0.950 . S
C1315 C1306 1.390 . S
C1315 H1308 0.950 . S
C1315 C1312 1.387 . S
C1316 C1317 1.387 . S
C1316 H1320 0.950 . S
C1316 C1325 1.390 . S
C1317 C1316 1.387 . S
C1317 C1319 1.387 . S
H1318 C1325 0.950 . S
C1319 C1317 1.387 . S
C1319 C1321 1.390 . S
C1319 H1323 0.950 . S
H1320 C1316 0.950 . S
C1321 C1319 1.390 . S
C1321 C1322 1.387 . S
C1321 H1324 0.950 . S
C1322 C1321 1.387 . S
C1322 C1325 1.387 . S
H1323 C1319 0.950 . S
H1324 C1321 0.950 . S
C1325 C1316 1.390 . S
C1325 H1318 0.950 . S
C1325 C1322 1.387 . S
C1326 C1327 1.387 . S
C1326 H1330 0.950 . S
C1326 C1335 1.390 . S
C1327 C1326 1.387 . S
C1327 C1329 1.387 . S
H1328 C1335 0.950 . S
C1329 C1327 1.387 . S
C1329 C1331 1.390 . S
C1329 H1333 0.950 . S
H1330 C1326 0.950 . S
C1331 C1329 1.390 . S
C1331 C1332 1.387 . S
C1331 H1334 0.950 . S
C1332 C1331 1.387 . S
C1332 C1335 1.387 . S
H1333 C1329 0.950 . S
H1334 C1331 0.950 . S
C1335 C1326 1.390 . S
C1335 H1328 0.950 . S
C1335 C1332 1.387 . S
C1336 C1337 1.387 . S
C1336 H1340 0.950 . S
C1336 C1345 1.390 . S
C1337 C1336 1.387 . S
C1337 C1339 1.387 . S
H1338 C1345 0.950 . S
C1339 C1337 1.387 . S
C1339 C1341 1.390 . S
C1339 H1343 0.950 . S
H1340 C1336 0.950 . S
C1341 C1339 1.390 . S
C1341 C1342 1.387 . S
C1341 H1344 0.950 . S
C1342 C1341 1.387 . S
C1342 C1345 1.387 . S
H1343 C1339 0.950 . S
H1344 C1341 0.950 . S
C1345 C1336 1.390 . S
C1345 H1338 0.950 . S
C1345 C1342 1.387 . S
C1346 C1347 1.387 . S
C1346 H1350 0.950 . S
C1346 C1355 1.390 . S
C1347 C1346 1.387 . S
C1347 C1349 1.387 . S
H1348 C1355 0.950 . S
C1349 C1347 1.387 . S
C1349 C1351 1.390 . S
C1349 H1353 0.950 . S
H1350 C1346 0.950 . S
C1351 C1349 1.390 . S
C1351 C1352 1.387 . S
C1351 H1354 0.950 . S
C1352 C1351 1.387 . S
C1352 C1355 1.387 . S
H1353 C1349 0.950 . S
H1354 C1351 0.950 . S
C1355 C1346 1.390 . S
C1355 H1348 0.950 . S
C1355 C1352 1.387 . S
C1356 C1357 1.387 . S
C1356 H1360 0.950 . S
C1356 C1365 1.390 . S
C1357 C1356 1.387 . S
C1357 C1359 1.387 . S
H1358 C1365 0.950 . S
C1359 C1357 1.387 . S
C1359 C1361 1.390 . S
C1359 H1363 0.950 . S
H1360 C1356 0.950 . S
C1361 C1359 1.390 . S
C1361 C1362 1.387 . S
C1361 H1364 0.950 . S
C1362 C1361 1.387 . S
C1362 C1365 1.387 . S
H1363 C1359 0.950 . S
H1364 C1361 0.950 . S
C1365 C1356 1.390 . S
C1365 H1358 0.950 . S
C1365 C1362 1.387 . S
C1366 C1367 1.387 . S
C1366 H1370 0.950 . S
C1366 C1375 1.390 . S
C1367 C1366 1.387 . S
C1367 C1369 1.387 . S
H1368 C1375 0.950 . S
C1369 C1367 1.387 . S
C1369 C1371 1.390 . S
C1369 H1373 0.950 . S
H1370 C1366 0.950 . S
C1371 C1369 1.390 . S
C1371 C1372 1.387 . S
C1371 H1374 0.950 . S
C1372 C1371 1.387 . S
C1372 C1375 1.387 . S
H1373 C1369 0.950 . S
H1374 C1371 0.950 . S
C1375 C1366 1.390 . S
C1375 H1368 0.950 . S
C1375 C1372 1.387 . S
C1376 C1377 1.387 . S
C1376 H1380 0.950 . S
C1376 C1385 1.390 . S
C1377 C1376 1.387 . S
C1377 C1379 1.387 . S
H1378 C1385 0.950 . S
C1379 C1377 1.387 . S
C1379 C1381 1.390 . S
C1379 H1383 0.950 . S
H1380 C1376 0.950 . S
C1381 C1379 1.390 . S
C1381 C1382 1.387 . S
C1381 H1384 0.950 . S
C1382 C1381 1.387 . S
C1382 C1385 1.387 . S
H1383 C1379 0.950 . S
H1384 C1381 0.950 . S
C1385 C1376 1.390 . S
C1385 H1378 0.950 . S
C1385 C1382 1.387 . S
C1386 C1387 1.387 . S
C1386 H1390 0.950 . S
C1386 C1395 1.390 1_545 S
C1387 C1386 1.387 . S
C1387 C1389 1.387 . S
H1388 C1395 0.950 . S
C1389 C1387 1.387 . S
C1389 C1391 1.390 1_545 S
C1389 H1393 0.950 . S
H1390 C1386 0.950 . S
C1391 C1389 1.390 1_565 S
C1391 C1392 1.387 . S
C1391 H1394 0.950 . S
C1392 C1391 1.387 . S
C1392 C1395 1.387 . S
H1393 C1389 0.950 . S
H1394 C1391 0.950 . S
C1395 C1386 1.390 1_565 S
C1395 H1388 0.950 . S
C1395 C1392 1.387 . S
C1396 C1397 1.387 . S
C1396 H1400 0.950 . S
C1396 C1405 1.390 . S
C1397 C1396 1.387 . S
C1397 C1399 1.387 . S
H1398 C1405 0.950 . S
C1399 C1397 1.387 . S
C1399 C1401 1.390 . S
C1399 H1403 0.950 . S
H1400 C1396 0.950 . S
C1401 C1399 1.390 . S
C1401 C1402 1.387 . S
C1401 H1404 0.950 . S
C1402 C1401 1.387 . S
C1402 C1405 1.387 . S
H1403 C1399 0.950 . S
H1404 C1401 0.950 . S
C1405 C1396 1.390 . S
C1405 H1398 0.950 . S
C1405 C1402 1.387 . S
C1406 C1407 1.387 . S
C1406 H1410 0.950 . S
C1406 C1415 1.390 1_566 S
C1407 C1406 1.387 . S
C1407 C1409 1.387 . S
H1408 C1415 0.950 . S
C1409 C1407 1.387 . S
C1409 C1411 1.390 1_566 S
C1409 H1413 0.950 . S
H1410 C1406 0.950 . S
C1411 C1409 1.390 1_544 S
C1411 C1412 1.387 . S
C1411 H1414 0.950 . S
C1412 C1411 1.387 . S
C1412 C1415 1.387 . S
H1413 C1409 0.950 . S
H1414 C1411 0.950 . S
C1415 C1406 1.390 1_544 S
C1415 H1408 0.950 . S
C1415 C1412 1.387 . S
C1416 C1417 1.387 . S
C1416 H1420 0.950 . S
C1416 C1425 1.390 . S
C1417 C1416 1.387 . S
C1417 C1419 1.387 . S
H1418 C1425 0.950 . S
C1419 C1417 1.387 . S
C1419 C1421 1.390 . S
C1419 H1423 0.950 . S
H1420 C1416 0.950 . S
C1421 C1419 1.390 . S
C1421 C1422 1.387 . S
C1421 H1424 0.950 . S
C1422 C1421 1.387 . S
C1422 C1425 1.387 . S
H1423 C1419 0.950 . S
H1424 C1421 0.950 . S
C1425 C1416 1.390 . S
C1425 H1418 0.950 . S
C1425 C1422 1.387 . S
C1426 C1427 1.387 . S
C1426 H1430 0.950 . S
C1426 C1435 1.390 1_565 S
C1427 C1426 1.387 . S
C1427 C1429 1.387 . S
H1428 C1435 0.950 . S
C1429 C1427 1.387 . S
C1429 C1431 1.390 1_565 S
C1429 H1433 0.950 . S
H1430 C1426 0.950 . S
C1431 C1429 1.390 1_545 S
C1431 C1432 1.387 . S
C1431 H1434 0.950 . S
C1432 C1431 1.387 . S
C1432 C1435 1.387 . S
H1433 C1429 0.950 . S
H1434 C1431 0.950 . S
C1435 C1426 1.390 1_545 S
C1435 H1428 0.950 . S
C1435 C1432 1.387 . S
C1436 C1437 1.387 . S
C1436 H1440 0.950 . S
C1436 C1445 1.390 . S
C1437 C1436 1.387 . S
C1437 C1439 1.387 . S
H1438 C1445 0.950 . S
C1439 C1437 1.387 . S
C1439 C1441 1.390 . S
C1439 H1443 0.950 . S
H1440 C1436 0.950 . S
C1441 C1439 1.390 . S
C1441 C1442 1.387 . S
C1441 H1444 0.950 . S
C1442 C1441 1.387 . S
C1442 C1445 1.387 . S
H1443 C1439 0.950 . S
H1444 C1441 0.950 . S
C1445 C1436 1.390 . S
C1445 H1438 0.950 . S
C1445 C1442 1.387 . S
C1446 C1447 1.387 . S
C1446 H1450 0.950 . S
C1446 C1455 1.390 1_566 S
C1447 C1446 1.387 . S
C1447 C1449 1.387 . S
H1448 C1455 0.950 . S
C1449 C1447 1.387 . S
C1449 C1451 1.390 1_566 S
C1449 H1453 0.950 . S
H1450 C1446 0.950 . S
C1451 C1449 1.390 1_544 S
C1451 C1452 1.387 . S
C1451 H1454 0.950 . S
C1452 C1451 1.387 . S
C1452 C1455 1.387 . S
H1453 C1449 0.950 . S
H1454 C1451 0.950 . S
C1455 C1446 1.390 1_544 S
C1455 H1448 0.950 . S
C1455 C1452 1.387 . S
C1456 C1457 1.387 . S
C1456 H1460 0.950 . S
C1456 C1465 1.390 . S
C1457 C1456 1.387 . S
C1457 C1459 1.387 . S
H1458 C1465 0.950 . S
C1459 C1457 1.387 . S
C1459 C1461 1.390 . S
C1459 H1463 0.950 . S
H1460 C1456 0.950 . S
C1461 C1459 1.390 . S
C1461 C1462 1.387 . S
C1461 H1464 0.950 . S
C1462 C1461 1.387 . S
C1462 C1465 1.387 . S
H1463 C1459 0.950 . S
H1464 C1461 0.950 . S
C1465 C1456 1.390 . S
C1465 H1458 0.950 . S
C1465 C1462 1.387 . S
C1466 C1467 1.387 . S
C1466 H1470 0.950 . S
C1466 C1475 1.390 1_554 S
C1467 C1466 1.387 . S
C1467 C1469 1.387 . S
H1468 C1475 0.950 . S
C1469 C1467 1.387 . S
C1469 C1471 1.390 1_554 S
C1469 H1473 0.950 . S
H1470 C1466 0.950 . S
C1471 C1469 1.390 1_556 S
C1471 C1472 1.387 . S
C1471 H1474 0.950 . S
C1472 C1471 1.387 . S
C1472 C1475 1.387 . S
H1473 C1469 0.950 . S
H1474 C1471 0.950 . S
C1475 C1466 1.390 1_556 S
C1475 H1468 0.950 . S
C1475 C1472 1.387 . S
C1476 C1477 1.387 . S
C1476 H1480 0.950 . S
C1476 C1485 1.390 . S
C1477 C1476 1.387 . S
C1477 C1479 1.387 . S
H1478 C1485 0.950 . S
C1479 C1477 1.387 . S
C1479 C1481 1.390 . S
C1479 H1483 0.950 . S
H1480 C1476 0.950 . S
C1481 C1479 1.390 . S
C1481 C1482 1.387 . S
C1481 H1484 0.950 . S
C1482 C1481 1.387 . S
C1482 C1485 1.387 . S
H1483 C1479 0.950 . S
H1484 C1481 0.950 . S
C1485 C1476 1.390 . S
C1485 H1478 0.950 . S
C1485 C1482 1.387 . S
C1486 C1487 1.387 . S
C1486 H1490 0.950 . S
C1486 C1495 1.390 . S
C1487 C1486 1.387 . S
C1487 C1489 1.387 . S
H1488 C1495 0.950 . S
C1489 C1487 1.387 . S
C1489 C1491 1.390 . S
C1489 H1493 0.950 . S
H1490 C1486 0.950 . S
C1491 C1489 1.390 . S
C1491 C1492 1.387 . S
C1491 H1494 0.950 . S
C1492 C1491 1.387 . S
C1492 C1495 1.387 . S
H1493 C1489 0.950 . S
H1494 C1491 0.950 . S
C1495 C1486 1.390 . S
C1495 H1488 0.950 . S
C1495 C1492 1.387 . S
C1496 C1497 1.387 . S
C1496 H1500 0.950 . S
C1496 C1505 1.390 . S
C1497 C1496 1.387 . S
C1497 C1499 1.387 . S
H1498 C1505 0.950 . S
C1499 C1497 1.387 . S
C1499 C1501 1.390 . S
C1499 H1503 0.950 . S
H1500 C1496 0.950 . S
C1501 C1499 1.390 . S
C1501 C1502 1.387 . S
C1501 H1504 0.950 . S
C1502 C1501 1.387 . S
C1502 C1505 1.387 . S
H1503 C1499 0.950 . S
H1504 C1501 0.950 . S
C1505 C1496 1.390 . S
C1505 H1498 0.950 . S
C1505 C1502 1.387 . S
C1506 C1507 1.387 . S
C1506 H1510 0.950 . S
C1506 C1515 1.390 1_556 S
C1507 C1506 1.387 . S
C1507 C1509 1.387 . S
H1508 C1515 0.950 . S
C1509 C1507 1.387 . S
C1509 C1511 1.390 1_556 S
C1509 H1513 0.950 . S
H1510 C1506 0.950 . S
C1511 C1509 1.390 1_554 S
C1511 C1512 1.387 . S
C1511 H1514 0.950 . S
C1512 C1511 1.387 . S
C1512 C1515 1.387 . S
H1513 C1509 0.950 . S
H1514 C1511 0.950 . S
C1515 C1506 1.390 1_554 S
C1515 H1508 0.950 . S
C1515 C1512 1.387 . S
C1516 C1517 1.387 . S
C1516 H1520 0.950 . S
C1516 C1525 1.390 . S
C1517 C1516 1.387 . S
C1517 C1519 1.387 . S
H1518 C1525 0.950 . S
C1519 C1517 1.387 . S
C1519 C1521 1.390 . S
C1519 H1523 0.950 . S
H1520 C1516 0.950 . S
C1521 C1519 1.390 . S
C1521 C1522 1.387 . S
C1521 H1524 0.950 . S
C1522 C1521 1.387 . S
C1522 C1525 1.387 . S
H1523 C1519 0.950 . S
H1524 C1521 0.950 . S
C1525 C1516 1.390 . S
C1525 H1518 0.950 . S
C1525 C1522 1.387 . S
C1526 C1527 1.387 . S
C1526 H1530 0.950 . S
C1526 C1535 1.390 . S
C1527 C1526 1.387 . S
C1527 C1529 1.387 . S
H1528 C1535 0.950 . S
C1529 C1527 1.387 . S
C1529 C1531 1.390 . S
C1529 H1533 0.950 . S
H1530 C1526 0.950 . S
C1531 C1529 1.390 . S
C1531 C1532 1.387 . S
C1531 H1534 0.950 . S
C1532 C1531 1.387 . S
C1532 C1535 1.387 . S
H1533 C1529 0.950 . S
H1534 C1531 0.950 . S
C1535 C1526 1.390 . S
C1535 H1528 0.950 . S
C1535 C1532 1.387 . S
C1536 C1537 1.387 . S
C1536 H1540 0.950 . S
C1536 C1545 1.390 . S
C1537 C1536 1.387 . S
C1537 C1539 1.387 . S
H1538 C1545 0.950 . S
C1539 C1537 1.387 . S
C1539 C1541 1.390 . S
C1539 H1543 0.950 . S
H1540 C1536 0.950 . S
C1541 C1539 1.390 . S
C1541 C1542 1.387 . S
C1541 H1544 0.950 . S
C1542 C1541 1.387 . S
C1542 C1545 1.387 . S
H1543 C1539 0.950 . S
H1544 C1541 0.950 . S
C1545 C1536 1.390 . S
C1545 H1538 0.950 . S
C1545 C1542 1.387 . S
C1546 C1547 1.387 . S
C1546 H1550 0.950 . S
C1546 C1555 1.390 . S
C1547 C1546 1.387 . S
C1547 C1549 1.387 . S
H1548 C1555 0.950 . S
C1549 C1547 1.387 . S
C1549 C1551 1.390 . S
C1549 H1553 0.950 . S
H1550 C1546 0.950 . S
C1551 C1549 1.390 . S
C1551 C1552 1.387 . S
C1551 H1554 0.950 . S
C1552 C1551 1.387 . S
C1552 C1555 1.387 . S
H1553 C1549 0.950 . S
H1554 C1551 0.950 . S
C1555 C1546 1.390 . S
C1555 H1548 0.950 . S
C1555 C1552 1.387 . S
C1556 C1557 1.387 . S
C1556 H1560 0.950 . S
C1556 C1565 1.390 . S
C1557 C1556 1.387 . S
C1557 C1559 1.387 . S
H1558 C1565 0.950 . S
C1559 C1557 1.387 . S
C1559 C1561 1.390 . S
C1559 H1563 0.950 . S
H1560 C1556 0.950 . S
C1561 C1559 1.390 . S
C1561 C1562 1.387 . S
C1561 H1564 0.950 . S
C1562 C1561 1.387 . S
C1562 C1565 1.387 . S
H1563 C1559 0.950 . S
H1564 C1561 0.950 . S
C1565 C1556 1.390 . S
C1565 H1558 0.950 . S
C1565 C1562 1.387 . S
C1566 C1567 1.387 . S
C1566 H1570 0.950 . S
C1566 C1575 1.390 . S
C1567 C1566 1.387 . S
C1567 C1569 1.387 . S
H1568 C1575 0.950 . S
C1569 C1567 1.387 . S
C1569 C1571 1.390 . S
C1569 H1573 0.950 . S
H1570 C1566 0.950 . S
C1571 C1569 1.390 . S
C1571 C1572 1.387 . S
C1571 H1574 0.950 . S
C1572 C1571 1.387 . S
C1572 C1575 1.387 . S
H1573 C1569 0.950 . S
H1574 C1571 0.950 . S
C1575 C1566 1.390 . S
C1575 H1568 0.950 . S
C1575 C1572 1.387 . S
C1576 C1577 1.387 . S
C1576 H1580 0.950 . S
C1576 C1585 1.390 . S
C1577 C1576 1.387 . S
C1577 C1579 1.387 . S
H1578 C1585 0.950 . S
C1579 C1577 1.387 . S
C1579 C1581 1.390 . S
C1579 H1583 0.950 . S
H1580 C1576 0.950 . S
C1581 C1579 1.390 . S
C1581 C1582 1.387 . S
C1581 H1584 0.950 . S
C1582 C1581 1.387 . S
C1582 C1585 1.387 . S
H1583 C1579 0.950 . S
H1584 C1581 0.950 . S
C1585 C1576 1.390 . S
C1585 H1578 0.950 . S
C1585 C1582 1.387 . S
C1586 C1587 1.387 . S
C1586 H1590 0.950 . S
C1586 C1595 1.390 . S
C1587 C1586 1.387 . S
C1587 C1589 1.387 . S
H1588 C1595 0.950 . S
C1589 C1587 1.387 . S
C1589 C1591 1.390 . S
C1589 H1593 0.950 . S
H1590 C1586 0.950 . S
C1591 C1589 1.390 . S
C1591 C1592 1.387 . S
C1591 H1594 0.950 . S
C1592 C1591 1.387 . S
C1592 C1595 1.387 . S
H1593 C1589 0.950 . S
H1594 C1591 0.950 . S
C1595 C1586 1.390 . S
C1595 H1588 0.950 . S
C1595 C1592 1.387 . S
C1596 C1597 1.387 . S
C1596 H1600 0.950 . S
C1596 C1605 1.390 . S
C1597 C1596 1.387 . S
C1597 C1599 1.387 . S
H1598 C1605 0.950 . S
C1599 C1597 1.387 . S
C1599 C1601 1.390 . S
C1599 H1603 0.950 . S
H1600 C1596 0.950 . S
C1601 C1599 1.390 . S
C1601 C1602 1.387 . S
C1601 H1604 0.950 . S
C1602 C1601 1.387 . S
C1602 C1605 1.387 . S
H1603 C1599 0.950 . S
H1604 C1601 0.950 . S
C1605 C1596 1.390 . S
C1605 H1598 0.950 . S
C1605 C1602 1.387 . S
C1606 C1607 1.387 . S
C1606 H1610 0.950 . S
C1606 C1615 1.390 . S
C1607 C1606 1.387 . S
C1607 C1609 1.387 . S
H1608 C1615 0.950 . S
C1609 C1607 1.387 . S
C1609 C1611 1.390 . S
C1609 H1613 0.950 . S
H1610 C1606 0.950 . S
C1611 C1609 1.390 . S
C1611 C1612 1.387 . S
C1611 H1614 0.950 . S
C1612 C1611 1.387 . S
C1612 C1615 1.387 . S
H1613 C1609 0.950 . S
H1614 C1611 0.950 . S
C1615 C1606 1.390 . S
C1615 H1608 0.950 . S
C1615 C1612 1.387 . S
C1616 C1617 1.387 . S
C1616 H1620 0.950 . S
C1616 C1625 1.390 . S
C1617 C1616 1.387 . S
C1617 C1619 1.387 . S
H1618 C1625 0.950 . S
C1619 C1617 1.387 . S
C1619 C1621 1.390 . S
C1619 H1623 0.950 . S
H1620 C1616 0.950 . S
C1621 C1619 1.390 . S
C1621 C1622 1.387 . S
C1621 H1624 0.950 . S
C1622 C1621 1.387 . S
C1622 C1625 1.387 . S
H1623 C1619 0.950 . S
H1624 C1621 0.950 . S
C1625 C1616 1.390 . S
C1625 H1618 0.950 . S
C1625 C1622 1.387 . S
C1626 C1627 1.387 . S
C1626 H1630 0.950 . S
C1626 C1635 1.390 . S
C1627 C1626 1.387 . S
C1627 C1629 1.387 . S
H1628 C1635 0.950 . S
C1629 C1627 1.387 . S
C1629 C1631 1.390 . S
C1629 H1633 0.950 . S
H1630 C1626 0.950 . S
C1631 C1629 1.390 . S
C1631 C1632 1.387 . S
C1631 H1634 0.950 . S
C1632 C1631 1.387 . S
C1632 C1635 1.387 . S
H1633 C1629 0.950 . S
H1634 C1631 0.950 . S
C1635 C1626 1.390 . S
C1635 H1628 0.950 . S
C1635 C1632 1.387 . S
C1636 C1637 1.387 . S
C1636 H1640 0.950 . S
C1636 C1645 1.390 . S
C1637 C1636 1.387 . S
C1637 C1639 1.387 . S
H1638 C1645 0.950 . S
C1639 C1637 1.387 . S
C1639 C1641 1.390 . S
C1639 H1643 0.950 . S
H1640 C1636 0.950 . S
C1641 C1639 1.390 . S
C1641 C1642 1.387 . S
C1641 H1644 0.950 . S
C1642 C1641 1.387 . S
C1642 C1645 1.387 . S
H1643 C1639 0.950 . S
H1644 C1641 0.950 . S
C1645 C1636 1.390 . S
C1645 H1638 0.950 . S
C1645 C1642 1.387 . S
C1646 C1647 1.387 . S
C1646 H1650 0.950 . S
C1646 C1655 1.390 . S
C1647 C1646 1.387 . S
C1647 C1649 1.387 . S
H1648 C1655 0.950 . S
C1649 C1647 1.387 . S
C1649 C1651 1.390 . S
C1649 H1653 0.950 . S
H1650 C1646 0.950 . S
C1651 C1649 1.390 . S
C1651 C1652 1.387 . S
C1651 H1654 0.950 . S
C1652 C1651 1.387 . S
C1652 C1655 1.387 . S
H1653 C1649 0.950 . S
H1654 C1651 0.950 . S
C1655 C1646 1.390 . S
C1655 H1648 0.950 . S
C1655 C1652 1.387 . S
C1656 C1657 1.387 . S
C1656 H1660 0.950 . S
C1656 C1665 1.390 . S
C1657 C1656 1.387 . S
C1657 C1659 1.387 . S
H1658 C1665 0.950 . S
C1659 C1657 1.387 . S
C1659 C1661 1.390 . S
C1659 H1663 0.950 . S
H1660 C1656 0.950 . S
C1661 C1659 1.390 . S
C1661 C1662 1.387 . S
C1661 H1664 0.950 . S
C1662 C1661 1.387 . S
C1662 C1665 1.387 . S
H1663 C1659 0.950 . S
H1664 C1661 0.950 . S
C1665 C1656 1.390 . S
C1665 H1658 0.950 . S
C1665 C1662 1.387 . S
C1666 C1667 1.387 . S
C1666 H1670 0.950 . S
C1666 C1675 1.390 . S
C1667 C1666 1.387 . S
C1667 C1669 1.387 . S
H1668 C1675 0.950 . S
C1669 C1667 1.387 . S
C1669 C1671 1.390 . S
C1669 H1673 0.950 . S
H1670 C1666 0.950 . S
C1671 C1669 1.390 . S
C1671 C1672 1.387 . S
C1671 H1674 0.950 . S
C1672 C1671 1.387 . S
C1672 C1675 1.387 . S
H1673 C1669 0.950 . S
H1674 C1671 0.950 . S
C1675 C1666 1.390 . S
C1675 H1668 0.950 . S
C1675 C1672 1.387 . S
C1676 C1677 1.387 . S
C1676 H1680 0.950 . S
C1676 C1685 1.390 . S
C1677 C1676 1.387 . S
C1677 C1679 1.387 . S
H1678 C1685 0.950 . S
C1679 C1677 1.387 . S
C1679 C1681 1.390 . S
C1679 H1683 0.950 . S
H1680 C1676 0.950 . S
C1681 C1679 1.390 . S
C1681 C1682 1.387 . S
C1681 H1684 0.950 . S
C1682 C1681 1.387 . S
C1682 C1685 1.387 . S
H1683 C1679 0.950 . S
H1684 C1681 0.950 . S
C1685 C1676 1.390 . S
C1685 H1678 0.950 . S
C1685 C1682 1.387 . S
C1686 C1687 1.387 . S
C1686 H1690 0.950 . S
C1686 C1695 1.390 . S
C1687 C1686 1.387 . S
C1687 C1689 1.387 . S
H1688 C1695 0.950 . S
C1689 C1687 1.387 . S
C1689 C1691 1.390 . S
C1689 H1693 0.950 . S
H1690 C1686 0.950 . S
C1691 C1689 1.390 . S
C1691 C1692 1.387 . S
C1691 H1694 0.950 . S
C1692 C1691 1.387 . S
C1692 C1695 1.387 . S
H1693 C1689 0.950 . S
H1694 C1691 0.950 . S
C1695 C1686 1.390 . S
C1695 H1688 0.950 . S
C1695 C1692 1.387 . S
C1696 C1697 1.387 . S
C1696 H1700 0.950 1_554 S
C1696 C1705 1.390 . S
C1697 C1696 1.387 . S
C1697 C1699 1.387 . S
H1698 C1705 0.950 1_556 S
C1699 C1697 1.387 . S
C1699 C1701 1.390 . S
C1699 H1703 0.950 . S
H1700 C1696 0.950 1_556 S
C1701 C1699 1.390 . S
C1701 C1702 1.387 . S
C1701 H1704 0.950 . S
C1702 C1701 1.387 . S
C1702 C1705 1.387 . S
H1703 C1699 0.950 . S
H1704 C1701 0.950 . S
C1705 C1696 1.390 . S
C1705 H1698 0.950 1_554 S
C1705 C1702 1.387 . S
C1706 C1707 1.387 . S
C1706 H1710 0.950 . S
C1706 C1715 1.390 1_655 S
C1707 C1706 1.387 . S
C1707 C1709 1.387 . S
H1708 C1715 0.950 . S
C1709 C1707 1.387 . S
C1709 C1711 1.390 1_655 S
C1709 H1713 0.950 . S
H1710 C1706 0.950 . S
C1711 C1709 1.390 1_455 S
C1711 C1712 1.387 . S
C1711 H1714 0.950 . S
C1712 C1711 1.387 . S
C1712 C1715 1.387 . S
H1713 C1709 0.950 . S
H1714 C1711 0.950 . S
C1715 C1706 1.390 1_455 S
C1715 H1708 0.950 . S
C1715 C1712 1.387 . S
C1716 C1717 1.387 . S
C1716 H1720 0.950 . S
C1716 C1725 1.390 . S
C1717 C1716 1.387 . S
C1717 C1719 1.387 . S
H1718 C1725 0.950 . S
C1719 C1717 1.387 . S
C1719 C1721 1.390 . S
C1719 H1723 0.950 . S
H1720 C1716 0.950 . S
C1721 C1719 1.390 . S
C1721 C1722 1.387 . S
C1721 H1724 0.950 . S
C1722 C1721 1.387 . S
C1722 C1725 1.387 . S
H1723 C1719 0.950 . S
H1724 C1721 0.950 . S
C1725 C1716 1.390 . S
C1725 H1718 0.950 . S
C1725 C1722 1.387 . S
C1726 C1727 1.387 . S
C1726 H1730 0.950 . S
C1726 C1735 1.390 . S
C1727 C1726 1.387 . S
C1727 C1729 1.387 . S
H1728 C1735 0.950 . S
C1729 C1727 1.387 . S
C1729 C1731 1.390 . S
C1729 H1733 0.950 . S
H1730 C1726 0.950 . S
C1731 C1729 1.390 . S
C1731 C1732 1.387 . S
C1731 H1734 0.950 . S
C1732 C1731 1.387 . S
C1732 C1735 1.387 . S
H1733 C1729 0.950 . S
H1734 C1731 0.950 . S
C1735 C1726 1.390 . S
C1735 H1728 0.950 . S
C1735 C1732 1.387 . S
C1736 C1737 1.387 . S
C1736 H1740 0.950 1_556 S
C1736 C1745 1.390 . S
C1737 C1736 1.387 . S
C1737 C1739 1.387 . S
H1738 C1745 0.950 1_554 S
C1739 C1737 1.387 . S
C1739 C1741 1.390 . S
C1739 H1743 0.950 . S
H1740 C1736 0.950 1_554 S
C1741 C1739 1.390 . S
C1741 C1742 1.387 . S
C1741 H1744 0.950 . S
C1742 C1741 1.387 . S
C1742 C1745 1.387 . S
H1743 C1739 0.950 . S
H1744 C1741 0.950 . S
C1745 C1736 1.390 . S
C1745 H1738 0.950 1_556 S
C1745 C1742 1.387 . S
C1746 C1747 1.387 . S
C1746 H1750 0.950 . S
C1746 C1755 1.390 . S
C1747 C1746 1.387 . S
C1747 C1749 1.387 . S
H1748 C1755 0.950 . S
C1749 C1747 1.387 . S
C1749 C1751 1.390 . S
C1749 H1753 0.950 . S
H1750 C1746 0.950 . S
C1751 C1749 1.390 . S
C1751 C1752 1.387 . S
C1751 H1754 0.950 . S
C1752 C1751 1.387 . S
C1752 C1755 1.387 . S
H1753 C1749 0.950 . S
H1754 C1751 0.950 . S
C1755 C1746 1.390 . S
C1755 H1748 0.950 . S
C1755 C1752 1.387 . S
C1756 C1757 1.387 . S
C1756 H1760 0.950 . S
C1756 C1765 1.390 . S
C1757 C1756 1.387 . S
C1757 C1759 1.387 . S
H1758 C1765 0.950 . S
C1759 C1757 1.387 . S
C1759 C1761 1.390 . S
C1759 H1763 0.950 . S
H1760 C1756 0.950 . S
C1761 C1759 1.390 . S
C1761 C1762 1.387 . S
C1761 H1764 0.950 . S
C1762 C1761 1.387 . S
C1762 C1765 1.387 . S
H1763 C1759 0.950 . S
H1764 C1761 0.950 . S
C1765 C1756 1.390 . S
C1765 H1758 0.950 . S
C1765 C1762 1.387 . S
C1766 C1767 1.387 . S
C1766 H1770 0.950 . S
C1766 C1775 1.390 1_455 S
C1767 C1766 1.387 . S
C1767 C1769 1.387 . S
H1768 C1775 0.950 . S
C1769 C1767 1.387 . S
C1769 C1771 1.390 1_455 S
C1769 H1773 0.950 . S
H1770 C1766 0.950 . S
C1771 C1769 1.390 1_655 S
C1771 C1772 1.387 . S
C1771 H1774 0.950 . S
C1772 C1771 1.387 . S
C1772 C1775 1.387 . S
H1773 C1769 0.950 . S
H1774 C1771 0.950 . S
C1775 C1766 1.390 1_655 S
C1775 H1768 0.950 . S
C1775 C1772 1.387 . S
C1776 C1777 1.387 . S
C1776 H1780 0.950 1_556 S
C1776 C1785 1.390 . S
C1777 C1776 1.387 . S
C1777 C1779 1.387 . S
H1778 C1785 0.950 1_554 S
C1779 C1777 1.387 . S
C1779 C1781 1.390 . S
C1779 H1783 0.950 . S
H1780 C1776 0.950 1_554 S
C1781 C1779 1.390 . S
C1781 C1782 1.387 . S
C1781 H1784 0.950 . S
C1782 C1781 1.387 . S
C1782 C1785 1.387 . S
H1783 C1779 0.950 . S
H1784 C1781 0.950 . S
C1785 C1776 1.390 . S
C1785 H1778 0.950 1_556 S
C1785 C1782 1.387 . S
C1786 C1787 1.387 . S
C1786 H1790 0.950 . S
C1786 C1795 1.390 . S
C1787 C1786 1.387 . S
C1787 C1789 1.387 . S
H1788 C1795 0.950 . S
C1789 C1787 1.387 . S
C1789 C1791 1.390 . S
C1789 H1793 0.950 . S
H1790 C1786 0.950 . S
C1791 C1789 1.390 . S
C1791 C1792 1.387 . S
C1791 H1794 0.950 . S
C1792 C1791 1.387 . S
C1792 C1795 1.387 . S
H1793 C1789 0.950 . S
H1794 C1791 0.950 . S
C1795 C1786 1.390 . S
C1795 H1788 0.950 . S
C1795 C1792 1.387 . S
C1796 C1797 1.387 . S
C1796 H1800 0.950 . S
C1796 C1805 1.390 . S
C1797 C1796 1.387 . S
C1797 C1799 1.387 . S
H1798 C1805 0.950 . S
C1799 C1797 1.387 . S
C1799 C1801 1.390 . S
C1799 H1803 0.927 1_554 S
H1800 C1796 0.950 . S
C1801 C1799 1.390 . S
C1801 C1802 1.387 . S
C1801 H1804 0.950 1_554 S
C1802 C1801 1.387 . S
C1802 C1805 1.387 . S
H1803 C1799 0.927 1_556 S
H1804 C1801 0.950 1_556 S
C1805 C1796 1.390 . S
C1805 H1798 0.950 . S
C1805 C1802 1.387 . S
C1806 C1807 1.387 . S
C1806 H1810 0.950 . S
C1806 C1815 1.390 . S
C1807 C1806 1.387 . S
C1807 C1809 1.387 . S
H1808 C1815 0.950 . S
C1809 C1807 1.387 . S
C1809 C1811 1.390 . S
C1809 H1813 0.950 . S
H1810 C1806 0.950 . S
C1811 C1809 1.390 . S
C1811 C1812 1.387 . S
C1811 H1814 0.950 . S
C1812 C1811 1.387 . S
C1812 C1815 1.387 . S
H1813 C1809 0.950 . S
H1814 C1811 0.950 . S
C1815 C1806 1.390 . S
C1815 H1808 0.950 . S
C1815 C1812 1.387 . S
C1816 C1817 1.387 . S
C1816 H1820 0.950 . S
C1816 C1825 1.390 . S
C1817 C1816 1.387 . S
C1817 C1819 1.387 . S
H1818 C1825 0.950 . S
C1819 C1817 1.387 . S
C1819 C1821 1.390 . S
C1819 H1823 0.950 . S
H1820 C1816 0.950 . S
C1821 C1819 1.390 . S
C1821 C1822 1.387 . S
C1821 H1824 0.950 . S
C1822 C1821 1.387 . S
C1822 C1825 1.387 . S
H1823 C1819 0.950 . S
H1824 C1821 0.950 . S
C1825 C1816 1.390 . S
C1825 H1818 0.950 . S
C1825 C1822 1.387 . S
C1826 C1827 1.387 . S
C1826 H1830 0.950 . S
C1826 C1835 1.390 1_455 S
C1827 C1826 1.387 . S
C1827 C1829 1.387 . S
H1828 C1835 0.950 . S
C1829 C1827 1.387 . S
C1829 C1831 1.390 1_455 S
C1829 H1833 0.950 . S
H1830 C1826 0.950 . S
C1831 C1829 1.390 1_655 S
C1831 C1832 1.387 . S
C1831 H1834 0.950 . S
C1832 C1831 1.387 . S
C1832 C1835 1.387 . S
H1833 C1829 0.950 . S
H1834 C1831 0.950 . S
C1835 C1826 1.390 1_655 S
C1835 H1828 0.950 . S
C1835 C1832 1.387 . S
C1836 C1837 1.387 . S
C1836 H1840 0.950 . S
C1836 C1845 1.390 1_455 S
C1837 C1836 1.387 . S
C1837 C1839 1.387 . S
H1838 C1845 0.950 . S
C1839 C1837 1.387 . S
C1839 C1841 1.390 1_455 S
C1839 H1843 0.950 . S
H1840 C1836 0.950 . S
C1841 C1839 1.390 1_655 S
C1841 C1842 1.387 . S
C1841 H1844 0.950 . S
C1842 C1841 1.387 . S
C1842 C1845 1.387 . S
H1843 C1839 0.950 . S
H1844 C1841 0.950 . S
C1845 C1836 1.390 1_655 S
C1845 H1838 0.950 . S
C1845 C1842 1.387 . S
C1846 C1847 1.387 . S
C1846 H1850 0.950 . S
C1846 C1855 1.390 . S
C1847 C1846 1.387 . S
C1847 C1849 1.387 . S
H1848 C1855 0.950 . S
C1849 C1847 1.387 . S
C1849 C1851 1.390 . S
C1849 H1853 0.950 . S
H1850 C1846 0.950 . S
C1851 C1849 1.390 . S
C1851 C1852 1.387 . S
C1851 H1854 0.950 . S
C1852 C1851 1.387 . S
C1852 C1855 1.387 . S
H1853 C1849 0.950 . S
H1854 C1851 0.950 . S
C1855 C1846 1.390 . S
C1855 H1848 0.950 . S
C1855 C1852 1.387 . S
C1057 C41 2.024 1_545 S
C1062 C28 2.003 . S
C1067 C61 2.003 . S
C1072 C74 2.023 . S
C1077 C94 2.004 . S
C1082 C107 2.024 1_565 S
C1087 C127 2.004 . S
C1092 C8 2.024 1_556 S
C1097 C160 2.004 . S
C1102 C239 2.024 1_565 S
C1107 C140 2.024 1_554 S
C1112 C193 2.003 . S
C1117 C226 2.002 . S
C1122 C173 2.024 1_545 S
C1127 C259 2.003 . S
C1132 C206 2.024 . S
C1137 C305 2.024 1_565 S
C1142 C292 2.003 . S
C1147 C338 2.024 . S
C1152 C325 2.003 . S
C1157 C358 2.002 . S
C1162 C371 2.024 1_545 S
C1167 C272 2.024 1_554 S
C1172 C391 2.003 . S
C1177 C424 2.003 . S
C1182 C503 2.023 1_545 S
C1187 C457 2.003 . S
C1192 C404 2.023 1_556 S
C1197 C437 2.024 1_565 S
C1202 C490 2.002 . S
C1207 C470 2.024 . S
C1212 C523 2.003 . S
C1217 C569 2.024 . S
C1222 C556 2.003 . S
C1227 C589 2.003 . S
C1232 C602 2.024 1_556 S
C1237 C635 2.023 . S
C1242 C622 2.003 . S
C1247 C536 2.024 . S
C1252 C655 2.003 . S
C1257 C767 2.024 . S
C1262 C688 2.004 . S
C1267 C721 2.003 . S
C1272 C668 2.024 . S
C1277 C701 2.024 . S
C1282 C754 2.002 . S
C1287 C787 2.003 . S
C1292 C734 2.024 1_554 S
C1297 C833 2.023 . S
C1302 C820 2.002 . S
C1307 C853 2.003 . S
C1312 C866 2.023 1_554 S
C1317 C886 2.002 . S
C1322 C899 2.023 . S
C1327 C919 2.003 . S
C1332 C800 2.024 . S
C1337 C1031 2.024 . S
C1342 C952 2.004 . S
C1347 C932 2.024 . S
C1352 C985 2.003 . S
C1357 C965 2.024 . S
C1362 C1018 2.003 . S
C1367 C998 2.024 1_556 S
C1372 C1051 2.003 . S
C1377 N203 1.014 . S
C1382 N5 1.014 . S
C1387 N38 1.014 1_545 S
C1392 N236 1.014 1_565 S
C1397 N71 1.013 . S
C1402 N137 1.013 . S
C1407 N104 1.014 1_565 S
C1412 N170 1.014 1_545 S
C1417 N467 1.014 . S
C1422 N269 1.014 . S
C1427 N500 1.013 . S
C1432 N302 1.013 . S
C1437 N335 1.013 . S
C1442 N401 1.013 . S
C1447 N434 1.014 1_565 S
C1452 N368 1.014 1_545 S
C1457 N533 1.014 . S
C1462 N731 1.014 . S
C1467 N764 1.013 . S
C1472 N566 1.013 . S
C1477 N665 1.013 . S
C1482 N599 1.013 . S
C1487 N698 1.014 . S
C1492 N632 1.014 . S
C1497 N995 1.013 . S
C1502 N797 1.013 . S
C1507 N1028 1.013 . S
C1512 N830 1.013 . S
C1517 N929 1.014 . S
C1522 N863 1.014 . S
C1527 N962 1.014 . S
C1532 N896 1.014 . S
C1537 N14 1.010 . S
C1542 N245 1.009 . S
C1547 N47 1.010 . S
C1552 N146 1.009 . S
C1557 N179 1.011 . S
C1562 N80 1.010 . S
C1567 N113 1.010 . S
C1572 N212 1.010 . S
C1577 N278 1.011 . S
C1582 N509 1.010 . S
C1587 N410 1.011 . S
C1592 N311 1.010 . S
C1597 N344 1.011 . S
C1602 N443 1.010 . S
C1607 N377 1.011 . S
C1612 N476 1.009 . S
C1617 N773 1.009 . S
C1622 N542 1.009 . S
C1627 N674 1.011 . S
C1632 N575 1.009 . S
C1637 N608 1.009 . S
C1642 N707 1.009 . S
C1647 N641 1.010 . S
C1652 N740 1.009 . S
C1657 N806 1.011 . S
C1662 N1037 1.010 . S
C1667 N938 1.010 . S
C1672 N839 1.009 . S
C1677 N872 1.010 . S
C1682 N971 1.009 . S
C1687 N905 1.010 . S
C1692 N1004 1.009 . S
C1697 C17 1.408 . S
C1702 C1007 1.410 . S
C1707 C512 1.409 . S
C1712 C50 1.408 . S
C1717 C941 1.408 . S
C1722 C83 1.410 . S
C1727 C116 1.410 . S
C1732 C446 1.408 . S
C1737 C149 1.408 . S
C1742 C875 1.410 . S
C1747 C380 1.410 . S
C1752 C182 1.408 . S
C1757 C215 1.408 . S
C1762 C809 1.410 . S
C1767 C248 1.409 . S
C1772 C314 1.408 . S
C1777 C281 1.410 . S
C1782 C743 1.408 . S
C1787 C347 1.410 . S
C1792 C677 1.408 . S
C1797 C413 1.408 . S
C1802 C611 1.410 . S
C1807 C479 1.408 . S
C1812 C545 1.409 . S
C1817 C578 1.408 . S
C1822 C1040 1.409 . S
C1827 C974 1.408 . S
C1832 C644 1.410 . S
C1837 C908 1.410 . S
C1842 C710 1.408 . S
C1847 C842 1.408 . S
C1852 C776 1.410 . S
