# Generated by pormake.
# Topology qtz-h, (3)-cn, num edge types: 1
# Building blocks:
#     Node 0, Type 0, BuildingBlock: OLANEW_clean_sbu_2, # of connection points: 3
#     Node 1, Type 0, BuildingBlock: OLANEW_clean_sbu_2, # of connection points: 3
#     Node 2, Type 0, BuildingBlock: OLANEW_clean_sbu_2, # of connection points: 3
#     Node 3, Type 0, BuildingBlock: OLANEW_clean_sbu_2, # of connection points: 3
#     Node 4, Type 0, BuildingBlock: OLANEW_clean_sbu_2, # of connection points: 3
#     Node 5, Type 0, BuildingBlock: OLANEW_clean_sbu_2, # of connection points: 3
#     Node 6, Type 0, BuildingBlock: OLANEW_clean_sbu_2, # of connection points: 3
#     Node 7, Type 0, BuildingBlock: OLANEW_clean_sbu_2, # of connection points: 3
#     Node 8, Type 0, BuildingBlock: OLANEW_clean_sbu_2, # of connection points: 3
#     Node 9, Type 0, BuildingBlock: OLANEW_clean_sbu_2, # of connection points: 3
#     Node 10, Type 0, BuildingBlock: OLANEW_clean_sbu_2, # of connection points: 3
#     Node 11, Type 0, BuildingBlock: OLANEW_clean_sbu_2, # of connection points: 3
#     Edge 12, Type (0, 0), BuildingBlock: UVAHIK_clean_linker_0, # of connection points: 2
#     Edge 13, Type (0, 0), BuildingBlock: UVAHIK_clean_linker_0, # of connection points: 2
#     Edge 14, Type (0, 0), BuildingBlock: UVAHIK_clean_linker_0, # of connection points: 2
#     Edge 15, Type (0, 0), BuildingBlock: UVAHIK_clean_linker_0, # of connection points: 2
#     Edge 16, Type (0, 0), BuildingBlock: UVAHIK_clean_linker_0, # of connection points: 2
#     Edge 17, Type (0, 0), BuildingBlock: UVAHIK_clean_linker_0, # of connection points: 2
#     Edge 18, Type (0, 0), BuildingBlock: UVAHIK_clean_linker_0, # of connection points: 2
#     Edge 19, Type (0, 0), BuildingBlock: UVAHIK_clean_linker_0, # of connection points: 2
#     Edge 20, Type (0, 0), BuildingBlock: UVAHIK_clean_linker_0, # of connection points: 2
#     Edge 21, Type (0, 0), BuildingBlock: UVAHIK_clean_linker_0, # of connection points: 2
#     Edge 22, Type (0, 0), BuildingBlock: UVAHIK_clean_linker_0, # of connection points: 2
#     Edge 23, Type (0, 0), BuildingBlock: UVAHIK_clean_linker_0, # of connection points: 2
#     Edge 24, Type (0, 0), BuildingBlock: UVAHIK_clean_linker_0, # of connection points: 2
#     Edge 25, Type (0, 0), BuildingBlock: UVAHIK_clean_linker_0, # of connection points: 2
#     Edge 26, Type (0, 0), BuildingBlock: UVAHIK_clean_linker_0, # of connection points: 2
#     Edge 27, Type (0, 0), BuildingBlock: UVAHIK_clean_linker_0, # of connection points: 2
#     Edge 28, Type (0, 0), BuildingBlock: UVAHIK_clean_linker_0, # of connection points: 2
#     Edge 29, Type (0, 0), BuildingBlock: UVAHIK_clean_linker_0, # of connection points: 2
# Relax obj value: 0.007
# Max RMSD: 0.036
# Mean RMSD: 0.036
data_MOF--net-qtz-h--node1-OLANEW_clean_sbu_2--edge1-UVAHIK_clean_linker_0
_symmetry_space_group_name_H-M    P1
_symmetry_Int_Tables_number       1
_symmetry_cell_setting            triclinic
loop_
_symmetry_equiv_pos_as_xyz
'x, y, z'
_cell_length_a     75.426156
_cell_length_b     75.491076
_cell_length_c     88.22978
_cell_angle_alpha  90.092685
_cell_angle_beta   89.988192
_cell_angle_gamma 119.97054
loop_
_atom_site_label
_atom_site_type_symbol
_atom_site_fract_x
_atom_site_fract_y
_atom_site_fract_z
_atom_type_partial_charge
O0 O 0.63229 0.20847 0.08447 0.0
Cd1 Cd 0.64053 0.2083 0.11124 0.0
O2 O 0.60892 0.17637 0.08725 0.0
Cd3 Cd 0.58306 0.14615 0.0817 0.0
O4 O 0.56028 0.11403 0.07809 0.0
C5 C 0.56616 0.10092 0.07849 0.0
O6 O 0.58563 0.10725 0.08085 0.0
C7 C 0.6181 0.19201 0.07875 0.0
C8 C 0.64319 0.24153 0.1271 0.0
O9 O 0.65916 0.24231 0.12131 0.0
O10 O 0.62597 0.22506 0.12533 0.0
O11 O 0.42669 0.64308 0.41352 0.0
Cd12 Cd 0.4356 0.65338 0.43997 0.0
O13 O 0.4353 0.61981 0.41749 0.0
Cd14 Cd 0.43934 0.59346 0.41314 0.0
O15 O 0.44823 0.57019 0.41041 0.0
C16 C 0.46641 0.57487 0.41391 0.0
O17 O 0.479 0.59341 0.41892 0.0
C18 C 0.42874 0.62842 0.4085 0.0
C19 C 0.40344 0.65293 0.45591 0.0
O20 O 0.41724 0.66933 0.44957 0.0
O21 O 0.40484 0.63675 0.45467 0.0
O22 O 0.77848 0.42939 0.7464 0.0
Cd23 Cd 0.77771 0.43931 0.77266 0.0
O24 O 0.80998 0.43659 0.75041 0.0
Cd25 Cd 0.83965 0.43883 0.74617 0.0
O26 O 0.87131 0.44581 0.74375 0.0
C27 C 0.88509 0.46419 0.7412 0.0
O28 O 0.87975 0.47823 0.73986 0.0
C29 C 0.79479 0.43041 0.74145 0.0
C30 C 0.74678 0.40743 0.78926 0.0
O31 O 0.74367 0.42077 0.78269 0.0
O32 O 0.76452 0.40918 0.78798 0.0
O33 O 0.34654 0.77989 0.08292 0.0
Cd34 Cd 0.33782 0.77903 0.10969 0.0
O35 O 0.37111 0.81134 0.08659 0.0
Cd36 Cd 0.39816 0.84098 0.08171 0.0
O37 O 0.42235 0.87269 0.07869 0.0
C38 C 0.41734 0.88604 0.07559 0.0
O39 O 0.39785 0.88022 0.07402 0.0
C40 C 0.36143 0.79622 0.07766 0.0
C41 C 0.33793 0.74683 0.12505 0.0
O42 O 0.32142 0.74476 0.11926 0.0
O43 O 0.35439 0.76411 0.12355 0.0
O44 O 0.55496 0.34576 0.41426 0.0
Cd45 Cd 0.54561 0.33521 0.44059 0.0
O46 O 0.5512 0.37202 0.41935 0.0
Cd47 Cd 0.55147 0.40097 0.41647 0.0
O48 O 0.54533 0.42624 0.41463 0.0
C49 C 0.52821 0.4226 0.40922 0.0
O50 O 0.51512 0.40394 0.4047 0.0
C51 C 0.55553 0.36205 0.40983 0.0
C52 C 0.57775 0.33596 0.45675 0.0
O53 O 0.56415 0.31953 0.45028 0.0
O54 O 0.57613 0.35201 0.45558 0.0
O55 O 0.20566 0.56009 0.74664 0.0
Cd56 Cd 0.2062 0.55017 0.77292 0.0
O57 O 0.17402 0.55258 0.75045 0.0
Cd58 Cd 0.14424 0.54996 0.74598 0.0
O59 O 0.11236 0.54211 0.74318 0.0
C60 C 0.09864 0.52335 0.74375 0.0
O61 O 0.10421 0.50958 0.74582 0.0
C62 C 0.18932 0.55889 0.74158 0.0
C63 C 0.23724 0.58191 0.78962 0.0
O64 O 0.24018 0.56841 0.78311 0.0
O65 O 0.21961 0.58038 0.78823 0.0
O66 O 0.77754 0.35055 0.58241 0.0
Cd67 Cd 0.77674 0.34111 0.55581 0.0
O68 O 0.8094 0.37424 0.57888 0.0
Cd69 Cd 0.83948 0.40072 0.58378 0.0
O70 O 0.8715 0.42412 0.58697 0.0
C71 C 0.88488 0.41857 0.58705 0.0
O72 O 0.87888 0.39907 0.58541 0.0
C73 C 0.79407 0.36519 0.5877 0.0
C74 C 0.74421 0.34025 0.54013 0.0
O75 O 0.74241 0.32401 0.5462 0.0
O76 O 0.76137 0.35688 0.5415 0.0
O77 O 0.42033 0.77995 0.91747 0.0
Cd78 Cd 0.4295 0.77919 0.89101 0.0
O79 O 0.42857 0.8118 0.91389 0.0
Cd80 Cd 0.43204 0.84187 0.91861 0.0
O81 O 0.44016 0.87381 0.92134 0.0
C82 C 0.45872 0.88709 0.92395 0.0
O83 O 0.47228 0.88109 0.92518 0.0
C84 C 0.42209 0.79646 0.92269 0.0
C85 C 0.39804 0.74689 0.87501 0.0
O86 O 0.41229 0.74494 0.88129 0.0
O87 O 0.39867 0.76411 0.87632 0.0
O88 O 0.6454 0.43248 0.2556 0.0
Cd89 Cd 0.65831 0.44255 0.2298 0.0
O90 O 0.61846 0.43428 0.24865 0.0
Cd91 Cd 0.59017 0.43482 0.25291 0.0
O92 O 0.56589 0.44239 0.25534 0.0
C93 C 0.57087 0.46108 0.25406 0.0
O94 O 0.59014 0.4747 0.25151 0.0
C95 C 0.62814 0.43065 0.25883 0.0
C96 C 0.65599 0.41002 0.21316 0.0
O97 O 0.67235 0.42238 0.22035 0.0
O98 O 0.64074 0.41305 0.21386 0.0
O99 O 0.20609 0.64003 0.58319 0.0
Cd100 Cd 0.20666 0.64987 0.55674 0.0
O101 O 0.17443 0.61594 0.57946 0.0
Cd102 Cd 0.14464 0.58895 0.58411 0.0
O103 O 0.11289 0.56471 0.58692 0.0
C104 C 0.09931 0.56968 0.58925 0.0
O105 O 0.10491 0.58917 0.59014 0.0
C106 C 0.18971 0.62507 0.58833 0.0
C107 C 0.23871 0.65044 0.54056 0.0
O108 O 0.24083 0.66669 0.54688 0.0
O109 O 0.22144 0.63393 0.54192 0.0
O110 O 0.56406 0.2091 0.91706 0.0
Cd111 Cd 0.55573 0.20925 0.89031 0.0
O112 O 0.55661 0.17742 0.91374 0.0
Cd113 Cd 0.55325 0.14749 0.91879 0.0
O114 O 0.54433 0.11541 0.92192 0.0
C115 C 0.52537 0.10221 0.92156 0.0
O116 O 0.5121 0.10844 0.91952 0.0
C117 C 0.5624 0.19276 0.92251 0.0
C118 C 0.58705 0.24184 0.87452 0.0
O119 O 0.57232 0.24334 0.8804 0.0
O120 O 0.58699 0.22494 0.87615 0.0
O121 O 0.34898 0.56084 0.2502 0.0
Cd122 Cd 0.33847 0.55084 0.22392 0.0
O123 O 0.37265 0.55262 0.2467 0.0
Cd124 Cd 0.39946 0.5494 0.25121 0.0
O125 O 0.42359 0.54163 0.25357 0.0
C126 C 0.41866 0.52324 0.25645 0.0
O127 O 0.39922 0.50958 0.2582 0.0
C128 C 0.3639 0.55939 0.25541 0.0
C129 C 0.33831 0.58233 0.20753 0.0
O130 O 0.32204 0.56857 0.21405 0.0
O131 O 0.35463 0.58115 0.20874 0.0
C132 C 0.67237 0.39137 0.20163 0.0
C133 C 0.65475 0.39279 0.20428 0.0
C134 C 0.67122 0.37518 0.19313 0.0
C135 C 0.63798 0.33478 0.16563 0.0
H136 H 0.67115 0.31091 0.17709 0.0
C137 C 0.62679 0.25926 0.14007 0.0
C138 C 0.64461 0.25907 0.13567 0.0
C139 C 0.62812 0.27576 0.14825 0.0
C140 C 0.66193 0.31754 0.17369 0.0
H141 H 0.62207 0.3782 0.20027 0.0
H142 H 0.61995 0.34969 0.18582 0.0
H143 H 0.67312 0.33912 0.19191 0.0
H144 H 0.67779 0.27603 0.13641 0.0
H145 H 0.68008 0.30476 0.15081 0.0
H146 H 0.62654 0.31285 0.14756 0.0
C147 C 0.63476 0.36132 0.18997 0.0
C148 C 0.66309 0.33376 0.18214 0.0
C149 C 0.63595 0.37761 0.19834 0.0
C150 C 0.66378 0.27571 0.13963 0.0
C151 C 0.6651 0.29211 0.14794 0.0
C152 C 0.6367 0.31844 0.15726 0.0
C153 C 0.6524 0.35992 0.18721 0.0
C154 C 0.65115 0.34262 0.17821 0.0
C155 C 0.64729 0.29231 0.15232 0.0
C156 C 0.64868 0.30967 0.16119 0.0
H157 H 0.68711 0.40288 0.20597 0.0
H158 H 0.68518 0.3748 0.19105 0.0
H159 H 0.62884 0.34143 0.16209 0.0
H160 H 0.61179 0.24667 0.13719 0.0
H161 H 0.61413 0.27542 0.15158 0.0
C162 C 0.36989 0.63414 0.46952 0.0
C163 C 0.38644 0.65269 0.46446 0.0
C164 C 0.35387 0.63391 0.47765 0.0
C165 C 0.33005 0.66559 0.48626 0.0
H166 H 0.30515 0.62724 0.51938 0.0
C167 C 0.27343 0.66934 0.52857 0.0
C168 C 0.25567 0.65073 0.53191 0.0
C169 C 0.28936 0.66962 0.52028 0.0
C170 C 0.31185 0.63792 0.51008 0.0
H171 H 0.39922 0.68558 0.46404 0.0
H172 H 0.37156 0.68525 0.47852 0.0
H173 H 0.3331 0.62779 0.50512 0.0
H174 H 0.24077 0.61779 0.52925 0.0
H175 H 0.26869 0.61829 0.51489 0.0
H176 H 0.30895 0.67593 0.49146 0.0
C177 C 0.37069 0.6708 0.47595 0.0
C178 C 0.32784 0.63821 0.50187 0.0
C179 C 0.38663 0.67102 0.46771 0.0
C180 C 0.25424 0.63239 0.52687 0.0
C181 C 0.27026 0.63265 0.51871 0.0
C182 C 0.31419 0.66542 0.49457 0.0
C183 C 0.35409 0.65225 0.48102 0.0
C184 C 0.33712 0.65201 0.48982 0.0
C185 C 0.28796 0.65127 0.51529 0.0
C186 C 0.30489 0.65155 0.50654 0.0
H187 H 0.36922 0.61975 0.46712 0.0
H188 H 0.34119 0.61931 0.48113 0.0
H189 H 0.33656 0.67619 0.4769 0.0
H190 H 0.275 0.68374 0.53229 0.0
H191 H 0.3029 0.68418 0.51793 0.0
C192 C 0.62098 0.25825 0.86131 0.0
C193 C 0.60358 0.25904 0.866 0.0
C194 C 0.63654 0.27445 0.8532 0.0
C195 C 0.64644 0.31751 0.82853 0.0
H196 H 0.70324 0.33823 0.83949 0.0
C197 C 0.712 0.39026 0.8012 0.0
C198 C 0.73039 0.39051 0.79808 0.0
C199 C 0.69656 0.37433 0.8096 0.0
C200 C 0.68748 0.33246 0.83613 0.0
H201 H 0.58885 0.27744 0.86584 0.0
H202 H 0.61598 0.30566 0.85158 0.0
H203 H 0.67625 0.31012 0.85386 0.0
H204 H 0.74693 0.37413 0.80119 0.0
H205 H 0.71986 0.34612 0.81551 0.0
H206 H 0.65757 0.33954 0.81065 0.0
C207 C 0.61754 0.29248 0.85415 0.0
C208 C 0.67203 0.31639 0.84441 0.0
C209 C 0.60206 0.27636 0.86239 0.0
C210 C 0.73298 0.37445 0.80348 0.0
C211 C 0.71749 0.35844 0.81178 0.0
C212 C 0.66189 0.33347 0.82017 0.0
C213 C 0.63494 0.29169 0.84948 0.0
C214 C 0.65135 0.30877 0.84071 0.0
C215 C 0.69909 0.35819 0.81498 0.0
C216 C 0.68262 0.34117 0.82387 0.0
H217 H 0.62262 0.24512 0.86391 0.0
H218 H 0.6497 0.27335 0.84962 0.0
H219 H 0.63064 0.31176 0.82529 0.0
H220 H 0.70956 0.40246 0.79727 0.0
H221 H 0.68275 0.37484 0.81204 0.0
C222 C 0.31982 0.59878 0.19587 0.0
C223 C 0.33828 0.59909 0.19888 0.0
C224 C 0.3198 0.61462 0.1877 0.0
C225 C 0.35247 0.66856 0.17742 0.0
H226 H 0.31311 0.65607 0.14509 0.0
C227 C 0.35653 0.73122 0.13779 0.0
C228 C 0.338 0.72979 0.13328 0.0
C229 C 0.3566 0.71517 0.14562 0.0
C230 C 0.32403 0.65986 0.15422 0.0
H231 H 0.37119 0.61631 0.19571 0.0
H232 H 0.37113 0.64403 0.18153 0.0
H233 H 0.31303 0.62829 0.15922 0.0
H234 H 0.30498 0.71044 0.13353 0.0
H235 H 0.30505 0.68267 0.14749 0.0
H236 H 0.36327 0.70009 0.17266 0.0
C237 C 0.3567 0.63154 0.18553 0.0
C238 C 0.324 0.64392 0.16228 0.0
C239 C 0.35671 0.61561 0.19358 0.0
C240 C 0.31953 0.71197 0.13677 0.0
C241 C 0.31958 0.69599 0.14471 0.0
C242 C 0.35239 0.68451 0.16945 0.0
C243 C 0.33824 0.6312 0.18249 0.0
C244 C 0.33824 0.64811 0.17394 0.0
C245 C 0.33812 0.69737 0.14923 0.0
C246 C 0.33819 0.68037 0.15773 0.0
H247 H 0.30536 0.58628 0.1998 0.0
H248 H 0.30536 0.61404 0.18564 0.0
H249 H 0.36345 0.67225 0.18649 0.0
H250 H 0.37104 0.7447 0.13519 0.0
H251 H 0.37118 0.71665 0.14868 0.0
C252 C 0.70937 0.3211 0.52833 0.0
C253 C 0.727 0.3398 0.53172 0.0
C254 C 0.69322 0.32067 0.52024 0.0
C255 C 0.68096 0.35241 0.49497 0.0
H256 H 0.62493 0.31255 0.50526 0.0
C257 C 0.61117 0.35501 0.47056 0.0
C258 C 0.59481 0.33638 0.46535 0.0
C259 C 0.62732 0.35542 0.47862 0.0
C260 C 0.64051 0.32366 0.50219 0.0
H261 H 0.74142 0.37273 0.52948 0.0
H262 H 0.71308 0.37203 0.51573 0.0
H263 H 0.65301 0.31342 0.51958 0.0
H264 H 0.58251 0.30356 0.46459 0.0
H265 H 0.61066 0.3043 0.47879 0.0
H266 H 0.66834 0.36283 0.47774 0.0
C267 C 0.71187 0.35764 0.51898 0.0
C268 C 0.65662 0.32414 0.51035 0.0
C269 C 0.72809 0.35806 0.52696 0.0
C270 C 0.59489 0.31816 0.46844 0.0
C271 C 0.61095 0.31856 0.47664 0.0
C272 C 0.66484 0.35204 0.4869 0.0
C273 C 0.69425 0.33894 0.51547 0.0
C274 C 0.67707 0.33849 0.50683 0.0
C275 C 0.62735 0.3372 0.48178 0.0
C276 C 0.64445 0.33763 0.4904 0.0
H277 H 0.70811 0.30675 0.53177 0.0
H278 H 0.68006 0.30597 0.51754 0.0
H279 H 0.69649 0.36343 0.49175 0.0
H280 H 0.61156 0.36931 0.46836 0.0
H281 H 0.63967 0.36999 0.48256 0.0
C282 C 0.27189 0.59872 0.8018 0.0
C283 C 0.25369 0.59877 0.79848 0.0
C284 C 0.28739 0.61461 0.81023 0.0
C285 C 0.30773 0.66836 0.82077 0.0
H286 H 0.33376 0.65603 0.85378 0.0
C287 C 0.36435 0.73105 0.86147 0.0
C288 C 0.38139 0.72982 0.86644 0.0
C289 C 0.34866 0.71496 0.85333 0.0
C290 C 0.32687 0.65978 0.84447 0.0
H291 H 0.23752 0.61559 0.80133 0.0
H292 H 0.26468 0.64341 0.81592 0.0
H293 H 0.30678 0.6282 0.83913 0.0
H294 H 0.3954 0.71077 0.86669 0.0
H295 H 0.36832 0.68294 0.85217 0.0
H296 H 0.32799 0.69991 0.82586 0.0
C297 C 0.26694 0.63108 0.81199 0.0
C298 C 0.31137 0.64381 0.83611 0.0
C299 C 0.25136 0.61509 0.8037 0.0
C300 C 0.38242 0.71215 0.86309 0.0
C301 C 0.36681 0.69613 0.85483 0.0
C302 C 0.32335 0.68435 0.82903 0.0
C303 C 0.2851 0.63098 0.81537 0.0
C304 C 0.30161 0.64793 0.8242 0.0
C305 C 0.34971 0.69731 0.84985 0.0
C306 C 0.3331 0.68027 0.84102 0.0
H307 H 0.27416 0.58636 0.79795 0.0
H308 H 0.3013 0.61423 0.81255 0.0
H309 H 0.30067 0.672 0.81152 0.0
H310 H 0.36304 0.74441 0.86395 0.0
H311 H 0.33558 0.71629 0.84991 0.0
C312 C 0.4274 0.92277 0.07178 0.0
C313 C 0.43311 0.90793 0.07438 0.0
C314 C 0.44217 0.94351 0.07124 0.0
C315 C 0.4947 0.9799 0.08388 0.0
H316 H 0.49041 0.0164 0.05514 0.0
C317 C 0.55776 0.06436 0.078 0.0
C318 C 0.55128 0.07882 0.07683 0.0
C319 C 0.54367 0.04346 0.07692 0.0
C320 C 0.49172 0.00642 0.06332 0.0
H321 H 0.4589 0.90324 0.07812 0.0
H322 H 0.48469 0.93941 0.07699 0.0
H323 H 0.46532 0.97994 0.05452 0.0
H324 H 0.52491 0.08266 0.07339 0.0
H325 H 0.5003 0.04616 0.0716 0.0
H326 H 0.52103 0.00637 0.09273 0.0
C327 C 0.46874 0.93503 0.07561 0.0
C328 C 0.47735 0.98554 0.06297 0.0
C329 C 0.45396 0.91428 0.07617 0.0
C330 C 0.53042 0.07192 0.07433 0.0
C331 C 0.51632 0.05101 0.07322 0.0
C332 C 0.50908 0.00076 0.08422 0.0
C333 C 0.46301 0.94991 0.07326 0.0
C334 C 0.47862 0.97203 0.07329 0.0
C335 C 0.52277 0.03653 0.07461 0.0
C336 C 0.50772 0.01428 0.07398 0.0
H337 H 0.41146 0.91841 0.07038 0.0
H338 H 0.43719 0.95457 0.06959 0.0
H339 H 0.49594 0.96999 0.09217 0.0
H340 H 0.57373 0.06915 0.07986 0.0
H341 H 0.54917 0.03272 0.07783 0.0
C342 C 0.50336 0.4345 0.40329 0.0
C343 C 0.5227 0.43887 0.4086 0.0
C344 C 0.49783 0.44962 0.40321 0.0
C345 C 0.51052 0.49866 0.42131 0.0
H346 H 0.47925 0.50287 0.38803 0.0
C347 C 0.49316 0.56475 0.41698 0.0
C348 C 0.47324 0.55964 0.41262 0.0
C349 C 0.49957 0.55032 0.41604 0.0
C350 C 0.48781 0.50176 0.39747 0.0
H351 H 0.55156 0.46269 0.41774 0.0
H352 H 0.54199 0.48913 0.41745 0.0
H353 H 0.48998 0.47729 0.38704 0.0
H354 H 0.44446 0.53537 0.40372 0.0
H355 H 0.45561 0.51015 0.40217 0.0
H356 H 0.50831 0.52308 0.43175 0.0
C357 C 0.53098 0.47391 0.41355 0.0
C358 C 0.49397 0.48711 0.39691 0.0
C359 C 0.53651 0.45879 0.41364 0.0
C360 C 0.45991 0.53981 0.40716 0.0
C361 C 0.46634 0.52539 0.40619 0.0
C362 C 0.5044 0.51332 0.42186 0.0
C363 C 0.51152 0.46947 0.40844 0.0
C364 C 0.50535 0.48535 0.40884 0.0
C365 C 0.48622 0.53045 0.41068 0.0
C366 C 0.49293 0.51501 0.40997 0.0
H367 H 0.49234 0.41931 0.39936 0.0
H368 H 0.48264 0.44561 0.39937 0.0
H369 H 0.51897 0.4975 0.43081 0.0
H370 H 0.50385 0.5799 0.42119 0.0
H371 H 0.51506 0.55479 0.4194 0.0
C372 C 0.91273 0.45495 0.74193 0.0
C373 C 0.9069 0.46986 0.7403 0.0
C374 C 0.93339 0.46044 0.74157 0.0
C375 C 0.98454 0.50168 0.72952 0.0
H376 H 0.004 0.47707 0.75883 0.0
C377 C 0.07059 0.53171 0.74032 0.0
C378 C 0.07669 0.51708 0.74248 0.0
C379 C 0.04983 0.52574 0.73948 0.0
C380 C -0.00122 0.48391 0.75045 0.0
H381 H 0.91821 0.50222 0.73686 0.0
H382 H 0.95421 0.51181 0.73639 0.0
H383 H 0.96786 0.46694 0.75831 0.0
H384 H 0.06576 0.48468 0.74526 0.0
H385 H 0.02961 0.4743 0.74369 0.0
H386 H 0.01553 0.51876 0.72175 0.0
C387 C 0.94281 0.49583 0.73776 0.0
C388 C 0.97805 0.47809 0.75014 0.0
C389 C 0.92217 0.49034 0.73812 0.0
C390 C 0.06159 0.49635 0.74365 0.0
C391 C 0.04085 0.4904 0.74283 0.0
C392 C 0.00529 0.50752 0.72984 0.0
C393 C 0.94868 0.48097 0.73958 0.0
C394 C 0.97068 0.48693 0.73969 0.0
C395 C 0.03472 0.50503 0.74081 0.0
C396 C 0.01264 0.49871 0.74033 0.0
H397 H 0.90136 0.43901 0.74357 0.0
H398 H 0.93737 0.44858 0.74279 0.0
H399 H 0.97932 0.50857 0.72119 0.0
H400 H 0.08183 0.5478 0.7394 0.0
H401 H 0.04561 0.53741 0.73808 0.0
C402 C 0.06237 0.55944 0.59221 0.0
C403 C 0.07742 0.55383 0.59037 0.0
C404 C 0.04165 0.54455 0.59273 0.0
C405 C 0.00586 0.49127 0.58137 0.0
H406 H 0.96864 0.49653 0.60889 0.0
C407 C 0.92166 0.42767 0.58793 0.0
C408 C 0.90691 0.43384 0.5885 0.0
C409 C 0.9425 0.44208 0.58885 0.0
C410 C 0.97882 0.49495 0.60105 0.0
H411 H 0.08252 0.52811 0.58795 0.0
H412 H 0.04639 0.50213 0.58903 0.0
H413 H 0.00501 0.52202 0.60939 0.0
H414 H 0.9025 0.46002 0.59067 0.0
H415 H 0.93889 0.48518 0.59218 0.0
H416 H 0.97968 0.46426 0.57299 0.0
C417 C 0.05059 0.51807 0.58983 0.0
C418 C -0.00035 0.50955 0.60133 0.0
C419 C 0.07131 0.53297 0.5893 0.0
C420 C 0.91346 0.45474 0.59021 0.0
C421 C 0.93432 0.46916 0.59116 0.0
C422 C 0.98504 0.47666 0.58111 0.0
C423 C 0.0355 0.52369 0.59145 0.0
C424 C 0.01341 0.50792 0.59146 0.0
C425 C 0.94908 0.463 0.59039 0.0
C426 C 0.97127 0.47836 0.59091 0.0
H427 H 0.06654 0.57538 0.59304 0.0
H428 H 0.03042 0.54943 0.5938 0.0
H429 H 0.01597 0.48973 0.57344 0.0
H430 H 0.91715 0.41168 0.58668 0.0
H431 H 0.95347 0.43681 0.58843 0.0
C432 C 0.48583 0.9238 0.92718 0.0
C433 C 0.46514 0.90907 0.92499 0.0
C434 C 0.49204 0.94461 0.92763 0.0
C435 C 0.47594 0.98118 0.91545 0.0
H436 H 0.51761 0.0178 0.94372 0.0
C437 C 0.49737 0.06559 0.92193 0.0
C438 C 0.51832 0.08012 0.92296 0.0
C439 C 0.49068 0.0447 0.92281 0.0
C440 C 0.50609 0.00779 0.93567 0.0
H441 H 0.43465 0.90465 0.92185 0.0
H442 H 0.44546 0.94094 0.9228 0.0
H443 H 0.50615 0.98131 0.94426 0.0
H444 H 0.54866 0.08409 0.92589 0.0
H445 H 0.53697 0.04761 0.92732 0.0
H446 H 0.47593 0.00764 0.90682 0.0
C447 C 0.45694 0.93641 0.92394 0.0
C448 C 0.49952 0.98689 0.93597 0.0
C449 C 0.45074 0.9156 0.92348 0.0
C450 C 0.53241 0.0733 0.92507 0.0
C451 C 0.5257 0.05239 0.92597 0.0
C452 C 0.48249 0.00206 0.91516 0.0
C453 C 0.47769 0.95117 0.92591 0.0
C454 C 0.4844 0.97334 0.92584 0.0
C455 C 0.50477 0.03785 0.92475 0.0
C456 C 0.49766 0.01562 0.92524 0.0
H457 H 0.49733 0.9193 0.92836 0.0
H458 H 0.50817 0.95557 0.92898 0.0
H459 H 0.46453 0.97124 0.90731 0.0
H460 H 0.4861 0.07031 0.92036 0.0
H461 H 0.47443 0.03391 0.92204 0.0
C462 C 0.42889 0.49661 0.25989 0.0
C463 C 0.43447 0.51711 0.25726 0.0
C464 C 0.44372 0.49066 0.26014 0.0
C465 C 0.49592 0.5067 0.24672 0.0
H466 H 0.49324 0.46725 0.27607 0.0
C467 C 0.5609 0.48811 0.25329 0.0
C468 C 0.55526 0.46745 0.25511 0.0
C469 C 0.5462 0.49418 0.25396 0.0
C470 C 0.49407 0.47813 0.26771 0.0
H471 H 0.46008 0.54751 0.25309 0.0
H472 H 0.48595 0.53717 0.25368 0.0
H473 H 0.46761 0.47798 0.27666 0.0
H474 H 0.52972 0.43698 0.25919 0.0
H475 H 0.50401 0.44758 0.26026 0.0
H476 H 0.52233 0.50684 0.23774 0.0
C477 C 0.47007 0.52563 0.25533 0.0
C478 C 0.4794 0.48428 0.26804 0.0
C479 C 0.45525 0.53158 0.25508 0.0
C480 C 0.53458 0.45302 0.25776 0.0
C481 C 0.51986 0.45911 0.25845 0.0
C482 C 0.51059 0.50057 0.24639 0.0
C483 C 0.46446 0.50507 0.25776 0.0
C484 C 0.48015 0.49864 0.25755 0.0
C485 C 0.5255 0.47975 0.25648 0.0
C486 C 0.50985 0.48622 0.25688 0.0
H487 H 0.41302 0.48506 0.26158 0.0
H488 H 0.43885 0.47467 0.26187 0.0
H489 H 0.49674 0.51751 0.2383 0.0
H490 H 0.5767 0.49964 0.2513 0.0
H491 H 0.55109 0.51023 0.25262 0.0
C492 C 0.55923 0.17363 0.94663 0.0
C493 C 0.56766 0.19215 0.93861 0.0
C494 C 0.56457 0.17332 0.96177 0.0
C495 C 0.58269 0.20469 0.99591 0.0
H496 H 0.60143 0.16758 0.00844 0.0
C497 C 0.61644 0.20983 0.05541 0.0
C498 C 0.61224 0.19159 0.06267 0.0
C499 C 0.61096 0.20972 0.04027 0.0
C500 C 0.59591 0.17782 0.00524 0.0
H501 H 0.58768 0.22498 0.94039 0.0
H502 H 0.5966 0.22445 0.96693 0.0
H503 H 0.5913 0.16744 0.98217 0.0
H504 H 0.60033 0.15914 0.05926 0.0
H505 H 0.58948 0.15862 0.03328 0.0
H506 H 0.58669 0.21475 0.01894 0.0
C507 C 0.58611 0.21016 0.9614 0.0
C508 C 0.59021 0.17777 0.99015 0.0
C509 C 0.58101 0.21043 0.94622 0.0
C510 C 0.60287 0.17329 0.05431 0.0
C511 C 0.59712 0.17311 0.03922 0.0
C512 C 0.58809 0.20454 0.01104 0.0
C513 C 0.57807 0.19158 0.96928 0.0
C514 C 0.58368 0.1913 0.98534 0.0
C515 C 0.60103 0.19132 0.03199 0.0
C516 C 0.59492 0.19119 0.0159 0.0
H517 H 0.54807 0.15943 0.94144 0.0
H518 H 0.55782 0.15884 0.9677 0.0
H519 H 0.57746 0.2151 0.99252 0.0
H520 H 0.6239 0.22426 0.06146 0.0
H521 H 0.61471 0.22414 0.03503 0.0
C522 C 0.3818 0.55854 0.27927 0.0
C523 C 0.37109 0.5662 0.27111 0.0
C524 C 0.38874 0.56541 0.29399 0.0
C525 C 0.39854 0.60754 0.32088 0.0
H526 H 0.39889 0.57019 0.35084 0.0
C527 C 0.40877 0.6252 0.38504 0.0
C528 C 0.42293 0.62141 0.39264 0.0
C529 C 0.40308 0.61868 0.3701 0.0
C530 C 0.39901 0.58081 0.34254 0.0
H531 H 0.35842 0.58639 0.27231 0.0
H532 H 0.36971 0.59773 0.2981 0.0
H533 H 0.38727 0.55806 0.32512 0.0
H534 H 0.44332 0.60914 0.38999 0.0
H535 H 0.43259 0.59683 0.36417 0.0
H536 H 0.40967 0.63007 0.33854 0.0
C537 C 0.37355 0.58704 0.29297 0.0
C538 C 0.39245 0.57392 0.32777 0.0
C539 C 0.36686 0.58035 0.2782 0.0
C540 C 0.43158 0.61133 0.38483 0.0
C541 C 0.42567 0.60454 0.36994 0.0
C542 C 0.40481 0.61432 0.33569 0.0
C543 C 0.38476 0.57982 0.30103 0.0
C544 C 0.39207 0.58718 0.31673 0.0
C545 C 0.41135 0.60815 0.36245 0.0
C546 C 0.40507 0.60102 0.34667 0.0
H547 H 0.38448 0.54691 0.27449 0.0
H548 H 0.39733 0.55949 0.29979 0.0
H549 H 0.39892 0.61835 0.31265 0.0
H550 H 0.4019 0.63304 0.3907 0.0
H551 H 0.39196 0.6216 0.3646 0.0
C552 C 0.77723 0.41 0.71834 0.0
C553 C 0.79548 0.42386 0.72573 0.0
C554 C 0.77756 0.40362 0.70353 0.0
C555 C 0.81043 0.41741 0.66916 0.0
H556 H 0.7716 0.3616 0.6575 0.0
C557 C 0.81345 0.38163 0.61169 0.0
C558 C 0.79488 0.3717 0.60365 0.0
C559 C 0.81396 0.38797 0.62666 0.0
C560 C 0.78246 0.37726 0.6606 0.0
H561 H 0.82827 0.44297 0.72285 0.0
H562 H 0.82908 0.43092 0.69745 0.0
H563 H 0.77196 0.37269 0.68351 0.0
H564 H 0.76216 0.35987 0.60527 0.0
H565 H 0.76304 0.37057 0.63152 0.0
H566 H 0.82116 0.4217 0.64622 0.0
C567 C 0.81443 0.42499 0.70306 0.0
C568 C 0.78262 0.38368 0.67548 0.0
C569 C 0.81405 0.43155 0.71783 0.0
C570 C 0.77675 0.36761 0.6111 0.0
C571 C 0.77722 0.3737 0.62613 0.0
C572 C 0.81044 0.41089 0.65432 0.0
C573 C 0.79618 0.41088 0.69571 0.0
C574 C 0.79648 0.4039 0.67995 0.0
C575 C 0.79585 0.38409 0.63401 0.0
C576 C 0.79634 0.39081 0.64987 0.0
H577 H 0.76263 0.40396 0.72405 0.0
H578 H 0.76314 0.39315 0.69816 0.0
H579 H 0.82109 0.43318 0.67207 0.0
H580 H 0.82751 0.38404 0.60662 0.0
H581 H 0.82847 0.39557 0.6326 0.0
C582 C 0.37777 0.81565 0.05371 0.0
C583 C 0.3675 0.79703 0.06159 0.0
C584 C 0.38368 0.81615 0.03862 0.0
C585 C 0.3712 0.78497 0.00432 0.0
H586 H 0.42731 0.82225 0.99246 0.0
C587 C 0.40186 0.77909 0.94587 0.0
C588 C 0.41602 0.79722 0.93854 0.0
C589 C 0.39593 0.77949 0.96081 0.0
C590 C 0.41149 0.81198 0.99548 0.0
H591 H 0.3546 0.76421 0.0596 0.0
H592 H 0.36454 0.76506 0.03316 0.0
H593 H 0.41662 0.82244 0.01853 0.0
H594 H 0.43612 0.82981 0.94164 0.0
H595 H 0.42487 0.83079 0.96727 0.0
H596 H 0.36582 0.77475 0.98131 0.0
C597 C 0.36827 0.77929 0.03874 0.0
C598 C 0.40542 0.81205 0.01044 0.0
C599 C 0.36262 0.77883 0.05388 0.0
C600 C 0.42446 0.81572 0.94662 0.0
C601 C 0.41836 0.81618 0.96152 0.0
C602 C 0.37718 0.78508 0.98932 0.0
C603 C 0.37901 0.79797 0.03101 0.0
C604 C 0.38527 0.79842 0.01503 0.0
C605 C 0.40396 0.79807 0.96881 0.0
C606 C 0.39746 0.79844 0.98471 0.0
H607 H 0.38079 0.8298 0.059 0.0
H608 H 0.39157 0.8307 0.03281 0.0
H609 H 0.3555 0.77449 0.00753 0.0
H610 H 0.39525 0.76453 0.94003 0.0
H611 H 0.38521 0.76516 0.96612 0.0
C612 C 0.57305 0.36233 0.38571 0.0
C613 C 0.56175 0.36921 0.39405 0.0
C614 C 0.5792 0.369 0.37087 0.0
C615 C 0.59234 0.41132 0.34546 0.0
H616 H 0.58127 0.37228 0.31308 0.0
C617 C 0.63273 0.43168 0.2869 0.0
C618 C 0.61971 0.42461 0.27424 0.0
C619 C 0.62484 0.42549 0.3015 0.0
C620 C 0.58438 0.38332 0.32202 0.0
H621 H 0.54672 0.38728 0.39272 0.0
H622 H 0.55857 0.39992 0.36717 0.0
H623 H 0.56886 0.36 0.33876 0.0
H624 H 0.58843 0.40507 0.2668 0.0
H625 H 0.57468 0.39392 0.29236 0.0
H626 H 0.60838 0.43464 0.32879 0.0
C627 C 0.56285 0.38956 0.37229 0.0
C628 C 0.5774 0.37632 0.33667 0.0
C629 C 0.55636 0.38257 0.38704 0.0
C630 C 0.59871 0.41108 0.2764 0.0
C631 C 0.59089 0.40456 0.29097 0.0
C632 C 0.59969 0.41833 0.33086 0.0
C633 C 0.57435 0.38284 0.36409 0.0
C634 C 0.58132 0.39026 0.34851 0.0
C635 C 0.60389 0.41173 0.30364 0.0
C636 C 0.59576 0.40438 0.31902 0.0
H637 H 0.57735 0.35191 0.3907 0.0
H638 H 0.58808 0.36362 0.36477 0.0
H639 H 0.59564 0.42235 0.35444 0.0
H640 H 0.64899 0.44206 0.28551 0.0
H641 H 0.63519 0.43108 0.3111 0.0
C642 C 0.20695 0.57943 0.71859 0.0
C643 C 0.18869 0.56539 0.72586 0.0
C644 C 0.20667 0.5858 0.70378 0.0
C645 C 0.17404 0.57188 0.66924 0.0
H646 H 0.21232 0.62796 0.658 0.0
C647 C 0.17045 0.60795 0.61217 0.0
C648 C 0.18901 0.61831 0.60418 0.0
C649 C 0.17004 0.60142 0.62706 0.0
C650 C 0.20162 0.61223 0.66098 0.0
H651 H 0.15598 0.54597 0.72277 0.0
H652 H 0.15524 0.55801 0.69739 0.0
H653 H 0.21205 0.61671 0.68392 0.0
H654 H 0.22181 0.63066 0.60579 0.0
H655 H 0.22112 0.61963 0.63189 0.0
H656 H 0.16337 0.56767 0.64627 0.0
C657 C 0.16986 0.56408 0.70308 0.0
C658 C 0.20151 0.60572 0.67581 0.0
C659 C 0.17019 0.55752 0.71784 0.0
C660 C 0.20723 0.6226 0.61159 0.0
C661 C 0.20686 0.61632 0.62653 0.0
C662 C 0.17399 0.57849 0.65445 0.0
C663 C 0.1881 0.57837 0.69586 0.0
C664 C 0.18783 0.5854 0.68012 0.0
C665 C 0.18825 0.60554 0.63437 0.0
C666 C 0.18788 0.59868 0.65015 0.0
H667 H 0.22152 0.5856 0.72438 0.0
H668 H 0.22109 0.59642 0.69851 0.0
H669 H 0.16352 0.55604 0.67202 0.0
H670 H 0.15629 0.60535 0.60714 0.0
H671 H 0.15553 0.59352 0.63296 0.0
loop_
_geom_bond_atom_site_label_1
_geom_bond_atom_site_label_2
_geom_bond_distance
_geom_bond_site_symmetry_2
_ccdc_geom_bond_type
O0 Cd1 2.300 . S
O0 C7 1.275 . S
Cd1 O0 2.300 . S
Cd1 O9 2.381 . S
Cd1 O10 2.378 . S
O2 Cd3 2.385 . S
O2 C7 1.255 . S
Cd3 O2 2.385 . S
Cd3 O4 2.317 . S
O4 Cd3 2.317 . S
O4 C5 1.232 . S
C5 O4 1.232 . S
C5 O6 1.218 . S
O6 C5 1.218 . S
C7 O0 1.275 . S
C7 O2 1.255 . S
C8 O9 1.258 . S
C8 O10 1.256 . S
O9 Cd1 2.381 . S
O9 C8 1.258 . S
O10 Cd1 2.378 . S
O10 C8 1.256 . S
O11 Cd12 2.300 . S
O11 C18 1.275 . S
Cd12 O11 2.300 . S
Cd12 O20 2.381 . S
Cd12 O21 2.378 . S
O13 Cd14 2.385 . S
O13 C18 1.255 . S
Cd14 O13 2.385 . S
Cd14 O15 2.317 . S
O15 Cd14 2.317 . S
O15 C16 1.232 . S
C16 O15 1.232 . S
C16 O17 1.218 . S
O17 C16 1.218 . S
C18 O11 1.275 . S
C18 O13 1.255 . S
C19 O20 1.258 . S
C19 O21 1.256 . S
O20 Cd12 2.381 . S
O20 C19 1.258 . S
O21 Cd12 2.378 . S
O21 C19 1.256 . S
O22 Cd23 2.300 . S
O22 C29 1.275 . S
Cd23 O22 2.300 . S
Cd23 O31 2.381 . S
Cd23 O32 2.378 . S
O24 Cd25 2.385 . S
O24 C29 1.255 . S
Cd25 O24 2.385 . S
Cd25 O26 2.317 . S
O26 Cd25 2.317 . S
O26 C27 1.232 . S
C27 O26 1.232 . S
C27 O28 1.218 . S
O28 C27 1.218 . S
C29 O22 1.275 . S
C29 O24 1.255 . S
C30 O31 1.258 . S
C30 O32 1.256 . S
O31 Cd23 2.381 . S
O31 C30 1.258 . S
O32 Cd23 2.378 . S
O32 C30 1.256 . S
O33 Cd34 2.300 . S
O33 C40 1.275 . S
Cd34 O33 2.300 . S
Cd34 O42 2.381 . S
Cd34 O43 2.378 . S
O35 Cd36 2.385 . S
O35 C40 1.255 . S
Cd36 O35 2.385 . S
Cd36 O37 2.317 . S
O37 Cd36 2.317 . S
O37 C38 1.232 . S
C38 O37 1.232 . S
C38 O39 1.218 . S
O39 C38 1.218 . S
C40 O33 1.275 . S
C40 O35 1.255 . S
C41 O42 1.258 . S
C41 O43 1.256 . S
O42 Cd34 2.381 . S
O42 C41 1.258 . S
O43 Cd34 2.378 . S
O43 C41 1.256 . S
O44 Cd45 2.300 . S
O44 C51 1.275 . S
Cd45 O44 2.300 . S
Cd45 O53 2.381 . S
Cd45 O54 2.378 . S
O46 Cd47 2.385 . S
O46 C51 1.255 . S
Cd47 O46 2.385 . S
Cd47 O48 2.317 . S
O48 Cd47 2.317 . S
O48 C49 1.232 . S
C49 O48 1.232 . S
C49 O50 1.218 . S
O50 C49 1.218 . S
C51 O44 1.275 . S
C51 O46 1.255 . S
C52 O53 1.258 . S
C52 O54 1.256 . S
O53 Cd45 2.381 . S
O53 C52 1.258 . S
O54 Cd45 2.378 . S
O54 C52 1.256 . S
O55 Cd56 2.300 . S
O55 C62 1.275 . S
Cd56 O55 2.300 . S
Cd56 O64 2.381 . S
Cd56 O65 2.378 . S
O57 Cd58 2.385 . S
O57 C62 1.255 . S
Cd58 O57 2.385 . S
Cd58 O59 2.317 . S
O59 Cd58 2.317 . S
O59 C60 1.232 . S
C60 O59 1.232 . S
C60 O61 1.218 . S
O61 C60 1.218 . S
C62 O55 1.275 . S
C62 O57 1.255 . S
C63 O64 1.258 . S
C63 O65 1.256 . S
O64 Cd56 2.381 . S
O64 C63 1.258 . S
O65 Cd56 2.378 . S
O65 C63 1.256 . S
O66 Cd67 2.300 . S
O66 C73 1.275 . S
Cd67 O66 2.300 . S
Cd67 O75 2.381 . S
Cd67 O76 2.378 . S
O68 Cd69 2.385 . S
O68 C73 1.255 . S
Cd69 O68 2.385 . S
Cd69 O70 2.317 . S
O70 Cd69 2.317 . S
O70 C71 1.232 . S
C71 O70 1.232 . S
C71 O72 1.218 . S
O72 C71 1.218 . S
C73 O66 1.275 . S
C73 O68 1.255 . S
C74 O75 1.258 . S
C74 O76 1.256 . S
O75 Cd67 2.381 . S
O75 C74 1.258 . S
O76 Cd67 2.378 . S
O76 C74 1.256 . S
O77 Cd78 2.300 . S
O77 C84 1.275 . S
Cd78 O77 2.300 . S
Cd78 O86 2.381 . S
Cd78 O87 2.378 . S
O79 Cd80 2.385 . S
O79 C84 1.255 . S
Cd80 O79 2.385 . S
Cd80 O81 2.317 . S
O81 Cd80 2.317 . S
O81 C82 1.232 . S
C82 O81 1.232 . S
C82 O83 1.218 . S
O83 C82 1.218 . S
C84 O77 1.275 . S
C84 O79 1.255 . S
C85 O86 1.258 . S
C85 O87 1.256 . S
O86 Cd78 2.381 . S
O86 C85 1.258 . S
O87 Cd78 2.378 . S
O87 C85 1.256 . S
O88 Cd89 2.300 . S
O88 C95 1.275 . S
Cd89 O88 2.300 . S
Cd89 O97 2.381 . S
Cd89 O98 2.378 . S
O90 Cd91 2.385 . S
O90 C95 1.255 . S
Cd91 O90 2.385 . S
Cd91 O92 2.317 . S
O92 Cd91 2.317 . S
O92 C93 1.232 . S
C93 O92 1.232 . S
C93 O94 1.218 . S
O94 C93 1.218 . S
C95 O88 1.275 . S
C95 O90 1.255 . S
C96 O97 1.258 . S
C96 O98 1.256 . S
O97 Cd89 2.381 . S
O97 C96 1.258 . S
O98 Cd89 2.378 . S
O98 C96 1.256 . S
O99 Cd100 2.300 . S
O99 C106 1.275 . S
Cd100 O99 2.300 . S
Cd100 O108 2.381 . S
Cd100 O109 2.378 . S
O101 Cd102 2.385 . S
O101 C106 1.255 . S
Cd102 O101 2.385 . S
Cd102 O103 2.317 . S
O103 Cd102 2.317 . S
O103 C104 1.232 . S
C104 O103 1.232 . S
C104 O105 1.218 . S
O105 C104 1.218 . S
C106 O99 1.275 . S
C106 O101 1.255 . S
C107 O108 1.258 . S
C107 O109 1.256 . S
O108 Cd100 2.381 . S
O108 C107 1.258 . S
O109 Cd100 2.378 . S
O109 C107 1.256 . S
O110 Cd111 2.300 . S
O110 C117 1.275 . S
Cd111 O110 2.300 . S
Cd111 O119 2.381 . S
Cd111 O120 2.378 . S
O112 Cd113 2.385 . S
O112 C117 1.255 . S
Cd113 O112 2.385 . S
Cd113 O114 2.317 . S
O114 Cd113 2.317 . S
O114 C115 1.232 . S
C115 O114 1.232 . S
C115 O116 1.218 . S
O116 C115 1.218 . S
C117 O110 1.275 . S
C117 O112 1.255 . S
C118 O119 1.258 . S
C118 O120 1.256 . S
O119 Cd111 2.381 . S
O119 C118 1.258 . S
O120 Cd111 2.378 . S
O120 C118 1.256 . S
O121 Cd122 2.300 . S
O121 C128 1.275 . S
Cd122 O121 2.300 . S
Cd122 O130 2.381 . S
Cd122 O131 2.378 . S
O123 Cd124 2.385 . S
O123 C128 1.255 . S
Cd124 O123 2.385 . S
Cd124 O125 2.317 . S
O125 Cd124 2.317 . S
O125 C126 1.232 . S
C126 O125 1.232 . S
C126 O127 1.218 . S
O127 C126 1.218 . S
C128 O121 1.275 . S
C128 O123 1.255 . S
C129 O130 1.258 . S
C129 O131 1.256 . S
O130 Cd122 2.381 . S
O130 C129 1.258 . S
O131 Cd122 2.378 . S
O131 C129 1.256 . S
C132 C133 1.349 . S
C132 C134 1.327 . S
C132 H157 0.950 . S
C133 C132 1.349 . S
C133 C149 1.349 . S
C134 C132 1.327 . S
C134 C153 1.429 . S
C134 H158 0.950 . S
C135 C152 1.574 . S
C135 C154 1.368 . S
C135 H159 0.949 . S
H136 C140 0.949 . S
C137 C138 1.349 . S
C137 C139 1.327 . S
C137 H160 0.950 . S
C138 C137 1.349 . S
C138 C150 1.349 . S
C139 C137 1.327 . S
C139 C155 1.429 . S
C139 H161 0.950 . S
C140 H136 0.949 . S
C140 C148 1.574 . S
C140 C156 1.368 . S
H141 C149 0.950 . S
H142 C147 0.950 . S
H143 C148 0.949 . S
H144 C150 0.950 . S
H145 C151 0.950 . S
H146 C152 0.949 . S
C147 H142 0.950 . S
C147 C149 1.327 . S
C147 C153 1.429 . S
C148 C140 1.574 . S
C148 H143 0.949 . S
C148 C154 1.368 . S
C149 C133 1.349 . S
C149 H141 0.950 . S
C149 C147 1.327 . S
C150 C138 1.349 . S
C150 H144 0.950 . S
C150 C151 1.327 . S
C151 H145 0.950 . S
C151 C150 1.327 . S
C151 C155 1.429 . S
C152 C135 1.574 . S
C152 H146 0.949 . S
C152 C156 1.368 . S
C153 C134 1.429 . S
C153 C147 1.429 . S
C153 C154 1.523 . S
C154 C135 1.368 . S
C154 C148 1.368 . S
C154 C153 1.523 . S
C155 C139 1.429 . S
C155 C151 1.429 . S
C155 C156 1.523 . S
C156 C140 1.368 . S
C156 C152 1.368 . S
C156 C155 1.523 . S
H157 C132 0.950 . S
H158 C134 0.950 . S
H159 C135 0.949 . S
H160 C137 0.950 . S
H161 C139 0.950 . S
C162 C163 1.349 . S
C162 C164 1.327 . S
C162 H187 0.950 . S
C163 C162 1.349 . S
C163 C179 1.349 . S
C164 C162 1.327 . S
C164 C183 1.429 . S
C164 H188 0.950 . S
C165 C182 1.574 . S
C165 C184 1.368 . S
C165 H189 0.949 . S
H166 C170 0.949 . S
C167 C168 1.349 . S
C167 C169 1.327 . S
C167 H190 0.950 . S
C168 C167 1.349 . S
C168 C180 1.349 . S
C169 C167 1.327 . S
C169 C185 1.429 . S
C169 H191 0.950 . S
C170 H166 0.949 . S
C170 C178 1.574 . S
C170 C186 1.368 . S
H171 C179 0.950 . S
H172 C177 0.950 . S
H173 C178 0.949 . S
H174 C180 0.950 . S
H175 C181 0.950 . S
H176 C182 0.949 . S
C177 H172 0.950 . S
C177 C179 1.327 . S
C177 C183 1.429 . S
C178 C170 1.574 . S
C178 H173 0.949 . S
C178 C184 1.368 . S
C179 C163 1.349 . S
C179 H171 0.950 . S
C179 C177 1.327 . S
C180 C168 1.349 . S
C180 H174 0.950 . S
C180 C181 1.327 . S
C181 H175 0.950 . S
C181 C180 1.327 . S
C181 C185 1.429 . S
C182 C165 1.574 . S
C182 H176 0.949 . S
C182 C186 1.368 . S
C183 C164 1.429 . S
C183 C177 1.429 . S
C183 C184 1.523 . S
C184 C165 1.368 . S
C184 C178 1.368 . S
C184 C183 1.523 . S
C185 C169 1.429 . S
C185 C181 1.429 . S
C185 C186 1.523 . S
C186 C170 1.368 . S
C186 C182 1.368 . S
C186 C185 1.523 . S
H187 C162 0.950 . S
H188 C164 0.950 . S
H189 C165 0.949 . S
H190 C167 0.950 . S
H191 C169 0.950 . S
C192 C193 1.349 . S
C192 C194 1.327 . S
C192 H217 0.950 . S
C193 C192 1.349 . S
C193 C209 1.349 . S
C194 C192 1.327 . S
C194 C213 1.429 . S
C194 H218 0.950 . S
C195 C212 1.574 . S
C195 C214 1.368 . S
C195 H219 0.949 . S
H196 C200 0.949 . S
C197 C198 1.349 . S
C197 C199 1.327 . S
C197 H220 0.950 . S
C198 C197 1.349 . S
C198 C210 1.349 . S
C199 C197 1.327 . S
C199 C215 1.429 . S
C199 H221 0.950 . S
C200 H196 0.949 . S
C200 C208 1.574 . S
C200 C216 1.368 . S
H201 C209 0.950 . S
H202 C207 0.950 . S
H203 C208 0.949 . S
H204 C210 0.950 . S
H205 C211 0.950 . S
H206 C212 0.949 . S
C207 H202 0.950 . S
C207 C209 1.327 . S
C207 C213 1.429 . S
C208 C200 1.574 . S
C208 H203 0.949 . S
C208 C214 1.368 . S
C209 C193 1.349 . S
C209 H201 0.950 . S
C209 C207 1.327 . S
C210 C198 1.349 . S
C210 H204 0.950 . S
C210 C211 1.327 . S
C211 H205 0.950 . S
C211 C210 1.327 . S
C211 C215 1.429 . S
C212 C195 1.574 . S
C212 H206 0.949 . S
C212 C216 1.368 . S
C213 C194 1.429 . S
C213 C207 1.429 . S
C213 C214 1.523 . S
C214 C195 1.368 . S
C214 C208 1.368 . S
C214 C213 1.523 . S
C215 C199 1.429 . S
C215 C211 1.429 . S
C215 C216 1.523 . S
C216 C200 1.368 . S
C216 C212 1.368 . S
C216 C215 1.523 . S
H217 C192 0.950 . S
H218 C194 0.950 . S
H219 C195 0.949 . S
H220 C197 0.950 . S
H221 C199 0.950 . S
C222 C223 1.349 . S
C222 C224 1.327 . S
C222 H247 0.950 . S
C223 C222 1.349 . S
C223 C239 1.349 . S
C224 C222 1.327 . S
C224 C243 1.429 . S
C224 H248 0.950 . S
C225 C242 1.574 . S
C225 C244 1.368 . S
C225 H249 0.949 . S
H226 C230 0.949 . S
C227 C228 1.349 . S
C227 C229 1.327 . S
C227 H250 0.950 . S
C228 C227 1.349 . S
C228 C240 1.349 . S
C229 C227 1.327 . S
C229 C245 1.429 . S
C229 H251 0.950 . S
C230 H226 0.949 . S
C230 C238 1.574 . S
C230 C246 1.368 . S
H231 C239 0.950 . S
H232 C237 0.950 . S
H233 C238 0.949 . S
H234 C240 0.950 . S
H235 C241 0.950 . S
H236 C242 0.949 . S
C237 H232 0.950 . S
C237 C239 1.327 . S
C237 C243 1.429 . S
C238 C230 1.574 . S
C238 H233 0.949 . S
C238 C244 1.368 . S
C239 C223 1.349 . S
C239 H231 0.950 . S
C239 C237 1.327 . S
C240 C228 1.349 . S
C240 H234 0.950 . S
C240 C241 1.327 . S
C241 H235 0.950 . S
C241 C240 1.327 . S
C241 C245 1.429 . S
C242 C225 1.574 . S
C242 H236 0.949 . S
C242 C246 1.368 . S
C243 C224 1.429 . S
C243 C237 1.429 . S
C243 C244 1.523 . S
C244 C225 1.368 . S
C244 C238 1.368 . S
C244 C243 1.523 . S
C245 C229 1.429 . S
C245 C241 1.429 . S
C245 C246 1.523 . S
C246 C230 1.368 . S
C246 C242 1.368 . S
C246 C245 1.523 . S
H247 C222 0.950 . S
H248 C224 0.950 . S
H249 C225 0.949 . S
H250 C227 0.950 . S
H251 C229 0.950 . S
C252 C253 1.349 . S
C252 C254 1.327 . S
C252 H277 0.950 . S
C253 C252 1.349 . S
C253 C269 1.349 . S
C254 C252 1.327 . S
C254 C273 1.429 . S
C254 H278 0.950 . S
C255 C272 1.574 . S
C255 C274 1.368 . S
C255 H279 0.949 . S
H256 C260 0.949 . S
C257 C258 1.349 . S
C257 C259 1.327 . S
C257 H280 0.950 . S
C258 C257 1.349 . S
C258 C270 1.349 . S
C259 C257 1.327 . S
C259 C275 1.429 . S
C259 H281 0.950 . S
C260 H256 0.949 . S
C260 C268 1.574 . S
C260 C276 1.368 . S
H261 C269 0.950 . S
H262 C267 0.950 . S
H263 C268 0.949 . S
H264 C270 0.950 . S
H265 C271 0.950 . S
H266 C272 0.949 . S
C267 H262 0.950 . S
C267 C269 1.327 . S
C267 C273 1.429 . S
C268 C260 1.574 . S
C268 H263 0.949 . S
C268 C274 1.368 . S
C269 C253 1.349 . S
C269 H261 0.950 . S
C269 C267 1.327 . S
C270 C258 1.349 . S
C270 H264 0.950 . S
C270 C271 1.327 . S
C271 H265 0.950 . S
C271 C270 1.327 . S
C271 C275 1.429 . S
C272 C255 1.574 . S
C272 H266 0.949 . S
C272 C276 1.368 . S
C273 C254 1.429 . S
C273 C267 1.429 . S
C273 C274 1.523 . S
C274 C255 1.368 . S
C274 C268 1.368 . S
C274 C273 1.523 . S
C275 C259 1.429 . S
C275 C271 1.429 . S
C275 C276 1.523 . S
C276 C260 1.368 . S
C276 C272 1.368 . S
C276 C275 1.523 . S
H277 C252 0.950 . S
H278 C254 0.950 . S
H279 C255 0.949 . S
H280 C257 0.950 . S
H281 C259 0.950 . S
C282 C283 1.349 . S
C282 C284 1.327 . S
C282 H307 0.950 . S
C283 C282 1.349 . S
C283 C299 1.349 . S
C284 C282 1.327 . S
C284 C303 1.429 . S
C284 H308 0.950 . S
C285 C302 1.574 . S
C285 C304 1.368 . S
C285 H309 0.949 . S
H286 C290 0.949 . S
C287 C288 1.349 . S
C287 C289 1.327 . S
C287 H310 0.950 . S
C288 C287 1.349 . S
C288 C300 1.349 . S
C289 C287 1.327 . S
C289 C305 1.429 . S
C289 H311 0.950 . S
C290 H286 0.949 . S
C290 C298 1.574 . S
C290 C306 1.368 . S
H291 C299 0.950 . S
H292 C297 0.950 . S
H293 C298 0.949 . S
H294 C300 0.950 . S
H295 C301 0.950 . S
H296 C302 0.949 . S
C297 H292 0.950 . S
C297 C299 1.327 . S
C297 C303 1.429 . S
C298 C290 1.574 . S
C298 H293 0.949 . S
C298 C304 1.368 . S
C299 C283 1.349 . S
C299 H291 0.950 . S
C299 C297 1.327 . S
C300 C288 1.349 . S
C300 H294 0.950 . S
C300 C301 1.327 . S
C301 H295 0.950 . S
C301 C300 1.327 . S
C301 C305 1.429 . S
C302 C285 1.574 . S
C302 H296 0.949 . S
C302 C306 1.368 . S
C303 C284 1.429 . S
C303 C297 1.429 . S
C303 C304 1.523 . S
C304 C285 1.368 . S
C304 C298 1.368 . S
C304 C303 1.523 . S
C305 C289 1.429 . S
C305 C301 1.429 . S
C305 C306 1.523 . S
C306 C290 1.368 . S
C306 C302 1.368 . S
C306 C305 1.523 . S
H307 C282 0.950 . S
H308 C284 0.950 . S
H309 C285 0.949 . S
H310 C287 0.950 . S
H311 C289 0.950 . S
C312 C313 1.349 . S
C312 C314 1.327 . S
C312 H337 0.950 . S
C313 C312 1.349 . S
C313 C329 1.349 . S
C314 C312 1.327 . S
C314 C333 1.429 . S
C314 H338 0.950 . S
C315 C332 1.574 1_565 S
C315 C334 1.368 . S
C315 H339 0.949 . S
H316 C320 0.949 . S
C317 C318 1.349 . S
C317 C319 1.327 . S
C317 H340 0.950 . S
C318 C317 1.349 . S
C318 C330 1.349 . S
C319 C317 1.327 . S
C319 C335 1.429 . S
C319 H341 0.950 . S
C320 H316 0.949 . S
C320 C328 1.574 1_545 S
C320 C336 1.368 . S
H321 C329 0.950 . S
H322 C327 0.950 . S
H323 C328 0.949 . S
H324 C330 0.950 . S
H325 C331 0.950 . S
H326 C332 0.949 . S
C327 H322 0.950 . S
C327 C329 1.327 . S
C327 C333 1.429 . S
C328 C320 1.574 1_565 S
C328 H323 0.949 . S
C328 C334 1.368 . S
C329 C313 1.349 . S
C329 H321 0.950 . S
C329 C327 1.327 . S
C330 C318 1.349 . S
C330 H324 0.950 . S
C330 C331 1.327 . S
C331 H325 0.950 . S
C331 C330 1.327 . S
C331 C335 1.429 . S
C332 C315 1.574 1_545 S
C332 H326 0.949 . S
C332 C336 1.368 . S
C333 C314 1.429 . S
C333 C327 1.429 . S
C333 C334 1.523 . S
C334 C315 1.368 . S
C334 C328 1.368 . S
C334 C333 1.523 . S
C335 C319 1.429 . S
C335 C331 1.429 . S
C335 C336 1.523 . S
C336 C320 1.368 . S
C336 C332 1.368 . S
C336 C335 1.523 . S
H337 C312 0.950 . S
H338 C314 0.950 . S
H339 C315 0.949 . S
H340 C317 0.950 . S
H341 C319 0.950 . S
C342 C343 1.349 . S
C342 C344 1.327 . S
C342 H367 0.950 . S
C343 C342 1.349 . S
C343 C359 1.349 . S
C344 C342 1.327 . S
C344 C363 1.429 . S
C344 H368 0.950 . S
C345 C362 1.574 . S
C345 C364 1.368 . S
C345 H369 0.949 . S
H346 C350 0.949 . S
C347 C348 1.349 . S
C347 C349 1.327 . S
C347 H370 0.950 . S
C348 C347 1.349 . S
C348 C360 1.349 . S
C349 C347 1.327 . S
C349 C365 1.429 . S
C349 H371 0.950 . S
C350 H346 0.949 . S
C350 C358 1.574 . S
C350 C366 1.368 . S
H351 C359 0.950 . S
H352 C357 0.950 . S
H353 C358 0.949 . S
H354 C360 0.950 . S
H355 C361 0.950 . S
H356 C362 0.949 . S
C357 H352 0.950 . S
C357 C359 1.327 . S
C357 C363 1.429 . S
C358 C350 1.574 . S
C358 H353 0.949 . S
C358 C364 1.368 . S
C359 C343 1.349 . S
C359 H351 0.950 . S
C359 C357 1.327 . S
C360 C348 1.349 . S
C360 H354 0.950 . S
C360 C361 1.327 . S
C361 H355 0.950 . S
C361 C360 1.327 . S
C361 C365 1.429 . S
C362 C345 1.574 . S
C362 H356 0.949 . S
C362 C366 1.368 . S
C363 C344 1.429 . S
C363 C357 1.429 . S
C363 C364 1.523 . S
C364 C345 1.368 . S
C364 C358 1.368 . S
C364 C363 1.523 . S
C365 C349 1.429 . S
C365 C361 1.429 . S
C365 C366 1.523 . S
C366 C350 1.368 . S
C366 C362 1.368 . S
C366 C365 1.523 . S
H367 C342 0.950 . S
H368 C344 0.950 . S
H369 C345 0.949 . S
H370 C347 0.950 . S
H371 C349 0.950 . S
C372 C373 1.349 . S
C372 C374 1.327 . S
C372 H397 0.950 . S
C373 C372 1.349 . S
C373 C389 1.349 . S
C374 C372 1.327 . S
C374 C393 1.429 . S
C374 H398 0.950 . S
C375 C392 1.574 1_655 S
C375 C394 1.368 . S
C375 H399 0.949 . S
H376 C380 0.949 . S
C377 C378 1.349 . S
C377 C379 1.327 . S
C377 H400 0.950 . S
C378 C377 1.349 . S
C378 C390 1.349 . S
C379 C377 1.327 . S
C379 C395 1.429 . S
C379 H401 0.950 . S
C380 H376 0.949 . S
C380 C388 1.574 1_455 S
C380 C396 1.368 . S
H381 C389 0.950 . S
H382 C387 0.950 . S
H383 C388 0.949 . S
H384 C390 0.950 . S
H385 C391 0.950 . S
H386 C392 0.949 . S
C387 H382 0.950 . S
C387 C389 1.327 . S
C387 C393 1.429 . S
C388 C380 1.574 1_655 S
C388 H383 0.949 . S
C388 C394 1.368 . S
C389 C373 1.349 . S
C389 H381 0.950 . S
C389 C387 1.327 . S
C390 C378 1.349 . S
C390 H384 0.950 . S
C390 C391 1.327 . S
C391 H385 0.950 . S
C391 C390 1.327 . S
C391 C395 1.429 . S
C392 C375 1.574 1_455 S
C392 H386 0.949 . S
C392 C396 1.368 . S
C393 C374 1.429 . S
C393 C387 1.429 . S
C393 C394 1.523 . S
C394 C375 1.368 . S
C394 C388 1.368 . S
C394 C393 1.523 . S
C395 C379 1.429 . S
C395 C391 1.429 . S
C395 C396 1.523 . S
C396 C380 1.368 . S
C396 C392 1.368 . S
C396 C395 1.523 . S
H397 C372 0.950 . S
H398 C374 0.950 . S
H399 C375 0.949 . S
H400 C377 0.950 . S
H401 C379 0.950 . S
C402 C403 1.349 . S
C402 C404 1.327 . S
C402 H427 0.950 . S
C403 C402 1.349 . S
C403 C419 1.349 . S
C404 C402 1.327 . S
C404 C423 1.429 . S
C404 H428 0.950 . S
C405 C422 1.574 1_455 S
C405 C424 1.368 . S
C405 H429 0.949 . S
H406 C410 0.949 . S
C407 C408 1.349 . S
C407 C409 1.327 . S
C407 H430 0.950 . S
C408 C407 1.349 . S
C408 C420 1.349 . S
C409 C407 1.327 . S
C409 C425 1.429 . S
C409 H431 0.950 . S
C410 H406 0.949 . S
C410 C418 1.574 1_655 S
C410 C426 1.368 . S
H411 C419 0.950 . S
H412 C417 0.950 . S
H413 C418 0.949 . S
H414 C420 0.950 . S
H415 C421 0.950 . S
H416 C422 0.949 . S
C417 H412 0.950 . S
C417 C419 1.327 . S
C417 C423 1.429 . S
C418 C410 1.574 1_455 S
C418 H413 0.949 . S
C418 C424 1.368 . S
C419 C403 1.349 . S
C419 H411 0.950 . S
C419 C417 1.327 . S
C420 C408 1.349 . S
C420 H414 0.950 . S
C420 C421 1.327 . S
C421 H415 0.950 . S
C421 C420 1.327 . S
C421 C425 1.429 . S
C422 C405 1.574 1_655 S
C422 H416 0.949 . S
C422 C426 1.368 . S
C423 C404 1.429 . S
C423 C417 1.429 . S
C423 C424 1.523 . S
C424 C405 1.368 . S
C424 C418 1.368 . S
C424 C423 1.523 . S
C425 C409 1.429 . S
C425 C421 1.429 . S
C425 C426 1.523 . S
C426 C410 1.368 . S
C426 C422 1.368 . S
C426 C425 1.523 . S
H427 C402 0.950 . S
H428 C404 0.950 . S
H429 C405 0.949 . S
H430 C407 0.950 . S
H431 C409 0.950 . S
C432 C433 1.349 . S
C432 C434 1.327 . S
C432 H457 0.950 . S
C433 C432 1.349 . S
C433 C449 1.349 . S
C434 C432 1.327 . S
C434 C453 1.429 . S
C434 H458 0.950 . S
C435 C452 1.574 1_565 S
C435 C454 1.368 . S
C435 H459 0.949 . S
H436 C440 0.949 . S
C437 C438 1.349 . S
C437 C439 1.327 . S
C437 H460 0.950 . S
C438 C437 1.349 . S
C438 C450 1.349 . S
C439 C437 1.327 . S
C439 C455 1.429 . S
C439 H461 0.950 . S
C440 H436 0.949 . S
C440 C448 1.574 1_545 S
C440 C456 1.368 . S
H441 C449 0.950 . S
H442 C447 0.950 . S
H443 C448 0.949 . S
H444 C450 0.950 . S
H445 C451 0.950 . S
H446 C452 0.949 . S
C447 H442 0.950 . S
C447 C449 1.327 . S
C447 C453 1.429 . S
C448 C440 1.574 1_565 S
C448 H443 0.949 . S
C448 C454 1.368 . S
C449 C433 1.349 . S
C449 H441 0.950 . S
C449 C447 1.327 . S
C450 C438 1.349 . S
C450 H444 0.950 . S
C450 C451 1.327 . S
C451 H445 0.950 . S
C451 C450 1.327 . S
C451 C455 1.429 . S
C452 C435 1.574 1_545 S
C452 H446 0.949 . S
C452 C456 1.368 . S
C453 C434 1.429 . S
C453 C447 1.429 . S
C453 C454 1.523 . S
C454 C435 1.368 . S
C454 C448 1.368 . S
C454 C453 1.523 . S
C455 C439 1.429 . S
C455 C451 1.429 . S
C455 C456 1.523 . S
C456 C440 1.368 . S
C456 C452 1.368 . S
C456 C455 1.523 . S
H457 C432 0.950 . S
H458 C434 0.950 . S
H459 C435 0.949 . S
H460 C437 0.950 . S
H461 C439 0.950 . S
C462 C463 1.349 . S
C462 C464 1.327 . S
C462 H487 0.950 . S
C463 C462 1.349 . S
C463 C479 1.349 . S
C464 C462 1.327 . S
C464 C483 1.429 . S
C464 H488 0.950 . S
C465 C482 1.574 . S
C465 C484 1.368 . S
C465 H489 0.949 . S
H466 C470 0.949 . S
C467 C468 1.349 . S
C467 C469 1.327 . S
C467 H490 0.950 . S
C468 C467 1.349 . S
C468 C480 1.349 . S
C469 C467 1.327 . S
C469 C485 1.429 . S
C469 H491 0.950 . S
C470 H466 0.949 . S
C470 C478 1.574 . S
C470 C486 1.368 . S
H471 C479 0.950 . S
H472 C477 0.950 . S
H473 C478 0.949 . S
H474 C480 0.950 . S
H475 C481 0.950 . S
H476 C482 0.949 . S
C477 H472 0.950 . S
C477 C479 1.327 . S
C477 C483 1.429 . S
C478 C470 1.574 . S
C478 H473 0.949 . S
C478 C484 1.368 . S
C479 C463 1.349 . S
C479 H471 0.950 . S
C479 C477 1.327 . S
C480 C468 1.349 . S
C480 H474 0.950 . S
C480 C481 1.327 . S
C481 H475 0.950 . S
C481 C480 1.327 . S
C481 C485 1.429 . S
C482 C465 1.574 . S
C482 H476 0.949 . S
C482 C486 1.368 . S
C483 C464 1.429 . S
C483 C477 1.429 . S
C483 C484 1.523 . S
C484 C465 1.368 . S
C484 C478 1.368 . S
C484 C483 1.523 . S
C485 C469 1.429 . S
C485 C481 1.429 . S
C485 C486 1.523 . S
C486 C470 1.368 . S
C486 C482 1.368 . S
C486 C485 1.523 . S
H487 C462 0.950 . S
H488 C464 0.950 . S
H489 C465 0.949 . S
H490 C467 0.950 . S
H491 C469 0.950 . S
C492 C493 1.349 . S
C492 C494 1.327 . S
C492 H517 0.950 . S
C493 C492 1.349 . S
C493 C509 1.349 . S
C494 C492 1.327 . S
C494 C513 1.429 . S
C494 H518 0.950 . S
C495 C512 1.574 1_556 S
C495 C514 1.368 . S
C495 H519 0.949 . S
H496 C500 0.949 . S
C497 C498 1.349 . S
C497 C499 1.327 . S
C497 H520 0.950 . S
C498 C497 1.349 . S
C498 C510 1.349 . S
C499 C497 1.327 . S
C499 C515 1.429 . S
C499 H521 0.950 . S
C500 H496 0.949 . S
C500 C508 1.574 1_554 S
C500 C516 1.368 . S
H501 C509 0.950 . S
H502 C507 0.950 . S
H503 C508 0.949 . S
H504 C510 0.950 . S
H505 C511 0.950 . S
H506 C512 0.949 . S
C507 H502 0.950 . S
C507 C509 1.327 . S
C507 C513 1.429 . S
C508 C500 1.574 1_556 S
C508 H503 0.949 . S
C508 C514 1.368 . S
C509 C493 1.349 . S
C509 H501 0.950 . S
C509 C507 1.327 . S
C510 C498 1.349 . S
C510 H504 0.950 . S
C510 C511 1.327 . S
C511 H505 0.950 . S
C511 C510 1.327 . S
C511 C515 1.429 . S
C512 C495 1.574 1_554 S
C512 H506 0.949 . S
C512 C516 1.368 . S
C513 C494 1.429 . S
C513 C507 1.429 . S
C513 C514 1.523 . S
C514 C495 1.368 . S
C514 C508 1.368 . S
C514 C513 1.523 . S
C515 C499 1.429 . S
C515 C511 1.429 . S
C515 C516 1.523 . S
C516 C500 1.368 . S
C516 C512 1.368 . S
C516 C515 1.523 . S
H517 C492 0.950 . S
H518 C494 0.950 . S
H519 C495 0.949 . S
H520 C497 0.950 . S
H521 C499 0.950 . S
C522 C523 1.349 . S
C522 C524 1.327 . S
C522 H547 0.950 . S
C523 C522 1.349 . S
C523 C539 1.349 . S
C524 C522 1.327 . S
C524 C543 1.429 . S
C524 H548 0.950 . S
C525 C542 1.574 . S
C525 C544 1.368 . S
C525 H549 0.949 . S
H526 C530 0.949 . S
C527 C528 1.349 . S
C527 C529 1.327 . S
C527 H550 0.950 . S
C528 C527 1.349 . S
C528 C540 1.349 . S
C529 C527 1.327 . S
C529 C545 1.429 . S
C529 H551 0.950 . S
C530 H526 0.949 . S
C530 C538 1.574 . S
C530 C546 1.368 . S
H531 C539 0.950 . S
H532 C537 0.950 . S
H533 C538 0.949 . S
H534 C540 0.950 . S
H535 C541 0.950 . S
H536 C542 0.949 . S
C537 H532 0.950 . S
C537 C539 1.327 . S
C537 C543 1.429 . S
C538 C530 1.574 . S
C538 H533 0.949 . S
C538 C544 1.368 . S
C539 C523 1.349 . S
C539 H531 0.950 . S
C539 C537 1.327 . S
C540 C528 1.349 . S
C540 H534 0.950 . S
C540 C541 1.327 . S
C541 H535 0.950 . S
C541 C540 1.327 . S
C541 C545 1.429 . S
C542 C525 1.574 . S
C542 H536 0.949 . S
C542 C546 1.368 . S
C543 C524 1.429 . S
C543 C537 1.429 . S
C543 C544 1.523 . S
C544 C525 1.368 . S
C544 C538 1.368 . S
C544 C543 1.523 . S
C545 C529 1.429 . S
C545 C541 1.429 . S
C545 C546 1.523 . S
C546 C530 1.368 . S
C546 C542 1.368 . S
C546 C545 1.523 . S
H547 C522 0.950 . S
H548 C524 0.950 . S
H549 C525 0.949 . S
H550 C527 0.950 . S
H551 C529 0.950 . S
C552 C553 1.349 . S
C552 C554 1.327 . S
C552 H577 0.950 . S
C553 C552 1.349 . S
C553 C569 1.349 . S
C554 C552 1.327 . S
C554 C573 1.429 . S
C554 H578 0.950 . S
C555 C572 1.574 . S
C555 C574 1.368 . S
C555 H579 0.949 . S
H556 C560 0.949 . S
C557 C558 1.349 . S
C557 C559 1.327 . S
C557 H580 0.950 . S
C558 C557 1.349 . S
C558 C570 1.349 . S
C559 C557 1.327 . S
C559 C575 1.429 . S
C559 H581 0.950 . S
C560 H556 0.949 . S
C560 C568 1.574 . S
C560 C576 1.368 . S
H561 C569 0.950 . S
H562 C567 0.950 . S
H563 C568 0.949 . S
H564 C570 0.950 . S
H565 C571 0.950 . S
H566 C572 0.949 . S
C567 H562 0.950 . S
C567 C569 1.327 . S
C567 C573 1.429 . S
C568 C560 1.574 . S
C568 H563 0.949 . S
C568 C574 1.368 . S
C569 C553 1.349 . S
C569 H561 0.950 . S
C569 C567 1.327 . S
C570 C558 1.349 . S
C570 H564 0.950 . S
C570 C571 1.327 . S
C571 H565 0.950 . S
C571 C570 1.327 . S
C571 C575 1.429 . S
C572 C555 1.574 . S
C572 H566 0.949 . S
C572 C576 1.368 . S
C573 C554 1.429 . S
C573 C567 1.429 . S
C573 C574 1.523 . S
C574 C555 1.368 . S
C574 C568 1.368 . S
C574 C573 1.523 . S
C575 C559 1.429 . S
C575 C571 1.429 . S
C575 C576 1.523 . S
C576 C560 1.368 . S
C576 C572 1.368 . S
C576 C575 1.523 . S
H577 C552 0.950 . S
H578 C554 0.950 . S
H579 C555 0.949 . S
H580 C557 0.950 . S
H581 C559 0.950 . S
C582 C583 1.349 . S
C582 C584 1.327 . S
C582 H607 0.950 . S
C583 C582 1.349 . S
C583 C599 1.349 . S
C584 C582 1.327 . S
C584 C603 1.429 . S
C584 H608 0.950 . S
C585 C602 1.574 1_554 S
C585 C604 1.368 . S
C585 H609 0.949 . S
H586 C590 0.949 . S
C587 C588 1.349 . S
C587 C589 1.327 . S
C587 H610 0.950 . S
C588 C587 1.349 . S
C588 C600 1.349 . S
C589 C587 1.327 . S
C589 C605 1.429 . S
C589 H611 0.950 . S
C590 H586 0.949 . S
C590 C598 1.574 1_556 S
C590 C606 1.368 . S
H591 C599 0.950 . S
H592 C597 0.950 . S
H593 C598 0.949 . S
H594 C600 0.950 . S
H595 C601 0.950 . S
H596 C602 0.949 . S
C597 H592 0.950 . S
C597 C599 1.327 . S
C597 C603 1.429 . S
C598 C590 1.574 1_554 S
C598 H593 0.949 . S
C598 C604 1.368 . S
C599 C583 1.349 . S
C599 H591 0.950 . S
C599 C597 1.327 . S
C600 C588 1.349 . S
C600 H594 0.950 . S
C600 C601 1.327 . S
C601 H595 0.950 . S
C601 C600 1.327 . S
C601 C605 1.429 . S
C602 C585 1.574 1_556 S
C602 H596 0.949 . S
C602 C606 1.368 . S
C603 C584 1.429 . S
C603 C597 1.429 . S
C603 C604 1.523 . S
C604 C585 1.368 . S
C604 C598 1.368 . S
C604 C603 1.523 . S
C605 C589 1.429 . S
C605 C601 1.429 . S
C605 C606 1.523 . S
C606 C590 1.368 . S
C606 C602 1.368 . S
C606 C605 1.523 . S
H607 C582 0.950 . S
H608 C584 0.950 . S
H609 C585 0.949 . S
H610 C587 0.950 . S
H611 C589 0.950 . S
C612 C613 1.349 . S
C612 C614 1.327 . S
C612 H637 0.950 . S
C613 C612 1.349 . S
C613 C629 1.349 . S
C614 C612 1.327 . S
C614 C633 1.429 . S
C614 H638 0.950 . S
C615 C632 1.574 . S
C615 C634 1.368 . S
C615 H639 0.949 . S
H616 C620 0.949 . S
C617 C618 1.349 . S
C617 C619 1.327 . S
C617 H640 0.950 . S
C618 C617 1.349 . S
C618 C630 1.349 . S
C619 C617 1.327 . S
C619 C635 1.429 . S
C619 H641 0.950 . S
C620 H616 0.949 . S
C620 C628 1.574 . S
C620 C636 1.368 . S
H621 C629 0.950 . S
H622 C627 0.950 . S
H623 C628 0.949 . S
H624 C630 0.950 . S
H625 C631 0.950 . S
H626 C632 0.949 . S
C627 H622 0.950 . S
C627 C629 1.327 . S
C627 C633 1.429 . S
C628 C620 1.574 . S
C628 H623 0.949 . S
C628 C634 1.368 . S
C629 C613 1.349 . S
C629 H621 0.950 . S
C629 C627 1.327 . S
C630 C618 1.349 . S
C630 H624 0.950 . S
C630 C631 1.327 . S
C631 H625 0.950 . S
C631 C630 1.327 . S
C631 C635 1.429 . S
C632 C615 1.574 . S
C632 H626 0.949 . S
C632 C636 1.368 . S
C633 C614 1.429 . S
C633 C627 1.429 . S
C633 C634 1.523 . S
C634 C615 1.368 . S
C634 C628 1.368 . S
C634 C633 1.523 . S
C635 C619 1.429 . S
C635 C631 1.429 . S
C635 C636 1.523 . S
C636 C620 1.368 . S
C636 C632 1.368 . S
C636 C635 1.523 . S
H637 C612 0.950 . S
H638 C614 0.950 . S
H639 C615 0.949 . S
H640 C617 0.950 . S
H641 C619 0.950 . S
C642 C643 1.349 . S
C642 C644 1.327 . S
C642 H667 0.950 . S
C643 C642 1.349 . S
C643 C659 1.349 . S
C644 C642 1.327 . S
C644 C663 1.429 . S
C644 H668 0.950 . S
C645 C662 1.574 . S
C645 C664 1.368 . S
C645 H669 0.949 . S
H646 C650 0.949 . S
C647 C648 1.349 . S
C647 C649 1.327 . S
C647 H670 0.950 . S
C648 C647 1.349 . S
C648 C660 1.349 . S
C649 C647 1.327 . S
C649 C665 1.429 . S
C649 H671 0.950 . S
C650 H646 0.949 . S
C650 C658 1.574 . S
C650 C666 1.368 . S
H651 C659 0.950 . S
H652 C657 0.950 . S
H653 C658 0.949 . S
H654 C660 0.950 . S
H655 C661 0.950 . S
H656 C662 0.949 . S
C657 H652 0.950 . S
C657 C659 1.327 . S
C657 C663 1.429 . S
C658 C650 1.574 . S
C658 H653 0.949 . S
C658 C664 1.368 . S
C659 C643 1.349 . S
C659 H651 0.950 . S
C659 C657 1.327 . S
C660 C648 1.349 . S
C660 H654 0.950 . S
C660 C661 1.327 . S
C661 H655 0.950 . S
C661 C660 1.327 . S
C661 C665 1.429 . S
C662 C645 1.574 . S
C662 H656 0.949 . S
C662 C666 1.368 . S
C663 C644 1.429 . S
C663 C657 1.429 . S
C663 C664 1.523 . S
C664 C645 1.368 . S
C664 C658 1.368 . S
C664 C663 1.523 . S
C665 C649 1.429 . S
C665 C661 1.429 . S
C665 C666 1.523 . S
C666 C650 1.368 . S
C666 C662 1.368 . S
C666 C665 1.523 . S
H667 C642 0.950 . S
H668 C644 0.950 . S
H669 C645 0.949 . S
H670 C647 0.950 . S
H671 C649 0.950 . S
C133 C96 1.557 . S
C138 C8 1.557 . S
C163 C19 1.557 . S
C168 C107 1.557 . S
C193 C118 1.557 . S
C198 C30 1.557 . S
C223 C129 1.556 . S
C228 C41 1.556 . S
C253 C74 1.557 . S
C258 C52 1.557 . S
C283 C63 1.557 . S
C288 C85 1.557 . S
C313 C38 1.283 . S
C318 C5 1.283 . S
C343 C49 1.284 . S
C348 C16 1.284 . S
C373 C27 1.283 . S
C378 C60 1.283 . S
C403 C104 1.283 . S
C408 C71 1.283 . S
C433 C82 1.283 . S
C438 C115 1.283 . S
C463 C126 1.284 . S
C468 C93 1.284 . S
C493 C117 1.497 . S
C498 C7 1.497 . S
C523 C128 1.497 . S
C528 C18 1.497 . S
C553 C29 1.497 . S
C558 C73 1.497 . S
C583 C40 1.497 . S
C588 C84 1.497 . S
C613 C51 1.497 . S
C618 C95 1.497 . S
C643 C62 1.497 . S
C648 C106 1.497 . S
