# Generated by pormake.
# Topology noy, (5)-cn, num edge types: 1
# Building blocks:
#     Node 0, Type 0, BuildingBlock: BEQFEK_clean_sbu_0, # of connection points: 5
#     Node 1, Type 0, BuildingBlock: BEQFEK_clean_sbu_0, # of connection points: 5
#     Node 2, Type 0, BuildingBlock: BEQFEK_clean_sbu_0, # of connection points: 5
#     Node 3, Type 0, BuildingBlock: BEQFEK_clean_sbu_0, # of connection points: 5
#     Node 4, Type 0, BuildingBlock: BEQFEK_clean_sbu_0, # of connection points: 5
#     Node 5, Type 0, BuildingBlock: BEQFEK_clean_sbu_0, # of connection points: 5
#     Node 6, Type 0, BuildingBlock: BEQFEK_clean_sbu_0, # of connection points: 5
#     Node 7, Type 0, BuildingBlock: BEQFEK_clean_sbu_0, # of connection points: 5
#     Edge 8, Type (0, 0), BuildingBlock: UVAHIK_clean_linker_0, # of connection points: 2
#     Edge 9, Type (0, 0), BuildingBlock: UVAHIK_clean_linker_0, # of connection points: 2
#     Edge 10, Type (0, 0), BuildingBlock: UVAHIK_clean_linker_0, # of connection points: 2
#     Edge 11, Type (0, 0), BuildingBlock: UVAHIK_clean_linker_0, # of connection points: 2
#     Edge 12, Type (0, 0), BuildingBlock: UVAHIK_clean_linker_0, # of connection points: 2
#     Edge 13, Type (0, 0), BuildingBlock: UVAHIK_clean_linker_0, # of connection points: 2
#     Edge 14, Type (0, 0), BuildingBlock: UVAHIK_clean_linker_0, # of connection points: 2
#     Edge 15, Type (0, 0), BuildingBlock: UVAHIK_clean_linker_0, # of connection points: 2
#     Edge 16, Type (0, 0), BuildingBlock: UVAHIK_clean_linker_0, # of connection points: 2
#     Edge 17, Type (0, 0), BuildingBlock: UVAHIK_clean_linker_0, # of connection points: 2
#     Edge 18, Type (0, 0), BuildingBlock: UVAHIK_clean_linker_0, # of connection points: 2
#     Edge 19, Type (0, 0), BuildingBlock: UVAHIK_clean_linker_0, # of connection points: 2
#     Edge 20, Type (0, 0), BuildingBlock: UVAHIK_clean_linker_0, # of connection points: 2
#     Edge 21, Type (0, 0), BuildingBlock: UVAHIK_clean_linker_0, # of connection points: 2
#     Edge 22, Type (0, 0), BuildingBlock: UVAHIK_clean_linker_0, # of connection points: 2
#     Edge 23, Type (0, 0), BuildingBlock: UVAHIK_clean_linker_0, # of connection points: 2
#     Edge 24, Type (0, 0), BuildingBlock: UVAHIK_clean_linker_0, # of connection points: 2
#     Edge 25, Type (0, 0), BuildingBlock: UVAHIK_clean_linker_0, # of connection points: 2
#     Edge 26, Type (0, 0), BuildingBlock: UVAHIK_clean_linker_0, # of connection points: 2
#     Edge 27, Type (0, 0), BuildingBlock: UVAHIK_clean_linker_0, # of connection points: 2
# Relax obj value: 0.042
# Max RMSD: 0.089
# Mean RMSD: 0.089
data_MOF--net-noy--node1-BEQFEK_clean_sbu_0--edge1-UVAHIK_clean_linker_0
_symmetry_space_group_name_H-M    P1
_symmetry_Int_Tables_number       1
_symmetry_cell_setting            triclinic
loop_
_symmetry_equiv_pos_as_xyz
'x, y, z'
_cell_length_a     57.45718
_cell_length_b     59.297129
_cell_length_c     30.311049
_cell_angle_alpha  89.993067
_cell_angle_beta   89.995731
_cell_angle_gamma 90.003383
loop_
_atom_site_label
_atom_site_type_symbol
_atom_site_fract_x
_atom_site_fract_y
_atom_site_fract_z
_atom_type_partial_charge
Co0 Co 0.33005 0.39818 0.2487 0.0
Co1 Co 0.33231 0.36247 0.17244 0.0
C2 C 0.31865 0.41084 0.15582 0.0
O3 O 0.32068 0.41594 0.19641 0.0
O4 O 0.32255 0.39084 0.14233 0.0
C5 C 0.30937 0.43086 0.30715 0.0
O6 O 0.29245 0.4312 0.27799 0.0
C7 C 0.3125 0.33235 0.10478 0.0
C8 C 0.34252 0.31041 0.08951 0.0
C9 C 0.31947 0.31435 0.07857 0.0
N10 N 0.33057 0.33856 0.13028 0.0
N11 N 0.34845 0.32538 0.12093 0.0
C12 C 0.28963 0.34444 0.10372 0.0
H13 H 0.29113 0.3613 0.11923 0.0
H14 H 0.27649 0.33462 0.12235 0.0
H15 H 0.28343 0.34613 0.06919 0.0
C16 C 0.30072 0.36258 0.28902 0.0
N17 N 0.31249 0.37122 0.25448 0.0
N18 N 0.31369 0.35595 0.22298 0.0
C19 C 0.30289 0.337 0.23681 0.0
C20 C 0.29419 0.34065 0.27895 0.0
C21 C 0.29663 0.37488 0.33142 0.0
H22 H 0.28647 0.39037 0.32459 0.0
H23 H 0.28685 0.36453 0.35558 0.0
H24 H 0.31358 0.37999 0.34585 0.0
O25 O 0.36355 0.39058 0.24465 0.0
O26 O 0.36536 0.3652 0.19092 0.0
H27 H 0.29991 0.30058 0.23552 0.0
H28 H 0.29073 0.31488 0.1862 0.0
C29 C 0.30379 0.31487 0.21307 0.0
H30 H 0.32126 0.31235 0.19841 0.0
H31 H 0.36476 0.32667 0.13586 0.0
O32 O 0.32658 0.41774 0.30129 0.0
C33 C 0.37522 0.37716 0.22043 0.0
Co34 Co 0.66915 0.60508 0.74931 0.0
Co35 Co 0.66699 0.6405 0.67246 0.0
C36 C 0.68111 0.59229 0.65654 0.0
O37 O 0.67897 0.58745 0.69724 0.0
O38 O 0.67707 0.61216 0.64244 0.0
C39 C 0.69046 0.57331 0.80888 0.0
O40 O 0.70807 0.57418 0.78128 0.0
C41 C 0.68611 0.67099 0.60437 0.0
C42 C 0.65591 0.69306 0.5912 0.0
C43 C 0.67882 0.68922 0.57907 0.0
N44 N 0.66837 0.66456 0.63051 0.0
N45 N 0.65039 0.67782 0.62239 0.0
C46 C 0.70899 0.65897 0.60193 0.0
H47 H 0.7077 0.64196 0.6169 0.0
H48 H 0.72232 0.66865 0.62034 0.0
H49 H 0.71479 0.65761 0.5671 0.0
C50 C 0.69779 0.64111 0.78989 0.0
N51 N 0.68636 0.63222 0.75519 0.0
N52 N 0.68539 0.64727 0.72327 0.0
C53 C 0.6961 0.66631 0.73691 0.0
C54 C 0.70442 0.66295 0.7794 0.0
C55 C 0.70141 0.62915 0.83284 0.0
H56 H 0.71266 0.61425 0.82723 0.0
H57 H 0.70992 0.64006 0.85776 0.0
H58 H 0.68443 0.62315 0.8457 0.0
O59 O 0.63563 0.61229 0.74477 0.0
O60 O 0.63389 0.63746 0.69065 0.0
H61 H 0.70004 0.70264 0.73428 0.0
H62 H 0.70826 0.68767 0.68509 0.0
C63 C 0.69553 0.68825 0.7125 0.0
H64 H 0.67796 0.69108 0.69846 0.0
H65 H 0.63429 0.67644 0.63809 0.0
O66 O 0.67262 0.58544 0.80179 0.0
C67 C 0.62398 0.62553 0.72015 0.0
Co68 Co 0.3303 0.60527 0.75093 0.0
Co69 Co 0.33233 0.64038 0.82829 0.0
C70 C 0.3183 0.59212 0.84353 0.0
O71 O 0.32054 0.58743 0.80279 0.0
O72 O 0.32222 0.61195 0.8579 0.0
C73 C 0.30887 0.57381 0.69103 0.0
O74 O 0.29124 0.57478 0.71858 0.0
C75 C 0.31316 0.67058 0.89678 0.0
C76 C 0.34338 0.69255 0.91047 0.0
C77 C 0.32046 0.68866 0.92246 0.0
N78 N 0.33092 0.66427 0.87057 0.0
N79 N 0.34891 0.67747 0.87899 0.0
C80 C 0.29028 0.65856 0.89898 0.0
H81 H 0.29151 0.6417 0.88335 0.0
H82 H 0.2769 0.66843 0.88109 0.0
H83 H 0.28457 0.65687 0.93381 0.0
C84 C 0.30164 0.6414 0.71077 0.0
N85 N 0.31305 0.6324 0.74537 0.0
N86 N 0.31396 0.64733 0.77752 0.0
C87 C 0.30318 0.66638 0.76414 0.0
C88 C 0.29491 0.66317 0.72158 0.0
C89 C 0.29812 0.62963 0.6676 0.0
H90 H 0.28671 0.6148 0.67281 0.0
H91 H 0.28981 0.64069 0.64268 0.0
H92 H 0.3151 0.62354 0.65493 0.0
O93 O 0.3638 0.61253 0.75555 0.0
O94 O 0.36546 0.63738 0.81022 0.0
H95 H 0.29903 0.70267 0.76735 0.0
H96 H 0.29085 0.68744 0.81627 0.0
C97 C 0.3036 0.68822 0.78892 0.0
H98 H 0.32114 0.69107 0.80308 0.0
H99 H 0.36503 0.67615 0.86334 0.0
O100 O 0.32681 0.58577 0.69827 0.0
C101 C 0.37542 0.62563 0.78051 0.0
Co102 Co 0.66873 0.39806 0.25202 0.0
Co103 Co 0.66691 0.36257 0.32877 0.0
C104 C 0.68068 0.41096 0.34458 0.0
O105 O 0.67837 0.41595 0.30398 0.0
O106 O 0.6769 0.391 0.35839 0.0
C107 C 0.68933 0.43045 0.193 0.0
O108 O 0.70639 0.43062 0.22186 0.0
C109 C 0.687 0.33259 0.39644 0.0
C110 C 0.65708 0.31059 0.41209 0.0
C111 C 0.68015 0.31459 0.42279 0.0
N112 N 0.66885 0.33874 0.37109 0.0
N113 N 0.65103 0.32552 0.38067 0.0
C114 C 0.70985 0.34472 0.39723 0.0
H115 H 0.70828 0.36157 0.38166 0.0
H116 H 0.72296 0.33491 0.37851 0.0
H117 H 0.71614 0.34646 0.43168 0.0
C118 C 0.6978 0.36232 0.21149 0.0
N119 N 0.68622 0.37106 0.24616 0.0
N120 N 0.68523 0.3559 0.27789 0.0
C121 C 0.69601 0.33693 0.26411 0.0
C122 C 0.70444 0.34044 0.22174 0.0
C123 C 0.70161 0.37448 0.16882 0.0
H124 H 0.71201 0.38988 0.17515 0.0
H125 H 0.71104 0.36397 0.14443 0.0
H126 H 0.68458 0.37973 0.15493 0.0
O127 O 0.63527 0.39049 0.25679 0.0
O128 O 0.63373 0.36535 0.31101 0.0
H129 H 0.67797 0.3123 0.30315 0.0
H130 H 0.6993 0.30054 0.26596 0.0
C131 C 0.69537 0.3149 0.28823 0.0
H132 H 0.70852 0.31513 0.31493 0.0
H133 H 0.63467 0.32676 0.36589 0.0
O134 O 0.67201 0.41751 0.19921 0.0
C135 C 0.62372 0.37719 0.28151 0.0
Co136 Co 0.83068 0.89826 0.24914 0.0
Co137 Co 0.83216 0.86244 0.17305 0.0
C138 C 0.81869 0.91078 0.15633 0.0
O139 O 0.82103 0.91592 0.19685 0.0
O140 O 0.82238 0.89075 0.14285 0.0
C141 C 0.80994 0.93046 0.30838 0.0
O142 O 0.79233 0.92979 0.28076 0.0
C143 C 0.81208 0.83235 0.10555 0.0
C144 C 0.84177 0.80981 0.0913 0.0
C145 C 0.81885 0.8141 0.07984 0.0
N146 N 0.83013 0.83838 0.13128 0.0
N147 N 0.8478 0.82484 0.12254 0.0
C148 C 0.78944 0.84481 0.10379 0.0
H149 H 0.79109 0.86167 0.11925 0.0
H150 H 0.77598 0.83523 0.12208 0.0
H151 H 0.78353 0.84654 0.06908 0.0
C152 C 0.80142 0.86282 0.29053 0.0
N153 N 0.81307 0.87136 0.25572 0.0
N154 N 0.8138 0.85613 0.22409 0.0
C155 C 0.80269 0.83737 0.23799 0.0
C156 C 0.79436 0.84106 0.28036 0.0
C157 C 0.79785 0.87507 0.33317 0.0
H158 H 0.81487 0.881 0.34598 0.0
H159 H 0.78674 0.89002 0.32716 0.0
H160 H 0.78921 0.86437 0.35831 0.0
O161 O 0.86408 0.89052 0.24441 0.0
O162 O 0.86538 0.86511 0.19067 0.0
H163 H 0.82011 0.81221 0.19929 0.0
H164 H 0.79816 0.8011 0.23595 0.0
C165 C 0.80271 0.81535 0.21382 0.0
H166 H 0.78976 0.81602 0.18681 0.0
H167 H 0.86405 0.82592 0.13777 0.0
O168 O 0.82761 0.91807 0.30139 0.0
C169 C 0.87551 0.87704 0.21989 0.0
Co170 Co 0.16933 0.10517 0.7494 0.0
Co171 Co 0.16727 0.14023 0.672 0.0
C172 C 0.18095 0.09177 0.65695 0.0
O173 O 0.17884 0.08711 0.69772 0.0
O174 O 0.17707 0.11162 0.6426 0.0
C175 C 0.19012 0.07304 0.80871 0.0
O176 O 0.20717 0.07282 0.77983 0.0
C177 C 0.18714 0.17009 0.60392 0.0
C178 C 0.15707 0.19185 0.58802 0.0
C179 C 0.18018 0.18797 0.5774 0.0
N180 N 0.16902 0.16389 0.6293 0.0
N181 N 0.15111 0.17696 0.61956 0.0
C182 C 0.21006 0.15809 0.60325 0.0
H183 H 0.20861 0.14131 0.61914 0.0
H184 H 0.22315 0.16807 0.6217 0.0
H185 H 0.21632 0.15624 0.56879 0.0
C186 C 0.19849 0.14105 0.789 0.0
N187 N 0.18686 0.13216 0.75456 0.0
N188 N 0.18578 0.14717 0.72257 0.0
C189 C 0.19654 0.16622 0.736 0.0
C190 C 0.20507 0.16289 0.77836 0.0
C191 C 0.20237 0.12908 0.83185 0.0
H192 H 0.21277 0.11367 0.82573 0.0
H193 H 0.21184 0.1397 0.85601 0.0
H194 H 0.18536 0.12388 0.84592 0.0
O195 O 0.13586 0.11271 0.74493 0.0
O196 O 0.13416 0.13763 0.69036 0.0
H197 H 0.17834 0.19062 0.69669 0.0
H198 H 0.19957 0.20262 0.73378 0.0
C199 C 0.19575 0.18818 0.71166 0.0
H200 H 0.20892 0.18798 0.68498 0.0
H201 H 0.13477 0.17567 0.63436 0.0
O202 O 0.17276 0.08592 0.8024 0.0
C203 C 0.12424 0.12593 0.72018 0.0
Co204 Co 0.83074 0.1055 0.7517 0.0
Co205 Co 0.83259 0.14054 0.82916 0.0
C206 C 0.81888 0.09207 0.84406 0.0
O207 O 0.8211 0.08743 0.8033 0.0
O208 O 0.82272 0.11192 0.85846 0.0
C209 C 0.81008 0.07334 0.69242 0.0
O210 O 0.79297 0.07325 0.72119 0.0
C211 C 0.8125 0.17032 0.89713 0.0
C212 C 0.84242 0.19229 0.91298 0.0
C213 C 0.81934 0.18828 0.92358 0.0
N214 N 0.83068 0.1642 0.87181 0.0
N215 N 0.8485 0.17739 0.88153 0.0
C216 C 0.78965 0.1582 0.89776 0.0
H217 H 0.79125 0.14135 0.88226 0.0
H218 H 0.77658 0.16801 0.8789 0.0
H219 H 0.78327 0.1565 0.93217 0.0
C220 C 0.80168 0.14136 0.71184 0.0
N221 N 0.81323 0.13247 0.74637 0.0
N222 N 0.81422 0.14746 0.77838 0.0
C223 C 0.80346 0.16651 0.76489 0.0
C224 C 0.79504 0.16319 0.72244 0.0
C225 C 0.7979 0.12939 0.66895 0.0
H226 H 0.78748 0.11398 0.67498 0.0
H227 H 0.7885 0.14001 0.6447 0.0
H228 H 0.81494 0.1242 0.65504 0.0
O229 O 0.86419 0.11305 0.75651 0.0
O230 O 0.86577 0.13792 0.81118 0.0
H231 H 0.80026 0.20289 0.76722 0.0
H232 H 0.79096 0.18816 0.81596 0.0
C233 C 0.80413 0.18845 0.7893 0.0
H234 H 0.82153 0.19095 0.80431 0.0
H235 H 0.86486 0.17618 0.86676 0.0
O236 O 0.82746 0.0862 0.69872 0.0
C237 C 0.87576 0.12623 0.78141 0.0
Co238 Co 0.16908 0.89805 0.25135 0.0
Co239 Co 0.16704 0.86226 0.32747 0.0
C240 C 0.18056 0.9106 0.34433 0.0
O241 O 0.17851 0.91572 0.30375 0.0
O242 O 0.1767 0.89059 0.35778 0.0
C243 C 0.19031 0.93015 0.19261 0.0
O244 O 0.20775 0.92933 0.2206 0.0
C245 C 0.18683 0.83224 0.39535 0.0
C246 C 0.15709 0.80971 0.40935 0.0
C247 C 0.17998 0.81399 0.42103 0.0
N248 N 0.16886 0.83825 0.36941 0.0
N249 N 0.15115 0.82473 0.37802 0.0
C250 C 0.20948 0.84468 0.39727 0.0
H251 H 0.20781 0.86161 0.38213 0.0
H252 H 0.22291 0.8352 0.3787 0.0
H253 H 0.21543 0.84624 0.43198 0.0
C254 C 0.19841 0.86248 0.21062 0.0
N255 N 0.18664 0.87109 0.2452 0.0
N256 N 0.18567 0.85588 0.27685 0.0
C257 C 0.19672 0.83704 0.26317 0.0
C258 C 0.20528 0.84068 0.22095 0.0
C259 C 0.20226 0.87469 0.16802 0.0
H260 H 0.18533 0.88065 0.15485 0.0
H261 H 0.21337 0.88962 0.17421 0.0
H262 H 0.21102 0.86396 0.1431 0.0
O263 O 0.13561 0.89043 0.25552 0.0
O264 O 0.13396 0.86492 0.30905 0.0
H265 H 0.17885 0.81204 0.30152 0.0
H266 H 0.20085 0.80073 0.26522 0.0
C267 C 0.19635 0.81501 0.28729 0.0
H268 H 0.20919 0.81554 0.31452 0.0
H269 H 0.13495 0.8258 0.3626 0.0
O270 O 0.17252 0.91786 0.19916 0.0
C271 C 0.12402 0.87692 0.27971 0.0
C272 C 0.41189 0.38853 0.25932 0.0
C273 C 0.40072 0.37539 0.22702 0.0
C274 C 0.43591 0.38697 0.26564 0.0
C275 C 0.48995 0.37017 0.20935 0.0
H276 H 0.51583 0.37231 0.32747 0.0
C277 C 0.58469 0.36147 0.30292 0.0
C278 C 0.59817 0.37545 0.27548 0.0
C279 C 0.56059 0.35995 0.29706 0.0
C280 C 0.50888 0.37146 0.29429 0.0
H281 H 0.40614 0.3501 0.17627 0.0
H282 H 0.44808 0.3473 0.18753 0.0
H283 H 0.4737 0.37188 0.31751 0.0
H284 H 0.5968 0.39873 0.22023 0.0
H285 H 0.55489 0.3962 0.21037 0.0
H286 H 0.52513 0.36961 0.18613 0.0
C287 C 0.43823 0.359 0.20763 0.0
C288 C 0.48475 0.37147 0.28856 0.0
C289 C 0.41417 0.36055 0.20131 0.0
C290 C 0.587 0.38777 0.24197 0.0
C291 C 0.56296 0.3862 0.23607 0.0
C292 C 0.51408 0.3702 0.21507 0.0
C293 C 0.44937 0.37222 0.23983 0.0
C294 C 0.475 0.37105 0.24601 0.0
C295 C 0.54946 0.3723 0.26355 0.0
C296 C 0.52383 0.37108 0.25759 0.0
H297 H 0.40211 0.40017 0.27969 0.0
H298 H 0.44399 0.39763 0.29027 0.0
H299 H 0.48302 0.37 0.17612 0.0
H300 H 0.59272 0.35169 0.32898 0.0
H301 H 0.5507 0.34892 0.31851 0.0
C302 C 0.58722 0.61391 0.75844 0.0
C303 C 0.59844 0.62717 0.72637 0.0
C304 C 0.56319 0.61542 0.76457 0.0
C305 C 0.50919 0.63244 0.70832 0.0
H306 H 0.4833 0.63004 0.82642 0.0
C307 C 0.4145 0.64115 0.80206 0.0
C308 C 0.40096 0.6273 0.77448 0.0
C309 C 0.4386 0.64261 0.79618 0.0
C310 C 0.49025 0.63096 0.79325 0.0
H311 H 0.5931 0.65255 0.67577 0.0
H312 H 0.55113 0.65526 0.68673 0.0
H313 H 0.52542 0.63041 0.81648 0.0
H314 H 0.40223 0.60419 0.71896 0.0
H315 H 0.44416 0.60661 0.70907 0.0
H316 H 0.47402 0.63315 0.68511 0.0
C317 C 0.56095 0.64352 0.70678 0.0
C318 C 0.51438 0.63091 0.78753 0.0
C319 C 0.58503 0.64202 0.70064 0.0
C320 C 0.41208 0.61505 0.74081 0.0
C321 C 0.43612 0.61656 0.73489 0.0
C322 C 0.48506 0.63245 0.71404 0.0
C323 C 0.54976 0.63023 0.73883 0.0
C324 C 0.52413 0.63142 0.74498 0.0
C325 C 0.44968 0.63033 0.76251 0.0
C326 C 0.47531 0.63148 0.75655 0.0
H327 H 0.59697 0.60225 0.7788 0.0
H328 H 0.55507 0.60469 0.78906 0.0
H329 H 0.51613 0.63268 0.6751 0.0
H330 H 0.40651 0.65088 0.82824 0.0
H331 H 0.44854 0.65354 0.81774 0.0
C332 C 0.08518 0.85997 0.29853 0.0
C333 C 0.09851 0.87511 0.27326 0.0
C334 C 0.06112 0.85838 0.29231 0.0
C335 C 0.01442 0.87141 0.2121 0.0
H336 H 0.9742 0.86847 0.31466 0.0
C337 C 0.91227 0.88724 0.25963 0.0
C338 C 0.90105 0.87518 0.22582 0.0
C339 C 0.93631 0.88559 0.26541 0.0
C340 C 0.9852 0.86935 0.2857 0.0
H341 H 0.0969 0.9004 0.22152 0.0
H342 H 0.05502 0.89778 0.21114 0.0
H343 H 0.01632 0.86887 0.32447 0.0
H344 H 0.9064 0.85179 0.17167 0.0
H345 H 0.94843 0.84891 0.1819 0.0
H346 H 0.98328 0.87253 0.17341 0.0
C347 C 0.0632 0.88691 0.23532 0.0
C348 C 0.00934 0.86933 0.29129 0.0
C349 C 0.08722 0.88852 0.24153 0.0
C350 C 0.91447 0.86137 0.19798 0.0
C351 C 0.93858 0.85978 0.2037 0.0
C352 C 0.99028 0.87139 0.20651 0.0
C353 C 0.04985 0.87185 0.26066 0.0
C354 C 0.02422 0.87062 0.25459 0.0
C355 C 0.94975 0.87188 0.23749 0.0
C356 C 0.97539 0.87062 0.24327 0.0
H357 H 0.09331 0.84932 0.32313 0.0
H358 H 0.05136 0.84644 0.31204 0.0
H359 H 0.02542 0.87214 0.18312 0.0
H360 H 0.90251 0.89806 0.2817 0.0
H361 H 0.94443 0.89539 0.29135 0.0
C362 C 0.08751 0.11488 0.75922 0.0
C363 C 0.09872 0.12777 0.72658 0.0
C364 C 0.06349 0.11653 0.76544 0.0
C365 C 0.00948 0.13308 0.70871 0.0
H366 H 0.98365 0.13168 0.82691 0.0
C367 C 0.91477 0.14214 0.80243 0.0
C368 C 0.90129 0.12803 0.77525 0.0
C369 C 0.93886 0.14371 0.79643 0.0
C370 C 0.99058 0.13233 0.79371 0.0
H371 H 0.09339 0.15268 0.67508 0.0
H372 H 0.05144 0.15564 0.68618 0.0
H373 H 0.02576 0.13204 0.81689 0.0
H374 H 0.90267 0.10456 0.72032 0.0
H375 H 0.94456 0.10715 0.71025 0.0
H376 H 0.9743 0.13352 0.68553 0.0
C377 C 0.06126 0.14407 0.70663 0.0
C378 C 0.01471 0.13227 0.78794 0.0
C379 C 0.08532 0.14243 0.7004 0.0
C380 C 0.91246 0.11562 0.74185 0.0
C381 C 0.93649 0.11723 0.73583 0.0
C382 C 0.98535 0.1331 0.71447 0.0
C383 C 0.05007 0.13112 0.73921 0.0
C384 C 0.02444 0.1324 0.74537 0.0
C385 C 0.94998 0.13126 0.76305 0.0
C386 C 0.97562 0.13248 0.75702 0.0
H387 H 0.09724 0.10338 0.77996 0.0
H388 H 0.05538 0.10607 0.79037 0.0
H389 H 0.0164 0.13303 0.67547 0.0
H390 H 0.90674 0.152 0.82839 0.0
H391 H 0.94874 0.15484 0.81768 0.0
C392 C 0.30938 0.55155 0.85964 0.0
C393 C 0.31267 0.57371 0.87498 0.0
C394 C 0.30643 0.53373 0.88927 0.0
C395 C 0.29249 0.51968 0.00543 0.0
H396 H 0.32945 0.46635 0.98151 0.0
C397 C 0.31145 0.45146 0.13701 0.0
C398 C 0.31315 0.42884 0.12342 0.0
C399 C 0.30842 0.46871 0.10609 0.0
C400 C 0.31868 0.48091 0.98839 0.0
H401 H 0.31441 0.59459 0.93369 0.0
H402 H 0.30937 0.56343 0.98542 0.0
H403 H 0.32933 0.49729 0.92888 0.0
H404 H 0.3119 0.40657 0.06667 0.0
H405 H 0.30625 0.43662 0.01285 0.0
H406 H 0.28205 0.50333 0.06528 0.0
C407 C 0.30897 0.55988 0.95038 0.0
C408 C 0.31863 0.4987 0.95818 0.0
C409 C 0.31197 0.57774 0.9207 0.0
C410 C 0.31086 0.42381 0.0783 0.0
C411 C 0.30776 0.44107 0.04738 0.0
C412 C 0.29248 0.50182 0.03566 0.0
C413 C 0.30664 0.53761 0.93501 0.0
C414 C 0.30567 0.51836 0.96645 0.0
C415 C 0.30692 0.46377 0.06081 0.0
C416 C 0.30572 0.48228 0.02766 0.0
H417 H 0.30964 0.5478 0.82466 0.0
H418 H 0.30426 0.51684 0.87633 0.0
H419 H 0.28211 0.53449 0.01252 0.0
H420 H 0.31314 0.45599 0.17148 0.0
H421 H 0.30809 0.48599 0.11762 0.0
C422 C 0.6875 0.4517 0.36293 0.0
C423 C 0.68631 0.42906 0.37666 0.0
C424 C 0.6906 0.46902 0.39366 0.0
C425 C 0.68137 0.48112 0.51171 0.0
H426 H 0.71661 0.53535 0.48605 0.0
C427 C 0.69065 0.5519 0.64004 0.0
C428 C 0.68679 0.57401 0.62486 0.0
C429 C 0.69365 0.53416 0.61028 0.0
C430 C 0.7066 0.52036 0.49357 0.0
H431 H 0.68856 0.40687 0.43342 0.0
H432 H 0.69433 0.43705 0.48689 0.0
H433 H 0.71669 0.50417 0.43334 0.0
H434 H 0.68408 0.59488 0.56626 0.0
H435 H 0.68918 0.56383 0.5143 0.0
H436 H 0.67107 0.49732 0.5716 0.0
C437 C 0.69237 0.44145 0.45242 0.0
C438 C 0.70663 0.50249 0.46338 0.0
C439 C 0.68919 0.42412 0.4217 0.0
C440 C 0.68697 0.57807 0.57913 0.0
C441 C 0.69 0.56027 0.54931 0.0
C442 C 0.6814 0.49892 0.54188 0.0
C443 C 0.69267 0.46415 0.43889 0.0
C444 C 0.69387 0.48271 0.47194 0.0
C445 C 0.6929 0.53804 0.56456 0.0
C446 C 0.69388 0.51881 0.53308 0.0
H447 H 0.68535 0.45616 0.32851 0.0
H448 H 0.6905 0.48629 0.38206 0.0
H449 H 0.67096 0.46637 0.51905 0.0
H450 H 0.69082 0.54814 0.67502 0.0
H451 H 0.69627 0.5173 0.62312 0.0
C452 C 0.67065 0.55244 0.86988 0.0
C453 C 0.69131 0.55851 0.84807 0.0
C454 C 0.67127 0.53817 0.9065 0.0
C455 C 0.70772 0.51958 0.99732 0.0
H456 H 0.66738 0.46718 0.99993 0.0
C457 C 0.71139 0.45472 0.13973 0.0
C458 C 0.69034 0.44483 0.15319 0.0
C459 C 0.71225 0.46817 0.10185 0.0
C460 C 0.67851 0.48191 1.00016 0.0
H461 H 0.72885 0.55472 0.84795 0.0
H462 H 0.72993 0.53011 0.91287 0.0
H463 H 0.66729 0.4918 0.93558 0.0
H464 H 0.65362 0.44158 0.13801 0.0
H465 H 0.65488 0.46563 0.07316 0.0
H466 H 0.71839 0.51031 0.06241 0.0
C467 C 0.71329 0.53628 0.90118 0.0
C468 C 0.67853 0.49592 0.96312 0.0
C469 C 0.71265 0.55025 0.86399 0.0
C470 C 0.67016 0.4488 0.12826 0.0
C471 C 0.67094 0.4625 0.09082 0.0
C472 C 0.70745 0.50577 0.03473 0.0
C473 C 0.69259 0.53 0.92254 0.0
C474 C 0.69308 0.5149 0.96141 0.0
C475 C 0.69202 0.47229 0.07691 0.0
C476 C 0.69277 0.48678 0.03673 0.0
H477 H 0.65394 0.55849 0.85833 0.0
H478 H 0.65508 0.53369 0.92261 0.0
H479 H 0.71895 0.53426 0.99691 0.0
H480 H 0.72727 0.45184 0.15812 0.0
H481 H 0.72888 0.47509 0.09186 0.0
C482 C 0.2874 0.45547 0.35996 0.0
C483 C 0.30837 0.44532 0.34685 0.0
C484 C 0.28655 0.46898 0.39777 0.0
C485 C 0.32008 0.48235 0.49989 0.0
H486 H 0.28037 0.53522 0.50253 0.0
C487 C 0.32854 0.55281 0.63006 0.0
C488 C 0.30792 0.55909 0.65175 0.0
C489 C 0.32782 0.53858 0.59339 0.0
C490 C 0.29139 0.5204 0.50228 0.0
H491 H 0.34499 0.44166 0.36257 0.0
H492 H 0.34377 0.46579 0.42727 0.0
H493 H 0.28081 0.51122 0.43708 0.0
H494 H 0.27034 0.55572 0.6516 0.0
H495 H 0.26908 0.53118 0.58659 0.0
H496 H 0.33122 0.49213 0.56458 0.0
C497 C 0.32775 0.46283 0.40941 0.0
C498 C 0.29159 0.50656 0.46491 0.0
C499 C 0.3285 0.44909 0.37204 0.0
C500 C 0.28651 0.55109 0.63565 0.0
C501 C 0.28577 0.53716 0.59841 0.0
C502 C 0.32013 0.49637 0.53688 0.0
C503 C 0.30674 0.47287 0.42299 0.0
C504 C 0.30602 0.48738 0.46313 0.0
C505 C 0.30644 0.53066 0.5772 0.0
C506 C 0.30585 0.51555 0.53836 0.0
H507 H 0.27155 0.45276 0.34134 0.0
H508 H 0.26998 0.4761 0.40749 0.0
H509 H 0.331 0.46747 0.5003 0.0
H510 H 0.3453 0.55867 0.64175 0.0
H511 H 0.34399 0.53393 0.57739 0.0
C512 C 0.80999 0.05149 0.86008 0.0
C513 C 0.81329 0.07364 0.87547 0.0
C514 C 0.80697 0.03367 0.88968 0.0
C515 C 0.79285 0.01966 0.00584 0.0
H516 H 0.82947 0.9661 0.98193 0.0
C517 C 0.8116 0.95142 0.13749 0.0
C518 C 0.81315 0.92878 0.12395 0.0
C519 C 0.80859 0.96866 0.10654 0.0
C520 C 0.81879 0.98074 0.98881 0.0
H521 H 0.81503 0.09449 0.93422 0.0
H522 H 0.8099 0.06331 0.98588 0.0
H523 H 0.82954 0.99704 0.92929 0.0
H524 H 0.81163 0.90647 0.06727 0.0
H525 H 0.80603 0.93652 0.01341 0.0
H526 H 0.78233 0.00338 0.06571 0.0
C527 C 0.80953 0.05978 0.95084 0.0
C528 C 0.81886 0.99852 0.95859 0.0
C529 C 0.81258 0.07764 0.92119 0.0
C530 C 0.81071 0.92373 0.07886 0.0
C531 C 0.80764 0.94098 0.04792 0.0
C532 C 0.79273 0.00181 0.03608 0.0
C533 C 0.80714 0.03752 0.93543 0.0
C534 C 0.80604 0.01827 0.96685 0.0
C535 C 0.80697 0.9637 0.06128 0.0
C536 C 0.80586 0.98219 0.02809 0.0
H537 H 0.81025 0.04776 0.8251 0.0
H538 H 0.80476 0.01678 0.8767 0.0
H539 H 0.78257 0.03453 0.01293 0.0
H540 H 0.8134 0.95596 0.17193 0.0
H541 H 0.80839 0.98595 0.11802 0.0
C542 C 0.18708 0.07738 0.57975 0.0
C543 C 0.18644 0.07335 0.62547 0.0
C544 C 0.19004 0.05952 0.55005 0.0
C545 C 0.18048 0.99832 0.5422 0.0
H546 H 0.21701 0.00308 0.43506 0.0
C547 C 0.18836 0.92352 0.42188 0.0
C548 C 0.18604 0.92858 0.37677 0.0
C549 C 0.19144 0.94076 0.45284 0.0
C550 C 0.2066 1.00154 0.46469 0.0
H551 H 0.1895 0.04743 0.67577 0.0
H552 H 0.19481 0.01647 0.62407 0.0
H553 H 0.21691 0.03421 0.48786 0.0
H554 H 0.18597 0.95577 0.32879 0.0
H555 H 0.19098 0.98574 0.38273 0.0
H556 H 0.16973 0.96595 0.51884 0.0
C557 C 0.19263 0.03337 0.61114 0.0
C558 C 0.20656 0.01938 0.49495 0.0
C559 C 0.18971 0.05118 0.64079 0.0
C560 C 0.18768 0.95122 0.36324 0.0
C561 C 0.1907 0.96845 0.39421 0.0
C562 C 0.18047 0.98054 0.51196 0.0
C563 C 0.1924 0.03725 0.56541 0.0
C564 C 0.19339 0.01802 0.53395 0.0
C565 C 0.19222 0.96348 0.43948 0.0
C566 C 0.1934 0.98197 0.47267 0.0
H567 H 0.18466 0.09423 0.56677 0.0
H568 H 0.18963 0.06308 0.51501 0.0
H569 H 0.16981 0.99687 0.57152 0.0
H570 H 0.18737 0.90627 0.43346 0.0
H571 H 0.19297 0.93628 0.48736 0.0
C572 C 0.17087 0.05455 0.87318 0.0
C573 C 0.19113 0.05872 0.84858 0.0
C574 C 0.17163 0.0409 0.91068 0.0
C575 C 0.20833 0.99808 0.96755 0.0
H576 H 0.16739 0.01163 0.06578 0.0
C577 C 0.2127 0.9535 0.13829 0.0
C578 C 0.19132 0.94502 0.15354 0.0
C579 C 0.21351 0.96752 0.10119 0.0
C580 C 0.17885 0.00763 0.03849 0.0
H581 H 0.22816 0.05212 0.84429 0.0
H582 H 0.22972 0.02896 0.91069 0.0
H583 H 0.16765 0.03627 0.00148 0.0
H584 H 0.15404 0.94468 0.1422 0.0
H585 H 0.15546 0.96958 0.07807 0.0
H586 H 0.21987 0.96968 0.0056 0.0
C587 C 0.21306 0.03568 0.90039 0.0
C588 C 0.17894 0.02165 0.00148 0.0
C589 C 0.21222 0.04908 0.86243 0.0
C590 C 0.17078 0.95092 0.13117 0.0
C591 C 0.17156 0.96524 0.09464 0.0
C592 C 0.2085 0.98426 0.00494 0.0
C593 C 0.19276 0.03137 0.92499 0.0
C594 C 0.19346 0.01692 0.96523 0.0
C595 C 0.19291 0.97363 0.07928 0.0
C596 C 0.19357 0.98878 0.0405 0.0
H597 H 0.1543 0.06158 0.86312 0.0
H598 H 0.15553 0.0376 0.92806 0.0
H599 H 0.21949 0.99365 0.94011 0.0
H600 H 0.22881 0.94917 0.15478 0.0
H601 H 0.23018 0.97387 0.09002 0.0
C602 C 0.78815 0.04883 0.63939 0.0
C603 C 0.80919 0.05875 0.65293 0.0
C604 C 0.78747 0.03496 0.60208 0.0
C605 C 0.82357 0.99777 0.53541 0.0
H606 H 0.7788 0.00838 0.442 0.0
C607 C 0.82981 0.95085 0.36984 0.0
C608 C 0.80916 0.94507 0.34782 0.0
C609 C 0.82924 0.96468 0.4071 0.0
C610 C 0.79117 0.00489 0.46806 0.0
H611 H 0.84601 0.06186 0.63815 0.0
H612 H 0.84484 0.03727 0.57359 0.0
H613 H 0.77851 0.03231 0.50752 0.0
H614 H 0.77167 0.94898 0.34781 0.0
H615 H 0.77051 0.9724 0.41389 0.0
H616 H 0.83592 0.97006 0.49707 0.0
C617 C 0.8289 0.04034 0.59172 0.0
C618 C 0.79104 0.01869 0.50547 0.0
C619 C 0.82952 0.05448 0.62852 0.0
C620 C 0.78789 0.95331 0.36394 0.0
C621 C 0.78727 0.96685 0.40171 0.0
C622 C 0.82348 0.98375 0.49841 0.0
C623 C 0.80788 0.03046 0.57815 0.0
C624 C 0.80739 0.01539 0.53924 0.0
C625 C 0.80796 0.97275 0.42379 0.0
C626 C 0.80745 0.98726 0.46395 0.0
H627 H 0.7722 0.05186 0.65746 0.0
H628 H 0.77107 0.02744 0.59235 0.0
H629 H 0.83617 0.9947 0.56132 0.0
H630 H 0.84651 0.94494 0.35793 0.0
H631 H 0.8456 0.96923 0.42244 0.0
C632 C 0.31671 0.29413 0.00659 0.0
C633 C 0.30593 0.30142 0.04566 0.0
C634 C 0.30462 0.28072 0.97639 0.0
C635 C 0.25715 0.23982 0.97039 0.0
H636 H 0.26003 0.25072 0.84437 0.0
C637 C 0.20483 0.18561 0.84767 0.0
C638 C 0.21565 0.17989 0.80776 0.0
C639 C 0.21492 0.2015 0.87581 0.0
C640 C 0.25927 0.24725 0.87941 0.0
H641 H 0.27427 0.29979 0.0844 0.0
H642 H 0.25306 0.27649 0.03151 0.0
H643 H 0.27929 0.2767 0.89503 0.0
H644 H 0.24507 0.18636 0.76516 0.0
H645 H 0.26323 0.21374 0.81479 0.0
H646 H 0.23775 0.2101 0.95506 0.0
C647 C 0.27079 0.28138 0.02404 0.0
C648 C 0.27023 0.26221 0.90841 0.0
C649 C 0.28282 0.295 0.05403 0.0
C650 C 0.23651 0.19054 0.79594 0.0
C651 C 0.24676 0.20631 0.82425 0.0
C652 C 0.24638 0.22475 0.94142 0.0
C653 C 0.28161 0.27401 0.98501 0.0
C654 C 0.26932 0.25862 0.9542 0.0
C655 C 0.23615 0.21191 0.8647 0.0
C656 C 0.24732 0.22823 0.89552 0.0
H657 H 0.33457 0.29871 0.99949 0.0
H658 H 0.3135 0.27508 0.94687 0.0
H659 H 0.25646 0.23642 0.00548 0.0
H660 H 0.18848 0.17785 0.85698 0.0
H661 H 0.20597 0.20572 0.90614 0.0
C662 C 0.7151 0.70883 0.55326 0.0
C663 C 0.69188 0.70249 0.54597 0.0
C664 C 0.72664 0.72284 0.52323 0.0
C665 C 0.71462 0.7643 0.43426 0.0
H666 H 0.78033 0.75695 0.40891 0.0
C667 C 0.76169 0.81481 0.29775 0.0
C668 C 0.78301 0.82453 0.30974 0.0
C669 C 0.75079 0.79931 0.32573 0.0
C670 C 0.762 0.75927 0.41591 0.0
H671 H 0.66257 0.7056 0.50148 0.0
H672 H 0.68279 0.72947 0.44845 0.0
H673 H 0.76096 0.73057 0.45869 0.0
H674 H 0.81018 0.82534 0.35912 0.0
H675 H 0.7912 0.79813 0.4082 0.0
H676 H 0.71566 0.79285 0.39104 0.0
C677 C 0.69205 0.72405 0.47769 0.0
C678 C 0.75089 0.74421 0.44453 0.0
C679 C 0.68049 0.71023 0.50791 0.0
C680 C 0.79358 0.81819 0.34957 0.0
C681 C 0.78282 0.80253 0.37737 0.0
C682 C 0.72567 0.77921 0.40537 0.0
C683 C 0.7152 0.73079 0.4852 0.0
C684 C 0.72705 0.74655 0.45417 0.0
C685 C 0.76123 0.79304 0.36588 0.0
C686 C 0.74948 0.7769 0.39598 0.0
H687 H 0.72411 0.70376 0.58298 0.0
H688 H 0.74429 0.72802 0.53059 0.0
H689 H 0.69638 0.76696 0.44158 0.0
H690 H 0.75338 0.81938 0.26694 0.0
H691 H 0.73429 0.79208 0.31581 0.0
C692 C 0.23771 0.81404 0.20417 0.0
C693 C 0.21659 0.82404 0.19176 0.0
C694 C 0.24855 0.79842 0.1764 0.0
C695 C 0.23733 0.75861 0.08581 0.0
H696 H 0.30316 0.76563 0.06138 0.0
C697 C 0.28424 0.70831 0.94835 0.0
C698 C 0.30739 0.70177 0.95577 0.0
C699 C 0.27272 0.72224 0.97855 0.0
C700 C 0.28486 0.76314 0.06835 0.0
H701 H 0.1897 0.8252 0.14185 0.0
H702 H 0.20859 0.79778 0.09312 0.0
H703 H 0.28395 0.79159 0.11184 0.0
H704 H 0.33656 0.70435 0.00069 0.0
H705 H 0.31635 0.72805 0.05403 0.0
H706 H 0.23823 0.73003 0.04274 0.0
C707 C 0.21686 0.80206 0.12412 0.0
C708 C 0.27385 0.7781 0.0972 0.0
C709 C 0.20616 0.81785 0.15171 0.0
C710 C 0.3187 0.70916 0.99416 0.0
C711 C 0.30715 0.72288 0.02455 0.0
C712 C 0.24839 0.7435 0.05724 0.0
C713 C 0.23825 0.7923 0.13603 0.0
C714 C 0.24996 0.77605 0.10611 0.0
C715 C 0.2841 0.72987 0.01689 0.0
C716 C 0.2723 0.74561 0.04802 0.0
H717 H 0.24591 0.8185 0.23515 0.0
H718 H 0.26489 0.79098 0.18664 0.0
H719 H 0.21894 0.75649 0.09245 0.0
H720 H 0.2753 0.7035 0.91839 0.0
H721 H 0.25514 0.72761 0.97106 0.0
C722 C 0.71691 0.29536 0.44707 0.0
C723 C 0.6938 0.30171 0.4556 0.0
C724 C 0.72904 0.28176 0.47698 0.0
C725 C 0.72981 0.26253 0.5926 0.0
H726 H 0.76238 0.21052 0.54574 0.0
C727 C 0.76356 0.19078 0.70481 0.0
C728 C 0.78445 0.18017 0.69302 0.0
C729 C 0.75331 0.20656 0.67652 0.0
C730 C 0.75372 0.22515 0.55944 0.0
H731 H 0.66526 0.29891 0.50198 0.0
H732 H 0.68649 0.27533 0.55443 0.0
H733 H 0.74359 0.23686 0.49543 0.0
H734 H 0.81166 0.17821 0.64387 0.0
H735 H 0.79415 0.2061 0.59473 0.0
H736 H 0.74005 0.25099 0.6566 0.0
C737 C 0.69531 0.281 0.52486 0.0
C738 C 0.74291 0.24022 0.53053 0.0
C739 C 0.68312 0.29438 0.49475 0.0
C740 C 0.79529 0.18594 0.65315 0.0
C741 C 0.78519 0.20184 0.62503 0.0
C742 C 0.74081 0.24756 0.62154 0.0
C743 C 0.71832 0.27435 0.51608 0.0
C744 C 0.7307 0.25898 0.5468 0.0
C745 C 0.76395 0.21222 0.63612 0.0
C746 C 0.75277 0.22857 0.60536 0.0
H747 H 0.72539 0.30016 0.41663 0.0
H748 H 0.74677 0.27691 0.46937 0.0
H749 H 0.72073 0.27698 0.60605 0.0
H750 H 0.75498 0.18656 0.73555 0.0
H751 H 0.73682 0.21396 0.68596 0.0
C752 C 0.7361 0.69018 0.79765 0.0
C753 C 0.71496 0.67991 0.8089 0.0
C754 C 0.74628 0.70597 0.82599 0.0
C755 C 0.74503 0.72511 0.94264 0.0
H756 H 0.77912 0.77631 0.89616 0.0
C757 C 0.782 0.79526 0.0549 0.0
C758 C 0.80527 0.80125 0.04689 0.0
C759 C 0.7699 0.78172 0.02489 0.0
C760 C 0.76972 0.76203 0.90957 0.0
H761 H 0.68724 0.67851 0.8571 0.0
H762 H 0.70464 0.70642 0.90634 0.0
H763 H 0.75985 0.75035 0.84548 0.0
H764 H 0.83412 0.79786 0.00136 0.0
H765 H 0.81293 0.77435 0.94872 0.0
H766 H 0.75481 0.73695 0.00675 0.0
C767 C 0.71384 0.7019 0.87644 0.0
C768 C 0.75876 0.74709 0.88056 0.0
C769 C 0.7038 0.686 0.84826 0.0
C770 C 0.81613 0.79361 0.00817 0.0
C771 C 0.80397 0.78028 0.97795 0.0
C772 C 0.75582 0.74016 0.97162 0.0
C773 C 0.73532 0.71196 0.86589 0.0
C774 C 0.74642 0.72832 0.89671 0.0
C775 C 0.7808 0.77399 0.98621 0.0
C776 C 0.76842 0.75868 0.95539 0.0
H777 H 0.74491 0.68571 0.76729 0.0
H778 H 0.76296 0.71312 0.817 0.0
H779 H 0.73606 0.71065 0.95632 0.0
H780 H 0.77337 0.80031 0.08502 0.0
H781 H 0.75204 0.77715 0.03208 0.0
C782 C 0.21674 0.20769 0.55363 0.0
C783 C 0.19379 0.20095 0.54469 0.0
C784 C 0.22877 0.22148 0.52392 0.0
C785 C 0.22989 0.24066 0.40835 0.0
H786 H 0.26078 0.29349 0.4558 0.0
C787 C 0.26292 0.3128 0.29643 0.0
C788 C 0.28351 0.32383 0.30863 0.0
C789 C 0.25273 0.29698 0.32468 0.0
C790 C 0.2526 0.27864 0.44195 0.0
H791 H 0.16545 0.20319 0.49777 0.0
H792 H 0.18654 0.22709 0.44561 0.0
H793 H 0.24228 0.26677 0.50575 0.0
H794 H 0.31023 0.32653 0.35861 0.0
H795 H 0.29282 0.29858 0.40772 0.0
H796 H 0.24034 0.25235 0.34458 0.0
C797 C 0.1953 0.22159 0.47538 0.0
C798 C 0.24195 0.26335 0.47064 0.0
C799 C 0.1832 0.20803 0.5053 0.0
C800 C 0.29408 0.31848 0.34898 0.0
C801 C 0.28404 0.30254 0.37709 0.0
C802 C 0.24073 0.25585 0.37963 0.0
C803 C 0.21812 0.22868 0.48461 0.0
C804 C 0.23035 0.24429 0.45414 0.0
C805 C 0.26312 0.29168 0.36548 0.0
C806 C 0.25209 0.27513 0.39603 0.0
H807 H 0.22513 0.20306 0.58425 0.0
H808 H 0.24636 0.22666 0.53186 0.0
H809 H 0.22127 0.22598 0.39474 0.0
H810 H 0.25456 0.31668 0.2653 0.0
H811 H 0.23648 0.28921 0.31483 0.0
C812 C 0.78257 0.20763 0.94745 0.0
C813 C 0.80563 0.20122 0.95623 0.0
C814 C 0.77042 0.22133 0.97714 0.0
C815 C 0.76944 0.24082 0.09257 0.0
H816 H 0.73738 0.29296 0.045 0.0
C817 C 0.73594 0.31289 0.20408 0.0
C818 C 0.71513 0.32359 0.19216 0.0
C819 C 0.74618 0.29708 0.17587 0.0
C820 C 0.74589 0.2783 0.05889 0.0
H821 H 0.83407 0.20399 0.00284 0.0
H822 H 0.81279 0.22775 0.05492 0.0
H823 H 0.75609 0.26638 0.99506 0.0
H824 H 0.68806 0.32572 0.14275 0.0
H825 H 0.70555 0.29778 0.09371 0.0
H826 H 0.75912 0.25256 0.15638 0.0
C827 C 0.80403 0.22205 0.02532 0.0
C828 C 0.75666 0.26309 0.0302 0.0
C829 C 0.81623 0.20856 0.99543 0.0
C830 C 0.70438 0.31792 0.15215 0.0
C831 C 0.71446 0.30199 0.12409 0.0
C832 C 0.75848 0.25592 0.12129 0.0
C833 C 0.78107 0.22878 0.01627 0.0
C834 C 0.76869 0.24428 0.04674 0.0
C835 C 0.73561 0.29146 0.1354 0.0
C836 C 0.74671 0.27497 0.10485 0.0
H837 H 0.77415 0.20281 0.91697 0.0
H838 H 0.75273 0.22624 0.96933 0.0
H839 H 0.77838 0.22633 0.10622 0.0
H840 H 0.74445 0.31702 0.23494 0.0
H841 H 0.76259 0.28958 0.18547 0.0
C842 C 0.18251 0.79333 0.49257 0.0
C843 C 0.19349 0.80112 0.45407 0.0
C844 C 0.19463 0.78001 0.52287 0.0
C845 C 0.24317 0.74028 0.52967 0.0
H846 H 0.23849 0.75016 0.65582 0.0
C847 C 0.29552 0.68657 0.65318 0.0
C848 C 0.2843 0.68019 0.6923 0.0
C849 C 0.28536 0.70244 0.62508 0.0
C850 C 0.23977 0.74698 0.62072 0.0
H851 H 0.22555 0.80042 0.4164 0.0
H852 H 0.24681 0.77733 0.4695 0.0
H853 H 0.21909 0.77599 0.60505 0.0
H854 H 0.25413 0.68546 0.73361 0.0
H855 H 0.23588 0.7128 0.68402 0.0
H856 H 0.26327 0.711 0.54503 0.0
C857 C 0.22889 0.78175 0.47646 0.0
C858 C 0.22872 0.76185 0.59166 0.0
C859 C 0.21682 0.79527 0.44636 0.0
C860 C 0.26299 0.69016 0.70343 0.0
C861 C 0.25269 0.70591 0.67516 0.0
C862 C 0.25404 0.72531 0.55869 0.0
C863 C 0.21788 0.77389 0.51493 0.0
C864 C 0.23026 0.75862 0.54584 0.0
C865 C 0.26369 0.71217 0.63546 0.0
C866 C 0.25245 0.72842 0.60462 0.0
H867 H 0.16448 0.79746 0.49915 0.0
H868 H 0.1856 0.77397 0.55193 0.0
H869 H 0.24437 0.73716 0.49453 0.0
H870 H 0.3122 0.67932 0.64444 0.0
H871 H 0.29459 0.70718 0.59535 0.0
loop_
_geom_bond_atom_site_label_1
_geom_bond_atom_site_label_2
_geom_bond_distance
_geom_bond_site_symmetry_2
_ccdc_geom_bond_type
Co0 O3 1.970 . S
Co0 N17 1.989 . S
Co0 O25 1.967 . S
Co0 O32 1.920 . S
Co1 O4 1.966 . S
Co1 N10 2.022 . S
Co1 N18 1.993 . S
Co1 O26 1.941 . S
C2 O3 1.258 . S
C2 O4 1.263 . S
O3 Co0 1.970 . S
O3 C2 1.258 . S
O4 Co1 1.966 . S
O4 C2 1.263 . S
C5 O6 1.235 . S
C5 O32 1.289 . S
O6 C5 1.235 . S
C7 C9 1.400 . S
C7 N10 1.351 . S
C7 C12 1.501 . S
C8 C9 1.387 . S
C8 N11 1.341 . S
C9 C7 1.400 . S
C9 C8 1.387 . S
N10 Co1 2.022 . S
N10 C7 1.351 . S
N10 N11 1.365 . S
N11 C8 1.341 . S
N11 N10 1.365 . S
N11 H31 0.862 . S
C12 C7 1.501 . S
C12 H13 0.961 . S
C12 H14 0.961 . S
C12 H15 0.960 . S
H13 C12 0.961 . S
H14 C12 0.961 . S
H15 C12 0.960 . S
C16 N17 1.342 . S
C16 C20 1.401 . S
C16 C21 1.499 . S
N17 Co0 1.989 . S
N17 C16 1.342 . S
N17 N18 1.388 . S
N18 Co1 1.993 . S
N18 N17 1.388 . S
N18 C19 1.346 . S
C19 N18 1.346 . S
C19 C20 1.396 . S
C19 C29 1.510 . S
C20 C16 1.401 . S
C20 C19 1.396 . S
C21 C16 1.499 . S
C21 H22 0.959 . S
C21 H23 0.960 . S
C21 H24 0.961 . S
H22 C21 0.959 . S
H23 C21 0.960 . S
H24 C21 0.961 . S
O25 Co0 1.967 . S
O25 C33 1.258 . S
O26 Co1 1.941 . S
O26 C33 1.266 . S
H27 C29 0.959 . S
H28 C29 0.961 . S
C29 C19 1.510 . S
C29 H27 0.959 . S
C29 H28 0.961 . S
C29 H30 0.960 . S
H30 C29 0.960 . S
H31 N11 0.862 . S
O32 Co0 1.920 . S
O32 C5 1.289 . S
C33 O25 1.258 . S
C33 O26 1.266 . S
Co34 O37 1.970 . S
Co34 N51 1.989 . S
Co34 O59 1.967 . S
Co34 O66 1.920 . S
Co35 O38 1.966 . S
Co35 N44 2.022 . S
Co35 N52 1.993 . S
Co35 O60 1.941 . S
C36 O37 1.258 . S
C36 O38 1.263 . S
O37 Co34 1.970 . S
O37 C36 1.258 . S
O38 Co35 1.966 . S
O38 C36 1.263 . S
C39 O40 1.235 . S
C39 O66 1.289 . S
O40 C39 1.235 . S
C41 C43 1.400 . S
C41 N44 1.351 . S
C41 C46 1.501 . S
C42 C43 1.387 . S
C42 N45 1.341 . S
C43 C41 1.400 . S
C43 C42 1.387 . S
N44 Co35 2.022 . S
N44 C41 1.351 . S
N44 N45 1.365 . S
N45 C42 1.341 . S
N45 N44 1.365 . S
N45 H65 0.862 . S
C46 C41 1.501 . S
C46 H47 0.961 . S
C46 H48 0.961 . S
C46 H49 0.960 . S
H47 C46 0.961 . S
H48 C46 0.961 . S
H49 C46 0.960 . S
C50 N51 1.342 . S
C50 C54 1.401 . S
C50 C55 1.499 . S
N51 Co34 1.989 . S
N51 C50 1.342 . S
N51 N52 1.388 . S
N52 Co35 1.993 . S
N52 N51 1.388 . S
N52 C53 1.346 . S
C53 N52 1.346 . S
C53 C54 1.396 . S
C53 C63 1.510 . S
C54 C50 1.401 . S
C54 C53 1.396 . S
C55 C50 1.499 . S
C55 H56 0.959 . S
C55 H57 0.960 . S
C55 H58 0.961 . S
H56 C55 0.959 . S
H57 C55 0.960 . S
H58 C55 0.961 . S
O59 Co34 1.967 . S
O59 C67 1.258 . S
O60 Co35 1.941 . S
O60 C67 1.266 . S
H61 C63 0.959 . S
H62 C63 0.961 . S
C63 C53 1.510 . S
C63 H61 0.959 . S
C63 H62 0.961 . S
C63 H64 0.960 . S
H64 C63 0.960 . S
H65 N45 0.862 . S
O66 Co34 1.920 . S
O66 C39 1.289 . S
C67 O59 1.258 . S
C67 O60 1.266 . S
Co68 O71 1.970 . S
Co68 N85 1.989 . S
Co68 O93 1.967 . S
Co68 O100 1.920 . S
Co69 O72 1.966 . S
Co69 N78 2.022 . S
Co69 N86 1.993 . S
Co69 O94 1.941 . S
C70 O71 1.258 . S
C70 O72 1.263 . S
O71 Co68 1.970 . S
O71 C70 1.258 . S
O72 Co69 1.966 . S
O72 C70 1.263 . S
C73 O74 1.235 . S
C73 O100 1.289 . S
O74 C73 1.235 . S
C75 C77 1.400 . S
C75 N78 1.351 . S
C75 C80 1.501 . S
C76 C77 1.387 . S
C76 N79 1.341 . S
C77 C75 1.400 . S
C77 C76 1.387 . S
N78 Co69 2.022 . S
N78 C75 1.351 . S
N78 N79 1.365 . S
N79 C76 1.341 . S
N79 N78 1.365 . S
N79 H99 0.862 . S
C80 C75 1.501 . S
C80 H81 0.961 . S
C80 H82 0.961 . S
C80 H83 0.960 . S
H81 C80 0.961 . S
H82 C80 0.961 . S
H83 C80 0.960 . S
C84 N85 1.342 . S
C84 C88 1.401 . S
C84 C89 1.499 . S
N85 Co68 1.989 . S
N85 C84 1.342 . S
N85 N86 1.388 . S
N86 Co69 1.993 . S
N86 N85 1.388 . S
N86 C87 1.346 . S
C87 N86 1.346 . S
C87 C88 1.396 . S
C87 C97 1.510 . S
C88 C84 1.401 . S
C88 C87 1.396 . S
C89 C84 1.499 . S
C89 H90 0.959 . S
C89 H91 0.960 . S
C89 H92 0.961 . S
H90 C89 0.959 . S
H91 C89 0.960 . S
H92 C89 0.961 . S
O93 Co68 1.967 . S
O93 C101 1.258 . S
O94 Co69 1.941 . S
O94 C101 1.266 . S
H95 C97 0.959 . S
H96 C97 0.961 . S
C97 C87 1.510 . S
C97 H95 0.959 . S
C97 H96 0.961 . S
C97 H98 0.960 . S
H98 C97 0.960 . S
H99 N79 0.862 . S
O100 Co68 1.920 . S
O100 C73 1.289 . S
C101 O93 1.258 . S
C101 O94 1.266 . S
Co102 O105 1.970 . S
Co102 N119 1.989 . S
Co102 O127 1.967 . S
Co102 O134 1.920 . S
Co103 O106 1.966 . S
Co103 N112 2.022 . S
Co103 N120 1.993 . S
Co103 O128 1.941 . S
C104 O105 1.258 . S
C104 O106 1.263 . S
O105 Co102 1.970 . S
O105 C104 1.258 . S
O106 Co103 1.966 . S
O106 C104 1.263 . S
C107 O108 1.235 . S
C107 O134 1.289 . S
O108 C107 1.235 . S
C109 C111 1.400 . S
C109 N112 1.351 . S
C109 C114 1.501 . S
C110 C111 1.387 . S
C110 N113 1.341 . S
C111 C109 1.400 . S
C111 C110 1.387 . S
N112 Co103 2.022 . S
N112 C109 1.351 . S
N112 N113 1.365 . S
N113 C110 1.341 . S
N113 N112 1.365 . S
N113 H133 0.862 . S
C114 C109 1.501 . S
C114 H115 0.961 . S
C114 H116 0.961 . S
C114 H117 0.960 . S
H115 C114 0.961 . S
H116 C114 0.961 . S
H117 C114 0.960 . S
C118 N119 1.342 . S
C118 C122 1.401 . S
C118 C123 1.499 . S
N119 Co102 1.989 . S
N119 C118 1.342 . S
N119 N120 1.388 . S
N120 Co103 1.993 . S
N120 N119 1.388 . S
N120 C121 1.346 . S
C121 N120 1.346 . S
C121 C122 1.396 . S
C121 C131 1.510 . S
C122 C118 1.401 . S
C122 C121 1.396 . S
C123 C118 1.499 . S
C123 H124 0.959 . S
C123 H125 0.960 . S
C123 H126 0.961 . S
H124 C123 0.959 . S
H125 C123 0.960 . S
H126 C123 0.961 . S
O127 Co102 1.967 . S
O127 C135 1.258 . S
O128 Co103 1.941 . S
O128 C135 1.266 . S
H129 C131 0.959 . S
H130 C131 0.961 . S
C131 C121 1.510 . S
C131 H129 0.959 . S
C131 H130 0.961 . S
C131 H132 0.960 . S
H132 C131 0.960 . S
H133 N113 0.862 . S
O134 Co102 1.920 . S
O134 C107 1.289 . S
C135 O127 1.258 . S
C135 O128 1.266 . S
Co136 O139 1.970 . S
Co136 N153 1.989 . S
Co136 O161 1.967 . S
Co136 O168 1.920 . S
Co137 O140 1.966 . S
Co137 N146 2.022 . S
Co137 N154 1.993 . S
Co137 O162 1.941 . S
C138 O139 1.258 . S
C138 O140 1.263 . S
O139 Co136 1.970 . S
O139 C138 1.258 . S
O140 Co137 1.966 . S
O140 C138 1.263 . S
C141 O142 1.235 . S
C141 O168 1.289 . S
O142 C141 1.235 . S
C143 C145 1.400 . S
C143 N146 1.351 . S
C143 C148 1.501 . S
C144 C145 1.387 . S
C144 N147 1.341 . S
C145 C143 1.400 . S
C145 C144 1.387 . S
N146 Co137 2.022 . S
N146 C143 1.351 . S
N146 N147 1.365 . S
N147 C144 1.341 . S
N147 N146 1.365 . S
N147 H167 0.862 . S
C148 C143 1.501 . S
C148 H149 0.961 . S
C148 H150 0.961 . S
C148 H151 0.960 . S
H149 C148 0.961 . S
H150 C148 0.961 . S
H151 C148 0.960 . S
C152 N153 1.342 . S
C152 C156 1.401 . S
C152 C157 1.499 . S
N153 Co136 1.989 . S
N153 C152 1.342 . S
N153 N154 1.388 . S
N154 Co137 1.993 . S
N154 N153 1.388 . S
N154 C155 1.346 . S
C155 N154 1.346 . S
C155 C156 1.396 . S
C155 C165 1.510 . S
C156 C152 1.401 . S
C156 C155 1.396 . S
C157 C152 1.499 . S
C157 H158 0.959 . S
C157 H159 0.960 . S
C157 H160 0.961 . S
H158 C157 0.959 . S
H159 C157 0.960 . S
H160 C157 0.961 . S
O161 Co136 1.967 . S
O161 C169 1.258 . S
O162 Co137 1.941 . S
O162 C169 1.266 . S
H163 C165 0.959 . S
H164 C165 0.961 . S
C165 C155 1.510 . S
C165 H163 0.959 . S
C165 H164 0.961 . S
C165 H166 0.960 . S
H166 C165 0.960 . S
H167 N147 0.862 . S
O168 Co136 1.920 . S
O168 C141 1.289 . S
C169 O161 1.258 . S
C169 O162 1.266 . S
Co170 O173 1.970 . S
Co170 N187 1.989 . S
Co170 O195 1.967 . S
Co170 O202 1.920 . S
Co171 O174 1.966 . S
Co171 N180 2.022 . S
Co171 N188 1.993 . S
Co171 O196 1.941 . S
C172 O173 1.258 . S
C172 O174 1.263 . S
O173 Co170 1.970 . S
O173 C172 1.258 . S
O174 Co171 1.966 . S
O174 C172 1.263 . S
C175 O176 1.235 . S
C175 O202 1.289 . S
O176 C175 1.235 . S
C177 C179 1.400 . S
C177 N180 1.351 . S
C177 C182 1.501 . S
C178 C179 1.387 . S
C178 N181 1.341 . S
C179 C177 1.400 . S
C179 C178 1.387 . S
N180 Co171 2.022 . S
N180 C177 1.351 . S
N180 N181 1.365 . S
N181 C178 1.341 . S
N181 N180 1.365 . S
N181 H201 0.862 . S
C182 C177 1.501 . S
C182 H183 0.961 . S
C182 H184 0.961 . S
C182 H185 0.960 . S
H183 C182 0.961 . S
H184 C182 0.961 . S
H185 C182 0.960 . S
C186 N187 1.342 . S
C186 C190 1.401 . S
C186 C191 1.499 . S
N187 Co170 1.989 . S
N187 C186 1.342 . S
N187 N188 1.388 . S
N188 Co171 1.993 . S
N188 N187 1.388 . S
N188 C189 1.346 . S
C189 N188 1.346 . S
C189 C190 1.396 . S
C189 C199 1.510 . S
C190 C186 1.401 . S
C190 C189 1.396 . S
C191 C186 1.499 . S
C191 H192 0.959 . S
C191 H193 0.960 . S
C191 H194 0.961 . S
H192 C191 0.959 . S
H193 C191 0.960 . S
H194 C191 0.961 . S
O195 Co170 1.967 . S
O195 C203 1.258 . S
O196 Co171 1.941 . S
O196 C203 1.266 . S
H197 C199 0.959 . S
H198 C199 0.961 . S
C199 C189 1.510 . S
C199 H197 0.959 . S
C199 H198 0.961 . S
C199 H200 0.960 . S
H200 C199 0.960 . S
H201 N181 0.862 . S
O202 Co170 1.920 . S
O202 C175 1.289 . S
C203 O195 1.258 . S
C203 O196 1.266 . S
Co204 O207 1.970 . S
Co204 N221 1.989 . S
Co204 O229 1.967 . S
Co204 O236 1.920 . S
Co205 O208 1.966 . S
Co205 N214 2.022 . S
Co205 N222 1.993 . S
Co205 O230 1.941 . S
C206 O207 1.258 . S
C206 O208 1.263 . S
O207 Co204 1.970 . S
O207 C206 1.258 . S
O208 Co205 1.966 . S
O208 C206 1.263 . S
C209 O210 1.235 . S
C209 O236 1.289 . S
O210 C209 1.235 . S
C211 C213 1.400 . S
C211 N214 1.351 . S
C211 C216 1.501 . S
C212 C213 1.387 . S
C212 N215 1.341 . S
C213 C211 1.400 . S
C213 C212 1.387 . S
N214 Co205 2.022 . S
N214 C211 1.351 . S
N214 N215 1.365 . S
N215 C212 1.341 . S
N215 N214 1.365 . S
N215 H235 0.862 . S
C216 C211 1.501 . S
C216 H217 0.961 . S
C216 H218 0.961 . S
C216 H219 0.960 . S
H217 C216 0.961 . S
H218 C216 0.961 . S
H219 C216 0.960 . S
C220 N221 1.342 . S
C220 C224 1.401 . S
C220 C225 1.499 . S
N221 Co204 1.989 . S
N221 C220 1.342 . S
N221 N222 1.388 . S
N222 Co205 1.993 . S
N222 N221 1.388 . S
N222 C223 1.346 . S
C223 N222 1.346 . S
C223 C224 1.396 . S
C223 C233 1.510 . S
C224 C220 1.401 . S
C224 C223 1.396 . S
C225 C220 1.499 . S
C225 H226 0.959 . S
C225 H227 0.960 . S
C225 H228 0.961 . S
H226 C225 0.959 . S
H227 C225 0.960 . S
H228 C225 0.961 . S
O229 Co204 1.967 . S
O229 C237 1.258 . S
O230 Co205 1.941 . S
O230 C237 1.266 . S
H231 C233 0.959 . S
H232 C233 0.961 . S
C233 C223 1.510 . S
C233 H231 0.959 . S
C233 H232 0.961 . S
C233 H234 0.960 . S
H234 C233 0.960 . S
H235 N215 0.862 . S
O236 Co204 1.920 . S
O236 C209 1.289 . S
C237 O229 1.258 . S
C237 O230 1.266 . S
Co238 O241 1.970 . S
Co238 N255 1.989 . S
Co238 O263 1.967 . S
Co238 O270 1.920 . S
Co239 O242 1.966 . S
Co239 N248 2.022 . S
Co239 N256 1.993 . S
Co239 O264 1.941 . S
C240 O241 1.258 . S
C240 O242 1.263 . S
O241 Co238 1.970 . S
O241 C240 1.258 . S
O242 Co239 1.966 . S
O242 C240 1.263 . S
C243 O244 1.235 . S
C243 O270 1.289 . S
O244 C243 1.235 . S
C245 C247 1.400 . S
C245 N248 1.351 . S
C245 C250 1.501 . S
C246 C247 1.387 . S
C246 N249 1.341 . S
C247 C245 1.400 . S
C247 C246 1.387 . S
N248 Co239 2.022 . S
N248 C245 1.351 . S
N248 N249 1.365 . S
N249 C246 1.341 . S
N249 N248 1.365 . S
N249 H269 0.862 . S
C250 C245 1.501 . S
C250 H251 0.961 . S
C250 H252 0.961 . S
C250 H253 0.960 . S
H251 C250 0.961 . S
H252 C250 0.961 . S
H253 C250 0.960 . S
C254 N255 1.342 . S
C254 C258 1.401 . S
C254 C259 1.499 . S
N255 Co238 1.989 . S
N255 C254 1.342 . S
N255 N256 1.388 . S
N256 Co239 1.993 . S
N256 N255 1.388 . S
N256 C257 1.346 . S
C257 N256 1.346 . S
C257 C258 1.396 . S
C257 C267 1.510 . S
C258 C254 1.401 . S
C258 C257 1.396 . S
C259 C254 1.499 . S
C259 H260 0.959 . S
C259 H261 0.960 . S
C259 H262 0.961 . S
H260 C259 0.959 . S
H261 C259 0.960 . S
H262 C259 0.961 . S
O263 Co238 1.967 . S
O263 C271 1.258 . S
O264 Co239 1.941 . S
O264 C271 1.266 . S
H265 C267 0.959 . S
H266 C267 0.961 . S
C267 C257 1.510 . S
C267 H265 0.959 . S
C267 H266 0.961 . S
C267 H268 0.960 . S
H268 C267 0.960 . S
H269 N249 0.862 . S
O270 Co238 1.920 . S
O270 C243 1.289 . S
C271 O263 1.258 . S
C271 O264 1.266 . S
C272 C273 1.349 . S
C272 C274 1.327 . S
C272 H297 0.950 . S
C273 C272 1.349 . S
C273 C289 1.349 . S
C274 C272 1.327 . S
C274 C293 1.429 . S
C274 H298 0.950 . S
C275 C292 1.574 . S
C275 C294 1.368 . S
C275 H299 0.949 . S
H276 C280 0.949 . S
C277 C278 1.349 . S
C277 C279 1.327 . S
C277 H300 0.950 . S
C278 C277 1.349 . S
C278 C290 1.349 . S
C279 C277 1.327 . S
C279 C295 1.429 . S
C279 H301 0.950 . S
C280 H276 0.949 . S
C280 C288 1.574 . S
C280 C296 1.368 . S
H281 C289 0.950 . S
H282 C287 0.950 . S
H283 C288 0.949 . S
H284 C290 0.950 . S
H285 C291 0.950 . S
H286 C292 0.949 . S
C287 H282 0.950 . S
C287 C289 1.327 . S
C287 C293 1.429 . S
C288 C280 1.574 . S
C288 H283 0.949 . S
C288 C294 1.368 . S
C289 C273 1.349 . S
C289 H281 0.950 . S
C289 C287 1.327 . S
C290 C278 1.349 . S
C290 H284 0.950 . S
C290 C291 1.327 . S
C291 H285 0.950 . S
C291 C290 1.327 . S
C291 C295 1.429 . S
C292 C275 1.574 . S
C292 H286 0.949 . S
C292 C296 1.368 . S
C293 C274 1.429 . S
C293 C287 1.429 . S
C293 C294 1.523 . S
C294 C275 1.368 . S
C294 C288 1.368 . S
C294 C293 1.523 . S
C295 C279 1.429 . S
C295 C291 1.429 . S
C295 C296 1.523 . S
C296 C280 1.368 . S
C296 C292 1.368 . S
C296 C295 1.523 . S
H297 C272 0.950 . S
H298 C274 0.950 . S
H299 C275 0.949 . S
H300 C277 0.950 . S
H301 C279 0.950 . S
C302 C303 1.349 . S
C302 C304 1.327 . S
C302 H327 0.950 . S
C303 C302 1.349 . S
C303 C319 1.349 . S
C304 C302 1.327 . S
C304 C323 1.429 . S
C304 H328 0.950 . S
C305 C322 1.574 . S
C305 C324 1.368 . S
C305 H329 0.949 . S
H306 C310 0.949 . S
C307 C308 1.349 . S
C307 C309 1.327 . S
C307 H330 0.950 . S
C308 C307 1.349 . S
C308 C320 1.349 . S
C309 C307 1.327 . S
C309 C325 1.429 . S
C309 H331 0.950 . S
C310 H306 0.949 . S
C310 C318 1.574 . S
C310 C326 1.368 . S
H311 C319 0.950 . S
H312 C317 0.950 . S
H313 C318 0.949 . S
H314 C320 0.950 . S
H315 C321 0.950 . S
H316 C322 0.949 . S
C317 H312 0.950 . S
C317 C319 1.327 . S
C317 C323 1.429 . S
C318 C310 1.574 . S
C318 H313 0.949 . S
C318 C324 1.368 . S
C319 C303 1.349 . S
C319 H311 0.950 . S
C319 C317 1.327 . S
C320 C308 1.349 . S
C320 H314 0.950 . S
C320 C321 1.327 . S
C321 H315 0.950 . S
C321 C320 1.327 . S
C321 C325 1.429 . S
C322 C305 1.574 . S
C322 H316 0.949 . S
C322 C326 1.368 . S
C323 C304 1.429 . S
C323 C317 1.429 . S
C323 C324 1.523 . S
C324 C305 1.368 . S
C324 C318 1.368 . S
C324 C323 1.523 . S
C325 C309 1.429 . S
C325 C321 1.429 . S
C325 C326 1.523 . S
C326 C310 1.368 . S
C326 C322 1.368 . S
C326 C325 1.523 . S
H327 C302 0.950 . S
H328 C304 0.950 . S
H329 C305 0.949 . S
H330 C307 0.950 . S
H331 C309 0.950 . S
C332 C333 1.349 . S
C332 C334 1.327 . S
C332 H357 0.950 . S
C333 C332 1.349 . S
C333 C349 1.349 . S
C334 C332 1.327 . S
C334 C353 1.429 . S
C334 H358 0.950 . S
C335 C352 1.574 1_455 S
C335 C354 1.368 . S
C335 H359 0.949 . S
H336 C340 0.949 . S
C337 C338 1.349 . S
C337 C339 1.327 . S
C337 H360 0.950 . S
C338 C337 1.349 . S
C338 C350 1.349 . S
C339 C337 1.327 . S
C339 C355 1.429 . S
C339 H361 0.950 . S
C340 H336 0.949 . S
C340 C348 1.574 1_655 S
C340 C356 1.368 . S
H341 C349 0.950 . S
H342 C347 0.950 . S
H343 C348 0.949 . S
H344 C350 0.950 . S
H345 C351 0.950 . S
H346 C352 0.949 . S
C347 H342 0.950 . S
C347 C349 1.327 . S
C347 C353 1.429 . S
C348 C340 1.574 1_455 S
C348 H343 0.949 . S
C348 C354 1.368 . S
C349 C333 1.349 . S
C349 H341 0.950 . S
C349 C347 1.327 . S
C350 C338 1.349 . S
C350 H344 0.950 . S
C350 C351 1.327 . S
C351 H345 0.950 . S
C351 C350 1.327 . S
C351 C355 1.429 . S
C352 C335 1.574 1_655 S
C352 H346 0.949 . S
C352 C356 1.368 . S
C353 C334 1.429 . S
C353 C347 1.429 . S
C353 C354 1.523 . S
C354 C335 1.368 . S
C354 C348 1.368 . S
C354 C353 1.523 . S
C355 C339 1.429 . S
C355 C351 1.429 . S
C355 C356 1.523 . S
C356 C340 1.368 . S
C356 C352 1.368 . S
C356 C355 1.523 . S
H357 C332 0.950 . S
H358 C334 0.950 . S
H359 C335 0.949 . S
H360 C337 0.950 . S
H361 C339 0.950 . S
C362 C363 1.349 . S
C362 C364 1.327 . S
C362 H387 0.950 . S
C363 C362 1.349 . S
C363 C379 1.349 . S
C364 C362 1.327 . S
C364 C383 1.429 . S
C364 H388 0.950 . S
C365 C382 1.574 1_455 S
C365 C384 1.368 . S
C365 H389 0.949 . S
H366 C370 0.949 . S
C367 C368 1.349 . S
C367 C369 1.327 . S
C367 H390 0.950 . S
C368 C367 1.349 . S
C368 C380 1.349 . S
C369 C367 1.327 . S
C369 C385 1.429 . S
C369 H391 0.950 . S
C370 H366 0.949 . S
C370 C378 1.574 1_655 S
C370 C386 1.368 . S
H371 C379 0.950 . S
H372 C377 0.950 . S
H373 C378 0.949 . S
H374 C380 0.950 . S
H375 C381 0.950 . S
H376 C382 0.949 . S
C377 H372 0.950 . S
C377 C379 1.327 . S
C377 C383 1.429 . S
C378 C370 1.574 1_455 S
C378 H373 0.949 . S
C378 C384 1.368 . S
C379 C363 1.349 . S
C379 H371 0.950 . S
C379 C377 1.327 . S
C380 C368 1.349 . S
C380 H374 0.950 . S
C380 C381 1.327 . S
C381 H375 0.950 . S
C381 C380 1.327 . S
C381 C385 1.429 . S
C382 C365 1.574 1_655 S
C382 H376 0.949 . S
C382 C386 1.368 . S
C383 C364 1.429 . S
C383 C377 1.429 . S
C383 C384 1.523 . S
C384 C365 1.368 . S
C384 C378 1.368 . S
C384 C383 1.523 . S
C385 C369 1.429 . S
C385 C381 1.429 . S
C385 C386 1.523 . S
C386 C370 1.368 . S
C386 C382 1.368 . S
C386 C385 1.523 . S
H387 C362 0.950 . S
H388 C364 0.950 . S
H389 C365 0.949 . S
H390 C367 0.950 . S
H391 C369 0.950 . S
C392 C393 1.349 . S
C392 C394 1.327 . S
C392 H417 0.950 . S
C393 C392 1.349 . S
C393 C409 1.349 . S
C394 C392 1.327 . S
C394 C413 1.429 . S
C394 H418 0.950 . S
C395 C412 1.574 . S
C395 C414 1.368 1_554 S
C395 H419 0.949 . S
H396 C400 0.949 . S
C397 C398 1.349 . S
C397 C399 1.327 . S
C397 H420 0.950 . S
C398 C397 1.349 . S
C398 C410 1.349 . S
C399 C397 1.327 . S
C399 C415 1.429 . S
C399 H421 0.950 . S
C400 H396 0.949 . S
C400 C408 1.574 . S
C400 C416 1.368 1_556 S
H401 C409 0.950 . S
H402 C407 0.950 . S
H403 C408 0.949 . S
H404 C410 0.950 . S
H405 C411 0.950 . S
H406 C412 0.949 . S
C407 H402 0.950 . S
C407 C409 1.327 . S
C407 C413 1.429 . S
C408 C400 1.574 . S
C408 H403 0.949 . S
C408 C414 1.368 . S
C409 C393 1.349 . S
C409 H401 0.950 . S
C409 C407 1.327 . S
C410 C398 1.349 . S
C410 H404 0.950 . S
C410 C411 1.327 . S
C411 H405 0.950 . S
C411 C410 1.327 . S
C411 C415 1.429 . S
C412 C395 1.574 . S
C412 H406 0.949 . S
C412 C416 1.368 . S
C413 C394 1.429 . S
C413 C407 1.429 . S
C413 C414 1.523 . S
C414 C395 1.368 1_556 S
C414 C408 1.368 . S
C414 C413 1.523 . S
C415 C399 1.429 . S
C415 C411 1.429 . S
C415 C416 1.523 . S
C416 C400 1.368 1_554 S
C416 C412 1.368 . S
C416 C415 1.523 . S
H417 C392 0.950 . S
H418 C394 0.950 . S
H419 C395 0.949 . S
H420 C397 0.950 . S
H421 C399 0.950 . S
C422 C423 1.349 . S
C422 C424 1.327 . S
C422 H447 0.950 . S
C423 C422 1.349 . S
C423 C439 1.349 . S
C424 C422 1.327 . S
C424 C443 1.429 . S
C424 H448 0.950 . S
C425 C442 1.574 . S
C425 C444 1.368 . S
C425 H449 0.949 . S
H426 C430 0.949 . S
C427 C428 1.349 . S
C427 C429 1.327 . S
C427 H450 0.950 . S
C428 C427 1.349 . S
C428 C440 1.349 . S
C429 C427 1.327 . S
C429 C445 1.429 . S
C429 H451 0.950 . S
C430 H426 0.949 . S
C430 C438 1.574 . S
C430 C446 1.368 . S
H431 C439 0.950 . S
H432 C437 0.950 . S
H433 C438 0.949 . S
H434 C440 0.950 . S
H435 C441 0.950 . S
H436 C442 0.949 . S
C437 H432 0.950 . S
C437 C439 1.327 . S
C437 C443 1.429 . S
C438 C430 1.574 . S
C438 H433 0.949 . S
C438 C444 1.368 . S
C439 C423 1.349 . S
C439 H431 0.950 . S
C439 C437 1.327 . S
C440 C428 1.349 . S
C440 H434 0.950 . S
C440 C441 1.327 . S
C441 H435 0.950 . S
C441 C440 1.327 . S
C441 C445 1.429 . S
C442 C425 1.574 . S
C442 H436 0.949 . S
C442 C446 1.368 . S
C443 C424 1.429 . S
C443 C437 1.429 . S
C443 C444 1.523 . S
C444 C425 1.368 . S
C444 C438 1.368 . S
C444 C443 1.523 . S
C445 C429 1.429 . S
C445 C441 1.429 . S
C445 C446 1.523 . S
C446 C430 1.368 . S
C446 C442 1.368 . S
C446 C445 1.523 . S
H447 C422 0.950 . S
H448 C424 0.950 . S
H449 C425 0.949 . S
H450 C427 0.950 . S
H451 C429 0.950 . S
C452 C453 1.349 . S
C452 C454 1.327 . S
C452 H477 0.950 . S
C453 C452 1.349 . S
C453 C469 1.349 . S
C454 C452 1.327 . S
C454 C473 1.429 . S
C454 H478 0.950 . S
C455 C472 1.574 . S
C455 C474 1.368 1_554 S
C455 H479 0.949 . S
H456 C460 0.949 . S
C457 C458 1.349 . S
C457 C459 1.327 . S
C457 H480 0.950 . S
C458 C457 1.349 . S
C458 C470 1.349 . S
C459 C457 1.327 . S
C459 C475 1.429 . S
C459 H481 0.950 . S
C460 H456 0.949 . S
C460 C468 1.574 . S
C460 C476 1.368 1_556 S
H461 C469 0.950 . S
H462 C467 0.950 . S
H463 C468 0.949 . S
H464 C470 0.950 . S
H465 C471 0.950 . S
H466 C472 0.949 . S
C467 H462 0.950 . S
C467 C469 1.327 . S
C467 C473 1.429 . S
C468 C460 1.574 . S
C468 H463 0.949 . S
C468 C474 1.368 . S
C469 C453 1.349 . S
C469 H461 0.950 . S
C469 C467 1.327 . S
C470 C458 1.349 . S
C470 H464 0.950 . S
C470 C471 1.327 . S
C471 H465 0.950 . S
C471 C470 1.327 . S
C471 C475 1.429 . S
C472 C455 1.574 . S
C472 H466 0.949 . S
C472 C476 1.368 . S
C473 C454 1.429 . S
C473 C467 1.429 . S
C473 C474 1.523 . S
C474 C455 1.368 1_556 S
C474 C468 1.368 . S
C474 C473 1.523 . S
C475 C459 1.429 . S
C475 C471 1.429 . S
C475 C476 1.523 . S
C476 C460 1.368 1_554 S
C476 C472 1.368 . S
C476 C475 1.523 . S
H477 C452 0.950 . S
H478 C454 0.950 . S
H479 C455 0.949 . S
H480 C457 0.950 . S
H481 C459 0.950 . S
C482 C483 1.349 . S
C482 C484 1.327 . S
C482 H507 0.950 . S
C483 C482 1.349 . S
C483 C499 1.349 . S
C484 C482 1.327 . S
C484 C503 1.429 . S
C484 H508 0.950 . S
C485 C502 1.574 . S
C485 C504 1.368 . S
C485 H509 0.949 . S
H486 C490 0.949 . S
C487 C488 1.349 . S
C487 C489 1.327 . S
C487 H510 0.950 . S
C488 C487 1.349 . S
C488 C500 1.349 . S
C489 C487 1.327 . S
C489 C505 1.429 . S
C489 H511 0.950 . S
C490 H486 0.949 . S
C490 C498 1.574 . S
C490 C506 1.368 . S
H491 C499 0.950 . S
H492 C497 0.950 . S
H493 C498 0.949 . S
H494 C500 0.950 . S
H495 C501 0.950 . S
H496 C502 0.949 . S
C497 H492 0.950 . S
C497 C499 1.327 . S
C497 C503 1.429 . S
C498 C490 1.574 . S
C498 H493 0.949 . S
C498 C504 1.368 . S
C499 C483 1.349 . S
C499 H491 0.950 . S
C499 C497 1.327 . S
C500 C488 1.349 . S
C500 H494 0.950 . S
C500 C501 1.327 . S
C501 H495 0.950 . S
C501 C500 1.327 . S
C501 C505 1.429 . S
C502 C485 1.574 . S
C502 H496 0.949 . S
C502 C506 1.368 . S
C503 C484 1.429 . S
C503 C497 1.429 . S
C503 C504 1.523 . S
C504 C485 1.368 . S
C504 C498 1.368 . S
C504 C503 1.523 . S
C505 C489 1.429 . S
C505 C501 1.429 . S
C505 C506 1.523 . S
C506 C490 1.368 . S
C506 C502 1.368 . S
C506 C505 1.523 . S
H507 C482 0.950 . S
H508 C484 0.950 . S
H509 C485 0.949 . S
H510 C487 0.950 . S
H511 C489 0.950 . S
C512 C513 1.349 . S
C512 C514 1.327 . S
C512 H537 0.950 . S
C513 C512 1.349 . S
C513 C529 1.349 . S
C514 C512 1.327 . S
C514 C533 1.429 . S
C514 H538 0.950 . S
C515 C532 1.562 1_545 S
C515 C534 1.368 1_554 S
C515 H539 0.949 . S
H516 C520 0.949 . S
C517 C518 1.349 . S
C517 C519 1.327 . S
C517 H540 0.950 . S
C518 C517 1.349 . S
C518 C530 1.349 . S
C519 C517 1.327 . S
C519 C535 1.429 . S
C519 H541 0.950 . S
C520 H516 0.949 . S
C520 C528 1.562 1_565 S
C520 C536 1.368 1_556 S
H521 C529 0.950 . S
H522 C527 0.950 . S
H523 C528 0.948 . S
H524 C530 0.950 . S
H525 C531 0.950 . S
H526 C532 0.948 . S
C527 H522 0.950 . S
C527 C529 1.327 . S
C527 C533 1.429 . S
C528 C520 1.562 1_545 S
C528 H523 0.948 . S
C528 C534 1.380 . S
C529 C513 1.349 . S
C529 H521 0.950 . S
C529 C527 1.327 . S
C530 C518 1.349 . S
C530 H524 0.950 . S
C530 C531 1.327 . S
C531 H525 0.950 . S
C531 C530 1.327 . S
C531 C535 1.429 . S
C532 C515 1.562 1_565 S
C532 H526 0.948 . S
C532 C536 1.380 . S
C533 C514 1.429 . S
C533 C527 1.429 . S
C533 C534 1.523 . S
C534 C515 1.368 1_556 S
C534 C528 1.380 . S
C534 C533 1.523 . S
C535 C519 1.429 . S
C535 C531 1.429 . S
C535 C536 1.523 . S
C536 C520 1.368 1_554 S
C536 C532 1.380 . S
C536 C535 1.523 . S
H537 C512 0.950 . S
H538 C514 0.950 . S
H539 C515 0.949 . S
H540 C517 0.950 . S
H541 C519 0.950 . S
C542 C543 1.349 . S
C542 C544 1.327 . S
C542 H567 0.950 . S
C543 C542 1.349 . S
C543 C559 1.349 . S
C544 C542 1.327 . S
C544 C563 1.429 . S
C544 H568 0.950 . S
C545 C562 1.574 . S
C545 C564 1.368 1_565 S
C545 H569 0.949 . S
H546 C550 0.949 . S
C547 C548 1.349 . S
C547 C549 1.327 . S
C547 H570 0.950 . S
C548 C547 1.349 . S
C548 C560 1.349 . S
C549 C547 1.327 . S
C549 C565 1.429 . S
C549 H571 0.950 . S
C550 H546 0.949 . S
C550 C558 1.574 . S
C550 C566 1.368 1_545 S
H551 C559 0.950 . S
H552 C557 0.950 . S
H553 C558 0.949 . S
H554 C560 0.950 . S
H555 C561 0.950 . S
H556 C562 0.949 . S
C557 H552 0.950 . S
C557 C559 1.327 . S
C557 C563 1.429 . S
C558 C550 1.574 . S
C558 H553 0.949 . S
C558 C564 1.368 . S
C559 C543 1.349 . S
C559 H551 0.950 . S
C559 C557 1.327 . S
C560 C548 1.349 . S
C560 H554 0.950 . S
C560 C561 1.327 . S
C561 H555 0.950 . S
C561 C560 1.327 . S
C561 C565 1.429 . S
C562 C545 1.574 . S
C562 H556 0.949 . S
C562 C566 1.368 . S
C563 C544 1.429 . S
C563 C557 1.429 . S
C563 C564 1.523 . S
C564 C545 1.368 1_545 S
C564 C558 1.368 . S
C564 C563 1.523 . S
C565 C549 1.429 . S
C565 C561 1.429 . S
C565 C566 1.523 . S
C566 C550 1.368 1_565 S
C566 C562 1.368 . S
C566 C565 1.523 . S
H567 C542 0.950 . S
H568 C544 0.950 . S
H569 C545 0.949 . S
H570 C547 0.950 . S
H571 C549 0.950 . S
C572 C573 1.349 . S
C572 C574 1.327 . S
C572 H597 0.950 . S
C573 C572 1.349 . S
C573 C589 1.349 . S
C574 C572 1.327 . S
C574 C593 1.429 . S
C574 H598 0.950 . S
C575 C592 1.574 1_546 S
C575 C594 1.368 . S
C575 H599 0.949 . S
H576 C580 0.949 . S
C577 C578 1.349 . S
C577 C579 1.327 . S
C577 H600 0.950 . S
C578 C577 1.349 . S
C578 C590 1.349 . S
C579 C577 1.327 . S
C579 C595 1.429 . S
C579 H601 0.950 . S
C580 H576 0.949 . S
C580 C588 1.574 1_564 S
C580 C596 1.368 . S
H581 C589 0.950 . S
H582 C587 0.950 . S
H583 C588 0.949 . S
H584 C590 0.950 . S
H585 C591 0.950 . S
H586 C592 0.949 . S
C587 H582 0.950 . S
C587 C589 1.327 . S
C587 C593 1.429 . S
C588 C580 1.574 1_546 S
C588 H583 0.949 . S
C588 C594 1.368 . S
C589 C573 1.349 . S
C589 H581 0.950 . S
C589 C587 1.327 . S
C590 C578 1.349 . S
C590 H584 0.950 . S
C590 C591 1.327 . S
C591 H585 0.950 . S
C591 C590 1.327 . S
C591 C595 1.429 . S
C592 C575 1.574 1_564 S
C592 H586 0.949 . S
C592 C596 1.368 . S
C593 C574 1.429 . S
C593 C587 1.429 . S
C593 C594 1.523 . S
C594 C575 1.368 . S
C594 C588 1.368 . S
C594 C593 1.523 . S
C595 C579 1.429 . S
C595 C591 1.429 . S
C595 C596 1.523 . S
C596 C580 1.368 . S
C596 C592 1.368 . S
C596 C595 1.523 . S
H597 C572 0.950 . S
H598 C574 0.950 . S
H599 C575 0.949 . S
H600 C577 0.950 . S
H601 C579 0.950 . S
C602 C603 1.349 . S
C602 C604 1.327 . S
C602 H627 0.950 . S
C603 C602 1.349 . S
C603 C619 1.349 . S
C604 C602 1.327 . S
C604 C623 1.429 . S
C604 H628 0.950 . S
C605 C622 1.574 1_545 S
C605 C624 1.368 . S
C605 H629 0.949 . S
H606 C610 0.949 . S
C607 C608 1.349 . S
C607 C609 1.327 . S
C607 H630 0.950 . S
C608 C607 1.349 . S
C608 C620 1.349 . S
C609 C607 1.327 . S
C609 C625 1.429 . S
C609 H631 0.950 . S
C610 H606 0.949 . S
C610 C618 1.574 1_565 S
C610 C626 1.368 . S
H611 C619 0.950 . S
H612 C617 0.950 . S
H613 C618 0.949 . S
H614 C620 0.950 . S
H615 C621 0.950 . S
H616 C622 0.949 . S
C617 H612 0.950 . S
C617 C619 1.327 . S
C617 C623 1.429 . S
C618 C610 1.574 1_545 S
C618 H613 0.949 . S
C618 C624 1.368 . S
C619 C603 1.349 . S
C619 H611 0.950 . S
C619 C617 1.327 . S
C620 C608 1.349 . S
C620 H614 0.950 . S
C620 C621 1.327 . S
C621 H615 0.950 . S
C621 C620 1.327 . S
C621 C625 1.429 . S
C622 C605 1.574 1_565 S
C622 H616 0.949 . S
C622 C626 1.368 . S
C623 C604 1.429 . S
C623 C617 1.429 . S
C623 C624 1.523 . S
C624 C605 1.368 . S
C624 C618 1.368 . S
C624 C623 1.523 . S
C625 C609 1.429 . S
C625 C621 1.429 . S
C625 C626 1.523 . S
C626 C610 1.368 . S
C626 C622 1.368 . S
C626 C625 1.523 . S
H627 C602 0.950 . S
H628 C604 0.950 . S
H629 C605 0.949 . S
H630 C607 0.950 . S
H631 C609 0.950 . S
C632 C633 1.349 . S
C632 C634 1.327 1_554 S
C632 H657 0.950 . S
C633 C632 1.349 . S
C633 C649 1.349 . S
C634 C632 1.327 1_556 S
C634 C653 1.429 1_556 S
C634 H658 0.950 . S
C635 C652 1.574 . S
C635 C654 1.368 . S
C635 H659 0.949 1_556 S
H636 C640 0.949 . S
C637 C638 1.349 . S
C637 C639 1.327 . S
C637 H660 0.950 . S
C638 C637 1.349 . S
C638 C650 1.349 . S
C639 C637 1.327 . S
C639 C655 1.429 . S
C639 H661 0.950 . S
C640 H636 0.949 . S
C640 C648 1.574 . S
C640 C656 1.368 . S
H641 C649 0.950 . S
H642 C647 0.950 . S
H643 C648 0.949 . S
H644 C650 0.950 . S
H645 C651 0.950 . S
H646 C652 0.949 . S
C647 H642 0.950 . S
C647 C649 1.327 . S
C647 C653 1.429 . S
C648 C640 1.574 . S
C648 H643 0.949 . S
C648 C654 1.368 . S
C649 C633 1.349 . S
C649 H641 0.950 . S
C649 C647 1.327 . S
C650 C638 1.349 . S
C650 H644 0.950 . S
C650 C651 1.327 . S
C651 H645 0.950 . S
C651 C650 1.327 . S
C651 C655 1.429 . S
C652 C635 1.574 . S
C652 H646 0.949 . S
C652 C656 1.368 . S
C653 C634 1.429 1_554 S
C653 C647 1.429 . S
C653 C654 1.523 1_554 S
C654 C635 1.368 . S
C654 C648 1.368 . S
C654 C653 1.523 1_556 S
C655 C639 1.429 . S
C655 C651 1.429 . S
C655 C656 1.523 . S
C656 C640 1.368 . S
C656 C652 1.368 . S
C656 C655 1.523 . S
H657 C632 0.950 . S
H658 C634 0.950 . S
H659 C635 0.949 1_554 S
H660 C637 0.950 . S
H661 C639 0.950 . S
C662 C663 1.349 . S
C662 C664 1.327 . S
C662 H687 0.950 . S
C663 C662 1.349 . S
C663 C679 1.349 . S
C664 C662 1.327 . S
C664 C683 1.429 . S
C664 H688 0.950 . S
C665 C682 1.574 . S
C665 C684 1.368 . S
C665 H689 0.949 . S
H666 C670 0.949 . S
C667 C668 1.349 . S
C667 C669 1.327 . S
C667 H690 0.950 . S
C668 C667 1.349 . S
C668 C680 1.349 . S
C669 C667 1.327 . S
C669 C685 1.429 . S
C669 H691 0.950 . S
C670 H666 0.949 . S
C670 C678 1.574 . S
C670 C686 1.368 . S
H671 C679 0.950 . S
H672 C677 0.950 . S
H673 C678 0.949 . S
H674 C680 0.950 . S
H675 C681 0.950 . S
H676 C682 0.949 . S
C677 H672 0.950 . S
C677 C679 1.327 . S
C677 C683 1.429 . S
C678 C670 1.574 . S
C678 H673 0.949 . S
C678 C684 1.368 . S
C679 C663 1.349 . S
C679 H671 0.950 . S
C679 C677 1.327 . S
C680 C668 1.349 . S
C680 H674 0.950 . S
C680 C681 1.327 . S
C681 H675 0.950 . S
C681 C680 1.327 . S
C681 C685 1.429 . S
C682 C665 1.574 . S
C682 H676 0.949 . S
C682 C686 1.368 . S
C683 C664 1.429 . S
C683 C677 1.429 . S
C683 C684 1.523 . S
C684 C665 1.368 . S
C684 C678 1.368 . S
C684 C683 1.523 . S
C685 C669 1.429 . S
C685 C681 1.429 . S
C685 C686 1.523 . S
C686 C670 1.368 . S
C686 C682 1.368 . S
C686 C685 1.523 . S
H687 C662 0.950 . S
H688 C664 0.950 . S
H689 C665 0.949 . S
H690 C667 0.950 . S
H691 C669 0.950 . S
C692 C693 1.349 . S
C692 C694 1.327 . S
C692 H717 0.950 . S
C693 C692 1.349 . S
C693 C709 1.349 . S
C694 C692 1.327 . S
C694 C713 1.429 . S
C694 H718 0.950 . S
C695 C712 1.574 . S
C695 C714 1.368 . S
C695 H719 0.949 . S
H696 C700 0.949 . S
C697 C698 1.349 . S
C697 C699 1.327 . S
C697 H720 0.950 . S
C698 C697 1.349 . S
C698 C710 1.349 . S
C699 C697 1.327 . S
C699 C715 1.429 . S
C699 H721 0.950 . S
C700 H696 0.949 . S
C700 C708 1.574 . S
C700 C716 1.368 . S
H701 C709 0.950 . S
H702 C707 0.950 . S
H703 C708 0.949 . S
H704 C710 0.950 . S
H705 C711 0.950 1_554 S
H706 C712 0.949 . S
C707 H702 0.950 . S
C707 C709 1.327 . S
C707 C713 1.429 . S
C708 C700 1.574 . S
C708 H703 0.949 . S
C708 C714 1.368 . S
C709 C693 1.349 . S
C709 H701 0.950 . S
C709 C707 1.327 . S
C710 C698 1.349 . S
C710 H704 0.950 . S
C710 C711 1.327 . S
C711 H705 0.950 1_556 S
C711 C710 1.327 . S
C711 C715 1.429 . S
C712 C695 1.574 . S
C712 H706 0.949 . S
C712 C716 1.368 . S
C713 C694 1.429 . S
C713 C707 1.429 . S
C713 C714 1.523 . S
C714 C695 1.368 . S
C714 C708 1.368 . S
C714 C713 1.523 . S
C715 C699 1.429 . S
C715 C711 1.429 . S
C715 C716 1.523 1_556 S
C716 C700 1.368 . S
C716 C712 1.368 . S
C716 C715 1.523 1_554 S
H717 C692 0.950 . S
H718 C694 0.950 . S
H719 C695 0.949 . S
H720 C697 0.950 . S
H721 C699 0.950 . S
C722 C723 1.349 . S
C722 C724 1.327 . S
C722 H747 0.950 . S
C723 C722 1.349 . S
C723 C739 1.349 . S
C724 C722 1.327 . S
C724 C743 1.429 . S
C724 H748 0.950 . S
C725 C742 1.574 . S
C725 C744 1.368 . S
C725 H749 0.949 . S
H726 C730 0.949 . S
C727 C728 1.349 . S
C727 C729 1.327 . S
C727 H750 0.950 . S
C728 C727 1.349 . S
C728 C740 1.349 . S
C729 C727 1.327 . S
C729 C745 1.429 . S
C729 H751 0.950 . S
C730 H726 0.949 . S
C730 C738 1.574 . S
C730 C746 1.368 . S
H731 C739 0.950 . S
H732 C737 0.950 . S
H733 C738 0.949 . S
H734 C740 0.950 . S
H735 C741 0.950 . S
H736 C742 0.949 . S
C737 H732 0.950 . S
C737 C739 1.327 . S
C737 C743 1.429 . S
C738 C730 1.574 . S
C738 H733 0.949 . S
C738 C744 1.368 . S
C739 C723 1.349 . S
C739 H731 0.950 . S
C739 C737 1.327 . S
C740 C728 1.349 . S
C740 H734 0.950 . S
C740 C741 1.327 . S
C741 H735 0.950 . S
C741 C740 1.327 . S
C741 C745 1.429 . S
C742 C725 1.574 . S
C742 H736 0.949 . S
C742 C746 1.368 . S
C743 C724 1.429 . S
C743 C737 1.429 . S
C743 C744 1.523 . S
C744 C725 1.368 . S
C744 C738 1.368 . S
C744 C743 1.523 . S
C745 C729 1.429 . S
C745 C741 1.429 . S
C745 C746 1.523 . S
C746 C730 1.368 . S
C746 C742 1.368 . S
C746 C745 1.523 . S
H747 C722 0.950 . S
H748 C724 0.950 . S
H749 C725 0.949 . S
H750 C727 0.950 . S
H751 C729 0.950 . S
C752 C753 1.349 . S
C752 C754 1.327 . S
C752 H777 0.950 . S
C753 C752 1.349 . S
C753 C769 1.349 . S
C754 C752 1.327 . S
C754 C773 1.429 . S
C754 H778 0.950 . S
C755 C772 1.574 . S
C755 C774 1.368 . S
C755 H779 0.949 . S
H756 C760 0.949 . S
C757 C758 1.349 . S
C757 C759 1.327 . S
C757 H780 0.950 . S
C758 C757 1.349 . S
C758 C770 1.349 . S
C759 C757 1.327 . S
C759 C775 1.429 . S
C759 H781 0.950 . S
C760 H756 0.949 . S
C760 C768 1.574 . S
C760 C776 1.368 . S
H761 C769 0.950 . S
H762 C767 0.950 . S
H763 C768 0.949 . S
H764 C770 0.950 . S
H765 C771 0.950 . S
H766 C772 0.949 1_554 S
C767 H762 0.950 . S
C767 C769 1.327 . S
C767 C773 1.429 . S
C768 C760 1.574 . S
C768 H763 0.949 . S
C768 C774 1.368 . S
C769 C753 1.349 . S
C769 H761 0.950 . S
C769 C767 1.327 . S
C770 C758 1.349 . S
C770 H764 0.950 . S
C770 C771 1.327 1_554 S
C771 H765 0.950 . S
C771 C770 1.327 1_556 S
C771 C775 1.429 1_556 S
C772 C755 1.574 . S
C772 H766 0.949 1_556 S
C772 C776 1.368 . S
C773 C754 1.429 . S
C773 C767 1.429 . S
C773 C774 1.523 . S
C774 C755 1.368 . S
C774 C768 1.368 . S
C774 C773 1.523 . S
C775 C759 1.429 . S
C775 C771 1.429 1_554 S
C775 C776 1.523 1_554 S
C776 C760 1.368 . S
C776 C772 1.368 . S
C776 C775 1.523 1_556 S
H777 C752 0.950 . S
H778 C754 0.950 . S
H779 C755 0.949 . S
H780 C757 0.950 . S
H781 C759 0.950 . S
C782 C783 1.349 . S
C782 C784 1.327 . S
C782 H807 0.950 . S
C783 C782 1.349 . S
C783 C799 1.349 . S
C784 C782 1.327 . S
C784 C803 1.429 . S
C784 H808 0.950 . S
C785 C802 1.574 . S
C785 C804 1.368 . S
C785 H809 0.949 . S
H786 C790 0.949 . S
C787 C788 1.349 . S
C787 C789 1.327 . S
C787 H810 0.950 . S
C788 C787 1.349 . S
C788 C800 1.349 . S
C789 C787 1.327 . S
C789 C805 1.429 . S
C789 H811 0.950 . S
C790 H786 0.949 . S
C790 C798 1.574 . S
C790 C806 1.368 . S
H791 C799 0.950 . S
H792 C797 0.950 . S
H793 C798 0.949 . S
H794 C800 0.950 . S
H795 C801 0.950 . S
H796 C802 0.949 . S
C797 H792 0.950 . S
C797 C799 1.327 . S
C797 C803 1.429 . S
C798 C790 1.574 . S
C798 H793 0.949 . S
C798 C804 1.368 . S
C799 C783 1.349 . S
C799 H791 0.950 . S
C799 C797 1.327 . S
C800 C788 1.349 . S
C800 H794 0.950 . S
C800 C801 1.327 . S
C801 H795 0.950 . S
C801 C800 1.327 . S
C801 C805 1.429 . S
C802 C785 1.574 . S
C802 H796 0.949 . S
C802 C806 1.368 . S
C803 C784 1.429 . S
C803 C797 1.429 . S
C803 C804 1.523 . S
C804 C785 1.368 . S
C804 C798 1.368 . S
C804 C803 1.523 . S
C805 C789 1.429 . S
C805 C801 1.429 . S
C805 C806 1.523 . S
C806 C790 1.368 . S
C806 C802 1.368 . S
C806 C805 1.523 . S
H807 C782 0.950 . S
H808 C784 0.950 . S
H809 C785 0.949 . S
H810 C787 0.950 . S
H811 C789 0.950 . S
C812 C813 1.349 . S
C812 C814 1.327 . S
C812 H837 0.950 . S
C813 C812 1.349 . S
C813 C829 1.349 . S
C814 C812 1.327 . S
C814 C833 1.429 . S
C814 H838 0.950 . S
C815 C832 1.574 . S
C815 C834 1.368 . S
C815 H839 0.949 . S
H816 C820 0.949 . S
C817 C818 1.349 . S
C817 C819 1.327 . S
C817 H840 0.950 . S
C818 C817 1.349 . S
C818 C830 1.349 . S
C819 C817 1.327 . S
C819 C835 1.429 . S
C819 H841 0.950 . S
C820 H816 0.949 . S
C820 C828 1.574 . S
C820 C836 1.368 . S
H821 C829 0.950 . S
H822 C827 0.950 . S
H823 C828 0.949 1_556 S
H824 C830 0.950 . S
H825 C831 0.950 . S
H826 C832 0.949 . S
C827 H822 0.950 . S
C827 C829 1.327 1_554 S
C827 C833 1.429 1_554 S
C828 C820 1.574 . S
C828 H823 0.949 1_554 S
C828 C834 1.368 . S
C829 C813 1.349 . S
C829 H821 0.950 . S
C829 C827 1.327 1_556 S
C830 C818 1.349 . S
C830 H824 0.950 . S
C830 C831 1.327 . S
C831 H825 0.950 . S
C831 C830 1.327 . S
C831 C835 1.429 . S
C832 C815 1.574 . S
C832 H826 0.949 . S
C832 C836 1.368 . S
C833 C814 1.429 . S
C833 C827 1.429 1_556 S
C833 C834 1.523 1_556 S
C834 C815 1.368 . S
C834 C828 1.368 . S
C834 C833 1.523 1_554 S
C835 C819 1.429 . S
C835 C831 1.429 . S
C835 C836 1.523 . S
C836 C820 1.368 . S
C836 C832 1.368 . S
C836 C835 1.523 . S
H837 C812 0.950 . S
H838 C814 0.950 . S
H839 C815 0.949 . S
H840 C817 0.950 . S
H841 C819 0.950 . S
C842 C843 1.349 . S
C842 C844 1.327 . S
C842 H867 0.950 . S
C843 C842 1.349 . S
C843 C859 1.349 . S
C844 C842 1.327 . S
C844 C863 1.429 . S
C844 H868 0.950 . S
C845 C862 1.574 . S
C845 C864 1.368 . S
C845 H869 0.949 . S
H846 C850 0.949 . S
C847 C848 1.349 . S
C847 C849 1.327 . S
C847 H870 0.950 . S
C848 C847 1.349 . S
C848 C860 1.349 . S
C849 C847 1.327 . S
C849 C865 1.429 . S
C849 H871 0.950 . S
C850 H846 0.949 . S
C850 C858 1.574 . S
C850 C866 1.368 . S
H851 C859 0.950 . S
H852 C857 0.950 . S
H853 C858 0.949 . S
H854 C860 0.950 . S
H855 C861 0.950 . S
H856 C862 0.949 . S
C857 H852 0.950 . S
C857 C859 1.327 . S
C857 C863 1.429 . S
C858 C850 1.574 . S
C858 H853 0.949 . S
C858 C864 1.368 . S
C859 C843 1.349 . S
C859 H851 0.950 . S
C859 C857 1.327 . S
C860 C848 1.349 . S
C860 H854 0.950 . S
C860 C861 1.327 . S
C861 H855 0.950 . S
C861 C860 1.327 . S
C861 C865 1.429 . S
C862 C845 1.574 . S
C862 H856 0.949 . S
C862 C866 1.368 . S
C863 C844 1.429 . S
C863 C857 1.429 . S
C863 C864 1.523 . S
C864 C845 1.368 . S
C864 C858 1.368 . S
C864 C863 1.523 . S
C865 C849 1.429 . S
C865 C861 1.429 . S
C865 C866 1.523 . S
C866 C850 1.368 . S
C866 C862 1.368 . S
C866 C865 1.523 . S
H867 C842 0.950 . S
H868 C844 0.950 . S
H869 C845 0.949 . S
H870 C847 0.950 . S
H871 C849 0.950 . S
C273 C33 1.525 . S
C278 C135 1.525 . S
C303 C67 1.525 . S
C308 C101 1.525 . S
C333 C271 1.525 . S
C338 C169 1.525 . S
C363 C203 1.525 . S
C368 C237 1.525 . S
C393 C70 2.054 . S
C398 C2 2.054 . S
C423 C104 2.054 . S
C428 C36 2.054 . S
C453 C39 1.342 . S
C458 C107 1.342 . S
C483 C5 1.342 . S
C488 C73 1.342 . S
C513 C206 2.054 . S
C518 C138 2.054 . S
C543 C172 2.054 . S
C548 C240 2.054 . S
C573 C175 1.342 . S
C578 C243 1.342 . S
C603 C209 1.342 . S
C608 C141 1.342 . S
C633 C9 1.286 . S
C638 C190 1.322 . S
C663 C43 1.286 . S
C668 C156 1.322 . S
C693 C258 1.322 . S
C698 C77 1.286 . S
C723 C111 1.286 . S
C728 C224 1.322 . S
C753 C54 1.322 . S
C758 C145 1.286 . S
C783 C179 1.286 . S
C788 C20 1.322 . S
C813 C213 1.286 . S
C818 C122 1.322 . S
C843 C247 1.286 . S
C848 C88 1.322 . S
