# Generated by pormake.
# Topology uoa, (4)-cn, num edge types: 1
# Building blocks:
#     Node 0, Type 0, BuildingBlock: MUDLON_clean_sbu_0, # of connection points: 4
#     Node 1, Type 0, BuildingBlock: MUDLON_clean_sbu_0, # of connection points: 4
#     Node 2, Type 0, BuildingBlock: MUDLON_clean_sbu_0, # of connection points: 4
#     Node 3, Type 0, BuildingBlock: MUDLON_clean_sbu_0, # of connection points: 4
#     Node 4, Type 0, BuildingBlock: MUDLON_clean_sbu_0, # of connection points: 4
#     Node 5, Type 0, BuildingBlock: MUDLON_clean_sbu_0, # of connection points: 4
#     Node 6, Type 0, BuildingBlock: MUDLON_clean_sbu_0, # of connection points: 4
#     Node 7, Type 0, BuildingBlock: MUDLON_clean_sbu_0, # of connection points: 4
#     Node 8, Type 0, BuildingBlock: MUDLON_clean_sbu_0, # of connection points: 4
#     Node 9, Type 0, BuildingBlock: MUDLON_clean_sbu_0, # of connection points: 4
#     Node 10, Type 0, BuildingBlock: MUDLON_clean_sbu_0, # of connection points: 4
#     Node 11, Type 0, BuildingBlock: MUDLON_clean_sbu_0, # of connection points: 4
#     Node 12, Type 0, BuildingBlock: MUDLON_clean_sbu_0, # of connection points: 4
#     Node 13, Type 0, BuildingBlock: MUDLON_clean_sbu_0, # of connection points: 4
#     Node 14, Type 0, BuildingBlock: MUDLON_clean_sbu_0, # of connection points: 4
#     Node 15, Type 0, BuildingBlock: MUDLON_clean_sbu_0, # of connection points: 4
#     Node 16, Type 0, BuildingBlock: MUDLON_clean_sbu_0, # of connection points: 4
#     Node 17, Type 0, BuildingBlock: MUDLON_clean_sbu_0, # of connection points: 4
#     Node 18, Type 0, BuildingBlock: MUDLON_clean_sbu_0, # of connection points: 4
#     Node 19, Type 0, BuildingBlock: MUDLON_clean_sbu_0, # of connection points: 4
#     Node 20, Type 0, BuildingBlock: MUDLON_clean_sbu_0, # of connection points: 4
#     Node 21, Type 0, BuildingBlock: MUDLON_clean_sbu_0, # of connection points: 4
#     Node 22, Type 0, BuildingBlock: MUDLON_clean_sbu_0, # of connection points: 4
#     Node 23, Type 0, BuildingBlock: MUDLON_clean_sbu_0, # of connection points: 4
#     Node 24, Type 0, BuildingBlock: MUDLON_clean_sbu_0, # of connection points: 4
#     Node 25, Type 0, BuildingBlock: MUDLON_clean_sbu_0, # of connection points: 4
#     Node 26, Type 0, BuildingBlock: MUDLON_clean_sbu_0, # of connection points: 4
#     Node 27, Type 0, BuildingBlock: MUDLON_clean_sbu_0, # of connection points: 4
#     Node 28, Type 0, BuildingBlock: MUDLON_clean_sbu_0, # of connection points: 4
#     Node 29, Type 0, BuildingBlock: MUDLON_clean_sbu_0, # of connection points: 4
#     Node 30, Type 0, BuildingBlock: MUDLON_clean_sbu_0, # of connection points: 4
#     Node 31, Type 0, BuildingBlock: MUDLON_clean_sbu_0, # of connection points: 4
#     Edge 32, Type (0, 0), BuildingBlock: KIFKEQ_clean_linker_1, # of connection points: 2
#     Edge 33, Type (0, 0), BuildingBlock: KIFKEQ_clean_linker_1, # of connection points: 2
#     Edge 34, Type (0, 0), BuildingBlock: KIFKEQ_clean_linker_1, # of connection points: 2
#     Edge 35, Type (0, 0), BuildingBlock: KIFKEQ_clean_linker_1, # of connection points: 2
#     Edge 36, Type (0, 0), BuildingBlock: KIFKEQ_clean_linker_1, # of connection points: 2
#     Edge 37, Type (0, 0), BuildingBlock: KIFKEQ_clean_linker_1, # of connection points: 2
#     Edge 38, Type (0, 0), BuildingBlock: KIFKEQ_clean_linker_1, # of connection points: 2
#     Edge 39, Type (0, 0), BuildingBlock: KIFKEQ_clean_linker_1, # of connection points: 2
#     Edge 40, Type (0, 0), BuildingBlock: KIFKEQ_clean_linker_1, # of connection points: 2
#     Edge 41, Type (0, 0), BuildingBlock: KIFKEQ_clean_linker_1, # of connection points: 2
#     Edge 42, Type (0, 0), BuildingBlock: KIFKEQ_clean_linker_1, # of connection points: 2
#     Edge 43, Type (0, 0), BuildingBlock: KIFKEQ_clean_linker_1, # of connection points: 2
#     Edge 44, Type (0, 0), BuildingBlock: KIFKEQ_clean_linker_1, # of connection points: 2
#     Edge 45, Type (0, 0), BuildingBlock: KIFKEQ_clean_linker_1, # of connection points: 2
#     Edge 46, Type (0, 0), BuildingBlock: KIFKEQ_clean_linker_1, # of connection points: 2
#     Edge 47, Type (0, 0), BuildingBlock: KIFKEQ_clean_linker_1, # of connection points: 2
#     Edge 48, Type (0, 0), BuildingBlock: KIFKEQ_clean_linker_1, # of connection points: 2
#     Edge 49, Type (0, 0), BuildingBlock: KIFKEQ_clean_linker_1, # of connection points: 2
#     Edge 50, Type (0, 0), BuildingBlock: KIFKEQ_clean_linker_1, # of connection points: 2
#     Edge 51, Type (0, 0), BuildingBlock: KIFKEQ_clean_linker_1, # of connection points: 2
#     Edge 52, Type (0, 0), BuildingBlock: KIFKEQ_clean_linker_1, # of connection points: 2
#     Edge 53, Type (0, 0), BuildingBlock: KIFKEQ_clean_linker_1, # of connection points: 2
#     Edge 54, Type (0, 0), BuildingBlock: KIFKEQ_clean_linker_1, # of connection points: 2
#     Edge 55, Type (0, 0), BuildingBlock: KIFKEQ_clean_linker_1, # of connection points: 2
#     Edge 56, Type (0, 0), BuildingBlock: KIFKEQ_clean_linker_1, # of connection points: 2
#     Edge 57, Type (0, 0), BuildingBlock: KIFKEQ_clean_linker_1, # of connection points: 2
#     Edge 58, Type (0, 0), BuildingBlock: KIFKEQ_clean_linker_1, # of connection points: 2
#     Edge 59, Type (0, 0), BuildingBlock: KIFKEQ_clean_linker_1, # of connection points: 2
#     Edge 60, Type (0, 0), BuildingBlock: KIFKEQ_clean_linker_1, # of connection points: 2
#     Edge 61, Type (0, 0), BuildingBlock: KIFKEQ_clean_linker_1, # of connection points: 2
#     Edge 62, Type (0, 0), BuildingBlock: KIFKEQ_clean_linker_1, # of connection points: 2
#     Edge 63, Type (0, 0), BuildingBlock: KIFKEQ_clean_linker_1, # of connection points: 2
#     Edge 64, Type (0, 0), BuildingBlock: KIFKEQ_clean_linker_1, # of connection points: 2
#     Edge 65, Type (0, 0), BuildingBlock: KIFKEQ_clean_linker_1, # of connection points: 2
#     Edge 66, Type (0, 0), BuildingBlock: KIFKEQ_clean_linker_1, # of connection points: 2
#     Edge 67, Type (0, 0), BuildingBlock: KIFKEQ_clean_linker_1, # of connection points: 2
#     Edge 68, Type (0, 0), BuildingBlock: KIFKEQ_clean_linker_1, # of connection points: 2
#     Edge 69, Type (0, 0), BuildingBlock: KIFKEQ_clean_linker_1, # of connection points: 2
#     Edge 70, Type (0, 0), BuildingBlock: KIFKEQ_clean_linker_1, # of connection points: 2
#     Edge 71, Type (0, 0), BuildingBlock: KIFKEQ_clean_linker_1, # of connection points: 2
#     Edge 72, Type (0, 0), BuildingBlock: KIFKEQ_clean_linker_1, # of connection points: 2
#     Edge 73, Type (0, 0), BuildingBlock: KIFKEQ_clean_linker_1, # of connection points: 2
#     Edge 74, Type (0, 0), BuildingBlock: KIFKEQ_clean_linker_1, # of connection points: 2
#     Edge 75, Type (0, 0), BuildingBlock: KIFKEQ_clean_linker_1, # of connection points: 2
#     Edge 76, Type (0, 0), BuildingBlock: KIFKEQ_clean_linker_1, # of connection points: 2
#     Edge 77, Type (0, 0), BuildingBlock: KIFKEQ_clean_linker_1, # of connection points: 2
#     Edge 78, Type (0, 0), BuildingBlock: KIFKEQ_clean_linker_1, # of connection points: 2
#     Edge 79, Type (0, 0), BuildingBlock: KIFKEQ_clean_linker_1, # of connection points: 2
#     Edge 80, Type (0, 0), BuildingBlock: KIFKEQ_clean_linker_1, # of connection points: 2
#     Edge 81, Type (0, 0), BuildingBlock: KIFKEQ_clean_linker_1, # of connection points: 2
#     Edge 82, Type (0, 0), BuildingBlock: KIFKEQ_clean_linker_1, # of connection points: 2
#     Edge 83, Type (0, 0), BuildingBlock: KIFKEQ_clean_linker_1, # of connection points: 2
#     Edge 84, Type (0, 0), BuildingBlock: KIFKEQ_clean_linker_1, # of connection points: 2
#     Edge 85, Type (0, 0), BuildingBlock: KIFKEQ_clean_linker_1, # of connection points: 2
#     Edge 86, Type (0, 0), BuildingBlock: KIFKEQ_clean_linker_1, # of connection points: 2
#     Edge 87, Type (0, 0), BuildingBlock: KIFKEQ_clean_linker_1, # of connection points: 2
#     Edge 88, Type (0, 0), BuildingBlock: KIFKEQ_clean_linker_1, # of connection points: 2
#     Edge 89, Type (0, 0), BuildingBlock: KIFKEQ_clean_linker_1, # of connection points: 2
#     Edge 90, Type (0, 0), BuildingBlock: KIFKEQ_clean_linker_1, # of connection points: 2
#     Edge 91, Type (0, 0), BuildingBlock: KIFKEQ_clean_linker_1, # of connection points: 2
#     Edge 92, Type (0, 0), BuildingBlock: KIFKEQ_clean_linker_1, # of connection points: 2
#     Edge 93, Type (0, 0), BuildingBlock: KIFKEQ_clean_linker_1, # of connection points: 2
#     Edge 94, Type (0, 0), BuildingBlock: KIFKEQ_clean_linker_1, # of connection points: 2
#     Edge 95, Type (0, 0), BuildingBlock: KIFKEQ_clean_linker_1, # of connection points: 2
# Relax obj value: 0.110
# Max RMSD: 0.249
# Mean RMSD: 0.249
data_MOF--net-uoa--node1-MUDLON_clean_sbu_0--edge1-KIFKEQ_clean_linker_1
_symmetry_space_group_name_H-M    P1
_symmetry_Int_Tables_number       1
_symmetry_cell_setting            triclinic
loop_
_symmetry_equiv_pos_as_xyz
'x, y, z'
_cell_length_a     80.486774
_cell_length_b     80.593388
_cell_length_c     30.055335
_cell_angle_alpha  90.00458
_cell_angle_beta   90.008896
_cell_angle_gamma 90.040454
loop_
_atom_site_label
_atom_site_type_symbol
_atom_site_fract_x
_atom_site_fract_y
_atom_site_fract_z
_atom_type_partial_charge
Mg0 Mg 0.02862 0.0929 0.07216 0.0
C1 C 0.01215 0.06176 0.04912 0.0
O2 O 1.0003 0.07295 0.04738 0.0
C3 C 0.06032 0.11339 0.06986 0.0
O4 O 0.05276 0.12007 0.03552 0.0
C5 C 0.02829 0.09829 0.97548 0.0
O6 O 0.0411 0.0885 0.98213 0.0
O7 O 0.02024 0.10349 1.00921 0.0
O8 O 0.02668 0.06637 0.06041 0.0
O9 O 0.01346 0.09795 0.13073 0.0
C10 C 0.01716 0.1097 0.15728 0.0
O11 O 0.02888 0.12023 0.14585 0.0
O12 O 0.05354 0.10119 0.08964 0.0
Mg13 Mg 0.15552 0.77716 0.31282 0.0
C14 C 0.1626 0.76392 0.40325 0.0
O15 O 0.17623 0.77221 0.39399 0.0
C16 C 0.14763 0.77519 0.21775 0.0
O17 O 0.15333 0.79034 0.2232 0.0
C18 C 0.14596 0.81055 0.35395 0.0
O19 O 0.15806 0.80706 0.38173 0.0
O20 O 0.1432 0.80088 0.32134 0.0
O21 O 0.15115 0.7632 0.37409 0.0
O22 O 0.18216 0.77797 0.30092 0.0
C23 C 0.18831 0.76359 0.29503 0.0
O24 O 0.17841 0.75066 0.29795 0.0
O25 O 0.14606 0.76598 0.25191 0.0
Mg26 Mg 0.47608 0.91118 0.57507 0.0
C27 C 0.48579 0.9474 0.58536 0.0
O28 O 0.49587 0.94094 0.61499 0.0
C29 C 0.4508 0.88685 0.60178 0.0
O30 O 0.46483 0.88046 0.61611 0.0
C31 C 0.49555 0.91162 0.48967 0.0
O32 O 0.49956 0.92603 0.50699 0.0
O33 O 0.48696 0.90158 0.51301 0.0
O34 O 0.47531 0.93803 0.566 0.0
O35 O 0.48739 0.90512 0.63966 0.0
C36 C 0.50243 0.90495 0.65263 0.0
O37 O 0.51432 0.90857 0.62429 0.0
O38 O 0.45126 0.90055 0.58076 0.0
Mg39 Mg 0.34399 0.22514 0.8226 0.0
C40 C 0.34749 0.23211 0.917 0.0
O41 O 0.33983 0.21774 0.91423 0.0
C42 C 0.34698 0.22378 0.72615 0.0
O43 O 0.33797 0.21085 0.73745 0.0
C44 C 0.36486 0.19383 0.81804 0.0
O45 O 0.37209 0.20222 0.78595 0.0
O46 O 0.35221 0.19999 0.8372 0.0
O47 O 0.3514 0.2395 0.88099 0.0
O48 O 0.3172 0.227 0.81698 0.0
C49 C 0.31136 0.24165 0.81529 0.0
O50 O 0.3216 0.25425 0.81965 0.0
O51 O 0.3527 0.23299 0.75704 0.0
Mg52 Mg 0.02538 0.9076 0.4613 0.0
C53 C 0.01253 0.94222 0.45787 0.0
O54 O 1.00084 0.93393 0.43695 0.0
C55 C 0.05181 0.88214 0.45834 0.0
O56 O 0.03915 0.87398 0.47519 0.0
C57 C 0.00665 0.90631 0.54812 0.0
O58 O 0.00155 0.9206 0.53232 0.0
O59 O 0.01585 0.89721 0.52379 0.0
O60 O 0.02544 0.93446 0.47065 0.0
O61 O 0.01101 0.90285 0.40071 0.0
C62 C 0.0141 0.89101 0.3739 0.0
O63 O 0.0251 0.87975 0.38516 0.0
O64 O 0.05011 0.89752 0.45011 0.0
Mg65 Mg 0.34396 0.77957 0.70346 0.0
C66 C 0.33798 0.76093 0.61817 0.0
O67 O 0.32266 0.76321 0.63192 0.0
C68 C 0.35286 0.77928 0.79839 0.0
O69 O 0.34578 0.79381 0.79259 0.0
C70 C 0.35487 0.81086 0.65576 0.0
O71 O 0.34919 0.80258 0.62132 0.0
O72 O 0.35329 0.80464 0.69442 0.0
O73 O 0.34991 0.76584 0.64267 0.0
O74 O 0.31738 0.77798 0.7164 0.0
C75 C 0.31292 0.76466 0.73582 0.0
O76 O 0.32431 0.75352 0.74525 0.0
O77 O 0.35502 0.77001 0.76454 0.0
Mg78 Mg 0.47653 0.09614 0.95029 0.0
C79 C 0.49424 0.06487 0.97007 0.0
O80 O 0.50523 0.07624 0.9809 0.0
C81 C 0.44519 0.11625 0.95627 0.0
O82 O 0.45471 0.1246 0.98385 0.0
C83 C 0.4762 0.101 0.04788 0.0
O84 O 0.46237 0.09279 0.04032 0.0
O85 O 0.48508 0.10532 0.01475 0.0
O86 O 0.48027 0.06948 0.95455 0.0
O87 O 0.48873 0.10592 0.89076 0.0
C88 C 0.49855 0.0973 0.86695 0.0
O89 O 0.50334 0.08269 0.88136 0.0
O90 O 0.45071 0.1029 0.93925 0.0
Mg91 Mg 0.16099 0.22324 0.20841 0.0
C92 C 0.1572 0.22895 0.11282 0.0
O93 O 0.16383 0.2141 0.11608 0.0
C94 C 0.154 0.22317 0.30465 0.0
O95 O 0.16195 0.20914 0.29814 0.0
C96 C 0.13829 0.19355 0.21082 0.0
O97 O 0.13007 0.20373 0.23688 0.0
O98 O 0.15239 0.19801 0.19592 0.0
O99 O 0.15417 0.23693 0.14848 0.0
O100 O 0.18774 0.22538 0.21633 0.0
C101 C 0.19331 0.24016 0.21761 0.0
O102 O 0.18285 0.2525 0.21224 0.0
O103 O 0.15089 0.23233 0.27116 0.0
Mg104 Mg 0.9745 0.90934 0.95888 0.0
C105 C 0.98597 0.89145 0.87543 0.0
O106 O 0.9741 0.88119 0.88745 0.0
C107 C 0.99132 0.90799 0.04775 0.0
O108 O 0.99689 0.92208 0.03172 0.0
C109 C 0.94248 0.88915 0.96144 0.0
O110 O 0.94918 0.88341 0.9982 0.0
O111 O 0.94986 0.90067 0.94034 0.0
O112 O 0.98985 0.90335 0.9013 0.0
O113 O 0.97522 0.93623 0.96665 0.0
C114 C 0.988 0.944 0.95281 0.0
O115 O 0.99962 0.93568 0.93174 0.0
O116 O 0.98222 0.89892 0.02306 0.0
Mg117 Mg 0.84308 0.22201 0.70131 0.0
C118 C 0.81216 0.23909 0.72454 0.0
O119 O 0.8239 0.24958 0.73612 0.0
C120 C 0.86397 0.19114 0.70422 0.0
O121 O 0.87176 0.20026 0.73386 0.0
C122 C 0.8462 0.22048 0.79755 0.0
O123 O 0.83672 0.20788 0.78621 0.0
O124 O 0.85229 0.22944 0.76669 0.0
O125 O 0.81636 0.22537 0.70681 0.0
O126 O 0.85116 0.23596 0.64303 0.0
C127 C 0.84702 0.22857 0.60722 0.0
O128 O 0.83881 0.21452 0.61035 0.0
O129 O 0.85065 0.19664 0.68699 0.0
Mg130 Mg 0.52992 0.0937 0.45366 0.0
C131 C 0.5201 0.09169 0.36034 0.0
O132 O 0.53309 0.08193 0.36449 0.0
C133 C 0.50996 0.10428 0.53637 0.0
O134 O 0.49755 0.09711 0.51544 0.0
C135 C 0.55584 0.11347 0.40795 0.0
O136 O 0.54196 0.11976 0.39245 0.0
O137 O 0.55508 0.10169 0.43612 0.0
O138 O 0.51456 0.09888 0.39507 0.0
O139 O 0.52752 0.0673 0.46787 0.0
C140 C 0.51298 0.06124 0.46397 0.0
O141 O 0.50104 0.07078 0.44869 0.0
O142 O 0.52388 0.10571 0.51671 0.0
Mg143 Mg 0.66259 0.78063 0.19971 0.0
C144 C 0.69457 0.76538 0.2175 0.0
O145 O 0.68364 0.75332 0.22068 0.0
C146 C 0.65209 0.81402 0.16223 0.0
O147 O 0.66081 0.80872 0.12815 0.0
C148 C 0.64686 0.77502 0.2913 0.0
O149 O 0.64171 0.79035 0.286 0.0
O150 O 0.65434 0.76778 0.25946 0.0
O151 O 0.68946 0.7798 0.20686 0.0
O152 O 0.65599 0.76817 0.13776 0.0
C153 C 0.66592 0.77013 0.10523 0.0
O154 O 0.67971 0.77852 0.11177 0.0
O155 O 0.65163 0.80528 0.19747 0.0
Mg156 Mg 0.97529 0.09254 0.56957 0.0
C157 C 0.9814 0.09588 0.66553 0.0
O158 O 0.96626 0.08988 0.66268 0.0
C159 C 0.9938 0.09459 0.48358 0.0
O160 O 0.99936 0.0806 0.5003 0.0
C161 C 0.94318 0.11261 0.56238 0.0
O162 O 0.95064 0.11881 0.52724 0.0
O163 O 0.9502 0.101 0.58394 0.0
O164 O 0.9894 0.09855 0.62966 0.0
O165 O 0.97599 0.06588 0.55838 0.0
C166 C 0.98702 0.05683 0.57655 0.0
O167 O 0.99709 0.06345 0.60601 0.0
O168 O 0.98413 0.10346 0.50717 0.0
Mg169 Mg 0.65746 0.22807 0.31564 0.0
C170 C 0.69012 0.2413 0.29657 0.0
O171 O 0.6796 0.25342 0.28879 0.0
C172 C 0.64965 0.19063 0.33779 0.0
O173 O 0.66507 0.18912 0.35157 0.0
C174 C 0.65488 0.22845 0.2197 0.0
O175 O 0.66222 0.21445 0.23044 0.0
O176 O 0.65006 0.23795 0.251 0.0
O177 O 0.68443 0.22754 0.31083 0.0
O178 O 0.65116 0.24249 0.37484 0.0
C179 C 0.65318 0.23447 0.41095 0.0
O180 O 0.65846 0.21907 0.40858 0.0
O181 O 0.64468 0.20441 0.32201 0.0
Mg182 Mg 0.53081 0.9127 0.07003 0.0
C183 C 0.50976 0.90085 0.15536 0.0
O184 O 0.50195 0.88969 0.13134 0.0
C185 C 0.52994 0.89746 0.98 0.0
O186 O 0.54592 0.89866 0.98832 0.0
C187 C 0.55549 0.88854 0.09917 0.0
O188 O 0.54108 0.88198 0.10985 0.0
O189 O 0.55561 0.9025 0.07938 0.0
O190 O 0.52016 0.91059 0.13697 0.0
O191 O 0.53057 0.9391 0.05443 0.0
C192 C 0.51853 0.94396 0.03024 0.0
O193 O 0.50763 0.93298 0.01639 0.0
O194 O 0.51972 0.90102 0.01098 0.0
Mg195 Mg 0.84388 0.77841 0.8166 0.0
C196 C 0.81126 0.76155 0.80961 0.0
O197 O 0.82148 0.74905 0.81579 0.0
C198 C 0.86594 0.8086 0.81476 0.0
O199 O 0.87394 0.79906 0.78654 0.0
C200 C 0.84712 0.77977 0.72045 0.0
O201 O 0.83791 0.79257 0.73162 0.0
O202 O 0.8529 0.77066 0.7514 0.0
O203 O 0.81707 0.77624 0.8102 0.0
O204 O 0.85146 0.76401 0.87475 0.0
C205 C 0.8493 0.77187 0.91107 0.0
O206 O 0.84308 0.78692 0.90921 0.0
O207 O 0.85218 0.80359 0.83062 0.0
Mg208 Mg 0.52513 0.59408 0.57474 0.0
C209 C 0.50928 0.56198 0.55845 0.0
O210 O 0.49681 0.57241 0.56209 0.0
C211 C 0.55005 0.61889 0.59927 0.0
O212 O 0.53573 0.62641 0.60508 0.0
C213 C 0.52391 0.60201 0.47936 0.0
O214 O 0.53861 0.59519 0.48467 0.0
O215 O 0.51488 0.60428 0.5136 0.0
O216 O 0.52397 0.56746 0.56394 0.0
O217 O 0.51132 0.59961 0.63542 0.0
C218 C 0.51929 0.59668 0.67118 0.0
O219 O 0.53444 0.59072 0.66817 0.0
O220 O 0.54999 0.60407 0.58473 0.0
Mg221 Mg 0.66121 0.28398 0.81516 0.0
C222 C 0.66605 0.26898 0.90443 0.0
O223 O 0.68059 0.27575 0.89637 0.0
C224 C 0.65514 0.28317 0.71863 0.0
O225 O 0.66495 0.29606 0.72416 0.0
C226 C 0.63989 0.31459 0.81275 0.0
O227 O 0.63212 0.3054 0.78323 0.0
O228 O 0.65325 0.30916 0.82998 0.0
O229 O 0.65483 0.26977 0.87466 0.0
O230 O 0.68775 0.28149 0.80357 0.0
C231 C 0.6926 0.26668 0.7967 0.0
O232 O 0.6816 0.25463 0.79858 0.0
O233 O 0.65033 0.27525 0.75296 0.0
Mg234 Mg 0.97293 0.40837 0.05984 0.0
C235 C 0.98757 0.43998 0.03267 0.0
O236 O 0.99897 0.42888 0.02306 0.0
C237 C 0.94835 0.38426 0.09094 0.0
O238 O 0.96275 0.37759 0.10104 0.0
C239 C 0.9738 0.40106 0.96413 0.0
O240 O 0.95942 0.40847 0.96989 0.0
O241 O 0.98273 0.39812 0.99819 0.0
O242 O 0.97402 0.43508 0.05016 0.0
O243 O 0.98706 0.40302 0.12005 0.0
C244 C 0.9799 0.40807 0.15531 0.0
O245 O 0.96565 0.4159 0.15147 0.0
O246 O 0.9482 0.39821 0.07115 0.0
Mg247 Mg 0.84582 0.72438 0.31608 0.0
C248 C 0.84063 0.73908 0.40501 0.0
O249 O 0.82665 0.73115 0.39736 0.0
C250 C 0.85144 0.72462 0.21959 0.0
O251 O 0.84137 0.71201 0.22607 0.0
C252 C 0.86589 0.69259 0.31316 0.0
O253 O 0.87295 0.70044 0.27986 0.0
O254 O 0.8536 0.69929 0.33275 0.0
O255 O 0.85178 0.73911 0.37499 0.0
O256 O 0.81932 0.72664 0.30378 0.0
C257 C 0.81399 0.74142 0.29959 0.0
O258 O 0.82448 0.75378 0.30472 0.0
O259 O 0.85668 0.7326 0.25338 0.0
Mg260 Mg 0.52863 0.4115 0.95277 0.0
C261 C 0.51348 0.44554 0.9526 0.0
O262 O 0.5022 0.43723 0.93019 0.0
C263 C 0.56192 0.39363 0.95712 0.0
O264 O 0.5556 0.38789 0.99437 0.0
C265 C 0.50957 0.4064 0.03763 0.0
O266 O 0.50138 0.4188 0.0197 0.0
O267 O 0.52115 0.39962 0.01524 0.0
O268 O 0.5266 0.43806 0.96505 0.0
O269 O 0.51416 0.40596 0.89307 0.0
C270 C 0.51874 0.39451 0.86655 0.0
O271 O 0.53076 0.38449 0.87883 0.0
O272 O 0.55381 0.40436 0.93504 0.0
Mg273 Mg 0.84359 0.27572 0.20292 0.0
C274 C 0.83768 0.26054 0.11351 0.0
O275 O 0.82293 0.26651 0.12307 0.0
C276 C 0.85252 0.27489 0.29764 0.0
O277 O 0.84602 0.2897 0.2921 0.0
C278 C 0.85391 0.30759 0.15669 0.0
O279 O 0.8469 0.30014 0.12263 0.0
O280 O 0.85344 0.30064 0.19466 0.0
O281 O 0.8493 0.26204 0.14197 0.0
O282 O 0.817 0.27466 0.21541 0.0
C283 C 0.81124 0.26017 0.22224 0.0
O284 O 0.82141 0.24745 0.2197 0.0
O285 O 0.85415 0.26555 0.26373 0.0
Mg286 Mg 0.97593 0.59327 0.4497 0.0
C287 C 0.99275 0.56203 0.47155 0.0
O288 O 0.00384 0.57346 0.48119 0.0
C289 C 0.94477 0.614 0.45427 0.0
O290 O 0.95383 0.62173 0.48414 0.0
C291 C 0.97434 0.59616 0.54586 0.0
O292 O 0.96176 0.58672 0.53417 0.0
O293 O 0.98341 0.60228 0.51524 0.0
O294 O 0.97884 0.56657 0.4555 0.0
O295 O 0.99023 0.60116 0.39158 0.0
C296 C 0.98223 0.59946 0.35527 0.0
O297 O 0.96697 0.59369 0.35705 0.0
O298 O 0.95047 0.60091 0.43626 0.0
Mg299 Mg 0.6599 0.72456 0.70032 0.0
C300 C 0.66239 0.73275 0.6046 0.0
O301 O 0.67409 0.72158 0.60996 0.0
C302 C 0.64878 0.72759 0.79425 0.0
O303 O 0.65029 0.71145 0.78967 0.0
C304 C 0.64966 0.68947 0.6671 0.0
O305 O 0.6613 0.69159 0.63703 0.0
O306 O 0.64759 0.70043 0.69707 0.0
O307 O 0.65423 0.73758 0.63845 0.0
O308 O 0.68671 0.72471 0.7101 0.0
C309 C 0.69189 0.73889 0.72267 0.0
O310 O 0.6811 0.75106 0.72597 0.0
O311 O 0.65089 0.73678 0.76028 0.0
Mg312 Mg 0.47819 0.40954 0.45297 0.0
C313 C 0.49274 0.39276 0.36819 0.0
O314 O 0.48643 0.37903 0.38468 0.0
C315 C 0.49773 0.40901 0.53836 0.0
O316 O 0.50184 0.42362 0.52248 0.0
C317 C 0.44735 0.39643 0.40605 0.0
O318 O 0.45537 0.402 0.37105 0.0
O319 O 0.45364 0.39852 0.44451 0.0
O320 O 0.49197 0.40607 0.3909 0.0
O321 O 0.47676 0.43624 0.46436 0.0
C322 C 0.48816 0.44538 0.44819 0.0
O323 O 0.49943 0.43856 0.42239 0.0
O324 O 0.48894 0.3994 0.51432 0.0
Mg325 Mg 0.34089 0.72645 0.20195 0.0
C326 C 0.3094 0.74312 0.22462 0.0
O327 O 0.32071 0.75386 0.23757 0.0
C328 C 0.36109 0.69491 0.20622 0.0
O329 O 0.36901 0.70372 0.23626 0.0
C330 C 0.34439 0.72462 0.29839 0.0
O331 O 0.33517 0.71181 0.28722 0.0
O332 O 0.35 0.73388 0.26749 0.0
O333 O 0.31414 0.72964 0.2066 0.0
O334 O 0.34929 0.74029 0.14369 0.0
C335 C 0.34555 0.73285 0.10765 0.0
O336 O 0.33748 0.71871 0.11027 0.0
O337 O 0.34814 0.70093 0.18817 0.0
Mg338 Mg 0.02963 0.59219 0.94999 0.0
C339 C 0.01425 0.58756 0.8615 0.0
O340 O 0.02158 0.57327 0.86884 0.0
C341 C 0.02951 0.59778 0.04683 0.0
O342 O 0.04184 0.58735 0.04066 0.0
C343 C 0.06164 0.61195 0.95224 0.0
O344 O 0.05393 0.61906 0.98569 0.0
O345 O 0.05478 0.59971 0.93285 0.0
O346 O 0.01484 0.59867 0.89156 0.0
O347 O 0.02703 0.56567 0.96108 0.0
C348 C 0.01224 0.5606 0.96741 0.0
O349 O 1.00005 0.57143 0.96574 0.0
O350 O 0.0217 0.60313 0.01287 0.0
Mg351 Mg 0.15962 0.27656 0.70614 0.0
C352 C 0.19133 0.26253 0.73343 0.0
O353 O 0.18038 0.25073 0.74057 0.0
C354 C 0.13468 0.30363 0.70879 0.0
O355 O 0.12796 0.29227 0.73447 0.0
C356 C 0.15375 0.27569 0.80279 0.0
O357 O 0.16194 0.28961 0.79653 0.0
O358 O 0.14988 0.26702 0.76891 0.0
O359 O 0.18633 0.27618 0.71681 0.0
O360 O 0.15478 0.26129 0.64751 0.0
C361 C 0.14383 0.26555 0.61915 0.0
O362 O 0.13431 0.27838 0.62778 0.0
O363 O 0.14908 0.30097 0.69293 0.0
Mg364 Mg 0.46932 0.59279 0.07583 0.0
C365 C 0.47539 0.5962 0.17145 0.0
O366 O 0.46076 0.58902 0.16857 0.0
C367 C 0.47063 0.59796 0.97917 0.0
O368 O 0.45761 0.58836 0.98498 0.0
C369 C 0.43817 0.61362 0.06944 0.0
O370 O 0.44712 0.62094 0.03859 0.0
O371 O 0.44392 0.60078 0.08853 0.0
O372 O 0.48305 0.5997 0.13559 0.0
O373 O 0.47209 0.56622 0.0665 0.0
C374 C 0.48677 0.56188 0.05595 0.0
O375 O 0.49837 0.57334 0.05404 0.0
O376 O 0.47847 0.60304 0.01337 0.0
Mg377 Mg 0.1609 0.72158 0.81469 0.0
C378 C 0.1929 0.73927 0.80817 0.0
O379 O 0.18208 0.75144 0.81071 0.0
C380 C 0.14054 0.69014 0.80882 0.0
O381 O 0.13314 0.69884 0.77762 0.0
C382 C 0.15905 0.72148 0.71812 0.0
O383 O 0.16921 0.70935 0.7288 0.0
O384 O 0.15216 0.72959 0.74943 0.0
O385 O 0.18766 0.7244 0.81054 0.0
O386 O 0.15267 0.73537 0.87311 0.0
C387 C 0.15684 0.72809 0.90904 0.0
O388 O 0.16522 0.71415 0.90618 0.0
O389 O 0.15327 0.69617 0.82791 0.0
Mg390 Mg 0.02874 0.40909 0.56049 0.0
C391 C 0.02251 0.40625 0.65617 0.0
O392 O 0.03768 0.4122 0.65326 0.0
C393 C 0.02746 0.4015 0.46462 0.0
O394 O 0.04266 0.40709 0.47028 0.0
C395 C 0.05123 0.38174 0.57607 0.0
O396 O 0.03648 0.37507 0.57017 0.0
O397 O 0.05268 0.39736 0.57162 0.0
O398 O 0.01454 0.40345 0.62035 0.0
O399 O 0.02904 0.43584 0.55238 0.0
C400 C 0.0146 0.44227 0.55249 0.0
O401 O 0.00174 0.43257 0.55965 0.0
O402 O 0.01815 0.39996 0.49859 0.0
Mg403 Mg 0.34483 0.27966 0.32194 0.0
C404 C 0.31352 0.26466 0.29163 0.0
O405 O 0.32479 0.25333 0.283 0.0
C406 C 0.35949 0.30887 0.37073 0.0
O407 O 0.3575 0.29844 0.40387 0.0
C408 C 0.35286 0.27935 0.22625 0.0
O409 O 0.34543 0.29371 0.23205 0.0
O410 O 0.35551 0.27027 0.26019 0.0
O411 O 0.31815 0.27819 0.3097 0.0
O412 O 0.35076 0.2652 0.38163 0.0
C413 C 0.33891 0.26108 0.4074 0.0
O414 O 0.32359 0.2645 0.39545 0.0
O415 O 0.35437 0.30473 0.33223 0.0
H416 H 0.01335 0.10547 0.68624 0.0
H417 H 0.96605 0.0933 0.74585 0.0
H418 H 0.02532 0.10916 0.76054 0.0
H419 H 0.97797 0.09666 0.81941 0.0
H420 H 0.9998 0.11411 0.94828 0.0
H421 H 0.98908 0.11633 0.87241 0.0
H422 H 0.03286 0.09147 0.82283 0.0
H423 H 0.04368 0.08958 0.89815 0.0
C424 C 0.0055 0.10366 0.71509 0.0
C425 C 0.98878 0.09899 0.71004 0.0
C426 C 0.01235 0.10571 0.75767 0.0
C427 C 0.00261 0.10322 0.79604 0.0
C428 C 0.9858 0.09895 0.79074 0.0
C429 C 0.97899 0.09686 0.74839 0.0
C430 C 0.00724 0.10937 0.92109 0.0
C431 C 0.02253 0.10154 0.92938 0.0
C432 C 1.00106 0.11054 0.87761 0.0
C433 C 0.01003 0.10394 0.84147 0.0
C434 C 0.02567 0.09682 0.84968 0.0
C435 C 0.03183 0.09564 0.89305 0.0
H436 H 0.14071 0.75727 0.92959 0.0
H437 H 0.1639 0.71441 0.98951 0.0
H438 H 0.13526 0.76859 1.00381 0.0
H439 H 0.15886 0.72578 0.06289 0.0
H440 H 0.13877 0.74361 0.19269 0.0
H441 H 0.1381 0.73228 0.11734 0.0
H442 H 0.15096 0.78045 0.06444 0.0
H443 H 0.15117 0.79183 0.1393 0.0
C444 C 0.1446 0.75025 0.9585 0.0
C445 C 0.15281 0.73499 0.95354 0.0
C446 C 0.14153 0.75675 1.00103 0.0
C447 C 0.14659 0.74809 0.03945 0.0
C448 C 0.15451 0.73268 0.03425 0.0
C449 C 0.15756 0.72622 0.99196 0.0
C450 C 0.14119 0.75183 0.16491 0.0
C451 C 0.14518 0.76859 0.17212 0.0
C452 C 0.14091 0.74532 0.12171 0.0
C453 C 0.14467 0.7554 0.08474 0.0
C454 C 0.14787 0.77233 0.09193 0.0
C455 C 0.1481 0.77884 0.13504 0.0
H456 H 0.5303 0.91569 0.21532 0.0
H457 H 0.48514 0.8869 0.20718 0.0
H458 H 0.5279 0.91657 0.29558 0.0
H459 H 0.48224 0.88842 0.2882 0.0
H460 H 0.48864 0.88363 0.43979 0.0
H461 H 0.4924 0.87998 0.35948 0.0
H462 H 0.51259 0.92958 0.35071 0.0
H463 H 0.50954 0.93287 0.43019 0.0
C464 C 0.5197 0.9097 0.23065 0.0
C465 C 0.50781 0.90138 0.20459 0.0
C466 C 0.51827 0.91026 0.27693 0.0
C467 C 0.50474 0.90276 0.2988 0.0
C468 C 0.49292 0.89422 0.27278 0.0
C469 C 0.49449 0.89346 0.22623 0.0
C470 C 0.4941 0.89363 0.42067 0.0
C471 C 0.49888 0.9085 0.44165 0.0
C472 C 0.4961 0.89161 0.3745 0.0
C473 C 0.50284 0.90446 0.34821 0.0
C474 C 0.5077 0.91923 0.36957 0.0
C475 C 0.50586 0.92116 0.41547 0.0
H476 H 0.36796 0.2614 0.45565 0.0
H477 H 0.31688 0.24505 0.4607 0.0
H478 H 0.37206 0.25164 0.53227 0.0
H479 H 0.32096 0.23538 0.53655 0.0
H480 H 0.33664 0.20567 0.65504 0.0
H481 H 0.33664 0.21356 0.57705 0.0
H482 H 0.36142 0.25946 0.60998 0.0
H483 H 0.3615 0.25152 0.68881 0.0
C484 C 0.35769 0.25554 0.47286 0.0
C485 C 0.3421 0.25395 0.45207 0.0
C486 C 0.36 0.25009 0.51679 0.0
C487 C 0.34684 0.24271 0.54042 0.0
C488 C 0.3314 0.24083 0.51914 0.0
C489 C 0.32904 0.24644 0.47566 0.0
C490 C 0.34225 0.2174 0.64584 0.0
C491 C 0.3489 0.22805 0.67836 0.0
C492 C 0.3422 0.22192 0.60103 0.0
C493 C 0.34884 0.23721 0.58739 0.0
C494 C 0.35626 0.24756 0.61949 0.0
C495 C 0.35625 0.24304 0.66462 0.0
H496 H 0.0048 0.915 0.83352 0.0
H497 H 0.98086 0.86767 0.81159 0.0
H498 H 0.01065 0.91711 0.75415 0.0
H499 H 0.98686 0.86984 0.73197 0.0
H500 H 0.01399 0.87741 0.59321 0.0
H501 H 0.01092 0.8722 0.67336 0.0
H502 H 0.98999 0.92108 0.69022 0.0
H503 H 0.9928 0.92623 0.61097 0.0
C504 C 1.00108 0.90488 0.81199 0.0
C505 C 0.9922 0.89124 0.82893 0.0
C506 C 0.00435 0.90615 0.76645 0.0
C507 C 0.999 0.89375 0.73684 0.0
C508 C 0.99112 0.87958 0.75404 0.0
C509 C 0.98767 0.87838 0.79963 0.0
C510 C 0.0086 0.88696 0.61404 0.0
C511 C 0.00367 0.90224 0.59563 0.0
C512 C 0.00687 0.88398 0.65984 0.0
C513 C 1.00046 0.89634 0.68806 0.0
C514 C 0.99526 0.91144 0.66943 0.0
C515 C 0.99675 0.91432 0.62385 0.0
H516 H 0.36405 0.74856 0.82429 0.0
H517 H 0.3484 0.79601 0.87639 0.0
H518 H 0.36545 0.73757 0.89992 0.0
H519 H 0.34934 0.78494 0.95155 0.0
H520 H 0.36027 0.76282 0.0872 0.0
H521 H 0.36552 0.77423 0.01295 0.0
H522 H 0.34489 0.7299 0.95384 0.0
H523 H 0.34005 0.71847 0.0272 0.0
C524 C 0.3611 0.7567 0.85185 0.0
C525 C 0.35595 0.77311 0.84418 0.0
C526 C 0.36179 0.75038 0.89522 0.0
C527 C 0.35731 0.7603 0.93191 0.0
C528 C 0.35301 0.77696 0.92428 0.0
C529 C 0.35236 0.78328 0.881 0.0
C530 C 0.35702 0.75549 0.05828 0.0
C531 C 0.34965 0.73978 0.06322 0.0
C532 C 0.35997 0.76204 0.01573 0.0
C533 C 0.35566 0.75298 0.97728 0.0
C534 C 0.34866 0.73713 0.98249 0.0
C535 C 0.34571 0.73063 0.02478 0.0
H536 H 0.50716 0.11043 0.0767 0.0
H537 H 0.45849 0.09643 0.12429 0.0
H538 H 0.51749 0.11046 0.15321 0.0
H539 H 0.46885 0.09634 0.2005 0.0
H540 H 0.49136 0.10831 0.33779 0.0
H541 H 0.48051 0.11339 0.26268 0.0
H542 H 0.52267 0.08771 0.20668 0.0
H543 H 0.53344 0.0827 0.28089 0.0
C544 C 0.49861 0.10762 0.10347 0.0
C545 C 0.48204 0.10329 0.09432 0.0
C546 C 0.50454 0.10753 0.14729 0.0
C547 C 0.49402 0.10325 0.18292 0.0
C548 C 0.47725 0.09979 0.17392 0.0
C549 C 0.47135 0.09975 0.13013 0.0
C550 C 0.4983 0.10381 0.30937 0.0
C551 C 0.51322 0.09503 0.3154 0.0
C552 C 0.49208 0.10669 0.26641 0.0
C553 C 0.50079 0.10105 0.22868 0.0
C554 C 0.51579 0.09247 0.23489 0.0
C555 C 0.52188 0.08945 0.27761 0.0
H556 H 0.16449 0.24163 0.58559 0.0
H557 H 0.12193 0.27169 0.55147 0.0
H558 H 0.16533 0.23091 0.50992 0.0
H559 H 0.1225 0.26064 0.47598 0.0
H560 H 0.14313 0.25368 0.33313 0.0
H561 H 0.13923 0.26289 0.40984 0.0
H562 H 0.15154 0.21372 0.45673 0.0
H563 H 0.15586 0.2047 0.38039 0.0
C564 C 0.15513 0.24575 0.56217 0.0
C565 C 0.14319 0.25758 0.57464 0.0
C566 C 0.15556 0.23955 0.51871 0.0
C567 C 0.14402 0.24495 0.48662 0.0
C568 C 0.13176 0.2564 0.49954 0.0
C569 C 0.13135 0.26264 0.54298 0.0
C570 C 0.14485 0.24481 0.35982 0.0
C571 C 0.14994 0.2285 0.35062 0.0
C572 C 0.14254 0.25006 0.40385 0.0
C573 C 0.1452 0.23909 0.43964 0.0
C574 C 0.14971 0.22261 0.43016 0.0
C575 C 0.15209 0.21741 0.38628 0.0
H576 H 0.01758 0.86756 0.30845 0.0
H577 H 0.99635 0.91587 0.33411 0.0
H578 H 0.01086 0.87049 0.22946 0.0
H579 H 0.98971 0.91872 0.25533 0.0
H580 H 0.00552 0.92773 0.11051 0.0
H581 H 0.00885 0.92235 0.18949 0.0
H582 H 0.98692 0.87386 0.17297 0.0
H583 H 0.98341 0.87927 0.09308 0.0
C584 C 0.01123 0.87867 0.29744 0.0
C585 C 0.00766 0.89155 0.32761 0.0
C586 C 0.00735 0.88031 0.25219 0.0
C587 C 0.99997 0.89492 0.23614 0.0
C588 C 0.99563 0.90742 0.26665 0.0
C589 C 0.99935 0.90573 0.31187 0.0
C590 C 1.00143 0.91586 0.12344 0.0
C591 C 0.99417 0.90393 0.09534 0.0
C592 C 0.00322 0.91286 0.16889 0.0
C593 C 0.99796 0.89777 0.18755 0.0
C594 C 0.99106 0.88561 0.15947 0.0
C595 C 0.98906 0.88871 0.1138 0.0
H596 H 0.8674 0.25657 0.06957 0.0
H597 H 0.81461 0.24814 0.0567 0.0
H598 H 0.87155 0.24605 0.9936 0.0
H599 H 0.81878 0.23759 0.98165 0.0
H600 H 0.83314 0.20412 0.8685 0.0
H601 H 0.83285 0.21272 0.94597 0.0
H602 H 0.86272 0.25549 0.91319 0.0
H603 H 0.863 0.2469 0.8348 0.0
C604 C 0.85674 0.2523 0.05076 0.0
C605 C 0.84068 0.25314 0.06911 0.0
C606 C 0.85911 0.24642 1.00727 0.0
C607 C 0.8455 0.24097 0.98181 0.0
C608 C 0.82953 0.24154 1.00061 0.0
C609 C 0.82714 0.24765 0.04357 0.0
C610 C 0.83982 0.21528 0.87763 0.0
C611 C 0.84795 0.22492 0.84525 0.0
C612 C 0.83961 0.22021 0.9221 0.0
C613 C 0.84761 0.23485 0.93553 0.0
C614 C 0.85649 0.2441 0.90374 0.0
C615 C 0.8566 0.23922 0.85889 0.0
H616 H 0.52266 0.08506 0.81214 0.0
H617 H 0.48235 0.12039 0.81599 0.0
H618 H 0.52603 0.09012 0.73258 0.0
H619 H 0.48566 0.12532 0.73616 0.0
H620 H 0.4819 0.1052 0.58783 0.0
H621 H 0.48032 0.10669 0.66891 0.0
H622 H 0.53359 0.11225 0.67585 0.0
H623 H 0.53522 0.11089 0.59481 0.0
C624 C 0.5147 0.09411 0.79617 0.0
C625 C 0.50221 0.10227 0.82042 0.0
C626 C 0.51667 0.09706 0.7506 0.0
C627 C 0.50605 0.10806 0.72807 0.0
C628 C 0.49395 0.11669 0.75259 0.0
C629 C 0.49214 0.11394 0.79836 0.0
C630 C 0.49325 0.10706 0.60656 0.0
C631 C 0.50869 0.10781 0.58477 0.0
C632 C 0.49233 0.10798 0.65302 0.0
C633 C 0.50685 0.10947 0.67876 0.0
C634 C 0.52221 0.11095 0.65691 0.0
C635 C 0.52311 0.11026 0.61044 0.0
H636 H 0.64977 0.76289 0.57883 0.0
H637 H 0.66535 0.71531 0.52816 0.0
H638 H 0.64468 0.77246 0.50286 0.0
H639 H 0.6592 0.72423 0.45291 0.0
H640 H 0.66695 0.75038 0.32177 0.0
H641 H 0.66963 0.74027 0.39718 0.0
H642 H 0.62894 0.77185 0.43817 0.0
H643 H 0.62707 0.78278 0.36255 0.0
C644 C 0.65186 0.75442 0.55141 0.0
C645 C 0.65819 0.73847 0.55926 0.0
C646 C 0.64882 0.75982 0.50779 0.0
C647 C 0.65168 0.74923 0.47119 0.0
C648 C 0.65734 0.73301 0.47971 0.0
C649 C 0.66077 0.72781 0.52302 0.0
C650 C 0.65842 0.75503 0.34672 0.0
C651 C 0.64677 0.76737 0.33612 0.0
C652 C 0.65989 0.74915 0.39023 0.0
C653 C 0.64949 0.75515 0.42434 0.0
C654 C 0.63742 0.76712 0.41326 0.0
C655 C 0.63619 0.77328 0.36976 0.0
H656 H 0.00839 0.0747 0.42188 0.0
H657 H 0.98627 0.12321 0.43745 0.0
H658 H 0.01193 0.07977 0.34277 0.0
H659 H 0.99007 0.12833 0.35749 0.0
H660 H 0.02143 0.1334 0.22176 0.0
H661 H 0.01472 0.13107 0.30095 0.0
H662 H 0.99207 0.08336 0.27701 0.0
H663 H 0.99861 0.08565 0.19804 0.0
C664 C 0.00439 0.08653 0.40854 0.0
C665 C 0.99702 0.09855 0.43612 0.0
C666 C 0.0063 0.08935 0.36304 0.0
C667 C 1.00109 0.10435 0.34386 0.0
C668 C 0.99416 0.11664 0.37144 0.0
C669 C 0.99201 0.1137 0.41714 0.0
C670 C 0.01474 0.12255 0.23324 0.0
C671 C 0.0107 0.10964 0.20356 0.0
C672 C 0.01087 0.12126 0.27858 0.0
C673 C 0.00308 0.10694 0.29519 0.0
C674 C 0.99829 0.09444 0.26519 0.0
C675 C 0.00196 0.09581 0.21987 0.0
H676 H 0.63983 0.25598 0.18282 0.0
H677 H 0.66809 0.21218 0.14887 0.0
H678 H 0.64082 0.26482 0.1046 0.0
H679 H 0.66917 0.2211 0.07171 0.0
H680 H 0.68883 0.2568 0.96228 0.0
H681 H 0.68425 0.24643 0.03743 0.0
H682 H 0.63154 0.2546 0.02309 0.0
H683 H 0.63609 0.26483 0.94695 0.0
C684 C 0.64608 0.24818 0.15874 0.0
C685 C 0.65398 0.23344 0.17222 0.0
C686 C 0.64658 0.2532 0.11402 0.0
C687 C 0.65517 0.24368 0.08226 0.0
C688 C 0.66259 0.22874 0.09556 0.0
C689 C 0.66192 0.22364 0.13986 0.0
C690 C 0.67623 0.25626 0.97491 0.0
C691 C 0.66281 0.26157 0.94865 0.0
C692 C 0.67362 0.25029 0.01791 0.0
C693 C 0.65755 0.24973 0.03605 0.0
C694 C 0.64406 0.25499 1.0099 0.0
C695 C 0.64665 0.26069 0.96632 0.0
H696 H 0.53237 0.90791 0.69559 0.0
H697 H 0.48101 0.89482 0.71809 0.0
H698 H 0.5381 0.90424 0.77456 0.0
H699 H 0.48682 0.89068 0.79689 0.0
H700 H 0.49981 0.90536 0.94241 0.0
H701 H 0.49292 0.90581 0.86325 0.0
H702 H 0.54083 0.88451 0.83263 0.0
H703 H 0.54783 0.88456 0.91138 0.0
C704 C 0.52233 0.90405 0.71726 0.0
C705 C 0.50622 0.90172 0.70035 0.0
C706 C 0.52563 0.90184 0.76267 0.0
C707 C 0.51293 0.89713 0.79244 0.0
C708 C 0.49688 0.89454 0.77529 0.0
C709 C 0.49356 0.89682 0.72992 0.0
C710 C 0.50873 0.90049 0.91882 0.0
C711 C 0.52441 0.89501 0.93326 0.0
C712 C 0.5048 0.90074 0.8733 0.0
C713 C 0.51641 0.89542 0.84119 0.0
C714 C 0.53172 0.88911 0.85608 0.0
C715 C 0.53569 0.88898 0.9014 0.0
H716 H 0.83342 0.79558 0.64948 0.0
H717 H 0.86496 0.75405 0.6832 0.0
H718 H 0.83364 0.78708 0.5719 0.0
H719 H 0.86525 0.74562 0.60465 0.0
H720 H 0.87019 0.74555 0.44763 0.0
H721 H 0.87386 0.75636 0.52358 0.0
H722 H 0.82067 0.76092 0.53692 0.0
H723 H 0.81699 0.74999 0.46203 0.0
C724 C 0.84059 0.78474 0.64034 0.0
C725 C 0.84904 0.77539 0.67275 0.0
C726 C 0.84068 0.77987 0.5958 0.0
C727 C 0.84935 0.76564 0.58234 0.0
C728 C 0.85852 0.7567 0.61417 0.0
C729 C 0.85829 0.76148 0.65909 0.0
C730 C 0.85933 0.74905 0.46673 0.0
C731 C 0.8433 0.74696 0.44892 0.0
C732 C 0.86143 0.75509 0.5102 0.0
C733 C 0.84755 0.75949 0.53603 0.0
C734 C 0.83159 0.75776 0.51766 0.0
C735 C 0.82949 0.75146 0.4748 0.0
H736 H 0.50578 0.61001 0.19164 0.0
H737 H 0.46131 0.59019 0.25215 0.0
H738 H 0.51766 0.61456 0.26564 0.0
H739 H 0.47322 0.59433 0.3254 0.0
H740 H 0.493 0.61317 0.45482 0.0
H741 H 0.48149 0.61455 0.37972 0.0
H742 H 0.52843 0.598 0.32599 0.0
H743 H 0.54001 0.59707 0.40062 0.0
C744 C 0.49853 0.60667 0.22064 0.0
C745 C 0.48263 0.59966 0.21591 0.0
C746 C 0.50535 0.60922 0.26305 0.0
C747 C 0.4964 0.60483 0.3016 0.0
C748 C 0.48038 0.59813 0.29665 0.0
C749 C 0.4736 0.5956 0.25445 0.0
C750 C 0.50093 0.61008 0.42691 0.0
C751 C 0.51738 0.60486 0.43383 0.0
C752 C 0.49431 0.61076 0.38385 0.0
C753 C 0.50397 0.6062 0.34674 0.0
C754 C 0.52065 0.60174 0.35361 0.0
C755 C 0.52727 0.6011 0.39658 0.0
H756 H 0.64513 0.26688 0.43064 0.0
H757 H 0.65514 0.2194 0.49173 0.0
H758 H 0.64248 0.2794 0.50455 0.0
H759 H 0.65287 0.23186 0.56487 0.0
H760 H 0.6379 0.25523 0.69375 0.0
H761 H 0.63446 0.2442 0.61859 0.0
H762 H 0.66089 0.28645 0.56541 0.0
H763 H 0.66395 0.29762 0.64006 0.0
C764 C 0.64667 0.2591 0.45974 0.0
C765 C 0.65045 0.24216 0.45521 0.0
C766 C 0.64522 0.26627 0.50209 0.0
C767 C 0.64747 0.25665 0.54077 0.0
C768 C 0.65079 0.23963 0.536 0.0
C769 C 0.65225 0.2325 0.49387 0.0
C770 C 0.64275 0.26228 0.66594 0.0
C771 C 0.65134 0.27723 0.67302 0.0
C772 C 0.64087 0.25591 0.62285 0.0
C773 C 0.64753 0.26436 0.58588 0.0
C774 C 0.65545 0.27968 0.59291 0.0
C775 C 0.65732 0.28603 0.6359 0.0
H776 H 0.99143 0.39407 0.67613 0.0
H777 H 0.03686 0.41147 0.73697 0.0
H778 H 0.97938 0.38984 0.75002 0.0
H779 H 0.02478 0.40766 0.81018 0.0
H780 H 0.00421 0.38882 0.93891 0.0
H781 H 0.01563 0.38753 0.86372 0.0
H782 H 0.96945 0.40652 0.81107 0.0
H783 H 0.95793 0.40737 0.88576 0.0
C784 C 0.99885 0.39697 0.70519 0.0
C785 C 0.01508 0.40317 0.70058 0.0
C786 C 0.99194 0.3946 0.74754 0.0
C787 C 1.00112 0.39838 0.78616 0.0
C788 C 0.01743 0.40433 0.78134 0.0
C789 C 0.02432 0.40667 0.73918 0.0
C790 C 0.99642 0.39246 0.9112 0.0
C791 C 0.9802 0.39833 0.91844 0.0
C792 C 0.003 0.39184 0.8681 0.0
C793 C 0.99353 0.39709 0.83128 0.0
C794 C 0.97706 0.40223 0.83845 0.0
C795 C 0.97049 0.40282 0.88146 0.0
H796 H 0.86857 0.75237 0.19269 0.0
H797 H 0.8422 0.70963 0.14211 0.0
H798 H 0.87132 0.76303 0.11692 0.0
H799 H 0.8446 0.72043 0.06691 0.0
H800 H 0.85837 0.73969 0.93045 0.0
H801 H 0.86232 0.72746 1.00433 0.0
H802 H 0.85202 0.77501 0.06467 0.0
H803 H 0.84843 0.78719 0.99158 0.0
C804 C 0.86353 0.74516 0.16543 0.0
C805 C 0.85502 0.73024 0.17356 0.0
C806 C 0.86502 0.75131 0.12201 0.0
C807 C 0.85804 0.74267 0.08578 0.0
C808 C 0.85026 0.72735 0.09382 0.0
C809 C 0.84878 0.72122 0.13713 0.0
C810 C 0.85715 0.74754 0.95954 0.0
C811 C 0.85296 0.76438 0.95508 0.0
C812 C 0.85935 0.74053 1.00187 0.0
C813 C 0.85747 0.75024 0.04054 0.0
C814 C 0.85381 0.76719 0.03577 0.0
C815 C 0.85158 0.77414 0.99369 0.0
H816 H 0.48778 0.42091 0.09496 0.0
H817 H 0.52541 0.38275 0.08863 0.0
H818 H 0.48526 0.41666 0.17472 0.0
H819 H 0.52273 0.37844 0.16918 0.0
H820 H 0.49653 0.36703 0.3089 0.0
H821 H 0.50114 0.36901 0.22845 0.0
H822 H 0.50457 0.42229 0.23949 0.0
H823 H 0.50011 0.42039 0.31941 0.0
C824 C 0.49543 0.41149 0.11045 0.0
C825 C 0.50688 0.40224 0.08528 0.0
C826 C 0.49405 0.40914 0.15632 0.0
C827 C 0.50397 0.39739 0.17833 0.0
C828 C 0.51494 0.3876 0.15308 0.0
C829 C 0.51646 0.39007 0.107 0.0
C830 C 0.49852 0.37914 0.29424 0.0
C831 C 0.49782 0.39355 0.32066 0.0
C832 C 0.50118 0.38026 0.24819 0.0
C833 C 0.50296 0.39582 0.2276 0.0
C834 C 0.50296 0.41014 0.2543 0.0
C835 C 0.50051 0.40902 0.30022 0.0
H836 H 0.84879 0.29166 0.37584 0.0
H837 H 0.86337 0.24399 0.32294 0.0
H838 H 0.85018 0.28058 0.45095 0.0
H839 H 0.86522 0.23299 0.39848 0.0
H840 H 0.84059 0.21428 0.52719 0.0
H841 H 0.84497 0.22563 0.45355 0.0
H842 H 0.86676 0.26966 0.51134 0.0
H843 H 0.86198 0.25833 0.58591 0.0
C844 C 0.8526 0.27887 0.38025 0.0
C845 C 0.85576 0.26865 0.34327 0.0
C846 C 0.85351 0.27255 0.42349 0.0
C847 C 0.85764 0.25584 0.43088 0.0
C848 C 0.86168 0.24585 0.39397 0.0
C849 C 0.86073 0.25217 0.35065 0.0
C850 C 0.84641 0.22635 0.52441 0.0
C851 C 0.85081 0.23545 0.56258 0.0
C852 C 0.84908 0.23281 0.48196 0.0
C853 C 0.85628 0.24855 0.47633 0.0
C854 C 0.86105 0.25755 0.51448 0.0
C855 C 0.85837 0.25104 0.5572 0.0
H856 H 0.00891 0.61742 0.81953 0.0
H857 H 0.00233 0.56455 0.80407 0.0
H858 H 0.99826 0.62171 0.74366 0.0
H859 H 0.99159 0.56884 0.72924 0.0
H860 H 0.95787 0.58281 0.61622 0.0
H861 H 0.96614 0.58262 0.69397 0.0
H862 H 0.00859 0.61319 0.66274 0.0
H863 H 1.00037 0.61335 0.58403 0.0
C864 C 0.00497 0.60678 0.80022 0.0
C865 C 0.00642 0.59065 0.81771 0.0
C866 C 0.99902 0.60922 0.75679 0.0
C867 C 0.99408 0.59561 0.73066 0.0
C868 C 0.99516 0.57958 0.74873 0.0
C869 C 1.00136 0.57712 0.79156 0.0
C870 C 0.96889 0.58967 0.62574 0.0
C871 C 0.97857 0.59794 0.59369 0.0
C872 C 0.97361 0.58953 0.67038 0.0
C873 C 0.98807 0.59776 0.68431 0.0
C874 C 0.99734 0.60679 0.65287 0.0
C875 C 0.99267 0.60682 0.60784 0.0
H876 H 0.68286 0.77604 0.02844 0.0
H877 H 0.63941 0.75086 0.07931 0.0
H878 H 0.67612 0.76674 0.95367 0.0
H879 H 0.6326 0.74158 1.00385 0.0
H880 H 0.64202 0.71145 0.87201 0.0
H881 H 0.64439 0.72233 0.94742 0.0
H882 H 0.65522 0.77097 0.89455 0.0
H883 H 0.65304 0.76006 0.81896 0.0
C884 C 0.67183 0.76853 0.0237 0.0
C885 C 0.6617 0.76415 0.05996 0.0
C886 C 0.66788 0.76334 0.98067 0.0
C887 C 0.65375 0.75354 0.97273 0.0
C888 C 0.64361 0.74908 1.00895 0.0
C889 C 0.6475 0.75441 0.05212 0.0
C890 C 0.64465 0.72453 0.87641 0.0
C891 C 0.64749 0.73485 0.83944 0.0
C892 C 0.64593 0.73077 0.91969 0.0
C893 C 0.65018 0.74746 0.92698 0.0
C894 C 0.65218 0.75798 0.88999 0.0
C895 C 0.6508 0.75176 0.84668 0.0
H896 H 0.50011 0.41808 0.82404 0.0
H897 H 0.52465 0.3711 0.80231 0.0
H898 H 0.49456 0.42024 0.74446 0.0
H899 H 0.51897 0.3733 0.72254 0.0
H900 H 0.49181 0.37989 0.58399 0.0
H901 H 0.49531 0.37496 0.66409 0.0
H902 H 0.51446 0.42464 0.67991 0.0
H903 H 0.51118 0.42953 0.60063 0.0
C904 C 0.50406 0.40806 0.80248 0.0
C905 C 0.51295 0.39447 0.8196 0.0
C906 C 0.50098 0.40937 0.75681 0.0
C907 C 0.50653 0.39705 0.72721 0.0
C908 C 0.51454 0.38298 0.74454 0.0
C909 C 0.51781 0.38175 0.79024 0.0
C910 C 0.49692 0.38968 0.60455 0.0
C911 C 0.50117 0.40512 0.58581 0.0
C912 C 0.4989 0.38686 0.65036 0.0
C913 C 0.50492 0.39951 0.67834 0.0
C914 C 0.5095 0.41476 0.65937 0.0
C915 C 0.50774 0.4175 0.61375 0.0
H916 H 0.33496 0.70609 0.36961 0.0
H917 H 0.35873 0.75247 0.33551 0.0
H918 H 0.33543 0.71375 0.44777 0.0
H919 H 0.35908 0.76021 0.41444 0.0
H920 H 0.36656 0.76231 0.56804 0.0
H921 H 0.37031 0.75275 0.49115 0.0
H922 H 0.31972 0.73489 0.48978 0.0
H923 H 0.316 0.74431 0.56595 0.0
C924 C 0.34043 0.71789 0.37878 0.0
C925 C 0.34664 0.72875 0.34615 0.0
C926 C 0.34064 0.72229 0.42367 0.0
C927 C 0.34709 0.73767 0.43727 0.0
C928 C 0.35408 0.74824 0.405 0.0
C929 C 0.35383 0.74383 0.3598 0.0
C930 C 0.35633 0.75616 0.5514 0.0
C931 C 0.34098 0.75404 0.57313 0.0
C932 C 0.35844 0.75081 0.50731 0.0
C933 C 0.34533 0.74303 0.48442 0.0
C934 C 0.33014 0.74064 0.50661 0.0
C935 C 0.32798 0.74612 0.55028 0.0
H936 H 0.00275 0.61654 0.07305 0.0
H937 H 0.04384 0.58796 0.12471 0.0
H938 H 0.99227 0.62035 0.14866 0.0
H939 H 0.0332 0.5914 0.19979 0.0
H940 H 0.01489 0.60675 0.33568 0.0
H941 H 0.02732 0.60976 0.26169 0.0
H942 H 0.97909 0.6023 0.20174 0.0
H943 H 0.96675 0.59968 0.27494 0.0
C944 C 0.00963 0.61121 0.10051 0.0
C945 C 0.02403 0.6018 0.09272 0.0
C946 C 0.00359 0.61332 0.14386 0.0
C947 C 0.0118 0.60605 0.18038 0.0
C948 C 0.02663 0.59732 0.17265 0.0
C949 C 0.03266 0.59523 0.12941 0.0
C950 C 0.00695 0.606 0.30666 0.0
C951 C 0.98986 0.60284 0.31126 0.0
C952 C 0.01407 0.60763 0.26426 0.0
C953 C 0.00422 0.60623 0.22565 0.0
C954 C 0.98705 0.60369 0.23056 0.0
C955 C 0.97998 0.60203 0.27272 0.0
H956 H 0.16093 0.29157 0.88057 0.0
H957 H 0.14002 0.24606 0.82914 0.0
H958 H 0.15933 0.28059 0.95575 0.0
H959 H 0.13803 0.23518 0.90482 0.0
H960 H 0.16131 0.21378 0.03273 0.0
H961 H 0.1578 0.22546 0.95899 0.0
H962 H 0.14186 0.27184 0.01703 0.0
H963 H 0.14575 0.26016 0.09152 0.0
C964 C 0.15573 0.2793 0.88534 0.0
C965 C 0.15077 0.26963 0.84871 0.0
C966 C 0.1547 0.27305 0.92863 0.0
C967 C 0.14866 0.25695 0.93644 0.0
C968 C 0.143 0.24754 0.89995 0.0
C969 C 0.14404 0.2538 0.85656 0.0
C970 C 0.15696 0.22646 0.02996 0.0
C971 C 0.15393 0.23608 0.06815 0.0
C972 C 0.15479 0.23311 0.98749 0.0
C973 C 0.14951 0.24959 0.98191 0.0
C974 C 0.1461 0.25915 0.02011 0.0
C975 C 0.14827 0.25245 0.0628 0.0
H976 H 0.48748 0.60665 0.69136 0.0
H977 H 0.53426 0.59316 0.75185 0.0
H978 H 0.47522 0.60997 0.76535 0.0
H979 H 0.52202 0.59616 0.82522 0.0
H980 H 0.4996 0.61337 0.95399 0.0
H981 H 0.5109 0.61576 0.87877 0.0
H982 H 0.46709 0.59177 0.82615 0.0
H983 H 0.4557 0.5897 0.90085 0.0
C984 C 0.49516 0.60447 0.72036 0.0
C985 C 0.51181 0.59954 0.71564 0.0
C986 C 0.48813 0.60631 0.76275 0.0
C987 C 0.49763 0.60333 0.8013 0.0
C988 C 0.51439 0.5988 0.7964 0.0
C989 C 0.52137 0.59693 0.75418 0.0
C990 C 0.49229 0.60884 0.92628 0.0
C991 C 0.47682 0.60122 0.93351 0.0
C992 C 0.4988 0.61011 0.88319 0.0
C993 C 0.48996 0.60383 0.8464 0.0
C994 C 0.47417 0.59689 0.85356 0.0
C995 C 0.46769 0.59559 0.89654 0.0
H996 H 0.13376 0.75518 0.44654 0.0
H997 H 0.18716 0.75565 0.46087 0.0
H998 H 0.13113 0.74412 0.52248 0.0
H999 H 0.18452 0.74453 0.53582 0.0
H1000 H 0.17495 0.70807 0.6469 0.0
H1001 H 0.1743 0.71726 0.56993 0.0
H1002 H 0.13837 0.7549 0.60383 0.0
H1003 H 0.13905 0.74576 0.68179 0.0
C1004 C 0.14491 0.75276 0.46567 0.0
C1005 C 0.16068 0.75624 0.44773 0.0
C1006 C 0.14339 0.74657 0.50914 0.0
C1007 C 0.15762 0.74344 0.53494 0.0
C1008 C 0.17334 0.74668 0.51659 0.0
C1009 C 0.17484 0.7531 0.47368 0.0
C1010 C 0.16676 0.71822 0.63814 0.0
C1011 C 0.15716 0.72629 0.67071 0.0
C1012 C 0.16644 0.72349 0.59395 0.0
C1013 C 0.1564 0.73687 0.58098 0.0
C1014 C 0.14619 0.74451 0.61295 0.0
C1015 C 0.14664 0.73933 0.65754 0.0
H1016 H 0.0092 0.39247 0.17712 0.0
H1017 H 0.96665 0.41694 0.23512 0.0
H1018 H 0.02071 0.38812 0.25161 0.0
H1019 H 0.97821 0.41291 0.30887 0.0
H1020 H 0.99581 0.3929 0.43962 0.0
H1021 H 0.98445 0.39217 0.36432 0.0
H1022 H 0.03276 0.40456 0.31119 0.0
H1023 H 0.04417 0.40491 0.38612 0.0
C1024 C 0.00231 0.39691 0.20567 0.0
C1025 C 0.98704 0.4051 0.2001 0.0
C1026 C 0.00891 0.39446 0.24835 0.0
C1027 C 1.00035 0.40011 0.28631 0.0
C1028 C 0.98501 0.40812 0.28056 0.0
C1029 C 0.97844 0.41058 0.23809 0.0
C1030 C 0.00405 0.39522 0.41183 0.0
C1031 C 0.02086 0.3991 0.41898 0.0
C1032 C 0.99752 0.39492 0.36866 0.0
C1033 C 0.00765 0.39849 0.33167 0.0
C1034 C 0.02462 0.40162 0.33878 0.0
C1035 C 0.03114 0.40192 0.38188 0.0
H1036 H 0.36467 0.24885 0.20055 0.0
H1037 H 0.34769 0.29577 0.14806 0.0
H1038 H 0.36628 0.23778 0.12504 0.0
H1039 H 0.34888 0.28461 0.07297 0.0
H1040 H 0.36114 0.26258 0.93761 0.0
H1041 H 0.36564 0.27428 0.01191 0.0
H1042 H 0.34594 0.22951 0.07085 0.0
H1043 H 0.34181 0.2178 0.99745 0.0
C1044 C 0.36146 0.25686 0.17293 0.0
C1045 C 0.35591 0.27314 0.18046 0.0
C1046 C 0.36227 0.25049 0.12963 0.0
C1047 C 0.35753 0.26024 0.09285 0.0
C1048 C 0.35277 0.27677 0.10032 0.0
C1049 C 0.35198 0.28314 0.14355 0.0
C1050 C 0.35792 0.25522 0.96651 0.0
C1051 C 0.35104 0.23929 0.9615 0.0
C1052 C 0.36044 0.26193 1.00908 0.0
C1053 C 0.35619 0.25283 0.04748 0.0
C1054 C 0.34964 0.23679 0.04223 0.0
C1055 C 0.34711 0.23013 0.99992 0.0
H1056 H 0.98231 0.04872 0.02425 0.0
H1057 H 0.03378 0.03547 0.04442 0.0
H1058 H 0.97625 0.02056 1.00014 0.0
H1059 H 0.02761 0.00708 0.02098 0.0
H1060 H 0.01431 0.9636 0.92985 0.0
H1061 H 0.02007 0.9919 0.95369 0.0
H1062 H 0.97423 0.99242 0.02842 0.0
H1063 H 0.9683 0.96416 1.00394 0.0
C1064 C 0.99233 0.03977 0.02384 0.0
C1065 C 0.00855 0.04437 0.03623 0.0
C1066 C 0.98882 0.02358 1.01021 0.0
C1067 C 1.00143 0.01156 1.00857 0.0
C1068 C 0.01764 0.01611 0.02131 0.0
C1069 C 0.02116 0.03234 0.03503 0.0
C1070 C 0.00539 0.96977 0.95114 0.0
C1071 C 0.99083 0.9616 0.96496 0.0
C1072 C 0.00878 0.98596 0.96512 0.0
C1073 C 0.99769 0.99439 0.99324 0.0
C1074 C 0.98298 0.98633 1.00645 0.0
C1075 C 0.97959 0.97012 0.99247 0.0
H1076 H 0.2118 0.7872 0.27509 0.0
H1077 H 0.20508 0.73434 0.29087 0.0
H1078 H 0.2409 0.78262 0.25538 0.0
H1079 H 0.2341 0.72981 0.27261 0.0
H1080 H 0.28243 0.72508 0.19685 0.0
H1081 H 0.25317 0.73064 0.21194 0.0
H1082 H 0.26692 0.77429 0.28699 0.0
H1083 H 0.29604 0.76902 0.27076 0.0
C1084 C 0.21656 0.77463 0.27466 0.0
C1085 C 0.20611 0.76115 0.28445 0.0
C1086 C 0.23325 0.772 0.26352 0.0
C1087 C 0.23986 0.75582 0.26216 0.0
C1088 C 0.22939 0.7424 0.27238 0.0
C1089 C 0.21274 0.74502 0.28324 0.0
C1090 C 0.27918 0.73589 0.21639 0.0
C1091 C 0.29157 0.74657 0.23265 0.0
C1092 C 0.26241 0.73905 0.22528 0.0
C1093 C 0.25765 0.75289 0.25089 0.0
C1094 C 0.27007 0.76365 0.26666 0.0
C1095 C 0.28681 0.76055 0.25757 0.0
H1096 H 0.53423 0.03805 0.49918 0.0
H1097 H 0.48266 0.04614 0.46563 0.0
H1098 H 0.52715 0.01074 0.52887 0.0
H1099 H 0.47554 0.01916 0.49631 0.0
H1100 H 0.47154 0.96283 0.51372 0.0
H1101 H 0.47831 0.99002 0.4833 0.0
H1102 H 0.51293 0.99823 0.59099 0.0
H1103 H 0.50648 0.97085 0.62076 0.0
C1104 C 0.5214 0.034 0.49807 0.0
C1105 C 0.50903 0.04428 0.47997 0.0
C1106 C 0.5173 0.01841 0.51545 0.0
C1107 C 0.50074 0.01276 0.51524 0.0
C1108 C 0.48844 0.02299 0.49659 0.0
C1109 C 0.49254 0.03852 0.47912 0.0
C1110 C 0.48046 0.9705 0.5312 0.0
C1111 C 0.48847 0.96464 0.56968 0.0
C1112 C 0.48435 0.98612 0.51376 0.0
C1113 C 0.49627 0.9963 0.53448 0.0
C1114 C 0.50394 0.9906 0.57365 0.0
C1115 C 0.50011 0.97495 0.59099 0.0
H1116 H 0.29474 0.27116 0.81733 0.0
H1117 H 0.28784 0.21897 0.79007 0.0
H1118 H 0.26583 0.2764 0.79807 0.0
H1119 H 0.25905 0.22427 0.76946 0.0
H1120 H 0.20419 0.23646 0.77934 0.0
H1121 H 0.23288 0.23163 0.80043 0.0
H1122 H 0.24728 0.27731 0.73561 0.0
H1123 H 0.21828 0.28241 0.71562 0.0
C1124 C 0.28705 0.2608 0.80716 0.0
C1125 C 0.29359 0.24463 0.80535 0.0
C1126 C 0.2705 0.26383 0.79575 0.0
C1127 C 0.26008 0.25079 0.78202 0.0
C1128 C 0.26662 0.2346 0.78049 0.0
C1129 C 0.28316 0.23155 0.79218 0.0
C1130 C 0.21345 0.2455 0.7695 0.0
C1131 C 0.20894 0.25982 0.74568 0.0
C1132 C 0.22996 0.24267 0.78142 0.0
C1133 C 0.24246 0.25402 0.76957 0.0
C1134 C 0.23795 0.26839 0.74578 0.0
C1135 C 0.22136 0.27129 0.73407 0.0
H1136 H 0.9837 0.95965 0.44998 0.0
H1137 H 0.03394 0.9638 0.49942 0.0
H1138 H 0.9773 0.98688 0.47956 0.0
H1139 H 0.02773 0.99153 0.52756 0.0
H1140 H 0.00637 0.03276 0.61427 0.0
H1141 H 0.01274 0.00533 0.58461 0.0
H1142 H 0.9817 0.01543 0.47036 0.0
H1143 H 0.97483 0.04248 0.50096 0.0
C1144 C 0.9935 0.9665 0.46655 0.0
C1145 C 0.00935 0.95951 0.47234 0.0
C1146 C 0.98982 0.98221 0.48341 0.0
C1147 C 0.00196 0.99149 0.50612 0.0
C1148 C 0.01796 0.98465 0.511 0.0
C1149 C 0.0216 0.96881 0.49448 0.0
C1150 C 1.00079 0.02903 0.58303 0.0
C1151 C 0.99001 0.03976 0.56013 0.0
C1152 C 0.00458 0.01336 0.56574 0.0
C1153 C 0.99782 0.00812 0.52488 0.0
C1154 C 0.98694 0.01887 0.50222 0.0
C1155 C 0.98301 0.03444 0.51975 0.0
H1156 H 0.20803 0.76959 0.80799 0.0
H1157 H 0.2179 0.71739 0.78888 0.0
H1158 H 0.23696 0.77596 0.79149 0.0
H1159 H 0.24676 0.72379 0.77112 0.0
H1160 H 0.30077 0.73913 0.78537 0.0
H1161 H 0.27203 0.73323 0.80433 0.0
H1162 H 0.25636 0.77653 0.73065 0.0
H1163 H 0.28531 0.78272 0.71266 0.0
C1164 C 0.21637 0.75946 0.80021 0.0
C1165 C 0.21066 0.74297 0.79983 0.0
C1166 C 0.23295 0.76314 0.79039 0.0
C1167 C 0.24421 0.75042 0.77977 0.0
C1168 C 0.2385 0.73389 0.77973 0.0
C1169 C 0.22193 0.73021 0.78976 0.0
C1170 C 0.29121 0.74743 0.7732 0.0
C1171 C 0.29534 0.76139 0.74741 0.0
C1172 C 0.27469 0.74397 0.78387 0.0
C1173 C 0.26183 0.75434 0.76885 0.0
C1174 C 0.26596 0.76839 0.74324 0.0
C1175 C 0.28255 0.7719 0.73272 0.0
H1176 H 0.53333 0.97111 0.06855 0.0
H1177 H 0.49821 0.95685 0.96681 0.0
H1178 H 0.52758 1.0003 0.05322 0.0
H1179 H 0.49292 0.98588 0.95029 0.0
H1180 H 0.47295 0.03838 0.96661 0.0
H1181 H 0.47937 0.0093 0.98062 0.0
H1182 H 0.531 0.02208 1.00093 0.0
H1183 H 0.52442 0.05118 0.98861 0.0
C1184 C 0.52456 0.97422 0.04252 0.0
C1185 C 0.51615 0.96168 0.01911 0.0
C1186 C 0.52129 0.99095 0.03356 0.0
C1187 C 0.50967 0.9955 1.00066 0.0
C1188 C 0.50164 0.98289 0.97652 0.0
C1189 C 0.50477 0.96621 0.98579 0.0
C1190 C 0.48567 0.03496 0.97395 0.0
C1191 C 0.49815 0.04709 0.97659 0.0
C1192 C 0.4894 0.01826 0.98177 0.0
C1193 C 0.50574 0.01328 0.99194 0.0
C1194 C 0.51824 0.02545 0.99399 0.0
C1195 C 0.51448 0.04215 0.9866 0.0
H1196 H 0.20907 0.27014 0.21585 0.0
H1197 H 0.21766 0.2181 0.24151 0.0
H1198 H 0.23796 0.27619 0.23344 0.0
H1199 H 0.2465 0.22421 0.26036 0.0
H1200 H 0.30097 0.23834 0.24583 0.0
H1201 H 0.27218 0.23255 0.22729 0.0
H1202 H 0.25709 0.27745 0.29471 0.0
H1203 H 0.28612 0.2835 0.31227 0.0
C1204 C 0.21712 0.25997 0.22537 0.0
C1205 C 0.21105 0.24362 0.22718 0.0
C1206 C 0.23368 0.26348 0.23581 0.0
C1207 C 0.24459 0.25072 0.24851 0.0
C1208 C 0.23852 0.23433 0.25014 0.0
C1209 C 0.22196 0.23082 0.23949 0.0
C1210 C 0.29154 0.24701 0.25675 0.0
C1211 C 0.29587 0.2614 0.28058 0.0
C1212 C 0.27497 0.24361 0.24633 0.0
C1213 C 0.26225 0.25447 0.25964 0.0
C1214 C 0.26658 0.2689 0.28343 0.0
C1215 C 0.28321 0.27235 0.29371 0.0
H1216 H 0.78424 0.2222 0.69787 0.0
H1217 H 0.80023 0.26528 0.77196 0.0
H1218 H 0.75532 0.2292 0.71371 0.0
H1219 H 0.77152 0.27195 0.789 0.0
H1220 H 0.71771 0.28849 0.77715 0.0
H1221 H 0.74636 0.28191 0.75738 0.0
H1222 H 0.73582 0.22965 0.77341 0.0
H1223 H 0.70714 0.23621 0.79164 0.0
C1224 C 0.78159 0.23311 0.71766 0.0
C1225 C 0.79454 0.24318 0.73357 0.0
C1226 C 0.76501 0.23709 0.72698 0.0
C1227 C 0.76104 0.25116 0.75269 0.0
C1228 C 0.77405 0.2612 0.76848 0.0
C1229 C 0.79056 0.2573 0.75891 0.0
C1230 C 0.72154 0.27561 0.77647 0.0
C1231 C 0.71014 0.26289 0.78597 0.0
C1232 C 0.73798 0.27182 0.7653 0.0
C1233 C 0.74345 0.25523 0.76371 0.0
C1234 C 0.73202 0.24254 0.77347 0.0
C1235 C 0.71557 0.24632 0.7843 0.0
H1236 H 0.70732 0.73781 0.25667 0.0
H1237 H 0.72166 0.78546 0.20316 0.0
H1238 H 0.73595 0.73219 0.27658 0.0
H1239 H 0.75064 0.77955 0.22158 0.0
H1240 H 0.79779 0.77109 0.30314 0.0
H1241 H 0.76914 0.77698 0.28276 0.0
H1242 H 0.76215 0.72551 0.24671 0.0
H1243 H 0.79066 0.71953 0.26884 0.0
C1244 C 0.71664 0.74704 0.24867 0.0
C1245 C 0.71221 0.76209 0.22827 0.0
C1246 C 0.73313 0.74375 0.25988 0.0
C1247 C 0.7457 0.75535 0.25056 0.0
C1248 C 0.74128 0.77041 0.22986 0.0
C1249 C 0.72468 0.77378 0.21902 0.0
C1250 C 0.79012 0.76101 0.29099 0.0
C1251 C 0.79647 0.74482 0.28778 0.0
C1252 C 0.7737 0.76443 0.27892 0.0
C1253 C 0.76327 0.75176 0.26293 0.0
C1254 C 0.7697 0.73555 0.25958 0.0
C1255 C 0.78608 0.7321 0.27211 0.0
H1256 H 0.70421 0.26708 0.25222 0.0
H1257 H 0.71645 0.22117 0.31877 0.0
H1258 H 0.73327 0.27145 0.23466 0.0
H1259 H 0.74586 0.22587 0.30259 0.0
H1260 H 0.79447 0.23077 0.22462 0.0
H1261 H 0.76545 0.22607 0.24336 0.0
H1262 H 0.75909 0.27865 0.26622 0.0
H1263 H 0.78802 0.28338 0.24575 0.0
C1264 C 0.71315 0.25797 0.26356 0.0
C1265 C 0.708 0.24377 0.28698 0.0
C1266 C 0.72989 0.26055 0.25371 0.0
C1267 C 0.74201 0.24909 0.26739 0.0
C1268 C 0.73686 0.23487 0.291 0.0
C1269 C 0.72002 0.2322 0.30053 0.0
C1270 C 0.78687 0.24134 0.23357 0.0
C1271 C 0.79353 0.25747 0.23349 0.0
C1272 C 0.77023 0.23862 0.24469 0.0
C1273 C 0.75985 0.25195 0.25642 0.0
C1274 C 0.7666 0.26809 0.25665 0.0
C1275 C 0.78321 0.27083 0.24508 0.0
H1276 H 0.70464 0.76621 0.76325 0.0
H1277 H 0.71885 0.71834 0.71103 0.0
H1278 H 0.73312 0.77146 0.78539 0.0
H1279 H 0.7477 0.72386 0.73193 0.0
H1280 H 0.79447 0.73217 0.81541 0.0
H1281 H 0.76578 0.72649 0.79463 0.0
H1282 H 0.75962 0.77779 0.75612 0.0
H1283 H 0.78814 0.78357 0.77839 0.0
C1284 C 0.7139 0.75684 0.75608 0.0
C1285 C 0.70946 0.74186 0.73523 0.0
C1286 C 0.7303 0.75991 0.7686 0.0
C1287 C 0.74281 0.74816 0.76028 0.0
C1288 C 0.73838 0.73313 0.73939 0.0
C1289 C 0.72186 0.72998 0.72713 0.0
C1290 C 0.78696 0.74227 0.80275 0.0
C1291 C 0.79358 0.75835 0.79873 0.0
C1292 C 0.77053 0.73897 0.79044 0.0
C1293 C 0.76033 0.75164 0.7735 0.0
C1294 C 0.76698 0.76776 0.76966 0.0
C1295 C 0.78338 0.77108 0.78232 0.0
H1296 H 0.47925 0.54709 0.54527 0.0
H1297 H 0.53204 0.5375 0.54074 0.0
H1298 H 0.47375 0.51916 0.51835 0.0
H1299 H 0.52649 0.50934 0.51455 0.0
H1300 H 0.51119 0.46783 0.41961 0.0
H1301 H 0.51619 0.49571 0.44772 0.0
H1302 H 0.47528 0.49015 0.53956 0.0
H1303 H 0.47008 0.46229 0.51086 0.0
C1304 C 0.4897 0.53897 0.53892 0.0
C1305 C 0.5061 0.54457 0.54501 0.0
C1306 C 0.48652 0.5229 0.52368 0.0
C1307 C 0.49966 0.51202 0.51408 0.0
C1308 C 0.51608 0.5175 0.52097 0.0
C1309 C 0.51926 0.5336 0.5363 0.0
C1310 C 0.50317 0.47257 0.44559 0.0
C1311 C 0.49022 0.46281 0.46296 0.0
C1312 C 0.50615 0.48852 0.462 0.0
C1313 C 0.49625 0.49512 0.49621 0.0
C1314 C 0.48307 0.48549 0.51297 0.0
C1315 C 0.48009 0.46951 0.49653 0.0
H1316 H 0.013 0.45298 0.98436 0.0
H1317 H 0.96941 0.46709 0.05915 0.0
H1318 H 0.01876 0.48195 0.96849 0.0
H1319 H 0.97549 0.49629 0.04447 0.0
H1320 H 0.9819 0.54557 0.97099 0.0
H1321 H 0.97574 0.51659 0.98661 0.0
H1322 H 0.02819 0.50678 1.0027 0.0
H1323 H 0.03437 0.5357 0.98555 0.0
C1324 C 0.00469 0.4623 0.99772 0.0
C1325 C 0.99075 0.45772 0.0231 0.0
C1326 C 0.00807 0.47896 0.98884 0.0
C1327 C 0.99767 0.49153 1.0054 0.0
C1328 C 0.98366 0.48694 0.03071 0.0
C1329 C 0.98021 0.47021 0.03933 0.0
C1330 C 0.99213 0.53722 0.9778 0.0
C1331 C 0.00864 0.54293 0.97688 0.0
C1332 C 0.98858 0.5206 0.98709 0.0
C1333 C 1.00144 0.50929 0.99601 0.0
C1334 C 0.01797 0.51506 0.9953 0.0
C1335 C 0.02153 0.53166 0.98566 0.0
H1336 H 0.53272 0.46556 1.0054 0.0
H1337 H 0.48636 0.46451 0.93287 0.0
H1338 H 0.52614 0.49332 0.03252 0.0
H1339 H 0.47996 0.49234 0.95929 0.0
H1340 H 0.46571 0.5351 0.0515 0.0
H1341 H 0.47239 0.50693 0.02727 0.0
H1342 H 0.52344 0.52158 1.00619 0.0
H1343 H 0.51688 0.5495 0.03116 0.0
C1344 C 0.5212 0.4713 0.9949 0.0
C1345 C 0.51008 0.46281 0.96694 0.0
C1346 C 0.51744 0.48724 1.01038 0.0
C1347 C 0.50247 0.49504 0.99825 0.0
C1348 C 0.49145 0.4866 0.9699 0.0
C1349 C 0.49521 0.47068 0.95442 0.0
C1350 C 0.47837 0.53226 0.04198 0.0
C1351 C 0.49075 0.54456 0.04327 0.0
C1352 C 0.48219 0.51615 0.02779 0.0
C1353 C 0.49845 0.512 0.01463 0.0
C1354 C 0.51084 0.52427 0.01657 0.0
C1355 C 0.50703 0.54033 0.03071 0.0
H1356 H 0.03748 0.46504 0.52306 0.0
H1357 H 0.98563 0.4596 0.55735 0.0
H1358 H 0.03239 0.4938 0.50137 0.0
H1359 H 0.98065 0.48834 0.53688 0.0
H1360 H 0.97331 0.53484 0.45386 0.0
H1361 H 0.97906 0.50593 0.47257 0.0
H1362 H 0.02575 0.52056 0.53181 0.0
H1363 H 0.02023 0.54928 0.51206 0.0
C1364 C 0.02504 0.47002 0.5264 0.0
C1365 C 0.01196 0.46002 0.54185 0.0
C1366 C 0.02212 0.48652 0.51407 0.0
C1367 C 0.00607 0.49338 0.51709 0.0
C1368 C 0.99308 0.4834 0.53323 0.0
C1369 C 0.99598 0.46693 0.54535 0.0
C1370 C 0.98483 0.53186 0.47066 0.0
C1371 C 0.99629 0.54437 0.48148 0.0
C1372 C 0.98809 0.5153 0.48167 0.0
C1373 C 0.00285 0.5109 0.5039 0.0
C1374 C 0.01437 0.52343 0.51421 0.0
C1375 C 0.01115 0.53995 0.50307 0.0
H1376 H 0.07364 0.10887 0.15281 0.0
H1377 H 0.08009 0.13693 0.03153 0.0
H1378 H 0.09516 0.12557 0.18868 0.0
H1379 H 0.10158 0.15357 0.06743 0.0
H1380 H 0.14637 0.17534 0.13696 0.0
H1381 H 0.13004 0.15311 0.10287 0.0
H1382 H 0.09502 0.15563 0.21147 0.0
H1383 H 0.11126 0.17782 0.24544 0.0
C1384 C 0.07987 0.11837 0.13351 0.0
C1385 C 0.07506 0.12167 0.08939 0.0
C1386 C 0.09213 0.12798 0.15416 0.0
C1387 C 0.09999 0.14093 0.13096 0.0
C1388 C 0.09585 0.14359 0.08608 0.0
C1389 C 0.08346 0.13411 0.06559 0.0
C1390 C 0.13538 0.17091 0.15401 0.0
C1391 C 0.13004 0.17841 0.19376 0.0
C1392 C 0.12598 0.15825 0.13433 0.0
C1393 C 0.11121 0.15268 0.15438 0.0
C1394 C 0.10641 0.15955 0.1954 0.0
C1395 C 0.11567 0.17233 0.21474 0.0
H1396 H 0.14839 0.83481 0.41781 0.0
H1397 H 0.1159 0.81609 0.31478 0.0
H1398 H 0.12644 0.85386 0.44215 0.0
H1399 H 0.09408 0.83486 0.3397 0.0
H1400 H 0.05492 0.84886 0.4471 0.0
H1401 H 0.07878 0.83359 0.41887 0.0
H1402 H 0.10672 0.87913 0.40889 0.0
H1403 H 0.08255 0.8947 0.43649 0.0
C1404 C 0.1367 0.83493 0.39994 0.0
C1405 C 0.13385 0.82382 0.36461 0.0
C1406 C 0.12419 0.84585 0.41382 0.0
C1407 C 0.10857 0.84565 0.39302 0.0
C1408 C 0.10599 0.83512 0.35647 0.0
C1409 C 0.11853 0.82443 0.34217 0.0
C1410 C 0.06614 0.85568 0.43918 0.0
C1411 C 0.06683 0.87301 0.44397 0.0
C1412 C 0.07975 0.84692 0.42275 0.0
C1413 C 0.09448 0.85523 0.41143 0.0
C1414 C 0.09545 0.87249 0.41738 0.0
C1415 C 0.08165 0.88135 0.43308 0.0
H1416 H 0.36322 0.82591 0.57712 0.0
H1417 H 0.37097 0.82914 0.71918 0.0
H1418 H 0.38474 0.84683 0.56541 0.0
H1419 H 0.39233 0.85012 0.70733 0.0
H1420 H 0.4458 0.86189 0.66075 0.0
H1421 H 0.42046 0.84647 0.67496 0.0
H1422 H 0.39441 0.87642 0.57842 0.0
H1423 H 0.42006 0.89205 0.56397 0.0
C1424 C 0.36924 0.83133 0.60591 0.0
C1425 C 0.36556 0.82564 0.64906 0.0
C1426 C 0.38152 0.84338 0.59915 0.0
C1427 C 0.39038 0.84993 0.63541 0.0
C1428 C 0.38589 0.84508 0.6787 0.0
C1429 C 0.3736 0.8331 0.68547 0.0
C1430 C 0.43469 0.8653 0.64262 0.0
C1431 C 0.43497 0.87815 0.61105 0.0
C1432 C 0.4201 0.85654 0.65112 0.0
C1433 C 0.4054 0.86029 0.62805 0.0
C1434 C 0.40557 0.87325 0.59665 0.0
C1435 C 0.42021 0.88221 0.58848 0.0
H1436 H 0.42794 0.10842 0.88053 0.0
H1437 H 0.42765 0.14163 0.99338 0.0
H1438 H 0.40542 0.12434 0.84653 0.0
H1439 H 0.40516 0.15744 0.95948 0.0
H1440 H 0.35895 0.17868 0.89803 0.0
H1441 H 0.37543 0.15681 0.93296 0.0
H1442 H 0.40576 0.1534 0.81486 0.0
H1443 H 0.38937 0.17524 0.77993 0.0
C1444 C 0.42282 0.11887 0.89856 0.0
C1445 C 0.42968 0.12387 0.93948 0.0
C1446 C 0.41 0.12803 0.87895 0.0
C1447 C 0.40361 0.14219 0.90019 0.0
C1448 C 0.40973 0.14652 0.94243 0.0
C1449 C 0.42268 0.13751 0.96175 0.0
C1450 C 0.36892 0.17303 0.87915 0.0
C1451 C 0.37296 0.1788 0.83633 0.0
C1452 C 0.37839 0.16056 0.89927 0.0
C1453 C 0.39194 0.15347 0.87676 0.0
C1454 C 0.39532 0.15853 0.83293 0.0
C1455 C 0.38598 0.17112 0.81301 0.0
H1456 H 0.89302 0.82475 0.78157 0.0
H1457 H 0.85771 0.82609 0.88976 0.0
H1458 H 0.90905 0.84673 0.81708 0.0
H1459 H 0.87379 0.84817 0.92529 0.0
H1460 H 0.92275 0.86527 0.99875 0.0
H1461 H 0.90179 0.84832 0.96166 0.0
H1462 H 0.9088 0.87637 0.84071 0.0
H1463 H 0.92981 0.89331 0.87765 0.0
C1464 C 0.88852 0.82994 0.81255 0.0
C1465 C 0.87415 0.8236 0.83296 0.0
C1466 C 0.89766 0.8426 0.8328 0.0
C1467 C 0.89273 0.84912 0.87412 0.0
C1468 C 0.87797 0.84328 0.89365 0.0
C1469 C 0.86871 0.83071 0.87313 0.0
C1470 C 0.91963 0.86802 0.96448 0.0
C1471 C 0.92807 0.88056 0.9411 0.0
C1472 C 0.90755 0.85835 0.94328 0.0
C1473 C 0.90373 0.86093 0.89815 0.0
C1474 C 0.91161 0.87397 0.87537 0.0
C1475 C 0.92359 0.88373 0.89665 0.0
H1476 H 0.92443 0.13713 0.52444 0.0
H1477 H 0.92813 0.10674 0.6425 0.0
H1478 H 0.9025 0.15338 0.5596 0.0
H1479 H 0.90615 0.12298 0.67748 0.0
H1480 H 0.88969 0.17379 0.74035 0.0
H1481 H 0.90615 0.15212 0.70508 0.0
H1482 H 0.87361 0.15316 0.59086 0.0
H1483 H 0.85709 0.17494 0.62618 0.0
C1484 C 0.92036 0.13371 0.55755 0.0
C1485 C 0.92817 0.12075 0.5808 0.0
C1486 C 0.90772 0.14297 0.57761 0.0
C1487 C 0.90269 0.13953 0.62146 0.0
C1488 C 0.9099 0.12603 0.64384 0.0
C1489 C 0.92244 0.11669 0.62367 0.0
C1490 C 0.88585 0.16919 0.70807 0.0
C1491 C 0.87216 0.17617 0.68596 0.0
C1492 C 0.89524 0.1567 0.68795 0.0
C1493 C 0.89123 0.151 0.64506 0.0
C1494 C 0.87708 0.15742 0.62376 0.0
C1495 C 0.86756 0.16981 0.64414 0.0
H1496 H 0.61702 0.19076 0.31452 0.0
H1497 H 0.65446 0.15983 0.37563 0.0
H1498 H 0.59621 0.16985 0.32911 0.0
H1499 H 0.63344 0.13838 0.38918 0.0
H1500 H 0.58483 0.11643 0.45562 0.0
H1501 H 0.60911 0.13322 0.43546 0.0
H1502 H 0.587 0.1433 0.30719 0.0
H1503 H 0.56265 0.12728 0.3282 0.0
C1504 C 0.62089 0.17936 0.33054 0.0
C1505 C 0.63745 0.17701 0.34392 0.0
C1506 C 0.60892 0.16724 0.33862 0.0
C1507 C 0.61313 0.15231 0.36001 0.0
C1508 C 0.62975 0.14978 0.37288 0.0
C1509 C 0.64181 0.16202 0.36487 0.0
C1510 C 0.58537 0.12203 0.4229 0.0
C1511 C 0.57178 0.12083 0.39375 0.0
C1512 C 0.59928 0.13161 0.41125 0.0
C1513 C 0.59986 0.13993 0.37003 0.0
C1514 C 0.58677 0.13753 0.33973 0.0
C1515 C 0.57284 0.12826 0.35163 0.0
H1516 H 0.5876 0.89618 0.07496 0.0
H1517 H 0.55848 0.86086 0.15001 0.0
H1518 H 0.6129 0.88074 0.0938 0.0
H1519 H 0.58347 0.84553 0.16819 0.0
H1520 H 0.63089 0.82711 0.22412 0.0
H1521 H 0.60902 0.84748 0.21162 0.0
H1522 H 0.62521 0.85334 0.07553 0.0
H1523 H 0.64729 0.83319 0.08816 0.0
C1524 C 0.5866 0.8852 0.09556 0.0
C1525 C 0.57102 0.87972 0.11085 0.0
C1526 C 0.60106 0.87635 0.10624 0.0
C1527 C 0.60021 0.86197 0.13275 0.0
C1528 C 0.58463 0.8567 0.14841 0.0
C1529 C 0.57025 0.86544 0.13757 0.0
C1530 C 0.63 0.83296 0.19175 0.0
C1531 C 0.6407 0.82833 0.15696 0.0
C1532 C 0.6174 0.84457 0.18453 0.0
C1533 C 0.61521 0.85183 0.14237 0.0
C1534 C 0.62659 0.84803 0.10842 0.0
C1535 C 0.63921 0.8364 0.11565 0.0
H1536 H 0.58228 0.6084 0.58677 0.0
H1537 H 0.55317 0.64904 0.63882 0.0
H1538 H 0.60782 0.62322 0.60697 0.0
H1539 H 0.57843 0.66374 0.65835 0.0
H1540 H 0.62458 0.68118 0.72417 0.0
H1541 H 0.60161 0.66217 0.71046 0.0
H1542 H 0.62325 0.64859 0.58414 0.0
H1543 H 0.64645 0.66742 0.59815 0.0
C1544 C 0.58133 0.62045 0.60252 0.0
C1545 C 0.56569 0.62754 0.61113 0.0
C1546 C 0.59593 0.62894 0.61397 0.0
C1547 C 0.59516 0.64459 0.63463 0.0
C1548 C 0.5795 0.65158 0.6433 0.0
C1549 C 0.56498 0.64319 0.63168 0.0
C1550 C 0.62461 0.67395 0.69378 0.0
C1551 C 0.63725 0.676 0.662 0.0
C1552 C 0.61138 0.66312 0.68581 0.0
C1553 C 0.61045 0.65409 0.64585 0.0
C1554 C 0.62362 0.65533 0.6153 0.0
C1555 C 0.63689 0.66617 0.6233 0.0
H1556 H 0.57484 0.39838 0.87382 0.0
H1557 H 0.5825 0.37068 0.99523 0.0
H1558 H 0.59651 0.38215 0.83744 0.0
H1559 H 0.60404 0.35439 0.95865 0.0
H1560 H 0.648 0.3322 0.88777 0.0
H1561 H 0.63184 0.35432 0.92275 0.0
H1562 H 0.59698 0.35283 0.81356 0.0
H1563 H 0.61311 0.33089 0.77855 0.0
C1564 C 0.58133 0.38904 0.89302 0.0
C1565 C 0.5768 0.3857 0.93734 0.0
C1566 C 0.59369 0.37969 0.87205 0.0
C1567 C 0.60188 0.36689 0.89501 0.0
C1568 C 0.59806 0.36424 0.94012 0.0
C1569 C 0.58563 0.37352 0.96102 0.0
C1570 C 0.63707 0.33683 0.87081 0.0
C1571 C 0.63175 0.32968 0.83055 0.0
C1572 C 0.62777 0.34943 0.891 0.0
C1573 C 0.61307 0.35525 0.87109 0.0
C1574 C 0.60831 0.34874 0.8296 0.0
C1575 C 0.61751 0.33608 0.80964 0.0
H1576 H 0.87226 0.32442 0.21863 0.0
H1577 H 0.85998 0.32406 0.07861 0.0
H1578 H 0.89333 0.34553 0.20492 0.0
H1579 H 0.88122 0.34509 0.06498 0.0
H1580 H 0.91653 0.39012 0.06114 0.0
H1581 H 0.89139 0.37425 0.0795 0.0
H1582 H 0.9203 0.34277 0.16621 0.0
H1583 H 0.94514 0.35846 0.1482 0.0
C1584 C 0.87385 0.32902 0.18503 0.0
C1585 C 0.8646 0.32235 0.14961 0.0
C1586 C 0.88598 0.34108 0.17718 0.0
C1587 C 0.8891 0.34679 0.13378 0.0
C1588 C 0.87907 0.34098 0.0988 0.0
C1589 C 0.86696 0.32886 0.10663 0.0
C1590 C 0.91742 0.37989 0.0844 0.0
C1591 C 0.93283 0.37549 0.10304 0.0
C1592 C 0.90307 0.37079 0.09478 0.0
C1593 C 0.90386 0.35732 0.12449 0.0
C1594 C 0.91921 0.35323 0.14377 0.0
C1595 C 0.9335 0.36215 0.13308 0.0
H1596 H 0.92807 0.60674 0.37726 0.0
H1597 H 0.92734 0.63958 0.49091 0.0
H1598 H 0.9059 0.62295 0.34265 0.0
H1599 H 0.90527 0.65574 0.45628 0.0
H1600 H 0.85975 0.67777 0.39354 0.0
H1601 H 0.87591 0.65578 0.42896 0.0
H1602 H 0.90629 0.65168 0.31107 0.0
H1603 H 0.89018 0.67358 0.27562 0.0
C1604 C 0.92295 0.6172 0.39528 0.0
C1605 C 0.92956 0.62197 0.43667 0.0
C1606 C 0.91033 0.62653 0.37532 0.0
C1607 C 0.90393 0.64068 0.39659 0.0
C1608 C 0.90984 0.64482 0.43919 0.0
C1609 C 0.92256 0.63562 0.45892 0.0
C1610 C 0.86967 0.67195 0.37484 0.0
C1611 C 0.8738 0.67755 0.33191 0.0
C1612 C 0.87896 0.65941 0.39524 0.0
C1613 C 0.89244 0.65209 0.37294 0.0
C1614 C 0.8959 0.65698 0.32901 0.0
C1615 C 0.88672 0.66962 0.30879 0.0
H1616 H 0.36547 0.33397 0.31098 0.0
H1617 H 0.37658 0.31811 0.44501 0.0
H1618 H 0.38442 0.35739 0.3198 0.0
H1619 H 0.39597 0.34091 0.45318 0.0
H1620 H 0.4243 0.38806 0.46914 0.0
H1621 H 0.40068 0.36936 0.46091 0.0
H1622 H 0.41318 0.36229 0.32225 0.0
H1623 H 0.43621 0.38158 0.33015 0.0
C1624 C 0.37188 0.33553 0.3424 0.0
C1625 C 0.36957 0.3241 0.37718 0.0
C1626 C 0.38286 0.3489 0.34738 0.0
C1627 C 0.39192 0.35105 0.38709 0.0
C1628 C 0.3891 0.3399 0.42233 0.0
C1629 C 0.37801 0.32668 0.41752 0.0
C1630 C 0.42184 0.38266 0.4368 0.0
C1631 C 0.43217 0.38624 0.40037 0.0
C1632 C 0.40836 0.37184 0.43208 0.0
C1633 C 0.40503 0.3641 0.39099 0.0
C1634 C 0.41511 0.36814 0.35426 0.0
C1635 C 0.42843 0.37915 0.35884 0.0
H1636 H 0.3539 0.67872 0.12842 0.0
H1637 H 0.38575 0.67649 0.244 0.0
H1638 H 0.36957 0.65605 0.0944 0.0
H1639 H 0.40134 0.65389 0.21002 0.0
H1640 H 0.42201 0.60763 0.148 0.0
H1641 H 0.40024 0.62452 0.18206 0.0
H1642 H 0.39881 0.65549 0.06492 0.0
H1643 H 0.42052 0.63868 0.03086 0.0
C1644 C 0.36401 0.67317 0.14697 0.0
C1645 C 0.36868 0.67949 0.18876 0.0
C1646 C 0.37303 0.66026 0.12736 0.0
C1647 C 0.38674 0.65326 0.14941 0.0
C1648 C 0.39076 0.65892 0.19233 0.0
C1649 C 0.38188 0.67194 0.2117 0.0
C1650 C 0.41679 0.61782 0.12912 0.0
C1651 C 0.4231 0.62192 0.08687 0.0
C1652 C 0.4044 0.62754 0.14875 0.0
C1653 C 0.3979 0.64139 0.1263 0.0
C1654 C 0.40347 0.64482 0.08294 0.0
C1655 C 0.41598 0.63524 0.06352 0.0
H1656 H 0.08086 0.63625 0.98904 0.0
H1657 H 0.07624 0.60563 0.87165 0.0
H1658 H 0.10275 0.65221 0.95295 0.0
H1659 H 0.09823 0.62163 0.83558 0.0
H1660 H 0.11485 0.67265 0.77244 0.0
H1661 H 0.09855 0.65078 0.80757 0.0
H1662 H 0.13138 0.65169 0.92121 0.0
H1663 H 0.14769 0.67365 0.88616 0.0
C1664 C 0.08473 0.63272 0.95584 0.0
C1665 C 0.07668 0.61978 0.93308 0.0
C1666 C 0.09736 0.64181 0.93524 0.0
C1667 C 0.10214 0.63824 0.89129 0.0
C1668 C 0.09469 0.62476 0.86932 0.0
C1669 C 0.08215 0.61555 0.89009 0.0
C1670 C 0.11879 0.66798 0.80454 0.0
C1671 C 0.13246 0.67502 0.82667 0.0
C1672 C 0.1095 0.65537 0.82457 0.0
C1673 C 0.11361 0.6496 0.86732 0.0
C1674 C 0.12781 0.65601 0.88845 0.0
C1675 C 0.1372 0.66853 0.86823 0.0
H1676 H 0.0834 0.39109 0.59563 0.0
H1677 H 0.05036 0.34877 0.59426 0.0
H1678 H 0.10515 0.3738 0.62946 0.0
H1679 H 0.07186 0.33181 0.62786 0.0
H1680 H 0.10387 0.31228 0.73758 0.0
H1681 H 0.08504 0.33243 0.70484 0.0
H1682 H 0.12303 0.34713 0.61149 0.0
H1683 H 0.1421 0.32678 0.64434 0.0
C1684 C 0.08082 0.37812 0.60214 0.0
C1685 C 0.0651 0.37134 0.59255 0.0
C1686 C 0.09326 0.36826 0.62143 0.0
C1687 C 0.09007 0.35156 0.63189 0.0
C1688 C 0.07455 0.34473 0.62095 0.0
C1689 C 0.06226 0.35446 0.60142 0.0
C1690 C 0.10836 0.31991 0.71046 0.0
C1691 C 0.12443 0.31775 0.69319 0.0
C1692 C 0.09753 0.33142 0.69162 0.0
C1693 C 0.1025 0.34112 0.65517 0.0
C1694 C 0.1189 0.33978 0.63956 0.0
C1695 C 0.12978 0.32813 0.65834 0.0
loop_
_geom_bond_atom_site_label_1
_geom_bond_atom_site_label_2
_geom_bond_distance
_geom_bond_site_symmetry_2
_ccdc_geom_bond_type
Mg0 O7 2.141 1_554 S
Mg0 O8 2.048 . S
Mg0 O9 2.048 . S
Mg0 O12 2.141 . S
C1 O2 1.313 . S
C1 O8 1.195 1_655 S
O2 C1 1.313 . S
C3 O4 1.245 . S
C3 O12 1.289 . S
O4 C3 1.245 . S
C5 O6 1.245 1_455 S
C5 O7 1.289 . S
O6 C5 1.245 1_655 S
O7 Mg0 2.141 1_556 S
O7 C5 1.289 . S
O8 Mg0 2.048 . S
O8 C1 1.195 1_455 S
O9 Mg0 2.048 . S
O9 C10 1.195 . S
C10 O9 1.195 . S
C10 O11 1.313 1_455 S
O11 C10 1.313 1_655 S
O12 Mg0 2.141 . S
O12 C3 1.289 . S
Mg13 O20 2.141 . S
Mg13 O21 2.048 . S
Mg13 O22 2.048 . S
Mg13 O25 2.141 . S
C14 O15 1.313 . S
C14 O21 1.195 . S
O15 C14 1.313 . S
C16 O17 1.245 . S
C16 O25 1.289 . S
O17 C16 1.245 . S
C18 O19 1.245 . S
C18 O20 1.289 . S
O19 C18 1.245 . S
O20 Mg13 2.141 . S
O20 C18 1.289 . S
O21 Mg13 2.048 . S
O21 C14 1.195 . S
O22 Mg13 2.048 . S
O22 C23 1.195 . S
C23 O22 1.195 . S
C23 O24 1.313 . S
O24 C23 1.313 . S
O25 Mg13 2.141 . S
O25 C16 1.289 . S
Mg26 O33 2.141 . S
Mg26 O34 2.048 . S
Mg26 O35 2.048 . S
Mg26 O38 2.141 . S
C27 O28 1.313 . S
C27 O34 1.195 . S
O28 C27 1.313 . S
C29 O30 1.245 . S
C29 O38 1.289 . S
O30 C29 1.245 . S
C31 O32 1.245 . S
C31 O33 1.289 . S
O32 C31 1.245 . S
O33 Mg26 2.141 . S
O33 C31 1.289 . S
O34 Mg26 2.048 . S
O34 C27 1.195 . S
O35 Mg26 2.048 . S
O35 C36 1.195 . S
C36 O35 1.195 . S
C36 O37 1.313 . S
O37 C36 1.313 . S
O38 Mg26 2.141 . S
O38 C29 1.289 . S
Mg39 O46 2.141 . S
Mg39 O47 2.048 . S
Mg39 O48 2.048 . S
Mg39 O51 2.141 . S
C40 O41 1.313 . S
C40 O47 1.195 . S
O41 C40 1.313 . S
C42 O43 1.245 . S
C42 O51 1.289 . S
O43 C42 1.245 . S
C44 O45 1.245 . S
C44 O46 1.289 . S
O45 C44 1.245 . S
O46 Mg39 2.141 . S
O46 C44 1.289 . S
O47 Mg39 2.048 . S
O47 C40 1.195 . S
O48 Mg39 2.048 . S
O48 C49 1.195 . S
C49 O48 1.195 . S
C49 O50 1.313 . S
O50 C49 1.313 . S
O51 Mg39 2.141 . S
O51 C42 1.289 . S
Mg52 O59 2.141 . S
Mg52 O60 2.048 . S
Mg52 O61 2.048 . S
Mg52 O64 2.141 . S
C53 O54 1.313 . S
C53 O60 1.195 1_655 S
O54 C53 1.313 . S
C55 O56 1.245 . S
C55 O64 1.289 . S
O56 C55 1.245 . S
C57 O58 1.245 1_455 S
C57 O59 1.289 . S
O58 C57 1.245 1_655 S
O59 Mg52 2.141 . S
O59 C57 1.289 . S
O60 Mg52 2.048 . S
O60 C53 1.195 1_455 S
O61 Mg52 2.048 . S
O61 C62 1.195 . S
C62 O61 1.195 . S
C62 O63 1.313 1_455 S
O63 C62 1.313 1_655 S
O64 Mg52 2.141 . S
O64 C55 1.289 . S
Mg65 O72 2.141 . S
Mg65 O73 2.048 . S
Mg65 O74 2.048 . S
Mg65 O77 2.141 . S
C66 O67 1.313 . S
C66 O73 1.195 . S
O67 C66 1.313 . S
C68 O69 1.245 . S
C68 O77 1.289 . S
O69 C68 1.245 . S
C70 O71 1.245 . S
C70 O72 1.289 . S
O71 C70 1.245 . S
O72 Mg65 2.141 . S
O72 C70 1.289 . S
O73 Mg65 2.048 . S
O73 C66 1.195 . S
O74 Mg65 2.048 . S
O74 C75 1.195 . S
C75 O74 1.195 . S
C75 O76 1.313 . S
O76 C75 1.313 . S
O77 Mg65 2.141 . S
O77 C68 1.289 . S
Mg78 O85 2.141 1_556 S
Mg78 O86 2.048 . S
Mg78 O87 2.048 . S
Mg78 O90 2.141 . S
C79 O80 1.313 . S
C79 O86 1.195 . S
O80 C79 1.313 . S
C81 O82 1.245 . S
C81 O90 1.289 . S
O82 C81 1.245 . S
C83 O84 1.245 . S
C83 O85 1.289 . S
O84 C83 1.245 . S
O85 Mg78 2.141 1_554 S
O85 C83 1.289 . S
O86 Mg78 2.048 . S
O86 C79 1.195 . S
O87 Mg78 2.048 . S
O87 C88 1.195 . S
C88 O87 1.195 . S
C88 O89 1.313 . S
O89 C88 1.313 . S
O90 Mg78 2.141 . S
O90 C81 1.289 . S
Mg91 O98 2.141 . S
Mg91 O99 2.048 . S
Mg91 O100 2.048 . S
Mg91 O103 2.141 . S
C92 O93 1.313 . S
C92 O99 1.195 . S
O93 C92 1.313 . S
C94 O95 1.245 . S
C94 O103 1.289 . S
O95 C94 1.245 . S
C96 O97 1.245 . S
C96 O98 1.289 . S
O97 C96 1.245 . S
O98 Mg91 2.141 . S
O98 C96 1.289 . S
O99 Mg91 2.048 . S
O99 C92 1.195 . S
O100 Mg91 2.048 . S
O100 C101 1.195 . S
C101 O100 1.195 . S
C101 O102 1.313 . S
O102 C101 1.313 . S
O103 Mg91 2.141 . S
O103 C94 1.289 . S
Mg104 O111 2.141 . S
Mg104 O112 2.048 . S
Mg104 O113 2.048 . S
Mg104 O116 2.141 1_556 S
C105 O106 1.313 1_655 S
C105 O112 1.195 . S
O106 C105 1.313 1_455 S
C107 O108 1.245 1_655 S
C107 O116 1.289 . S
O108 C107 1.245 1_455 S
C109 O110 1.245 . S
C109 O111 1.289 . S
O110 C109 1.245 . S
O111 Mg104 2.141 . S
O111 C109 1.289 . S
O112 Mg104 2.048 . S
O112 C105 1.195 . S
O113 Mg104 2.048 . S
O113 C114 1.195 1_655 S
C114 O113 1.195 1_455 S
C114 O115 1.313 . S
O115 C114 1.313 . S
O116 Mg104 2.141 1_554 S
O116 C107 1.289 . S
Mg117 O124 2.141 . S
Mg117 O125 2.048 . S
Mg117 O126 2.048 . S
Mg117 O129 2.141 . S
C118 O119 1.313 . S
C118 O125 1.195 . S
O119 C118 1.313 . S
C120 O121 1.245 . S
C120 O129 1.289 . S
O121 C120 1.245 . S
C122 O123 1.245 . S
C122 O124 1.289 . S
O123 C122 1.245 . S
O124 Mg117 2.141 . S
O124 C122 1.289 . S
O125 Mg117 2.048 . S
O125 C118 1.195 . S
O126 Mg117 2.048 . S
O126 C127 1.195 . S
C127 O126 1.195 . S
C127 O128 1.313 . S
O128 C127 1.313 . S
O129 Mg117 2.141 . S
O129 C120 1.289 . S
Mg130 O137 2.141 . S
Mg130 O138 2.048 . S
Mg130 O139 2.048 . S
Mg130 O142 2.141 . S
C131 O132 1.313 . S
C131 O138 1.195 . S
O132 C131 1.313 . S
C133 O134 1.245 . S
C133 O142 1.289 . S
O134 C133 1.245 . S
C135 O136 1.245 . S
C135 O137 1.289 . S
O136 C135 1.245 . S
O137 Mg130 2.141 . S
O137 C135 1.289 . S
O138 Mg130 2.048 . S
O138 C131 1.195 . S
O139 Mg130 2.048 . S
O139 C140 1.195 . S
C140 O139 1.195 . S
C140 O141 1.313 . S
O141 C140 1.313 . S
O142 Mg130 2.141 . S
O142 C133 1.289 . S
Mg143 O150 2.141 . S
Mg143 O151 2.048 . S
Mg143 O152 2.048 . S
Mg143 O155 2.141 . S
C144 O145 1.313 . S
C144 O151 1.195 . S
O145 C144 1.313 . S
C146 O147 1.245 . S
C146 O155 1.289 . S
O147 C146 1.245 . S
C148 O149 1.245 . S
C148 O150 1.289 . S
O149 C148 1.245 . S
O150 Mg143 2.141 . S
O150 C148 1.289 . S
O151 Mg143 2.048 . S
O151 C144 1.195 . S
O152 Mg143 2.048 . S
O152 C153 1.195 . S
C153 O152 1.195 . S
C153 O154 1.313 . S
O154 C153 1.313 . S
O155 Mg143 2.141 . S
O155 C146 1.289 . S
Mg156 O163 2.141 . S
Mg156 O164 2.048 . S
Mg156 O165 2.048 . S
Mg156 O168 2.141 . S
C157 O158 1.313 1_655 S
C157 O164 1.195 . S
O158 C157 1.313 1_455 S
C159 O160 1.245 1_655 S
C159 O168 1.289 . S
O160 C159 1.245 1_455 S
C161 O162 1.245 . S
C161 O163 1.289 . S
O162 C161 1.245 . S
O163 Mg156 2.141 . S
O163 C161 1.289 . S
O164 Mg156 2.048 . S
O164 C157 1.195 . S
O165 Mg156 2.048 . S
O165 C166 1.195 1_655 S
C166 O165 1.195 1_455 S
C166 O167 1.313 . S
O167 C166 1.313 . S
O168 Mg156 2.141 . S
O168 C159 1.289 . S
Mg169 O176 2.141 . S
Mg169 O177 2.048 . S
Mg169 O178 2.048 . S
Mg169 O181 2.141 . S
C170 O171 1.313 . S
C170 O177 1.195 . S
O171 C170 1.313 . S
C172 O173 1.245 . S
C172 O181 1.289 . S
O173 C172 1.245 . S
C174 O175 1.245 . S
C174 O176 1.289 . S
O175 C174 1.245 . S
O176 Mg169 2.141 . S
O176 C174 1.289 . S
O177 Mg169 2.048 . S
O177 C170 1.195 . S
O178 Mg169 2.048 . S
O178 C179 1.195 . S
C179 O178 1.195 . S
C179 O180 1.313 . S
O180 C179 1.313 . S
O181 Mg169 2.141 . S
O181 C172 1.289 . S
Mg182 O189 2.141 . S
Mg182 O190 2.048 . S
Mg182 O191 2.048 . S
Mg182 O194 2.141 1_554 S
C183 O184 1.313 . S
C183 O190 1.195 . S
O184 C183 1.313 . S
C185 O186 1.245 . S
C185 O194 1.289 . S
O186 C185 1.245 . S
C187 O188 1.245 . S
C187 O189 1.289 . S
O188 C187 1.245 . S
O189 Mg182 2.141 . S
O189 C187 1.289 . S
O190 Mg182 2.048 . S
O190 C183 1.195 . S
O191 Mg182 2.048 . S
O191 C192 1.195 . S
C192 O191 1.195 . S
C192 O193 1.313 . S
O193 C192 1.313 . S
O194 Mg182 2.141 1_556 S
O194 C185 1.289 . S
Mg195 O202 2.141 . S
Mg195 O203 2.048 . S
Mg195 O204 2.048 . S
Mg195 O207 2.141 . S
C196 O197 1.313 . S
C196 O203 1.195 . S
O197 C196 1.313 . S
C198 O199 1.245 . S
C198 O207 1.289 . S
O199 C198 1.245 . S
C200 O201 1.245 . S
C200 O202 1.289 . S
O201 C200 1.245 . S
O202 Mg195 2.141 . S
O202 C200 1.289 . S
O203 Mg195 2.048 . S
O203 C196 1.195 . S
O204 Mg195 2.048 . S
O204 C205 1.195 . S
C205 O204 1.195 . S
C205 O206 1.313 . S
O206 C205 1.313 . S
O207 Mg195 2.141 . S
O207 C198 1.289 . S
Mg208 O215 2.141 . S
Mg208 O216 2.048 . S
Mg208 O217 2.048 . S
Mg208 O220 2.141 . S
C209 O210 1.313 . S
C209 O216 1.195 . S
O210 C209 1.313 . S
C211 O212 1.245 . S
C211 O220 1.289 . S
O212 C211 1.245 . S
C213 O214 1.245 . S
C213 O215 1.289 . S
O214 C213 1.245 . S
O215 Mg208 2.141 . S
O215 C213 1.289 . S
O216 Mg208 2.048 . S
O216 C209 1.195 . S
O217 Mg208 2.048 . S
O217 C218 1.195 . S
C218 O217 1.195 . S
C218 O219 1.313 . S
O219 C218 1.313 . S
O220 Mg208 2.141 . S
O220 C211 1.289 . S
Mg221 O228 2.141 . S
Mg221 O229 2.048 . S
Mg221 O230 2.048 . S
Mg221 O233 2.141 . S
C222 O223 1.313 . S
C222 O229 1.195 . S
O223 C222 1.313 . S
C224 O225 1.245 . S
C224 O233 1.289 . S
O225 C224 1.245 . S
C226 O227 1.245 . S
C226 O228 1.289 . S
O227 C226 1.245 . S
O228 Mg221 2.141 . S
O228 C226 1.289 . S
O229 Mg221 2.048 . S
O229 C222 1.195 . S
O230 Mg221 2.048 . S
O230 C231 1.195 . S
C231 O230 1.195 . S
C231 O232 1.313 . S
O232 C231 1.313 . S
O233 Mg221 2.141 . S
O233 C224 1.289 . S
Mg234 O241 2.141 1_554 S
Mg234 O242 2.048 . S
Mg234 O243 2.048 . S
Mg234 O246 2.141 . S
C235 O236 1.313 . S
C235 O242 1.195 1_455 S
O236 C235 1.313 . S
C237 O238 1.245 . S
C237 O246 1.289 . S
O238 C237 1.245 . S
C239 O240 1.245 1_655 S
C239 O241 1.289 . S
O240 C239 1.245 1_455 S
O241 Mg234 2.141 1_556 S
O241 C239 1.289 . S
O242 Mg234 2.048 . S
O242 C235 1.195 1_655 S
O243 Mg234 2.048 . S
O243 C244 1.195 . S
C244 O243 1.195 . S
C244 O245 1.313 1_655 S
O245 C244 1.313 1_455 S
O246 Mg234 2.141 . S
O246 C237 1.289 . S
Mg247 O254 2.141 . S
Mg247 O255 2.048 . S
Mg247 O256 2.048 . S
Mg247 O259 2.141 . S
C248 O249 1.313 . S
C248 O255 1.195 . S
O249 C248 1.313 . S
C250 O251 1.245 . S
C250 O259 1.289 . S
O251 C250 1.245 . S
C252 O253 1.245 . S
C252 O254 1.289 . S
O253 C252 1.245 . S
O254 Mg247 2.141 . S
O254 C252 1.289 . S
O255 Mg247 2.048 . S
O255 C248 1.195 . S
O256 Mg247 2.048 . S
O256 C257 1.195 . S
C257 O256 1.195 . S
C257 O258 1.313 . S
O258 C257 1.313 . S
O259 Mg247 2.141 . S
O259 C250 1.289 . S
Mg260 O267 2.141 1_556 S
Mg260 O268 2.048 . S
Mg260 O269 2.048 . S
Mg260 O272 2.141 . S
C261 O262 1.313 . S
C261 O268 1.195 . S
O262 C261 1.313 . S
C263 O264 1.245 . S
C263 O272 1.289 . S
O264 C263 1.245 . S
C265 O266 1.245 . S
C265 O267 1.289 . S
O266 C265 1.245 . S
O267 Mg260 2.141 1_554 S
O267 C265 1.289 . S
O268 Mg260 2.048 . S
O268 C261 1.195 . S
O269 Mg260 2.048 . S
O269 C270 1.195 . S
C270 O269 1.195 . S
C270 O271 1.313 . S
O271 C270 1.313 . S
O272 Mg260 2.141 . S
O272 C263 1.289 . S
Mg273 O280 2.141 . S
Mg273 O281 2.048 . S
Mg273 O282 2.048 . S
Mg273 O285 2.141 . S
C274 O275 1.313 . S
C274 O281 1.195 . S
O275 C274 1.313 . S
C276 O277 1.245 . S
C276 O285 1.289 . S
O277 C276 1.245 . S
C278 O279 1.245 . S
C278 O280 1.289 . S
O279 C278 1.245 . S
O280 Mg273 2.141 . S
O280 C278 1.289 . S
O281 Mg273 2.048 . S
O281 C274 1.195 . S
O282 Mg273 2.048 . S
O282 C283 1.195 . S
C283 O282 1.195 . S
C283 O284 1.313 . S
O284 C283 1.313 . S
O285 Mg273 2.141 . S
O285 C276 1.289 . S
Mg286 O293 2.141 . S
Mg286 O294 2.048 . S
Mg286 O295 2.048 . S
Mg286 O298 2.141 . S
C287 O288 1.313 . S
C287 O294 1.195 1_455 S
O288 C287 1.313 . S
C289 O290 1.245 . S
C289 O298 1.289 . S
O290 C289 1.245 . S
C291 O292 1.245 1_655 S
C291 O293 1.289 . S
O292 C291 1.245 1_455 S
O293 Mg286 2.141 . S
O293 C291 1.289 . S
O294 Mg286 2.048 . S
O294 C287 1.195 1_655 S
O295 Mg286 2.048 . S
O295 C296 1.195 . S
C296 O295 1.195 . S
C296 O297 1.313 1_655 S
O297 C296 1.313 1_455 S
O298 Mg286 2.141 . S
O298 C289 1.289 . S
Mg299 O306 2.141 . S
Mg299 O307 2.048 . S
Mg299 O308 2.048 . S
Mg299 O311 2.141 . S
C300 O301 1.313 . S
C300 O307 1.195 . S
O301 C300 1.313 . S
C302 O303 1.245 . S
C302 O311 1.289 . S
O303 C302 1.245 . S
C304 O305 1.245 . S
C304 O306 1.289 . S
O305 C304 1.245 . S
O306 Mg299 2.141 . S
O306 C304 1.289 . S
O307 Mg299 2.048 . S
O307 C300 1.195 . S
O308 Mg299 2.048 . S
O308 C309 1.195 . S
C309 O308 1.195 . S
C309 O310 1.313 . S
O310 C309 1.313 . S
O311 Mg299 2.141 . S
O311 C302 1.289 . S
Mg312 O319 2.141 . S
Mg312 O320 2.048 . S
Mg312 O321 2.048 . S
Mg312 O324 2.141 . S
C313 O314 1.313 . S
C313 O320 1.195 . S
O314 C313 1.313 . S
C315 O316 1.245 . S
C315 O324 1.289 . S
O316 C315 1.245 . S
C317 O318 1.245 . S
C317 O319 1.289 . S
O318 C317 1.245 . S
O319 Mg312 2.141 . S
O319 C317 1.289 . S
O320 Mg312 2.048 . S
O320 C313 1.195 . S
O321 Mg312 2.048 . S
O321 C322 1.195 . S
C322 O321 1.195 . S
C322 O323 1.313 . S
O323 C322 1.313 . S
O324 Mg312 2.141 . S
O324 C315 1.289 . S
Mg325 O332 2.141 . S
Mg325 O333 2.048 . S
Mg325 O334 2.048 . S
Mg325 O337 2.141 . S
C326 O327 1.313 . S
C326 O333 1.195 . S
O327 C326 1.313 . S
C328 O329 1.245 . S
C328 O337 1.289 . S
O329 C328 1.245 . S
C330 O331 1.245 . S
C330 O332 1.289 . S
O331 C330 1.245 . S
O332 Mg325 2.141 . S
O332 C330 1.289 . S
O333 Mg325 2.048 . S
O333 C326 1.195 . S
O334 Mg325 2.048 . S
O334 C335 1.195 . S
C335 O334 1.195 . S
C335 O336 1.313 . S
O336 C335 1.313 . S
O337 Mg325 2.141 . S
O337 C328 1.289 . S
Mg338 O345 2.141 . S
Mg338 O346 2.048 . S
Mg338 O347 2.048 . S
Mg338 O350 2.141 1_556 S
C339 O340 1.313 1_455 S
C339 O346 1.195 . S
O340 C339 1.313 1_655 S
C341 O342 1.245 1_455 S
C341 O350 1.289 . S
O342 C341 1.245 1_655 S
C343 O344 1.245 . S
C343 O345 1.289 . S
O344 C343 1.245 . S
O345 Mg338 2.141 . S
O345 C343 1.289 . S
O346 Mg338 2.048 . S
O346 C339 1.195 . S
O347 Mg338 2.048 . S
O347 C348 1.195 1_455 S
C348 O347 1.195 1_655 S
C348 O349 1.313 . S
O349 C348 1.313 . S
O350 Mg338 2.141 1_554 S
O350 C341 1.289 . S
Mg351 O358 2.141 . S
Mg351 O359 2.048 . S
Mg351 O360 2.048 . S
Mg351 O363 2.141 . S
C352 O353 1.313 . S
C352 O359 1.195 . S
O353 C352 1.313 . S
C354 O355 1.245 . S
C354 O363 1.289 . S
O355 C354 1.245 . S
C356 O357 1.245 . S
C356 O358 1.289 . S
O357 C356 1.245 . S
O358 Mg351 2.141 . S
O358 C356 1.289 . S
O359 Mg351 2.048 . S
O359 C352 1.195 . S
O360 Mg351 2.048 . S
O360 C361 1.195 . S
C361 O360 1.195 . S
C361 O362 1.313 . S
O362 C361 1.313 . S
O363 Mg351 2.141 . S
O363 C354 1.289 . S
Mg364 O371 2.141 . S
Mg364 O372 2.048 . S
Mg364 O373 2.048 . S
Mg364 O376 2.141 1_554 S
C365 O366 1.313 . S
C365 O372 1.195 . S
O366 C365 1.313 . S
C367 O368 1.245 . S
C367 O376 1.289 . S
O368 C367 1.245 . S
C369 O370 1.245 . S
C369 O371 1.289 . S
O370 C369 1.245 . S
O371 Mg364 2.141 . S
O371 C369 1.289 . S
O372 Mg364 2.048 . S
O372 C365 1.195 . S
O373 Mg364 2.048 . S
O373 C374 1.195 . S
C374 O373 1.195 . S
C374 O375 1.313 . S
O375 C374 1.313 . S
O376 Mg364 2.141 1_556 S
O376 C367 1.289 . S
Mg377 O384 2.141 . S
Mg377 O385 2.048 . S
Mg377 O386 2.048 . S
Mg377 O389 2.141 . S
C378 O379 1.313 . S
C378 O385 1.195 . S
O379 C378 1.313 . S
C380 O381 1.245 . S
C380 O389 1.289 . S
O381 C380 1.245 . S
C382 O383 1.245 . S
C382 O384 1.289 . S
O383 C382 1.245 . S
O384 Mg377 2.141 . S
O384 C382 1.289 . S
O385 Mg377 2.048 . S
O385 C378 1.195 . S
O386 Mg377 2.048 . S
O386 C387 1.195 . S
C387 O386 1.195 . S
C387 O388 1.313 . S
O388 C387 1.313 . S
O389 Mg377 2.141 . S
O389 C380 1.289 . S
Mg390 O397 2.141 . S
Mg390 O398 2.048 . S
Mg390 O399 2.048 . S
Mg390 O402 2.141 . S
C391 O392 1.313 1_455 S
C391 O398 1.195 . S
O392 C391 1.313 1_655 S
C393 O394 1.245 1_455 S
C393 O402 1.289 . S
O394 C393 1.245 1_655 S
C395 O396 1.245 . S
C395 O397 1.289 . S
O396 C395 1.245 . S
O397 Mg390 2.141 . S
O397 C395 1.289 . S
O398 Mg390 2.048 . S
O398 C391 1.195 . S
O399 Mg390 2.048 . S
O399 C400 1.195 1_455 S
C400 O399 1.195 1_655 S
C400 O401 1.313 . S
O401 C400 1.313 . S
O402 Mg390 2.141 . S
O402 C393 1.289 . S
Mg403 O410 2.141 . S
Mg403 O411 2.048 . S
Mg403 O412 2.048 . S
Mg403 O415 2.141 . S
C404 O405 1.313 . S
C404 O411 1.195 . S
O405 C404 1.313 . S
C406 O407 1.245 . S
C406 O415 1.289 . S
O407 C406 1.245 . S
C408 O409 1.245 . S
C408 O410 1.289 . S
O409 C408 1.245 . S
O410 Mg403 2.141 . S
O410 C408 1.289 . S
O411 Mg403 2.048 . S
O411 C404 1.195 . S
O412 Mg403 2.048 . S
O412 C413 1.195 . S
C413 O412 1.195 . S
C413 O414 1.313 . S
O414 C413 1.313 . S
O415 Mg403 2.141 . S
O415 C406 1.289 . S
H416 C424 0.950 . S
H417 C429 0.952 . S
H418 C426 0.950 . S
H419 C428 0.950 . S
H420 C430 0.950 . S
H421 C432 0.950 . S
H422 C434 0.950 1_655 S
H423 C435 0.950 . S
C424 H416 0.950 . S
C424 C425 1.386 . S
C424 C426 1.391 . S
C425 C424 1.386 . S
C425 C429 1.393 . S
C426 H418 0.950 . S
C426 C424 1.391 . S
C426 C427 1.406 . S
C427 C426 1.406 . S
C427 C428 1.397 1_655 S
C427 C433 1.487 1_655 S
C428 H419 0.950 . S
C428 C427 1.397 1_455 S
C428 C429 1.391 1_455 S
C429 H417 0.952 . S
C429 C425 1.393 . S
C429 C428 1.391 1_655 S
C430 H420 0.950 . S
C430 C431 1.386 . S
C430 C432 1.391 . S
C431 C430 1.386 . S
C431 C435 1.393 . S
C432 H421 0.950 . S
C432 C430 1.391 . S
C432 C433 1.400 . S
C433 C427 1.487 1_455 S
C433 C432 1.400 . S
C433 C434 1.398 . S
C434 H422 0.950 1_455 S
C434 C433 1.398 . S
C434 C435 1.391 . S
C435 H423 0.950 . S
C435 C431 1.393 . S
C435 C434 1.391 . S
H436 C444 0.950 . S
H437 C449 0.950 . S
H438 C446 0.949 1_554 S
H439 C448 0.950 . S
H440 C450 0.950 . S
H441 C452 0.950 . S
H442 C454 0.950 . S
H443 C455 0.950 . S
C444 H436 0.950 . S
C444 C445 1.386 . S
C444 C446 1.393 . S
C445 C444 1.386 . S
C445 C449 1.393 . S
C446 H438 0.949 1_556 S
C446 C444 1.393 . S
C446 C447 1.399 1_556 S
C447 C446 1.399 1_554 S
C447 C448 1.398 . S
C447 C453 1.491 . S
C448 H439 0.950 . S
C448 C447 1.398 . S
C448 C449 1.391 1_554 S
C449 H437 0.950 . S
C449 C445 1.393 . S
C449 C448 1.391 1_556 S
C450 H440 0.950 . S
C450 C451 1.386 . S
C450 C452 1.391 . S
C451 C450 1.386 . S
C451 C455 1.393 . S
C452 H441 0.950 . S
C452 C450 1.391 . S
C452 C453 1.400 . S
C453 C447 1.491 . S
C453 C452 1.400 . S
C453 C454 1.398 . S
C454 H442 0.950 . S
C454 C453 1.398 . S
C454 C455 1.391 . S
C455 H443 0.950 . S
C455 C451 1.393 . S
C455 C454 1.391 . S
H456 C464 0.950 . S
H457 C469 0.950 . S
H458 C466 0.950 . S
H459 C468 0.950 . S
H460 C470 0.950 . S
H461 C472 0.950 . S
H462 C474 0.950 . S
H463 C475 0.950 . S
C464 H456 0.950 . S
C464 C465 1.386 . S
C464 C466 1.391 . S
C465 C464 1.386 . S
C465 C469 1.393 . S
C466 H458 0.950 . S
C466 C464 1.391 . S
C466 C467 1.400 . S
C467 C466 1.400 . S
C467 C468 1.398 . S
C467 C473 1.491 . S
C468 H459 0.950 . S
C468 C467 1.398 . S
C468 C469 1.391 . S
C469 H457 0.950 . S
C469 C465 1.393 . S
C469 C468 1.391 . S
C470 H460 0.950 . S
C470 C471 1.386 . S
C470 C472 1.391 . S
C471 C470 1.386 . S
C471 C475 1.393 . S
C472 H461 0.950 . S
C472 C470 1.391 . S
C472 C473 1.400 . S
C473 C467 1.491 . S
C473 C472 1.400 . S
C473 C474 1.398 . S
C474 H462 0.950 . S
C474 C473 1.398 . S
C474 C475 1.391 . S
C475 H463 0.950 . S
C475 C471 1.393 . S
C475 C474 1.391 . S
H476 C484 0.950 . S
H477 C489 0.950 . S
H478 C486 0.950 . S
H479 C488 0.950 . S
H480 C490 0.950 . S
H481 C492 0.950 . S
H482 C494 0.950 . S
H483 C495 0.950 . S
C484 H476 0.950 . S
C484 C485 1.386 . S
C484 C486 1.391 . S
C485 C484 1.386 . S
C485 C489 1.393 . S
C486 H478 0.950 . S
C486 C484 1.391 . S
C486 C487 1.400 . S
C487 C486 1.400 . S
C487 C488 1.398 . S
C487 C493 1.491 . S
C488 H479 0.950 . S
C488 C487 1.398 . S
C488 C489 1.391 . S
C489 H477 0.950 . S
C489 C485 1.393 . S
C489 C488 1.391 . S
C490 H480 0.950 . S
C490 C491 1.386 . S
C490 C492 1.391 . S
C491 C490 1.386 . S
C491 C495 1.393 . S
C492 H481 0.950 . S
C492 C490 1.391 . S
C492 C493 1.400 . S
C493 C487 1.491 . S
C493 C492 1.400 . S
C493 C494 1.398 . S
C494 H482 0.950 . S
C494 C493 1.398 . S
C494 C495 1.391 . S
C495 H483 0.950 . S
C495 C491 1.393 . S
C495 C494 1.391 . S
H496 C504 0.950 . S
H497 C509 0.950 . S
H498 C506 0.950 . S
H499 C508 0.950 . S
H500 C510 0.950 . S
H501 C512 0.950 . S
H502 C514 0.950 . S
H503 C515 0.950 . S
C504 H496 0.950 . S
C504 C505 1.386 . S
C504 C506 1.391 . S
C505 C504 1.386 . S
C505 C509 1.393 1_655 S
C506 H498 0.950 . S
C506 C504 1.391 . S
C506 C507 1.396 . S
C507 C506 1.396 . S
C507 C508 1.401 1_655 S
C507 C513 1.492 1_655 S
C508 H499 0.950 . S
C508 C507 1.401 1_455 S
C508 C509 1.391 . S
C509 H497 0.950 . S
C509 C505 1.393 1_455 S
C509 C508 1.391 . S
C510 H500 0.950 . S
C510 C511 1.386 . S
C510 C512 1.391 . S
C511 C510 1.386 . S
C511 C515 1.393 1_455 S
C512 H501 0.950 . S
C512 C510 1.391 . S
C512 C513 1.400 . S
C513 C507 1.492 1_455 S
C513 C512 1.400 . S
C513 C514 1.398 1_455 S
C514 H502 0.950 . S
C514 C513 1.398 1_655 S
C514 C515 1.391 . S
C515 H503 0.950 . S
C515 C511 1.393 1_655 S
C515 C514 1.391 . S
H516 C524 0.950 . S
H517 C529 0.950 . S
H518 C526 0.950 . S
H519 C528 0.950 . S
H520 C530 0.950 . S
H521 C532 0.956 . S
H522 C534 0.950 . S
H523 C535 0.950 . S
C524 H516 0.950 . S
C524 C525 1.386 . S
C524 C526 1.391 . S
C525 C524 1.386 . S
C525 C529 1.393 . S
C526 H518 0.950 . S
C526 C524 1.391 . S
C526 C527 1.400 . S
C527 C526 1.400 . S
C527 C528 1.398 . S
C527 C533 1.491 . S
C528 H519 0.950 . S
C528 C527 1.398 . S
C528 C529 1.391 . S
C529 H517 0.950 . S
C529 C525 1.393 . S
C529 C528 1.391 . S
C530 H520 0.950 . S
C530 C531 1.386 . S
C530 C532 1.369 1_554 S
C531 C530 1.386 . S
C531 C535 1.393 . S
C532 H521 0.956 . S
C532 C530 1.369 1_556 S
C532 C533 1.416 . S
C533 C527 1.491 . S
C533 C532 1.416 . S
C533 C534 1.398 . S
C534 H522 0.950 . S
C534 C533 1.398 . S
C534 C535 1.391 1_556 S
C535 H523 0.950 . S
C535 C531 1.393 . S
C535 C534 1.391 1_554 S
H536 C544 0.950 . S
H537 C549 0.950 . S
H538 C546 0.950 . S
H539 C548 0.950 . S
H540 C550 0.950 . S
H541 C552 0.950 . S
H542 C554 0.950 . S
H543 C555 0.950 . S
C544 H536 0.950 . S
C544 C545 1.386 . S
C544 C546 1.391 . S
C545 C544 1.386 . S
C545 C549 1.393 . S
C546 H538 0.950 . S
C546 C544 1.391 . S
C546 C547 1.400 . S
C547 C546 1.400 . S
C547 C548 1.398 . S
C547 C553 1.491 . S
C548 H539 0.950 . S
C548 C547 1.398 . S
C548 C549 1.391 . S
C549 H537 0.950 . S
C549 C545 1.393 . S
C549 C548 1.391 . S
C550 H540 0.950 . S
C550 C551 1.386 . S
C550 C552 1.391 . S
C551 C550 1.386 . S
C551 C555 1.393 . S
C552 H541 0.950 . S
C552 C550 1.391 . S
C552 C553 1.400 . S
C553 C547 1.491 . S
C553 C552 1.400 . S
C553 C554 1.398 . S
C554 H542 0.950 . S
C554 C553 1.398 . S
C554 C555 1.391 . S
C555 H543 0.950 . S
C555 C551 1.393 . S
C555 C554 1.391 . S
H556 C564 0.950 . S
H557 C569 0.950 . S
H558 C566 0.950 . S
H559 C568 0.950 . S
H560 C570 0.950 . S
H561 C572 0.950 . S
H562 C574 0.950 . S
H563 C575 0.950 . S
C564 H556 0.950 . S
C564 C565 1.386 . S
C564 C566 1.391 . S
C565 C564 1.386 . S
C565 C569 1.393 . S
C566 H558 0.950 . S
C566 C564 1.391 . S
C566 C567 1.400 . S
C567 C566 1.400 . S
C567 C568 1.398 . S
C567 C573 1.491 . S
C568 H559 0.950 . S
C568 C567 1.398 . S
C568 C569 1.391 . S
C569 H557 0.950 . S
C569 C565 1.393 . S
C569 C568 1.391 . S
C570 H560 0.950 . S
C570 C571 1.386 . S
C570 C572 1.391 . S
C571 C570 1.386 . S
C571 C575 1.393 . S
C572 H561 0.950 . S
C572 C570 1.391 . S
C572 C573 1.400 . S
C573 C567 1.491 . S
C573 C572 1.400 . S
C573 C574 1.398 . S
C574 H562 0.950 . S
C574 C573 1.398 . S
C574 C575 1.391 . S
C575 H563 0.950 . S
C575 C571 1.393 . S
C575 C574 1.391 . S
H576 C584 0.950 . S
H577 C589 0.950 . S
H578 C586 0.950 . S
H579 C588 0.950 . S
H580 C590 0.977 . S
H581 C592 0.950 . S
H582 C594 0.950 . S
H583 C595 0.950 . S
C584 H576 0.950 . S
C584 C585 1.386 1_655 S
C584 C586 1.391 . S
C585 C584 1.386 1_455 S
C585 C589 1.393 . S
C586 H578 0.950 . S
C586 C584 1.391 . S
C586 C587 1.404 . S
C587 C586 1.404 . S
C587 C588 1.394 1_655 S
C587 C593 1.492 . S
C588 H579 0.950 . S
C588 C587 1.394 1_455 S
C588 C589 1.391 . S
C589 H577 0.950 . S
C589 C585 1.393 . S
C589 C588 1.391 . S
C590 H580 0.977 . S
C590 C591 1.349 1_455 S
C590 C592 1.403 . S
C591 C590 1.349 1_655 S
C591 C595 1.393 . S
C592 H581 0.950 . S
C592 C590 1.403 . S
C592 C593 1.400 1_455 S
C593 C587 1.492 . S
C593 C592 1.400 1_655 S
C593 C594 1.398 . S
C594 H582 0.950 . S
C594 C593 1.398 . S
C594 C595 1.391 . S
C595 H583 0.950 . S
C595 C591 1.393 . S
C595 C594 1.391 . S
H596 C604 0.950 . S
H597 C609 0.950 . S
H598 C606 0.950 . S
H599 C608 0.950 . S
H600 C610 0.950 . S
H601 C612 0.950 . S
H602 C614 0.950 . S
H603 C615 0.950 . S
C604 H596 0.950 . S
C604 C605 1.386 . S
C604 C606 1.391 1_554 S
C605 C604 1.386 . S
C605 C609 1.393 . S
C606 H598 0.950 . S
C606 C604 1.391 1_556 S
C606 C607 1.400 . S
C607 C606 1.400 . S
C607 C608 1.398 . S
C607 C613 1.491 . S
C608 H599 0.950 . S
C608 C607 1.398 . S
C608 C609 1.391 1_556 S
C609 H597 0.950 . S
C609 C605 1.393 . S
C609 C608 1.391 1_554 S
C610 H600 0.950 . S
C610 C611 1.386 . S
C610 C612 1.391 . S
C611 C610 1.386 . S
C611 C615 1.393 . S
C612 H601 0.950 . S
C612 C610 1.391 . S
C612 C613 1.400 . S
C613 C607 1.491 . S
C613 C612 1.400 . S
C613 C614 1.398 . S
C614 H602 0.950 . S
C614 C613 1.398 . S
C614 C615 1.391 . S
C615 H603 0.950 . S
C615 C611 1.393 . S
C615 C614 1.391 . S
H616 C624 0.950 . S
H617 C629 0.950 . S
H618 C626 0.950 . S
H619 C628 0.950 . S
H620 C630 0.950 . S
H621 C632 0.950 . S
H622 C634 0.950 . S
H623 C635 0.950 . S
C624 H616 0.950 . S
C624 C625 1.386 . S
C624 C626 1.391 . S
C625 C624 1.386 . S
C625 C629 1.393 . S
C626 H618 0.950 . S
C626 C624 1.391 . S
C626 C627 1.400 . S
C627 C626 1.400 . S
C627 C628 1.398 . S
C627 C633 1.491 . S
C628 H619 0.950 . S
C628 C627 1.398 . S
C628 C629 1.391 . S
C629 H617 0.950 . S
C629 C625 1.393 . S
C629 C628 1.391 . S
C630 H620 0.950 . S
C630 C631 1.386 . S
C630 C632 1.391 . S
C631 C630 1.386 . S
C631 C635 1.393 . S
C632 H621 0.950 . S
C632 C630 1.391 . S
C632 C633 1.400 . S
C633 C627 1.491 . S
C633 C632 1.400 . S
C633 C634 1.398 . S
C634 H622 0.950 . S
C634 C633 1.398 . S
C634 C635 1.391 . S
C635 H623 0.950 . S
C635 C631 1.393 . S
C635 C634 1.391 . S
H636 C644 0.950 . S
H637 C649 0.950 . S
H638 C646 0.950 . S
H639 C648 0.950 . S
H640 C650 0.950 . S
H641 C652 0.950 . S
H642 C654 0.950 . S
H643 C655 0.950 . S
C644 H636 0.950 . S
C644 C645 1.386 . S
C644 C646 1.391 . S
C645 C644 1.386 . S
C645 C649 1.393 . S
C646 H638 0.950 . S
C646 C644 1.391 . S
C646 C647 1.400 . S
C647 C646 1.400 . S
C647 C648 1.398 . S
C647 C653 1.491 . S
C648 H639 0.950 . S
C648 C647 1.398 . S
C648 C649 1.391 . S
C649 H637 0.950 . S
C649 C645 1.393 . S
C649 C648 1.391 . S
C650 H640 0.950 . S
C650 C651 1.386 . S
C650 C652 1.391 . S
C651 C650 1.386 . S
C651 C655 1.393 . S
C652 H641 0.950 . S
C652 C650 1.391 . S
C652 C653 1.400 . S
C653 C647 1.491 . S
C653 C652 1.400 . S
C653 C654 1.398 . S
C654 H642 0.950 . S
C654 C653 1.398 . S
C654 C655 1.391 . S
C655 H643 0.950 . S
C655 C651 1.393 . S
C655 C654 1.391 . S
H656 C664 0.950 . S
H657 C669 0.950 . S
H658 C666 0.950 . S
H659 C668 0.950 . S
H660 C670 0.950 . S
H661 C672 0.950 . S
H662 C674 0.950 . S
H663 C675 0.950 . S
C664 H656 0.950 . S
C664 C665 1.386 1_455 S
C664 C666 1.391 . S
C665 C664 1.386 1_655 S
C665 C669 1.393 . S
C666 H658 0.950 . S
C666 C664 1.391 . S
C666 C667 1.400 1_455 S
C667 C666 1.400 1_655 S
C667 C668 1.398 . S
C667 C673 1.491 1_655 S
C668 H659 0.950 . S
C668 C667 1.398 . S
C668 C669 1.391 . S
C669 H657 0.950 . S
C669 C665 1.393 . S
C669 C668 1.391 . S
C670 H660 0.950 . S
C670 C671 1.386 1_655 S
C670 C672 1.391 . S
C671 C670 1.386 1_455 S
C671 C675 1.393 . S
C672 H661 0.950 . S
C672 C670 1.391 . S
C672 C673 1.401 1_655 S
C673 C667 1.491 1_455 S
C673 C672 1.401 1_455 S
C673 C674 1.397 . S
C674 H662 0.950 . S
C674 C673 1.397 . S
C674 C675 1.391 . S
C675 H663 0.950 . S
C675 C671 1.393 . S
C675 C674 1.391 . S
H676 C684 0.950 . S
H677 C689 0.950 . S
H678 C686 0.950 . S
H679 C688 0.950 . S
H680 C690 0.950 . S
H681 C692 0.950 . S
H682 C694 0.950 . S
H683 C695 0.950 . S
C684 H676 0.950 . S
C684 C685 1.386 . S
C684 C686 1.391 . S
C685 C684 1.386 . S
C685 C689 1.393 . S
C686 H678 0.950 . S
C686 C684 1.391 . S
C686 C687 1.400 . S
C687 C686 1.400 . S
C687 C688 1.398 . S
C687 C693 1.491 . S
C688 H679 0.950 . S
C688 C687 1.398 . S
C688 C689 1.391 . S
C689 H677 0.950 . S
C689 C685 1.393 . S
C689 C688 1.391 . S
C690 H680 0.950 . S
C690 C691 1.386 . S
C690 C692 1.391 1_556 S
C691 C690 1.386 . S
C691 C695 1.393 . S
C692 H681 0.950 . S
C692 C690 1.391 1_554 S
C692 C693 1.400 . S
C693 C687 1.491 . S
C693 C692 1.400 . S
C693 C694 1.398 . S
C694 H682 0.950 . S
C694 C693 1.398 . S
C694 C695 1.391 1_554 S
C695 H683 0.950 . S
C695 C691 1.393 . S
C695 C694 1.391 1_556 S
H696 C704 0.950 . S
H697 C709 0.950 . S
H698 C706 0.950 . S
H699 C708 0.950 . S
H700 C710 0.950 . S
H701 C712 0.950 . S
H702 C714 0.950 . S
H703 C715 0.950 . S
C704 H696 0.950 . S
C704 C705 1.386 . S
C704 C706 1.391 . S
C705 C704 1.386 . S
C705 C709 1.393 . S
C706 H698 0.950 . S
C706 C704 1.391 . S
C706 C707 1.400 . S
C707 C706 1.400 . S
C707 C708 1.398 . S
C707 C713 1.491 . S
C708 H699 0.950 . S
C708 C707 1.398 . S
C708 C709 1.391 . S
C709 H697 0.950 . S
C709 C705 1.393 . S
C709 C708 1.391 . S
C710 H700 0.950 . S
C710 C711 1.386 . S
C710 C712 1.391 . S
C711 C710 1.386 . S
C711 C715 1.393 . S
C712 H701 0.950 . S
C712 C710 1.391 . S
C712 C713 1.400 . S
C713 C707 1.491 . S
C713 C712 1.400 . S
C713 C714 1.398 . S
C714 H702 0.950 . S
C714 C713 1.398 . S
C714 C715 1.391 . S
C715 H703 0.950 . S
C715 C711 1.393 . S
C715 C714 1.391 . S
H716 C724 0.950 . S
H717 C729 0.950 . S
H718 C726 0.950 . S
H719 C728 0.950 . S
H720 C730 0.950 . S
H721 C732 0.950 . S
H722 C734 0.950 . S
H723 C735 0.950 . S
C724 H716 0.950 . S
C724 C725 1.386 . S
C724 C726 1.391 . S
C725 C724 1.386 . S
C725 C729 1.393 . S
C726 H718 0.950 . S
C726 C724 1.391 . S
C726 C727 1.400 . S
C727 C726 1.400 . S
C727 C728 1.398 . S
C727 C733 1.491 . S
C728 H719 0.950 . S
C728 C727 1.398 . S
C728 C729 1.391 . S
C729 H717 0.950 . S
C729 C725 1.393 . S
C729 C728 1.391 . S
C730 H720 0.950 . S
C730 C731 1.386 . S
C730 C732 1.391 . S
C731 C730 1.386 . S
C731 C735 1.393 . S
C732 H721 0.950 . S
C732 C730 1.391 . S
C732 C733 1.400 . S
C733 C727 1.491 . S
C733 C732 1.400 . S
C733 C734 1.398 . S
C734 H722 0.950 . S
C734 C733 1.398 . S
C734 C735 1.391 . S
C735 H723 0.950 . S
C735 C731 1.393 . S
C735 C734 1.391 . S
H736 C744 0.950 . S
H737 C749 0.950 . S
H738 C746 0.950 . S
H739 C748 0.950 . S
H740 C750 0.950 . S
H741 C752 0.950 . S
H742 C754 0.950 . S
H743 C755 0.950 . S
C744 H736 0.950 . S
C744 C745 1.386 . S
C744 C746 1.391 . S
C745 C744 1.386 . S
C745 C749 1.393 . S
C746 H738 0.950 . S
C746 C744 1.391 . S
C746 C747 1.400 . S
C747 C746 1.400 . S
C747 C748 1.398 . S
C747 C753 1.491 . S
C748 H739 0.950 . S
C748 C747 1.398 . S
C748 C749 1.391 . S
C749 H737 0.950 . S
C749 C745 1.393 . S
C749 C748 1.391 . S
C750 H740 0.950 . S
C750 C751 1.386 . S
C750 C752 1.391 . S
C751 C750 1.386 . S
C751 C755 1.393 . S
C752 H741 0.950 . S
C752 C750 1.391 . S
C752 C753 1.400 . S
C753 C747 1.491 . S
C753 C752 1.400 . S
C753 C754 1.398 . S
C754 H742 0.950 . S
C754 C753 1.398 . S
C754 C755 1.391 . S
C755 H743 0.950 . S
C755 C751 1.393 . S
C755 C754 1.391 . S
H756 C764 0.950 . S
H757 C769 0.950 . S
H758 C766 0.950 . S
H759 C768 0.950 . S
H760 C770 0.950 . S
H761 C772 0.950 . S
H762 C774 0.950 . S
H763 C775 0.950 . S
C764 H756 0.950 . S
C764 C765 1.386 . S
C764 C766 1.391 . S
C765 C764 1.386 . S
C765 C769 1.393 . S
C766 H758 0.950 . S
C766 C764 1.391 . S
C766 C767 1.400 . S
C767 C766 1.400 . S
C767 C768 1.398 . S
C767 C773 1.491 . S
C768 H759 0.950 . S
C768 C767 1.398 . S
C768 C769 1.391 . S
C769 H757 0.950 . S
C769 C765 1.393 . S
C769 C768 1.391 . S
C770 H760 0.950 . S
C770 C771 1.386 . S
C770 C772 1.391 . S
C771 C770 1.386 . S
C771 C775 1.393 . S
C772 H761 0.950 . S
C772 C770 1.391 . S
C772 C773 1.400 . S
C773 C767 1.491 . S
C773 C772 1.400 . S
C773 C774 1.398 . S
C774 H762 0.950 . S
C774 C773 1.398 . S
C774 C775 1.391 . S
C775 H763 0.950 . S
C775 C771 1.393 . S
C775 C774 1.391 . S
H776 C784 0.950 . S
H777 C789 0.950 . S
H778 C786 0.950 . S
H779 C788 0.945 1_655 S
H780 C790 0.950 . S
H781 C792 0.950 . S
H782 C794 0.950 . S
H783 C795 0.950 . S
C784 H776 0.950 . S
C784 C785 1.386 . S
C784 C786 1.391 . S
C785 C784 1.386 . S
C785 C789 1.393 . S
C786 H778 0.950 . S
C786 C784 1.391 . S
C786 C787 1.404 . S
C787 C786 1.404 . S
C787 C788 1.399 . S
C787 C793 1.486 1_455 S
C788 H779 0.945 1_455 S
C788 C787 1.399 . S
C788 C789 1.391 . S
C789 H777 0.950 . S
C789 C785 1.393 . S
C789 C788 1.391 . S
C790 H780 0.950 . S
C790 C791 1.386 . S
C790 C792 1.391 . S
C791 C790 1.386 . S
C791 C795 1.393 . S
C792 H781 0.950 . S
C792 C790 1.391 . S
C792 C793 1.400 . S
C793 C787 1.486 1_655 S
C793 C792 1.400 . S
C793 C794 1.398 . S
C794 H782 0.950 . S
C794 C793 1.398 . S
C794 C795 1.391 . S
C795 H783 0.950 . S
C795 C791 1.393 . S
C795 C794 1.391 . S
H796 C804 0.950 . S
H797 C809 0.950 . S
H798 C806 0.950 . S
H799 C808 0.950 . S
H800 C810 0.950 . S
H801 C812 0.950 . S
H802 C814 0.950 . S
H803 C815 0.950 . S
C804 H796 0.950 . S
C804 C805 1.386 . S
C804 C806 1.391 . S
C805 C804 1.386 . S
C805 C809 1.393 . S
C806 H798 0.950 . S
C806 C804 1.391 . S
C806 C807 1.400 . S
C807 C806 1.400 . S
C807 C808 1.398 . S
C807 C813 1.491 . S
C808 H799 0.950 . S
C808 C807 1.398 . S
C808 C809 1.391 . S
C809 H797 0.950 . S
C809 C805 1.393 . S
C809 C808 1.391 . S
C810 H800 0.950 . S
C810 C811 1.386 . S
C810 C812 1.391 1_556 S
C811 C810 1.386 . S
C811 C815 1.393 . S
C812 H801 0.950 . S
C812 C810 1.391 1_554 S
C812 C813 1.400 . S
C813 C807 1.491 . S
C813 C812 1.400 . S
C813 C814 1.398 . S
C814 H802 0.950 . S
C814 C813 1.398 . S
C814 C815 1.391 1_554 S
C815 H803 0.950 . S
C815 C811 1.393 . S
C815 C814 1.391 1_556 S
H816 C824 0.950 . S
H817 C829 0.950 . S
H818 C826 0.950 . S
H819 C828 0.950 . S
H820 C830 0.950 . S
H821 C832 0.950 . S
H822 C834 0.950 . S
H823 C835 0.950 . S
C824 H816 0.950 . S
C824 C825 1.386 . S
C824 C826 1.391 . S
C825 C824 1.386 . S
C825 C829 1.393 . S
C826 H818 0.950 . S
C826 C824 1.391 . S
C826 C827 1.400 . S
C827 C826 1.400 . S
C827 C828 1.398 . S
C827 C833 1.491 . S
C828 H819 0.950 . S
C828 C827 1.398 . S
C828 C829 1.391 . S
C829 H817 0.950 . S
C829 C825 1.393 . S
C829 C828 1.391 . S
C830 H820 0.950 . S
C830 C831 1.386 . S
C830 C832 1.391 . S
C831 C830 1.386 . S
C831 C835 1.393 . S
C832 H821 0.950 . S
C832 C830 1.391 . S
C832 C833 1.400 . S
C833 C827 1.491 . S
C833 C832 1.400 . S
C833 C834 1.398 . S
C834 H822 0.950 . S
C834 C833 1.398 . S
C834 C835 1.391 . S
C835 H823 0.950 . S
C835 C831 1.393 . S
C835 C834 1.391 . S
H836 C844 0.950 . S
H837 C849 0.950 . S
H838 C846 0.950 . S
H839 C848 0.950 . S
H840 C850 0.950 . S
H841 C852 0.950 . S
H842 C854 0.950 . S
H843 C855 0.950 . S
C844 H836 0.950 . S
C844 C845 1.386 . S
C844 C846 1.391 . S
C845 C844 1.386 . S
C845 C849 1.393 . S
C846 H838 0.950 . S
C846 C844 1.391 . S
C846 C847 1.400 . S
C847 C846 1.400 . S
C847 C848 1.398 . S
C847 C853 1.491 . S
C848 H839 0.950 . S
C848 C847 1.398 . S
C848 C849 1.391 . S
C849 H837 0.950 . S
C849 C845 1.393 . S
C849 C848 1.391 . S
C850 H840 0.950 . S
C850 C851 1.386 . S
C850 C852 1.391 . S
C851 C850 1.386 . S
C851 C855 1.393 . S
C852 H841 0.950 . S
C852 C850 1.391 . S
C852 C853 1.400 . S
C853 C847 1.491 . S
C853 C852 1.400 . S
C853 C854 1.398 . S
C854 H842 0.950 . S
C854 C853 1.398 . S
C854 C855 1.391 . S
C855 H843 0.950 . S
C855 C851 1.393 . S
C855 C854 1.391 . S
H856 C864 0.950 . S
H857 C869 0.944 1_655 S
H858 C866 0.950 . S
H859 C868 0.950 . S
H860 C870 0.950 . S
H861 C872 0.950 . S
H862 C874 0.926 1_455 S
H863 C875 0.950 . S
C864 H856 0.950 . S
C864 C865 1.386 . S
C864 C866 1.391 . S
C865 C864 1.386 . S
C865 C869 1.410 . S
C866 H858 0.950 . S
C866 C864 1.391 . S
C866 C867 1.394 1_455 S
C867 C866 1.394 1_655 S
C867 C868 1.402 . S
C867 C873 1.494 . S
C868 H859 0.950 . S
C868 C867 1.402 . S
C868 C869 1.382 1_655 S
C869 H857 0.944 1_455 S
C869 C865 1.410 . S
C869 C868 1.382 1_455 S
C870 H860 0.950 . S
C870 C871 1.386 . S
C870 C872 1.391 . S
C871 C870 1.386 . S
C871 C875 1.393 . S
C872 H861 0.950 . S
C872 C870 1.391 . S
C872 C873 1.400 . S
C873 C867 1.494 . S
C873 C872 1.400 . S
C873 C874 1.410 . S
C874 H862 0.926 1_655 S
C874 C873 1.410 . S
C874 C875 1.406 . S
C875 H863 0.950 . S
C875 C871 1.393 . S
C875 C874 1.406 . S
H876 C884 0.950 . S
H877 C889 0.950 . S
H878 C886 0.950 . S
H879 C888 0.950 . S
H880 C890 0.950 . S
H881 C892 0.950 . S
H882 C894 0.950 . S
H883 C895 0.950 . S
C884 H876 0.950 . S
C884 C885 1.386 . S
C884 C886 1.391 1_554 S
C885 C884 1.386 . S
C885 C889 1.393 . S
C886 H878 0.950 . S
C886 C884 1.391 1_556 S
C886 C887 1.400 . S
C887 C886 1.400 . S
C887 C888 1.399 . S
C887 C893 1.491 . S
C888 H879 0.950 . S
C888 C887 1.399 . S
C888 C889 1.389 1_556 S
C889 H877 0.950 . S
C889 C885 1.393 . S
C889 C888 1.389 1_554 S
C890 H880 0.950 . S
C890 C891 1.386 . S
C890 C892 1.391 . S
C891 C890 1.386 . S
C891 C895 1.393 . S
C892 H881 0.950 . S
C892 C890 1.391 . S
C892 C893 1.400 . S
C893 C887 1.491 . S
C893 C892 1.400 . S
C893 C894 1.398 . S
C894 H882 0.950 . S
C894 C893 1.398 . S
C894 C895 1.391 . S
C895 H883 0.950 . S
C895 C891 1.393 . S
C895 C894 1.391 . S
H896 C904 0.950 . S
H897 C909 0.950 . S
H898 C906 0.950 . S
H899 C908 0.950 . S
H900 C910 0.950 . S
H901 C912 0.950 . S
H902 C914 0.950 . S
H903 C915 0.950 . S
C904 H896 0.950 . S
C904 C905 1.386 . S
C904 C906 1.391 . S
C905 C904 1.386 . S
C905 C909 1.393 . S
C906 H898 0.950 . S
C906 C904 1.391 . S
C906 C907 1.400 . S
C907 C906 1.400 . S
C907 C908 1.398 . S
C907 C913 1.491 . S
C908 H899 0.950 . S
C908 C907 1.398 . S
C908 C909 1.391 . S
C909 H897 0.950 . S
C909 C905 1.393 . S
C909 C908 1.391 . S
C910 H900 0.950 . S
C910 C911 1.386 . S
C910 C912 1.391 . S
C911 C910 1.386 . S
C911 C915 1.393 . S
C912 H901 0.950 . S
C912 C910 1.391 . S
C912 C913 1.400 . S
C913 C907 1.491 . S
C913 C912 1.400 . S
C913 C914 1.398 . S
C914 H902 0.950 . S
C914 C913 1.398 . S
C914 C915 1.391 . S
C915 H903 0.950 . S
C915 C911 1.393 . S
C915 C914 1.391 . S
H916 C924 0.950 . S
H917 C929 0.950 . S
H918 C926 0.950 . S
H919 C928 0.950 . S
H920 C930 0.950 . S
H921 C932 0.950 . S
H922 C934 0.950 . S
H923 C935 0.950 . S
C924 H916 0.950 . S
C924 C925 1.386 . S
C924 C926 1.391 . S
C925 C924 1.386 . S
C925 C929 1.393 . S
C926 H918 0.950 . S
C926 C924 1.391 . S
C926 C927 1.400 . S
C927 C926 1.400 . S
C927 C928 1.398 . S
C927 C933 1.491 . S
C928 H919 0.950 . S
C928 C927 1.398 . S
C928 C929 1.391 . S
C929 H917 0.950 . S
C929 C925 1.393 . S
C929 C928 1.391 . S
C930 H920 0.950 . S
C930 C931 1.386 . S
C930 C932 1.391 . S
C931 C930 1.386 . S
C931 C935 1.393 . S
C932 H921 0.950 . S
C932 C930 1.391 . S
C932 C933 1.400 . S
C933 C927 1.491 . S
C933 C932 1.400 . S
C933 C934 1.398 . S
C934 H922 0.950 . S
C934 C933 1.398 . S
C934 C935 1.391 . S
C935 H923 0.950 . S
C935 C931 1.393 . S
C935 C934 1.391 . S
H936 C944 0.950 . S
H937 C949 0.969 . S
H938 C946 0.950 . S
H939 C948 0.950 . S
H940 C950 0.950 . S
H941 C952 0.950 . S
H942 C954 0.950 . S
H943 C955 0.950 . S
C944 H936 0.950 . S
C944 C945 1.386 . S
C944 C946 1.391 . S
C945 C944 1.386 . S
C945 C949 1.365 1_455 S
C946 H938 0.950 . S
C946 C944 1.391 . S
C946 C947 1.400 . S
C947 C946 1.400 . S
C947 C948 1.398 1_455 S
C947 C953 1.493 . S
C948 H939 0.950 . S
C948 C947 1.398 1_655 S
C948 C949 1.400 . S
C949 H937 0.969 . S
C949 C945 1.365 1_655 S
C949 C948 1.400 . S
C950 H940 0.950 . S
C950 C951 1.386 . S
C950 C952 1.391 . S
C951 C950 1.386 . S
C951 C955 1.393 1_655 S
C952 H941 0.950 . S
C952 C950 1.391 . S
C952 C953 1.392 1_655 S
C953 C947 1.493 . S
C953 C952 1.392 1_455 S
C953 C954 1.404 . S
C954 H942 0.950 . S
C954 C953 1.404 . S
C954 C955 1.391 . S
C955 H943 0.950 . S
C955 C951 1.393 1_455 S
C955 C954 1.391 . S
H956 C964 0.950 . S
H957 C969 0.950 . S
H958 C966 0.950 . S
H959 C968 0.950 . S
H960 C970 0.950 . S
H961 C972 0.950 . S
H962 C974 0.950 . S
H963 C975 0.950 . S
C964 H956 0.950 . S
C964 C965 1.386 . S
C964 C966 1.391 . S
C965 C964 1.386 . S
C965 C969 1.393 . S
C966 H958 0.950 . S
C966 C964 1.391 . S
C966 C967 1.400 . S
C967 C966 1.400 . S
C967 C968 1.398 . S
C967 C973 1.491 . S
C968 H959 0.950 . S
C968 C967 1.398 . S
C968 C969 1.391 . S
C969 H957 0.950 . S
C969 C965 1.393 . S
C969 C968 1.391 . S
C970 H960 0.950 . S
C970 C971 1.386 . S
C970 C972 1.391 1_554 S
C971 C970 1.386 . S
C971 C975 1.393 . S
C972 H961 0.950 . S
C972 C970 1.391 1_556 S
C972 C973 1.400 . S
C973 C967 1.491 . S
C973 C972 1.400 . S
C973 C974 1.398 . S
C974 H962 0.950 . S
C974 C973 1.398 . S
C974 C975 1.391 1_556 S
C975 H963 0.950 . S
C975 C971 1.393 . S
C975 C974 1.391 1_554 S
H976 C984 0.950 . S
H977 C989 0.950 . S
H978 C986 0.950 . S
H979 C988 0.950 . S
H980 C990 0.950 . S
H981 C992 0.950 . S
H982 C994 0.950 . S
H983 C995 0.950 . S
C984 H976 0.950 . S
C984 C985 1.386 . S
C984 C986 1.391 . S
C985 C984 1.386 . S
C985 C989 1.393 . S
C986 H978 0.950 . S
C986 C984 1.391 . S
C986 C987 1.400 . S
C987 C986 1.400 . S
C987 C988 1.398 . S
C987 C993 1.491 . S
C988 H979 0.950 . S
C988 C987 1.398 . S
C988 C989 1.391 . S
C989 H977 0.950 . S
C989 C985 1.393 . S
C989 C988 1.391 . S
C990 H980 0.950 . S
C990 C991 1.386 . S
C990 C992 1.391 . S
C991 C990 1.386 . S
C991 C995 1.393 . S
C992 H981 0.950 . S
C992 C990 1.391 . S
C992 C993 1.400 . S
C993 C987 1.491 . S
C993 C992 1.400 . S
C993 C994 1.398 . S
C994 H982 0.950 . S
C994 C993 1.398 . S
C994 C995 1.391 . S
C995 H983 0.950 . S
C995 C991 1.393 . S
C995 C994 1.391 . S
H996 C1004 0.950 . S
H997 C1009 0.950 . S
H998 C1006 0.950 . S
H999 C1008 0.950 . S
H1000 C1010 0.950 . S
H1001 C1012 0.950 . S
H1002 C1014 0.950 . S
H1003 C1015 0.950 . S
C1004 H996 0.950 . S
C1004 C1005 1.386 . S
C1004 C1006 1.391 . S
C1005 C1004 1.386 . S
C1005 C1009 1.393 . S
C1006 H998 0.950 . S
C1006 C1004 1.391 . S
C1006 C1007 1.400 . S
C1007 C1006 1.400 . S
C1007 C1008 1.398 . S
C1007 C1013 1.491 . S
C1008 H999 0.950 . S
C1008 C1007 1.398 . S
C1008 C1009 1.391 . S
C1009 H997 0.950 . S
C1009 C1005 1.393 . S
C1009 C1008 1.391 . S
C1010 H1000 0.950 . S
C1010 C1011 1.386 . S
C1010 C1012 1.391 . S
C1011 C1010 1.386 . S
C1011 C1015 1.393 . S
C1012 H1001 0.950 . S
C1012 C1010 1.391 . S
C1012 C1013 1.400 . S
C1013 C1007 1.491 . S
C1013 C1012 1.400 . S
C1013 C1014 1.398 . S
C1014 H1002 0.950 . S
C1014 C1013 1.398 . S
C1014 C1015 1.391 . S
C1015 H1003 0.950 . S
C1015 C1011 1.393 . S
C1015 C1014 1.391 . S
H1016 C1024 0.950 . S
H1017 C1029 0.950 . S
H1018 C1026 0.950 . S
H1019 C1028 0.950 . S
H1020 C1030 0.950 . S
H1021 C1032 0.950 . S
H1022 C1034 0.950 . S
H1023 C1035 0.931 1_655 S
C1024 H1016 0.950 . S
C1024 C1025 1.386 . S
C1024 C1026 1.391 . S
C1025 C1024 1.386 . S
C1025 C1029 1.393 1_655 S
C1026 H1018 0.950 . S
C1026 C1024 1.391 . S
C1026 C1027 1.405 . S
C1027 C1026 1.405 . S
C1027 C1028 1.395 1_655 S
C1027 C1033 1.489 1_655 S
C1028 H1019 0.950 . S
C1028 C1027 1.395 1_455 S
C1028 C1029 1.391 . S
C1029 H1017 0.950 . S
C1029 C1025 1.393 1_455 S
C1029 C1028 1.391 . S
C1030 H1020 0.950 . S
C1030 C1031 1.386 . S
C1030 C1032 1.391 . S
C1031 C1030 1.386 . S
C1031 C1035 1.422 . S
C1032 H1021 0.950 . S
C1032 C1030 1.391 . S
C1032 C1033 1.400 . S
C1033 C1027 1.489 1_455 S
C1033 C1032 1.400 . S
C1033 C1034 1.398 1_455 S
C1034 H1022 0.950 . S
C1034 C1033 1.398 1_655 S
C1034 C1035 1.382 1_655 S
C1035 H1023 0.931 1_455 S
C1035 C1031 1.422 . S
C1035 C1034 1.382 1_455 S
H1036 C1044 0.950 . S
H1037 C1049 0.950 . S
H1038 C1046 0.950 . S
H1039 C1048 0.950 . S
H1040 C1050 0.950 . S
H1041 C1052 0.952 . S
H1042 C1054 0.950 . S
H1043 C1055 0.950 . S
C1044 H1036 0.950 . S
C1044 C1045 1.386 . S
C1044 C1046 1.391 . S
C1045 C1044 1.386 . S
C1045 C1049 1.393 . S
C1046 H1038 0.950 . S
C1046 C1044 1.391 . S
C1046 C1047 1.400 . S
C1047 C1046 1.400 . S
C1047 C1048 1.398 . S
C1047 C1053 1.491 . S
C1048 H1039 0.950 . S
C1048 C1047 1.398 . S
C1048 C1049 1.391 . S
C1049 H1037 0.950 . S
C1049 C1045 1.393 . S
C1049 C1048 1.391 . S
C1050 H1040 0.950 . S
C1050 C1051 1.386 . S
C1050 C1052 1.382 1_556 S
C1051 C1050 1.386 . S
C1051 C1055 1.393 . S
C1052 H1041 0.952 . S
C1052 C1050 1.382 1_554 S
C1052 C1053 1.407 . S
C1053 C1047 1.491 . S
C1053 C1052 1.407 . S
C1053 C1054 1.398 . S
C1054 H1042 0.950 . S
C1054 C1053 1.398 . S
C1054 C1055 1.391 1_554 S
C1055 H1043 0.950 . S
C1055 C1051 1.393 . S
C1055 C1054 1.391 1_556 S
H1056 C1064 0.950 . S
H1057 C1069 0.950 1_556 S
H1058 C1066 0.950 . S
H1059 C1068 0.950 . S
H1060 C1070 0.950 . S
H1061 C1072 0.950 . S
H1062 C1074 0.950 . S
H1063 C1075 0.950 1_554 S
C1064 H1056 0.950 . S
C1064 C1065 1.386 . S
C1064 C1066 1.391 . S
C1065 C1064 1.386 . S
C1065 C1069 1.393 1_655 S
C1066 H1058 0.950 . S
C1066 C1064 1.391 . S
C1066 C1067 1.400 . S
C1067 C1066 1.400 . S
C1067 C1068 1.398 1_654 S
C1067 C1073 1.491 1_644 S
C1068 H1059 0.950 . S
C1068 C1067 1.398 1_456 S
C1068 C1069 1.391 1_556 S
C1069 H1057 0.950 1_554 S
C1069 C1065 1.393 1_455 S
C1069 C1068 1.391 1_554 S
C1070 H1060 0.950 . S
C1070 C1071 1.386 . S
C1070 C1072 1.391 . S
C1071 C1070 1.386 . S
C1071 C1075 1.393 1_455 S
C1072 H1061 0.950 . S
C1072 C1070 1.391 . S
C1072 C1073 1.400 . S
C1073 C1067 1.491 1_466 S
C1073 C1072 1.400 . S
C1073 C1074 1.398 1_456 S
C1074 H1062 0.950 . S
C1074 C1073 1.398 1_654 S
C1074 C1075 1.391 1_554 S
C1075 H1063 0.950 1_556 S
C1075 C1071 1.393 1_655 S
C1075 C1074 1.391 1_556 S
H1076 C1084 0.950 . S
H1077 C1089 0.950 . S
H1078 C1086 0.950 . S
H1079 C1088 0.950 . S
H1080 C1090 0.950 . S
H1081 C1092 0.950 . S
H1082 C1094 0.950 . S
H1083 C1095 0.950 . S
C1084 H1076 0.950 . S
C1084 C1085 1.386 . S
C1084 C1086 1.391 . S
C1085 C1084 1.386 . S
C1085 C1089 1.393 . S
C1086 H1078 0.950 . S
C1086 C1084 1.391 . S
C1086 C1087 1.400 . S
C1087 C1086 1.400 . S
C1087 C1088 1.398 . S
C1087 C1093 1.491 . S
C1088 H1079 0.950 . S
C1088 C1087 1.398 . S
C1088 C1089 1.391 . S
C1089 H1077 0.950 . S
C1089 C1085 1.393 . S
C1089 C1088 1.391 . S
C1090 H1080 0.950 . S
C1090 C1091 1.386 . S
C1090 C1092 1.391 . S
C1091 C1090 1.386 . S
C1091 C1095 1.393 . S
C1092 H1081 0.950 . S
C1092 C1090 1.391 . S
C1092 C1093 1.400 . S
C1093 C1087 1.491 . S
C1093 C1092 1.400 . S
C1093 C1094 1.398 . S
C1094 H1082 0.950 . S
C1094 C1093 1.398 . S
C1094 C1095 1.391 . S
C1095 H1083 0.950 . S
C1095 C1091 1.393 . S
C1095 C1094 1.391 . S
H1096 C1104 0.950 . S
H1097 C1109 0.950 . S
H1098 C1106 0.950 . S
H1099 C1108 0.950 . S
H1100 C1110 0.950 . S
H1101 C1112 0.950 . S
H1102 C1114 0.950 . S
H1103 C1115 0.950 . S
C1104 H1096 0.950 . S
C1104 C1105 1.386 . S
C1104 C1106 1.391 . S
C1105 C1104 1.386 . S
C1105 C1109 1.393 . S
C1106 H1098 0.950 . S
C1106 C1104 1.391 . S
C1106 C1107 1.400 . S
C1107 C1106 1.400 . S
C1107 C1108 1.398 . S
C1107 C1113 1.491 1_545 S
C1108 H1099 0.950 . S
C1108 C1107 1.398 . S
C1108 C1109 1.391 . S
C1109 H1097 0.950 . S
C1109 C1105 1.393 . S
C1109 C1108 1.391 . S
C1110 H1100 0.950 . S
C1110 C1111 1.386 . S
C1110 C1112 1.391 . S
C1111 C1110 1.386 . S
C1111 C1115 1.393 . S
C1112 H1101 0.950 . S
C1112 C1110 1.391 . S
C1112 C1113 1.400 . S
C1113 C1107 1.491 1_565 S
C1113 C1112 1.400 . S
C1113 C1114 1.398 . S
C1114 H1102 0.950 . S
C1114 C1113 1.398 . S
C1114 C1115 1.391 . S
C1115 H1103 0.950 . S
C1115 C1111 1.393 . S
C1115 C1114 1.391 . S
H1116 C1124 0.950 . S
H1117 C1129 0.950 . S
H1118 C1126 0.950 . S
H1119 C1128 0.950 . S
H1120 C1130 0.950 . S
H1121 C1132 0.950 . S
H1122 C1134 0.950 . S
H1123 C1135 0.950 . S
C1124 H1116 0.950 . S
C1124 C1125 1.386 . S
C1124 C1126 1.391 . S
C1125 C1124 1.386 . S
C1125 C1129 1.393 . S
C1126 H1118 0.950 . S
C1126 C1124 1.391 . S
C1126 C1127 1.400 . S
C1127 C1126 1.400 . S
C1127 C1128 1.398 . S
C1127 C1133 1.491 . S
C1128 H1119 0.950 . S
C1128 C1127 1.398 . S
C1128 C1129 1.391 . S
C1129 H1117 0.950 . S
C1129 C1125 1.393 . S
C1129 C1128 1.391 . S
C1130 H1120 0.950 . S
C1130 C1131 1.386 . S
C1130 C1132 1.391 . S
C1131 C1130 1.386 . S
C1131 C1135 1.393 . S
C1132 H1121 0.950 . S
C1132 C1130 1.391 . S
C1132 C1133 1.400 . S
C1133 C1127 1.491 . S
C1133 C1132 1.400 . S
C1133 C1134 1.398 . S
C1134 H1122 0.950 . S
C1134 C1133 1.398 . S
C1134 C1135 1.391 . S
C1135 H1123 0.950 . S
C1135 C1131 1.393 . S
C1135 C1134 1.391 . S
H1136 C1144 0.950 . S
H1137 C1149 0.950 . S
H1138 C1146 0.950 . S
H1139 C1148 0.950 . S
H1140 C1150 0.950 . S
H1141 C1152 0.950 . S
H1142 C1154 0.950 . S
H1143 C1155 0.950 . S
C1144 H1136 0.950 . S
C1144 C1145 1.386 . S
C1144 C1146 1.391 . S
C1145 C1144 1.386 . S
C1145 C1149 1.393 1_655 S
C1146 H1138 0.950 . S
C1146 C1144 1.391 . S
C1146 C1147 1.456 . S
C1147 C1146 1.456 . S
C1147 C1148 1.351 1_655 S
C1147 C1153 1.483 1_665 S
C1148 H1139 0.950 . S
C1148 C1147 1.351 1_455 S
C1148 C1149 1.391 . S
C1149 H1137 0.950 . S
C1149 C1145 1.393 1_455 S
C1149 C1148 1.391 . S
C1150 H1140 0.950 . S
C1150 C1151 1.386 . S
C1150 C1152 1.391 . S
C1151 C1150 1.386 . S
C1151 C1155 1.393 1_455 S
C1152 H1141 0.950 . S
C1152 C1150 1.391 . S
C1152 C1153 1.456 . S
C1153 C1147 1.483 1_445 S
C1153 C1152 1.456 . S
C1153 C1154 1.351 1_455 S
C1154 H1142 0.950 . S
C1154 C1153 1.351 1_655 S
C1154 C1155 1.391 . S
C1155 H1143 0.950 . S
C1155 C1151 1.393 1_655 S
C1155 C1154 1.391 . S
H1156 C1164 0.950 . S
H1157 C1169 0.950 . S
H1158 C1166 0.950 . S
H1159 C1168 0.950 . S
H1160 C1170 0.950 . S
H1161 C1172 0.950 . S
H1162 C1174 0.950 . S
H1163 C1175 0.950 . S
C1164 H1156 0.950 . S
C1164 C1165 1.386 . S
C1164 C1166 1.391 . S
C1165 C1164 1.386 . S
C1165 C1169 1.393 . S
C1166 H1158 0.950 . S
C1166 C1164 1.391 . S
C1166 C1167 1.400 . S
C1167 C1166 1.400 . S
C1167 C1168 1.398 . S
C1167 C1173 1.491 . S
C1168 H1159 0.950 . S
C1168 C1167 1.398 . S
C1168 C1169 1.391 . S
C1169 H1157 0.950 . S
C1169 C1165 1.393 . S
C1169 C1168 1.391 . S
C1170 H1160 0.950 . S
C1170 C1171 1.386 . S
C1170 C1172 1.391 . S
C1171 C1170 1.386 . S
C1171 C1175 1.393 . S
C1172 H1161 0.950 . S
C1172 C1170 1.391 . S
C1172 C1173 1.400 . S
C1173 C1167 1.491 . S
C1173 C1172 1.400 . S
C1173 C1174 1.398 . S
C1174 H1162 0.950 . S
C1174 C1173 1.398 . S
C1174 C1175 1.391 . S
C1175 H1163 0.950 . S
C1175 C1171 1.393 . S
C1175 C1174 1.391 . S
H1176 C1184 0.950 . S
H1177 C1189 0.950 . S
H1178 C1186 0.950 . S
H1179 C1188 0.950 . S
H1180 C1190 0.950 . S
H1181 C1192 0.950 . S
H1182 C1194 0.950 . S
H1183 C1195 0.950 . S
C1184 H1176 0.950 . S
C1184 C1185 1.386 . S
C1184 C1186 1.391 . S
C1185 C1184 1.386 . S
C1185 C1189 1.393 1_554 S
C1186 H1178 0.950 . S
C1186 C1184 1.391 . S
C1186 C1187 1.400 . S
C1187 C1186 1.400 . S
C1187 C1188 1.398 1_554 S
C1187 C1193 1.491 1_564 S
C1188 H1179 0.950 . S
C1188 C1187 1.398 1_556 S
C1188 C1189 1.391 . S
C1189 H1177 0.950 . S
C1189 C1185 1.393 1_556 S
C1189 C1188 1.391 . S
C1190 H1180 0.950 . S
C1190 C1191 1.386 . S
C1190 C1192 1.391 . S
C1191 C1190 1.386 . S
C1191 C1195 1.393 1_556 S
C1192 H1181 0.950 . S
C1192 C1190 1.391 . S
C1192 C1193 1.400 . S
C1193 C1187 1.491 1_546 S
C1193 C1192 1.400 . S
C1193 C1194 1.398 1_556 S
C1194 H1182 0.950 . S
C1194 C1193 1.398 1_554 S
C1194 C1195 1.391 . S
C1195 H1183 0.950 . S
C1195 C1191 1.393 1_554 S
C1195 C1194 1.391 . S
H1196 C1204 0.950 . S
H1197 C1209 0.950 . S
H1198 C1206 0.950 . S
H1199 C1208 0.950 . S
H1200 C1210 0.950 . S
H1201 C1212 0.950 . S
H1202 C1214 0.950 . S
H1203 C1215 0.950 . S
C1204 H1196 0.950 . S
C1204 C1205 1.386 . S
C1204 C1206 1.391 . S
C1205 C1204 1.386 . S
C1205 C1209 1.393 . S
C1206 H1198 0.950 . S
C1206 C1204 1.391 . S
C1206 C1207 1.400 . S
C1207 C1206 1.400 . S
C1207 C1208 1.398 . S
C1207 C1213 1.491 . S
C1208 H1199 0.950 . S
C1208 C1207 1.398 . S
C1208 C1209 1.391 . S
C1209 H1197 0.950 . S
C1209 C1205 1.393 . S
C1209 C1208 1.391 . S
C1210 H1200 0.950 . S
C1210 C1211 1.386 . S
C1210 C1212 1.391 . S
C1211 C1210 1.386 . S
C1211 C1215 1.393 . S
C1212 H1201 0.950 . S
C1212 C1210 1.391 . S
C1212 C1213 1.400 . S
C1213 C1207 1.491 . S
C1213 C1212 1.400 . S
C1213 C1214 1.398 . S
C1214 H1202 0.950 . S
C1214 C1213 1.398 . S
C1214 C1215 1.391 . S
C1215 H1203 0.950 . S
C1215 C1211 1.393 . S
C1215 C1214 1.391 . S
H1216 C1224 0.950 . S
H1217 C1229 0.950 . S
H1218 C1226 0.950 . S
H1219 C1228 0.950 . S
H1220 C1230 0.950 . S
H1221 C1232 0.950 . S
H1222 C1234 0.950 . S
H1223 C1235 0.950 . S
C1224 H1216 0.950 . S
C1224 C1225 1.386 . S
C1224 C1226 1.391 . S
C1225 C1224 1.386 . S
C1225 C1229 1.393 . S
C1226 H1218 0.950 . S
C1226 C1224 1.391 . S
C1226 C1227 1.400 . S
C1227 C1226 1.400 . S
C1227 C1228 1.398 . S
C1227 C1233 1.491 . S
C1228 H1219 0.950 . S
C1228 C1227 1.398 . S
C1228 C1229 1.391 . S
C1229 H1217 0.950 . S
C1229 C1225 1.393 . S
C1229 C1228 1.391 . S
C1230 H1220 0.950 . S
C1230 C1231 1.386 . S
C1230 C1232 1.391 . S
C1231 C1230 1.386 . S
C1231 C1235 1.393 . S
C1232 H1221 0.950 . S
C1232 C1230 1.391 . S
C1232 C1233 1.400 . S
C1233 C1227 1.491 . S
C1233 C1232 1.400 . S
C1233 C1234 1.398 . S
C1234 H1222 0.950 . S
C1234 C1233 1.398 . S
C1234 C1235 1.391 . S
C1235 H1223 0.950 . S
C1235 C1231 1.393 . S
C1235 C1234 1.391 . S
H1236 C1244 0.950 . S
H1237 C1249 0.950 . S
H1238 C1246 0.950 . S
H1239 C1248 0.950 . S
H1240 C1250 0.950 . S
H1241 C1252 0.950 . S
H1242 C1254 0.950 . S
H1243 C1255 0.950 . S
C1244 H1236 0.950 . S
C1244 C1245 1.386 . S
C1244 C1246 1.391 . S
C1245 C1244 1.386 . S
C1245 C1249 1.393 . S
C1246 H1238 0.950 . S
C1246 C1244 1.391 . S
C1246 C1247 1.400 . S
C1247 C1246 1.400 . S
C1247 C1248 1.398 . S
C1247 C1253 1.491 . S
C1248 H1239 0.950 . S
C1248 C1247 1.398 . S
C1248 C1249 1.391 . S
C1249 H1237 0.950 . S
C1249 C1245 1.393 . S
C1249 C1248 1.391 . S
C1250 H1240 0.950 . S
C1250 C1251 1.386 . S
C1250 C1252 1.391 . S
C1251 C1250 1.386 . S
C1251 C1255 1.393 . S
C1252 H1241 0.950 . S
C1252 C1250 1.391 . S
C1252 C1253 1.400 . S
C1253 C1247 1.491 . S
C1253 C1252 1.400 . S
C1253 C1254 1.398 . S
C1254 H1242 0.950 . S
C1254 C1253 1.398 . S
C1254 C1255 1.391 . S
C1255 H1243 0.950 . S
C1255 C1251 1.393 . S
C1255 C1254 1.391 . S
H1256 C1264 0.950 . S
H1257 C1269 0.950 . S
H1258 C1266 0.950 . S
H1259 C1268 0.950 . S
H1260 C1270 0.950 . S
H1261 C1272 0.950 . S
H1262 C1274 0.950 . S
H1263 C1275 0.950 . S
C1264 H1256 0.950 . S
C1264 C1265 1.386 . S
C1264 C1266 1.391 . S
C1265 C1264 1.386 . S
C1265 C1269 1.393 . S
C1266 H1258 0.950 . S
C1266 C1264 1.391 . S
C1266 C1267 1.400 . S
C1267 C1266 1.400 . S
C1267 C1268 1.398 . S
C1267 C1273 1.491 . S
C1268 H1259 0.950 . S
C1268 C1267 1.398 . S
C1268 C1269 1.391 . S
C1269 H1257 0.950 . S
C1269 C1265 1.393 . S
C1269 C1268 1.391 . S
C1270 H1260 0.950 . S
C1270 C1271 1.386 . S
C1270 C1272 1.391 . S
C1271 C1270 1.386 . S
C1271 C1275 1.393 . S
C1272 H1261 0.950 . S
C1272 C1270 1.391 . S
C1272 C1273 1.400 . S
C1273 C1267 1.491 . S
C1273 C1272 1.400 . S
C1273 C1274 1.398 . S
C1274 H1262 0.950 . S
C1274 C1273 1.398 . S
C1274 C1275 1.391 . S
C1275 H1263 0.950 . S
C1275 C1271 1.393 . S
C1275 C1274 1.391 . S
H1276 C1284 0.950 . S
H1277 C1289 0.950 . S
H1278 C1286 0.950 . S
H1279 C1288 0.950 . S
H1280 C1290 0.950 . S
H1281 C1292 0.950 . S
H1282 C1294 0.950 . S
H1283 C1295 0.950 . S
C1284 H1276 0.950 . S
C1284 C1285 1.386 . S
C1284 C1286 1.391 . S
C1285 C1284 1.386 . S
C1285 C1289 1.393 . S
C1286 H1278 0.950 . S
C1286 C1284 1.391 . S
C1286 C1287 1.400 . S
C1287 C1286 1.400 . S
C1287 C1288 1.398 . S
C1287 C1293 1.491 . S
C1288 H1279 0.950 . S
C1288 C1287 1.398 . S
C1288 C1289 1.391 . S
C1289 H1277 0.950 . S
C1289 C1285 1.393 . S
C1289 C1288 1.391 . S
C1290 H1280 0.950 . S
C1290 C1291 1.386 . S
C1290 C1292 1.391 . S
C1291 C1290 1.386 . S
C1291 C1295 1.393 . S
C1292 H1281 0.950 . S
C1292 C1290 1.391 . S
C1292 C1293 1.400 . S
C1293 C1287 1.491 . S
C1293 C1292 1.400 . S
C1293 C1294 1.398 . S
C1294 H1282 0.950 . S
C1294 C1293 1.398 . S
C1294 C1295 1.391 . S
C1295 H1283 0.950 . S
C1295 C1291 1.393 . S
C1295 C1294 1.391 . S
H1296 C1304 0.950 . S
H1297 C1309 0.950 . S
H1298 C1306 0.950 . S
H1299 C1308 0.950 . S
H1300 C1310 0.950 . S
H1301 C1312 0.950 . S
H1302 C1314 0.950 . S
H1303 C1315 0.950 . S
C1304 H1296 0.950 . S
C1304 C1305 1.386 . S
C1304 C1306 1.391 . S
C1305 C1304 1.386 . S
C1305 C1309 1.393 . S
C1306 H1298 0.950 . S
C1306 C1304 1.391 . S
C1306 C1307 1.400 . S
C1307 C1306 1.400 . S
C1307 C1308 1.398 . S
C1307 C1313 1.491 . S
C1308 H1299 0.950 . S
C1308 C1307 1.398 . S
C1308 C1309 1.391 . S
C1309 H1297 0.950 . S
C1309 C1305 1.393 . S
C1309 C1308 1.391 . S
C1310 H1300 0.950 . S
C1310 C1311 1.386 . S
C1310 C1312 1.391 . S
C1311 C1310 1.386 . S
C1311 C1315 1.393 . S
C1312 H1301 0.950 . S
C1312 C1310 1.391 . S
C1312 C1313 1.400 . S
C1313 C1307 1.491 . S
C1313 C1312 1.400 . S
C1313 C1314 1.398 . S
C1314 H1302 0.950 . S
C1314 C1313 1.398 . S
C1314 C1315 1.391 . S
C1315 H1303 0.950 . S
C1315 C1311 1.393 . S
C1315 C1314 1.391 . S
H1316 C1324 0.950 1_556 S
H1317 C1329 0.950 . S
H1318 C1326 0.950 . S
H1319 C1328 0.950 . S
H1320 C1330 0.950 1_554 S
H1321 C1332 0.950 . S
H1322 C1334 0.950 . S
H1323 C1335 0.950 . S
C1324 H1316 0.950 1_554 S
C1324 C1325 1.386 . S
C1324 C1326 1.391 1_554 S
C1325 C1324 1.386 . S
C1325 C1329 1.393 1_455 S
C1326 H1318 0.950 . S
C1326 C1324 1.391 1_556 S
C1326 C1327 1.449 1_556 S
C1327 C1326 1.449 1_554 S
C1327 C1328 1.356 1_455 S
C1327 C1333 1.484 1_454 S
C1328 H1319 0.950 . S
C1328 C1327 1.356 1_655 S
C1328 C1329 1.391 . S
C1329 H1317 0.950 . S
C1329 C1325 1.393 1_655 S
C1329 C1328 1.391 . S
C1330 H1320 0.950 1_556 S
C1330 C1331 1.386 . S
C1330 C1332 1.391 1_556 S
C1331 C1330 1.386 . S
C1331 C1335 1.393 1_655 S
C1332 H1321 0.950 . S
C1332 C1330 1.391 1_554 S
C1332 C1333 1.449 1_554 S
C1333 C1327 1.484 1_656 S
C1333 C1332 1.449 1_556 S
C1333 C1334 1.356 1_655 S
C1334 H1322 0.950 . S
C1334 C1333 1.356 1_455 S
C1334 C1335 1.391 . S
C1335 H1323 0.950 . S
C1335 C1331 1.393 1_455 S
C1335 C1334 1.391 . S
H1336 C1344 0.950 1_554 S
H1337 C1349 0.950 . S
H1338 C1346 0.950 . S
H1339 C1348 0.950 . S
H1340 C1350 0.950 1_556 S
H1341 C1352 0.950 . S
H1342 C1354 0.950 . S
H1343 C1355 0.950 . S
C1344 H1336 0.950 1_556 S
C1344 C1345 1.386 . S
C1344 C1346 1.391 1_556 S
C1345 C1344 1.386 . S
C1345 C1349 1.393 . S
C1346 H1338 0.950 . S
C1346 C1344 1.391 1_554 S
C1346 C1347 1.400 1_554 S
C1347 C1346 1.400 1_556 S
C1347 C1348 1.398 . S
C1347 C1353 1.491 1_556 S
C1348 H1339 0.950 . S
C1348 C1347 1.398 . S
C1348 C1349 1.391 . S
C1349 H1337 0.950 . S
C1349 C1345 1.393 . S
C1349 C1348 1.391 . S
C1350 H1340 0.950 1_554 S
C1350 C1351 1.386 . S
C1350 C1352 1.391 1_554 S
C1351 C1350 1.386 . S
C1351 C1355 1.393 . S
C1352 H1341 0.950 . S
C1352 C1350 1.391 1_556 S
C1352 C1353 1.400 1_556 S
C1353 C1347 1.491 1_554 S
C1353 C1352 1.400 1_554 S
C1353 C1354 1.398 . S
C1354 H1342 0.950 . S
C1354 C1353 1.398 . S
C1354 C1355 1.391 . S
C1355 H1343 0.950 . S
C1355 C1351 1.393 . S
C1355 C1354 1.391 . S
H1356 C1364 0.950 . S
H1357 C1369 0.950 . S
H1358 C1366 0.950 . S
H1359 C1368 0.950 . S
H1360 C1370 0.950 . S
H1361 C1372 0.950 . S
H1362 C1374 0.950 . S
H1363 C1375 0.950 . S
C1364 H1356 0.950 . S
C1364 C1365 1.386 1_455 S
C1364 C1366 1.391 . S
C1365 C1364 1.386 1_655 S
C1365 C1369 1.393 . S
C1366 H1358 0.950 . S
C1366 C1364 1.391 . S
C1366 C1367 1.347 1_455 S
C1367 C1366 1.347 1_655 S
C1367 C1368 1.461 . S
C1367 C1373 1.482 1_655 S
C1368 H1359 0.950 . S
C1368 C1367 1.461 . S
C1368 C1369 1.391 . S
C1369 H1357 0.950 . S
C1369 C1365 1.393 . S
C1369 C1368 1.391 . S
C1370 H1360 0.950 . S
C1370 C1371 1.386 1_655 S
C1370 C1372 1.391 . S
C1371 C1370 1.386 1_455 S
C1371 C1375 1.393 . S
C1372 H1361 0.950 . S
C1372 C1370 1.391 . S
C1372 C1373 1.347 1_655 S
C1373 C1367 1.482 1_455 S
C1373 C1372 1.347 1_455 S
C1373 C1374 1.461 . S
C1374 H1362 0.950 . S
C1374 C1373 1.461 . S
C1374 C1375 1.391 . S
C1375 H1363 0.950 . S
C1375 C1371 1.393 . S
C1375 C1374 1.391 . S
H1376 C1384 0.950 . S
H1377 C1389 0.950 . S
H1378 C1386 0.950 . S
H1379 C1388 0.950 . S
H1380 C1390 0.950 . S
H1381 C1392 0.950 . S
H1382 C1394 0.950 . S
H1383 C1395 0.950 . S
C1384 H1376 0.950 . S
C1384 C1385 1.386 . S
C1384 C1386 1.391 . S
C1385 C1384 1.386 . S
C1385 C1389 1.393 . S
C1386 H1378 0.950 . S
C1386 C1384 1.391 . S
C1386 C1387 1.400 . S
C1387 C1386 1.400 . S
C1387 C1388 1.398 . S
C1387 C1393 1.491 . S
C1388 H1379 0.950 . S
C1388 C1387 1.398 . S
C1388 C1389 1.391 . S
C1389 H1377 0.950 . S
C1389 C1385 1.393 . S
C1389 C1388 1.391 . S
C1390 H1380 0.950 . S
C1390 C1391 1.386 . S
C1390 C1392 1.391 . S
C1391 C1390 1.386 . S
C1391 C1395 1.393 . S
C1392 H1381 0.950 . S
C1392 C1390 1.391 . S
C1392 C1393 1.400 . S
C1393 C1387 1.491 . S
C1393 C1392 1.400 . S
C1393 C1394 1.398 . S
C1394 H1382 0.950 . S
C1394 C1393 1.398 . S
C1394 C1395 1.391 . S
C1395 H1383 0.950 . S
C1395 C1391 1.393 . S
C1395 C1394 1.391 . S
H1396 C1404 0.950 . S
H1397 C1409 0.950 . S
H1398 C1406 0.950 . S
H1399 C1408 0.950 . S
H1400 C1410 0.950 . S
H1401 C1412 0.950 . S
H1402 C1414 0.950 . S
H1403 C1415 0.950 . S
C1404 H1396 0.950 . S
C1404 C1405 1.386 . S
C1404 C1406 1.391 . S
C1405 C1404 1.386 . S
C1405 C1409 1.393 . S
C1406 H1398 0.950 . S
C1406 C1404 1.391 . S
C1406 C1407 1.400 . S
C1407 C1406 1.400 . S
C1407 C1408 1.398 . S
C1407 C1413 1.491 . S
C1408 H1399 0.950 . S
C1408 C1407 1.398 . S
C1408 C1409 1.391 . S
C1409 H1397 0.950 . S
C1409 C1405 1.393 . S
C1409 C1408 1.391 . S
C1410 H1400 0.950 . S
C1410 C1411 1.386 . S
C1410 C1412 1.391 . S
C1411 C1410 1.386 . S
C1411 C1415 1.393 . S
C1412 H1401 0.950 . S
C1412 C1410 1.391 . S
C1412 C1413 1.400 . S
C1413 C1407 1.491 . S
C1413 C1412 1.400 . S
C1413 C1414 1.398 . S
C1414 H1402 0.950 . S
C1414 C1413 1.398 . S
C1414 C1415 1.391 . S
C1415 H1403 0.950 . S
C1415 C1411 1.393 . S
C1415 C1414 1.391 . S
H1416 C1424 0.950 . S
H1417 C1429 0.950 . S
H1418 C1426 0.950 . S
H1419 C1428 0.950 . S
H1420 C1430 0.950 . S
H1421 C1432 0.950 . S
H1422 C1434 0.950 . S
H1423 C1435 0.950 . S
C1424 H1416 0.950 . S
C1424 C1425 1.386 . S
C1424 C1426 1.391 . S
C1425 C1424 1.386 . S
C1425 C1429 1.393 . S
C1426 H1418 0.950 . S
C1426 C1424 1.391 . S
C1426 C1427 1.400 . S
C1427 C1426 1.400 . S
C1427 C1428 1.398 . S
C1427 C1433 1.491 . S
C1428 H1419 0.950 . S
C1428 C1427 1.398 . S
C1428 C1429 1.391 . S
C1429 H1417 0.950 . S
C1429 C1425 1.393 . S
C1429 C1428 1.391 . S
C1430 H1420 0.950 . S
C1430 C1431 1.386 . S
C1430 C1432 1.391 . S
C1431 C1430 1.386 . S
C1431 C1435 1.393 . S
C1432 H1421 0.950 . S
C1432 C1430 1.391 . S
C1432 C1433 1.400 . S
C1433 C1427 1.491 . S
C1433 C1432 1.400 . S
C1433 C1434 1.398 . S
C1434 H1422 0.950 . S
C1434 C1433 1.398 . S
C1434 C1435 1.391 . S
C1435 H1423 0.950 . S
C1435 C1431 1.393 . S
C1435 C1434 1.391 . S
H1436 C1444 0.950 . S
H1437 C1449 0.950 . S
H1438 C1446 0.950 . S
H1439 C1448 0.950 . S
H1440 C1450 0.950 . S
H1441 C1452 0.950 . S
H1442 C1454 0.950 . S
H1443 C1455 0.950 . S
C1444 H1436 0.950 . S
C1444 C1445 1.386 . S
C1444 C1446 1.391 . S
C1445 C1444 1.386 . S
C1445 C1449 1.393 . S
C1446 H1438 0.950 . S
C1446 C1444 1.391 . S
C1446 C1447 1.400 . S
C1447 C1446 1.400 . S
C1447 C1448 1.398 . S
C1447 C1453 1.491 . S
C1448 H1439 0.950 . S
C1448 C1447 1.398 . S
C1448 C1449 1.391 . S
C1449 H1437 0.950 . S
C1449 C1445 1.393 . S
C1449 C1448 1.391 . S
C1450 H1440 0.950 . S
C1450 C1451 1.386 . S
C1450 C1452 1.391 . S
C1451 C1450 1.386 . S
C1451 C1455 1.393 . S
C1452 H1441 0.950 . S
C1452 C1450 1.391 . S
C1452 C1453 1.400 . S
C1453 C1447 1.491 . S
C1453 C1452 1.400 . S
C1453 C1454 1.398 . S
C1454 H1442 0.950 . S
C1454 C1453 1.398 . S
C1454 C1455 1.391 . S
C1455 H1443 0.950 . S
C1455 C1451 1.393 . S
C1455 C1454 1.391 . S
H1456 C1464 0.950 . S
H1457 C1469 0.950 . S
H1458 C1466 0.950 . S
H1459 C1468 0.950 . S
H1460 C1470 0.950 . S
H1461 C1472 0.950 . S
H1462 C1474 0.950 . S
H1463 C1475 0.950 . S
C1464 H1456 0.950 . S
C1464 C1465 1.386 . S
C1464 C1466 1.391 . S
C1465 C1464 1.386 . S
C1465 C1469 1.393 . S
C1466 H1458 0.950 . S
C1466 C1464 1.391 . S
C1466 C1467 1.400 . S
C1467 C1466 1.400 . S
C1467 C1468 1.398 . S
C1467 C1473 1.491 . S
C1468 H1459 0.950 . S
C1468 C1467 1.398 . S
C1468 C1469 1.391 . S
C1469 H1457 0.950 . S
C1469 C1465 1.393 . S
C1469 C1468 1.391 . S
C1470 H1460 0.950 . S
C1470 C1471 1.386 . S
C1470 C1472 1.391 . S
C1471 C1470 1.386 . S
C1471 C1475 1.393 . S
C1472 H1461 0.950 . S
C1472 C1470 1.391 . S
C1472 C1473 1.400 . S
C1473 C1467 1.491 . S
C1473 C1472 1.400 . S
C1473 C1474 1.398 . S
C1474 H1462 0.950 . S
C1474 C1473 1.398 . S
C1474 C1475 1.391 . S
C1475 H1463 0.950 . S
C1475 C1471 1.393 . S
C1475 C1474 1.391 . S
H1476 C1484 0.950 . S
H1477 C1489 0.950 . S
H1478 C1486 0.950 . S
H1479 C1488 0.950 . S
H1480 C1490 0.950 . S
H1481 C1492 0.950 . S
H1482 C1494 0.950 . S
H1483 C1495 0.950 . S
C1484 H1476 0.950 . S
C1484 C1485 1.386 . S
C1484 C1486 1.391 . S
C1485 C1484 1.386 . S
C1485 C1489 1.393 . S
C1486 H1478 0.950 . S
C1486 C1484 1.391 . S
C1486 C1487 1.400 . S
C1487 C1486 1.400 . S
C1487 C1488 1.398 . S
C1487 C1493 1.491 . S
C1488 H1479 0.950 . S
C1488 C1487 1.398 . S
C1488 C1489 1.391 . S
C1489 H1477 0.950 . S
C1489 C1485 1.393 . S
C1489 C1488 1.391 . S
C1490 H1480 0.950 . S
C1490 C1491 1.386 . S
C1490 C1492 1.391 . S
C1491 C1490 1.386 . S
C1491 C1495 1.393 . S
C1492 H1481 0.950 . S
C1492 C1490 1.391 . S
C1492 C1493 1.400 . S
C1493 C1487 1.491 . S
C1493 C1492 1.400 . S
C1493 C1494 1.398 . S
C1494 H1482 0.950 . S
C1494 C1493 1.398 . S
C1494 C1495 1.391 . S
C1495 H1483 0.950 . S
C1495 C1491 1.393 . S
C1495 C1494 1.391 . S
H1496 C1504 0.950 . S
H1497 C1509 0.950 . S
H1498 C1506 0.950 . S
H1499 C1508 0.950 . S
H1500 C1510 0.950 . S
H1501 C1512 0.950 . S
H1502 C1514 0.950 . S
H1503 C1515 0.950 . S
C1504 H1496 0.950 . S
C1504 C1505 1.386 . S
C1504 C1506 1.391 . S
C1505 C1504 1.386 . S
C1505 C1509 1.393 . S
C1506 H1498 0.950 . S
C1506 C1504 1.391 . S
C1506 C1507 1.400 . S
C1507 C1506 1.400 . S
C1507 C1508 1.398 . S
C1507 C1513 1.491 . S
C1508 H1499 0.950 . S
C1508 C1507 1.398 . S
C1508 C1509 1.391 . S
C1509 H1497 0.950 . S
C1509 C1505 1.393 . S
C1509 C1508 1.391 . S
C1510 H1500 0.950 . S
C1510 C1511 1.386 . S
C1510 C1512 1.391 . S
C1511 C1510 1.386 . S
C1511 C1515 1.393 . S
C1512 H1501 0.950 . S
C1512 C1510 1.391 . S
C1512 C1513 1.400 . S
C1513 C1507 1.491 . S
C1513 C1512 1.400 . S
C1513 C1514 1.398 . S
C1514 H1502 0.950 . S
C1514 C1513 1.398 . S
C1514 C1515 1.391 . S
C1515 H1503 0.950 . S
C1515 C1511 1.393 . S
C1515 C1514 1.391 . S
H1516 C1524 0.950 . S
H1517 C1529 0.950 . S
H1518 C1526 0.950 . S
H1519 C1528 0.950 . S
H1520 C1530 0.950 . S
H1521 C1532 0.950 . S
H1522 C1534 0.950 . S
H1523 C1535 0.950 . S
C1524 H1516 0.950 . S
C1524 C1525 1.386 . S
C1524 C1526 1.391 . S
C1525 C1524 1.386 . S
C1525 C1529 1.393 . S
C1526 H1518 0.950 . S
C1526 C1524 1.391 . S
C1526 C1527 1.400 . S
C1527 C1526 1.400 . S
C1527 C1528 1.398 . S
C1527 C1533 1.491 . S
C1528 H1519 0.950 . S
C1528 C1527 1.398 . S
C1528 C1529 1.391 . S
C1529 H1517 0.950 . S
C1529 C1525 1.393 . S
C1529 C1528 1.391 . S
C1530 H1520 0.950 . S
C1530 C1531 1.386 . S
C1530 C1532 1.391 . S
C1531 C1530 1.386 . S
C1531 C1535 1.393 . S
C1532 H1521 0.950 . S
C1532 C1530 1.391 . S
C1532 C1533 1.400 . S
C1533 C1527 1.491 . S
C1533 C1532 1.400 . S
C1533 C1534 1.398 . S
C1534 H1522 0.950 . S
C1534 C1533 1.398 . S
C1534 C1535 1.391 . S
C1535 H1523 0.950 . S
C1535 C1531 1.393 . S
C1535 C1534 1.391 . S
H1536 C1544 0.950 . S
H1537 C1549 0.950 . S
H1538 C1546 0.950 . S
H1539 C1548 0.950 . S
H1540 C1550 0.950 . S
H1541 C1552 0.950 . S
H1542 C1554 0.950 . S
H1543 C1555 0.950 . S
C1544 H1536 0.950 . S
C1544 C1545 1.386 . S
C1544 C1546 1.391 . S
C1545 C1544 1.386 . S
C1545 C1549 1.393 . S
C1546 H1538 0.950 . S
C1546 C1544 1.391 . S
C1546 C1547 1.400 . S
C1547 C1546 1.400 . S
C1547 C1548 1.398 . S
C1547 C1553 1.491 . S
C1548 H1539 0.950 . S
C1548 C1547 1.398 . S
C1548 C1549 1.391 . S
C1549 H1537 0.950 . S
C1549 C1545 1.393 . S
C1549 C1548 1.391 . S
C1550 H1540 0.950 . S
C1550 C1551 1.386 . S
C1550 C1552 1.391 . S
C1551 C1550 1.386 . S
C1551 C1555 1.393 . S
C1552 H1541 0.950 . S
C1552 C1550 1.391 . S
C1552 C1553 1.400 . S
C1553 C1547 1.491 . S
C1553 C1552 1.400 . S
C1553 C1554 1.398 . S
C1554 H1542 0.950 . S
C1554 C1553 1.398 . S
C1554 C1555 1.391 . S
C1555 H1543 0.950 . S
C1555 C1551 1.393 . S
C1555 C1554 1.391 . S
H1556 C1564 0.950 . S
H1557 C1569 0.950 . S
H1558 C1566 0.950 . S
H1559 C1568 0.950 . S
H1560 C1570 0.950 . S
H1561 C1572 0.950 . S
H1562 C1574 0.950 . S
H1563 C1575 0.950 . S
C1564 H1556 0.950 . S
C1564 C1565 1.386 . S
C1564 C1566 1.391 . S
C1565 C1564 1.386 . S
C1565 C1569 1.393 . S
C1566 H1558 0.950 . S
C1566 C1564 1.391 . S
C1566 C1567 1.400 . S
C1567 C1566 1.400 . S
C1567 C1568 1.398 . S
C1567 C1573 1.491 . S
C1568 H1559 0.950 . S
C1568 C1567 1.398 . S
C1568 C1569 1.391 . S
C1569 H1557 0.950 . S
C1569 C1565 1.393 . S
C1569 C1568 1.391 . S
C1570 H1560 0.950 . S
C1570 C1571 1.386 . S
C1570 C1572 1.391 . S
C1571 C1570 1.386 . S
C1571 C1575 1.393 . S
C1572 H1561 0.950 . S
C1572 C1570 1.391 . S
C1572 C1573 1.400 . S
C1573 C1567 1.491 . S
C1573 C1572 1.400 . S
C1573 C1574 1.398 . S
C1574 H1562 0.950 . S
C1574 C1573 1.398 . S
C1574 C1575 1.391 . S
C1575 H1563 0.950 . S
C1575 C1571 1.393 . S
C1575 C1574 1.391 . S
H1576 C1584 0.950 . S
H1577 C1589 0.950 . S
H1578 C1586 0.950 . S
H1579 C1588 0.950 . S
H1580 C1590 0.950 . S
H1581 C1592 0.950 . S
H1582 C1594 0.950 . S
H1583 C1595 0.950 . S
C1584 H1576 0.950 . S
C1584 C1585 1.386 . S
C1584 C1586 1.391 . S
C1585 C1584 1.386 . S
C1585 C1589 1.393 . S
C1586 H1578 0.950 . S
C1586 C1584 1.391 . S
C1586 C1587 1.400 . S
C1587 C1586 1.400 . S
C1587 C1588 1.398 . S
C1587 C1593 1.491 . S
C1588 H1579 0.950 . S
C1588 C1587 1.398 . S
C1588 C1589 1.391 . S
C1589 H1577 0.950 . S
C1589 C1585 1.393 . S
C1589 C1588 1.391 . S
C1590 H1580 0.950 . S
C1590 C1591 1.386 . S
C1590 C1592 1.391 . S
C1591 C1590 1.386 . S
C1591 C1595 1.393 . S
C1592 H1581 0.950 . S
C1592 C1590 1.391 . S
C1592 C1593 1.400 . S
C1593 C1587 1.491 . S
C1593 C1592 1.400 . S
C1593 C1594 1.398 . S
C1594 H1582 0.950 . S
C1594 C1593 1.398 . S
C1594 C1595 1.391 . S
C1595 H1583 0.950 . S
C1595 C1591 1.393 . S
C1595 C1594 1.391 . S
H1596 C1604 0.950 . S
H1597 C1609 0.950 . S
H1598 C1606 0.950 . S
H1599 C1608 0.950 . S
H1600 C1610 0.950 . S
H1601 C1612 0.950 . S
H1602 C1614 0.950 . S
H1603 C1615 0.950 . S
C1604 H1596 0.950 . S
C1604 C1605 1.386 . S
C1604 C1606 1.391 . S
C1605 C1604 1.386 . S
C1605 C1609 1.393 . S
C1606 H1598 0.950 . S
C1606 C1604 1.391 . S
C1606 C1607 1.400 . S
C1607 C1606 1.400 . S
C1607 C1608 1.398 . S
C1607 C1613 1.491 . S
C1608 H1599 0.950 . S
C1608 C1607 1.398 . S
C1608 C1609 1.391 . S
C1609 H1597 0.950 . S
C1609 C1605 1.393 . S
C1609 C1608 1.391 . S
C1610 H1600 0.950 . S
C1610 C1611 1.386 . S
C1610 C1612 1.391 . S
C1611 C1610 1.386 . S
C1611 C1615 1.393 . S
C1612 H1601 0.950 . S
C1612 C1610 1.391 . S
C1612 C1613 1.400 . S
C1613 C1607 1.491 . S
C1613 C1612 1.400 . S
C1613 C1614 1.398 . S
C1614 H1602 0.950 . S
C1614 C1613 1.398 . S
C1614 C1615 1.391 . S
C1615 H1603 0.950 . S
C1615 C1611 1.393 . S
C1615 C1614 1.391 . S
H1616 C1624 0.950 . S
H1617 C1629 0.950 . S
H1618 C1626 0.950 . S
H1619 C1628 0.950 . S
H1620 C1630 0.950 . S
H1621 C1632 0.950 . S
H1622 C1634 0.950 . S
H1623 C1635 0.950 . S
C1624 H1616 0.950 . S
C1624 C1625 1.386 . S
C1624 C1626 1.391 . S
C1625 C1624 1.386 . S
C1625 C1629 1.393 . S
C1626 H1618 0.950 . S
C1626 C1624 1.391 . S
C1626 C1627 1.400 . S
C1627 C1626 1.400 . S
C1627 C1628 1.398 . S
C1627 C1633 1.491 . S
C1628 H1619 0.950 . S
C1628 C1627 1.398 . S
C1628 C1629 1.391 . S
C1629 H1617 0.950 . S
C1629 C1625 1.393 . S
C1629 C1628 1.391 . S
C1630 H1620 0.950 . S
C1630 C1631 1.386 . S
C1630 C1632 1.391 . S
C1631 C1630 1.386 . S
C1631 C1635 1.393 . S
C1632 H1621 0.950 . S
C1632 C1630 1.391 . S
C1632 C1633 1.400 . S
C1633 C1627 1.491 . S
C1633 C1632 1.400 . S
C1633 C1634 1.398 . S
C1634 H1622 0.950 . S
C1634 C1633 1.398 . S
C1634 C1635 1.391 . S
C1635 H1623 0.950 . S
C1635 C1631 1.393 . S
C1635 C1634 1.391 . S
H1636 C1644 0.950 . S
H1637 C1649 0.950 . S
H1638 C1646 0.950 . S
H1639 C1648 0.950 . S
H1640 C1650 0.950 . S
H1641 C1652 0.950 . S
H1642 C1654 0.950 . S
H1643 C1655 0.950 . S
C1644 H1636 0.950 . S
C1644 C1645 1.386 . S
C1644 C1646 1.391 . S
C1645 C1644 1.386 . S
C1645 C1649 1.393 . S
C1646 H1638 0.950 . S
C1646 C1644 1.391 . S
C1646 C1647 1.400 . S
C1647 C1646 1.400 . S
C1647 C1648 1.398 . S
C1647 C1653 1.491 . S
C1648 H1639 0.950 . S
C1648 C1647 1.398 . S
C1648 C1649 1.391 . S
C1649 H1637 0.950 . S
C1649 C1645 1.393 . S
C1649 C1648 1.391 . S
C1650 H1640 0.950 . S
C1650 C1651 1.386 . S
C1650 C1652 1.391 . S
C1651 C1650 1.386 . S
C1651 C1655 1.393 . S
C1652 H1641 0.950 . S
C1652 C1650 1.391 . S
C1652 C1653 1.400 . S
C1653 C1647 1.491 . S
C1653 C1652 1.400 . S
C1653 C1654 1.398 . S
C1654 H1642 0.950 . S
C1654 C1653 1.398 . S
C1654 C1655 1.391 . S
C1655 H1643 0.950 . S
C1655 C1651 1.393 . S
C1655 C1654 1.391 . S
H1656 C1664 0.950 . S
H1657 C1669 0.950 . S
H1658 C1666 0.950 . S
H1659 C1668 0.950 . S
H1660 C1670 0.950 . S
H1661 C1672 0.950 . S
H1662 C1674 0.950 . S
H1663 C1675 0.950 . S
C1664 H1656 0.950 . S
C1664 C1665 1.386 . S
C1664 C1666 1.391 . S
C1665 C1664 1.386 . S
C1665 C1669 1.393 . S
C1666 H1658 0.950 . S
C1666 C1664 1.391 . S
C1666 C1667 1.400 . S
C1667 C1666 1.400 . S
C1667 C1668 1.398 . S
C1667 C1673 1.491 . S
C1668 H1659 0.950 . S
C1668 C1667 1.398 . S
C1668 C1669 1.391 . S
C1669 H1657 0.950 . S
C1669 C1665 1.393 . S
C1669 C1668 1.391 . S
C1670 H1660 0.950 . S
C1670 C1671 1.386 . S
C1670 C1672 1.391 . S
C1671 C1670 1.386 . S
C1671 C1675 1.393 . S
C1672 H1661 0.950 . S
C1672 C1670 1.391 . S
C1672 C1673 1.400 . S
C1673 C1667 1.491 . S
C1673 C1672 1.400 . S
C1673 C1674 1.398 . S
C1674 H1662 0.950 . S
C1674 C1673 1.398 . S
C1674 C1675 1.391 . S
C1675 H1663 0.950 . S
C1675 C1671 1.393 . S
C1675 C1674 1.391 . S
H1676 C1684 0.950 . S
H1677 C1689 0.950 . S
H1678 C1686 0.950 . S
H1679 C1688 0.950 . S
H1680 C1690 0.950 . S
H1681 C1692 0.950 . S
H1682 C1694 0.950 . S
H1683 C1695 0.950 . S
C1684 H1676 0.950 . S
C1684 C1685 1.386 . S
C1684 C1686 1.391 . S
C1685 C1684 1.386 . S
C1685 C1689 1.393 . S
C1686 H1678 0.950 . S
C1686 C1684 1.391 . S
C1686 C1687 1.400 . S
C1687 C1686 1.400 . S
C1687 C1688 1.398 . S
C1687 C1693 1.491 . S
C1688 H1679 0.950 . S
C1688 C1687 1.398 . S
C1688 C1689 1.391 . S
C1689 H1677 0.950 . S
C1689 C1685 1.393 . S
C1689 C1688 1.391 . S
C1690 H1680 0.950 . S
C1690 C1691 1.386 . S
C1690 C1692 1.391 . S
C1691 C1690 1.386 . S
C1691 C1695 1.393 . S
C1692 H1681 0.950 . S
C1692 C1690 1.391 . S
C1692 C1693 1.400 . S
C1693 C1687 1.491 . S
C1693 C1692 1.400 . S
C1693 C1694 1.398 . S
C1694 H1682 0.950 . S
C1694 C1693 1.398 . S
C1694 C1695 1.391 . S
C1695 H1683 0.950 . S
C1695 C1691 1.393 . S
C1695 C1694 1.391 . S
C425 C157 1.335 . S
C431 C5 1.329 . S
C445 C387 1.353 . S
C451 C16 1.338 . S
C465 C183 1.316 . S
C471 C31 1.305 . S
C485 C413 1.356 . S
C491 C42 1.349 . S
C505 C105 1.331 . S
C511 C57 1.320 . S
C525 C68 1.348 . S
C531 C335 1.354 . S
C545 C83 1.306 . S
C551 C131 1.312 . S
C565 C361 1.352 . S
C571 C94 1.339 . S
C585 C62 1.323 . S
C591 C107 1.311 . S
C605 C274 1.353 . S
C611 C122 1.344 . S
C625 C88 1.331 . S
C631 C133 1.320 . S
C645 C300 1.353 . S
C651 C148 1.345 . S
C665 C159 1.320 . S
C671 C10 1.321 . S
C685 C174 1.340 . S
C691 C222 1.352 . S
C705 C36 1.315 . S
C711 C185 1.304 . S
C725 C200 1.347 . S
C731 C248 1.356 . S
C745 C365 1.325 . S
C751 C213 1.312 . S
C765 C179 1.354 . S
C771 C224 1.341 . S
C785 C391 1.335 . S
C791 C239 1.330 . S
C805 C250 1.349 . S
C811 C205 1.356 . S
C825 C265 1.320 . S
C831 C313 1.331 . S
C845 C276 1.339 . S
C851 C127 1.352 . S
C865 C339 1.315 . S
C871 C291 1.305 . S
C885 C153 1.354 . S
C891 C302 1.348 . S
C905 C270 1.325 . S
C911 C315 1.324 . S
C925 C330 1.349 . S
C931 C66 1.356 . S
C945 C341 1.308 . S
C951 C296 1.320 . S
C965 C356 1.350 . S
C971 C92 1.357 . S
C985 C218 1.312 . S
C991 C367 1.304 . S
C1005 C14 1.353 . S
C1011 C382 1.343 . S
C1025 C244 1.325 . S
C1031 C393 1.323 . S
C1045 C408 1.341 . S
C1051 C40 1.354 . S
C1065 C1 2.035 . S
C1071 C114 2.035 . S
C1085 C23 1.939 . S
C1091 C326 1.939 . S
C1105 C140 2.038 . S
C1111 C27 2.038 . S
C1125 C49 1.946 . S
C1131 C352 1.946 . S
C1145 C53 2.029 . S
C1151 C166 2.029 . S
C1165 C378 1.936 . S
C1171 C75 1.936 . S
C1185 C192 2.027 . S
C1191 C79 2.027 . S
C1205 C101 1.954 . S
C1211 C404 1.954 . S
C1225 C118 1.948 . S
C1231 C231 1.948 . S
C1245 C144 1.929 . S
C1251 C257 1.929 . S
C1265 C170 1.932 . S
C1271 C283 1.932 . S
C1285 C309 1.949 . S
C1291 C196 1.949 . S
C1305 C209 2.038 . S
C1311 C322 2.038 . S
C1325 C235 2.028 . S
C1331 C348 2.028 . S
C1345 C261 2.031 . S
C1351 C374 2.031 . S
C1365 C400 2.031 . S
C1371 C287 2.031 . S
C1385 C3 1.928 . S
C1391 C96 1.857 . S
C1405 C18 1.848 . S
C1411 C55 1.927 . S
C1425 C70 1.851 . S
C1431 C29 1.928 . S
C1445 C81 1.928 . S
C1451 C44 1.859 . S
C1465 C198 1.849 . S
C1471 C109 1.924 . S
C1485 C161 1.926 . S
C1491 C120 1.864 . S
C1505 C172 1.856 . S
C1511 C135 1.928 . S
C1525 C187 1.922 . S
C1531 C146 1.864 . S
C1545 C211 1.928 . S
C1551 C304 1.849 . S
C1565 C263 1.928 . S
C1571 C226 1.858 . S
C1585 C278 1.866 . S
C1591 C237 1.922 . S
C1605 C289 1.928 . S
C1611 C252 1.856 . S
C1625 C406 1.847 . S
C1631 C317 1.927 . S
C1645 C328 1.861 . S
C1651 C369 1.927 . S
C1665 C343 1.924 . S
C1671 C380 1.867 . S
C1685 C395 1.922 . S
C1691 C354 1.866 . S
