# Generated by pormake.
# Topology atn, (4)-cn, num edge types: 1
# Building blocks:
#     Node 0, Type 0, BuildingBlock: ICAMEG_clean_sbu_1, # of connection points: 4
#     Node 1, Type 0, BuildingBlock: ICAMEG_clean_sbu_1, # of connection points: 4
#     Node 2, Type 0, BuildingBlock: ICAMEG_clean_sbu_1, # of connection points: 4
#     Node 3, Type 0, BuildingBlock: ICAMEG_clean_sbu_1, # of connection points: 4
#     Node 4, Type 0, BuildingBlock: ICAMEG_clean_sbu_1, # of connection points: 4
#     Node 5, Type 0, BuildingBlock: ICAMEG_clean_sbu_1, # of connection points: 4
#     Node 6, Type 0, BuildingBlock: ICAMEG_clean_sbu_1, # of connection points: 4
#     Node 7, Type 0, BuildingBlock: ICAMEG_clean_sbu_1, # of connection points: 4
#     Node 8, Type 0, BuildingBlock: ICAMEG_clean_sbu_1, # of connection points: 4
#     Node 9, Type 0, BuildingBlock: ICAMEG_clean_sbu_1, # of connection points: 4
#     Node 10, Type 0, BuildingBlock: ICAMEG_clean_sbu_1, # of connection points: 4
#     Node 11, Type 0, BuildingBlock: ICAMEG_clean_sbu_1, # of connection points: 4
#     Node 12, Type 0, BuildingBlock: ICAMEG_clean_sbu_1, # of connection points: 4
#     Node 13, Type 0, BuildingBlock: ICAMEG_clean_sbu_1, # of connection points: 4
#     Node 14, Type 0, BuildingBlock: ICAMEG_clean_sbu_1, # of connection points: 4
#     Node 15, Type 0, BuildingBlock: ICAMEG_clean_sbu_1, # of connection points: 4
#     Edge 16, Type (0, 0), None
#     Edge 17, Type (0, 0), None
#     Edge 18, Type (0, 0), None
#     Edge 19, Type (0, 0), None
#     Edge 20, Type (0, 0), None
#     Edge 21, Type (0, 0), None
#     Edge 22, Type (0, 0), None
#     Edge 23, Type (0, 0), None
#     Edge 24, Type (0, 0), None
#     Edge 25, Type (0, 0), None
#     Edge 26, Type (0, 0), None
#     Edge 27, Type (0, 0), None
#     Edge 28, Type (0, 0), None
#     Edge 29, Type (0, 0), None
#     Edge 30, Type (0, 0), None
#     Edge 31, Type (0, 0), None
#     Edge 32, Type (0, 0), None
#     Edge 33, Type (0, 0), None
#     Edge 34, Type (0, 0), None
#     Edge 35, Type (0, 0), None
#     Edge 36, Type (0, 0), None
#     Edge 37, Type (0, 0), None
#     Edge 38, Type (0, 0), None
#     Edge 39, Type (0, 0), None
#     Edge 40, Type (0, 0), None
#     Edge 41, Type (0, 0), None
#     Edge 42, Type (0, 0), None
#     Edge 43, Type (0, 0), None
#     Edge 44, Type (0, 0), None
#     Edge 45, Type (0, 0), None
#     Edge 46, Type (0, 0), None
#     Edge 47, Type (0, 0), None
# Relax obj value: 0.042
# Max RMSD: 0.061
# Mean RMSD: 0.061
data_MOF--net-atn--node1-ICAMEG_clean_sbu_1--edge1-none
_symmetry_space_group_name_H-M    P1
_symmetry_Int_Tables_number       1
_symmetry_cell_setting            triclinic
loop_
_symmetry_equiv_pos_as_xyz
'x, y, z'
_cell_length_a     30.369154
_cell_length_b     30.369154
_cell_length_c     14.201906
_cell_angle_alpha  89.999248
_cell_angle_beta   89.999242
_cell_angle_gamma 90.000005
loop_
_atom_site_label
_atom_site_type_symbol
_atom_site_fract_x
_atom_site_fract_y
_atom_site_fract_z
_atom_type_partial_charge
Co0 Co 0.15855 0.30564 0.02801 0.0
Co1 Co 0.23193 0.38829 0.0892 0.0
O2 O 0.18332 0.36502 0.01484 0.0
C3 C 0.19538 0.30574 0.83729 0.0
O4 O 0.22899 0.32822 0.86922 0.0
C5 C 0.17665 0.47273 0.03891 0.0
O6 O 0.1473 0.45167 0.98847 0.0
O7 O 0.20095 0.36565 0.21413 0.0
O8 O 0.15099 0.31434 0.16994 0.0
H9 H 0.36775 0.37996 0.29242 0.0
H10 H 0.12747 0.3793 0.90646 0.0
O11 O 0.16411 0.29452 0.89097 0.0
H12 H 0.00499 0.28055 0.96065 0.0
H13 H 0.06156 0.17346 0.96019 0.0
H14 H 0.17758 0.23608 0.16111 0.0
H15 H 0.06444 0.28476 0.08022 0.0
H16 H 0.09776 0.24404 0.91725 0.0
O17 O 0.20235 0.45097 0.0956 0.0
H18 H 0.29399 0.35347 0.23675 0.0
H19 H 0.27675 0.47431 0.09338 0.0
H20 H 0.15459 0.161 0.18463 0.0
H21 H 0.05871 0.39107 0.8201 0.0
H22 H 0.088 0.13223 0.09929 0.0
H23 H -0.00204 0.33869 0.84084 0.0
O24 O 0.21753 0.27854 0.04202 0.0
H25 H 0.24366 0.45868 0.76671 0.0
H26 H 0.32472 0.38525 0.02147 0.0
H27 H 0.36519 0.4202 0.89369 0.0
H28 H 0.32518 0.45676 0.76408 0.0
H29 H 0.20391 0.42338 0.89578 0.0
H30 H 0.35178 0.49657 0.13342 0.0
H31 H 0.39624 0.45077 0.2406 0.0
O32 O 0.26675 0.33074 0.07324 0.0
C33 C 0.17039 0.33657 0.23488 0.0
C34 C 0.34669 0.40054 0.2506 0.0
C35 C 0.33793 0.46701 0.16305 0.0
N36 N 0.28062 0.41252 0.16208 0.0
C37 C 0.30522 0.38627 0.21948 0.0
C38 C 0.29545 0.45372 0.13955 0.0
C39 C 0.36329 0.44072 0.22099 0.0
C40 C 0.09859 0.36193 0.92991 0.0
N41 N 0.10078 0.3309 1.00032 0.0
C42 C 0.06033 0.36742 0.87641 0.0
C43 C 0.02586 0.33823 0.88829 0.0
C44 C 0.02873 0.3069 0.95876 0.0
C45 C 0.06377 0.30807 0.02281 0.0
C46 C 0.08722 0.18713 1.00369 0.0
C47 C 0.15214 0.22275 0.11621 0.0
C48 C 0.10735 0.22709 0.98061 0.0
N49 N 0.13593 0.2464 0.0425 0.0
C50 C 0.13732 0.18056 0.13352 0.0
C51 C 0.10173 0.16417 0.08258 0.0
C52 C 0.25707 0.29148 0.04773 0.0
C53 C 0.26149 0.44254 0.82245 0.0
C54 C 0.3063 0.40133 0.96629 0.0
C55 C 0.32967 0.41972 0.89201 0.0
C56 C 0.30713 0.44069 0.81984 0.0
N57 N 0.2616 0.4065 0.97293 0.0
C58 C 0.2391 0.42408 0.89851 0.0
Co59 Co 0.68971 0.15855 0.02801 0.0
Co60 Co 0.60706 0.23193 0.0892 0.0
O61 O 0.63034 0.18332 0.01484 0.0
C62 C 0.68962 0.19538 0.83729 0.0
O63 O 0.66713 0.22899 0.86923 0.0
C64 C 0.52262 0.17665 0.03891 0.0
O65 O 0.54368 0.1473 0.98847 0.0
O66 O 0.6297 0.20095 0.21413 0.0
O67 O 0.68101 0.15099 0.16994 0.0
H68 H 0.61539 0.36775 0.29243 0.0
H69 H 0.61606 0.12747 0.90646 0.0
O70 O 0.70084 0.16411 0.89097 0.0
H71 H 0.7148 0.00499 0.96065 0.0
H72 H 0.82189 0.06156 0.96018 0.0
H73 H 0.75927 0.17758 0.16111 0.0
H74 H 0.71059 0.06443 0.08022 0.0
H75 H 0.75131 0.09776 0.91724 0.0
O76 O 0.54438 0.20235 0.0956 0.0
H77 H 0.64188 0.29399 0.23676 0.0
H78 H 0.52105 0.27675 0.09338 0.0
H79 H 0.83435 0.15459 0.18462 0.0
H80 H 0.60429 0.05871 0.8201 0.0
H81 H 0.86313 0.088 0.09929 0.0
H82 H 0.65666 -0.00204 0.84084 0.0
O83 O 0.71681 0.21753 0.04202 0.0
H84 H 0.53667 0.24366 0.76672 0.0
H85 H 0.6101 0.32472 0.02148 0.0
H86 H 0.57515 0.36519 0.8937 0.0
H87 H 0.53859 0.32518 0.76409 0.0
H88 H 0.57197 0.20391 0.89579 0.0
H89 H 0.49878 0.35178 0.13342 0.0
H90 H 0.54457 0.39624 0.24061 0.0
O91 O 0.66461 0.26675 0.07324 0.0
C92 C 0.65878 0.17039 0.23488 0.0
C93 C 0.59481 0.34669 0.2506 0.0
C94 C 0.52834 0.33793 0.16305 0.0
N95 N 0.58283 0.28062 0.16209 0.0
C96 C 0.60908 0.30522 0.21949 0.0
C97 C 0.54164 0.29545 0.13955 0.0
C98 C 0.55463 0.36329 0.221 0.0
C99 C 0.63343 0.09859 0.92991 0.0
N100 N 0.66445 0.10078 1.00032 0.0
C101 C 0.62793 0.06034 0.87641 0.0
C102 C 0.65712 0.02586 0.88829 0.0
C103 C 0.68845 0.02873 0.95876 0.0
C104 C 0.68728 0.06377 0.02281 0.0
C105 C 0.80822 0.08721 1.00368 0.0
C106 C 0.7726 0.15214 0.11621 0.0
C107 C 0.76826 0.10735 0.9806 0.0
N108 N 0.74895 0.13593 0.0425 0.0
C109 C 0.81479 0.13732 0.13351 0.0
C110 C 0.83118 0.10173 0.08257 0.0
C111 C 0.70387 0.25707 0.04773 0.0
C112 C 0.55281 0.26149 0.82246 0.0
C113 C 0.59402 0.3063 0.96629 0.0
C114 C 0.57563 0.32967 0.89201 0.0
C115 C 0.55466 0.30713 0.81984 0.0
N116 N 0.58885 0.2616 0.97293 0.0
C117 C 0.57127 0.2391 0.89851 0.0
Co118 Co 0.8368 0.68971 0.02801 0.0
Co119 Co 0.76342 0.60706 0.0892 0.0
O120 O 0.81203 0.63034 0.01484 0.0
C121 C 0.79997 0.68962 0.83729 0.0
O122 O 0.76637 0.66713 0.86923 0.0
C123 C 0.8187 0.52262 0.03891 0.0
O124 O 0.84805 0.54368 0.98846 0.0
O125 O 0.79441 0.6297 0.21413 0.0
O126 O 0.84436 0.68101 0.16994 0.0
H127 H 0.62761 0.61539 0.29243 0.0
H128 H 0.86788 0.61606 0.90645 0.0
O129 O 0.83124 0.70084 0.89097 0.0
H130 H 0.99037 0.7148 0.96065 0.0
H131 H 0.9338 0.82189 0.96018 0.0
H132 H 0.81777 0.75927 0.16111 0.0
H133 H 0.93092 0.71059 0.08021 0.0
H134 H 0.89759 0.75131 0.91724 0.0
O135 O 0.793 0.54438 0.0956 0.0
H136 H 0.70136 0.64188 0.23676 0.0
H137 H 0.7186 0.52105 0.09338 0.0
H138 H 0.84077 0.83435 0.18462 0.0
H139 H 0.93664 0.60429 0.82009 0.0
H140 H 0.90735 0.86312 0.09929 0.0
H141 H 0.99739 0.65666 0.84083 0.0
O142 O 0.77782 0.71681 0.04202 0.0
H143 H 0.75169 0.53667 0.76672 0.0
H144 H 0.67063 0.6101 0.02148 0.0
H145 H 0.63017 0.57515 0.89371 0.0
H146 H 0.67017 0.53859 0.76409 0.0
H147 H 0.79144 0.57197 0.89579 0.0
H148 H 0.64357 0.49879 0.13343 0.0
H149 H 0.59911 0.54458 0.24061 0.0
O150 O 0.7286 0.66461 0.07324 0.0
C151 C 0.82496 0.65878 0.23488 0.0
C152 C 0.64866 0.59481 0.25061 0.0
C153 C 0.65742 0.52834 0.16306 0.0
N154 N 0.71474 0.58283 0.16209 0.0
C155 C 0.69013 0.60908 0.21949 0.0
C156 C 0.6999 0.54164 0.13956 0.0
C157 C 0.63206 0.55463 0.221 0.0
C158 C 0.89676 0.63343 0.92991 0.0
N159 N 0.89458 0.66445 1.00031 0.0
C160 C 0.93502 0.62793 0.87641 0.0
C161 C 0.96949 0.65712 0.88828 0.0
C162 C 0.96662 0.68845 0.95876 0.0
C163 C 0.93158 0.68728 0.02281 0.0
C164 C 0.90814 0.80822 1.00368 0.0
C165 C 0.84321 0.7726 0.11621 0.0
C166 C 0.888 0.76826 0.9806 0.0
N167 N 0.85942 0.74895 0.0425 0.0
C168 C 0.85804 0.81479 0.13351 0.0
C169 C 0.89362 0.83118 0.08257 0.0
C170 C 0.73828 0.70387 0.04774 0.0
C171 C 0.73386 0.55281 0.82246 0.0
C172 C 0.68905 0.59402 0.9663 0.0
C173 C 0.66569 0.57563 0.89202 0.0
C174 C 0.68822 0.55466 0.81985 0.0
N175 N 0.73375 0.58885 0.97294 0.0
C176 C 0.75625 0.57127 0.89851 0.0
Co177 Co 0.30564 0.8368 0.02801 0.0
Co178 Co 0.38829 0.76342 0.0892 0.0
O179 O 0.36502 0.81203 0.01484 0.0
C180 C 0.30574 0.79997 0.83729 0.0
O181 O 0.32822 0.76637 0.86923 0.0
C182 C 0.47273 0.8187 0.03891 0.0
O183 O 0.45167 0.84805 0.98846 0.0
O184 O 0.36565 0.79441 0.21413 0.0
O185 O 0.31434 0.84436 0.16994 0.0
H186 H 0.37996 0.6276 0.29242 0.0
H187 H 0.3793 0.86788 0.90645 0.0
O188 O 0.29452 0.83124 0.89097 0.0
H189 H 0.28056 0.99036 0.96065 0.0
H190 H 0.17347 0.9338 0.96018 0.0
H191 H 0.23608 0.81777 0.16111 0.0
H192 H 0.28476 0.93092 0.08021 0.0
H193 H 0.24404 0.89759 0.91725 0.0
O194 O 0.45097 0.793 0.0956 0.0
H195 H 0.35347 0.70136 0.23676 0.0
H196 H 0.47431 0.7186 0.09338 0.0
H197 H 0.161 0.84076 0.18463 0.0
H198 H 0.39107 0.93664 0.82009 0.0
H199 H 0.13223 0.90735 0.09929 0.0
H200 H 0.33869 0.99739 0.84083 0.0
O201 O 0.27854 0.77782 0.04202 0.0
H202 H 0.45868 0.75169 0.76672 0.0
H203 H 0.38525 0.67063 0.02148 0.0
H204 H 0.4202 0.63017 0.8937 0.0
H205 H 0.45676 0.67017 0.76409 0.0
H206 H 0.42338 0.79144 0.89578 0.0
H207 H 0.49657 0.64357 0.13343 0.0
H208 H 0.45077 0.59911 0.24061 0.0
O209 O 0.33074 0.7286 0.07324 0.0
C210 C 0.33657 0.82496 0.23488 0.0
C211 C 0.40054 0.64866 0.2506 0.0
C212 C 0.46701 0.65742 0.16306 0.0
N213 N 0.41252 0.71473 0.16209 0.0
C214 C 0.38627 0.69013 0.21949 0.0
C215 C 0.45372 0.6999 0.13956 0.0
C216 C 0.44072 0.63206 0.221 0.0
C217 C 0.36193 0.89676 0.92991 0.0
N218 N 0.3309 0.89458 1.00031 0.0
C219 C 0.36742 0.93502 0.8764 0.0
C220 C 0.33823 0.96949 0.88828 0.0
C221 C 0.3069 0.96662 0.95876 0.0
C222 C 0.30807 0.93158 0.02281 0.0
C223 C 0.18713 0.90814 1.00369 0.0
C224 C 0.22275 0.84321 0.11621 0.0
C225 C 0.22709 0.888 0.98061 0.0
N226 N 0.2464 0.85942 0.0425 0.0
C227 C 0.18056 0.85803 0.13352 0.0
C228 C 0.16417 0.89362 0.08258 0.0
C229 C 0.29148 0.73828 0.04773 0.0
C230 C 0.44254 0.73386 0.82246 0.0
C231 C 0.40133 0.68905 0.9663 0.0
C232 C 0.41972 0.66569 0.89202 0.0
C233 C 0.44069 0.68822 0.81984 0.0
N234 N 0.4065 0.73375 0.97293 0.0
C235 C 0.42409 0.75625 0.89851 0.0
Co236 Co 0.15856 0.68971 0.04638 0.0
Co237 Co 0.23194 0.60706 0.98518 0.0
O238 O 0.18333 0.63033 0.05955 0.0
C239 C 0.19539 0.68962 0.2371 0.0
O240 O 0.229 0.66713 0.20516 0.0
C241 C 0.17665 0.52262 0.03546 0.0
O242 O 0.1473 0.54369 0.08591 0.0
O243 O 0.20096 0.6297 0.86026 0.0
O244 O 0.15099 0.68101 0.90445 0.0
H245 H 0.36776 0.6154 0.78196 0.0
H246 H 0.12749 0.61606 0.16795 0.0
O247 O 0.16412 0.70084 0.18341 0.0
H248 H 0.00499 0.71477 0.11377 0.0
H249 H 0.06155 0.82187 0.1142 0.0
H250 H 0.17758 0.75927 0.91327 0.0
H251 H 0.06444 0.71058 0.99419 0.0
H252 H 0.09776 0.7513 0.15714 0.0
O253 O 0.20236 0.54438 0.97878 0.0
H254 H 0.294 0.64188 0.83763 0.0
H255 H 0.27676 0.52105 0.981 0.0
H256 H 0.15458 0.83435 0.88976 0.0
H257 H 0.05874 0.60428 0.25433 0.0
H258 H 0.08799 0.86312 0.9751 0.0
H259 H -0.00202 0.65664 0.23359 0.0
O260 O 0.21754 0.71681 0.03235 0.0
H261 H 0.24367 0.53667 0.30767 0.0
H262 H 0.32473 0.6101 0.0529 0.0
H263 H 0.3652 0.57516 0.18069 0.0
H264 H 0.32519 0.5386 0.3103 0.0
H265 H 0.20392 0.57197 0.17859 0.0
H266 H 0.35179 0.49879 0.94094 0.0
H267 H 0.39625 0.54458 0.83376 0.0
O268 O 0.26676 0.66462 1.00115 0.0
C269 C 0.1704 0.65878 0.8395 0.0
C270 C 0.3467 0.59482 0.82378 0.0
C271 C 0.33794 0.52835 0.91132 0.0
N272 N 0.28063 0.58283 0.91229 0.0
C273 C 0.30523 0.60909 0.8549 0.0
C274 C 0.29546 0.54164 0.93482 0.0
C275 C 0.3633 0.55464 0.85338 0.0
C276 C 0.09861 0.63342 0.1445 0.0
N277 N 0.10079 0.66444 0.07409 0.0
C278 C 0.06036 0.62792 0.19801 0.0
C279 C 0.02588 0.6571 0.18613 0.0
C280 C 0.02874 0.68843 0.11565 0.0
C281 C 0.06378 0.68726 0.0516 0.0
C282 C 0.08721 0.80821 0.0707 0.0
C283 C 0.15214 0.7726 0.95817 0.0
C284 C 0.10735 0.76825 0.09378 0.0
N285 N 0.13593 0.74895 0.03189 0.0
C286 C 0.13731 0.81479 0.94087 0.0
C287 C 0.10172 0.83117 0.99181 0.0
C288 C 0.25707 0.70387 0.02665 0.0
C289 C 0.2615 0.55281 0.25193 0.0
C290 C 0.30631 0.59402 0.10809 0.0
C291 C 0.32968 0.57563 0.18237 0.0
C292 C 0.30714 0.55466 0.25455 0.0
N293 N 0.26161 0.58885 0.10145 0.0
C294 C 0.23911 0.57127 0.17587 0.0
Co295 Co 0.30564 0.15856 0.04638 0.0
Co296 Co 0.38829 0.23194 0.98518 0.0
O297 O 0.36502 0.18333 0.05955 0.0
C298 C 0.30574 0.19539 0.2371 0.0
O299 O 0.32822 0.229 0.20515 0.0
C300 C 0.47273 0.17665 0.03546 0.0
O301 O 0.45166 0.1473 0.08591 0.0
O302 O 0.36565 0.20096 0.86026 0.0
O303 O 0.31435 0.15099 0.90445 0.0
H304 H 0.37996 0.36776 0.78195 0.0
H305 H 0.3793 0.1275 0.16796 0.0
O306 O 0.29451 0.16412 0.18341 0.0
H307 H 0.28058 0.00499 0.11377 0.0
H308 H 0.17348 0.06155 0.11421 0.0
H309 H 0.23608 0.17758 0.91327 0.0
H310 H 0.28478 0.06443 0.99419 0.0
H311 H 0.24405 0.09776 0.15714 0.0
O312 O 0.45097 0.20236 0.97878 0.0
H313 H 0.35347 0.294 0.83763 0.0
H314 H 0.4743 0.27676 0.981 0.0
H315 H 0.16101 0.15458 0.88977 0.0
H316 H 0.39107 0.05874 0.25434 0.0
H317 H 0.13224 0.08799 0.9751 0.0
H318 H 0.33871 -0.00202 0.23359 0.0
O319 O 0.27854 0.21754 0.03235 0.0
H320 H 0.45868 0.24367 0.30767 0.0
H321 H 0.38525 0.32473 0.0529 0.0
H322 H 0.42019 0.3652 0.18068 0.0
H323 H 0.45675 0.32519 0.3103 0.0
H324 H 0.42338 0.20392 0.17859 0.0
H325 H 0.49657 0.35179 0.94094 0.0
H326 H 0.45077 0.39625 0.83376 0.0
O327 O 0.33074 0.26676 1.00115 0.0
C328 C 0.33658 0.1704 0.8395 0.0
C329 C 0.40054 0.3467 0.82377 0.0
C330 C 0.46701 0.33794 0.91131 0.0
N331 N 0.41252 0.28063 0.91229 0.0
C332 C 0.38627 0.30523 0.85489 0.0
C333 C 0.45371 0.29546 0.93482 0.0
C334 C 0.44072 0.3633 0.85337 0.0
C335 C 0.36193 0.09861 0.1445 0.0
N336 N 0.33091 0.10079 0.07409 0.0
C337 C 0.36743 0.06036 0.19801 0.0
C338 C 0.33825 0.02588 0.18613 0.0
C339 C 0.30692 0.02874 0.11566 0.0
C340 C 0.30809 0.06378 0.0516 0.0
C341 C 0.18715 0.08721 0.0707 0.0
C342 C 0.22275 0.15214 0.95817 0.0
C343 C 0.2271 0.10735 0.09378 0.0
N344 N 0.24641 0.13593 0.03189 0.0
C345 C 0.18056 0.13731 0.94087 0.0
C346 C 0.16418 0.10172 0.99181 0.0
C347 C 0.29148 0.25707 0.02665 0.0
C348 C 0.44254 0.2615 0.25193 0.0
C349 C 0.40133 0.30631 0.10808 0.0
C350 C 0.41972 0.32968 0.18237 0.0
C351 C 0.44069 0.30714 0.25454 0.0
N352 N 0.4065 0.26161 0.10145 0.0
C353 C 0.42409 0.23911 0.17587 0.0
Co354 Co 0.83679 0.30565 0.04638 0.0
Co355 Co 0.76341 0.38829 0.98518 0.0
O356 O 0.81202 0.36502 0.05955 0.0
C357 C 0.79996 0.30574 0.2371 0.0
O358 O 0.76636 0.32822 0.20516 0.0
C359 C 0.8187 0.47273 0.03546 0.0
O360 O 0.84805 0.45166 0.0859 0.0
O361 O 0.7944 0.36565 0.86026 0.0
O362 O 0.84436 0.31435 0.90445 0.0
H363 H 0.6276 0.37996 0.78196 0.0
H364 H 0.86785 0.3793 0.16795 0.0
O365 O 0.83123 0.29452 0.18341 0.0
H366 H 0.99036 0.28058 0.11377 0.0
H367 H 0.9338 0.17348 0.11421 0.0
H368 H 0.81777 0.23608 0.91327 0.0
H369 H 0.93092 0.28478 0.99419 0.0
H370 H 0.89759 0.24405 0.15714 0.0
O371 O 0.79299 0.45097 0.97878 0.0
H372 H 0.70135 0.35347 0.83763 0.0
H373 H 0.71859 0.4743 0.981 0.0
H374 H 0.84078 0.16101 0.88977 0.0
H375 H 0.93661 0.39108 0.25433 0.0
H376 H 0.90737 0.13224 0.9751 0.0
H377 H 0.99737 0.33871 0.23359 0.0
O378 O 0.77781 0.27854 0.03235 0.0
H379 H 0.75168 0.45868 0.30767 0.0
H380 H 0.67062 0.38525 0.05291 0.0
H381 H 0.63016 0.42019 0.18069 0.0
H382 H 0.67016 0.45675 0.31031 0.0
H383 H 0.79143 0.42339 0.17859 0.0
H384 H 0.64356 0.49657 0.94095 0.0
H385 H 0.59911 0.45077 0.83376 0.0
O386 O 0.7286 0.33074 1.00115 0.0
C387 C 0.82495 0.33658 0.8395 0.0
C388 C 0.64865 0.40054 0.82378 0.0
C389 C 0.65741 0.46701 0.91132 0.0
N390 N 0.71472 0.41252 0.9123 0.0
C391 C 0.69012 0.38627 0.8549 0.0
C392 C 0.69989 0.45371 0.93483 0.0
C393 C 0.63205 0.44072 0.85338 0.0
C394 C 0.89674 0.36194 0.14449 0.0
N395 N 0.89456 0.33091 0.07408 0.0
C396 C 0.93499 0.36744 0.198 0.0
C397 C 0.96947 0.33825 0.18613 0.0
C398 C 0.96661 0.30692 0.11565 0.0
C399 C 0.93157 0.30809 0.0516 0.0
C400 C 0.90814 0.18715 0.0707 0.0
C401 C 0.84322 0.22275 0.95817 0.0
C402 C 0.88801 0.2271 0.09378 0.0
N403 N 0.85942 0.24641 0.03189 0.0
C404 C 0.85804 0.18057 0.94087 0.0
C405 C 0.89363 0.16418 0.99181 0.0
C406 C 0.73828 0.29148 0.02665 0.0
C407 C 0.73385 0.44254 0.25193 0.0
C408 C 0.68904 0.40133 0.10809 0.0
C409 C 0.66567 0.41972 0.18238 0.0
C410 C 0.68821 0.44069 0.25455 0.0
N411 N 0.73374 0.4065 0.10145 0.0
C412 C 0.75624 0.42409 0.17587 0.0
Co413 Co 0.68971 0.83679 0.04638 0.0
Co414 Co 0.60706 0.76341 0.98519 0.0
O415 O 0.63033 0.81202 0.05955 0.0
C416 C 0.68962 0.79996 0.2371 0.0
O417 O 0.66713 0.76636 0.20516 0.0
C418 C 0.52262 0.8187 0.03546 0.0
O419 O 0.54369 0.84805 0.08591 0.0
O420 O 0.6297 0.79439 0.86026 0.0
O421 O 0.68101 0.84436 0.90445 0.0
H422 H 0.6154 0.6276 0.78196 0.0
H423 H 0.61605 0.86786 0.16795 0.0
O424 O 0.70084 0.83123 0.18341 0.0
H425 H 0.71478 0.99036 0.11377 0.0
H426 H 0.82187 0.9338 0.1142 0.0
H427 H 0.75927 0.81777 0.91327 0.0
H428 H 0.71058 0.93092 0.99419 0.0
H429 H 0.7513 0.89759 0.15714 0.0
O430 O 0.54438 0.79299 0.97879 0.0
H431 H 0.64188 0.70135 0.83763 0.0
H432 H 0.52105 0.71859 0.981 0.0
H433 H 0.83435 0.84077 0.88976 0.0
H434 H 0.60427 0.93661 0.25432 0.0
H435 H 0.86312 0.90736 0.97509 0.0
H436 H 0.65664 0.99737 0.23359 0.0
O437 O 0.71681 0.77781 0.03235 0.0
H438 H 0.53667 0.75168 0.30767 0.0
H439 H 0.6101 0.67062 0.05291 0.0
H440 H 0.57516 0.63016 0.1807 0.0
H441 H 0.5386 0.67016 0.31031 0.0
H442 H 0.57197 0.79143 0.17859 0.0
H443 H 0.49879 0.64356 0.94095 0.0
H444 H 0.54458 0.59911 0.83377 0.0
O445 O 0.66462 0.7286 1.00115 0.0
C446 C 0.65878 0.82495 0.8395 0.0
C447 C 0.59481 0.64865 0.82378 0.0
C448 C 0.52835 0.65741 0.91132 0.0
N449 N 0.58283 0.71472 0.9123 0.0
C450 C 0.60908 0.69012 0.8549 0.0
C451 C 0.54164 0.69989 0.93483 0.0
C452 C 0.55464 0.63205 0.85338 0.0
C453 C 0.63342 0.89674 0.14449 0.0
N454 N 0.66444 0.89457 0.07408 0.0
C455 C 0.62792 0.935 0.198 0.0
C456 C 0.6571 0.96947 0.18613 0.0
C457 C 0.68843 0.96661 0.11565 0.0
C458 C 0.68726 0.93158 0.0516 0.0
C459 C 0.80821 0.90814 0.0707 0.0
C460 C 0.7726 0.84321 0.95817 0.0
C461 C 0.76825 0.88801 0.09378 0.0
N462 N 0.74895 0.85942 0.03188 0.0
C463 C 0.81479 0.85804 0.94087 0.0
C464 C 0.83117 0.89363 0.99181 0.0
C465 C 0.70387 0.73828 0.02665 0.0
C466 C 0.55281 0.73385 0.25193 0.0
C467 C 0.59402 0.68904 0.10809 0.0
C468 C 0.57563 0.66567 0.18238 0.0
C469 C 0.55466 0.68821 0.25455 0.0
N470 N 0.58885 0.73374 0.10145 0.0
C471 C 0.57126 0.75624 0.17587 0.0
Co472 Co 0.65856 0.80563 0.52801 0.0
Co473 Co 0.73194 0.88829 0.5892 0.0
O474 O 0.68333 0.86501 0.51483 0.0
C475 C 0.69539 0.80572 0.33729 0.0
O476 O 0.72899 0.82822 0.36921 0.0
C477 C 0.67665 0.97272 0.53891 0.0
O478 O 0.6473 0.95166 0.48847 0.0
O479 O 0.70095 0.86565 0.71413 0.0
O480 O 0.65099 0.81434 0.66994 0.0
H481 H 0.86775 0.87996 0.79242 0.0
H482 H 0.62748 0.87929 0.40645 0.0
O483 O 0.66412 0.79451 0.39098 0.0
H484 H 0.50499 0.78055 0.46066 0.0
H485 H 0.56156 0.67346 0.46019 0.0
H486 H 0.67759 0.73608 0.66112 0.0
H487 H 0.56444 0.78475 0.58022 0.0
H488 H 0.59777 0.74403 0.41725 0.0
O489 O 0.70235 0.95097 0.5956 0.0
H490 H 0.794 0.85347 0.73675 0.0
H491 H 0.77676 0.9743 0.59337 0.0
H492 H 0.65459 0.66099 0.68463 0.0
H493 H 0.55872 0.89105 0.32008 0.0
H494 H 0.58801 0.63222 0.5993 0.0
H495 H 0.49797 0.83868 0.34083 0.0
O496 O 0.71754 0.77854 0.54203 0.0
H497 H 0.74366 0.95868 0.26671 0.0
H498 H 0.82472 0.88525 0.52147 0.0
H499 H 0.86519 0.9202 0.39369 0.0
H500 H 0.82519 0.95676 0.26408 0.0
H501 H 0.70392 0.92338 0.39578 0.0
H502 H 0.85179 0.99656 0.63342 0.0
H503 H 0.89624 0.95077 0.7406 0.0
O504 O 0.76675 0.83073 0.57324 0.0
C505 C 0.6704 0.83657 0.73488 0.0
C506 C 0.8467 0.90054 0.7506 0.0
C507 C 0.83793 0.96701 0.66305 0.0
N508 N 0.78062 0.91252 0.66208 0.0
C509 C 0.80523 0.88627 0.71948 0.0
C510 C 0.79545 0.95371 0.63955 0.0
C511 C 0.8633 0.94072 0.72099 0.0
C512 C 0.5986 0.86192 0.42991 0.0
N513 N 0.60078 0.8309 0.50032 0.0
C514 C 0.56034 0.86741 0.3764 0.0
C515 C 0.52587 0.83822 0.38828 0.0
C516 C 0.52874 0.80689 0.45876 0.0
C517 C 0.56378 0.80807 0.52281 0.0
C518 C 0.58722 0.68713 0.50369 0.0
C519 C 0.65215 0.72274 0.61622 0.0
C520 C 0.60735 0.72709 0.48061 0.0
N521 N 0.63593 0.74639 0.54251 0.0
C522 C 0.63733 0.68055 0.63352 0.0
C523 C 0.60174 0.66416 0.58258 0.0
C524 C 0.75707 0.79148 0.54773 0.0
C525 C 0.76149 0.94254 0.32245 0.0
C526 C 0.8063 0.90133 0.46629 0.0
C527 C 0.82967 0.91972 0.39201 0.0
C528 C 0.80714 0.94069 0.31984 0.0
N529 N 0.7616 0.90649 0.47293 0.0
C530 C 0.73911 0.92408 0.39851 0.0
Co531 Co 0.18972 0.65856 0.52801 0.0
Co532 Co 0.10706 0.73194 0.5892 0.0
O533 O 0.13034 0.68333 0.51484 0.0
C534 C 0.18963 0.69539 0.33729 0.0
O535 O 0.16713 0.72899 0.36921 0.0
C536 C 0.02263 0.67665 0.53891 0.0
O537 O 0.04369 0.6473 0.48847 0.0
O538 O 0.1297 0.70095 0.71413 0.0
O539 O 0.18102 0.65099 0.66994 0.0
H540 H 0.11539 0.86775 0.79243 0.0
H541 H 0.11607 0.62748 0.40645 0.0
O542 O 0.20084 0.66412 0.39098 0.0
H543 H 0.2148 0.50499 0.46065 0.0
H544 H 0.32189 0.56156 0.46018 0.0
H545 H 0.25928 0.67759 0.66111 0.0
H546 H 0.2106 0.56444 0.58022 0.0
H547 H 0.25132 0.59776 0.41725 0.0
O548 O 0.04438 0.70235 0.5956 0.0
H549 H 0.14188 0.794 0.73676 0.0
H550 H 0.02105 0.77676 0.59337 0.0
H551 H 0.33436 0.65459 0.68463 0.0
H552 H 0.1043 0.55872 0.32008 0.0
H553 H 0.36313 0.58801 0.59929 0.0
H554 H 0.15667 0.49797 0.34083 0.0
O555 O 0.21682 0.71754 0.54203 0.0
H556 H 0.03667 0.74366 0.26672 0.0
H557 H 0.1101 0.82472 0.52147 0.0
H558 H 0.07516 0.86519 0.3937 0.0
H559 H 0.0386 0.82519 0.26409 0.0
H560 H 0.07198 0.70392 0.39579 0.0
H561 H -0.00121 0.85179 0.63342 0.0
H562 H 0.04458 0.89624 0.74061 0.0
O563 O 0.16462 0.76675 0.57324 0.0
C564 C 0.15878 0.6704 0.73488 0.0
C565 C 0.09481 0.8467 0.7506 0.0
C566 C 0.02835 0.83793 0.66305 0.0
N567 N 0.08283 0.78062 0.66209 0.0
C568 C 0.10908 0.80522 0.71949 0.0
C569 C 0.04164 0.79545 0.63955 0.0
C570 C 0.05463 0.8633 0.721 0.0
C571 C 0.13343 0.5986 0.4299 0.0
N572 N 0.16446 0.60078 0.50032 0.0
C573 C 0.12794 0.56034 0.3764 0.0
C574 C 0.15713 0.52587 0.38828 0.0
C575 C 0.18846 0.52874 0.45876 0.0
C576 C 0.18728 0.56378 0.52281 0.0
C577 C 0.30822 0.58722 0.50369 0.0
C578 C 0.27261 0.65215 0.61621 0.0
C579 C 0.26826 0.60735 0.48061 0.0
N580 N 0.24896 0.63593 0.5425 0.0
C581 C 0.3148 0.63732 0.63352 0.0
C582 C 0.33119 0.60174 0.58258 0.0
C583 C 0.20387 0.75707 0.54774 0.0
C584 C 0.05282 0.76149 0.32246 0.0
C585 C 0.09402 0.8063 0.46629 0.0
C586 C 0.07563 0.82967 0.39201 0.0
C587 C 0.05466 0.80714 0.31984 0.0
N588 N 0.08886 0.7616 0.47293 0.0
C589 C 0.07127 0.73911 0.39851 0.0
Co590 Co 0.33679 0.18972 0.52801 0.0
Co591 Co 0.26341 0.10706 0.5892 0.0
O592 O 0.31203 0.13034 0.51484 0.0
C593 C 0.29996 0.18963 0.33729 0.0
O594 O 0.26636 0.16713 0.36922 0.0
C595 C 0.3187 0.02263 0.53891 0.0
O596 O 0.34805 0.04369 0.48847 0.0
O597 O 0.2944 0.12971 0.71413 0.0
O598 O 0.34436 0.18102 0.66994 0.0
H599 H 0.1276 0.11539 0.79243 0.0
H600 H 0.36787 0.11607 0.40644 0.0
O601 O 0.33123 0.20085 0.39097 0.0
H602 H 0.49036 0.2148 0.46065 0.0
H603 H 0.43379 0.32189 0.46018 0.0
H604 H 0.31776 0.25928 0.66111 0.0
H605 H 0.43091 0.2106 0.58022 0.0
H606 H 0.39759 0.25132 0.41725 0.0
O607 O 0.293 0.04438 0.5956 0.0
H608 H 0.20136 0.14188 0.73676 0.0
H609 H 0.2186 0.02105 0.59338 0.0
H610 H 0.34076 0.33436 0.68463 0.0
H611 H 0.43663 0.1043 0.32007 0.0
H612 H 0.40735 0.36313 0.59929 0.0
H613 H 0.49738 0.15667 0.34082 0.0
O614 O 0.27781 0.21682 0.54203 0.0
H615 H 0.25169 0.03667 0.26672 0.0
H616 H 0.17063 0.1101 0.52148 0.0
H617 H 0.13016 0.07516 0.39371 0.0
H618 H 0.17017 0.0386 0.2641 0.0
H619 H 0.29144 0.07198 0.39579 0.0
H620 H 0.14356 -0.00121 0.63343 0.0
H621 H 0.09911 0.04458 0.74061 0.0
O622 O 0.2286 0.16462 0.57324 0.0
C623 C 0.32495 0.15878 0.73488 0.0
C624 C 0.14865 0.09481 0.75061 0.0
C625 C 0.15742 0.02835 0.66306 0.0
N626 N 0.21473 0.08283 0.66209 0.0
C627 C 0.19013 0.10908 0.71949 0.0
C628 C 0.1999 0.04164 0.63956 0.0
C629 C 0.13206 0.05463 0.721 0.0
C630 C 0.39675 0.13344 0.4299 0.0
N631 N 0.39457 0.16446 0.50031 0.0
C632 C 0.43501 0.12794 0.37639 0.0
C633 C 0.46948 0.15713 0.38828 0.0
C634 C 0.46662 0.18846 0.45876 0.0
C635 C 0.43158 0.18728 0.52281 0.0
C636 C 0.40813 0.30822 0.50369 0.0
C637 C 0.34321 0.27261 0.61621 0.0
C638 C 0.388 0.26827 0.48061 0.0
N639 N 0.35942 0.24896 0.5425 0.0
C640 C 0.35803 0.3148 0.63352 0.0
C641 C 0.39362 0.33119 0.58258 0.0
C642 C 0.23828 0.20387 0.54774 0.0
C643 C 0.23386 0.05282 0.32246 0.0
C644 C 0.18905 0.09402 0.4663 0.0
C645 C 0.16568 0.07563 0.39202 0.0
C646 C 0.18822 0.05466 0.31985 0.0
N647 N 0.23375 0.08886 0.47294 0.0
C648 C 0.25625 0.07127 0.39851 0.0
Co649 Co 0.80563 0.33679 0.52801 0.0
Co650 Co 0.88829 0.26341 0.5892 0.0
O651 O 0.86501 0.31203 0.51483 0.0
C652 C 0.80572 0.29996 0.33729 0.0
O653 O 0.82822 0.26636 0.36922 0.0
C654 C 0.97272 0.3187 0.53891 0.0
O655 O 0.95166 0.34805 0.48846 0.0
O656 O 0.86565 0.2944 0.71413 0.0
O657 O 0.81433 0.34436 0.66994 0.0
H658 H 0.87996 0.1276 0.79242 0.0
H659 H 0.87928 0.36787 0.40644 0.0
O660 O 0.79451 0.33123 0.39098 0.0
H661 H 0.78055 0.49036 0.46066 0.0
H662 H 0.67346 0.43379 0.46019 0.0
H663 H 0.73607 0.31776 0.66112 0.0
H664 H 0.78475 0.43091 0.58022 0.0
H665 H 0.74403 0.39759 0.41725 0.0
O666 O 0.95097 0.293 0.5956 0.0
H667 H 0.85347 0.20136 0.73676 0.0
H668 H 0.9743 0.2186 0.59338 0.0
H669 H 0.66099 0.34076 0.68463 0.0
H670 H 0.89105 0.43663 0.32007 0.0
H671 H 0.63222 0.40734 0.5993 0.0
H672 H 0.83868 0.49738 0.34083 0.0
O673 O 0.77854 0.27781 0.54203 0.0
H674 H 0.95868 0.25169 0.26672 0.0
H675 H 0.88525 0.17063 0.52148 0.0
H676 H 0.9202 0.13016 0.3937 0.0
H677 H 0.95676 0.17017 0.26409 0.0
H678 H 0.92337 0.29144 0.39578 0.0
H679 H 0.99656 0.14357 0.63343 0.0
H680 H 0.95077 0.09911 0.74061 0.0
O681 O 0.83073 0.2286 0.57324 0.0
C682 C 0.83657 0.32495 0.73488 0.0
C683 C 0.90054 0.14865 0.7506 0.0
C684 C 0.96701 0.15742 0.66306 0.0
N685 N 0.91252 0.21473 0.66209 0.0
C686 C 0.88627 0.19013 0.71949 0.0
C687 C 0.95371 0.1999 0.63955 0.0
C688 C 0.94072 0.13206 0.721 0.0
C689 C 0.86192 0.39676 0.4299 0.0
N690 N 0.83089 0.39457 0.50031 0.0
C691 C 0.86741 0.43501 0.3764 0.0
C692 C 0.83822 0.46948 0.38828 0.0
C693 C 0.80689 0.46662 0.45876 0.0
C694 C 0.80807 0.43158 0.52281 0.0
C695 C 0.68713 0.40813 0.50369 0.0
C696 C 0.72274 0.3432 0.61622 0.0
C697 C 0.72709 0.388 0.48061 0.0
N698 N 0.74639 0.35942 0.5425 0.0
C699 C 0.68055 0.35803 0.63352 0.0
C700 C 0.66416 0.39361 0.58258 0.0
C701 C 0.79148 0.23828 0.54774 0.0
C702 C 0.94254 0.23386 0.32246 0.0
C703 C 0.90133 0.18905 0.4663 0.0
C704 C 0.91972 0.16568 0.39202 0.0
C705 C 0.94069 0.18822 0.31984 0.0
N706 N 0.90649 0.23375 0.47293 0.0
C707 C 0.92408 0.25625 0.39851 0.0
Co708 Co 0.65855 0.1897 0.54638 0.0
Co709 Co 0.73194 0.10706 0.48518 0.0
O710 O 0.68333 0.13033 0.55955 0.0
C711 C 0.69539 0.18962 0.73709 0.0
O712 O 0.72899 0.16712 0.70517 0.0
C713 C 0.67665 0.02262 0.53546 0.0
O714 O 0.6473 0.04368 0.58591 0.0
O715 O 0.70095 0.1297 0.36026 0.0
O716 O 0.65099 0.181 0.40445 0.0
H717 H 0.86775 0.1154 0.28196 0.0
H718 H 0.62749 0.11605 0.66795 0.0
O719 O 0.66412 0.20083 0.68341 0.0
H720 H 0.50499 0.21476 0.61378 0.0
H721 H 0.56154 0.32187 0.6142 0.0
H722 H 0.67758 0.25926 0.41327 0.0
H723 H 0.56443 0.21057 0.49419 0.0
H724 H 0.59775 0.25129 0.65714 0.0
O725 O 0.70236 0.04437 0.47878 0.0
H726 H 0.794 0.14188 0.33763 0.0
H727 H 0.77676 0.02104 0.481 0.0
H728 H 0.65457 0.33434 0.38976 0.0
H729 H 0.55874 0.10427 0.75433 0.0
H730 H 0.58798 0.36311 0.47509 0.0
H731 H 0.49798 0.15663 0.73359 0.0
O732 O 0.71753 0.21681 0.53235 0.0
H733 H 0.74367 0.03666 0.80767 0.0
H734 H 0.82472 0.1101 0.55291 0.0
H735 H 0.86519 0.07515 0.68069 0.0
H736 H 0.82519 0.03859 0.8103 0.0
H737 H 0.70392 0.07196 0.67859 0.0
H738 H 0.85179 -0.00121 0.44094 0.0
H739 H 0.89625 0.04458 0.33376 0.0
O740 O 0.76675 0.16461 0.50115 0.0
C741 C 0.6704 0.15877 0.3395 0.0
C742 C 0.8467 0.09481 0.32378 0.0
C743 C 0.83794 0.02834 0.41131 0.0
N744 N 0.78063 0.08283 0.41229 0.0
C745 C 0.80523 0.10908 0.3549 0.0
C746 C 0.79546 0.04164 0.43482 0.0
C747 C 0.8633 0.05464 0.35337 0.0
C748 C 0.5986 0.13341 0.6445 0.0
N749 N 0.60078 0.16443 0.57408 0.0
C750 C 0.56035 0.12791 0.698 0.0
C751 C 0.52587 0.15709 0.68613 0.0
C752 C 0.52873 0.18842 0.61566 0.0
C753 C 0.56377 0.18725 0.5516 0.0
C754 C 0.5872 0.3082 0.5707 0.0
C755 C 0.65213 0.27259 0.45817 0.0
C756 C 0.60734 0.26824 0.59378 0.0
N757 N 0.63592 0.24894 0.53188 0.0
C758 C 0.63731 0.31478 0.44087 0.0
C759 C 0.60172 0.33116 0.49181 0.0
C760 C 0.75707 0.20386 0.52665 0.0
C761 C 0.7615 0.05281 0.75193 0.0
C762 C 0.8063 0.09402 0.60809 0.0
C763 C 0.82967 0.07563 0.68237 0.0
C764 C 0.80714 0.05466 0.75455 0.0
N765 N 0.76161 0.08885 0.60145 0.0
C766 C 0.73911 0.07126 0.67587 0.0
Co767 Co 0.80565 0.65855 0.54638 0.0
Co768 Co 0.8883 0.73194 0.48518 0.0
O769 O 0.86502 0.68333 0.55955 0.0
C770 C 0.80573 0.69539 0.73709 0.0
O771 O 0.82823 0.72899 0.70517 0.0
C772 C 0.97273 0.67665 0.53546 0.0
O773 O 0.95167 0.6473 0.5859 0.0
O774 O 0.86565 0.70095 0.36025 0.0
O775 O 0.81435 0.65099 0.40445 0.0
H776 H 0.87996 0.86775 0.28195 0.0
H777 H 0.8793 0.62749 0.66795 0.0
O778 O 0.79452 0.66412 0.68341 0.0
H779 H 0.78059 0.50499 0.61378 0.0
H780 H 0.67349 0.56154 0.61421 0.0
H781 H 0.73609 0.67757 0.41327 0.0
H782 H 0.78478 0.56443 0.49419 0.0
H783 H 0.74406 0.59775 0.65714 0.0
O784 O 0.95098 0.70236 0.47878 0.0
H785 H 0.85347 0.794 0.33762 0.0
H786 H 0.97431 0.77676 0.48099 0.0
H787 H 0.66101 0.65457 0.38977 0.0
H788 H 0.89108 0.55874 0.75433 0.0
H789 H 0.63224 0.58798 0.4751 0.0
H790 H 0.83872 0.49798 0.73359 0.0
O791 O 0.77855 0.71753 0.53235 0.0
H792 H 0.95869 0.74366 0.80766 0.0
H793 H 0.88526 0.82472 0.5529 0.0
H794 H 0.9202 0.86519 0.68068 0.0
H795 H 0.95676 0.82519 0.8103 0.0
H796 H 0.92339 0.70392 0.67859 0.0
H797 H 0.99657 0.85179 0.44094 0.0
H798 H 0.95077 0.89624 0.33376 0.0
O799 O 0.83074 0.76675 0.50115 0.0
C800 C 0.83658 0.6704 0.3395 0.0
C801 C 0.90054 0.8467 0.32377 0.0
C802 C 0.96701 0.83794 0.41131 0.0
N803 N 0.91252 0.78062 0.41229 0.0
C804 C 0.88627 0.80523 0.35489 0.0
C805 C 0.95372 0.79546 0.43482 0.0
C806 C 0.94072 0.8633 0.35337 0.0
C807 C 0.86194 0.5986 0.6445 0.0
N808 N 0.83092 0.60078 0.57408 0.0
C809 C 0.86744 0.56035 0.698 0.0
C810 C 0.83826 0.52587 0.68613 0.0
C811 C 0.80693 0.52873 0.61566 0.0
C812 C 0.8081 0.56377 0.5516 0.0
C813 C 0.68715 0.5872 0.5707 0.0
C814 C 0.72276 0.65213 0.45817 0.0
C815 C 0.72711 0.60734 0.59378 0.0
N816 N 0.74641 0.63592 0.53189 0.0
C817 C 0.68057 0.6373 0.44087 0.0
C818 C 0.66419 0.60172 0.49181 0.0
C819 C 0.79149 0.75707 0.52665 0.0
C820 C 0.94254 0.7615 0.75192 0.0
C821 C 0.90134 0.8063 0.60808 0.0
C822 C 0.91972 0.82967 0.68237 0.0
C823 C 0.94069 0.80714 0.75454 0.0
N824 N 0.9065 0.76161 0.60145 0.0
C825 C 0.92409 0.73911 0.67587 0.0
Co826 Co 0.3368 0.80565 0.54638 0.0
Co827 Co 0.26341 0.8883 0.48518 0.0
O828 O 0.31202 0.86502 0.55955 0.0
C829 C 0.29996 0.80573 0.73709 0.0
O830 O 0.26636 0.82823 0.70517 0.0
C831 C 0.3187 0.97273 0.53546 0.0
O832 O 0.34805 0.95167 0.5859 0.0
O833 O 0.2944 0.86565 0.36025 0.0
O834 O 0.34437 0.81435 0.40445 0.0
H835 H 0.1276 0.87996 0.28195 0.0
H836 H 0.36786 0.87931 0.66794 0.0
O837 O 0.33124 0.79452 0.68341 0.0
H838 H 0.49036 0.78058 0.61378 0.0
H839 H 0.43381 0.67349 0.6142 0.0
H840 H 0.31778 0.73609 0.41327 0.0
H841 H 0.43092 0.78478 0.49419 0.0
H842 H 0.3976 0.74406 0.65714 0.0
O843 O 0.29299 0.95098 0.47878 0.0
H844 H 0.20136 0.85348 0.33763 0.0
H845 H 0.21859 0.97431 0.481 0.0
H846 H 0.34078 0.66101 0.38977 0.0
H847 H 0.43662 0.89109 0.75432 0.0
H848 H 0.40737 0.63224 0.4751 0.0
H849 H 0.49737 0.83872 0.73359 0.0
O850 O 0.27782 0.77855 0.53235 0.0
H851 H 0.25169 0.95869 0.80767 0.0
H852 H 0.17063 0.88526 0.55291 0.0
H853 H 0.13016 0.9202 0.68069 0.0
H854 H 0.17017 0.95676 0.8103 0.0
H855 H 0.29144 0.92339 0.67859 0.0
H856 H 0.14356 0.99657 0.44095 0.0
H857 H 0.09911 0.95077 0.33376 0.0
O858 O 0.2286 0.83074 0.50115 0.0
C859 C 0.32495 0.83658 0.3395 0.0
C860 C 0.14865 0.90054 0.32378 0.0
C861 C 0.15742 0.96701 0.41132 0.0
N862 N 0.21473 0.91252 0.4123 0.0
C863 C 0.19013 0.88627 0.3549 0.0
C864 C 0.19989 0.95372 0.43483 0.0
C865 C 0.13205 0.94072 0.35338 0.0
C866 C 0.39675 0.86194 0.64449 0.0
N867 N 0.39457 0.83092 0.57408 0.0
C868 C 0.435 0.86744 0.698 0.0
C869 C 0.46948 0.83826 0.68613 0.0
C870 C 0.46662 0.80693 0.61565 0.0
C871 C 0.43158 0.8081 0.55159 0.0
C872 C 0.40815 0.68715 0.5707 0.0
C873 C 0.34322 0.72276 0.45817 0.0
C874 C 0.38801 0.72711 0.59378 0.0
N875 N 0.35943 0.74641 0.53189 0.0
C876 C 0.35805 0.68057 0.44087 0.0
C877 C 0.39364 0.66419 0.49181 0.0
C878 C 0.23828 0.79149 0.52665 0.0
C879 C 0.23386 0.94254 0.75193 0.0
C880 C 0.18905 0.90133 0.60809 0.0
C881 C 0.16568 0.91972 0.68238 0.0
C882 C 0.18821 0.94069 0.75455 0.0
N883 N 0.23375 0.9065 0.60145 0.0
C884 C 0.25624 0.92409 0.67587 0.0
Co885 Co 0.1897 0.3368 0.54638 0.0
Co886 Co 0.10706 0.26341 0.48519 0.0
O887 O 0.13033 0.31202 0.55955 0.0
C888 C 0.18962 0.29996 0.73709 0.0
O889 O 0.16712 0.26636 0.70517 0.0
C890 C 0.02262 0.3187 0.53546 0.0
O891 O 0.04368 0.34805 0.5859 0.0
O892 O 0.1297 0.2944 0.36026 0.0
O893 O 0.181 0.34437 0.40445 0.0
H894 H 0.11539 0.1276 0.28196 0.0
H895 H 0.11604 0.36786 0.66794 0.0
O896 O 0.20083 0.33124 0.68341 0.0
H897 H 0.21477 0.49036 0.61377 0.0
H898 H 0.32187 0.43381 0.6142 0.0
H899 H 0.25926 0.31778 0.41327 0.0
H900 H 0.21057 0.43092 0.49419 0.0
H901 H 0.25129 0.3976 0.65714 0.0
O902 O 0.04437 0.29299 0.47878 0.0
H903 H 0.14188 0.20136 0.33763 0.0
H904 H 0.02104 0.21859 0.481 0.0
H905 H 0.33434 0.34078 0.38976 0.0
H906 H 0.10426 0.43662 0.75432 0.0
H907 H 0.36311 0.40737 0.47509 0.0
H908 H 0.15663 0.49737 0.73359 0.0
O909 O 0.21681 0.27782 0.53235 0.0
H910 H 0.03666 0.25169 0.80767 0.0
H911 H 0.1101 0.17063 0.55291 0.0
H912 H 0.07515 0.13016 0.6807 0.0
H913 H 0.03859 0.17017 0.81031 0.0
H914 H 0.07196 0.29143 0.67859 0.0
H915 H -0.00122 0.14356 0.44095 0.0
H916 H 0.04458 0.09911 0.33377 0.0
O917 O 0.16461 0.2286 0.50115 0.0
C918 C 0.15877 0.32495 0.3395 0.0
C919 C 0.09481 0.14865 0.32378 0.0
C920 C 0.02834 0.15741 0.41132 0.0
N921 N 0.08283 0.21473 0.4123 0.0
C922 C 0.10908 0.19013 0.3549 0.0
C923 C 0.04164 0.19989 0.43483 0.0
C924 C 0.05463 0.13205 0.35338 0.0
C925 C 0.13341 0.39675 0.64449 0.0
N926 N 0.16443 0.39457 0.57408 0.0
C927 C 0.12791 0.435 0.698 0.0
C928 C 0.15709 0.46948 0.68613 0.0
C929 C 0.18842 0.46662 0.61565 0.0
C930 C 0.18726 0.43158 0.55159 0.0
C931 C 0.3082 0.40815 0.5707 0.0
C932 C 0.27259 0.34322 0.45817 0.0
C933 C 0.26824 0.38801 0.59378 0.0
N934 N 0.24894 0.35943 0.53188 0.0
C935 C 0.31478 0.35805 0.44087 0.0
C936 C 0.33116 0.39363 0.49181 0.0
C937 C 0.20386 0.23828 0.52666 0.0
C938 C 0.05281 0.23386 0.75193 0.0
C939 C 0.09402 0.18905 0.60809 0.0
C940 C 0.07563 0.16568 0.68238 0.0
C941 C 0.05466 0.18821 0.75455 0.0
N942 N 0.08885 0.23374 0.60145 0.0
C943 C 0.07126 0.25624 0.67587 0.0
loop_
_geom_bond_atom_site_label_1
_geom_bond_atom_site_label_2
_geom_bond_distance
_geom_bond_site_symmetry_2
_ccdc_geom_bond_type
Co0 O2 2.143 . S
Co0 O8 2.074 . S
Co0 O11 2.093 1_554 S
Co0 O24 2.097 . S
Co0 N41 2.151 . S
Co0 N49 2.214 . S
Co1 O2 2.163 . S
Co1 O7 2.058 . S
Co1 O17 2.057 . S
Co1 O32 2.037 . S
Co1 N36 2.145 . S
Co1 N57 2.257 1_554 S
O2 Co0 2.143 . S
O2 Co1 2.163 . S
C3 O4 1.278 . S
C3 O11 1.224 . S
O4 C3 1.278 . S
C5 O6 1.245 . S
C5 O17 1.232 . S
O6 C5 1.245 . S
O7 Co1 2.058 . S
O7 C33 1.269 . S
O8 Co0 2.074 . S
O8 C33 1.257 . S
H9 C34 0.930 . S
H10 C40 0.930 . S
O11 Co0 2.093 1_556 S
O11 C3 1.224 . S
H12 C44 0.929 . S
H13 C46 0.930 1_556 S
H14 C47 0.930 . S
H15 C45 0.929 . S
H16 C48 0.928 . S
O17 Co1 2.057 . S
O17 C5 1.232 . S
H18 C37 0.929 . S
H19 C38 0.929 . S
H20 C50 0.931 . S
H21 C42 0.929 . S
H22 C51 0.930 . S
H23 C43 0.931 1_655 S
O24 Co0 2.097 . S
O24 C52 1.214 . S
H25 C53 0.929 . S
H26 C54 0.929 1_554 S
H27 C55 0.930 . S
H28 C56 0.929 . S
H29 C58 0.930 . S
H30 C35 0.930 . S
H31 C39 0.930 . S
O32 Co1 2.037 . S
O32 C52 1.234 . S
C33 O7 1.269 . S
C33 O8 1.257 . S
C34 H9 0.930 . S
C34 C37 1.388 . S
C34 C39 1.418 . S
C35 H30 0.930 . S
C35 C38 1.404 . S
C35 C39 1.353 . S
N36 Co1 2.145 . S
N36 C37 1.397 . S
N36 C38 1.334 . S
C37 H18 0.929 . S
C37 C34 1.388 . S
C37 N36 1.397 . S
C38 H19 0.929 . S
C38 C35 1.404 . S
C38 N36 1.334 . S
C39 H31 0.930 . S
C39 C34 1.418 . S
C39 C35 1.353 . S
C40 H10 0.930 . S
C40 N41 1.330 1_556 S
C40 C42 1.446 . S
N41 Co0 2.151 . S
N41 C40 1.330 1_554 S
N41 C45 1.418 . S
C42 H21 0.929 . S
C42 C40 1.446 . S
C42 C43 1.332 1_556 S
C43 H23 0.931 1_455 S
C43 C42 1.332 1_554 S
C43 C44 1.267 . S
C44 H12 0.929 . S
C44 C43 1.267 . S
C44 C45 1.251 . S
C45 H15 0.929 . S
C45 N41 1.418 . S
C45 C44 1.251 . S
C46 H13 0.930 1_554 S
C46 C48 1.406 1_554 S
C46 C51 1.261 . S
C47 H14 0.930 . S
C47 N49 1.325 . S
C47 C50 1.357 . S
C48 H16 0.928 . S
C48 C46 1.406 1_556 S
C48 N49 1.261 1_556 S
N49 Co0 2.214 . S
N49 C47 1.325 . S
N49 C48 1.261 1_554 S
C50 H20 0.931 . S
C50 C47 1.357 . S
C50 C51 1.312 . S
C51 H22 0.930 . S
C51 C46 1.261 . S
C51 C50 1.312 . S
C52 O24 1.214 . S
C52 O32 1.234 . S
C53 H25 0.929 . S
C53 C56 1.391 . S
C53 C58 1.391 . S
C54 H26 0.929 1_556 S
C54 C55 1.390 . S
C54 N57 1.391 . S
C55 H27 0.930 . S
C55 C54 1.390 . S
C55 C56 1.392 . S
C56 H28 0.929 . S
C56 C53 1.391 . S
C56 C55 1.392 . S
N57 Co1 2.257 1_556 S
N57 C54 1.391 . S
N57 C58 1.388 . S
C58 H29 0.930 . S
C58 C53 1.391 . S
C58 N57 1.388 . S
Co59 O61 2.143 . S
Co59 O67 2.074 . S
Co59 O70 2.093 1_554 S
Co59 O83 2.097 . S
Co59 N100 2.151 . S
Co59 N108 2.214 . S
Co60 O61 2.163 . S
Co60 O66 2.058 . S
Co60 O76 2.057 . S
Co60 O91 2.037 . S
Co60 N95 2.145 . S
Co60 N116 2.257 1_554 S
O61 Co59 2.143 . S
O61 Co60 2.163 . S
C62 O63 1.278 . S
C62 O70 1.224 . S
O63 C62 1.278 . S
C64 O65 1.245 . S
C64 O76 1.232 . S
O65 C64 1.245 . S
O66 Co60 2.058 . S
O66 C92 1.269 . S
O67 Co59 2.074 . S
O67 C92 1.257 . S
H68 C93 0.930 . S
H69 C99 0.930 . S
O70 Co59 2.093 1_556 S
O70 C62 1.224 . S
H71 C103 0.929 . S
H72 C105 0.930 1_556 S
H73 C106 0.930 . S
H74 C104 0.929 . S
H75 C107 0.928 . S
O76 Co60 2.057 . S
O76 C64 1.232 . S
H77 C96 0.929 . S
H78 C97 0.929 . S
H79 C109 0.931 . S
H80 C101 0.929 . S
H81 C110 0.930 . S
H82 C102 0.931 1_565 S
O83 Co59 2.097 . S
O83 C111 1.214 . S
H84 C112 0.929 . S
H85 C113 0.929 1_554 S
H86 C114 0.930 . S
H87 C115 0.929 . S
H88 C117 0.930 . S
H89 C94 0.930 . S
H90 C98 0.930 . S
O91 Co60 2.037 . S
O91 C111 1.234 . S
C92 O66 1.269 . S
C92 O67 1.257 . S
C93 H68 0.930 . S
C93 C96 1.388 . S
C93 C98 1.418 . S
C94 H89 0.930 . S
C94 C97 1.404 . S
C94 C98 1.353 . S
N95 Co60 2.145 . S
N95 C96 1.397 . S
N95 C97 1.334 . S
C96 H77 0.929 . S
C96 C93 1.388 . S
C96 N95 1.397 . S
C97 H78 0.929 . S
C97 C94 1.404 . S
C97 N95 1.334 . S
C98 H90 0.930 . S
C98 C93 1.418 . S
C98 C94 1.353 . S
C99 H69 0.930 . S
C99 N100 1.330 1_556 S
C99 C101 1.446 . S
N100 Co59 2.151 . S
N100 C99 1.330 1_554 S
N100 C104 1.418 . S
C101 H80 0.929 . S
C101 C99 1.446 . S
C101 C102 1.332 1_556 S
C102 H82 0.931 1_545 S
C102 C101 1.332 1_554 S
C102 C103 1.267 . S
C103 H71 0.929 . S
C103 C102 1.267 . S
C103 C104 1.251 . S
C104 H74 0.929 . S
C104 N100 1.418 . S
C104 C103 1.251 . S
C105 H72 0.930 1_554 S
C105 C107 1.406 1_554 S
C105 C110 1.261 . S
C106 H73 0.930 . S
C106 N108 1.325 . S
C106 C109 1.357 . S
C107 H75 0.928 . S
C107 C105 1.406 1_556 S
C107 N108 1.261 1_556 S
N108 Co59 2.214 . S
N108 C106 1.325 . S
N108 C107 1.261 1_554 S
C109 H79 0.931 . S
C109 C106 1.357 . S
C109 C110 1.312 . S
C110 H81 0.930 . S
C110 C105 1.261 . S
C110 C109 1.312 . S
C111 O83 1.214 . S
C111 O91 1.234 . S
C112 H84 0.929 . S
C112 C115 1.391 . S
C112 C117 1.391 . S
C113 H85 0.929 1_556 S
C113 C114 1.390 . S
C113 N116 1.391 . S
C114 H86 0.930 . S
C114 C113 1.390 . S
C114 C115 1.392 . S
C115 H87 0.929 . S
C115 C112 1.391 . S
C115 C114 1.392 . S
N116 Co60 2.257 1_556 S
N116 C113 1.391 . S
N116 C117 1.388 . S
C117 H88 0.930 . S
C117 C112 1.391 . S
C117 N116 1.388 . S
Co118 O120 2.143 . S
Co118 O126 2.074 . S
Co118 O129 2.093 1_554 S
Co118 O142 2.097 . S
Co118 N159 2.151 . S
Co118 N167 2.214 . S
Co119 O120 2.163 . S
Co119 O125 2.058 . S
Co119 O135 2.057 . S
Co119 O150 2.037 . S
Co119 N154 2.145 . S
Co119 N175 2.257 1_554 S
O120 Co118 2.143 . S
O120 Co119 2.163 . S
C121 O122 1.278 . S
C121 O129 1.224 . S
O122 C121 1.278 . S
C123 O124 1.245 . S
C123 O135 1.232 . S
O124 C123 1.245 . S
O125 Co119 2.058 . S
O125 C151 1.269 . S
O126 Co118 2.074 . S
O126 C151 1.257 . S
H127 C152 0.930 . S
H128 C158 0.930 . S
O129 Co118 2.093 1_556 S
O129 C121 1.224 . S
H130 C162 0.929 . S
H131 C164 0.930 1_556 S
H132 C165 0.930 . S
H133 C163 0.929 . S
H134 C166 0.928 . S
O135 Co119 2.057 . S
O135 C123 1.232 . S
H136 C155 0.929 . S
H137 C156 0.929 . S
H138 C168 0.931 . S
H139 C160 0.929 . S
H140 C169 0.930 . S
H141 C161 0.931 1_455 S
O142 Co118 2.097 . S
O142 C170 1.214 . S
H143 C171 0.929 . S
H144 C172 0.929 1_554 S
H145 C173 0.930 . S
H146 C174 0.929 . S
H147 C176 0.930 . S
H148 C153 0.930 . S
H149 C157 0.930 . S
O150 Co119 2.037 . S
O150 C170 1.234 . S
C151 O125 1.269 . S
C151 O126 1.257 . S
C152 H127 0.930 . S
C152 C155 1.388 . S
C152 C157 1.418 . S
C153 H148 0.930 . S
C153 C156 1.404 . S
C153 C157 1.353 . S
N154 Co119 2.145 . S
N154 C155 1.397 . S
N154 C156 1.334 . S
C155 H136 0.929 . S
C155 C152 1.388 . S
C155 N154 1.397 . S
C156 H137 0.929 . S
C156 C153 1.404 . S
C156 N154 1.334 . S
C157 H149 0.930 . S
C157 C152 1.418 . S
C157 C153 1.353 . S
C158 H128 0.930 . S
C158 N159 1.330 1_556 S
C158 C160 1.446 . S
N159 Co118 2.151 . S
N159 C158 1.330 1_554 S
N159 C163 1.418 . S
C160 H139 0.929 . S
C160 C158 1.446 . S
C160 C161 1.332 1_556 S
C161 H141 0.931 1_655 S
C161 C160 1.332 1_554 S
C161 C162 1.267 . S
C162 H130 0.929 . S
C162 C161 1.267 . S
C162 C163 1.251 . S
C163 H133 0.929 . S
C163 N159 1.418 . S
C163 C162 1.251 . S
C164 H131 0.930 1_554 S
C164 C166 1.406 1_554 S
C164 C169 1.261 . S
C165 H132 0.930 . S
C165 N167 1.325 . S
C165 C168 1.357 . S
C166 H134 0.928 . S
C166 C164 1.406 1_556 S
C166 N167 1.261 1_556 S
N167 Co118 2.214 . S
N167 C165 1.325 . S
N167 C166 1.261 1_554 S
C168 H138 0.931 . S
C168 C165 1.357 . S
C168 C169 1.312 . S
C169 H140 0.930 . S
C169 C164 1.261 . S
C169 C168 1.312 . S
C170 O142 1.214 . S
C170 O150 1.234 . S
C171 H143 0.929 . S
C171 C174 1.391 . S
C171 C176 1.391 . S
C172 H144 0.929 1_556 S
C172 C173 1.390 . S
C172 N175 1.391 . S
C173 H145 0.930 . S
C173 C172 1.390 . S
C173 C174 1.392 . S
C174 H146 0.929 . S
C174 C171 1.391 . S
C174 C173 1.392 . S
N175 Co119 2.257 1_556 S
N175 C172 1.391 . S
N175 C176 1.388 . S
C176 H147 0.930 . S
C176 C171 1.391 . S
C176 N175 1.388 . S
Co177 O179 2.143 . S
Co177 O185 2.074 . S
Co177 O188 2.093 1_554 S
Co177 O201 2.097 . S
Co177 N218 2.151 . S
Co177 N226 2.214 . S
Co178 O179 2.163 . S
Co178 O184 2.058 . S
Co178 O194 2.057 . S
Co178 O209 2.037 . S
Co178 N213 2.145 . S
Co178 N234 2.257 1_554 S
O179 Co177 2.143 . S
O179 Co178 2.163 . S
C180 O181 1.278 . S
C180 O188 1.224 . S
O181 C180 1.278 . S
C182 O183 1.245 . S
C182 O194 1.232 . S
O183 C182 1.245 . S
O184 Co178 2.058 . S
O184 C210 1.269 . S
O185 Co177 2.074 . S
O185 C210 1.257 . S
H186 C211 0.930 . S
H187 C217 0.930 . S
O188 Co177 2.093 1_556 S
O188 C180 1.224 . S
H189 C221 0.929 . S
H190 C223 0.930 1_556 S
H191 C224 0.930 . S
H192 C222 0.929 . S
H193 C225 0.928 . S
O194 Co178 2.057 . S
O194 C182 1.232 . S
H195 C214 0.929 . S
H196 C215 0.929 . S
H197 C227 0.931 . S
H198 C219 0.929 . S
H199 C228 0.930 . S
H200 C220 0.931 1_545 S
O201 Co177 2.097 . S
O201 C229 1.214 . S
H202 C230 0.929 . S
H203 C231 0.929 1_554 S
H204 C232 0.930 . S
H205 C233 0.929 . S
H206 C235 0.930 . S
H207 C212 0.930 . S
H208 C216 0.930 . S
O209 Co178 2.037 . S
O209 C229 1.234 . S
C210 O184 1.269 . S
C210 O185 1.257 . S
C211 H186 0.930 . S
C211 C214 1.388 . S
C211 C216 1.418 . S
C212 H207 0.930 . S
C212 C215 1.404 . S
C212 C216 1.353 . S
N213 Co178 2.145 . S
N213 C214 1.397 . S
N213 C215 1.334 . S
C214 H195 0.929 . S
C214 C211 1.388 . S
C214 N213 1.397 . S
C215 H196 0.929 . S
C215 C212 1.404 . S
C215 N213 1.334 . S
C216 H208 0.930 . S
C216 C211 1.418 . S
C216 C212 1.353 . S
C217 H187 0.930 . S
C217 N218 1.330 1_556 S
C217 C219 1.446 . S
N218 Co177 2.151 . S
N218 C217 1.330 1_554 S
N218 C222 1.418 . S
C219 H198 0.929 . S
C219 C217 1.446 . S
C219 C220 1.332 1_556 S
C220 H200 0.931 1_565 S
C220 C219 1.332 1_554 S
C220 C221 1.267 . S
C221 H189 0.929 . S
C221 C220 1.267 . S
C221 C222 1.251 . S
C222 H192 0.929 . S
C222 N218 1.418 . S
C222 C221 1.251 . S
C223 H190 0.930 1_554 S
C223 C225 1.406 1_554 S
C223 C228 1.261 . S
C224 H191 0.930 . S
C224 N226 1.325 . S
C224 C227 1.357 . S
C225 H193 0.928 . S
C225 C223 1.406 1_556 S
C225 N226 1.261 1_556 S
N226 Co177 2.214 . S
N226 C224 1.325 . S
N226 C225 1.261 1_554 S
C227 H197 0.931 . S
C227 C224 1.357 . S
C227 C228 1.312 . S
C228 H199 0.930 . S
C228 C223 1.261 . S
C228 C227 1.312 . S
C229 O201 1.214 . S
C229 O209 1.234 . S
C230 H202 0.929 . S
C230 C233 1.391 . S
C230 C235 1.391 . S
C231 H203 0.929 1_556 S
C231 C232 1.390 . S
C231 N234 1.391 . S
C232 H204 0.930 . S
C232 C231 1.390 . S
C232 C233 1.392 . S
C233 H205 0.929 . S
C233 C230 1.391 . S
C233 C232 1.392 . S
N234 Co178 2.257 1_556 S
N234 C231 1.391 . S
N234 C235 1.388 . S
C235 H206 0.930 . S
C235 C230 1.391 . S
C235 N234 1.388 . S
Co236 O238 2.143 . S
Co236 O244 2.074 1_554 S
Co236 O247 2.093 . S
Co236 O260 2.097 . S
Co236 N277 2.151 . S
Co236 N285 2.214 . S
Co237 O238 2.160 1_556 S
Co237 O243 2.058 . S
Co237 O253 2.057 . S
Co237 O268 2.037 . S
Co237 N272 2.145 . S
Co237 N293 2.257 1_556 S
O238 Co236 2.143 . S
O238 Co237 2.160 1_554 S
C239 O240 1.278 . S
C239 O247 1.224 . S
O240 C239 1.278 . S
C241 O242 1.246 . S
C241 O253 1.231 1_554 S
O242 C241 1.246 . S
O243 Co237 2.058 . S
O243 C269 1.269 . S
O244 Co236 2.074 1_556 S
O244 C269 1.257 . S
H245 C270 0.930 . S
H246 C276 0.930 . S
O247 Co236 2.093 . S
O247 C239 1.224 . S
H248 C280 0.929 . S
H249 C282 0.930 . S
H250 C283 0.930 . S
H251 C281 0.929 . S
H252 C284 0.928 . S
O253 Co237 2.057 . S
O253 C241 1.231 1_556 S
H254 C273 0.929 . S
H255 C274 0.929 . S
H256 C286 0.931 . S
H257 C278 0.929 . S
H258 C287 0.930 . S
H259 C279 0.931 1_655 S
O260 Co236 2.097 . S
O260 C288 1.214 . S
H261 C289 0.929 . S
H262 C290 0.929 . S
H263 C291 0.930 . S
H264 C292 0.929 . S
H265 C294 0.930 . S
H266 C271 0.930 . S
H267 C275 0.930 . S
O268 Co237 2.037 . S
O268 C288 1.234 1_556 S
C269 O243 1.269 . S
C269 O244 1.257 . S
C270 H245 0.930 . S
C270 C273 1.388 . S
C270 C275 1.418 . S
C271 H266 0.930 . S
C271 C274 1.404 . S
C271 C275 1.353 . S
N272 Co237 2.145 . S
N272 C273 1.397 . S
N272 C274 1.334 . S
C273 H254 0.929 . S
C273 C270 1.388 . S
C273 N272 1.397 . S
C274 H255 0.929 . S
C274 C271 1.404 . S
C274 N272 1.334 . S
C275 H267 0.930 . S
C275 C270 1.418 . S
C275 C271 1.353 . S
C276 H246 0.930 . S
C276 N277 1.330 . S
C276 C278 1.446 . S
N277 Co236 2.151 . S
N277 C276 1.330 . S
N277 C281 1.418 1_554 S
C278 H257 0.929 . S
C278 C276 1.446 . S
C278 C279 1.332 . S
C279 H259 0.931 1_455 S
C279 C278 1.332 . S
C279 C280 1.267 1_554 S
C280 H248 0.929 . S
C280 C279 1.267 1_556 S
C280 C281 1.251 . S
C281 H251 0.929 . S
C281 N277 1.418 1_556 S
C281 C280 1.251 . S
C282 H249 0.930 . S
C282 C284 1.406 . S
C282 C287 1.261 1_554 S
C283 H250 0.930 . S
C283 N285 1.325 1_556 S
C283 C286 1.357 . S
C284 H252 0.928 . S
C284 C282 1.406 . S
C284 N285 1.261 . S
N285 Co236 2.214 . S
N285 C283 1.325 1_554 S
N285 C284 1.261 . S
C286 H256 0.931 . S
C286 C283 1.357 . S
C286 C287 1.312 . S
C287 H258 0.930 . S
C287 C282 1.261 1_556 S
C287 C286 1.312 . S
C288 O260 1.214 . S
C288 O268 1.234 1_554 S
C289 H261 0.929 . S
C289 C292 1.391 . S
C289 C294 1.391 . S
C290 H262 0.929 . S
C290 C291 1.390 . S
C290 N293 1.391 . S
C291 H263 0.930 . S
C291 C290 1.390 . S
C291 C292 1.392 . S
C292 H264 0.929 . S
C292 C289 1.391 . S
C292 C291 1.392 . S
N293 Co237 2.257 1_554 S
N293 C290 1.391 . S
N293 C294 1.388 . S
C294 H265 0.930 . S
C294 C289 1.391 . S
C294 N293 1.388 . S
Co295 O297 2.143 . S
Co295 O303 2.074 1_554 S
Co295 O306 2.093 . S
Co295 O319 2.097 . S
Co295 N336 2.151 . S
Co295 N344 2.214 . S
Co296 O297 2.160 1_556 S
Co296 O302 2.058 . S
Co296 O312 2.057 . S
Co296 O327 2.037 . S
Co296 N331 2.145 . S
Co296 N352 2.257 1_556 S
O297 Co295 2.143 . S
O297 Co296 2.160 1_554 S
C298 O299 1.278 . S
C298 O306 1.224 . S
O299 C298 1.278 . S
C300 O301 1.246 . S
C300 O312 1.231 1_554 S
O301 C300 1.246 . S
O302 Co296 2.058 . S
O302 C328 1.269 . S
O303 Co295 2.074 1_556 S
O303 C328 1.257 . S
H304 C329 0.930 . S
H305 C335 0.930 . S
O306 Co295 2.093 . S
O306 C298 1.224 . S
H307 C339 0.929 . S
H308 C341 0.930 . S
H309 C342 0.930 . S
H310 C340 0.929 . S
H311 C343 0.928 . S
O312 Co296 2.057 . S
O312 C300 1.231 1_556 S
H313 C332 0.929 . S
H314 C333 0.929 . S
H315 C345 0.931 . S
H316 C337 0.929 . S
H317 C346 0.930 . S
H318 C338 0.931 1_565 S
O319 Co295 2.097 . S
O319 C347 1.214 . S
H320 C348 0.929 . S
H321 C349 0.929 . S
H322 C350 0.930 . S
H323 C351 0.929 . S
H324 C353 0.930 . S
H325 C330 0.930 . S
H326 C334 0.930 . S
O327 Co296 2.037 . S
O327 C347 1.234 1_556 S
C328 O302 1.269 . S
C328 O303 1.257 . S
C329 H304 0.930 . S
C329 C332 1.388 . S
C329 C334 1.418 . S
C330 H325 0.930 . S
C330 C333 1.404 . S
C330 C334 1.353 . S
N331 Co296 2.145 . S
N331 C332 1.397 . S
N331 C333 1.334 . S
C332 H313 0.929 . S
C332 C329 1.388 . S
C332 N331 1.397 . S
C333 H314 0.929 . S
C333 C330 1.404 . S
C333 N331 1.334 . S
C334 H326 0.930 . S
C334 C329 1.418 . S
C334 C330 1.353 . S
C335 H305 0.930 . S
C335 N336 1.330 . S
C335 C337 1.446 . S
N336 Co295 2.151 . S
N336 C335 1.330 . S
N336 C340 1.418 1_554 S
C337 H316 0.929 . S
C337 C335 1.446 . S
C337 C338 1.332 . S
C338 H318 0.931 1_545 S
C338 C337 1.332 . S
C338 C339 1.267 1_554 S
C339 H307 0.929 . S
C339 C338 1.267 1_556 S
C339 C340 1.251 . S
C340 H310 0.929 . S
C340 N336 1.418 1_556 S
C340 C339 1.251 . S
C341 H308 0.930 . S
C341 C343 1.406 . S
C341 C346 1.261 1_554 S
C342 H309 0.930 . S
C342 N344 1.325 1_556 S
C342 C345 1.357 . S
C343 H311 0.928 . S
C343 C341 1.406 . S
C343 N344 1.261 . S
N344 Co295 2.214 . S
N344 C342 1.325 1_554 S
N344 C343 1.261 . S
C345 H315 0.931 . S
C345 C342 1.357 . S
C345 C346 1.312 . S
C346 H317 0.930 . S
C346 C341 1.261 1_556 S
C346 C345 1.312 . S
C347 O319 1.214 . S
C347 O327 1.234 1_554 S
C348 H320 0.929 . S
C348 C351 1.391 . S
C348 C353 1.391 . S
C349 H321 0.929 . S
C349 C350 1.390 . S
C349 N352 1.391 . S
C350 H322 0.930 . S
C350 C349 1.390 . S
C350 C351 1.392 . S
C351 H323 0.929 . S
C351 C348 1.391 . S
C351 C350 1.392 . S
N352 Co296 2.257 1_554 S
N352 C349 1.391 . S
N352 C353 1.388 . S
C353 H324 0.930 . S
C353 C348 1.391 . S
C353 N352 1.388 . S
Co354 O356 2.143 . S
Co354 O362 2.074 1_554 S
Co354 O365 2.093 . S
Co354 O378 2.097 . S
Co354 N395 2.151 . S
Co354 N403 2.214 . S
Co355 O356 2.160 1_556 S
Co355 O361 2.058 . S
Co355 O371 2.057 . S
Co355 O386 2.037 . S
Co355 N390 2.145 . S
Co355 N411 2.257 1_556 S
O356 Co354 2.143 . S
O356 Co355 2.160 1_554 S
C357 O358 1.278 . S
C357 O365 1.224 . S
O358 C357 1.278 . S
C359 O360 1.246 . S
C359 O371 1.231 1_554 S
O360 C359 1.246 . S
O361 Co355 2.058 . S
O361 C387 1.269 . S
O362 Co354 2.074 1_556 S
O362 C387 1.257 . S
H363 C388 0.930 . S
H364 C394 0.930 . S
O365 Co354 2.093 . S
O365 C357 1.224 . S
H366 C398 0.929 . S
H367 C400 0.930 . S
H368 C401 0.930 . S
H369 C399 0.929 . S
H370 C402 0.928 . S
O371 Co355 2.057 . S
O371 C359 1.231 1_556 S
H372 C391 0.929 . S
H373 C392 0.929 . S
H374 C404 0.931 . S
H375 C396 0.929 . S
H376 C405 0.930 . S
H377 C397 0.931 1_455 S
O378 Co354 2.097 . S
O378 C406 1.214 . S
H379 C407 0.929 . S
H380 C408 0.929 . S
H381 C409 0.930 . S
H382 C410 0.929 . S
H383 C412 0.930 . S
H384 C389 0.930 . S
H385 C393 0.930 . S
O386 Co355 2.037 . S
O386 C406 1.234 1_556 S
C387 O361 1.269 . S
C387 O362 1.257 . S
C388 H363 0.930 . S
C388 C391 1.388 . S
C388 C393 1.418 . S
C389 H384 0.930 . S
C389 C392 1.404 . S
C389 C393 1.353 . S
N390 Co355 2.145 . S
N390 C391 1.397 . S
N390 C392 1.334 . S
C391 H372 0.929 . S
C391 C388 1.388 . S
C391 N390 1.397 . S
C392 H373 0.929 . S
C392 C389 1.404 . S
C392 N390 1.334 . S
C393 H385 0.930 . S
C393 C388 1.418 . S
C393 C389 1.353 . S
C394 H364 0.930 . S
C394 N395 1.330 . S
C394 C396 1.446 . S
N395 Co354 2.151 . S
N395 C394 1.330 . S
N395 C399 1.418 1_554 S
C396 H375 0.929 . S
C396 C394 1.446 . S
C396 C397 1.332 . S
C397 H377 0.931 1_655 S
C397 C396 1.332 . S
C397 C398 1.267 1_554 S
C398 H366 0.929 . S
C398 C397 1.267 1_556 S
C398 C399 1.251 . S
C399 H369 0.929 . S
C399 N395 1.418 1_556 S
C399 C398 1.251 . S
C400 H367 0.930 . S
C400 C402 1.406 . S
C400 C405 1.261 1_554 S
C401 H368 0.930 . S
C401 N403 1.325 1_556 S
C401 C404 1.357 . S
C402 H370 0.928 . S
C402 C400 1.406 . S
C402 N403 1.261 . S
N403 Co354 2.214 . S
N403 C401 1.325 1_554 S
N403 C402 1.261 . S
C404 H374 0.931 . S
C404 C401 1.357 . S
C404 C405 1.312 . S
C405 H376 0.930 . S
C405 C400 1.261 1_556 S
C405 C404 1.312 . S
C406 O378 1.214 . S
C406 O386 1.234 1_554 S
C407 H379 0.929 . S
C407 C410 1.391 . S
C407 C412 1.391 . S
C408 H380 0.929 . S
C408 C409 1.390 . S
C408 N411 1.391 . S
C409 H381 0.930 . S
C409 C408 1.390 . S
C409 C410 1.392 . S
C410 H382 0.929 . S
C410 C407 1.391 . S
C410 C409 1.392 . S
N411 Co355 2.257 1_554 S
N411 C408 1.391 . S
N411 C412 1.388 . S
C412 H383 0.930 . S
C412 C407 1.391 . S
C412 N411 1.388 . S
Co413 O415 2.143 . S
Co413 O421 2.074 1_554 S
Co413 O424 2.093 . S
Co413 O437 2.097 . S
Co413 N454 2.151 . S
Co413 N462 2.214 . S
Co414 O415 2.160 1_556 S
Co414 O420 2.058 . S
Co414 O430 2.057 . S
Co414 O445 2.037 . S
Co414 N449 2.145 . S
Co414 N470 2.257 1_556 S
O415 Co413 2.143 . S
O415 Co414 2.160 1_554 S
C416 O417 1.278 . S
C416 O424 1.224 . S
O417 C416 1.278 . S
C418 O419 1.246 . S
C418 O430 1.231 1_554 S
O419 C418 1.246 . S
O420 Co414 2.058 . S
O420 C446 1.269 . S
O421 Co413 2.074 1_556 S
O421 C446 1.257 . S
H422 C447 0.930 . S
H423 C453 0.930 . S
O424 Co413 2.093 . S
O424 C416 1.224 . S
H425 C457 0.929 . S
H426 C459 0.930 . S
H427 C460 0.930 . S
H428 C458 0.929 . S
H429 C461 0.928 . S
O430 Co414 2.057 . S
O430 C418 1.231 1_556 S
H431 C450 0.929 . S
H432 C451 0.929 . S
H433 C463 0.931 . S
H434 C455 0.929 . S
H435 C464 0.930 . S
H436 C456 0.931 1_545 S
O437 Co413 2.097 . S
O437 C465 1.214 . S
H438 C466 0.929 . S
H439 C467 0.929 . S
H440 C468 0.930 . S
H441 C469 0.929 . S
H442 C471 0.930 . S
H443 C448 0.930 . S
H444 C452 0.930 . S
O445 Co414 2.037 . S
O445 C465 1.234 1_556 S
C446 O420 1.269 . S
C446 O421 1.257 . S
C447 H422 0.930 . S
C447 C450 1.388 . S
C447 C452 1.418 . S
C448 H443 0.930 . S
C448 C451 1.404 . S
C448 C452 1.353 . S
N449 Co414 2.145 . S
N449 C450 1.397 . S
N449 C451 1.334 . S
C450 H431 0.929 . S
C450 C447 1.388 . S
C450 N449 1.397 . S
C451 H432 0.929 . S
C451 C448 1.404 . S
C451 N449 1.334 . S
C452 H444 0.930 . S
C452 C447 1.418 . S
C452 C448 1.353 . S
C453 H423 0.930 . S
C453 N454 1.330 . S
C453 C455 1.446 . S
N454 Co413 2.151 . S
N454 C453 1.330 . S
N454 C458 1.418 1_554 S
C455 H434 0.929 . S
C455 C453 1.446 . S
C455 C456 1.332 . S
C456 H436 0.931 1_565 S
C456 C455 1.332 . S
C456 C457 1.267 1_554 S
C457 H425 0.929 . S
C457 C456 1.267 1_556 S
C457 C458 1.251 . S
C458 H428 0.929 . S
C458 N454 1.418 1_556 S
C458 C457 1.251 . S
C459 H426 0.930 . S
C459 C461 1.406 . S
C459 C464 1.261 1_554 S
C460 H427 0.930 . S
C460 N462 1.325 1_556 S
C460 C463 1.357 . S
C461 H429 0.928 . S
C461 C459 1.406 . S
C461 N462 1.261 . S
N462 Co413 2.214 . S
N462 C460 1.325 1_554 S
N462 C461 1.261 . S
C463 H433 0.931 . S
C463 C460 1.357 . S
C463 C464 1.312 . S
C464 H435 0.930 . S
C464 C459 1.261 1_556 S
C464 C463 1.312 . S
C465 O437 1.214 . S
C465 O445 1.234 1_554 S
C466 H438 0.929 . S
C466 C469 1.391 . S
C466 C471 1.391 . S
C467 H439 0.929 . S
C467 C468 1.390 . S
C467 N470 1.391 . S
C468 H440 0.930 . S
C468 C467 1.390 . S
C468 C469 1.392 . S
C469 H441 0.929 . S
C469 C466 1.391 . S
C469 C468 1.392 . S
N470 Co414 2.257 1_554 S
N470 C467 1.391 . S
N470 C471 1.388 . S
C471 H442 0.930 . S
C471 C466 1.391 . S
C471 N470 1.388 . S
Co472 O474 2.143 . S
Co472 O480 2.074 . S
Co472 O483 2.093 . S
Co472 O496 2.097 . S
Co472 N513 2.151 . S
Co472 N521 2.214 . S
Co473 O474 2.160 . S
Co473 O479 2.058 . S
Co473 O489 2.057 . S
Co473 O504 2.037 . S
Co473 N508 2.145 . S
Co473 N529 2.257 . S
O474 Co472 2.143 . S
O474 Co473 2.160 . S
C475 O476 1.278 . S
C475 O483 1.224 . S
O476 C475 1.278 . S
C477 O478 1.245 . S
C477 O489 1.232 . S
O478 C477 1.245 . S
O479 Co473 2.058 . S
O479 C505 1.269 . S
O480 Co472 2.074 . S
O480 C505 1.257 . S
H481 C506 0.930 . S
H482 C512 0.930 . S
O483 Co472 2.093 . S
O483 C475 1.224 . S
H484 C516 0.929 . S
H485 C518 0.930 . S
H486 C519 0.930 . S
H487 C517 0.929 . S
H488 C520 0.928 . S
O489 Co473 2.057 . S
O489 C477 1.232 . S
H490 C509 0.929 . S
H491 C510 0.929 . S
H492 C522 0.931 . S
H493 C514 0.929 . S
H494 C523 0.930 . S
H495 C515 0.931 . S
O496 Co472 2.097 . S
O496 C524 1.214 . S
H497 C525 0.929 . S
H498 C526 0.929 . S
H499 C527 0.930 . S
H500 C528 0.929 . S
H501 C530 0.930 . S
H502 C507 0.930 . S
H503 C511 0.930 . S
O504 Co473 2.037 . S
O504 C524 1.234 . S
C505 O479 1.269 . S
C505 O480 1.257 . S
C506 H481 0.930 . S
C506 C509 1.388 . S
C506 C511 1.418 . S
C507 H502 0.930 . S
C507 C510 1.404 . S
C507 C511 1.353 . S
N508 Co473 2.145 . S
N508 C509 1.397 . S
N508 C510 1.334 . S
C509 H490 0.929 . S
C509 C506 1.388 . S
C509 N508 1.397 . S
C510 H491 0.929 . S
C510 C507 1.404 . S
C510 N508 1.334 . S
C511 H503 0.930 . S
C511 C506 1.418 . S
C511 C507 1.353 . S
C512 H482 0.930 . S
C512 N513 1.330 . S
C512 C514 1.446 . S
N513 Co472 2.151 . S
N513 C512 1.330 . S
N513 C517 1.418 . S
C514 H493 0.929 . S
C514 C512 1.446 . S
C514 C515 1.332 . S
C515 H495 0.931 . S
C515 C514 1.332 . S
C515 C516 1.267 . S
C516 H484 0.929 . S
C516 C515 1.267 . S
C516 C517 1.251 . S
C517 H487 0.929 . S
C517 N513 1.418 . S
C517 C516 1.251 . S
C518 H485 0.930 . S
C518 C520 1.406 . S
C518 C523 1.261 . S
C519 H486 0.930 . S
C519 N521 1.325 . S
C519 C522 1.357 . S
C520 H488 0.928 . S
C520 C518 1.406 . S
C520 N521 1.261 . S
N521 Co472 2.214 . S
N521 C519 1.325 . S
N521 C520 1.261 . S
C522 H492 0.931 . S
C522 C519 1.357 . S
C522 C523 1.312 . S
C523 H494 0.930 . S
C523 C518 1.261 . S
C523 C522 1.312 . S
C524 O496 1.214 . S
C524 O504 1.234 . S
C525 H497 0.929 . S
C525 C528 1.391 . S
C525 C530 1.391 . S
C526 H498 0.929 . S
C526 C527 1.390 . S
C526 N529 1.391 . S
C527 H499 0.930 . S
C527 C526 1.390 . S
C527 C528 1.392 . S
C528 H500 0.929 . S
C528 C525 1.391 . S
C528 C527 1.392 . S
N529 Co473 2.257 . S
N529 C526 1.391 . S
N529 C530 1.388 . S
C530 H501 0.930 . S
C530 C525 1.391 . S
C530 N529 1.388 . S
Co531 O533 2.143 . S
Co531 O539 2.074 . S
Co531 O542 2.093 . S
Co531 O555 2.097 . S
Co531 N572 2.151 . S
Co531 N580 2.214 . S
Co532 O533 2.160 . S
Co532 O538 2.058 . S
Co532 O548 2.057 . S
Co532 O563 2.037 . S
Co532 N567 2.145 . S
Co532 N588 2.257 . S
O533 Co531 2.143 . S
O533 Co532 2.160 . S
C534 O535 1.278 . S
C534 O542 1.224 . S
O535 C534 1.278 . S
C536 O537 1.245 . S
C536 O548 1.232 . S
O537 C536 1.245 . S
O538 Co532 2.058 . S
O538 C564 1.269 . S
O539 Co531 2.074 . S
O539 C564 1.257 . S
H540 C565 0.930 . S
H541 C571 0.930 . S
O542 Co531 2.093 . S
O542 C534 1.224 . S
H543 C575 0.929 . S
H544 C577 0.930 . S
H545 C578 0.930 . S
H546 C576 0.929 . S
H547 C579 0.928 . S
O548 Co532 2.057 . S
O548 C536 1.232 . S
H549 C568 0.929 . S
H550 C569 0.929 . S
H551 C581 0.931 . S
H552 C573 0.929 . S
H553 C582 0.930 . S
H554 C574 0.931 . S
O555 Co531 2.097 . S
O555 C583 1.214 . S
H556 C584 0.929 . S
H557 C585 0.929 . S
H558 C586 0.930 . S
H559 C587 0.929 . S
H560 C589 0.930 . S
H561 C566 0.930 . S
H562 C570 0.930 . S
O563 Co532 2.037 . S
O563 C583 1.234 . S
C564 O538 1.269 . S
C564 O539 1.257 . S
C565 H540 0.930 . S
C565 C568 1.388 . S
C565 C570 1.418 . S
C566 H561 0.930 . S
C566 C569 1.404 . S
C566 C570 1.353 . S
N567 Co532 2.145 . S
N567 C568 1.397 . S
N567 C569 1.334 . S
C568 H549 0.929 . S
C568 C565 1.388 . S
C568 N567 1.397 . S
C569 H550 0.929 . S
C569 C566 1.404 . S
C569 N567 1.334 . S
C570 H562 0.930 . S
C570 C565 1.418 . S
C570 C566 1.353 . S
C571 H541 0.930 . S
C571 N572 1.330 . S
C571 C573 1.446 . S
N572 Co531 2.151 . S
N572 C571 1.330 . S
N572 C576 1.418 . S
C573 H552 0.929 . S
C573 C571 1.446 . S
C573 C574 1.332 . S
C574 H554 0.931 . S
C574 C573 1.332 . S
C574 C575 1.267 . S
C575 H543 0.929 . S
C575 C574 1.267 . S
C575 C576 1.251 . S
C576 H546 0.929 . S
C576 N572 1.418 . S
C576 C575 1.251 . S
C577 H544 0.930 . S
C577 C579 1.406 . S
C577 C582 1.261 . S
C578 H545 0.930 . S
C578 N580 1.325 . S
C578 C581 1.357 . S
C579 H547 0.928 . S
C579 C577 1.406 . S
C579 N580 1.261 . S
N580 Co531 2.214 . S
N580 C578 1.325 . S
N580 C579 1.261 . S
C581 H551 0.931 . S
C581 C578 1.357 . S
C581 C582 1.312 . S
C582 H553 0.930 . S
C582 C577 1.261 . S
C582 C581 1.312 . S
C583 O555 1.214 . S
C583 O563 1.234 . S
C584 H556 0.929 . S
C584 C587 1.391 . S
C584 C589 1.391 . S
C585 H557 0.929 . S
C585 C586 1.390 . S
C585 N588 1.391 . S
C586 H558 0.930 . S
C586 C585 1.390 . S
C586 C587 1.392 . S
C587 H559 0.929 . S
C587 C584 1.391 . S
C587 C586 1.392 . S
N588 Co532 2.257 . S
N588 C585 1.391 . S
N588 C589 1.388 . S
C589 H560 0.930 . S
C589 C584 1.391 . S
C589 N588 1.388 . S
Co590 O592 2.143 . S
Co590 O598 2.074 . S
Co590 O601 2.093 . S
Co590 O614 2.097 . S
Co590 N631 2.151 . S
Co590 N639 2.214 . S
Co591 O592 2.160 . S
Co591 O597 2.058 . S
Co591 O607 2.057 . S
Co591 O622 2.037 . S
Co591 N626 2.145 . S
Co591 N647 2.257 . S
O592 Co590 2.143 . S
O592 Co591 2.160 . S
C593 O594 1.278 . S
C593 O601 1.224 . S
O594 C593 1.278 . S
C595 O596 1.245 . S
C595 O607 1.232 . S
O596 C595 1.245 . S
O597 Co591 2.058 . S
O597 C623 1.269 . S
O598 Co590 2.074 . S
O598 C623 1.257 . S
H599 C624 0.930 . S
H600 C630 0.930 . S
O601 Co590 2.093 . S
O601 C593 1.224 . S
H602 C634 0.929 . S
H603 C636 0.930 . S
H604 C637 0.930 . S
H605 C635 0.929 . S
H606 C638 0.928 . S
O607 Co591 2.057 . S
O607 C595 1.232 . S
H608 C627 0.929 . S
H609 C628 0.929 . S
H610 C640 0.931 . S
H611 C632 0.929 . S
H612 C641 0.930 . S
H613 C633 0.931 . S
O614 Co590 2.097 . S
O614 C642 1.214 . S
H615 C643 0.929 . S
H616 C644 0.929 . S
H617 C645 0.930 . S
H618 C646 0.929 . S
H619 C648 0.930 . S
H620 C625 0.930 . S
H621 C629 0.930 . S
O622 Co591 2.037 . S
O622 C642 1.234 . S
C623 O597 1.269 . S
C623 O598 1.257 . S
C624 H599 0.930 . S
C624 C627 1.388 . S
C624 C629 1.418 . S
C625 H620 0.930 . S
C625 C628 1.404 . S
C625 C629 1.353 . S
N626 Co591 2.145 . S
N626 C627 1.397 . S
N626 C628 1.334 . S
C627 H608 0.929 . S
C627 C624 1.388 . S
C627 N626 1.397 . S
C628 H609 0.929 . S
C628 C625 1.404 . S
C628 N626 1.334 . S
C629 H621 0.930 . S
C629 C624 1.418 . S
C629 C625 1.353 . S
C630 H600 0.930 . S
C630 N631 1.330 . S
C630 C632 1.446 . S
N631 Co590 2.151 . S
N631 C630 1.330 . S
N631 C635 1.418 . S
C632 H611 0.929 . S
C632 C630 1.446 . S
C632 C633 1.332 . S
C633 H613 0.931 . S
C633 C632 1.332 . S
C633 C634 1.267 . S
C634 H602 0.929 . S
C634 C633 1.267 . S
C634 C635 1.251 . S
C635 H605 0.929 . S
C635 N631 1.418 . S
C635 C634 1.251 . S
C636 H603 0.930 . S
C636 C638 1.406 . S
C636 C641 1.261 . S
C637 H604 0.930 . S
C637 N639 1.325 . S
C637 C640 1.357 . S
C638 H606 0.928 . S
C638 C636 1.406 . S
C638 N639 1.261 . S
N639 Co590 2.214 . S
N639 C637 1.325 . S
N639 C638 1.261 . S
C640 H610 0.931 . S
C640 C637 1.357 . S
C640 C641 1.312 . S
C641 H612 0.930 . S
C641 C636 1.261 . S
C641 C640 1.312 . S
C642 O614 1.214 . S
C642 O622 1.234 . S
C643 H615 0.929 . S
C643 C646 1.391 . S
C643 C648 1.391 . S
C644 H616 0.929 . S
C644 C645 1.390 . S
C644 N647 1.391 . S
C645 H617 0.930 . S
C645 C644 1.390 . S
C645 C646 1.392 . S
C646 H618 0.929 . S
C646 C643 1.391 . S
C646 C645 1.392 . S
N647 Co591 2.257 . S
N647 C644 1.391 . S
N647 C648 1.388 . S
C648 H619 0.930 . S
C648 C643 1.391 . S
C648 N647 1.388 . S
Co649 O651 2.143 . S
Co649 O657 2.074 . S
Co649 O660 2.093 . S
Co649 O673 2.097 . S
Co649 N690 2.151 . S
Co649 N698 2.214 . S
Co650 O651 2.160 . S
Co650 O656 2.058 . S
Co650 O666 2.057 . S
Co650 O681 2.037 . S
Co650 N685 2.145 . S
Co650 N706 2.257 . S
O651 Co649 2.143 . S
O651 Co650 2.160 . S
C652 O653 1.278 . S
C652 O660 1.224 . S
O653 C652 1.278 . S
C654 O655 1.245 . S
C654 O666 1.232 . S
O655 C654 1.245 . S
O656 Co650 2.058 . S
O656 C682 1.269 . S
O657 Co649 2.074 . S
O657 C682 1.257 . S
H658 C683 0.930 . S
H659 C689 0.930 . S
O660 Co649 2.093 . S
O660 C652 1.224 . S
H661 C693 0.929 . S
H662 C695 0.930 . S
H663 C696 0.930 . S
H664 C694 0.929 . S
H665 C697 0.928 . S
O666 Co650 2.057 . S
O666 C654 1.232 . S
H667 C686 0.929 . S
H668 C687 0.929 . S
H669 C699 0.931 . S
H670 C691 0.929 . S
H671 C700 0.930 . S
H672 C692 0.931 . S
O673 Co649 2.097 . S
O673 C701 1.214 . S
H674 C702 0.929 . S
H675 C703 0.929 . S
H676 C704 0.930 . S
H677 C705 0.929 . S
H678 C707 0.930 . S
H679 C684 0.930 . S
H680 C688 0.930 . S
O681 Co650 2.037 . S
O681 C701 1.234 . S
C682 O656 1.269 . S
C682 O657 1.257 . S
C683 H658 0.930 . S
C683 C686 1.388 . S
C683 C688 1.418 . S
C684 H679 0.930 . S
C684 C687 1.404 . S
C684 C688 1.353 . S
N685 Co650 2.145 . S
N685 C686 1.397 . S
N685 C687 1.334 . S
C686 H667 0.929 . S
C686 C683 1.388 . S
C686 N685 1.397 . S
C687 H668 0.929 . S
C687 C684 1.404 . S
C687 N685 1.334 . S
C688 H680 0.930 . S
C688 C683 1.418 . S
C688 C684 1.353 . S
C689 H659 0.930 . S
C689 N690 1.330 . S
C689 C691 1.446 . S
N690 Co649 2.151 . S
N690 C689 1.330 . S
N690 C694 1.418 . S
C691 H670 0.929 . S
C691 C689 1.446 . S
C691 C692 1.332 . S
C692 H672 0.931 . S
C692 C691 1.332 . S
C692 C693 1.267 . S
C693 H661 0.929 . S
C693 C692 1.267 . S
C693 C694 1.251 . S
C694 H664 0.929 . S
C694 N690 1.418 . S
C694 C693 1.251 . S
C695 H662 0.930 . S
C695 C697 1.406 . S
C695 C700 1.261 . S
C696 H663 0.930 . S
C696 N698 1.325 . S
C696 C699 1.357 . S
C697 H665 0.928 . S
C697 C695 1.406 . S
C697 N698 1.261 . S
N698 Co649 2.214 . S
N698 C696 1.325 . S
N698 C697 1.261 . S
C699 H669 0.931 . S
C699 C696 1.357 . S
C699 C700 1.312 . S
C700 H671 0.930 . S
C700 C695 1.261 . S
C700 C699 1.312 . S
C701 O673 1.214 . S
C701 O681 1.234 . S
C702 H674 0.929 . S
C702 C705 1.391 . S
C702 C707 1.391 . S
C703 H675 0.929 . S
C703 C704 1.390 . S
C703 N706 1.391 . S
C704 H676 0.930 . S
C704 C703 1.390 . S
C704 C705 1.392 . S
C705 H677 0.929 . S
C705 C702 1.391 . S
C705 C704 1.392 . S
N706 Co650 2.257 . S
N706 C703 1.391 . S
N706 C707 1.388 . S
C707 H678 0.930 . S
C707 C702 1.391 . S
C707 N706 1.388 . S
Co708 O710 2.143 . S
Co708 O716 2.074 . S
Co708 O719 2.093 . S
Co708 O732 2.097 . S
Co708 N749 2.151 . S
Co708 N757 2.214 . S
Co709 O710 2.160 . S
Co709 O715 2.058 . S
Co709 O725 2.057 . S
Co709 O740 2.037 . S
Co709 N744 2.145 . S
Co709 N765 2.257 . S
O710 Co708 2.143 . S
O710 Co709 2.160 . S
C711 O712 1.278 . S
C711 O719 1.224 . S
O712 C711 1.278 . S
C713 O714 1.245 . S
C713 O725 1.232 . S
O714 C713 1.245 . S
O715 Co709 2.058 . S
O715 C741 1.269 . S
O716 Co708 2.074 . S
O716 C741 1.257 . S
H717 C742 0.930 . S
H718 C748 0.930 . S
O719 Co708 2.093 . S
O719 C711 1.224 . S
H720 C752 0.929 . S
H721 C754 0.930 . S
H722 C755 0.930 . S
H723 C753 0.929 . S
H724 C756 0.928 . S
O725 Co709 2.057 . S
O725 C713 1.232 . S
H726 C745 0.929 . S
H727 C746 0.929 . S
H728 C758 0.931 . S
H729 C750 0.929 . S
H730 C759 0.930 . S
H731 C751 0.931 . S
O732 Co708 2.097 . S
O732 C760 1.214 . S
H733 C761 0.929 . S
H734 C762 0.929 . S
H735 C763 0.930 . S
H736 C764 0.929 . S
H737 C766 0.930 . S
H738 C743 0.930 . S
H739 C747 0.930 . S
O740 Co709 2.037 . S
O740 C760 1.234 . S
C741 O715 1.269 . S
C741 O716 1.257 . S
C742 H717 0.930 . S
C742 C745 1.388 . S
C742 C747 1.418 . S
C743 H738 0.930 . S
C743 C746 1.404 . S
C743 C747 1.353 . S
N744 Co709 2.145 . S
N744 C745 1.397 . S
N744 C746 1.334 . S
C745 H726 0.929 . S
C745 C742 1.388 . S
C745 N744 1.397 . S
C746 H727 0.929 . S
C746 C743 1.404 . S
C746 N744 1.334 . S
C747 H739 0.930 . S
C747 C742 1.418 . S
C747 C743 1.353 . S
C748 H718 0.930 . S
C748 N749 1.330 . S
C748 C750 1.446 . S
N749 Co708 2.151 . S
N749 C748 1.330 . S
N749 C753 1.418 . S
C750 H729 0.929 . S
C750 C748 1.446 . S
C750 C751 1.332 . S
C751 H731 0.931 . S
C751 C750 1.332 . S
C751 C752 1.267 . S
C752 H720 0.929 . S
C752 C751 1.267 . S
C752 C753 1.251 . S
C753 H723 0.929 . S
C753 N749 1.418 . S
C753 C752 1.251 . S
C754 H721 0.930 . S
C754 C756 1.406 . S
C754 C759 1.261 . S
C755 H722 0.930 . S
C755 N757 1.325 . S
C755 C758 1.357 . S
C756 H724 0.928 . S
C756 C754 1.406 . S
C756 N757 1.261 . S
N757 Co708 2.214 . S
N757 C755 1.325 . S
N757 C756 1.261 . S
C758 H728 0.931 . S
C758 C755 1.357 . S
C758 C759 1.312 . S
C759 H730 0.930 . S
C759 C754 1.261 . S
C759 C758 1.312 . S
C760 O732 1.214 . S
C760 O740 1.234 . S
C761 H733 0.929 . S
C761 C764 1.391 . S
C761 C766 1.391 . S
C762 H734 0.929 . S
C762 C763 1.390 . S
C762 N765 1.391 . S
C763 H735 0.930 . S
C763 C762 1.390 . S
C763 C764 1.392 . S
C764 H736 0.929 . S
C764 C761 1.391 . S
C764 C763 1.392 . S
N765 Co709 2.257 . S
N765 C762 1.391 . S
N765 C766 1.388 . S
C766 H737 0.930 . S
C766 C761 1.391 . S
C766 N765 1.388 . S
Co767 O769 2.143 . S
Co767 O775 2.074 . S
Co767 O778 2.093 . S
Co767 O791 2.097 . S
Co767 N808 2.151 . S
Co767 N816 2.214 . S
Co768 O769 2.160 . S
Co768 O774 2.058 . S
Co768 O784 2.057 . S
Co768 O799 2.037 . S
Co768 N803 2.145 . S
Co768 N824 2.257 . S
O769 Co767 2.143 . S
O769 Co768 2.160 . S
C770 O771 1.278 . S
C770 O778 1.224 . S
O771 C770 1.278 . S
C772 O773 1.245 . S
C772 O784 1.232 . S
O773 C772 1.245 . S
O774 Co768 2.058 . S
O774 C800 1.269 . S
O775 Co767 2.074 . S
O775 C800 1.257 . S
H776 C801 0.930 . S
H777 C807 0.930 . S
O778 Co767 2.093 . S
O778 C770 1.224 . S
H779 C811 0.929 . S
H780 C813 0.930 . S
H781 C814 0.930 . S
H782 C812 0.929 . S
H783 C815 0.928 . S
O784 Co768 2.057 . S
O784 C772 1.232 . S
H785 C804 0.929 . S
H786 C805 0.929 . S
H787 C817 0.931 . S
H788 C809 0.929 . S
H789 C818 0.930 . S
H790 C810 0.931 . S
O791 Co767 2.097 . S
O791 C819 1.214 . S
H792 C820 0.929 . S
H793 C821 0.929 . S
H794 C822 0.930 . S
H795 C823 0.929 . S
H796 C825 0.930 . S
H797 C802 0.930 . S
H798 C806 0.930 . S
O799 Co768 2.037 . S
O799 C819 1.234 . S
C800 O774 1.269 . S
C800 O775 1.257 . S
C801 H776 0.930 . S
C801 C804 1.388 . S
C801 C806 1.418 . S
C802 H797 0.930 . S
C802 C805 1.404 . S
C802 C806 1.353 . S
N803 Co768 2.145 . S
N803 C804 1.397 . S
N803 C805 1.334 . S
C804 H785 0.929 . S
C804 C801 1.388 . S
C804 N803 1.397 . S
C805 H786 0.929 . S
C805 C802 1.404 . S
C805 N803 1.334 . S
C806 H798 0.930 . S
C806 C801 1.418 . S
C806 C802 1.353 . S
C807 H777 0.930 . S
C807 N808 1.330 . S
C807 C809 1.446 . S
N808 Co767 2.151 . S
N808 C807 1.330 . S
N808 C812 1.418 . S
C809 H788 0.929 . S
C809 C807 1.446 . S
C809 C810 1.332 . S
C810 H790 0.931 . S
C810 C809 1.332 . S
C810 C811 1.267 . S
C811 H779 0.929 . S
C811 C810 1.267 . S
C811 C812 1.251 . S
C812 H782 0.929 . S
C812 N808 1.418 . S
C812 C811 1.251 . S
C813 H780 0.930 . S
C813 C815 1.406 . S
C813 C818 1.261 . S
C814 H781 0.930 . S
C814 N816 1.325 . S
C814 C817 1.357 . S
C815 H783 0.928 . S
C815 C813 1.406 . S
C815 N816 1.261 . S
N816 Co767 2.214 . S
N816 C814 1.325 . S
N816 C815 1.261 . S
C817 H787 0.931 . S
C817 C814 1.357 . S
C817 C818 1.312 . S
C818 H789 0.930 . S
C818 C813 1.261 . S
C818 C817 1.312 . S
C819 O791 1.214 . S
C819 O799 1.234 . S
C820 H792 0.929 . S
C820 C823 1.391 . S
C820 C825 1.391 . S
C821 H793 0.929 . S
C821 C822 1.390 . S
C821 N824 1.391 . S
C822 H794 0.930 . S
C822 C821 1.390 . S
C822 C823 1.392 . S
C823 H795 0.929 . S
C823 C820 1.391 . S
C823 C822 1.392 . S
N824 Co768 2.257 . S
N824 C821 1.391 . S
N824 C825 1.388 . S
C825 H796 0.930 . S
C825 C820 1.391 . S
C825 N824 1.388 . S
Co826 O828 2.143 . S
Co826 O834 2.074 . S
Co826 O837 2.093 . S
Co826 O850 2.097 . S
Co826 N867 2.151 . S
Co826 N875 2.214 . S
Co827 O828 2.160 . S
Co827 O833 2.058 . S
Co827 O843 2.057 . S
Co827 O858 2.037 . S
Co827 N862 2.145 . S
Co827 N883 2.257 . S
O828 Co826 2.143 . S
O828 Co827 2.160 . S
C829 O830 1.278 . S
C829 O837 1.224 . S
O830 C829 1.278 . S
C831 O832 1.245 . S
C831 O843 1.232 . S
O832 C831 1.245 . S
O833 Co827 2.058 . S
O833 C859 1.269 . S
O834 Co826 2.074 . S
O834 C859 1.257 . S
H835 C860 0.930 . S
H836 C866 0.930 . S
O837 Co826 2.093 . S
O837 C829 1.224 . S
H838 C870 0.929 . S
H839 C872 0.930 . S
H840 C873 0.930 . S
H841 C871 0.929 . S
H842 C874 0.928 . S
O843 Co827 2.057 . S
O843 C831 1.232 . S
H844 C863 0.929 . S
H845 C864 0.929 . S
H846 C876 0.931 . S
H847 C868 0.929 . S
H848 C877 0.930 . S
H849 C869 0.931 . S
O850 Co826 2.097 . S
O850 C878 1.214 . S
H851 C879 0.929 . S
H852 C880 0.929 . S
H853 C881 0.930 . S
H854 C882 0.929 . S
H855 C884 0.930 . S
H856 C861 0.930 . S
H857 C865 0.930 . S
O858 Co827 2.037 . S
O858 C878 1.234 . S
C859 O833 1.269 . S
C859 O834 1.257 . S
C860 H835 0.930 . S
C860 C863 1.388 . S
C860 C865 1.418 . S
C861 H856 0.930 . S
C861 C864 1.404 . S
C861 C865 1.353 . S
N862 Co827 2.145 . S
N862 C863 1.397 . S
N862 C864 1.334 . S
C863 H844 0.929 . S
C863 C860 1.388 . S
C863 N862 1.397 . S
C864 H845 0.929 . S
C864 C861 1.404 . S
C864 N862 1.334 . S
C865 H857 0.930 . S
C865 C860 1.418 . S
C865 C861 1.353 . S
C866 H836 0.930 . S
C866 N867 1.330 . S
C866 C868 1.446 . S
N867 Co826 2.151 . S
N867 C866 1.330 . S
N867 C871 1.418 . S
C868 H847 0.929 . S
C868 C866 1.446 . S
C868 C869 1.332 . S
C869 H849 0.931 . S
C869 C868 1.332 . S
C869 C870 1.267 . S
C870 H838 0.929 . S
C870 C869 1.267 . S
C870 C871 1.251 . S
C871 H841 0.929 . S
C871 N867 1.418 . S
C871 C870 1.251 . S
C872 H839 0.930 . S
C872 C874 1.406 . S
C872 C877 1.261 . S
C873 H840 0.930 . S
C873 N875 1.325 . S
C873 C876 1.357 . S
C874 H842 0.928 . S
C874 C872 1.406 . S
C874 N875 1.261 . S
N875 Co826 2.214 . S
N875 C873 1.325 . S
N875 C874 1.261 . S
C876 H846 0.931 . S
C876 C873 1.357 . S
C876 C877 1.312 . S
C877 H848 0.930 . S
C877 C872 1.261 . S
C877 C876 1.312 . S
C878 O850 1.214 . S
C878 O858 1.234 . S
C879 H851 0.929 . S
C879 C882 1.391 . S
C879 C884 1.391 . S
C880 H852 0.929 . S
C880 C881 1.390 . S
C880 N883 1.391 . S
C881 H853 0.930 . S
C881 C880 1.390 . S
C881 C882 1.392 . S
C882 H854 0.929 . S
C882 C879 1.391 . S
C882 C881 1.392 . S
N883 Co827 2.257 . S
N883 C880 1.391 . S
N883 C884 1.388 . S
C884 H855 0.930 . S
C884 C879 1.391 . S
C884 N883 1.388 . S
Co885 O887 2.143 . S
Co885 O893 2.074 . S
Co885 O896 2.093 . S
Co885 O909 2.097 . S
Co885 N926 2.151 . S
Co885 N934 2.214 . S
Co886 O887 2.160 . S
Co886 O892 2.058 . S
Co886 O902 2.057 . S
Co886 O917 2.037 . S
Co886 N921 2.145 . S
Co886 N942 2.257 . S
O887 Co885 2.143 . S
O887 Co886 2.160 . S
C888 O889 1.278 . S
C888 O896 1.224 . S
O889 C888 1.278 . S
C890 O891 1.245 . S
C890 O902 1.232 . S
O891 C890 1.245 . S
O892 Co886 2.058 . S
O892 C918 1.269 . S
O893 Co885 2.074 . S
O893 C918 1.257 . S
H894 C919 0.930 . S
H895 C925 0.930 . S
O896 Co885 2.093 . S
O896 C888 1.224 . S
H897 C929 0.929 . S
H898 C931 0.930 . S
H899 C932 0.930 . S
H900 C930 0.929 . S
H901 C933 0.928 . S
O902 Co886 2.057 . S
O902 C890 1.232 . S
H903 C922 0.929 . S
H904 C923 0.929 . S
H905 C935 0.931 . S
H906 C927 0.929 . S
H907 C936 0.930 . S
H908 C928 0.931 . S
O909 Co885 2.097 . S
O909 C937 1.214 . S
H910 C938 0.929 . S
H911 C939 0.929 . S
H912 C940 0.930 . S
H913 C941 0.929 . S
H914 C943 0.930 . S
H915 C920 0.930 . S
H916 C924 0.930 . S
O917 Co886 2.037 . S
O917 C937 1.234 . S
C918 O892 1.269 . S
C918 O893 1.257 . S
C919 H894 0.930 . S
C919 C922 1.388 . S
C919 C924 1.418 . S
C920 H915 0.930 . S
C920 C923 1.404 . S
C920 C924 1.353 . S
N921 Co886 2.145 . S
N921 C922 1.397 . S
N921 C923 1.334 . S
C922 H903 0.929 . S
C922 C919 1.388 . S
C922 N921 1.397 . S
C923 H904 0.929 . S
C923 C920 1.404 . S
C923 N921 1.334 . S
C924 H916 0.930 . S
C924 C919 1.418 . S
C924 C920 1.353 . S
C925 H895 0.930 . S
C925 N926 1.330 . S
C925 C927 1.446 . S
N926 Co885 2.151 . S
N926 C925 1.330 . S
N926 C930 1.418 . S
C927 H906 0.929 . S
C927 C925 1.446 . S
C927 C928 1.332 . S
C928 H908 0.931 . S
C928 C927 1.332 . S
C928 C929 1.267 . S
C929 H897 0.929 . S
C929 C928 1.267 . S
C929 C930 1.251 . S
C930 H900 0.929 . S
C930 N926 1.418 . S
C930 C929 1.251 . S
C931 H898 0.930 . S
C931 C933 1.406 . S
C931 C936 1.261 . S
C932 H899 0.930 . S
C932 N934 1.325 . S
C932 C935 1.357 . S
C933 H901 0.928 . S
C933 C931 1.406 . S
C933 N934 1.261 . S
N934 Co885 2.214 . S
N934 C932 1.325 . S
N934 C933 1.261 . S
C935 H905 0.931 . S
C935 C932 1.357 . S
C935 C936 1.312 . S
C936 H907 0.930 . S
C936 C931 1.261 . S
C936 C935 1.312 . S
C937 O909 1.214 . S
C937 O917 1.234 . S
C938 H910 0.929 . S
C938 C941 1.391 . S
C938 C943 1.391 . S
C939 H911 0.929 . S
C939 C940 1.390 . S
C939 N942 1.391 . S
C940 H912 0.930 . S
C940 C939 1.390 . S
C940 C941 1.392 . S
C941 H913 0.929 . S
C941 C938 1.391 . S
C941 C940 1.392 . S
N942 Co886 2.257 . S
N942 C939 1.391 . S
N942 C943 1.388 . S
C943 H914 0.930 . S
C943 C938 1.391 . S
C943 N942 1.388 . S
C241 C5 1.737 . S
C300 C64 1.737 . S
C359 C123 1.737 . S
C418 C182 1.737 . S
C713 C477 1.736 1_545 S
C772 C536 1.736 1_655 S
C595 C831 1.736 1_545 S
C890 C654 1.736 1_455 S
C52 C347 1.748 . S
C406 C111 1.748 . S
C170 C465 1.748 . S
C288 C229 1.748 . S
C819 C524 1.748 . S
C878 C583 1.748 . S
C642 C937 1.748 . S
C701 C760 1.748 . S
C918 C33 1.902 . S
C741 C92 1.902 . S
C800 C151 1.902 . S
C859 C210 1.902 . S
C564 C269 1.902 . S
C623 C328 1.902 . S
C387 C682 1.902 . S
C446 C505 1.902 . S
C770 C121 1.083 . S
C829 C180 1.083 . S
C888 C3 1.083 . S
C62 C711 1.083 . S
C652 C357 1.083 . S
C416 C475 1.083 . S
C534 C239 1.083 . S
C593 C298 1.083 . S
