# Generated by pormake.
# Topology whz, (6)-cn, num edge types: 1
# Building blocks:
#     Node 0, Type 0, BuildingBlock: PAMTUU_clean_sbu_0, # of connection points: 6
#     Node 1, Type 0, BuildingBlock: PAMTUU_clean_sbu_0, # of connection points: 6
#     Node 2, Type 0, BuildingBlock: PAMTUU_clean_sbu_0, # of connection points: 6
#     Node 3, Type 0, BuildingBlock: PAMTUU_clean_sbu_0, # of connection points: 6
#     Node 4, Type 0, BuildingBlock: PAMTUU_clean_sbu_0, # of connection points: 6
#     Node 5, Type 0, BuildingBlock: PAMTUU_clean_sbu_0, # of connection points: 6
#     Node 6, Type 0, BuildingBlock: PAMTUU_clean_sbu_0, # of connection points: 6
#     Node 7, Type 0, BuildingBlock: PAMTUU_clean_sbu_0, # of connection points: 6
#     Node 8, Type 0, BuildingBlock: PAMTUU_clean_sbu_0, # of connection points: 6
#     Node 9, Type 0, BuildingBlock: PAMTUU_clean_sbu_0, # of connection points: 6
#     Node 10, Type 0, BuildingBlock: PAMTUU_clean_sbu_0, # of connection points: 6
#     Node 11, Type 0, BuildingBlock: PAMTUU_clean_sbu_0, # of connection points: 6
#     Node 12, Type 0, BuildingBlock: PAMTUU_clean_sbu_0, # of connection points: 6
#     Node 13, Type 0, BuildingBlock: PAMTUU_clean_sbu_0, # of connection points: 6
#     Node 14, Type 0, BuildingBlock: PAMTUU_clean_sbu_0, # of connection points: 6
#     Node 15, Type 0, BuildingBlock: PAMTUU_clean_sbu_0, # of connection points: 6
#     Edge 16, Type (0, 0), BuildingBlock: XIVTED_clean_linker_0, # of connection points: 2
#     Edge 17, Type (0, 0), BuildingBlock: XIVTED_clean_linker_0, # of connection points: 2
#     Edge 18, Type (0, 0), BuildingBlock: XIVTED_clean_linker_0, # of connection points: 2
#     Edge 19, Type (0, 0), BuildingBlock: XIVTED_clean_linker_0, # of connection points: 2
#     Edge 20, Type (0, 0), BuildingBlock: XIVTED_clean_linker_0, # of connection points: 2
#     Edge 21, Type (0, 0), BuildingBlock: XIVTED_clean_linker_0, # of connection points: 2
#     Edge 22, Type (0, 0), BuildingBlock: XIVTED_clean_linker_0, # of connection points: 2
#     Edge 23, Type (0, 0), BuildingBlock: XIVTED_clean_linker_0, # of connection points: 2
#     Edge 24, Type (0, 0), BuildingBlock: XIVTED_clean_linker_0, # of connection points: 2
#     Edge 25, Type (0, 0), BuildingBlock: XIVTED_clean_linker_0, # of connection points: 2
#     Edge 26, Type (0, 0), BuildingBlock: XIVTED_clean_linker_0, # of connection points: 2
#     Edge 27, Type (0, 0), BuildingBlock: XIVTED_clean_linker_0, # of connection points: 2
#     Edge 28, Type (0, 0), BuildingBlock: XIVTED_clean_linker_0, # of connection points: 2
#     Edge 29, Type (0, 0), BuildingBlock: XIVTED_clean_linker_0, # of connection points: 2
#     Edge 30, Type (0, 0), BuildingBlock: XIVTED_clean_linker_0, # of connection points: 2
#     Edge 31, Type (0, 0), BuildingBlock: XIVTED_clean_linker_0, # of connection points: 2
#     Edge 32, Type (0, 0), BuildingBlock: XIVTED_clean_linker_0, # of connection points: 2
#     Edge 33, Type (0, 0), BuildingBlock: XIVTED_clean_linker_0, # of connection points: 2
#     Edge 34, Type (0, 0), BuildingBlock: XIVTED_clean_linker_0, # of connection points: 2
#     Edge 35, Type (0, 0), BuildingBlock: XIVTED_clean_linker_0, # of connection points: 2
#     Edge 36, Type (0, 0), BuildingBlock: XIVTED_clean_linker_0, # of connection points: 2
#     Edge 37, Type (0, 0), BuildingBlock: XIVTED_clean_linker_0, # of connection points: 2
#     Edge 38, Type (0, 0), BuildingBlock: XIVTED_clean_linker_0, # of connection points: 2
#     Edge 39, Type (0, 0), BuildingBlock: XIVTED_clean_linker_0, # of connection points: 2
#     Edge 40, Type (0, 0), BuildingBlock: XIVTED_clean_linker_0, # of connection points: 2
#     Edge 41, Type (0, 0), BuildingBlock: XIVTED_clean_linker_0, # of connection points: 2
#     Edge 42, Type (0, 0), BuildingBlock: XIVTED_clean_linker_0, # of connection points: 2
#     Edge 43, Type (0, 0), BuildingBlock: XIVTED_clean_linker_0, # of connection points: 2
#     Edge 44, Type (0, 0), BuildingBlock: XIVTED_clean_linker_0, # of connection points: 2
#     Edge 45, Type (0, 0), BuildingBlock: XIVTED_clean_linker_0, # of connection points: 2
#     Edge 46, Type (0, 0), BuildingBlock: XIVTED_clean_linker_0, # of connection points: 2
#     Edge 47, Type (0, 0), BuildingBlock: XIVTED_clean_linker_0, # of connection points: 2
#     Edge 48, Type (0, 0), BuildingBlock: XIVTED_clean_linker_0, # of connection points: 2
#     Edge 49, Type (0, 0), BuildingBlock: XIVTED_clean_linker_0, # of connection points: 2
#     Edge 50, Type (0, 0), BuildingBlock: XIVTED_clean_linker_0, # of connection points: 2
#     Edge 51, Type (0, 0), BuildingBlock: XIVTED_clean_linker_0, # of connection points: 2
#     Edge 52, Type (0, 0), BuildingBlock: XIVTED_clean_linker_0, # of connection points: 2
#     Edge 53, Type (0, 0), BuildingBlock: XIVTED_clean_linker_0, # of connection points: 2
#     Edge 54, Type (0, 0), BuildingBlock: XIVTED_clean_linker_0, # of connection points: 2
#     Edge 55, Type (0, 0), BuildingBlock: XIVTED_clean_linker_0, # of connection points: 2
#     Edge 56, Type (0, 0), BuildingBlock: XIVTED_clean_linker_0, # of connection points: 2
#     Edge 57, Type (0, 0), BuildingBlock: XIVTED_clean_linker_0, # of connection points: 2
#     Edge 58, Type (0, 0), BuildingBlock: XIVTED_clean_linker_0, # of connection points: 2
#     Edge 59, Type (0, 0), BuildingBlock: XIVTED_clean_linker_0, # of connection points: 2
#     Edge 60, Type (0, 0), BuildingBlock: XIVTED_clean_linker_0, # of connection points: 2
#     Edge 61, Type (0, 0), BuildingBlock: XIVTED_clean_linker_0, # of connection points: 2
#     Edge 62, Type (0, 0), BuildingBlock: XIVTED_clean_linker_0, # of connection points: 2
#     Edge 63, Type (0, 0), BuildingBlock: XIVTED_clean_linker_0, # of connection points: 2
# Relax obj value: 0.660
# Max RMSD: 0.307
# Mean RMSD: 0.307
data_MOF--net-whz--node1-PAMTUU_clean_sbu_0--edge1-XIVTED_clean_linker_0
_symmetry_space_group_name_H-M    P1
_symmetry_Int_Tables_number       1
_symmetry_cell_setting            triclinic
loop_
_symmetry_equiv_pos_as_xyz
'x, y, z'
_cell_length_a     34.715575
_cell_length_b     34.751871
_cell_length_c     71.052459
_cell_angle_alpha  89.769399
_cell_angle_beta   90.263736
_cell_angle_gamma 89.921173
loop_
_atom_site_label
_atom_site_type_symbol
_atom_site_fract_x
_atom_site_fract_y
_atom_site_fract_z
_atom_type_partial_charge
Tb0 Tb 0.33081 0.20333 0.15059 0.0
Tb1 Tb 0.32202 0.24977 0.19055 0.0
C2 C 0.35925 0.16984 0.19043 0.0
C3 C 0.31817 0.16666 0.10052 0.0
C4 C 0.28839 0.16121 0.06328 0.0
C5 C 0.2985 0.12795 0.07359 0.0
C6 C 0.31324 0.1307 0.09194 0.0
C7 C 0.3075 0.19997 0.09046 0.0
C8 C 0.29282 0.19727 0.07207 0.0
C9 C 0.33684 0.16863 0.11934 0.0
O10 O 0.2705 0.19926 0.15828 0.0
O11 O 0.27751 0.2051 0.19029 0.0
O12 O 0.27995 0.27263 0.17125 0.0
O13 O 0.31141 0.26229 0.14365 0.0
O14 O 0.3114 0.25263 0.21958 0.0
O15 O 0.32071 0.30423 0.20311 0.0
O16 O 0.37442 0.27153 0.17736 0.0
O17 O 0.38892 0.22023 0.15837 0.0
O18 O 0.34196 0.16261 0.17416 0.0
O19 O 0.36317 0.20499 0.19667 0.0
C20 C 0.25766 0.19382 0.17547 0.0
O21 O 0.3549 0.2003 0.12359 0.0
O22 O 0.31772 0.15517 0.13367 0.0
C23 C 0.28612 0.28147 0.1537 0.0
C24 C 0.27173 0.30578 0.22548 0.0
C25 C 0.19985 0.33012 0.23924 0.0
C26 C 0.20214 0.30991 0.2222 0.0
C27 C 0.23779 0.29777 0.2154 0.0
C28 C 0.26992 0.32781 0.24186 0.0
C29 C 0.23425 0.33993 0.2487 0.0
C30 C 0.30858 0.2901 0.21904 0.0
C31 C 0.39896 0.25191 0.16709 0.0
H32 H 0.29487 0.09965 0.06753 0.0
H33 H 0.32129 0.10459 0.09937 0.0
H34 H 0.31108 0.22816 0.09668 0.0
H35 H 0.28576 0.22358 0.0646 0.0
H36 H 0.17628 0.30204 0.21456 0.0
H37 H 0.23873 0.28094 0.20262 0.0
H38 H 0.29589 0.33439 0.24972 0.0
H39 H 0.23355 0.35485 0.26205 0.0
Tb40 Tb 0.62859 0.58275 0.3984 0.0
Tb41 Tb 0.57366 0.5675 0.43449 0.0
C42 C 0.65689 0.59898 0.44022 0.0
C43 C 0.6658 0.57381 0.34882 0.0
C44 C 0.67028 0.54302 0.31192 0.0
C45 C 0.70313 0.55836 0.32086 0.0
C46 C 0.70085 0.57365 0.33907 0.0
C47 C 0.63308 0.55792 0.34012 0.0
C48 C 0.63525 0.54288 0.32189 0.0
C49 C 0.6633 0.59287 0.36741 0.0
O50 O 0.65561 0.53418 0.41232 0.0
O51 O 0.6027 0.51282 0.42846 0.0
O52 O 0.54327 0.57844 0.4086 0.0
O53 O 0.58199 0.54178 0.39191 0.0
O54 O 0.5237 0.53627 0.44069 0.0
O55 O 0.55206 0.57066 0.46201 0.0
O56 O 0.57278 0.63003 0.43282 0.0
O57 O 0.5962 0.63616 0.40255 0.0
O58 O 0.658 0.61075 0.42243 0.0
O59 O 0.63018 0.57561 0.44653 0.0
C60 C 0.63819 0.50791 0.42247 0.0
O61 O 0.63015 0.60807 0.37162 0.0
O62 O 0.67852 0.57515 0.38184 0.0
C63 C 0.54671 0.55181 0.39602 0.0
C64 C 0.5304 0.50828 0.47032 0.0
C65 C 0.53873 0.43749 0.48953 0.0
C66 C 0.5034 0.44755 0.48101 0.0
C67 C 0.49929 0.48268 0.47151 0.0
C68 C 0.56592 0.49789 0.47834 0.0
C69 C 0.56995 0.46312 0.48796 0.0
C70 C 0.52726 0.54316 0.45864 0.0
C71 C 0.58009 0.65082 0.41771 0.0
H72 H 0.73076 0.5584 0.31386 0.0
H73 H 0.72646 0.58579 0.34546 0.0
H74 H 0.60558 0.55774 0.34727 0.0
H75 H 0.60917 0.53187 0.31549 0.0
H76 H 0.47886 0.42842 0.48176 0.0
H77 H 0.47197 0.48968 0.46489 0.0
H78 H 0.59075 0.51659 0.47718 0.0
H79 H 0.59737 0.45705 0.49465 0.0
Tb80 Tb 0.23775 0.89761 0.64869 0.0
Tb81 Tb 0.23589 0.84735 0.6876 0.0
C82 C 0.20553 0.93151 0.68711 0.0
C83 C 0.24901 0.9334 0.59791 0.0
C84 C 0.26771 0.93523 0.55888 0.0
C85 C 0.26428 0.96944 0.56941 0.0
C86 C 0.25522 0.96847 0.5886 0.0
C87 C 0.25261 0.89909 0.58766 0.0
C88 C 0.26179 0.89999 0.56842 0.0
C89 C 0.23477 0.93388 0.61758 0.0
O90 O 0.29581 0.89893 0.66049 0.0
O91 O 0.27925 0.89237 0.69157 0.0
O92 O 0.27726 0.81819 0.67041 0.0
O93 O 0.25817 0.83939 0.64109 0.0
O94 O 0.20137 0.81579 0.70631 0.0
O95 O 0.26259 0.82153 0.71097 0.0
O96 O 0.19545 0.82342 0.6673 0.0
O97 O 0.17865 0.88119 0.65529 0.0
O98 O 0.22489 0.93892 0.6715 0.0
O99 O 0.19934 0.89626 0.69287 0.0
C100 C 0.30364 0.90357 0.67849 0.0
O101 O 0.21128 0.90646 0.62247 0.0
O102 O 0.25898 0.94204 0.63107 0.0
C103 C 0.27701 0.81503 0.65212 0.0
C104 C 0.23469 0.76154 0.71736 0.0
C105 C 0.24912 0.68256 0.7226 0.0
C106 C 0.25995 0.70086 0.70579 0.0
C107 C 0.25267 0.74008 0.70316 0.0
C108 C 0.22129 0.74292 0.73349 0.0
C109 C 0.22832 0.70373 0.73609 0.0
C110 C 0.2312 0.80345 0.71572 0.0
C111 C 0.16934 0.84576 0.65962 0.0
H112 H 0.26907 0.99726 0.56297 0.0
H113 H 0.25237 0.99537 0.59613 0.0
H114 H 0.24751 0.87157 0.59441 0.0
H115 H 0.26332 0.87292 0.561 0.0
H116 H 0.27586 0.68539 0.69515 0.0
H117 H 0.26265 0.754 0.69045 0.0
H118 H 0.20698 0.75901 0.74447 0.0
H119 H 0.22006 0.69088 0.74938 0.0
Tb120 Tb 0.93958 0.49948 0.9038 0.0
Tb121 Tb 0.96808 0.48479 0.94718 0.0
C122 C 0.89011 0.45866 0.93467 0.0
C123 C 0.9137 0.52847 0.85244 0.0
C124 C 0.90546 0.55963 0.81551 0.0
C125 C 0.87637 0.56453 0.82904 0.0
C126 C 0.8804 0.54908 0.84722 0.0
C127 C 0.94346 0.52485 0.83916 0.0
C128 C 0.93946 0.54037 0.82099 0.0
C129 C 0.91418 0.50579 0.8703 0.0
O130 O 0.9393 0.55542 0.91735 0.0
O131 O 0.92653 0.5321 0.94682 0.0
O132 O 1.01442 0.51852 0.93582 0.0
O133 O 0.99795 0.52473 0.90421 0.0
O134 O 0.98666 0.50422 0.97361 0.0
O135 O 0.97155 0.44464 0.9693 0.0
O136 O 1.0044 0.4487 0.9302 0.0
O137 O 0.95969 0.43965 0.90689 0.0
O138 O 0.88925 0.48618 0.92192 0.0
O139 O 0.92341 0.44508 0.93953 0.0
C140 C 0.9265 0.56052 0.93455 0.0
O141 O 0.9456 0.48742 0.87499 0.0
O142 O 0.89663 0.51955 0.88501 0.0
C143 C 1.02186 0.53021 0.91858 0.0
C144 C 0.94883 0.47359 0.99693 0.0
C145 C 0.89187 0.47652 1.02519 0.0
C146 C 0.90901 0.44128 1.02021 0.0
C147 C 0.93726 0.43988 1.00625 0.0
C148 C 0.93092 0.50857 1.00145 0.0
C149 C 0.903 0.51003 1.01543 0.0
C150 C 0.97737 0.47168 0.98163 0.0
C151 C 0.99016 0.42789 0.9165 0.0
H152 H 0.85007 0.57978 0.82549 0.0
H153 H 0.8567 0.55201 0.85698 0.0
H154 H 0.96928 0.50866 0.84252 0.0
H155 H 0.96239 0.53571 0.81097 0.0
H156 H 0.90105 0.41479 1.02723 0.0
H157 H 0.95011 0.41241 1.00275 0.0
H158 H 0.93866 0.53507 0.99435 0.0
H159 H 0.89146 0.53797 1.01905 0.0
Tb160 Tb 0.75135 0.83078 0.90635 0.0
Tb161 Tb 0.74747 0.88484 0.9439 0.0
C162 C 0.79444 0.80904 0.94238 0.0
C163 C 0.79241 0.75827 0.875 0.0
C164 C 0.85889 0.72033 0.86206 0.0
C165 C 0.85793 0.73574 0.8803 0.0
C166 C 0.82497 0.75459 0.8867 0.0
C167 C 0.79242 0.74114 0.85724 0.0
C168 C 0.82535 0.72227 0.85081 0.0
C169 C 0.75892 0.78076 0.8811 0.0
O170 O 0.702 0.81212 0.92291 0.0
O171 O 0.68833 0.8681 0.93825 0.0
O172 O 0.72959 0.92123 0.91969 0.0
O173 O 0.7096 0.87413 0.89894 0.0
O174 O 0.72146 0.89496 0.96998 0.0
O175 O 0.76788 0.93101 0.9605 0.0
O176 O 0.80492 0.89309 0.93215 0.0
O177 O 0.79252 0.87715 0.90127 0.0
O178 O 0.79875 0.8168 0.92463 0.0
O179 O 0.76801 0.82707 0.95216 0.0
C180 C 0.67765 0.83458 0.93172 0.0
O181 O 0.76026 0.81773 0.87778 0.0
O182 O 0.74722 0.77322 0.89812 0.0
C183 C 0.71159 0.91033 0.90407 0.0
C184 C 0.76164 0.92169 0.99388 0.0
C185 C 0.78608 0.92686 1.03205 0.0
C186 C 0.80156 0.9514 1.01819 0.0
C187 C 0.7894 0.94892 0.99937 0.0
C188 C 0.74698 0.89646 1.00764 0.0
C189 C 0.7591 0.89895 1.02643 0.0
C190 C 0.74518 0.92245 0.97447 0.0
C191 C 0.81364 0.89449 0.91412 0.0
H192 H 0.88317 0.73461 0.88931 0.0
H193 H 0.82538 0.76724 0.90058 0.0
H194 H 0.76748 0.74353 0.84809 0.0
H195 H 0.82524 0.71141 0.83655 0.0
H196 H 0.82289 0.9728 1.0219 0.0
H197 H 0.80109 0.96896 0.98918 0.0
H198 H 0.72522 0.87539 1.00406 0.0
H199 H 0.7462 0.87981 1.03667 0.0
Tb200 Tb 0.49662 0.51772 0.66224 0.0
Tb201 Tb 0.43963 0.51125 0.69833 0.0
C202 C 0.51599 0.55946 0.69829 0.0
C203 C 0.56108 0.48037 0.62707 0.0
C204 C 0.57842 0.41553 0.60512 0.0
C205 C 0.59307 0.45211 0.60031 0.0
C206 C 0.58431 0.48431 0.61118 0.0
C207 C 0.54901 0.44359 0.6328 0.0
C208 C 0.55766 0.41138 0.62193 0.0
C209 C 0.54584 0.51451 0.63652 0.0
O210 O 0.51527 0.47003 0.68042 0.0
O211 O 0.45644 0.45294 0.69121 0.0
O212 O 0.40415 0.49602 0.67352 0.0
O213 O 0.45331 0.47651 0.65414 0.0
O214 O 0.42753 0.48055 0.72308 0.0
O215 O 0.39409 0.53045 0.71559 0.0
O216 O 0.42732 0.56789 0.68656 0.0
O217 O 0.45356 0.56262 0.65679 0.0
O218 O 0.50984 0.56511 0.68044 0.0
O219 O 0.49707 0.53216 0.70725 0.0
C220 C 0.49178 0.44359 0.68687 0.0
O221 O 0.50929 0.52096 0.63346 0.0
O222 O 0.55479 0.51756 0.6543 0.0
C223 C 0.41655 0.47891 0.65807 0.0
C224 C 0.40061 0.51569 0.7482 0.0
C225 C 0.40035 0.53374 0.78721 0.0
C226 C 0.36673 0.52072 0.77802 0.0
C227 C 0.36687 0.51205 0.75879 0.0
C228 C 0.43442 0.5281 0.75717 0.0
C229 C 0.43435 0.53687 0.77642 0.0
C230 C 0.40028 0.50391 0.72824 0.0
C231 C 0.43084 0.57987 0.66902 0.0
H232 H 0.6086 0.45653 0.5873 0.0
H233 H 0.59378 0.5125 0.60659 0.0
H234 H 0.53102 0.44008 0.6451 0.0
H235 H 0.54611 0.38366 0.62603 0.0
H236 H 0.3398 0.51795 0.78546 0.0
H237 H 0.34047 0.50224 0.75218 0.0
H238 H 0.46101 0.53055 0.74933 0.0
H239 H 0.46129 0.54552 0.78282 0.0
Tb240 Tb 0.84106 0.23574 0.40574 0.0
Tb241 Tb 0.83691 0.19258 0.44662 0.0
C242 C 0.79655 0.27412 0.43846 0.0
C243 C 0.8884 0.26115 0.3619 0.0
C244 C 0.94974 0.24969 0.33679 0.0
C245 C 0.92247 0.27912 0.33357 0.0
C246 C 0.89189 0.28464 0.346 0.0
C247 C 0.91727 0.23391 0.36596 0.0
C248 C 0.94754 0.22797 0.35343 0.0
C249 C 0.85349 0.2629 0.37349 0.0
O250 O 0.88373 0.26248 0.4241 0.0
O251 O 0.89655 0.20963 0.44208 0.0
O252 O 0.84712 0.14941 0.42433 0.0
O253 O 0.88299 0.19025 0.40719 0.0
O254 O 0.85799 0.18989 0.47424 0.0
O255 O 0.81844 0.14677 0.46405 0.0
O256 O 0.77805 0.19385 0.43676 0.0
O257 O 0.79054 0.19736 0.40503 0.0
O258 O 0.79827 0.26881 0.42023 0.0
O259 O 0.81446 0.25159 0.45081 0.0
C260 C 0.9071 0.243 0.43513 0.0
O261 O 0.83694 0.22979 0.3765 0.0
O262 O 0.856 0.28323 0.38882 0.0
C263 C 0.87187 0.15532 0.41066 0.0
C264 C 0.81805 0.15982 0.49711 0.0
C265 C 0.78992 0.15647 0.53453 0.0
C266 C 0.79168 0.12314 0.52336 0.0
C267 C 0.80568 0.12481 0.50491 0.0
C268 C 0.81533 0.19339 0.50802 0.0
C269 C 0.80147 0.19172 0.52649 0.0
C270 C 0.83746 0.15977 0.47856 0.0
C271 C 0.76732 0.1893 0.41918 0.0
H272 H 0.92298 0.2959 0.32069 0.0
H273 H 0.87002 0.30593 0.3427 0.0
H274 H 0.91542 0.21585 0.37831 0.0
H275 H 0.96801 0.20507 0.35624 0.0
H276 H 0.78237 0.09561 0.52888 0.0
H277 H 0.80768 0.09847 0.49686 0.0
H278 H 0.82488 0.22083 0.50248 0.0
H279 H 0.80094 0.21796 0.53465 0.0
Tb280 Tb 0.09377 0.5959 0.15488 0.0
Tb281 Tb 0.13751 0.58613 0.19541 0.0
C282 C 0.05876 0.54298 0.18643 0.0
C283 C 1.01172 0.60567 0.12405 0.0
C284 C 0.9323 0.59249 0.11966 0.0
C285 C 0.94982 0.58799 0.13738 0.0
C286 C 0.98924 0.59467 0.13956 0.0
C287 C 0.99407 0.61261 0.10668 0.0
C288 C 0.95463 0.60621 0.10449 0.0
C289 C 0.05368 0.60763 0.12591 0.0
O290 O 0.06341 0.62746 0.17643 0.0
O291 O 0.11712 0.64527 0.192 0.0
O292 O 0.18135 0.60376 0.17465 0.0
O293 O 0.1411 0.63586 0.15448 0.0
O294 O 0.13963 0.60268 0.22372 0.0
O295 O 0.18397 0.56623 0.21217 0.0
O296 O 0.1413 0.53091 0.18113 0.0
O297 O 0.13973 0.55354 0.15067 0.0
O298 O 0.0635 0.54985 0.16847 0.0
O299 O 0.08056 0.55893 0.19956 0.0
C300 C 0.08198 0.65306 0.18635 0.0
O301 O 0.06635 0.63508 0.13668 0.0
O302 O 0.07057 0.57491 0.12961 0.0
C303 C 0.17578 0.6275 0.16036 0.0
C304 C 0.17273 0.56156 0.24532 0.0
C305 C 0.17879 0.53057 0.28223 0.0
C306 C 0.21196 0.53926 0.27172 0.0
C307 C 0.20893 0.5546 0.25353 0.0
C308 C 0.13946 0.55176 0.25547 0.0
C309 C 0.14247 0.53637 0.27371 0.0
C310 C 0.1708 0.58291 0.22724 0.0
C311 C 0.14844 0.5265 0.16307 0.0
H312 H 0.93347 0.57752 0.14929 0.0
H313 H 1.0025 0.58966 0.15318 0.0
H314 H 1.01102 0.62128 0.09462 0.0
H315 H 0.94234 0.60931 0.09053 0.0
H316 H 0.24041 0.5345 0.27761 0.0
H317 H 0.235 0.56206 0.24603 0.0
H318 H 0.11112 0.55699 0.24955 0.0
H319 H 0.11628 0.53027 0.28137 0.0
Tb320 Tb 0.82139 0.71105 0.65199 0.0
Tb321 Tb 0.82618 0.76045 0.69107 0.0
C322 C 0.85981 0.67913 0.68934 0.0
C323 C 0.80147 0.67429 0.60194 0.0
C324 C 0.77281 0.66377 0.5647 0.0
C325 C 0.77095 0.63391 0.57815 0.0
C326 C 0.78521 0.63907 0.59646 0.0
C327 C 0.80216 0.70467 0.58876 0.0
C328 C 0.78793 0.6995 0.57041 0.0
C329 C 0.82182 0.67699 0.6204 0.0
O330 O 0.76514 0.70249 0.66443 0.0
O331 O 0.7789 0.71931 0.6952 0.0
O332 O 0.77781 0.78523 0.67663 0.0
O333 O 0.7949 0.76819 0.6465 0.0
O334 O 0.8222 0.76347 0.72042 0.0
O335 O 0.84241 0.81207 0.70429 0.0
O336 O 0.86657 0.78414 0.67064 0.0
O337 O 0.88126 0.72778 0.65656 0.0
O338 O 0.83712 0.67056 0.67499 0.0
O339 O 0.86808 0.71486 0.69304 0.0
C340 C 0.7569 0.70231 0.6825 0.0
O341 O 0.8405 0.70862 0.62405 0.0
O342 O 0.80485 0.66342 0.63536 0.0
C343 C 0.77451 0.78915 0.65838 0.0
C344 C 0.87518 0.7961 0.73232 0.0
C345 C 0.93467 0.77688 0.75759 0.0
C346 C 0.90455 0.80157 0.76311 0.0
C347 C 0.8748 0.8108 0.75059 0.0
C348 C 0.90723 0.77489 0.72617 0.0
C349 C 0.9366 0.76494 0.73878 0.0
C350 C 0.83984 0.79652 0.72096 0.0
C351 C 0.89135 0.76249 0.6617 0.0
H352 H 0.75886 0.60622 0.57448 0.0
H353 H 0.78455 0.61501 0.6062 0.0
H354 H 0.81482 0.73213 0.59239 0.0
H355 H 0.79019 0.72312 0.56049 0.0
H356 H 0.90196 0.81074 0.7776 0.0
H357 H 0.85022 0.82701 0.75558 0.0
H358 H 0.90819 0.76365 0.712 0.0
H359 H 0.95937 0.74584 0.7342 0.0
Tb360 Tb 0.12885 0.08687 0.90001 0.0
Tb361 Tb 0.07556 0.07699 0.93771 0.0
C362 C 0.15344 0.11917 0.94069 0.0
C363 C 0.16803 0.07748 0.85035 0.0
C364 C 0.17359 0.05313 0.81226 0.0
C365 C 0.20647 0.0547 0.82395 0.0
C366 C 0.20369 0.06682 0.84271 0.0
C367 C 0.13498 0.07518 0.83887 0.0
C368 C 0.13775 0.06324 0.82009 0.0
C369 C 0.1665 0.09393 0.86962 0.0
O370 O 0.13727 1.028 0.9097 0.0
O371 O 0.12291 0.03574 0.94105 0.0
O372 O 0.06141 0.03184 0.91851 0.0
O373 O 0.07176 0.06464 0.89134 0.0
O374 O 1.01871 0.08212 0.94696 0.0
O375 O 0.06327 0.06139 0.96573 0.0
O376 O 0.05368 0.12573 0.92137 0.0
O377 O 0.10906 0.14428 0.90677 0.0
O378 O 0.16479 0.10302 0.92473 0.0
O379 O 0.1172 0.11959 0.94583 0.0
C380 C 0.13946 1.01646 0.92734 0.0
O381 O 0.13607 0.11401 0.87387 0.0
O382 O 0.17752 0.07223 0.88367 0.0
C383 C 0.05385 0.03745 0.90081 0.0
C384 C 1.00194 0.03219 0.96721 0.0
C385 C 0.95486 0.96817 0.97508 0.0
C386 C 0.97841 0.96848 0.95906 0.0
C387 C 1.00181 1.00017 0.9552 0.0
C388 C 0.97751 0.0327 0.98278 0.0
C389 C 0.95422 1.00096 0.98672 0.0
C390 C 1.02626 0.06563 0.96304 0.0
C391 C 0.07454 0.15213 0.91298 0.0
H392 H 0.23447 0.0465 0.81864 0.0
H393 H 0.22964 0.06845 0.8512 0.0
H394 H 0.10703 0.08337 0.84426 0.0
H395 H 0.1118 0.06291 0.81159 0.0
H396 H 0.97949 0.94384 0.94978 0.0
H397 H 1.02015 0.99939 0.94297 0.0
H398 H 0.97695 0.05733 0.99208 0.0
H399 H 0.93711 1.00147 0.99943 0.0
Tb400 Tb 0.74229 0.38303 0.14919 0.0
Tb401 Tb 0.75576 0.33219 0.18756 0.0
C402 C 0.71176 0.40918 0.18987 0.0
C403 C 0.74714 0.42122 0.09884 0.0
C404 C 0.76855 0.42597 0.06024 0.0
C405 C 0.75819 0.45914 0.07043 0.0
C406 C 0.74777 0.45677 0.08944 0.0
C407 C 0.75762 0.38799 0.0889 0.0
C408 C 0.76805 0.39031 0.06986 0.0
C409 C 0.73228 0.41924 0.11838 0.0
O410 O 0.80156 0.39385 0.15802 0.0
O411 O 0.79587 0.38048 0.18963 0.0
O412 O 0.79999 0.31872 0.16771 0.0
O413 O 0.76404 0.32541 0.14131 0.0
O414 O 0.75813 0.27525 0.19718 0.0
O415 O 0.77005 0.32264 0.21598 0.0
O416 O 0.70402 0.3099 0.17378 0.0
O417 O 0.68536 0.36344 0.1572 0.0
O418 O 0.72637 0.41993 0.17343 0.0
O419 O 0.71298 0.3734 0.19577 0.0
C420 C 0.81401 0.397 0.17551 0.0
O421 O 0.71399 0.38802 0.12316 0.0
O422 O 0.75453 0.43128 0.13195 0.0
C423 C 0.79261 0.30886 0.15049 0.0
C424 C 0.80881 0.26722 0.21837 0.0
C425 C 0.88 0.23355 0.22812 0.0
C426 C 0.87751 0.25981 0.21307 0.0
C427 C 0.84222 0.27658 0.20828 0.0
C428 C 0.81068 0.23974 0.23275 0.0
C429 C 0.84599 0.22306 0.23763 0.0
C430 C 0.77199 0.28544 0.21349 0.0
C431 C 0.67745 0.33012 0.16495 0.0
H432 H 0.75843 0.48725 0.06386 0.0
H433 H 0.73961 0.48281 0.09675 0.0
H434 H 0.75703 0.36007 0.09572 0.0
H435 H 0.77486 0.36382 0.06266 0.0
H436 H 0.90305 0.26837 0.20542 0.0
H437 H 0.84119 0.2975 0.19697 0.0
H438 H 0.78506 0.23191 0.24052 0.0
H439 H 0.84687 0.20354 0.24954 0.0
Tb440 Tb 0.44698 0.99858 0.40432 0.0
Tb441 Tb 0.48097 0.98209 0.44728 0.0
C442 C 0.3985 0.95929 0.43589 0.0
C443 C 0.41254 1.01796 0.35128 0.0
C444 C 0.39706 0.03752 0.3132 0.0
C445 C 0.41506 1.00243 0.31786 0.0
C446 C 0.42229 0.99254 0.33673 0.0
C447 C 0.394 0.05273 0.34668 0.0
C448 C 0.38586 0.06217 0.32785 0.0
C449 C 0.42551 1.01029 0.37086 0.0
O450 O 0.42866 0.04805 0.42078 0.0
O451 O 0.43846 1.02754 0.45157 0.0
O452 O 0.51567 1.02869 0.43671 0.0
O453 O 0.507 1.01908 0.4049 0.0
O454 O 0.4966 0.9963 0.47502 0.0
O455 O 0.50262 0.93838 0.46482 0.0
O456 O 0.517 0.95279 0.42718 0.0
O457 O 0.46952 0.93965 0.40614 0.0
O458 O 0.397 0.98504 0.42225 0.0
O459 O 0.43179 0.94565 0.44136 0.0
C460 C 0.42503 0.05245 0.43912 0.0
O461 O 0.44121 0.03674 0.3813 0.0
O462 O 0.42079 0.97729 0.37939 0.0
C463 C 0.52504 0.03556 0.41915 0.0
C464 C 0.48036 0.94624 0.49553 0.0
C465 C 0.43289 0.93045 0.52646 0.0
C466 C 0.47221 0.93869 0.52918 0.0
C467 C 0.49582 0.94669 0.51376 0.0
C468 C 0.44189 0.93531 0.49276 0.0
C469 C 0.41839 0.92735 0.50811 0.0
C470 C 0.50281 0.96047 0.47956 0.0
C471 C 0.50155 0.92962 0.41482 0.0
H472 H 0.42395 0.98287 0.30686 0.0
H473 H 0.43701 0.96576 0.3399 0.0
H474 H 0.38647 0.07297 0.35762 0.0
H475 H 0.37221 0.08951 0.32469 0.0
H476 H 0.48397 0.94187 0.54324 0.0
H477 H 0.52548 0.95513 0.51612 0.0
H478 H 0.42954 0.93482 0.47877 0.0
H479 H 0.38832 0.92104 0.50574 0.0
Tb480 Tb 0.25346 0.32319 0.41092 0.0
Tb481 Tb 0.25258 0.38053 0.44723 0.0
C482 C 0.29427 0.29922 0.44724 0.0
C483 C 0.20748 0.27386 0.37281 0.0
C484 C 0.14329 0.27913 0.34869 0.0
C485 C 0.17559 0.2568 0.3437 0.0
C486 C 0.20761 0.25446 0.35563 0.0
C487 C 0.17395 0.29314 0.37861 0.0
C488 C 0.14217 0.29604 0.36657 0.0
C489 C 0.24339 0.27913 0.38344 0.0
O490 O 0.20805 0.30575 0.43029 0.0
O491 O 0.19311 0.36507 0.44121 0.0
O492 O 0.23967 0.41643 0.42221 0.0
O493 O 0.21293 0.36848 0.40456 0.0
O494 O 0.22806 0.39135 0.47358 0.0
O495 O 0.27132 0.42937 0.46236 0.0
O496 O 0.31126 0.38286 0.43689 0.0
O497 O 0.30142 0.36302 0.40631 0.0
O498 O 0.29833 0.30183 0.42903 0.0
O499 O 0.271 0.32248 0.45647 0.0
C500 C 0.18282 0.32978 0.43728 0.0
O501 O 0.25812 0.3135 0.38192 0.0
O502 O 0.24282 0.26736 0.40088 0.0
C503 C 0.21949 0.40498 0.40746 0.0
C504 C 0.26725 0.42393 0.49578 0.0
C505 C 0.29353 0.43075 0.53349 0.0
C506 C 0.28429 0.46364 0.52272 0.0
C507 C 0.27125 0.46022 0.50412 0.0
C508 C 0.27725 0.391 0.50626 0.0
C509 C 0.29022 0.39437 0.52491 0.0
C510 C 0.24975 0.42119 0.47679 0.0
C511 C 0.32206 0.38103 0.41918 0.0
H512 H 0.17757 0.244 0.32986 0.0
H513 H 0.23327 0.23963 0.35092 0.0
H514 H 0.17327 0.30811 0.39194 0.0
H515 H 0.11779 0.31351 0.37072 0.0
H516 H 0.28717 0.49215 0.52865 0.0
H517 H 0.26365 0.48601 0.49632 0.0
H518 H 0.27428 0.36261 0.50018 0.0
H519 H 0.29673 0.36836 0.53274 0.0
Tb520 Tb 0.97189 0.98583 0.15025 0.0
Tb521 Tb 0.93874 0.99718 0.19301 0.0
C522 C 1.01522 0.03931 0.17869 0.0
C523 C 0.98414 0.93602 0.10535 0.0
C524 C 0.96124 0.87992 0.0792 0.0
C525 C 0.99425 0.90258 0.076 0.0
C526 C 1.00545 0.93058 0.08894 0.0
C527 C 0.95344 0.91109 0.10945 0.0
C528 C 0.94185 0.8834 0.09641 0.0
C529 C 0.99125 0.96998 0.11706 0.0
O530 O 1.00526 0.94859 0.16864 0.0
O531 O 0.95845 0.93751 0.19035 0.0
O532 O 0.89137 0.98186 0.17347 0.0
O533 O 0.92864 0.94322 0.15606 0.0
O534 O 0.944 0.98285 0.22158 0.0
O535 O 0.89494 1.01539 0.2116 0.0
O536 O 0.93329 0.05379 0.18011 0.0
O537 O 0.93054 0.03358 0.14932 0.0
O538 O 1.00605 0.03235 0.16107 0.0
O539 O 0.99664 1.02363 0.19306 0.0
C540 C 0.98989 0.92665 0.1816 0.0
O541 O 0.96053 0.98955 0.12138 0.0
O542 O 1.01397 0.96521 0.13152 0.0
C543 C 0.89444 0.95494 0.1606 0.0
C544 C 0.91205 1.02214 0.2443 0.0
C545 C 0.90645 0.05028 0.2817 0.0
C546 C 0.87426 0.05063 0.26957 0.0
C547 C 0.87703 0.03663 0.25114 0.0
C548 C 0.94467 1.02327 0.25612 0.0
C549 C 0.94191 0.03722 0.27455 0.0
C550 C 0.91239 1.00063 0.22624 0.0
C551 C 0.92447 0.05986 0.16231 0.0
H552 H 1.00952 0.90108 0.06276 0.0
H553 H 1.02931 0.94945 0.08561 0.0
H554 H 0.93699 0.91459 0.12219 0.0
H555 H 0.9164 0.86639 0.09925 0.0
H556 H 0.84665 0.06113 0.27439 0.0
H557 H 0.85131 0.03579 0.24246 0.0
H558 H 0.97205 1.01194 0.25143 0.0
H559 H 0.96729 0.03613 0.28345 0.0
Tb560 Tb 0.33531 0.73139 0.90394 0.0
Tb561 Tb 0.33778 0.69802 0.94699 0.0
C562 C 0.29295 0.77629 0.93646 0.0
C563 C 0.33737 0.71786 0.85353 0.0
C564 C 0.33909 0.65989 0.8258 0.0
C565 C 0.30386 0.67506 0.83209 0.0
C566 C 0.30301 0.70376 0.84571 0.0
C567 C 0.37271 0.70293 0.84719 0.0
C568 C 0.37355 0.67435 0.83341 0.0
C569 C 0.33602 0.74548 0.86929 0.0
O570 O 0.3749 0.76834 0.91914 0.0
O571 O 0.39411 0.72182 0.94002 0.0
O572 O 0.35013 0.65023 0.92731 0.0
O573 O 0.37967 0.68847 0.90619 0.0
O574 O 0.35937 0.7032 0.97449 0.0
O575 O 0.32661 0.65317 0.96632 0.0
O576 O 0.27864 0.69329 0.93771 0.0
O577 O 0.29231 0.68531 0.90654 0.0
O578 O 0.29862 0.77109 0.9184 0.0
O579 O 0.30808 0.75399 0.94974 0.0
C580 C 0.40052 0.75422 0.93095 0.0
O581 O 0.30462 0.74525 0.8793 0.0
O582 O 0.36664 0.74707 0.87991 0.0
C583 C 0.37226 0.65421 0.91245 0.0
C584 C 0.32543 0.67024 0.99897 0.0
C585 C 0.30004 0.66422 1.03682 0.0
C586 C 0.29749 0.63262 1.02454 0.0
C587 C 0.31013 0.63558 1.0059 0.0
C588 C 0.32713 0.70216 1.01107 0.0
C589 C 0.31453 0.6992 1.02973 0.0
C590 C 0.34379 0.67104 0.98011 0.0
C591 C 0.26877 0.68115 0.9209 0.0
H592 H 0.27676 0.66564 0.82608 0.0
H593 H 0.27532 0.71471 0.8502 0.0
H594 H 0.39976 0.7131 0.85295 0.0
H595 H 0.40115 0.66378 0.82866 0.0
H596 H 0.28591 0.60541 1.02936 0.0
H597 H 0.30886 0.61035 0.99701 0.0
H598 H 0.33924 0.7292 1.00632 0.0
H599 H 0.31735 0.72406 1.03877 0.0
Tb600 Tb 0.57422 0.10227 0.65661 0.0
Tb601 Tb 0.62429 0.09481 0.6953 0.0
C602 C 0.54285 0.05401 0.69032 0.0
C603 C 0.48836 0.10061 0.62737 0.0
C604 C 0.41617 0.06581 0.6221 0.0
C605 C 0.43334 0.06611 0.64002 0.0
C606 C 0.46914 0.08363 0.64266 0.0
C607 C 0.46986 0.10344 0.60994 0.0
C608 C 0.43388 0.08643 0.60734 0.0
C609 C 0.52905 0.11115 0.6291 0.0
O610 O 0.55154 0.14012 0.67825 0.0
O611 O 0.60975 0.15488 0.69005 0.0
O612 O 0.66553 0.10788 0.67255 0.0
O613 O 0.62384 0.13823 0.65214 0.0
O614 O 0.63102 0.1153 0.72279 0.0
O615 O 0.67131 0.07413 0.71145 0.0
O616 O 0.62398 0.03782 0.68294 0.0
O617 O 0.61673 0.05624 0.652 0.0
O618 O 0.54569 0.05777 0.6721 0.0
O619 O 0.5665 0.07162 0.70211 0.0
C620 C 0.5745 0.16534 0.68601 0.0
O621 O 0.5367 0.13808 0.64121 0.0
O622 O 0.55265 0.08217 0.63083 0.0
C623 C 0.65889 0.12954 0.65754 0.0
C624 C 0.66188 0.07362 0.74472 0.0
C625 C 0.66577 0.0434 0.78183 0.0
C626 C 0.69956 0.05175 0.77172 0.0
C627 C 0.69759 0.06674 0.75342 0.0
C628 C 0.62801 0.06447 0.75453 0.0
C629 C 0.62995 0.04955 0.77288 0.0
C630 C 0.66086 0.09351 0.72626 0.0
C631 C 0.62712 0.03064 0.66485 0.0
H632 H 0.42044 0.0505 0.65162 0.0
H633 H 0.48281 0.08183 0.65634 0.0
H634 H 0.48426 0.1166 0.59805 0.0
H635 H 0.42181 0.08634 0.59326 0.0
H636 H 0.72766 0.0467 0.77794 0.0
H637 H 0.72409 0.07367 0.74616 0.0
H638 H 0.60003 0.06966 0.74819 0.0
H639 H 0.60329 0.0438 0.78021 0.0
H640 H 0.17319 0.39188 0.25963 0.0
H641 H 0.10477 0.23466 0.32286 0.0
H642 H 0.14093 0.27813 0.24137 0.0
H643 H 0.12115 0.35234 0.34001 0.0
H644 H 0.08764 0.25712 0.29139 0.0
H645 H 0.12633 0.38714 0.28498 0.0
C646 C 0.1554 0.36637 0.2606 0.0
C647 C 0.16244 0.33455 0.24902 0.0
C648 C 0.09357 0.27828 0.30216 0.0
C649 C 0.10954 0.32843 0.27822 0.0
C650 C 0.10325 0.26534 0.32018 0.0
C651 C 0.11619 0.29157 0.33372 0.0
C652 C 0.09833 0.31746 0.29765 0.0
C653 C 0.11255 0.33101 0.32975 0.0
C654 C 0.12846 0.36365 0.27507 0.0
C655 C 0.13746 0.30293 0.25037 0.0
N656 N 0.10538 0.34278 0.31184 0.0
N657 N 0.11302 0.3001 0.26515 0.0
H658 H 0.5178 0.36956 0.59532 0.0
H659 H 0.60146 0.38973 0.49517 0.0
H660 H 0.63651 0.39212 0.58144 0.0
H661 H 0.4838 0.40655 0.51283 0.0
H662 H 0.61356 0.35266 0.52389 0.0
H663 H 0.50797 0.34291 0.56411 0.0
C664 C 0.54238 0.36735 0.58606 0.0
C665 C 0.57761 0.3849 0.59064 0.0
C666 C 0.58473 0.36326 0.52107 0.0
C667 C 0.56601 0.35548 0.55473 0.0
C668 C 0.57785 0.3848 0.50479 0.0
C669 C 0.54219 0.40336 0.50214 0.0
C670 C 0.5557 0.36028 0.53466 0.0
C671 C 0.51215 0.39402 0.51449 0.0
C672 C 0.53661 0.35223 0.56813 0.0
C673 C 0.60838 0.38052 0.5781 0.0
N674 N 0.51989 0.37402 0.5305 0.0
N675 N 0.60157 0.36742 0.56042 0.0
H676 H 0.3233 0.65807 0.71721 0.0
H677 H 0.2906 0.59893 0.81916 0.0
H678 H 0.21555 0.6216 0.74132 0.0
H679 H 0.38809 0.65871 0.79562 0.0
H680 H 0.27634 0.57245 0.78812 0.0
H681 H 0.35753 0.61956 0.7405 0.0
C682 C 0.30662 0.64057 0.72683 0.0
C683 C 0.26653 0.64524 0.72828 0.0
C684 C 0.30161 0.59035 0.78989 0.0
C685 C 0.30565 0.60275 0.75535 0.0
C686 C 0.30961 0.60569 0.80757 0.0
C687 C 0.3392 0.63285 0.8097 0.0
C688 C 0.32333 0.6024 0.77433 0.0
C689 C 0.36413 0.63895 0.79451 0.0
C690 C 0.32633 0.61872 0.74028 0.0
C691 C 0.24668 0.62066 0.74056 0.0
N692 N 0.355 0.62472 0.77731 0.0
N693 N 0.26648 0.60165 0.75423 0.0
H694 H 0.8944 0.43381 0.05794 0.0
H695 H 0.90241 0.52434 0.13276 0.0
H696 H 0.83106 0.52634 1.03138 0.0
H697 H 0.87371 0.62161 0.09751 0.0
H698 H 0.85827 0.48487 0.1146 0.0
H699 H 0.87146 0.45457 0.08805 0.0
C700 C 0.87469 0.45794 0.05829 0.0
C701 C 0.86691 0.47992 1.04209 0.0
C702 C 0.86117 0.51494 0.1109 0.0
C703 C 0.84146 0.50527 0.07709 0.0
C704 C 0.88593 0.53786 0.12156 0.0
C705 C 0.89387 0.57568 0.1157 0.0
C706 C 0.84606 0.5298 0.09396 0.0
C707 C 0.8703 0.59181 0.10168 0.0
C708 C 0.86142 0.47008 0.07576 0.0
C709 C 0.84024 0.51018 1.04365 0.0
N710 N 0.84852 0.56839 0.09074 0.0
N711 N 0.82972 0.52293 0.06091 0.0
H712 H 0.92868 0.75606 0.86556 0.0
H713 H 0.94539 0.69979 0.76215 0.0
H714 H 0.87403 0.65963 0.83831 0.0
H715 H 0.97454 0.80885 0.78708 0.0
H716 H 0.95495 0.6687 0.79259 0.0
H717 H 0.9787 0.75528 0.84176 0.0
C718 C 0.92797 0.73359 0.85505 0.0
C719 C 0.89596 0.70917 0.8533 0.0
C720 C 0.96097 0.69913 0.79126 0.0
C721 C 0.9525 0.70912 0.8257 0.0
C722 C 0.95574 0.71696 0.77381 0.0
C723 C 0.95761 0.75722 0.77236 0.0
C724 C 0.9674 0.72193 0.80723 0.0
C725 C 0.97144 0.77788 0.78786 0.0
C726 C 0.9566 0.7333 0.84136 0.0
C727 C 0.89721 0.68029 0.83957 0.0
N728 N 0.97466 0.76018 0.80485 0.0
N729 N 0.9243 0.68186 0.82587 0.0
H730 H 0.90293 0.16345 0.24269 0.0
H731 H 0.9954 0.29332 0.31348 0.0
H732 H 0.94414 0.27857 0.23216 0.0
H733 H 0.95922 0.1766 0.32385 0.0
H734 H 1.00875 0.27644 0.28087 0.0
H735 H 0.95263 0.15553 0.26677 0.0
C736 C 0.92318 0.18666 0.24504 0.0
C737 C 0.91795 0.2225 0.23621 0.0
C738 C 0.99914 0.25405 0.2904 0.0
C739 C 0.97423 0.21404 0.26395 0.0
C740 C 0.9916 0.26377 0.30905 0.0
C741 C 0.97426 0.23683 0.32103 0.0
C742 C 0.98776 0.21771 0.2837 0.0
C743 C 0.97132 0.19864 0.31485 0.0
C744 C 0.95174 0.1821 0.25875 0.0
C745 C 0.9461 0.25086 0.23911 0.0
N746 N 0.97654 0.1905 0.29638 0.0
N747 N 0.97223 0.24652 0.2532 0.0
H748 H 0.88599 0.88316 0.06823 0.0
H749 H 0.98328 0.89462 0.9736 0.0
H750 H 0.9948 0.83268 0.05293 0.0
H751 H 0.88356 0.95887 0.99142 0.0
H752 H 0.9657 0.84312 0.99508 0.0
H753 H 0.86474 0.87842 1.03565 0.0
C754 C 0.90478 0.8693 0.05821 0.0
C755 C 0.94297 0.86011 0.06305 0.0
C756 C 0.94682 0.86786 0.99385 0.0
C757 C 0.91939 0.85613 1.02568 0.0
C758 C 0.95679 0.89739 0.98147 0.0
C759 C 0.93607 0.93213 0.98155 0.0
C760 C 0.91678 0.8738 1.0067 0.0
C761 C 0.90159 0.93343 0.99175 0.0
C762 C 0.89268 0.86684 1.03951 0.0
C763 C 0.96574 0.84177 0.04953 0.0
N764 N 0.89369 0.90526 1.00444 0.0
N765 N 0.95413 0.8416 1.03127 0.0
H766 H 0.36934 0.9752 0.52833 0.0
H767 H 0.41376 0.99023 0.63281 0.0
H768 H 0.43648 0.8944 0.56099 0.0
H769 H 0.35139 0.0743 0.59988 0.0
H770 H 0.39187 0.94022 0.61157 0.0
H771 H 0.33782 0.99635 0.55677 0.0
C772 C 0.37619 0.96063 0.54144 0.0
C773 C 0.40607 0.93357 0.54243 0.0
C774 C 0.38167 0.96936 0.60933 0.0
C775 C 0.36956 0.95745 0.57523 0.0
C776 C 0.39386 0.99806 0.62164 0.0
C777 C 0.38649 0.03685 0.61727 0.0
C778 C 0.36287 0.98003 0.59256 0.0
C779 C 0.35952 0.04488 0.60305 0.0
C780 C 0.35795 0.97263 0.55776 0.0
C781 C 0.41399 0.91588 0.55977 0.0
N782 N 0.3499 1.01689 0.59065 0.0
N783 N 0.39631 0.92864 0.5756 0.0
H784 H 0.14552 0.18079 0.96365 0.0
H785 H 0.31019 0.11086 1.03524 0.0
H786 H 0.22333 0.08776 0.9511 0.0
H787 H 0.23186 0.20473 1.04598 0.0
H788 H 0.28307 0.10502 1.00351 0.0
H789 H 0.18227 0.1944 0.99219 0.0
C790 C 0.171 0.16379 0.9667 0.0
C791 C 0.18145 0.1332 0.95492 0.0
C792 C 0.27202 0.12706 1.01277 0.0
C793 C 0.2232 0.1478 0.9881 0.0
C794 C 0.28727 0.13025 1.031 0.0
C795 C 0.27322 0.15821 1.04353 0.0
C796 C 0.24236 0.15196 1.00689 0.0
C797 C 0.24402 0.18295 1.03692 0.0
C798 C 0.19185 0.17137 0.98311 0.0
C799 C 0.21456 0.11193 0.95965 0.0
N800 N 0.22952 0.17908 1.01919 0.0
N801 N 0.23394 0.11926 0.97603 0.0
H802 H 0.63176 0.48071 0.29725 0.0
H803 H 0.74064 0.481 0.19817 0.0
H804 H 0.71382 0.56844 0.28176 0.0
H805 H 0.65238 0.40024 0.21407 0.0
H806 H 0.72731 0.5179 0.22695 0.0
H807 H 0.63578 0.45459 0.26563 0.0
C808 C 0.65038 0.49484 0.28719 0.0
C809 C 0.67246 0.52699 0.29238 0.0
C810 C 0.71034 0.49253 0.22393 0.0
C811 C 0.67777 0.49643 0.25583 0.0
C812 C 0.71761 0.47179 0.20737 0.0
C813 C 0.69755 0.43755 0.20373 0.0
C814 C 0.68289 0.4788 0.23686 0.0
C815 C 0.6686 0.42643 0.21636 0.0
C816 C 0.65282 0.4797 0.26906 0.0
C817 C 0.69667 0.54328 0.27862 0.0
N818 N 0.66245 0.44668 0.23237 0.0
N819 N 0.69881 0.52775 0.26105 0.0
H820 H 0.25242 0.99213 0.53218 0.0
H821 H 0.37908 0.89138 0.45229 0.0
H822 H 0.30782 0.88123 0.538 0.0
H823 H 0.34552 1.01065 0.4498 0.0
H824 H 0.3396 0.88299 0.4804 0.0
H825 H 0.27543 0.99583 0.4998 0.0
C826 C 0.26929 0.96843 0.52681 0.0
C827 C 0.27835 0.93644 0.53831 0.0
C828 C 0.3401 0.91085 0.47353 0.0
C829 C 0.30377 0.94019 0.5006 0.0
C830 C 0.3623 0.91553 0.45731 0.0
C831 C 0.3655 0.95172 0.44861 0.0
C832 C 0.32133 0.94276 0.48142 0.0
C833 C 0.34357 0.98216 0.45593 0.0
C834 C 0.2821 0.97051 0.50814 0.0
C835 C 0.29932 0.90631 0.52994 0.0
N836 N 0.32297 0.97718 0.4721 0.0
N837 N 0.3113 0.90903 0.51175 0.0
H838 H 0.92793 0.67567 0.70805 0.0
H839 H 0.83964 0.55645 0.79373 0.0
H840 H 0.81678 0.621 0.70504 0.0
H841 H 0.95825 0.59303 0.7916 0.0
H842 H 0.83087 0.57856 0.76124 0.0
H843 H 0.94062 0.64262 0.73784 0.0
C844 C 0.90666 0.65566 0.7134 0.0
C845 C 0.87146 0.65065 0.70389 0.0
C846 C 0.85887 0.58157 0.76784 0.0
C847 C 0.8851 0.61385 0.73859 0.0
C848 C 0.86384 0.56932 0.78651 0.0
C849 C 0.89973 0.57309 0.79561 0.0
C850 C 0.88988 0.59811 0.7581 0.0
C851 C 0.93013 0.58926 0.78525 0.0
C852 C 0.91375 0.63709 0.73054 0.0
C853 C 0.84459 0.62506 0.7117 0.0
N854 N 0.92444 0.60138 0.76718 0.0
N855 N 0.85171 0.60809 0.72874 0.0
H856 H 0.87481 0.88726 0.14436 0.0
H857 H 0.7983 0.99343 0.05211 0.0
H858 H 0.84928 1.00852 0.14277 0.0
H859 H 0.79829 0.86989 0.05854 0.0
H860 H 0.81591 0.99957 0.08535 0.0
H861 H 0.84327 0.8798 0.11375 0.0
C862 C 0.86115 0.91207 0.13787 0.0
C863 C 0.86424 0.94846 0.14622 0.0
C864 C 0.81176 0.97112 0.07952 0.0
C865 C 0.82966 0.94057 0.11068 0.0
C866 C 0.80213 0.96755 0.06045 0.0
C867 C 0.79697 0.93104 0.05235 0.0
C868 C 0.81663 0.93797 0.09067 0.0
C869 C 0.80157 0.89865 0.06409 0.0
C870 C 0.8436 0.90792 0.12026 0.0
C871 C 0.847 0.97986 0.13697 0.0
N872 N 0.81138 0.90288 0.08255 0.0
N873 N 0.8311 0.97534 0.11953 0.0
H874 H 0.32496 0.59626 0.89973 0.0
H875 H 0.44606 0.58685 0.80572 0.0
H876 H 0.43885 0.64367 0.89376 0.0
H877 H 0.3527 0.50733 0.81603 0.0
H878 H 0.44364 0.60614 0.83837 0.0
H879 H 0.33405 0.5609 0.87009 0.0
C880 C 0.3525 0.59782 0.89266 0.0
C881 C 0.38142 0.62253 0.89934 0.0
C882 C 0.42378 0.58427 0.83353 0.0
C883 C 0.39139 0.58367 0.86511 0.0
C884 C 0.42537 0.5728 0.81475 0.0
C885 C 0.39968 0.54503 0.80767 0.0
C886 C 0.39563 0.56892 0.84552 0.0
C887 C 0.37269 0.52939 0.82041 0.0
C888 C 0.35746 0.57815 0.87558 0.0
C889 C 0.41598 0.62464 0.88921 0.0
N890 N 0.37108 0.54186 0.83857 0.0
N891 N 0.41976 0.60604 0.87254 0.0
H892 H 0.80319 0.0994 0.56092 0.0
H893 H 0.66683 0.19597 0.6379 0.0
H894 H 0.74605 0.20899 0.55393 0.0
H895 H 0.71855 0.08416 0.64543 0.0
H896 H 0.7044 0.2051 0.6093 0.0
H897 H 0.77918 0.09603 0.59322 0.0
C898 C 0.78555 0.12275 0.5661 0.0
C899 C 0.77646 0.15443 0.55449 0.0
C900 C 0.70822 0.17881 0.61733 0.0
C901 C 0.74945 0.151 0.59174 0.0
C902 C 0.68705 0.17379 0.63379 0.0
C903 C 0.68973 0.13935 0.64409 0.0
C904 C 0.73188 0.1489 0.61084 0.0
C905 C 0.71604 0.11136 0.63804 0.0
C906 C 0.77215 0.12093 0.58465 0.0
C907 C 0.7542 0.18414 0.56227 0.0
N908 N 0.73565 0.11646 0.62161 0.0
N909 N 0.74137 0.18157 0.5803 0.0
H910 H 0.15725 0.39718 0.3846 0.0
H911 H 0.23008 0.55321 0.30975 0.0
H912 H 0.25385 0.47205 0.39514 0.0
H913 H 0.13517 0.47548 0.3002 0.0
H914 H 0.23616 0.52833 0.34189 0.0
H915 H 0.14451 0.43125 0.35521 0.0
C916 C 0.17532 0.42145 0.38091 0.0
C917 C 0.2067 0.43178 0.39238 0.0
C918 C 0.21388 0.51688 0.3328 0.0
C919 C 0.19278 0.47056 0.35828 0.0
C920 C 0.21056 0.53083 0.31434 0.0
C921 C 0.1822 0.5163 0.30207 0.0
C922 C 0.1887 0.48808 0.33914 0.0
C923 C 0.15726 0.48789 0.30909 0.0
C924 C 0.16817 0.44077 0.36401 0.0
C925 C 0.22916 0.46338 0.38683 0.0
N926 N 0.16124 0.47466 0.32705 0.0
N927 N 0.22209 0.48134 0.37003 0.0
H928 H 0.73544 0.7137 0.54019 0.0
H929 H 0.70519 0.55435 0.46066 0.0
H930 H 0.78218 0.59868 0.54328 0.0
H931 H 0.66962 0.67216 0.45318 0.0
H932 H 0.73822 0.57207 0.4898 0.0
H933 H 0.71471 0.7011 0.50776 0.0
C934 C 0.74163 0.68589 0.53407 0.0
C935 C 0.76032 0.65711 0.54473 0.0
C936 C 0.72396 0.59436 0.48167 0.0
C937 C 0.73637 0.64244 0.50746 0.0
C938 C 0.70547 0.58428 0.46491 0.0
C939 C 0.68536 0.61198 0.45434 0.0
C940 C 0.72159 0.63237 0.48828 0.0
C941 C 0.68561 0.65015 0.46072 0.0
C942 C 0.72968 0.67871 0.51552 0.0
C943 C 0.76713 0.62155 0.53593 0.0
N944 N 0.70298 0.65916 0.47742 0.0
N945 N 0.75505 0.61525 0.51796 0.0
H946 H 0.23194 0.06817 0.78688 0.0
H947 H 0.1381 0.93914 0.70566 0.0
H948 H 0.12217 1.01065 0.7912 0.0
H949 H 0.25079 0.9898 0.70087 0.0
H950 H 0.12808 0.97418 0.73494 0.0
H951 H 0.2368 0.0466 0.75421 0.0
C952 C 0.20885 0.05096 0.78105 0.0
C953 C 0.17665 0.04112 0.79205 0.0
C954 C 0.15474 0.97841 0.72736 0.0
C955 C 0.18181 1.01691 0.7543 0.0
C956 C 0.16025 0.95877 0.71048 0.0
C957 C 0.19512 0.96192 0.7007 0.0
C958 C 0.18463 1.00099 0.73483 0.0
C959 C 0.22318 0.98715 0.70779 0.0
C960 C 0.21154 0.03896 0.76228 0.0
C961 C 0.14737 1.01944 0.78339 0.0
N962 N 0.21759 1.00526 0.72459 0.0
N963 N 0.15077 1.00802 0.76517 0.0
H964 H 0.81942 0.37966 1.04079 0.0
H965 H 0.83874 0.51067 0.94989 0.0
H966 H 0.74556 0.47865 1.03271 0.0
H967 H 0.87346 0.39165 0.9521 0.0
H968 H 0.80372 0.50148 0.97969 0.0
H969 H 0.83958 0.38509 1.00826 0.0
C970 C 0.8068 0.40224 1.03224 0.0
C971 C 0.78039 0.42859 1.03989 0.0
C972 C 0.81813 0.47715 0.97334 0.0
C973 C 0.80514 0.43593 1.00226 0.0
C974 C 0.83764 0.48226 0.95619 0.0
C975 C 0.8587 0.45173 0.94837 0.0
C976 C 0.82013 0.44143 0.98275 0.0
C977 C 0.85737 0.41587 0.95754 0.0
C978 C 0.81871 0.4055 1.01355 0.0
C979 C 0.76649 0.45796 1.02783 0.0
N980 N 0.83904 0.41189 0.97429 0.0
N981 N 0.77936 0.46111 1.00976 0.0
H982 H 0.30943 0.11641 0.20433 0.0
H983 H 0.45176 0.04153 0.28566 0.0
H984 H 0.42654 0.15599 0.20916 0.0
H985 H 0.33091 0.06148 0.29525 0.0
H986 H 0.44403 0.06647 0.2534 0.0
H987 H 0.31846 0.07824 0.23332 0.0
C988 C 0.33749 0.1158 0.21107 0.0
C989 C 0.36753 0.1388 0.20419 0.0
C990 C 0.41916 0.06495 0.26252 0.0
C991 C 0.37786 0.0958 0.23737 0.0
C992 C 0.4235 0.05061 0.28087 0.0
C993 C 0.39194 0.04955 0.29316 0.0
C994 C 0.38282 0.0775 0.25624 0.0
C995 C 0.356 0.06202 0.28627 0.0
C996 C 0.34243 0.09453 0.22774 0.0
C997 C 0.4029 0.13814 0.21386 0.0
N998 N 0.35238 0.07535 0.26826 0.0
N999 N 0.40712 0.11701 0.22993 0.0
H1000 H 0.42623 0.41585 0.63632 0.0
H1001 H 0.26797 0.48142 0.56054 0.0
H1002 H 0.34769 0.50985 0.64584 0.0
H1003 H 0.34881 0.38855 0.55237 0.0
H1004 H 0.29177 0.48865 0.59282 0.0
H1005 H 0.39194 0.40051 0.6073 0.0
C1006 C 0.40109 0.43273 0.63249 0.0
C1007 C 0.38975 0.46415 0.64352 0.0
C1008 C 0.30409 0.46652 0.584 0.0
C1009 C 0.35085 0.44747 0.60984 0.0
C1010 C 0.29075 0.46255 0.56547 0.0
C1011 C 0.30655 0.43448 0.55352 0.0
C1012 C 0.33354 0.4423 0.59073 0.0
C1013 C 0.33541 0.41038 0.56097 0.0
C1014 C 0.38166 0.42414 0.61581 0.0
C1015 C 0.35711 0.48514 0.63785 0.0
N1016 N 0.34804 0.41501 0.57898 0.0
N1017 N 0.33913 0.47679 0.62122 0.0
H1018 H 0.95849 0.08988 0.30369 0.0
H1019 H 0.82246 0.10337 0.3942 0.0
H1020 H 0.84612 0.03706 0.30605 0.0
H1021 H 0.93886 0.14596 0.39202 0.0
H1022 H 0.83184 0.07336 0.36324 0.0
H1023 H 0.95268 0.10688 0.33683 0.0
C1024 C 0.93265 0.08161 0.31116 0.0
C1025 C 0.90278 0.06194 0.3019 0.0
C1026 C 0.85562 0.08853 0.36974 0.0
C1027 C 0.89566 0.08193 0.3401 0.0
C1028 C 0.85044 0.10507 0.38757 0.0
C1029 C 0.88005 0.12687 0.39575 0.0
C1030 C 0.89055 0.09407 0.36008 0.0
C1031 C 0.91536 0.1292 0.38624 0.0
C1032 C 0.92928 0.09148 0.33014 0.0
C1033 C 0.8697 0.05275 0.31241 0.0
N1034 N 0.91945 0.1135 0.36889 0.0
N1035 N 0.86699 0.06289 0.33087 0.0
H1036 H 0.18604 0.69644 0.14319 0.0
H1037 H 0.31057 0.60273 0.06098 0.0
H1038 H 0.23395 0.58223 0.14681 0.0
H1039 H 0.26272 0.71739 0.05888 0.0
H1040 H 0.2892 0.59679 0.09363 0.0
H1041 H 0.22261 0.70777 0.11444 0.0
C1042 C 0.20541 0.67421 0.13825 0.0
C1043 C 0.20722 0.63848 0.14747 0.0
C1044 C 0.28366 0.62336 0.08607 0.0
C1045 C 0.24795 0.65053 0.11398 0.0
C1046 C 0.29552 0.62667 0.06732 0.0
C1047 C 0.28821 0.66054 0.05698 0.0
C1048 C 0.26422 0.65409 0.09464 0.0
C1049 C 0.26933 0.69083 0.06622 0.0
C1050 C 0.22593 0.68049 0.12168 0.0
C1051 C 0.23222 0.61041 0.1403 0.0
N1052 N 0.25783 0.68677 0.0844 0.0
N1053 N 0.25108 0.61676 0.12377 0.0
H1054 H 0.62001 0.98888 0.7988 0.0
H1055 H 0.74262 0.98056 0.89465 0.0
H1056 H 0.71648 0.06369 0.81011 0.0
H1057 H 0.64962 0.90339 0.88092 0.0
H1058 H 0.72781 1.01796 0.86604 0.0
H1059 H 0.62535 0.96331 0.83071 0.0
C1060 C 0.64212 1.00027 0.80801 0.0
C1061 C 0.66798 1.02839 0.80157 0.0
C1062 C 0.71019 0.99326 0.86949 0.0
C1063 C 0.6746 0.99868 0.83834 0.0
C1064 C 0.71833 0.97223 0.88595 0.0
C1065 C 0.69732 0.93883 0.89013 0.0
C1066 C 0.6808 0.98076 0.85723 0.0
C1067 C 0.66665 0.92887 0.87817 0.0
C1068 C 0.64528 0.98547 0.82628 0.0
C1069 C 0.69634 0.04151 0.81425 0.0
N1070 N 0.65957 0.94946 0.86223 0.0
N1071 N 0.69901 1.02644 0.83194 0.0
H1072 H 0.44779 0.2477 0.13709 0.0
H1073 H 0.6394 0.29184 0.19291 0.0
H1074 H 0.44291 0.28387 0.195 0.0
H1075 H 0.62336 0.33826 0.13705 0.0
H1076 H 0.57093 0.27363 0.19342 0.0
H1077 H 0.51608 0.26656 0.13615 0.0
C1078 C 0.46111 0.25963 0.14958 0.0
C1079 C 0.43967 0.26452 0.16611 0.0
C1080 C 0.58257 0.28763 0.18104 0.0
C1081 C 0.51773 0.28488 0.16528 0.0
C1082 C 0.62158 0.29772 0.18067 0.0
C1083 C 0.63701 0.31649 0.16489 0.0
C1084 C 0.55916 0.29532 0.16531 0.0
C1085 C 0.61254 0.32388 0.14949 0.0
C1086 C 0.49992 0.2704 0.14902 0.0
C1087 C 0.45833 0.28003 0.18193 0.0
N1088 N 0.57489 0.3129 0.14999 0.0
N1089 N 0.49645 0.2892 0.18121 0.0
H1090 H 0.57191 0.70038 0.44742 0.0
H1091 H 0.48605 0.87511 0.38779 0.0
H1092 H 0.56273 0.69524 0.38692 0.0
H1093 H 0.54934 0.89206 0.43951 0.0
H1094 H 0.50583 0.80712 0.38813 0.0
H1095 H 0.55462 0.7689 0.44604 0.0
C1096 C 0.56606 0.71359 0.43387 0.0
C1097 C 0.56883 0.69206 0.41727 0.0
C1098 C 0.51555 0.82591 0.39931 0.0
C1099 C 0.54868 0.77024 0.4156 0.0
C1100 C 0.50432 0.86468 0.39911 0.0
C1101 C 0.51613 0.88945 0.41359 0.0
C1102 C 0.53793 0.81162 0.41433 0.0
C1103 C 0.53968 0.87421 0.42797 0.0
C1104 C 0.55644 0.7527 0.43308 0.0
C1105 C 0.56116 0.71078 0.40006 0.0
N1106 N 0.54939 0.83628 0.42809 0.0
N1107 N 0.55113 0.74867 0.39968 0.0
H1108 H 0.9202 0.83565 0.66534 0.0
H1109 H 0.14114 0.77205 0.6623 0.0
H1110 H 0.95524 0.71913 0.65346 0.0
H1111 H 0.10455 0.88955 0.65377 0.0
H1112 H 0.07349 0.75177 0.66145 0.0
H1113 H 0.98771 0.85581 0.66354 0.0
C1114 C 0.94203 0.81432 0.66224 0.0
C1115 C 0.93189 0.77563 0.65947 0.0
C1116 C 0.08031 0.78195 0.65964 0.0
C1117 C 1.00949 0.79849 0.65768 0.0
C1118 C 0.11894 0.79358 0.66015 0.0
C1119 C 0.12866 0.83259 0.65805 0.0
C1120 C 0.05101 0.80958 0.65735 0.0
C1121 C 0.09853 0.85916 0.65534 0.0
C1122 C 0.98059 0.82588 0.66119 0.0
C1123 C 0.96157 0.7493 0.65556 0.0
N1124 N 0.06116 0.84723 0.65524 0.0
N1125 N 0.99897 0.76113 0.65494 0.0
H1126 H 1.01774 0.38204 0.94449 0.0
H1127 H 0.08869 0.20609 0.88559 0.0
H1128 H 0.99242 0.38177 0.88498 0.0
H1129 H 1.02782 0.18919 0.93775 0.0
H1130 H 0.06695 0.27367 0.88511 0.0
H1131 H 0.03632 0.31431 0.94257 0.0
C1132 C 1.01656 0.36786 0.93094 0.0
C1133 C 1.00365 0.38761 0.91482 0.0
C1134 C 0.0582 0.25492 0.89653 0.0
C1135 C 1.02526 0.31017 0.91259 0.0
C1136 C 0.07063 0.21656 0.89687 0.0
C1137 C 0.05989 0.19207 0.91171 0.0
C1138 C 0.03606 0.26903 0.91146 0.0
C1139 C 0.03649 0.20702 0.92598 0.0
C1140 C 1.02686 0.32917 0.92993 0.0
C1141 C 1.00221 0.36754 0.89771 0.0
N1142 N 1.02588 0.2447 0.92567 0.0
N1143 N 1.01332 0.32988 0.89697 0.0
H1144 H 0.62615 0.84844 0.96008 0.0
H1145 H 0.44052 0.78853 0.90245 0.0
H1146 H 0.63563 0.79615 0.90536 0.0
H1147 H 0.44984 0.75704 0.96106 0.0
H1148 H 0.50825 0.80905 0.90305 0.0
H1149 H 0.55727 0.83121 0.96058 0.0
C1150 C 0.61373 0.83333 0.94821 0.0
C1151 C 0.6366 0.82332 0.93274 0.0
C1152 C 0.49522 0.79802 0.9158 0.0
C1153 C 0.55809 0.80494 0.93296 0.0
C1154 C 0.45659 0.78666 0.91553 0.0
C1155 C 0.43961 0.77114 0.93175 0.0
C1156 C 0.51665 0.79484 0.93254 0.0
C1157 C 0.46194 0.76881 0.94826 0.0
C1158 C 0.5746 0.82355 0.94852 0.0
C1159 C 0.6191 0.80392 0.91766 0.0
N1160 N 0.4993 0.78078 0.94829 0.0
N1161 N 0.58079 0.79577 0.91804 0.0
H1162 H 0.44668 0.38012 0.69275 0.0
H1163 H 0.62015 0.22825 0.69256 0.0
H1164 H 0.56479 0.41324 0.68325 0.0
H1165 H 0.50168 0.19606 0.68304 0.0
H1166 H 0.60055 0.29595 0.69341 0.0
H1167 H 0.46657 0.31262 0.69337 0.0
C1168 C 0.47688 0.37329 0.69093 0.0
C1169 C 0.50411 0.40259 0.68801 0.0
C1170 C 0.57884 0.27406 0.69119 0.0
C1171 C 0.5271 0.32498 0.68876 0.0
C1172 C 0.58995 0.23534 0.69081 0.0
C1173 C 0.56251 0.20629 0.68774 0.0
C1174 C 0.5399 0.28397 0.68874 0.0
C1175 C 0.52384 0.2174 0.68544 0.0
C1176 C 0.48816 0.33464 0.6912 0.0
C1177 C 0.54279 0.39172 0.68559 0.0
N1178 N 0.51369 0.25527 0.68605 0.0
N1179 N 0.55313 0.35385 0.68609 0.0
H1180 H 0.11906 0.37573 0.44094 0.0
H1181 H 0.96953 0.20139 0.44732 0.0
H1182 H 0.15345 0.25661 0.43741 0.0
H1183 H 0.93654 0.31512 0.42863 0.0
H1184 H 0.03656 0.22279 0.44929 0.0
H1185 H 0.0515 0.35539 0.44188 0.0
C1186 C 0.11246 0.34529 0.44056 0.0
C1187 C 0.142 0.31782 0.43911 0.0
C1188 C 1.0146 0.24308 0.44485 0.0
C1189 C 0.06476 0.29442 0.44025 0.0
C1190 C 0.97627 0.23098 0.44382 0.0
C1191 C 0.9473 0.25649 0.43776 0.0
C1192 C 1.02407 0.28114 0.44006 0.0
C1193 C 0.95791 0.29443 0.4333 0.0
C1194 C 0.07389 0.33375 0.44099 0.0
C1195 C 0.13165 0.27878 0.4385 0.0
N1196 N 0.99541 0.30563 0.43457 0.0
N1197 N 0.09393 0.26825 0.43914 0.0
H1198 H 0.09787 0.70823 0.213 0.0
H1199 H 1.01713 0.88081 0.15387 0.0
H1200 H 1.03072 0.68827 0.16275 0.0
H1201 H 0.99436 0.88122 0.2135 0.0
H1202 H 0.03781 0.81358 0.15635 0.0
H1203 H 0.07429 0.77531 0.21333 0.0
C1204 C 0.07805 0.71785 0.20214 0.0
C1205 C 0.06617 0.69261 0.18786 0.0
C1206 C 1.02848 0.8285 0.16889 0.0
C1207 C 0.04026 0.76905 0.18788 0.0
C1208 C 1.01695 0.86687 0.16755 0.0
C1209 C 1.00415 0.88662 0.18354 0.0
C1210 C 1.0283 0.80991 0.18643 0.0
C1211 C 1.00401 0.86693 0.20085 0.0
C1212 C 0.06461 0.75595 0.20238 0.0
C1213 C 0.04049 0.70659 0.17409 0.0
N1214 N 1.01636 0.82965 0.20192 0.0
N1215 N 1.02894 0.74398 0.17426 0.0
H1216 H 0.20927 0.28808 0.15617 0.0
H1217 H 0.20055 0.51399 0.13451 0.0
H1218 H 0.30928 0.34806 0.1357 0.0
H1219 H 0.13596 0.45541 0.17764 0.0
H1220 H 0.23211 0.45234 0.1266 0.0
H1221 H 0.17241 0.34779 0.15436 0.0
C1222 C 0.22307 0.31365 0.15061 0.0
C1223 C 0.26231 0.31315 0.14602 0.0
C1224 C 0.21074 0.45313 0.13764 0.0
C1225 C 0.22054 0.38206 0.14448 0.0
C1226 C 0.19267 0.48812 0.14211 0.0
C1227 C 0.16582 0.48975 0.15684 0.0
C1228 C 0.20094 0.41958 0.14763 0.0
C1229 C 0.15675 0.45552 0.16632 0.0
C1230 C 0.20215 0.34783 0.14981 0.0
C1231 C 0.27895 0.3472 0.13914 0.0
N1232 N 0.17413 0.42196 0.16153 0.0
N1233 N 0.25809 0.38061 0.13885 0.0
H1234 H 0.37007 0.36943 0.38865 0.0
H1235 H 0.47182 0.57053 0.40054 0.0
H1236 H 0.35324 0.44291 0.43675 0.0
H1237 H 0.54462 0.47441 0.38614 0.0
H1238 H 0.41774 0.52662 0.40424 0.0
H1239 H 0.42581 0.40951 0.37941 0.0
C1240 C 0.37813 0.39378 0.39728 0.0
C1241 C 0.35705 0.40273 0.41356 0.0
C1242 C 0.44539 0.51522 0.39994 0.0
C1243 C 0.4195 0.44884 0.40279 0.0
C1244 C 0.47627 0.54023 0.39771 0.0
C1245 C 0.51302 0.52611 0.39325 0.0
C1246 C 0.4508 0.47565 0.39743 0.0
C1247 C 0.51681 0.48651 0.38961 0.0
C1248 C 0.40985 0.41645 0.39202 0.0
C1249 C 0.3687 0.43464 0.4242 0.0
N1250 N 0.48605 0.46243 0.39195 0.0
N1251 N 0.39871 0.45673 0.4185 0.0
H1252 H 0.34959 0.80721 0.63765 0.0
H1253 H 0.36137 0.60184 0.68284 0.0
H1254 H 0.24858 0.74319 0.65329 0.0
H1255 H 0.44583 0.63406 0.64134 0.0
H1256 H 0.32188 0.65662 0.67327 0.0
H1257 H 0.3873 0.74704 0.63847 0.0
C1258 C 0.335 0.78022 0.64032 0.0
C1259 C 0.29573 0.77993 0.64494 0.0
C1260 C 0.34894 0.65171 0.66617 0.0
C1261 C 0.33892 0.71173 0.64709 0.0
C1262 C 0.37171 0.62055 0.67173 0.0
C1263 C 0.40711 0.61339 0.66295 0.0
C1264 C 0.36187 0.67678 0.652 0.0
C1265 C 0.41872 0.63853 0.64848 0.0
C1266 C 0.35661 0.74601 0.64107 0.0
C1267 C 0.27858 0.74446 0.6492 0.0
N1268 N 0.39643 0.6695 0.64363 0.0
N1269 N 0.30035 0.71201 0.65055 0.0
H1270 H 0.04944 0.5719 0.88767 0.0
H1271 H 0.22079 0.65839 0.94891 0.0
H1272 H 0.0801 0.53566 0.94403 0.0
H1273 H 0.23187 0.65579 0.88841 0.0
H1274 H 0.16153 0.62215 0.9464 0.0
H1275 H 0.11002 0.60943 0.88642 0.0
C1276 C 0.06878 0.57155 0.89967 0.0
C1277 C 0.05913 0.5509 0.91607 0.0
C1278 C 0.17681 0.62938 0.93361 0.0
C1279 C 0.12771 0.59385 0.91478 0.0
C1280 C 0.21077 0.65032 0.93502 0.0
C1281 C 0.23173 0.66004 0.91886 0.0
C1282 C 0.16301 0.618 0.91589 0.0
C1283 C 0.21679 0.64867 0.90126 0.0
C1284 C 0.10325 0.59293 0.89893 0.0
C1285 C 0.0855 0.55147 0.93115 0.0
N1286 N 0.1832 0.62822 0.90021 0.0
N1287 N 0.11807 0.5727 0.93017 0.0
H1288 H 0.87066 0.80093 0.93757 0.0
H1289 H 0.87512 0.57668 0.96281 0.0
H1290 H 0.77271 0.74471 0.96249 0.0
H1291 H 0.94018 0.6304 0.91829 0.0
H1292 H 0.84606 0.63953 0.97007 0.0
H1293 H 0.90645 0.74058 0.93915 0.0
C1294 C 0.8572 0.77609 0.94406 0.0
C1295 C 0.81874 0.77774 0.94995 0.0
C1296 C 0.86692 0.63744 0.95883 0.0
C1297 C 0.85917 0.70816 0.95125 0.0
C1298 C 0.88355 0.6017 0.95468 0.0
C1299 C 0.90993 0.59828 0.93981 0.0
C1300 C 0.87748 0.67001 0.94832 0.0
C1301 C 0.91975 0.63159 0.92974 0.0
C1302 C 0.87746 0.74154 0.94471 0.0
C1303 C 0.80247 0.74466 0.95801 0.0
N1304 N 0.90362 0.66598 0.9342 0.0
N1305 N 0.82262 0.71087 0.95817 0.0
H1306 H 0.73109 0.63506 0.66788 0.0
H1307 H 0.5267 0.63238 0.71135 0.0
H1308 H 0.70563 0.71786 0.71112 0.0
H1309 H 0.58659 0.52703 0.69899 0.0
H1310 H 0.58867 0.66677 0.71125 0.0
H1311 H 0.67485 0.59762 0.67744 0.0
C1312 C 0.71355 0.64541 0.67939 0.0
C1313 C 0.7229 0.67975 0.68865 0.0
C1314 C 0.58837 0.6359 0.70923 0.0
C1315 C 0.65814 0.63707 0.69957 0.0
C1316 C 0.55312 0.61621 0.70953 0.0
C1317 C 0.55174 0.57665 0.7057 0.0
C1318 C 0.6221 0.61605 0.7043 0.0
C1319 C 0.58658 0.55732 0.70253 0.0
C1320 C 0.68168 0.62382 0.68495 0.0
C1321 C 0.69937 0.69153 0.70362 0.0
N1322 N 0.62019 0.57731 0.70147 0.0
N1323 N 0.6676 0.67057 0.70843 0.0
H1324 H 0.82205 0.34641 0.44496 0.0
H1325 H 0.61098 0.43991 0.43765 0.0
H1326 H 0.71901 0.27776 0.44309 0.0
H1327 H 0.71586 0.49654 0.42062 0.0
H1328 H 0.64912 0.38298 0.44671 0.0
H1329 H 0.78231 0.40481 0.44427 0.0
C1330 C 0.79096 0.34374 0.44522 0.0
C1331 C 0.77364 0.30743 0.44451 0.0
C1332 C 0.66365 0.40799 0.44103 0.0
C1333 C 0.72801 0.37385 0.44291 0.0
C1334 C 0.64193 0.44042 0.4358 0.0
C1335 C 0.66013 0.47288 0.42804 0.0
C1336 C 0.70388 0.40834 0.43881 0.0
C1337 C 0.70041 0.47203 0.42621 0.0
C1338 C 0.76829 0.37699 0.44451 0.0
C1339 C 0.73328 0.30538 0.44409 0.0
N1340 N 0.72082 0.4404 0.43154 0.0
N1341 N 0.71176 0.33815 0.44315 0.0
H1342 H 0.87107 0.41255 0.15038 0.0
H1343 H 1.00024 0.54839 0.21276 0.0
H1344 H 0.84134 0.42739 0.20882 0.0
H1345 H 0.04544 0.47604 0.16894 0.0
H1346 H 0.94002 0.51031 0.21216 0.0
H1347 H 0.93247 0.44426 0.15633 0.0
C1348 C 0.87738 0.42258 0.16448 0.0
C1349 C 0.85101 0.41713 0.17913 0.0
C1350 C 0.96359 0.50238 0.20302 0.0
C1351 C 0.92158 0.45374 0.18605 0.0
C1352 C 0.998 0.52378 0.20352 0.0
C1353 C 1.02772 0.51532 0.19085 0.0
C1354 C 0.9591 0.47305 0.18957 0.0
C1355 C 1.0231 0.48366 0.17886 0.0
C1356 C 0.91261 0.44046 0.1679 0.0
C1357 C 0.86099 0.43078 0.19715 0.0
N1358 N 0.98933 0.46419 0.17828 0.0
N1359 N 0.89541 0.44878 0.2001 0.0
H1360 H 0.78616 0.84991 0.63381 0.0
H1361 H 0.61459 0.96251 0.68223 0.0
H1362 H 0.70121 0.7975 0.66967 0.0
H1363 H 0.6755 1.01225 0.63537 0.0
H1364 H 0.645 0.90084 0.67595 0.0
H1365 H 0.74517 0.90794 0.63153 0.0
C1366 C 0.75829 0.85009 0.6406 0.0
C1367 C 0.74694 0.81896 0.65193 0.0
C1368 C 0.65158 0.92495 0.66682 0.0
C1369 C 0.70068 0.88517 0.64987 0.0
C1370 C 0.6342 0.96028 0.67046 0.0
C1371 C 0.64259 0.99255 0.65934 0.0
C1372 C 0.67847 0.9217 0.65218 0.0
C1373 C 0.66814 0.98794 0.64422 0.0
C1374 C 0.7351 0.8833 0.63947 0.0
C1375 C 0.71102 0.82094 0.66081 0.0
N1376 N 0.68575 0.95327 0.64125 0.0
N1377 N 0.68952 0.85351 0.65978 0.0
H1378 H 0.82669 0.93674 0.88205 0.0
H1379 H 0.04978 0.96065 0.90353 0.0
H1380 H 0.88193 0.89709 0.93305 0.0
H1381 H 0.98674 0.05892 0.88266 0.0
H1382 H 0.99021 0.92344 0.90386 0.0
H1383 H 0.88683 0.97013 0.87325 0.0
C1384 C 0.85154 0.93482 0.89128 0.0
C1385 C 0.84944 0.91422 0.90831 0.0
C1386 C 0.9896 0.95276 0.89862 0.0
C1387 C 0.91796 0.95111 0.89811 0.0
C1388 C 1.02363 0.97384 0.89813 0.0
C1389 C 1.02319 1.01286 0.89296 0.0
C1390 C 0.95478 0.97057 0.89369 0.0
C1391 C 0.98836 1.02877 0.88646 0.0
C1392 C 0.8856 0.9539 0.88628 0.0
C1393 C 0.88226 0.91281 0.91986 0.0
N1394 N 0.95521 1.00765 0.88726 0.0
N1395 N 0.91524 0.93067 0.91446 0.0
H1396 H 0.87552 0.07516 0.13264 0.0
H1397 H 0.86913 0.30005 0.15395 0.0
H1398 H 0.93343 0.12956 0.1793 0.0
H1399 H 0.76811 0.2427 0.13259 0.0
H1400 H 0.90377 0.23897 0.15383 0.0
H1401 H 0.84523 0.13733 0.1246 0.0
C1402 C 0.88208 0.10018 0.1411 0.0
C1403 C 0.90686 0.09716 0.15676 0.0
C1404 C 0.87435 0.23984 0.14869 0.0
C1405 C 0.87323 0.16814 0.14731 0.0
C1406 C 0.8547 0.27477 0.14849 0.0
C1407 C 0.8157 0.27644 0.14324 0.0
C1408 C 0.85505 0.20611 0.1435 0.0
C1409 C 0.79827 0.2427 0.13653 0.0
C1410 C 0.86474 0.1355 0.1365 0.0
C1411 C 0.9143 0.13046 0.16723 0.0
N1412 N 0.81796 0.20861 0.13709 0.0
N1413 N 0.89778 0.16452 0.16225 0.0
H1414 H 0.5744 0.04076 0.38855 0.0
H1415 H 0.70451 0.1981 0.44115 0.0
H1416 H 0.55014 0.09148 0.44255 0.0
H1417 H 0.74157 0.1437 0.38987 0.0
H1418 H 0.64316 0.16507 0.43868 0.0
H1419 H 0.63137 0.08291 0.38586 0.0
C1420 C 0.58079 0.06094 0.39971 0.0
C1421 C 0.55775 0.06222 0.41592 0.0
C1422 C 0.66443 0.16035 0.42783 0.0
C1423 C 0.62233 0.11044 0.41289 0.0
C1424 C 0.69956 0.17935 0.42923 0.0
C1425 C 0.72835 0.17336 0.4158 0.0
C1426 C 0.65785 0.13452 0.41299 0.0
C1427 C 0.72007 0.14909 0.40053 0.0
C1428 C 0.6133 0.08487 0.39819 0.0
C1429 C 0.56732 0.08892 0.42994 0.0
N1430 N 0.68568 0.13007 0.39965 0.0
N1431 N 0.59874 0.1117 0.42811 0.0
H1432 H 0.36742 0.28623 0.45992 0.0
H1433 H 0.35521 0.07563 0.42625 0.0
H1434 H 0.25757 0.23155 0.45146 0.0
H1435 H 0.44375 0.10526 0.46631 0.0
H1436 H 0.32008 0.1342 0.43462 0.0
H1437 H 0.39769 0.22238 0.46288 0.0
C1438 C 0.34948 0.26076 0.45957 0.0
C1439 C 0.30989 0.26396 0.4559 0.0
C1440 C 0.34691 0.12767 0.44181 0.0
C1441 C 0.3444 0.19127 0.4581 0.0
C1442 C 0.36702 0.09442 0.43696 0.0
C1443 C 0.40233 0.08578 0.44562 0.0
C1444 C 0.36282 0.15324 0.45497 0.0
C1445 C 0.41646 0.11097 0.45941 0.0
C1446 C 0.36676 0.22439 0.46105 0.0
C1447 C 0.28805 0.23016 0.45473 0.0
N1448 N 0.39703 0.14409 0.46341 0.0
N1449 N 0.3057 0.19522 0.4554 0.0
H1450 H 0.06747 0.04403 0.20838 0.0
H1451 H 0.20003 0.18855 0.14963 0.0
H1452 H 0.03592 0.09752 0.15561 0.0
H1453 H 0.22858 0.15661 0.20676 0.0
H1454 H 0.13899 0.15521 0.15263 0.0
H1455 H 0.12529 0.08541 0.20955 0.0
C1456 C 0.07236 0.06478 0.19723 0.0
C1457 C 0.04722 0.06687 0.18171 0.0
C1458 C 0.15834 0.15552 0.16462 0.0
C1459 C 0.11291 0.11379 0.18288 0.0
C1460 C 0.19341 0.17452 0.16287 0.0
C1461 C 0.2196 0.17521 0.17792 0.0
C1462 C 0.14923 0.13641 0.1815 0.0
C1463 C 0.20914 0.15679 0.19481 0.0
C1464 C 0.10536 0.08824 0.19786 0.0
C1465 C 0.05488 0.09426 0.16766 0.0
N1466 N 0.17486 0.13775 0.1961 0.0
N1467 N 0.087 0.11625 0.16852 0.0
H1468 H 0.14468 0.95492 0.90422 0.0
H1469 H 0.30007 0.83649 0.96186 0.0
H1470 H 0.1779 0.99335 0.95961 0.0
H1471 H 0.22366 0.78696 0.9206 0.0
H1472 H 0.25884 0.89469 0.96234 0.0
H1473 H 0.17785 0.89432 0.91 0.0
C1474 C 0.15902 0.95055 0.91764 0.0
C1475 C 0.15863 0.97924 0.93143 0.0
C1476 C 0.25079 0.87063 0.95353 0.0
C1477 C 0.19713 0.90961 0.93817 0.0
C1478 C 0.2741 0.83743 0.95336 0.0
C1479 C 0.2653 0.80716 0.94106 0.0
C1480 C 0.21902 0.87325 0.94118 0.0
C1481 C 0.23166 0.80989 0.93013 0.0
C1482 C 0.17778 0.91578 0.92101 0.0
C1483 C 0.17745 0.97181 0.94864 0.0
N1484 N 0.21016 0.84243 0.93026 0.0
N1485 N 0.19645 0.93781 0.95148 0.0
H1486 H 0.31963 0.94646 0.71011 0.0
H1487 H 0.53927 0.97941 0.68119 0.0
H1488 H 0.37117 0.90437 0.65904 0.0
H1489 H 0.47754 0.06693 0.71145 0.0
H1490 H 0.48149 0.93944 0.68105 0.0
H1491 H 0.38027 0.98024 0.71757 0.0
C1492 C 0.34379 0.94394 0.7006 0.0
C1493 C 0.34035 0.92255 0.68392 0.0
C1494 C 0.48075 0.96695 0.68816 0.0
C1495 C 0.40963 0.96039 0.69255 0.0
C1496 C 0.51388 0.98952 0.68851 0.0
C1497 C 0.51332 1.02628 0.69659 0.0
C1498 C 0.44652 0.98111 0.69592 0.0
C1499 C 0.47934 0.03843 0.70543 0.0
C1500 C 0.37821 0.96334 0.70484 0.0
C1501 C 0.37242 0.9206 0.67201 0.0
N1502 N 0.44702 1.01601 0.70471 0.0
N1503 N 0.40566 0.93903 0.67661 0.0
loop_
_geom_bond_atom_site_label_1
_geom_bond_atom_site_label_2
_geom_bond_distance
_geom_bond_site_symmetry_2
_ccdc_geom_bond_type
Tb0 C9 2.764 . S
Tb0 O10 2.325 . S
Tb0 O13 2.303 . S
Tb0 O17 2.322 . S
Tb0 O18 2.349 . S
Tb0 O21 2.415 . S
Tb0 O22 2.399 . S
Tb1 O11 2.322 . S
Tb1 O12 2.349 . S
Tb1 O14 2.415 . S
Tb1 O15 2.399 . S
Tb1 O16 2.325 . S
Tb1 O19 2.303 . S
Tb1 C30 2.764 . S
C2 O18 1.261 . S
C2 O19 1.257 . S
C3 C6 1.358 . S
C3 C7 1.332 . S
C3 C9 1.504 . S
C4 C5 1.373 . S
C4 C8 1.308 . S
C5 C4 1.373 . S
C5 C6 1.429 . S
C5 H32 0.932 . S
C6 C3 1.358 . S
C6 C5 1.429 . S
C6 H33 0.930 . S
C7 C3 1.332 . S
C7 C8 1.394 . S
C7 H34 0.932 . S
C8 C4 1.308 . S
C8 C7 1.394 . S
C8 H35 0.929 . S
C9 Tb0 2.764 . S
C9 C3 1.504 . S
C9 O21 1.239 . S
C9 O22 1.263 . S
O10 Tb0 2.325 . S
O10 C20 1.236 . S
O11 Tb1 2.322 . S
O11 C20 1.257 . S
O12 Tb1 2.349 . S
O12 C23 1.261 . S
O13 Tb0 2.303 . S
O13 C23 1.257 . S
O14 Tb1 2.415 . S
O14 C30 1.239 . S
O15 Tb1 2.399 . S
O15 C30 1.263 . S
O16 Tb1 2.325 . S
O16 C31 1.236 . S
O17 Tb0 2.322 . S
O17 C31 1.257 . S
O18 Tb0 2.349 . S
O18 C2 1.261 . S
O19 Tb1 2.303 . S
O19 C2 1.257 . S
C20 O10 1.236 . S
C20 O11 1.257 . S
O21 Tb0 2.415 . S
O21 C9 1.239 . S
O22 Tb0 2.399 . S
O22 C9 1.263 . S
C23 O12 1.261 . S
C23 O13 1.257 . S
C24 C27 1.358 . S
C24 C28 1.332 . S
C24 C30 1.504 . S
C25 C26 1.373 . S
C25 C29 1.308 . S
C26 C25 1.373 . S
C26 C27 1.429 . S
C26 H36 0.932 . S
C27 C24 1.358 . S
C27 C26 1.429 . S
C27 H37 0.930 . S
C28 C24 1.332 . S
C28 C29 1.394 . S
C28 H38 0.932 . S
C29 C25 1.308 . S
C29 C28 1.394 . S
C29 H39 0.929 . S
C30 Tb1 2.764 . S
C30 O14 1.239 . S
C30 O15 1.263 . S
C30 C24 1.504 . S
C31 O16 1.236 . S
C31 O17 1.257 . S
H32 C5 0.932 . S
H33 C6 0.930 . S
H34 C7 0.932 . S
H35 C8 0.929 . S
H36 C26 0.932 . S
H37 C27 0.930 . S
H38 C28 0.932 . S
H39 C29 0.929 . S
Tb40 C49 2.764 . S
Tb40 O50 2.325 . S
Tb40 O53 2.303 . S
Tb40 O57 2.322 . S
Tb40 O58 2.349 . S
Tb40 O61 2.415 . S
Tb40 O62 2.399 . S
Tb41 O51 2.322 . S
Tb41 O52 2.349 . S
Tb41 O54 2.415 . S
Tb41 O55 2.399 . S
Tb41 O56 2.325 . S
Tb41 O59 2.303 . S
Tb41 C70 2.764 . S
C42 O58 1.261 . S
C42 O59 1.257 . S
C43 C46 1.358 . S
C43 C47 1.332 . S
C43 C49 1.504 . S
C44 C45 1.373 . S
C44 C48 1.308 . S
C45 C44 1.373 . S
C45 C46 1.429 . S
C45 H72 0.932 . S
C46 C43 1.358 . S
C46 C45 1.429 . S
C46 H73 0.930 . S
C47 C43 1.332 . S
C47 C48 1.394 . S
C47 H74 0.932 . S
C48 C44 1.308 . S
C48 C47 1.394 . S
C48 H75 0.929 . S
C49 Tb40 2.764 . S
C49 C43 1.504 . S
C49 O61 1.239 . S
C49 O62 1.263 . S
O50 Tb40 2.325 . S
O50 C60 1.236 . S
O51 Tb41 2.322 . S
O51 C60 1.257 . S
O52 Tb41 2.349 . S
O52 C63 1.261 . S
O53 Tb40 2.303 . S
O53 C63 1.257 . S
O54 Tb41 2.415 . S
O54 C70 1.239 . S
O55 Tb41 2.399 . S
O55 C70 1.263 . S
O56 Tb41 2.325 . S
O56 C71 1.236 . S
O57 Tb40 2.322 . S
O57 C71 1.257 . S
O58 Tb40 2.349 . S
O58 C42 1.261 . S
O59 Tb41 2.303 . S
O59 C42 1.257 . S
C60 O50 1.236 . S
C60 O51 1.257 . S
O61 Tb40 2.415 . S
O61 C49 1.239 . S
O62 Tb40 2.399 . S
O62 C49 1.263 . S
C63 O52 1.261 . S
C63 O53 1.257 . S
C64 C67 1.358 . S
C64 C68 1.332 . S
C64 C70 1.504 . S
C65 C66 1.373 . S
C65 C69 1.308 . S
C66 C65 1.373 . S
C66 C67 1.429 . S
C66 H76 0.932 . S
C67 C64 1.358 . S
C67 C66 1.429 . S
C67 H77 0.930 . S
C68 C64 1.332 . S
C68 C69 1.394 . S
C68 H78 0.932 . S
C69 C65 1.308 . S
C69 C68 1.394 . S
C69 H79 0.929 . S
C70 Tb41 2.764 . S
C70 O54 1.239 . S
C70 O55 1.263 . S
C70 C64 1.504 . S
C71 O56 1.236 . S
C71 O57 1.257 . S
H72 C45 0.932 . S
H73 C46 0.930 . S
H74 C47 0.932 . S
H75 C48 0.929 . S
H76 C66 0.932 . S
H77 C67 0.930 . S
H78 C68 0.932 . S
H79 C69 0.929 . S
Tb80 C89 2.764 . S
Tb80 O90 2.325 . S
Tb80 O93 2.303 . S
Tb80 O97 2.322 . S
Tb80 O98 2.349 . S
Tb80 O101 2.415 . S
Tb80 O102 2.399 . S
Tb81 O91 2.322 . S
Tb81 O92 2.349 . S
Tb81 O94 2.415 . S
Tb81 O95 2.399 . S
Tb81 O96 2.325 . S
Tb81 O99 2.303 . S
Tb81 C110 2.764 . S
C82 O98 1.261 . S
C82 O99 1.257 . S
C83 C86 1.358 . S
C83 C87 1.332 . S
C83 C89 1.504 . S
C84 C85 1.373 . S
C84 C88 1.308 . S
C85 C84 1.373 . S
C85 C86 1.429 . S
C85 H112 0.932 . S
C86 C83 1.358 . S
C86 C85 1.429 . S
C86 H113 0.930 . S
C87 C83 1.332 . S
C87 C88 1.394 . S
C87 H114 0.932 . S
C88 C84 1.308 . S
C88 C87 1.394 . S
C88 H115 0.929 . S
C89 Tb80 2.764 . S
C89 C83 1.504 . S
C89 O101 1.239 . S
C89 O102 1.263 . S
O90 Tb80 2.325 . S
O90 C100 1.236 . S
O91 Tb81 2.322 . S
O91 C100 1.257 . S
O92 Tb81 2.349 . S
O92 C103 1.261 . S
O93 Tb80 2.303 . S
O93 C103 1.257 . S
O94 Tb81 2.415 . S
O94 C110 1.239 . S
O95 Tb81 2.399 . S
O95 C110 1.263 . S
O96 Tb81 2.325 . S
O96 C111 1.236 . S
O97 Tb80 2.322 . S
O97 C111 1.257 . S
O98 Tb80 2.349 . S
O98 C82 1.261 . S
O99 Tb81 2.303 . S
O99 C82 1.257 . S
C100 O90 1.236 . S
C100 O91 1.257 . S
O101 Tb80 2.415 . S
O101 C89 1.239 . S
O102 Tb80 2.399 . S
O102 C89 1.263 . S
C103 O92 1.261 . S
C103 O93 1.257 . S
C104 C107 1.358 . S
C104 C108 1.332 . S
C104 C110 1.504 . S
C105 C106 1.373 . S
C105 C109 1.308 . S
C106 C105 1.373 . S
C106 C107 1.429 . S
C106 H116 0.932 . S
C107 C104 1.358 . S
C107 C106 1.429 . S
C107 H117 0.930 . S
C108 C104 1.332 . S
C108 C109 1.394 . S
C108 H118 0.932 . S
C109 C105 1.308 . S
C109 C108 1.394 . S
C109 H119 0.929 . S
C110 Tb81 2.764 . S
C110 O94 1.239 . S
C110 O95 1.263 . S
C110 C104 1.504 . S
C111 O96 1.236 . S
C111 O97 1.257 . S
H112 C85 0.932 . S
H113 C86 0.930 . S
H114 C87 0.932 . S
H115 C88 0.929 . S
H116 C106 0.932 . S
H117 C107 0.930 . S
H118 C108 0.932 . S
H119 C109 0.929 . S
Tb120 C129 2.764 . S
Tb120 O130 2.325 . S
Tb120 O133 2.303 . S
Tb120 O137 2.322 . S
Tb120 O138 2.349 . S
Tb120 O141 2.415 . S
Tb120 O142 2.399 . S
Tb121 O131 2.322 . S
Tb121 O132 2.349 . S
Tb121 O134 2.415 . S
Tb121 O135 2.399 . S
Tb121 O136 2.325 . S
Tb121 O139 2.303 . S
Tb121 C150 2.764 . S
C122 O138 1.261 . S
C122 O139 1.257 . S
C123 C126 1.358 . S
C123 C127 1.332 . S
C123 C129 1.504 . S
C124 C125 1.373 . S
C124 C128 1.308 . S
C125 C124 1.373 . S
C125 C126 1.429 . S
C125 H152 0.932 . S
C126 C123 1.358 . S
C126 C125 1.429 . S
C126 H153 0.930 . S
C127 C123 1.332 . S
C127 C128 1.394 . S
C127 H154 0.932 . S
C128 C124 1.308 . S
C128 C127 1.394 . S
C128 H155 0.929 . S
C129 Tb120 2.764 . S
C129 C123 1.504 . S
C129 O141 1.239 . S
C129 O142 1.263 . S
O130 Tb120 2.325 . S
O130 C140 1.236 . S
O131 Tb121 2.322 . S
O131 C140 1.257 . S
O132 Tb121 2.349 . S
O132 C143 1.261 . S
O133 Tb120 2.303 . S
O133 C143 1.257 . S
O134 Tb121 2.415 . S
O134 C150 1.239 . S
O135 Tb121 2.399 . S
O135 C150 1.263 . S
O136 Tb121 2.325 . S
O136 C151 1.236 . S
O137 Tb120 2.322 . S
O137 C151 1.257 . S
O138 Tb120 2.349 . S
O138 C122 1.261 . S
O139 Tb121 2.303 . S
O139 C122 1.257 . S
C140 O130 1.236 . S
C140 O131 1.257 . S
O141 Tb120 2.415 . S
O141 C129 1.239 . S
O142 Tb120 2.399 . S
O142 C129 1.263 . S
C143 O132 1.261 . S
C143 O133 1.257 . S
C144 C147 1.358 1_655 S
C144 C148 1.332 . S
C144 C150 1.504 . S
C145 C146 1.373 . S
C145 C149 1.308 1_455 S
C146 C145 1.373 . S
C146 C147 1.429 . S
C146 H156 0.932 . S
C147 C144 1.358 1_455 S
C147 C146 1.429 . S
C147 H157 0.930 . S
C148 C144 1.332 . S
C148 C149 1.394 . S
C148 H158 0.932 . S
C149 C145 1.308 1_655 S
C149 C148 1.394 . S
C149 H159 0.929 . S
C150 Tb121 2.764 . S
C150 O134 1.239 . S
C150 O135 1.263 . S
C150 C144 1.504 . S
C151 O136 1.236 . S
C151 O137 1.257 . S
H152 C125 0.932 . S
H153 C126 0.930 . S
H154 C127 0.932 . S
H155 C128 0.929 . S
H156 C146 0.932 . S
H157 C147 0.930 . S
H158 C148 0.932 . S
H159 C149 0.929 . S
Tb160 C169 2.764 . S
Tb160 O170 2.325 . S
Tb160 O173 2.303 . S
Tb160 O177 2.322 . S
Tb160 O178 2.349 . S
Tb160 O181 2.415 . S
Tb160 O182 2.399 . S
Tb161 O171 2.322 . S
Tb161 O172 2.349 . S
Tb161 O174 2.415 . S
Tb161 O175 2.399 . S
Tb161 O176 2.325 . S
Tb161 O179 2.303 . S
Tb161 C190 2.764 . S
C162 O178 1.261 . S
C162 O179 1.257 . S
C163 C166 1.358 . S
C163 C167 1.332 . S
C163 C169 1.504 . S
C164 C165 1.373 . S
C164 C168 1.308 . S
C165 C164 1.373 . S
C165 C166 1.429 . S
C165 H192 0.932 . S
C166 C163 1.358 . S
C166 C165 1.429 . S
C166 H193 0.930 . S
C167 C163 1.332 . S
C167 C168 1.394 . S
C167 H194 0.932 . S
C168 C164 1.308 . S
C168 C167 1.394 . S
C168 H195 0.929 . S
C169 Tb160 2.764 . S
C169 C163 1.504 . S
C169 O181 1.239 . S
C169 O182 1.263 . S
O170 Tb160 2.325 . S
O170 C180 1.236 . S
O171 Tb161 2.322 . S
O171 C180 1.257 . S
O172 Tb161 2.349 . S
O172 C183 1.261 . S
O173 Tb160 2.303 . S
O173 C183 1.257 . S
O174 Tb161 2.415 . S
O174 C190 1.239 . S
O175 Tb161 2.399 . S
O175 C190 1.263 . S
O176 Tb161 2.325 . S
O176 C191 1.236 . S
O177 Tb160 2.322 . S
O177 C191 1.257 . S
O178 Tb160 2.349 . S
O178 C162 1.261 . S
O179 Tb161 2.303 . S
O179 C162 1.257 . S
C180 O170 1.236 . S
C180 O171 1.257 . S
O181 Tb160 2.415 . S
O181 C169 1.239 . S
O182 Tb160 2.399 . S
O182 C169 1.263 . S
C183 O172 1.261 . S
C183 O173 1.257 . S
C184 C187 1.358 . S
C184 C188 1.332 . S
C184 C190 1.504 . S
C185 C186 1.373 . S
C185 C189 1.308 . S
C186 C185 1.373 . S
C186 C187 1.429 . S
C186 H196 0.932 . S
C187 C184 1.358 . S
C187 C186 1.429 . S
C187 H197 0.930 . S
C188 C184 1.332 . S
C188 C189 1.394 . S
C188 H198 0.932 . S
C189 C185 1.308 . S
C189 C188 1.394 . S
C189 H199 0.929 . S
C190 Tb161 2.764 . S
C190 O174 1.239 . S
C190 O175 1.263 . S
C190 C184 1.504 . S
C191 O176 1.236 . S
C191 O177 1.257 . S
H192 C165 0.932 . S
H193 C166 0.930 . S
H194 C167 0.932 . S
H195 C168 0.929 . S
H196 C186 0.932 . S
H197 C187 0.930 . S
H198 C188 0.932 . S
H199 C189 0.929 . S
Tb200 C209 2.764 . S
Tb200 O210 2.325 . S
Tb200 O213 2.303 . S
Tb200 O217 2.322 . S
Tb200 O218 2.349 . S
Tb200 O221 2.415 . S
Tb200 O222 2.399 . S
Tb201 O211 2.322 . S
Tb201 O212 2.349 . S
Tb201 O214 2.415 . S
Tb201 O215 2.399 . S
Tb201 O216 2.325 . S
Tb201 O219 2.303 . S
Tb201 C230 2.764 . S
C202 O218 1.261 . S
C202 O219 1.257 . S
C203 C206 1.358 . S
C203 C207 1.332 . S
C203 C209 1.504 . S
C204 C205 1.373 . S
C204 C208 1.308 . S
C205 C204 1.373 . S
C205 C206 1.429 . S
C205 H232 0.932 . S
C206 C203 1.358 . S
C206 C205 1.429 . S
C206 H233 0.930 . S
C207 C203 1.332 . S
C207 C208 1.394 . S
C207 H234 0.932 . S
C208 C204 1.308 . S
C208 C207 1.394 . S
C208 H235 0.929 . S
C209 Tb200 2.764 . S
C209 C203 1.504 . S
C209 O221 1.239 . S
C209 O222 1.263 . S
O210 Tb200 2.325 . S
O210 C220 1.236 . S
O211 Tb201 2.322 . S
O211 C220 1.257 . S
O212 Tb201 2.349 . S
O212 C223 1.261 . S
O213 Tb200 2.303 . S
O213 C223 1.257 . S
O214 Tb201 2.415 . S
O214 C230 1.239 . S
O215 Tb201 2.399 . S
O215 C230 1.263 . S
O216 Tb201 2.325 . S
O216 C231 1.236 . S
O217 Tb200 2.322 . S
O217 C231 1.257 . S
O218 Tb200 2.349 . S
O218 C202 1.261 . S
O219 Tb201 2.303 . S
O219 C202 1.257 . S
C220 O210 1.236 . S
C220 O211 1.257 . S
O221 Tb200 2.415 . S
O221 C209 1.239 . S
O222 Tb200 2.399 . S
O222 C209 1.263 . S
C223 O212 1.261 . S
C223 O213 1.257 . S
C224 C227 1.358 . S
C224 C228 1.332 . S
C224 C230 1.504 . S
C225 C226 1.373 . S
C225 C229 1.308 . S
C226 C225 1.373 . S
C226 C227 1.429 . S
C226 H236 0.932 . S
C227 C224 1.358 . S
C227 C226 1.429 . S
C227 H237 0.930 . S
C228 C224 1.332 . S
C228 C229 1.394 . S
C228 H238 0.932 . S
C229 C225 1.308 . S
C229 C228 1.394 . S
C229 H239 0.929 . S
C230 Tb201 2.764 . S
C230 O214 1.239 . S
C230 O215 1.263 . S
C230 C224 1.504 . S
C231 O216 1.236 . S
C231 O217 1.257 . S
H232 C205 0.932 . S
H233 C206 0.930 . S
H234 C207 0.932 . S
H235 C208 0.929 . S
H236 C226 0.932 . S
H237 C227 0.930 . S
H238 C228 0.932 . S
H239 C229 0.929 . S
Tb240 C249 2.764 . S
Tb240 O250 2.325 . S
Tb240 O253 2.303 . S
Tb240 O257 2.322 . S
Tb240 O258 2.349 . S
Tb240 O261 2.415 . S
Tb240 O262 2.399 . S
Tb241 O251 2.322 . S
Tb241 O252 2.349 . S
Tb241 O254 2.415 . S
Tb241 O255 2.399 . S
Tb241 O256 2.325 . S
Tb241 O259 2.303 . S
Tb241 C270 2.764 . S
C242 O258 1.261 . S
C242 O259 1.257 . S
C243 C246 1.358 . S
C243 C247 1.332 . S
C243 C249 1.504 . S
C244 C245 1.373 . S
C244 C248 1.308 . S
C245 C244 1.373 . S
C245 C246 1.429 . S
C245 H272 0.932 . S
C246 C243 1.358 . S
C246 C245 1.429 . S
C246 H273 0.930 . S
C247 C243 1.332 . S
C247 C248 1.394 . S
C247 H274 0.932 . S
C248 C244 1.308 . S
C248 C247 1.394 . S
C248 H275 0.929 . S
C249 Tb240 2.764 . S
C249 C243 1.504 . S
C249 O261 1.239 . S
C249 O262 1.263 . S
O250 Tb240 2.325 . S
O250 C260 1.236 . S
O251 Tb241 2.322 . S
O251 C260 1.257 . S
O252 Tb241 2.349 . S
O252 C263 1.261 . S
O253 Tb240 2.303 . S
O253 C263 1.257 . S
O254 Tb241 2.415 . S
O254 C270 1.239 . S
O255 Tb241 2.399 . S
O255 C270 1.263 . S
O256 Tb241 2.325 . S
O256 C271 1.236 . S
O257 Tb240 2.322 . S
O257 C271 1.257 . S
O258 Tb240 2.349 . S
O258 C242 1.261 . S
O259 Tb241 2.303 . S
O259 C242 1.257 . S
C260 O250 1.236 . S
C260 O251 1.257 . S
O261 Tb240 2.415 . S
O261 C249 1.239 . S
O262 Tb240 2.399 . S
O262 C249 1.263 . S
C263 O252 1.261 . S
C263 O253 1.257 . S
C264 C267 1.358 . S
C264 C268 1.332 . S
C264 C270 1.504 . S
C265 C266 1.373 . S
C265 C269 1.308 . S
C266 C265 1.373 . S
C266 C267 1.429 . S
C266 H276 0.932 . S
C267 C264 1.358 . S
C267 C266 1.429 . S
C267 H277 0.930 . S
C268 C264 1.332 . S
C268 C269 1.394 . S
C268 H278 0.932 . S
C269 C265 1.308 . S
C269 C268 1.394 . S
C269 H279 0.929 . S
C270 Tb241 2.764 . S
C270 O254 1.239 . S
C270 O255 1.263 . S
C270 C264 1.504 . S
C271 O256 1.236 . S
C271 O257 1.257 . S
H272 C245 0.932 . S
H273 C246 0.930 . S
H274 C247 0.932 . S
H275 C248 0.929 . S
H276 C266 0.932 . S
H277 C267 0.930 . S
H278 C268 0.932 . S
H279 C269 0.929 . S
Tb280 C289 2.764 . S
Tb280 O290 2.325 . S
Tb280 O293 2.303 . S
Tb280 O297 2.322 . S
Tb280 O298 2.349 . S
Tb280 O301 2.415 . S
Tb280 O302 2.399 . S
Tb281 O291 2.322 . S
Tb281 O292 2.349 . S
Tb281 O294 2.415 . S
Tb281 O295 2.399 . S
Tb281 O296 2.325 . S
Tb281 O299 2.303 . S
Tb281 C310 2.764 . S
C282 O298 1.261 . S
C282 O299 1.257 . S
C283 C286 1.358 1_455 S
C283 C287 1.332 . S
C283 C289 1.504 . S
C284 C285 1.373 . S
C284 C288 1.308 1_655 S
C285 C284 1.373 . S
C285 C286 1.429 . S
C285 H312 0.932 . S
C286 C283 1.358 1_655 S
C286 C285 1.429 . S
C286 H313 0.930 . S
C287 C283 1.332 . S
C287 C288 1.394 . S
C287 H314 0.932 . S
C288 C284 1.308 1_455 S
C288 C287 1.394 . S
C288 H315 0.929 . S
C289 Tb280 2.764 . S
C289 C283 1.504 . S
C289 O301 1.239 . S
C289 O302 1.263 . S
O290 Tb280 2.325 . S
O290 C300 1.236 . S
O291 Tb281 2.322 . S
O291 C300 1.257 . S
O292 Tb281 2.349 . S
O292 C303 1.261 . S
O293 Tb280 2.303 . S
O293 C303 1.257 . S
O294 Tb281 2.415 . S
O294 C310 1.239 . S
O295 Tb281 2.399 . S
O295 C310 1.263 . S
O296 Tb281 2.325 . S
O296 C311 1.236 . S
O297 Tb280 2.322 . S
O297 C311 1.257 . S
O298 Tb280 2.349 . S
O298 C282 1.261 . S
O299 Tb281 2.303 . S
O299 C282 1.257 . S
C300 O290 1.236 . S
C300 O291 1.257 . S
O301 Tb280 2.415 . S
O301 C289 1.239 . S
O302 Tb280 2.399 . S
O302 C289 1.263 . S
C303 O292 1.261 . S
C303 O293 1.257 . S
C304 C307 1.358 . S
C304 C308 1.332 . S
C304 C310 1.504 . S
C305 C306 1.373 . S
C305 C309 1.308 . S
C306 C305 1.373 . S
C306 C307 1.429 . S
C306 H316 0.932 . S
C307 C304 1.358 . S
C307 C306 1.429 . S
C307 H317 0.930 . S
C308 C304 1.332 . S
C308 C309 1.394 . S
C308 H318 0.932 . S
C309 C305 1.308 . S
C309 C308 1.394 . S
C309 H319 0.929 . S
C310 Tb281 2.764 . S
C310 O294 1.239 . S
C310 O295 1.263 . S
C310 C304 1.504 . S
C311 O296 1.236 . S
C311 O297 1.257 . S
H312 C285 0.932 . S
H313 C286 0.930 . S
H314 C287 0.932 . S
H315 C288 0.929 . S
H316 C306 0.932 . S
H317 C307 0.930 . S
H318 C308 0.932 . S
H319 C309 0.929 . S
Tb320 C329 2.764 . S
Tb320 O330 2.325 . S
Tb320 O333 2.303 . S
Tb320 O337 2.322 . S
Tb320 O338 2.349 . S
Tb320 O341 2.415 . S
Tb320 O342 2.399 . S
Tb321 O331 2.322 . S
Tb321 O332 2.349 . S
Tb321 O334 2.415 . S
Tb321 O335 2.399 . S
Tb321 O336 2.325 . S
Tb321 O339 2.303 . S
Tb321 C350 2.764 . S
C322 O338 1.261 . S
C322 O339 1.257 . S
C323 C326 1.358 . S
C323 C327 1.332 . S
C323 C329 1.504 . S
C324 C325 1.373 . S
C324 C328 1.308 . S
C325 C324 1.373 . S
C325 C326 1.429 . S
C325 H352 0.932 . S
C326 C323 1.358 . S
C326 C325 1.429 . S
C326 H353 0.930 . S
C327 C323 1.332 . S
C327 C328 1.394 . S
C327 H354 0.932 . S
C328 C324 1.308 . S
C328 C327 1.394 . S
C328 H355 0.929 . S
C329 Tb320 2.764 . S
C329 C323 1.504 . S
C329 O341 1.239 . S
C329 O342 1.263 . S
O330 Tb320 2.325 . S
O330 C340 1.236 . S
O331 Tb321 2.322 . S
O331 C340 1.257 . S
O332 Tb321 2.349 . S
O332 C343 1.261 . S
O333 Tb320 2.303 . S
O333 C343 1.257 . S
O334 Tb321 2.415 . S
O334 C350 1.239 . S
O335 Tb321 2.399 . S
O335 C350 1.263 . S
O336 Tb321 2.325 . S
O336 C351 1.236 . S
O337 Tb320 2.322 . S
O337 C351 1.257 . S
O338 Tb320 2.349 . S
O338 C322 1.261 . S
O339 Tb321 2.303 . S
O339 C322 1.257 . S
C340 O330 1.236 . S
C340 O331 1.257 . S
O341 Tb320 2.415 . S
O341 C329 1.239 . S
O342 Tb320 2.399 . S
O342 C329 1.263 . S
C343 O332 1.261 . S
C343 O333 1.257 . S
C344 C347 1.358 . S
C344 C348 1.332 . S
C344 C350 1.504 . S
C345 C346 1.373 . S
C345 C349 1.308 . S
C346 C345 1.373 . S
C346 C347 1.429 . S
C346 H356 0.932 . S
C347 C344 1.358 . S
C347 C346 1.429 . S
C347 H357 0.930 . S
C348 C344 1.332 . S
C348 C349 1.394 . S
C348 H358 0.932 . S
C349 C345 1.308 . S
C349 C348 1.394 . S
C349 H359 0.929 . S
C350 Tb321 2.764 . S
C350 O334 1.239 . S
C350 O335 1.263 . S
C350 C344 1.504 . S
C351 O336 1.236 . S
C351 O337 1.257 . S
H352 C325 0.932 . S
H353 C326 0.930 . S
H354 C327 0.932 . S
H355 C328 0.929 . S
H356 C346 0.932 . S
H357 C347 0.930 . S
H358 C348 0.932 . S
H359 C349 0.929 . S
Tb360 C369 2.764 . S
Tb360 O370 2.325 1_545 S
Tb360 O373 2.303 . S
Tb360 O377 2.322 . S
Tb360 O378 2.349 . S
Tb360 O381 2.415 . S
Tb360 O382 2.399 . S
Tb361 O371 2.322 1_545 S
Tb361 O372 2.349 1_545 S
Tb361 O374 2.415 . S
Tb361 O375 2.399 . S
Tb361 O376 2.325 . S
Tb361 O379 2.303 . S
Tb361 C390 2.764 . S
C362 O378 1.261 . S
C362 O379 1.257 . S
C363 C366 1.358 . S
C363 C367 1.332 1_545 S
C363 C369 1.504 . S
C364 C365 1.373 1_565 S
C364 C368 1.308 . S
C365 C364 1.373 1_545 S
C365 C366 1.429 . S
C365 H392 0.932 . S
C366 C363 1.358 . S
C366 C365 1.429 . S
C366 H393 0.930 . S
C367 C363 1.332 1_565 S
C367 C368 1.394 . S
C367 H394 0.932 . S
C368 C364 1.308 . S
C368 C367 1.394 . S
C368 H395 0.929 . S
C369 Tb360 2.764 . S
C369 C363 1.504 . S
C369 O381 1.239 . S
C369 O382 1.263 . S
O370 Tb360 2.325 1_565 S
O370 C380 1.236 . S
O371 Tb361 2.322 1_565 S
O371 C380 1.257 . S
O372 Tb361 2.349 1_565 S
O372 C383 1.261 . S
O373 Tb360 2.303 . S
O373 C383 1.257 1_545 S
O374 Tb361 2.415 . S
O374 C390 1.239 . S
O375 Tb361 2.399 . S
O375 C390 1.263 . S
O376 Tb361 2.325 . S
O376 C391 1.236 . S
O377 Tb360 2.322 . S
O377 C391 1.257 . S
O378 Tb360 2.349 . S
O378 C362 1.261 . S
O379 Tb361 2.303 . S
O379 C362 1.257 . S
C380 O370 1.236 . S
C380 O371 1.257 . S
O381 Tb360 2.415 . S
O381 C369 1.239 . S
O382 Tb360 2.399 . S
O382 C369 1.263 . S
C383 O372 1.261 . S
C383 O373 1.257 1_565 S
C384 C387 1.358 1_455 S
C384 C388 1.332 . S
C384 C390 1.504 . S
C385 C386 1.373 . S
C385 C389 1.308 1_655 S
C386 C385 1.373 . S
C386 C387 1.429 . S
C386 H396 0.932 . S
C387 C384 1.358 1_655 S
C387 C386 1.429 . S
C387 H397 0.930 . S
C388 C384 1.332 . S
C388 C389 1.394 . S
C388 H398 0.932 . S
C389 C385 1.308 1_455 S
C389 C388 1.394 . S
C389 H399 0.929 . S
C390 Tb361 2.764 . S
C390 O374 1.239 . S
C390 O375 1.263 . S
C390 C384 1.504 . S
C391 O376 1.236 . S
C391 O377 1.257 . S
H392 C365 0.932 . S
H393 C366 0.930 . S
H394 C367 0.932 . S
H395 C368 0.929 . S
H396 C386 0.932 . S
H397 C387 0.930 . S
H398 C388 0.932 . S
H399 C389 0.929 . S
Tb400 C409 2.764 . S
Tb400 O410 2.325 . S
Tb400 O413 2.303 . S
Tb400 O417 2.322 . S
Tb400 O418 2.349 . S
Tb400 O421 2.415 . S
Tb400 O422 2.399 . S
Tb401 O411 2.322 . S
Tb401 O412 2.349 . S
Tb401 O414 2.415 . S
Tb401 O415 2.399 . S
Tb401 O416 2.325 . S
Tb401 O419 2.303 . S
Tb401 C430 2.764 . S
C402 O418 1.261 . S
C402 O419 1.257 . S
C403 C406 1.358 . S
C403 C407 1.332 . S
C403 C409 1.504 . S
C404 C405 1.373 . S
C404 C408 1.308 . S
C405 C404 1.373 . S
C405 C406 1.429 . S
C405 H432 0.932 . S
C406 C403 1.358 . S
C406 C405 1.429 . S
C406 H433 0.930 . S
C407 C403 1.332 . S
C407 C408 1.394 . S
C407 H434 0.932 . S
C408 C404 1.308 . S
C408 C407 1.394 . S
C408 H435 0.929 . S
C409 Tb400 2.764 . S
C409 C403 1.504 . S
C409 O421 1.239 . S
C409 O422 1.263 . S
O410 Tb400 2.325 . S
O410 C420 1.236 . S
O411 Tb401 2.322 . S
O411 C420 1.257 . S
O412 Tb401 2.349 . S
O412 C423 1.261 . S
O413 Tb400 2.303 . S
O413 C423 1.257 . S
O414 Tb401 2.415 . S
O414 C430 1.239 . S
O415 Tb401 2.399 . S
O415 C430 1.263 . S
O416 Tb401 2.325 . S
O416 C431 1.236 . S
O417 Tb400 2.322 . S
O417 C431 1.257 . S
O418 Tb400 2.349 . S
O418 C402 1.261 . S
O419 Tb401 2.303 . S
O419 C402 1.257 . S
C420 O410 1.236 . S
C420 O411 1.257 . S
O421 Tb400 2.415 . S
O421 C409 1.239 . S
O422 Tb400 2.399 . S
O422 C409 1.263 . S
C423 O412 1.261 . S
C423 O413 1.257 . S
C424 C427 1.358 . S
C424 C428 1.332 . S
C424 C430 1.504 . S
C425 C426 1.373 . S
C425 C429 1.308 . S
C426 C425 1.373 . S
C426 C427 1.429 . S
C426 H436 0.932 . S
C427 C424 1.358 . S
C427 C426 1.429 . S
C427 H437 0.930 . S
C428 C424 1.332 . S
C428 C429 1.394 . S
C428 H438 0.932 . S
C429 C425 1.308 . S
C429 C428 1.394 . S
C429 H439 0.929 . S
C430 Tb401 2.764 . S
C430 O414 1.239 . S
C430 O415 1.263 . S
C430 C424 1.504 . S
C431 O416 1.236 . S
C431 O417 1.257 . S
H432 C405 0.932 . S
H433 C406 0.930 . S
H434 C407 0.932 . S
H435 C408 0.929 . S
H436 C426 0.932 . S
H437 C427 0.930 . S
H438 C428 0.932 . S
H439 C429 0.929 . S
Tb440 C449 2.764 . S
Tb440 O450 2.325 1_565 S
Tb440 O453 2.303 . S
Tb440 O457 2.322 . S
Tb440 O458 2.349 . S
Tb440 O461 2.415 . S
Tb440 O462 2.399 . S
Tb441 O451 2.322 1_565 S
Tb441 O452 2.349 1_565 S
Tb441 O454 2.415 . S
Tb441 O455 2.399 . S
Tb441 O456 2.325 . S
Tb441 O459 2.303 . S
Tb441 C470 2.764 . S
C442 O458 1.261 . S
C442 O459 1.257 . S
C443 C446 1.358 . S
C443 C447 1.332 1_565 S
C443 C449 1.504 . S
C444 C445 1.373 1_545 S
C444 C448 1.308 . S
C445 C444 1.373 1_565 S
C445 C446 1.429 . S
C445 H472 0.932 . S
C446 C443 1.358 . S
C446 C445 1.429 . S
C446 H473 0.930 . S
C447 C443 1.332 1_545 S
C447 C448 1.394 . S
C447 H474 0.932 . S
C448 C444 1.308 . S
C448 C447 1.394 . S
C448 H475 0.929 . S
C449 Tb440 2.764 . S
C449 C443 1.504 . S
C449 O461 1.239 . S
C449 O462 1.263 . S
O450 Tb440 2.325 1_545 S
O450 C460 1.236 . S
O451 Tb441 2.322 1_545 S
O451 C460 1.257 . S
O452 Tb441 2.349 1_545 S
O452 C463 1.261 . S
O453 Tb440 2.303 . S
O453 C463 1.257 1_565 S
O454 Tb441 2.415 . S
O454 C470 1.239 . S
O455 Tb441 2.399 . S
O455 C470 1.263 . S
O456 Tb441 2.325 . S
O456 C471 1.236 . S
O457 Tb440 2.322 . S
O457 C471 1.257 . S
O458 Tb440 2.349 . S
O458 C442 1.261 . S
O459 Tb441 2.303 . S
O459 C442 1.257 . S
C460 O450 1.236 . S
C460 O451 1.257 . S
O461 Tb440 2.415 . S
O461 C449 1.239 . S
O462 Tb440 2.399 . S
O462 C449 1.263 . S
C463 O452 1.261 . S
C463 O453 1.257 1_545 S
C464 C467 1.358 . S
C464 C468 1.332 . S
C464 C470 1.504 . S
C465 C466 1.373 . S
C465 C469 1.308 . S
C466 C465 1.373 . S
C466 C467 1.429 . S
C466 H476 0.932 . S
C467 C464 1.358 . S
C467 C466 1.429 . S
C467 H477 0.930 . S
C468 C464 1.332 . S
C468 C469 1.394 . S
C468 H478 0.932 . S
C469 C465 1.308 . S
C469 C468 1.394 . S
C469 H479 0.929 . S
C470 Tb441 2.764 . S
C470 O454 1.239 . S
C470 O455 1.263 . S
C470 C464 1.504 . S
C471 O456 1.236 . S
C471 O457 1.257 . S
H472 C445 0.932 . S
H473 C446 0.930 . S
H474 C447 0.932 . S
H475 C448 0.929 . S
H476 C466 0.932 . S
H477 C467 0.930 . S
H478 C468 0.932 . S
H479 C469 0.929 . S
Tb480 C489 2.764 . S
Tb480 O490 2.325 . S
Tb480 O493 2.303 . S
Tb480 O497 2.322 . S
Tb480 O498 2.349 . S
Tb480 O501 2.415 . S
Tb480 O502 2.399 . S
Tb481 O491 2.322 . S
Tb481 O492 2.349 . S
Tb481 O494 2.415 . S
Tb481 O495 2.399 . S
Tb481 O496 2.325 . S
Tb481 O499 2.303 . S
Tb481 C510 2.764 . S
C482 O498 1.261 . S
C482 O499 1.257 . S
C483 C486 1.358 . S
C483 C487 1.332 . S
C483 C489 1.504 . S
C484 C485 1.373 . S
C484 C488 1.308 . S
C485 C484 1.373 . S
C485 C486 1.429 . S
C485 H512 0.932 . S
C486 C483 1.358 . S
C486 C485 1.429 . S
C486 H513 0.930 . S
C487 C483 1.332 . S
C487 C488 1.394 . S
C487 H514 0.932 . S
C488 C484 1.308 . S
C488 C487 1.394 . S
C488 H515 0.929 . S
C489 Tb480 2.764 . S
C489 C483 1.504 . S
C489 O501 1.239 . S
C489 O502 1.263 . S
O490 Tb480 2.325 . S
O490 C500 1.236 . S
O491 Tb481 2.322 . S
O491 C500 1.257 . S
O492 Tb481 2.349 . S
O492 C503 1.261 . S
O493 Tb480 2.303 . S
O493 C503 1.257 . S
O494 Tb481 2.415 . S
O494 C510 1.239 . S
O495 Tb481 2.399 . S
O495 C510 1.263 . S
O496 Tb481 2.325 . S
O496 C511 1.236 . S
O497 Tb480 2.322 . S
O497 C511 1.257 . S
O498 Tb480 2.349 . S
O498 C482 1.261 . S
O499 Tb481 2.303 . S
O499 C482 1.257 . S
C500 O490 1.236 . S
C500 O491 1.257 . S
O501 Tb480 2.415 . S
O501 C489 1.239 . S
O502 Tb480 2.399 . S
O502 C489 1.263 . S
C503 O492 1.261 . S
C503 O493 1.257 . S
C504 C507 1.358 . S
C504 C508 1.332 . S
C504 C510 1.504 . S
C505 C506 1.373 . S
C505 C509 1.308 . S
C506 C505 1.373 . S
C506 C507 1.429 . S
C506 H516 0.932 . S
C507 C504 1.358 . S
C507 C506 1.429 . S
C507 H517 0.930 . S
C508 C504 1.332 . S
C508 C509 1.394 . S
C508 H518 0.932 . S
C509 C505 1.308 . S
C509 C508 1.394 . S
C509 H519 0.929 . S
C510 Tb481 2.764 . S
C510 O494 1.239 . S
C510 O495 1.263 . S
C510 C504 1.504 . S
C511 O496 1.236 . S
C511 O497 1.257 . S
H512 C485 0.932 . S
H513 C486 0.930 . S
H514 C487 0.932 . S
H515 C488 0.929 . S
H516 C506 0.932 . S
H517 C507 0.930 . S
H518 C508 0.932 . S
H519 C509 0.929 . S
Tb520 C529 2.764 . S
Tb520 O530 2.325 . S
Tb520 O533 2.303 . S
Tb520 O537 2.322 1_565 S
Tb520 O538 2.349 1_565 S
Tb520 O541 2.415 . S
Tb520 O542 2.399 . S
Tb521 O531 2.322 . S
Tb521 O532 2.349 . S
Tb521 O534 2.415 . S
Tb521 O535 2.399 . S
Tb521 O536 2.325 1_565 S
Tb521 O539 2.303 . S
Tb521 C550 2.764 . S
C522 O538 1.261 . S
C522 O539 1.257 1_545 S
C523 C526 1.358 1_655 S
C523 C527 1.332 . S
C523 C529 1.504 . S
C524 C525 1.373 . S
C524 C528 1.308 1_455 S
C525 C524 1.373 . S
C525 C526 1.429 . S
C525 H552 0.932 . S
C526 C523 1.358 1_455 S
C526 C525 1.429 . S
C526 H553 0.930 . S
C527 C523 1.332 . S
C527 C528 1.394 . S
C527 H554 0.932 . S
C528 C524 1.308 1_655 S
C528 C527 1.394 . S
C528 H555 0.929 . S
C529 Tb520 2.764 . S
C529 C523 1.504 . S
C529 O541 1.239 . S
C529 O542 1.263 . S
O530 Tb520 2.325 . S
O530 C540 1.236 . S
O531 Tb521 2.322 . S
O531 C540 1.257 . S
O532 Tb521 2.349 . S
O532 C543 1.261 . S
O533 Tb520 2.303 . S
O533 C543 1.257 . S
O534 Tb521 2.415 . S
O534 C550 1.239 . S
O535 Tb521 2.399 . S
O535 C550 1.263 . S
O536 Tb521 2.325 1_545 S
O536 C551 1.236 . S
O537 Tb520 2.322 1_545 S
O537 C551 1.257 . S
O538 Tb520 2.349 1_545 S
O538 C522 1.261 . S
O539 Tb521 2.303 . S
O539 C522 1.257 1_565 S
C540 O530 1.236 . S
C540 O531 1.257 . S
O541 Tb520 2.415 . S
O541 C529 1.239 . S
O542 Tb520 2.399 . S
O542 C529 1.263 . S
C543 O532 1.261 . S
C543 O533 1.257 . S
C544 C547 1.358 . S
C544 C548 1.332 1_565 S
C544 C550 1.504 . S
C545 C546 1.373 1_545 S
C545 C549 1.308 . S
C546 C545 1.373 1_565 S
C546 C547 1.429 . S
C546 H556 0.932 . S
C547 C544 1.358 . S
C547 C546 1.429 . S
C547 H557 0.930 . S
C548 C544 1.332 1_545 S
C548 C549 1.394 . S
C548 H558 0.932 . S
C549 C545 1.308 . S
C549 C548 1.394 . S
C549 H559 0.929 . S
C550 Tb521 2.764 . S
C550 O534 1.239 . S
C550 O535 1.263 . S
C550 C544 1.504 . S
C551 O536 1.236 . S
C551 O537 1.257 . S
H552 C525 0.932 . S
H553 C526 0.930 . S
H554 C527 0.932 . S
H555 C528 0.929 . S
H556 C546 0.932 . S
H557 C547 0.930 . S
H558 C548 0.932 . S
H559 C549 0.929 . S
Tb560 C569 2.764 . S
Tb560 O570 2.325 . S
Tb560 O573 2.303 . S
Tb560 O577 2.322 . S
Tb560 O578 2.349 . S
Tb560 O581 2.415 . S
Tb560 O582 2.399 . S
Tb561 O571 2.322 . S
Tb561 O572 2.349 . S
Tb561 O574 2.415 . S
Tb561 O575 2.399 . S
Tb561 O576 2.325 . S
Tb561 O579 2.303 . S
Tb561 C590 2.764 . S
C562 O578 1.261 . S
C562 O579 1.257 . S
C563 C566 1.358 . S
C563 C567 1.332 . S
C563 C569 1.504 . S
C564 C565 1.373 . S
C564 C568 1.308 . S
C565 C564 1.373 . S
C565 C566 1.429 . S
C565 H592 0.932 . S
C566 C563 1.358 . S
C566 C565 1.429 . S
C566 H593 0.930 . S
C567 C563 1.332 . S
C567 C568 1.394 . S
C567 H594 0.932 . S
C568 C564 1.308 . S
C568 C567 1.394 . S
C568 H595 0.929 . S
C569 Tb560 2.764 . S
C569 C563 1.504 . S
C569 O581 1.239 . S
C569 O582 1.263 . S
O570 Tb560 2.325 . S
O570 C580 1.236 . S
O571 Tb561 2.322 . S
O571 C580 1.257 . S
O572 Tb561 2.349 . S
O572 C583 1.261 . S
O573 Tb560 2.303 . S
O573 C583 1.257 . S
O574 Tb561 2.415 . S
O574 C590 1.239 . S
O575 Tb561 2.399 . S
O575 C590 1.263 . S
O576 Tb561 2.325 . S
O576 C591 1.236 . S
O577 Tb560 2.322 . S
O577 C591 1.257 . S
O578 Tb560 2.349 . S
O578 C562 1.261 . S
O579 Tb561 2.303 . S
O579 C562 1.257 . S
C580 O570 1.236 . S
C580 O571 1.257 . S
O581 Tb560 2.415 . S
O581 C569 1.239 . S
O582 Tb560 2.399 . S
O582 C569 1.263 . S
C583 O572 1.261 . S
C583 O573 1.257 . S
C584 C587 1.358 . S
C584 C588 1.332 . S
C584 C590 1.504 . S
C585 C586 1.373 . S
C585 C589 1.308 . S
C586 C585 1.373 . S
C586 C587 1.429 . S
C586 H596 0.932 . S
C587 C584 1.358 . S
C587 C586 1.429 . S
C587 H597 0.930 . S
C588 C584 1.332 . S
C588 C589 1.394 . S
C588 H598 0.932 . S
C589 C585 1.308 . S
C589 C588 1.394 . S
C589 H599 0.929 . S
C590 Tb561 2.764 . S
C590 O574 1.239 . S
C590 O575 1.263 . S
C590 C584 1.504 . S
C591 O576 1.236 . S
C591 O577 1.257 . S
H592 C565 0.932 . S
H593 C566 0.930 . S
H594 C567 0.932 . S
H595 C568 0.929 . S
H596 C586 0.932 . S
H597 C587 0.930 . S
H598 C588 0.932 . S
H599 C589 0.929 . S
Tb600 C609 2.764 . S
Tb600 O610 2.325 . S
Tb600 O613 2.303 . S
Tb600 O617 2.322 1_545 S
Tb600 O618 2.349 1_545 S
Tb600 O621 2.415 . S
Tb600 O622 2.399 . S
Tb601 O611 2.322 . S
Tb601 O612 2.349 . S
Tb601 O614 2.415 . S
Tb601 O615 2.399 . S
Tb601 O616 2.325 1_545 S
Tb601 O619 2.303 . S
Tb601 C630 2.764 . S
C602 O618 1.261 . S
C602 O619 1.257 1_565 S
C603 C606 1.358 . S
C603 C607 1.332 . S
C603 C609 1.504 . S
C604 C605 1.373 . S
C604 C608 1.308 . S
C605 C604 1.373 . S
C605 C606 1.429 . S
C605 H632 0.932 . S
C606 C603 1.358 . S
C606 C605 1.429 . S
C606 H633 0.930 . S
C607 C603 1.332 . S
C607 C608 1.394 . S
C607 H634 0.932 . S
C608 C604 1.308 . S
C608 C607 1.394 . S
C608 H635 0.929 . S
C609 Tb600 2.764 . S
C609 C603 1.504 . S
C609 O621 1.239 . S
C609 O622 1.263 . S
O610 Tb600 2.325 . S
O610 C620 1.236 . S
O611 Tb601 2.322 . S
O611 C620 1.257 . S
O612 Tb601 2.349 . S
O612 C623 1.261 . S
O613 Tb600 2.303 . S
O613 C623 1.257 . S
O614 Tb601 2.415 . S
O614 C630 1.239 . S
O615 Tb601 2.399 . S
O615 C630 1.263 . S
O616 Tb601 2.325 1_565 S
O616 C631 1.236 . S
O617 Tb600 2.322 1_565 S
O617 C631 1.257 . S
O618 Tb600 2.349 1_565 S
O618 C602 1.261 . S
O619 Tb601 2.303 . S
O619 C602 1.257 1_545 S
C620 O610 1.236 . S
C620 O611 1.257 . S
O621 Tb600 2.415 . S
O621 C609 1.239 . S
O622 Tb600 2.399 . S
O622 C609 1.263 . S
C623 O612 1.261 . S
C623 O613 1.257 . S
C624 C627 1.358 . S
C624 C628 1.332 1_545 S
C624 C630 1.504 . S
C625 C626 1.373 1_565 S
C625 C629 1.308 . S
C626 C625 1.373 1_545 S
C626 C627 1.429 . S
C626 H636 0.932 . S
C627 C624 1.358 . S
C627 C626 1.429 . S
C627 H637 0.930 . S
C628 C624 1.332 1_565 S
C628 C629 1.394 . S
C628 H638 0.932 . S
C629 C625 1.308 . S
C629 C628 1.394 . S
C629 H639 0.929 . S
C630 Tb601 2.764 . S
C630 O614 1.239 . S
C630 O615 1.263 . S
C630 C624 1.504 . S
C631 O616 1.236 . S
C631 O617 1.257 . S
H632 C605 0.932 . S
H633 C606 0.930 . S
H634 C607 0.932 . S
H635 C608 0.929 . S
H636 C626 0.932 . S
H637 C627 0.930 . S
H638 C628 0.932 . S
H639 C629 0.929 . S
H640 C646 0.930 . S
H641 C650 0.930 . S
H642 C655 0.929 . S
H643 C653 0.929 . S
H644 C648 0.929 . S
H645 C654 0.929 . S
C646 H640 0.930 . S
C646 C647 1.367 . S
C646 C654 1.378 . S
C647 C646 1.367 . S
C647 C655 1.433 . S
C648 H644 0.929 . S
C648 C650 1.378 . S
C648 C652 1.350 . S
C649 C652 1.463 . S
C649 C654 1.350 . S
C649 N657 1.427 . S
C650 H641 0.930 . S
C650 C648 1.378 . S
C650 C651 1.367 . S
C651 C650 1.367 . S
C651 C653 1.433 . S
C652 C648 1.350 . S
C652 C649 1.463 . S
C652 N656 1.427 . S
C653 H643 0.929 . S
C653 C651 1.433 . S
C653 N656 1.384 . S
C654 H645 0.929 . S
C654 C646 1.378 . S
C654 C649 1.350 . S
C655 H642 0.929 . S
C655 C647 1.433 . S
C655 N657 1.384 . S
N656 C652 1.427 . S
N656 C653 1.384 . S
N657 C649 1.427 . S
N657 C655 1.384 . S
H658 C664 0.930 . S
H659 C668 0.930 . S
H660 C673 0.929 . S
H661 C671 0.929 . S
H662 C666 0.929 . S
H663 C672 0.929 . S
C664 H658 0.930 . S
C664 C665 1.367 . S
C664 C672 1.378 . S
C665 C664 1.367 . S
C665 C673 1.433 . S
C666 H662 0.929 . S
C666 C668 1.378 . S
C666 C670 1.350 . S
C667 C670 1.463 . S
C667 C672 1.350 . S
C667 N675 1.427 . S
C668 H659 0.930 . S
C668 C666 1.378 . S
C668 C669 1.367 . S
C669 C668 1.367 . S
C669 C671 1.433 . S
C670 C666 1.350 . S
C670 C667 1.463 . S
C670 N674 1.427 . S
C671 H661 0.929 . S
C671 C669 1.433 . S
C671 N674 1.384 . S
C672 H663 0.929 . S
C672 C664 1.378 . S
C672 C667 1.350 . S
C673 H660 0.929 . S
C673 C665 1.433 . S
C673 N675 1.384 . S
N674 C670 1.427 . S
N674 C671 1.384 . S
N675 C667 1.427 . S
N675 C673 1.384 . S
H676 C682 0.930 . S
H677 C686 0.930 . S
H678 C691 0.929 . S
H679 C689 0.929 . S
H680 C684 0.929 . S
H681 C690 0.929 . S
C682 H676 0.930 . S
C682 C683 1.367 . S
C682 C690 1.378 . S
C683 C682 1.367 . S
C683 C691 1.433 . S
C684 H680 0.929 . S
C684 C686 1.378 . S
C684 C688 1.350 . S
C685 C688 1.463 . S
C685 C690 1.350 . S
C685 N693 1.427 . S
C686 H677 0.930 . S
C686 C684 1.378 . S
C686 C687 1.367 . S
C687 C686 1.367 . S
C687 C689 1.433 . S
C688 C684 1.350 . S
C688 C685 1.463 . S
C688 N692 1.427 . S
C689 H679 0.929 . S
C689 C687 1.433 . S
C689 N692 1.384 . S
C690 H681 0.929 . S
C690 C682 1.378 . S
C690 C685 1.350 . S
C691 H678 0.929 . S
C691 C683 1.433 . S
C691 N693 1.384 . S
N692 C688 1.427 . S
N692 C689 1.384 . S
N693 C685 1.427 . S
N693 C691 1.384 . S
H694 C700 0.930 . S
H695 C704 0.930 . S
H696 C709 0.908 1_554 S
H697 C707 0.908 1_556 S
H698 C702 0.929 . S
H699 C708 0.929 . S
C700 H694 0.930 . S
C700 C701 1.367 . S
C700 C708 1.378 1_455 S
C701 C700 1.367 . S
C701 C709 1.471 . S
C702 H698 0.929 . S
C702 C704 1.378 1_455 S
C702 C706 1.350 1_455 S
C703 C706 1.463 1_456 S
C703 C708 1.350 1_455 S
C703 N711 1.427 1_556 S
C704 H695 0.930 . S
C704 C702 1.378 1_655 S
C704 C705 1.367 . S
C705 C704 1.367 . S
C705 C707 1.472 . S
C706 C702 1.350 1_655 S
C706 C703 1.463 1_654 S
C706 N710 1.427 1_554 S
C707 H697 0.908 1_554 S
C707 C705 1.472 . S
C707 N710 1.368 1_554 S
C708 H699 0.929 . S
C708 C700 1.378 1_655 S
C708 C703 1.350 1_655 S
C709 H696 0.908 1_556 S
C709 C701 1.471 . S
C709 N711 1.368 1_556 S
N710 C706 1.427 1_556 S
N710 C707 1.368 1_556 S
N711 C703 1.427 1_554 S
N711 C709 1.368 1_554 S
H712 C718 0.930 . S
H713 C722 0.930 . S
H714 C727 0.929 . S
H715 C725 0.929 . S
H716 C720 0.929 . S
H717 C726 0.929 . S
C718 H712 0.930 . S
C718 C719 1.367 . S
C718 C726 1.378 . S
C719 C718 1.367 . S
C719 C727 1.433 . S
C720 H716 0.929 . S
C720 C722 1.378 . S
C720 C724 1.350 . S
C721 C724 1.463 . S
C721 C726 1.350 . S
C721 N729 1.427 . S
C722 H713 0.930 . S
C722 C720 1.378 . S
C722 C723 1.367 . S
C723 C722 1.367 . S
C723 C725 1.433 . S
C724 C720 1.350 . S
C724 C721 1.463 . S
C724 N728 1.427 . S
C725 H715 0.929 . S
C725 C723 1.433 . S
C725 N728 1.384 . S
C726 H717 0.929 . S
C726 C718 1.378 . S
C726 C721 1.350 . S
C727 H714 0.929 . S
C727 C719 1.433 . S
C727 N729 1.384 . S
N728 C724 1.427 . S
N728 C725 1.384 . S
N729 C721 1.427 . S
N729 C727 1.384 . S
H730 C736 0.930 . S
H731 C740 0.930 . S
H732 C745 0.929 . S
H733 C743 0.929 . S
H734 C738 0.929 . S
H735 C744 0.929 . S
C736 H730 0.930 . S
C736 C737 1.367 . S
C736 C744 1.378 . S
C737 C736 1.367 . S
C737 C745 1.433 . S
C738 H734 0.929 . S
C738 C740 1.378 . S
C738 C742 1.350 . S
C739 C742 1.463 . S
C739 C744 1.350 . S
C739 N747 1.427 . S
C740 H731 0.930 . S
C740 C738 1.378 . S
C740 C741 1.367 . S
C741 C740 1.367 . S
C741 C743 1.433 . S
C742 C738 1.350 . S
C742 C739 1.463 . S
C742 N746 1.427 . S
C743 H733 0.929 . S
C743 C741 1.433 . S
C743 N746 1.384 . S
C744 H735 0.929 . S
C744 C736 1.378 . S
C744 C739 1.350 . S
C745 H732 0.929 . S
C745 C737 1.433 . S
C745 N747 1.384 . S
N746 C742 1.427 . S
N746 C743 1.384 . S
N747 C739 1.427 . S
N747 C745 1.384 . S
H748 C754 0.933 1_556 S
H749 C758 0.933 1_554 S
H750 C763 0.929 . S
H751 C761 0.929 . S
H752 C756 0.929 . S
H753 C762 0.929 . S
C754 H748 0.933 1_554 S
C754 C755 1.367 1_655 S
C754 C762 1.378 1_554 S
C755 C754 1.367 1_455 S
C755 C763 1.433 . S
C756 H752 0.929 . S
C756 C758 1.378 1_554 S
C756 C760 1.350 1_454 S
C757 C760 1.463 1_464 S
C757 C762 1.350 1_454 S
C757 N765 1.427 . S
C758 H749 0.933 1_556 S
C758 C756 1.378 1_556 S
C758 C759 1.367 1_455 S
C759 C758 1.367 1_655 S
C759 C761 1.433 . S
C760 C756 1.350 1_656 S
C760 C757 1.463 1_646 S
C760 N764 1.427 . S
C761 H751 0.929 . S
C761 C759 1.433 . S
C761 N764 1.384 . S
C762 H753 0.929 . S
C762 C754 1.378 1_556 S
C762 C757 1.350 1_656 S
C763 H750 0.929 . S
C763 C755 1.433 . S
C763 N765 1.384 . S
N764 C760 1.427 . S
N764 C761 1.384 . S
N765 C757 1.427 . S
N765 C763 1.384 . S
H766 C772 0.930 . S
H767 C776 0.930 . S
H768 C781 0.929 . S
H769 C779 0.929 . S
H770 C774 0.929 . S
H771 C780 0.929 . S
C772 H766 0.930 . S
C772 C773 1.367 . S
C772 C780 1.378 . S
C773 C772 1.367 . S
C773 C781 1.433 . S
C774 H770 0.929 . S
C774 C776 1.378 . S
C774 C778 1.350 . S
C775 C778 1.463 1_565 S
C775 C780 1.350 . S
C775 N783 1.427 . S
C776 H767 0.930 . S
C776 C774 1.378 . S
C776 C777 1.367 . S
C777 C776 1.367 . S
C777 C779 1.433 . S
C778 C774 1.350 . S
C778 C775 1.463 1_545 S
C778 N782 1.427 . S
C779 H769 0.929 . S
C779 C777 1.433 . S
C779 N782 1.384 . S
C780 H771 0.929 . S
C780 C772 1.378 . S
C780 C775 1.350 . S
C781 H768 0.929 . S
C781 C773 1.433 . S
C781 N783 1.384 . S
N782 C778 1.427 . S
N782 C779 1.384 . S
N783 C775 1.427 . S
N783 C781 1.384 . S
H784 C790 0.930 . S
H785 C794 0.927 1_565 S
H786 C799 0.929 . S
H787 C797 0.929 1_554 S
H788 C792 0.929 . S
H789 C798 0.929 . S
C790 H784 0.930 . S
C790 C791 1.367 . S
C790 C798 1.378 . S
C791 C790 1.367 . S
C791 C799 1.433 . S
C792 H788 0.929 . S
C792 C794 1.378 . S
C792 C796 1.350 . S
C793 C796 1.463 . S
C793 C798 1.350 . S
C793 N801 1.427 . S
C794 H785 0.927 1_545 S
C794 C792 1.378 . S
C794 C795 1.367 1_556 S
C795 C794 1.367 1_554 S
C795 C797 1.433 1_554 S
C796 C792 1.350 . S
C796 C793 1.463 . S
C796 N800 1.427 . S
C797 H787 0.929 1_556 S
C797 C795 1.433 1_556 S
C797 N800 1.384 . S
C798 H789 0.929 . S
C798 C790 1.378 . S
C798 C793 1.350 . S
C799 H786 0.929 . S
C799 C791 1.433 . S
C799 N801 1.384 . S
N800 C796 1.427 . S
N800 C797 1.384 . S
N801 C793 1.427 . S
N801 C799 1.384 . S
H802 C808 0.930 . S
H803 C812 0.930 . S
H804 C817 0.929 . S
H805 C815 0.929 . S
H806 C810 0.929 . S
H807 C816 0.929 . S
C808 H802 0.930 . S
C808 C809 1.367 . S
C808 C816 1.378 . S
C809 C808 1.367 . S
C809 C817 1.433 . S
C810 H806 0.929 . S
C810 C812 1.378 . S
C810 C814 1.350 . S
C811 C814 1.463 . S
C811 C816 1.350 . S
C811 N819 1.427 . S
C812 H803 0.930 . S
C812 C810 1.378 . S
C812 C813 1.367 . S
C813 C812 1.367 . S
C813 C815 1.433 . S
C814 C810 1.350 . S
C814 C811 1.463 . S
C814 N818 1.427 . S
C815 H805 0.929 . S
C815 C813 1.433 . S
C815 N818 1.384 . S
C816 H807 0.929 . S
C816 C808 1.378 . S
C816 C811 1.350 . S
C817 H804 0.929 . S
C817 C809 1.433 . S
C817 N819 1.384 . S
N818 C814 1.427 . S
N818 C815 1.384 . S
N819 C811 1.427 . S
N819 C817 1.384 . S
H820 C826 0.930 . S
H821 C830 0.930 . S
H822 C835 0.929 . S
H823 C833 0.929 . S
H824 C828 0.929 . S
H825 C834 0.929 . S
C826 H820 0.930 . S
C826 C827 1.367 . S
C826 C834 1.378 . S
C827 C826 1.367 . S
C827 C835 1.433 . S
C828 H824 0.929 . S
C828 C830 1.378 . S
C828 C832 1.350 . S
C829 C832 1.463 . S
C829 C834 1.350 . S
C829 N837 1.427 . S
C830 H821 0.930 . S
C830 C828 1.378 . S
C830 C831 1.367 . S
C831 C830 1.367 . S
C831 C833 1.433 . S
C832 C828 1.350 . S
C832 C829 1.463 . S
C832 N836 1.427 . S
C833 H823 0.929 . S
C833 C831 1.433 . S
C833 N836 1.384 . S
C834 H825 0.929 . S
C834 C826 1.378 . S
C834 C829 1.350 . S
C835 H822 0.929 . S
C835 C827 1.433 . S
C835 N837 1.384 . S
N836 C832 1.427 . S
N836 C833 1.384 . S
N837 C829 1.427 . S
N837 C835 1.384 . S
H838 C844 0.930 . S
H839 C848 0.930 . S
H840 C853 0.929 . S
H841 C851 0.929 . S
H842 C846 0.929 . S
H843 C852 0.929 . S
C844 H838 0.930 . S
C844 C845 1.367 . S
C844 C852 1.378 . S
C845 C844 1.367 . S
C845 C853 1.433 . S
C846 H842 0.929 . S
C846 C848 1.378 . S
C846 C850 1.350 . S
C847 C850 1.463 . S
C847 C852 1.350 . S
C847 N855 1.427 . S
C848 H839 0.930 . S
C848 C846 1.378 . S
C848 C849 1.367 . S
C849 C848 1.367 . S
C849 C851 1.433 . S
C850 C846 1.350 . S
C850 C847 1.463 . S
C850 N854 1.427 . S
C851 H841 0.929 . S
C851 C849 1.433 . S
C851 N854 1.384 . S
C852 H843 0.929 . S
C852 C844 1.378 . S
C852 C847 1.350 . S
C853 H840 0.929 . S
C853 C845 1.433 . S
C853 N855 1.384 . S
N854 C850 1.427 . S
N854 C851 1.384 . S
N855 C847 1.427 . S
N855 C853 1.384 . S
H856 C862 0.930 . S
H857 C866 0.901 1_546 S
H858 C871 0.929 . S
H859 C869 0.929 1_556 S
H860 C864 0.929 1_545 S
H861 C870 0.929 . S
C862 H856 0.930 . S
C862 C863 1.367 . S
C862 C870 1.378 . S
C863 C862 1.367 . S
C863 C871 1.433 . S
C864 H860 0.929 1_565 S
C864 C866 1.378 . S
C864 C868 1.350 . S
C865 C868 1.463 . S
C865 C870 1.350 . S
C865 N873 1.427 . S
C866 H857 0.901 1_564 S
C866 C864 1.378 . S
C866 C867 1.367 1_554 S
C867 C866 1.367 1_556 S
C867 C869 1.433 1_556 S
C868 C864 1.350 . S
C868 C865 1.463 . S
C868 N872 1.427 . S
C869 H859 0.929 1_554 S
C869 C867 1.433 1_554 S
C869 N872 1.384 . S
C870 H861 0.929 . S
C870 C862 1.378 . S
C870 C865 1.350 . S
C871 H858 0.929 . S
C871 C863 1.433 . S
C871 N873 1.384 . S
N872 C868 1.427 . S
N872 C869 1.384 . S
N873 C865 1.427 . S
N873 C871 1.384 . S
H874 C880 0.930 . S
H875 C884 0.930 . S
H876 C889 0.929 . S
H877 C887 0.929 . S
H878 C882 0.929 . S
H879 C888 0.929 . S
C880 H874 0.930 . S
C880 C881 1.367 . S
C880 C888 1.378 . S
C881 C880 1.367 . S
C881 C889 1.433 . S
C882 H878 0.929 . S
C882 C884 1.378 . S
C882 C886 1.350 . S
C883 C886 1.463 . S
C883 C888 1.350 . S
C883 N891 1.427 . S
C884 H875 0.930 . S
C884 C882 1.378 . S
C884 C885 1.367 . S
C885 C884 1.367 . S
C885 C887 1.433 . S
C886 C882 1.350 . S
C886 C883 1.463 . S
C886 N890 1.427 . S
C887 H877 0.929 . S
C887 C885 1.433 . S
C887 N890 1.384 . S
C888 H879 0.929 . S
C888 C880 1.378 . S
C888 C883 1.350 . S
C889 H876 0.929 . S
C889 C881 1.433 . S
C889 N891 1.384 . S
N890 C886 1.427 . S
N890 C887 1.384 . S
N891 C883 1.427 . S
N891 C889 1.384 . S
H892 C898 0.930 1_565 S
H893 C902 0.930 . S
H894 C907 0.929 . S
H895 C905 0.929 . S
H896 C900 0.929 . S
H897 C906 0.927 1_565 S
C898 H892 0.930 1_545 S
C898 C899 1.367 . S
C898 C906 1.378 . S
C899 C898 1.367 . S
C899 C907 1.433 . S
C900 H896 0.929 . S
C900 C902 1.378 . S
C900 C904 1.350 . S
C901 C904 1.463 . S
C901 C906 1.350 . S
C901 N909 1.427 . S
C902 H893 0.930 . S
C902 C900 1.378 . S
C902 C903 1.367 . S
C903 C902 1.367 . S
C903 C905 1.433 . S
C904 C900 1.350 . S
C904 C901 1.463 . S
C904 N908 1.427 . S
C905 H895 0.929 . S
C905 C903 1.433 . S
C905 N908 1.384 . S
C906 H897 0.927 1_545 S
C906 C898 1.378 . S
C906 C901 1.350 . S
C907 H894 0.929 . S
C907 C899 1.433 . S
C907 N909 1.384 . S
N908 C904 1.427 . S
N908 C905 1.384 . S
N909 C901 1.427 . S
N909 C907 1.384 . S
H910 C916 0.930 . S
H911 C920 0.930 . S
H912 C925 0.929 . S
H913 C923 0.929 . S
H914 C918 0.929 . S
H915 C924 0.929 . S
C916 H910 0.930 . S
C916 C917 1.367 . S
C916 C924 1.378 . S
C917 C916 1.367 . S
C917 C925 1.433 . S
C918 H914 0.929 . S
C918 C920 1.378 . S
C918 C922 1.350 . S
C919 C922 1.463 . S
C919 C924 1.350 . S
C919 N927 1.427 . S
C920 H911 0.930 . S
C920 C918 1.378 . S
C920 C921 1.367 . S
C921 C920 1.367 . S
C921 C923 1.433 . S
C922 C918 1.350 . S
C922 C919 1.463 . S
C922 N926 1.427 . S
C923 H913 0.929 . S
C923 C921 1.433 . S
C923 N926 1.384 . S
C924 H915 0.929 . S
C924 C916 1.378 . S
C924 C919 1.350 . S
C925 H912 0.929 . S
C925 C917 1.433 . S
C925 N927 1.384 . S
N926 C922 1.427 . S
N926 C923 1.384 . S
N927 C919 1.427 . S
N927 C925 1.384 . S
H928 C934 0.930 . S
H929 C938 0.930 . S
H930 C943 0.929 . S
H931 C941 0.929 . S
H932 C936 0.929 . S
H933 C942 0.929 . S
C934 H928 0.930 . S
C934 C935 1.367 . S
C934 C942 1.378 . S
C935 C934 1.367 . S
C935 C943 1.433 . S
C936 H932 0.929 . S
C936 C938 1.378 . S
C936 C940 1.350 . S
C937 C940 1.463 . S
C937 C942 1.350 . S
C937 N945 1.427 . S
C938 H929 0.930 . S
C938 C936 1.378 . S
C938 C939 1.367 . S
C939 C938 1.367 . S
C939 C941 1.433 . S
C940 C936 1.350 . S
C940 C937 1.463 . S
C940 N944 1.427 . S
C941 H931 0.929 . S
C941 C939 1.433 . S
C941 N944 1.384 . S
C942 H933 0.929 . S
C942 C934 1.378 . S
C942 C937 1.350 . S
C943 H930 0.929 . S
C943 C935 1.433 . S
C943 N945 1.384 . S
N944 C940 1.427 . S
N944 C941 1.384 . S
N945 C937 1.427 . S
N945 C943 1.384 . S
H946 C952 0.930 . S
H947 C956 0.930 . S
H948 C961 0.929 . S
H949 C959 0.929 . S
H950 C954 0.929 . S
H951 C960 0.929 1_545 S
C952 H946 0.930 . S
C952 C953 1.367 1_545 S
C952 C960 1.378 1_545 S
C953 C952 1.367 1_565 S
C953 C961 1.433 . S
C954 H950 0.929 . S
C954 C956 1.378 . S
C954 C958 1.350 . S
C955 C958 1.463 . S
C955 C960 1.350 . S
C955 N963 1.427 . S
C956 H947 0.930 . S
C956 C954 1.378 . S
C956 C957 1.367 . S
C957 C956 1.367 . S
C957 C959 1.433 . S
C958 C954 1.350 . S
C958 C955 1.463 . S
C958 N962 1.427 . S
C959 H949 0.929 . S
C959 C957 1.433 . S
C959 N962 1.384 . S
C960 H951 0.929 1_565 S
C960 C952 1.378 1_565 S
C960 C955 1.350 . S
C961 H948 0.929 . S
C961 C953 1.433 . S
C961 N963 1.384 . S
N962 C958 1.427 . S
N962 C959 1.384 . S
N963 C955 1.427 . S
N963 C961 1.384 . S
H964 C970 0.930 1_554 S
H965 C974 0.930 . S
H966 C979 0.929 . S
H967 C977 0.929 . S
H968 C972 0.929 . S
H969 C978 0.929 . S
C970 H964 0.930 1_556 S
C970 C971 1.367 1_556 S
C970 C978 1.378 . S
C971 C970 1.367 1_554 S
C971 C979 1.433 1_554 S
C972 H968 0.929 . S
C972 C974 1.378 . S
C972 C976 1.350 . S
C973 C976 1.463 . S
C973 C978 1.350 . S
C973 N981 1.427 . S
C974 H965 0.930 . S
C974 C972 1.378 . S
C974 C975 1.367 . S
C975 C974 1.367 . S
C975 C977 1.433 . S
C976 C972 1.350 . S
C976 C973 1.463 . S
C976 N980 1.427 . S
C977 H967 0.929 . S
C977 C975 1.433 . S
C977 N980 1.384 . S
C978 H969 0.929 . S
C978 C970 1.378 . S
C978 C973 1.350 . S
C979 H966 0.929 . S
C979 C971 1.433 1_556 S
C979 N981 1.384 . S
N980 C976 1.427 . S
N980 C977 1.384 . S
N981 C973 1.427 . S
N981 C979 1.384 . S
H982 C988 0.930 . S
H983 C992 0.930 1_565 S
H984 C997 0.929 . S
H985 C995 0.929 . S
H986 C990 0.917 1_565 S
H987 C996 0.929 . S
C988 H982 0.930 . S
C988 C989 1.367 . S
C988 C996 1.378 . S
C989 C988 1.367 . S
C989 C997 1.433 . S
C990 H986 0.917 1_545 S
C990 C992 1.378 . S
C990 C994 1.350 . S
C991 C994 1.463 . S
C991 C996 1.350 . S
C991 N999 1.427 . S
C992 H983 0.930 1_545 S
C992 C990 1.378 . S
C992 C993 1.367 . S
C993 C992 1.367 . S
C993 C995 1.433 . S
C994 C990 1.350 . S
C994 C991 1.463 . S
C994 N998 1.427 . S
C995 H985 0.929 . S
C995 C993 1.433 . S
C995 N998 1.384 . S
C996 H987 0.929 . S
C996 C988 1.378 . S
C996 C991 1.350 . S
C997 H984 0.929 . S
C997 C989 1.433 . S
C997 N999 1.384 . S
N998 C994 1.427 . S
N998 C995 1.384 . S
N999 C991 1.427 . S
N999 C997 1.384 . S
H1000 C1006 0.930 . S
H1001 C1010 0.930 . S
H1002 C1015 0.929 . S
H1003 C1013 0.929 . S
H1004 C1008 0.929 . S
H1005 C1014 0.929 . S
C1006 H1000 0.930 . S
C1006 C1007 1.367 . S
C1006 C1014 1.378 . S
C1007 C1006 1.367 . S
C1007 C1015 1.433 . S
C1008 H1004 0.929 . S
C1008 C1010 1.378 . S
C1008 C1012 1.350 . S
C1009 C1012 1.463 . S
C1009 C1014 1.350 . S
C1009 N1017 1.427 . S
C1010 H1001 0.930 . S
C1010 C1008 1.378 . S
C1010 C1011 1.367 . S
C1011 C1010 1.367 . S
C1011 C1013 1.433 . S
C1012 C1008 1.350 . S
C1012 C1009 1.463 . S
C1012 N1016 1.427 . S
C1013 H1003 0.929 . S
C1013 C1011 1.433 . S
C1013 N1016 1.384 . S
C1014 H1005 0.929 . S
C1014 C1006 1.378 . S
C1014 C1009 1.350 . S
C1015 H1002 0.929 . S
C1015 C1007 1.433 . S
C1015 N1017 1.384 . S
N1016 C1012 1.427 . S
N1016 C1013 1.384 . S
N1017 C1009 1.427 . S
N1017 C1015 1.384 . S
H1018 C1024 0.930 . S
H1019 C1028 0.930 . S
H1020 C1033 0.929 . S
H1021 C1031 0.929 . S
H1022 C1026 0.929 . S
H1023 C1032 0.929 . S
C1024 H1018 0.930 . S
C1024 C1025 1.367 . S
C1024 C1032 1.378 . S
C1025 C1024 1.367 . S
C1025 C1033 1.433 . S
C1026 H1022 0.929 . S
C1026 C1028 1.378 . S
C1026 C1030 1.350 . S
C1027 C1030 1.463 . S
C1027 C1032 1.350 . S
C1027 N1035 1.427 . S
C1028 H1019 0.930 . S
C1028 C1026 1.378 . S
C1028 C1029 1.367 . S
C1029 C1028 1.367 . S
C1029 C1031 1.433 . S
C1030 C1026 1.350 . S
C1030 C1027 1.463 . S
C1030 N1034 1.427 . S
C1031 H1021 0.929 . S
C1031 C1029 1.433 . S
C1031 N1034 1.384 . S
C1032 H1023 0.929 . S
C1032 C1024 1.378 . S
C1032 C1027 1.350 . S
C1033 H1020 0.929 . S
C1033 C1025 1.433 . S
C1033 N1035 1.384 . S
N1034 C1030 1.427 . S
N1034 C1031 1.384 . S
N1035 C1027 1.427 . S
N1035 C1033 1.384 . S
H1036 C1042 0.930 . S
H1037 C1046 0.916 1_556 S
H1038 C1051 0.929 . S
H1039 C1049 0.929 1_556 S
H1040 C1044 0.929 . S
H1041 C1050 0.929 . S
C1042 H1036 0.930 . S
C1042 C1043 1.367 . S
C1042 C1050 1.378 . S
C1043 C1042 1.367 . S
C1043 C1051 1.433 . S
C1044 H1040 0.929 . S
C1044 C1046 1.378 . S
C1044 C1048 1.350 . S
C1045 C1048 1.463 . S
C1045 C1050 1.350 . S
C1045 N1053 1.427 . S
C1046 H1037 0.916 1_554 S
C1046 C1044 1.378 . S
C1046 C1047 1.367 1_554 S
C1047 C1046 1.367 1_556 S
C1047 C1049 1.433 1_556 S
C1048 C1044 1.350 . S
C1048 C1045 1.463 . S
C1048 N1052 1.427 . S
C1049 H1039 0.929 1_554 S
C1049 C1047 1.433 1_554 S
C1049 N1052 1.384 . S
C1050 H1041 0.929 . S
C1050 C1042 1.378 . S
C1050 C1045 1.350 . S
C1051 H1038 0.929 . S
C1051 C1043 1.433 . S
C1051 N1053 1.384 . S
N1052 C1048 1.427 . S
N1052 C1049 1.384 . S
N1053 C1045 1.427 . S
N1053 C1051 1.384 . S
H1054 C1060 0.930 . S
H1055 C1064 0.930 . S
H1056 C1069 0.929 1_545 S
H1057 C1067 0.929 . S
H1058 C1062 0.929 . S
H1059 C1068 0.929 . S
C1060 H1054 0.930 . S
C1060 C1061 1.367 . S
C1060 C1068 1.378 . S
C1061 C1060 1.367 . S
C1061 C1069 1.433 . S
C1062 H1058 0.929 . S
C1062 C1064 1.378 . S
C1062 C1066 1.350 . S
C1063 C1066 1.463 . S
C1063 C1068 1.350 . S
C1063 N1071 1.427 . S
C1064 H1055 0.930 . S
C1064 C1062 1.378 . S
C1064 C1065 1.367 . S
C1065 C1064 1.367 . S
C1065 C1067 1.433 . S
C1066 C1062 1.350 . S
C1066 C1063 1.463 . S
C1066 N1070 1.427 . S
C1067 H1057 0.929 . S
C1067 C1065 1.433 . S
C1067 N1070 1.384 . S
C1068 H1059 0.929 . S
C1068 C1060 1.378 . S
C1068 C1063 1.350 . S
C1069 H1056 0.929 1_565 S
C1069 C1061 1.433 . S
C1069 N1071 1.384 . S
N1070 C1066 1.427 . S
N1070 C1067 1.384 . S
N1071 C1063 1.427 . S
N1071 C1069 1.384 . S
H1072 C1078 0.930 . S
H1073 C1082 0.930 . S
H1074 C1087 0.929 . S
H1075 C1085 0.929 . S
H1076 C1080 0.929 . S
H1077 C1086 0.929 . S
C1078 H1072 0.930 . S
C1078 C1079 1.367 . S
C1078 C1086 1.378 . S
C1079 C1078 1.367 . S
C1079 C1087 1.433 . S
C1080 H1076 0.929 . S
C1080 C1082 1.378 . S
C1080 C1084 1.350 . S
C1081 C1084 1.463 . S
C1081 C1086 1.350 . S
C1081 N1089 1.427 . S
C1082 H1073 0.930 . S
C1082 C1080 1.378 . S
C1082 C1083 1.367 . S
C1083 C1082 1.367 . S
C1083 C1085 1.433 . S
C1084 C1080 1.350 . S
C1084 C1081 1.463 . S
C1084 N1088 1.427 . S
C1085 H1075 0.929 . S
C1085 C1083 1.433 . S
C1085 N1088 1.384 . S
C1086 H1077 0.929 . S
C1086 C1078 1.378 . S
C1086 C1081 1.350 . S
C1087 H1074 0.929 . S
C1087 C1079 1.433 . S
C1087 N1089 1.384 . S
N1088 C1084 1.427 . S
N1088 C1085 1.384 . S
N1089 C1081 1.427 . S
N1089 C1087 1.384 . S
H1090 C1096 0.930 . S
H1091 C1100 0.930 . S
H1092 C1105 0.929 . S
H1093 C1103 0.929 . S
H1094 C1098 0.929 . S
H1095 C1104 0.929 . S
C1096 H1090 0.930 . S
C1096 C1097 1.367 . S
C1096 C1104 1.378 . S
C1097 C1096 1.367 . S
C1097 C1105 1.433 . S
C1098 H1094 0.929 . S
C1098 C1100 1.378 . S
C1098 C1102 1.350 . S
C1099 C1102 1.463 . S
C1099 C1104 1.350 . S
C1099 N1107 1.427 . S
C1100 H1091 0.930 . S
C1100 C1098 1.378 . S
C1100 C1101 1.367 . S
C1101 C1100 1.367 . S
C1101 C1103 1.433 . S
C1102 C1098 1.350 . S
C1102 C1099 1.463 . S
C1102 N1106 1.427 . S
C1103 H1093 0.929 . S
C1103 C1101 1.433 . S
C1103 N1106 1.384 . S
C1104 H1095 0.929 . S
C1104 C1096 1.378 . S
C1104 C1099 1.350 . S
C1105 H1092 0.929 . S
C1105 C1097 1.433 . S
C1105 N1107 1.384 . S
N1106 C1102 1.427 . S
N1106 C1103 1.384 . S
N1107 C1099 1.427 . S
N1107 C1105 1.384 . S
H1108 C1114 0.930 . S
H1109 C1118 0.930 . S
H1110 C1123 0.929 . S
H1111 C1121 0.929 . S
H1112 C1116 0.929 . S
H1113 C1122 0.929 . S
C1114 H1108 0.930 . S
C1114 C1115 1.367 . S
C1114 C1122 1.378 . S
C1115 C1114 1.367 . S
C1115 C1123 1.433 . S
C1116 H1112 0.929 . S
C1116 C1118 1.378 . S
C1116 C1120 1.350 . S
C1117 C1120 1.463 1_655 S
C1117 C1122 1.350 . S
C1117 N1125 1.427 . S
C1118 H1109 0.930 . S
C1118 C1116 1.378 . S
C1118 C1119 1.367 . S
C1119 C1118 1.367 . S
C1119 C1121 1.433 . S
C1120 C1116 1.350 . S
C1120 C1117 1.463 1_455 S
C1120 N1124 1.427 . S
C1121 H1111 0.929 . S
C1121 C1119 1.433 . S
C1121 N1124 1.384 . S
C1122 H1113 0.929 . S
C1122 C1114 1.378 . S
C1122 C1117 1.350 . S
C1123 H1110 0.929 . S
C1123 C1115 1.433 . S
C1123 N1125 1.384 . S
N1124 C1120 1.427 . S
N1124 C1121 1.384 . S
N1125 C1117 1.427 . S
N1125 C1123 1.384 . S
H1126 C1132 0.930 . S
H1127 C1136 0.930 . S
H1128 C1141 0.929 . S
H1129 C1139 0.929 . S
H1130 C1134 0.929 . S
H1131 C1140 0.929 . S
C1132 H1126 0.930 . S
C1132 C1133 1.367 . S
C1132 C1140 1.378 1_655 S
C1133 C1132 1.367 . S
C1133 C1141 1.433 . S
C1134 H1130 0.929 . S
C1134 C1136 1.378 1_655 S
C1134 C1138 1.350 1_655 S
C1135 C1138 1.463 1_655 S
C1135 C1140 1.350 1_655 S
C1135 N1143 1.427 . S
C1136 H1127 0.930 . S
C1136 C1134 1.378 1_455 S
C1136 C1137 1.367 . S
C1137 C1136 1.367 . S
C1137 C1139 1.433 . S
C1138 C1134 1.350 1_455 S
C1138 C1135 1.463 1_455 S
C1138 N1142 1.427 . S
C1139 H1129 0.929 . S
C1139 C1137 1.433 . S
C1139 N1142 1.384 . S
C1140 H1131 0.929 . S
C1140 C1132 1.378 1_455 S
C1140 C1135 1.350 1_455 S
C1141 H1128 0.929 . S
C1141 C1133 1.433 . S
C1141 N1143 1.384 . S
N1142 C1138 1.427 . S
N1142 C1139 1.384 . S
N1143 C1135 1.427 . S
N1143 C1141 1.384 . S
H1144 C1150 0.930 . S
H1145 C1154 0.930 . S
H1146 C1159 0.929 . S
H1147 C1157 0.929 . S
H1148 C1152 0.929 . S
H1149 C1158 0.929 . S
C1150 H1144 0.930 . S
C1150 C1151 1.367 . S
C1150 C1158 1.378 . S
C1151 C1150 1.367 . S
C1151 C1159 1.433 . S
C1152 H1148 0.929 . S
C1152 C1154 1.378 . S
C1152 C1156 1.350 . S
C1153 C1156 1.463 . S
C1153 C1158 1.350 . S
C1153 N1161 1.427 . S
C1154 H1145 0.930 . S
C1154 C1152 1.378 . S
C1154 C1155 1.367 . S
C1155 C1154 1.367 . S
C1155 C1157 1.433 . S
C1156 C1152 1.350 . S
C1156 C1153 1.463 . S
C1156 N1160 1.427 . S
C1157 H1147 0.929 . S
C1157 C1155 1.433 . S
C1157 N1160 1.384 . S
C1158 H1149 0.929 . S
C1158 C1150 1.378 . S
C1158 C1153 1.350 . S
C1159 H1146 0.929 . S
C1159 C1151 1.433 . S
C1159 N1161 1.384 . S
N1160 C1156 1.427 . S
N1160 C1157 1.384 . S
N1161 C1153 1.427 . S
N1161 C1159 1.384 . S
H1162 C1168 0.930 . S
H1163 C1172 0.930 . S
H1164 C1177 0.929 . S
H1165 C1175 0.929 . S
H1166 C1170 0.929 . S
H1167 C1176 0.929 . S
C1168 H1162 0.930 . S
C1168 C1169 1.367 . S
C1168 C1176 1.378 . S
C1169 C1168 1.367 . S
C1169 C1177 1.433 . S
C1170 H1166 0.929 . S
C1170 C1172 1.378 . S
C1170 C1174 1.350 . S
C1171 C1174 1.463 . S
C1171 C1176 1.350 . S
C1171 N1179 1.427 . S
C1172 H1163 0.930 . S
C1172 C1170 1.378 . S
C1172 C1173 1.367 . S
C1173 C1172 1.367 . S
C1173 C1175 1.433 . S
C1174 C1170 1.350 . S
C1174 C1171 1.463 . S
C1174 N1178 1.427 . S
C1175 H1165 0.929 . S
C1175 C1173 1.433 . S
C1175 N1178 1.384 . S
C1176 H1167 0.929 . S
C1176 C1168 1.378 . S
C1176 C1171 1.350 . S
C1177 H1164 0.929 . S
C1177 C1169 1.433 . S
C1177 N1179 1.384 . S
N1178 C1174 1.427 . S
N1178 C1175 1.384 . S
N1179 C1171 1.427 . S
N1179 C1177 1.384 . S
H1180 C1186 0.930 . S
H1181 C1190 0.930 . S
H1182 C1195 0.929 . S
H1183 C1193 0.929 . S
H1184 C1188 0.929 . S
H1185 C1194 0.929 . S
C1186 H1180 0.930 . S
C1186 C1187 1.367 . S
C1186 C1194 1.378 . S
C1187 C1186 1.367 . S
C1187 C1195 1.433 . S
C1188 H1184 0.929 . S
C1188 C1190 1.378 . S
C1188 C1192 1.350 . S
C1189 C1192 1.463 1_455 S
C1189 C1194 1.350 . S
C1189 N1197 1.427 . S
C1190 H1181 0.930 . S
C1190 C1188 1.378 . S
C1190 C1191 1.367 . S
C1191 C1190 1.367 . S
C1191 C1193 1.433 . S
C1192 C1188 1.350 . S
C1192 C1189 1.463 1_655 S
C1192 N1196 1.427 . S
C1193 H1183 0.929 . S
C1193 C1191 1.433 . S
C1193 N1196 1.384 . S
C1194 H1185 0.929 . S
C1194 C1186 1.378 . S
C1194 C1189 1.350 . S
C1195 H1182 0.929 . S
C1195 C1187 1.433 . S
C1195 N1197 1.384 . S
N1196 C1192 1.427 . S
N1196 C1193 1.384 . S
N1197 C1189 1.427 . S
N1197 C1195 1.384 . S
H1198 C1204 0.930 . S
H1199 C1208 0.930 . S
H1200 C1213 0.929 . S
H1201 C1211 0.929 . S
H1202 C1206 0.929 . S
H1203 C1212 0.929 . S
C1204 H1198 0.930 . S
C1204 C1205 1.367 . S
C1204 C1212 1.378 . S
C1205 C1204 1.367 . S
C1205 C1213 1.433 . S
C1206 H1202 0.929 . S
C1206 C1208 1.378 . S
C1206 C1210 1.350 . S
C1207 C1210 1.463 1_455 S
C1207 C1212 1.350 . S
C1207 N1215 1.427 1_455 S
C1208 H1199 0.930 . S
C1208 C1206 1.378 . S
C1208 C1209 1.367 . S
C1209 C1208 1.367 . S
C1209 C1211 1.433 . S
C1210 C1206 1.350 . S
C1210 C1207 1.463 1_655 S
C1210 N1214 1.427 1_655 S
C1211 H1201 0.929 . S
C1211 C1209 1.433 . S
C1211 N1214 1.384 1_655 S
C1212 H1203 0.929 . S
C1212 C1204 1.378 . S
C1212 C1207 1.350 . S
C1213 H1200 0.929 . S
C1213 C1205 1.433 . S
C1213 N1215 1.384 1_455 S
N1214 C1210 1.427 1_455 S
N1214 C1211 1.384 1_455 S
N1215 C1207 1.427 1_655 S
N1215 C1213 1.384 1_655 S
H1216 C1222 0.930 . S
H1217 C1226 0.930 . S
H1218 C1231 0.929 . S
H1219 C1229 0.929 . S
H1220 C1224 0.929 . S
H1221 C1230 0.929 . S
C1222 H1216 0.930 . S
C1222 C1223 1.367 . S
C1222 C1230 1.378 . S
C1223 C1222 1.367 . S
C1223 C1231 1.433 . S
C1224 H1220 0.929 . S
C1224 C1226 1.378 . S
C1224 C1228 1.350 . S
C1225 C1228 1.463 . S
C1225 C1230 1.350 . S
C1225 N1233 1.427 . S
C1226 H1217 0.930 . S
C1226 C1224 1.378 . S
C1226 C1227 1.367 . S
C1227 C1226 1.367 . S
C1227 C1229 1.433 . S
C1228 C1224 1.350 . S
C1228 C1225 1.463 . S
C1228 N1232 1.427 . S
C1229 H1219 0.929 . S
C1229 C1227 1.433 . S
C1229 N1232 1.384 . S
C1230 H1221 0.929 . S
C1230 C1222 1.378 . S
C1230 C1225 1.350 . S
C1231 H1218 0.929 . S
C1231 C1223 1.433 . S
C1231 N1233 1.384 . S
N1232 C1228 1.427 . S
N1232 C1229 1.384 . S
N1233 C1225 1.427 . S
N1233 C1231 1.384 . S
H1234 C1240 0.930 . S
H1235 C1244 0.930 . S
H1236 C1249 0.929 . S
H1237 C1247 0.929 . S
H1238 C1242 0.929 . S
H1239 C1248 0.929 . S
C1240 H1234 0.930 . S
C1240 C1241 1.367 . S
C1240 C1248 1.378 . S
C1241 C1240 1.367 . S
C1241 C1249 1.433 . S
C1242 H1238 0.929 . S
C1242 C1244 1.378 . S
C1242 C1246 1.350 . S
C1243 C1246 1.463 . S
C1243 C1248 1.350 . S
C1243 N1251 1.427 . S
C1244 H1235 0.930 . S
C1244 C1242 1.378 . S
C1244 C1245 1.367 . S
C1245 C1244 1.367 . S
C1245 C1247 1.433 . S
C1246 C1242 1.350 . S
C1246 C1243 1.463 . S
C1246 N1250 1.427 . S
C1247 H1237 0.929 . S
C1247 C1245 1.433 . S
C1247 N1250 1.384 . S
C1248 H1239 0.929 . S
C1248 C1240 1.378 . S
C1248 C1243 1.350 . S
C1249 H1236 0.929 . S
C1249 C1241 1.433 . S
C1249 N1251 1.384 . S
N1250 C1246 1.427 . S
N1250 C1247 1.384 . S
N1251 C1243 1.427 . S
N1251 C1249 1.384 . S
H1252 C1258 0.930 . S
H1253 C1262 0.930 . S
H1254 C1267 0.929 . S
H1255 C1265 0.929 . S
H1256 C1260 0.929 . S
H1257 C1266 0.929 . S
C1258 H1252 0.930 . S
C1258 C1259 1.367 . S
C1258 C1266 1.378 . S
C1259 C1258 1.367 . S
C1259 C1267 1.433 . S
C1260 H1256 0.929 . S
C1260 C1262 1.378 . S
C1260 C1264 1.350 . S
C1261 C1264 1.463 . S
C1261 C1266 1.350 . S
C1261 N1269 1.427 . S
C1262 H1253 0.930 . S
C1262 C1260 1.378 . S
C1262 C1263 1.367 . S
C1263 C1262 1.367 . S
C1263 C1265 1.433 . S
C1264 C1260 1.350 . S
C1264 C1261 1.463 . S
C1264 N1268 1.427 . S
C1265 H1255 0.929 . S
C1265 C1263 1.433 . S
C1265 N1268 1.384 . S
C1266 H1257 0.929 . S
C1266 C1258 1.378 . S
C1266 C1261 1.350 . S
C1267 H1254 0.929 . S
C1267 C1259 1.433 . S
C1267 N1269 1.384 . S
N1268 C1264 1.427 . S
N1268 C1265 1.384 . S
N1269 C1261 1.427 . S
N1269 C1267 1.384 . S
H1270 C1276 0.912 1_655 S
H1271 C1280 0.930 . S
H1272 C1285 0.929 . S
H1273 C1283 0.929 . S
H1274 C1278 0.929 . S
H1275 C1284 0.929 . S
C1276 H1270 0.912 1_455 S
C1276 C1277 1.361 1_455 S
C1276 C1284 1.403 . S
C1277 C1276 1.361 1_655 S
C1277 C1285 1.433 1_655 S
C1278 H1274 0.929 . S
C1278 C1280 1.378 . S
C1278 C1282 1.350 . S
C1279 C1282 1.463 . S
C1279 C1284 1.350 . S
C1279 N1287 1.427 . S
C1280 H1271 0.930 . S
C1280 C1278 1.378 . S
C1280 C1281 1.367 . S
C1281 C1280 1.367 . S
C1281 C1283 1.433 . S
C1282 C1278 1.350 . S
C1282 C1279 1.463 . S
C1282 N1286 1.427 . S
C1283 H1273 0.929 . S
C1283 C1281 1.433 . S
C1283 N1286 1.384 . S
C1284 H1275 0.929 . S
C1284 C1276 1.403 . S
C1284 C1279 1.350 . S
C1285 H1272 0.929 . S
C1285 C1277 1.433 1_455 S
C1285 N1287 1.384 . S
N1286 C1282 1.427 . S
N1286 C1283 1.384 . S
N1287 C1279 1.427 . S
N1287 C1285 1.384 . S
H1288 C1294 0.930 . S
H1289 C1298 0.930 . S
H1290 C1303 0.929 . S
H1291 C1301 0.929 . S
H1292 C1296 0.929 . S
H1293 C1302 0.929 . S
C1294 H1288 0.930 . S
C1294 C1295 1.367 . S
C1294 C1302 1.378 . S
C1295 C1294 1.367 . S
C1295 C1303 1.433 . S
C1296 H1292 0.929 . S
C1296 C1298 1.378 . S
C1296 C1300 1.350 . S
C1297 C1300 1.463 . S
C1297 C1302 1.350 . S
C1297 N1305 1.427 . S
C1298 H1289 0.930 . S
C1298 C1296 1.378 . S
C1298 C1299 1.367 . S
C1299 C1298 1.367 . S
C1299 C1301 1.433 . S
C1300 C1296 1.350 . S
C1300 C1297 1.463 . S
C1300 N1304 1.427 . S
C1301 H1291 0.929 . S
C1301 C1299 1.433 . S
C1301 N1304 1.384 . S
C1302 H1293 0.929 . S
C1302 C1294 1.378 . S
C1302 C1297 1.350 . S
C1303 H1290 0.929 . S
C1303 C1295 1.433 . S
C1303 N1305 1.384 . S
N1304 C1300 1.427 . S
N1304 C1301 1.384 . S
N1305 C1297 1.427 . S
N1305 C1303 1.384 . S
H1306 C1312 0.930 . S
H1307 C1316 0.930 . S
H1308 C1321 0.929 . S
H1309 C1319 0.929 . S
H1310 C1314 0.929 . S
H1311 C1320 0.929 . S
C1312 H1306 0.930 . S
C1312 C1313 1.367 . S
C1312 C1320 1.378 . S
C1313 C1312 1.367 . S
C1313 C1321 1.433 . S
C1314 H1310 0.929 . S
C1314 C1316 1.378 . S
C1314 C1318 1.350 . S
C1315 C1318 1.463 . S
C1315 C1320 1.350 . S
C1315 N1323 1.427 . S
C1316 H1307 0.930 . S
C1316 C1314 1.378 . S
C1316 C1317 1.367 . S
C1317 C1316 1.367 . S
C1317 C1319 1.433 . S
C1318 C1314 1.350 . S
C1318 C1315 1.463 . S
C1318 N1322 1.427 . S
C1319 H1309 0.929 . S
C1319 C1317 1.433 . S
C1319 N1322 1.384 . S
C1320 H1311 0.929 . S
C1320 C1312 1.378 . S
C1320 C1315 1.350 . S
C1321 H1308 0.929 . S
C1321 C1313 1.433 . S
C1321 N1323 1.384 . S
N1322 C1318 1.427 . S
N1322 C1319 1.384 . S
N1323 C1315 1.427 . S
N1323 C1321 1.384 . S
H1324 C1330 0.930 . S
H1325 C1334 0.930 . S
H1326 C1339 0.929 . S
H1327 C1337 0.929 . S
H1328 C1332 0.929 . S
H1329 C1338 0.929 . S
C1330 H1324 0.930 . S
C1330 C1331 1.367 . S
C1330 C1338 1.378 . S
C1331 C1330 1.367 . S
C1331 C1339 1.433 . S
C1332 H1328 0.929 . S
C1332 C1334 1.378 . S
C1332 C1336 1.350 . S
C1333 C1336 1.463 . S
C1333 C1338 1.350 . S
C1333 N1341 1.427 . S
C1334 H1325 0.930 . S
C1334 C1332 1.378 . S
C1334 C1335 1.367 . S
C1335 C1334 1.367 . S
C1335 C1337 1.433 . S
C1336 C1332 1.350 . S
C1336 C1333 1.463 . S
C1336 N1340 1.427 . S
C1337 H1327 0.929 . S
C1337 C1335 1.433 . S
C1337 N1340 1.384 . S
C1338 H1329 0.929 . S
C1338 C1330 1.378 . S
C1338 C1333 1.350 . S
C1339 H1326 0.929 . S
C1339 C1331 1.433 . S
C1339 N1341 1.384 . S
N1340 C1336 1.427 . S
N1340 C1337 1.384 . S
N1341 C1333 1.427 . S
N1341 C1339 1.384 . S
H1342 C1348 0.930 . S
H1343 C1352 0.930 . S
H1344 C1357 0.929 . S
H1345 C1355 0.913 1_455 S
H1346 C1350 0.929 . S
H1347 C1356 0.929 . S
C1348 H1342 0.930 . S
C1348 C1349 1.367 . S
C1348 C1356 1.378 . S
C1349 C1348 1.367 . S
C1349 C1357 1.433 . S
C1350 H1346 0.929 . S
C1350 C1352 1.378 . S
C1350 C1354 1.350 . S
C1351 C1354 1.463 . S
C1351 C1356 1.350 . S
C1351 N1359 1.427 . S
C1352 H1343 0.930 . S
C1352 C1350 1.378 . S
C1352 C1353 1.367 1_655 S
C1353 C1352 1.367 1_455 S
C1353 C1355 1.428 1_455 S
C1354 C1350 1.350 . S
C1354 C1351 1.463 . S
C1354 N1358 1.427 . S
C1355 H1345 0.913 1_655 S
C1355 C1353 1.428 1_655 S
C1355 N1358 1.406 . S
C1356 H1347 0.929 . S
C1356 C1348 1.378 . S
C1356 C1351 1.350 . S
C1357 H1344 0.929 . S
C1357 C1349 1.433 . S
C1357 N1359 1.384 . S
N1358 C1354 1.427 . S
N1358 C1355 1.406 . S
N1359 C1351 1.427 . S
N1359 C1357 1.384 . S
H1360 C1366 0.930 . S
H1361 C1370 0.930 . S
H1362 C1375 0.929 . S
H1363 C1373 0.929 . S
H1364 C1368 0.929 . S
H1365 C1374 0.929 . S
C1366 H1360 0.930 . S
C1366 C1367 1.367 . S
C1366 C1374 1.378 . S
C1367 C1366 1.367 . S
C1367 C1375 1.433 . S
C1368 H1364 0.929 . S
C1368 C1370 1.378 . S
C1368 C1372 1.350 . S
C1369 C1372 1.463 . S
C1369 C1374 1.350 . S
C1369 N1377 1.427 . S
C1370 H1361 0.930 . S
C1370 C1368 1.378 . S
C1370 C1371 1.367 . S
C1371 C1370 1.367 . S
C1371 C1373 1.433 . S
C1372 C1368 1.350 . S
C1372 C1369 1.463 . S
C1372 N1376 1.427 . S
C1373 H1363 0.929 . S
C1373 C1371 1.433 . S
C1373 N1376 1.384 . S
C1374 H1365 0.929 . S
C1374 C1366 1.378 . S
C1374 C1369 1.350 . S
C1375 H1362 0.929 . S
C1375 C1367 1.433 . S
C1375 N1377 1.384 . S
N1376 C1372 1.427 . S
N1376 C1373 1.384 . S
N1377 C1369 1.427 . S
N1377 C1375 1.384 . S
H1378 C1384 0.930 . S
H1379 C1388 0.930 1_455 S
H1380 C1393 0.929 . S
H1381 C1391 0.929 . S
H1382 C1386 0.929 . S
H1383 C1392 0.929 . S
C1384 H1378 0.930 . S
C1384 C1385 1.367 . S
C1384 C1392 1.378 . S
C1385 C1384 1.367 . S
C1385 C1393 1.433 . S
C1386 H1382 0.929 . S
C1386 C1388 1.378 . S
C1386 C1390 1.350 . S
C1387 C1390 1.463 . S
C1387 C1392 1.350 . S
C1387 N1395 1.427 . S
C1388 H1379 0.930 1_655 S
C1388 C1386 1.378 . S
C1388 C1389 1.367 1_655 S
C1389 C1388 1.367 1_455 S
C1389 C1391 1.433 1_455 S
C1390 C1386 1.350 . S
C1390 C1387 1.463 . S
C1390 N1394 1.427 . S
C1391 H1381 0.929 . S
C1391 C1389 1.433 1_655 S
C1391 N1394 1.384 . S
C1392 H1383 0.929 . S
C1392 C1384 1.378 . S
C1392 C1387 1.350 . S
C1393 H1380 0.929 . S
C1393 C1385 1.433 . S
C1393 N1395 1.384 . S
N1394 C1390 1.427 . S
N1394 C1391 1.384 . S
N1395 C1387 1.427 . S
N1395 C1393 1.384 . S
H1396 C1402 0.930 . S
H1397 C1406 0.930 . S
H1398 C1411 0.929 . S
H1399 C1409 0.929 . S
H1400 C1404 0.929 . S
H1401 C1410 0.929 . S
C1402 H1396 0.930 . S
C1402 C1403 1.367 . S
C1402 C1410 1.378 . S
C1403 C1402 1.367 . S
C1403 C1411 1.433 . S
C1404 H1400 0.929 . S
C1404 C1406 1.378 . S
C1404 C1408 1.350 . S
C1405 C1408 1.463 . S
C1405 C1410 1.350 . S
C1405 N1413 1.427 . S
C1406 H1397 0.930 . S
C1406 C1404 1.378 . S
C1406 C1407 1.367 . S
C1407 C1406 1.367 . S
C1407 C1409 1.433 . S
C1408 C1404 1.350 . S
C1408 C1405 1.463 . S
C1408 N1412 1.427 . S
C1409 H1399 0.929 . S
C1409 C1407 1.433 . S
C1409 N1412 1.384 . S
C1410 H1401 0.929 . S
C1410 C1402 1.378 . S
C1410 C1405 1.350 . S
C1411 H1398 0.929 . S
C1411 C1403 1.433 . S
C1411 N1413 1.384 . S
N1412 C1408 1.427 . S
N1412 C1409 1.384 . S
N1413 C1405 1.427 . S
N1413 C1411 1.384 . S
H1414 C1420 0.930 . S
H1415 C1424 0.930 . S
H1416 C1429 0.929 1_565 S
H1417 C1427 0.929 . S
H1418 C1422 0.929 . S
H1419 C1428 0.929 . S
C1420 H1414 0.930 . S
C1420 C1421 1.367 . S
C1420 C1428 1.378 . S
C1421 C1420 1.367 . S
C1421 C1429 1.433 . S
C1422 H1418 0.929 . S
C1422 C1424 1.378 . S
C1422 C1426 1.350 . S
C1423 C1426 1.463 . S
C1423 C1428 1.350 . S
C1423 N1431 1.427 . S
C1424 H1415 0.930 . S
C1424 C1422 1.378 . S
C1424 C1425 1.367 . S
C1425 C1424 1.367 . S
C1425 C1427 1.433 . S
C1426 C1422 1.350 . S
C1426 C1423 1.463 . S
C1426 N1430 1.427 . S
C1427 H1417 0.929 . S
C1427 C1425 1.433 . S
C1427 N1430 1.384 . S
C1428 H1419 0.929 . S
C1428 C1420 1.378 . S
C1428 C1423 1.350 . S
C1429 H1416 0.929 1_545 S
C1429 C1421 1.433 . S
C1429 N1431 1.384 . S
N1430 C1426 1.427 . S
N1430 C1427 1.384 . S
N1431 C1423 1.427 . S
N1431 C1429 1.384 . S
H1432 C1438 0.930 . S
H1433 C1442 0.930 . S
H1434 C1447 0.929 . S
H1435 C1445 0.929 . S
H1436 C1440 0.929 . S
H1437 C1446 0.929 . S
C1438 H1432 0.930 . S
C1438 C1439 1.367 . S
C1438 C1446 1.378 . S
C1439 C1438 1.367 . S
C1439 C1447 1.433 . S
C1440 H1436 0.929 . S
C1440 C1442 1.378 . S
C1440 C1444 1.350 . S
C1441 C1444 1.463 . S
C1441 C1446 1.350 . S
C1441 N1449 1.427 . S
C1442 H1433 0.930 . S
C1442 C1440 1.378 . S
C1442 C1443 1.367 . S
C1443 C1442 1.367 . S
C1443 C1445 1.433 . S
C1444 C1440 1.350 . S
C1444 C1441 1.463 . S
C1444 N1448 1.427 . S
C1445 H1435 0.929 . S
C1445 C1443 1.433 . S
C1445 N1448 1.384 . S
C1446 H1437 0.929 . S
C1446 C1438 1.378 . S
C1446 C1441 1.350 . S
C1447 H1434 0.929 . S
C1447 C1439 1.433 . S
C1447 N1449 1.384 . S
N1448 C1444 1.427 . S
N1448 C1445 1.384 . S
N1449 C1441 1.427 . S
N1449 C1447 1.384 . S
H1450 C1456 0.930 1_655 S
H1451 C1460 0.930 . S
H1452 C1465 0.929 1_565 S
H1453 C1463 0.929 . S
H1454 C1458 0.929 . S
H1455 C1464 0.929 . S
C1456 H1450 0.930 1_455 S
C1456 C1457 1.367 1_455 S
C1456 C1464 1.378 . S
C1457 C1456 1.367 1_655 S
C1457 C1465 1.433 1_655 S
C1458 H1454 0.929 . S
C1458 C1460 1.378 . S
C1458 C1462 1.350 . S
C1459 C1462 1.463 . S
C1459 C1464 1.350 . S
C1459 N1467 1.427 . S
C1460 H1451 0.930 . S
C1460 C1458 1.378 . S
C1460 C1461 1.367 . S
C1461 C1460 1.367 . S
C1461 C1463 1.433 . S
C1462 C1458 1.350 . S
C1462 C1459 1.463 . S
C1462 N1466 1.427 . S
C1463 H1453 0.929 . S
C1463 C1461 1.433 . S
C1463 N1466 1.384 . S
C1464 H1455 0.929 . S
C1464 C1456 1.378 . S
C1464 C1459 1.350 . S
C1465 H1452 0.929 1_545 S
C1465 C1457 1.433 1_455 S
C1465 N1467 1.384 . S
N1466 C1462 1.427 . S
N1466 C1463 1.384 . S
N1467 C1459 1.427 . S
N1467 C1465 1.384 . S
H1468 C1474 0.930 . S
H1469 C1478 0.930 . S
H1470 C1483 0.929 . S
H1471 C1481 0.929 . S
H1472 C1476 0.929 . S
H1473 C1482 0.929 . S
C1474 H1468 0.930 . S
C1474 C1475 1.367 . S
C1474 C1482 1.378 . S
C1475 C1474 1.367 . S
C1475 C1483 1.433 . S
C1476 H1472 0.929 . S
C1476 C1478 1.378 . S
C1476 C1480 1.350 . S
C1477 C1480 1.463 . S
C1477 C1482 1.350 . S
C1477 N1485 1.427 . S
C1478 H1469 0.930 . S
C1478 C1476 1.378 . S
C1478 C1479 1.367 . S
C1479 C1478 1.367 . S
C1479 C1481 1.433 . S
C1480 C1476 1.350 . S
C1480 C1477 1.463 . S
C1480 N1484 1.427 . S
C1481 H1471 0.929 . S
C1481 C1479 1.433 . S
C1481 N1484 1.384 . S
C1482 H1473 0.929 . S
C1482 C1474 1.378 . S
C1482 C1477 1.350 . S
C1483 H1470 0.929 . S
C1483 C1475 1.433 . S
C1483 N1485 1.384 . S
N1484 C1480 1.427 . S
N1484 C1481 1.384 . S
N1485 C1477 1.427 . S
N1485 C1483 1.384 . S
H1486 C1492 0.930 . S
H1487 C1496 0.930 . S
H1488 C1501 0.929 . S
H1489 C1499 0.929 . S
H1490 C1494 0.929 . S
H1491 C1500 0.929 . S
C1492 H1486 0.930 . S
C1492 C1493 1.367 . S
C1492 C1500 1.378 . S
C1493 C1492 1.367 . S
C1493 C1501 1.433 . S
C1494 H1490 0.929 . S
C1494 C1496 1.378 . S
C1494 C1498 1.350 . S
C1495 C1498 1.463 . S
C1495 C1500 1.350 . S
C1495 N1503 1.427 . S
C1496 H1487 0.930 . S
C1496 C1494 1.378 . S
C1496 C1497 1.367 . S
C1497 C1496 1.367 . S
C1497 C1499 1.433 . S
C1498 C1494 1.350 . S
C1498 C1495 1.463 . S
C1498 N1502 1.427 . S
C1499 H1489 0.929 . S
C1499 C1497 1.433 . S
C1499 N1502 1.384 . S
C1500 H1491 0.929 . S
C1500 C1492 1.378 . S
C1500 C1495 1.350 . S
C1501 H1488 0.929 . S
C1501 C1493 1.433 . S
C1501 N1503 1.384 . S
N1502 C1498 1.427 . S
N1502 C1499 1.384 . S
N1503 C1495 1.427 . S
N1503 C1501 1.384 . S
C647 C25 0.985 . S
C651 C484 0.985 . S
C665 C204 0.974 . S
C669 C65 0.974 . S
C683 C105 0.944 . S
C687 C564 0.944 . S
C701 C145 0.945 . S
C705 C284 0.945 . S
C719 C164 0.945 . S
C723 C345 0.945 . S
C737 C425 0.984 . S
C741 C244 0.984 . S
C755 C524 0.972 . S
C759 C385 0.972 . S
C773 C465 0.945 . S
C777 C604 0.945 . S
C791 C362 2.174 . S
C795 C4 2.153 . S
C809 C44 2.145 . S
C813 C402 2.169 . S
C827 C84 2.149 . S
C831 C442 2.169 . S
C845 C322 2.177 . S
C849 C124 2.151 . S
C863 C543 2.177 . S
C867 C185 2.153 . S
C881 C583 2.173 . S
C885 C225 2.145 . S
C899 C265 2.153 . S
C903 C623 2.174 . S
C917 C503 2.168 . S
C921 C305 2.147 . S
C935 C324 2.144 . S
C939 C42 2.167 . S
C953 C364 2.150 . S
C957 C82 2.170 . S
C971 C404 2.142 . S
C975 C122 2.168 . S
C989 C2 2.167 . S
C993 C444 2.145 . S
C1007 C223 2.172 . S
C1011 C505 2.152 . S
C1025 C545 2.144 . S
C1029 C263 2.171 . S
C1043 C303 2.178 . S
C1047 C585 2.154 . S
C1061 C625 2.145 . S
C1065 C183 2.173 . S
C1079 C31 3.096 . S
C1083 C431 3.099 . S
C1097 C71 3.099 . S
C1101 C471 3.095 . S
C1115 C351 3.098 . S
C1119 C111 3.097 . S
C1133 C151 3.098 . S
C1137 C391 3.095 . S
C1151 C180 3.096 . S
C1155 C580 3.099 . S
C1169 C220 3.097 . S
C1173 C620 3.098 . S
C1187 C500 3.098 . S
C1191 C260 3.099 . S
C1205 C300 3.096 . S
C1209 C540 3.099 . S
C1223 C23 1.647 . S
C1227 C311 1.898 . S
C1241 C511 1.897 . S
C1245 C63 1.647 . S
C1259 C103 1.670 . S
C1263 C231 1.907 . S
C1277 C143 1.665 . S
C1281 C591 1.904 . S
C1295 C162 1.647 . S
C1299 C140 1.898 . S
C1313 C340 1.903 . S
C1317 C202 1.663 . S
C1331 C242 1.652 . S
C1335 C60 1.901 . S
C1349 C420 1.907 . S
C1353 C282 1.669 . S
C1367 C343 1.669 . S
C1371 C631 1.906 . S
C1385 C191 1.898 . S
C1389 C383 1.646 . S
C1403 C551 1.897 . S
C1407 C423 1.646 . S
C1421 C463 1.668 . S
C1425 C271 1.906 . S
C1439 C482 1.663 . S
C1443 C460 1.903 . S
C1457 C522 1.668 . S
C1461 C20 1.906 . S
C1475 C380 1.906 . S
C1479 C562 1.669 . S
C1493 C100 1.898 . S
C1497 C602 1.647 . S
