# Generated by pormake.
# Topology unj, (4)-cn, num edge types: 1
# Building blocks:
#     Node 0, Type 0, BuildingBlock: QUQFOY_clean_sbu_3, # of connection points: 4
#     Node 1, Type 0, BuildingBlock: QUQFOY_clean_sbu_3, # of connection points: 4
#     Node 2, Type 0, BuildingBlock: QUQFOY_clean_sbu_3, # of connection points: 4
#     Node 3, Type 0, BuildingBlock: QUQFOY_clean_sbu_3, # of connection points: 4
#     Node 4, Type 0, BuildingBlock: QUQFOY_clean_sbu_3, # of connection points: 4
#     Node 5, Type 0, BuildingBlock: QUQFOY_clean_sbu_3, # of connection points: 4
#     Edge 6, Type (0, 0), BuildingBlock: CIFDUS_clean_linker_0, # of connection points: 2
#     Edge 7, Type (0, 0), BuildingBlock: CIFDUS_clean_linker_0, # of connection points: 2
#     Edge 8, Type (0, 0), BuildingBlock: CIFDUS_clean_linker_0, # of connection points: 2
#     Edge 9, Type (0, 0), BuildingBlock: CIFDUS_clean_linker_0, # of connection points: 2
#     Edge 10, Type (0, 0), BuildingBlock: CIFDUS_clean_linker_0, # of connection points: 2
#     Edge 11, Type (0, 0), BuildingBlock: CIFDUS_clean_linker_0, # of connection points: 2
#     Edge 12, Type (0, 0), BuildingBlock: CIFDUS_clean_linker_0, # of connection points: 2
#     Edge 13, Type (0, 0), BuildingBlock: CIFDUS_clean_linker_0, # of connection points: 2
#     Edge 14, Type (0, 0), BuildingBlock: CIFDUS_clean_linker_0, # of connection points: 2
#     Edge 15, Type (0, 0), BuildingBlock: CIFDUS_clean_linker_0, # of connection points: 2
#     Edge 16, Type (0, 0), BuildingBlock: CIFDUS_clean_linker_0, # of connection points: 2
#     Edge 17, Type (0, 0), BuildingBlock: CIFDUS_clean_linker_0, # of connection points: 2
# Relax obj value: 0.027
# Max RMSD: 0.079
# Mean RMSD: 0.079
data_MOF--net-unj--node1-QUQFOY_clean_sbu_3--edge1-CIFDUS_clean_linker_0
_symmetry_space_group_name_H-M    P1
_symmetry_Int_Tables_number       1
_symmetry_cell_setting            triclinic
loop_
_symmetry_equiv_pos_as_xyz
'x, y, z'
_cell_length_a     29.852175
_cell_length_b     30.009282
_cell_length_c     32.983161
_cell_angle_alpha  89.735876
_cell_angle_beta   90.193483
_cell_angle_gamma 119.70877
loop_
_atom_site_label
_atom_site_type_symbol
_atom_site_fract_x
_atom_site_fract_y
_atom_site_fract_z
_atom_type_partial_charge
C0 C 0.55794 0.22996 0.4996 0.0
O1 O 0.58451 0.2087 0.50794 0.0
Cd2 Cd 0.57644 0.16392 0.56984 0.0
O3 O 0.52434 0.22785 0.52449 0.0
Cd4 Cd 0.48976 0.18909 0.59252 0.0
C5 C 0.4505 0.06933 0.5586 0.0
O6 O 0.57357 0.21616 0.62315 0.0
O7 O 0.50836 0.16281 0.65886 0.0
O8 O 0.48714 0.26703 0.60415 0.0
C9 C 0.55656 0.19338 0.6567 0.0
O10 O 0.49801 0.08241 0.56095 0.0
C11 C 0.44187 0.2464 0.61854 0.0
O12 O 0.4357 0.10164 0.56607 0.0
O13 O 0.41701 0.19766 0.62004 0.0
C14 C 0.32351 0.56928 0.64986 0.0
O15 O 0.3716 0.59709 0.65594 0.0
Cd16 Cd 0.41308 0.58802 0.71468 0.0
O17 O 0.29511 0.53486 0.67538 0.0
Cd18 Cd 0.30379 0.49991 0.74183 0.0
C19 C 0.38298 0.46227 0.70109 0.0
O20 O 0.36132 0.58335 0.77135 0.0
O21 O 0.35219 0.51818 0.806 0.0
O22 O 0.22535 0.50181 0.75265 0.0
C23 C 0.36911 0.56614 0.80415 0.0
O24 O 0.41564 0.50999 0.70208 0.0
C25 C 0.20045 0.4592 0.7709 0.0
O26 O 0.33644 0.44584 0.71207 0.0
O27 O 0.22296 0.43284 0.7749 0.0
C28 C 0.76757 0.30673 0.83153 0.0
O29 O 0.79216 0.35476 0.83764 0.0
Cd30 Cd 0.84028 0.39272 0.89743 0.0
O31 O 0.76847 0.2756 0.85758 0.0
Cd32 Cd 0.81136 0.28299 0.92481 0.0
C33 C 0.93093 0.35588 0.88519 0.0
O34 O 0.78483 0.34137 0.9514 0.0
O35 O 0.83749 0.33098 0.98989 0.0
O36 O 0.73328 0.2054 0.9432 0.0
C37 C 0.80557 0.34702 0.98588 0.0
O38 O 0.9197 0.39159 0.88539 0.0
C39 C 0.75467 0.18132 0.95753 0.0
O40 O 0.89809 0.31086 0.89694 0.0
O41 O 0.80353 0.20353 0.9552 0.0
C42 C 0.44491 0.76247 0.9858 0.0
O43 O 0.41798 0.7838 -0.00799 0.0
Cd44 Cd 0.41566 0.82076 0.055 0.0
O45 O 0.47448 0.76145 0.01336 0.0
Cd46 Cd 0.50024 0.79493 0.08379 0.0
C47 C 0.54092 0.91768 0.05491 0.0
O48 O 0.41165 0.76097 0.10488 0.0
O49 O 0.46793 0.81052 0.14863 0.0
O50 O 0.5048 0.71743 0.09414 0.0
C51 C 0.42127 0.77834 0.14059 0.0
O52 O 0.49317 0.90386 0.0543 0.0
C53 C 0.54714 0.73761 0.11337 0.0
O54 O 0.55556 0.88512 0.06223 0.0
O55 O 0.56983 0.786 0.11795 0.0
C56 C 0.65783 0.41029 0.15683 0.0
O57 O 0.60987 0.38298 0.16366 0.0
Cd58 Cd 0.572 0.39635 0.22268 0.0
O59 O 0.68681 0.44573 0.1813 0.0
Cd60 Cd 0.68037 0.4839 0.24646 0.0
C61 C 0.60049 0.52074 0.20472 0.0
O62 O 0.62569 0.40124 0.27891 0.0
O63 O 0.6359 0.46722 0.31246 0.0
O64 O 0.76118 0.48559 0.25363 0.0
C65 C 0.62013 0.41945 0.31187 0.0
O66 O 0.56749 0.47318 0.20706 0.0
C67 C 0.78596 0.52872 0.27093 0.0
O68 O 0.64707 0.53699 0.21554 0.0
O69 O 0.76191 0.55326 0.27655 0.0
C70 C 0.23295 0.69913 0.33046 0.0
O71 O 0.20917 0.6505 0.33261 0.0
Cd72 Cd 0.15406 0.60427 0.38756 0.0
O73 O 0.22713 0.72571 0.35784 0.0
Cd74 Cd 0.17767 0.71017 0.4223 0.0
C75 C 0.06195 0.64004 0.37633 0.0
O76 O 0.20254 0.64919 0.44629 0.0
O77 O 0.14845 0.65684 0.48473 0.0
O78 O 0.25517 0.7855 0.44365 0.0
C79 C 0.17959 0.64002 0.48004 0.0
O80 O 0.07516 0.60586 0.37387 0.0
C81 C 0.23408 0.80923 0.45879 0.0
O82 O 0.09246 0.68365 0.39173 0.0
O83 O 0.18525 0.78764 0.45608 0.0
H84 H 0.34784 0.02901 0.53987 0.0
H85 H 0.47023 0.99161 0.54458 0.0
H86 H 0.4137 0.90839 0.51483 0.0
H87 H 0.33168 0.84769 0.48468 0.0
H88 H 0.2072 0.88152 0.48002 0.0
H89 H 0.2624 0.96465 0.51261 0.0
C90 C 0.36194 0.00244 0.53474 0.0
C91 C 0.41348 0.01696 0.5442 0.0
C92 C 0.32907 0.95418 0.51734 0.0
C93 C 0.43099 0.98188 0.53741 0.0
C94 C 0.3987 0.93415 0.52029 0.0
C95 C 0.31649 0.8732 0.49072 0.0
C96 C 0.26569 0.85882 0.47952 0.0
C97 C 0.34807 0.92028 0.50959 0.0
C98 C 0.24635 0.89192 0.4882 0.0
C99 C 0.27789 0.93939 0.50681 0.0
H100 H 0.49243 0.34927 0.62509 0.0
H101 H 0.34443 0.21559 0.64783 0.0
H102 H 0.31241 0.27027 0.67569 0.0
H103 H 0.32746 0.35692 0.69407 0.0
H104 H 0.47768 0.48857 0.67163 0.0
H105 H 0.50757 0.43363 0.64342 0.0
C106 C 0.45303 0.33189 0.63595 0.0
C107 C 0.42085 0.27845 0.63424 0.0
C108 C 0.43527 0.36327 0.65223 0.0
C109 C 0.37 0.25671 0.64872 0.0
C110 C 0.35173 0.28796 0.66471 0.0
C111 C 0.36671 0.37348 0.68309 0.0
C112 C 0.40009 0.42696 0.68512 0.0
C113 C 0.38416 0.34142 0.66677 0.0
C114 C 0.45093 0.44768 0.67068 0.0
C115 C 0.46823 0.41629 0.65437 0.0
H116 H 0.99356 0.43653 0.83826 0.0
H117 H 0.9802 0.2989 0.89152 0.0
H118 H 0.06216 0.31754 0.86004 0.0
H119 H 0.13832 0.37424 0.81743 0.0
H120 H 0.14699 0.50982 0.7635 0.0
H121 H 0.06595 0.49024 0.79497 0.0
C122 C 0.00856 0.41061 0.84334 0.0
C123 C 0.98102 0.36669 0.86761 0.0
C124 C 0.05482 0.42104 0.82472 0.0
C125 C 0.00078 0.33317 0.87314 0.0
C126 C 0.04757 0.34377 0.85507 0.0
C127 C 0.12219 0.39919 0.81239 0.0
C128 C 0.14896 0.44355 0.78819 0.0
C129 C 0.07499 0.38769 0.83071 0.0
C130 C 0.1275 0.47551 0.78199 0.0
C131 C 0.08109 0.46447 0.80007 0.0
H132 H 0.64278 0.95811 0.03384 0.0
H133 H 0.52295 -0.00232 0.04882 0.0
H134 H 0.57889 0.0823 0.02053 0.0
H135 H 0.65908 0.14325 0.98773 0.0
H136 H 0.78106 0.10716 0.97321 0.0
H137 H 0.72703 0.02301 0.00506 0.0
C138 C 0.62923 0.98553 0.03145 0.0
C139 C 0.57844 0.97117 0.0431 0.0
C140 C 0.66167 0.0345 0.01474 0.0
C141 C 0.56158 0.0073 0.03978 0.0
C142 C 0.59351 0.0558 0.02349 0.0
C143 C 0.67391 0.11698 -0.00856 0.0
C144 C 0.7236 0.13098 0.97757 0.0
C145 C 0.64308 0.06936 0.01008 0.0
C146 C 0.74269 0.097 0.98339 0.0
C147 C 0.71184 0.04897 0.00162 0.0
H148 H 0.65581 0.62612 0.19863 0.0
H149 H 0.50785 0.49448 0.17048 0.0
H150 H 0.47987 0.54974 0.13902 0.0
H151 H 0.4963 0.63452 0.11923 0.0
H152 H 0.64184 0.768 0.14832 0.0
H153 H 0.67182 0.71296 0.17942 0.0
C154 C 0.61745 0.60961 0.1857 0.0
C155 C 0.58414 0.55605 0.18705 0.0
C156 C 0.60112 0.64185 0.16761 0.0
C157 C 0.53444 0.53543 0.17014 0.0
C158 C 0.51829 0.567 0.15194 0.0
C159 C 0.53475 0.65174 0.13215 0.0
C160 C 0.56689 0.70526 0.13121 0.0
C161 C 0.55125 0.62012 0.15042 0.0
C162 C 0.61637 0.72684 0.14854 0.0
C163 C 0.63347 0.69538 0.16637 0.0
H164 H 0.00278 0.5636 0.325 0.0
H165 H 0.00806 0.69158 0.38835 0.0
H166 H 0.9236 0.67013 0.35996 0.0
H167 H 0.84674 0.61249 0.31848 0.0
H168 H 0.84517 0.48585 0.25538 0.0
H169 H 0.92987 0.50968 0.2822 0.0
C170 C 0.98557 0.58689 0.33282 0.0
C171 C 0.01146 0.62877 0.35915 0.0
C172 C 0.93762 0.57463 0.31627 0.0
C173 C 0.98882 0.65895 0.36827 0.0
C174 C 0.94055 0.64669 0.35204 0.0
C175 C 0.86523 0.5905 0.31038 0.0
C176 C 0.83939 0.54725 0.28513 0.0
C177 C 0.91438 0.60432 0.32615 0.0
C178 C 0.86388 0.51911 0.27491 0.0
C179 C 0.9124 0.53263 0.29027 0.0
H180 H 0.54675 0.313 0.48331 0.0
H181 H 0.58962 0.20905 0.42886 0.0
H182 H 0.60862 0.25638 0.36502 0.0
H183 H 0.61718 0.32937 0.32573 0.0
H184 H 0.58176 0.4382 0.38102 0.0
H185 H 0.55544 0.38687 0.44343 0.0
C186 C 0.55979 0.30056 0.45729 0.0
C187 C 0.56673 0.25761 0.4607 0.0
C188 C 0.57214 0.3289 0.42095 0.0
C189 C 0.58426 0.24217 0.427 0.0
C190 C 0.59506 0.26914 0.39049 0.0
C191 C 0.60319 0.34161 0.35129 0.0
C192 C 0.60117 0.38734 0.34877 0.0
C193 C 0.58973 0.31287 0.38728 0.0
C194 C 0.58366 0.4031 0.3823 0.0
C195 C 0.56866 0.3738 0.41795 0.0
H196 H 0.26575 0.63272 0.48461 0.0
H197 H 0.12881 0.59949 0.55175 0.0
H198 H 0.15938 0.56996 0.6095 0.0
H199 H 0.22811 0.55903 0.64218 0.0
H200 H 0.36795 0.60055 0.57605 0.0
H201 H 0.33306 0.62125 0.51639 0.0
C202 C 0.24219 0.61845 0.51168 0.0
C203 C 0.19501 0.6181 0.51391 0.0
C204 C 0.26076 0.60333 0.54496 0.0
C205 C 0.16529 0.60011 0.54937 0.0
C206 C 0.1828 0.58333 0.58235 0.0
C207 C 0.25055 0.57205 0.61449 0.0
C208 C 0.30043 0.57822 0.61334 0.0
C209 C 0.2309 0.58554 0.5807 0.0
C210 C 0.32955 0.59576 0.5776 0.0
C211 C 0.30963 0.60755 0.54352 0.0
H212 H 0.67503 0.21953 0.82196 0.0
H213 H 0.79079 0.35208 0.75768 0.0
H214 H 0.73703 0.32622 0.6969 0.0
H215 H 0.65524 0.26962 0.66356 0.0
H216 H 0.5358 0.14041 0.72852 0.0
H217 H 0.59276 0.16112 0.7875 0.0
C218 C 0.68861 0.24219 0.7944 0.0
C219 C 0.73672 0.28754 0.79414 0.0
C220 C 0.65668 0.22798 0.7599 0.0
C221 C 0.75375 0.31711 0.75854 0.0
C222 C 0.72305 0.3024 0.72383 0.0
C223 C 0.64174 0.24566 0.69047 0.0
C224 C 0.59139 0.20359 0.69169 0.0
C225 C 0.67412 0.25849 0.72441 0.0
C226 C 0.5744 0.17314 0.7269 0.0
C227 C 0.60694 0.18495 0.7606 0.0
H228 H 0.38657 0.66282 0.8132 0.0
H229 H 0.40343 0.54477 0.87472 0.0
H230 H 0.43463 0.59833 0.93545 0.0
H231 H 0.44983 0.67573 0.97278 0.0
H232 H 0.42533 0.78959 0.91219 0.0
H233 H 0.40493 0.74094 0.84916 0.0
C234 C 0.39766 0.649 0.83971 0.0
C235 C 0.39255 0.59987 0.83955 0.0
C236 C 0.41402 0.67924 0.87472 0.0
C237 C 0.40681 0.58241 0.8742 0.0
C238 C 0.4246 0.61298 0.90891 0.0
C239 C 0.44089 0.69018 0.94553 0.0
C240 C 0.43903 0.73605 0.94696 0.0
C241 C 0.42735 0.66105 0.90977 0.0
C242 C 0.42673 0.7542 0.91173 0.0
C243 C 0.41501 0.7264 0.87576 0.0
H244 H 0.71553 0.34658 -0.00788 0.0
H245 H 0.856 0.3878 0.05757 0.0
H246 H 0.82393 0.41456 0.11568 0.0
H247 H 0.75405 0.42286 0.14858 0.0
H248 H 0.61109 0.37379 0.08428 0.0
H249 H 0.64607 0.35352 0.0248 0.0
C250 C 0.73941 0.3619 0.01894 0.0
C251 C 0.78822 0.36565 0.02051 0.0
C252 C 0.72009 0.37554 0.05242 0.0
C253 C 0.81832 0.38469 0.0557 0.0
C254 C 0.79998 0.39992 0.08886 0.0
C255 C 0.73084 0.40814 0.12137 0.0
C256 C 0.68018 0.40002 0.12064 0.0
C257 C 0.75068 0.39507 0.08768 0.0
C258 C 0.65012 0.3802 0.08552 0.0
C259 C 0.6701 0.36868 0.05153 0.0
H260 H 0.23056 0.66068 0.25621 0.0
H261 H 0.31863 0.79456 0.33025 0.0
H262 H 0.38512 0.83195 0.27768 0.0
H263 H 0.42043 0.82384 0.21201 0.0
H264 H 0.32908 0.6909 0.1376 0.0
H265 H 0.26177 0.65593 0.18895 0.0
C266 C 0.26414 0.69822 0.26071 0.0
C267 C 0.26999 0.72461 0.29712 0.0
C268 C 0.3018 0.71949 0.23039 0.0
C269 C 0.31327 0.77354 0.30237 0.0
C270 C 0.35142 0.79478 0.27244 0.0
C271 C 0.38566 0.78737 0.20708 0.0
C272 C 0.37995 0.75979 0.17127 0.0
C273 C 0.3465 0.76768 0.23658 0.0
C274 C 0.33444 0.71288 0.16494 0.0
C275 C 0.29591 0.69275 0.19431 0.0
loop_
_geom_bond_atom_site_label_1
_geom_bond_atom_site_label_2
_geom_bond_distance
_geom_bond_site_symmetry_2
_ccdc_geom_bond_type
C0 O1 1.306 . S
C0 O3 1.160 . S
O1 C0 1.306 . S
O1 Cd2 2.228 . S
Cd2 O1 2.228 . S
Cd2 O6 2.273 . S
Cd2 O10 2.277 . S
O3 C0 1.160 . S
O3 Cd4 2.203 . S
Cd4 O3 2.203 . S
Cd4 O6 2.411 . S
Cd4 O7 2.333 . S
Cd4 O8 2.352 . S
Cd4 O12 2.277 . S
Cd4 O13 2.356 . S
C5 O10 1.209 . S
C5 O12 1.226 . S
O6 Cd2 2.273 . S
O6 Cd4 2.411 . S
O6 C9 1.320 . S
O7 Cd4 2.333 . S
O7 C9 1.214 . S
O8 Cd4 2.352 . S
O8 C11 1.258 . S
C9 O6 1.320 . S
C9 O7 1.214 . S
O10 Cd2 2.277 . S
O10 C5 1.209 . S
C11 O8 1.258 . S
C11 O13 1.282 . S
O12 Cd4 2.277 . S
O12 C5 1.226 . S
O13 Cd4 2.356 . S
O13 C11 1.282 . S
C14 O15 1.306 . S
C14 O17 1.160 . S
O15 C14 1.306 . S
O15 Cd16 2.228 . S
Cd16 O15 2.228 . S
Cd16 O20 2.273 . S
Cd16 O24 2.277 . S
O17 C14 1.160 . S
O17 Cd18 2.203 . S
Cd18 O17 2.203 . S
Cd18 O20 2.411 . S
Cd18 O21 2.333 . S
Cd18 O22 2.352 . S
Cd18 O26 2.277 . S
Cd18 O27 2.356 . S
C19 O24 1.209 . S
C19 O26 1.226 . S
O20 Cd16 2.273 . S
O20 Cd18 2.411 . S
O20 C23 1.320 . S
O21 Cd18 2.333 . S
O21 C23 1.214 . S
O22 Cd18 2.352 . S
O22 C25 1.258 . S
C23 O20 1.320 . S
C23 O21 1.214 . S
O24 Cd16 2.277 . S
O24 C19 1.209 . S
C25 O22 1.258 . S
C25 O27 1.282 . S
O26 Cd18 2.277 . S
O26 C19 1.226 . S
O27 Cd18 2.356 . S
O27 C25 1.282 . S
C28 O29 1.306 . S
C28 O31 1.160 . S
O29 C28 1.306 . S
O29 Cd30 2.228 . S
Cd30 O29 2.228 . S
Cd30 O34 2.273 . S
Cd30 O38 2.277 . S
O31 C28 1.160 . S
O31 Cd32 2.203 . S
Cd32 O31 2.203 . S
Cd32 O34 2.411 . S
Cd32 O35 2.333 . S
Cd32 O36 2.352 . S
Cd32 O40 2.277 . S
Cd32 O41 2.356 . S
C33 O38 1.209 . S
C33 O40 1.226 . S
O34 Cd30 2.273 . S
O34 Cd32 2.411 . S
O34 C37 1.320 . S
O35 Cd32 2.333 . S
O35 C37 1.214 . S
O36 Cd32 2.352 . S
O36 C39 1.258 . S
C37 O34 1.320 . S
C37 O35 1.214 . S
O38 Cd30 2.277 . S
O38 C33 1.209 . S
C39 O36 1.258 . S
C39 O41 1.282 . S
O40 Cd32 2.277 . S
O40 C33 1.226 . S
O41 Cd32 2.356 . S
O41 C39 1.282 . S
C42 O43 1.306 . S
C42 O45 1.160 . S
O43 C42 1.306 . S
O43 Cd44 2.228 . S
Cd44 O43 2.228 . S
Cd44 O48 2.273 . S
Cd44 O52 2.277 . S
O45 C42 1.160 . S
O45 Cd46 2.203 . S
Cd46 O45 2.203 . S
Cd46 O48 2.411 . S
Cd46 O49 2.333 . S
Cd46 O50 2.352 . S
Cd46 O54 2.277 . S
Cd46 O55 2.356 . S
C47 O52 1.209 . S
C47 O54 1.226 . S
O48 Cd44 2.273 . S
O48 Cd46 2.411 . S
O48 C51 1.320 . S
O49 Cd46 2.333 . S
O49 C51 1.214 . S
O50 Cd46 2.352 . S
O50 C53 1.258 . S
C51 O48 1.320 . S
C51 O49 1.214 . S
O52 Cd44 2.277 . S
O52 C47 1.209 . S
C53 O50 1.258 . S
C53 O55 1.282 . S
O54 Cd46 2.277 . S
O54 C47 1.226 . S
O55 Cd46 2.356 . S
O55 C53 1.282 . S
C56 O57 1.306 . S
C56 O59 1.160 . S
O57 C56 1.306 . S
O57 Cd58 2.228 . S
Cd58 O57 2.228 . S
Cd58 O62 2.273 . S
Cd58 O66 2.277 . S
O59 C56 1.160 . S
O59 Cd60 2.203 . S
Cd60 O59 2.203 . S
Cd60 O62 2.411 . S
Cd60 O63 2.333 . S
Cd60 O64 2.352 . S
Cd60 O68 2.277 . S
Cd60 O69 2.356 . S
C61 O66 1.209 . S
C61 O68 1.226 . S
O62 Cd58 2.273 . S
O62 Cd60 2.411 . S
O62 C65 1.320 . S
O63 Cd60 2.333 . S
O63 C65 1.214 . S
O64 Cd60 2.352 . S
O64 C67 1.258 . S
C65 O62 1.320 . S
C65 O63 1.214 . S
O66 Cd58 2.277 . S
O66 C61 1.209 . S
C67 O64 1.258 . S
C67 O69 1.282 . S
O68 Cd60 2.277 . S
O68 C61 1.226 . S
O69 Cd60 2.356 . S
O69 C67 1.282 . S
C70 O71 1.306 . S
C70 O73 1.160 . S
O71 C70 1.306 . S
O71 Cd72 2.228 . S
Cd72 O71 2.228 . S
Cd72 O76 2.273 . S
Cd72 O80 2.277 . S
O73 C70 1.160 . S
O73 Cd74 2.203 . S
Cd74 O73 2.203 . S
Cd74 O76 2.411 . S
Cd74 O77 2.333 . S
Cd74 O78 2.352 . S
Cd74 O82 2.277 . S
Cd74 O83 2.356 . S
C75 O80 1.209 . S
C75 O82 1.226 . S
O76 Cd72 2.273 . S
O76 Cd74 2.411 . S
O76 C79 1.320 . S
O77 Cd74 2.333 . S
O77 C79 1.214 . S
O78 Cd74 2.352 . S
O78 C81 1.258 . S
C79 O76 1.320 . S
C79 O77 1.214 . S
O80 Cd72 2.277 . S
O80 C75 1.209 . S
C81 O78 1.258 . S
C81 O83 1.282 . S
O82 Cd74 2.277 . S
O82 C75 1.226 . S
O83 Cd74 2.356 . S
O83 C81 1.282 . S
H84 C90 0.930 . S
H85 C93 0.930 . S
H86 C94 0.930 . S
H87 C95 0.930 . S
H88 C98 0.930 . S
H89 C99 0.930 . S
C90 H84 0.930 . S
C90 C91 1.355 . S
C90 C92 1.415 . S
C91 C90 1.355 . S
C91 C93 1.419 . S
C92 C90 1.415 . S
C92 C97 1.425 . S
C92 C99 1.409 1_545 S
C93 H85 0.930 . S
C93 C91 1.419 . S
C93 C94 1.362 . S
C94 H86 0.930 . S
C94 C93 1.362 . S
C94 C97 1.409 . S
C95 H87 0.930 . S
C95 C96 1.355 . S
C95 C97 1.415 1_565 S
C96 C95 1.355 . S
C96 C98 1.419 . S
C97 C92 1.425 . S
C97 C94 1.409 . S
C97 C95 1.415 1_545 S
C98 H88 0.930 . S
C98 C96 1.419 . S
C98 C99 1.362 . S
C99 H89 0.930 . S
C99 C92 1.409 1_565 S
C99 C98 1.362 . S
H100 C106 0.930 . S
H101 C109 0.930 . S
H102 C110 0.930 . S
H103 C111 0.930 . S
H104 C114 0.930 . S
H105 C115 0.930 . S
C106 H100 0.930 . S
C106 C107 1.355 . S
C106 C108 1.415 . S
C107 C106 1.355 . S
C107 C109 1.419 . S
C108 C106 1.415 . S
C108 C113 1.425 . S
C108 C115 1.409 . S
C109 H101 0.930 . S
C109 C107 1.419 . S
C109 C110 1.362 . S
C110 H102 0.930 . S
C110 C109 1.362 . S
C110 C113 1.409 . S
C111 H103 0.930 . S
C111 C112 1.355 . S
C111 C113 1.415 . S
C112 C111 1.355 . S
C112 C114 1.419 . S
C113 C108 1.425 . S
C113 C110 1.409 . S
C113 C111 1.415 . S
C114 H104 0.930 . S
C114 C112 1.419 . S
C114 C115 1.362 . S
C115 H105 0.930 . S
C115 C108 1.409 . S
C115 C114 1.362 . S
H116 C122 0.930 . S
H117 C125 0.930 . S
H118 C126 0.930 . S
H119 C127 0.930 . S
H120 C130 0.930 . S
H121 C131 0.944 . S
C122 H116 0.930 . S
C122 C123 1.355 . S
C122 C124 1.415 . S
C123 C122 1.355 . S
C123 C125 1.419 . S
C124 C122 1.415 . S
C124 C129 1.415 1_655 S
C124 C131 1.410 . S
C125 H117 0.930 . S
C125 C123 1.419 . S
C125 C126 1.362 . S
C126 H118 0.930 . S
C126 C125 1.362 . S
C126 C129 1.408 1_655 S
C127 H119 0.930 . S
C127 C128 1.355 . S
C127 C129 1.425 . S
C128 C127 1.355 . S
C128 C130 1.419 . S
C129 C124 1.415 1_455 S
C129 C126 1.408 1_455 S
C129 C127 1.425 . S
C130 H120 0.930 . S
C130 C128 1.419 . S
C130 C131 1.348 1_455 S
C131 H121 0.944 . S
C131 C124 1.410 . S
C131 C130 1.348 1_655 S
H132 C138 0.930 . S
H133 C141 0.930 . S
H134 C142 0.930 . S
H135 C143 0.930 . S
H136 C146 0.930 . S
H137 C147 0.930 . S
C138 H132 0.930 . S
C138 C139 1.355 . S
C138 C140 1.415 . S
C139 C138 1.355 . S
C139 C141 1.419 1_554 S
C140 C138 1.415 . S
C140 C145 1.425 1_554 S
C140 C147 1.409 1_565 S
C141 H133 0.930 . S
C141 C139 1.419 1_556 S
C141 C142 1.362 . S
C142 H134 0.930 . S
C142 C141 1.362 . S
C142 C145 1.409 . S
C143 H135 0.930 . S
C143 C144 1.355 . S
C143 C145 1.415 1_545 S
C144 C143 1.355 . S
C144 C146 1.419 1_556 S
C145 C140 1.425 1_556 S
C145 C142 1.409 . S
C145 C143 1.415 1_565 S
C146 H136 0.930 . S
C146 C144 1.419 1_554 S
C146 C147 1.362 . S
C147 H137 0.930 . S
C147 C140 1.409 1_545 S
C147 C146 1.362 . S
H148 C154 0.930 . S
H149 C157 0.930 . S
H150 C158 0.930 . S
H151 C159 0.930 . S
H152 C162 0.930 . S
H153 C163 0.930 . S
C154 H148 0.930 . S
C154 C155 1.355 . S
C154 C156 1.415 . S
C155 C154 1.355 . S
C155 C157 1.419 . S
C156 C154 1.415 . S
C156 C161 1.425 . S
C156 C163 1.409 . S
C157 H149 0.930 . S
C157 C155 1.419 . S
C157 C158 1.362 . S
C158 H150 0.930 . S
C158 C157 1.362 . S
C158 C161 1.409 . S
C159 H151 0.930 . S
C159 C160 1.355 . S
C159 C161 1.415 . S
C160 C159 1.355 . S
C160 C162 1.419 . S
C161 C156 1.425 . S
C161 C158 1.409 . S
C161 C159 1.415 . S
C162 H152 0.930 . S
C162 C160 1.419 . S
C162 C163 1.362 . S
C163 H153 0.930 . S
C163 C156 1.409 . S
C163 C162 1.362 . S
H164 C170 0.930 . S
H165 C173 0.930 . S
H166 C174 0.930 . S
H167 C175 0.930 . S
H168 C178 0.930 . S
H169 C179 0.930 . S
C170 H164 0.930 . S
C170 C171 1.355 . S
C170 C172 1.415 . S
C171 C170 1.355 . S
C171 C173 1.419 . S
C172 C170 1.415 . S
C172 C177 1.425 . S
C172 C179 1.409 1_455 S
C173 H165 0.930 . S
C173 C171 1.419 . S
C173 C174 1.362 . S
C174 H166 0.930 . S
C174 C173 1.362 . S
C174 C177 1.409 . S
C175 H167 0.930 . S
C175 C176 1.355 . S
C175 C177 1.415 1_655 S
C176 C175 1.355 . S
C176 C178 1.419 . S
C177 C172 1.425 . S
C177 C174 1.409 . S
C177 C175 1.415 1_455 S
C178 H168 0.930 . S
C178 C176 1.419 . S
C178 C179 1.362 . S
C179 H169 0.930 . S
C179 C172 1.409 1_655 S
C179 C178 1.362 . S
H180 C186 0.930 . S
H181 C189 0.930 . S
H182 C190 0.930 . S
H183 C191 0.930 . S
H184 C194 0.930 . S
H185 C195 0.930 . S
C186 H180 0.930 . S
C186 C187 1.355 . S
C186 C188 1.415 . S
C187 C186 1.355 . S
C187 C189 1.419 . S
C188 C186 1.415 . S
C188 C193 1.425 . S
C188 C195 1.409 . S
C189 H181 0.930 . S
C189 C187 1.419 . S
C189 C190 1.362 . S
C190 H182 0.930 . S
C190 C189 1.362 . S
C190 C193 1.409 . S
C191 H183 0.930 . S
C191 C192 1.355 . S
C191 C193 1.415 . S
C192 C191 1.355 . S
C192 C194 1.419 . S
C193 C188 1.425 . S
C193 C190 1.409 . S
C193 C191 1.415 . S
C194 H184 0.930 . S
C194 C192 1.419 . S
C194 C195 1.362 . S
C195 H185 0.930 . S
C195 C188 1.409 . S
C195 C194 1.362 . S
H196 C202 0.930 . S
H197 C205 0.930 . S
H198 C206 0.930 . S
H199 C207 0.930 . S
H200 C210 0.930 . S
H201 C211 0.930 . S
C202 H196 0.930 . S
C202 C203 1.355 . S
C202 C204 1.415 . S
C203 C202 1.355 . S
C203 C205 1.419 . S
C204 C202 1.415 . S
C204 C209 1.425 . S
C204 C211 1.409 . S
C205 H197 0.930 . S
C205 C203 1.419 . S
C205 C206 1.362 . S
C206 H198 0.930 . S
C206 C205 1.362 . S
C206 C209 1.409 . S
C207 H199 0.930 . S
C207 C208 1.355 . S
C207 C209 1.415 . S
C208 C207 1.355 . S
C208 C210 1.419 . S
C209 C204 1.425 . S
C209 C206 1.409 . S
C209 C207 1.415 . S
C210 H200 0.930 . S
C210 C208 1.419 . S
C210 C211 1.362 . S
C211 H201 0.930 . S
C211 C204 1.409 . S
C211 C210 1.362 . S
H212 C218 0.930 . S
H213 C221 0.930 . S
H214 C222 0.930 . S
H215 C223 0.930 . S
H216 C226 0.930 . S
H217 C227 0.930 . S
C218 H212 0.930 . S
C218 C219 1.355 . S
C218 C220 1.415 . S
C219 C218 1.355 . S
C219 C221 1.419 . S
C220 C218 1.415 . S
C220 C225 1.425 . S
C220 C227 1.409 . S
C221 H213 0.930 . S
C221 C219 1.419 . S
C221 C222 1.362 . S
C222 H214 0.930 . S
C222 C221 1.362 . S
C222 C225 1.409 . S
C223 H215 0.930 . S
C223 C224 1.355 . S
C223 C225 1.415 . S
C224 C223 1.355 . S
C224 C226 1.419 . S
C225 C220 1.425 . S
C225 C222 1.409 . S
C225 C223 1.415 . S
C226 H216 0.930 . S
C226 C224 1.419 . S
C226 C227 1.362 . S
C227 H217 0.930 . S
C227 C220 1.409 . S
C227 C226 1.362 . S
H228 C234 0.930 . S
H229 C237 0.930 . S
H230 C238 0.930 . S
H231 C239 0.930 . S
H232 C242 0.930 . S
H233 C243 0.930 . S
C234 H228 0.930 . S
C234 C235 1.355 . S
C234 C236 1.415 . S
C235 C234 1.355 . S
C235 C237 1.419 . S
C236 C234 1.415 . S
C236 C241 1.425 . S
C236 C243 1.409 . S
C237 H229 0.930 . S
C237 C235 1.419 . S
C237 C238 1.362 . S
C238 H230 0.930 . S
C238 C237 1.362 . S
C238 C241 1.409 . S
C239 H231 0.930 . S
C239 C240 1.355 . S
C239 C241 1.415 . S
C240 C239 1.355 . S
C240 C242 1.419 . S
C241 C236 1.425 . S
C241 C238 1.409 . S
C241 C239 1.415 . S
C242 H232 0.930 . S
C242 C240 1.419 . S
C242 C243 1.362 . S
C243 H233 0.930 . S
C243 C236 1.409 . S
C243 C242 1.362 . S
H244 C250 0.930 . S
H245 C253 0.930 . S
H246 C254 0.930 . S
H247 C255 0.930 . S
H248 C258 0.930 . S
H249 C259 0.930 . S
C250 H244 0.930 . S
C250 C251 1.355 . S
C250 C252 1.415 . S
C251 C250 1.355 . S
C251 C253 1.419 . S
C252 C250 1.415 . S
C252 C257 1.425 . S
C252 C259 1.409 . S
C253 H245 0.930 . S
C253 C251 1.419 . S
C253 C254 1.362 . S
C254 H246 0.930 . S
C254 C253 1.362 . S
C254 C257 1.409 . S
C255 H247 0.930 . S
C255 C256 1.355 . S
C255 C257 1.415 . S
C256 C255 1.355 . S
C256 C258 1.419 . S
C257 C252 1.425 . S
C257 C254 1.409 . S
C257 C255 1.415 . S
C258 H248 0.930 . S
C258 C256 1.419 . S
C258 C259 1.362 . S
C259 H249 0.930 . S
C259 C252 1.409 . S
C259 C258 1.362 . S
H260 C266 0.930 . S
H261 C269 0.930 . S
H262 C270 0.930 . S
H263 C271 0.930 . S
H264 C274 0.930 . S
H265 C275 0.930 . S
C266 H260 0.930 . S
C266 C267 1.355 . S
C266 C268 1.415 . S
C267 C266 1.355 . S
C267 C269 1.419 . S
C268 C266 1.415 . S
C268 C273 1.425 . S
C268 C275 1.409 . S
C269 H261 0.930 . S
C269 C267 1.419 . S
C269 C270 1.362 . S
C270 H262 0.930 . S
C270 C269 1.362 . S
C270 C273 1.409 . S
C271 H263 0.930 . S
C271 C272 1.355 . S
C271 C273 1.415 . S
C272 C271 1.355 . S
C272 C274 1.419 . S
C273 C268 1.425 . S
C273 C270 1.409 . S
C273 C271 1.415 . S
C274 H264 0.930 . S
C274 C272 1.419 . S
C274 C275 1.362 . S
C275 H265 0.930 . S
C275 C268 1.409 . S
C275 C274 1.362 . S
C91 C5 1.587 . S
C96 C81 1.572 . S
C107 C11 1.573 . S
C112 C19 1.592 . S
C123 C33 1.589 . S
C128 C25 1.595 . S
C139 C47 1.588 . S
C144 C39 1.572 . S
C155 C61 1.594 . S
C160 C53 1.578 . S
C171 C75 1.586 . S
C176 C67 1.575 . S
C187 C0 1.439 . S
C192 C65 1.468 . S
C203 C79 1.460 . S
C208 C14 1.463 . S
C219 C28 1.467 . S
C224 C9 1.453 . S
C235 C23 1.452 . S
C240 C42 1.464 1_556 S
C251 C37 1.459 1_554 S
C256 C56 1.437 . S
C267 C70 1.444 . S
C272 C51 1.467 . S
