# Generated by pormake.
# Topology sxb, (6)-cn, num edge types: 1
# Building blocks:
#     Node 0, Type 0, BuildingBlock: CUWYAW_clean_sbu_0, # of connection points: 6
#     Node 1, Type 0, BuildingBlock: CUWYAW_clean_sbu_0, # of connection points: 6
#     Node 2, Type 0, BuildingBlock: CUWYAW_clean_sbu_0, # of connection points: 6
#     Node 3, Type 0, BuildingBlock: CUWYAW_clean_sbu_0, # of connection points: 6
#     Edge 4, Type (0, 0), BuildingBlock: TEMPAE_clean_linker_10, # of connection points: 2
#     Edge 5, Type (0, 0), BuildingBlock: TEMPAE_clean_linker_10, # of connection points: 2
#     Edge 6, Type (0, 0), BuildingBlock: TEMPAE_clean_linker_10, # of connection points: 2
#     Edge 7, Type (0, 0), BuildingBlock: TEMPAE_clean_linker_10, # of connection points: 2
#     Edge 8, Type (0, 0), BuildingBlock: TEMPAE_clean_linker_10, # of connection points: 2
#     Edge 9, Type (0, 0), BuildingBlock: TEMPAE_clean_linker_10, # of connection points: 2
#     Edge 10, Type (0, 0), BuildingBlock: TEMPAE_clean_linker_10, # of connection points: 2
#     Edge 11, Type (0, 0), BuildingBlock: TEMPAE_clean_linker_10, # of connection points: 2
#     Edge 12, Type (0, 0), BuildingBlock: TEMPAE_clean_linker_10, # of connection points: 2
#     Edge 13, Type (0, 0), BuildingBlock: TEMPAE_clean_linker_10, # of connection points: 2
#     Edge 14, Type (0, 0), BuildingBlock: TEMPAE_clean_linker_10, # of connection points: 2
#     Edge 15, Type (0, 0), BuildingBlock: TEMPAE_clean_linker_10, # of connection points: 2
# Relax obj value: 0.431
# Max RMSD: 0.114
# Mean RMSD: 0.091
data_MOF--net-sxb--node1-CUWYAW_clean_sbu_0--edge1-TEMPAE_clean_linker_10
_symmetry_space_group_name_H-M    P1
_symmetry_Int_Tables_number       1
_symmetry_cell_setting            triclinic
loop_
_symmetry_equiv_pos_as_xyz
'x, y, z'
_cell_length_a     17.676993
_cell_length_b     35.742814
_cell_length_c     30.975536
_cell_angle_alpha  95.904121
_cell_angle_beta   93.674425
_cell_angle_gamma 69.966222
loop_
_atom_site_label
_atom_site_type_symbol
_atom_site_fract_x
_atom_site_fract_y
_atom_site_fract_z
_atom_type_partial_charge
C0 C 0.27105 0.08002 0.97539 0.0
Eu1 Eu 0.16096 1.04706 0.96902 0.0
C2 C 0.2653 0.11857 0.95975 0.0
C3 C 0.24056 0.12673 0.91671 0.0
C4 C 0.23964 0.16223 0.9014 0.0
C5 C 0.26445 0.19026 0.92869 0.0
C6 C 0.27673 0.18458 0.97336 0.0
C7 C 0.27875 0.14871 -0.01145 0.0
C8 C 0.10783 1.03112 0.0441 0.0
C9 C 0.19002 0.95165 0.96014 0.0
C10 C 0.89928 1.01659 0.93065 0.0
Eu11 Eu 1.02774 1.03545 0.94964 0.0
C12 C 0.83153 1.03526 0.90103 0.0
C13 C 0.84451 1.04981 0.86257 0.0
C14 C 0.77961 0.0736 0.83839 0.0
C15 C 0.70078 0.08272 0.85203 0.0
C16 C 0.68805 0.06655 0.88948 0.0
C17 C 0.75284 1.04309 0.91373 0.0
C18 C 0.08519 1.05156 0.87552 0.0
C19 C 0.99861 0.13066 0.96058 0.0
O20 O 0.22422 0.08265 0.00717 0.0
O21 O 0.27159 1.05107 0.94577 0.0
O22 O 0.18003 1.01469 0.02996 0.0
O23 O 1.06406 0.05434 0.01687 0.0
O24 O 0.2289 0.97774 0.96082 0.0
O25 O 0.10949 0.96795 0.9601 0.0
O26 O 0.90665 1.03895 0.96559 0.0
O27 O 0.96804 0.99782 0.91253 0.0
O28 O 1.01448 0.07013 0.89035 0.0
O29 O 0.12538 1.02721 0.90235 0.0
O30 O 0.96075 0.10465 0.96278 0.0
O31 O 1.07826 0.11403 0.95737 0.0
H32 H 0.22522 0.10497 0.89418 0.0
H33 H 0.22767 0.1653 0.86702 0.0
H34 H 0.29134 0.20637 -0.0039 0.0
H35 H 0.29342 0.14401 0.02251 0.0
H36 H 0.90488 1.04402 0.85191 0.0
H37 H 0.79109 0.08559 0.80974 0.0
H38 H 0.628 0.07377 0.90145 0.0
H39 H 0.74162 1.03257 0.94347 0.0
C40 C 1.0281 0.15565 0.46753 0.0
Eu41 Eu 1.06605 0.07839 0.46498 0.0
C42 C 1.06251 0.18207 0.49466 0.0
C43 C 0.10732 0.16872 0.53259 0.0
C44 C 0.14916 0.19139 0.55571 0.0
C45 C 0.14745 0.22751 0.54094 0.0
C46 C 0.09891 0.24173 0.50418 0.0
C47 C 1.05672 0.21908 0.48117 0.0
C48 C 1.08169 1.04981 0.54561 0.0
C49 C 0.27647 1.04152 0.46042 0.0
C50 C 0.16658 0.92779 0.4622 0.0
Eu51 Eu 0.12714 1.00412 0.45508 0.0
C52 C 0.13048 0.90565 0.48667 0.0
C53 C 0.1276 0.86854 0.46911 0.0
C54 C 1.08338 0.84994 0.48918 0.0
C55 C 1.04163 0.86819 0.52726 0.0
C56 C 1.04828 0.90447 0.54597 0.0
C57 C 0.09187 0.92321 0.52567 0.0
C58 C 0.11317 1.03236 0.37446 0.0
C59 C 0.91851 1.04085 0.4581 0.0
O60 O 1.0763 0.13098 0.43905 0.0
O61 O 0.99026 0.1381 0.48852 0.0
O62 O 1.01621 0.07379 0.52952 0.0
O63 O 0.1356 1.04001 0.5176 0.0
O64 O 0.20866 0.07408 0.46488 0.0
O65 O 0.26004 1.00749 0.45563 0.0
O66 O 0.1999 0.9507 0.48558 0.0
O67 O 0.1222 0.94556 0.43006 0.0
O68 O 0.17823 1.00788 0.39073 0.0
O69 O 1.05846 1.04276 0.40221 0.0
O70 O 0.98647 1.01013 0.46684 0.0
O71 O 0.93565 0.07289 0.44942 0.0
H72 H 0.11256 0.13999 0.54334 0.0
H73 H 0.18573 0.17983 0.58396 0.0
H74 H 0.09759 0.26909 0.49151 0.0
H75 H 1.02266 0.22959 0.45184 0.0
H76 H 0.1565 0.85484 0.43885 0.0
H77 H 1.07825 0.82238 0.47344 0.0
H78 H 1.01742 0.91906 0.57544 0.0
H79 H 0.0929 0.95212 0.53962 0.0
C80 C 0.78301 0.56653 -0.01127 0.0
Eu81 Eu 0.65759 0.54637 0.96802 0.0
C82 C 0.8325 0.55498 0.02842 0.0
C83 C 0.85291 0.51583 0.04069 0.0
C84 C 0.88888 0.50609 0.08128 0.0
C85 C 0.90553 0.53521 0.11048 0.0
C86 C 0.88234 0.5747 0.09889 0.0
C87 C 0.84622 0.58448 0.05818 0.0
C88 C 0.60649 0.53441 0.04635 0.0
C89 C 0.68569 0.45122 0.95691 0.0
C90 C 0.40288 0.5162 0.96963 0.0
Eu91 Eu 0.52517 0.53707 0.95554 0.0
C92 C 0.36863 0.51959 0.01248 0.0
C93 C 0.28531 0.53441 0.01704 0.0
C94 C 0.25332 0.54268 0.05834 0.0
C95 C 0.30412 0.53698 0.09599 0.0
C96 C 0.3877 0.52107 0.09128 0.0
C97 C 0.41957 0.51236 0.04987 0.0
C98 C 0.56904 0.54712 0.87481 0.0
C99 C 0.50345 0.63083 0.96108 0.0
O100 O 0.78426 0.53789 0.95861 0.0
O101 O 0.71017 0.59056 -0.00364 0.0
O102 O 0.67312 0.51298 0.02886 0.0
O103 O 0.56579 0.55874 0.01986 0.0
O104 O 0.72471 0.47714 0.95874 0.0
O105 O 0.60549 0.46789 0.95653 0.0
O106 O 0.4755 0.49067 0.96522 0.0
O107 O 0.39469 0.54998 0.95416 0.0
O108 O 0.49748 0.56228 0.88988 0.0
O109 O 0.61631 0.526 0.90246 0.0
O110 O 0.46801 0.60636 0.97279 0.0
O111 O 0.57948 0.61206 0.94936 0.0
H112 H 0.84054 0.49266 0.0191 0.0
H113 H 0.90634 0.47541 0.08931 0.0
H114 H 0.89542 0.59767 0.12046 0.0
H115 H 0.8284 0.61514 0.05002 0.0
H116 H 0.24506 0.54028 -0.01126 0.0
H117 H 0.18839 0.55356 0.0607 0.0
H118 H 0.4284 0.51607 0.11943 0.0
H119 H 0.4843 0.50068 0.04713 0.0
C120 C 0.52098 0.65612 0.46193 0.0
Eu121 Eu 0.56157 0.579 0.46458 0.0
C122 C 0.55655 0.68541 0.48129 0.0
C123 C 0.61988 0.6742 0.51221 0.0
C124 C 0.65767 0.70122 0.52873 0.0
C125 C 0.63268 0.73976 0.51444 0.0
C126 C 0.56716 0.75131 0.48461 0.0
C127 C 0.52931 0.7242 0.4681 0.0
C128 C 0.57665 0.55138 0.5455 0.0
C129 C 0.77245 0.54163 0.46147 0.0
C130 C 0.66442 0.42703 0.46339 0.0
Eu131 Eu 0.62393 0.50351 0.4564 0.0
C132 C 0.62114 0.4017 0.47606 0.0
C133 C 0.54213 0.40713 0.46044 0.0
C134 C 0.49892 0.38543 0.47562 0.0
C135 C 0.53376 0.35813 0.50682 0.0
C136 C 0.61282 0.35258 0.52239 0.0
C137 C 0.65639 0.37419 0.50694 0.0
C138 C 0.61023 0.53158 0.376 0.0
C139 C 0.41452 0.54055 0.45791 0.0
O140 O 0.56335 0.63014 0.43228 0.0
O141 O 0.49277 0.6395 0.48949 0.0
O142 O 0.51108 0.57514 0.52908 0.0
O143 O 0.63116 0.54129 0.51769 0.0
O144 O 0.70444 0.57429 0.4641 0.0
O145 O 0.75647 0.50748 0.45872 0.0
O146 O 0.67632 0.45216 0.49435 0.0
O147 O 0.64141 0.44327 0.4268 0.0
O148 O 0.6761 0.50806 0.39273 0.0
O149 O 0.55495 0.54144 0.4034 0.0
O150 O 0.48247 0.50944 0.46563 0.0
O151 O 0.43123 0.57302 0.45036 0.0
H152 H 0.64139 0.64422 0.52269 0.0
H153 H 0.70882 0.69134 0.5511 0.0
H154 H 0.54667 0.78094 0.47327 0.0
H155 H 0.48014 0.73318 0.44438 0.0
H156 H 0.51309 0.42864 0.43712 0.0
H157 H 0.43756 0.39058 0.46361 0.0
H158 H 0.64079 0.33153 0.54634 0.0
H159 H 0.71703 0.36999 0.51964 0.0
C160 C 0.38999 0.69939 -0.01375 0.0
C161 C 0.45826 0.67799 0.96079 0.0
C162 C 0.34869 0.74237 -0.01276 0.0
C163 C 0.37094 0.76746 0.96048 0.0
C164 C 0.43905 0.74567 0.93391 0.0
C165 C 0.48144 0.7029 0.93516 0.0
C166 C 0.28078 0.76042 0.01824 0.0
C167 C 0.46859 0.767 0.90284 0.0
C168 C 0.20037 0.87527 0.94531 0.0
C169 C 0.23618 0.90454 0.96038 0.0
C170 C 0.24234 0.83231 0.94415 0.0
C171 C 0.3242 0.8151 0.96034 0.0
C172 C 0.35993 0.84475 0.97656 0.0
C173 C 0.31755 0.88751 0.97542 0.0
C174 C 0.19685 0.80563 0.92451 0.0
C175 C 0.44417 0.83205 -0.00387 0.0
H176 H 0.36894 0.68244 0.00679 0.0
H177 H 0.53276 0.68871 0.9147 0.0
H178 H 0.26854 0.7928 0.0269 0.0
H179 H 0.2254 0.75614 0.00311 0.0
H180 H 0.29437 0.74496 0.0486 0.0
H181 H 0.48886 0.74749 0.87251 0.0
H182 H 0.42189 0.79527 0.89416 0.0
H183 H 0.52154 0.77383 0.91791 0.0
H184 H 0.13855 0.88594 0.9331 0.0
H185 H 0.34884 0.90794 -0.01243 0.0
H186 H 0.15662 0.80284 0.94912 0.0
H187 H 0.23731 0.77534 0.9132 0.0
H188 H 0.15796 0.81908 0.89659 0.0
H189 H 0.46305 0.80179 0.00784 0.0
H190 H 0.44926 0.85358 0.02375 0.0
H191 H 0.48662 0.83217 0.97132 0.0
C192 C 0.80744 0.38715 0.97842 0.0
C193 C 0.73142 0.4041 0.95691 0.0
C194 C 0.84896 0.3444 0.98015 0.0
C195 C 0.81876 0.31467 0.95775 0.0
C196 C 0.74267 0.33186 0.93491 0.0
C197 C 0.70047 0.37481 0.93585 0.0
C198 C 0.9258 0.33188 0.00735 0.0
C199 C 0.70395 0.30527 0.90813 0.0
C200 C 0.98475 0.20367 0.94138 0.0
C201 C 0.95257 0.17767 0.95983 0.0
C202 C 0.94279 0.24636 0.93943 0.0
C203 C 0.86526 0.26702 0.95836 0.0
C204 C 0.83358 0.24078 0.97805 0.0
C205 C 0.87528 0.19785 0.9775 0.0
C206 C 0.98354 0.26869 0.91586 0.0
C207 C 0.75481 0.25744 0.00098 0.0
H208 H 0.83453 0.40765 -0.00448 0.0
H209 H 0.64287 0.38547 0.91859 0.0
H210 H 0.94163 0.30112 0.01729 0.0
H211 H 0.97571 0.33355 -0.01147 0.0
H212 H 0.92084 0.35272 0.03706 0.0
H213 H 0.67593 0.31892 0.87782 0.0
H214 H 0.74725 0.27501 0.89923 0.0
H215 H 0.6549 0.30242 0.92673 0.0
H216 H 1.04339 0.1904 0.92706 0.0
H217 H 0.84708 0.18 -0.00766 0.0
H218 H 1.03162 0.2745 0.93742 0.0
H219 H 0.9412 0.2975 0.90564 0.0
H220 H 1.01324 0.25017 0.8866 0.0
H221 H 0.73778 0.28994 0.01067 0.0
H222 H 0.75784 0.24174 0.03053 0.0
H223 H 0.70663 0.25201 0.9792 0.0
C224 C 0.18324 0.28873 0.5625 0.0
C225 C 0.20552 0.247 0.55884 0.0
C226 C 0.24197 0.3071 0.56605 0.0
C227 C 0.32433 0.28296 0.56602 0.0
C228 C 0.34668 0.2413 0.56862 0.0
C229 C 0.28679 0.22369 0.56476 0.0
C230 C 0.21578 0.35179 0.56404 0.0
C231 C 0.43384 0.21458 0.56953 0.0
C232 C 0.44557 0.31702 0.49291 0.0
C233 C 0.48665 0.33578 0.52279 0.0
C234 C 0.39432 0.29879 0.5069 0.0
C235 C 0.38398 0.29943 0.55199 0.0
C236 C 0.42777 0.31694 0.58247 0.0
C237 C 0.47891 0.33504 0.56743 0.0
C238 C 0.34957 0.27983 0.47326 0.0
C239 C 0.41853 0.31781 0.6307 0.0
H240 H 0.12023 0.30683 0.55906 0.0
H241 H 0.30462 0.19136 0.56209 0.0
H242 H 0.25416 0.36481 0.58594 0.0
H243 H 0.22222 0.35831 0.53046 0.0
H244 H 0.15187 0.3668 0.57294 0.0
H245 H 0.4413 0.18617 0.58371 0.0
H246 H 0.4555 0.20713 0.53582 0.0
H247 H 0.47245 0.22958 0.58841 0.0
H248 H 0.45277 0.31714 0.45842 0.0
H249 H 0.51063 0.34979 0.59047 0.0
H250 H 0.28367 0.29528 0.47602 0.0
H251 H 0.36255 0.24804 0.47886 0.0
H252 H 0.36614 0.28117 0.4396 0.0
H253 H 0.35862 0.33931 0.63996 0.0
H254 H 0.46551 0.327 0.64989 0.0
H255 H 0.42153 0.28805 0.63963 0.0
C256 C 0.90627 0.87759 0.55503 0.0
C257 C 0.98365 0.85187 0.54375 0.0
C258 C 0.84483 0.86238 0.56093 0.0
C259 C 0.86106 0.82069 0.55442 0.0
C260 C 0.94075 0.79447 0.54733 0.0
C261 C 1.0014 0.81045 0.54247 0.0
C262 C 0.76101 0.89117 0.56974 0.0
C263 C 0.96044 0.74973 0.5403 0.0
C264 C 0.70971 0.76995 0.56955 0.0
C265 C 0.68117 0.76578 0.52665 0.0
C266 C 0.76546 0.78977 0.57986 0.0
C267 C 0.79368 0.80504 0.54628 0.0
C268 C 0.76195 0.80261 0.50335 0.0
C269 C 0.70584 0.78309 0.49411 0.0
C270 C 0.79664 0.79278 0.62613 0.0
C271 C 0.79054 0.81865 0.46659 0.0
H272 H 0.89178 0.90968 0.55603 0.0
H273 H 1.06168 0.79051 0.53491 0.0
H274 H 0.72936 0.87907 0.59155 0.0
H275 H 0.76227 0.92059 0.58464 0.0
H276 H 0.72547 0.89601 0.53871 0.0
H277 H 1.02643 0.73343 0.54123 0.0
H278 H 0.93243 0.73897 0.56521 0.0
H279 H 0.93554 0.7421 0.50811 0.0
H280 H 0.68991 0.75685 0.59478 0.0
H281 H 0.68462 0.77945 0.46085 0.0
H282 H 0.79796 0.82332 0.63581 0.0
H283 H 0.85931 0.77176 0.62894 0.0
H284 H 0.75942 0.78536 0.64923 0.0
H285 H 0.78269 0.85071 0.47451 0.0
H286 H 0.75755 0.81554 0.43543 0.0
H287 H 0.85573 0.80236 0.46196 0.0
C288 C 0.37539 0.21765 0.9266 0.0
C289 C 0.30134 0.21611 0.90877 0.0
C290 C 0.43828 0.21367 0.89938 0.0
C291 C 0.42463 0.2095 0.8538 0.0
C292 C 0.3442 0.22243 0.83747 0.0
C293 C 0.28232 0.22527 0.86537 0.0
C294 C 0.52161 0.20631 0.9196 0.0
C295 C 0.32481 0.22722 0.78988 0.0
C296 C 0.63363 0.1499 0.82352 0.0
C297 C 0.63147 0.11218 0.83092 0.0
C298 C 0.56165 0.18262 0.82101 0.0
C299 C 0.48789 0.17738 0.82857 0.0
C300 C 0.48561 0.13777 0.82651 0.0
C301 C 0.55788 0.10563 0.82702 0.0
C302 C 0.56617 0.2231 0.81499 0.0
C303 C 0.40923 0.12894 0.83161 0.0
H304 H 0.38975 0.21463 0.96082 0.0
H305 H 0.22253 0.2287 0.85174 0.0
H306 H 0.55145 0.22459 0.90534 0.0
H307 H 0.52018 0.21397 0.95529 0.0
H308 H 0.55872 0.17431 0.91339 0.0
H309 H 0.27906 0.25713 0.78599 0.0
H310 H 0.37888 0.22427 0.77158 0.0
H311 H 0.29761 0.20482 0.77561 0.0
H312 H 0.69083 0.15489 0.8241 0.0
H313 H 0.55677 0.07585 0.83004 0.0
H314 H 0.50628 0.24705 0.81597 0.0
H315 H 0.59259 0.22181 0.78307 0.0
H316 H 0.60737 0.23086 0.84008 0.0
H317 H 0.41746 0.09676 0.82389 0.0
H318 H 0.36004 0.14617 0.81011 0.0
H319 H 0.3909 0.13702 0.86579 0.0
C320 C 0.39704 0.07484 0.47735 0.0
C321 C 0.37027 1.04227 0.46034 0.0
C322 C 0.48136 0.07469 0.47839 0.0
C323 C 0.54963 1.04163 0.46033 0.0
C324 C 0.52218 1.00899 0.4423 0.0
C325 C 0.43807 1.00946 0.4434 0.0
C326 C 0.49565 0.11124 0.50066 0.0
C327 C 0.58159 0.97212 0.42022 0.0
C328 C 0.75543 0.0687 0.43897 0.0
C329 C 0.82462 1.04033 0.45864 0.0
C330 C 0.67122 0.06901 0.43851 0.0
C331 C 0.64529 1.0412 0.45998 0.0
C332 C 0.71508 1.01284 0.48072 0.0
C333 C 0.79928 1.01235 0.47909 0.0
C334 C 0.60995 0.10012 0.41328 0.0
C335 C 0.70277 0.98208 0.50655 0.0
H336 H 0.35132 0.10131 0.49139 0.0
H337 H 0.42535 0.98308 0.42954 0.0
H338 H 0.55986 0.10573 0.51018 0.0
H339 H 0.47533 0.13557 0.47855 0.0
H340 H 0.45918 0.12201 0.5302 0.0
H341 H 0.55272 0.96062 0.39145 0.0
H342 H 0.63533 0.97759 0.40955 0.0
H343 H 0.60133 0.94836 0.44303 0.0
H344 H 0.767 0.09137 0.42241 0.0
H345 H 0.84618 0.98955 0.49538 0.0
H346 H 0.59197 0.12911 0.43343 0.0
H347 H 0.55539 0.09222 0.40377 0.0
H348 H 0.63649 0.10447 0.38344 0.0
H349 H 0.63926 0.9897 0.51568 0.0
H350 H 0.74131 0.97867 0.53666 0.0
H351 H 0.72193 0.95269 0.48715 0.0
C352 C 0.95431 0.54542 0.18769 0.0
C353 C 0.96354 0.52299 0.14725 0.0
C354 C 1.02256 0.5437 0.2146 0.0
C355 C 0.10004 0.52261 0.19814 0.0
C356 C 0.10592 0.49196 0.16383 0.0
C357 C 1.03729 0.49316 0.13835 0.0
C358 C 1.01205 0.56714 0.25838 0.0
C359 C 0.18442 0.46108 0.14916 0.0
C360 C 0.19585 0.57793 0.14553 0.0
C361 C 0.26779 0.54596 0.13937 0.0
C362 C 0.1424 0.57748 0.17658 0.0
C363 C 0.16145 0.54328 0.20045 0.0
C364 C 0.24384 0.52007 0.20491 0.0
C365 C 0.29619 0.51988 0.17238 0.0
C366 C 1.06243 0.61095 0.17871 0.0
C367 C 0.27367 0.49237 0.24054 0.0
H368 H 0.89561 0.56633 0.19665 0.0
H369 H 1.04392 0.47382 0.10844 0.0
H370 H 1.06927 0.57036 0.27218 0.0
H371 H 0.96509 0.59705 0.25652 0.0
H372 H 0.99051 0.55113 0.28106 0.0
H373 H 0.21537 0.47445 0.12841 0.0
H374 H 0.22394 0.44901 0.1772 0.0
H375 H 0.17443 0.43534 0.12935 0.0
H376 H 0.17764 0.60111 0.12316 0.0
H377 H 0.35499 0.49688 0.17045 0.0
H378 H 1.04419 0.61989 0.21278 0.0
H379 H 1.01594 0.60132 0.15988 0.0
H380 H 1.06496 0.63782 0.16456 0.0
H381 H 0.30067 0.50736 0.26722 0.0
H382 H 0.32156 0.46432 0.22897 0.0
H383 H 0.22406 0.48531 0.25421 0.0
C384 C 0.25172 0.5679 0.43792 0.0
C385 C 0.32068 0.53993 0.45824 0.0
C386 C 0.16754 0.56816 0.43738 0.0
C387 C 0.14132 0.54089 0.45962 0.0
C388 C 0.21086 0.51291 0.48094 0.0
C389 C 0.29512 0.51232 0.47923 0.0
C390 C 0.10674 0.59848 0.41106 0.0
C391 C 0.19815 0.48265 0.5074 0.0
C392 C 0.89298 0.57516 0.47692 0.0
C393 C 0.86623 0.54232 0.46097 0.0
C394 C 0.97734 0.57492 0.47761 0.0
C395 C 1.0456 0.54148 0.4602 0.0
C396 C 1.0181 0.50862 0.44308 0.0
C397 C 0.934 0.50918 0.4446 0.0
C398 C 0.99172 0.61187 0.49866 0.0
C399 C 1.07733 0.47144 0.42142 0.0
H400 H 0.2635 0.5902 0.42083 0.0
H401 H 0.34187 0.4898 0.49594 0.0
H402 H 1.05205 0.59054 0.40206 0.0
H403 H 0.08894 0.62804 0.43012 0.0
H404 H 0.13373 0.60167 0.38083 0.0
H405 H 0.23709 0.47925 0.53737 0.0
H406 H 0.13467 0.49077 0.51682 0.0
H407 H 0.21634 0.45312 0.48828 0.0
H408 H 0.84723 0.60192 0.49037 0.0
H409 H 0.92125 0.48262 0.43146 0.0
H410 H 0.97254 0.63538 0.47555 0.0
H411 H 1.05581 0.60635 0.50849 0.0
H412 H 0.95451 0.62375 0.52781 0.0
H413 H 1.04843 0.45983 0.39274 0.0
H414 H 0.0965 0.44791 0.44451 0.0
H415 H 0.13139 0.47656 0.41068 0.0
C416 C 1.03067 1.03688 0.30351 0.0
C417 C 0.10139 1.0375 0.3266 0.0
C418 C 1.02402 1.03706 0.25757 0.0
C419 C 0.08837 1.03944 0.23386 0.0
C420 C 0.15839 1.04184 0.2575 0.0
C421 C 0.16462 1.03998 0.30307 0.0
C422 C 0.94938 1.03296 0.23422 0.0
C423 C 0.22769 1.04582 0.23456 0.0
C424 C 0.12511 0.99875 0.11414 0.0
C425 C 0.09225 1.03319 0.09162 0.0
C426 C 0.1205 1.00012 0.15975 0.0
C427 C 0.085 1.0372 0.18445 0.0
C428 C 1.05085 0.07213 0.16175 0.0
C429 C 1.05373 0.06962 0.11577 0.0
C430 C 0.15554 0.96177 0.18162 0.0
C431 C 1.01482 0.11256 0.18621 0.0
H432 H 0.98183 1.03441 0.32116 0.0
H433 H 0.21949 1.04051 0.32049 0.0
H434 H 0.92198 0.0578 0.21323 0.0
H435 H 0.96589 1.00471 0.21274 0.0
H436 H 0.90357 1.03275 0.25705 0.0
H437 H 0.27388 1.05165 0.25769 0.0
H438 H 0.25696 1.01796 0.21384 0.0
H439 H 0.20538 0.07054 0.21298 0.0
H440 H 0.15541 0.97049 0.09594 0.0
H441 H 1.02949 0.09656 0.09893 0.0
H442 H 0.11155 0.959 0.20403 0.0
H443 H 0.21 0.96205 0.20133 0.0
H444 H 0.1726 0.93502 0.15783 0.0
H445 H 0.96827 0.11211 0.2083 0.0
H446 H 0.98721 0.13657 0.16411 0.0
H447 H 1.06247 0.11999 0.20667 0.0
C448 C 0.1417 1.01319 0.80423 0.0
C449 C 0.10096 1.04945 0.82806 0.0
C450 C 0.14546 1.01057 0.75831 0.0
C451 C 0.10968 1.04523 0.73537 0.0
C452 C 1.0719 0.0822 0.75976 0.0
C453 C 1.06683 0.08368 0.80533 0.0
C454 C 0.18443 0.97028 0.73413 0.0
C455 C 1.03477 0.12029 0.73759 0.0
C456 C 0.16356 1.0467 0.61657 0.0
C457 C 0.0941 1.04445 0.59333 0.0
C458 C 0.17007 1.04658 0.6625 0.0
C459 C 0.10687 1.04274 0.686 0.0
C460 C 1.0383 1.03868 0.66219 0.0
C461 C 1.03217 1.04037 0.61663 0.0
C462 C 0.24318 1.05231 0.68607 0.0
C463 C 0.97026 1.03326 0.68497 0.0
H464 H 0.16721 0.98641 0.82125 0.0
H465 H 1.03507 0.11184 0.82332 0.0
H466 H 0.1383 0.96179 0.71338 0.0
H467 H 0.23067 0.97158 0.71233 0.0
H468 H 0.21316 0.94655 0.75642 0.0
H469 H 1.01551 0.14712 0.7612 0.0
H470 H 1.07832 0.12386 0.71546 0.0
H471 H 0.98137 0.11887 0.71754 0.0
H472 H 0.21129 1.05044 0.59905 0.0
H473 H 0.97831 1.03856 0.59904 0.0
H474 H 0.27195 1.02782 0.70734 0.0
H475 H 0.22453 0.08069 0.7073 0.0
H476 H 0.28853 0.05327 0.66337 0.0
H477 H 0.9942 1.00863 0.70657 0.0
H478 H 0.92517 1.02649 0.66174 0.0
H479 H 0.93923 0.06088 0.70566 0.0
C480 C 0.66431 0.53923 0.3054 0.0
C481 C 0.5996 0.53767 0.32838 0.0
C482 C 0.65886 0.54191 0.25997 0.0
C483 C 0.58792 0.5414 0.23597 0.0
C484 C 0.52188 0.54035 0.25922 0.0
C485 C 0.5281 0.53906 0.30499 0.0
C486 C 0.72988 0.54474 0.23756 0.0
C487 C 0.44613 0.53791 0.2358 0.0
C488 C 0.5564 0.57292 0.11857 0.0
C489 C 0.59352 0.53651 0.09412 0.0
C490 C 0.55326 0.57502 0.16447 0.0
C491 C 0.58537 0.53971 0.18667 0.0
C492 C 0.61894 0.50269 0.1616 0.0
C493 C 0.6242 0.50168 0.11612 0.0
C494 C 0.51785 0.61525 0.1894 0.0
C495 C 0.65017 0.46394 0.18292 0.0
H496 H 0.71977 0.53834 0.32309 0.0
H497 H 0.47809 0.53726 0.32218 0.0
H498 H 0.75744 0.51698 0.21634 0.0
H499 H 0.70971 0.56991 0.21652 0.0
H500 H 0.77693 0.54918 0.26102 0.0
H501 H 0.39403 0.54851 0.25755 0.0
H502 H 0.43076 0.55544 0.207 0.0
H503 H 0.45593 0.5062 0.22439 0.0
H504 H 0.53293 0.60005 0.10202 0.0
H505 H 0.65248 0.47336 0.09755 0.0
H506 H 0.56418 0.6211 0.21237 0.0
H507 H 0.46733 0.61539 0.20897 0.0
H508 H 0.49536 0.63992 0.16772 0.0
H509 H 0.70384 0.46316 0.2039 0.0
H510 H 0.66718 0.43744 0.15879 0.0
H511 H 0.60369 0.46172 0.20402 0.0
C512 C 0.65533 0.54733 0.61771 0.0
C513 C 0.58735 0.54492 0.59305 0.0
C514 C 0.65966 0.54631 0.66357 0.0
C515 C 0.59588 0.54128 0.68553 0.0
C516 C 0.52898 0.53696 0.66021 0.0
C517 C 0.52483 0.5397 0.61482 0.0
C518 C 0.73091 0.55251 0.68876 0.0
C519 C 0.46063 0.53011 0.68118 0.0
C520 C 0.62753 0.51 0.80322 0.0
C521 C 0.58394 0.54562 0.82726 0.0
C522 C 0.63275 0.50809 0.7574 0.0
C523 C 0.59608 0.54295 0.73486 0.0
C524 C 0.55515 0.5793 0.75954 0.0
C525 C 0.54819 0.57996 0.80489 0.0
C526 C 0.67446 0.46831 0.73288 0.0
C527 C 0.5173 0.61765 0.73791 0.0
H528 H 0.70346 0.55195 0.60141 0.0
H529 H 0.47205 0.53778 0.59616 0.0
H530 H 0.71018 0.58059 0.71039 0.0
H531 H 0.75941 0.52779 0.70977 0.0
H532 H 0.77708 0.55436 0.66716 0.0
H533 H 0.41769 0.52284 0.65682 0.0
H534 H 0.48451 0.5053 0.70258 0.0
H535 H 0.4271 0.5573 0.70179 0.0
H536 H 0.65445 0.48314 0.81996 0.0
H537 H 0.51443 0.60764 0.82306 0.0
H538 H 0.72162 0.47054 0.71236 0.0
H539 H 0.63017 0.45959 0.71081 0.0
H540 H 0.70264 0.4443 0.75491 0.0
H541 H 0.56134 0.62231 0.71693 0.0
H542 H 0.49563 0.64408 0.76188 0.0
H543 H 0.46544 0.61578 0.71678 0.0
loop_
_geom_bond_atom_site_label_1
_geom_bond_atom_site_label_2
_geom_bond_distance
_geom_bond_site_symmetry_2
_ccdc_geom_bond_type
C0 Eu1 2.833 1_565 S
C0 C2 1.502 . S
C0 O20 1.262 1_554 S
C0 O21 1.254 1_565 S
Eu1 C0 2.833 1_545 S
Eu1 O20 2.473 1_544 S
Eu1 O21 2.480 . S
Eu1 O22 2.430 . S
Eu1 O23 2.670 1_455 S
Eu1 O24 2.394 1_545 S
Eu1 O29 2.355 1_544 S
Eu1 O31 2.374 1_455 S
C2 C0 1.502 . S
C2 C3 1.377 . S
C2 C7 1.377 1_554 S
C3 C2 1.377 . S
C3 C4 1.395 . S
C3 H32 0.931 . S
C4 C3 1.395 . S
C4 C5 1.383 1_554 S
C4 H33 0.931 . S
C5 C4 1.383 1_556 S
C5 C6 1.394 . S
C6 C5 1.394 . S
C6 C7 1.378 . S
C6 H34 0.931 . S
C7 C2 1.377 1_556 S
C7 C6 1.378 . S
C7 H35 0.931 . S
C8 O22 1.259 . S
C8 O23 1.270 1_455 S
C9 O24 1.251 . S
C9 O25 1.251 1_554 S
C10 Eu11 2.835 1_545 S
C10 C12 1.500 . S
C10 O26 1.257 1_556 S
C10 O27 1.260 1_545 S
Eu11 C10 2.835 1_565 S
Eu11 O23 2.355 1_566 S
Eu11 O25 2.374 1_655 S
Eu11 O26 2.473 1_566 S
Eu11 O27 2.480 . S
Eu11 O28 2.430 . S
Eu11 O29 2.670 1_655 S
Eu11 O30 2.394 1_565 S
C12 C10 1.500 . S
C12 C13 1.377 . S
C12 C17 1.377 1_556 S
C13 C12 1.377 . S
C13 C14 1.395 . S
C13 H36 0.931 . S
C14 C13 1.395 . S
C14 C15 1.383 1_556 S
C14 H37 0.931 . S
C15 C14 1.383 1_554 S
C15 C16 1.394 . S
C16 C15 1.394 . S
C16 C17 1.378 . S
C16 H38 0.931 . S
C17 C12 1.377 1_554 S
C17 C16 1.378 . S
C17 H39 0.931 . S
C18 O28 1.259 . S
C18 O29 1.270 1_655 S
C19 O30 1.251 . S
C19 O31 1.251 1_556 S
O20 C0 1.262 1_556 S
O20 Eu1 2.473 1_566 S
O21 C0 1.254 1_545 S
O21 Eu1 2.480 . S
O22 Eu1 2.430 . S
O22 C8 1.259 . S
O23 Eu1 2.670 1_655 S
O23 C8 1.270 1_655 S
O23 Eu11 2.355 1_544 S
O24 Eu1 2.394 1_565 S
O24 C9 1.251 . S
O25 C9 1.251 1_556 S
O25 Eu11 2.374 1_455 S
O26 C10 1.257 1_554 S
O26 Eu11 2.473 1_544 S
O27 C10 1.260 1_565 S
O27 Eu11 2.480 . S
O28 Eu11 2.430 . S
O28 C18 1.259 . S
O29 Eu1 2.355 1_566 S
O29 Eu11 2.670 1_455 S
O29 C18 1.270 1_455 S
O30 Eu11 2.394 1_545 S
O30 C19 1.251 . S
O31 Eu1 2.374 1_655 S
O31 C19 1.251 1_554 S
H32 C3 0.931 . S
H33 C4 0.931 . S
H34 C6 0.931 . S
H35 C7 0.931 . S
H36 C13 0.931 . S
H37 C14 0.931 . S
H38 C16 0.931 . S
H39 C17 0.931 . S
C40 Eu41 2.835 1_455 S
C40 C42 1.500 . S
C40 O60 1.257 . S
C40 O61 1.260 . S
Eu41 C40 2.835 1_655 S
Eu41 O60 2.473 1_655 S
Eu41 O61 2.480 1_655 S
Eu41 O62 2.430 . S
Eu41 O63 2.670 1_545 S
Eu41 O64 2.394 1_655 S
Eu41 O69 2.355 1_655 S
Eu41 O71 2.374 . S
C42 C40 1.500 . S
C42 C43 1.377 . S
C42 C47 1.377 . S
C43 C42 1.377 . S
C43 C44 1.395 . S
C43 H72 0.931 . S
C44 C43 1.395 . S
C44 C45 1.383 . S
C44 H73 0.931 . S
C45 C44 1.383 . S
C45 C46 1.394 . S
C46 C45 1.394 . S
C46 C47 1.378 . S
C46 H74 0.931 . S
C47 C42 1.377 . S
C47 C46 1.378 . S
C47 H75 0.931 . S
C48 O62 1.260 1_455 S
C48 O63 1.269 1_445 S
C49 O64 1.251 1_565 S
C49 O65 1.251 . S
C50 Eu51 2.835 1_655 S
C50 C52 1.500 . S
C50 O66 1.257 . S
C50 O67 1.260 . S
Eu51 C50 2.835 1_455 S
Eu51 O63 2.355 1_455 S
Eu51 O65 2.374 . S
Eu51 O66 2.473 1_455 S
Eu51 O67 2.480 1_455 S
Eu51 O68 2.430 . S
Eu51 O69 2.670 1_565 S
Eu51 O70 2.394 1_455 S
C52 C50 1.500 . S
C52 C53 1.377 . S
C52 C57 1.377 . S
C53 C52 1.377 . S
C53 C54 1.395 . S
C53 H76 0.931 . S
C54 C53 1.395 . S
C54 C55 1.383 . S
C54 H77 0.931 . S
C55 C54 1.383 . S
C55 C56 1.394 . S
C56 C55 1.394 . S
C56 C57 1.378 . S
C56 H78 0.931 . S
C57 C52 1.377 . S
C57 C56 1.378 . S
C57 H79 0.931 . S
C58 O68 1.257 . S
C58 O69 1.272 1_565 S
C59 O70 1.251 1_545 S
C59 O71 1.251 . S
O60 C40 1.257 . S
O60 Eu41 2.473 1_455 S
O61 C40 1.260 . S
O61 Eu41 2.480 1_455 S
O62 Eu41 2.430 . S
O62 C48 1.260 1_655 S
O63 Eu41 2.670 1_565 S
O63 C48 1.269 1_665 S
O63 Eu51 2.355 1_655 S
O64 Eu41 2.394 1_455 S
O64 C49 1.251 1_545 S
O65 C49 1.251 . S
O65 Eu51 2.374 . S
O66 C50 1.257 . S
O66 Eu51 2.473 1_655 S
O67 C50 1.260 . S
O67 Eu51 2.480 1_655 S
O68 Eu51 2.430 . S
O68 C58 1.257 . S
O69 Eu41 2.355 1_455 S
O69 Eu51 2.670 1_545 S
O69 C58 1.272 1_545 S
O70 Eu51 2.394 1_655 S
O70 C59 1.251 1_565 S
O71 Eu41 2.374 . S
O71 C59 1.251 . S
H72 C43 0.931 . S
H73 C44 0.931 . S
H74 C46 0.931 . S
H75 C47 0.931 . S
H76 C53 0.931 . S
H77 C54 0.931 . S
H78 C56 0.931 . S
H79 C57 0.931 . S
C80 Eu81 2.835 . S
C80 C82 1.500 . S
C80 O100 1.257 1_554 S
C80 O101 1.260 . S
Eu81 C80 2.835 . S
Eu81 O100 2.473 1_554 S
Eu81 O101 2.480 . S
Eu81 O102 2.430 . S
Eu81 O103 2.670 . S
Eu81 O104 2.394 . S
Eu81 O109 2.355 1_554 S
Eu81 O111 2.374 . S
C82 C80 1.500 . S
C82 C83 1.377 . S
C82 C87 1.377 1_554 S
C83 C82 1.377 . S
C83 C84 1.395 . S
C83 H112 0.931 . S
C84 C83 1.395 . S
C84 C85 1.383 1_554 S
C84 H113 0.931 . S
C85 C84 1.383 1_556 S
C85 C86 1.394 . S
C86 C85 1.394 . S
C86 C87 1.378 . S
C86 H114 0.931 . S
C87 C82 1.377 1_556 S
C87 C86 1.378 . S
C87 H115 0.931 . S
C88 O102 1.259 . S
C88 O103 1.270 . S
C89 O104 1.251 . S
C89 O105 1.251 1_554 S
C90 Eu91 2.835 . S
C90 C92 1.500 . S
C90 O106 1.257 1_556 S
C90 O107 1.260 . S
Eu91 C90 2.835 . S
Eu91 O103 2.355 1_556 S
Eu91 O105 2.374 . S
Eu91 O106 2.473 1_556 S
Eu91 O107 2.480 . S
Eu91 O108 2.430 . S
Eu91 O109 2.670 . S
Eu91 O110 2.394 . S
C92 C90 1.500 . S
C92 C93 1.377 . S
C92 C97 1.377 1_556 S
C93 C92 1.377 . S
C93 C94 1.395 . S
C93 H116 0.931 . S
C94 C93 1.395 . S
C94 C95 1.383 1_556 S
C94 H117 0.931 . S
C95 C94 1.383 1_554 S
C95 C96 1.394 . S
C96 C95 1.394 . S
C96 C97 1.378 . S
C96 H118 0.931 . S
C97 C92 1.377 1_554 S
C97 C96 1.378 . S
C97 H119 0.931 . S
C98 O108 1.259 . S
C98 O109 1.270 . S
C99 O110 1.251 . S
C99 O111 1.251 1_556 S
O100 C80 1.257 1_556 S
O100 Eu81 2.473 1_556 S
O101 C80 1.260 . S
O101 Eu81 2.480 . S
O102 Eu81 2.430 . S
O102 C88 1.259 . S
O103 Eu81 2.670 . S
O103 C88 1.270 . S
O103 Eu91 2.355 1_554 S
O104 Eu81 2.394 . S
O104 C89 1.251 . S
O105 C89 1.251 1_556 S
O105 Eu91 2.374 . S
O106 C90 1.257 1_554 S
O106 Eu91 2.473 1_554 S
O107 C90 1.260 . S
O107 Eu91 2.480 . S
O108 Eu91 2.430 . S
O108 C98 1.259 . S
O109 Eu81 2.355 1_556 S
O109 Eu91 2.670 . S
O109 C98 1.270 . S
O110 Eu91 2.394 . S
O110 C99 1.251 . S
O111 Eu81 2.374 . S
O111 C99 1.251 1_554 S
H112 C83 0.931 . S
H113 C84 0.931 . S
H114 C86 0.931 . S
H115 C87 0.931 . S
H116 C93 0.931 . S
H117 C94 0.931 . S
H118 C96 0.931 . S
H119 C97 0.931 . S
C120 Eu121 2.835 . S
C120 C122 1.500 . S
C120 O140 1.257 . S
C120 O141 1.260 . S
Eu121 C120 2.835 . S
Eu121 O140 2.473 . S
Eu121 O141 2.480 . S
Eu121 O142 2.430 . S
Eu121 O143 2.670 . S
Eu121 O144 2.394 . S
Eu121 O149 2.355 . S
Eu121 O151 2.374 . S
C122 C120 1.500 . S
C122 C123 1.377 . S
C122 C127 1.377 . S
C123 C122 1.377 . S
C123 C124 1.395 . S
C123 H152 0.931 . S
C124 C123 1.395 . S
C124 C125 1.383 . S
C124 H153 0.931 . S
C125 C124 1.383 . S
C125 C126 1.394 . S
C126 C125 1.394 . S
C126 C127 1.378 . S
C126 H154 0.931 . S
C127 C122 1.377 . S
C127 C126 1.378 . S
C127 H155 0.931 . S
C128 O142 1.259 . S
C128 O143 1.270 . S
C129 O144 1.251 . S
C129 O145 1.251 . S
C130 Eu131 2.835 . S
C130 C132 1.500 . S
C130 O146 1.257 . S
C130 O147 1.260 . S
Eu131 C130 2.835 . S
Eu131 O143 2.355 . S
Eu131 O145 2.374 . S
Eu131 O146 2.473 . S
Eu131 O147 2.480 . S
Eu131 O148 2.430 . S
Eu131 O149 2.670 . S
Eu131 O150 2.394 . S
C132 C130 1.500 . S
C132 C133 1.377 . S
C132 C137 1.377 . S
C133 C132 1.377 . S
C133 C134 1.395 . S
C133 H156 0.931 . S
C134 C133 1.395 . S
C134 C135 1.383 . S
C134 H157 0.931 . S
C135 C134 1.383 . S
C135 C136 1.394 . S
C136 C135 1.394 . S
C136 C137 1.378 . S
C136 H158 0.931 . S
C137 C132 1.377 . S
C137 C136 1.378 . S
C137 H159 0.931 . S
C138 O148 1.259 . S
C138 O149 1.270 . S
C139 O150 1.251 . S
C139 O151 1.251 . S
O140 C120 1.257 . S
O140 Eu121 2.473 . S
O141 C120 1.260 . S
O141 Eu121 2.480 . S
O142 Eu121 2.430 . S
O142 C128 1.259 . S
O143 Eu121 2.670 . S
O143 C128 1.270 . S
O143 Eu131 2.355 . S
O144 Eu121 2.394 . S
O144 C129 1.251 . S
O145 C129 1.251 . S
O145 Eu131 2.374 . S
O146 C130 1.257 . S
O146 Eu131 2.473 . S
O147 C130 1.260 . S
O147 Eu131 2.480 . S
O148 Eu131 2.430 . S
O148 C138 1.259 . S
O149 Eu121 2.355 . S
O149 Eu131 2.670 . S
O149 C138 1.270 . S
O150 Eu131 2.394 . S
O150 C139 1.251 . S
O151 Eu121 2.374 . S
O151 C139 1.251 . S
H152 C123 0.931 . S
H153 C124 0.931 . S
H154 C126 0.931 . S
H155 C127 0.931 . S
H156 C133 0.931 . S
H157 C134 0.931 . S
H158 C136 0.931 . S
H159 C137 0.931 . S
C160 C161 1.391 . S
C160 C162 1.394 . S
C160 H176 0.931 . S
C161 C160 1.391 . S
C161 C165 1.376 1_554 S
C162 C160 1.394 . S
C162 C163 1.369 . S
C162 C166 1.531 . S
C163 C162 1.369 . S
C163 C164 1.410 1_554 S
C163 C171 1.503 . S
C164 C163 1.410 1_556 S
C164 C165 1.392 . S
C164 C167 1.511 . S
C165 C161 1.376 1_556 S
C165 C164 1.392 . S
C165 H177 0.929 . S
C166 C162 1.531 . S
C166 H178 0.960 . S
C166 H179 0.962 . S
C166 H180 0.960 . S
C167 C164 1.511 . S
C167 H181 0.961 . S
C167 H182 0.961 . S
C167 H183 0.961 . S
C168 C169 1.370 1_556 S
C168 C170 1.363 . S
C168 H184 0.931 . S
C169 C168 1.370 1_554 S
C169 C173 1.408 . S
C170 C168 1.363 . S
C170 C171 1.370 1_556 S
C170 C174 1.524 . S
C171 C163 1.503 . S
C171 C170 1.370 1_554 S
C171 C172 1.403 . S
C172 C171 1.403 . S
C172 C173 1.404 . S
C172 C175 1.539 . S
C173 C169 1.408 . S
C173 C172 1.404 . S
C173 H185 0.930 . S
C174 C170 1.524 . S
C174 H186 0.956 . S
C174 H187 0.961 . S
C174 H188 0.961 . S
C175 C172 1.539 . S
C175 H189 0.958 . S
C175 H190 0.961 . S
C175 H191 0.960 . S
H176 C160 0.931 . S
H177 C165 0.929 . S
H178 C166 0.960 . S
H179 C166 0.962 . S
H180 C166 0.960 . S
H181 C167 0.961 . S
H182 C167 0.961 . S
H183 C167 0.961 . S
H184 C168 0.931 . S
H185 C173 0.930 . S
H186 C174 0.956 . S
H187 C174 0.961 . S
H188 C174 0.961 . S
H189 C175 0.958 . S
H190 C175 0.961 . S
H191 C175 0.960 . S
C192 C193 1.391 . S
C192 C194 1.394 . S
C192 H208 0.931 . S
C193 C192 1.391 . S
C193 C197 1.376 1_554 S
C194 C192 1.394 . S
C194 C195 1.369 . S
C194 C198 1.531 . S
C195 C194 1.369 . S
C195 C196 1.410 1_554 S
C195 C203 1.503 . S
C196 C195 1.410 1_556 S
C196 C197 1.392 . S
C196 C199 1.511 . S
C197 C193 1.376 1_556 S
C197 C196 1.392 . S
C197 H209 0.929 . S
C198 C194 1.531 . S
C198 H210 0.960 . S
C198 H211 0.962 . S
C198 H212 0.960 . S
C199 C196 1.511 . S
C199 H213 0.961 . S
C199 H214 0.961 . S
C199 H215 0.961 . S
C200 C201 1.370 1_556 S
C200 C202 1.363 . S
C200 H216 0.931 . S
C201 C200 1.370 1_554 S
C201 C205 1.408 . S
C202 C200 1.363 . S
C202 C203 1.370 1_556 S
C202 C206 1.524 . S
C203 C195 1.503 . S
C203 C202 1.370 1_554 S
C203 C204 1.403 . S
C204 C203 1.403 . S
C204 C205 1.404 . S
C204 C207 1.539 . S
C205 C201 1.408 . S
C205 C204 1.404 . S
C205 H217 0.930 . S
C206 C202 1.524 . S
C206 H218 0.956 . S
C206 H219 0.961 . S
C206 H220 0.961 . S
C207 C204 1.539 . S
C207 H221 0.958 . S
C207 H222 0.961 . S
C207 H223 0.960 . S
H208 C192 0.931 . S
H209 C197 0.929 . S
H210 C198 0.960 . S
H211 C198 0.962 . S
H212 C198 0.960 . S
H213 C199 0.961 . S
H214 C199 0.961 . S
H215 C199 0.961 . S
H216 C200 0.931 . S
H217 C205 0.930 . S
H218 C206 0.956 . S
H219 C206 0.961 . S
H220 C206 0.961 . S
H221 C207 0.958 . S
H222 C207 0.961 . S
H223 C207 0.960 . S
C224 C225 1.391 . S
C224 C226 1.394 . S
C224 H240 0.931 . S
C225 C224 1.391 . S
C225 C229 1.376 . S
C226 C224 1.394 . S
C226 C227 1.369 . S
C226 C230 1.531 . S
C227 C226 1.369 . S
C227 C228 1.410 . S
C227 C235 1.503 . S
C228 C227 1.410 . S
C228 C229 1.392 . S
C228 C231 1.511 . S
C229 C225 1.376 . S
C229 C228 1.392 . S
C229 H241 0.929 . S
C230 C226 1.531 . S
C230 H242 0.960 . S
C230 H243 0.962 . S
C230 H244 0.960 . S
C231 C228 1.511 . S
C231 H245 0.961 . S
C231 H246 0.961 . S
C231 H247 0.961 . S
C232 C233 1.370 . S
C232 C234 1.363 . S
C232 H248 0.931 . S
C233 C232 1.370 . S
C233 C237 1.408 . S
C234 C232 1.363 . S
C234 C235 1.370 . S
C234 C238 1.524 . S
C235 C227 1.503 . S
C235 C234 1.370 . S
C235 C236 1.403 . S
C236 C235 1.403 . S
C236 C237 1.404 . S
C236 C239 1.539 . S
C237 C233 1.408 . S
C237 C236 1.404 . S
C237 H249 0.930 . S
C238 C234 1.524 . S
C238 H250 0.956 . S
C238 H251 0.961 . S
C238 H252 0.961 . S
C239 C236 1.539 . S
C239 H253 0.958 . S
C239 H254 0.961 . S
C239 H255 0.960 . S
H240 C224 0.931 . S
H241 C229 0.929 . S
H242 C230 0.960 . S
H243 C230 0.962 . S
H244 C230 0.960 . S
H245 C231 0.961 . S
H246 C231 0.961 . S
H247 C231 0.961 . S
H248 C232 0.931 . S
H249 C237 0.930 . S
H250 C238 0.956 . S
H251 C238 0.961 . S
H252 C238 0.961 . S
H253 C239 0.958 . S
H254 C239 0.961 . S
H255 C239 0.960 . S
C256 C257 1.391 . S
C256 C258 1.394 . S
C256 H272 0.931 . S
C257 C256 1.391 . S
C257 C261 1.376 . S
C258 C256 1.394 . S
C258 C259 1.369 . S
C258 C262 1.531 . S
C259 C258 1.369 . S
C259 C260 1.410 . S
C259 C267 1.503 . S
C260 C259 1.410 . S
C260 C261 1.392 . S
C260 C263 1.511 . S
C261 C257 1.376 . S
C261 C260 1.392 . S
C261 H273 0.929 . S
C262 C258 1.531 . S
C262 H274 0.960 . S
C262 H275 0.962 . S
C262 H276 0.960 . S
C263 C260 1.511 . S
C263 H277 0.961 . S
C263 H278 0.961 . S
C263 H279 0.961 . S
C264 C265 1.370 . S
C264 C266 1.363 . S
C264 H280 0.931 . S
C265 C264 1.370 . S
C265 C269 1.408 . S
C266 C264 1.363 . S
C266 C267 1.370 . S
C266 C270 1.524 . S
C267 C259 1.503 . S
C267 C266 1.370 . S
C267 C268 1.403 . S
C268 C267 1.403 . S
C268 C269 1.404 . S
C268 C271 1.539 . S
C269 C265 1.408 . S
C269 C268 1.404 . S
C269 H281 0.930 . S
C270 C266 1.524 . S
C270 H282 0.956 . S
C270 H283 0.961 . S
C270 H284 0.961 . S
C271 C268 1.539 . S
C271 H285 0.958 . S
C271 H286 0.961 . S
C271 H287 0.960 . S
H272 C256 0.931 . S
H273 C261 0.929 . S
H274 C262 0.960 . S
H275 C262 0.962 . S
H276 C262 0.960 . S
H277 C263 0.961 . S
H278 C263 0.961 . S
H279 C263 0.961 . S
H280 C264 0.931 . S
H281 C269 0.930 . S
H282 C270 0.956 . S
H283 C270 0.961 . S
H284 C270 0.961 . S
H285 C271 0.958 . S
H286 C271 0.961 . S
H287 C271 0.960 . S
C288 C289 1.391 . S
C288 C290 1.394 1_565 S
C288 H304 0.931 . S
C289 C288 1.391 . S
C289 C293 1.376 1_556 S
C290 C288 1.394 1_545 S
C290 C291 1.369 1_546 S
C290 C294 1.531 . S
C291 C290 1.369 1_564 S
C291 C292 1.410 . S
C291 C299 1.503 1_565 S
C292 C291 1.410 . S
C292 C293 1.392 . S
C292 C295 1.511 . S
C293 C289 1.376 1_554 S
C293 C292 1.392 . S
C293 H305 0.929 . S
C294 C290 1.531 . S
C294 H306 0.960 1_556 S
C294 H307 0.962 . S
C294 H308 0.958 1_556 S
C295 C292 1.511 . S
C295 H309 0.961 . S
C295 H310 0.961 . S
C295 H311 0.961 . S
C296 C297 1.370 1_556 S
C296 C298 1.363 . S
C296 H312 0.931 . S
C297 C296 1.370 1_554 S
C297 C301 1.408 . S
C298 C296 1.363 . S
C298 C299 1.370 1_556 S
C298 C302 1.517 1_545 S
C299 C291 1.503 1_545 S
C299 C298 1.370 1_554 S
C299 C300 1.403 . S
C300 C299 1.403 . S
C300 C301 1.404 . S
C300 C303 1.539 . S
C301 C297 1.408 . S
C301 C300 1.404 . S
C301 H313 0.930 . S
C302 C298 1.517 1_565 S
C302 H314 0.954 1_565 S
C302 H315 0.976 . S
C302 H316 0.955 1_565 S
C303 C300 1.539 . S
C303 H317 0.958 . S
C303 H318 0.961 . S
C303 H319 0.960 . S
H304 C288 0.931 . S
H305 C293 0.929 . S
H306 C294 0.960 1_554 S
H307 C294 0.962 . S
H308 C294 0.958 1_554 S
H309 C295 0.961 . S
H310 C295 0.961 . S
H311 C295 0.961 . S
H312 C296 0.931 . S
H313 C301 0.930 . S
H314 C302 0.954 1_545 S
H315 C302 0.976 . S
H316 C302 0.955 1_545 S
H317 C303 0.958 . S
H318 C303 0.961 . S
H319 C303 0.960 . S
C320 C321 1.391 1_545 S
C320 C322 1.394 . S
C320 H336 0.931 . S
C321 C320 1.391 1_565 S
C321 C325 1.376 . S
C322 C320 1.394 . S
C322 C323 1.347 1_545 S
C322 C326 1.531 . S
C323 C322 1.347 1_565 S
C323 C324 1.441 . S
C323 C331 1.492 1_565 S
C324 C323 1.441 . S
C324 C325 1.392 . S
C324 C327 1.511 . S
C325 C321 1.376 . S
C325 C324 1.392 . S
C325 H337 0.929 . S
C326 C322 1.531 . S
C326 H338 0.960 . S
C326 H339 0.962 . S
C326 H340 0.960 . S
C327 C324 1.511 . S
C327 H341 0.961 . S
C327 H342 0.961 . S
C327 H343 0.961 . S
C328 C329 1.370 . S
C328 C330 1.363 . S
C328 H344 0.931 . S
C329 C328 1.370 . S
C329 C333 1.408 1_545 S
C330 C328 1.363 . S
C330 C331 1.373 . S
C330 C334 1.524 . S
C331 C323 1.492 1_545 S
C331 C330 1.373 . S
C331 C332 1.402 1_545 S
C332 C331 1.402 1_565 S
C332 C333 1.404 . S
C332 C335 1.539 . S
C333 C329 1.408 1_565 S
C333 C332 1.404 . S
C333 H345 0.930 . S
C334 C330 1.524 . S
C334 H346 0.956 . S
C334 H347 0.961 1_545 S
C334 H348 0.961 . S
C335 C332 1.539 . S
C335 H349 0.958 1_565 S
C335 H350 0.961 . S
C335 H351 0.960 . S
H336 C320 0.931 . S
H337 C325 0.929 . S
H338 C326 0.960 . S
H339 C326 0.962 . S
H340 C326 0.960 . S
H341 C327 0.961 . S
H342 C327 0.961 . S
H343 C327 0.961 . S
H344 C328 0.931 . S
H345 C333 0.930 . S
H346 C334 0.956 . S
H347 C334 0.961 1_565 S
H348 C334 0.961 . S
H349 C335 0.958 1_545 S
H350 C335 0.961 . S
H351 C335 0.960 . S
C352 C353 1.391 1_554 S
C352 C354 1.394 . S
C352 H368 0.931 . S
C353 C352 1.391 1_556 S
C353 C357 1.376 . S
C354 C352 1.394 . S
C354 C355 1.369 . S
C354 C358 1.531 . S
C355 C354 1.369 . S
C355 C356 1.410 1_554 S
C355 C363 1.503 1_655 S
C356 C355 1.410 1_556 S
C356 C357 1.392 . S
C356 C359 1.511 1_655 S
C357 C353 1.376 . S
C357 C356 1.392 . S
C357 H369 0.929 . S
C358 C354 1.531 . S
C358 H370 0.960 . S
C358 H371 0.962 . S
C358 H372 0.960 . S
C359 C356 1.511 1_455 S
C359 H373 0.961 . S
C359 H374 0.961 . S
C359 H375 0.961 . S
C360 C361 1.370 1_556 S
C360 C362 1.363 . S
C360 H376 0.931 . S
C361 C360 1.370 1_554 S
C361 C365 1.408 . S
C362 C360 1.363 . S
C362 C363 1.370 1_556 S
C362 C366 1.524 1_455 S
C363 C355 1.503 1_455 S
C363 C362 1.370 1_554 S
C363 C364 1.403 . S
C364 C363 1.403 . S
C364 C365 1.404 . S
C364 C367 1.539 . S
C365 C361 1.408 . S
C365 C364 1.404 . S
C365 H377 0.930 . S
C366 C362 1.524 1_655 S
C366 H378 0.956 . S
C366 H379 0.961 . S
C366 H380 0.961 . S
C367 C364 1.539 . S
C367 H381 0.958 . S
C367 H382 0.961 . S
C367 H383 0.960 . S
H368 C352 0.931 . S
H369 C357 0.929 . S
H370 C358 0.960 . S
H371 C358 0.962 . S
H372 C358 0.960 . S
H373 C359 0.961 . S
H374 C359 0.961 . S
H375 C359 0.961 . S
H376 C360 0.931 . S
H377 C365 0.930 . S
H378 C366 0.956 . S
H379 C366 0.961 . S
H380 C366 0.961 . S
H381 C367 0.958 . S
H382 C367 0.961 . S
H383 C367 0.960 . S
C384 C385 1.391 . S
C384 C386 1.394 . S
C384 H400 0.931 . S
C385 C384 1.391 . S
C385 C389 1.376 . S
C386 C384 1.394 . S
C386 C387 1.369 . S
C386 C390 1.531 1_455 S
C387 C386 1.369 . S
C387 C388 1.410 . S
C387 C395 1.503 1_455 S
C388 C387 1.410 . S
C388 C389 1.392 . S
C388 C391 1.511 . S
C389 C385 1.376 . S
C389 C388 1.392 . S
C389 H401 0.929 . S
C390 C386 1.531 1_655 S
C390 H402 0.960 . S
C390 H403 0.962 . S
C390 H404 0.960 1_655 S
C391 C388 1.511 . S
C391 H405 0.961 . S
C391 H406 0.961 . S
C391 H407 0.961 . S
C392 C393 1.370 . S
C392 C394 1.363 . S
C392 H408 0.931 . S
C393 C392 1.370 . S
C393 C397 1.408 . S
C394 C392 1.363 . S
C394 C395 1.370 . S
C394 C398 1.524 . S
C395 C387 1.503 1_655 S
C395 C394 1.370 . S
C395 C396 1.403 . S
C396 C395 1.403 . S
C396 C397 1.404 . S
C396 C399 1.539 . S
C397 C393 1.408 . S
C397 C396 1.404 . S
C397 H409 0.930 . S
C398 C394 1.524 . S
C398 H410 0.956 . S
C398 H411 0.961 1_655 S
C398 H412 0.961 . S
C399 C396 1.539 . S
C399 H413 0.958 . S
C399 H414 0.961 . S
C399 H415 0.960 1_655 S
H400 C384 0.931 . S
H401 C389 0.929 . S
H402 C390 0.960 . S
H403 C390 0.962 . S
H404 C390 0.960 1_455 S
H405 C391 0.961 . S
H406 C391 0.961 . S
H407 C391 0.961 . S
H408 C392 0.931 . S
H409 C397 0.930 . S
H410 C398 0.956 . S
H411 C398 0.961 1_455 S
H412 C398 0.961 . S
H413 C399 0.958 . S
H414 C399 0.961 . S
H415 C399 0.960 1_455 S
C416 C417 1.391 . S
C416 C418 1.394 . S
C416 H432 0.931 . S
C417 C416 1.391 . S
C417 C421 1.376 1_645 S
C418 C416 1.394 . S
C418 C419 1.369 . S
C418 C422 1.531 . S
C419 C418 1.369 . S
C419 C420 1.410 1_645 S
C419 C427 1.505 . S
C420 C419 1.410 1_465 S
C420 C421 1.392 . S
C420 C423 1.511 . S
C421 C417 1.376 1_465 S
C421 C420 1.392 . S
C421 H433 0.929 . S
C422 C418 1.531 . S
C422 H434 0.960 . S
C422 H435 0.962 . S
C422 H436 0.960 . S
C423 C420 1.511 . S
C423 H437 0.961 . S
C423 H438 0.961 . S
C423 H439 0.961 . S
C424 C425 1.370 1_565 S
C424 C426 1.363 . S
C424 H440 0.931 . S
C425 C424 1.370 1_545 S
C425 C429 1.408 1_655 S
C426 C424 1.363 . S
C426 C427 1.379 1_565 S
C426 C430 1.524 . S
C427 C419 1.505 . S
C427 C426 1.379 1_545 S
C427 C428 1.393 1_655 S
C428 C427 1.393 1_455 S
C428 C429 1.404 . S
C428 C431 1.539 . S
C429 C425 1.408 1_455 S
C429 C428 1.404 . S
C429 H441 0.930 . S
C430 C426 1.524 . S
C430 H442 0.956 . S
C430 H443 0.961 . S
C430 H444 0.961 . S
C431 C428 1.539 . S
C431 H445 0.958 . S
C431 H446 0.961 . S
C431 H447 0.960 . S
H432 C416 0.931 . S
H433 C421 0.929 . S
H434 C422 0.960 . S
H435 C422 0.962 . S
H436 C422 0.960 . S
H437 C423 0.961 . S
H438 C423 0.961 . S
H439 C423 0.961 . S
H440 C424 0.931 . S
H441 C429 0.930 . S
H442 C430 0.956 . S
H443 C430 0.961 . S
H444 C430 0.961 . S
H445 C431 0.958 . S
H446 C431 0.961 . S
H447 C431 0.960 . S
C448 C449 1.391 . S
C448 C450 1.394 . S
C448 H464 0.931 . S
C449 C448 1.391 . S
C449 C453 1.376 1_465 S
C450 C448 1.394 . S
C450 C451 1.369 . S
C450 C454 1.531 . S
C451 C450 1.369 . S
C451 C452 1.410 1_465 S
C451 C459 1.503 . S
C452 C451 1.410 1_645 S
C452 C453 1.392 . S
C452 C455 1.511 . S
C453 C449 1.376 1_645 S
C453 C452 1.392 . S
C453 H465 0.929 . S
C454 C450 1.531 . S
C454 H466 0.960 . S
C454 H467 0.962 . S
C454 H468 0.960 . S
C455 C452 1.511 . S
C455 H469 0.961 . S
C455 H470 0.961 . S
C455 H471 0.961 1_545 S
C456 C457 1.370 1_545 S
C456 C458 1.363 . S
C456 H472 0.931 . S
C457 C456 1.370 1_565 S
C457 C461 1.411 . S
C458 C456 1.363 . S
C458 C459 1.370 1_545 S
C458 C462 1.524 . S
C459 C451 1.503 . S
C459 C458 1.370 1_565 S
C459 C460 1.403 . S
C460 C459 1.403 . S
C460 C461 1.404 . S
C460 C463 1.538 1_455 S
C461 C457 1.411 . S
C461 C460 1.404 . S
C461 H473 0.928 1_455 S
C462 C458 1.524 . S
C462 H474 0.956 . S
C462 H475 0.961 1_455 S
C462 H476 0.961 . S
C463 C460 1.538 1_655 S
C463 H477 0.958 1_655 S
C463 H478 0.961 . S
C463 H479 0.960 . S
H464 C448 0.931 . S
H465 C453 0.929 . S
H466 C454 0.960 . S
H467 C454 0.962 . S
H468 C454 0.960 . S
H469 C455 0.961 . S
H470 C455 0.961 . S
H471 C455 0.961 1_565 S
H472 C456 0.931 . S
H473 C461 0.928 1_655 S
H474 C462 0.956 . S
H475 C462 0.961 1_655 S
H476 C462 0.961 . S
H477 C463 0.958 1_455 S
H478 C463 0.961 . S
H479 C463 0.960 . S
C480 C481 1.391 . S
C480 C482 1.394 . S
C480 H496 0.931 . S
C481 C480 1.391 . S
C481 C485 1.376 . S
C482 C480 1.394 . S
C482 C483 1.369 . S
C482 C486 1.531 . S
C483 C482 1.369 . S
C483 C484 1.410 . S
C483 C491 1.503 . S
C484 C483 1.410 . S
C484 C485 1.392 . S
C484 C487 1.511 . S
C485 C481 1.376 . S
C485 C484 1.392 . S
C485 H497 0.929 . S
C486 C482 1.531 . S
C486 H498 0.960 . S
C486 H499 0.962 . S
C486 H500 0.960 . S
C487 C484 1.511 . S
C487 H501 0.961 . S
C487 H502 0.961 . S
C487 H503 0.961 . S
C488 C489 1.370 . S
C488 C490 1.363 . S
C488 H504 0.931 . S
C489 C488 1.370 . S
C489 C493 1.408 . S
C490 C488 1.363 . S
C490 C491 1.370 . S
C490 C494 1.524 . S
C491 C483 1.503 . S
C491 C490 1.370 . S
C491 C492 1.403 . S
C492 C491 1.403 . S
C492 C493 1.404 . S
C492 C495 1.539 . S
C493 C489 1.408 . S
C493 C492 1.404 . S
C493 H505 0.930 . S
C494 C490 1.524 . S
C494 H506 0.956 . S
C494 H507 0.961 . S
C494 H508 0.961 . S
C495 C492 1.539 . S
C495 H509 0.958 . S
C495 H510 0.961 . S
C495 H511 0.960 . S
H496 C480 0.931 . S
H497 C485 0.929 . S
H498 C486 0.960 . S
H499 C486 0.962 . S
H500 C486 0.960 . S
H501 C487 0.961 . S
H502 C487 0.961 . S
H503 C487 0.961 . S
H504 C488 0.931 . S
H505 C493 0.930 . S
H506 C494 0.956 . S
H507 C494 0.961 . S
H508 C494 0.961 . S
H509 C495 0.958 . S
H510 C495 0.961 . S
H511 C495 0.960 . S
C512 C513 1.391 . S
C512 C514 1.394 . S
C512 H528 0.931 . S
C513 C512 1.391 . S
C513 C517 1.376 . S
C514 C512 1.394 . S
C514 C515 1.369 . S
C514 C518 1.531 . S
C515 C514 1.369 . S
C515 C516 1.410 . S
C515 C523 1.503 . S
C516 C515 1.410 . S
C516 C517 1.392 . S
C516 C519 1.511 . S
C517 C513 1.376 . S
C517 C516 1.392 . S
C517 H529 0.929 . S
C518 C514 1.531 . S
C518 H530 0.960 . S
C518 H531 0.962 . S
C518 H532 0.960 . S
C519 C516 1.511 . S
C519 H533 0.961 . S
C519 H534 0.961 . S
C519 H535 0.961 . S
C520 C521 1.370 . S
C520 C522 1.363 . S
C520 H536 0.931 . S
C521 C520 1.370 . S
C521 C525 1.408 . S
C522 C520 1.363 . S
C522 C523 1.370 . S
C522 C526 1.524 . S
C523 C515 1.503 . S
C523 C522 1.370 . S
C523 C524 1.403 . S
C524 C523 1.403 . S
C524 C525 1.404 . S
C524 C527 1.539 . S
C525 C521 1.408 . S
C525 C524 1.404 . S
C525 H537 0.930 . S
C526 C522 1.524 . S
C526 H538 0.956 . S
C526 H539 0.961 . S
C526 H540 0.961 . S
C527 C524 1.539 . S
C527 H541 0.958 . S
C527 H542 0.961 . S
C527 H543 0.960 . S
H528 C512 0.931 . S
H529 C517 0.929 . S
H530 C518 0.960 . S
H531 C518 0.962 . S
H532 C518 0.960 . S
H533 C519 0.961 . S
H534 C519 0.961 . S
H535 C519 0.961 . S
H536 C520 0.931 . S
H537 C525 0.930 . S
H538 C526 0.956 . S
H539 C526 0.961 . S
H540 C526 0.961 . S
H541 C527 0.958 . S
H542 C527 0.961 . S
H543 C527 0.960 . S
C161 C99 3.568 1_554 S
C169 C9 3.575 . S
C193 C89 3.560 . S
C201 C19 3.578 1_554 S
C225 C45 0.241 . S
C233 C135 0.274 . S
C257 C55 0.242 . S
C265 C125 0.262 . S
C289 C5 0.986 . S
C297 C15 1.006 . S
C321 C49 4.809 . S
C329 C59 4.819 . S
C353 C85 1.046 . S
C361 C95 0.982 . S
C385 C139 4.809 . S
C393 C129 4.819 . S
C417 C58 1.465 1_645 S
C425 C8 1.438 1_655 S
C449 C18 1.421 1_455 S
C457 C48 1.458 1_565 S
C481 C138 1.426 . S
C489 C88 1.463 . S
C513 C128 1.417 . S
C521 C98 1.447 . S
