# Generated by pormake.
# Topology wjg, (4)-cn, num edge types: 1
# Building blocks:
#     Node 0, Type 0, BuildingBlock: UXUYUI_clean_sbu_0, # of connection points: 4
#     Node 1, Type 0, BuildingBlock: UXUYUI_clean_sbu_0, # of connection points: 4
#     Node 2, Type 0, BuildingBlock: UXUYUI_clean_sbu_0, # of connection points: 4
#     Node 3, Type 0, BuildingBlock: UXUYUI_clean_sbu_0, # of connection points: 4
#     Node 4, Type 0, BuildingBlock: UXUYUI_clean_sbu_0, # of connection points: 4
#     Node 5, Type 0, BuildingBlock: UXUYUI_clean_sbu_0, # of connection points: 4
#     Node 6, Type 0, BuildingBlock: UXUYUI_clean_sbu_0, # of connection points: 4
#     Node 7, Type 0, BuildingBlock: UXUYUI_clean_sbu_0, # of connection points: 4
#     Node 8, Type 0, BuildingBlock: UXUYUI_clean_sbu_0, # of connection points: 4
#     Node 9, Type 0, BuildingBlock: UXUYUI_clean_sbu_0, # of connection points: 4
#     Node 10, Type 0, BuildingBlock: UXUYUI_clean_sbu_0, # of connection points: 4
#     Node 11, Type 0, BuildingBlock: UXUYUI_clean_sbu_0, # of connection points: 4
#     Edge 12, Type (0, 0), BuildingBlock: ZUJKAS_clean_linker_0, # of connection points: 2
#     Edge 13, Type (0, 0), BuildingBlock: ZUJKAS_clean_linker_0, # of connection points: 2
#     Edge 14, Type (0, 0), BuildingBlock: ZUJKAS_clean_linker_0, # of connection points: 2
#     Edge 15, Type (0, 0), BuildingBlock: ZUJKAS_clean_linker_0, # of connection points: 2
#     Edge 16, Type (0, 0), BuildingBlock: ZUJKAS_clean_linker_0, # of connection points: 2
#     Edge 17, Type (0, 0), BuildingBlock: ZUJKAS_clean_linker_0, # of connection points: 2
#     Edge 18, Type (0, 0), BuildingBlock: ZUJKAS_clean_linker_0, # of connection points: 2
#     Edge 19, Type (0, 0), BuildingBlock: ZUJKAS_clean_linker_0, # of connection points: 2
#     Edge 20, Type (0, 0), BuildingBlock: ZUJKAS_clean_linker_0, # of connection points: 2
#     Edge 21, Type (0, 0), BuildingBlock: ZUJKAS_clean_linker_0, # of connection points: 2
#     Edge 22, Type (0, 0), BuildingBlock: ZUJKAS_clean_linker_0, # of connection points: 2
#     Edge 23, Type (0, 0), BuildingBlock: ZUJKAS_clean_linker_0, # of connection points: 2
#     Edge 24, Type (0, 0), BuildingBlock: ZUJKAS_clean_linker_0, # of connection points: 2
#     Edge 25, Type (0, 0), BuildingBlock: ZUJKAS_clean_linker_0, # of connection points: 2
#     Edge 26, Type (0, 0), BuildingBlock: ZUJKAS_clean_linker_0, # of connection points: 2
#     Edge 27, Type (0, 0), BuildingBlock: ZUJKAS_clean_linker_0, # of connection points: 2
#     Edge 28, Type (0, 0), BuildingBlock: ZUJKAS_clean_linker_0, # of connection points: 2
#     Edge 29, Type (0, 0), BuildingBlock: ZUJKAS_clean_linker_0, # of connection points: 2
#     Edge 30, Type (0, 0), BuildingBlock: ZUJKAS_clean_linker_0, # of connection points: 2
#     Edge 31, Type (0, 0), BuildingBlock: ZUJKAS_clean_linker_0, # of connection points: 2
#     Edge 32, Type (0, 0), BuildingBlock: ZUJKAS_clean_linker_0, # of connection points: 2
#     Edge 33, Type (0, 0), BuildingBlock: ZUJKAS_clean_linker_0, # of connection points: 2
#     Edge 34, Type (0, 0), BuildingBlock: ZUJKAS_clean_linker_0, # of connection points: 2
#     Edge 35, Type (0, 0), BuildingBlock: ZUJKAS_clean_linker_0, # of connection points: 2
# Relax obj value: 0.406
# Max RMSD: 0.171
# Mean RMSD: 0.170
data_MOF--net-wjg--node1-UXUYUI_clean_sbu_0--edge1-ZUJKAS_clean_linker_0
_symmetry_space_group_name_H-M    P1
_symmetry_Int_Tables_number       1
_symmetry_cell_setting            triclinic
loop_
_symmetry_equiv_pos_as_xyz
'x, y, z'
_cell_length_a     62.012591
_cell_length_b     61.943578
_cell_length_c     63.334706
_cell_angle_alpha  89.992351
_cell_angle_beta   90.024773
_cell_angle_gamma 120.00606
loop_
_atom_site_label
_atom_site_type_symbol
_atom_site_fract_x
_atom_site_fract_y
_atom_site_fract_z
_atom_type_partial_charge
Li0 Li 0.19549 0.44128 0.29526 0.0
Li1 Li 0.16874 0.40251 0.31446 0.0
Li2 Li 0.19786 0.40446 0.28771 0.0
Li3 Li 0.16077 0.40658 0.27817 0.0
C4 C 0.22212 0.44132 0.32713 0.0
N5 N 0.25522 0.48081 0.35195 0.0
C6 C 0.21485 0.44519 0.34701 0.0
C7 C 0.24629 0.4575 0.31993 0.0
C8 C 0.23186 0.46524 0.35932 0.0
C9 C 0.26271 0.47738 0.33268 0.0
C10 C 0.14148 0.43092 0.29691 0.0
C11 C 0.09794 0.41821 0.2942 0.0
N12 N 0.10405 0.43936 0.28318 0.0
C13 C 0.14736 0.45261 0.28569 0.0
C14 C 0.11661 0.41364 0.30135 0.0
C15 C 0.12815 0.45651 0.27885 0.0
C16 C 0.23259 0.49052 0.28464 0.0
N17 N 0.21379 0.4764 0.29821 0.0
C18 C 0.2238 0.51189 0.31964 0.0
C19 C 0.20874 0.48659 0.31515 0.0
C20 C 0.24412 0.52678 0.30647 0.0
C21 C 0.2481 0.51592 0.2885 0.0
H22 H 0.23611 0.48188 0.27128 0.0
H23 H 0.19355 0.47483 0.3256 0.0
C24 C 0.16812 0.37599 0.34903 0.0
N25 N 0.15712 0.38863 0.34147 0.0
C26 C 0.16367 0.367 0.36958 0.0
C27 C 0.13685 0.38455 0.37449 0.0
C28 C 0.14145 0.39284 0.35353 0.0
C29 C 0.1483 0.37169 0.38273 0.0
H30 H 0.18117 0.37376 0.33926 0.0
H31 H 0.13344 0.40347 0.3472 0.0
C32 C 0.20756 0.42411 0.25083 0.0
N33 N 0.23239 0.4156 0.2186 0.0
C34 C 0.19419 0.40799 0.23429 0.0
C35 C 0.23355 0.4359 0.25099 0.0
C36 C 0.20709 0.40396 0.21812 0.0
C37 C 0.24576 0.43133 0.23455 0.0
C38 C 0.1486 0.35612 0.30085 0.0
C39 C 0.15873 0.34072 0.30444 0.0
C40 C 0.12459 0.34876 0.30806 0.0
C41 C 0.14469 0.31825 0.31525 0.0
C42 C 0.11116 0.32617 0.31884 0.0
N43 N 0.1214 0.31151 0.32218 0.0
C44 C 0.23802 0.39757 0.29588 0.0
C45 C 0.21269 0.37235 0.26778 0.0
C46 C 0.25116 0.38481 0.29619 0.0
N47 N 0.21883 0.39081 0.2822 0.0
C48 C 0.22538 0.35895 0.26758 0.0
C49 C 0.24428 0.36461 0.28248 0.0
H50 H 0.24225 0.41192 0.30744 0.0
H51 H 0.19694 0.36694 0.25742 0.0
C52 C 0.13983 0.41735 0.24362 0.0
N53 N 0.13581 0.3991 0.25763 0.0
C54 C 0.12152 0.41371 0.22898 0.0
C55 C 0.09548 0.37233 0.2432 0.0
C56 C 0.11432 0.37678 0.25756 0.0
C57 C 0.09891 0.39101 0.22874 0.0
H58 H 0.1572 0.43489 0.24404 0.0
H59 H 0.11167 0.36257 0.26879 0.0
O60 O 0.20552 0.42221 0.31455 0.0
O61 O 0.15997 0.42644 0.30323 0.0
O62 O 0.19527 0.42798 0.267 0.0
O63 O 0.16221 0.37838 0.29056 0.0
H64 H 0.19621 0.43307 0.35282 0.0
H65 H 0.25215 0.45503 0.30446 0.0
H66 H 0.22643 0.46851 0.37469 0.0
H67 H 0.28138 0.49016 0.32721 0.0
H68 H 0.07859 0.40492 0.29738 0.0
H69 H 0.16652 0.46612 0.28204 0.0
H70 H 0.11176 0.39681 0.31007 0.0
H71 H 0.13241 0.47312 0.27001 0.0
H72 H 0.21992 0.51959 0.33352 0.0
H73 H 0.26371 0.52665 0.27806 0.0
H74 H 0.17339 0.35778 0.3755 0.0
H75 H 0.12511 0.38874 0.38431 0.0
H76 H 0.17406 0.39851 0.23402 0.0
H77 H 0.24417 0.44813 0.26383 0.0
H78 H 0.19698 0.39149 0.20525 0.0
H79 H 0.26585 0.44021 0.23453 0.0
H80 H 0.17732 0.34613 0.29917 0.0
H81 H 0.11658 0.36057 0.30573 0.0
H82 H 0.15235 0.30622 0.31821 0.0
H83 H 0.09264 0.32036 0.32463 0.0
H84 H 0.26585 0.38998 0.30773 0.0
H85 H 0.2194 0.34336 0.25686 0.0
H86 H 0.12509 0.42846 0.21791 0.0
H87 H 0.07825 0.35464 0.24369 0.0
Li88 Li 0.76439 0.20229 0.62782 0.0
Li89 Li 0.76813 0.17229 0.65046 0.0
Li90 Li 0.80244 0.20087 0.62795 0.0
Li91 Li 0.76452 0.16645 0.61309 0.0
C92 C 0.78517 0.22664 0.66252 0.0
N93 N 0.77825 0.26185 0.68348 0.0
C94 C 0.76937 0.21978 0.68004 0.0
C95 C 0.79751 0.25144 0.65573 0.0
C96 C 0.76614 0.23786 0.69043 0.0
C97 C 0.79372 0.26895 0.6665 0.0
C98 C 0.71781 0.14987 0.62402 0.0
C99 C 0.68599 0.1073 0.61747 0.0
N100 N 0.67431 0.1155 0.60426 0.0
C101 C 0.70541 0.1579 0.6105 0.0
C102 C 0.70796 0.12439 0.62768 0.0
C103 C 0.68346 0.14021 0.60062 0.0
C104 C 0.76003 0.24343 0.61369 0.0
N105 N 0.75032 0.22324 0.62663 0.0
C106 C 0.7228 0.23513 0.64229 0.0
C107 C 0.73167 0.2185 0.6404 0.0
C108 C 0.73324 0.25678 0.62983 0.0
C109 C 0.75173 0.26057 0.61506 0.0
H110 H 0.77477 0.24663 0.60284 0.0
H111 H 0.72441 0.20229 0.65053 0.0
C112 C 0.78374 0.16947 0.68988 0.0
N113 N 0.76267 0.15915 0.67805 0.0
C114 C 0.78255 0.1648 0.71141 0.0
C115 C 0.73786 0.13855 0.70829 0.0
C116 C 0.73997 0.14357 0.6866 0.0
C117 C 0.75935 0.14968 0.72102 0.0
H118 H 0.80138 0.18244 0.68272 0.0
H119 H 0.72348 0.13607 0.67682 0.0
C120 C 0.80242 0.21352 0.5892 0.0
N121 N 0.84272 0.23749 0.56236 0.0
C122 C 0.8068 0.2 0.57382 0.0
C123 C 0.81848 0.23923 0.59092 0.0
C124 C 0.82728 0.21247 0.56039 0.0
C125 C 0.83878 0.251 0.57722 0.0
C126 C 0.79354 0.14943 0.64409 0.0
C127 C 0.81709 0.15823 0.65306 0.0
C128 C 0.77446 0.12524 0.64864 0.0
C129 C 0.8211 0.14273 0.66654 0.0
C130 C 0.7792 0.11033 0.66222 0.0
N131 N 0.80223 0.11931 0.67082 0.0
C132 C 0.84919 0.23728 0.64245 0.0
C133 C 0.85088 0.2113 0.6158 0.0
C134 C 0.87466 0.24803 0.6461 0.0
N135 N 0.8378 0.219 0.62778 0.0
C136 C 0.87647 0.22153 0.61897 0.0
C137 C 0.8885 0.23963 0.63476 0.0
H138 H 0.83834 0.24266 0.65211 0.0
H139 H 0.84119 0.19621 0.60466 0.0
C140 C 0.73915 0.14708 0.575 0.0
N141 N 0.75113 0.1428 0.591 0.0
C142 C 0.7284 0.12986 0.55864 0.0
C143 C 0.74328 0.10458 0.57524 0.0
C144 C 0.7536 0.12223 0.59134 0.0
C145 C 0.73037 0.10825 0.55868 0.0
H146 H 0.7379 0.16388 0.57501 0.0
H147 H 0.76354 0.11949 0.60409 0.0
O148 O 0.78805 0.20908 0.65175 0.0
O149 O 0.73958 0.16685 0.63349 0.0
O150 O 0.78271 0.20161 0.60272 0.0
O151 O 0.78911 0.16446 0.6311 0.0
H152 H 0.75942 0.20066 0.68542 0.0
H153 H 0.80953 0.25703 0.64203 0.0
H154 H 0.75389 0.23278 0.70394 0.0
H155 H 0.80297 0.28814 0.66129 0.0
H156 H 0.67824 0.08752 0.62004 0.0
H157 H 0.71283 0.17755 0.60744 0.0
H158 H 0.71726 0.11789 0.63818 0.0
H159 H 0.67375 0.14614 0.59 0.0
H160 H 0.70874 0.23162 0.65405 0.0
H161 H 0.76002 0.27685 0.60495 0.0
H162 H 0.7995 0.17436 0.72061 0.0
H163 H 0.71962 0.12689 0.71515 0.0
H164 H 0.79467 0.18007 0.57235 0.0
H165 H 0.81554 0.24993 0.60291 0.0
H166 H 0.83095 0.20224 0.54844 0.0
H167 H 0.85145 0.27086 0.57845 0.0
H168 H 0.83205 0.17693 0.64989 0.0
H169 H 0.75608 0.11818 0.64199 0.0
H170 H 0.83919 0.14936 0.67367 0.0
H171 H 0.76456 0.09164 0.66597 0.0
H172 H 0.88326 0.26218 0.65821 0.0
H173 H 0.88639 0.21433 0.61004 0.0
H174 H 0.71889 0.13352 0.54601 0.0
H175 H 0.74506 0.08807 0.57591 0.0
Li176 Li 0.60473 0.76578 0.98709 0.0
Li177 Li 0.57131 0.76669 0.96687 0.0
Li178 Li 0.5997 0.75624 0.95017 0.0
Li179 Li 0.61428 0.79756 0.96138 0.0
C180 C 0.55794 0.72201 0.98715 0.0
N181 N 0.52203 0.69104 0.0157 0.0
C182 C 0.55329 0.73195 0.00525 0.0
C183 C 0.5443 0.69632 0.98356 0.0
C184 C 0.53507 0.71599 0.01949 0.0
C185 C 0.52623 0.68097 -0.00181 0.0
C186 C 0.5953 0.81313 0.99162 0.0
C187 C 0.58585 0.84519 0.98203 0.0
N188 N 0.59915 0.85892 -0.00105 0.0
C189 C 0.60875 0.82749 0.00899 0.0
C190 C 0.58368 0.822 0.97806 0.0
C191 C 0.61053 0.85061 0.01239 0.0
C192 C 0.63327 0.78322 0.02242 0.0
N193 N 0.61536 0.76144 0.01398 0.0
C194 C 0.61231 0.7398 0.04603 0.0
C195 C 0.60556 0.73968 0.02495 0.0
C196 C 0.6295 0.76245 0.05563 0.0
C197 C 0.64062 0.78421 0.04331 0.0
H198 H 0.64105 0.80008 0.0131 0.0
H199 H 0.59187 0.72243 0.01766 0.0
C200 C 0.52212 0.74742 0.95209 0.0
N201 N 0.53801 0.75983 0.96822 0.0
C202 C 0.49735 0.74188 0.95308 0.0
C203 C 0.50596 0.76199 0.98724 0.0
C204 C 0.53042 0.76699 0.98564 0.0
C205 C 0.4891 0.74937 0.97079 0.0
H206 H 0.52872 0.74183 0.93849 0.0
H207 H 0.54334 0.77648 -0.00161 0.0
C208 C 0.6445 0.7661 0.96814 0.0
N209 N 0.67148 0.74199 0.9734 0.0
C210 C 0.67039 0.77924 0.96598 0.0
C211 C 0.63232 0.74068 0.97303 0.0
C212 C 0.6837 0.76673 0.96868 0.0
C213 C 0.64629 0.72884 0.97562 0.0
C214 C 0.59802 0.78748 0.91973 0.0
C215 C 0.62341 0.79721 0.91581 0.0
C216 C 0.58226 0.78577 0.90326 0.0
C217 C 0.6326 0.80506 0.89543 0.0
C218 C 0.59216 0.79384 0.88309 0.0
N219 N 0.61691 0.80323 0.87962 0.0
C220 C 0.58009 0.71463 0.92365 0.0
C221 C 0.62331 0.7426 0.91904 0.0
C222 C 0.58032 0.6991 0.9078 0.0
N223 N 0.60139 0.73584 0.92891 0.0
C224 C 0.6244 0.72765 0.90314 0.0
C225 C 0.6027 0.70561 0.89728 0.0
H226 H 0.56291 0.7099 0.93172 0.0
H227 H 0.63995 0.75963 0.92348 0.0
C228 C 0.65531 0.84151 0.97249 0.0
N229 N 0.63642 0.83221 0.95824 0.0
C230 C 0.66931 0.86707 0.97596 0.0
C231 C 0.64553 0.87323 0.94871 0.0
C232 C 0.63167 0.84738 0.94596 0.0
C233 C 0.66393 0.88313 0.96444 0.0
H234 H 0.65833 0.8289 0.98219 0.0
H235 H 0.61609 0.8394 0.93513 0.0
O236 O 0.57542 0.73718 0.97273 0.0
O237 O 0.59417 0.79088 0.98749 0.0
O238 O 0.63139 0.77828 0.96549 0.0
O239 O 0.58841 0.77939 0.93948 0.0
H240 H 0.56375 0.75172 0.00843 0.0
H241 H 0.54763 0.68833 0.9696 0.0
H242 H 0.53133 0.72344 0.03358 0.0
H243 H 0.51554 0.66106 0.99561 0.0
H244 H 0.57711 0.85236 0.97157 0.0
H245 H 0.61782 0.82095 0.0197 0.0
H246 H 0.57351 0.81132 0.96436 0.0
H247 H 0.621 0.86198 0.02569 0.0
H248 H 0.60361 0.72254 0.0549 0.0
H249 H 0.65378 0.80211 0.05005 0.0
H250 H 0.48491 0.7322 0.94004 0.0
H251 H 0.50022 0.76769 0.00132 0.0
H252 H 0.68008 0.79893 0.96221 0.0
H253 H 0.61233 0.73012 0.97479 0.0
H254 H 0.70375 0.77667 0.96703 0.0
H255 H 0.63711 0.70918 0.97938 0.0
H256 H 0.63594 0.79867 0.92832 0.0
H257 H 0.56255 0.77824 0.90604 0.0
H258 H 0.65219 0.81259 0.89218 0.0
H259 H 0.58016 0.79261 0.87018 0.0
H260 H 0.56313 0.6824 0.90362 0.0
H261 H 0.64213 0.73318 0.89568 0.0
H262 H 0.68343 0.87417 0.98818 0.0
H263 H 0.6408 0.88516 0.93972 0.0
Li264 Li 0.8496 0.5935 0.33957 0.0
Li265 Li 0.81447 0.55906 0.32129 0.0
Li266 Li 0.85165 0.58868 0.30256 0.0
Li267 Li 0.82291 0.60137 0.31621 0.0
C268 C 0.85954 0.55768 0.3397 0.0
N269 N 0.88102 0.54416 0.37145 0.0
C270 C 0.84493 0.53641 0.35182 0.0
C271 C 0.8851 0.57199 0.34363 0.0
C272 C 0.85614 0.5299 0.36782 0.0
C273 C 0.8956 0.56487 0.35978 0.0
C274 C 0.79975 0.58972 0.3528 0.0
C275 C 0.76079 0.58878 0.35836 0.0
N276 N 0.77232 0.60827 0.37198 0.0
C277 C 0.8112 0.60975 0.36687 0.0
C278 C 0.77433 0.57913 0.34851 0.0
C279 C 0.79701 0.61884 0.37642 0.0
C280 C 0.88389 0.62791 0.36887 0.0
N281 N 0.86535 0.60398 0.36606 0.0
C282 C 0.85787 0.5985 0.40308 0.0
C283 C 0.85307 0.58895 0.38265 0.0
C284 C 0.87538 0.62382 0.40641 0.0
C285 C 0.88942 0.63823 0.38911 0.0
H286 H 0.89284 0.63961 0.35532 0.0
H287 H 0.8378 0.5703 0.37981 0.0
C288 C 0.78902 0.50799 0.30992 0.0
N289 N 0.78932 0.52502 0.32363 0.0
C290 C 0.77012 0.4831 0.31101 0.0
C291 C 0.75313 0.4935 0.34113 0.0
C292 C 0.7722 0.5182 0.33932 0.0
C293 C 0.75176 0.47565 0.32669 0.0
H294 H 0.80336 0.5138 0.29802 0.0
H295 H 0.77333 0.53195 0.35043 0.0
C296 C 0.87873 0.63711 0.30656 0.0
N297 N 0.91703 0.67104 0.28128 0.0
C298 C 0.8742 0.65077 0.29141 0.0
C299 C 0.90276 0.64082 0.30897 0.0
C300 C 0.89382 0.66784 0.27877 0.0
C301 C 0.92186 0.65801 0.29599 0.0
C302 C 0.79925 0.55775 0.28193 0.0
C303 C 0.80674 0.54772 0.26566 0.0
C304 C 0.77388 0.54788 0.28604 0.0
C305 C 0.78868 0.52785 0.25381 0.0
C306 C 0.75641 0.52797 0.27388 0.0
N307 N 0.76411 0.51846 0.25815 0.0
C308 C 0.89053 0.58578 0.2822 0.0
C309 C 0.87145 0.60382 0.26189 0.0
C310 C 0.90773 0.59047 0.26616 0.0
N311 N 0.87316 0.59284 0.27988 0.0
C312 C 0.88831 0.60895 0.24548 0.0
C313 C 0.90697 0.60253 0.24762 0.0
H314 H 0.89127 0.57686 0.29663 0.0
H315 H 0.85734 0.60913 0.26054 0.0
C316 C 0.82179 0.64463 0.32452 0.0
N317 N 0.80903 0.62252 0.31418 0.0
C318 C 0.81068 0.65899 0.3284 0.0
C319 C 0.77405 0.62834 0.30974 0.0
C320 C 0.78593 0.61456 0.30617 0.0
C321 C 0.78616 0.65045 0.32163 0.0
H322 H 0.84004 0.65032 0.33092 0.0
H323 H 0.77611 0.59679 0.29822 0.0
O324 O 0.84887 0.56459 0.32416 0.0
O325 O 0.81348 0.58102 0.34276 0.0
O326 O 0.85965 0.61989 0.31872 0.0
O327 O 0.81666 0.57707 0.29381 0.0
H328 H 0.82513 0.52512 0.34904 0.0
H329 H 0.89665 0.5886 0.33448 0.0
H330 H 0.84504 0.51353 0.37739 0.0
H331 H 0.91532 0.57586 0.36308 0.0
H332 H 0.74115 0.58088 0.35506 0.0
H333 H 0.83091 0.61858 0.3701 0.0
H334 H 0.7652 0.56393 0.33739 0.0
H335 H 0.80569 0.63442 0.38722 0.0
H336 H 0.84623 0.58674 0.41577 0.0
H337 H 0.90326 0.65772 0.39098 0.0
H338 H 0.76994 0.4698 0.2998 0.0
H339 H 0.7393 0.48853 0.35343 0.0
H340 H 0.85567 0.64799 0.28923 0.0
H341 H 0.90654 0.63029 0.32054 0.0
H342 H 0.89057 0.67844 0.2669 0.0
H343 H 0.9405 0.66092 0.29756 0.0
H344 H 0.82628 0.55503 0.26231 0.0
H345 H 0.76776 0.55516 0.29876 0.0
H346 H 0.79421 0.51985 0.24122 0.0
H347 H 0.73673 0.52001 0.27702 0.0
H348 H 0.92158 0.58487 0.26832 0.0
H349 H 0.88723 0.61855 0.23159 0.0
H350 H 0.82083 0.67611 0.33733 0.0
H351 H 0.75506 0.62097 0.30438 0.0
Li352 Li 0.23204 0.82246 0.65539 0.0
Li353 Li 0.23955 0.7942 0.63356 0.0
Li354 Li 0.2399 0.83013 0.61849 0.0
Li355 Li 0.20085 0.79431 0.63036 0.0
C356 C 0.28525 0.84698 0.63282 0.0
N357 N 0.32994 0.88223 0.61531 0.0
C358 C 0.29865 0.83956 0.61991 0.0
C359 C 0.29467 0.87228 0.63701 0.0
C360 C 0.3212 0.85768 0.61117 0.0
C361 C 0.31726 0.88983 0.62794 0.0
C362 C 0.21545 0.76821 0.66692 0.0
C363 C 0.20838 0.72642 0.67109 0.0
N364 N 0.22119 0.73327 0.68961 0.0
C365 C 0.22853 0.77481 0.68601 0.0
C366 C 0.20522 0.74378 0.65942 0.0
C367 C 0.2312 0.75688 0.69725 0.0
C368 C 0.21042 0.8232 0.69225 0.0
N369 N 0.23322 0.83439 0.68301 0.0
C370 C 0.25225 0.85664 0.71475 0.0
C371 C 0.25405 0.85099 0.69363 0.0
C372 C 0.22879 0.84526 0.72461 0.0
C373 C 0.20772 0.82858 0.713 0.0
H374 H 0.19435 0.80958 0.68351 0.0
H375 H 0.27199 0.85931 0.68591 0.0
C376 C 0.24632 0.75482 0.61934 0.0
N377 N 0.25406 0.77357 0.63365 0.0
C378 C 0.2531 0.73662 0.62166 0.0
C379 C 0.27701 0.75832 0.65261 0.0
C380 C 0.26981 0.77615 0.64964 0.0
C381 C 0.26796 0.73779 0.63889 0.0
H382 H 0.23398 0.75338 0.60669 0.0
H383 H 0.2756 0.7913 0.66078 0.0
C384 C 0.20659 0.84483 0.64609 0.0
N385 N 0.19423 0.87363 0.67107 0.0
C386 C 0.18191 0.83572 0.65237 0.0
C387 C 0.22495 0.86864 0.65246 0.0
C388 C 0.17605 0.85056 0.665 0.0
C389 C 0.21834 0.88289 0.66511 0.0
C390 C 0.20544 0.78385 0.59209 0.0
C391 C 0.20185 0.79788 0.57666 0.0
C392 C 0.18996 0.75796 0.59251 0.0
C393 C 0.18281 0.78573 0.56183 0.0
C394 C 0.1711 0.74652 0.57743 0.0
N395 N 0.16796 0.76052 0.56253 0.0
C396 C 0.26764 0.85059 0.58159 0.0
C397 C 0.25402 0.87607 0.59801 0.0
C398 C 0.27957 0.86829 0.56575 0.0
N399 N 0.25534 0.85485 0.59733 0.0
C400 C 0.2657 0.89429 0.58252 0.0
C401 C 0.27868 0.89051 0.56608 0.0
H402 H 0.26811 0.83337 0.58136 0.0
H403 H 0.24389 0.87886 0.61054 0.0
C404 C 0.1539 0.75551 0.64123 0.0
N405 N 0.1656 0.7749 0.6276 0.0
C406 C 0.12811 0.74296 0.64316 0.0
C407 C 0.12657 0.77016 0.61657 0.0
C408 C 0.15255 0.78213 0.61504 0.0
C409 C 0.11411 0.75061 0.63113 0.0
H410 H 0.16463 0.7506 0.6515 0.0
H411 H 0.16238 0.79802 0.60469 0.0
O412 O 0.26286 0.82956 0.64109 0.0
O413 O 0.21315 0.78566 0.65538 0.0
O414 O 0.21279 0.83038 0.63405 0.0
O415 O 0.22367 0.79543 0.60699 0.0
H416 H 0.29157 0.82004 0.61646 0.0
H417 H 0.28455 0.8783 0.64703 0.0
H418 H 0.3317 0.85224 0.60104 0.0
H419 H 0.3247 0.90949 0.63092 0.0
H420 H 0.20079 0.70754 0.66535 0.0
H421 H 0.23682 0.79363 0.692 0.0
H422 H 0.19538 0.73841 0.64451 0.0
H423 H 0.24136 0.76177 0.71201 0.0
H424 H 0.26893 0.86942 0.72334 0.0
H425 H 0.18942 0.81892 0.72018 0.0
H426 H 0.24613 0.72136 0.61048 0.0
H427 H 0.28833 0.75986 0.66617 0.0
H428 H 0.16747 0.81729 0.64779 0.0
H429 H 0.24419 0.87587 0.64804 0.0
H430 H 0.15705 0.84369 0.67004 0.0
H431 H 0.23241 0.90127 0.67028 0.0
H432 H 0.21346 0.81794 0.57622 0.0
H433 H 0.19221 0.74685 0.60455 0.0
H434 H 0.17978 0.79635 0.54982 0.0
H435 H 0.1589 0.72651 0.57764 0.0
H436 H 0.28902 0.86443 0.55321 0.0
H437 H 0.26476 0.91125 0.58352 0.0
H438 H 0.1194 0.72839 0.65491 0.0
H439 H 0.11645 0.7766 0.60699 0.0
Li440 Li 0.41272 0.24871 0.99019 0.0
Li441 Li 0.37367 0.24386 0.0048 0.0
Li442 Li 0.3727 0.21567 0.97851 0.0
Li443 Li 0.38551 0.25728 0.96913 0.0
C444 C 0.3882 0.20017 0.01171 0.0
N445 N 0.38853 0.15644 0.01966 0.0
C446 C 0.37164 0.183 0.02637 0.0
C447 C 0.405 0.19511 0.00118 0.0
C448 C 0.37206 0.16098 0.03012 0.0
C449 C 0.40489 0.17293 0.00543 0.0
C450 C 0.41742 0.29006 0.01151 0.0
C451 C 0.44398 0.33084 0.02637 0.0
N452 N 0.44554 0.32006 0.04458 0.0
C453 C 0.41931 0.27939 0.03037 0.0
C454 C 0.42986 0.31599 0.00947 0.0
C455 C 0.4336 0.29487 0.0469 0.0
C456 C 0.46384 0.26933 0.98128 0.0
N457 N 0.44615 0.25789 -0.0036 0.0
C458 C 0.47599 0.25787 0.02022 0.0
C459 C 0.45173 0.2522 0.01562 0.0
C460 C 0.49463 0.26933 0.00483 0.0
C461 C 0.48837 0.2752 0.98516 0.0
H462 H 0.4588 0.27358 0.96613 0.0
H463 H 0.43724 0.2428 0.02727 0.0
C464 C 0.33861 0.21951 0.03454 0.0
N465 N 0.35641 0.24313 0.0297 0.0
C466 C 0.32815 0.21383 0.05461 0.0
C467 C 0.35238 0.25756 0.06359 0.0
C468 C 0.3624 0.26238 0.04321 0.0
C469 C 0.33604 0.23278 0.06984 0.0
H470 H 0.33394 0.20473 0.02324 0.0
H471 H 0.37607 0.28118 0.03874 0.0
C472 C 0.39691 0.23119 0.93995 0.0
N473 N 0.38724 0.21843 0.8978 0.0
C474 C 0.37248 0.21969 0.93234 0.0
C475 C 0.41641 0.23615 0.92612 0.0
C476 C 0.36798 0.2134 0.91098 0.0
C477 C 0.41114 0.22956 0.90486 0.0
C478 C 0.33646 0.24133 0.97991 0.0
C479 C 0.31172 0.22667 0.97344 0.0
C480 C 0.3451 0.26581 0.98664 0.0
C481 C 0.29601 0.23678 0.97375 0.0
C482 C 0.3288 0.27523 0.98671 0.0
N483 N 0.30481 0.26064 0.98032 0.0
C484 C 0.33197 0.1686 0.98201 0.0
C485 C 0.36531 0.16896 0.96335 0.0
C486 C 0.31994 0.14276 0.98398 0.0
N487 N 0.35458 0.18111 0.97251 0.0
C488 C 0.35394 0.14305 0.96501 0.0
C489 C 0.33141 0.12976 0.97616 0.0
H490 H 0.32421 0.17889 0.98949 0.0
H491 H 0.38355 0.17949 0.95624 0.0
C492 C 0.40683 0.3009 0.94477 0.0
N493 N 0.38584 0.27844 0.94747 0.0
C494 C 0.40814 0.31679 0.92856 0.0
C495 C 0.36616 0.28612 0.9184 0.0
C496 C 0.36572 0.2708 0.93469 0.0
C497 C 0.38758 0.30943 0.91515 0.0
H498 H 0.42259 0.30633 0.95514 0.0
H499 H 0.34943 0.25268 0.93696 0.0
O500 O 0.38743 0.22141 0.00719 0.0
O501 O 0.4039 0.27541 0.99489 0.0
O502 O 0.40195 0.23778 0.96075 0.0
O503 O 0.35194 0.23153 0.97957 0.0
H504 H 0.35852 0.18652 0.03471 0.0
H505 H 0.4176 0.20789 0.98946 0.0
H506 H 0.35925 0.14748 0.04133 0.0
H507 H 0.41766 0.16871 -0.00274 0.0
H508 H 0.45371 0.35094 0.025 0.0
H509 H 0.40963 0.2594 0.03236 0.0
H510 H 0.42865 0.32455 0.99495 0.0
H511 H 0.43515 0.28684 0.0616 0.0
H512 H 0.47994 0.25265 0.03545 0.0
H513 H 0.50225 0.28416 0.97292 0.0
H514 H 0.31577 0.19446 0.05859 0.0
H515 H 0.35855 0.2728 0.07472 0.0
H516 H 0.35712 0.2157 0.94275 0.0
H517 H 0.43543 0.24505 0.93176 0.0
H518 H 0.34917 0.20455 0.90489 0.0
H519 H 0.42606 0.23332 0.89398 0.0
H520 H 0.30476 0.20768 0.9682 0.0
H521 H 0.36413 0.27749 0.99172 0.0
H522 H 0.27682 0.22565 0.96876 0.0
H523 H 0.33524 0.29414 0.99185 0.0
H524 H 0.30279 0.13335 0.99293 0.0
H525 H 0.36328 0.13368 0.95862 0.0
H526 H 0.42496 0.33465 0.92658 0.0
H527 H 0.3501 0.27953 0.90815 0.0
Li528 Li 0.59059 0.83297 0.37244 0.0
Li529 Li 0.58761 0.79197 0.37015 0.0
Li530 Li 0.58562 0.8126 0.33807 0.0
Li531 Li 0.5518 0.79523 0.36303 0.0
C532 C 0.63494 0.83001 0.34815 0.0
N533 N 0.67799 0.84126 0.32641 0.0
C534 C 0.6387 0.81092 0.34063 0.0
C535 C 0.65326 0.85486 0.34477 0.0
C536 C 0.66053 0.81697 0.32964 0.0
C537 C 0.67485 0.86015 0.33371 0.0
C538 C 0.57509 0.79391 0.40812 0.0
C539 C 0.5689 0.75943 0.43006 0.0
N540 N 0.58663 0.77571 0.44359 0.0
C541 C 0.59317 0.8103 0.42228 0.0
C542 C 0.56276 0.76828 0.41207 0.0
C543 C 0.59876 0.80072 0.44011 0.0
C544 C 0.59075 0.87385 0.39179 0.0
N545 N 0.6049 0.86334 0.38736 0.0
C546 C 0.63955 0.89562 0.40583 0.0
C547 C 0.6289 0.87376 0.39393 0.0
C548 C 0.62531 0.90678 0.41094 0.0
C549 C 0.60068 0.8958 0.40357 0.0
H550 H 0.57165 0.86497 0.38639 0.0
H551 H 0.63959 0.8648 0.39023 0.0
C552 C 0.59161 0.74895 0.37251 0.0
N553 N 0.60183 0.77274 0.37965 0.0
C554 C 0.60509 0.73652 0.37345 0.0
C555 C 0.63879 0.77274 0.39028 0.0
C556 C 0.62452 0.78443 0.38918 0.0
C557 C 0.6295 0.7489 0.38143 0.0
H558 H 0.57383 0.74031 0.3646 0.0
H559 H 0.63239 0.8036 0.39424 0.0
C560 C 0.57328 0.85034 0.33859 0.0
N561 N 0.58622 0.89476 0.31839 0.0
C562 C 0.55504 0.85373 0.32867 0.0
C563 C 0.59807 0.86958 0.33827 0.0
C564 C 0.56197 0.87629 0.3185 0.0
C565 C 0.60425 0.8919 0.32799 0.0
C566 C 0.54323 0.75867 0.33784 0.0
C567 C 0.53549 0.76134 0.31774 0.0
C568 C 0.52816 0.73719 0.34961 0.0
C569 C 0.51284 0.74246 0.30976 0.0
C570 C 0.50559 0.71879 0.34111 0.0
N571 N 0.49847 0.72178 0.32152 0.0
C572 C 0.59885 0.7961 0.30327 0.0
C573 C 0.6007 0.83445 0.29568 0.0
C574 C 0.60758 0.79541 0.28323 0.0
N575 N 0.59587 0.81552 0.30926 0.0
C576 C 0.60935 0.83442 0.27527 0.0
C577 C 0.61314 0.81481 0.26898 0.0
H578 H 0.59456 0.7811 0.31421 0.0
H579 H 0.598 0.8496 0.30053 0.0
C580 C 0.50446 0.76338 0.38124 0.0
N581 N 0.51658 0.7788 0.36479 0.0
C582 C 0.47876 0.74733 0.38025 0.0
C583 C 0.4784 0.76477 0.34617 0.0
C584 C 0.50409 0.78044 0.34781 0.0
C585 C 0.46556 0.74732 0.3622 0.0
H586 H 0.51488 0.76255 0.39457 0.0
H587 H 0.51432 0.79273 0.33489 0.0
O588 O 0.61359 0.82448 0.35887 0.0
O589 O 0.5697 0.80289 0.39036 0.0
O590 O 0.56662 0.82852 0.34898 0.0
O591 O 0.56505 0.77728 0.34617 0.0
H592 H 0.62478 0.79159 0.34296 0.0
H593 H 0.65096 0.86995 0.35068 0.0
H594 H 0.66354 0.80235 0.32362 0.0
H595 H 0.68912 0.87929 0.33095 0.0
H596 H 0.55965 0.73963 0.43322 0.0
H597 H 0.60284 0.83017 0.41953 0.0
H598 H 0.54893 0.7553 0.40115 0.0
H599 H 0.61277 0.81319 0.45117 0.0
H600 H 0.65868 0.90364 0.41105 0.0
H601 H 0.58901 0.90367 0.40738 0.0
H602 H 0.59709 0.71799 0.36676 0.0
H603 H 0.65759 0.78305 0.3964 0.0
H604 H 0.53572 0.8391 0.32889 0.0
H605 H 0.61241 0.86724 0.34571 0.0
H606 H 0.54804 0.87915 0.31075 0.0
H607 H 0.6234 0.9069 0.3276 0.0
H608 H 0.54659 0.77799 0.30852 0.0
H609 H 0.53351 0.73498 0.36536 0.0
H610 H 0.5066 0.74436 0.29429 0.0
H611 H 0.49365 0.70221 0.35015 0.0
H612 H 0.60966 0.77964 0.27886 0.0
H613 H 0.61335 0.84968 0.26466 0.0
H614 H 0.46948 0.73436 0.39307 0.0
H615 H 0.46904 0.76517 0.33186 0.0
Li616 Li 0.77694 0.59026 0.68939 0.0
Li617 Li 0.73623 0.58783 0.69644 0.0
Li618 Li 0.73952 0.55387 0.67814 0.0
Li619 Li 0.75314 0.59321 0.66112 0.0
C620 C 0.76344 0.5688 0.725 0.0
N621 N 0.79407 0.5762 0.75919 0.0
C622 C 0.76437 0.58387 0.7418 0.0
C623 C 0.77807 0.55746 0.7256 0.0
C624 C 0.77997 0.58737 0.75895 0.0
C625 C 0.79345 0.56145 0.74302 0.0
C626 C 0.77387 0.63855 0.67732 0.0
C627 C 0.76283 0.66809 0.66366 0.0
N628 N 0.78704 0.68363 0.65831 0.0
C629 C 0.79866 0.65487 0.6718 0.0
C630 C 0.75581 0.64523 0.67331 0.0
C631 C 0.80494 0.67756 0.66216 0.0
C632 C 0.82402 0.59481 0.6889 0.0
N633 N 0.81067 0.60426 0.69795 0.0
C634 C 0.84781 0.63909 0.71136 0.0
C635 C 0.82186 0.62556 0.70958 0.0
C636 C 0.86218 0.63044 0.70113 0.0
C637 C 0.84987 0.60754 0.69041 0.0
H638 H 0.81475 0.57821 0.67938 0.0
H639 H 0.81075 0.63284 0.71631 0.0
C640 C 0.69477 0.575 0.72167 0.0
N641 N 0.71724 0.59431 0.7158 0.0
C642 C 0.68022 0.57868 0.73642 0.0
C643 C 0.71232 0.62208 0.73868 0.0
C644 C 0.72625 0.61753 0.72392 0.0
C645 C 0.68902 0.60247 0.74519 0.0
H646 H 0.68828 0.5567 0.71496 0.0
H647 H 0.74432 0.63245 0.71906 0.0
C648 C 0.76909 0.55612 0.64817 0.0
N649 N 0.7653 0.51949 0.62092 0.0
C650 C 0.76031 0.5547 0.62758 0.0
C651 C 0.77588 0.53881 0.65488 0.0
C652 C 0.7586 0.5361 0.61404 0.0
C653 C 0.7738 0.52044 0.64088 0.0
C654 C 0.70295 0.57164 0.65697 0.0
C655 C 0.69778 0.56038 0.63706 0.0
C656 C 0.6915 0.58516 0.66314 0.0
C657 C 0.68124 0.56285 0.62365 0.0
C658 C 0.67511 0.58726 0.64927 0.0
N659 N 0.67035 0.57614 0.62998 0.0
C660 C 0.72621 0.50526 0.69115 0.0
C661 C 0.7125 0.50748 0.65672 0.0
C662 C 0.71837 0.48004 0.68842 0.0
N663 N 0.72382 0.51856 0.67517 0.0
C664 C 0.70444 0.48233 0.65328 0.0
C665 C 0.70794 0.46845 0.66905 0.0
H666 H 0.73509 0.51445 0.70572 0.0
H667 H 0.71082 0.51838 0.64426 0.0
C668 C 0.78477 0.61984 0.63004 0.0
N669 N 0.7606 0.61147 0.63524 0.0
C670 C 0.79471 0.63314 0.61153 0.0
C671 C 0.7548 0.62943 0.60383 0.0
C672 C 0.74575 0.6167 0.62296 0.0
C673 C 0.77953 0.63759 0.59797 0.0
H674 H 0.79631 0.61588 0.64028 0.0
H675 H 0.72697 0.61093 0.62777 0.0
O676 O 0.7488 0.56569 0.70782 0.0
O677 O 0.76722 0.61595 0.68622 0.0
O678 O 0.77052 0.57395 0.66183 0.0
O679 O 0.7185 0.5688 0.67058 0.0
H680 H 0.75329 0.5929 0.74155 0.0
H681 H 0.7779 0.54607 0.71258 0.0
H682 H 0.78091 0.59904 0.77203 0.0
H683 H 0.80499 0.55293 0.74364 0.0
H684 H 0.74902 0.67343 0.66035 0.0
H685 H 0.81285 0.64991 0.67461 0.0
H686 H 0.73654 0.63278 0.67741 0.0
H687 H 0.82402 0.69029 0.65766 0.0
H688 H 0.85658 0.6566 0.71986 0.0
H689 H 0.86014 0.60036 0.68196 0.0
H690 H 0.66253 0.563 0.74119 0.0
H691 H 0.71967 0.64077 0.74484 0.0
H692 H 0.75454 0.56756 0.62212 0.0
H693 H 0.78205 0.53911 0.6709 0.0
H694 H 0.75177 0.53478 0.5981 0.0
H695 H 0.77877 0.50681 0.64595 0.0
H696 H 0.70674 0.55023 0.63181 0.0
H697 H 0.6951 0.5939 0.67849 0.0
H698 H 0.67717 0.55433 0.60817 0.0
H699 H 0.66614 0.59768 0.65385 0.0
H700 H 0.72161 0.47009 0.70095 0.0
H701 H 0.69622 0.47404 0.6382 0.0
H702 H 0.81379 0.63892 0.60738 0.0
H703 H 0.74264 0.63264 0.59365 0.0
Li704 Li 0.19987 0.79501 0.03939 0.0
Li705 Li 0.16305 0.75407 0.0443 0.0
Li706 Li 0.20129 0.75774 0.03148 0.0
Li707 Li 0.17651 0.76964 0.00945 0.0
C708 C 0.20449 0.78276 0.07687 0.0
N709 N 0.22246 0.81397 0.1115 0.0
C710 C 0.18798 0.78329 0.09159 0.0
C711 C 0.23014 0.79811 0.07974 0.0
C712 C 0.19744 0.79918 0.10901 0.0
C713 C 0.23885 0.81377 0.09735 0.0
C714 C 0.15198 0.79211 0.01999 0.0
C715 C 0.1167 0.78369 -0.00181 0.0
N716 N 0.12686 0.80854 0.99454 0.0
C717 C 0.16205 0.81758 0.01604 0.0
C718 C 0.12908 0.77503 0.01103 0.0
C719 C 0.14907 0.8255 0.00313 0.0
C720 C 0.23947 0.84392 0.03753 0.0
N721 N 0.21761 0.82908 0.0476 0.0
C722 C 0.21697 0.86466 0.06138 0.0
C723 C 0.20662 0.83881 0.05993 0.0
C724 C 0.23879 0.88042 0.05007 0.0
C725 C 0.25054 0.86975 0.03869 0.0
H726 H 0.24743 0.8358 0.02736 0.0
H727 H 0.18893 0.82654 0.06737 0.0
C728 C 0.13831 0.71903 0.07589 0.0
N729 N 0.13565 0.73435 0.0621 0.0
C730 C 0.1192 0.70437 0.0899 0.0
C731 C 0.09496 0.72156 0.07527 0.0
C732 C 0.11459 0.73592 0.06153 0.0
C733 C 0.09723 0.70565 0.08979 0.0
H734 H 0.15544 0.71842 0.0761 0.0
H735 H 0.11317 0.74861 0.05071 0.0
C736 C 0.23214 0.78833 0.00314 0.0
N737 N 0.27045 0.78678 0.98218 0.0
C738 C 0.22857 0.77881 0.98262 0.0
C739 C 0.25525 0.79711 0.01297 0.0
C740 C 0.24818 0.77823 0.97228 0.0
C741 C 0.27436 0.79612 0.00213 0.0
C742 C 0.14929 0.71244 0.02355 0.0
C743 C 0.15485 0.69635 0.03468 0.0
C744 C 0.12487 0.70411 0.01694 0.0
C745 C 0.13576 0.67219 0.03923 0.0
C746 C 0.1063 0.67983 0.02184 0.0
N747 N 0.11208 0.66452 0.0328 0.0
C748 C 0.23954 0.74866 0.04523 0.0
C749 C 0.22022 0.72993 0.01273 0.0
C750 C 0.25784 0.74221 0.04197 0.0
N751 N 0.22181 0.74322 0.03031 0.0
C752 C 0.23812 0.7231 0.00883 0.0
C753 C 0.25774 0.73003 0.02322 0.0
H754 H 0.24024 0.75916 0.05909 0.0
H755 H 0.20592 0.72602 0.00112 0.0
C756 C 0.18207 0.79799 0.97486 0.0
N757 N 0.16912 0.77391 0.98139 0.0
C758 C 0.18067 0.8041 0.95401 0.0
C759 C 0.15248 0.76041 0.94681 0.0
C760 C 0.15426 0.75514 0.96802 0.0
C761 C 0.16607 0.78517 0.93959 0.0
H762 H 0.19422 0.81238 0.9858 0.0
H763 H 0.14449 0.7361 0.97364 0.0
O764 O 0.1956 0.76773 0.05948 0.0
O765 O 0.16463 0.78392 0.03227 0.0
O766 O 0.21294 0.78841 0.01379 0.0
O767 O 0.16762 0.73632 0.01934 0.0
H768 H 0.16807 0.77176 0.08952 0.0
H769 H 0.24317 0.79825 0.06832 0.0
H770 H 0.18488 0.79983 0.12051 0.0
H771 H 0.25865 0.82584 0.09971 0.0
H772 H 0.09905 0.77065 0.99105 0.0
H773 H 0.17987 0.83109 0.02258 0.0
H774 H 0.12115 0.75525 0.01366 0.0
H775 H 0.15672 0.84514 -0.00013 0.0
H776 H 0.20737 0.87218 0.07036 0.0
H777 H 0.2671 0.88113 0.02941 0.0
H778 H 0.12163 0.69222 0.10074 0.0
H779 H 0.07851 0.72343 0.07493 0.0
H780 H 0.21078 0.77159 0.97481 0.0
H781 H 0.25825 0.80407 0.02899 0.0
H782 H 0.24562 0.77082 0.95644 0.0
H783 H 0.29223 0.80259 0.00964 0.0
H784 H 0.17364 0.70253 0.04 0.0
H785 H 0.12028 0.7163 0.00825 0.0
H786 H 0.13975 0.65958 0.04796 0.0
H787 H 0.08728 0.67318 0.01694 0.0
H788 H 0.27248 0.74757 0.05358 0.0
H789 H 0.23749 0.71394 0.99409 0.0
H790 H 0.1919 0.82332 0.94903 0.0
H791 H 0.14106 0.7453 0.93611 0.0
Li792 Li 0.39948 0.17635 0.34633 0.0
Li793 Li 0.40683 0.1447 0.3587 0.0
Li794 Li 0.44133 0.18166 0.34107 0.0
Li795 Li 0.40461 0.14927 0.32207 0.0
C796 C 0.42379 0.1988 0.37976 0.0
N797 N 0.42236 0.23645 0.40207 0.0
C798 C 0.40351 0.1934 0.39281 0.0
C799 C 0.44332 0.22342 0.37806 0.0
C800 C 0.40313 0.21267 0.40394 0.0
C801 C 0.44226 0.24216 0.38948 0.0
C802 C 0.35996 0.11955 0.35292 0.0
C803 C 0.33667 0.07488 0.3574 0.0
N804 N 0.32607 0.07783 0.37515 0.0
C805 C 0.34873 0.1221 0.37116 0.0
C806 C 0.35381 0.09573 0.34594 0.0
C807 C 0.33168 0.10079 0.38218 0.0
C808 C 0.35751 0.18296 0.34801 0.0
N809 N 0.38281 0.19516 0.34802 0.0
C810 C 0.3846 0.23383 0.34056 0.0
C811 C 0.39644 0.22018 0.34475 0.0
C812 C 0.35849 0.22152 0.33945 0.0
C813 C 0.3449 0.19587 0.34385 0.0
H814 H 0.3471 0.16295 0.34975 0.0
H815 H 0.41652 0.22923 0.3439 0.0
C816 C 0.40041 0.09979 0.37577 0.0
N817 N 0.40033 0.12114 0.38056 0.0
C818 C 0.39358 0.08116 0.39094 0.0
C819 C 0.38753 0.1072 0.41588 0.0
C820 C 0.39463 0.12538 0.40027 0.0
C821 C 0.38662 0.08461 0.41119 0.0
H822 H 0.40511 0.09695 0.36 0.0
H823 H 0.39498 0.14259 0.40373 0.0
C824 C 0.4111 0.19429 0.30478 0.0
N825 N 0.39214 0.21035 0.27275 0.0
C826 C 0.38547 0.18194 0.30081 0.0
C827 C 0.42702 0.21499 0.29254 0.0
C828 C 0.37627 0.19028 0.28453 0.0
C829 C 0.4171 0.22278 0.2764 0.0
C830 C 0.43733 0.13461 0.32164 0.0
C831 C 0.46079 0.14753 0.31215 0.0
C832 C 0.4205 0.11029 0.31516 0.0
C833 C 0.46686 0.13605 0.29607 0.0
C834 C 0.42726 0.09946 0.29902 0.0
N835 N 0.45009 0.11247 0.28988 0.0
C836 C 0.48989 0.20977 0.35766 0.0
C837 C 0.48587 0.21663 0.3214 0.0
C838 C 0.51489 0.22846 0.3575 0.0
N839 N 0.47587 0.20472 0.33989 0.0
C840 C 0.51082 0.23533 0.32047 0.0
C841 C 0.52552 0.24179 0.33881 0.0
H842 H 0.48139 0.19982 0.37211 0.0
H843 H 0.47435 0.21182 0.30745 0.0
C844 C 0.36909 0.12315 0.29072 0.0
N845 N 0.394 0.13616 0.2945 0.0
C846 C 0.36001 0.12311 0.27056 0.0
C847 C 0.40247 0.14725 0.25818 0.0
C848 C 0.41073 0.14703 0.27861 0.0
C849 C 0.37681 0.13667 0.25433 0.0
H850 H 0.35618 0.11564 0.30374 0.0
H851 H 0.43037 0.15798 0.2822 0.0
O852 O 0.42434 0.18019 0.36851 0.0
O853 O 0.37731 0.14024 0.34226 0.0
O854 O 0.42058 0.18634 0.32061 0.0
O855 O 0.431 0.14563 0.33733 0.0
H856 H 0.38802 0.17462 0.39409 0.0
H857 H 0.45896 0.22815 0.3678 0.0
H858 H 0.38749 0.20873 0.414 0.0
H859 H 0.45722 0.26128 0.38824 0.0
H860 H 0.33188 0.05637 0.35223 0.0
H861 H 0.3534 0.14033 0.37697 0.0
H862 H 0.36239 0.09333 0.33197 0.0
H863 H 0.32301 0.10253 0.39641 0.0
H864 H 0.3958 0.25349 0.33689 0.0
H865 H 0.32475 0.1857 0.34325 0.0
H866 H 0.39295 0.06392 0.38665 0.0
H867 H 0.38261 0.11069 0.43141 0.0
H868 H 0.37277 0.16606 0.31021 0.0
H869 H 0.44685 0.22505 0.29549 0.0
H870 H 0.3565 0.18079 0.28127 0.0
H871 H 0.42924 0.23873 0.26679 0.0
H872 H 0.4742 0.16619 0.31713 0.0
H873 H 0.40229 0.09998 0.3223 0.0
H874 H 0.48491 0.14588 0.28854 0.0
H875 H 0.41432 0.08073 0.29374 0.0
H876 H 0.52568 0.2327 0.37191 0.0
H877 H 0.51823 0.24523 0.30577 0.0
H878 H 0.34012 0.11496 0.26841 0.0
H879 H 0.41604 0.15757 0.24602 0.0
Li880 Li 0.27118 0.40435 0.69233 0.0
Li881 Li 0.22789 0.38682 0.68767 0.0
Li882 Li 0.25424 0.39989 0.65724 0.0
Li883 Li 0.25462 0.43092 0.68209 0.0
C884 C 0.26109 0.36167 0.66994 0.0
N885 N 0.28674 0.33876 0.65552 0.0
C886 C 0.25025 0.33576 0.67104 0.0
C887 C 0.28497 0.37593 0.66141 0.0
C888 C 0.26352 0.32453 0.66369 0.0
C889 C 0.29763 0.36399 0.65423 0.0
C890 C 0.24489 0.40158 0.72853 0.0
C891 C 0.24441 0.40461 0.76647 0.0
N892 N 0.23817 0.38027 0.76806 0.0
C893 C 0.23844 0.37658 0.73054 0.0
C894 C 0.24789 0.41572 0.74662 0.0
C895 C 0.23515 0.36616 0.75066 0.0
C896 C 0.31545 0.42577 0.71607 0.0
N897 N 0.29616 0.40377 0.70915 0.0
C898 C 0.31122 0.38088 0.72836 0.0
C899 C 0.2937 0.38156 0.71507 0.0
C900 C 0.33112 0.40323 0.73603 0.0
C901 C 0.33321 0.42594 0.72977 0.0
H902 H 0.31667 0.44312 0.71132 0.0
H903 H 0.27777 0.36431 0.70999 0.0
C904 C 0.18529 0.34156 0.68224 0.0
N905 N 0.195 0.36206 0.6948 0.0
C906 C 0.15961 0.32595 0.68097 0.0
C907 C 0.15453 0.35169 0.70694 0.0
C908 C 0.18043 0.36674 0.70785 0.0
C909 C 0.14385 0.33174 0.69253 0.0
H910 H 0.19738 0.33853 0.67188 0.0
H911 H 0.18872 0.38345 0.71741 0.0
C912 C 0.29626 0.44923 0.65596 0.0
N913 N 0.3213 0.48926 0.62897 0.0
C914 C 0.28316 0.45441 0.64073 0.0
C915 C 0.32207 0.46446 0.65752 0.0
C916 C 0.29615 0.47472 0.62722 0.0
C917 C 0.33441 0.48459 0.6437 0.0
C918 C 0.20369 0.4028 0.66318 0.0
C919 C 0.18688 0.38648 0.64819 0.0
C920 C 0.19563 0.41393 0.67803 0.0
C921 C 0.16224 0.38138 0.64844 0.0
C922 C 0.17087 0.40846 0.67769 0.0
N923 N 0.15481 0.39238 0.66306 0.0
C924 C 0.23173 0.36955 0.6239 0.0
C925 C 0.27018 0.40415 0.61333 0.0
C926 C 0.22508 0.36248 0.60299 0.0
N927 N 0.25334 0.39067 0.62858 0.0
C928 C 0.26419 0.39787 0.59209 0.0
C929 C 0.24093 0.37734 0.58675 0.0
H930 H 0.21895 0.359 0.63645 0.0
H931 H 0.2877 0.42035 0.61747 0.0
C932 C 0.27317 0.47997 0.69839 0.0
N933 N 0.25854 0.46331 0.68343 0.0
C934 C 0.27681 0.50417 0.69837 0.0
C935 C 0.2502 0.49335 0.66766 0.0
C936 C 0.24717 0.46955 0.66823 0.0
C937 C 0.26517 0.51105 0.68285 0.0
H938 H 0.28217 0.47452 0.71017 0.0
H939 H 0.23604 0.45613 0.65626 0.0
O940 O 0.24813 0.37276 0.67706 0.0
O941 O 0.24855 0.41242 0.70904 0.0
O942 O 0.28393 0.42995 0.66985 0.0
O943 O 0.22776 0.4075 0.6636 0.0
H944 H 0.23176 0.32447 0.67756 0.0
H945 H 0.29372 0.39596 0.66034 0.0
H946 H 0.25536 0.3045 0.66449 0.0
H947 H 0.31612 0.37479 0.64764 0.0
H948 H 0.2467 0.41535 0.78061 0.0
H949 H 0.23608 0.36531 0.71677 0.0
H950 H 0.25293 0.43512 0.74532 0.0
H951 H 0.23021 0.34685 0.75244 0.0
H952 H 0.30866 0.36299 0.73329 0.0
H953 H 0.34823 0.44351 0.73558 0.0
H954 H 0.15215 0.31047 0.67 0.0
H955 H 0.14308 0.35693 0.71603 0.0
H956 H 0.26321 0.44275 0.63921 0.0
H957 H 0.33245 0.46079 0.66935 0.0
H958 H 0.28625 0.4789 0.61533 0.0
H959 H 0.35439 0.49653 0.64473 0.0
H960 H 0.1927 0.37771 0.63653 0.0
H961 H 0.20821 0.42626 0.69 0.0
H962 H 0.14902 0.36865 0.63703 0.0
H963 H 0.16436 0.41681 0.68919 0.0
H964 H 0.20694 0.34658 0.5996 0.0
H965 H 0.27712 0.4095 0.57998 0.0
H966 H 0.28848 0.51728 0.71037 0.0
H967 H 0.24134 0.498 0.65513 0.0
Li968 Li 0.80141 0.22462 0.02961 0.0
Li969 Li 0.83283 0.26609 0.03805 0.0
Li970 Li 0.78881 0.25583 0.02856 0.0
Li971 Li 0.81798 0.25414 0.00177 0.0
C972 C 0.79168 0.22887 0.0699 0.0
N973 N 0.77328 0.1954 0.10298 0.0
C974 C 0.80638 0.22016 0.0791 0.0
C975 C 0.7677 0.22072 0.07759 0.0
C976 C 0.7967 0.20317 0.09577 0.0
C977 C 0.75873 0.20376 0.09433 0.0
C978 C 0.86045 0.25099 0.01444 0.0
C979 C 0.89858 0.28188 -0.00202 0.0
N980 N 0.90997 0.26914 0.00453 0.0
C981 C 0.87247 0.2381 0.02086 0.0
C982 C 0.87355 0.27297 0.00281 0.0
C983 C 0.89753 0.24762 0.01576 0.0
C984 C 0.80255 0.18179 0.02112 0.0
N985 N 0.78991 0.18987 0.03322 0.0
C986 C 0.75974 0.14789 0.04216 0.0
C987 C 0.76897 0.17354 0.04386 0.0
C988 C 0.77194 0.139 0.02906 0.0
C989 C 0.79389 0.15642 0.01878 0.0
H990 H 0.81861 0.19502 0.0122 0.0
H991 H 0.75864 0.18022 0.05275 0.0
C992 C 0.86712 0.31012 0.05992 0.0
N993 N 0.86047 0.28611 0.05544 0.0
C994 C 0.88769 0.32453 0.07285 0.0
C995 C 0.89382 0.28908 0.07636 0.0
C996 C 0.87312 0.27538 0.06356 0.0
C997 C 0.9014 0.31401 0.08109 0.0
H998 H 0.85643 0.31803 0.05349 0.0
H999 H 0.86701 0.25607 0.06019 0.0
C1000 C 0.76334 0.20731 0.00333 0.0
N1001 N 0.72485 0.15934 -0.00369 0.0
C1002 C 0.76567 0.19247 0.98791 0.0
C1003 C 0.74137 0.19785 0.01507 0.0
C1004 C 0.74603 0.16822 0.98465 0.0
C1005 C 0.72213 0.17354 0.01128 0.0
C1006 C 0.83029 0.30506 0.00673 0.0
C1007 C 0.81343 0.31032 -0.00345 0.0
C1008 C 0.85578 0.32232 0.00572 0.0
C1009 C 0.82239 0.33242 0.98507 0.0
C1010 C 0.86401 0.34423 0.99409 0.0
N1011 N 0.84728 0.34877 0.98407 0.0
C1012 C 0.75891 0.27218 0.04999 0.0
C1013 C 0.74892 0.25976 0.01423 0.0
C1014 C 0.73943 0.27737 0.05126 0.0
N1015 N 0.76314 0.2635 0.03165 0.0
C1016 C 0.7295 0.2649 0.01473 0.0
C1017 C 0.72454 0.27382 0.03341 0.0
H1018 H 0.7706 0.275 0.06358 0.0
H1019 H 0.75275 0.25279 -0.0001 0.0
C1020 C 0.83074 0.23894 0.96507 0.0
N1021 N 0.82361 0.25506 0.97232 0.0
C1022 C 0.82841 0.23271 0.94373 0.0
C1023 C 0.81264 0.26082 0.93749 0.0
C1024 C 0.81515 0.2664 0.95902 0.0
C1025 C 0.81838 0.24301 0.92975 0.0
H1026 H 0.83627 0.22927 0.97608 0.0
H1027 H 0.80861 0.2783 0.96524 0.0
O1028 O 0.80084 0.2456 0.05366 0.0
O1029 O 0.83596 0.24198 0.01957 0.0
O1030 O 0.78264 0.23081 0.00722 0.0
O1031 O 0.8218 0.28366 0.01832 0.0
H1032 H 0.82495 0.22627 0.07328 0.0
H1033 H 0.75609 0.22728 0.07062 0.0
H1034 H 0.8078 0.19615 0.10297 0.0
H1035 H 0.74017 0.19721 0.10041 0.0
H1036 H 0.90894 0.29889 0.98899 0.0
H1037 H 0.86258 0.22102 0.02988 0.0
H1038 H 0.86443 0.28287 -0.00265 0.0
H1039 H 0.9071 0.23791 0.02074 0.0
H1040 H 0.74284 0.13519 0.05049 0.0
H1041 H 0.80362 0.15061 0.00808 0.0
H1042 H 0.89295 0.34369 0.0762 0.0
H1043 H 0.90353 0.2801 0.08281 0.0
H1044 H 0.78258 0.19946 0.97876 0.0
H1045 H 0.73937 0.20902 0.0272 0.0
H1046 H 0.74765 0.15644 0.9729 0.0
H1047 H 0.70509 0.16591 0.02034 0.0
H1048 H 0.79365 0.29736 -0.00269 0.0
H1049 H 0.86913 0.31895 0.01392 0.0
H1050 H 0.80953 0.33659 0.97698 0.0
H1051 H 0.88369 0.35766 0.99311 0.0
H1052 H 0.7362 0.28429 0.06593 0.0
H1053 H 0.7182 0.26151 0.00073 0.0
H1054 H 0.83259 0.21853 0.93861 0.0
H1055 H 0.80503 0.26935 0.92724 0.0
H1056 H 0.26305 0.54487 0.34553 0.0
H1057 H 0.29633 0.58668 0.35457 0.0
H1058 H 0.30016 0.60947 0.28968 0.0
H1059 H 0.26666 0.56755 0.28048 0.0
H1060 H 0.34501 0.61877 0.30529 0.0
H1061 H 0.30136 0.65448 0.36096 0.0
H1062 H 0.2957 0.62401 0.36799 0.0
H1063 H 0.28335 0.62832 0.34364 0.0
C1064 C 0.27044 0.55895 0.33328 0.0
C1065 C 0.26221 0.55292 0.31228 0.0
C1066 C 0.28945 0.58288 0.3385 0.0
C1067 C 0.30046 0.60127 0.32286 0.0
C1068 C 0.29177 0.59555 0.302 0.0
H1069 H 0.42693 0.75161 0.34565 0.0
H1070 H 0.38546 0.71748 0.3358 0.0
C1071 C 0.27276 0.5716 0.29676 0.0
C1072 C 0.32295 0.62536 0.32786 0.0
H1073 H 0.3462 0.67468 0.36196 0.0
C1074 C 0.34517 0.63119 0.31744 0.0
C1075 C 0.32309 0.64162 0.34363 0.0
C1076 C 0.29953 0.63694 0.35455 0.0
C1077 C 0.36775 0.65224 0.32304 0.0
C1078 C 0.36813 0.66765 0.33964 0.0
C1079 C 0.34579 0.66257 0.34941 0.0
C1080 C 0.39187 0.68839 0.34755 0.0
C1081 C 0.39118 0.65759 0.31144 0.0
C1082 C 0.40874 0.6832 0.35791 0.0
C1083 C 0.4323 0.70251 0.3635 0.0
C1084 C 0.4394 0.72739 0.35886 0.0
C1085 C 0.42202 0.7326 0.34927 0.0
C1086 C 0.39835 0.7132 0.34373 0.0
H1087 H 0.38697 0.64751 0.29613 0.0
H1088 H 0.4031 0.67788 0.30843 0.0
H1089 H 0.40196 0.65149 0.32129 0.0
H1090 H 0.40393 0.66411 0.36105 0.0
H1091 H 0.44535 0.69783 0.37056 0.0
H1092 H 0.76393 0.30716 0.63146 0.0
H1093 H 0.75269 0.33893 0.63897 0.0
H1094 H 0.67548 0.28198 0.64441 0.0
H1095 H 0.68649 0.24997 0.63628 0.0
H1096 H 0.68377 0.32439 0.62063 0.0
H1097 H 0.73224 0.35067 0.69785 0.0
H1098 H 0.75177 0.35126 0.67668 0.0
H1099 H 0.72506 0.32219 0.68429 0.0
C1100 C 0.7445 0.30138 0.63393 0.0
C1101 C 0.72609 0.27604 0.63327 0.0
C1102 C 0.73816 0.31953 0.63848 0.0
C1103 C 0.71334 0.31271 0.64261 0.0
C1104 C 0.69477 0.28754 0.64145 0.0
H1105 H 0.68634 0.42777 0.69526 0.0
H1106 H 0.6825 0.3869 0.68921 0.0
C1107 C 0.70111 0.26931 0.6369 0.0
C1108 C 0.70699 0.33206 0.64809 0.0
H1109 H 0.7215 0.37949 0.68277 0.0
C1110 C 0.69171 0.33625 0.63436 0.0
C1111 C 0.71696 0.34713 0.66625 0.0
C1112 C 0.73221 0.34246 0.68225 0.0
C1113 C 0.68728 0.35611 0.6377 0.0
C1114 C 0.69876 0.37229 0.65502 0.0
C1115 C 0.71289 0.3672 0.66938 0.0
C1116 C 0.6981 0.39569 0.65773 0.0
C1117 C 0.67061 0.35974 0.62251 0.0
C1118 C 0.70803 0.41408 0.642 0.0
C1119 C 0.71028 0.43736 0.64542 0.0
C1120 C 0.70285 0.4428 0.66472 0.0
C1121 C 0.69236 0.42415 0.68028 0.0
C1122 C 0.69005 0.4008 0.67682 0.0
H1123 H 0.65707 0.34188 0.61485 0.0
H1124 H 0.66019 0.36761 0.63059 0.0
H1125 H 0.68218 0.37286 0.60989 0.0
H1126 H 0.71503 0.41081 0.6274 0.0
H1127 H 0.71894 0.45149 0.6333 0.0
H1128 H 0.44615 0.70589 0.96164 0.0
H1129 H 0.40318 0.69717 0.96612 0.0
H1130 H 0.43077 0.77231 0.98835 0.0
H1131 H 0.47351 0.78125 0.98355 0.0
H1132 H 0.38169 0.70084 0.00459 0.0
H1133 H 0.37915 0.76343 0.94349 0.0
H1134 H 0.40229 0.75383 0.94361 0.0
H1135 H 0.40591 0.77891 0.96035 0.0
C1136 C 0.44298 0.72063 0.96713 0.0
C1137 C 0.46313 0.74424 0.97228 0.0
C1138 C 0.41849 0.71559 0.96978 0.0
C1139 C 0.41388 0.7342 0.9773 0.0
C1140 C 0.43397 0.75783 0.98217 0.0
H1141 H 0.3068 0.76422 0.02797 0.0
H1142 H 0.34261 0.76131 0.01589 0.0
C1143 C 0.45835 0.76284 0.97963 0.0
C1144 C 0.3882 0.72885 0.98135 0.0
H1145 H 0.34888 0.75117 0.97139 0.0
C1146 C 0.3742 0.71141 -0.00296 0.0
C1147 C 0.37854 0.74262 0.97138 0.0
C1148 C 0.39215 0.76057 0.95361 0.0
C1149 C 0.35145 0.70861 0.00402 0.0
C1150 C 0.34258 0.7235 0.9949 0.0
C1151 C 0.35593 0.73994 0.97844 0.0
C1152 C 0.32067 0.72399 0.00338 0.0
C1153 C 0.33771 0.69082 0.02183 0.0
C1154 C 0.29653 0.7038 0.0005 0.0
C1155 C 0.27595 0.70533 0.00753 0.0
C1156 C 0.27931 0.72708 0.01756 0.0
C1157 C 0.30361 0.74703 0.02072 0.0
C1158 C 0.32407 0.74551 0.01365 0.0
H1159 H 0.34847 0.68259 0.02871 0.0
H1160 H 0.33353 0.70056 0.03452 0.0
H1161 H 0.3197 0.67545 0.0159 0.0
H1162 H 0.2936 0.68713 0.99242 0.0
H1163 H 0.25744 0.68967 0.00491 0.0
H1164 H 0.56168 0.25408 0.30882 0.0
H1165 H 0.60259 0.29206 0.3072 0.0
H1166 H 0.58814 0.31628 0.36667 0.0
H1167 H 0.54716 0.27864 0.36829 0.0
H1168 H 0.60264 0.35127 0.33172 0.0
H1169 H 0.66689 0.31401 0.34374 0.0
H1170 H 0.64241 0.29813 0.32465 0.0
H1171 H 0.6347 0.29731 0.35204 0.0
C1172 C 0.56733 0.26742 0.32163 0.0
C1173 C 0.55123 0.26339 0.33869 0.0
C1174 C 0.59074 0.28896 0.32076 0.0
C1175 C 0.59838 0.30678 0.33691 0.0
C1176 C 0.58259 0.3026 0.35414 0.0
H1177 H 0.73261 0.44636 0.36172 0.0
H1178 H 0.696 0.40445 0.36363 0.0
C1179 C 0.55927 0.28103 0.3551 0.0
C1180 C 0.62198 0.3307 0.33509 0.0
H1181 H 0.68525 0.35686 0.33504 0.0
C1182 C 0.6207 0.35252 0.33245 0.0
C1183 C 0.64543 0.33215 0.3361 0.0
C1184 C 0.64763 0.30922 0.33943 0.0
C1185 C 0.64237 0.37583 0.33064 0.0
C1186 C 0.66579 0.37727 0.3315 0.0
C1187 C 0.66715 0.35552 0.33427 0.0
C1188 C 0.68903 0.40148 0.33002 0.0
C1189 C 0.6402 0.39889 0.328 0.0
C1190 C 0.69724 0.41332 0.31043 0.0
C1191 C 0.71809 0.4372 0.30927 0.0
C1192 C 0.7309 0.4496 0.32774 0.0
C1193 C 0.72293 0.43734 0.34728 0.0
C1194 C 0.70218 0.41341 0.34839 0.0
H1195 H 0.62069 0.39485 0.32965 0.0
H1196 H 0.65196 0.41314 0.33989 0.0
H1197 H 0.64712 0.40701 0.31213 0.0
H1198 H 0.68718 0.40431 0.29612 0.0
H1199 H 0.72368 0.44628 0.29403 0.0
H1200 H 0.23421 0.68822 0.63616 0.0
H1201 H 0.24015 0.65323 0.64493 0.0
H1202 H 0.31666 0.70422 0.66152 0.0
H1203 H 0.31093 0.73959 0.65253 0.0
H1204 H 0.27516 0.64144 0.62737 0.0
H1205 H 0.28768 0.65854 0.71408 0.0
H1206 H 0.27464 0.67286 0.69748 0.0
H1207 H 0.3075 0.68408 0.69702 0.0
C1208 C 0.25243 0.69206 0.64137 0.0
C1209 C 0.27216 0.71669 0.6435 0.0
C1210 C 0.25573 0.67203 0.64653 0.0
C1211 C 0.27875 0.67617 0.65405 0.0
C1212 C 0.29863 0.70068 0.65605 0.0
H1213 H 0.3087 0.5555 0.68777 0.0
H1214 H 0.31518 0.59755 0.68188 0.0
C1215 C 0.29534 0.72082 0.65088 0.0
C1216 C 0.28162 0.65454 0.65951 0.0
H1217 H 0.2873 0.62267 0.70118 0.0
C1218 C 0.27811 0.63748 0.64346 0.0
C1219 C 0.28555 0.64952 0.68052 0.0
C1220 C 0.28892 0.66707 0.69836 0.0
C1221 C 0.27763 0.61511 0.64797 0.0
C1222 C 0.28046 0.60958 0.66908 0.0
C1223 C 0.2851 0.62707 0.68503 0.0
C1224 C 0.27651 0.5848 0.67489 0.0
C1225 C 0.27347 0.5972 0.6302 0.0
C1226 C 0.25253 0.56399 0.67357 0.0
C1227 C 0.24875 0.54013 0.67702 0.0
C1228 C 0.26892 0.53662 0.68184 0.0
C1229 C 0.2928 0.55764 0.68418 0.0
C1230 C 0.29656 0.58161 0.68074 0.0
H1231 H 0.2773 0.60648 0.61454 0.0
H1232 H 0.28547 0.58875 0.63217 0.0
H1233 H 0.25377 0.58191 0.63041 0.0
H1234 H 0.23681 0.5662 0.66934 0.0
H1235 H 0.23008 0.52435 0.67551 0.0
H1236 H 0.71221 0.29816 0.00418 0.0
H1237 H 0.67466 0.30164 0.00319 0.0
H1238 H 0.65158 0.26383 0.06314 0.0
H1239 H 0.68901 0.25991 0.06407 0.0
H1240 H 0.61584 0.24262 0.03071 0.0
H1241 H 0.65286 0.34454 0.03674 0.0
H1242 H 0.66823 0.33591 0.01725 0.0
H1243 H 0.67058 0.32997 0.04469 0.0
C1244 C 0.69926 0.29083 0.01726 0.0
C1245 C 0.70345 0.27865 0.03416 0.0
C1246 C 0.67797 0.29307 0.01678 0.0
C1247 C 0.66052 0.28323 0.0332 0.0
C1248 C 0.66498 0.27172 0.05041 0.0
H1249 H 0.52254 0.28859 0.04061 0.0
H1250 H 0.56319 0.29281 0.04854 0.0
C1251 C 0.68638 0.26959 0.05096 0.0
C1252 C 0.63653 0.28276 0.03126 0.0
H1253 H 0.6109 0.3199 0.02439 0.0
C1254 C 0.61471 0.25951 0.02958 0.0
C1255 C 0.63515 0.30483 0.02987 0.0
C1256 C 0.65792 0.33024 0.03242 0.0
C1257 C 0.59161 0.25773 0.0258 0.0
C1258 C 0.5904 0.27978 0.02349 0.0
C1259 C 0.61203 0.30305 0.02594 0.0
C1260 C 0.56677 0.27887 0.01822 0.0
C1261 C 0.56867 0.23228 0.02413 0.0
C1262 C 0.55573 0.27015 -0.00161 0.0
C1263 C 0.5326 0.26774 0.99382 0.0
C1264 C 0.52011 0.27396 0.00904 0.0
C1265 C 0.53161 0.28339 0.02868 0.0
C1266 C 0.55483 0.28593 0.03319 0.0
H1267 H 0.57184 0.21746 0.03069 0.0
H1268 H 0.55276 0.23185 0.03256 0.0
H1269 H 0.56342 0.22794 0.00726 0.0
H1270 H 0.56483 0.26481 0.9866 0.0
H1271 H 0.52413 0.26024 0.97863 0.0
H1272 H 0.26105 0.34476 0.25212 0.0
H1273 H 0.27886 0.31752 0.25781 0.0
H1274 H 0.26948 0.3204 0.32502 0.0
H1275 H 0.25149 0.34707 0.31952 0.0
H1276 H 0.32197 0.32847 0.28336 0.0
H1277 H 0.23615 0.24503 0.31154 0.0
H1278 H 0.23561 0.2698 0.29691 0.0
H1279 H 0.24244 0.27327 0.32471 0.0
C1280 C 0.26267 0.3394 0.26807 0.0
C1281 C 0.25508 0.34819 0.28538 0.0
C1282 C 0.27288 0.32395 0.27129 0.0
C1283 C 0.27519 0.31678 0.29182 0.0
C1284 C 0.26754 0.32547 0.30905 0.0
H1285 H 0.36819 0.26835 0.35035 0.0
H1286 H 0.34807 0.29087 0.33663 0.0
C1287 C 0.25754 0.34094 0.30587 0.0
C1288 C 0.28633 0.30088 0.29564 0.0
H1289 H 0.27474 0.24676 0.31956 0.0
C1290 C 0.31161 0.31044 0.291 0.0
C1291 C 0.27265 0.27727 0.30539 0.0
C1292 C 0.24514 0.26559 0.30976 0.0
C1293 C 0.32389 0.29748 0.29678 0.0
C1294 C 0.31057 0.27459 0.30773 0.0
C1295 C 0.285 0.26449 0.31143 0.0
C1296 C 0.32288 0.26107 0.3159 0.0
C1297 C 0.35104 0.30846 0.29123 0.0
C1298 C 0.31488 0.23662 0.30925 0.0
C1299 C 0.32622 0.22368 0.31715 0.0
C1300 C 0.34568 0.23491 0.33196 0.0
C1301 C 0.35344 0.25931 0.3388 0.0
C1302 C 0.34204 0.27223 0.3309 0.0
H1303 H 0.35649 0.32189 0.27793 0.0
H1304 H 0.36258 0.31864 0.30512 0.0
H1305 H 0.35535 0.29366 0.28689 0.0
H1306 H 0.30004 0.22765 0.29775 0.0
H1307 H 0.32009 0.20507 0.31129 0.0
H1308 H 0.92819 0.25212 0.60843 0.0
H1309 H 0.97131 0.2657 0.61859 0.0
H1310 H 0.95117 0.26067 0.68431 0.0
H1311 H 0.90811 0.24649 0.67438 0.0
H1312 H 0.00353 0.30797 0.64304 0.0
H1313 H 0.98717 0.22033 0.6812 0.0
H1314 H 0.96466 0.2216 0.66392 0.0
H1315 H 0.96763 0.23192 0.69083 0.0
C1316 C 0.93294 0.2537 0.62503 0.0
C1317 C 0.91477 0.24833 0.64059 0.0
C1318 C 0.95755 0.26153 0.63081 0.0
C1319 C 0.96429 0.26383 0.6522 0.0
C1320 C 0.94624 0.2586 0.66773 0.0
H1321 H 0.10421 0.31671 0.71967 0.0
H1322 H 0.06028 0.29994 0.71012 0.0
C1323 C 0.92171 0.25083 0.66199 0.0
C1324 C 0.99038 0.27255 0.65836 0.0
H1325 H 0.02725 0.25599 0.68593 0.0
C1326 C 0.00877 0.29658 0.6523 0.0
C1327 C 0.99705 0.25764 0.67057 0.0
C1328 C 0.97815 0.23135 0.67688 0.0
C1329 C 0.03367 0.30629 0.65838 0.0
C1330 C 0.04036 0.29137 0.67054 0.0
C1331 C 0.02198 0.26736 0.67666 0.0
C1332 C 0.06652 0.30022 0.67649 0.0
C1333 C 0.05256 0.3326 0.65207 0.0
C1334 C 0.08431 0.30533 0.66076 0.0
C1335 C 0.10925 0.31491 0.66612 0.0
C1336 C 0.11691 0.31939 0.68737 0.0
C1337 C 0.09891 0.31359 0.70318 0.0
C1338 C 0.07385 0.30395 0.69776 0.0
H1339 H 0.04353 0.34357 0.64763 0.0
H1340 H 0.06595 0.3424 0.66508 0.0
H1341 H 0.0632 0.33204 0.6382 0.0
H1342 H 0.07894 0.30226 0.64428 0.0
H1343 H 0.12265 0.31958 0.6535 0.0
H1344 H 0.7965 0.11295 0.0229 0.0
H1345 H 0.77892 0.06999 0.01096 0.0
H1346 H 0.70503 0.06005 0.01469 0.0
H1347 H 0.72255 0.10356 0.02501 0.0
H1348 H 0.74883 0.02688 0.02751 0.0
H1349 H 0.70398 0.03721 0.95567 0.0
H1350 H 0.72518 0.06353 0.97153 0.0
H1351 H 0.69297 0.04483 0.97909 0.0
C1352 C 0.77652 0.10176 0.02095 0.0
C1353 C 0.76102 0.11193 0.02463 0.0
C1354 C 0.76647 0.0771 0.01427 0.0
C1355 C 0.7407 0.06197 0.01135 0.0
C1356 C 0.72504 0.0716 0.01616 0.0
H1357 H 0.6638 0.90138 0.00314 0.0
H1358 H 0.68296 0.945 0.01389 0.0
C1359 C 0.73509 0.0964 0.02249 0.0
C1360 C 0.73031 0.03613 0.00337 0.0
H1361 H 0.69228 0.99557 0.96563 0.0
C1362 C 0.7366 0.0201 0.01389 0.0
C1363 C 0.71483 0.02743 0.98527 0.0
C1364 C 0.70908 0.04424 0.9721 0.0
C1365 C 0.7274 0.99546 0.00714 0.0
C1366 C 0.71064 0.98629 0.98989 0.0
C1367 C 0.70484 0.00249 0.97903 0.0
C1368 C 0.69856 0.95986 0.98312 0.0
C1369 C 0.73617 0.97974 0.01837 0.0
C1370 C 0.69986 0.95366 0.96197 0.0
C1371 C 0.68836 0.92867 0.95569 0.0
C1372 C 0.67567 0.90961 0.97053 0.0
C1373 C 0.67398 0.91583 0.99154 0.0
C1374 C 0.68505 0.94071 -0.00229 0.0
H1375 H 0.75472 0.99151 0.02577 0.0
H1376 H 0.72285 0.96902 0.03116 0.0
H1377 H 0.73741 0.96641 0.00742 0.0
H1378 H 0.70997 0.96814 0.95039 0.0
H1379 H 0.68973 0.92421 0.93938 0.0
H1380 H 0.63311 0.72639 0.34583 0.0
H1381 H 0.66195 0.71142 0.33854 0.0
H1382 H 0.69364 0.73412 0.40074 0.0
H1383 H 0.66423 0.74875 0.40845 0.0
H1384 H 0.71541 0.74174 0.34008 0.0
H1385 H 0.67784 0.66041 0.39471 0.0
H1386 H 0.65974 0.67448 0.38654 0.0
H1387 H 0.68415 0.68982 0.40564 0.0
C1388 C 0.64578 0.7277 0.35819 0.0
C1389 C 0.64613 0.73844 0.37786 0.0
C1390 C 0.66243 0.71937 0.35389 0.0
C1391 C 0.67975 0.72151 0.36914 0.0
C1392 C 0.68017 0.73205 0.38886 0.0
H1393 H 0.78701 0.66985 0.36052 0.0
H1394 H 0.76348 0.68953 0.37244 0.0
C1395 C 0.66348 0.74051 0.39319 0.0
C1396 C 0.69778 0.71333 0.36386 0.0
H1397 H 0.71252 0.66817 0.37404 0.0
C1398 C 0.71492 0.72574 0.34757 0.0
C1399 C 0.69709 0.69257 0.37377 0.0
C1400 C 0.67866 0.67835 0.39106 0.0
C1401 C 0.73126 0.71773 0.3407 0.0
C1402 C 0.73001 0.69643 0.3501 0.0
C1403 C 0.71334 0.68444 0.36681 0.0
C1404 C 0.74528 0.68579 0.34243 0.0
C1405 C 0.74976 0.7322 0.32351 0.0
C1406 C 0.74279 0.67711 0.32159 0.0
C1407 C 0.75641 0.66607 0.31464 0.0
C1408 C 0.77266 0.66339 0.32846 0.0
C1409 C 0.77508 0.67213 0.34933 0.0
C1410 C 0.76149 0.68318 0.35624 0.0
H1411 H 0.75334 0.75163 0.32246 0.0
H1412 H 0.76773 0.73276 0.3262 0.0
H1413 H 0.74215 0.72301 0.3081 0.0
H1414 H 0.72997 0.67848 0.31079 0.0
H1415 H 0.75415 0.65954 0.29848 0.0
H1416 H 0.07965 0.70161 0.63793 0.0
H1417 H 0.03706 0.6847 0.65091 0.0
H1418 H 0.04495 0.75783 0.64762 0.0
H1419 H 0.08777 0.77504 0.63496 0.0
H1420 H 0.02605 0.70365 0.68966 0.0
H1421 H 0.97648 0.70968 0.61851 0.0
H1422 H 0.00536 0.70929 0.61673 0.0
H1423 H 0.00551 0.73693 0.62539 0.0
C1424 C 0.07224 0.71406 0.63975 0.0
C1425 C 0.08711 0.73968 0.63549 0.0
C1426 C 0.04793 0.70437 0.64713 0.0
C1427 C 0.03795 0.72004 0.65019 0.0
C1428 C 0.05229 0.74541 0.64512 0.0
H1429 H 0.88901 0.68049 0.69326 0.0
H1430 H 0.9331 0.70498 0.68392 0.0
C1431 C 0.07669 0.75517 0.63778 0.0
C1432 C 0.01314 0.71 0.66001 0.0
H1433 H 0.95319 0.69484 0.64984 0.0
C1434 C 0.0101 0.70178 0.68101 0.0
C1435 C 0.99255 0.70793 0.64873 0.0
C1436 C 0.99492 0.71625 0.62604 0.0
C1437 C 0.98682 0.69119 0.69101 0.0
C1438 C 0.96598 0.68825 0.6795 0.0
C1439 C 0.9692 0.69712 0.65865 0.0
C1440 C 0.94038 0.67456 0.68818 0.0
C1441 C 0.98483 0.68336 0.71382 0.0
C1442 C 0.93 0.64948 0.69416 0.0
C1443 C 0.90491 0.63553 0.69975 0.0
C1444 C 0.88962 0.64629 0.69923 0.0
C1445 C 0.90033 0.67172 0.69413 0.0
C1446 C 0.92547 0.68569 0.68859 0.0
H1447 H 0.00297 0.6941 0.72211 0.0
H1448 H 0.97064 0.68593 0.72236 0.0
H1449 H 0.9793 0.66335 0.71454 0.0
H1450 H 0.94101 0.64036 0.69359 0.0
H1451 H 0.89724 0.61603 0.7037 0.0
H1452 H 0.28268 0.09214 0.97653 0.0
H1453 H 0.26614 0.05004 0.99087 0.0
H1454 H 0.34089 0.0653 0.00315 0.0
H1455 H 0.35752 0.10759 0.98953 0.0
H1456 H 0.2744 0.01109 0.97938 0.0
H1457 H 0.30714 0.04366 0.061 0.0
H1458 H 0.30628 0.06383 0.04084 0.0
H1459 H 0.33123 0.05698 0.04138 0.0
C1460 C 0.29558 0.08648 0.98224 0.0
C1461 C 0.3214 0.10322 0.98196 0.0
C1462 C 0.28612 0.06244 0.99037 0.0
C1463 C 0.30229 0.0548 -0.00152 0.0
C1464 C 0.32808 0.07105 -0.00263 0.0
H1465 H 0.28678 0.91943 0.05073 0.0
H1466 H 0.30127 0.96238 0.03953 0.0
C1467 C 0.33757 0.09508 0.98927 0.0
C1468 C 0.29218 0.02988 0.00825 0.0
H1469 H 0.29094 0.00048 0.05425 0.0
C1470 C 0.27784 0.00873 0.99578 0.0
C1471 C 0.29669 0.02695 0.02968 0.0
C1472 C 0.31097 0.04904 0.04409 0.0
C1473 C 0.26844 0.98464 0.00401 0.0
C1474 C 0.27319 0.98172 0.02537 0.0
C1475 C 0.28734 0.00285 0.0379 0.0
C1476 C 0.26428 0.95677 0.03467 0.0
C1477 C 0.25409 0.96252 0.98963 0.0
C1478 C 0.23871 0.93979 0.03648 0.0
C1479 C 0.23038 0.91527 0.04285 0.0
C1480 C 0.24754 0.90737 0.04755 0.0
C1481 C 0.27315 0.92491 0.047 0.0
C1482 C 0.28144 0.94943 0.04066 0.0
H1483 H 0.25664 0.96802 0.97272 0.0
H1484 H 0.25994 0.94843 0.99204 0.0
H1485 H 0.23394 0.9536 0.99336 0.0
H1486 H 0.2252 0.94526 0.03223 0.0
H1487 H 0.21055 0.90218 0.0429 0.0
H1488 H 0.94638 0.31631 0.07951 0.0
H1489 H 0.98037 0.33586 0.10507 0.0
H1490 H 0.93978 0.36415 0.13957 0.0
H1491 H 0.90537 0.34419 0.1142 0.0
H1492 H 0.00983 0.38685 0.11995 0.0
H1493 H 0.95106 0.31918 0.18208 0.0
H1494 H 0.9427 0.31436 0.15448 0.0
H1495 H 0.93879 0.33677 0.16943 0.0
C1496 C 0.94475 0.32681 0.09248 0.0
C1497 C 0.92312 0.32848 0.09504 0.0
C1498 C 0.96423 0.3381 0.10695 0.0
C1499 C 0.96237 0.35114 0.12428 0.0
C1500 C 0.94137 0.35392 0.12637 0.0
H1501 H 0.08376 0.42386 0.21679 0.0
H1502 H 0.05071 0.41665 0.19171 0.0
C1503 C 0.92185 0.34267 0.11182 0.0
C1504 C 0.98175 0.36017 0.14081 0.0
H1505 H 0.99277 0.34721 0.19069 0.0
C1506 C 0.00611 0.37849 0.13554 0.0
C1507 C 0.97673 0.34892 0.16099 0.0
C1508 C 0.95097 0.32859 0.16717 0.0
C1509 C 0.02581 0.3855 0.14984 0.0
C1510 C 0.02084 0.37392 0.16986 0.0
C1511 C 0.99638 0.35606 0.17531 0.0
C1512 C 0.04099 0.37865 0.18481 0.0
C1513 C 0.05192 0.40442 0.14317 0.0
C1514 C 0.04619 0.35956 0.1893 0.0
C1515 C 0.06507 0.36361 0.20348 0.0
C1516 C 0.07899 0.38682 0.21353 0.0
C1517 C 0.07363 0.40591 0.20904 0.0
C1518 C 0.05475 0.40183 0.19479 0.0
H1519 H 0.05309 0.40882 0.12606 0.0
H1520 H 0.0582 0.42192 0.15219 0.0
H1521 H 0.06494 0.3975 0.14674 0.0
H1522 H 0.03573 0.34154 0.18169 0.0
H1523 H 0.06894 0.34865 0.20638 0.0
H1524 H 0.68416 0.08996 0.54121 0.0
H1525 H 0.66475 0.05776 0.51394 0.0
H1526 H 0.73108 0.05187 0.51072 0.0
H1527 H 0.75077 0.08431 0.53768 0.0
H1528 H 0.70921 0.05395 0.47015 0.0
H1529 H 0.64189 0.98275 0.52612 0.0
H1530 H 0.64323 0.01244 0.52569 0.0
H1531 H 0.66955 0.0105 0.53496 0.0
C1532 C 0.69469 0.082 0.53451 0.0
C1533 C 0.71892 0.08951 0.54164 0.0
C1534 C 0.68353 0.06354 0.51907 0.0
C1535 C 0.69645 0.05237 0.51054 0.0
C1536 C 0.72083 0.06027 0.51722 0.0
H1537 H 0.65262 0.91531 0.44684 0.0
H1538 H 0.66931 0.95183 0.46988 0.0
C1539 C 0.73196 0.07863 0.5327 0.0
C1540 C 0.68439 0.03189 0.49511 0.0
H1541 H 0.63989 0.97058 0.49063 0.0
C1542 C 0.69392 0.03576 0.47451 0.0
C1543 C 0.66461 0.00821 0.50103 0.0
C1544 C 0.65423 0.00301 0.52317 0.0
C1545 C 0.68428 0.01636 0.45965 0.0
C1546 C 0.66463 0.99265 0.46563 0.0
C1547 C 0.6549 0.98888 0.48615 0.0
C1548 C 0.65488 0.97106 0.45125 0.0
C1549 C 0.69566 0.02106 0.4379 0.0
C1550 C 0.64121 0.96988 0.43321 0.0
C1551 C 0.63169 0.94905 0.41997 0.0
C1552 C 0.63577 0.92917 0.4246 0.0
C1553 C 0.64951 0.93051 0.4427 0.0
C1554 C 0.6589 0.95124 0.45594 0.0
H1555 H 0.71321 0.03928 0.43685 0.0
H1556 H 0.69958 0.00602 0.43342 0.0
H1557 H 0.68228 0.02102 0.42623 0.0
H1558 H 0.63774 0.98494 0.4295 0.0
H1559 H 0.62126 0.94856 0.40608 0.0
H1560 H 0.62787 0.72033 0.85994 0.0
H1561 H 0.63263 0.69435 0.83362 0.0
H1562 H 0.58386 0.62853 0.86954 0.0
H1563 H 0.57981 0.65461 0.89652 0.0
H1564 H 0.62613 0.6295 0.85907 0.0
H1565 H 0.58778 0.64919 0.78781 0.0
H1566 H 0.61044 0.67772 0.80003 0.0
H1567 H 0.58226 0.65688 0.81402 0.0
C1568 C 0.61808 0.70032 0.86223 0.0
C1569 C 0.6036 0.68954 0.88038 0.0
C1570 C 0.62049 0.68545 0.84699 0.0
C1571 C 0.60821 0.65947 0.84942 0.0
C1572 C 0.59326 0.64854 0.86726 0.0
H1573 H 0.6386 0.58416 0.7457 0.0
H1574 H 0.61455 0.59231 0.77197 0.0
C1575 C 0.59089 0.66345 0.8826 0.0
C1576 C 0.61327 0.64428 0.83437 0.0
H1577 H 0.61882 0.63672 0.78171 0.0
C1578 C 0.62401 0.6306 0.84216 0.0
C1579 C 0.61001 0.64523 0.81235 0.0
C1580 C 0.59672 0.65783 0.80311 0.0
C1581 C 0.63339 0.61953 0.82845 0.0
C1582 C 0.63248 0.62275 0.80643 0.0
C1583 C 0.61993 0.63467 0.79863 0.0
C1584 C 0.64647 0.61612 0.79138 0.0
C1585 C 0.64476 0.60505 0.83771 0.0
C1586 C 0.67235 0.62694 0.79355 0.0
C1587 C 0.68606 0.62221 0.77872 0.0
C1588 C 0.6742 0.60679 0.76124 0.0
C1589 C 0.64823 0.59588 0.75913 0.0
C1590 C 0.63448 0.60058 0.77405 0.0
H1591 H 0.63621 0.59679 0.8532 0.0
H1592 H 0.6425 0.58989 0.82697 0.0
H1593 H 0.66494 0.61787 0.84038 0.0
H1594 H 0.68206 0.63949 0.80652 0.0
H1595 H 0.70598 0.63067 0.78094 0.0
H1596 H 0.10259 0.69944 0.13173 0.0
H1597 H 0.06972 0.67785 0.15793 0.0
H1598 H 0.01403 0.659 0.10964 0.0
H1599 H 0.04685 0.68005 0.08317 0.0
H1600 H 0.03325 0.69116 0.16714 0.0
H1601 H 0.99062 0.59244 0.14127 0.0
H1602 H 0.02135 0.61621 0.13304 0.0
H1603 H 0.99423 0.61427 0.12095 0.0
C1604 C 0.08336 0.69025 0.12659 0.0
C1605 C 0.07728 0.69138 0.10538 0.0
C1606 C 0.06463 0.67805 0.14159 0.0
C1607 C 0.03952 0.66663 0.13564 0.0
C1608 C 0.03333 0.66736 0.11445 0.0
H1609 H 0.90055 0.59985 0.2047 0.0
H1610 H 0.93295 0.61474 0.17754 0.0
C1611 C 0.05207 0.67962 0.09942 0.0
C1612 C 0.0199 0.65564 0.15191 0.0
H1613 H 0.96943 0.60128 0.16812 0.0
C1614 C 0.01937 0.67148 0.16745 0.0
C1615 C 0.00179 0.63002 0.15211 0.0
C1616 C 0.00203 0.61214 0.13607 0.0
C1617 C 0.00095 0.66246 0.18309 0.0
C1618 C 0.98291 0.6368 0.1834 0.0
C1619 C 0.98337 0.62092 0.16783 0.0
C1620 C 0.9633 0.62626 0.19972 0.0
C1621 C 0.00061 0.68058 0.19884 0.0
C1622 C 0.96967 0.62731 0.22109 0.0
C1623 C 0.9513 0.61909 0.23662 0.0
C1624 C 0.92618 0.60945 0.23102 0.0
C1625 C 0.91978 0.60755 0.20952 0.0
C1626 C 0.9382 0.61586 0.19399 0.0
H1627 H 0.01161 0.70016 0.19325 0.0
H1628 H 0.98126 0.67629 0.20205 0.0
H1629 H 0.00889 0.67911 0.21393 0.0
H1630 H 0.98894 0.63494 0.22576 0.0
H1631 H 0.95689 0.62101 0.25303 0.0
H1632 H 0.34592 0.06821 0.43651 0.0
H1633 H 0.32998 0.0341 0.46213 0.0
H1634 H 0.39005 0.0207 0.44692 0.0
H1635 H 0.40633 0.05506 0.42134 0.0
H1636 H 0.31706 0.98181 0.45176 0.0
H1637 H 0.39011 0.02808 0.51358 0.0
H1638 H 0.38394 0.04562 0.4941 0.0
H1639 H 0.40008 0.02954 0.48665 0.0
C1640 C 0.35592 0.05822 0.43882 0.0
C1641 C 0.37745 0.06437 0.42704 0.0
C1642 C 0.34672 0.03868 0.45333 0.0
C1643 C 0.35898 0.02511 0.45645 0.0
C1644 C 0.3805 0.03117 0.44481 0.0
H1645 H 0.32408 0.90614 0.54761 0.0
H1646 H 0.34393 0.93729 0.51966 0.0
C1647 C 0.38966 0.05065 0.43016 0.0
C1648 C 0.34874 0.00421 0.47158 0.0
H1649 H 0.358 0.98711 0.52043 0.0
C1650 C 0.32602 0.98285 0.46674 0.0
C1651 C 0.36069 0.00568 0.49095 0.0
C1652 C 0.385 0.02847 0.49682 0.0
C1653 C 0.3147 0.9629 0.48097 0.0
C1654 C 0.32615 0.96473 0.50072 0.0
C1655 C 0.34924 0.98584 0.5053 0.0
C1656 C 0.31393 0.94545 0.51722 0.0
C1657 C 0.29065 0.94003 0.47465 0.0
C1658 C 0.29064 0.93996 0.52522 0.0
C1659 C 0.27917 0.92206 0.541 0.0
C1660 C 0.29091 0.90948 0.54926 0.0
C1661 C 0.31439 0.91522 0.54135 0.0
C1662 C 0.32582 0.93311 0.5255 0.0
H1663 H 0.28855 0.93832 0.45721 0.0
H1664 H 0.28958 0.9228 0.48101 0.0
H1665 H 0.27475 0.94144 0.48106 0.0
H1666 H 0.28139 0.94966 0.51936 0.0
H1667 H 0.261 0.91793 0.54659 0.0
H1668 H 0.35155 0.31984 0.90317 0.0
H1669 H 0.3509 0.34208 0.87151 0.0
H1670 H 0.42483 0.35754 0.85542 0.0
H1671 H 0.42561 0.33511 0.8871 0.0
H1672 H 0.41365 0.39892 0.84872 0.0
H1673 H 0.34579 0.30821 0.81271 0.0
H1674 H 0.33732 0.31333 0.83858 0.0
H1675 H 0.36462 0.31057 0.8353 0.0
C1676 C 0.36773 0.3281 0.89296 0.0
C1677 C 0.38849 0.32546 0.89743 0.0
C1678 C 0.36737 0.34087 0.87497 0.0
C1679 C 0.38769 0.35112 0.86109 0.0
C1680 C 0.409 0.34971 0.86601 0.0
H1681 H 0.35635 0.37785 0.73344 0.0
H1682 H 0.37719 0.36927 0.76235 0.0
C1683 C 0.4094 0.33695 0.88409 0.0
C1684 C 0.38564 0.36142 0.84067 0.0
H1685 H 0.35112 0.34465 0.7956 0.0
C1686 C 0.40023 0.38712 0.83693 0.0
C1687 C 0.36849 0.34583 0.82522 0.0
C1688 C 0.3533 0.31791 0.828 0.0
C1689 C 0.39717 0.39782 0.81841 0.0
C1690 C 0.37885 0.38237 0.80356 0.0
C1691 C 0.36514 0.35653 0.80698 0.0
C1692 C 0.37197 0.39236 0.7851 0.0
C1693 C 0.41344 0.42549 0.815 0.0
C1694 C 0.36297 0.40891 0.78807 0.0
C1695 C 0.35132 0.41404 0.77151 0.0
C1696 C 0.34813 0.40232 0.75186 0.0
C1697 C 0.3585 0.387 0.74852 0.0
C1698 C 0.37042 0.38214 0.76498 0.0
H1699 H 0.43151 0.43284 0.8234 0.0
H1700 H 0.41715 0.43008 0.79796 0.0
H1701 H 0.4039 0.43518 0.82143 0.0
H1702 H 0.36336 0.41653 0.80355 0.0
H1703 H 0.34319 0.42568 0.77451 0.0
H1704 H 0.13941 0.32803 0.40086 0.0
H1705 H 0.14805 0.32219 0.43751 0.0
H1706 H 0.16542 0.39726 0.45205 0.0
H1707 H 0.15636 0.40295 0.41565 0.0
H1708 H 0.19379 0.3491 0.45341 0.0
H1709 H 0.12855 0.36144 0.5045 0.0
H1710 H 0.12326 0.3554 0.47654 0.0
H1711 H 0.14362 0.38658 0.48603 0.0
C1712 C 0.14427 0.34295 0.41211 0.0
C1713 C 0.14725 0.36594 0.40548 0.0
C1714 C 0.14924 0.33962 0.43298 0.0
C1715 C 0.15727 0.35923 0.44755 0.0
C1716 C 0.15869 0.38165 0.44126 0.0
H1717 H 0.24462 0.41228 0.5587 0.0
H1718 H 0.22379 0.40514 0.52453 0.0
C1719 C 0.15352 0.38492 0.42042 0.0
C1720 C 0.16766 0.35772 0.46819 0.0
H1721 H 0.16722 0.36947 0.52077 0.0
C1722 C 0.18763 0.35303 0.46821 0.0
C1723 C 0.15965 0.36291 0.48746 0.0
C1724 C 0.13742 0.3666 0.48867 0.0
C1725 C 0.20056 0.3546 0.48683 0.0
C1726 C 0.1933 0.361 0.50583 0.0
C1727 C 0.17281 0.36478 0.50603 0.0
C1728 C 0.20751 0.36508 0.52552 0.0
C1729 C 0.22256 0.3505 0.48601 0.0
C1730 C 0.2056 0.34488 0.53704 0.0
C1731 C 0.21759 0.34889 0.55654 0.0
C1732 C 0.23167 0.37318 0.56472 0.0
C1733 C 0.23427 0.39341 0.55267 0.0
C1734 C 0.22219 0.38936 0.53328 0.0
H1735 H 0.22719 0.34787 0.46961 0.0
H1736 H 0.23914 0.36662 0.49318 0.0
H1737 H 0.21838 0.3337 0.49536 0.0
H1738 H 0.19427 0.32601 0.53124 0.0
H1739 H 0.21532 0.33298 0.56547 0.0
H1740 H 0.77603 0.23272 0.90833 0.0
H1741 H 0.76211 0.21239 0.87405 0.0
H1742 H 0.82941 0.20863 0.86814 0.0
H1743 H 0.8439 0.22961 0.90227 0.0
H1744 H 0.78842 0.2283 0.83372 0.0
H1745 H 0.77038 0.13509 0.86012 0.0
H1746 H 0.77277 0.15865 0.87834 0.0
H1747 H 0.80036 0.16112 0.86682 0.0
C1748 C 0.78817 0.22809 0.89959 0.0
C1749 C 0.81115 0.23287 0.90804 0.0
C1750 C 0.78002 0.2162 0.88012 0.0
C1751 C 0.79454 0.20865 0.86885 0.0
C1752 C 0.81774 0.21391 0.87688 0.0
H1753 H 0.78999 0.14424 0.7489 0.0
H1754 H 0.79494 0.15525 0.78633 0.0
C1755 C 0.826 0.22593 0.89633 0.0
C1756 C 0.78558 0.19571 0.84844 0.0
H1757 H 0.76701 0.14035 0.82339 0.0
C1758 C 0.78352 0.20902 0.83144 0.0
C1759 C 0.77929 0.17058 0.84568 0.0
C1760 C 0.78059 0.15536 0.86371 0.0
C1761 C 0.77606 0.19811 0.81144 0.0
C1762 C 0.76981 0.17295 0.80859 0.0
C1763 C 0.77157 0.15952 0.8257 0.0
C1764 C 0.76337 0.16111 0.78751 0.0
C1765 C 0.77597 0.21397 0.79337 0.0
C1766 C 0.74304 0.15922 0.77619 0.0
C1767 C 0.74034 0.15324 0.75472 0.0
C1768 C 0.75784 0.14883 0.74438 0.0
C1769 C 0.77653 0.14804 0.75637 0.0
C1770 C 0.77932 0.15422 0.77777 0.0
H1771 H 0.78665 0.23418 0.79718 0.0
H1772 H 0.78402 0.21067 0.7789 0.0
H1773 H 0.7565 0.20904 0.78986 0.0
H1774 H 0.73018 0.16391 0.78362 0.0
H1775 H 0.72575 0.15402 0.74595 0.0
H1776 H 0.64849 0.80287 0.25818 0.0
H1777 H 0.6595 0.79611 0.22268 0.0
H1778 H 0.6087 0.81722 0.19594 0.0
H1779 H 0.59764 0.82404 0.2314 0.0
H1780 H 0.6267 0.76151 0.19495 0.0
H1781 H 0.67027 0.85559 0.15923 0.0
H1782 H 0.6659 0.85055 0.18737 0.0
H1783 H 0.64054 0.84653 0.17082 0.0
C1784 C 0.63989 0.80634 0.2447 0.0
C1785 C 0.62211 0.81386 0.24753 0.0
C1786 C 0.64626 0.80256 0.22447 0.0
C1787 C 0.63509 0.80638 0.2067 0.0
C1788 C 0.61795 0.81469 0.20943 0.0
H1789 H 0.59476 0.7398 0.08654 0.0
H1790 H 0.59999 0.7489 0.12422 0.0
C1791 C 0.61162 0.81855 0.22969 0.0
C1792 C 0.63953 0.79946 0.18546 0.0
H1793 H 0.65512 0.82106 0.13507 0.0
C1794 C 0.6333 0.77462 0.18191 0.0
C1795 C 0.64851 0.81665 0.16856 0.0
C1796 C 0.65694 0.84388 0.17171 0.0
C1797 C 0.63453 0.76621 0.16164 0.0
C1798 C 0.6418 0.783 0.14449 0.0
C1799 C 0.64934 0.80814 0.14823 0.0
C1800 C 0.63968 0.77458 0.12235 0.0
C1801 C 0.62765 0.73934 0.15872 0.0
C1802 C 0.66033 0.78577 0.10882 0.0
C1803 C 0.65739 0.78056 0.08721 0.0
C1804 C 0.63371 0.76424 0.07877 0.0
C1805 C 0.61332 0.7521 0.09256 0.0
C1806 C 0.61628 0.75732 0.11413 0.0
H1807 H 0.63057 0.73146 0.17349 0.0
H1808 H 0.60763 0.72817 0.15451 0.0
H1809 H 0.6387 0.73733 0.14587 0.0
H1810 H 0.67853 0.79918 0.11488 0.0
H1811 H 0.67349 0.79001 0.077 0.0
H1812 H 0.87078 0.60472 0.44631 0.0
H1813 H 0.86023 0.61933 0.47829 0.0
H1814 H 0.87102 0.68495 0.44533 0.0
H1815 H 0.87986 0.66966 0.41288 0.0
H1816 H 0.88082 0.65922 0.50349 0.0
H1817 H 0.79911 0.65394 0.46217 0.0
H1818 H 0.81801 0.64258 0.45045 0.0
H1819 H 0.82884 0.67548 0.45101 0.0
C1820 C 0.87109 0.62235 0.44587 0.0
C1821 C 0.87563 0.63568 0.42687 0.0
C1822 C 0.86522 0.63078 0.46421 0.0
C1823 C 0.86408 0.65285 0.46399 0.0
C1824 C 0.87106 0.66749 0.44566 0.0
H1825 H 0.82106 0.68173 0.58844 0.0
H1826 H 0.84286 0.69281 0.5544 0.0
C1827 C 0.87656 0.65888 0.42719 0.0
C1828 C 0.85354 0.65909 0.48245 0.0
H1829 H 0.80305 0.66318 0.49828 0.0
C1830 C 0.86401 0.66045 0.50237 0.0
C1831 C 0.83145 0.66045 0.48088 0.0
C1832 C 0.81852 0.65784 0.46004 0.0
C1833 C 0.85233 0.66175 0.52089 0.0
C1834 C 0.82999 0.66268 0.51936 0.0
C1835 C 0.82026 0.6627 0.49937 0.0
C1836 C 0.81469 0.65995 0.53822 0.0
C1837 C 0.86311 0.66029 0.54188 0.0
C1838 C 0.79067 0.63908 0.53982 0.0
C1839 C 0.77791 0.63319 0.55901 0.0
C1840 C 0.78915 0.64795 0.57688 0.0
C1841 C 0.81215 0.67005 0.57481 0.0
C1842 C 0.8247 0.67621 0.55549 0.0
H1843 H 0.87723 0.65438 0.54012 0.0
H1844 H 0.87235 0.67894 0.54945 0.0
H1845 H 0.84826 0.64696 0.55263 0.0
H1846 H 0.7825 0.62635 0.52666 0.0
H1847 H 0.76029 0.61596 0.56031 0.0
H1848 H 0.17148 0.76037 0.90628 0.0
H1849 H 0.18078 0.77464 0.86966 0.0
H1850 H 0.17357 0.83855 0.88506 0.0
H1851 H 0.16409 0.82433 0.92173 0.0
H1852 H 0.15499 0.78681 0.83898 0.0
H1853 H 0.24567 0.86849 0.86238 0.0
H1854 H 0.22779 0.84251 0.87985 0.0
H1855 H 0.21869 0.86552 0.87565 0.0
C1856 C 0.17125 0.77712 0.90176 0.0
C1857 C 0.16727 0.79136 0.91688 0.0
C1858 C 0.17675 0.78533 0.88089 0.0
C1859 C 0.17839 0.8079 0.87486 0.0
C1860 C 0.17293 0.82137 0.88958 0.0
H1861 H 0.19489 0.85476 0.74342 0.0
H1862 H 0.18359 0.84945 0.78088 0.0
C1863 C 0.16745 0.81319 0.91045 0.0
C1864 C 0.18688 0.81777 0.85338 0.0
H1865 H 0.23516 0.86467 0.8262 0.0
C1866 C 0.1724 0.80391 0.83615 0.0
C1867 C 0.20981 0.83993 0.84985 0.0
C1868 C 0.22656 0.85494 0.86786 0.0
C1869 C 0.1803 0.81157 0.81538 0.0
C1870 C 0.2031 0.83386 0.81184 0.0
C1871 C 0.21756 0.84778 0.82906 0.0
C1872 C 0.21278 0.84199 0.79026 0.0
C1873 C 0.16458 0.79531 0.79738 0.0
C1874 C 0.23387 0.84111 0.78351 0.0
C1875 C 0.24047 0.84431 0.76218 0.0
C1876 C 0.22599 0.84837 0.74739 0.0
C1877 C 0.20616 0.85135 0.75452 0.0
C1878 C 0.19965 0.84825 0.77583 0.0
H1879 H 0.15035 0.77642 0.80284 0.0
H1880 H 0.15477 0.8041 0.78977 0.0
H1881 H 0.1764 0.79332 0.78526 0.0
H1882 H 0.24428 0.8364 0.79451 0.0
H1883 H 0.25572 0.84176 0.75707 0.0
H1884 H 0.3981 0.18217 0.23535 0.0
H1885 H 0.38157 0.19557 0.20661 0.0
H1886 H 0.3178 0.12158 0.20214 0.0
H1887 H 0.33479 0.10758 0.23062 0.0
H1888 H 0.33762 0.14207 0.16345 0.0
H1889 H 0.32424 0.20932 0.21085 0.0
H1890 H 0.35539 0.21478 0.21324 0.0
H1891 H 0.32968 0.18595 0.22272 0.0
C1892 C 0.38083 0.1685 0.22801 0.0
C1893 C 0.36785 0.1437 0.23522 0.0
C1894 C 0.37114 0.17637 0.21185 0.0
C1895 C 0.34811 0.15976 0.2027 0.0
C1896 C 0.33542 0.13478 0.20928 0.0
H1897 H 0.29272 0.19622 0.08802 0.0
H1898 H 0.28931 0.17713 0.12265 0.0
C1899 C 0.34516 0.12682 0.2255 0.0
C1900 C 0.33809 0.16858 0.18566 0.0
H1901 H 0.32748 0.21605 0.17296 0.0
C1902 C 0.33476 0.15783 0.16559 0.0
C1903 C 0.3342 0.18904 0.18859 0.0
C1904 C 0.3358 0.20025 0.21009 0.0
C1905 C 0.32955 0.16823 0.14802 0.0
C1906 C 0.32737 0.18974 0.15073 0.0
C1907 C 0.3292 0.19959 0.17099 0.0
C1908 C 0.32676 0.20404 0.13232 0.0
C1909 C 0.32807 0.15717 0.12645 0.0
C1910 C 0.34838 0.22626 0.12696 0.0
C1911 C 0.3505 0.23709 0.10721 0.0
C1912 C 0.33093 0.22586 0.09249 0.0
C1913 C 0.3083 0.20503 0.09884 0.0
C1914 C 0.30627 0.19413 0.1186 0.0
H1915 H 0.33282 0.1421 0.12684 0.0
H1916 H 0.30888 0.14927 0.12017 0.0
H1917 H 0.3409 0.17186 0.11532 0.0
H1918 H 0.36437 0.23417 0.13741 0.0
H1919 H 0.36827 0.25295 0.10288 0.0
loop_
_geom_bond_atom_site_label_1
_geom_bond_atom_site_label_2
_geom_bond_distance
_geom_bond_site_symmetry_2
_ccdc_geom_bond_type
Li0 N17 1.990 . S
Li0 O60 1.956 . S
Li0 O61 1.970 . S
Li0 O62 1.961 . S
Li1 N25 1.990 . S
Li1 O60 1.970 . S
Li1 O61 1.956 . S
Li1 O63 1.961 . S
Li2 N47 1.990 . S
Li2 O60 1.961 . S
Li2 O62 1.956 . S
Li2 O63 1.970 . S
Li3 N53 1.990 . S
Li3 O61 1.961 . S
Li3 O62 1.970 . S
Li3 O63 1.956 . S
C4 C6 1.348 . S
C4 C7 1.356 . S
C4 O60 1.325 . S
N5 C8 1.314 . S
N5 C9 1.279 . S
C6 C4 1.348 . S
C6 C8 1.353 . S
C6 H64 0.929 . S
C7 C4 1.356 . S
C7 C9 1.358 . S
C7 H65 0.930 . S
C8 N5 1.314 . S
C8 C6 1.353 . S
C8 H66 0.930 . S
C9 N5 1.279 . S
C9 C7 1.358 . S
C9 H67 0.930 . S
C10 C13 1.348 . S
C10 C14 1.356 . S
C10 O61 1.325 . S
C11 N12 1.279 . S
C11 C14 1.358 . S
C11 H68 0.930 . S
N12 C11 1.279 . S
N12 C15 1.314 . S
C13 C10 1.348 . S
C13 C15 1.353 . S
C13 H69 0.929 . S
C14 C10 1.356 . S
C14 C11 1.358 . S
C14 H70 0.930 . S
C15 N12 1.314 . S
C15 C13 1.353 . S
C15 H71 0.930 . S
C16 N17 1.314 . S
C16 C21 1.353 . S
C16 H22 0.930 . S
N17 Li0 1.990 . S
N17 C16 1.314 . S
N17 C19 1.279 . S
C18 C19 1.358 . S
C18 C20 1.356 . S
C18 H72 0.930 . S
C19 N17 1.279 . S
C19 C18 1.358 . S
C19 H23 0.930 . S
C20 C18 1.356 . S
C20 C21 1.348 . S
C21 C16 1.353 . S
C21 C20 1.348 . S
C21 H73 0.929 . S
H22 C16 0.930 . S
H23 C19 0.930 . S
C24 N25 1.314 . S
C24 C26 1.353 . S
C24 H30 0.930 . S
N25 Li1 1.990 . S
N25 C24 1.314 . S
N25 C28 1.279 . S
C26 C24 1.353 . S
C26 C29 1.348 . S
C26 H74 0.929 . S
C27 C28 1.358 . S
C27 C29 1.356 . S
C27 H75 0.930 . S
C28 N25 1.279 . S
C28 C27 1.358 . S
C28 H31 0.930 . S
C29 C26 1.348 . S
C29 C27 1.356 . S
H30 C24 0.930 . S
H31 C28 0.930 . S
C32 C34 1.348 . S
C32 C35 1.356 . S
C32 O62 1.325 . S
N33 C36 1.314 . S
N33 C37 1.279 . S
C34 C32 1.348 . S
C34 C36 1.353 . S
C34 H76 0.929 . S
C35 C32 1.356 . S
C35 C37 1.358 . S
C35 H77 0.930 . S
C36 N33 1.314 . S
C36 C34 1.353 . S
C36 H78 0.930 . S
C37 N33 1.279 . S
C37 C35 1.358 . S
C37 H79 0.930 . S
C38 C39 1.348 . S
C38 C40 1.356 . S
C38 O63 1.325 . S
C39 C38 1.348 . S
C39 C41 1.353 . S
C39 H80 0.929 . S
C40 C38 1.356 . S
C40 C42 1.358 . S
C40 H81 0.930 . S
C41 C39 1.353 . S
C41 N43 1.314 . S
C41 H82 0.930 . S
C42 C40 1.358 . S
C42 N43 1.279 . S
C42 H83 0.930 . S
N43 C41 1.314 . S
N43 C42 1.279 . S
C44 C46 1.353 . S
C44 N47 1.314 . S
C44 H50 0.930 . S
C45 N47 1.279 . S
C45 C48 1.358 . S
C45 H51 0.930 . S
C46 C44 1.353 . S
C46 C49 1.348 . S
C46 H84 0.929 . S
N47 Li2 1.990 . S
N47 C44 1.314 . S
N47 C45 1.279 . S
C48 C45 1.358 . S
C48 C49 1.356 . S
C48 H85 0.930 . S
C49 C46 1.348 . S
C49 C48 1.356 . S
H50 C44 0.930 . S
H51 C45 0.930 . S
C52 N53 1.314 . S
C52 C54 1.353 . S
C52 H58 0.930 . S
N53 Li3 1.990 . S
N53 C52 1.314 . S
N53 C56 1.279 . S
C54 C52 1.353 . S
C54 C57 1.348 . S
C54 H86 0.929 . S
C55 C56 1.358 . S
C55 C57 1.356 . S
C55 H87 0.930 . S
C56 N53 1.279 . S
C56 C55 1.358 . S
C56 H59 0.930 . S
C57 C54 1.348 . S
C57 C55 1.356 . S
H58 C52 0.930 . S
H59 C56 0.930 . S
O60 Li0 1.956 . S
O60 Li1 1.970 . S
O60 Li2 1.961 . S
O60 C4 1.325 . S
O61 Li0 1.970 . S
O61 Li1 1.956 . S
O61 Li3 1.961 . S
O61 C10 1.325 . S
O62 Li0 1.961 . S
O62 Li2 1.956 . S
O62 Li3 1.970 . S
O62 C32 1.325 . S
O63 Li1 1.961 . S
O63 Li2 1.970 . S
O63 Li3 1.956 . S
O63 C38 1.325 . S
H64 C6 0.929 . S
H65 C7 0.930 . S
H66 C8 0.930 . S
H67 C9 0.930 . S
H68 C11 0.930 . S
H69 C13 0.929 . S
H70 C14 0.930 . S
H71 C15 0.930 . S
H72 C18 0.930 . S
H73 C21 0.929 . S
H74 C26 0.929 . S
H75 C27 0.930 . S
H76 C34 0.929 . S
H77 C35 0.930 . S
H78 C36 0.930 . S
H79 C37 0.930 . S
H80 C39 0.929 . S
H81 C40 0.930 . S
H82 C41 0.930 . S
H83 C42 0.930 . S
H84 C46 0.929 . S
H85 C48 0.930 . S
H86 C54 0.929 . S
H87 C55 0.930 . S
Li88 N105 1.990 . S
Li88 O148 1.956 . S
Li88 O149 1.970 . S
Li88 O150 1.961 . S
Li89 N113 1.990 . S
Li89 O148 1.970 . S
Li89 O149 1.956 . S
Li89 O151 1.961 . S
Li90 N135 1.990 . S
Li90 O148 1.961 . S
Li90 O150 1.956 . S
Li90 O151 1.970 . S
Li91 N141 1.990 . S
Li91 O149 1.961 . S
Li91 O150 1.970 . S
Li91 O151 1.956 . S
C92 C94 1.348 . S
C92 C95 1.356 . S
C92 O148 1.325 . S
N93 C96 1.314 . S
N93 C97 1.279 . S
C94 C92 1.348 . S
C94 C96 1.353 . S
C94 H152 0.929 . S
C95 C92 1.356 . S
C95 C97 1.358 . S
C95 H153 0.930 . S
C96 N93 1.314 . S
C96 C94 1.353 . S
C96 H154 0.930 . S
C97 N93 1.279 . S
C97 C95 1.358 . S
C97 H155 0.930 . S
C98 C101 1.348 . S
C98 C102 1.356 . S
C98 O149 1.325 . S
C99 N100 1.279 . S
C99 C102 1.358 . S
C99 H156 0.930 . S
N100 C99 1.279 . S
N100 C103 1.314 . S
C101 C98 1.348 . S
C101 C103 1.353 . S
C101 H157 0.929 . S
C102 C98 1.356 . S
C102 C99 1.358 . S
C102 H158 0.930 . S
C103 N100 1.314 . S
C103 C101 1.353 . S
C103 H159 0.930 . S
C104 N105 1.314 . S
C104 C109 1.353 . S
C104 H110 0.930 . S
N105 Li88 1.990 . S
N105 C104 1.314 . S
N105 C107 1.279 . S
C106 C107 1.358 . S
C106 C108 1.356 . S
C106 H160 0.930 . S
C107 N105 1.279 . S
C107 C106 1.358 . S
C107 H111 0.930 . S
C108 C106 1.356 . S
C108 C109 1.348 . S
C109 C104 1.353 . S
C109 C108 1.348 . S
C109 H161 0.929 . S
H110 C104 0.930 . S
H111 C107 0.930 . S
C112 N113 1.314 . S
C112 C114 1.353 . S
C112 H118 0.930 . S
N113 Li89 1.990 . S
N113 C112 1.314 . S
N113 C116 1.279 . S
C114 C112 1.353 . S
C114 C117 1.348 . S
C114 H162 0.929 . S
C115 C116 1.358 . S
C115 C117 1.356 . S
C115 H163 0.930 . S
C116 N113 1.279 . S
C116 C115 1.358 . S
C116 H119 0.930 . S
C117 C114 1.348 . S
C117 C115 1.356 . S
H118 C112 0.930 . S
H119 C116 0.930 . S
C120 C122 1.348 . S
C120 C123 1.356 . S
C120 O150 1.325 . S
N121 C124 1.314 . S
N121 C125 1.279 . S
C122 C120 1.348 . S
C122 C124 1.353 . S
C122 H164 0.929 . S
C123 C120 1.356 . S
C123 C125 1.358 . S
C123 H165 0.930 . S
C124 N121 1.314 . S
C124 C122 1.353 . S
C124 H166 0.930 . S
C125 N121 1.279 . S
C125 C123 1.358 . S
C125 H167 0.930 . S
C126 C127 1.348 . S
C126 C128 1.356 . S
C126 O151 1.325 . S
C127 C126 1.348 . S
C127 C129 1.353 . S
C127 H168 0.929 . S
C128 C126 1.356 . S
C128 C130 1.358 . S
C128 H169 0.930 . S
C129 C127 1.353 . S
C129 N131 1.314 . S
C129 H170 0.930 . S
C130 C128 1.358 . S
C130 N131 1.279 . S
C130 H171 0.930 . S
N131 C129 1.314 . S
N131 C130 1.279 . S
C132 C134 1.353 . S
C132 N135 1.314 . S
C132 H138 0.930 . S
C133 N135 1.279 . S
C133 C136 1.358 . S
C133 H139 0.930 . S
C134 C132 1.353 . S
C134 C137 1.348 . S
C134 H172 0.929 . S
N135 Li90 1.990 . S
N135 C132 1.314 . S
N135 C133 1.279 . S
C136 C133 1.358 . S
C136 C137 1.356 . S
C136 H173 0.930 . S
C137 C134 1.348 . S
C137 C136 1.356 . S
H138 C132 0.930 . S
H139 C133 0.930 . S
C140 N141 1.314 . S
C140 C142 1.353 . S
C140 H146 0.930 . S
N141 Li91 1.990 . S
N141 C140 1.314 . S
N141 C144 1.279 . S
C142 C140 1.353 . S
C142 C145 1.348 . S
C142 H174 0.929 . S
C143 C144 1.358 . S
C143 C145 1.356 . S
C143 H175 0.930 . S
C144 N141 1.279 . S
C144 C143 1.358 . S
C144 H147 0.930 . S
C145 C142 1.348 . S
C145 C143 1.356 . S
H146 C140 0.930 . S
H147 C144 0.930 . S
O148 Li88 1.956 . S
O148 Li89 1.970 . S
O148 Li90 1.961 . S
O148 C92 1.325 . S
O149 Li88 1.970 . S
O149 Li89 1.956 . S
O149 Li91 1.961 . S
O149 C98 1.325 . S
O150 Li88 1.961 . S
O150 Li90 1.956 . S
O150 Li91 1.970 . S
O150 C120 1.325 . S
O151 Li89 1.961 . S
O151 Li90 1.970 . S
O151 Li91 1.956 . S
O151 C126 1.325 . S
H152 C94 0.929 . S
H153 C95 0.930 . S
H154 C96 0.930 . S
H155 C97 0.930 . S
H156 C99 0.930 . S
H157 C101 0.929 . S
H158 C102 0.930 . S
H159 C103 0.930 . S
H160 C106 0.930 . S
H161 C109 0.929 . S
H162 C114 0.929 . S
H163 C115 0.930 . S
H164 C122 0.929 . S
H165 C123 0.930 . S
H166 C124 0.930 . S
H167 C125 0.930 . S
H168 C127 0.929 . S
H169 C128 0.930 . S
H170 C129 0.930 . S
H171 C130 0.930 . S
H172 C134 0.929 . S
H173 C136 0.930 . S
H174 C142 0.929 . S
H175 C143 0.930 . S
Li176 N193 1.990 . S
Li176 O236 1.956 . S
Li176 O237 1.970 . S
Li176 O238 1.961 . S
Li177 N201 1.990 . S
Li177 O236 1.970 1_556 S
Li177 O237 1.956 1_556 S
Li177 O239 1.961 . S
Li178 N223 1.990 . S
Li178 O236 1.961 1_556 S
Li178 O238 1.956 1_556 S
Li178 O239 1.970 . S
Li179 N229 1.990 . S
Li179 O237 1.961 1_556 S
Li179 O238 1.970 1_556 S
Li179 O239 1.956 . S
C180 C182 1.348 . S
C180 C183 1.356 . S
C180 O236 1.325 . S
N181 C184 1.314 . S
N181 C185 1.279 . S
C182 C180 1.348 . S
C182 C184 1.353 . S
C182 H240 0.929 . S
C183 C180 1.356 . S
C183 C185 1.358 . S
C183 H241 0.930 . S
C184 N181 1.314 . S
C184 C182 1.353 . S
C184 H242 0.930 . S
C185 N181 1.279 . S
C185 C183 1.358 . S
C185 H243 0.930 . S
C186 C189 1.348 . S
C186 C190 1.356 . S
C186 O237 1.325 . S
C187 N188 1.279 . S
C187 C190 1.358 . S
C187 H244 0.930 . S
N188 C187 1.279 . S
N188 C191 1.314 . S
C189 C186 1.348 . S
C189 C191 1.353 . S
C189 H245 0.929 . S
C190 C186 1.356 . S
C190 C187 1.358 . S
C190 H246 0.930 . S
C191 N188 1.314 . S
C191 C189 1.353 . S
C191 H247 0.930 . S
C192 N193 1.314 . S
C192 C197 1.353 . S
C192 H198 0.930 . S
N193 Li176 1.990 . S
N193 C192 1.314 . S
N193 C195 1.279 . S
C194 C195 1.358 . S
C194 C196 1.356 . S
C194 H248 0.930 . S
C195 N193 1.279 . S
C195 C194 1.358 . S
C195 H199 0.930 . S
C196 C194 1.356 . S
C196 C197 1.348 . S
C197 C192 1.353 . S
C197 C196 1.348 . S
C197 H249 0.929 . S
H198 C192 0.930 . S
H199 C195 0.930 . S
C200 N201 1.314 . S
C200 C202 1.353 . S
C200 H206 0.930 . S
N201 Li177 1.990 . S
N201 C200 1.314 . S
N201 C204 1.279 1_556 S
C202 C200 1.353 . S
C202 C205 1.348 . S
C202 H250 0.929 . S
C203 C204 1.352 1_556 S
C203 C205 1.395 . S
C203 H251 0.898 1_556 S
C204 N201 1.279 1_554 S
C204 C203 1.352 1_554 S
C204 H207 0.930 . S
C205 C202 1.348 . S
C205 C203 1.395 . S
H206 C200 0.930 . S
H207 C204 0.930 . S
C208 C210 1.348 . S
C208 C211 1.356 . S
C208 O238 1.325 . S
N209 C212 1.314 . S
N209 C213 1.279 . S
C210 C208 1.348 . S
C210 C212 1.353 . S
C210 H252 0.929 1_554 S
C211 C208 1.356 . S
C211 C213 1.358 . S
C211 H253 0.930 . S
C212 N209 1.314 . S
C212 C210 1.353 . S
C212 H254 0.930 . S
C213 N209 1.279 . S
C213 C211 1.358 . S
C213 H255 0.930 . S
C214 C215 1.348 . S
C214 C216 1.356 . S
C214 O239 1.325 . S
C215 C214 1.348 . S
C215 C217 1.353 . S
C215 H256 0.929 . S
C216 C214 1.356 . S
C216 C218 1.358 . S
C216 H257 0.930 . S
C217 C215 1.353 . S
C217 N219 1.314 . S
C217 H258 0.930 . S
C218 C216 1.358 . S
C218 N219 1.279 . S
C218 H259 0.930 . S
N219 C217 1.314 . S
N219 C218 1.279 . S
C220 C222 1.353 . S
C220 N223 1.314 . S
C220 H226 0.930 . S
C221 N223 1.279 . S
C221 C224 1.358 . S
C221 H227 0.930 . S
C222 C220 1.353 . S
C222 C225 1.348 . S
C222 H260 0.929 . S
N223 Li178 1.990 . S
N223 C220 1.314 . S
N223 C221 1.279 . S
C224 C221 1.358 . S
C224 C225 1.356 . S
C224 H261 0.930 . S
C225 C222 1.348 . S
C225 C224 1.356 . S
H226 C220 0.930 . S
H227 C221 0.930 . S
C228 N229 1.314 1_554 S
C228 C230 1.353 . S
C228 H234 0.930 . S
N229 Li179 1.990 . S
N229 C228 1.314 1_556 S
N229 C232 1.279 . S
C230 C228 1.353 . S
C230 C233 1.348 1_554 S
C230 H262 0.929 . S
C231 C232 1.358 . S
C231 C233 1.356 . S
C231 H263 0.930 . S
C232 N229 1.279 . S
C232 C231 1.358 . S
C232 H235 0.930 . S
C233 C230 1.348 1_556 S
C233 C231 1.356 . S
H234 C228 0.930 . S
H235 C232 0.930 . S
O236 Li176 1.956 . S
O236 Li177 1.970 1_554 S
O236 Li178 1.961 1_554 S
O236 C180 1.325 . S
O237 Li176 1.970 . S
O237 Li177 1.956 1_554 S
O237 Li179 1.961 1_554 S
O237 C186 1.325 . S
O238 Li176 1.961 . S
O238 Li178 1.956 1_554 S
O238 Li179 1.970 1_554 S
O238 C208 1.325 . S
O239 Li177 1.961 . S
O239 Li178 1.970 . S
O239 Li179 1.956 . S
O239 C214 1.325 . S
H240 C182 0.929 . S
H241 C183 0.930 . S
H242 C184 0.930 . S
H243 C185 0.930 . S
H244 C187 0.930 . S
H245 C189 0.929 . S
H246 C190 0.930 . S
H247 C191 0.930 . S
H248 C194 0.930 . S
H249 C197 0.929 . S
H250 C202 0.929 . S
H251 C203 0.898 1_554 S
H252 C210 0.929 1_556 S
H253 C211 0.930 . S
H254 C212 0.930 . S
H255 C213 0.930 . S
H256 C215 0.929 . S
H257 C216 0.930 . S
H258 C217 0.930 . S
H259 C218 0.930 . S
H260 C222 0.929 . S
H261 C224 0.930 . S
H262 C230 0.929 . S
H263 C231 0.930 . S
Li264 N281 1.990 . S
Li264 O324 1.956 . S
Li264 O325 1.970 . S
Li264 O326 1.961 . S
Li265 N289 1.990 . S
Li265 O324 1.970 . S
Li265 O325 1.956 . S
Li265 O327 1.961 . S
Li266 N311 1.990 . S
Li266 O324 1.961 . S
Li266 O326 1.956 . S
Li266 O327 1.970 . S
Li267 N317 1.990 . S
Li267 O325 1.961 . S
Li267 O326 1.970 . S
Li267 O327 1.956 . S
C268 C270 1.348 . S
C268 C271 1.356 . S
C268 O324 1.325 . S
N269 C272 1.314 . S
N269 C273 1.279 . S
C270 C268 1.348 . S
C270 C272 1.353 . S
C270 H328 0.929 . S
C271 C268 1.356 . S
C271 C273 1.358 . S
C271 H329 0.930 . S
C272 N269 1.314 . S
C272 C270 1.353 . S
C272 H330 0.930 . S
C273 N269 1.279 . S
C273 C271 1.358 . S
C273 H331 0.930 . S
C274 C277 1.348 . S
C274 C278 1.356 . S
C274 O325 1.325 . S
C275 N276 1.279 . S
C275 C278 1.358 . S
C275 H332 0.930 . S
N276 C275 1.279 . S
N276 C279 1.314 . S
C277 C274 1.348 . S
C277 C279 1.353 . S
C277 H333 0.929 . S
C278 C274 1.356 . S
C278 C275 1.358 . S
C278 H334 0.930 . S
C279 N276 1.314 . S
C279 C277 1.353 . S
C279 H335 0.930 . S
C280 N281 1.314 . S
C280 C285 1.353 . S
C280 H286 0.930 . S
N281 Li264 1.990 . S
N281 C280 1.314 . S
N281 C283 1.279 . S
C282 C283 1.358 . S
C282 C284 1.356 . S
C282 H336 0.930 . S
C283 N281 1.279 . S
C283 C282 1.358 . S
C283 H287 0.930 . S
C284 C282 1.356 . S
C284 C285 1.348 . S
C285 C280 1.353 . S
C285 C284 1.348 . S
C285 H337 0.929 . S
H286 C280 0.930 . S
H287 C283 0.930 . S
C288 N289 1.314 . S
C288 C290 1.353 . S
C288 H294 0.930 . S
N289 Li265 1.990 . S
N289 C288 1.314 . S
N289 C292 1.279 . S
C290 C288 1.353 . S
C290 C293 1.348 . S
C290 H338 0.929 . S
C291 C292 1.358 . S
C291 C293 1.356 . S
C291 H339 0.930 . S
C292 N289 1.279 . S
C292 C291 1.358 . S
C292 H295 0.930 . S
C293 C290 1.348 . S
C293 C291 1.356 . S
H294 C288 0.930 . S
H295 C292 0.930 . S
C296 C298 1.348 . S
C296 C299 1.356 . S
C296 O326 1.325 . S
N297 C300 1.314 . S
N297 C301 1.279 . S
C298 C296 1.348 . S
C298 C300 1.353 . S
C298 H340 0.929 . S
C299 C296 1.356 . S
C299 C301 1.358 . S
C299 H341 0.930 . S
C300 N297 1.314 . S
C300 C298 1.353 . S
C300 H342 0.930 . S
C301 N297 1.279 . S
C301 C299 1.358 . S
C301 H343 0.930 . S
C302 C303 1.348 . S
C302 C304 1.356 . S
C302 O327 1.325 . S
C303 C302 1.348 . S
C303 C305 1.353 . S
C303 H344 0.929 . S
C304 C302 1.356 . S
C304 C306 1.358 . S
C304 H345 0.930 . S
C305 C303 1.353 . S
C305 N307 1.314 . S
C305 H346 0.930 . S
C306 C304 1.358 . S
C306 N307 1.279 . S
C306 H347 0.930 . S
N307 C305 1.314 . S
N307 C306 1.279 . S
C308 C310 1.353 . S
C308 N311 1.314 . S
C308 H314 0.930 . S
C309 N311 1.279 . S
C309 C312 1.358 . S
C309 H315 0.930 . S
C310 C308 1.353 . S
C310 C313 1.348 . S
C310 H348 0.929 . S
N311 Li266 1.990 . S
N311 C308 1.314 . S
N311 C309 1.279 . S
C312 C309 1.358 . S
C312 C313 1.356 . S
C312 H349 0.930 . S
C313 C310 1.348 . S
C313 C312 1.356 . S
H314 C308 0.930 . S
H315 C309 0.930 . S
C316 N317 1.314 . S
C316 C318 1.353 . S
C316 H322 0.930 . S
N317 Li267 1.990 . S
N317 C316 1.314 . S
N317 C320 1.279 . S
C318 C316 1.353 . S
C318 C321 1.348 . S
C318 H350 0.929 . S
C319 C320 1.358 . S
C319 C321 1.356 . S
C319 H351 0.930 . S
C320 N317 1.279 . S
C320 C319 1.358 . S
C320 H323 0.930 . S
C321 C318 1.348 . S
C321 C319 1.356 . S
H322 C316 0.930 . S
H323 C320 0.930 . S
O324 Li264 1.956 . S
O324 Li265 1.970 . S
O324 Li266 1.961 . S
O324 C268 1.325 . S
O325 Li264 1.970 . S
O325 Li265 1.956 . S
O325 Li267 1.961 . S
O325 C274 1.325 . S
O326 Li264 1.961 . S
O326 Li266 1.956 . S
O326 Li267 1.970 . S
O326 C296 1.325 . S
O327 Li265 1.961 . S
O327 Li266 1.970 . S
O327 Li267 1.956 . S
O327 C302 1.325 . S
H328 C270 0.929 . S
H329 C271 0.930 . S
H330 C272 0.930 . S
H331 C273 0.930 . S
H332 C275 0.930 . S
H333 C277 0.929 . S
H334 C278 0.930 . S
H335 C279 0.930 . S
H336 C282 0.930 . S
H337 C285 0.929 . S
H338 C290 0.929 . S
H339 C291 0.930 . S
H340 C298 0.929 . S
H341 C299 0.930 . S
H342 C300 0.930 . S
H343 C301 0.930 . S
H344 C303 0.929 . S
H345 C304 0.930 . S
H346 C305 0.930 . S
H347 C306 0.930 . S
H348 C310 0.929 . S
H349 C312 0.930 . S
H350 C318 0.929 . S
H351 C319 0.930 . S
Li352 N369 1.990 . S
Li352 O412 1.956 . S
Li352 O413 1.970 . S
Li352 O414 1.961 . S
Li353 N377 1.990 . S
Li353 O412 1.970 . S
Li353 O413 1.956 . S
Li353 O415 1.961 . S
Li354 N399 1.990 . S
Li354 O412 1.961 . S
Li354 O414 1.956 . S
Li354 O415 1.970 . S
Li355 N405 1.990 . S
Li355 O413 1.961 . S
Li355 O414 1.970 . S
Li355 O415 1.956 . S
C356 C358 1.348 . S
C356 C359 1.356 . S
C356 O412 1.325 . S
N357 C360 1.314 . S
N357 C361 1.279 . S
C358 C356 1.348 . S
C358 C360 1.353 . S
C358 H416 0.929 . S
C359 C356 1.356 . S
C359 C361 1.358 . S
C359 H417 0.930 . S
C360 N357 1.314 . S
C360 C358 1.353 . S
C360 H418 0.930 . S
C361 N357 1.279 . S
C361 C359 1.358 . S
C361 H419 0.930 . S
C362 C365 1.348 . S
C362 C366 1.356 . S
C362 O413 1.325 . S
C363 N364 1.279 . S
C363 C366 1.358 . S
C363 H420 0.930 . S
N364 C363 1.279 . S
N364 C367 1.314 . S
C365 C362 1.348 . S
C365 C367 1.353 . S
C365 H421 0.929 . S
C366 C362 1.356 . S
C366 C363 1.358 . S
C366 H422 0.930 . S
C367 N364 1.314 . S
C367 C365 1.353 . S
C367 H423 0.930 . S
C368 N369 1.314 . S
C368 C373 1.353 . S
C368 H374 0.930 . S
N369 Li352 1.990 . S
N369 C368 1.314 . S
N369 C371 1.279 . S
C370 C371 1.358 . S
C370 C372 1.356 . S
C370 H424 0.930 . S
C371 N369 1.279 . S
C371 C370 1.358 . S
C371 H375 0.930 . S
C372 C370 1.356 . S
C372 C373 1.348 . S
C373 C368 1.353 . S
C373 C372 1.348 . S
C373 H425 0.929 . S
H374 C368 0.930 . S
H375 C371 0.930 . S
C376 N377 1.314 . S
C376 C378 1.353 . S
C376 H382 0.930 . S
N377 Li353 1.990 . S
N377 C376 1.314 . S
N377 C380 1.279 . S
C378 C376 1.353 . S
C378 C381 1.348 . S
C378 H426 0.929 . S
C379 C380 1.358 . S
C379 C381 1.356 . S
C379 H427 0.930 . S
C380 N377 1.279 . S
C380 C379 1.358 . S
C380 H383 0.930 . S
C381 C378 1.348 . S
C381 C379 1.356 . S
H382 C376 0.930 . S
H383 C380 0.930 . S
C384 C386 1.348 . S
C384 C387 1.356 . S
C384 O414 1.325 . S
N385 C388 1.314 . S
N385 C389 1.279 . S
C386 C384 1.348 . S
C386 C388 1.353 . S
C386 H428 0.929 . S
C387 C384 1.356 . S
C387 C389 1.358 . S
C387 H429 0.930 . S
C388 N385 1.314 . S
C388 C386 1.353 . S
C388 H430 0.930 . S
C389 N385 1.279 . S
C389 C387 1.358 . S
C389 H431 0.930 . S
C390 C391 1.348 . S
C390 C392 1.356 . S
C390 O415 1.325 . S
C391 C390 1.348 . S
C391 C393 1.353 . S
C391 H432 0.929 . S
C392 C390 1.356 . S
C392 C394 1.358 . S
C392 H433 0.930 . S
C393 C391 1.353 . S
C393 N395 1.314 . S
C393 H434 0.930 . S
C394 C392 1.358 . S
C394 N395 1.279 . S
C394 H435 0.930 . S
N395 C393 1.314 . S
N395 C394 1.279 . S
C396 C398 1.353 . S
C396 N399 1.314 . S
C396 H402 0.930 . S
C397 N399 1.279 . S
C397 C400 1.358 . S
C397 H403 0.930 . S
C398 C396 1.353 . S
C398 C401 1.348 . S
C398 H436 0.929 . S
N399 Li354 1.990 . S
N399 C396 1.314 . S
N399 C397 1.279 . S
C400 C397 1.358 . S
C400 C401 1.356 . S
C400 H437 0.930 . S
C401 C398 1.348 . S
C401 C400 1.356 . S
H402 C396 0.930 . S
H403 C397 0.930 . S
C404 N405 1.314 . S
C404 C406 1.353 . S
C404 H410 0.930 . S
N405 Li355 1.990 . S
N405 C404 1.314 . S
N405 C408 1.279 . S
C406 C404 1.353 . S
C406 C409 1.348 . S
C406 H438 0.929 . S
C407 C408 1.358 . S
C407 C409 1.356 . S
C407 H439 0.930 . S
C408 N405 1.279 . S
C408 C407 1.358 . S
C408 H411 0.930 . S
C409 C406 1.348 . S
C409 C407 1.356 . S
H410 C404 0.930 . S
H411 C408 0.930 . S
O412 Li352 1.956 . S
O412 Li353 1.970 . S
O412 Li354 1.961 . S
O412 C356 1.325 . S
O413 Li352 1.970 . S
O413 Li353 1.956 . S
O413 Li355 1.961 . S
O413 C362 1.325 . S
O414 Li352 1.961 . S
O414 Li354 1.956 . S
O414 Li355 1.970 . S
O414 C384 1.325 . S
O415 Li353 1.961 . S
O415 Li354 1.970 . S
O415 Li355 1.956 . S
O415 C390 1.325 . S
H416 C358 0.929 . S
H417 C359 0.930 . S
H418 C360 0.930 . S
H419 C361 0.930 . S
H420 C363 0.930 . S
H421 C365 0.929 . S
H422 C366 0.930 . S
H423 C367 0.930 . S
H424 C370 0.930 . S
H425 C373 0.929 . S
H426 C378 0.929 . S
H427 C379 0.930 . S
H428 C386 0.929 . S
H429 C387 0.930 . S
H430 C388 0.930 . S
H431 C389 0.930 . S
H432 C391 0.929 . S
H433 C392 0.930 . S
H434 C393 0.930 . S
H435 C394 0.930 . S
H436 C398 0.929 . S
H437 C400 0.930 . S
H438 C406 0.929 . S
H439 C407 0.930 . S
Li440 N457 1.990 . S
Li440 O500 1.956 1_556 S
Li440 O501 1.970 1_556 S
Li440 O502 1.961 . S
Li441 N465 1.990 . S
Li441 O500 1.970 . S
Li441 O501 1.956 . S
Li441 O503 1.961 . S
Li442 N487 1.990 . S
Li442 O500 1.961 1_556 S
Li442 O502 1.956 . S
Li442 O503 1.970 1_556 S
Li443 N493 1.990 . S
Li443 O501 1.961 1_556 S
Li443 O502 1.970 . S
Li443 O503 1.956 1_556 S
C444 C446 1.348 . S
C444 C447 1.356 . S
C444 O500 1.325 . S
N445 C448 1.314 . S
N445 C449 1.279 . S
C446 C444 1.348 . S
C446 C448 1.353 . S
C446 H504 0.929 . S
C447 C444 1.356 . S
C447 C449 1.358 . S
C447 H505 0.930 . S
C448 N445 1.314 . S
C448 C446 1.353 . S
C448 H506 0.930 . S
C449 N445 1.279 . S
C449 C447 1.358 . S
C449 H507 0.930 . S
C450 C453 1.348 . S
C450 C454 1.356 . S
C450 O501 1.325 . S
C451 N452 1.279 . S
C451 C454 1.358 . S
C451 H508 0.930 . S
N452 C451 1.279 . S
N452 C455 1.314 . S
C453 C450 1.348 . S
C453 C455 1.353 . S
C453 H509 0.929 . S
C454 C450 1.356 . S
C454 C451 1.358 . S
C454 H510 0.930 . S
C455 N452 1.314 . S
C455 C453 1.353 . S
C455 H511 0.930 . S
C456 N457 1.314 . S
C456 C461 1.353 . S
C456 H462 0.930 . S
N457 Li440 1.990 . S
N457 C456 1.314 . S
N457 C459 1.279 1_556 S
C458 C459 1.352 1_556 S
C458 C460 1.395 . S
C458 H512 0.898 1_556 S
C459 N457 1.279 1_554 S
C459 C458 1.352 1_554 S
C459 H463 0.930 . S
C460 C458 1.395 . S
C460 C461 1.348 . S
C461 C456 1.353 . S
C461 C460 1.348 . S
C461 H513 0.929 . S
H462 C456 0.930 . S
H463 C459 0.930 . S
C464 N465 1.314 . S
C464 C466 1.353 . S
C464 H470 0.930 . S
N465 Li441 1.990 . S
N465 C464 1.314 . S
N465 C468 1.279 . S
C466 C464 1.353 . S
C466 C469 1.348 . S
C466 H514 0.929 . S
C467 C468 1.358 . S
C467 C469 1.356 . S
C467 H515 0.930 . S
C468 N465 1.279 . S
C468 C467 1.358 . S
C468 H471 0.930 . S
C469 C466 1.348 . S
C469 C467 1.356 . S
H470 C464 0.930 . S
H471 C468 0.930 . S
C472 C474 1.348 . S
C472 C475 1.356 . S
C472 O502 1.325 . S
N473 C476 1.314 . S
N473 C477 1.279 . S
C474 C472 1.348 . S
C474 C476 1.353 . S
C474 H516 0.929 . S
C475 C472 1.356 . S
C475 C477 1.358 . S
C475 H517 0.930 . S
C476 N473 1.314 . S
C476 C474 1.353 . S
C476 H518 0.930 . S
C477 N473 1.279 . S
C477 C475 1.358 . S
C477 H519 0.930 . S
C478 C479 1.348 . S
C478 C480 1.356 . S
C478 O503 1.325 . S
C479 C478 1.348 . S
C479 C481 1.353 . S
C479 H520 0.929 1_554 S
C480 C478 1.356 . S
C480 C482 1.358 . S
C480 H521 0.930 . S
C481 C479 1.353 . S
C481 N483 1.314 . S
C481 H522 0.930 . S
C482 C480 1.358 . S
C482 N483 1.279 . S
C482 H523 0.930 . S
N483 C481 1.314 . S
N483 C482 1.279 . S
C484 C486 1.353 . S
C484 N487 1.314 1_554 S
C484 H490 0.930 . S
C485 N487 1.279 . S
C485 C488 1.358 . S
C485 H491 0.930 . S
C486 C484 1.353 . S
C486 C489 1.348 1_554 S
C486 H524 0.929 . S
N487 Li442 1.990 . S
N487 C484 1.314 1_556 S
N487 C485 1.279 . S
C488 C485 1.358 . S
C488 C489 1.356 . S
C488 H525 0.930 . S
C489 C486 1.348 1_556 S
C489 C488 1.356 . S
H490 C484 0.930 . S
H491 C485 0.930 . S
C492 N493 1.314 . S
C492 C494 1.353 . S
C492 H498 0.930 . S
N493 Li443 1.990 . S
N493 C492 1.314 . S
N493 C496 1.279 . S
C494 C492 1.353 . S
C494 C497 1.348 . S
C494 H526 0.929 . S
C495 C496 1.358 . S
C495 C497 1.356 . S
C495 H527 0.930 . S
C496 N493 1.279 . S
C496 C495 1.358 . S
C496 H499 0.930 . S
C497 C494 1.348 . S
C497 C495 1.356 . S
H498 C492 0.930 . S
H499 C496 0.930 . S
O500 Li440 1.956 1_554 S
O500 Li441 1.970 . S
O500 Li442 1.961 1_554 S
O500 C444 1.325 . S
O501 Li440 1.970 1_554 S
O501 Li441 1.956 . S
O501 Li443 1.961 1_554 S
O501 C450 1.325 . S
O502 Li440 1.961 . S
O502 Li442 1.956 . S
O502 Li443 1.970 . S
O502 C472 1.325 . S
O503 Li441 1.961 . S
O503 Li442 1.970 1_554 S
O503 Li443 1.956 1_554 S
O503 C478 1.325 . S
H504 C446 0.929 . S
H505 C447 0.930 . S
H506 C448 0.930 . S
H507 C449 0.930 . S
H508 C451 0.930 . S
H509 C453 0.929 . S
H510 C454 0.930 . S
H511 C455 0.930 . S
H512 C458 0.898 1_554 S
H513 C461 0.929 . S
H514 C466 0.929 . S
H515 C467 0.930 . S
H516 C474 0.929 . S
H517 C475 0.930 . S
H518 C476 0.930 . S
H519 C477 0.930 . S
H520 C479 0.929 1_556 S
H521 C480 0.930 . S
H522 C481 0.930 . S
H523 C482 0.930 . S
H524 C486 0.929 . S
H525 C488 0.930 . S
H526 C494 0.929 . S
H527 C495 0.930 . S
Li528 N545 1.990 . S
Li528 O588 1.956 . S
Li528 O589 1.970 . S
Li528 O590 1.961 . S
Li529 N553 1.990 . S
Li529 O588 1.970 . S
Li529 O589 1.956 . S
Li529 O591 1.961 . S
Li530 N575 1.990 . S
Li530 O588 1.961 . S
Li530 O590 1.956 . S
Li530 O591 1.970 . S
Li531 N581 1.990 . S
Li531 O589 1.961 . S
Li531 O590 1.970 . S
Li531 O591 1.956 . S
C532 C534 1.348 . S
C532 C535 1.356 . S
C532 O588 1.325 . S
N533 C536 1.314 . S
N533 C537 1.279 . S
C534 C532 1.348 . S
C534 C536 1.353 . S
C534 H592 0.929 . S
C535 C532 1.356 . S
C535 C537 1.358 . S
C535 H593 0.930 . S
C536 N533 1.314 . S
C536 C534 1.353 . S
C536 H594 0.930 . S
C537 N533 1.279 . S
C537 C535 1.358 . S
C537 H595 0.930 . S
C538 C541 1.348 . S
C538 C542 1.356 . S
C538 O589 1.325 . S
C539 N540 1.279 . S
C539 C542 1.358 . S
C539 H596 0.930 . S
N540 C539 1.279 . S
N540 C543 1.314 . S
C541 C538 1.348 . S
C541 C543 1.353 . S
C541 H597 0.929 . S
C542 C538 1.356 . S
C542 C539 1.358 . S
C542 H598 0.930 . S
C543 N540 1.314 . S
C543 C541 1.353 . S
C543 H599 0.930 . S
C544 N545 1.314 . S
C544 C549 1.353 . S
C544 H550 0.930 . S
N545 Li528 1.990 . S
N545 C544 1.314 . S
N545 C547 1.279 . S
C546 C547 1.358 . S
C546 C548 1.356 . S
C546 H600 0.930 . S
C547 N545 1.279 . S
C547 C546 1.358 . S
C547 H551 0.930 . S
C548 C546 1.356 . S
C548 C549 1.348 . S
C549 C544 1.353 . S
C549 C548 1.348 . S
C549 H601 0.929 . S
H550 C544 0.930 . S
H551 C547 0.930 . S
C552 N553 1.314 . S
C552 C554 1.353 . S
C552 H558 0.930 . S
N553 Li529 1.990 . S
N553 C552 1.314 . S
N553 C556 1.279 . S
C554 C552 1.353 . S
C554 C557 1.348 . S
C554 H602 0.929 . S
C555 C556 1.358 . S
C555 C557 1.356 . S
C555 H603 0.930 . S
C556 N553 1.279 . S
C556 C555 1.358 . S
C556 H559 0.930 . S
C557 C554 1.348 . S
C557 C555 1.356 . S
H558 C552 0.930 . S
H559 C556 0.930 . S
C560 C562 1.348 . S
C560 C563 1.356 . S
C560 O590 1.325 . S
N561 C564 1.314 . S
N561 C565 1.279 . S
C562 C560 1.348 . S
C562 C564 1.353 . S
C562 H604 0.929 . S
C563 C560 1.356 . S
C563 C565 1.358 . S
C563 H605 0.930 . S
C564 N561 1.314 . S
C564 C562 1.353 . S
C564 H606 0.930 . S
C565 N561 1.279 . S
C565 C563 1.358 . S
C565 H607 0.930 . S
C566 C567 1.348 . S
C566 C568 1.356 . S
C566 O591 1.325 . S
C567 C566 1.348 . S
C567 C569 1.353 . S
C567 H608 0.929 . S
C568 C566 1.356 . S
C568 C570 1.358 . S
C568 H609 0.930 . S
C569 C567 1.353 . S
C569 N571 1.314 . S
C569 H610 0.930 . S
C570 C568 1.358 . S
C570 N571 1.279 . S
C570 H611 0.930 . S
N571 C569 1.314 . S
N571 C570 1.279 . S
C572 C574 1.353 . S
C572 N575 1.314 . S
C572 H578 0.930 . S
C573 N575 1.279 . S
C573 C576 1.358 . S
C573 H579 0.930 . S
C574 C572 1.353 . S
C574 C577 1.348 . S
C574 H612 0.929 . S
N575 Li530 1.990 . S
N575 C572 1.314 . S
N575 C573 1.279 . S
C576 C573 1.358 . S
C576 C577 1.356 . S
C576 H613 0.930 . S
C577 C574 1.348 . S
C577 C576 1.356 . S
H578 C572 0.930 . S
H579 C573 0.930 . S
C580 N581 1.314 . S
C580 C582 1.353 . S
C580 H586 0.930 . S
N581 Li531 1.990 . S
N581 C580 1.314 . S
N581 C584 1.279 . S
C582 C580 1.353 . S
C582 C585 1.348 . S
C582 H614 0.929 . S
C583 C584 1.358 . S
C583 C585 1.356 . S
C583 H615 0.930 . S
C584 N581 1.279 . S
C584 C583 1.358 . S
C584 H587 0.930 . S
C585 C582 1.348 . S
C585 C583 1.356 . S
H586 C580 0.930 . S
H587 C584 0.930 . S
O588 Li528 1.956 . S
O588 Li529 1.970 . S
O588 Li530 1.961 . S
O588 C532 1.325 . S
O589 Li528 1.970 . S
O589 Li529 1.956 . S
O589 Li531 1.961 . S
O589 C538 1.325 . S
O590 Li528 1.961 . S
O590 Li530 1.956 . S
O590 Li531 1.970 . S
O590 C560 1.325 . S
O591 Li529 1.961 . S
O591 Li530 1.970 . S
O591 Li531 1.956 . S
O591 C566 1.325 . S
H592 C534 0.929 . S
H593 C535 0.930 . S
H594 C536 0.930 . S
H595 C537 0.930 . S
H596 C539 0.930 . S
H597 C541 0.929 . S
H598 C542 0.930 . S
H599 C543 0.930 . S
H600 C546 0.930 . S
H601 C549 0.929 . S
H602 C554 0.929 . S
H603 C555 0.930 . S
H604 C562 0.929 . S
H605 C563 0.930 . S
H606 C564 0.930 . S
H607 C565 0.930 . S
H608 C567 0.929 . S
H609 C568 0.930 . S
H610 C569 0.930 . S
H611 C570 0.930 . S
H612 C574 0.929 . S
H613 C576 0.930 . S
H614 C582 0.929 . S
H615 C583 0.930 . S
Li616 N633 1.990 . S
Li616 O676 1.956 . S
Li616 O677 1.970 . S
Li616 O678 1.961 . S
Li617 N641 1.990 . S
Li617 O676 1.970 . S
Li617 O677 1.956 . S
Li617 O679 1.961 . S
Li618 N663 1.990 . S
Li618 O676 1.961 . S
Li618 O678 1.956 . S
Li618 O679 1.970 . S
Li619 N669 1.990 . S
Li619 O677 1.961 . S
Li619 O678 1.970 . S
Li619 O679 1.956 . S
C620 C622 1.348 . S
C620 C623 1.356 . S
C620 O676 1.325 . S
N621 C624 1.314 . S
N621 C625 1.279 . S
C622 C620 1.348 . S
C622 C624 1.353 . S
C622 H680 0.929 . S
C623 C620 1.356 . S
C623 C625 1.358 . S
C623 H681 0.930 . S
C624 N621 1.314 . S
C624 C622 1.353 . S
C624 H682 0.930 . S
C625 N621 1.279 . S
C625 C623 1.358 . S
C625 H683 0.930 . S
C626 C629 1.348 . S
C626 C630 1.356 . S
C626 O677 1.325 . S
C627 N628 1.279 . S
C627 C630 1.358 . S
C627 H684 0.930 . S
N628 C627 1.279 . S
N628 C631 1.314 . S
C629 C626 1.348 . S
C629 C631 1.353 . S
C629 H685 0.929 . S
C630 C626 1.356 . S
C630 C627 1.358 . S
C630 H686 0.930 . S
C631 N628 1.314 . S
C631 C629 1.353 . S
C631 H687 0.930 . S
C632 N633 1.314 . S
C632 C637 1.353 . S
C632 H638 0.930 . S
N633 Li616 1.990 . S
N633 C632 1.314 . S
N633 C635 1.279 . S
C634 C635 1.358 . S
C634 C636 1.356 . S
C634 H688 0.930 . S
C635 N633 1.279 . S
C635 C634 1.358 . S
C635 H639 0.930 . S
C636 C634 1.356 . S
C636 C637 1.348 . S
C637 C632 1.353 . S
C637 C636 1.348 . S
C637 H689 0.929 . S
H638 C632 0.930 . S
H639 C635 0.930 . S
C640 N641 1.314 . S
C640 C642 1.353 . S
C640 H646 0.930 . S
N641 Li617 1.990 . S
N641 C640 1.314 . S
N641 C644 1.279 . S
C642 C640 1.353 . S
C642 C645 1.348 . S
C642 H690 0.929 . S
C643 C644 1.358 . S
C643 C645 1.356 . S
C643 H691 0.930 . S
C644 N641 1.279 . S
C644 C643 1.358 . S
C644 H647 0.930 . S
C645 C642 1.348 . S
C645 C643 1.356 . S
H646 C640 0.930 . S
H647 C644 0.930 . S
C648 C650 1.348 . S
C648 C651 1.356 . S
C648 O678 1.325 . S
N649 C652 1.314 . S
N649 C653 1.279 . S
C650 C648 1.348 . S
C650 C652 1.353 . S
C650 H692 0.929 . S
C651 C648 1.356 . S
C651 C653 1.358 . S
C651 H693 0.930 . S
C652 N649 1.314 . S
C652 C650 1.353 . S
C652 H694 0.930 . S
C653 N649 1.279 . S
C653 C651 1.358 . S
C653 H695 0.930 . S
C654 C655 1.348 . S
C654 C656 1.356 . S
C654 O679 1.325 . S
C655 C654 1.348 . S
C655 C657 1.353 . S
C655 H696 0.929 . S
C656 C654 1.356 . S
C656 C658 1.358 . S
C656 H697 0.930 . S
C657 C655 1.353 . S
C657 N659 1.314 . S
C657 H698 0.930 . S
C658 C656 1.358 . S
C658 N659 1.279 . S
C658 H699 0.930 . S
N659 C657 1.314 . S
N659 C658 1.279 . S
C660 C662 1.353 . S
C660 N663 1.314 . S
C660 H666 0.930 . S
C661 N663 1.279 . S
C661 C664 1.358 . S
C661 H667 0.930 . S
C662 C660 1.353 . S
C662 C665 1.348 . S
C662 H700 0.929 . S
N663 Li618 1.990 . S
N663 C660 1.314 . S
N663 C661 1.279 . S
C664 C661 1.358 . S
C664 C665 1.356 . S
C664 H701 0.930 . S
C665 C662 1.348 . S
C665 C664 1.356 . S
H666 C660 0.930 . S
H667 C661 0.930 . S
C668 N669 1.314 . S
C668 C670 1.353 . S
C668 H674 0.930 . S
N669 Li619 1.990 . S
N669 C668 1.314 . S
N669 C672 1.279 . S
C670 C668 1.353 . S
C670 C673 1.348 . S
C670 H702 0.929 . S
C671 C672 1.358 . S
C671 C673 1.356 . S
C671 H703 0.930 . S
C672 N669 1.279 . S
C672 C671 1.358 . S
C672 H675 0.930 . S
C673 C670 1.348 . S
C673 C671 1.356 . S
H674 C668 0.930 . S
H675 C672 0.930 . S
O676 Li616 1.956 . S
O676 Li617 1.970 . S
O676 Li618 1.961 . S
O676 C620 1.325 . S
O677 Li616 1.970 . S
O677 Li617 1.956 . S
O677 Li619 1.961 . S
O677 C626 1.325 . S
O678 Li616 1.961 . S
O678 Li618 1.956 . S
O678 Li619 1.970 . S
O678 C648 1.325 . S
O679 Li617 1.961 . S
O679 Li618 1.970 . S
O679 Li619 1.956 . S
O679 C654 1.325 . S
H680 C622 0.929 . S
H681 C623 0.930 . S
H682 C624 0.930 . S
H683 C625 0.930 . S
H684 C627 0.930 . S
H685 C629 0.929 . S
H686 C630 0.930 . S
H687 C631 0.930 . S
H688 C634 0.930 . S
H689 C637 0.929 . S
H690 C642 0.929 . S
H691 C643 0.930 . S
H692 C650 0.929 . S
H693 C651 0.930 . S
H694 C652 0.930 . S
H695 C653 0.930 . S
H696 C655 0.929 . S
H697 C656 0.930 . S
H698 C657 0.930 . S
H699 C658 0.930 . S
H700 C662 0.929 . S
H701 C664 0.930 . S
H702 C670 0.929 . S
H703 C671 0.930 . S
Li704 N721 1.990 . S
Li704 O764 1.956 . S
Li704 O765 1.970 1_554 S
Li704 O766 1.961 1_554 S
Li705 N729 1.990 . S
Li705 O764 1.970 . S
Li705 O765 1.956 1_554 S
Li705 O767 1.961 1_554 S
Li706 N751 1.990 . S
Li706 O764 1.961 . S
Li706 O766 1.956 1_554 S
Li706 O767 1.970 1_554 S
Li707 N757 1.990 . S
Li707 O765 1.961 . S
Li707 O766 1.970 . S
Li707 O767 1.956 . S
C708 C710 1.348 . S
C708 C711 1.356 . S
C708 O764 1.325 . S
N709 C712 1.314 . S
N709 C713 1.279 . S
C710 C708 1.348 . S
C710 C712 1.353 . S
C710 H768 0.929 . S
C711 C708 1.356 . S
C711 C713 1.358 . S
C711 H769 0.930 . S
C712 N709 1.314 . S
C712 C710 1.353 . S
C712 H770 0.930 . S
C713 N709 1.279 . S
C713 C711 1.358 . S
C713 H771 0.930 . S
C714 C717 1.348 . S
C714 C718 1.356 . S
C714 O765 1.325 . S
C715 N716 1.279 . S
C715 C718 1.358 . S
C715 H772 0.930 . S
N716 C715 1.279 . S
N716 C719 1.314 . S
C717 C714 1.348 . S
C717 C719 1.353 . S
C717 H773 0.929 1_556 S
C718 C714 1.356 . S
C718 C715 1.358 . S
C718 H774 0.930 . S
C719 N716 1.314 . S
C719 C717 1.353 . S
C719 H775 0.930 . S
C720 N721 1.314 1_556 S
C720 C725 1.353 . S
C720 H726 0.930 . S
N721 Li704 1.990 . S
N721 C720 1.314 1_554 S
N721 C723 1.279 . S
C722 C723 1.358 . S
C722 C724 1.356 . S
C722 H776 0.930 . S
C723 N721 1.279 . S
C723 C722 1.358 . S
C723 H727 0.930 . S
C724 C722 1.356 . S
C724 C725 1.348 1_554 S
C725 C720 1.353 . S
C725 C724 1.348 1_556 S
C725 H777 0.929 . S
H726 C720 0.930 . S
H727 C723 0.930 . S
C728 N729 1.314 . S
C728 C730 1.353 . S
C728 H734 0.930 . S
N729 Li705 1.990 . S
N729 C728 1.314 . S
N729 C732 1.279 . S
C730 C728 1.353 . S
C730 C733 1.348 . S
C730 H778 0.929 . S
C731 C732 1.358 . S
C731 C733 1.356 . S
C731 H779 0.930 . S
C732 N729 1.279 . S
C732 C731 1.358 . S
C732 H735 0.930 . S
C733 C730 1.348 . S
C733 C731 1.356 . S
H734 C728 0.930 . S
H735 C732 0.930 . S
C736 C738 1.348 . S
C736 C739 1.356 . S
C736 O766 1.325 . S
N737 C740 1.314 . S
N737 C741 1.279 . S
C738 C736 1.348 . S
C738 C740 1.353 . S
C738 H780 0.929 . S
C739 C736 1.356 . S
C739 C741 1.358 . S
C739 H781 0.930 . S
C740 N737 1.314 . S
C740 C738 1.353 . S
C740 H782 0.930 . S
C741 N737 1.279 . S
C741 C739 1.358 . S
C741 H783 0.930 . S
C742 C743 1.348 . S
C742 C744 1.356 . S
C742 O767 1.325 . S
C743 C742 1.348 . S
C743 C745 1.353 . S
C743 H784 0.929 . S
C744 C742 1.356 . S
C744 C746 1.358 . S
C744 H785 0.930 . S
C745 C743 1.353 . S
C745 N747 1.314 . S
C745 H786 0.930 . S
C746 C744 1.358 . S
C746 N747 1.279 . S
C746 H787 0.930 . S
N747 C745 1.314 . S
N747 C746 1.279 . S
C748 C750 1.353 . S
C748 N751 1.314 . S
C748 H754 0.930 . S
C749 N751 1.279 1_556 S
C749 C752 1.352 1_556 S
C749 H755 0.930 . S
C750 C748 1.353 . S
C750 C753 1.348 . S
C750 H788 0.929 . S
N751 Li706 1.990 . S
N751 C748 1.314 . S
N751 C749 1.279 1_554 S
C752 C749 1.352 1_554 S
C752 C753 1.395 . S
C752 H789 0.898 1_554 S
C753 C750 1.348 . S
C753 C752 1.395 . S
H754 C748 0.930 . S
H755 C749 0.930 . S
C756 N757 1.314 . S
C756 C758 1.353 . S
C756 H762 0.930 . S
N757 Li707 1.990 . S
N757 C756 1.314 . S
N757 C760 1.279 . S
C758 C756 1.353 . S
C758 C761 1.348 . S
C758 H790 0.929 . S
C759 C760 1.358 . S
C759 C761 1.356 . S
C759 H791 0.930 . S
C760 N757 1.279 . S
C760 C759 1.358 . S
C760 H763 0.930 . S
C761 C758 1.348 . S
C761 C759 1.356 . S
H762 C756 0.930 . S
H763 C760 0.930 . S
O764 Li704 1.956 . S
O764 Li705 1.970 . S
O764 Li706 1.961 . S
O764 C708 1.325 . S
O765 Li704 1.970 1_556 S
O765 Li705 1.956 1_556 S
O765 Li707 1.961 . S
O765 C714 1.325 . S
O766 Li704 1.961 1_556 S
O766 Li706 1.956 1_556 S
O766 Li707 1.970 . S
O766 C736 1.325 . S
O767 Li705 1.961 1_556 S
O767 Li706 1.970 1_556 S
O767 Li707 1.956 . S
O767 C742 1.325 . S
H768 C710 0.929 . S
H769 C711 0.930 . S
H770 C712 0.930 . S
H771 C713 0.930 . S
H772 C715 0.930 . S
H773 C717 0.929 1_554 S
H774 C718 0.930 . S
H775 C719 0.930 . S
H776 C722 0.930 . S
H777 C725 0.929 . S
H778 C730 0.929 . S
H779 C731 0.930 . S
H780 C738 0.929 . S
H781 C739 0.930 . S
H782 C740 0.930 . S
H783 C741 0.930 . S
H784 C743 0.929 . S
H785 C744 0.930 . S
H786 C745 0.930 . S
H787 C746 0.930 . S
H788 C750 0.929 . S
H789 C752 0.898 1_556 S
H790 C758 0.929 . S
H791 C759 0.930 . S
Li792 N809 1.990 . S
Li792 O852 1.956 . S
Li792 O853 1.970 . S
Li792 O854 1.961 . S
Li793 N817 1.990 . S
Li793 O852 1.970 . S
Li793 O853 1.956 . S
Li793 O855 1.961 . S
Li794 N839 1.990 . S
Li794 O852 1.961 . S
Li794 O854 1.956 . S
Li794 O855 1.970 . S
Li795 N845 1.990 . S
Li795 O853 1.961 . S
Li795 O854 1.970 . S
Li795 O855 1.956 . S
C796 C798 1.348 . S
C796 C799 1.356 . S
C796 O852 1.325 . S
N797 C800 1.314 . S
N797 C801 1.279 . S
C798 C796 1.348 . S
C798 C800 1.353 . S
C798 H856 0.929 . S
C799 C796 1.356 . S
C799 C801 1.358 . S
C799 H857 0.930 . S
C800 N797 1.314 . S
C800 C798 1.353 . S
C800 H858 0.930 . S
C801 N797 1.279 . S
C801 C799 1.358 . S
C801 H859 0.930 . S
C802 C805 1.348 . S
C802 C806 1.356 . S
C802 O853 1.325 . S
C803 N804 1.279 . S
C803 C806 1.358 . S
C803 H860 0.930 . S
N804 C803 1.279 . S
N804 C807 1.314 . S
C805 C802 1.348 . S
C805 C807 1.353 . S
C805 H861 0.929 . S
C806 C802 1.356 . S
C806 C803 1.358 . S
C806 H862 0.930 . S
C807 N804 1.314 . S
C807 C805 1.353 . S
C807 H863 0.930 . S
C808 N809 1.314 . S
C808 C813 1.353 . S
C808 H814 0.930 . S
N809 Li792 1.990 . S
N809 C808 1.314 . S
N809 C811 1.279 . S
C810 C811 1.358 . S
C810 C812 1.356 . S
C810 H864 0.930 . S
C811 N809 1.279 . S
C811 C810 1.358 . S
C811 H815 0.930 . S
C812 C810 1.356 . S
C812 C813 1.348 . S
C813 C808 1.353 . S
C813 C812 1.348 . S
C813 H865 0.929 . S
H814 C808 0.930 . S
H815 C811 0.930 . S
C816 N817 1.314 . S
C816 C818 1.353 . S
C816 H822 0.930 . S
N817 Li793 1.990 . S
N817 C816 1.314 . S
N817 C820 1.279 . S
C818 C816 1.353 . S
C818 C821 1.348 . S
C818 H866 0.929 . S
C819 C820 1.358 . S
C819 C821 1.356 . S
C819 H867 0.930 . S
C820 N817 1.279 . S
C820 C819 1.358 . S
C820 H823 0.930 . S
C821 C818 1.348 . S
C821 C819 1.356 . S
H822 C816 0.930 . S
H823 C820 0.930 . S
C824 C826 1.348 . S
C824 C827 1.356 . S
C824 O854 1.325 . S
N825 C828 1.314 . S
N825 C829 1.279 . S
C826 C824 1.348 . S
C826 C828 1.353 . S
C826 H868 0.929 . S
C827 C824 1.356 . S
C827 C829 1.358 . S
C827 H869 0.930 . S
C828 N825 1.314 . S
C828 C826 1.353 . S
C828 H870 0.930 . S
C829 N825 1.279 . S
C829 C827 1.358 . S
C829 H871 0.930 . S
C830 C831 1.348 . S
C830 C832 1.356 . S
C830 O855 1.325 . S
C831 C830 1.348 . S
C831 C833 1.353 . S
C831 H872 0.929 . S
C832 C830 1.356 . S
C832 C834 1.358 . S
C832 H873 0.930 . S
C833 C831 1.353 . S
C833 N835 1.314 . S
C833 H874 0.930 . S
C834 C832 1.358 . S
C834 N835 1.279 . S
C834 H875 0.930 . S
N835 C833 1.314 . S
N835 C834 1.279 . S
C836 C838 1.353 . S
C836 N839 1.314 . S
C836 H842 0.930 . S
C837 N839 1.279 . S
C837 C840 1.358 . S
C837 H843 0.930 . S
C838 C836 1.353 . S
C838 C841 1.348 . S
C838 H876 0.929 . S
N839 Li794 1.990 . S
N839 C836 1.314 . S
N839 C837 1.279 . S
C840 C837 1.358 . S
C840 C841 1.356 . S
C840 H877 0.930 . S
C841 C838 1.348 . S
C841 C840 1.356 . S
H842 C836 0.930 . S
H843 C837 0.930 . S
C844 N845 1.314 . S
C844 C846 1.353 . S
C844 H850 0.930 . S
N845 Li795 1.990 . S
N845 C844 1.314 . S
N845 C848 1.279 . S
C846 C844 1.353 . S
C846 C849 1.348 . S
C846 H878 0.929 . S
C847 C848 1.358 . S
C847 C849 1.356 . S
C847 H879 0.930 . S
C848 N845 1.279 . S
C848 C847 1.358 . S
C848 H851 0.930 . S
C849 C846 1.348 . S
C849 C847 1.356 . S
H850 C844 0.930 . S
H851 C848 0.930 . S
O852 Li792 1.956 . S
O852 Li793 1.970 . S
O852 Li794 1.961 . S
O852 C796 1.325 . S
O853 Li792 1.970 . S
O853 Li793 1.956 . S
O853 Li795 1.961 . S
O853 C802 1.325 . S
O854 Li792 1.961 . S
O854 Li794 1.956 . S
O854 Li795 1.970 . S
O854 C824 1.325 . S
O855 Li793 1.961 . S
O855 Li794 1.970 . S
O855 Li795 1.956 . S
O855 C830 1.325 . S
H856 C798 0.929 . S
H857 C799 0.930 . S
H858 C800 0.930 . S
H859 C801 0.930 . S
H860 C803 0.930 . S
H861 C805 0.929 . S
H862 C806 0.930 . S
H863 C807 0.930 . S
H864 C810 0.930 . S
H865 C813 0.929 . S
H866 C818 0.929 . S
H867 C819 0.930 . S
H868 C826 0.929 . S
H869 C827 0.930 . S
H870 C828 0.930 . S
H871 C829 0.930 . S
H872 C831 0.929 . S
H873 C832 0.930 . S
H874 C833 0.930 . S
H875 C834 0.930 . S
H876 C838 0.929 . S
H877 C840 0.930 . S
H878 C846 0.929 . S
H879 C847 0.930 . S
Li880 N897 1.990 . S
Li880 O940 1.956 . S
Li880 O941 1.970 . S
Li880 O942 1.961 . S
Li881 N905 1.990 . S
Li881 O940 1.970 . S
Li881 O941 1.956 . S
Li881 O943 1.961 . S
Li882 N927 1.990 . S
Li882 O940 1.961 . S
Li882 O942 1.956 . S
Li882 O943 1.970 . S
Li883 N933 1.990 . S
Li883 O941 1.961 . S
Li883 O942 1.970 . S
Li883 O943 1.956 . S
C884 C886 1.348 . S
C884 C887 1.356 . S
C884 O940 1.325 . S
N885 C888 1.314 . S
N885 C889 1.279 . S
C886 C884 1.348 . S
C886 C888 1.353 . S
C886 H944 0.929 . S
C887 C884 1.356 . S
C887 C889 1.358 . S
C887 H945 0.930 . S
C888 N885 1.314 . S
C888 C886 1.353 . S
C888 H946 0.930 . S
C889 N885 1.279 . S
C889 C887 1.358 . S
C889 H947 0.930 . S
C890 C893 1.348 . S
C890 C894 1.356 . S
C890 O941 1.325 . S
C891 N892 1.279 . S
C891 C894 1.358 . S
C891 H948 0.930 . S
N892 C891 1.279 . S
N892 C895 1.314 . S
C893 C890 1.348 . S
C893 C895 1.353 . S
C893 H949 0.929 . S
C894 C890 1.356 . S
C894 C891 1.358 . S
C894 H950 0.930 . S
C895 N892 1.314 . S
C895 C893 1.353 . S
C895 H951 0.930 . S
C896 N897 1.314 . S
C896 C901 1.353 . S
C896 H902 0.930 . S
N897 Li880 1.990 . S
N897 C896 1.314 . S
N897 C899 1.279 . S
C898 C899 1.358 . S
C898 C900 1.356 . S
C898 H952 0.930 . S
C899 N897 1.279 . S
C899 C898 1.358 . S
C899 H903 0.930 . S
C900 C898 1.356 . S
C900 C901 1.348 . S
C901 C896 1.353 . S
C901 C900 1.348 . S
C901 H953 0.929 . S
H902 C896 0.930 . S
H903 C899 0.930 . S
C904 N905 1.314 . S
C904 C906 1.353 . S
C904 H910 0.930 . S
N905 Li881 1.990 . S
N905 C904 1.314 . S
N905 C908 1.279 . S
C906 C904 1.353 . S
C906 C909 1.348 . S
C906 H954 0.929 . S
C907 C908 1.358 . S
C907 C909 1.356 . S
C907 H955 0.930 . S
C908 N905 1.279 . S
C908 C907 1.358 . S
C908 H911 0.930 . S
C909 C906 1.348 . S
C909 C907 1.356 . S
H910 C904 0.930 . S
H911 C908 0.930 . S
C912 C914 1.348 . S
C912 C915 1.356 . S
C912 O942 1.325 . S
N913 C916 1.314 . S
N913 C917 1.279 . S
C914 C912 1.348 . S
C914 C916 1.353 . S
C914 H956 0.929 . S
C915 C912 1.356 . S
C915 C917 1.358 . S
C915 H957 0.930 . S
C916 N913 1.314 . S
C916 C914 1.353 . S
C916 H958 0.930 . S
C917 N913 1.279 . S
C917 C915 1.358 . S
C917 H959 0.930 . S
C918 C919 1.348 . S
C918 C920 1.356 . S
C918 O943 1.325 . S
C919 C918 1.348 . S
C919 C921 1.353 . S
C919 H960 0.929 . S
C920 C918 1.356 . S
C920 C922 1.358 . S
C920 H961 0.930 . S
C921 C919 1.353 . S
C921 N923 1.314 . S
C921 H962 0.930 . S
C922 C920 1.358 . S
C922 N923 1.279 . S
C922 H963 0.930 . S
N923 C921 1.314 . S
N923 C922 1.279 . S
C924 C926 1.353 . S
C924 N927 1.314 . S
C924 H930 0.930 . S
C925 N927 1.279 . S
C925 C928 1.358 . S
C925 H931 0.930 . S
C926 C924 1.353 . S
C926 C929 1.348 . S
C926 H964 0.929 . S
N927 Li882 1.990 . S
N927 C924 1.314 . S
N927 C925 1.279 . S
C928 C925 1.358 . S
C928 C929 1.356 . S
C928 H965 0.930 . S
C929 C926 1.348 . S
C929 C928 1.356 . S
H930 C924 0.930 . S
H931 C925 0.930 . S
C932 N933 1.314 . S
C932 C934 1.353 . S
C932 H938 0.930 . S
N933 Li883 1.990 . S
N933 C932 1.314 . S
N933 C936 1.279 . S
C934 C932 1.353 . S
C934 C937 1.348 . S
C934 H966 0.929 . S
C935 C936 1.358 . S
C935 C937 1.356 . S
C935 H967 0.930 . S
C936 N933 1.279 . S
C936 C935 1.358 . S
C936 H939 0.930 . S
C937 C934 1.348 . S
C937 C935 1.356 . S
H938 C932 0.930 . S
H939 C936 0.930 . S
O940 Li880 1.956 . S
O940 Li881 1.970 . S
O940 Li882 1.961 . S
O940 C884 1.325 . S
O941 Li880 1.970 . S
O941 Li881 1.956 . S
O941 Li883 1.961 . S
O941 C890 1.325 . S
O942 Li880 1.961 . S
O942 Li882 1.956 . S
O942 Li883 1.970 . S
O942 C912 1.325 . S
O943 Li881 1.961 . S
O943 Li882 1.970 . S
O943 Li883 1.956 . S
O943 C918 1.325 . S
H944 C886 0.929 . S
H945 C887 0.930 . S
H946 C888 0.930 . S
H947 C889 0.930 . S
H948 C891 0.930 . S
H949 C893 0.929 . S
H950 C894 0.930 . S
H951 C895 0.930 . S
H952 C898 0.930 . S
H953 C901 0.929 . S
H954 C906 0.929 . S
H955 C907 0.930 . S
H956 C914 0.929 . S
H957 C915 0.930 . S
H958 C916 0.930 . S
H959 C917 0.930 . S
H960 C919 0.929 . S
H961 C920 0.930 . S
H962 C921 0.930 . S
H963 C922 0.930 . S
H964 C926 0.929 . S
H965 C928 0.930 . S
H966 C934 0.929 . S
H967 C935 0.930 . S
Li968 N985 1.990 . S
Li968 O1028 1.956 . S
Li968 O1029 1.970 1_554 S
Li968 O1030 1.961 1_554 S
Li969 N993 1.990 . S
Li969 O1028 1.970 . S
Li969 O1029 1.956 1_554 S
Li969 O1031 1.961 1_554 S
Li970 N1015 1.990 . S
Li970 O1028 1.961 . S
Li970 O1030 1.956 1_554 S
Li970 O1031 1.970 1_554 S
Li971 N1021 1.990 . S
Li971 O1029 1.961 . S
Li971 O1030 1.970 . S
Li971 O1031 1.956 . S
C972 C974 1.348 . S
C972 C975 1.356 . S
C972 O1028 1.325 . S
N973 C976 1.314 . S
N973 C977 1.279 . S
C974 C972 1.348 . S
C974 C976 1.353 . S
C974 H1032 0.929 . S
C975 C972 1.356 . S
C975 C977 1.358 . S
C975 H1033 0.930 . S
C976 N973 1.314 . S
C976 C974 1.353 . S
C976 H1034 0.930 . S
C977 N973 1.279 . S
C977 C975 1.358 . S
C977 H1035 0.930 . S
C978 C981 1.348 . S
C978 C982 1.356 . S
C978 O1029 1.325 . S
C979 N980 1.279 . S
C979 C982 1.358 . S
C979 H1036 0.930 . S
N980 C979 1.279 . S
N980 C983 1.314 . S
C981 C978 1.348 . S
C981 C983 1.353 . S
C981 H1037 0.929 1_556 S
C982 C978 1.356 . S
C982 C979 1.358 . S
C982 H1038 0.930 . S
C983 N980 1.314 . S
C983 C981 1.353 . S
C983 H1039 0.930 . S
C984 N985 1.314 1_556 S
C984 C989 1.353 . S
C984 H990 0.930 . S
N985 Li968 1.990 . S
N985 C984 1.314 1_554 S
N985 C987 1.279 . S
C986 C987 1.358 . S
C986 C988 1.356 . S
C986 H1040 0.930 . S
C987 N985 1.279 . S
C987 C986 1.358 . S
C987 H991 0.930 . S
C988 C986 1.356 . S
C988 C989 1.348 1_554 S
C989 C984 1.353 . S
C989 C988 1.348 1_556 S
C989 H1041 0.929 . S
H990 C984 0.930 . S
H991 C987 0.930 . S
C992 N993 1.314 . S
C992 C994 1.353 . S
C992 H998 0.930 . S
N993 Li969 1.990 . S
N993 C992 1.314 . S
N993 C996 1.279 . S
C994 C992 1.353 . S
C994 C997 1.348 . S
C994 H1042 0.929 . S
C995 C996 1.358 . S
C995 C997 1.356 . S
C995 H1043 0.930 . S
C996 N993 1.279 . S
C996 C995 1.358 . S
C996 H999 0.930 . S
C997 C994 1.348 . S
C997 C995 1.356 . S
H998 C992 0.930 . S
H999 C996 0.930 . S
C1000 C1002 1.348 . S
C1000 C1003 1.356 . S
C1000 O1030 1.325 . S
N1001 C1004 1.314 . S
N1001 C1005 1.279 . S
C1002 C1000 1.348 . S
C1002 C1004 1.353 . S
C1002 H1044 0.929 . S
C1003 C1000 1.356 . S
C1003 C1005 1.358 . S
C1003 H1045 0.930 . S
C1004 N1001 1.314 . S
C1004 C1002 1.353 . S
C1004 H1046 0.930 . S
C1005 N1001 1.279 . S
C1005 C1003 1.358 . S
C1005 H1047 0.930 . S
C1006 C1007 1.348 . S
C1006 C1008 1.356 . S
C1006 O1031 1.325 . S
C1007 C1006 1.348 . S
C1007 C1009 1.353 . S
C1007 H1048 0.929 . S
C1008 C1006 1.356 . S
C1008 C1010 1.358 . S
C1008 H1049 0.930 . S
C1009 C1007 1.353 . S
C1009 N1011 1.314 . S
C1009 H1050 0.930 . S
C1010 C1008 1.358 . S
C1010 N1011 1.279 . S
C1010 H1051 0.930 . S
N1011 C1009 1.314 . S
N1011 C1010 1.279 . S
C1012 C1014 1.353 . S
C1012 N1015 1.314 . S
C1012 H1018 0.930 . S
C1013 N1015 1.279 1_556 S
C1013 C1016 1.352 1_556 S
C1013 H1019 0.930 . S
C1014 C1012 1.353 . S
C1014 C1017 1.348 . S
C1014 H1052 0.929 . S
N1015 Li970 1.990 . S
N1015 C1012 1.314 . S
N1015 C1013 1.279 1_554 S
C1016 C1013 1.352 1_554 S
C1016 C1017 1.395 . S
C1016 H1053 0.898 1_554 S
C1017 C1014 1.348 . S
C1017 C1016 1.395 . S
H1018 C1012 0.930 . S
H1019 C1013 0.930 . S
C1020 N1021 1.314 . S
C1020 C1022 1.353 . S
C1020 H1026 0.930 . S
N1021 Li971 1.990 . S
N1021 C1020 1.314 . S
N1021 C1024 1.279 . S
C1022 C1020 1.353 . S
C1022 C1025 1.348 . S
C1022 H1054 0.929 . S
C1023 C1024 1.358 . S
C1023 C1025 1.356 . S
C1023 H1055 0.930 . S
C1024 N1021 1.279 . S
C1024 C1023 1.358 . S
C1024 H1027 0.930 . S
C1025 C1022 1.348 . S
C1025 C1023 1.356 . S
H1026 C1020 0.930 . S
H1027 C1024 0.930 . S
O1028 Li968 1.956 . S
O1028 Li969 1.970 . S
O1028 Li970 1.961 . S
O1028 C972 1.325 . S
O1029 Li968 1.970 1_556 S
O1029 Li969 1.956 1_556 S
O1029 Li971 1.961 . S
O1029 C978 1.325 . S
O1030 Li968 1.961 1_556 S
O1030 Li970 1.956 1_556 S
O1030 Li971 1.970 . S
O1030 C1000 1.325 . S
O1031 Li969 1.961 1_556 S
O1031 Li970 1.970 1_556 S
O1031 Li971 1.956 . S
O1031 C1006 1.325 . S
H1032 C974 0.929 . S
H1033 C975 0.930 . S
H1034 C976 0.930 . S
H1035 C977 0.930 . S
H1036 C979 0.930 . S
H1037 C981 0.929 1_554 S
H1038 C982 0.930 . S
H1039 C983 0.930 . S
H1040 C986 0.930 . S
H1041 C989 0.929 . S
H1042 C994 0.929 . S
H1043 C995 0.930 . S
H1044 C1002 0.929 . S
H1045 C1003 0.930 . S
H1046 C1004 0.930 . S
H1047 C1005 0.930 . S
H1048 C1007 0.929 . S
H1049 C1008 0.930 . S
H1050 C1009 0.930 . S
H1051 C1010 0.930 . S
H1052 C1014 0.929 . S
H1053 C1016 0.898 1_556 S
H1054 C1022 0.929 . S
H1055 C1023 0.930 . S
H1056 C1064 0.929 . S
H1057 C1066 0.930 . S
H1058 C1068 0.930 . S
H1059 C1071 0.929 . S
H1060 C1074 0.930 . S
H1061 C1076 0.960 . S
H1062 C1076 0.960 . S
H1063 C1076 0.960 . S
C1064 H1056 0.929 . S
C1064 C1065 1.377 . S
C1064 C1066 1.384 . S
C1065 C1064 1.377 . S
C1065 C1071 1.390 . S
C1066 H1057 0.930 . S
C1066 C1064 1.384 . S
C1066 C1067 1.372 . S
C1067 C1066 1.372 . S
C1067 C1068 1.400 . S
C1067 C1072 1.490 . S
C1068 H1058 0.930 . S
C1068 C1067 1.400 . S
C1068 C1071 1.386 . S
H1069 C1085 0.930 . S
H1070 C1086 0.931 . S
C1071 H1059 0.929 . S
C1071 C1065 1.390 . S
C1071 C1068 1.386 . S
C1072 C1067 1.490 . S
C1072 C1074 1.395 . S
C1072 C1075 1.403 . S
H1073 C1079 0.930 . S
C1074 H1060 0.930 . S
C1074 C1072 1.395 . S
C1074 C1077 1.403 . S
C1075 C1072 1.403 . S
C1075 C1076 1.524 . S
C1075 C1079 1.400 . S
C1076 H1061 0.960 . S
C1076 H1062 0.960 . S
C1076 H1063 0.960 . S
C1076 C1075 1.524 . S
C1077 C1074 1.403 . S
C1077 C1078 1.392 . S
C1077 C1081 1.495 . S
C1078 C1077 1.392 . S
C1078 C1079 1.385 . S
C1078 C1080 1.478 . S
C1079 H1073 0.930 . S
C1079 C1075 1.400 . S
C1079 C1078 1.385 . S
C1080 C1078 1.478 . S
C1080 C1082 1.381 . S
C1080 C1086 1.383 . S
C1081 C1077 1.495 . S
C1081 H1087 0.959 . S
C1081 H1088 0.961 . S
C1081 H1089 0.960 . S
C1082 C1080 1.381 . S
C1082 C1083 1.394 . S
C1082 H1090 0.930 . S
C1083 C1082 1.394 . S
C1083 C1084 1.383 . S
C1083 H1091 0.929 . S
C1084 C1083 1.383 . S
C1084 C1085 1.377 . S
C1085 H1069 0.930 . S
C1085 C1084 1.377 . S
C1085 C1086 1.379 . S
C1086 H1070 0.931 . S
C1086 C1080 1.383 . S
C1086 C1085 1.379 . S
H1087 C1081 0.959 . S
H1088 C1081 0.961 . S
H1089 C1081 0.960 . S
H1090 C1082 0.930 . S
H1091 C1083 0.929 . S
H1092 C1100 0.929 . S
H1093 C1102 0.930 . S
H1094 C1104 0.930 . S
H1095 C1107 0.929 . S
H1096 C1110 0.930 . S
H1097 C1112 0.960 . S
H1098 C1112 0.960 . S
H1099 C1112 0.960 . S
C1100 H1092 0.929 . S
C1100 C1101 1.377 . S
C1100 C1102 1.384 . S
C1101 C1100 1.377 . S
C1101 C1107 1.390 . S
C1102 H1093 0.930 . S
C1102 C1100 1.384 . S
C1102 C1103 1.372 . S
C1103 C1102 1.372 . S
C1103 C1104 1.400 . S
C1103 C1108 1.490 . S
C1104 H1094 0.930 . S
C1104 C1103 1.400 . S
C1104 C1107 1.386 . S
H1105 C1121 0.930 . S
H1106 C1122 0.931 . S
C1107 H1095 0.929 . S
C1107 C1101 1.390 . S
C1107 C1104 1.386 . S
C1108 C1103 1.490 . S
C1108 C1110 1.395 . S
C1108 C1111 1.403 . S
H1109 C1115 0.930 . S
C1110 H1096 0.930 . S
C1110 C1108 1.395 . S
C1110 C1113 1.403 . S
C1111 C1108 1.403 . S
C1111 C1112 1.524 . S
C1111 C1115 1.400 . S
C1112 H1097 0.960 . S
C1112 H1098 0.960 . S
C1112 H1099 0.960 . S
C1112 C1111 1.524 . S
C1113 C1110 1.403 . S
C1113 C1114 1.392 . S
C1113 C1117 1.495 . S
C1114 C1113 1.392 . S
C1114 C1115 1.385 . S
C1114 C1116 1.478 . S
C1115 H1109 0.930 . S
C1115 C1111 1.400 . S
C1115 C1114 1.385 . S
C1116 C1114 1.478 . S
C1116 C1118 1.381 . S
C1116 C1122 1.383 . S
C1117 C1113 1.495 . S
C1117 H1123 0.959 . S
C1117 H1124 0.961 . S
C1117 H1125 0.960 . S
C1118 C1116 1.381 . S
C1118 C1119 1.394 . S
C1118 H1126 0.930 . S
C1119 C1118 1.394 . S
C1119 C1120 1.383 . S
C1119 H1127 0.929 . S
C1120 C1119 1.383 . S
C1120 C1121 1.377 . S
C1121 H1105 0.930 . S
C1121 C1120 1.377 . S
C1121 C1122 1.379 . S
C1122 H1106 0.931 . S
C1122 C1116 1.383 . S
C1122 C1121 1.379 . S
H1123 C1117 0.959 . S
H1124 C1117 0.961 . S
H1125 C1117 0.960 . S
H1126 C1118 0.930 . S
H1127 C1119 0.929 . S
H1128 C1136 0.929 . S
H1129 C1138 0.930 . S
H1130 C1140 0.930 1_554 S
H1131 C1143 0.929 . S
H1132 C1146 0.930 . S
H1133 C1148 0.960 . S
H1134 C1148 0.960 . S
H1135 C1148 0.960 . S
C1136 H1128 0.929 . S
C1136 C1137 1.377 . S
C1136 C1138 1.384 . S
C1137 C1136 1.377 . S
C1137 C1143 1.390 . S
C1138 H1129 0.930 . S
C1138 C1136 1.384 . S
C1138 C1139 1.372 . S
C1139 C1138 1.372 . S
C1139 C1140 1.400 . S
C1139 C1144 1.490 . S
C1140 H1130 0.930 1_556 S
C1140 C1139 1.400 . S
C1140 C1143 1.386 . S
H1141 C1157 0.930 . S
H1142 C1158 0.931 . S
C1143 H1131 0.929 . S
C1143 C1137 1.390 . S
C1143 C1140 1.386 . S
C1144 C1139 1.490 . S
C1144 C1146 1.395 1_556 S
C1144 C1147 1.403 . S
H1145 C1151 0.930 . S
C1146 H1132 0.930 . S
C1146 C1144 1.395 1_554 S
C1146 C1149 1.403 . S
C1147 C1144 1.403 . S
C1147 C1148 1.524 . S
C1147 C1151 1.400 . S
C1148 H1133 0.960 . S
C1148 H1134 0.960 . S
C1148 H1135 0.960 . S
C1148 C1147 1.524 . S
C1149 C1146 1.403 . S
C1149 C1150 1.392 . S
C1149 C1153 1.495 . S
C1150 C1149 1.392 . S
C1150 C1151 1.385 1_554 S
C1150 C1152 1.478 . S
C1151 H1145 0.930 . S
C1151 C1147 1.400 . S
C1151 C1150 1.385 1_556 S
C1152 C1150 1.478 . S
C1152 C1154 1.381 . S
C1152 C1158 1.383 . S
C1153 C1149 1.495 . S
C1153 H1159 0.959 . S
C1153 H1160 0.961 . S
C1153 H1161 0.960 . S
C1154 C1152 1.381 . S
C1154 C1155 1.394 . S
C1154 H1162 0.930 1_554 S
C1155 C1154 1.394 . S
C1155 C1156 1.383 . S
C1155 H1163 0.910 1_554 S
C1156 C1155 1.383 . S
C1156 C1157 1.377 . S
C1157 H1141 0.930 . S
C1157 C1156 1.377 . S
C1157 C1158 1.379 . S
C1158 H1142 0.931 . S
C1158 C1152 1.383 . S
C1158 C1157 1.379 . S
H1159 C1153 0.959 . S
H1160 C1153 0.961 . S
H1161 C1153 0.960 . S
H1162 C1154 0.930 1_556 S
H1163 C1155 0.910 1_556 S
H1164 C1172 0.929 . S
H1165 C1174 0.930 . S
H1166 C1176 0.930 . S
H1167 C1179 0.929 . S
H1168 C1182 0.930 . S
H1169 C1184 0.960 . S
H1170 C1184 0.960 . S
H1171 C1184 0.960 . S
C1172 H1164 0.929 . S
C1172 C1173 1.377 . S
C1172 C1174 1.384 . S
C1173 C1172 1.377 . S
C1173 C1179 1.390 . S
C1174 H1165 0.930 . S
C1174 C1172 1.384 . S
C1174 C1175 1.372 . S
C1175 C1174 1.372 . S
C1175 C1176 1.400 . S
C1175 C1180 1.490 . S
C1176 H1166 0.930 . S
C1176 C1175 1.400 . S
C1176 C1179 1.386 . S
H1177 C1193 0.930 . S
H1178 C1194 0.931 . S
C1179 H1167 0.929 . S
C1179 C1173 1.390 . S
C1179 C1176 1.386 . S
C1180 C1175 1.490 . S
C1180 C1182 1.395 . S
C1180 C1183 1.403 . S
H1181 C1187 0.930 . S
C1182 H1168 0.930 . S
C1182 C1180 1.395 . S
C1182 C1185 1.403 . S
C1183 C1180 1.403 . S
C1183 C1184 1.524 . S
C1183 C1187 1.400 . S
C1184 H1169 0.960 . S
C1184 H1170 0.960 . S
C1184 H1171 0.960 . S
C1184 C1183 1.524 . S
C1185 C1182 1.403 . S
C1185 C1186 1.392 . S
C1185 C1189 1.495 . S
C1186 C1185 1.392 . S
C1186 C1187 1.385 . S
C1186 C1188 1.478 . S
C1187 H1181 0.930 . S
C1187 C1183 1.400 . S
C1187 C1186 1.385 . S
C1188 C1186 1.478 . S
C1188 C1190 1.381 . S
C1188 C1194 1.383 . S
C1189 C1185 1.495 . S
C1189 H1195 0.959 . S
C1189 H1196 0.961 . S
C1189 H1197 0.960 . S
C1190 C1188 1.381 . S
C1190 C1191 1.394 . S
C1190 H1198 0.930 . S
C1191 C1190 1.394 . S
C1191 C1192 1.383 . S
C1191 H1199 0.929 . S
C1192 C1191 1.383 . S
C1192 C1193 1.377 . S
C1193 H1177 0.930 . S
C1193 C1192 1.377 . S
C1193 C1194 1.379 . S
C1194 H1178 0.931 . S
C1194 C1188 1.383 . S
C1194 C1193 1.379 . S
H1195 C1189 0.959 . S
H1196 C1189 0.961 . S
H1197 C1189 0.960 . S
H1198 C1190 0.930 . S
H1199 C1191 0.929 . S
H1200 C1208 0.929 . S
H1201 C1210 0.930 . S
H1202 C1212 0.930 . S
H1203 C1215 0.929 . S
H1204 C1218 0.930 . S
H1205 C1220 0.960 . S
H1206 C1220 0.960 . S
H1207 C1220 0.960 . S
C1208 H1200 0.929 . S
C1208 C1209 1.377 . S
C1208 C1210 1.384 . S
C1209 C1208 1.377 . S
C1209 C1215 1.390 . S
C1210 H1201 0.930 . S
C1210 C1208 1.384 . S
C1210 C1211 1.372 . S
C1211 C1210 1.372 . S
C1211 C1212 1.400 . S
C1211 C1216 1.490 . S
C1212 H1202 0.930 . S
C1212 C1211 1.400 . S
C1212 C1215 1.386 . S
H1213 C1229 0.930 . S
H1214 C1230 0.931 . S
C1215 H1203 0.929 . S
C1215 C1209 1.390 . S
C1215 C1212 1.386 . S
C1216 C1211 1.490 . S
C1216 C1218 1.395 . S
C1216 C1219 1.403 . S
H1217 C1223 0.930 . S
C1218 H1204 0.930 . S
C1218 C1216 1.395 . S
C1218 C1221 1.403 . S
C1219 C1216 1.403 . S
C1219 C1220 1.524 . S
C1219 C1223 1.400 . S
C1220 H1205 0.960 . S
C1220 H1206 0.960 . S
C1220 H1207 0.960 . S
C1220 C1219 1.524 . S
C1221 C1218 1.403 . S
C1221 C1222 1.392 . S
C1221 C1225 1.495 . S
C1222 C1221 1.392 . S
C1222 C1223 1.385 . S
C1222 C1224 1.478 . S
C1223 H1217 0.930 . S
C1223 C1219 1.400 . S
C1223 C1222 1.385 . S
C1224 C1222 1.478 . S
C1224 C1226 1.381 . S
C1224 C1230 1.383 . S
C1225 C1221 1.495 . S
C1225 H1231 0.959 . S
C1225 H1232 0.961 . S
C1225 H1233 0.960 . S
C1226 C1224 1.381 . S
C1226 C1227 1.394 . S
C1226 H1234 0.930 . S
C1227 C1226 1.394 . S
C1227 C1228 1.383 . S
C1227 H1235 0.929 . S
C1228 C1227 1.383 . S
C1228 C1229 1.377 . S
C1229 H1213 0.930 . S
C1229 C1228 1.377 . S
C1229 C1230 1.379 . S
C1230 H1214 0.931 . S
C1230 C1224 1.383 . S
C1230 C1229 1.379 . S
H1231 C1225 0.959 . S
H1232 C1225 0.961 . S
H1233 C1225 0.960 . S
H1234 C1226 0.930 . S
H1235 C1227 0.929 . S
H1236 C1244 0.929 . S
H1237 C1246 0.930 . S
H1238 C1248 0.930 . S
H1239 C1251 0.929 . S
H1240 C1254 0.930 . S
H1241 C1256 0.960 . S
H1242 C1256 0.960 1_556 S
H1243 C1256 0.960 . S
C1244 H1236 0.929 . S
C1244 C1245 1.377 1_556 S
C1244 C1246 1.384 . S
C1245 C1244 1.377 1_554 S
C1245 C1251 1.390 . S
C1246 H1237 0.930 . S
C1246 C1244 1.384 . S
C1246 C1247 1.372 1_556 S
C1247 C1246 1.372 1_554 S
C1247 C1248 1.400 . S
C1247 C1252 1.490 . S
C1248 H1238 0.930 . S
C1248 C1247 1.400 . S
C1248 C1251 1.386 . S
H1249 C1265 0.930 . S
H1250 C1266 0.931 . S
C1251 H1239 0.929 . S
C1251 C1245 1.390 . S
C1251 C1248 1.386 . S
C1252 C1247 1.490 . S
C1252 C1254 1.395 1_554 S
C1252 C1255 1.403 . S
H1253 C1259 0.932 . S
C1254 H1240 0.930 . S
C1254 C1252 1.395 1_556 S
C1254 C1257 1.403 . S
C1255 C1252 1.403 . S
C1255 C1256 1.524 . S
C1255 C1259 1.400 1_554 S
C1256 H1241 0.960 . S
C1256 H1242 0.960 1_554 S
C1256 H1243 0.960 . S
C1256 C1255 1.524 . S
C1257 C1254 1.403 . S
C1257 C1258 1.392 . S
C1257 C1261 1.495 . S
C1258 C1257 1.392 . S
C1258 C1259 1.385 . S
C1258 C1260 1.478 . S
C1259 H1253 0.932 . S
C1259 C1255 1.400 1_556 S
C1259 C1258 1.385 . S
C1260 C1258 1.478 . S
C1260 C1262 1.381 . S
C1260 C1266 1.383 1_556 S
C1261 C1257 1.495 . S
C1261 H1267 0.959 . S
C1261 H1268 0.982 . S
C1261 H1269 0.960 . S
C1262 C1260 1.381 . S
C1262 C1263 1.394 . S
C1262 H1270 0.930 . S
C1263 C1262 1.394 . S
C1263 C1264 1.383 . S
C1263 H1271 0.929 . S
C1264 C1263 1.383 . S
C1264 C1265 1.377 1_556 S
C1265 H1249 0.930 . S
C1265 C1264 1.377 1_554 S
C1265 C1266 1.379 . S
C1266 H1250 0.931 . S
C1266 C1260 1.383 1_554 S
C1266 C1265 1.379 . S
H1267 C1261 0.959 . S
H1268 C1261 0.982 . S
H1269 C1261 0.960 . S
H1270 C1262 0.930 . S
H1271 C1263 0.929 . S
H1272 C1280 0.929 . S
H1273 C1282 0.930 . S
H1274 C1284 0.930 . S
H1275 C1287 0.929 . S
H1276 C1290 0.930 . S
H1277 C1292 0.960 . S
H1278 C1292 0.960 . S
H1279 C1292 0.960 . S
C1280 H1272 0.929 . S
C1280 C1281 1.377 . S
C1280 C1282 1.384 . S
C1281 C1280 1.377 . S
C1281 C1287 1.390 . S
C1282 H1273 0.930 . S
C1282 C1280 1.384 . S
C1282 C1283 1.372 . S
C1283 C1282 1.372 . S
C1283 C1284 1.400 . S
C1283 C1288 1.490 . S
C1284 H1274 0.930 . S
C1284 C1283 1.400 . S
C1284 C1287 1.386 . S
H1285 C1301 0.930 . S
H1286 C1302 0.931 . S
C1287 H1275 0.929 . S
C1287 C1281 1.390 . S
C1287 C1284 1.386 . S
C1288 C1283 1.490 . S
C1288 C1290 1.395 . S
C1288 C1291 1.403 . S
H1289 C1295 0.930 . S
C1290 H1276 0.930 . S
C1290 C1288 1.395 . S
C1290 C1293 1.403 . S
C1291 C1288 1.403 . S
C1291 C1292 1.524 . S
C1291 C1295 1.400 . S
C1292 H1277 0.960 . S
C1292 H1278 0.960 . S
C1292 H1279 0.960 . S
C1292 C1291 1.524 . S
C1293 C1290 1.403 . S
C1293 C1294 1.392 . S
C1293 C1297 1.495 . S
C1294 C1293 1.392 . S
C1294 C1295 1.385 . S
C1294 C1296 1.478 . S
C1295 H1289 0.930 . S
C1295 C1291 1.400 . S
C1295 C1294 1.385 . S
C1296 C1294 1.478 . S
C1296 C1298 1.381 . S
C1296 C1302 1.383 . S
C1297 C1293 1.495 . S
C1297 H1303 0.959 . S
C1297 H1304 0.961 . S
C1297 H1305 0.960 . S
C1298 C1296 1.381 . S
C1298 C1299 1.394 . S
C1298 H1306 0.930 . S
C1299 C1298 1.394 . S
C1299 C1300 1.383 . S
C1299 H1307 0.929 . S
C1300 C1299 1.383 . S
C1300 C1301 1.377 . S
C1301 H1285 0.930 . S
C1301 C1300 1.377 . S
C1301 C1302 1.379 . S
C1302 H1286 0.931 . S
C1302 C1296 1.383 . S
C1302 C1301 1.379 . S
H1303 C1297 0.959 . S
H1304 C1297 0.961 . S
H1305 C1297 0.960 . S
H1306 C1298 0.930 . S
H1307 C1299 0.929 . S
H1308 C1316 0.929 . S
H1309 C1318 0.930 . S
H1310 C1320 0.930 . S
H1311 C1323 0.929 . S
H1312 C1326 0.930 . S
H1313 C1328 0.960 . S
H1314 C1328 0.960 . S
H1315 C1328 0.960 . S
C1316 H1308 0.929 . S
C1316 C1317 1.377 . S
C1316 C1318 1.384 . S
C1317 C1316 1.377 . S
C1317 C1323 1.390 . S
C1318 H1309 0.930 . S
C1318 C1316 1.384 . S
C1318 C1319 1.372 . S
C1319 C1318 1.372 . S
C1319 C1320 1.400 . S
C1319 C1324 1.490 . S
C1320 H1310 0.930 . S
C1320 C1319 1.400 . S
C1320 C1323 1.386 . S
H1321 C1337 0.930 . S
H1322 C1338 0.931 . S
C1323 H1311 0.929 . S
C1323 C1317 1.390 . S
C1323 C1320 1.386 . S
C1324 C1319 1.490 . S
C1324 C1326 1.395 . S
C1324 C1327 1.403 . S
H1325 C1331 0.930 . S
C1326 H1312 0.930 . S
C1326 C1324 1.395 . S
C1326 C1329 1.403 1_655 S
C1327 C1324 1.403 . S
C1327 C1328 1.524 . S
C1327 C1331 1.400 1_655 S
C1328 H1313 0.960 . S
C1328 H1314 0.960 . S
C1328 H1315 0.960 . S
C1328 C1327 1.524 . S
C1329 C1326 1.403 1_455 S
C1329 C1330 1.392 . S
C1329 C1333 1.495 . S
C1330 C1329 1.392 . S
C1330 C1331 1.385 . S
C1330 C1332 1.478 . S
C1331 H1325 0.930 . S
C1331 C1327 1.400 1_455 S
C1331 C1330 1.385 . S
C1332 C1330 1.478 . S
C1332 C1334 1.381 . S
C1332 C1338 1.383 . S
C1333 C1329 1.495 . S
C1333 H1339 0.959 . S
C1333 H1340 0.961 . S
C1333 H1341 0.960 . S
C1334 C1332 1.381 . S
C1334 C1335 1.394 . S
C1334 H1342 0.930 . S
C1335 C1334 1.394 . S
C1335 C1336 1.383 . S
C1335 H1343 0.929 . S
C1336 C1335 1.383 . S
C1336 C1337 1.377 . S
C1337 H1321 0.930 . S
C1337 C1336 1.377 . S
C1337 C1338 1.379 . S
C1338 H1322 0.931 . S
C1338 C1332 1.383 . S
C1338 C1337 1.379 . S
H1339 C1333 0.959 . S
H1340 C1333 0.961 . S
H1341 C1333 0.960 . S
H1342 C1334 0.930 . S
H1343 C1335 0.929 . S
H1344 C1352 0.929 . S
H1345 C1354 0.930 . S
H1346 C1356 0.930 . S
H1347 C1359 0.929 . S
H1348 C1362 0.930 . S
H1349 C1364 0.960 . S
H1350 C1364 0.960 1_556 S
H1351 C1364 0.960 . S
C1352 H1344 0.929 . S
C1352 C1353 1.377 1_556 S
C1352 C1354 1.384 . S
C1353 C1352 1.377 1_554 S
C1353 C1359 1.390 . S
C1354 H1345 0.930 . S
C1354 C1352 1.384 . S
C1354 C1355 1.372 1_556 S
C1355 C1354 1.372 1_554 S
C1355 C1356 1.400 . S
C1355 C1360 1.490 . S
C1356 H1346 0.930 . S
C1356 C1355 1.400 . S
C1356 C1359 1.386 . S
H1357 C1373 0.930 . S
H1358 C1374 0.931 . S
C1359 H1347 0.929 . S
C1359 C1353 1.390 . S
C1359 C1356 1.386 . S
C1360 C1355 1.490 . S
C1360 C1362 1.395 1_554 S
C1360 C1363 1.403 . S
H1361 C1367 0.930 . S
C1362 H1348 0.930 . S
C1362 C1360 1.395 1_556 S
C1362 C1365 1.403 1_545 S
C1363 C1360 1.403 . S
C1363 C1364 1.524 . S
C1363 C1367 1.393 1_544 S
C1364 H1349 0.960 . S
C1364 H1350 0.960 1_554 S
C1364 H1351 0.960 . S
C1364 C1363 1.524 . S
C1365 C1362 1.403 1_565 S
C1365 C1366 1.392 . S
C1365 C1369 1.495 . S
C1366 C1365 1.392 . S
C1366 C1367 1.395 . S
C1366 C1368 1.478 . S
C1367 H1361 0.930 . S
C1367 C1363 1.393 1_566 S
C1367 C1366 1.395 . S
C1368 C1366 1.478 . S
C1368 C1370 1.381 . S
C1368 C1374 1.383 1_556 S
C1369 C1365 1.495 . S
C1369 H1375 0.959 . S
C1369 H1376 0.952 1_556 S
C1369 H1377 0.960 . S
C1370 C1368 1.381 . S
C1370 C1371 1.394 . S
C1370 H1378 0.930 . S
C1371 C1370 1.394 . S
C1371 C1372 1.383 . S
C1371 H1379 0.929 . S
C1372 C1371 1.383 . S
C1372 C1373 1.377 1_556 S
C1373 H1357 0.930 . S
C1373 C1372 1.377 1_554 S
C1373 C1374 1.379 . S
C1374 H1358 0.931 . S
C1374 C1368 1.383 1_554 S
C1374 C1373 1.379 . S
H1375 C1369 0.959 . S
H1376 C1369 0.952 1_554 S
H1377 C1369 0.960 . S
H1378 C1370 0.930 . S
H1379 C1371 0.929 . S
H1380 C1388 0.929 . S
H1381 C1390 0.930 . S
H1382 C1392 0.930 . S
H1383 C1395 0.929 . S
H1384 C1398 0.930 . S
H1385 C1400 0.960 . S
H1386 C1400 0.960 . S
H1387 C1400 0.960 . S
C1388 H1380 0.929 . S
C1388 C1389 1.377 . S
C1388 C1390 1.384 . S
C1389 C1388 1.377 . S
C1389 C1395 1.390 . S
C1390 H1381 0.930 . S
C1390 C1388 1.384 . S
C1390 C1391 1.372 . S
C1391 C1390 1.372 . S
C1391 C1392 1.400 . S
C1391 C1396 1.490 . S
C1392 H1382 0.930 . S
C1392 C1391 1.400 . S
C1392 C1395 1.386 . S
H1393 C1409 0.930 . S
H1394 C1410 0.931 . S
C1395 H1383 0.929 . S
C1395 C1389 1.390 . S
C1395 C1392 1.386 . S
C1396 C1391 1.490 . S
C1396 C1398 1.395 . S
C1396 C1399 1.403 . S
H1397 C1403 0.930 . S
C1398 H1384 0.930 . S
C1398 C1396 1.395 . S
C1398 C1401 1.403 . S
C1399 C1396 1.403 . S
C1399 C1400 1.524 . S
C1399 C1403 1.400 . S
C1400 H1385 0.960 . S
C1400 H1386 0.960 . S
C1400 H1387 0.960 . S
C1400 C1399 1.524 . S
C1401 C1398 1.403 . S
C1401 C1402 1.392 . S
C1401 C1405 1.495 . S
C1402 C1401 1.392 . S
C1402 C1403 1.385 . S
C1402 C1404 1.478 . S
C1403 H1397 0.930 . S
C1403 C1399 1.400 . S
C1403 C1402 1.385 . S
C1404 C1402 1.478 . S
C1404 C1406 1.381 . S
C1404 C1410 1.383 . S
C1405 C1401 1.495 . S
C1405 H1411 0.959 . S
C1405 H1412 0.961 . S
C1405 H1413 0.960 . S
C1406 C1404 1.381 . S
C1406 C1407 1.394 . S
C1406 H1414 0.930 . S
C1407 C1406 1.394 . S
C1407 C1408 1.383 . S
C1407 H1415 0.929 . S
C1408 C1407 1.383 . S
C1408 C1409 1.377 . S
C1409 H1393 0.930 . S
C1409 C1408 1.377 . S
C1409 C1410 1.379 . S
C1410 H1394 0.931 . S
C1410 C1404 1.383 . S
C1410 C1409 1.379 . S
H1411 C1405 0.959 . S
H1412 C1405 0.961 . S
H1413 C1405 0.960 . S
H1414 C1406 0.930 . S
H1415 C1407 0.929 . S
H1416 C1424 0.929 . S
H1417 C1426 0.930 . S
H1418 C1428 0.930 . S
H1419 C1431 0.929 . S
H1420 C1434 0.930 . S
H1421 C1436 0.983 . S
H1422 C1436 0.960 . S
H1423 C1436 0.960 . S
C1424 H1416 0.929 . S
C1424 C1425 1.377 . S
C1424 C1426 1.384 . S
C1425 C1424 1.377 . S
C1425 C1431 1.390 . S
C1426 H1417 0.930 . S
C1426 C1424 1.384 . S
C1426 C1427 1.372 . S
C1427 C1426 1.372 . S
C1427 C1428 1.400 . S
C1427 C1432 1.490 . S
C1428 H1418 0.930 . S
C1428 C1427 1.400 . S
C1428 C1431 1.386 . S
H1429 C1445 0.930 . S
H1430 C1446 0.931 . S
C1431 H1419 0.929 . S
C1431 C1425 1.390 . S
C1431 C1428 1.386 . S
C1432 C1427 1.490 . S
C1432 C1434 1.395 . S
C1432 C1435 1.403 . S
H1433 C1439 0.930 . S
C1434 H1420 0.930 . S
C1434 C1432 1.395 . S
C1434 C1437 1.403 1_455 S
C1435 C1432 1.403 . S
C1435 C1436 1.524 . S
C1435 C1439 1.400 1_455 S
C1436 H1421 0.983 . S
C1436 H1422 0.960 . S
C1436 H1423 0.960 . S
C1436 C1435 1.524 . S
C1437 C1434 1.403 1_655 S
C1437 C1438 1.392 . S
C1437 C1441 1.495 . S
C1438 C1437 1.392 . S
C1438 C1439 1.385 . S
C1438 C1440 1.478 . S
C1439 H1433 0.930 . S
C1439 C1435 1.400 1_655 S
C1439 C1438 1.385 . S
C1440 C1438 1.478 . S
C1440 C1442 1.381 . S
C1440 C1446 1.383 . S
C1441 C1437 1.495 . S
C1441 H1447 0.959 . S
C1441 H1448 0.961 . S
C1441 H1449 0.960 . S
C1442 C1440 1.381 . S
C1442 C1443 1.394 . S
C1442 H1450 0.930 . S
C1443 C1442 1.394 . S
C1443 C1444 1.383 . S
C1443 H1451 0.929 . S
C1444 C1443 1.383 . S
C1444 C1445 1.377 . S
C1445 H1429 0.930 . S
C1445 C1444 1.377 . S
C1445 C1446 1.379 . S
C1446 H1430 0.931 . S
C1446 C1440 1.383 . S
C1446 C1445 1.379 . S
H1447 C1441 0.959 . S
H1448 C1441 0.961 . S
H1449 C1441 0.960 . S
H1450 C1442 0.930 . S
H1451 C1443 0.929 . S
H1452 C1460 0.957 . S
H1453 C1462 0.930 . S
H1454 C1464 0.930 . S
H1455 C1467 0.929 . S
H1456 C1470 0.930 . S
H1457 C1472 0.960 . S
H1458 C1472 0.960 . S
H1459 C1472 0.960 1_556 S
C1460 H1452 0.957 . S
C1460 C1461 1.342 1_554 S
C1460 C1462 1.393 . S
C1461 C1460 1.342 1_556 S
C1461 C1467 1.390 . S
C1462 H1453 0.930 . S
C1462 C1460 1.393 . S
C1462 C1463 1.372 1_554 S
C1463 C1462 1.372 1_556 S
C1463 C1464 1.400 . S
C1463 C1468 1.490 . S
C1464 H1454 0.930 . S
C1464 C1463 1.400 . S
C1464 C1467 1.386 . S
H1465 C1481 0.930 . S
H1466 C1482 0.931 . S
C1467 H1455 0.929 . S
C1467 C1461 1.390 . S
C1467 C1464 1.386 . S
C1468 C1463 1.490 . S
C1468 C1470 1.395 . S
C1468 C1471 1.403 1_556 S
H1469 C1475 0.930 . S
C1470 H1456 0.930 . S
C1470 C1468 1.395 . S
C1470 C1473 1.400 1_546 S
C1471 C1468 1.403 1_554 S
C1471 C1472 1.524 . S
C1471 C1475 1.400 1_545 S
C1472 H1457 0.960 . S
C1472 H1458 0.960 . S
C1472 H1459 0.960 1_554 S
C1472 C1471 1.524 . S
C1473 C1470 1.400 1_564 S
C1473 C1474 1.396 . S
C1473 C1477 1.495 1_554 S
C1474 C1473 1.396 . S
C1474 C1475 1.385 . S
C1474 C1476 1.478 . S
C1475 H1469 0.930 . S
C1475 C1471 1.400 1_565 S
C1475 C1474 1.385 . S
C1476 C1474 1.478 . S
C1476 C1478 1.381 . S
C1476 C1482 1.383 1_554 S
C1477 C1473 1.495 1_556 S
C1477 H1483 0.961 . S
C1477 H1484 0.968 . S
C1477 H1485 0.952 1_556 S
C1478 C1476 1.381 . S
C1478 C1479 1.394 . S
C1478 H1486 0.930 . S
C1479 C1478 1.394 . S
C1479 C1480 1.383 . S
C1479 H1487 0.929 . S
C1480 C1479 1.383 . S
C1480 C1481 1.377 1_554 S
C1481 H1465 0.930 . S
C1481 C1480 1.377 1_556 S
C1481 C1482 1.379 . S
C1482 H1466 0.931 . S
C1482 C1476 1.383 1_556 S
C1482 C1481 1.379 . S
H1483 C1477 0.961 . S
H1484 C1477 0.968 . S
H1485 C1477 0.952 1_554 S
H1486 C1478 0.930 . S
H1487 C1479 0.929 . S
H1488 C1496 0.929 . S
H1489 C1498 0.930 . S
H1490 C1500 0.930 . S
H1491 C1503 0.929 . S
H1492 C1506 0.930 . S
H1493 C1508 0.960 . S
H1494 C1508 0.960 . S
H1495 C1508 0.960 . S
C1496 H1488 0.929 . S
C1496 C1497 1.377 . S
C1496 C1498 1.384 . S
C1497 C1496 1.377 . S
C1497 C1503 1.390 . S
C1498 H1489 0.930 . S
C1498 C1496 1.384 . S
C1498 C1499 1.372 . S
C1499 C1498 1.372 . S
C1499 C1500 1.400 . S
C1499 C1504 1.490 . S
C1500 H1490 0.930 . S
C1500 C1499 1.400 . S
C1500 C1503 1.386 . S
H1501 C1517 0.930 . S
H1502 C1518 0.931 . S
C1503 H1491 0.929 . S
C1503 C1497 1.390 . S
C1503 C1500 1.386 . S
C1504 C1499 1.490 . S
C1504 C1506 1.395 1_655 S
C1504 C1507 1.403 . S
H1505 C1511 0.930 . S
C1506 H1492 0.930 . S
C1506 C1504 1.395 1_455 S
C1506 C1509 1.403 . S
C1507 C1504 1.403 . S
C1507 C1508 1.524 . S
C1507 C1511 1.400 . S
C1508 H1493 0.960 . S
C1508 H1494 0.960 . S
C1508 H1495 0.960 . S
C1508 C1507 1.524 . S
C1509 C1506 1.403 . S
C1509 C1510 1.392 . S
C1509 C1513 1.495 . S
C1510 C1509 1.392 . S
C1510 C1511 1.385 1_455 S
C1510 C1512 1.478 . S
C1511 H1505 0.930 . S
C1511 C1507 1.400 . S
C1511 C1510 1.385 1_655 S
C1512 C1510 1.478 . S
C1512 C1514 1.381 . S
C1512 C1518 1.383 . S
C1513 C1509 1.495 . S
C1513 H1519 0.959 . S
C1513 H1520 0.961 . S
C1513 H1521 0.960 . S
C1514 C1512 1.381 . S
C1514 C1515 1.394 . S
C1514 H1522 0.930 . S
C1515 C1514 1.394 . S
C1515 C1516 1.383 . S
C1515 H1523 0.929 . S
C1516 C1515 1.383 . S
C1516 C1517 1.377 . S
C1517 H1501 0.930 . S
C1517 C1516 1.377 . S
C1517 C1518 1.379 . S
C1518 H1502 0.931 . S
C1518 C1512 1.383 . S
C1518 C1517 1.379 . S
H1519 C1513 0.959 . S
H1520 C1513 0.961 . S
H1521 C1513 0.960 . S
H1522 C1514 0.930 . S
H1523 C1515 0.929 . S
H1524 C1532 0.929 . S
H1525 C1534 0.930 . S
H1526 C1536 0.930 . S
H1527 C1539 0.929 . S
H1528 C1542 0.930 . S
H1529 C1544 0.960 . S
H1530 C1544 0.960 . S
H1531 C1544 0.960 . S
C1532 H1524 0.929 . S
C1532 C1533 1.377 . S
C1532 C1534 1.384 . S
C1533 C1532 1.377 . S
C1533 C1539 1.390 . S
C1534 H1525 0.930 . S
C1534 C1532 1.384 . S
C1534 C1535 1.372 . S
C1535 C1534 1.372 . S
C1535 C1536 1.400 . S
C1535 C1540 1.490 . S
C1536 H1526 0.930 . S
C1536 C1535 1.400 . S
C1536 C1539 1.386 . S
H1537 C1553 0.930 . S
H1538 C1554 0.931 . S
C1539 H1527 0.929 . S
C1539 C1533 1.390 . S
C1539 C1536 1.386 . S
C1540 C1535 1.490 . S
C1540 C1542 1.395 . S
C1540 C1543 1.403 1_545 S
H1541 C1547 0.930 . S
C1542 H1528 0.930 . S
C1542 C1540 1.395 . S
C1542 C1545 1.403 . S
C1543 C1540 1.403 1_565 S
C1543 C1544 1.524 . S
C1543 C1547 1.400 . S
C1544 H1529 0.960 . S
C1544 H1530 0.960 . S
C1544 H1531 0.960 . S
C1544 C1543 1.524 . S
C1545 C1542 1.403 . S
C1545 C1546 1.392 1_545 S
C1545 C1549 1.495 . S
C1546 C1545 1.392 1_565 S
C1546 C1547 1.385 . S
C1546 C1548 1.478 . S
C1547 H1541 0.930 . S
C1547 C1543 1.400 . S
C1547 C1546 1.385 . S
C1548 C1546 1.478 . S
C1548 C1550 1.381 . S
C1548 C1554 1.383 . S
C1549 C1545 1.495 . S
C1549 H1555 0.959 . S
C1549 H1556 0.961 . S
C1549 H1557 0.960 . S
C1550 C1548 1.381 . S
C1550 C1551 1.394 . S
C1550 H1558 0.930 . S
C1551 C1550 1.394 . S
C1551 C1552 1.383 . S
C1551 H1559 0.929 . S
C1552 C1551 1.383 . S
C1552 C1553 1.377 . S
C1553 H1537 0.930 . S
C1553 C1552 1.377 . S
C1553 C1554 1.379 . S
C1554 H1538 0.931 . S
C1554 C1548 1.383 . S
C1554 C1553 1.379 . S
H1555 C1549 0.959 . S
H1556 C1549 0.961 . S
H1557 C1549 0.960 . S
H1558 C1550 0.930 . S
H1559 C1551 0.929 . S
H1560 C1568 0.929 . S
H1561 C1570 0.930 . S
H1562 C1572 0.930 . S
H1563 C1575 0.929 . S
H1564 C1578 0.930 . S
H1565 C1580 0.960 . S
H1566 C1580 0.960 . S
H1567 C1580 0.960 . S
C1568 H1560 0.929 . S
C1568 C1569 1.377 . S
C1568 C1570 1.384 . S
C1569 C1568 1.377 . S
C1569 C1575 1.390 . S
C1570 H1561 0.930 . S
C1570 C1568 1.384 . S
C1570 C1571 1.372 . S
C1571 C1570 1.372 . S
C1571 C1572 1.400 . S
C1571 C1576 1.490 . S
C1572 H1562 0.930 . S
C1572 C1571 1.400 . S
C1572 C1575 1.386 . S
H1573 C1589 0.930 . S
H1574 C1590 0.931 . S
C1575 H1563 0.929 . S
C1575 C1569 1.390 . S
C1575 C1572 1.386 . S
C1576 C1571 1.490 . S
C1576 C1578 1.395 . S
C1576 C1579 1.403 . S
H1577 C1583 0.930 . S
C1578 H1564 0.930 . S
C1578 C1576 1.395 . S
C1578 C1581 1.403 . S
C1579 C1576 1.403 . S
C1579 C1580 1.524 . S
C1579 C1583 1.400 . S
C1580 H1565 0.960 . S
C1580 H1566 0.960 . S
C1580 H1567 0.960 . S
C1580 C1579 1.524 . S
C1581 C1578 1.403 . S
C1581 C1582 1.392 . S
C1581 C1585 1.495 . S
C1582 C1581 1.392 . S
C1582 C1583 1.385 . S
C1582 C1584 1.478 . S
C1583 H1577 0.930 . S
C1583 C1579 1.400 . S
C1583 C1582 1.385 . S
C1584 C1582 1.478 . S
C1584 C1586 1.381 . S
C1584 C1590 1.383 . S
C1585 C1581 1.495 . S
C1585 H1591 0.959 . S
C1585 H1592 0.961 . S
C1585 H1593 0.960 . S
C1586 C1584 1.381 . S
C1586 C1587 1.394 . S
C1586 H1594 0.930 . S
C1587 C1586 1.394 . S
C1587 C1588 1.383 . S
C1587 H1595 0.929 . S
C1588 C1587 1.383 . S
C1588 C1589 1.377 . S
C1589 H1573 0.930 . S
C1589 C1588 1.377 . S
C1589 C1590 1.379 . S
C1590 H1574 0.931 . S
C1590 C1584 1.383 . S
C1590 C1589 1.379 . S
H1591 C1585 0.959 . S
H1592 C1585 0.961 . S
H1593 C1585 0.960 . S
H1594 C1586 0.930 . S
H1595 C1587 0.929 . S
H1596 C1604 0.929 . S
H1597 C1606 0.930 . S
H1598 C1608 0.930 . S
H1599 C1611 0.929 . S
H1600 C1614 0.930 . S
H1601 C1616 0.960 . S
H1602 C1616 0.960 . S
H1603 C1616 0.960 . S
C1604 H1596 0.929 . S
C1604 C1605 1.377 . S
C1604 C1606 1.384 . S
C1605 C1604 1.377 . S
C1605 C1611 1.390 . S
C1606 H1597 0.930 . S
C1606 C1604 1.384 . S
C1606 C1607 1.372 . S
C1607 C1606 1.372 . S
C1607 C1608 1.400 . S
C1607 C1612 1.490 . S
C1608 H1598 0.930 . S
C1608 C1607 1.400 . S
C1608 C1611 1.386 . S
H1609 C1625 0.930 . S
H1610 C1626 0.931 . S
C1611 H1599 0.929 . S
C1611 C1605 1.390 . S
C1611 C1608 1.386 . S
C1612 C1607 1.490 . S
C1612 C1614 1.395 . S
C1612 C1615 1.403 1_455 S
H1613 C1619 0.930 . S
C1614 H1600 0.930 . S
C1614 C1612 1.395 . S
C1614 C1617 1.403 . S
C1615 C1612 1.403 1_655 S
C1615 C1616 1.524 . S
C1615 C1619 1.400 . S
C1616 H1601 0.960 . S
C1616 H1602 0.960 . S
C1616 H1603 0.960 . S
C1616 C1615 1.524 . S
C1617 C1614 1.403 . S
C1617 C1618 1.392 1_455 S
C1617 C1621 1.495 . S
C1618 C1617 1.392 1_655 S
C1618 C1619 1.385 . S
C1618 C1620 1.478 . S
C1619 H1613 0.930 . S
C1619 C1615 1.400 . S
C1619 C1618 1.385 . S
C1620 C1618 1.478 . S
C1620 C1622 1.381 . S
C1620 C1626 1.383 . S
C1621 C1617 1.495 . S
C1621 H1627 0.959 . S
C1621 H1628 0.961 . S
C1621 H1629 0.960 . S
C1622 C1620 1.381 . S
C1622 C1623 1.394 . S
C1622 H1630 0.930 . S
C1623 C1622 1.394 . S
C1623 C1624 1.383 . S
C1623 H1631 0.929 . S
C1624 C1623 1.383 . S
C1624 C1625 1.377 . S
C1625 H1609 0.930 . S
C1625 C1624 1.377 . S
C1625 C1626 1.379 . S
C1626 H1610 0.931 . S
C1626 C1620 1.383 . S
C1626 C1625 1.379 . S
H1627 C1621 0.959 . S
H1628 C1621 0.961 . S
H1629 C1621 0.960 . S
H1630 C1622 0.930 . S
H1631 C1623 0.929 . S
H1632 C1640 0.929 . S
H1633 C1642 0.930 . S
H1634 C1644 0.930 . S
H1635 C1647 0.929 . S
H1636 C1650 0.930 . S
H1637 C1652 0.960 . S
H1638 C1652 0.960 . S
H1639 C1652 0.960 . S
C1640 H1632 0.929 . S
C1640 C1641 1.377 . S
C1640 C1642 1.384 . S
C1641 C1640 1.377 . S
C1641 C1647 1.390 . S
C1642 H1633 0.930 . S
C1642 C1640 1.384 . S
C1642 C1643 1.372 . S
C1643 C1642 1.372 . S
C1643 C1644 1.400 . S
C1643 C1648 1.490 . S
C1644 H1634 0.930 . S
C1644 C1643 1.400 . S
C1644 C1647 1.386 . S
H1645 C1661 0.930 . S
H1646 C1662 0.931 . S
C1647 H1635 0.929 . S
C1647 C1641 1.390 . S
C1647 C1644 1.386 . S
C1648 C1643 1.490 . S
C1648 C1650 1.395 1_545 S
C1648 C1651 1.403 . S
H1649 C1655 0.930 . S
C1650 H1636 0.930 . S
C1650 C1648 1.395 1_565 S
C1650 C1653 1.403 . S
C1651 C1648 1.403 . S
C1651 C1652 1.524 . S
C1651 C1655 1.400 . S
C1652 H1637 0.960 . S
C1652 H1638 0.960 . S
C1652 H1639 0.960 . S
C1652 C1651 1.524 . S
C1653 C1650 1.403 . S
C1653 C1654 1.392 . S
C1653 C1657 1.495 . S
C1654 C1653 1.392 . S
C1654 C1655 1.385 1_565 S
C1654 C1656 1.478 . S
C1655 H1649 0.930 . S
C1655 C1651 1.400 . S
C1655 C1654 1.385 1_545 S
C1656 C1654 1.478 . S
C1656 C1658 1.381 . S
C1656 C1662 1.383 . S
C1657 C1653 1.495 . S
C1657 H1663 0.959 . S
C1657 H1664 0.961 . S
C1657 H1665 0.960 . S
C1658 C1656 1.381 . S
C1658 C1659 1.394 . S
C1658 H1666 0.930 . S
C1659 C1658 1.394 . S
C1659 C1660 1.383 . S
C1659 H1667 0.929 . S
C1660 C1659 1.383 . S
C1660 C1661 1.377 . S
C1661 H1645 0.930 . S
C1661 C1660 1.377 . S
C1661 C1662 1.379 . S
C1662 H1646 0.931 . S
C1662 C1656 1.383 . S
C1662 C1661 1.379 . S
H1663 C1657 0.959 . S
H1664 C1657 0.961 . S
H1665 C1657 0.960 . S
H1666 C1658 0.930 . S
H1667 C1659 0.929 . S
H1668 C1676 0.929 . S
H1669 C1678 0.930 . S
H1670 C1680 0.930 . S
H1671 C1683 0.929 . S
H1672 C1686 0.930 . S
H1673 C1688 0.960 . S
H1674 C1688 0.960 . S
H1675 C1688 0.960 . S
C1676 H1668 0.929 . S
C1676 C1677 1.377 . S
C1676 C1678 1.384 . S
C1677 C1676 1.377 . S
C1677 C1683 1.390 . S
C1678 H1669 0.930 . S
C1678 C1676 1.384 . S
C1678 C1679 1.372 . S
C1679 C1678 1.372 . S
C1679 C1680 1.400 . S
C1679 C1684 1.490 . S
C1680 H1670 0.930 . S
C1680 C1679 1.400 . S
C1680 C1683 1.386 . S
H1681 C1697 0.930 . S
H1682 C1698 0.931 . S
C1683 H1671 0.929 . S
C1683 C1677 1.390 . S
C1683 C1680 1.386 . S
C1684 C1679 1.490 . S
C1684 C1686 1.395 . S
C1684 C1687 1.403 . S
H1685 C1691 0.930 . S
C1686 H1672 0.930 . S
C1686 C1684 1.395 . S
C1686 C1689 1.403 . S
C1687 C1684 1.403 . S
C1687 C1688 1.524 . S
C1687 C1691 1.400 . S
C1688 H1673 0.960 . S
C1688 H1674 0.960 . S
C1688 H1675 0.960 . S
C1688 C1687 1.524 . S
C1689 C1686 1.403 . S
C1689 C1690 1.392 . S
C1689 C1693 1.495 . S
C1690 C1689 1.392 . S
C1690 C1691 1.385 . S
C1690 C1692 1.478 . S
C1691 H1685 0.930 . S
C1691 C1687 1.400 . S
C1691 C1690 1.385 . S
C1692 C1690 1.478 . S
C1692 C1694 1.381 . S
C1692 C1698 1.383 . S
C1693 C1689 1.495 . S
C1693 H1699 0.959 . S
C1693 H1700 0.961 . S
C1693 H1701 0.960 . S
C1694 C1692 1.381 . S
C1694 C1695 1.394 . S
C1694 H1702 0.930 . S
C1695 C1694 1.394 . S
C1695 C1696 1.383 . S
C1695 H1703 0.929 . S
C1696 C1695 1.383 . S
C1696 C1697 1.377 . S
C1697 H1681 0.930 . S
C1697 C1696 1.377 . S
C1697 C1698 1.379 . S
C1698 H1682 0.931 . S
C1698 C1692 1.383 . S
C1698 C1697 1.379 . S
H1699 C1693 0.959 . S
H1700 C1693 0.961 . S
H1701 C1693 0.960 . S
H1702 C1694 0.930 . S
H1703 C1695 0.929 . S
H1704 C1712 0.929 . S
H1705 C1714 0.930 . S
H1706 C1716 0.930 . S
H1707 C1719 0.929 . S
H1708 C1722 0.930 . S
H1709 C1724 0.960 . S
H1710 C1724 0.960 . S
H1711 C1724 0.960 . S
C1712 H1704 0.929 . S
C1712 C1713 1.377 . S
C1712 C1714 1.384 . S
C1713 C1712 1.377 . S
C1713 C1719 1.390 . S
C1714 H1705 0.930 . S
C1714 C1712 1.384 . S
C1714 C1715 1.372 . S
C1715 C1714 1.372 . S
C1715 C1716 1.400 . S
C1715 C1720 1.490 . S
C1716 H1706 0.930 . S
C1716 C1715 1.400 . S
C1716 C1719 1.386 . S
H1717 C1733 0.930 . S
H1718 C1734 0.931 . S
C1719 H1707 0.929 . S
C1719 C1713 1.390 . S
C1719 C1716 1.386 . S
C1720 C1715 1.490 . S
C1720 C1722 1.395 . S
C1720 C1723 1.403 . S
H1721 C1727 0.930 . S
C1722 H1708 0.930 . S
C1722 C1720 1.395 . S
C1722 C1725 1.403 . S
C1723 C1720 1.403 . S
C1723 C1724 1.524 . S
C1723 C1727 1.400 . S
C1724 H1709 0.960 . S
C1724 H1710 0.960 . S
C1724 H1711 0.960 . S
C1724 C1723 1.524 . S
C1725 C1722 1.403 . S
C1725 C1726 1.392 . S
C1725 C1729 1.495 . S
C1726 C1725 1.392 . S
C1726 C1727 1.385 . S
C1726 C1728 1.478 . S
C1727 H1721 0.930 . S
C1727 C1723 1.400 . S
C1727 C1726 1.385 . S
C1728 C1726 1.478 . S
C1728 C1730 1.381 . S
C1728 C1734 1.383 . S
C1729 C1725 1.495 . S
C1729 H1735 0.959 . S
C1729 H1736 0.961 . S
C1729 H1737 0.960 . S
C1730 C1728 1.381 . S
C1730 C1731 1.394 . S
C1730 H1738 0.930 . S
C1731 C1730 1.394 . S
C1731 C1732 1.383 . S
C1731 H1739 0.929 . S
C1732 C1731 1.383 . S
C1732 C1733 1.377 . S
C1733 H1717 0.930 . S
C1733 C1732 1.377 . S
C1733 C1734 1.379 . S
C1734 H1718 0.931 . S
C1734 C1728 1.383 . S
C1734 C1733 1.379 . S
H1735 C1729 0.959 . S
H1736 C1729 0.961 . S
H1737 C1729 0.960 . S
H1738 C1730 0.930 . S
H1739 C1731 0.929 . S
H1740 C1748 0.929 . S
H1741 C1750 0.930 . S
H1742 C1752 0.930 . S
H1743 C1755 0.929 . S
H1744 C1758 0.930 . S
H1745 C1760 0.960 . S
H1746 C1760 0.960 . S
H1747 C1760 0.960 . S
C1748 H1740 0.929 . S
C1748 C1749 1.377 . S
C1748 C1750 1.384 . S
C1749 C1748 1.377 . S
C1749 C1755 1.390 . S
C1750 H1741 0.930 . S
C1750 C1748 1.384 . S
C1750 C1751 1.372 . S
C1751 C1750 1.372 . S
C1751 C1752 1.400 . S
C1751 C1756 1.490 . S
C1752 H1742 0.930 . S
C1752 C1751 1.400 . S
C1752 C1755 1.386 . S
H1753 C1769 0.930 . S
H1754 C1770 0.931 . S
C1755 H1743 0.929 . S
C1755 C1749 1.390 . S
C1755 C1752 1.386 . S
C1756 C1751 1.490 . S
C1756 C1758 1.395 . S
C1756 C1759 1.403 . S
H1757 C1763 0.930 . S
C1758 H1744 0.930 . S
C1758 C1756 1.395 . S
C1758 C1761 1.403 . S
C1759 C1756 1.403 . S
C1759 C1760 1.524 . S
C1759 C1763 1.400 . S
C1760 H1745 0.960 . S
C1760 H1746 0.960 . S
C1760 H1747 0.960 . S
C1760 C1759 1.524 . S
C1761 C1758 1.403 . S
C1761 C1762 1.392 . S
C1761 C1765 1.495 . S
C1762 C1761 1.392 . S
C1762 C1763 1.385 . S
C1762 C1764 1.478 . S
C1763 H1757 0.930 . S
C1763 C1759 1.400 . S
C1763 C1762 1.385 . S
C1764 C1762 1.478 . S
C1764 C1766 1.381 . S
C1764 C1770 1.383 . S
C1765 C1761 1.495 . S
C1765 H1771 0.959 . S
C1765 H1772 0.961 . S
C1765 H1773 0.960 . S
C1766 C1764 1.381 . S
C1766 C1767 1.394 . S
C1766 H1774 0.930 . S
C1767 C1766 1.394 . S
C1767 C1768 1.383 . S
C1767 H1775 0.929 . S
C1768 C1767 1.383 . S
C1768 C1769 1.377 . S
C1769 H1753 0.930 . S
C1769 C1768 1.377 . S
C1769 C1770 1.379 . S
C1770 H1754 0.931 . S
C1770 C1764 1.383 . S
C1770 C1769 1.379 . S
H1771 C1765 0.959 . S
H1772 C1765 0.961 . S
H1773 C1765 0.960 . S
H1774 C1766 0.930 . S
H1775 C1767 0.929 . S
H1776 C1784 0.929 . S
H1777 C1786 0.930 . S
H1778 C1788 0.930 . S
H1779 C1791 0.929 . S
H1780 C1794 0.930 . S
H1781 C1796 0.960 . S
H1782 C1796 0.960 . S
H1783 C1796 0.960 . S
C1784 H1776 0.929 . S
C1784 C1785 1.377 . S
C1784 C1786 1.384 . S
C1785 C1784 1.377 . S
C1785 C1791 1.390 . S
C1786 H1777 0.930 . S
C1786 C1784 1.384 . S
C1786 C1787 1.372 . S
C1787 C1786 1.372 . S
C1787 C1788 1.400 . S
C1787 C1792 1.490 . S
C1788 H1778 0.930 . S
C1788 C1787 1.400 . S
C1788 C1791 1.386 . S
H1789 C1805 0.930 . S
H1790 C1806 0.931 . S
C1791 H1779 0.929 . S
C1791 C1785 1.390 . S
C1791 C1788 1.386 . S
C1792 C1787 1.490 . S
C1792 C1794 1.395 . S
C1792 C1795 1.403 . S
H1793 C1799 0.930 . S
C1794 H1780 0.930 . S
C1794 C1792 1.395 . S
C1794 C1797 1.403 . S
C1795 C1792 1.403 . S
C1795 C1796 1.524 . S
C1795 C1799 1.400 . S
C1796 H1781 0.960 . S
C1796 H1782 0.960 . S
C1796 H1783 0.960 . S
C1796 C1795 1.524 . S
C1797 C1794 1.403 . S
C1797 C1798 1.392 . S
C1797 C1801 1.495 . S
C1798 C1797 1.392 . S
C1798 C1799 1.385 . S
C1798 C1800 1.478 . S
C1799 H1793 0.930 . S
C1799 C1795 1.400 . S
C1799 C1798 1.385 . S
C1800 C1798 1.478 . S
C1800 C1802 1.381 . S
C1800 C1806 1.383 . S
C1801 C1797 1.495 . S
C1801 H1807 0.959 . S
C1801 H1808 0.961 . S
C1801 H1809 0.960 . S
C1802 C1800 1.381 . S
C1802 C1803 1.394 . S
C1802 H1810 0.930 . S
C1803 C1802 1.394 . S
C1803 C1804 1.383 . S
C1803 H1811 0.929 . S
C1804 C1803 1.383 . S
C1804 C1805 1.377 . S
C1805 H1789 0.930 . S
C1805 C1804 1.377 . S
C1805 C1806 1.379 . S
C1806 H1790 0.931 . S
C1806 C1800 1.383 . S
C1806 C1805 1.379 . S
H1807 C1801 0.959 . S
H1808 C1801 0.961 . S
H1809 C1801 0.960 . S
H1810 C1802 0.930 . S
H1811 C1803 0.929 . S
H1812 C1820 0.929 . S
H1813 C1822 0.930 . S
H1814 C1824 0.930 . S
H1815 C1827 0.929 . S
H1816 C1830 0.930 . S
H1817 C1832 0.960 . S
H1818 C1832 0.960 . S
H1819 C1832 0.960 . S
C1820 H1812 0.929 . S
C1820 C1821 1.377 . S
C1820 C1822 1.384 . S
C1821 C1820 1.377 . S
C1821 C1827 1.390 . S
C1822 H1813 0.930 . S
C1822 C1820 1.384 . S
C1822 C1823 1.372 . S
C1823 C1822 1.372 . S
C1823 C1824 1.400 . S
C1823 C1828 1.490 . S
C1824 H1814 0.930 . S
C1824 C1823 1.400 . S
C1824 C1827 1.386 . S
H1825 C1841 0.930 . S
H1826 C1842 0.931 . S
C1827 H1815 0.929 . S
C1827 C1821 1.390 . S
C1827 C1824 1.386 . S
C1828 C1823 1.490 . S
C1828 C1830 1.395 . S
C1828 C1831 1.403 . S
H1829 C1835 0.930 . S
C1830 H1816 0.930 . S
C1830 C1828 1.395 . S
C1830 C1833 1.403 . S
C1831 C1828 1.403 . S
C1831 C1832 1.524 . S
C1831 C1835 1.400 . S
C1832 H1817 0.960 . S
C1832 H1818 0.960 . S
C1832 H1819 0.960 . S
C1832 C1831 1.524 . S
C1833 C1830 1.403 . S
C1833 C1834 1.392 . S
C1833 C1837 1.495 . S
C1834 C1833 1.392 . S
C1834 C1835 1.385 . S
C1834 C1836 1.478 . S
C1835 H1829 0.930 . S
C1835 C1831 1.400 . S
C1835 C1834 1.385 . S
C1836 C1834 1.478 . S
C1836 C1838 1.381 . S
C1836 C1842 1.383 . S
C1837 C1833 1.495 . S
C1837 H1843 0.959 . S
C1837 H1844 0.961 . S
C1837 H1845 0.960 . S
C1838 C1836 1.381 . S
C1838 C1839 1.394 . S
C1838 H1846 0.930 . S
C1839 C1838 1.394 . S
C1839 C1840 1.383 . S
C1839 H1847 0.929 . S
C1840 C1839 1.383 . S
C1840 C1841 1.377 . S
C1841 H1825 0.930 . S
C1841 C1840 1.377 . S
C1841 C1842 1.379 . S
C1842 H1826 0.931 . S
C1842 C1836 1.383 . S
C1842 C1841 1.379 . S
H1843 C1837 0.959 . S
H1844 C1837 0.961 . S
H1845 C1837 0.960 . S
H1846 C1838 0.930 . S
H1847 C1839 0.929 . S
H1848 C1856 0.929 . S
H1849 C1858 0.930 . S
H1850 C1860 0.930 . S
H1851 C1863 0.929 . S
H1852 C1866 0.930 . S
H1853 C1868 0.960 . S
H1854 C1868 0.960 . S
H1855 C1868 0.960 . S
C1856 H1848 0.929 . S
C1856 C1857 1.377 . S
C1856 C1858 1.384 . S
C1857 C1856 1.377 . S
C1857 C1863 1.390 . S
C1858 H1849 0.930 . S
C1858 C1856 1.384 . S
C1858 C1859 1.372 . S
C1859 C1858 1.372 . S
C1859 C1860 1.400 . S
C1859 C1864 1.490 . S
C1860 H1850 0.930 . S
C1860 C1859 1.400 . S
C1860 C1863 1.386 . S
H1861 C1877 0.930 . S
H1862 C1878 0.931 . S
C1863 H1851 0.929 . S
C1863 C1857 1.390 . S
C1863 C1860 1.386 . S
C1864 C1859 1.490 . S
C1864 C1866 1.395 . S
C1864 C1867 1.403 . S
H1865 C1871 0.930 . S
C1866 H1852 0.930 . S
C1866 C1864 1.395 . S
C1866 C1869 1.403 . S
C1867 C1864 1.403 . S
C1867 C1868 1.524 . S
C1867 C1871 1.400 . S
C1868 H1853 0.960 . S
C1868 H1854 0.960 . S
C1868 H1855 0.960 . S
C1868 C1867 1.524 . S
C1869 C1866 1.403 . S
C1869 C1870 1.392 . S
C1869 C1873 1.495 . S
C1870 C1869 1.392 . S
C1870 C1871 1.385 . S
C1870 C1872 1.478 . S
C1871 H1865 0.930 . S
C1871 C1867 1.400 . S
C1871 C1870 1.385 . S
C1872 C1870 1.478 . S
C1872 C1874 1.381 . S
C1872 C1878 1.383 . S
C1873 C1869 1.495 . S
C1873 H1879 0.959 . S
C1873 H1880 0.961 . S
C1873 H1881 0.960 . S
C1874 C1872 1.381 . S
C1874 C1875 1.394 . S
C1874 H1882 0.930 . S
C1875 C1874 1.394 . S
C1875 C1876 1.383 . S
C1875 H1883 0.929 . S
C1876 C1875 1.383 . S
C1876 C1877 1.377 . S
C1877 H1861 0.930 . S
C1877 C1876 1.377 . S
C1877 C1878 1.379 . S
C1878 H1862 0.931 . S
C1878 C1872 1.383 . S
C1878 C1877 1.379 . S
H1879 C1873 0.959 . S
H1880 C1873 0.961 . S
H1881 C1873 0.960 . S
H1882 C1874 0.930 . S
H1883 C1875 0.929 . S
H1884 C1892 0.929 . S
H1885 C1894 0.930 . S
H1886 C1896 0.930 . S
H1887 C1899 0.929 . S
H1888 C1902 0.930 . S
H1889 C1904 0.960 . S
H1890 C1904 0.960 . S
H1891 C1904 0.960 . S
C1892 H1884 0.929 . S
C1892 C1893 1.377 . S
C1892 C1894 1.384 . S
C1893 C1892 1.377 . S
C1893 C1899 1.390 . S
C1894 H1885 0.930 . S
C1894 C1892 1.384 . S
C1894 C1895 1.372 . S
C1895 C1894 1.372 . S
C1895 C1896 1.400 . S
C1895 C1900 1.490 . S
C1896 H1886 0.930 . S
C1896 C1895 1.400 . S
C1896 C1899 1.386 . S
H1897 C1913 0.930 . S
H1898 C1914 0.931 . S
C1899 H1887 0.929 . S
C1899 C1893 1.390 . S
C1899 C1896 1.386 . S
C1900 C1895 1.490 . S
C1900 C1902 1.395 . S
C1900 C1903 1.403 . S
H1901 C1907 0.930 . S
C1902 H1888 0.930 . S
C1902 C1900 1.395 . S
C1902 C1905 1.403 . S
C1903 C1900 1.403 . S
C1903 C1904 1.524 . S
C1903 C1907 1.400 . S
C1904 H1889 0.960 . S
C1904 H1890 0.960 . S
C1904 H1891 0.960 . S
C1904 C1903 1.524 . S
C1905 C1902 1.403 . S
C1905 C1906 1.392 . S
C1905 C1909 1.495 . S
C1906 C1905 1.392 . S
C1906 C1907 1.385 . S
C1906 C1908 1.478 . S
C1907 H1901 0.930 . S
C1907 C1903 1.400 . S
C1907 C1906 1.385 . S
C1908 C1906 1.478 . S
C1908 C1910 1.381 . S
C1908 C1914 1.383 . S
C1909 C1905 1.495 . S
C1909 H1915 0.959 . S
C1909 H1916 0.961 . S
C1909 H1917 0.960 . S
C1910 C1908 1.381 . S
C1910 C1911 1.394 . S
C1910 H1918 0.930 . S
C1911 C1910 1.394 . S
C1911 C1912 1.383 . S
C1911 H1919 0.929 . S
C1912 C1911 1.383 . S
C1912 C1913 1.377 . S
C1913 H1897 0.930 . S
C1913 C1912 1.377 . S
C1913 C1914 1.379 . S
C1914 H1898 0.931 . S
C1914 C1908 1.383 . S
C1914 C1913 1.379 . S
H1915 C1909 0.959 . S
H1916 C1909 0.961 . S
H1917 C1909 0.960 . S
H1918 C1910 0.930 . S
H1919 C1911 0.929 . S
C1065 C20 1.290 . S
C1084 C585 1.268 . S
C1101 C108 1.290 . S
C1120 C665 1.267 . S
C1137 C205 1.291 . S
C1156 C753 1.309 . S
C1173 C841 1.296 . S
C1192 C293 1.292 . S
C1209 C381 1.291 . S
C1228 C937 1.275 . S
C1245 C1017 1.284 . S
C1264 C460 1.269 . S
C1281 C49 0.304 . S
C1300 C812 0.241 . S
C1317 C137 0.304 . S
C1336 C909 0.258 . S
C1353 C988 0.277 . S
C1372 C233 0.344 . S
C1389 C557 0.273 . S
C1408 C321 0.299 . S
C1425 C409 0.291 . S
C1444 C636 0.346 . S
C1461 C489 0.277 . S
C1480 C724 0.328 . S
C1497 C997 2.285 . S
C1516 C57 2.272 . S
C1533 C145 2.331 . S
C1552 C548 2.334 . S
C1569 C225 2.284 . S
C1588 C645 2.266 . S
C1605 C733 2.286 . S
C1624 C313 2.279 . S
C1641 C821 2.328 . S
C1660 C401 2.318 . S
C1677 C497 2.287 . S
C1696 C900 2.281 . S
C1713 C29 0.705 . S
C1732 C929 0.770 . S
C1749 C1025 0.666 . S
C1768 C117 0.582 . S
C1785 C577 0.696 . S
C1804 C196 0.756 . S
C1821 C284 0.690 . S
C1840 C673 0.630 . S
C1857 C761 0.655 . S
C1876 C372 0.608 . S
C1893 C849 0.660 . S
C1912 C469 0.583 . S
