# Generated by pormake.
# Topology unl, (4)-cn, num edge types: 1
# Building blocks:
#     Node 0, Type 0, BuildingBlock: NAHDIM_clean_sbu_0, # of connection points: 4
#     Node 1, Type 0, BuildingBlock: NAHDIM_clean_sbu_0, # of connection points: 4
#     Node 2, Type 0, BuildingBlock: NAHDIM_clean_sbu_0, # of connection points: 4
#     Node 3, Type 0, BuildingBlock: NAHDIM_clean_sbu_0, # of connection points: 4
#     Node 4, Type 0, BuildingBlock: NAHDIM_clean_sbu_0, # of connection points: 4
#     Node 5, Type 0, BuildingBlock: NAHDIM_clean_sbu_0, # of connection points: 4
#     Node 6, Type 0, BuildingBlock: NAHDIM_clean_sbu_0, # of connection points: 4
#     Node 7, Type 0, BuildingBlock: NAHDIM_clean_sbu_0, # of connection points: 4
#     Node 8, Type 0, BuildingBlock: NAHDIM_clean_sbu_0, # of connection points: 4
#     Node 9, Type 0, BuildingBlock: NAHDIM_clean_sbu_0, # of connection points: 4
#     Node 10, Type 0, BuildingBlock: NAHDIM_clean_sbu_0, # of connection points: 4
#     Node 11, Type 0, BuildingBlock: NAHDIM_clean_sbu_0, # of connection points: 4
#     Node 12, Type 0, BuildingBlock: NAHDIM_clean_sbu_0, # of connection points: 4
#     Node 13, Type 0, BuildingBlock: NAHDIM_clean_sbu_0, # of connection points: 4
#     Node 14, Type 0, BuildingBlock: NAHDIM_clean_sbu_0, # of connection points: 4
#     Node 15, Type 0, BuildingBlock: NAHDIM_clean_sbu_0, # of connection points: 4
#     Node 16, Type 0, BuildingBlock: NAHDIM_clean_sbu_0, # of connection points: 4
#     Node 17, Type 0, BuildingBlock: NAHDIM_clean_sbu_0, # of connection points: 4
#     Node 18, Type 0, BuildingBlock: NAHDIM_clean_sbu_0, # of connection points: 4
#     Node 19, Type 0, BuildingBlock: NAHDIM_clean_sbu_0, # of connection points: 4
#     Node 20, Type 0, BuildingBlock: NAHDIM_clean_sbu_0, # of connection points: 4
#     Node 21, Type 0, BuildingBlock: NAHDIM_clean_sbu_0, # of connection points: 4
#     Node 22, Type 0, BuildingBlock: NAHDIM_clean_sbu_0, # of connection points: 4
#     Node 23, Type 0, BuildingBlock: NAHDIM_clean_sbu_0, # of connection points: 4
#     Node 24, Type 0, BuildingBlock: NAHDIM_clean_sbu_0, # of connection points: 4
#     Node 25, Type 0, BuildingBlock: NAHDIM_clean_sbu_0, # of connection points: 4
#     Node 26, Type 0, BuildingBlock: NAHDIM_clean_sbu_0, # of connection points: 4
#     Node 27, Type 0, BuildingBlock: NAHDIM_clean_sbu_0, # of connection points: 4
#     Node 28, Type 0, BuildingBlock: NAHDIM_clean_sbu_0, # of connection points: 4
#     Node 29, Type 0, BuildingBlock: NAHDIM_clean_sbu_0, # of connection points: 4
#     Node 30, Type 0, BuildingBlock: NAHDIM_clean_sbu_0, # of connection points: 4
#     Node 31, Type 0, BuildingBlock: NAHDIM_clean_sbu_0, # of connection points: 4
#     Node 32, Type 0, BuildingBlock: NAHDIM_clean_sbu_0, # of connection points: 4
#     Node 33, Type 0, BuildingBlock: NAHDIM_clean_sbu_0, # of connection points: 4
#     Node 34, Type 0, BuildingBlock: NAHDIM_clean_sbu_0, # of connection points: 4
#     Node 35, Type 0, BuildingBlock: NAHDIM_clean_sbu_0, # of connection points: 4
#     Edge 36, Type (0, 0), BuildingBlock: UVAHIK_clean_linker_0, # of connection points: 2
#     Edge 37, Type (0, 0), BuildingBlock: UVAHIK_clean_linker_0, # of connection points: 2
#     Edge 38, Type (0, 0), BuildingBlock: UVAHIK_clean_linker_0, # of connection points: 2
#     Edge 39, Type (0, 0), BuildingBlock: UVAHIK_clean_linker_0, # of connection points: 2
#     Edge 40, Type (0, 0), BuildingBlock: UVAHIK_clean_linker_0, # of connection points: 2
#     Edge 41, Type (0, 0), BuildingBlock: UVAHIK_clean_linker_0, # of connection points: 2
#     Edge 42, Type (0, 0), BuildingBlock: UVAHIK_clean_linker_0, # of connection points: 2
#     Edge 43, Type (0, 0), BuildingBlock: UVAHIK_clean_linker_0, # of connection points: 2
#     Edge 44, Type (0, 0), BuildingBlock: UVAHIK_clean_linker_0, # of connection points: 2
#     Edge 45, Type (0, 0), BuildingBlock: UVAHIK_clean_linker_0, # of connection points: 2
#     Edge 46, Type (0, 0), BuildingBlock: UVAHIK_clean_linker_0, # of connection points: 2
#     Edge 47, Type (0, 0), BuildingBlock: UVAHIK_clean_linker_0, # of connection points: 2
#     Edge 48, Type (0, 0), BuildingBlock: UVAHIK_clean_linker_0, # of connection points: 2
#     Edge 49, Type (0, 0), BuildingBlock: UVAHIK_clean_linker_0, # of connection points: 2
#     Edge 50, Type (0, 0), BuildingBlock: UVAHIK_clean_linker_0, # of connection points: 2
#     Edge 51, Type (0, 0), BuildingBlock: UVAHIK_clean_linker_0, # of connection points: 2
#     Edge 52, Type (0, 0), BuildingBlock: UVAHIK_clean_linker_0, # of connection points: 2
#     Edge 53, Type (0, 0), BuildingBlock: UVAHIK_clean_linker_0, # of connection points: 2
#     Edge 54, Type (0, 0), BuildingBlock: UVAHIK_clean_linker_0, # of connection points: 2
#     Edge 55, Type (0, 0), BuildingBlock: UVAHIK_clean_linker_0, # of connection points: 2
#     Edge 56, Type (0, 0), BuildingBlock: UVAHIK_clean_linker_0, # of connection points: 2
#     Edge 57, Type (0, 0), BuildingBlock: UVAHIK_clean_linker_0, # of connection points: 2
#     Edge 58, Type (0, 0), BuildingBlock: UVAHIK_clean_linker_0, # of connection points: 2
#     Edge 59, Type (0, 0), BuildingBlock: UVAHIK_clean_linker_0, # of connection points: 2
#     Edge 60, Type (0, 0), BuildingBlock: UVAHIK_clean_linker_0, # of connection points: 2
#     Edge 61, Type (0, 0), BuildingBlock: UVAHIK_clean_linker_0, # of connection points: 2
#     Edge 62, Type (0, 0), BuildingBlock: UVAHIK_clean_linker_0, # of connection points: 2
#     Edge 63, Type (0, 0), BuildingBlock: UVAHIK_clean_linker_0, # of connection points: 2
#     Edge 64, Type (0, 0), BuildingBlock: UVAHIK_clean_linker_0, # of connection points: 2
#     Edge 65, Type (0, 0), BuildingBlock: UVAHIK_clean_linker_0, # of connection points: 2
#     Edge 66, Type (0, 0), BuildingBlock: UVAHIK_clean_linker_0, # of connection points: 2
#     Edge 67, Type (0, 0), BuildingBlock: UVAHIK_clean_linker_0, # of connection points: 2
#     Edge 68, Type (0, 0), BuildingBlock: UVAHIK_clean_linker_0, # of connection points: 2
#     Edge 69, Type (0, 0), BuildingBlock: UVAHIK_clean_linker_0, # of connection points: 2
#     Edge 70, Type (0, 0), BuildingBlock: UVAHIK_clean_linker_0, # of connection points: 2
#     Edge 71, Type (0, 0), BuildingBlock: UVAHIK_clean_linker_0, # of connection points: 2
#     Edge 72, Type (0, 0), BuildingBlock: UVAHIK_clean_linker_0, # of connection points: 2
#     Edge 73, Type (0, 0), BuildingBlock: UVAHIK_clean_linker_0, # of connection points: 2
#     Edge 74, Type (0, 0), BuildingBlock: UVAHIK_clean_linker_0, # of connection points: 2
#     Edge 75, Type (0, 0), BuildingBlock: UVAHIK_clean_linker_0, # of connection points: 2
#     Edge 76, Type (0, 0), BuildingBlock: UVAHIK_clean_linker_0, # of connection points: 2
#     Edge 77, Type (0, 0), BuildingBlock: UVAHIK_clean_linker_0, # of connection points: 2
#     Edge 78, Type (0, 0), BuildingBlock: UVAHIK_clean_linker_0, # of connection points: 2
#     Edge 79, Type (0, 0), BuildingBlock: UVAHIK_clean_linker_0, # of connection points: 2
#     Edge 80, Type (0, 0), BuildingBlock: UVAHIK_clean_linker_0, # of connection points: 2
#     Edge 81, Type (0, 0), BuildingBlock: UVAHIK_clean_linker_0, # of connection points: 2
#     Edge 82, Type (0, 0), BuildingBlock: UVAHIK_clean_linker_0, # of connection points: 2
#     Edge 83, Type (0, 0), BuildingBlock: UVAHIK_clean_linker_0, # of connection points: 2
#     Edge 84, Type (0, 0), BuildingBlock: UVAHIK_clean_linker_0, # of connection points: 2
#     Edge 85, Type (0, 0), BuildingBlock: UVAHIK_clean_linker_0, # of connection points: 2
#     Edge 86, Type (0, 0), BuildingBlock: UVAHIK_clean_linker_0, # of connection points: 2
#     Edge 87, Type (0, 0), BuildingBlock: UVAHIK_clean_linker_0, # of connection points: 2
#     Edge 88, Type (0, 0), BuildingBlock: UVAHIK_clean_linker_0, # of connection points: 2
#     Edge 89, Type (0, 0), BuildingBlock: UVAHIK_clean_linker_0, # of connection points: 2
#     Edge 90, Type (0, 0), BuildingBlock: UVAHIK_clean_linker_0, # of connection points: 2
#     Edge 91, Type (0, 0), BuildingBlock: UVAHIK_clean_linker_0, # of connection points: 2
#     Edge 92, Type (0, 0), BuildingBlock: UVAHIK_clean_linker_0, # of connection points: 2
#     Edge 93, Type (0, 0), BuildingBlock: UVAHIK_clean_linker_0, # of connection points: 2
#     Edge 94, Type (0, 0), BuildingBlock: UVAHIK_clean_linker_0, # of connection points: 2
#     Edge 95, Type (0, 0), BuildingBlock: UVAHIK_clean_linker_0, # of connection points: 2
#     Edge 96, Type (0, 0), BuildingBlock: UVAHIK_clean_linker_0, # of connection points: 2
#     Edge 97, Type (0, 0), BuildingBlock: UVAHIK_clean_linker_0, # of connection points: 2
#     Edge 98, Type (0, 0), BuildingBlock: UVAHIK_clean_linker_0, # of connection points: 2
#     Edge 99, Type (0, 0), BuildingBlock: UVAHIK_clean_linker_0, # of connection points: 2
#     Edge 100, Type (0, 0), BuildingBlock: UVAHIK_clean_linker_0, # of connection points: 2
#     Edge 101, Type (0, 0), BuildingBlock: UVAHIK_clean_linker_0, # of connection points: 2
#     Edge 102, Type (0, 0), BuildingBlock: UVAHIK_clean_linker_0, # of connection points: 2
#     Edge 103, Type (0, 0), BuildingBlock: UVAHIK_clean_linker_0, # of connection points: 2
#     Edge 104, Type (0, 0), BuildingBlock: UVAHIK_clean_linker_0, # of connection points: 2
#     Edge 105, Type (0, 0), BuildingBlock: UVAHIK_clean_linker_0, # of connection points: 2
#     Edge 106, Type (0, 0), BuildingBlock: UVAHIK_clean_linker_0, # of connection points: 2
#     Edge 107, Type (0, 0), BuildingBlock: UVAHIK_clean_linker_0, # of connection points: 2
# Relax obj value: 0.184
# Max RMSD: 0.223
# Mean RMSD: 0.223
data_MOF--net-unl--node1-NAHDIM_clean_sbu_0--edge1-UVAHIK_clean_linker_0
_symmetry_space_group_name_H-M    P1
_symmetry_Int_Tables_number       1
_symmetry_cell_setting            triclinic
loop_
_symmetry_equiv_pos_as_xyz
'x, y, z'
_cell_length_a     82.724017
_cell_length_b     82.706223
_cell_length_c     50.595163
_cell_angle_alpha  89.999033
_cell_angle_beta   89.986029
_cell_angle_gamma 119.99677
loop_
_atom_site_label
_atom_site_type_symbol
_atom_site_fract_x
_atom_site_fract_y
_atom_site_fract_z
_atom_type_partial_charge
C0 C 0.22912 0.10813 0.13868 0.0
O1 O 0.21822 0.09247 0.15125 0.0
O2 O 0.18748 0.07394 0.10197 0.0
Zn3 Zn 0.19476 0.09994 0.11339 0.0
O4 O 0.18015 0.10013 0.145 0.0
C5 C 0.19121 0.10831 0.05931 0.0
O6 O 0.19552 0.09527 0.05482 0.0
O7 O 0.22206 0.11405 0.12163 0.0
C8 C 0.16279 0.09439 0.14329 0.0
O9 O 0.15422 0.08761 0.1207 0.0
C10 C 0.17719 0.05873 0.1141 0.0
O11 O 0.1703 0.05905 0.13736 0.0
O12 O 0.19009 0.11276 0.08302 0.0
C13 C 0.87185 0.11571 0.12181 0.0
O14 O 0.8758 0.11601 0.0966 0.0
O15 O 0.91818 0.11602 0.11562 0.0
Zn16 Zn 0.8921 0.09606 0.12497 0.0
O17 O 0.89214 0.0787 0.15299 0.0
C18 C 0.88637 0.08727 0.06902 0.0
O19 O 0.90138 0.10378 0.06661 0.0
O20 O 0.87756 0.10796 0.13808 0.0
C21 C 0.89117 0.06336 0.14664 0.0
O22 O 0.8907 0.05915 0.12152 0.0
C23 C 0.93236 0.11404 0.1184 0.0
O24 O 0.93038 0.0989 0.12983 0.0
O25 O 0.87976 0.08124 0.09193 0.0
C26 C 0.8811 0.77241 0.15967 0.0
O27 O 0.88847 0.78472 0.17881 0.0
O28 O 0.88176 0.8155 0.11639 0.0
Zn29 Zn 0.89851 0.80523 0.12629 0.0
O30 O 0.9155 0.81939 0.15655 0.0
C31 C 0.91085 0.81045 0.07157 0.0
O32 O 0.89581 0.81165 0.06734 0.0
O33 O 0.88345 0.778 0.13585 0.0
C34 C 0.9292 0.83589 0.1541 0.0
O35 O 0.93193 0.84453 0.13133 0.0
C36 C 0.86461 0.8047 0.11107 0.0
O37 O 0.85739 0.78662 0.11421 0.0
O38 O 0.9146 0.80766 0.09492 0.0
C39 C 0.10828 0.23192 0.37677 0.0
O40 O 0.09888 0.22735 0.39907 0.0
O41 O 0.06878 0.185 0.38462 0.0
Zn42 Zn 0.09517 0.19257 0.37488 0.0
O43 O 0.09626 0.17662 0.34575 0.0
C44 C 0.10167 0.18974 0.43032 0.0
O45 O 0.08688 0.19159 0.43303 0.0
O46 O 0.10862 0.21926 0.36298 0.0
C47 C 0.09383 0.16042 0.35016 0.0
O48 O 0.08981 0.15361 0.37425 0.0
C49 C 0.05392 0.17158 0.37506 0.0
O50 O 0.05499 0.16157 0.35572 0.0
O51 O 0.10793 0.18999 0.40727 0.0
C52 C 0.76397 0.87452 0.38145 0.0
O53 O 0.76757 0.8721 0.40596 0.0
O54 O 0.81028 0.87949 0.39321 0.0
Zn55 Zn 0.80366 0.89829 0.38003 0.0
O56 O 0.82092 0.91465 0.35116 0.0
C57 C 0.79526 0.92134 0.41505 0.0
O58 O 0.78249 0.9187 0.39747 0.0
O59 O 0.7774 0.88512 0.36634 0.0
C60 C 0.83401 0.93115 0.35598 0.0
O61 O 0.83694 0.93725 0.38046 0.0
C62 C 0.82233 0.87595 0.38353 0.0
O63 O 0.83146 0.88469 0.36206 0.0
O64 O 0.80545 0.91406 0.41139 0.0
C65 C 0.12498 0.88838 0.36337 0.0
O66 O 0.13086 0.90485 0.3526 0.0
O67 O 0.11567 0.92183 0.39642 0.0
Zn68 Zn 0.09724 0.89543 0.38616 0.0
O69 O 0.08159 0.8939 0.35481 0.0
C70 C 0.08687 0.88794 0.44072 0.0
O71 O 0.10449 0.90066 0.44401 0.0
O72 O 0.11078 0.88157 0.37838 0.0
C73 C 0.06935 0.89886 0.35641 0.0
O74 O 0.0675 0.90591 0.37872 0.0
C75 C 0.11911 0.93685 0.38485 0.0
O76 O 0.11046 0.93607 0.36271 0.0
O77 O 0.08047 0.88322 0.41741 0.0
C78 C 0.76146 0.88769 0.87571 0.0
O79 O 0.76528 0.89608 0.8988 0.0
O80 O 0.80706 0.92931 0.88572 0.0
Zn81 Zn 0.80134 0.90387 0.87367 0.0
O82 O 0.8182 0.90485 0.84434 0.0
C83 C 0.7947 0.87449 0.91178 0.0
O84 O 0.78004 0.86377 0.89722 0.0
O85 O 0.77476 0.88919 0.86139 0.0
C86 C 0.83503 0.90922 0.84878 0.0
O87 O 0.84178 0.91416 0.87278 0.0
C88 C 0.81898 0.94489 0.87579 0.0
O89 O 0.8284 0.9452 0.8547 0.0
O90 O 0.8053 0.89143 0.90519 0.0
C91 C 0.11022 0.8747 0.84993 0.0
O92 O 0.09788 0.87328 0.83236 0.0
O93 O 0.07209 0.87837 0.88941 0.0
Zn94 Zn 0.09821 0.89723 0.87838 0.0
O95 O 0.099 0.9127 0.84713 0.0
C96 C 0.10615 0.90854 0.93284 0.0
O97 O 0.0934 0.89104 0.93705 0.0
O98 O 0.1126 0.88421 0.87074 0.0
C99 C 0.09546 0.92586 0.85038 0.0
O100 O 0.0905 0.92852 0.87394 0.0
C101 C 0.057 0.87729 0.88155 0.0
O102 O 0.05754 0.88866 0.863 0.0
O103 O 0.11057 0.91436 0.90923 0.0
C104 C 0.12311 0.23968 0.85684 0.0
O105 O 0.12866 0.22907 0.84526 0.0
O106 O 0.1147 0.19726 0.88955 0.0
Zn107 Zn 0.09586 0.20482 0.87981 0.0
O108 O 0.08046 0.19082 0.84822 0.0
C109 C 0.08053 0.19301 0.93244 0.0
O110 O 0.09406 0.18916 0.93474 0.0
O111 O 0.10919 0.23226 0.87237 0.0
C112 C 0.06781 0.17378 0.85011 0.0
O113 O 0.06548 0.16509 0.87275 0.0
C114 C 0.11783 0.18543 0.87811 0.0
O115 O 0.10868 0.17718 0.85643 0.0
O116 O 0.07864 0.19979 0.91086 0.0
C117 C 0.88724 0.76271 0.63005 0.0
O118 O 0.89686 0.76749 0.60795 0.0
O119 O 0.92659 0.80881 0.62061 0.0
Zn120 Zn 0.90063 0.80189 0.63174 0.0
O121 O 0.90058 0.81861 0.66053 0.0
C122 C 0.89267 0.80345 0.57657 0.0
O123 O 0.90686 0.80069 0.57335 0.0
O124 O 0.88692 0.77529 0.64407 0.0
C125 C 0.90515 0.83545 0.65579 0.0
O126 O 0.91072 0.84218 0.6319 0.0
C127 C 0.94201 0.82086 0.63074 0.0
O128 O 0.94205 0.83005 0.65194 0.0
O129 O 0.88735 0.80432 0.59985 0.0
C130 C 0.23313 0.1209 0.61957 0.0
O131 O 0.22856 0.12354 0.59575 0.0
O132 O 0.18587 0.11461 0.61255 0.0
Zn133 Zn 0.19365 0.09614 0.62349 0.0
O134 O 0.17786 0.07934 0.65297 0.0
C135 C 0.1906 0.08554 0.56842 0.0
O136 O 0.19185 0.10184 0.56472 0.0
O137 O 0.22038 0.10978 0.63519 0.0
C138 C 0.16174 0.06544 0.64864 0.0
O139 O 0.15486 0.06258 0.62458 0.0
C140 C 0.17229 0.11608 0.62141 0.0
O141 O 0.16215 0.10525 0.64088 0.0
O142 O 0.19124 0.08026 0.59182 0.0
C143 C 0.87884 0.11297 0.64781 0.0
O144 O 0.88151 0.10416 0.66745 0.0
O145 O 0.87994 0.07075 0.61119 0.0
Zn146 Zn 0.89807 0.098 0.61799 0.0
O147 O 0.91494 0.10163 0.64874 0.0
C148 C 0.90779 0.10249 0.56253 0.0
O149 O 0.89072 0.08841 0.55989 0.0
O150 O 0.88464 0.11215 0.62489 0.0
C151 C 0.92775 0.09744 0.64749 0.0
O152 O 0.92954 0.08968 0.62586 0.0
C153 C 0.8629 0.06503 0.60579 0.0
O154 O 0.85672 0.07688 0.60682 0.0
O155 O 0.9139 0.10892 0.58547 0.0
C156 C 0.89762 0.44083 0.46595 0.0
O157 O 0.88618 0.42699 0.48132 0.0
O158 O 0.85567 0.4051 0.42767 0.0
Zn159 Zn 0.86366 0.43146 0.43846 0.0
O160 O 0.84961 0.43282 0.47006 0.0
C161 C 0.85866 0.43901 0.38419 0.0
O162 O 0.86151 0.42504 0.37933 0.0
O163 O 0.89105 0.44519 0.44628 0.0
C164 C 0.83292 0.42951 0.46778 0.0
O165 O 0.82454 0.42418 0.44476 0.0
C166 C 0.84181 0.39026 0.43651 0.0
O167 O 0.83165 0.39132 0.45565 0.0
O168 O 0.85906 0.44423 0.40794 0.0
C169 C 0.5399 0.45209 0.44405 0.0
O170 O 0.54569 0.45396 0.41946 0.0
O171 O 0.58264 0.44854 0.43457 0.0
Zn172 Zn 0.5571 0.42947 0.44729 0.0
O173 O 0.55836 0.41387 0.47678 0.0
C174 C 0.54765 0.41702 0.39298 0.0
O175 O 0.56173 0.43369 0.38757 0.0
O176 O 0.54331 0.44223 0.45985 0.0
C177 C 0.56366 0.4021 0.47248 0.0
O178 O 0.56914 0.40078 0.44859 0.0
C179 C 0.59799 0.45338 0.44623 0.0
O180 O 0.5979 0.44598 0.46924 0.0
O181 O 0.54309 0.41236 0.41697 0.0
C182 C 0.54179 0.08487 0.46246 0.0
O183 O 0.54434 0.08909 0.4372 0.0
O184 O 0.54493 0.13543 0.46433 0.0
Zn185 Zn 0.5621 0.125 0.46912 0.0
O186 O 0.58102 0.13901 0.49733 0.0
C187 C 0.57793 0.14068 0.41847 0.0
O188 O 0.571 0.1515 0.4242 0.0
O189 O 0.54794 0.09792 0.47945 0.0
C190 C 0.5891 0.15662 0.49996 0.0
O191 O 0.5847 0.16636 0.48399 0.0
C192 C 0.5278 0.12546 0.45829 0.0
O193 O 0.52028 0.10723 0.45735 0.0
O194 O 0.57585 0.12811 0.43483 0.0
C195 C 0.77742 0.56875 0.70128 0.0
O196 O 0.76899 0.56363 0.72431 0.0
O197 O 0.73643 0.52291 0.7072 0.0
Zn198 Zn 0.76237 0.52946 0.69626 0.0
O199 O 0.76311 0.51393 0.66615 0.0
C200 C 0.76675 0.51577 0.7469 0.0
O201 O 0.74843 0.50614 0.74621 0.0
O202 O 0.77637 0.55633 0.68548 0.0
C203 C 0.76049 0.49755 0.66934 0.0
O204 O 0.7559 0.4898 0.69285 0.0
C205 C 0.72129 0.5084 0.70073 0.0
O206 O 0.72173 0.49635 0.68427 0.0
O207 O 0.77559 0.52648 0.7277 0.0
C208 C 0.4259 0.20917 0.69871 0.0
O209 O 0.43042 0.20748 0.72303 0.0
O210 O 0.47209 0.21371 0.70758 0.0
Zn211 Zn 0.4653 0.23253 0.69484 0.0
O212 O 0.48187 0.24864 0.6654 0.0
C213 C 0.47764 0.25065 0.74544 0.0
O214 O 0.48714 0.24182 0.74547 0.0
O215 O 0.43875 0.21927 0.68248 0.0
C216 C 0.49871 0.26124 0.66936 0.0
O217 O 0.50587 0.26323 0.69313 0.0
C218 C 0.48457 0.21065 0.69827 0.0
O219 O 0.49391 0.2197 0.6771 0.0
O220 O 0.46739 0.24892 0.72568 0.0
C221 C 0.7878 0.22042 0.6899 0.0
O222 O 0.78425 0.22838 0.67 0.0
O223 O 0.78422 0.26226 0.72056 0.0
Zn224 Zn 0.7676 0.23443 0.71925 0.0
O225 O 0.7478 0.22688 0.69145 0.0
C226 C 0.74308 0.2093 0.75875 0.0
O227 O 0.73957 0.19697 0.74002 0.0
O228 O 0.78218 0.22142 0.71287 0.0
C229 C 0.74226 0.23772 0.68283 0.0
O230 O 0.7501 0.25493 0.69171 0.0
C231 C 0.80176 0.27017 0.72401 0.0
O232 O 0.80978 0.25992 0.72506 0.0
O233 O 0.75487 0.22635 0.75442 0.0
C234 C 0.42597 0.21247 0.19444 0.0
O235 O 0.43732 0.22762 0.18118 0.0
O236 O 0.46673 0.24715 0.23423 0.0
Zn237 Zn 0.4593 0.22088 0.22379 0.0
O238 O 0.47487 0.219 0.1947 0.0
C239 C 0.47508 0.21689 0.27216 0.0
O240 O 0.48736 0.23448 0.26754 0.0
O241 O 0.43238 0.20713 0.21321 0.0
C242 C 0.49198 0.23044 0.19 0.0
O243 O 0.50096 0.24565 0.20433 0.0
C244 C 0.47323 0.26184 0.22023 0.0
O245 O 0.47599 0.26102 0.19481 0.0
O246 O 0.46181 0.20808 0.25589 0.0
C247 C 0.7685 0.20375 0.2071 0.0
O248 O 0.76807 0.20764 0.23218 0.0
O249 O 0.72331 0.21037 0.21058 0.0
Zn250 Zn 0.75056 0.2257 0.20095 0.0
O251 O 0.75421 0.24355 0.17153 0.0
C252 C 0.75786 0.23901 0.25545 0.0
O253 O 0.74065 0.22557 0.25955 0.0
O254 O 0.76143 0.20969 0.19003 0.0
C255 C 0.75125 0.25699 0.17591 0.0
O256 O 0.74491 0.25826 0.19919 0.0
C257 C 0.71592 0.19364 0.21882 0.0
O258 O 0.72594 0.18536 0.21921 0.0
O259 O 0.76484 0.24135 0.23241 0.0
C260 C 0.7845 0.57563 0.21746 0.0
O261 O 0.78564 0.56981 0.24118 0.0
O262 O 0.7784 0.52831 0.22084 0.0
Zn263 Zn 0.76027 0.53663 0.2104 0.0
O264 O 0.74357 0.52119 0.18059 0.0
C265 C 0.74873 0.53201 0.26531 0.0
O266 O 0.76479 0.5328 0.26928 0.0
O267 O 0.77434 0.56371 0.20018 0.0
C268 C 0.73023 0.50482 0.1854 0.0
O269 O 0.72824 0.49813 0.20948 0.0
C270 C 0.78102 0.51613 0.20943 0.0
O271 O 0.77172 0.50806 0.18777 0.0
O272 O 0.74403 0.53355 0.24192 0.0
C273 C 0.55188 0.10113 0.97269 0.0
O274 O 0.56788 0.11113 0.98496 0.0
O275 O 0.58774 0.14347 0.94204 0.0
Zn276 Zn 0.5613 0.13669 0.95043 0.0
O277 O 0.55921 0.15016 0.98219 0.0
C278 C 0.55579 0.14124 0.89555 0.0
O279 O 0.56854 0.13634 0.89267 0.0
O280 O 0.54621 0.10917 0.9569 0.0
C281 C 0.56375 0.16729 0.98179 0.0
O282 O 0.57089 0.17706 0.96012 0.0
C283 C 0.60268 0.15708 0.95112 0.0
O284 O 0.60173 0.16811 0.96895 0.0
O285 O 0.55049 0.14247 0.91868 0.0
C286 C 0.89345 0.45353 0.98607 0.0
O287 O 0.88141 0.45128 0.00467 0.0
O288 O 0.84983 0.44743 0.94484 0.0
Zn289 Zn 0.86085 0.43107 0.95228 0.0
O290 O 0.84587 0.41096 0.9788 0.0
C291 C 0.84869 0.41484 0.90049 0.0
O292 O 0.83548 0.41896 0.90451 0.0
O293 O 0.88756 0.44628 0.96348 0.0
C294 C 0.83607 0.41219 0.99717 0.0
O295 O 0.83552 0.4277 -7e-05 0.0
C296 C 0.85997 0.46282 0.933 0.0
O297 O 0.87754 0.46807 0.92833 0.0
O298 O 0.86091 0.41862 0.91827 0.0
C299 C 0.55745 0.45562 0.97307 0.0
O300 O 0.57399 0.46196 0.98384 0.0
O301 O 0.5491 0.4026 0.93991 0.0
Zn302 Zn 0.56626 0.43006 0.94566 0.0
O303 O 0.58637 0.43513 0.97214 0.0
C304 C 0.58995 0.45739 0.90643 0.0
O305 O 0.59439 0.46942 0.92585 0.0
O306 O 0.55152 0.44223 0.95666 0.0
C307 C 0.58359 0.426 0.99347 0.0
O308 O 0.56676 0.41219 0.99881 0.0
C309 C 0.53349 0.39766 0.92892 0.0
O310 O 0.5288 0.41038 0.92412 0.0
O311 O 0.5783 0.44028 0.91057 0.0
C312 C 0.57113 0.77238 0.79043 0.0
O313 O 0.56725 0.76447 0.767 0.0
O314 O 0.52404 0.73038 0.78296 0.0
Zn315 Zn 0.53123 0.75667 0.79307 0.0
O316 O 0.51524 0.75788 0.82217 0.0
C317 C 0.52821 0.76334 0.73758 0.0
O318 O 0.5301 0.7486 0.73446 0.0
O319 O 0.55788 0.77065 0.80508 0.0
C320 C 0.50002 0.75761 0.81736 0.0
O321 O 0.49391 0.75528 0.79291 0.0
C322 C 0.50769 0.71645 0.78535 0.0
O323 O 0.49483 0.71859 0.79743 0.0
O324 O 0.52855 0.76944 0.76077 0.0
C325 C 0.2161 0.78135 0.81371 0.0
O326 O 0.22769 0.78196 0.83197 0.0
O327 O 0.25528 0.77691 0.77674 0.0
Zn328 Zn 0.22831 0.75886 0.78562 0.0
O329 O 0.22595 0.743 0.81717 0.0
C330 C 0.22112 0.74793 0.73073 0.0
O331 O 0.23419 0.76533 0.72674 0.0
O332 O 0.21424 0.77237 0.79251 0.0
C333 C 0.22918 0.72955 0.81513 0.0
O334 O 0.23491 0.72661 0.79235 0.0
C335 C 0.26054 0.79355 0.7695 0.0
O336 O 0.24842 0.7994 0.76958 0.0
O337 O 0.21635 0.74207 0.75427 0.0
C338 C 0.21847 0.43808 0.81222 0.0
O339 O 0.21259 0.44855 0.8234 0.0
O340 O 0.22281 0.47803 0.77754 0.0
Zn341 Zn 0.24319 0.47238 0.78575 0.0
O342 O 0.26011 0.48839 0.81512 0.0
C343 C 0.25567 0.46438 0.73629 0.0
O344 O 0.24367 0.44692 0.7422 0.0
O345 O 0.23173 0.4454 0.79561 0.0
C346 C 0.27664 0.49109 0.81553 0.0
O347 O 0.28185 0.48359 0.7969 0.0
C348 C 0.221 0.49127 0.78693 0.0
O349 O 0.23281 0.50234 0.80491 0.0
O350 O 0.25791 0.47727 0.75212 0.0
C351 C 0.44411 0.9027 0.01531 0.0
O352 O 0.42768 0.89228 0.00435 0.0
O353 O 0.41055 0.86018 0.05003 0.0
Zn354 Zn 0.43685 0.86799 0.03948 0.0
O355 O 0.43838 0.85321 0.00904 0.0
C356 C 0.44567 0.86778 0.09406 0.0
O357 O 0.43347 0.87342 0.09675 0.0
O358 O 0.45062 0.8952 0.03065 0.0
C359 C 0.43243 0.8358 0.0109 0.0
O360 O 0.42419 0.82704 0.03283 0.0
C361 C 0.39534 0.84888 0.03866 0.0
O362 O 0.3957 0.84096 0.01633 0.0
O363 O 0.44947 0.86446 0.07104 0.0
C364 C 0.09207 0.54748 0.02642 0.0
O365 O 0.103 0.54836 0.00695 0.0
O366 O 0.13409 0.549 0.06622 0.0
Zn367 Zn 0.12676 0.56779 0.05526 0.0
O368 O 0.14092 0.58277 0.02337 0.0
C369 C 0.13037 0.57938 0.10941 0.0
O370 O 0.12511 0.56176 0.11368 0.0
O371 O 0.09924 0.55475 0.04856 0.0
C372 C 0.15781 0.59572 0.02564 0.0
O373 O 0.16607 0.59854 0.04872 0.0
C374 C 0.146 0.54566 0.05551 0.0
O375 O 0.15467 0.55465 0.03393 0.0
O376 O 0.13203 0.58524 0.08578 0.0
C377 C 0.4419 0.53494 0.03584 0.0
O378 O 0.42547 0.52845 0.02465 0.0
O379 O 0.4478 0.584 0.07928 0.0
Zn380 Zn 0.43126 0.55881 0.06314 0.0
O381 O 0.41695 0.55973 0.03151 0.0
C382 C 0.41863 0.54395 0.11494 0.0
O383 O 0.43627 0.55542 0.12059 0.0
O384 O 0.44724 0.54793 0.05282 0.0
C385 C 0.40175 0.55989 0.03436 0.0
O386 O 0.39599 0.56055 0.05833 0.0
C387 C 0.44749 0.59899 0.07525 0.0
O388 O 0.43577 0.59917 0.05789 0.0
O389 O 0.41315 0.54266 0.09117 0.0
C390 C 0.09446 0.54698 0.52184 0.0
O391 O 0.10576 0.5611 0.50677 0.0
O392 O 0.13521 0.58376 0.56008 0.0
Zn393 Zn 0.12831 0.55755 0.55034 0.0
O394 O 0.14336 0.55689 0.51957 0.0
C395 C 0.13266 0.55148 0.60522 0.0
O396 O 0.12847 0.56473 0.60839 0.0
O397 O 0.10107 0.54286 0.54171 0.0
C398 C 0.1606 0.56225 0.52218 0.0
O399 O 0.1687 0.56886 0.5451 0.0
C400 C 0.14638 0.5988 0.54817 0.0
O401 O 0.15433 0.59807 0.52608 0.0
O402 O 0.13324 0.5459 0.58201 0.0
C403 C 0.44142 0.5447 0.53176 0.0
O404 O 0.43703 0.54451 0.55676 0.0
O405 O 0.39987 0.55383 0.53667 0.0
Zn406 Zn 0.42712 0.56984 0.52805 0.0
O407 O 0.43048 0.58853 0.50022 0.0
C408 C 0.43287 0.57983 0.58356 0.0
O409 O 0.41564 0.56597 0.58565 0.0
O410 O 0.43818 0.55444 0.51548 0.0
C411 C 0.42541 0.60045 0.50481 0.0
O412 O 0.41761 0.6 0.52763 0.0
C413 C 0.39011 0.53625 0.53364 0.0
O414 O 0.39757 0.52723 0.52235 0.0
O415 O 0.44071 0.58388 0.56099 0.0
C416 C 0.45371 0.89405 0.55097 0.0
O417 O 0.454 0.89027 0.57613 0.0
O418 O 0.44937 0.8467 0.56022 0.0
Zn419 Zn 0.43108 0.85421 0.54767 0.0
O420 O 0.41459 0.83774 0.51836 0.0
C421 C 0.40663 0.86137 0.58109 0.0
O422 O 0.40826 0.87303 0.56226 0.0
O423 O 0.44485 0.8807 0.53484 0.0
C424 C 0.39871 0.82365 0.52334 0.0
O425 O 0.39352 0.81924 0.54807 0.0
C426 C 0.45163 0.83376 0.55064 0.0
O427 O 0.44179 0.82437 0.52999 0.0
O428 O 0.41512 0.8522 0.57889 0.0
C429 C 0.21095 0.42311 0.28972 0.0
O430 O 0.22035 0.42742 0.26742 0.0
O431 O 0.25083 0.46862 0.27913 0.0
Zn432 Zn 0.2254 0.46266 0.29152 0.0
O433 O 0.22664 0.47919 0.32148 0.0
C434 C 0.21674 0.46569 0.23711 0.0
O435 O 0.2304 0.46229 0.23259 0.0
O436 O 0.21111 0.43601 0.30351 0.0
C437 C 0.23065 0.49598 0.31768 0.0
O438 O 0.23501 0.50301 0.29373 0.0
C439 C 0.26619 0.47677 0.29161 0.0
O440 O 0.26654 0.48233 0.31603 0.0
O441 O 0.21195 0.46625 0.26083 0.0
C442 C 0.57448 0.7967 0.29104 0.0
O443 O 0.57077 0.79815 0.26619 0.0
O444 O 0.5294 0.79671 0.2817 0.0
Zn445 Zn 0.53455 0.77695 0.29518 0.0
O446 O 0.51745 0.76191 0.32477 0.0
C447 C 0.53223 0.7455 0.26711 0.0
O448 O 0.53833 0.74262 0.2896 0.0
O449 O 0.56108 0.78827 0.30723 0.0
C450 C 0.50053 0.74989 0.31997 0.0
O451 O 0.49414 0.74841 0.29579 0.0
C452 C 0.51844 0.80156 0.29189 0.0
O453 O 0.5099 0.79391 0.3142 0.0
O454 O 0.52999 0.75955 0.26489 0.0
C455 C 0.21528 0.78165 0.30927 0.0
O456 O 0.20896 0.76499 0.31965 0.0
O457 O 0.22003 0.74669 0.27234 0.0
Zn458 Zn 0.24022 0.77248 0.28208 0.0
O459 O 0.25607 0.77172 0.31178 0.0
C460 C 0.2496 0.779 0.2266 0.0
O461 O 0.23227 0.76548 0.22363 0.0
O462 O 0.22869 0.78775 0.29288 0.0
C463 C 0.27221 0.77398 0.30752 0.0
O464 O 0.27859 0.7766 0.28319 0.0
C465 C 0.21589 0.7317 0.28456 0.0
O466 O 0.22496 0.73241 0.30624 0.0
O467 O 0.25599 0.78441 0.24976 0.0
C468 C 0.15852 0.02371 0.11168 0.0
C469 C 0.17203 0.04085 0.10085 0.0
C470 C 0.15262 0.00707 0.09771 0.0
C471 C 0.16487 0.98687 0.04057 0.0
H472 H 0.11132 0.95438 0.0345 0.0
C473 C 0.13009 0.93949 0.95102 0.0
C474 C 0.11489 0.92149 0.95528 0.0
C475 C 0.13797 0.95197 0.97202 0.0
C476 C 0.12631 0.96312 0.03634 0.0
H477 H 0.19047 0.05389 0.06735 0.0
H478 H 0.18008 0.02513 0.04304 0.0
H479 H 0.12376 0.97996 0.0663 0.0
H480 H 0.09619 0.90235 0.985 0.0
H481 H 0.1099 0.92432 0.0217 0.0
H482 H 0.16734 0.97048 0.00978 0.0
C483 C 0.17415 0.02439 0.06239 0.0
C484 C 0.13346 0.97775 0.05461 0.0
C485 C 0.18 0.04094 0.07628 0.0
C486 C 0.10789 0.91614 0.98107 0.0
C487 C 0.11568 0.92871 0.00207 0.0
C488 C 0.15773 0.97232 0.02223 0.0
C489 C 0.1602 0.00728 0.07272 0.0
C490 C 0.1528 0.9901 0.05641 0.0
C491 C 0.13074 0.94678 0.99771 0.0
C492 C 0.13837 0.9606 0.01946 0.0
H493 H 0.15216 0.02317 0.13062 0.0
H494 H 0.14197 0.99407 0.10629 0.0
H495 H 0.17985 0.9959 0.04186 0.0
H496 H 0.13582 0.94404 0.93139 0.0
H497 H 0.14941 0.9659 0.968 0.0
C498 C 0.95111 0.1415 0.08897 0.0
C499 C 0.95008 0.12718 0.10513 0.0
C500 C 0.96681 0.15216 0.07329 0.0
C501 C 0.0159 0.16491 0.06168 0.0
H502 H 0.00362 0.16661 0.98814 0.0
C503 C 0.06778 0.17906 0.97677 0.0
C504 C 0.06724 0.18887 0.95443 0.0
C505 C 0.05467 0.1743 0.99699 0.0
C506 C 0.00739 0.16664 0.00864 0.0
H507 H 0.96523 0.11364 0.11879 0.0
H508 H 0.99267 0.13228 0.09137 0.0
H509 H 0.97893 0.15399 0.02106 0.0
H510 H 0.05296 0.202 0.93623 0.0
H511 H 0.03031 0.19401 0.97175 0.0
H512 H 0.04437 0.17739 0.04916 0.0
C513 C 0.98131 0.13525 0.09086 0.0
C514 C 0.9932 0.15937 0.02753 0.0
C515 C 0.96555 0.12451 0.10647 0.0
C516 C 0.05365 0.19428 0.95308 0.0
C517 C 0.04061 0.18963 0.97339 0.0
C518 C 0.03014 0.17233 0.04278 0.0
C519 C 0.98186 0.1488 0.07354 0.0
C520 C -0.00274 0.15818 0.05418 0.0
C521 C 0.0408 0.17935 0.99542 0.0
C522 C 0.026 0.173 0.01596 0.0
H523 H 0.93948 0.14402 0.08758 0.0
H524 H 0.96697 0.1627 0.0604 0.0
H525 H 0.01944 0.16433 0.08213 0.0
H526 H 0.07807 0.17466 0.97842 0.0
H527 H 0.05509 0.16615 0.01346 0.0
C528 C 0.81518 0.87835 0.95046 0.0
C529 C 0.79905 0.86698 0.9356 0.0
C530 C 0.81958 0.87127 0.97264 0.0
C531 C 0.81131 0.82706 0.00167 0.0
H532 H 0.83425 0.85779 0.06357 0.0
C533 C 0.8355 0.79987 0.0888 0.0
C534 C 0.85383 0.81207 0.09737 0.0
C535 C 0.82627 0.80632 0.07252 0.0
C536 C 0.82789 0.84906 0.04641 0.0
H537 H 0.77467 0.83933 0.93273 0.0
H538 H 0.7823 0.82699 0.97162 0.0
H539 H 0.82277 0.86941 0.02809 0.0
H540 H 0.87643 0.84083 0.09685 0.0
H541 H 0.8604 0.85202 0.06834 0.0
H542 H 0.81679 0.8069 0.01964 0.0
C543 C 0.79166 0.84134 0.96589 0.0
C544 C 0.82134 0.85571 0.02607 0.0
C545 C 0.78726 0.84843 0.94365 0.0
C546 C 0.86233 0.83106 0.09055 0.0
C547 C 0.8531 0.8375 0.0743 0.0
C548 C 0.81783 0.8204 0.02201 0.0
C549 C 0.80794 0.85265 0.98054 0.0
C550 C 0.81329 0.84493 0.00325 0.0
C551 C 0.83516 0.8251 0.06452 0.0
C552 C 0.82648 0.83145 0.0444 0.0
H553 H 0.82458 0.89271 0.9448 0.0
H554 H 0.83237 0.88028 0.9832 0.0
H555 H 0.80542 0.8185 0.98423 0.0
H556 H 0.82848 0.78518 0.09385 0.0
H557 H 0.81234 0.79649 0.06566 0.0
C558 C 0.93712 0.12717 0.54125 0.0
C559 C 0.91996 0.11046 0.53915 0.0
C560 C 0.94892 0.13438 0.51939 0.0
C561 C 0.9612 0.11978 0.4585 0.0
H562 H 0.98821 0.1728 0.44302 0.0
C563 C 0.01934 0.15016 0.37979 0.0
C564 C 0.03585 0.16612 0.38795 0.0
C565 C 0.00278 0.14397 0.39407 0.0
C566 C 0.98082 0.15796 0.44712 0.0
H567 H 0.9016 0.08834 0.51237 0.0
H568 H 0.92242 0.10087 0.47424 0.0
H569 H 0.96373 0.16069 0.47657 0.0
H570 H 0.04769 0.18858 0.41677 0.0
H571 H 0.01912 0.17764 0.44178 0.0
H572 H 0.97882 0.11707 0.43007 0.0
C573 C 0.92665 0.10836 0.49283 0.0
C574 C 0.9668 0.15105 0.46629 0.0
C575 C 0.91474 0.10124 0.51463 0.0
C576 C 0.03525 0.1762 0.40993 0.0
C577 C 0.01877 0.17 0.4242 0.0
C578 C 0.97534 0.1267 0.43949 0.0
C579 C 0.9439 0.12495 0.49505 0.0
C580 C 0.95715 0.13195 0.47258 0.0
C581 C 0.00242 0.1536 0.41679 0.0
C582 C 0.98564 0.14594 0.43404 0.0
H583 H 0.94152 0.13462 0.55984 0.0
H584 H 0.96223 0.14707 0.52176 0.0
H585 H 0.95409 0.10501 0.46311 0.0
H586 H 0.01931 0.14215 0.36285 0.0
H587 H 0.99035 0.13143 0.38762 0.0
C588 C 0.81802 0.85517 0.4219 0.0
C589 C 0.82721 0.86347 0.39811 0.0
C590 C 0.82375 0.84498 0.4373 0.0
C591 C 0.86549 0.84151 0.4507 0.0
H592 H 0.83123 0.8002 0.49502 0.0
C593 C 0.89123 0.80817 0.52794 0.0
C594 C 0.88363 0.80645 0.55335 0.0
C595 C 0.88339 0.81214 0.50619 0.0
C596 C 0.84095 0.81172 0.48274 0.0
H597 H 0.84902 0.86671 0.37114 0.0
H598 H 0.8589 0.84862 0.39796 0.0
H599 H 0.81897 0.81194 0.46077 0.0
H600 H 0.86149 0.80691 0.57571 0.0
H601 H 0.84782 0.81382 0.53772 0.0
H602 H 0.88744 0.84145 0.47298 0.0
C603 C 0.84746 0.85033 0.40489 0.0
C604 C 0.83395 0.81846 0.46316 0.0
C605 C 0.84174 0.86061 0.38946 0.0
C606 C 0.8677 0.80821 0.55642 0.0
C607 C 0.85978 0.81203 0.53463 0.0
C608 C 0.87248 0.83467 0.47015 0.0
C609 C 0.83877 0.84272 0.42927 0.0
C610 C 0.84613 0.83376 0.44736 0.0
C611 C 0.86771 0.8143 0.50936 0.0
C612 C 0.86027 0.82001 0.48679 0.0
H613 H 0.80674 0.85703 0.42914 0.0
H614 H 0.8169 0.83957 0.45611 0.0
H615 H 0.87528 0.85346 0.43917 0.0
H616 H 0.90347 0.80684 0.52489 0.0
H617 H 0.88969 0.81366 0.48691 0.0
C618 C 0.14045 0.95535 0.42168 0.0
C619 C 0.1314 0.95492 0.39797 0.0
C620 C 0.15045 0.97193 0.43581 0.0
C621 C 0.15189 0.0164 0.4465 0.0
H622 H 0.19529 0.02725 0.48874 0.0
C623 C 0.18442 0.07783 0.52029 0.0
C624 C 0.18757 0.07309 0.54569 0.0
C625 C 0.18045 0.06557 0.4991 0.0
C626 C 0.18318 0.02439 0.47705 0.0
H627 H 0.12654 0.97181 0.36981 0.0
H628 H 0.14423 0.00094 0.39449 0.0
H629 H 0.18366 0.00215 0.45615 0.0
H630 H 0.18961 0.052 0.56862 0.0
H631 H 0.18265 0.03061 0.53168 0.0
H632 H 0.15117 0.03838 0.46782 0.0
C633 C 0.14332 0.98831 0.40229 0.0
C634 C 0.17651 0.01003 0.4584 0.0
C635 C 0.13327 0.97166 0.38809 0.0
C636 C 0.18721 0.05606 0.54931 0.0
C637 C 0.18336 0.04386 0.5281 0.0
C638 C 0.15862 0.03083 0.46506 0.0
C639 C 0.15172 0.98855 0.42658 0.0
C640 C 0.16049 0.00554 0.44341 0.0
C641 C 0.1797 0.04837 0.50285 0.0
C642 C 0.17404 0.03465 0.48099 0.0
H643 H 0.13935 0.94273 0.42985 0.0
H644 H 0.1565 0.97151 0.4546 0.0
H645 H 0.13938 0.01318 0.43555 0.0
H646 H 0.18466 0.09087 0.51681 0.0
H647 H 0.17784 0.06947 0.47981 0.0
C648 C 0.8613 0.05816 0.04769 0.0
C649 C 0.87781 0.07548 0.04544 0.0
C650 C 0.85381 0.04655 0.02568 0.0
C651 C 0.86806 0.03599 0.96273 0.0
H652 H 0.81477 0.00651 0.95018 0.0
C653 C 0.83848 0.97962 0.88163 0.0
C654 C 0.82356 0.96234 0.88988 0.0
C655 C 0.84405 0.99566 0.89689 0.0
C656 C 0.82969 0.01461 0.95345 0.0
H657 H 0.89914 0.09443 0.01813 0.0
H658 H 0.88607 0.0741 0.97974 0.0
H659 H 0.82658 0.03049 0.98446 0.0
H660 H 0.80217 0.94857 0.91988 0.0
H661 H 0.81203 0.97632 0.94653 0.0
H662 H 0.8712 0.01968 0.93256 0.0
C663 C 0.879 0.06948 0.99858 0.0
C664 C 0.83644 0.02834 0.97306 0.0
C665 C 0.88643 0.08114 0.02057 0.0
C666 C 0.81378 0.96164 0.91298 0.0
C667 C 0.81935 0.97762 0.9282 0.0
C668 C 0.86132 0.0222 0.94322 0.0
C669 C 0.86273 0.05198 0.00098 0.0
C670 C 0.85566 0.0389 0.97828 0.0
C671 C 0.8348 0.99475 0.92066 0.0
C672 C 0.84202 0.01106 0.93875 0.0
H673 H 0.8543 0.05339 0.06656 0.0
H674 H 0.84138 0.03305 0.02821 0.0
H675 H 0.88294 0.04377 0.96648 0.0
H676 H 0.84623 0.98065 0.86385 0.0
H677 H 0.85584 0.00871 0.89035 0.0
C678 C 0.93863 0.80981 0.05329 0.0
C679 C 0.9238 0.81327 0.04962 0.0
C680 C 0.95151 0.81349 0.03307 0.0
C681 C 0.96014 0.82398 0.96118 0.0
H682 H 0.01196 0.84813 0.98303 0.0
C683 C 0.0234 0.86647 0.89165 0.0
C684 C 0.03952 0.86523 0.89614 0.0
C685 C 0.00787 0.85715 0.90824 0.0
C686 C -0.00246 0.84113 0.97659 0.0
H687 H 0.91057 0.82286 0.0216 0.0
H688 H 0.93332 0.82977 0.98657 0.0
H689 H 0.98761 0.8376 0.01627 0.0
H690 H 0.05145 0.85215 0.92034 0.0
H691 H 0.02439 0.83587 0.94904 0.0
H692 H 0.97034 0.82817 0.92133 0.0
C693 C 0.93482 0.82387 0.00489 0.0
C694 C 0.98355 0.83505 0.99568 0.0
C695 C 0.92184 0.82003 0.02505 0.0
C696 C 0.03935 0.85359 0.91651 0.0
C697 C 0.02388 0.84431 0.93304 0.0
C698 C 0.9742 0.83019 0.94202 0.0
C699 C 0.94997 0.8209 0.00879 0.0
C700 C 0.96467 0.82648 0.98825 0.0
C701 C 0.00821 0.84644 0.9296 0.0
C702 C 0.99305 0.83888 0.94957 0.0
H703 H 0.94041 0.8044 0.0719 0.0
H704 H 0.96278 0.81068 0.03658 0.0
H705 H 0.94572 0.81723 0.95479 0.0
H706 H 0.02306 0.87529 0.87609 0.0
H707 H 0.996 0.8591 0.90516 0.0
C708 C 0.13905 0.18805 0.91497 0.0
C709 C 0.13018 0.17966 0.89106 0.0
C710 C 0.14906 0.18142 0.92897 0.0
C711 C 0.15115 0.13853 0.93837 0.0
H712 H 0.19367 0.17096 0.98218 0.0
C713 C 0.18505 0.11024 0.01127 0.0
C714 C 0.1873 0.11742 0.03704 0.0
C715 C 0.18066 0.11845 0.99041 0.0
C716 C 0.18182 0.16175 0.97001 0.0
H717 H 0.12564 0.15827 0.86243 0.0
H718 H 0.14341 0.14681 0.88681 0.0
H719 H 0.18206 0.18458 0.94982 0.0
H720 H 0.18717 0.1391 0.06104 0.0
H721 H 0.17962 0.15347 0.0246 0.0
H722 H 0.1508 0.11572 0.95892 0.0
C723 C 0.14232 0.15834 0.8949 0.0
C724 C 0.17515 0.16952 0.95152 0.0
C725 C 0.13223 0.16498 0.88086 0.0
C726 C 0.18548 0.13321 0.04142 0.0
C727 C 0.1813 0.14153 0.02053 0.0
C728 C 0.15794 0.13076 0.95673 0.0
C729 C 0.15054 0.16627 0.91938 0.0
C730 C 0.1594 0.15802 0.93601 0.0
C731 C 0.17868 0.13413 0.99487 0.0
C732 C 0.17301 0.14231 0.97321 0.0
H733 H 0.13779 0.19941 0.92341 0.0
H734 H 0.15494 0.1877 0.94791 0.0
H735 H 0.13887 0.12926 0.927 0.0
H736 H 0.18637 0.09809 0.00726 0.0
H737 H 0.1788 0.11254 0.97078 0.0
C738 C 0.95901 0.81631 0.59335 0.0
C739 C 0.95958 0.82569 0.6168 0.0
C740 C 0.97512 0.82196 0.57843 0.0
C741 C 0.02056 0.86354 0.56534 0.0
H742 H 0.02779 0.82866 0.52275 0.0
C743 C 0.08039 0.88748 0.48914 0.0
C744 C 0.07449 0.87969 0.46384 0.0
C745 C 0.06836 0.88022 0.5108 0.0
C746 C 0.02595 0.83855 0.53456 0.0
H747 H 0.97774 0.8478 0.64367 0.0
H748 H 0.00607 0.85752 0.61771 0.0
H749 H 0.00354 0.81687 0.55661 0.0
H750 H 0.05155 0.85788 0.44154 0.0
H751 H 0.03063 0.84513 0.47939 0.0
H752 H 0.04285 0.88519 0.54297 0.0
C753 C 0.99302 0.84599 0.61066 0.0
C754 C 0.01205 0.83182 0.55391 0.0
C755 C 0.97682 0.84036 0.62561 0.0
C756 C 0.0565 0.86421 0.46076 0.0
C757 C 0.04456 0.85683 0.48246 0.0
C758 C 0.03457 0.87026 0.54614 0.0
C759 C 0.99227 0.83707 0.58663 0.0
C760 C 0.00883 0.84422 0.56901 0.0
C761 C 0.0503 0.86488 0.50763 0.0
C762 C 0.03706 0.85781 0.5301 0.0
H763 H 0.94597 0.80493 0.58596 0.0
H764 H 0.97391 0.81494 0.55985 0.0
H765 H 0.01834 0.87349 0.57635 0.0
H766 H 0.09418 0.89942 0.49216 0.0
H767 H 0.07315 0.88662 0.53002 0.0
C768 C 0.12703 0.18606 0.4514 0.0
C769 C 0.11026 0.18636 0.45374 0.0
C770 C 0.13458 0.18184 0.47325 0.0
C771 C 0.12049 0.15568 0.53495 0.0
H772 H 0.17362 0.18145 0.54938 0.0
C773 C 0.15094 0.12921 0.61533 0.0
C774 C 0.16682 0.12838 0.60758 0.0
C775 C 0.14478 0.1393 0.60032 0.0
C776 C 0.15875 0.17406 0.54556 0.0
H777 H 0.0885 0.18293 0.481 0.0
H778 H 0.10163 0.17538 0.51907 0.0
H779 H 0.16143 0.19344 0.5154 0.0
H780 H 0.18916 0.13819 0.57864 0.0
H781 H 0.17826 0.15532 0.55235 0.0
H782 H 0.11781 0.13583 0.56416 0.0
C783 C 0.10889 0.17838 0.5003 0.0
C784 C 0.15179 0.18095 0.52613 0.0
C785 C 0.10142 0.18276 0.47852 0.0
C786 C 0.17685 0.13849 0.58519 0.0
C787 C 0.17066 0.14848 0.57018 0.0
C788 C 0.12746 0.14869 0.55422 0.0
C789 C 0.12544 0.1777 0.49782 0.0
C790 C 0.13263 0.17162 0.52028 0.0
C791 C 0.15435 0.14873 0.57724 0.0
C792 C 0.14673 0.15757 0.55936 0.0
H793 H 0.13421 0.18881 0.4326 0.0
H794 H 0.14726 0.18122 0.47068 0.0
H795 H 0.10567 0.14809 0.53068 0.0
H796 H 0.14298 0.12167 0.63258 0.0
H797 H 0.13232 0.13944 0.60654 0.0
C798 C 0.83345 0.04115 0.5838 0.0
C799 C 0.85123 0.04637 0.59388 0.0
C800 C 0.82366 0.02492 0.56875 0.0
C801 C 0.82221 0.98102 0.54879 0.0
H802 H 0.80499 0.98968 0.48182 0.0
C803 C 0.81275 0.93678 0.45639 0.0
C804 C 0.79824 0.93309 0.43863 0.0
C805 C 0.81615 0.94846 0.4781 0.0
C806 C 0.80935 0.98684 0.5006 0.0
H807 H 0.87213 0.03796 0.59757 0.0
H808 H 0.85511 0.00972 0.57124 0.0
H809 H 0.81596 0.01352 0.51599 0.0
H810 H 0.77557 0.93835 0.43017 0.0
H811 H 0.78142 0.95865 0.4683 0.0
H812 H 0.81601 0.9545 0.53309 0.0
C813 C 0.84868 0.01813 0.57503 0.0
C814 C 0.81565 0.00053 0.52022 0.0
C815 C 0.85849 0.03438 0.59002 0.0
C816 C 0.78693 0.94101 0.44339 0.0
C817 C 0.79032 0.95269 0.46519 0.0
C818 C 0.81585 0.96729 0.52918 0.0
C819 C 0.83142 0.01352 0.56356 0.0
C820 C 0.82252 -0.00206 0.54431 0.0
C821 C 0.8051 0.95669 0.48265 0.0
C822 C 0.80975 0.97023 0.50463 0.0
H823 H 0.82738 0.05 0.58658 0.0
H824 H 0.81026 0.02156 0.56051 0.0
H825 H 0.82719 0.97854 0.56729 0.0
H826 H 0.82174 0.93092 0.45331 0.0
H827 H 0.82783 0.95147 0.49087 0.0
C828 C 0.78735 0.26589 0.27305 0.0
C829 C 0.76861 0.25212 0.27695 0.0
C830 C 0.79708 0.27919 0.29258 0.0
C831 C 0.79578 0.29088 0.36324 0.0
H832 H 0.82496 0.34173 0.33771 0.0
C833 C 0.81848 0.35656 0.42812 0.0
C834 C 0.83591 0.37237 0.42279 0.0
C835 C 0.81191 0.34051 0.41254 0.0
C836 C 0.81715 0.32759 0.34521 0.0
H837 H 0.74558 0.24111 0.3048 0.0
H838 H 0.76244 0.26454 0.33865 0.0
H839 H 0.81051 0.31624 0.30625 0.0
H840 H 0.86066 0.38327 0.39815 0.0
H841 H 0.8493 0.35528 0.37128 0.0
H842 H 0.8021 0.30247 0.40232 0.0
C843 C 0.76972 0.26492 0.32066 0.0
C844 C 0.80886 0.31294 0.32714 0.0
C845 C 0.76001 0.25154 0.30116 0.0
C846 C 0.84707 0.37142 0.40259 0.0
C847 C 0.84053 0.3554 0.3871 0.0
C848 C 0.80406 0.30558 0.38138 0.0
C849 C 0.78826 0.2791 0.31639 0.0
C850 C 0.79796 0.29442 0.3359 0.0
C851 C 0.82266 0.33998 0.39139 0.0
C852 C 0.81474 0.32411 0.37253 0.0
H853 H 0.79445 0.2666 0.25472 0.0
H854 H 0.81147 0.28971 0.28886 0.0
H855 H 0.78764 0.27674 0.37063 0.0
H856 H 0.80956 0.35683 0.44358 0.0
H857 H 0.79804 0.32889 0.41626 0.0
C858 C 0.61553 0.47413 0.40833 0.0
C859 C 0.61575 0.4661 0.43271 0.0
C860 C 0.63201 0.48479 0.39421 0.0
C861 C 0.6782 0.48994 0.38527 0.0
H862 H 0.68664 0.53226 0.34219 0.0
C863 C 0.74038 0.52535 0.31322 0.0
C864 C 0.7358 0.52836 0.28763 0.0
C865 C 0.72766 0.5207 0.33397 0.0
C866 C 0.68446 0.52045 0.35409 0.0
H867 H 0.63358 0.46363 0.46194 0.0
H868 H 0.66248 0.48239 0.43722 0.0
H869 H 0.66094 0.51911 0.37388 0.0
H870 H 0.7145 0.52945 0.26395 0.0
H871 H 0.69228 0.52121 0.30006 0.0
H872 H 0.70137 0.49093 0.36499 0.0
C873 C 0.64946 0.48022 0.42894 0.0
C874 C 0.66976 0.51292 0.37223 0.0
C875 C 0.63293 0.46956 0.44315 0.0
C876 C 0.71846 0.5272 0.28341 0.0
C877 C 0.70577 0.5226 0.30417 0.0
C878 C 0.69291 0.49748 0.36715 0.0
C879 C 0.64913 0.4877 0.40412 0.0
C880 C 0.6662 0.4973 0.38757 0.0
C881 C 0.71012 0.51905 0.32959 0.0
C882 C 0.69593 0.51254 0.35093 0.0
H883 H 0.60254 0.47179 0.39973 0.0
H884 H 0.6312 0.49012 0.375 0.0
H885 H 0.6757 0.47776 0.39653 0.0
H886 H 0.75367 0.52623 0.31717 0.0
H887 H 0.73149 0.51824 0.35341 0.0
C888 C 0.5266 0.15399 0.44518 0.0
C889 C 0.51757 0.13447 0.44775 0.0
C890 C 0.51826 0.16238 0.43105 0.0
C891 C 0.48576 0.15125 0.37614 0.0
H892 H 0.49311 0.20059 0.39008 0.0
C893 C 0.46351 0.18858 0.3009 0.0
C894 C 0.47683 0.20731 0.29574 0.0
C895 C 0.46556 0.17931 0.3226 0.0
C896 C 0.49099 0.18682 0.38591 0.0
H897 H 0.49204 0.10856 0.43937 0.0
H898 H 0.47738 0.12326 0.41494 0.0
H899 H 0.50127 0.18481 0.42391 0.0
H900 H 0.50248 0.23116 0.3097 0.0
H901 H 0.5062 0.2149 0.34729 0.0
H902 H 0.47607 0.15343 0.33791 0.0
C903 C 0.49109 0.13203 0.4234 0.0
C904 C 0.49563 0.17777 0.40529 0.0
C905 C 0.49945 0.12362 0.43752 0.0
C906 C 0.49199 0.21671 0.3131 0.0
C907 C 0.49404 0.20744 0.33478 0.0
C908 C 0.48113 0.16027 0.35681 0.0
C909 C 0.50068 0.15144 0.41924 0.0
C910 C 0.49341 0.16004 0.4004 0.0
C911 C 0.48096 0.18857 0.33959 0.0
C912 C 0.48405 0.17831 0.36126 0.0
H913 H 0.54054 0.16278 0.45292 0.0
H914 H 0.5261 0.17735 0.42807 0.0
H915 H 0.48418 0.13775 0.37153 0.0
H916 H 0.45158 0.18097 0.28803 0.0
H917 H 0.45512 0.16484 0.32596 0.0
C918 C 0.59434 0.45029 0.85978 0.0
C919 C 0.59937 0.46328 0.88048 0.0
C920 C 0.60425 0.4553 0.83603 0.0
C921 C 0.63855 0.49561 0.79619 0.0
H922 H 0.65349 0.46056 0.77175 0.0
C923 C 0.7038 0.51688 0.73286 0.0
C924 C 0.70384 0.50409 0.71461 0.0
C925 C 0.68822 0.51199 0.74871 0.0
C926 C 0.64914 0.47036 0.77787 0.0
H927 H 0.61825 0.49197 0.89201 0.0
H928 H 0.63574 0.50066 0.85064 0.0
H929 H 0.6314 0.4519 0.80796 0.0
H930 H 0.68711 0.47653 0.69751 0.0
H931 H 0.65978 0.46803 0.7251 0.0
H932 H 0.65679 0.51429 0.7665 0.0
C933 C 0.62399 0.48663 0.8527 0.0
C934 C 0.63648 0.4654 0.79871 0.0
C935 C 0.61405 0.48162 0.87649 0.0
C936 C 0.68757 0.48666 0.71151 0.0
C937 C 0.67195 0.48175 0.72741 0.0
C938 C 0.65122 0.50058 0.77528 0.0
C939 C 0.61944 0.47341 0.83242 0.0
C940 C 0.63133 0.4781 0.80847 0.0
C941 C 0.67229 0.49419 0.74667 0.0
C942 C 0.65696 0.48814 0.76627 0.0
H943 H 0.58297 0.43609 0.86209 0.0
H944 H 0.60021 0.44489 0.82063 0.0
H945 H 0.63463 0.50559 0.80301 0.0
H946 H 0.71607 0.53047 0.73568 0.0
H947 H 0.68905 0.52185 0.7635 0.0
C948 C 0.48075 0.19043 0.73712 0.0
C949 C 0.48993 0.19871 0.71332 0.0
C950 C 0.48699 0.18094 0.75309 0.0
C951 C 0.52968 0.17948 0.76794 0.0
H952 H 0.49605 0.13809 0.81263 0.0
C953 C 0.55563 0.14706 0.84699 0.0
C954 C 0.54768 0.14526 0.87215 0.0
C955 C 0.54817 0.15122 0.82496 0.0
C956 C 0.50559 0.14964 0.80026 0.0
H957 H 0.51229 0.20266 0.68695 0.0
H958 H 0.52305 0.18574 0.71476 0.0
H959 H 0.48336 0.14873 0.77754 0.0
H960 H 0.52548 0.14607 0.89388 0.0
H961 H 0.51241 0.15321 0.85541 0.0
H962 H 0.55189 0.18047 0.79095 0.0
C963 C 0.51121 0.18694 0.72125 0.0
C964 C 0.49835 0.15576 0.78019 0.0
C965 C 0.50499 0.19653 0.70525 0.0
C966 C 0.53195 0.14741 0.87477 0.0
C967 C 0.52438 0.15135 0.85273 0.0
C968 C 0.53693 0.17324 0.78787 0.0
C969 C 0.50251 0.17936 0.74563 0.0
C970 C 0.51028 0.17109 0.76426 0.0
C971 C 0.53247 0.15341 0.82764 0.0
C972 C 0.52492 0.15858 0.80464 0.0
H973 H 0.46909 0.19182 0.74396 0.0
H974 H 0.4801 0.17554 0.77188 0.0
H975 H 0.53927 0.19146 0.75629 0.0
H976 H 0.56776 0.14548 0.84432 0.0
H977 H 0.55462 0.15266 0.80582 0.0
C978 C 0.86336 0.40124 0.8714 0.0
C979 C 0.84886 0.40507 0.87611 0.0
C980 C 0.86284 0.39082 0.84938 0.0
C981 C 0.83858 0.37137 0.78545 0.0
H982 H 0.8478 0.33096 0.80234 0.0
C983 C 0.80309 0.30054 0.73293 0.0
C984 C 0.81225 0.29011 0.73153 0.0
C985 C 0.81178 0.31814 0.74473 0.0
C986 C 0.8456 0.3424 0.79697 0.0
H987 H 0.82284 0.40164 0.86079 0.0
H988 H 0.82171 0.38312 0.8227 0.0
H989 H 0.85515 0.35535 0.83461 0.0
H990 H 0.83836 0.29072 0.73912 0.0
H991 H 0.8536 0.32158 0.75953 0.0
H992 H 0.82824 0.35783 0.74814 0.0
C993 C 0.83364 0.3884 0.8358 0.0
C994 C 0.8498 0.35641 0.81554 0.0
C995 C 0.8342 0.39888 0.85778 0.0
C996 C 0.83084 0.2983 0.74019 0.0
C997 C 0.83955 0.31594 0.75199 0.0
C998 C 0.83436 0.35732 0.76682 0.0
C999 C 0.84777 0.38393 0.83163 0.0
C1000 C 0.84586 0.37076 0.8103 0.0
C1001 C 0.82984 0.32572 0.75532 0.0
C1002 C 0.83734 0.34239 0.77269 0.0
H1003 H 0.87498 0.406 0.885 0.0
H1004 H 0.87407 0.38785 0.84651 0.0
H1005 H 0.83568 0.38244 0.78066 0.0
H1006 H 0.78881 0.29471 0.72623 0.0
H1007 H 0.80384 0.32522 0.7471 0.0
C1008 C 0.54368 0.408 0.34511 0.0
C1009 C 0.53784 0.40345 0.37151 0.0
C1010 C 0.53512 0.39475 0.32506 0.0
C1011 C 0.49302 0.34929 0.3099 0.0
H1012 H 0.52584 0.34294 0.26161 0.0
C1013 C 0.47257 0.27989 0.25928 0.0
C1014 C 0.47836 0.2798 0.23319 0.0
C1015 C 0.47828 0.29667 0.27249 0.0
C1016 C 0.51644 0.34475 0.27456 0.0
H1017 H 0.51809 0.38159 0.39746 0.0
H1018 H 0.50331 0.35849 0.36263 0.0
H1019 H 0.53878 0.36946 0.29182 0.0
H1020 H 0.49429 0.29728 0.20023 0.0
H1021 H 0.50445 0.3268 0.22356 0.0
H1022 H 0.47079 0.3242 0.29329 0.0
C1023 C 0.51436 0.37234 0.35732 0.0
C1024 C 0.52385 0.35994 0.2919 0.0
C1025 C 0.52293 0.38555 0.37733 0.0
C1026 C 0.48962 0.29691 0.22033 0.0
C1027 C 0.49549 0.31378 0.2337 0.0
C1028 C 0.48562 0.33411 0.29261 0.0
C1029 C 0.52049 0.37671 0.331 0.0
C1030 C 0.51229 0.36209 0.31025 0.0
C1031 C 0.49 0.3138 0.26001 0.0
C1032 C 0.49733 0.33139 0.27528 0.0
H1033 H 0.55509 0.4217 0.33994 0.0
H1034 H 0.54003 0.39859 0.30494 0.0
H1035 H 0.48369 0.35078 0.32344 0.0
H1036 H 0.46385 0.26695 0.26974 0.0
H1037 H 0.47403 0.29618 0.29286 0.0
C1038 C 0.68713 0.19414 0.2327 0.0
C1039 C 0.69754 0.18495 0.23214 0.0
C1040 C 0.67127 0.18748 0.24863 0.0
C1041 C 0.63767 0.14724 0.28968 0.0
H1042 H 0.63672 0.18604 0.33152 0.0
C1043 C 0.59727 0.13311 0.38824 0.0
C1044 C 0.58869 0.14371 0.39381 0.0
C1045 C 0.60831 0.13678 0.36564 0.0
C1046 C 0.63655 0.17503 0.31973 0.0
H1047 H 0.69881 0.16091 0.24659 0.0
H1048 H 0.67135 0.14948 0.27467 0.0
H1049 H 0.65952 0.19459 0.29633 0.0
H1050 H 0.58437 0.166 0.37949 0.0
H1051 H 0.60348 0.1723 0.34007 0.0
H1052 H 0.61493 0.12767 0.31375 0.0
C1053 C 0.67531 0.16173 0.26264 0.0
C1054 C 0.64962 0.17993 0.29948 0.0
C1055 C 0.69113 0.16835 0.24661 0.0
C1056 C 0.59092 0.15768 0.37592 0.0
C1057 C 0.60193 0.16134 0.35336 0.0
C1058 C 0.62457 0.14232 0.31003 0.0
C1059 C 0.66552 0.17153 0.26444 0.0
C1060 C 0.65048 0.16612 0.28437 0.0
C1061 C 0.61099 0.15114 0.34816 0.0
C1062 C 0.62401 0.15617 0.32545 0.0
H1063 H 0.69158 0.20687 0.22157 0.0
H1064 H 0.66381 0.19513 0.24914 0.0
H1065 H 0.63783 0.13627 0.27822 0.0
H1066 H 0.5958 0.12222 0.4016 0.0
H1067 H 0.61525 0.12879 0.36234 0.0
C1068 C 0.85091 0.44066 0.33674 0.0
C1069 C 0.85435 0.44818 0.3624 0.0
C1070 C 0.84595 0.44884 0.31647 0.0
C1071 C 0.84678 0.4923 0.29725 0.0
H1072 H 0.80246 0.45959 0.25678 0.0
C1073 C 0.80244 0.51838 0.24582 0.0
C1074 C 0.79324 0.51006 0.22205 0.0
C1075 C 0.81263 0.51169 0.25922 0.0
C1076 C 0.81509 0.46892 0.26745 0.0
H1077 H 0.85578 0.47045 0.38677 0.0
H1078 H 0.84716 0.4847 0.35144 0.0
H1079 H 0.81541 0.44621 0.28729 0.0
H1080 H 0.78818 0.48866 0.19315 0.0
H1081 H 0.80622 0.47707 0.21652 0.0
H1082 H 0.8463 0.51503 0.27782 0.0
C1083 C 0.84838 0.47254 0.34694 0.0
C1084 C 0.82248 0.46124 0.28499 0.0
C1085 C 0.85318 0.46429 0.36723 0.0
C1086 C 0.79503 0.49532 0.21148 0.0
C1087 C 0.80528 0.48862 0.22493 0.0
C1088 C 0.83947 0.49998 0.27961 0.0
C1089 C 0.84453 0.4648 0.32143 0.0
C1090 C 0.83811 0.47287 0.30055 0.0
C1091 C 0.81395 0.49655 0.24918 0.0
C1092 C 0.82325 0.48839 0.26503 0.0
H1093 H 0.85172 0.42827 0.33237 0.0
H1094 H 0.84317 0.44266 0.29695 0.0
H1095 H 0.85904 0.50159 0.30867 0.0
H1096 H 0.80137 0.52977 0.25454 0.0
H1097 H 0.81886 0.51796 0.27803 0.0
C1098 C 0.62161 0.14924 0.9208 0.0
C1099 C 0.62075 0.16159 0.93908 0.0
C1100 C 0.63798 0.15437 0.90673 0.0
C1101 C 0.67854 0.19625 0.88147 0.0
H1102 H 0.69439 0.16139 0.85952 0.0
C1103 C 0.73656 0.21683 0.80409 0.0
C1104 C 0.73256 0.20367 0.78391 0.0
C1105 C 0.72571 0.21187 0.82702 0.0
C1106 C 0.6901 0.17127 0.86543 0.0
H1107 H 0.63675 0.18859 0.95805 0.0
H1108 H 0.66543 0.19756 0.9334 0.0
H1109 H 0.67046 0.15226 0.8936 0.0
H1110 H 0.71446 0.17481 0.77241 0.0
H1111 H 0.69534 0.16625 0.81216 0.0
H1112 H 0.69759 0.215 0.85269 0.0
C1113 C 0.65333 0.18398 0.92981 0.0
C1114 C 0.67644 0.16606 0.88498 0.0
C1115 C 0.63693 0.1788 0.944 0.0
C1116 C 0.7179 0.18528 0.78756 0.0
C1117 C 0.70702 0.18034 0.81047 0.0
C1118 C 0.69216 0.20144 0.8619 0.0
C1119 C 0.65388 0.17199 0.91057 0.0
C1120 C 0.67021 0.17835 0.89277 0.0
C1121 C 0.7106 0.19366 0.83027 0.0
C1122 C 0.6978 0.18887 0.85323 0.0
H1123 H 0.60943 0.13583 0.91662 0.0
H1124 H 0.63787 0.14488 0.89189 0.0
H1125 H 0.67386 0.20594 0.88673 0.0
H1126 H 0.74787 0.23108 0.802 0.0
H1127 H 0.72901 0.22238 0.84207 0.0
C1128 C 0.8625 0.48937 0.90616 0.0
C1129 C 0.85143 0.47297 0.92066 0.0
C1130 C 0.85421 0.49735 0.89096 0.0
C1131 C 0.8097 0.49656 0.87734 0.0
H1132 H 0.82887 0.50757 0.80568 0.0
C1133 C 0.76739 0.50062 0.78945 0.0
C1134 C 0.777 0.51376 0.76943 0.0
C1135 C 0.77714 0.49817 0.81014 0.0
C1136 C 0.82352 0.50491 0.82571 0.0
H1137 H 0.82304 0.45278 0.93197 0.0
H1138 H 0.80859 0.46661 0.90524 0.0
H1139 H 0.84487 0.49943 0.83875 0.0
H1140 H 0.80436 0.53511 0.75593 0.0
H1141 H 0.82134 0.53098 0.79218 0.0
H1142 H 0.78808 0.50167 0.864 0.0
C1143 C 0.82368 0.47337 0.90573 0.0
C1144 C 0.83272 0.50025 0.84471 0.0
C1145 C 0.83196 0.46539 0.92097 0.0
C1146 C 0.79654 0.52474 0.77091 0.0
C1147 C 0.80628 0.52233 0.79164 0.0
C1148 C 0.8005 0.50127 0.85829 0.0
C1149 C 0.83469 0.4891 0.88992 0.0
C1150 C 0.82579 0.49579 0.87065 0.0
C1151 C 0.79672 0.50886 0.81132 0.0
C1152 C 0.80717 0.50525 0.83216 0.0
H1153 H 0.87754 0.49567 0.90571 0.0
H1154 H 0.86308 0.50969 0.87938 0.0
H1155 H 0.80414 0.49338 0.89723 0.0
H1156 H 0.75233 0.49194 0.7889 0.0
H1157 H 0.76936 0.4875 0.82477 0.0
C1158 C 0.52906 0.36612 0.91813 0.0
C1159 C 0.52237 0.37875 0.91749 0.0
C1160 C 0.52023 0.34962 0.90344 0.0
C1161 C 0.49302 0.33228 0.84279 0.0
H1162 H 0.48964 0.28542 0.8627 0.0
C1163 C 0.46858 0.27175 0.7686 0.0
C1164 C 0.47928 0.26286 0.76786 0.0
C1165 C 0.47071 0.28382 0.78933 0.0
C1166 C 0.49057 0.29845 0.85683 0.0
H1167 H 0.5003 0.38323 0.90271 0.0
H1168 H 0.48484 0.35437 0.8773 0.0
H1169 H 0.49849 0.30997 0.89576 0.0
H1170 H 0.50028 0.25935 0.78859 0.0
H1171 H 0.50426 0.28067 0.82437 0.0
H1172 H 0.48578 0.32115 0.80373 0.0
C1173 C 0.49712 0.35742 0.88871 0.0
C1174 C 0.49559 0.31248 0.87577 0.0
C1175 C 0.50594 0.37391 0.90338 0.0
C1176 C 0.49183 0.26598 0.78856 0.0
C1177 C 0.494 0.2781 0.80922 0.0
C1178 C 0.48806 0.31831 0.82387 0.0
C1179 C 0.50453 0.34541 0.88787 0.0
C1180 C 0.49716 0.32966 0.86884 0.0
C1181 C 0.48361 0.28732 0.8097 0.0
C1182 C 0.48709 0.30136 0.83053 0.0
H1183 H 0.54166 0.3694 0.92889 0.0
H1184 H 0.52635 0.34071 0.90311 0.0
H1185 H 0.49443 0.34548 0.83667 0.0
H1186 H 0.45867 0.26951 0.75307 0.0
H1187 H 0.46231 0.29051 0.7893 0.0
C1188 C 0.46179 0.60445 0.60592 0.0
C1189 C 0.44265 0.59124 0.60697 0.0
C1190 C 0.47072 0.61596 0.6276 0.0
C1191 C 0.46484 0.62253 0.6993 0.0
H1192 H 0.49928 0.67451 0.68301 0.0
C1193 C 0.48405 0.68411 0.7709 0.0
C1194 C 0.50249 0.69912 0.77046 0.0
C1195 C 0.47847 0.66906 0.75358 0.0
C1196 C 0.48994 0.65999 0.68793 0.0
H1197 H 0.41797 0.57945 0.6318 0.0
H1198 H 0.43336 0.59986 0.66922 0.0
H1199 H 0.48633 0.6519 0.64735 0.0
H1200 H 0.52984 0.7095 0.75273 0.0
H1201 H 0.52004 0.68328 0.72256 0.0
H1202 H 0.46794 0.63099 0.73994 0.0
C1203 C 0.44163 0.6011 0.65194 0.0
C1204 C 0.48252 0.64698 0.66747 0.0
C1205 C 0.43275 0.58946 0.63037 0.0
C1206 C 0.51549 0.69823 0.75348 0.0
C1207 C 0.50988 0.68326 0.73609 0.0
C1208 C 0.47215 0.63561 0.71979 0.0
C1209 C 0.46068 0.61467 0.65072 0.0
C1210 C 0.46969 0.62812 0.67283 0.0
C1211 C 0.49119 0.6688 0.73542 0.0
C1212 C 0.48463 0.65451 0.71426 0.0
H1213 H 0.46985 0.60602 0.58826 0.0
H1214 H 0.48549 0.626 0.62613 0.0
H1215 H 0.45524 0.60807 0.7042 0.0
H1216 H 0.47372 0.68433 0.78381 0.0
H1217 H 0.46395 0.65815 0.75343 0.0
C1218 C 0.39135 0.84445 0.62288 0.0
C1219 C 0.39447 0.85829 0.6042 0.0
C1220 C 0.37917 0.84083 0.64403 0.0
C1221 C 0.33884 0.8455 0.66327 0.0
H1222 H 0.3472 0.83006 0.73189 0.0
C1223 C 0.28379 0.8223 0.74543 0.0
C1224 C 0.27903 0.80502 0.75698 0.0
C1225 C 0.29998 0.83189 0.73023 0.0
C1226 C 0.34469 0.83435 0.71282 0.0
H1227 H 0.3877 0.87964 0.59358 0.0
H1228 H 0.36659 0.87347 0.63076 0.0
H1229 H 0.37177 0.84138 0.69845 0.0
H1230 H 0.28814 0.78483 0.763 0.0
H1231 H 0.31634 0.80153 0.73642 0.0
H1232 H 0.31166 0.83813 0.67742 0.0
C1233 C 0.37334 0.8652 0.62877 0.0
C1234 C 0.35872 0.84079 0.69365 0.0
C1235 C 0.38549 0.86878 0.60752 0.0
C1236 C 0.29137 0.79808 0.7543 0.0
C1237 C 0.30759 0.8077 0.73917 0.0
C1238 C 0.32486 0.83914 0.68246 0.0
C1239 C 0.36986 0.85102 0.6471 0.0
C1240 C 0.35582 0.84609 0.66846 0.0
C1241 C 0.31179 0.82444 0.72636 0.0
C1242 C 0.32749 0.83316 0.70727 0.0
H1243 H 0.39801 0.83609 0.62089 0.0
H1244 H 0.37661 0.82962 0.6575 0.0
H1245 H 0.336 0.8492 0.64398 0.0
H1246 H 0.27466 0.82812 0.74726 0.0
H1247 H 0.30301 0.8449 0.72092 0.0
C1248 C 0.13929 0.52786 0.6257 0.0
C1249 C 0.13756 0.54384 0.6283 0.0
C1250 C 0.14483 0.52118 0.64721 0.0
C1251 C 0.17258 0.53728 0.70707 0.0
H1252 H 0.14998 0.48451 0.72295 0.0
C1253 C 0.20571 0.51089 0.78336 0.0
C1254 C 0.20711 0.49541 0.77508 0.0
C1255 C 0.19411 0.51592 0.76988 0.0
C1256 C 0.15651 0.49929 0.71871 0.0
H1257 H 0.13992 0.56514 0.65562 0.0
H1258 H 0.14989 0.5536 0.69308 0.0
H1259 H 0.13557 0.49502 0.69021 0.0
H1260 H 0.19668 0.47254 0.74697 0.0
H1261 H 0.17697 0.4815 0.72325 0.0
H1262 H 0.19404 0.54158 0.73442 0.0
C1263 C 0.14689 0.54625 0.67441 0.0
C1264 C 0.14821 0.50529 0.70002 0.0
C1265 C 0.14114 0.5528 0.65298 0.0
C1266 C 0.196 0.48458 0.75387 0.0
C1267 C 0.18453 0.48965 0.74035 0.0
C1268 C 0.18099 0.53128 0.72555 0.0
C1269 C 0.14893 0.53047 0.67165 0.0
C1270 C 0.1564 0.52429 0.69362 0.0
C1271 C 0.18371 0.5056 0.7478 0.0
C1272 C 0.17331 0.51216 0.73114 0.0
H1273 H 0.13659 0.52061 0.60697 0.0
H1274 H 0.14648 0.5091 0.64446 0.0
H1275 H 0.17928 0.55201 0.70234 0.0
H1276 H 0.21398 0.51944 0.79976 0.0
H1277 H 0.19357 0.52811 0.77642 0.0
C1278 C 0.37755 0.85256 0.07572 0.0
C1279 C 0.37749 0.84359 0.05209 0.0
C1280 C 0.36116 0.84657 0.09009 0.0
C1281 C 0.31597 0.80461 0.10184 0.0
H1282 H 0.30739 0.83883 0.14387 0.0
C1283 C 0.256 0.77928 0.17814 0.0
C1284 C 0.26175 0.7874 0.20329 0.0
C1285 C 0.2679 0.78672 0.15637 0.0
C1286 C 0.30959 0.82912 0.13221 0.0
H1287 H 0.35995 0.8218 0.0244 0.0
H1288 H 0.33113 0.81138 0.04952 0.0
H1289 H 0.33193 0.8511 0.11044 0.0
H1290 H 0.28428 0.80997 0.22519 0.0
H1291 H 0.30496 0.82297 0.1872 0.0
H1292 H 0.29384 0.78266 0.12406 0.0
C1293 C 0.34399 0.82292 0.05704 0.0
C1294 C 0.32365 0.83612 0.11309 0.0
C1295 C 0.36047 0.82895 0.04259 0.0
C1296 C 0.27944 0.80337 0.20609 0.0
C1297 C 0.29124 0.8109 0.1843 0.0
C1298 C 0.30182 0.7976 0.12086 0.0
C1299 C 0.34423 0.83148 0.08119 0.0
C1300 C 0.32739 0.82398 0.09826 0.0
C1301 C 0.28567 0.80254 0.15928 0.0
C1302 C 0.29886 0.80982 0.13674 0.0
H1303 H 0.3904 0.86392 0.08362 0.0
H1304 H 0.36195 0.85331 0.10878 0.0
H1305 H 0.31859 0.79487 0.09098 0.0
H1306 H 0.24244 0.76697 0.17534 0.0
H1307 H 0.26323 0.78006 0.13727 0.0
C1308 C 0.14235 0.52431 0.0928 0.0
C1309 C 0.15117 0.53301 0.06899 0.0
C1310 C 0.14824 0.51377 0.10707 0.0
C1311 C 0.18976 0.50935 0.11743 0.0
H1312 H 0.15549 0.4668 0.15984 0.0
C1313 C 0.21515 0.47239 0.18922 0.0
C1314 C 0.20777 0.46984 0.21491 0.0
C1315 C 0.2074 0.47745 0.16852 0.0
C1316 C 0.16522 0.47866 0.1481 0.0
H1317 H 0.17259 0.53677 0.04091 0.0
H1318 H 0.18276 0.51808 0.06577 0.0
H1319 H 0.14324 0.47993 0.1277 0.0
H1320 H 0.18611 0.47004 0.23885 0.0
H1321 H 0.17256 0.47882 0.20269 0.0
H1322 H 0.21173 0.50821 0.13815 0.0
C1323 C 0.17146 0.51971 0.07356 0.0
C1324 C 0.15822 0.48621 0.12972 0.0
C1325 C 0.16557 0.53033 0.05925 0.0
C1326 C 0.19214 0.47194 0.2193 0.0
C1327 C 0.1843 0.47684 0.19856 0.0
C1328 C 0.19675 0.50171 0.13568 0.0
C1329 C 0.16305 0.51157 0.09788 0.0
C1330 C 0.17041 0.50194 0.11465 0.0
C1331 C 0.192 0.47989 0.17303 0.0
C1332 C 0.18455 0.48657 0.15164 0.0
H1333 H 0.1312 0.52606 0.10091 0.0
H1334 H 0.14162 0.50798 0.12589 0.0
H1335 H 0.19956 0.5216 0.10642 0.0
H1336 H 0.22717 0.47085 0.18516 0.0
H1337 H 0.21352 0.47958 0.149 0.0
C1338 C 0.52855 0.71598 0.24768 0.0
C1339 C 0.52663 0.73185 0.24527 0.0
C1340 C 0.52207 0.70247 0.22775 0.0
C1341 C 0.50662 0.69387 0.15766 0.0
H1342 H 0.47944 0.64219 0.18035 0.0
C1343 C 0.45849 0.63209 0.08897 0.0
C1344 C 0.45913 0.61552 0.0919 0.0
C1345 C 0.46842 0.64708 0.10627 0.0
C1346 C 0.4872 0.65654 0.17366 0.0
H1347 H 0.51681 0.74624 0.21971 0.0
H1348 H 0.50527 0.72258 0.18523 0.0
H1349 H 0.49389 0.66685 0.2132 0.0
H1350 H 0.47126 0.60196 0.11469 0.0
H1351 H 0.48853 0.62804 0.14464 0.0
H1352 H 0.4995 0.68342 0.11807 0.0
C1353 C 0.512 0.72065 0.20232 0.0
C1354 C 0.49553 0.67069 0.1925 0.0
C1355 C 0.51853 0.73417 0.2222 0.0
C1356 C 0.47035 0.61447 0.11193 0.0
C1357 C 0.48018 0.62938 0.12922 0.0
C1358 C 0.4982 0.67969 0.13879 0.0
C1359 C 0.51347 0.70452 0.20501 0.0
C1360 C 0.5053 0.68953 0.18475 0.0
C1361 C 0.47909 0.64572 0.12686 0.0
C1362 C 0.48838 0.66088 0.14662 0.0
H1363 H 0.53482 0.71382 0.26514 0.0
H1364 H 0.52369 0.69035 0.23025 0.0
H1365 H 0.51424 0.70824 0.15102 0.0
H1366 H 0.45 0.63335 0.07372 0.0
H1367 H 0.46724 0.65947 0.10407 0.0
C1368 C 0.16619 0.63373 0.55065 0.0
C1369 C 0.15177 0.61688 0.56097 0.0
C1370 C 0.17255 0.65045 0.56461 0.0
C1371 C 0.16095 0.67176 0.6212 0.0
H1372 H 0.21469 0.70151 0.62908 0.0
C1373 C 0.19645 0.71752 0.712 0.0
C1374 C 0.21226 0.7352 0.70812 0.0
C1375 C 0.18833 0.7053 0.69078 0.0
C1376 C 0.19966 0.69355 0.62675 0.0
H1377 H 0.13211 0.60452 0.59339 0.0
H1378 H 0.14332 0.63339 0.61772 0.0
H1379 H 0.20146 0.67625 0.59683 0.0
H1380 H 0.23182 0.754 0.67886 0.0
H1381 H 0.21771 0.73245 0.6418 0.0
H1382 H 0.15921 0.68857 0.65204 0.0
C1383 C 0.14963 0.63387 0.59877 0.0
C1384 C 0.19207 0.6791 0.6082 0.0
C1385 C 0.14329 0.61723 0.58487 0.0
C1386 C 0.21965 0.74047 0.6825 0.0
C1387 C 0.21163 0.72814 0.66129 0.0
C1388 C 0.16854 0.68611 0.63986 0.0
C1389 C 0.16457 0.65062 0.5891 0.0
C1390 C 0.17261 0.66772 0.60571 0.0
C1391 C 0.19593 0.71041 0.66526 0.0
C1392 C 0.18796 0.69683 0.64327 0.0
H1393 H 0.17295 0.63394 0.53222 0.0
H1394 H 0.18394 0.66317 0.55647 0.0
H1395 H 0.14591 0.66351 0.6194 0.0
H1396 H 0.1904 0.71306 0.73148 0.0
H1397 H 0.17638 0.69162 0.69448 0.0
C1398 C 0.27633 0.48775 0.70269 0.0
C1399 C 0.26617 0.4691 0.71116 0.0
C1400 C 0.28625 0.49233 0.67898 0.0
C1401 C 0.30996 0.47661 0.63429 0.0
H1402 H 0.31036 0.5139 0.58737 0.0
C1403 C 0.36182 0.50638 0.5476 0.0
C1404 C 0.37155 0.52598 0.54634 0.0
C1405 C 0.34562 0.49693 0.56292 0.0
C1406 C 0.31042 0.50347 0.60027 0.0
H1407 H 0.2584 0.44058 0.70133 0.0
H1408 H 0.27606 0.44868 0.65994 0.0
H1409 H 0.28841 0.50206 0.62423 0.0
H1410 H 0.37131 0.55097 0.55884 0.0
H1411 H 0.34343 0.53463 0.58568 0.0
H1412 H 0.33257 0.47864 0.61123 0.0
C1413 C 0.27622 0.4597 0.6717 0.0
C1414 C 0.29784 0.4967 0.62133 0.0
C1415 C 0.2661 0.45509 0.69534 0.0
C1416 C 0.3642 0.53586 0.55945 0.0
C1417 C 0.34808 0.52645 0.57472 0.0
C1418 C 0.32265 0.48349 0.61333 0.0
C1419 C 0.28638 0.47837 0.6633 0.0
C1420 C 0.29784 0.48358 0.63896 0.0
C1421 C 0.33886 0.50691 0.57719 0.0
C1422 C 0.32338 0.4974 0.59653 0.0
H1423 H 0.27663 0.49888 0.71438 0.0
H1424 H 0.29418 0.50687 0.6732 0.0
H1425 H 0.31035 0.46659 0.64768 0.0
H1426 H 0.36707 0.49835 0.53761 0.0
H1427 H 0.33868 0.48185 0.56413 0.0
C1428 C 0.52395 0.7886 0.71742 0.0
C1429 C 0.52463 0.77206 0.71449 0.0
C1430 C 0.51946 0.79623 0.69594 0.0
C1431 C 0.49326 0.7824 0.63422 0.0
H1432 H 0.51749 0.83575 0.62185 0.0
C1433 C 0.46556 0.81303 0.55573 0.0
C1434 C 0.46401 0.82836 0.56436 0.0
C1435 C 0.47592 0.80699 0.57034 0.0
C1436 C 0.51054 0.82082 0.62509 0.0
H1437 H 0.52162 0.75081 0.68656 0.0
H1438 H 0.51364 0.7641 0.6491 0.0
H1439 H 0.53018 0.8236 0.65486 0.0
H1440 H 0.47277 0.84982 0.59449 0.0
H1441 H 0.49042 0.83914 0.62004 0.0
H1442 H 0.47317 0.7796 0.60533 0.0
C1443 C 0.51653 0.7711 0.66805 0.0
C1444 C 0.51783 0.81388 0.64396 0.0
C1445 C 0.52117 0.76355 0.68949 0.0
C1446 C 0.47363 0.83794 0.58728 0.0
C1447 C 0.48391 0.83189 0.60186 0.0
C1448 C 0.4859 0.78934 0.61546 0.0
C1449 C 0.51544 0.78741 0.67114 0.0
C1450 C 0.50903 0.79463 0.6491 0.0
C1451 C 0.48493 0.81616 0.59385 0.0
C1452 C 0.4942 0.80867 0.61111 0.0
H1453 H 0.52658 0.79552 0.73641 0.0
H1454 H 0.51852 0.8087 0.699 0.0
H1455 H 0.48607 0.76751 0.63794 0.0
H1456 H 0.45842 0.80542 0.53806 0.0
H1457 H 0.47665 0.79498 0.56343 0.0
C1458 C 0.28267 0.47434 0.25181 0.0
C1459 C 0.28356 0.48068 0.27783 0.0
C1460 C 0.29893 0.4789 0.23786 0.0
C1461 C 0.34841 0.51461 0.23487 0.0
H1462 H 0.34988 0.48086 0.18294 0.0
C1463 C 0.41032 0.53781 0.16293 0.0
C1464 C 0.40503 0.53383 0.13626 0.0
C1465 C 0.39708 0.52944 0.18303 0.0
C1466 C 0.34967 0.49042 0.19739 0.0
H1467 H 0.30225 0.49625 0.30996 0.0
H1468 H 0.3308 0.50415 0.28553 0.0
H1469 H 0.32386 0.46939 0.21397 0.0
H1470 H 0.38188 0.51738 0.1098 0.0
H1471 H 0.35883 0.50277 0.14484 0.0
H1472 H 0.37403 0.53573 0.21787 0.0
C1473 C 0.31745 0.49582 0.27587 0.0
C1474 C 0.33478 0.48388 0.21514 0.0
C1475 C 0.30111 0.49123 0.2899 0.0
C1476 C 0.38639 0.52078 0.13014 0.0
C1477 C 0.37321 0.51231 0.15023 0.0
C1478 C 0.36336 0.52113 0.21721 0.0
C1479 C 0.31653 0.48988 0.24957 0.0
C1480 C 0.33369 0.49604 0.23357 0.0
C1481 C 0.37834 0.51679 0.17686 0.0
C1482 C 0.36388 0.50922 0.19782 0.0
H1483 H 0.2694 0.46615 0.24188 0.0
H1484 H 0.29768 0.47435 0.21752 0.0
H1485 H 0.34792 0.5244 0.24861 0.0
H1486 H 0.42458 0.54777 0.16831 0.0
H1487 H 0.40145 0.53303 0.2034 0.0
C1488 C 0.49983 0.81773 0.28571 0.0
C1489 C 0.51374 0.814 0.27683 0.0
C1490 C 0.49396 0.82762 0.26973 0.0
C1491 C 0.50594 0.8566 0.2085 0.0
H1492 H 0.45225 0.83402 0.20182 0.0
C1493 C 0.4698 0.86199 0.11467 0.0
C1494 C 0.45464 0.86503 0.11755 0.0
C1495 C 0.47801 0.85897 0.13681 0.0
C1496 C 0.46727 0.84069 0.20375 0.0
H1497 H 0.53307 0.8186 0.24482 0.0
H1498 H 0.52264 0.83539 0.21695 0.0
H1499 H 0.4652 0.82352 0.23661 0.0
H1500 H 0.43632 0.8675 0.14594 0.0
H1501 H 0.45054 0.86192 0.18463 0.0
H1502 H 0.50789 0.87311 0.17474 0.0
C1503 C 0.51638 0.83096 0.23632 0.0
C1504 C 0.47472 0.83473 0.22376 0.0
C1505 C 0.52227 0.82115 0.25226 0.0
C1506 C 0.44798 0.86518 0.14307 0.0
C1507 C 0.45606 0.86194 0.16521 0.0
C1508 C 0.49848 0.86243 0.18836 0.0
C1509 C 0.50188 0.83398 0.24457 0.0
C1510 C 0.49414 0.84229 0.22596 0.0
C1511 C 0.47111 0.85874 0.16227 0.0
C1512 C 0.47907 0.85422 0.18543 0.0
H1513 H 0.49307 0.81251 0.30462 0.0
H1514 H 0.48294 0.82996 0.27684 0.0
H1515 H 0.52096 0.86299 0.20997 0.0
H1516 H 0.47529 0.86184 0.09528 0.0
H1517 H 0.48945 0.8563 0.13394 0.0
C1518 C 0.19297 0.71321 0.24926 0.0
C1519 C 0.20213 0.71359 0.27284 0.0
C1520 C 0.18141 0.69636 0.2365 0.0
C1521 C 0.17494 0.64946 0.22925 0.0
H1522 H 0.13246 0.64177 0.18721 0.0
C1523 C 0.13673 0.58712 0.15752 0.0
C1524 C 0.13484 0.59241 0.1318 0.0
C1525 C 0.14187 0.5998 0.17843 0.0
C1526 C 0.14426 0.64371 0.19893 0.0
H1527 H 0.20559 0.69645 0.30222 0.0
H1528 H 0.18514 0.66687 0.27996 0.0
H1529 H 0.14648 0.66764 0.21853 0.0
H1530 H 0.13628 0.6149 0.10798 0.0
H1531 H 0.14514 0.63696 0.14447 0.0
H1532 H 0.17292 0.62573 0.20917 0.0
C1533 C 0.18718 0.67971 0.27119 0.0
C1534 C 0.15231 0.65852 0.21682 0.0
C1535 C 0.19881 0.69663 0.284 0.0
C1536 C 0.13768 0.61043 0.12755 0.0
C1537 C 0.14261 0.62301 0.14848 0.0
C1538 C 0.16679 0.63455 0.21149 0.0
C1539 C 0.17863 0.67943 0.24703 0.0
C1540 C 0.16812 0.66193 0.23155 0.0
C1541 C 0.14496 0.6179 0.17406 0.0
C1542 C 0.15174 0.63189 0.19559 0.0
H1543 H 0.19517 0.726 0.24013 0.0
H1544 H 0.1753 0.69674 0.21774 0.0
H1545 H 0.18722 0.65178 0.24006 0.0
H1546 H 0.13462 0.57332 0.16143 0.0
H1547 H 0.14352 0.5955 0.19799 0.0
C1548 C 0.10206 0.1578 0.30337 0.0
C1549 C 0.09678 0.14998 0.32874 0.0
C1550 C 0.10618 0.14864 0.2836 0.0
C1551 C 0.12193 0.11457 0.275 0.0
H1552 H 0.11057 0.11741 0.20138 0.0
C1553 C 0.13369 0.0911 0.16384 0.0
C1554 C 0.15271 0.09663 0.1659 0.0
C1555 C 0.12459 0.09458 0.18448 0.0
C1556 C 0.11363 0.11621 0.22186 0.0
H1557 H 0.09104 0.12604 0.35297 0.0
H1558 H 0.09806 0.10994 0.31831 0.0
H1559 H 0.09789 0.12868 0.23552 0.0
H1560 H 0.17693 0.10962 0.19161 0.0
H1561 H 0.16118 0.11591 0.22732 0.0
H1562 H 0.13768 0.1021 0.26132 0.0
C1563 C 0.09928 0.12332 0.31385 0.0
C1564 C 0.10655 0.1229 0.24142 0.0
C1565 C 0.09516 0.1325 0.33367 0.0
C1566 C 0.16227 0.10517 0.18936 0.0
C1567 C 0.15319 0.10867 0.20995 0.0
C1568 C 0.12899 0.10785 0.25544 0.0
C1569 C 0.10507 0.13141 0.28868 0.0
C1570 C 0.11092 0.1225 0.26817 0.0
C1571 C 0.13432 0.10367 0.20761 0.0
C1572 C 0.12523 0.10894 0.2286 0.0
H1573 H 0.10345 0.17125 0.29888 0.0
H1574 H 0.11085 0.15541 0.26457 0.0
H1575 H 0.1257 0.11416 0.29539 0.0
H1576 H 0.12589 0.08438 0.1461 0.0
H1577 H 0.10998 0.09031 0.1822 0.0
C1578 C 0.84255 0.9373 0.30804 0.0
C1579 C 0.84432 0.94401 0.334 0.0
C1580 C 0.85073 0.94969 0.28695 0.0
C1581 C 0.88427 -0.00042 0.27044 0.0
H1582 H 0.85307 0.98833 0.20824 0.0
C1583 C 0.89147 0.05486 0.19413 0.0
C1584 C 0.88941 0.04989 0.16726 0.0
C1585 C 0.88856 0.04171 0.21365 0.0
C1586 C 0.86208 0.99155 0.22529 0.0
H1587 H 0.85665 0.96896 0.3583 0.0
H1588 H 0.87042 0.99055 0.32158 0.0
H1589 H 0.8434 0.9656 0.24381 0.0
H1590 H 0.88325 0.02737 0.13979 0.0
H1591 H 0.87802 0.00441 0.17392 0.0
H1592 H 0.90254 0.02594 0.25213 0.0
C1593 C 0.86305 0.97573 0.31743 0.0
C1594 C 0.85658 0.97849 0.2457 0.0
C1595 C 0.85504 0.96332 0.33853 0.0
C1596 C 0.88489 0.03164 0.16031 0.0
C1597 C 0.88182 0.01846 0.17983 0.0
C1598 C 0.88968 0.01273 0.2501 0.0
C1599 C 0.86069 0.9691 0.2913 0.0
C1600 C 0.86748 0.98241 0.26869 0.0
C1601 C 0.88339 0.02329 0.20671 0.0
C1602 C 0.87852 0.00892 0.22746 0.0
H1603 H 0.83453 0.92247 0.30393 0.0
H1604 H 0.84896 0.94406 0.26716 0.0
H1605 H 0.89318 0.00295 0.28763 0.0
H1606 H 0.89501 0.06882 0.20014 0.0
H1607 H 0.88972 0.04579 0.23422 0.0
C1608 C 0.94103 0.83417 0.19892 0.0
C1609 C 0.94289 0.84443 0.17584 0.0
C1610 C 0.95477 0.84146 0.21847 0.0
C1611 C 0.9944 0.88473 0.24452 0.0
H1612 H 0.01058 0.85115 0.27121 0.0
C1613 C 0.04265 0.90055 0.33579 0.0
C1614 C 0.05639 0.89531 0.33414 0.0
C1615 C 0.02948 0.89583 0.31561 0.0
C1616 C 0.00632 0.86075 0.26382 0.0
H1617 H 0.9603 0.87071 0.1557 0.0
H1618 H 0.98431 0.88347 0.19 0.0
H1619 H 0.98584 0.84006 0.23827 0.0
H1620 H 0.06747 0.88161 0.30953 0.0
H1621 H 0.0445 0.87341 0.27443 0.0
H1622 H 0.01501 0.90544 0.27015 0.0
C1623 C 0.97218 0.86978 0.1929 0.0
C1624 C 0.992 0.85433 0.24519 0.0
C1625 C 0.95847 0.86244 0.17322 0.0
C1626 C 0.05702 0.88578 0.31151 0.0
C1627 C 0.0438 0.88098 0.29145 0.0
C1628 C 0.00867 0.89113 0.26339 0.0
C1629 C 0.97064 0.8592 0.21548 0.0
C1630 C 0.98585 0.86622 0.23536 0.0
C1631 C 0.02971 0.88569 0.29347 0.0
C1632 C 0.01479 0.87919 0.27318 0.0
H1633 H 0.92917 0.82029 0.20167 0.0
H1634 H 0.95305 0.8331 0.23586 0.0
H1635 H 0.98989 0.89418 0.23737 0.0
H1636 H 0.04181 0.90794 0.35292 0.0
H1637 H 0.01872 0.89955 0.31779 0.0
C1638 C 0.90694 0.86518 0.67101 0.0
C1639 C 0.90279 0.84682 0.67639 0.0
C1640 C 0.90326 0.87533 0.6898 0.0
C1641 C 0.89199 0.87599 0.76085 0.0
H1642 H 0.86713 0.90216 0.7353 0.0
C1643 C 0.83825 0.89989 0.80288 0.0
C1644 C 0.84618 0.90694 0.82777 0.0
C1645 C 0.84802 0.89592 0.7839 0.0
C1646 C 0.87406 0.89492 0.74276 0.0
H1647 H 0.89208 0.82495 0.70607 0.0
H1648 H 0.88543 0.84247 0.73857 0.0
H1649 H 0.87908 0.88843 0.70378 0.0
H1650 H 0.871 0.91619 0.85178 0.0
H1651 H 0.88817 0.90948 0.81847 0.0
H1652 H 0.8861 0.88162 0.79982 0.0
C1653 C 0.89176 0.84917 0.72001 0.0
C1654 C 0.88112 0.88724 0.72468 0.0
C1655 C 0.89545 0.83906 0.70127 0.0
C1656 C 0.86443 0.91065 0.83286 0.0
C1657 C 0.87424 0.90671 0.81383 0.0
C1658 C 0.88488 0.88363 0.77892 0.0
C1659 C 0.89536 0.86733 0.71438 0.0
C1660 C 0.88981 0.87733 0.73352 0.0
C1661 C 0.866 0.89896 0.78931 0.0
C1662 C 0.87548 0.89284 0.7701 0.0
H1663 H 0.91271 0.87161 0.65209 0.0
H1664 H 0.90644 0.88937 0.68498 0.0
H1665 H 0.89885 0.86869 0.76831 0.0
H1666 H 0.82422 0.89687 0.79828 0.0
H1667 H 0.84114 0.88974 0.76538 0.0
C1668 C 0.15987 0.05388 0.6949 0.0
C1669 C 0.15161 0.05178 0.66993 0.0
C1670 C 0.15108 0.04023 0.71434 0.0
C1671 C 0.12619 0.01333 0.75647 0.0
H1672 H 0.10394 0.96169 0.73423 0.0
C1673 C 0.09374 0.95305 0.83185 0.0
C1674 C 0.09818 0.93885 0.82848 0.0
C1675 C 0.09762 0.9662 0.81192 0.0
C1676 C 0.11014 0.97604 0.74078 0.0
H1677 H 0.12725 0.034 0.64616 0.0
H1678 H 0.11176 0.01029 0.68028 0.0
H1679 H 0.11596 0.98639 0.70115 0.0
H1680 H 0.10971 0.92701 0.80121 0.0
H1681 H 0.1168 0.95011 0.76669 0.0
H1682 H 0.12119 0.00306 0.79614 0.0
C1683 C 0.12522 0.02235 0.68464 0.0
C1684 C 0.11682 0.9902 0.72179 0.0
C1685 C 0.13405 0.036 0.66514 0.0
C1686 C 0.10609 0.93776 0.80444 0.0
C1687 C 0.11005 0.95095 0.78455 0.0
C1688 C 0.11958 -0.00083 0.77546 0.0
C1689 C 0.13376 0.02417 0.70934 0.0
C1690 C 0.12519 0.00904 0.72942 0.0
C1691 C 0.10611 0.9655 0.78819 0.0
C1692 C 0.11172 0.98037 0.76787 0.0
H1693 H 0.1734 0.06585 0.69925 0.0
H1694 H 0.15819 0.04199 0.73299 0.0
H1695 H 0.13232 0.02767 0.76303 0.0
H1696 H 0.0875 0.9542 0.85007 0.0
H1697 H 0.09411 0.97702 0.8152 0.0
C1698 C 0.95616 0.09892 0.66776 0.0
C1699 C 0.94145 0.10279 0.66926 0.0
C1700 C 0.96989 0.10529 0.68741 0.0
C1701 C 0.99176 0.14229 0.73723 0.0
H1702 H 0.01164 0.11229 0.76586 0.0
C1703 C 0.0563 0.17427 0.80451 0.0
C1704 C 0.05488 0.16438 0.8278 0.0
C1705 C 0.04313 0.16596 0.78437 0.0
C1706 C 0.00618 0.1208 0.75807 0.0
H1707 H 0.92929 0.11583 0.69308 0.0
H1708 H 0.95317 0.12687 0.72727 0.0
H1709 H 0.98651 0.09877 0.73311 0.0
H1710 H 0.03892 0.13773 0.84774 0.0
H1711 H 0.01588 0.12324 0.81253 0.0
H1712 H 0.01118 0.16424 0.76229 0.0
C1713 C 0.95422 0.11912 0.71074 0.0
C1714 C 0.9919 0.11312 0.73921 0.0
C1715 C 0.94048 0.11269 0.69121 0.0
C1716 C 0.04039 0.14575 0.83007 0.0
C1717 C 0.02723 0.13741 0.80985 0.0
C1718 C 0.00606 0.15 0.7559 0.0
C1719 C 0.96923 0.11574 0.70886 0.0
C1720 C 0.98447 0.12376 0.72872 0.0
C1721 C 0.02827 0.14755 0.78701 0.0
C1722 C 0.01341 0.13934 0.7666 0.0
H1723 H 0.9573 0.0913 0.65113 0.0
H1724 H 0.98134 0.10256 0.68536 0.0
H1725 H 0.98649 0.15093 0.72927 0.0
H1726 H 0.06735 0.1886 0.80203 0.0
H1727 H 0.04446 0.17403 0.76681 0.0
C1728 C 0.77264 0.49792 0.62392 0.0
C1729 C 0.76464 0.48824 0.64754 0.0
C1730 C 0.77844 0.48999 0.60442 0.0
C1731 C 0.7735 0.44604 0.57936 0.0
H1732 H 0.82363 0.47813 0.55267 0.0
C1733 C 0.80499 0.42894 0.48811 0.0
C1734 C 0.82367 0.43322 0.49012 0.0
C1735 C 0.79679 0.43396 0.50829 0.0
C1736 C 0.80966 0.46896 0.56006 0.0
H1737 H 0.75564 0.46226 0.66862 0.0
H1738 H 0.76569 0.44836 0.63433 0.0
H1739 H 0.81061 0.49019 0.58523 0.0
H1740 H 0.84817 0.44549 0.51535 0.0
H1741 H 0.83387 0.45433 0.55041 0.0
H1742 H 0.77262 0.42481 0.55399 0.0
C1743 C 0.76749 0.46211 0.63104 0.0
C1744 C 0.80213 0.47593 0.57847 0.0
C1745 C 0.76181 0.47011 0.6507 0.0
C1746 C 0.83378 0.44206 0.51311 0.0
C1747 C 0.82563 0.44721 0.53315 0.0
C1748 C 0.78098 0.43911 0.56066 0.0
C1749 C 0.77625 0.47216 0.60798 0.0
C1750 C 0.78398 0.46457 0.58829 0.0
C1751 C 0.80716 0.44349 0.53075 0.0
C1752 C 0.79916 0.45051 0.5509 0.0
H1753 H 0.77495 0.51187 0.62077 0.0
H1754 H 0.78491 0.49794 0.58666 0.0
H1755 H 0.75945 0.43701 0.58656 0.0
H1756 H 0.79681 0.42208 0.47069 0.0
H1757 H 0.78256 0.431 0.50585 0.0
C1758 C 0.52767 0.2894 0.65271 0.0
C1759 C 0.50949 0.27458 0.64805 0.0
C1760 C 0.53711 0.303 0.63335 0.0
C1761 C 0.53612 0.31359 0.56207 0.0
H1762 H 0.56008 0.36492 0.58625 0.0
C1763 C 0.55498 0.38958 0.51849 0.0
C1764 C 0.56215 0.38899 0.49355 0.0
C1765 C 0.55196 0.37621 0.53767 0.0
C1766 C 0.55345 0.35066 0.57917 0.0
H1767 H 0.48728 0.26203 0.619 0.0
H1768 H 0.50358 0.2858 0.5855 0.0
H1769 H 0.54811 0.33965 0.61845 0.0
H1770 H 0.57253 0.37438 0.46959 0.0
H1771 H 0.56744 0.35114 0.50322 0.0
H1772 H 0.54058 0.32455 0.5228 0.0
C1773 C 0.51068 0.28685 0.60395 0.0
C1774 C 0.54679 0.33617 0.59764 0.0
C1775 C 0.50126 0.27327 0.62326 0.0
C1776 C 0.56687 0.37515 0.48855 0.0
C1777 C 0.56387 0.36177 0.50777 0.0
C1778 C 0.54274 0.32808 0.5436 0.0
C1779 C 0.52858 0.30206 0.60891 0.0
C1780 C 0.53767 0.31744 0.58931 0.0
C1781 C 0.55608 0.36197 0.5324 0.0
C1782 C 0.55111 0.34677 0.55194 0.0
H1783 H 0.53446 0.29076 0.67154 0.0
H1784 H 0.551 0.3144 0.63766 0.0
H1785 H 0.5294 0.29933 0.55499 0.0
H1786 H 0.55119 0.40006 0.52302 0.0
H1787 H 0.54572 0.37665 0.55627 0.0
C1788 C 0.61269 0.18543 0.5239 0.0
C1789 C 0.60384 0.16601 0.52016 0.0
C1790 C 0.62702 0.19423 0.54251 0.0
C1791 C 0.64757 0.18441 0.60126 0.0
H1792 H 0.69208 0.23078 0.58249 0.0
C1793 C 0.71662 0.21158 0.65738 0.0
C1794 C 0.7265 0.23063 0.66401 0.0
C1795 C 0.70127 0.20463 0.64046 0.0
C1796 C 0.67964 0.21795 0.58811 0.0
H1797 H 0.60304 0.1406 0.5331 0.0
H1798 H 0.62811 0.1559 0.56504 0.0
H1799 H 0.66562 0.21691 0.55205 0.0
H1800 H 0.7282 0.25739 0.6577 0.0
H1801 H 0.70137 0.24519 0.62787 0.0
H1802 H 0.66177 0.18522 0.63701 0.0
C1803 C 0.62381 0.16435 0.55403 0.0
C1804 C 0.66447 0.21002 0.57073 0.0
C1805 C 0.60949 0.15557 0.53555 0.0
C1806 C 0.72087 0.24264 0.65299 0.0
C1807 C 0.70556 0.23568 0.63585 0.0
C1808 C 0.66275 0.19226 0.61852 0.0
C1809 C 0.63278 0.18378 0.55771 0.0
C1810 C 0.64837 0.19301 0.57694 0.0
C1811 C 0.69552 0.21658 0.62963 0.0
C1812 C 0.67904 0.20896 0.61196 0.0
H1813 H 0.60862 0.19386 0.51241 0.0
H1814 H 0.63351 0.2092 0.54507 0.0
H1815 H 0.63523 0.17151 0.60692 0.0
H1816 H 0.72059 0.20194 0.66547 0.0
H1817 H 0.69397 0.18989 0.63569 0.0
C1818 C 0.54817 0.16428 0.02529 0.0
C1819 C 0.55988 0.17572 0.00498 0.0
C1820 C 0.54351 0.17197 0.04645 0.0
C1821 C 0.54155 0.21425 0.06562 0.0
H1822 H 0.53101 0.19059 0.13454 0.0
C1823 C 0.51864 0.23997 0.15836 0.0
C1824 C 0.50183 0.22598 0.16943 0.0
C1825 C 0.52784 0.23548 0.13898 0.0
C1826 C 0.53398 0.19736 0.1154 0.0
H1827 H 0.57639 0.20431 0.99139 0.0
H1828 H 0.56875 0.21787 0.02884 0.0
H1829 H 0.54416 0.1801 0.09995 0.0
H1830 H 0.48162 0.19632 0.16917 0.0
H1831 H 0.49793 0.1885 0.1359 0.0
H1832 H 0.53147 0.23164 0.08152 0.0
C1833 C 0.56274 0.20286 0.02806 0.0
C1834 C 0.54138 0.19129 0.09549 0.0
C1835 C 0.56723 0.19511 0.00666 0.0
C1836 C 0.4945 0.20743 0.16094 0.0
C1837 C 0.50388 0.20291 0.14204 0.0
C1838 C 0.53442 0.22053 0.08573 0.0
C1839 C 0.55064 0.19136 0.0481 0.0
C1840 C 0.5448 0.1993 0.07011 0.0
C1841 C 0.52059 0.21687 0.13086 0.0
C1842 C 0.53016 0.21182 0.11056 0.0
H1843 H 0.54216 0.14926 0.02451 0.0
H1844 H 0.53384 0.16258 0.06112 0.0
H1845 H 0.54378 0.22065 0.0463 0.0
H1846 H 0.52458 0.25438 0.1645 0.0
H1847 H 0.54074 0.24646 0.1306 0.0
C1848 C 0.81508 0.39739 0.03633 0.0
C1849 C 0.8253 0.39612 0.01504 0.0
C1850 C 0.80503 0.38214 0.05318 0.0
C1851 C 0.78454 0.33089 0.057 0.0
H1852 H 0.78846 0.33898 0.13277 0.0
C1853 C 0.76478 0.27142 0.13199 0.0
C1854 C 0.75649 0.27191 0.15599 0.0
C1855 C 0.77112 0.28624 0.11411 0.0
C1856 C 0.78695 0.33649 0.11166 0.0
H1857 H 0.83292 0.37777 0.9947 0.0
H1858 H 0.81556 0.35134 0.02409 0.0
H1859 H 0.80343 0.36566 0.10297 0.0
H1860 H 0.74774 0.28809 0.17961 0.0
H1861 H 0.7586 0.31384 0.14825 0.0
H1862 H 0.76827 0.30171 0.06566 0.0
C1863 C 0.8151 0.36402 0.02762 0.0
C1864 C 0.79555 0.35179 0.09459 0.0
C1865 C 0.82518 0.37925 0.01088 0.0
C1866 C 0.75416 0.28731 0.16135 0.0
C1867 C 0.76049 0.30213 0.14346 0.0
C1868 C 0.77592 0.3156 0.07406 0.0
C1869 C 0.80494 0.36529 0.04898 0.0
C1870 C 0.79467 0.34915 0.06708 0.0
C1871 C 0.76927 0.30188 0.11979 0.0
C1872 C 0.77723 0.31819 0.1016 0.0
H1873 H 0.81486 0.41018 0.04005 0.0
H1874 H 0.79722 0.3835 0.06936 0.0
H1875 H 0.78334 0.32842 0.03589 0.0
H1876 H 0.76682 0.25979 0.12724 0.0
H1877 H 0.77801 0.28568 0.09622 0.0
C1878 C 0.61677 0.44695 0.00718 0.0
C1879 C 0.59909 0.43149 0.01247 0.0
C1880 C 0.63126 0.45267 0.02545 0.0
C1881 C 0.63975 0.4503 0.09636 0.0
H1882 H 0.69094 0.46978 0.07343 0.0
C1883 C 0.70057 0.47668 0.17075 0.0
C1884 C 0.71631 0.49401 0.16472 0.0
C1885 C 0.68667 0.46715 0.15184 0.0
C1886 C 0.67672 0.46446 0.08012 0.0
H1887 H 0.58288 0.40967 0.04091 0.0
H1888 H 0.60828 0.41957 0.07275 0.0
H1889 H 0.66574 0.45637 0.04102 0.0
H1890 H 0.73009 0.51462 0.1338 0.0
H1891 H 0.70581 0.49803 0.10088 0.0
H1892 H 0.65076 0.45861 0.1354 0.0
C1893 C 0.61084 0.42741 0.05458 0.0
C1894 C 0.66229 0.45679 0.06156 0.0
C1895 C 0.59631 0.42168 0.03628 0.0
C1896 C 0.71813 0.50131 0.1391 0.0
C1897 C 0.70426 0.49174 0.12017 0.0
C1898 C 0.65418 0.45792 0.11492 0.0
C1899 C 0.62845 0.44307 0.04946 0.0
C1900 C 0.64365 0.44987 0.06941 0.0
C1901 C 0.68824 0.47469 0.12645 0.0
C1902 C 0.67285 0.46532 0.10696 0.0
H1903 H 0.6194 0.45485 0.98906 0.0
H1904 H 0.64455 0.46495 0.02103 0.0
H1905 H 0.6256 0.44534 0.10305 0.0
H1906 H 0.69877 0.47062 0.19026 0.0
H1907 H 0.67461 0.45392 0.15716 0.0
C1908 C 0.44787 0.83609 0.96824 0.0
C1909 C 0.43635 0.82598 0.98959 0.0
C1910 C 0.45307 0.82722 0.94939 0.0
C1911 C 0.44129 0.78185 0.92063 0.0
H1912 H 0.49417 0.80666 0.90434 0.0
C1913 C 0.47357 0.76163 0.83354 0.0
C1914 C 0.49043 0.76192 0.83859 0.0
C1915 C 0.46557 0.76759 0.8528 0.0
C1916 C 0.47939 0.79949 0.90882 0.0
H1917 H 0.42059 0.79846 0.00722 0.0
H1918 H 0.42962 0.78294 0.97404 0.0
H1919 H 0.48256 0.82093 0.93551 0.0
H1920 H 0.51166 0.76791 0.86825 0.0
H1921 H 0.49773 0.77837 0.90171 0.0
H1922 H 0.43819 0.76041 0.89372 0.0
C1923 C 0.43463 0.79774 0.97203 0.0
C1924 C 0.47271 0.80776 0.92644 0.0
C1925 C 0.42954 0.80665 0.99106 0.0
C1926 C 0.49872 0.7676 0.86365 0.0
C1927 C 0.4908 0.77368 0.88278 0.0
C1928 C 0.44796 0.77364 0.90272 0.0
C1929 C 0.44676 0.80803 0.95132 0.0
C1930 C 0.45361 0.79906 0.9325 0.0
C1931 C 0.47435 0.77409 0.87738 0.0
C1932 C 0.46709 0.78238 0.89671 0.0
H1933 H 0.4533 0.85097 0.96642 0.0
H1934 H 0.46222 0.83544 0.93341 0.0
H1935 H 0.42648 0.77488 0.92491 0.0
H1936 H 0.4668 0.75727 0.81447 0.0
H1937 H 0.45292 0.76783 0.84805 0.0
C1938 C 0.22769 0.70103 0.8349 0.0
C1939 C 0.22514 0.71653 0.83751 0.0
C1940 C 0.22264 0.68803 0.85539 0.0
C1941 C 0.21125 0.68109 0.92691 0.0
H1942 H 0.18394 0.62864 0.90801 0.0
C1943 C 0.15824 0.60628 0.97907 0.0
C1944 C 0.16755 0.60836 0.00315 0.0
C1945 C 0.16696 0.61904 0.95853 0.0
C1946 C 0.19151 0.64323 0.91362 0.0
H1947 H 0.21571 0.73077 0.86399 0.0
H1948 H 0.20675 0.70805 0.89955 0.0
H1949 H 0.19613 0.65224 0.87331 0.0
H1950 H 0.19358 0.62512 0.02419 0.0
H1951 H 0.20885 0.64727 0.98823 0.0
H1952 H 0.20604 0.67211 0.96721 0.0
C1953 C 0.21284 0.70601 0.8818 0.0
C1954 C 0.19869 0.65676 0.89373 0.0
C1955 C 0.21788 0.719 0.86133 0.0
C1956 C 0.18597 0.62317 0.00595 0.0
C1957 C 0.19469 0.63594 0.98539 0.0
C1958 C 0.20407 0.66756 0.9468 0.0
C1959 C 0.21495 0.69025 0.87897 0.0
C1960 C 0.20845 0.67586 0.90013 0.0
C1961 C 0.1852 0.63417 0.96157 0.0
C1962 C 0.19391 0.64847 0.9404 0.0
H1963 H 0.23332 0.69874 0.81686 0.0
H1964 H 0.22469 0.67618 0.85273 0.0
H1965 H 0.21889 0.69568 0.93253 0.0
H1966 H 0.14404 0.59503 0.97625 0.0
H1967 H 0.15916 0.61738 0.94056 0.0
C1968 C 0.39502 0.55469 0.98587 0.0
C1969 C 0.38986 0.55753 0.01117 0.0
C1970 C 0.383 0.55073 0.96438 0.0
C1971 C 0.3331 0.53083 0.94938 0.0
H1972 H 0.35132 0.5478 0.87837 0.0
C1973 C 0.28371 0.50797 0.85899 0.0
C1974 C 0.2897 0.50187 0.83711 0.0
C1975 C 0.29593 0.51729 0.87993 0.0
C1976 C 0.34603 0.54291 0.89809 0.0
H1977 H 0.36836 0.55922 0.03349 0.0
H1978 H 0.34749 0.55254 0.9959 0.0
H1979 H 0.37289 0.55998 0.91561 0.0
H1980 H 0.31335 0.5012 0.81974 0.0
H1981 H 0.33454 0.51734 0.85617 0.0
H1982 H 0.30631 0.51351 0.9318 0.0
C1983 C 0.3607 0.55305 0.99278 0.0
C1984 C 0.35839 0.54987 0.91942 0.0
C1985 C 0.37271 0.55699 0.0143 0.0
C1986 C 0.30826 0.50568 0.83631 0.0
C1987 C 0.32047 0.51507 0.85712 0.0
C1988 C 0.32073 0.52391 0.92806 0.0
C1989 C 0.36556 0.54956 0.96766 0.0
C1990 C 0.35214 0.54364 0.94527 0.0
C1991 C 0.31441 0.52081 0.87929 0.0
C1992 C 0.32713 0.52961 0.90212 0.0
H1993 H 0.40812 0.55499 0.98276 0.0
H1994 H 0.38712 0.54789 0.9454 0.0
H1995 H 0.32785 0.52553 0.96898 0.0
H1996 H 0.2695 0.50529 0.86017 0.0
H1997 H 0.2909 0.5217 0.89665 0.0
C1998 C 0.18993 0.56503 0.50329 0.0
C1999 C 0.17107 0.55991 0.50019 0.0
C2000 C 0.1994 0.56158 0.48316 0.0
C2001 C 0.21082 0.54007 0.44615 0.0
H2002 H 0.20098 0.54373 0.37212 0.0
C2003 C 0.22269 0.49869 0.3646 0.0
C2004 C 0.22847 0.50673 0.33942 0.0
C2005 C 0.2188 0.50798 0.38444 0.0
C2006 C 0.20414 0.54288 0.39267 0.0
H2007 H 0.14755 0.54767 0.47319 0.0
H2008 H 0.16395 0.54143 0.43834 0.0
H2009 H 0.18848 0.55559 0.4057 0.0
H2010 H 0.23552 0.53125 0.31572 0.0
H2011 H 0.2289 0.54757 0.35051 0.0
H2012 H 0.22644 0.52731 0.43313 0.0
C2013 C 0.17152 0.54832 0.45616 0.0
C2014 C 0.19677 0.54948 0.41194 0.0
C2015 C 0.16207 0.55178 0.47624 0.0
C2016 C 0.23099 0.52461 0.33486 0.0
C2017 C 0.22709 0.53392 0.35474 0.0
C2018 C 0.21821 0.53349 0.42688 0.0
C2019 C 0.19023 0.55295 0.4595 0.0
C2020 C 0.1997 0.5478 0.43893 0.0
C2021 C 0.22063 0.52556 0.37961 0.0
C2022 C 0.21463 0.53447 0.39993 0.0
H2023 H 0.19731 0.57142 0.52144 0.0
H2024 H 0.21387 0.56554 0.48622 0.0
H2025 H 0.21325 0.53843 0.46676 0.0
H2026 H 0.22062 0.48494 0.36881 0.0
H2027 H 0.21364 0.50102 0.40324 0.0
C2028 C 0.42459 0.62912 0.49081 0.0
C2029 C 0.42919 0.61525 0.48527 0.0
C2030 C 0.42913 0.64368 0.47294 0.0
C2031 C 0.45242 0.67899 0.44069 0.0
H2032 H 0.4497 0.67052 0.36504 0.0
C2033 C 0.49649 0.73671 0.3656 0.0
C2034 C 0.48898 0.73623 0.34051 0.0
C2035 C 0.48646 0.72255 0.38394 0.0
C2036 C 0.45029 0.67314 0.38609 0.0
H2037 H 0.44178 0.60555 0.45633 0.0
H2038 H 0.44987 0.63097 0.42538 0.0
H2039 H 0.43662 0.64397 0.3951 0.0
H2040 H 0.46461 0.72105 0.31554 0.0
H2041 H 0.44701 0.69643 0.34771 0.0
H2042 H 0.46618 0.70817 0.43165 0.0
C2043 C 0.44255 0.63052 0.44337 0.0
C2044 C 0.443 0.65792 0.40332 0.0
C2045 C 0.43803 0.616 0.46122 0.0
C2046 C 0.47085 0.72176 0.33463 0.0
C2047 C 0.4608 0.70759 0.353 0.0
C2048 C 0.45971 0.69422 0.42344 0.0
C2049 C 0.43833 0.64463 0.44912 0.0
C2050 C 0.44432 0.66068 0.43082 0.0
C2051 C 0.46866 0.70761 0.37764 0.0
C2052 C 0.45906 0.69148 0.39595 0.0
H2053 H 0.4177 0.62891 0.50913 0.0
H2054 H 0.42551 0.65422 0.47781 0.0
H2055 H 0.45377 0.68161 0.46177 0.0
H2056 H 0.51041 0.74767 0.37079 0.0
H2057 H 0.49302 0.7229 0.40262 0.0
C2058 C 0.36651 0.80126 0.50715 0.0
C2059 C 0.38543 0.81373 0.50162 0.0
C2060 C 0.35353 0.79353 0.48665 0.0
C2061 C 0.34825 0.78453 0.41488 0.0
H2062 H 0.3051 0.79088 0.42238 0.0
C2063 C 0.30328 0.78157 0.326 0.0
C2064 C 0.28412 0.77477 0.32984 0.0
C2065 C 0.31481 0.78355 0.34737 0.0
C2066 C 0.31683 0.7886 0.42008 0.0
H2067 H 0.40571 0.82708 0.47021 0.0
H2068 H 0.38304 0.81346 0.43442 0.0
H2069 H 0.32675 0.79872 0.45906 0.0
H2070 H 0.26187 0.76389 0.35891 0.0
H2071 H 0.28189 0.76683 0.39609 0.0
H2072 H 0.33839 0.77446 0.37587 0.0
C2073 C 0.37827 0.8097 0.45462 0.0
C2074 C 0.32927 0.79316 0.44113 0.0
C2075 C 0.39123 0.81758 0.47513 0.0
C2076 C 0.27662 0.76937 0.35536 0.0
C2077 C 0.28813 0.77115 0.3767 0.0
C2078 C 0.3357 0.77978 0.39388 0.0
C2079 C 0.35923 0.79794 0.4602 0.0
C2080 C 0.34525 0.79144 0.43862 0.0
C2081 C 0.30743 0.77857 0.37306 0.0
C2082 C 0.31998 0.78205 0.39606 0.0
H2083 H 0.36159 0.79795 0.52735 0.0
H2084 H 0.33897 0.78434 0.49149 0.0
H2085 H 0.36037 0.78289 0.41252 0.0
H2086 H 0.3095 0.78591 0.30659 0.0
H2087 H 0.32963 0.78957 0.34382 0.0
C2088 C 0.26097 0.13533 0.13022 0.0
C2089 C 0.24938 0.11877 0.14412 0.0
C2090 C 0.28011 0.14541 0.13524 0.0
C2091 C 0.31866 0.14071 0.16343 0.0
H2092 H 0.3438 0.19475 0.16725 0.0
C2093 C 0.394 0.18514 0.20157 0.0
C2094 C 0.40588 0.20171 0.18787 0.0
C2095 C 0.375 0.17499 0.19563 0.0
C2096 C 0.33702 0.17969 0.16593 0.0
H2097 H 0.24881 0.09982 0.17425 0.0
H2098 H 0.28224 0.11755 0.18321 0.0
H2099 H 0.31037 0.17706 0.15838 0.0
H2100 H 0.40712 0.22056 0.15709 0.0
H2101 H 0.37388 0.20273 0.14663 0.0
H2102 H 0.34531 0.14334 0.17113 0.0
C2103 C 0.27653 0.1226 0.16818 0.0
C2104 C 0.31787 0.16955 0.16086 0.0
C2105 C 0.25736 0.1125 0.16316 0.0
C2106 C 0.39834 0.20787 0.16804 0.0
C2107 C 0.37929 0.19772 0.16214 0.0
C2108 C 0.3378 0.15085 0.16854 0.0
C2109 C 0.28811 0.13917 0.15428 0.0
C2110 C 0.30847 0.14994 0.1596 0.0
C2111 C 0.36743 0.18117 0.17589 0.0
C2112 C 0.34718 0.17044 0.1699 0.0
H2113 H 0.25528 0.14051 0.11535 0.0
H2114 H 0.28869 0.15798 0.12394 0.0
H2115 H 0.31189 0.12564 0.16216 0.0
H2116 H 0.39935 0.18001 0.21701 0.0
H2117 H 0.36618 0.16243 0.20681 0.0
C2118 C 0.77977 0.19051 0.17183 0.0
C2119 C 0.77767 0.19315 0.19878 0.0
C2120 C 0.78917 0.18122 0.16397 0.0
C2121 C 0.82359 0.16864 0.18792 0.0
H2122 H 0.80666 0.13517 0.12768 0.0
C2123 C 0.85725 0.12467 0.15814 0.0
C2124 C 0.8607 0.12408 0.13105 0.0
C2125 C 0.84666 0.13253 0.1668 0.0
C2126 C 0.81163 0.1446 0.14441 0.0
H2127 H 0.78339 0.18769 0.23863 0.0
H2128 H 0.79952 0.17122 0.22492 0.0
H2129 H 0.78863 0.14955 0.14223 0.0
H2130 H 0.85568 0.13123 0.09181 0.0
H2131 H 0.83726 0.14499 0.10697 0.0
H2132 H 0.84658 0.16367 0.19009 0.0
C2133 C 0.79421 0.17665 0.20985 0.0
C2134 C 0.80132 0.15285 0.15274 0.0
C2135 C 0.78486 0.18599 0.2177 0.0
C2136 C 0.85328 0.13146 0.11282 0.0
C2137 C 0.84262 0.13924 0.12147 0.0
C2138 C 0.83386 0.16034 0.17965 0.0
C2139 C 0.79662 0.17429 0.18289 0.0
C2140 C 0.80724 0.16504 0.17451 0.0
C2141 C 0.83921 0.13987 0.14856 0.0
C2142 C 0.82805 0.14832 0.15772 0.0
H2143 H 0.77443 0.1959 0.15674 0.0
H2144 H 0.79098 0.17985 0.14305 0.0
H2145 H 0.82871 0.1782 0.20449 0.0
H2146 H 0.86274 0.11907 0.1727 0.0
H2147 H 0.84411 0.13266 0.18778 0.0
C2148 C 0.80461 0.60898 0.23098 0.0
C2149 C 0.79459 0.59579 0.21121 0.0
C2150 C 0.8139 0.62805 0.22528 0.0
C2151 C 0.81496 0.66217 0.17713 0.0
H2152 H 0.86365 0.69477 0.20777 0.0
C2153 C 0.86152 0.73909 0.14545 0.0
C2154 C 0.87062 0.75221 0.16569 0.0
C2155 C 0.852 0.72 0.15103 0.0
C2156 C 0.84998 0.68587 0.19929 0.0
H2157 H 0.78663 0.59227 0.16984 0.0
H2158 H 0.8031 0.62556 0.1598 0.0
H2159 H 0.84776 0.6614 0.21714 0.0
H2160 H 0.87672 0.75558 0.2077 0.0
H2161 H 0.86007 0.72222 0.2174 0.0
H2162 H 0.8173 0.68667 0.1591 0.0
C2163 C 0.80351 0.62116 0.17983 0.0
C2164 C 0.84086 0.66675 0.20466 0.0
C2165 C 0.79416 0.60208 0.18555 0.0
C2166 C 0.86988 0.74584 0.19165 0.0
C2167 C 0.86044 0.72673 0.1972 0.0
C2168 C 0.82412 0.68128 0.17167 0.0
C2169 C 0.81345 0.63438 0.19965 0.0
C2170 C 0.82323 0.65468 0.19369 0.0
C2171 C 0.85145 0.71361 0.17693 0.0
C2172 C 0.8417 0.69333 0.18274 0.0
H2173 H 0.80515 0.60461 0.25098 0.0
H2174 H 0.8212 0.63785 0.2411 0.0
H2175 H 0.80126 0.65331 0.1687 0.0
H2176 H 0.86182 0.74355 0.12524 0.0
H2177 H 0.84535 0.71021 0.13497 0.0
C2178 C 0.20006 0.38913 0.28353 0.0
C2179 C 0.20028 0.40348 0.29867 0.0
C2180 C 0.18992 0.3706 0.29199 0.0
C2181 C 0.16922 0.34178 0.35155 0.0
H2182 H 0.14033 0.30263 0.30086 0.0
C2183 C 0.11836 0.26571 0.38308 0.0
C2184 C 0.11848 0.25157 0.36784 0.0
C2185 C 0.12813 0.28429 0.37467 0.0
C2186 C 0.14848 0.31339 0.3152 0.0
H2187 H 0.19 0.40962 0.33459 0.0
H2188 H 0.17222 0.37727 0.34921 0.0
H2189 H 0.15789 0.335 0.28609 0.0
H2190 H 0.12898 0.24585 0.3318 0.0
H2191 H 0.14612 0.27824 0.31729 0.0
H2192 H 0.15982 0.32016 0.38065 0.0
C2193 C 0.18005 0.38037 0.33095 0.0
C2194 C 0.15854 0.33192 0.30675 0.0
C2195 C 0.19017 0.3989 0.32248 0.0
C2196 C 0.12854 0.2564 0.34398 0.0
C2197 C 0.13829 0.27495 0.33557 0.0
C2198 C 0.15915 0.32324 0.36001 0.0
C2199 C 0.17981 0.36601 0.3158 0.0
C2200 C 0.16905 0.34632 0.32481 0.0
C2201 C 0.13821 0.28911 0.35083 0.0
C2202 C 0.1487 0.30884 0.34192 0.0
H2203 H 0.20774 0.3922 0.26513 0.0
H2204 H 0.19021 0.35987 0.28005 0.0
H2205 H 0.1774 0.35253 0.36589 0.0
H2206 H 0.11071 0.26246 0.40152 0.0
H2207 H 0.12762 0.29486 0.38671 0.0
C2208 C 0.59781 0.80212 0.3264 0.0
C2209 C 0.59398 0.80456 0.3001 0.0
C2210 C 0.61619 0.80942 0.335 0.0
C2211 C 0.66409 0.82621 0.31073 0.0
H2212 H 0.67824 0.84947 0.37982 0.0
C2213 C 0.74073 0.86824 0.34556 0.0
C2214 C 0.74452 0.86567 0.37183 0.0
C2215 C 0.72234 0.86036 0.33665 0.0
C2216 C 0.67445 0.84283 0.36061 0.0
H2217 H 0.60647 0.81664 0.26222 0.0
H2218 H 0.63859 0.8296 0.27735 0.0
H2219 H 0.64624 0.83681 0.36448 0.0
H2220 H 0.73197 0.85264 0.40926 0.0
H2221 H 0.69987 0.83881 0.39365 0.0
H2222 H 0.69237 0.83235 0.30684 0.0
C2223 C 0.62735 0.82181 0.29122 0.0
C2224 C 0.65612 0.83557 0.35181 0.0
C2225 C 0.60895 0.81447 0.28259 0.0
C2226 C 0.72953 0.85492 0.38893 0.0
C2227 C 0.71113 0.84708 0.38003 0.0
C2228 C 0.68244 0.8335 0.31952 0.0
C2229 C 0.63118 0.81937 0.31753 0.0
C2230 C 0.65072 0.82717 0.32678 0.0
C2231 C 0.70734 0.84979 0.35384 0.0
C2232 C 0.68782 0.84188 0.34456 0.0
H2233 H 0.5866 0.79447 0.34038 0.0
H2234 H 0.61865 0.80706 0.35529 0.0
H2235 H 0.66031 0.81957 0.29151 0.0
H2236 H 0.75196 0.87647 0.33188 0.0
H2237 H 0.71987 0.86287 0.31644 0.0
C2238 C 0.1913 0.78617 0.33321 0.0
C2239 C 0.20663 0.79303 0.31592 0.0
C2240 C 0.18288 0.79681 0.33889 0.0
C2241 C 0.17747 0.83536 0.31241 0.0
H2242 H 0.16159 0.83769 0.38374 0.0
C2243 C 0.15045 0.88515 0.34162 0.0
C2244 C 0.13474 0.87782 0.35823 0.0
C2245 C 0.15958 0.87508 0.33678 0.0
C2246 C 0.16579 0.83703 0.36368 0.0
H2247 H 0.22531 0.81656 0.29135 0.0
H2248 H 0.21075 0.83513 0.30147 0.0
H2249 H 0.17686 0.81952 0.37486 0.0
H2250 H 0.1163 0.85416 0.38279 0.0
H2251 H 0.13213 0.83658 0.37414 0.0
H2252 H 0.16635 0.85281 0.3012 0.0
C2253 C 0.20506 0.82143 0.31033 0.0
C2254 C 0.17453 0.82662 0.35859 0.0
C2255 C 0.21347 0.81082 0.30466 0.0
C2256 C 0.12839 0.86024 0.36994 0.0
C2257 C 0.13753 0.8502 0.36512 0.0
C2258 C 0.16874 0.84577 0.3175 0.0
C2259 C 0.18961 0.81451 0.32739 0.0
C2260 C 0.18044 0.82565 0.3329 0.0
C2261 C 0.15321 0.85749 0.34847 0.0
C2262 C 0.16277 0.84669 0.34317 0.0
H2263 H 0.18567 0.77251 0.34217 0.0
H2264 H 0.17088 0.791 0.3519 0.0
H2265 H 0.1816 0.83466 0.29232 0.0
H2266 H 0.15572 0.89867 0.33236 0.0
H2267 H 0.17176 0.88117 0.32409 0.0
C2268 C 0.7379 0.86694 0.84224 0.0
C2269 C 0.74191 0.87612 0.86678 0.0
C2270 C 0.71946 0.85571 0.83397 0.0
C2271 C 0.67166 0.84689 0.84533 0.0
H2272 H 0.6571 0.79944 0.81154 0.0
C2273 C 0.59477 0.79269 0.8241 0.0
C2274 C 0.5907 0.78371 0.79941 0.0
C2275 C 0.61324 0.80382 0.83234 0.0
C2276 C 0.661 0.81274 0.82069 0.0
H2277 H 0.72967 0.88076 0.90184 0.0
H2278 H 0.69745 0.86104 0.88747 0.0
H2279 H 0.68931 0.8193 0.8259 0.0
H2280 H 0.60284 0.77925 0.76409 0.0
H2281 H 0.63511 0.79878 0.77845 0.0
H2282 H 0.64335 0.84032 0.84015 0.0
C2283 C 0.7086 0.86269 0.87451 0.0
C2284 C 0.67944 0.82412 0.82891 0.0
C2285 C 0.72707 0.87392 0.88279 0.0
C2286 C 0.6055 0.78595 0.78325 0.0
C2287 C 0.62399 0.79707 0.79152 0.0
C2288 C 0.65322 0.83551 0.83713 0.0
C2289 C 0.70459 0.85341 0.85004 0.0
C2290 C 0.68498 0.84132 0.84132 0.0
C2291 C 0.62805 0.8062 0.8161 0.0
C2292 C 0.64767 0.8183 0.82474 0.0
H2293 H 0.74902 0.86837 0.82938 0.0
H2294 H 0.71685 0.84897 0.81485 0.0
H2295 H 0.67555 0.86019 0.85446 0.0
H2296 H 0.5837 0.79121 0.83708 0.0
H2297 H 0.6159 0.81045 0.85155 0.0
C2298 C 0.19294 0.79023 0.79791 0.0
C2299 C 0.2054 0.79111 0.81751 0.0
C2300 C 0.18279 0.79941 0.80136 0.0
C2301 C 0.16594 0.81901 0.85271 0.0
H2302 H 0.15952 0.84521 0.79369 0.0
C2303 C 0.13402 0.86652 0.86511 0.0
C2304 C 0.1212 0.86525 0.84583 0.0
C2305 C 0.14432 0.85752 0.86151 0.0
C2306 C 0.16102 0.83778 0.81027 0.0
H2307 H 0.21703 0.80238 0.85607 0.0
H2308 H 0.19941 0.81856 0.86199 0.0
H2309 H 0.17768 0.8296 0.78783 0.0
H2310 H 0.10919 0.85358 0.80758 0.0
H2311 H 0.12714 0.83775 0.80137 0.0
H2312 H 0.1493 0.82722 0.87516 0.0
C2313 C 0.19734 0.81057 0.84409 0.0
C2314 C 0.17142 0.82885 0.80693 0.0
C2315 C 0.2075 0.80138 0.84064 0.0
C2316 C 0.11897 0.85485 0.82279 0.0
C2317 C 0.12932 0.84586 0.81917 0.0
C2318 C 0.15555 0.82796 0.85606 0.0
C2319 C 0.18487 0.80968 0.82447 0.0
C2320 C 0.17398 0.81935 0.82811 0.0
C2321 C 0.14206 0.84706 0.83854 0.0
C2322 C 0.15298 0.83745 0.83488 0.0
H2323 H 0.19095 0.7824 0.77987 0.0
H2324 H 0.17312 0.79823 0.78604 0.0
H2325 H 0.1674 0.81156 0.8693 0.0
H2326 H 0.13613 0.87447 0.88307 0.0
H2327 H 0.15421 0.85893 0.87663 0.0
C2328 C 0.19418 0.40952 0.83562 0.0
C2329 C 0.20931 0.41788 0.81801 0.0
C2330 C 0.18513 0.39031 0.84033 0.0
C2331 C 0.19112 0.34908 0.83489 0.0
H2332 H 0.13702 0.32154 0.83703 0.0
C2333 C 0.14851 0.26847 0.83519 0.0
C2334 C 0.13305 0.26007 0.85225 0.0
C2335 C 0.15796 0.28777 0.83111 0.0
C2336 C 0.15213 0.32906 0.83678 0.0
H2337 H 0.22696 0.41267 0.79174 0.0
H2338 H 0.21108 0.37916 0.79983 0.0
H2339 H 0.1534 0.35523 0.83031 0.0
H2340 H 0.1154 0.26533 0.87844 0.0
H2341 H 0.13197 0.29895 0.8715 0.0
H2342 H 0.18984 0.32289 0.84133 0.0
C2343 C 0.20633 0.38748 0.8102 0.0
C2344 C 0.16152 0.34836 0.83295 0.0
C2345 C 0.21536 0.40667 0.80547 0.0
C2346 C 0.12722 0.27135 0.86509 0.0
C2347 C 0.13666 0.29062 0.86101 0.0
C2348 C 0.18173 0.32977 0.83873 0.0
C2349 C 0.19104 0.37906 0.82756 0.0
C2350 C 0.18111 0.35859 0.83196 0.0
C2351 C 0.15213 0.29905 0.84398 0.0
C2352 C 0.16213 0.31955 0.83972 0.0
H2353 H 0.18921 0.41777 0.84566 0.0
H2354 H 0.17354 0.38427 0.85408 0.0
H2355 H 0.20624 0.35661 0.83456 0.0
H2356 H 0.15333 0.26017 0.82495 0.0
H2357 H 0.1697 0.29383 0.81763 0.0
C2358 C 0.86617 0.73774 0.66175 0.0
C2359 C 0.87642 0.74289 0.63806 0.0
C2360 C 0.85554 0.71896 0.66892 0.0
C2361 C 0.83237 0.67168 0.64059 0.0
H2362 H 0.83234 0.65608 0.71288 0.0
C2363 C 0.79829 0.5942 0.67011 0.0
C2364 C 0.78835 0.58872 0.69405 0.0
C2365 C 0.80889 0.61306 0.66345 0.0
C2366 C 0.83202 0.66024 0.69268 0.0
H2367 H 0.88374 0.73239 0.60347 0.0
H2368 H 0.86527 0.69964 0.61608 0.0
H2369 H 0.85136 0.68897 0.70107 0.0
H2370 H 0.7816 0.59874 0.72966 0.0
H2371 H 0.79992 0.63168 0.71784 0.0
H2372 H 0.81299 0.64301 0.63218 0.0
C2373 C 0.86529 0.71011 0.62895 0.0
C2374 C 0.84293 0.67907 0.68592 0.0
C2375 C 0.87596 0.72889 0.62181 0.0
C2376 C 0.78915 0.60251 0.71111 0.0
C2377 C 0.79974 0.62139 0.70441 0.0
C2378 C 0.82142 0.65287 0.64736 0.0
C2379 C 0.8549 0.70494 0.65251 0.0
C2380 C 0.84327 0.68498 0.65978 0.0
C2381 C 0.80976 0.62687 0.68053 0.0
C2382 C 0.82116 0.64692 0.67346 0.0
H2383 H 0.86621 0.74819 0.6747 0.0
H2384 H 0.84754 0.71539 0.68707 0.0
H2385 H 0.8321 0.67585 0.62038 0.0
H2386 H 0.79803 0.58393 0.65657 0.0
H2387 H 0.81665 0.61683 0.64507 0.0
C2388 C 0.25775 0.12768 0.65351 0.0
C2389 C 0.2529 0.13038 0.62792 0.0
C2390 C 0.27643 0.13632 0.66125 0.0
C2391 C 0.32326 0.17532 0.64451 0.0
H2392 H 0.34033 0.14705 0.68541 0.0
C2393 C 0.40125 0.20229 0.66478 0.0
C2394 C 0.40611 0.19985 0.69049 0.0
C2395 C 0.38254 0.19378 0.65716 0.0
C2396 C 0.33573 0.15518 0.67423 0.0
H2397 H 0.26389 0.14433 0.59043 0.0
H2398 H 0.29652 0.15925 0.60386 0.0
H2399 H 0.30768 0.1324 0.67211 0.0
H2400 H 0.39513 0.18647 0.72833 0.0
H2401 H 0.36247 0.1717 0.71504 0.0
H2402 H 0.35135 0.19808 0.64657 0.0
C2403 C 0.28585 0.15064 0.61804 0.0
C2404 C 0.31703 0.1468 0.66663 0.0
C2405 C 0.26715 0.14201 0.6103 0.0
C2406 C 0.39186 0.18861 0.70836 0.0
C2407 C 0.37315 0.18006 0.70071 0.0
C2408 C 0.34197 0.18369 0.65208 0.0
C2409 C 0.2907 0.14784 0.64357 0.0
C2410 C 0.31058 0.15678 0.65169 0.0
C2411 C 0.36828 0.18261 0.67506 0.0
C2412 C 0.34841 0.17371 0.66702 0.0
H2413 H 0.24711 0.11887 0.66761 0.0
H2414 H 0.2797 0.1341 0.68118 0.0
H2415 H 0.31867 0.18347 0.63335 0.0
H2416 H 0.41189 0.21083 0.6505 0.0
H2417 H 0.37925 0.19581 0.63715 0.0
C2418 C 0.86633 0.13303 0.63108 0.0
C2419 C 0.86943 0.12393 0.65228 0.0
C2420 C 0.85767 0.1436 0.63526 0.0
C2421 C 0.82733 0.15022 0.68211 0.0
H2422 H 0.84634 0.19784 0.64643 0.0
C2423 C 0.80128 0.2013 0.707 0.0
C2424 C 0.79781 0.21002 0.68565 0.0
C2425 C 0.81029 0.19104 0.70298 0.0
C2426 C 0.84075 0.18449 0.65632 0.0
H2427 H 0.86583 0.11875 0.6945 0.0
H2428 H 0.85084 0.13735 0.70183 0.0
H2429 H 0.86147 0.17934 0.63943 0.0
H2430 H 0.80124 0.21495 0.64337 0.0
H2431 H 0.81688 0.19692 0.63635 0.0
H2432 H 0.80661 0.15536 0.699 0.0
C2433 C 0.85493 0.13613 0.68192 0.0
C2434 C 0.84941 0.17389 0.65231 0.0
C2435 C 0.8636 0.12555 0.67774 0.0
C2436 C 0.80373 0.20842 0.66023 0.0
C2437 C 0.81277 0.19817 0.65623 0.0
C2438 C 0.81868 0.16082 0.68613 0.0
C2439 C 0.85191 0.14531 0.66073 0.0
C2440 C 0.84278 0.15663 0.66514 0.0
C2441 C 0.81605 0.18929 0.67755 0.0
C2442 C 0.82529 0.17807 0.67328 0.0
H2443 H 0.87058 0.13201 0.61119 0.0
H2444 H 0.85529 0.15027 0.61847 0.0
H2445 H 0.82171 0.13685 0.69196 0.0
H2446 H 0.79697 0.20231 0.72685 0.0
H2447 H 0.81286 0.18459 0.71987 0.0
C2448 C 0.06682 0.5403 0.49381 0.0
C2449 C 0.07428 0.53598 0.51587 0.0
C2450 C 0.04773 0.52987 0.48828 0.0
C2451 C 0.00228 0.49846 0.5195 0.0
H2452 H 0.98551 0.48414 0.44729 0.0
C2453 C 0.92528 0.4469 0.49348 0.0
C2454 C 0.91787 0.45139 0.47154 0.0
C2455 C 0.94441 0.45704 0.49882 0.0
C2456 C 0.98997 0.48819 0.46752 0.0
H2457 H 0.06757 0.51728 0.54937 0.0
H2458 H 0.03435 0.49905 0.53958 0.0
H2459 H 0.01885 0.50236 0.4567 0.0
H2460 H 0.92475 0.47005 0.43796 0.0
H2461 H 0.95803 0.4878 0.44742 0.0
H2462 H 0.97341 0.48433 0.53033 0.0
C2463 C 0.0432 0.51063 0.52674 0.0
C2464 C 0.00906 0.49863 0.47291 0.0
C2465 C 0.06226 0.52102 0.53225 0.0
C2466 C 0.93 0.46619 0.455 0.0
C2467 C 0.94911 0.4763 0.46032 0.0
C2468 C 0.98319 0.48802 0.51412 0.0
C2469 C 0.03571 0.51494 0.50472 0.0
C2470 C 0.01543 0.50389 0.49896 0.0
C2471 C 0.95653 0.47187 0.48231 0.0
C2472 C 0.97682 0.48278 0.48807 0.0
H2473 H 0.0757 0.55176 0.48083 0.0
H2474 H 0.04235 0.53367 0.47133 0.0
H2475 H 0.00674 0.50253 0.53973 0.0
H2476 H 0.91632 0.43555 0.50657 0.0
H2477 H 0.94974 0.45314 0.51574 0.0
C2478 C 0.45574 0.53487 0.49617 0.0
C2479 C 0.45042 0.5341 0.52274 0.0
C2480 C 0.46477 0.52533 0.48779 0.0
C2481 C 0.49283 0.50532 0.51282 0.0
H2482 H 0.48078 0.4799 0.44515 0.0
C2483 C 0.52338 0.45932 0.47957 0.0
C2484 C 0.52938 0.46116 0.45318 0.0
C2485 C 0.51337 0.46782 0.48817 0.0
C2486 C 0.48442 0.48709 0.46398 0.0
H2487 H 0.45015 0.52243 0.56126 0.0
H2488 H 0.46574 0.50562 0.54654 0.0
H2489 H 0.46367 0.49517 0.46002 0.0
H2490 H 0.52961 0.47339 0.41515 0.0
H2491 H 0.51227 0.48834 0.43025 0.0
H2492 H 0.5136 0.49728 0.51675 0.0
C2493 C 0.46316 0.51383 0.53228 0.0
C2494 C 0.47462 0.49583 0.4725 0.0
C2495 C 0.45413 0.52338 0.54067 0.0
C2496 C 0.52516 0.47167 0.43559 0.0
C2497 C 0.51512 0.48015 0.44419 0.0
C2498 C 0.50261 0.49657 0.50431 0.0
C2499 C 0.46867 0.51479 0.50577 0.0
C2500 C 0.47876 0.5051 0.49698 0.0
C2501 C 0.50913 0.47832 0.47058 0.0
C2502 C 0.49856 0.48741 0.47976 0.0
H2503 H 0.45312 0.54303 0.48185 0.0
H2504 H 0.46903 0.52654 0.46731 0.0
H2505 H 0.49656 0.51259 0.53158 0.0
H2506 H 0.52635 0.45127 0.49361 0.0
H2507 H 0.50876 0.46598 0.50855 0.0
C2508 C 0.53059 0.06075 0.49821 0.0
C2509 C 0.53211 0.06516 0.47117 0.0
C2510 C 0.52182 0.04217 0.50651 0.0
C2511 C 0.50827 0.99478 0.48317 0.0
H2512 H 0.47659 0.97935 0.54535 0.0
C2513 C 0.46331 0.91758 0.51454 0.0
C2514 C 0.46301 0.91359 0.54161 0.0
C2515 C 0.47173 0.93603 0.50572 0.0
C2516 C 0.48554 0.98349 0.5281 0.0
H2517 H 0.52541 0.05351 0.43162 0.0
H2518 H 0.50985 0.02105 0.44614 0.0
H2519 H 0.49088 0.01157 0.53012 0.0
H2520 H 0.4714 0.92587 0.58063 0.0
H2521 H 0.48615 0.95809 0.5652 0.0
H2522 H 0.50283 0.96663 0.48112 0.0
C2523 C 0.51571 0.03198 0.46091 0.0
C2524 C 0.49374 0.00195 0.51938 0.0
C2525 C 0.52453 0.05058 0.4526 0.0
C2526 C 0.47138 0.92846 0.55965 0.0
C2527 C 0.47973 0.94692 0.55084 0.0
C2528 C 0.50002 0.9763 0.49185 0.0
C2529 C 0.51431 0.02757 0.48797 0.0
C2530 C 0.50526 0.00783 0.49687 0.0
C2531 C 0.47995 0.95089 0.52379 0.0
C2532 C 0.48863 0.97048 0.51446 0.0
H2533 H 0.53634 0.07165 0.51304 0.0
H2534 H 0.52123 0.03928 0.52747 0.0
H2535 H 0.5173 -0.00109 0.46601 0.0
H2536 H 0.45696 0.90644 0.50011 0.0
H2537 H 0.47152 0.93866 0.48479 0.0
C2538 C 0.52338 0.07019 0.96409 0.0
C2539 C 0.54058 0.08077 0.97707 0.0
C2540 C 0.51269 0.05095 0.96812 0.0
C2541 C 0.50571 0.01383 0.01493 0.0
H2542 H 0.48149 0.98101 0.9553 0.0
C2543 C 0.47222 0.93406 0.0228 0.0
C2544 C 0.45488 0.92304 0.01038 0.0
C2545 C 0.48237 0.9533 0.01858 0.0
C2546 C 0.48799 0.99001 0.97219 0.0
H2547 H 0.56006 0.07942 0.00442 0.0
H2548 H 0.54147 0.04578 0.01126 0.0
H2549 H 0.49993 0.01465 0.94828 0.0
H2550 H 0.43464 0.92357 0.98368 0.0
H2551 H 0.45237 0.95727 0.97642 0.0
H2552 H 0.49384 0.98919 0.03881 0.0
C2553 C 0.53615 0.05243 0.99822 0.0
C2554 C 0.49856 0.00928 0.96818 0.0
C2555 C 0.54685 0.07168 0.99418 0.0
C2556 C 0.44796 0.93167 0.99351 0.0
C2557 C 0.45815 0.95095 0.98925 0.0
C2558 C 0.49517 0.99457 0.01893 0.0
C2559 C 0.51895 0.04185 0.98522 0.0
C2560 C 0.50759 0.02139 0.98949 0.0
C2561 C 0.47543 0.96197 0.00183 0.0
C2562 C 0.48626 0.98245 0.99759 0.0
H2563 H 0.51811 0.07677 0.95082 0.0
H2564 H 0.49939 0.04323 0.95809 0.0
H2565 H 0.51223 0.02281 0.03182 0.0
H2566 H 0.478 0.92786 0.03585 0.0
H2567 H 0.49576 0.96136 0.02825 0.0
C2568 C 0.92085 0.47183 0.01612 0.0
C2569 C 0.91377 0.46421 0.9911 0.0
C2570 C 0.94012 0.48164 0.02064 0.0
C2571 C 0.98538 0.50646 0.98561 0.0
H2572 H 0.00517 0.49695 0.04948 0.0
C2573 C 0.0635 0.53072 0.99814 0.0
C2574 C 0.07163 0.53829 0.02274 0.0
C2575 C 0.04419 0.52219 0.99473 0.0
C2576 C -0.00015 0.49992 0.03169 0.0
H2577 H 0.92139 0.46098 0.95116 0.0
H2578 H 0.9548 0.47784 0.95912 0.0
H2579 H 0.97146 0.48151 0.043 0.0
H2580 H 0.06585 0.5428 0.0631 0.0
H2581 H 0.03222 0.52803 0.05707 0.0
H2582 H 0.01374 0.52473 0.97418 0.0
C2583 C 0.94554 0.47649 0.97518 0.0
C2584 C 0.98054 0.4911 0.028 0.0
C2585 C 0.92635 0.4667 0.97068 0.0
C2586 C 0.06004 0.53709 0.04388 0.0
C2587 C 0.04074 0.52853 0.04049 0.0
C2588 C 0.00466 0.51525 0.98928 0.0
C2589 C 0.95266 0.48406 0.00018 0.0
C2590 C 0.97311 0.49416 0.00481 0.0
C2591 C 0.03261 0.52102 0.01587 0.0
C2592 C 0.01211 0.51197 0.01226 0.0
H2593 H 0.91152 0.47018 0.03224 0.0
H2594 H 0.9452 0.48747 0.04006 0.0
H2595 H 0.98007 0.50935 0.96773 0.0
H2596 H 0.07204 0.53138 0.98148 0.0
H2597 H 0.0383 0.51632 0.97561 0.0
C2598 C 0.55185 0.47835 0.99858 0.0
C2599 C 0.54587 0.46407 0.97963 0.0
C2600 C 0.54087 0.48633 0.0046 0.0
C2601 C 0.50307 0.49289 0.97779 0.0
H2602 H 0.49633 0.50241 0.05085 0.0
C2603 C 0.44855 0.51319 0.00969 0.0
C2604 C 0.45403 0.52716 0.02902 0.0
C2605 C 0.46 0.50578 0.00345 0.0
C2606 C 0.49825 0.50003 0.03033 0.0
H2607 H 0.52364 0.44694 0.95217 0.0
H2608 H 0.50449 0.4608 0.96279 0.0
H2609 H 0.51601 0.48905 0.04044 0.0
H2610 H 0.47591 0.5444 0.05686 0.0
H2611 H 0.4959 0.53156 0.04584 0.0
H2612 H 0.48529 0.50384 0.96768 0.0
C2613 C 0.51775 0.46596 0.9728 0.0
C2614 C 0.50953 0.49239 0.02437 0.0
C2615 C 0.52868 0.45794 0.96684 0.0
C2616 C 0.47124 0.53361 0.04191 0.0
C2617 C 0.48266 0.52618 0.03572 0.0
C2618 C 0.49181 0.50054 0.98374 0.0
C2619 C 0.52372 0.48024 0.99172 0.0
C2620 C 0.51202 0.48868 0.99804 0.0
C2621 C 0.47716 0.51216 0.01646 0.0
C2622 C 0.48924 0.50416 0.01009 0.0
H2623 H 0.56502 0.48339 0.00876 0.0
H2624 H 0.54592 0.49744 0.0191 0.0
H2625 H 0.50495 0.49045 0.95727 0.0
H2626 H 0.43538 0.50791 -0.0006 0.0
H2627 H 0.45529 0.49485 0.98872 0.0
loop_
_geom_bond_atom_site_label_1
_geom_bond_atom_site_label_2
_geom_bond_distance
_geom_bond_site_symmetry_2
_ccdc_geom_bond_type
C0 O1 1.160 . S
C0 O7 1.185 . S
O1 C0 1.160 . S
O2 Zn3 1.899 . S
O2 C10 1.284 . S
Zn3 O2 1.899 . S
Zn3 O4 2.032 . S
Zn3 O7 2.086 . S
Zn3 O12 1.977 . S
O4 Zn3 2.032 . S
O4 C8 1.278 . S
C5 O6 1.203 . S
C5 O12 1.267 . S
O6 C5 1.203 . S
O7 C0 1.185 . S
O7 Zn3 2.086 . S
C8 O4 1.278 . S
C8 O9 1.211 . S
O9 C8 1.211 . S
C10 O2 1.284 . S
C10 O11 1.273 . S
O11 C10 1.273 . S
O12 Zn3 1.977 . S
O12 C5 1.267 . S
C13 O14 1.160 . S
C13 O20 1.185 . S
O14 C13 1.160 . S
O15 Zn16 1.899 . S
O15 C23 1.284 . S
Zn16 O15 1.899 . S
Zn16 O17 2.032 . S
Zn16 O20 2.086 . S
Zn16 O25 1.977 . S
O17 Zn16 2.032 . S
O17 C21 1.278 . S
C18 O19 1.203 . S
C18 O25 1.267 . S
O19 C18 1.203 . S
O20 C13 1.185 . S
O20 Zn16 2.086 . S
C21 O17 1.278 . S
C21 O22 1.211 . S
O22 C21 1.211 . S
C23 O15 1.284 . S
C23 O24 1.273 . S
O24 C23 1.273 . S
O25 Zn16 1.977 . S
O25 C18 1.267 . S
C26 O27 1.160 . S
C26 O33 1.185 . S
O27 C26 1.160 . S
O28 Zn29 1.899 . S
O28 C36 1.284 . S
Zn29 O28 1.899 . S
Zn29 O30 2.032 . S
Zn29 O33 2.086 . S
Zn29 O38 1.977 . S
O30 Zn29 2.032 . S
O30 C34 1.278 . S
C31 O32 1.203 . S
C31 O38 1.267 . S
O32 C31 1.203 . S
O33 C26 1.185 . S
O33 Zn29 2.086 . S
C34 O30 1.278 . S
C34 O35 1.211 . S
O35 C34 1.211 . S
C36 O28 1.284 . S
C36 O37 1.273 . S
O37 C36 1.273 . S
O38 Zn29 1.977 . S
O38 C31 1.267 . S
C39 O40 1.160 . S
C39 O46 1.185 . S
O40 C39 1.160 . S
O41 Zn42 1.899 . S
O41 C49 1.284 . S
Zn42 O41 1.899 . S
Zn42 O43 2.032 . S
Zn42 O46 2.086 . S
Zn42 O51 1.977 . S
O43 Zn42 2.032 . S
O43 C47 1.278 . S
C44 O45 1.203 . S
C44 O51 1.267 . S
O45 C44 1.203 . S
O46 C39 1.185 . S
O46 Zn42 2.086 . S
C47 O43 1.278 . S
C47 O48 1.211 . S
O48 C47 1.211 . S
C49 O41 1.284 . S
C49 O50 1.273 . S
O50 C49 1.273 . S
O51 Zn42 1.977 . S
O51 C44 1.267 . S
C52 O53 1.160 . S
C52 O59 1.185 . S
O53 C52 1.160 . S
O54 Zn55 1.899 . S
O54 C62 1.284 . S
Zn55 O54 1.899 . S
Zn55 O56 2.032 . S
Zn55 O59 2.086 . S
Zn55 O64 1.977 . S
O56 Zn55 2.032 . S
O56 C60 1.278 . S
C57 O58 1.203 . S
C57 O64 1.267 . S
O58 C57 1.203 . S
O59 C52 1.185 . S
O59 Zn55 2.086 . S
C60 O56 1.278 . S
C60 O61 1.211 . S
O61 C60 1.211 . S
C62 O54 1.284 . S
C62 O63 1.273 . S
O63 C62 1.273 . S
O64 Zn55 1.977 . S
O64 C57 1.267 . S
C65 O66 1.160 . S
C65 O72 1.185 . S
O66 C65 1.160 . S
O67 Zn68 1.899 . S
O67 C75 1.284 . S
Zn68 O67 1.899 . S
Zn68 O69 2.032 . S
Zn68 O72 2.086 . S
Zn68 O77 1.977 . S
O69 Zn68 2.032 . S
O69 C73 1.278 . S
C70 O71 1.203 . S
C70 O77 1.267 . S
O71 C70 1.203 . S
O72 C65 1.185 . S
O72 Zn68 2.086 . S
C73 O69 1.278 . S
C73 O74 1.211 . S
O74 C73 1.211 . S
C75 O67 1.284 . S
C75 O76 1.273 . S
O76 C75 1.273 . S
O77 Zn68 1.977 . S
O77 C70 1.267 . S
C78 O79 1.160 . S
C78 O85 1.185 . S
O79 C78 1.160 . S
O80 Zn81 1.899 . S
O80 C88 1.284 . S
Zn81 O80 1.899 . S
Zn81 O82 2.032 . S
Zn81 O85 2.086 . S
Zn81 O90 1.977 . S
O82 Zn81 2.032 . S
O82 C86 1.278 . S
C83 O84 1.203 . S
C83 O90 1.267 . S
O84 C83 1.203 . S
O85 C78 1.185 . S
O85 Zn81 2.086 . S
C86 O82 1.278 . S
C86 O87 1.211 . S
O87 C86 1.211 . S
C88 O80 1.284 . S
C88 O89 1.273 . S
O89 C88 1.273 . S
O90 Zn81 1.977 . S
O90 C83 1.267 . S
C91 O92 1.160 . S
C91 O98 1.185 . S
O92 C91 1.160 . S
O93 Zn94 1.899 . S
O93 C101 1.284 . S
Zn94 O93 1.899 . S
Zn94 O95 2.032 . S
Zn94 O98 2.086 . S
Zn94 O103 1.977 . S
O95 Zn94 2.032 . S
O95 C99 1.278 . S
C96 O97 1.203 . S
C96 O103 1.267 . S
O97 C96 1.203 . S
O98 C91 1.185 . S
O98 Zn94 2.086 . S
C99 O95 1.278 . S
C99 O100 1.211 . S
O100 C99 1.211 . S
C101 O93 1.284 . S
C101 O102 1.273 . S
O102 C101 1.273 . S
O103 Zn94 1.977 . S
O103 C96 1.267 . S
C104 O105 1.160 . S
C104 O111 1.185 . S
O105 C104 1.160 . S
O106 Zn107 1.899 . S
O106 C114 1.284 . S
Zn107 O106 1.899 . S
Zn107 O108 2.032 . S
Zn107 O111 2.086 . S
Zn107 O116 1.977 . S
O108 Zn107 2.032 . S
O108 C112 1.278 . S
C109 O110 1.203 . S
C109 O116 1.267 . S
O110 C109 1.203 . S
O111 C104 1.185 . S
O111 Zn107 2.086 . S
C112 O108 1.278 . S
C112 O113 1.211 . S
O113 C112 1.211 . S
C114 O106 1.284 . S
C114 O115 1.273 . S
O115 C114 1.273 . S
O116 Zn107 1.977 . S
O116 C109 1.267 . S
C117 O118 1.160 . S
C117 O124 1.185 . S
O118 C117 1.160 . S
O119 Zn120 1.899 . S
O119 C127 1.284 . S
Zn120 O119 1.899 . S
Zn120 O121 2.032 . S
Zn120 O124 2.086 . S
Zn120 O129 1.977 . S
O121 Zn120 2.032 . S
O121 C125 1.278 . S
C122 O123 1.203 . S
C122 O129 1.267 . S
O123 C122 1.203 . S
O124 C117 1.185 . S
O124 Zn120 2.086 . S
C125 O121 1.278 . S
C125 O126 1.211 . S
O126 C125 1.211 . S
C127 O119 1.284 . S
C127 O128 1.273 . S
O128 C127 1.273 . S
O129 Zn120 1.977 . S
O129 C122 1.267 . S
C130 O131 1.160 . S
C130 O137 1.185 . S
O131 C130 1.160 . S
O132 Zn133 1.899 . S
O132 C140 1.284 . S
Zn133 O132 1.899 . S
Zn133 O134 2.032 . S
Zn133 O137 2.086 . S
Zn133 O142 1.977 . S
O134 Zn133 2.032 . S
O134 C138 1.278 . S
C135 O136 1.203 . S
C135 O142 1.267 . S
O136 C135 1.203 . S
O137 C130 1.185 . S
O137 Zn133 2.086 . S
C138 O134 1.278 . S
C138 O139 1.211 . S
O139 C138 1.211 . S
C140 O132 1.284 . S
C140 O141 1.273 . S
O141 C140 1.273 . S
O142 Zn133 1.977 . S
O142 C135 1.267 . S
C143 O144 1.160 . S
C143 O150 1.185 . S
O144 C143 1.160 . S
O145 Zn146 1.899 . S
O145 C153 1.284 . S
Zn146 O145 1.899 . S
Zn146 O147 2.032 . S
Zn146 O150 2.086 . S
Zn146 O155 1.977 . S
O147 Zn146 2.032 . S
O147 C151 1.278 . S
C148 O149 1.203 . S
C148 O155 1.267 . S
O149 C148 1.203 . S
O150 C143 1.185 . S
O150 Zn146 2.086 . S
C151 O147 1.278 . S
C151 O152 1.211 . S
O152 C151 1.211 . S
C153 O145 1.284 . S
C153 O154 1.273 . S
O154 C153 1.273 . S
O155 Zn146 1.977 . S
O155 C148 1.267 . S
C156 O157 1.160 . S
C156 O163 1.185 . S
O157 C156 1.160 . S
O158 Zn159 1.899 . S
O158 C166 1.284 . S
Zn159 O158 1.899 . S
Zn159 O160 2.032 . S
Zn159 O163 2.086 . S
Zn159 O168 1.977 . S
O160 Zn159 2.032 . S
O160 C164 1.278 . S
C161 O162 1.203 . S
C161 O168 1.267 . S
O162 C161 1.203 . S
O163 C156 1.185 . S
O163 Zn159 2.086 . S
C164 O160 1.278 . S
C164 O165 1.211 . S
O165 C164 1.211 . S
C166 O158 1.284 . S
C166 O167 1.273 . S
O167 C166 1.273 . S
O168 Zn159 1.977 . S
O168 C161 1.267 . S
C169 O170 1.160 . S
C169 O176 1.185 . S
O170 C169 1.160 . S
O171 Zn172 1.899 . S
O171 C179 1.284 . S
Zn172 O171 1.899 . S
Zn172 O173 2.032 . S
Zn172 O176 2.086 . S
Zn172 O181 1.977 . S
O173 Zn172 2.032 . S
O173 C177 1.278 . S
C174 O175 1.203 . S
C174 O181 1.267 . S
O175 C174 1.203 . S
O176 C169 1.185 . S
O176 Zn172 2.086 . S
C177 O173 1.278 . S
C177 O178 1.211 . S
O178 C177 1.211 . S
C179 O171 1.284 . S
C179 O180 1.273 . S
O180 C179 1.273 . S
O181 Zn172 1.977 . S
O181 C174 1.267 . S
C182 O183 1.160 . S
C182 O189 1.185 . S
O183 C182 1.160 . S
O184 Zn185 1.899 . S
O184 C192 1.284 . S
Zn185 O184 1.899 . S
Zn185 O186 2.032 . S
Zn185 O189 2.086 . S
Zn185 O194 1.977 . S
O186 Zn185 2.032 . S
O186 C190 1.278 . S
C187 O188 1.203 . S
C187 O194 1.267 . S
O188 C187 1.203 . S
O189 C182 1.185 . S
O189 Zn185 2.086 . S
C190 O186 1.278 . S
C190 O191 1.211 . S
O191 C190 1.211 . S
C192 O184 1.284 . S
C192 O193 1.273 . S
O193 C192 1.273 . S
O194 Zn185 1.977 . S
O194 C187 1.267 . S
C195 O196 1.160 . S
C195 O202 1.185 . S
O196 C195 1.160 . S
O197 Zn198 1.899 . S
O197 C205 1.284 . S
Zn198 O197 1.899 . S
Zn198 O199 2.032 . S
Zn198 O202 2.086 . S
Zn198 O207 1.977 . S
O199 Zn198 2.032 . S
O199 C203 1.278 . S
C200 O201 1.203 . S
C200 O207 1.267 . S
O201 C200 1.203 . S
O202 C195 1.185 . S
O202 Zn198 2.086 . S
C203 O199 1.278 . S
C203 O204 1.211 . S
O204 C203 1.211 . S
C205 O197 1.284 . S
C205 O206 1.273 . S
O206 C205 1.273 . S
O207 Zn198 1.977 . S
O207 C200 1.267 . S
C208 O209 1.160 . S
C208 O215 1.185 . S
O209 C208 1.160 . S
O210 Zn211 1.899 . S
O210 C218 1.284 . S
Zn211 O210 1.899 . S
Zn211 O212 2.032 . S
Zn211 O215 2.086 . S
Zn211 O220 1.977 . S
O212 Zn211 2.032 . S
O212 C216 1.278 . S
C213 O214 1.203 . S
C213 O220 1.267 . S
O214 C213 1.203 . S
O215 C208 1.185 . S
O215 Zn211 2.086 . S
C216 O212 1.278 . S
C216 O217 1.211 . S
O217 C216 1.211 . S
C218 O210 1.284 . S
C218 O219 1.273 . S
O219 C218 1.273 . S
O220 Zn211 1.977 . S
O220 C213 1.267 . S
C221 O222 1.160 . S
C221 O228 1.185 . S
O222 C221 1.160 . S
O223 Zn224 1.899 . S
O223 C231 1.284 . S
Zn224 O223 1.899 . S
Zn224 O225 2.032 . S
Zn224 O228 2.086 . S
Zn224 O233 1.977 . S
O225 Zn224 2.032 . S
O225 C229 1.278 . S
C226 O227 1.203 . S
C226 O233 1.267 . S
O227 C226 1.203 . S
O228 C221 1.185 . S
O228 Zn224 2.086 . S
C229 O225 1.278 . S
C229 O230 1.211 . S
O230 C229 1.211 . S
C231 O223 1.284 . S
C231 O232 1.273 . S
O232 C231 1.273 . S
O233 Zn224 1.977 . S
O233 C226 1.267 . S
C234 O235 1.160 . S
C234 O241 1.185 . S
O235 C234 1.160 . S
O236 Zn237 1.899 . S
O236 C244 1.284 . S
Zn237 O236 1.899 . S
Zn237 O238 2.032 . S
Zn237 O241 2.086 . S
Zn237 O246 1.977 . S
O238 Zn237 2.032 . S
O238 C242 1.278 . S
C239 O240 1.203 . S
C239 O246 1.267 . S
O240 C239 1.203 . S
O241 C234 1.185 . S
O241 Zn237 2.086 . S
C242 O238 1.278 . S
C242 O243 1.211 . S
O243 C242 1.211 . S
C244 O236 1.284 . S
C244 O245 1.273 . S
O245 C244 1.273 . S
O246 Zn237 1.977 . S
O246 C239 1.267 . S
C247 O248 1.160 . S
C247 O254 1.185 . S
O248 C247 1.160 . S
O249 Zn250 1.899 . S
O249 C257 1.284 . S
Zn250 O249 1.899 . S
Zn250 O251 2.032 . S
Zn250 O254 2.086 . S
Zn250 O259 1.977 . S
O251 Zn250 2.032 . S
O251 C255 1.278 . S
C252 O253 1.203 . S
C252 O259 1.267 . S
O253 C252 1.203 . S
O254 C247 1.185 . S
O254 Zn250 2.086 . S
C255 O251 1.278 . S
C255 O256 1.211 . S
O256 C255 1.211 . S
C257 O249 1.284 . S
C257 O258 1.273 . S
O258 C257 1.273 . S
O259 Zn250 1.977 . S
O259 C252 1.267 . S
C260 O261 1.160 . S
C260 O267 1.185 . S
O261 C260 1.160 . S
O262 Zn263 1.899 . S
O262 C270 1.284 . S
Zn263 O262 1.899 . S
Zn263 O264 2.032 . S
Zn263 O267 2.086 . S
Zn263 O272 1.977 . S
O264 Zn263 2.032 . S
O264 C268 1.278 . S
C265 O266 1.203 . S
C265 O272 1.267 . S
O266 C265 1.203 . S
O267 C260 1.185 . S
O267 Zn263 2.086 . S
C268 O264 1.278 . S
C268 O269 1.211 . S
O269 C268 1.211 . S
C270 O262 1.284 . S
C270 O271 1.273 . S
O271 C270 1.273 . S
O272 Zn263 1.977 . S
O272 C265 1.267 . S
C273 O274 1.160 . S
C273 O280 1.185 . S
O274 C273 1.160 . S
O275 Zn276 1.899 . S
O275 C283 1.284 . S
Zn276 O275 1.899 . S
Zn276 O277 2.032 . S
Zn276 O280 2.086 . S
Zn276 O285 1.977 . S
O277 Zn276 2.032 . S
O277 C281 1.278 . S
C278 O279 1.203 . S
C278 O285 1.267 . S
O279 C278 1.203 . S
O280 C273 1.185 . S
O280 Zn276 2.086 . S
C281 O277 1.278 . S
C281 O282 1.211 . S
O282 C281 1.211 . S
C283 O275 1.284 . S
C283 O284 1.273 . S
O284 C283 1.273 . S
O285 Zn276 1.977 . S
O285 C278 1.267 . S
C286 O287 1.160 . S
C286 O293 1.185 . S
O287 C286 1.160 . S
O288 Zn289 1.899 . S
O288 C296 1.284 . S
Zn289 O288 1.899 . S
Zn289 O290 2.032 . S
Zn289 O293 2.086 . S
Zn289 O298 1.977 . S
O290 Zn289 2.032 . S
O290 C294 1.278 . S
C291 O292 1.203 . S
C291 O298 1.267 . S
O292 C291 1.203 . S
O293 C286 1.185 . S
O293 Zn289 2.086 . S
C294 O290 1.278 . S
C294 O295 1.211 . S
O295 C294 1.211 . S
C296 O288 1.284 . S
C296 O297 1.273 . S
O297 C296 1.273 . S
O298 Zn289 1.977 . S
O298 C291 1.267 . S
C299 O300 1.160 . S
C299 O306 1.185 . S
O300 C299 1.160 . S
O301 Zn302 1.899 . S
O301 C309 1.284 . S
Zn302 O301 1.899 . S
Zn302 O303 2.032 . S
Zn302 O306 2.086 . S
Zn302 O311 1.977 . S
O303 Zn302 2.032 . S
O303 C307 1.278 . S
C304 O305 1.203 . S
C304 O311 1.267 . S
O305 C304 1.203 . S
O306 C299 1.185 . S
O306 Zn302 2.086 . S
C307 O303 1.278 . S
C307 O308 1.211 . S
O308 C307 1.211 . S
C309 O301 1.284 . S
C309 O310 1.273 . S
O310 C309 1.273 . S
O311 Zn302 1.977 . S
O311 C304 1.267 . S
C312 O313 1.160 . S
C312 O319 1.185 . S
O313 C312 1.160 . S
O314 Zn315 1.899 . S
O314 C322 1.284 . S
Zn315 O314 1.899 . S
Zn315 O316 2.032 . S
Zn315 O319 2.086 . S
Zn315 O324 1.977 . S
O316 Zn315 2.032 . S
O316 C320 1.278 . S
C317 O318 1.203 . S
C317 O324 1.267 . S
O318 C317 1.203 . S
O319 C312 1.185 . S
O319 Zn315 2.086 . S
C320 O316 1.278 . S
C320 O321 1.211 . S
O321 C320 1.211 . S
C322 O314 1.284 . S
C322 O323 1.273 . S
O323 C322 1.273 . S
O324 Zn315 1.977 . S
O324 C317 1.267 . S
C325 O326 1.160 . S
C325 O332 1.185 . S
O326 C325 1.160 . S
O327 Zn328 1.899 . S
O327 C335 1.284 . S
Zn328 O327 1.899 . S
Zn328 O329 2.032 . S
Zn328 O332 2.086 . S
Zn328 O337 1.977 . S
O329 Zn328 2.032 . S
O329 C333 1.278 . S
C330 O331 1.203 . S
C330 O337 1.267 . S
O331 C330 1.203 . S
O332 C325 1.185 . S
O332 Zn328 2.086 . S
C333 O329 1.278 . S
C333 O334 1.211 . S
O334 C333 1.211 . S
C335 O327 1.284 . S
C335 O336 1.273 . S
O336 C335 1.273 . S
O337 Zn328 1.977 . S
O337 C330 1.267 . S
C338 O339 1.160 . S
C338 O345 1.185 . S
O339 C338 1.160 . S
O340 Zn341 1.899 . S
O340 C348 1.284 . S
Zn341 O340 1.899 . S
Zn341 O342 2.032 . S
Zn341 O345 2.086 . S
Zn341 O350 1.977 . S
O342 Zn341 2.032 . S
O342 C346 1.278 . S
C343 O344 1.203 . S
C343 O350 1.267 . S
O344 C343 1.203 . S
O345 C338 1.185 . S
O345 Zn341 2.086 . S
C346 O342 1.278 . S
C346 O347 1.211 . S
O347 C346 1.211 . S
C348 O340 1.284 . S
C348 O349 1.273 . S
O349 C348 1.273 . S
O350 Zn341 1.977 . S
O350 C343 1.267 . S
C351 O352 1.160 . S
C351 O358 1.185 . S
O352 C351 1.160 . S
O353 Zn354 1.899 . S
O353 C361 1.284 . S
Zn354 O353 1.899 . S
Zn354 O355 2.032 . S
Zn354 O358 2.086 . S
Zn354 O363 1.977 . S
O355 Zn354 2.032 . S
O355 C359 1.278 . S
C356 O357 1.203 . S
C356 O363 1.267 . S
O357 C356 1.203 . S
O358 C351 1.185 . S
O358 Zn354 2.086 . S
C359 O355 1.278 . S
C359 O360 1.211 . S
O360 C359 1.211 . S
C361 O353 1.284 . S
C361 O362 1.273 . S
O362 C361 1.273 . S
O363 Zn354 1.977 . S
O363 C356 1.267 . S
C364 O365 1.160 . S
C364 O371 1.185 . S
O365 C364 1.160 . S
O366 Zn367 1.899 . S
O366 C374 1.284 . S
Zn367 O366 1.899 . S
Zn367 O368 2.032 . S
Zn367 O371 2.086 . S
Zn367 O376 1.977 . S
O368 Zn367 2.032 . S
O368 C372 1.278 . S
C369 O370 1.203 . S
C369 O376 1.267 . S
O370 C369 1.203 . S
O371 C364 1.185 . S
O371 Zn367 2.086 . S
C372 O368 1.278 . S
C372 O373 1.211 . S
O373 C372 1.211 . S
C374 O366 1.284 . S
C374 O375 1.273 . S
O375 C374 1.273 . S
O376 Zn367 1.977 . S
O376 C369 1.267 . S
C377 O378 1.160 . S
C377 O384 1.185 . S
O378 C377 1.160 . S
O379 Zn380 1.899 . S
O379 C387 1.284 . S
Zn380 O379 1.899 . S
Zn380 O381 2.032 . S
Zn380 O384 2.086 . S
Zn380 O389 1.977 . S
O381 Zn380 2.032 . S
O381 C385 1.278 . S
C382 O383 1.203 . S
C382 O389 1.267 . S
O383 C382 1.203 . S
O384 C377 1.185 . S
O384 Zn380 2.086 . S
C385 O381 1.278 . S
C385 O386 1.211 . S
O386 C385 1.211 . S
C387 O379 1.284 . S
C387 O388 1.273 . S
O388 C387 1.273 . S
O389 Zn380 1.977 . S
O389 C382 1.267 . S
C390 O391 1.160 . S
C390 O397 1.185 . S
O391 C390 1.160 . S
O392 Zn393 1.899 . S
O392 C400 1.284 . S
Zn393 O392 1.899 . S
Zn393 O394 2.032 . S
Zn393 O397 2.086 . S
Zn393 O402 1.977 . S
O394 Zn393 2.032 . S
O394 C398 1.278 . S
C395 O396 1.203 . S
C395 O402 1.267 . S
O396 C395 1.203 . S
O397 C390 1.185 . S
O397 Zn393 2.086 . S
C398 O394 1.278 . S
C398 O399 1.211 . S
O399 C398 1.211 . S
C400 O392 1.284 . S
C400 O401 1.273 . S
O401 C400 1.273 . S
O402 Zn393 1.977 . S
O402 C395 1.267 . S
C403 O404 1.160 . S
C403 O410 1.185 . S
O404 C403 1.160 . S
O405 Zn406 1.899 . S
O405 C413 1.284 . S
Zn406 O405 1.899 . S
Zn406 O407 2.032 . S
Zn406 O410 2.086 . S
Zn406 O415 1.977 . S
O407 Zn406 2.032 . S
O407 C411 1.278 . S
C408 O409 1.203 . S
C408 O415 1.267 . S
O409 C408 1.203 . S
O410 C403 1.185 . S
O410 Zn406 2.086 . S
C411 O407 1.278 . S
C411 O412 1.211 . S
O412 C411 1.211 . S
C413 O405 1.284 . S
C413 O414 1.273 . S
O414 C413 1.273 . S
O415 Zn406 1.977 . S
O415 C408 1.267 . S
C416 O417 1.160 . S
C416 O423 1.185 . S
O417 C416 1.160 . S
O418 Zn419 1.899 . S
O418 C426 1.284 . S
Zn419 O418 1.899 . S
Zn419 O420 2.032 . S
Zn419 O423 2.086 . S
Zn419 O428 1.977 . S
O420 Zn419 2.032 . S
O420 C424 1.278 . S
C421 O422 1.203 . S
C421 O428 1.267 . S
O422 C421 1.203 . S
O423 C416 1.185 . S
O423 Zn419 2.086 . S
C424 O420 1.278 . S
C424 O425 1.211 . S
O425 C424 1.211 . S
C426 O418 1.284 . S
C426 O427 1.273 . S
O427 C426 1.273 . S
O428 Zn419 1.977 . S
O428 C421 1.267 . S
C429 O430 1.160 . S
C429 O436 1.185 . S
O430 C429 1.160 . S
O431 Zn432 1.899 . S
O431 C439 1.284 . S
Zn432 O431 1.899 . S
Zn432 O433 2.032 . S
Zn432 O436 2.086 . S
Zn432 O441 1.977 . S
O433 Zn432 2.032 . S
O433 C437 1.278 . S
C434 O435 1.203 . S
C434 O441 1.267 . S
O435 C434 1.203 . S
O436 C429 1.185 . S
O436 Zn432 2.086 . S
C437 O433 1.278 . S
C437 O438 1.211 . S
O438 C437 1.211 . S
C439 O431 1.284 . S
C439 O440 1.273 . S
O440 C439 1.273 . S
O441 Zn432 1.977 . S
O441 C434 1.267 . S
C442 O443 1.160 . S
C442 O449 1.185 . S
O443 C442 1.160 . S
O444 Zn445 1.899 . S
O444 C452 1.284 . S
Zn445 O444 1.899 . S
Zn445 O446 2.032 . S
Zn445 O449 2.086 . S
Zn445 O454 1.977 . S
O446 Zn445 2.032 . S
O446 C450 1.278 . S
C447 O448 1.203 . S
C447 O454 1.267 . S
O448 C447 1.203 . S
O449 C442 1.185 . S
O449 Zn445 2.086 . S
C450 O446 1.278 . S
C450 O451 1.211 . S
O451 C450 1.211 . S
C452 O444 1.284 . S
C452 O453 1.273 . S
O453 C452 1.273 . S
O454 Zn445 1.977 . S
O454 C447 1.267 . S
C455 O456 1.160 . S
C455 O462 1.185 . S
O456 C455 1.160 . S
O457 Zn458 1.899 . S
O457 C465 1.284 . S
Zn458 O457 1.899 . S
Zn458 O459 2.032 . S
Zn458 O462 2.086 . S
Zn458 O467 1.977 . S
O459 Zn458 2.032 . S
O459 C463 1.278 . S
C460 O461 1.203 . S
C460 O467 1.267 . S
O461 C460 1.203 . S
O462 C455 1.185 . S
O462 Zn458 2.086 . S
C463 O459 1.278 . S
C463 O464 1.211 . S
O464 C463 1.211 . S
C465 O457 1.284 . S
C465 O466 1.273 . S
O466 C465 1.273 . S
O467 Zn458 1.977 . S
O467 C460 1.267 . S
C468 C469 1.349 . S
C468 C470 1.327 . S
C468 H493 0.950 . S
C469 C468 1.349 . S
C469 C485 1.349 . S
C470 C468 1.327 . S
C470 C489 1.429 . S
C470 H494 0.950 . S
C471 C488 1.574 1_554 S
C471 C490 1.368 . S
C471 H495 0.949 . S
H472 C476 0.949 . S
C473 C474 1.349 . S
C473 C475 1.327 . S
C473 H496 0.950 . S
C474 C473 1.349 . S
C474 C486 1.349 . S
C475 C473 1.327 . S
C475 C491 1.429 . S
C475 H497 0.950 . S
C476 H472 0.949 . S
C476 C484 1.574 1_565 S
C476 C492 1.373 1_564 S
H477 C485 0.950 . S
H478 C483 0.950 . S
H479 C484 0.949 . S
H480 C486 0.950 . S
H481 C487 0.950 . S
H482 C488 0.949 . S
C483 H478 0.950 . S
C483 C485 1.327 . S
C483 C489 1.429 . S
C484 C476 1.574 1_545 S
C484 H479 0.949 . S
C484 C490 1.368 . S
C485 C469 1.349 . S
C485 H477 0.950 . S
C485 C483 1.327 . S
C486 C474 1.349 . S
C486 H480 0.950 . S
C486 C487 1.327 . S
C487 H481 0.950 . S
C487 C486 1.327 . S
C487 C491 1.429 . S
C488 C471 1.574 1_556 S
C488 H482 0.949 . S
C488 C492 1.379 . S
C489 C470 1.429 . S
C489 C483 1.429 . S
C489 C490 1.523 . S
C490 C471 1.368 . S
C490 C484 1.368 . S
C490 C489 1.523 . S
C491 C475 1.429 . S
C491 C487 1.429 . S
C491 C492 1.504 1_565 S
C492 C476 1.373 1_546 S
C492 C488 1.379 . S
C492 C491 1.504 1_545 S
H493 C468 0.950 . S
H494 C470 0.950 . S
H495 C471 0.949 . S
H496 C473 0.950 . S
H497 C475 0.950 . S
C498 C499 1.349 . S
C498 C500 1.327 . S
C498 H523 0.950 . S
C499 C498 1.349 . S
C499 C515 1.349 . S
C500 C498 1.327 . S
C500 C519 1.429 . S
C500 H524 0.950 . S
C501 C518 1.574 1_655 S
C501 C520 1.368 . S
C501 H525 0.949 . S
H502 C506 0.949 . S
C503 C504 1.349 . S
C503 C505 1.327 . S
C503 H526 0.950 . S
C504 C503 1.349 . S
C504 C516 1.349 . S
C505 C503 1.327 . S
C505 C521 1.429 . S
C505 H527 0.950 1_556 S
C506 H502 0.949 . S
C506 C514 1.574 1_556 S
C506 C522 1.387 . S
H507 C515 0.950 . S
H508 C513 0.950 . S
H509 C514 0.949 1_556 S
H510 C516 0.950 . S
H511 C517 0.958 . S
H512 C518 0.949 . S
C513 H508 0.950 . S
C513 C515 1.327 . S
C513 C519 1.429 . S
C514 C506 1.574 1_554 S
C514 H509 0.949 1_554 S
C514 C520 1.368 . S
C515 C499 1.349 . S
C515 H507 0.950 . S
C515 C513 1.327 . S
C516 C504 1.349 . S
C516 H510 0.950 . S
C516 C517 1.327 . S
C517 H511 0.958 . S
C517 C516 1.327 . S
C517 C521 1.429 . S
C518 C501 1.574 1_455 S
C518 H512 0.949 . S
C518 C522 1.361 1_454 S
C519 C500 1.429 . S
C519 C513 1.429 . S
C519 C520 1.523 . S
C520 C501 1.368 . S
C520 C514 1.368 . S
C520 C519 1.523 . S
C521 C505 1.429 . S
C521 C517 1.429 . S
C521 C522 1.508 1_455 S
C522 C506 1.387 . S
C522 C518 1.361 1_656 S
C522 C521 1.508 1_655 S
H523 C498 0.950 . S
H524 C500 0.950 . S
H525 C501 0.949 . S
H526 C503 0.950 . S
H527 C505 0.950 1_554 S
C528 C529 1.349 . S
C528 C530 1.327 . S
C528 H553 0.950 . S
C529 C528 1.349 . S
C529 C545 1.349 . S
C530 C528 1.327 . S
C530 C549 1.429 . S
C530 H554 0.950 . S
C531 C548 1.574 . S
C531 C550 1.368 1_554 S
C531 H555 0.949 . S
H532 C536 0.949 . S
C533 C534 1.349 . S
C533 C535 1.327 . S
C533 H556 0.950 . S
C534 C533 1.349 . S
C534 C546 1.349 . S
C535 C533 1.327 . S
C535 C551 1.429 . S
C535 H557 0.950 . S
C536 H532 0.949 . S
C536 C544 1.574 1_554 S
C536 C552 1.368 . S
H537 C545 0.950 . S
H538 C543 0.950 . S
H539 C544 0.949 . S
H540 C546 0.950 . S
H541 C547 0.950 . S
H542 C548 0.949 . S
C543 H538 0.950 . S
C543 C545 1.327 . S
C543 C549 1.429 . S
C544 C536 1.574 1_556 S
C544 H539 0.949 . S
C544 C550 1.368 . S
C545 C529 1.349 . S
C545 H537 0.950 . S
C545 C543 1.327 . S
C546 C534 1.349 . S
C546 H540 0.950 . S
C546 C547 1.327 . S
C547 H541 0.950 . S
C547 C546 1.327 . S
C547 C551 1.429 . S
C548 C531 1.574 . S
C548 H542 0.949 . S
C548 C552 1.368 . S
C549 C530 1.429 . S
C549 C543 1.429 . S
C549 C550 1.523 . S
C550 C531 1.368 1_556 S
C550 C544 1.368 . S
C550 C549 1.523 . S
C551 C535 1.429 . S
C551 C547 1.429 . S
C551 C552 1.523 . S
C552 C536 1.368 . S
C552 C548 1.368 . S
C552 C551 1.523 . S
H553 C528 0.950 . S
H554 C530 0.950 . S
H555 C531 0.949 . S
H556 C533 0.950 . S
H557 C535 0.950 . S
C558 C559 1.349 . S
C558 C560 1.327 . S
C558 H583 0.950 . S
C559 C558 1.349 . S
C559 C575 1.349 . S
C560 C558 1.327 . S
C560 C579 1.429 . S
C560 H584 0.950 . S
C561 C578 1.574 1_655 S
C561 C580 1.374 1_655 S
C561 H585 0.949 . S
H562 C566 0.949 . S
C563 C564 1.349 . S
C563 C565 1.327 . S
C563 H586 0.950 . S
C564 C563 1.349 . S
C564 C576 1.349 . S
C565 C563 1.327 . S
C565 C581 1.429 . S
C565 H587 0.950 . S
C566 H562 0.949 . S
C566 C574 1.574 . S
C566 C582 1.368 . S
H567 C575 0.950 . S
H568 C573 0.950 . S
H569 C574 0.949 . S
H570 C576 0.950 . S
H571 C577 0.950 . S
H572 C578 0.949 . S
C573 H568 0.950 . S
C573 C575 1.327 . S
C573 C579 1.429 . S
C574 C566 1.574 . S
C574 H569 0.949 . S
C574 C580 1.377 . S
C575 C559 1.349 . S
C575 H567 0.950 . S
C575 C573 1.327 . S
C576 C564 1.349 . S
C576 H570 0.950 . S
C576 C577 1.327 . S
C577 H571 0.950 . S
C577 C576 1.327 . S
C577 C581 1.429 . S
C578 C561 1.574 1_455 S
C578 H572 0.949 . S
C578 C582 1.368 . S
C579 C560 1.429 . S
C579 C573 1.429 . S
C579 C580 1.504 1_655 S
C580 C561 1.374 1_455 S
C580 C574 1.377 . S
C580 C579 1.504 1_455 S
C581 C565 1.429 . S
C581 C577 1.429 . S
C581 C582 1.523 . S
C582 C566 1.368 . S
C582 C578 1.368 . S
C582 C581 1.523 . S
H583 C558 0.950 . S
H584 C560 0.950 . S
H585 C561 0.949 . S
H586 C563 0.950 . S
H587 C565 0.950 . S
C588 C589 1.349 . S
C588 C590 1.327 . S
C588 H613 0.950 . S
C589 C588 1.349 . S
C589 C605 1.349 . S
C590 C588 1.327 . S
C590 C609 1.429 . S
C590 H614 0.950 . S
C591 C608 1.574 . S
C591 C610 1.368 . S
C591 H615 0.949 . S
H592 C596 0.949 . S
C593 C594 1.349 . S
C593 C595 1.327 . S
C593 H616 0.950 . S
C594 C593 1.349 . S
C594 C606 1.349 . S
C595 C593 1.327 . S
C595 C611 1.429 . S
C595 H617 0.950 . S
C596 H592 0.949 . S
C596 C604 1.574 . S
C596 C612 1.368 . S
H597 C605 0.950 . S
H598 C603 0.950 . S
H599 C604 0.949 . S
H600 C606 0.950 . S
H601 C607 0.950 . S
H602 C608 0.949 . S
C603 H598 0.950 . S
C603 C605 1.327 . S
C603 C609 1.429 . S
C604 C596 1.574 . S
C604 H599 0.949 . S
C604 C610 1.368 . S
C605 C589 1.349 . S
C605 H597 0.950 . S
C605 C603 1.327 . S
C606 C594 1.349 . S
C606 H600 0.950 . S
C606 C607 1.327 . S
C607 H601 0.950 . S
C607 C606 1.327 . S
C607 C611 1.429 . S
C608 C591 1.574 . S
C608 H602 0.949 . S
C608 C612 1.368 . S
C609 C590 1.429 . S
C609 C603 1.429 . S
C609 C610 1.523 . S
C610 C591 1.368 . S
C610 C604 1.368 . S
C610 C609 1.523 . S
C611 C595 1.429 . S
C611 C607 1.429 . S
C611 C612 1.523 . S
C612 C596 1.368 . S
C612 C608 1.368 . S
C612 C611 1.523 . S
H613 C588 0.950 . S
H614 C590 0.950 . S
H615 C591 0.949 . S
H616 C593 0.950 . S
H617 C595 0.950 . S
C618 C619 1.349 . S
C618 C620 1.327 . S
C618 H643 0.950 . S
C619 C618 1.349 . S
C619 C635 1.349 . S
C620 C618 1.327 . S
C620 C639 1.429 . S
C620 H644 0.950 . S
C621 C638 1.574 1_565 S
C621 C640 1.368 . S
C621 H645 0.949 . S
H622 C626 0.949 . S
C623 C624 1.349 . S
C623 C625 1.327 . S
C623 H646 0.950 . S
C624 C623 1.349 . S
C624 C636 1.349 . S
C625 C623 1.327 . S
C625 C641 1.429 . S
C625 H647 0.950 . S
C626 H622 0.949 . S
C626 C634 1.574 . S
C626 C642 1.394 . S
H627 C635 0.950 . S
H628 C633 0.950 . S
H629 C634 0.949 . S
H630 C636 0.950 . S
H631 C637 0.950 . S
H632 C638 0.949 . S
C633 H628 0.950 . S
C633 C635 1.327 . S
C633 C639 1.429 . S
C634 C626 1.574 . S
C634 H629 0.949 . S
C634 C640 1.368 . S
C635 C619 1.349 . S
C635 H627 0.950 . S
C635 C633 1.327 . S
C636 C624 1.349 . S
C636 H630 0.950 . S
C636 C637 1.327 . S
C637 H631 0.950 . S
C637 C636 1.327 . S
C637 C641 1.429 . S
C638 C621 1.574 1_545 S
C638 H632 0.949 . S
C638 C642 1.355 1_545 S
C639 C620 1.429 . S
C639 C633 1.429 . S
C639 C640 1.523 . S
C640 C621 1.368 . S
C640 C634 1.368 . S
C640 C639 1.523 . S
C641 C625 1.429 . S
C641 C637 1.429 . S
C641 C642 1.508 1_545 S
C642 C626 1.394 . S
C642 C638 1.355 1_565 S
C642 C641 1.508 1_565 S
H643 C618 0.950 . S
H644 C620 0.950 . S
H645 C621 0.949 . S
H646 C623 0.950 . S
H647 C625 0.950 . S
C648 C649 1.349 . S
C648 C650 1.327 . S
C648 H673 0.950 . S
C649 C648 1.349 . S
C649 C665 1.349 . S
C650 C648 1.327 . S
C650 C669 1.429 . S
C650 H674 0.950 . S
C651 C668 1.574 1_545 S
C651 C670 1.378 1_546 S
C651 H675 0.949 . S
H652 C656 0.949 . S
C653 C654 1.349 . S
C653 C655 1.327 . S
C653 H676 0.950 . S
C654 C653 1.349 . S
C654 C666 1.349 . S
C655 C653 1.327 . S
C655 C671 1.429 . S
C655 H677 0.950 . S
C656 H652 0.949 . S
C656 C664 1.574 1_556 S
C656 C672 1.368 . S
H657 C665 0.950 . S
H658 C663 0.950 . S
H659 C664 0.949 . S
H660 C666 0.950 . S
H661 C667 0.950 . S
H662 C668 0.949 . S
C663 H658 0.950 . S
C663 C665 1.327 . S
C663 C669 1.429 . S
C664 C656 1.574 1_554 S
C664 H659 0.949 . S
C664 C670 1.373 . S
C665 C649 1.349 . S
C665 H657 0.950 . S
C665 C663 1.327 . S
C666 C654 1.349 . S
C666 H660 0.950 . S
C666 C667 1.327 . S
C667 H661 0.950 . S
C667 C666 1.327 . S
C667 C671 1.429 . S
C668 C651 1.574 1_565 S
C668 H662 0.949 . S
C668 C672 1.368 . S
C669 C650 1.429 . S
C669 C663 1.429 . S
C669 C670 1.504 1_545 S
C670 C651 1.378 1_564 S
C670 C664 1.373 . S
C670 C669 1.504 1_565 S
C671 C655 1.429 . S
C671 C667 1.429 . S
C671 C672 1.523 . S
C672 C656 1.368 . S
C672 C668 1.368 . S
C672 C671 1.523 . S
H673 C648 0.950 . S
H674 C650 0.950 . S
H675 C651 0.949 . S
H676 C653 0.950 . S
H677 C655 0.950 . S
C678 C679 1.349 . S
C678 C680 1.327 . S
C678 H703 0.950 . S
C679 C678 1.349 . S
C679 C695 1.349 . S
C680 C678 1.327 . S
C680 C699 1.429 . S
C680 H704 0.948 . S
C681 C698 1.574 1_655 S
C681 C700 1.361 1_656 S
C681 H705 0.949 . S
H682 C686 0.939 1_554 S
C683 C684 1.349 . S
C683 C685 1.327 . S
C683 H706 0.950 . S
C684 C683 1.349 . S
C684 C696 1.349 . S
C685 C683 1.327 . S
C685 C701 1.429 . S
C685 H707 0.950 . S
C686 H682 0.939 1_556 S
C686 C694 1.574 1_556 S
C686 C702 1.368 . S
H687 C695 0.950 . S
H688 C693 0.950 1_556 S
H689 C694 0.949 . S
H690 C696 0.950 . S
H691 C697 0.950 . S
H692 C698 0.949 . S
C693 H688 0.950 1_554 S
C693 C695 1.327 . S
C693 C699 1.429 . S
C694 C686 1.574 1_554 S
C694 H689 0.949 . S
C694 C700 1.388 . S
C695 C679 1.349 . S
C695 H687 0.950 . S
C695 C693 1.327 . S
C696 C684 1.349 . S
C696 H690 0.950 . S
C696 C697 1.327 . S
C697 H691 0.950 . S
C697 C696 1.327 . S
C697 C701 1.429 . S
C698 C681 1.574 1_455 S
C698 H692 0.949 . S
C698 C702 1.368 . S
C699 C680 1.429 . S
C699 C693 1.429 . S
C699 C700 1.508 1_655 S
C700 C681 1.361 1_454 S
C700 C694 1.388 . S
C700 C699 1.508 1_455 S
C701 C685 1.429 . S
C701 C697 1.429 . S
C701 C702 1.523 . S
C702 C686 1.368 . S
C702 C698 1.368 . S
C702 C701 1.523 . S
H703 C678 0.950 . S
H704 C680 0.948 . S
H705 C681 0.949 . S
H706 C683 0.950 . S
H707 C685 0.950 . S
C708 C709 1.349 . S
C708 C710 1.327 . S
C708 H733 0.950 . S
C709 C708 1.349 . S
C709 C725 1.349 . S
C710 C708 1.327 . S
C710 C729 1.429 . S
C710 H734 0.950 . S
C711 C728 1.574 . S
C711 C730 1.368 . S
C711 H735 0.949 . S
H712 C716 0.949 . S
C713 C714 1.349 . S
C713 C715 1.327 . S
C713 H736 0.950 . S
C714 C713 1.349 . S
C714 C726 1.349 . S
C715 C713 1.327 . S
C715 C731 1.429 . S
C715 H737 0.950 . S
C716 H712 0.949 . S
C716 C724 1.574 1_554 S
C716 C732 1.368 . S
H717 C725 0.950 . S
H718 C723 0.950 . S
H719 C724 0.949 . S
H720 C726 0.950 . S
H721 C727 0.950 . S
H722 C728 0.949 . S
C723 H718 0.950 . S
C723 C725 1.327 . S
C723 C729 1.429 . S
C724 C716 1.574 1_556 S
C724 H719 0.949 . S
C724 C730 1.368 . S
C725 C709 1.349 . S
C725 H717 0.950 . S
C725 C723 1.327 . S
C726 C714 1.349 . S
C726 H720 0.950 . S
C726 C727 1.327 . S
C727 H721 0.950 . S
C727 C726 1.327 . S
C727 C731 1.429 . S
C728 C711 1.574 . S
C728 H722 0.949 . S
C728 C732 1.368 1_556 S
C729 C710 1.429 . S
C729 C723 1.429 . S
C729 C730 1.523 . S
C730 C711 1.368 . S
C730 C724 1.368 . S
C730 C729 1.523 . S
C731 C715 1.429 . S
C731 C727 1.429 . S
C731 C732 1.523 . S
C732 C716 1.368 . S
C732 C728 1.368 1_554 S
C732 C731 1.523 . S
H733 C708 0.950 . S
H734 C710 0.950 . S
H735 C711 0.949 . S
H736 C713 0.950 . S
H737 C715 0.950 . S
C738 C739 1.349 . S
C738 C740 1.327 . S
C738 H763 0.950 . S
C739 C738 1.349 . S
C739 C755 1.349 . S
C740 C738 1.327 . S
C740 C759 1.429 . S
C740 H764 0.950 . S
C741 C758 1.574 1_655 S
C741 C760 1.368 . S
C741 H765 0.949 . S
H742 C746 0.949 . S
C743 C744 1.349 . S
C743 C745 1.327 . S
C743 H766 0.950 . S
C744 C743 1.349 . S
C744 C756 1.349 . S
C745 C743 1.327 . S
C745 C761 1.429 . S
C745 H767 0.950 . S
C746 H742 0.949 . S
C746 C754 1.574 . S
C746 C762 1.384 . S
H747 C755 0.950 . S
H748 C753 0.950 . S
H749 C754 0.949 . S
H750 C756 0.950 . S
H751 C757 0.976 . S
H752 C758 0.949 . S
C753 H748 0.950 . S
C753 C755 1.327 . S
C753 C759 1.429 . S
C754 C746 1.574 . S
C754 H749 0.949 . S
C754 C760 1.368 . S
C755 C739 1.349 . S
C755 H747 0.950 . S
C755 C753 1.327 . S
C756 C744 1.349 . S
C756 H750 0.950 . S
C756 C757 1.327 . S
C757 H751 0.976 . S
C757 C756 1.327 . S
C757 C761 1.429 . S
C758 C741 1.574 1_455 S
C758 H752 0.949 . S
C758 C762 1.367 1_455 S
C759 C740 1.429 . S
C759 C753 1.429 . S
C759 C760 1.523 . S
C760 C741 1.368 . S
C760 C754 1.368 . S
C760 C759 1.523 . S
C761 C745 1.429 . S
C761 C757 1.429 . S
C761 C762 1.504 1_455 S
C762 C746 1.384 . S
C762 C758 1.367 1_655 S
C762 C761 1.504 1_655 S
H763 C738 0.950 . S
H764 C740 0.950 . S
H765 C741 0.949 . S
H766 C743 0.950 . S
H767 C745 0.950 . S
C768 C769 1.349 . S
C768 C770 1.327 . S
C768 H793 0.950 . S
C769 C768 1.349 . S
C769 C785 1.349 . S
C770 C768 1.327 . S
C770 C789 1.429 . S
C770 H794 0.950 . S
C771 C788 1.574 . S
C771 C790 1.368 . S
C771 H795 0.949 . S
H772 C776 0.949 . S
C773 C774 1.349 . S
C773 C775 1.327 . S
C773 H796 0.950 . S
C774 C773 1.349 . S
C774 C786 1.349 . S
C775 C773 1.327 . S
C775 C791 1.429 . S
C775 H797 0.950 . S
C776 H772 0.949 . S
C776 C784 1.574 . S
C776 C792 1.368 . S
H777 C785 0.950 . S
H778 C783 0.950 . S
H779 C784 0.949 . S
H780 C786 0.950 . S
H781 C787 0.950 . S
H782 C788 0.949 . S
C783 H778 0.950 . S
C783 C785 1.327 . S
C783 C789 1.429 . S
C784 C776 1.574 . S
C784 H779 0.949 . S
C784 C790 1.368 . S
C785 C769 1.349 . S
C785 H777 0.950 . S
C785 C783 1.327 . S
C786 C774 1.349 . S
C786 H780 0.950 . S
C786 C787 1.327 . S
C787 H781 0.950 . S
C787 C786 1.327 . S
C787 C791 1.429 . S
C788 C771 1.574 . S
C788 H782 0.949 . S
C788 C792 1.368 . S
C789 C770 1.429 . S
C789 C783 1.429 . S
C789 C790 1.523 . S
C790 C771 1.368 . S
C790 C784 1.368 . S
C790 C789 1.523 . S
C791 C775 1.429 . S
C791 C787 1.429 . S
C791 C792 1.523 . S
C792 C776 1.368 . S
C792 C788 1.368 . S
C792 C791 1.523 . S
H793 C768 0.950 . S
H794 C770 0.950 . S
H795 C771 0.949 . S
H796 C773 0.950 . S
H797 C775 0.950 . S
C798 C799 1.349 . S
C798 C800 1.327 . S
C798 H823 0.950 . S
C799 C798 1.349 . S
C799 C815 1.349 . S
C800 C798 1.327 . S
C800 C819 1.429 . S
C800 H824 0.950 . S
C801 C818 1.574 . S
C801 C820 1.368 . S
C801 H825 0.949 . S
H802 C806 0.949 . S
C803 C804 1.349 . S
C803 C805 1.327 . S
C803 H826 0.950 . S
C804 C803 1.349 . S
C804 C816 1.349 . S
C805 C803 1.327 . S
C805 C821 1.429 . S
C805 H827 0.950 . S
C806 H802 0.949 . S
C806 C814 1.574 1_565 S
C806 C822 1.368 1_565 S
H807 C815 0.950 . S
H808 C813 0.950 . S
H809 C814 0.949 . S
H810 C816 0.950 . S
H811 C817 0.950 . S
H812 C818 0.949 . S
C813 H808 0.950 . S
C813 C815 1.327 . S
C813 C819 1.429 . S
C814 C806 1.574 1_545 S
C814 H809 0.949 . S
C814 C820 1.368 . S
C815 C799 1.349 . S
C815 H807 0.950 . S
C815 C813 1.327 . S
C816 C804 1.349 . S
C816 H810 0.950 . S
C816 C817 1.327 . S
C817 H811 0.950 . S
C817 C816 1.327 . S
C817 C821 1.429 . S
C818 C801 1.574 . S
C818 H812 0.949 . S
C818 C822 1.380 . S
C819 C800 1.429 . S
C819 C813 1.429 . S
C819 C820 1.523 . S
C820 C801 1.368 . S
C820 C814 1.368 . S
C820 C819 1.523 . S
C821 C805 1.429 . S
C821 C817 1.429 . S
C821 C822 1.508 1_565 S
C822 C806 1.368 1_545 S
C822 C818 1.380 . S
C822 C821 1.508 1_545 S
H823 C798 0.950 . S
H824 C800 0.950 . S
H825 C801 0.949 . S
H826 C803 0.950 . S
H827 C805 0.950 . S
C828 C829 1.349 . S
C828 C830 1.327 . S
C828 H853 0.950 . S
C829 C828 1.349 . S
C829 C845 1.349 . S
C830 C828 1.327 . S
C830 C849 1.429 . S
C830 H854 0.950 . S
C831 C848 1.574 . S
C831 C850 1.368 . S
C831 H855 0.949 . S
H832 C836 0.949 . S
C833 C834 1.349 . S
C833 C835 1.327 . S
C833 H856 0.950 . S
C834 C833 1.349 . S
C834 C846 1.349 . S
C835 C833 1.327 . S
C835 C851 1.429 . S
C835 H857 0.950 . S
C836 H832 0.949 . S
C836 C844 1.574 . S
C836 C852 1.368 . S
H837 C845 0.950 . S
H838 C843 0.950 . S
H839 C844 0.949 . S
H840 C846 0.950 . S
H841 C847 0.950 . S
H842 C848 0.949 . S
C843 H838 0.950 . S
C843 C845 1.327 . S
C843 C849 1.429 . S
C844 C836 1.574 . S
C844 H839 0.949 . S
C844 C850 1.368 . S
C845 C829 1.349 . S
C845 H837 0.950 . S
C845 C843 1.327 . S
C846 C834 1.349 . S
C846 H840 0.950 . S
C846 C847 1.327 . S
C847 H841 0.950 . S
C847 C846 1.327 . S
C847 C851 1.429 . S
C848 C831 1.574 . S
C848 H842 0.949 . S
C848 C852 1.368 . S
C849 C830 1.429 . S
C849 C843 1.429 . S
C849 C850 1.523 . S
C850 C831 1.368 . S
C850 C844 1.368 . S
C850 C849 1.523 . S
C851 C835 1.429 . S
C851 C847 1.429 . S
C851 C852 1.523 . S
C852 C836 1.368 . S
C852 C848 1.368 . S
C852 C851 1.523 . S
H853 C828 0.950 . S
H854 C830 0.950 . S
H855 C831 0.949 . S
H856 C833 0.950 . S
H857 C835 0.950 . S
C858 C859 1.349 . S
C858 C860 1.327 . S
C858 H883 0.950 . S
C859 C858 1.349 . S
C859 C875 1.349 . S
C860 C858 1.327 . S
C860 C879 1.429 . S
C860 H884 0.950 . S
C861 C878 1.574 . S
C861 C880 1.368 . S
C861 H885 0.949 . S
H862 C866 0.949 . S
C863 C864 1.349 . S
C863 C865 1.327 . S
C863 H886 0.950 . S
C864 C863 1.349 . S
C864 C876 1.349 . S
C865 C863 1.327 . S
C865 C881 1.429 . S
C865 H887 0.950 . S
C866 H862 0.949 . S
C866 C874 1.574 . S
C866 C882 1.368 . S
H867 C875 0.950 . S
H868 C873 0.950 . S
H869 C874 0.949 . S
H870 C876 0.950 . S
H871 C877 0.950 . S
H872 C878 0.949 . S
C873 H868 0.950 . S
C873 C875 1.327 . S
C873 C879 1.429 . S
C874 C866 1.574 . S
C874 H869 0.949 . S
C874 C880 1.368 . S
C875 C859 1.349 . S
C875 H867 0.950 . S
C875 C873 1.327 . S
C876 C864 1.349 . S
C876 H870 0.950 . S
C876 C877 1.327 . S
C877 H871 0.950 . S
C877 C876 1.327 . S
C877 C881 1.429 . S
C878 C861 1.574 . S
C878 H872 0.949 . S
C878 C882 1.368 . S
C879 C860 1.429 . S
C879 C873 1.429 . S
C879 C880 1.523 . S
C880 C861 1.368 . S
C880 C874 1.368 . S
C880 C879 1.523 . S
C881 C865 1.429 . S
C881 C877 1.429 . S
C881 C882 1.523 . S
C882 C866 1.368 . S
C882 C878 1.368 . S
C882 C881 1.523 . S
H883 C858 0.950 . S
H884 C860 0.950 . S
H885 C861 0.949 . S
H886 C863 0.950 . S
H887 C865 0.950 . S
C888 C889 1.349 . S
C888 C890 1.327 . S
C888 H913 0.950 . S
C889 C888 1.349 . S
C889 C905 1.349 . S
C890 C888 1.327 . S
C890 C909 1.429 . S
C890 H914 0.950 . S
C891 C908 1.574 . S
C891 C910 1.368 . S
C891 H915 0.949 . S
H892 C896 0.949 . S
C893 C894 1.349 . S
C893 C895 1.327 . S
C893 H916 0.950 . S
C894 C893 1.349 . S
C894 C906 1.349 . S
C895 C893 1.327 . S
C895 C911 1.429 . S
C895 H917 0.950 . S
C896 H892 0.949 . S
C896 C904 1.574 . S
C896 C912 1.368 . S
H897 C905 0.950 . S
H898 C903 0.950 . S
H899 C904 0.949 . S
H900 C906 0.950 . S
H901 C907 0.950 . S
H902 C908 0.949 . S
C903 H898 0.950 . S
C903 C905 1.327 . S
C903 C909 1.429 . S
C904 C896 1.574 . S
C904 H899 0.949 . S
C904 C910 1.368 . S
C905 C889 1.349 . S
C905 H897 0.950 . S
C905 C903 1.327 . S
C906 C894 1.349 . S
C906 H900 0.950 . S
C906 C907 1.327 . S
C907 H901 0.950 . S
C907 C906 1.327 . S
C907 C911 1.429 . S
C908 C891 1.574 . S
C908 H902 0.949 . S
C908 C912 1.368 . S
C909 C890 1.429 . S
C909 C903 1.429 . S
C909 C910 1.523 . S
C910 C891 1.368 . S
C910 C904 1.368 . S
C910 C909 1.523 . S
C911 C895 1.429 . S
C911 C907 1.429 . S
C911 C912 1.523 . S
C912 C896 1.368 . S
C912 C908 1.368 . S
C912 C911 1.523 . S
H913 C888 0.950 . S
H914 C890 0.950 . S
H915 C891 0.949 . S
H916 C893 0.950 . S
H917 C895 0.950 . S
C918 C919 1.349 . S
C918 C920 1.327 . S
C918 H943 0.950 . S
C919 C918 1.349 . S
C919 C935 1.349 . S
C920 C918 1.327 . S
C920 C939 1.429 . S
C920 H944 0.950 . S
C921 C938 1.574 . S
C921 C940 1.368 . S
C921 H945 0.949 . S
H922 C926 0.949 . S
C923 C924 1.349 . S
C923 C925 1.327 . S
C923 H946 0.950 . S
C924 C923 1.349 . S
C924 C936 1.349 . S
C925 C923 1.327 . S
C925 C941 1.429 . S
C925 H947 0.950 . S
C926 H922 0.949 . S
C926 C934 1.574 . S
C926 C942 1.368 . S
H927 C935 0.950 . S
H928 C933 0.950 . S
H929 C934 0.949 . S
H930 C936 0.950 . S
H931 C937 0.950 . S
H932 C938 0.949 . S
C933 H928 0.950 . S
C933 C935 1.327 . S
C933 C939 1.429 . S
C934 C926 1.574 . S
C934 H929 0.949 . S
C934 C940 1.368 . S
C935 C919 1.349 . S
C935 H927 0.950 . S
C935 C933 1.327 . S
C936 C924 1.349 . S
C936 H930 0.950 . S
C936 C937 1.327 . S
C937 H931 0.950 . S
C937 C936 1.327 . S
C937 C941 1.429 . S
C938 C921 1.574 . S
C938 H932 0.949 . S
C938 C942 1.368 . S
C939 C920 1.429 . S
C939 C933 1.429 . S
C939 C940 1.523 . S
C940 C921 1.368 . S
C940 C934 1.368 . S
C940 C939 1.523 . S
C941 C925 1.429 . S
C941 C937 1.429 . S
C941 C942 1.523 . S
C942 C926 1.368 . S
C942 C938 1.368 . S
C942 C941 1.523 . S
H943 C918 0.950 . S
H944 C920 0.950 . S
H945 C921 0.949 . S
H946 C923 0.950 . S
H947 C925 0.950 . S
C948 C949 1.349 . S
C948 C950 1.327 . S
C948 H973 0.950 . S
C949 C948 1.349 . S
C949 C965 1.349 . S
C950 C948 1.327 . S
C950 C969 1.429 . S
C950 H974 0.950 . S
C951 C968 1.574 . S
C951 C970 1.368 . S
C951 H975 0.949 . S
H952 C956 0.949 . S
C953 C954 1.349 . S
C953 C955 1.327 . S
C953 H976 0.950 . S
C954 C953 1.349 . S
C954 C966 1.349 . S
C955 C953 1.327 . S
C955 C971 1.429 . S
C955 H977 0.950 . S
C956 H952 0.949 . S
C956 C964 1.574 . S
C956 C972 1.368 . S
H957 C965 0.950 . S
H958 C963 0.950 . S
H959 C964 0.949 . S
H960 C966 0.950 . S
H961 C967 0.950 . S
H962 C968 0.949 . S
C963 H958 0.950 . S
C963 C965 1.327 . S
C963 C969 1.429 . S
C964 C956 1.574 . S
C964 H959 0.949 . S
C964 C970 1.368 . S
C965 C949 1.349 . S
C965 H957 0.950 . S
C965 C963 1.327 . S
C966 C954 1.349 . S
C966 H960 0.950 . S
C966 C967 1.327 . S
C967 H961 0.950 . S
C967 C966 1.327 . S
C967 C971 1.429 . S
C968 C951 1.574 . S
C968 H962 0.949 . S
C968 C972 1.368 . S
C969 C950 1.429 . S
C969 C963 1.429 . S
C969 C970 1.523 . S
C970 C951 1.368 . S
C970 C964 1.368 . S
C970 C969 1.523 . S
C971 C955 1.429 . S
C971 C967 1.429 . S
C971 C972 1.523 . S
C972 C956 1.368 . S
C972 C968 1.368 . S
C972 C971 1.523 . S
H973 C948 0.950 . S
H974 C950 0.950 . S
H975 C951 0.949 . S
H976 C953 0.950 . S
H977 C955 0.950 . S
C978 C979 1.349 . S
C978 C980 1.327 . S
C978 H1003 0.950 . S
C979 C978 1.349 . S
C979 C995 1.349 . S
C980 C978 1.327 . S
C980 C999 1.429 . S
C980 H1004 0.950 . S
C981 C998 1.574 . S
C981 C1000 1.368 . S
C981 H1005 0.949 . S
H982 C986 0.949 . S
C983 C984 1.349 . S
C983 C985 1.327 . S
C983 H1006 0.950 . S
C984 C983 1.349 . S
C984 C996 1.349 . S
C985 C983 1.327 . S
C985 C1001 1.429 . S
C985 H1007 0.950 . S
C986 H982 0.949 . S
C986 C994 1.574 . S
C986 C1002 1.368 . S
H987 C995 0.950 . S
H988 C993 0.950 . S
H989 C994 0.949 . S
H990 C996 0.950 . S
H991 C997 0.950 . S
H992 C998 0.949 . S
C993 H988 0.950 . S
C993 C995 1.327 . S
C993 C999 1.429 . S
C994 C986 1.574 . S
C994 H989 0.949 . S
C994 C1000 1.368 . S
C995 C979 1.349 . S
C995 H987 0.950 . S
C995 C993 1.327 . S
C996 C984 1.349 . S
C996 H990 0.950 . S
C996 C997 1.327 . S
C997 H991 0.950 . S
C997 C996 1.327 . S
C997 C1001 1.429 . S
C998 C981 1.574 . S
C998 H992 0.949 . S
C998 C1002 1.368 . S
C999 C980 1.429 . S
C999 C993 1.429 . S
C999 C1000 1.523 . S
C1000 C981 1.368 . S
C1000 C994 1.368 . S
C1000 C999 1.523 . S
C1001 C985 1.429 . S
C1001 C997 1.429 . S
C1001 C1002 1.523 . S
C1002 C986 1.368 . S
C1002 C998 1.368 . S
C1002 C1001 1.523 . S
H1003 C978 0.950 . S
H1004 C980 0.950 . S
H1005 C981 0.949 . S
H1006 C983 0.950 . S
H1007 C985 0.950 . S
C1008 C1009 1.349 . S
C1008 C1010 1.327 . S
C1008 H1033 0.950 . S
C1009 C1008 1.349 . S
C1009 C1025 1.349 . S
C1010 C1008 1.327 . S
C1010 C1029 1.429 . S
C1010 H1034 0.950 . S
C1011 C1028 1.574 . S
C1011 C1030 1.368 . S
C1011 H1035 0.949 . S
H1012 C1016 0.949 . S
C1013 C1014 1.349 . S
C1013 C1015 1.327 . S
C1013 H1036 0.950 . S
C1014 C1013 1.349 . S
C1014 C1026 1.349 . S
C1015 C1013 1.327 . S
C1015 C1031 1.429 . S
C1015 H1037 0.950 . S
C1016 H1012 0.949 . S
C1016 C1024 1.574 . S
C1016 C1032 1.368 . S
H1017 C1025 0.950 . S
H1018 C1023 0.950 . S
H1019 C1024 0.949 . S
H1020 C1026 0.950 . S
H1021 C1027 0.950 . S
H1022 C1028 0.949 . S
C1023 H1018 0.950 . S
C1023 C1025 1.327 . S
C1023 C1029 1.429 . S
C1024 C1016 1.574 . S
C1024 H1019 0.949 . S
C1024 C1030 1.368 . S
C1025 C1009 1.349 . S
C1025 H1017 0.950 . S
C1025 C1023 1.327 . S
C1026 C1014 1.349 . S
C1026 H1020 0.950 . S
C1026 C1027 1.327 . S
C1027 H1021 0.950 . S
C1027 C1026 1.327 . S
C1027 C1031 1.429 . S
C1028 C1011 1.574 . S
C1028 H1022 0.949 . S
C1028 C1032 1.368 . S
C1029 C1010 1.429 . S
C1029 C1023 1.429 . S
C1029 C1030 1.523 . S
C1030 C1011 1.368 . S
C1030 C1024 1.368 . S
C1030 C1029 1.523 . S
C1031 C1015 1.429 . S
C1031 C1027 1.429 . S
C1031 C1032 1.523 . S
C1032 C1016 1.368 . S
C1032 C1028 1.368 . S
C1032 C1031 1.523 . S
H1033 C1008 0.950 . S
H1034 C1010 0.950 . S
H1035 C1011 0.949 . S
H1036 C1013 0.950 . S
H1037 C1015 0.950 . S
C1038 C1039 1.349 . S
C1038 C1040 1.327 . S
C1038 H1063 0.950 . S
C1039 C1038 1.349 . S
C1039 C1055 1.349 . S
C1040 C1038 1.327 . S
C1040 C1059 1.429 . S
C1040 H1064 0.950 . S
C1041 C1058 1.574 . S
C1041 C1060 1.368 . S
C1041 H1065 0.949 . S
H1042 C1046 0.949 . S
C1043 C1044 1.349 . S
C1043 C1045 1.327 . S
C1043 H1066 0.950 . S
C1044 C1043 1.349 . S
C1044 C1056 1.349 . S
C1045 C1043 1.327 . S
C1045 C1061 1.429 . S
C1045 H1067 0.950 . S
C1046 H1042 0.949 . S
C1046 C1054 1.574 . S
C1046 C1062 1.368 . S
H1047 C1055 0.950 . S
H1048 C1053 0.950 . S
H1049 C1054 0.949 . S
H1050 C1056 0.950 . S
H1051 C1057 0.950 . S
H1052 C1058 0.949 . S
C1053 H1048 0.950 . S
C1053 C1055 1.327 . S
C1053 C1059 1.429 . S
C1054 C1046 1.574 . S
C1054 H1049 0.949 . S
C1054 C1060 1.368 . S
C1055 C1039 1.349 . S
C1055 H1047 0.950 . S
C1055 C1053 1.327 . S
C1056 C1044 1.349 . S
C1056 H1050 0.950 . S
C1056 C1057 1.327 . S
C1057 H1051 0.950 . S
C1057 C1056 1.327 . S
C1057 C1061 1.429 . S
C1058 C1041 1.574 . S
C1058 H1052 0.949 . S
C1058 C1062 1.368 . S
C1059 C1040 1.429 . S
C1059 C1053 1.429 . S
C1059 C1060 1.523 . S
C1060 C1041 1.368 . S
C1060 C1054 1.368 . S
C1060 C1059 1.523 . S
C1061 C1045 1.429 . S
C1061 C1057 1.429 . S
C1061 C1062 1.523 . S
C1062 C1046 1.368 . S
C1062 C1058 1.368 . S
C1062 C1061 1.523 . S
H1063 C1038 0.950 . S
H1064 C1040 0.950 . S
H1065 C1041 0.949 . S
H1066 C1043 0.950 . S
H1067 C1045 0.950 . S
C1068 C1069 1.349 . S
C1068 C1070 1.327 . S
C1068 H1093 0.950 . S
C1069 C1068 1.349 . S
C1069 C1085 1.349 . S
C1070 C1068 1.327 . S
C1070 C1089 1.429 . S
C1070 H1094 0.950 . S
C1071 C1088 1.574 . S
C1071 C1090 1.368 . S
C1071 H1095 0.949 . S
H1072 C1076 0.949 . S
C1073 C1074 1.349 . S
C1073 C1075 1.327 . S
C1073 H1096 0.950 . S
C1074 C1073 1.349 . S
C1074 C1086 1.349 . S
C1075 C1073 1.327 . S
C1075 C1091 1.429 . S
C1075 H1097 0.950 . S
C1076 H1072 0.949 . S
C1076 C1084 1.574 . S
C1076 C1092 1.368 . S
H1077 C1085 0.950 . S
H1078 C1083 0.950 . S
H1079 C1084 0.949 . S
H1080 C1086 0.950 . S
H1081 C1087 0.950 . S
H1082 C1088 0.949 . S
C1083 H1078 0.950 . S
C1083 C1085 1.327 . S
C1083 C1089 1.429 . S
C1084 C1076 1.574 . S
C1084 H1079 0.949 . S
C1084 C1090 1.368 . S
C1085 C1069 1.349 . S
C1085 H1077 0.950 . S
C1085 C1083 1.327 . S
C1086 C1074 1.349 . S
C1086 H1080 0.950 . S
C1086 C1087 1.327 . S
C1087 H1081 0.950 . S
C1087 C1086 1.327 . S
C1087 C1091 1.429 . S
C1088 C1071 1.574 . S
C1088 H1082 0.949 . S
C1088 C1092 1.368 . S
C1089 C1070 1.429 . S
C1089 C1083 1.429 . S
C1089 C1090 1.523 . S
C1090 C1071 1.368 . S
C1090 C1084 1.368 . S
C1090 C1089 1.523 . S
C1091 C1075 1.429 . S
C1091 C1087 1.429 . S
C1091 C1092 1.523 . S
C1092 C1076 1.368 . S
C1092 C1088 1.368 . S
C1092 C1091 1.523 . S
H1093 C1068 0.950 . S
H1094 C1070 0.950 . S
H1095 C1071 0.949 . S
H1096 C1073 0.950 . S
H1097 C1075 0.950 . S
C1098 C1099 1.349 . S
C1098 C1100 1.327 . S
C1098 H1123 0.950 . S
C1099 C1098 1.349 . S
C1099 C1115 1.349 . S
C1100 C1098 1.327 . S
C1100 C1119 1.429 . S
C1100 H1124 0.950 . S
C1101 C1118 1.574 . S
C1101 C1120 1.368 . S
C1101 H1125 0.949 . S
H1102 C1106 0.949 . S
C1103 C1104 1.349 . S
C1103 C1105 1.327 . S
C1103 H1126 0.950 . S
C1104 C1103 1.349 . S
C1104 C1116 1.349 . S
C1105 C1103 1.327 . S
C1105 C1121 1.429 . S
C1105 H1127 0.950 . S
C1106 H1102 0.949 . S
C1106 C1114 1.574 . S
C1106 C1122 1.368 . S
H1107 C1115 0.950 . S
H1108 C1113 0.950 . S
H1109 C1114 0.949 . S
H1110 C1116 0.950 . S
H1111 C1117 0.950 . S
H1112 C1118 0.949 . S
C1113 H1108 0.950 . S
C1113 C1115 1.327 . S
C1113 C1119 1.429 . S
C1114 C1106 1.574 . S
C1114 H1109 0.949 . S
C1114 C1120 1.368 . S
C1115 C1099 1.349 . S
C1115 H1107 0.950 . S
C1115 C1113 1.327 . S
C1116 C1104 1.349 . S
C1116 H1110 0.950 . S
C1116 C1117 1.327 . S
C1117 H1111 0.950 . S
C1117 C1116 1.327 . S
C1117 C1121 1.429 . S
C1118 C1101 1.574 . S
C1118 H1112 0.949 . S
C1118 C1122 1.368 . S
C1119 C1100 1.429 . S
C1119 C1113 1.429 . S
C1119 C1120 1.523 . S
C1120 C1101 1.368 . S
C1120 C1114 1.368 . S
C1120 C1119 1.523 . S
C1121 C1105 1.429 . S
C1121 C1117 1.429 . S
C1121 C1122 1.523 . S
C1122 C1106 1.368 . S
C1122 C1118 1.368 . S
C1122 C1121 1.523 . S
H1123 C1098 0.950 . S
H1124 C1100 0.950 . S
H1125 C1101 0.949 . S
H1126 C1103 0.950 . S
H1127 C1105 0.950 . S
C1128 C1129 1.349 . S
C1128 C1130 1.327 . S
C1128 H1153 0.950 . S
C1129 C1128 1.349 . S
C1129 C1145 1.349 . S
C1130 C1128 1.327 . S
C1130 C1149 1.429 . S
C1130 H1154 0.950 . S
C1131 C1148 1.574 . S
C1131 C1150 1.368 . S
C1131 H1155 0.949 . S
H1132 C1136 0.949 . S
C1133 C1134 1.349 . S
C1133 C1135 1.327 . S
C1133 H1156 0.950 . S
C1134 C1133 1.349 . S
C1134 C1146 1.349 . S
C1135 C1133 1.327 . S
C1135 C1151 1.429 . S
C1135 H1157 0.950 . S
C1136 H1132 0.949 . S
C1136 C1144 1.574 . S
C1136 C1152 1.368 . S
H1137 C1145 0.950 . S
H1138 C1143 0.950 . S
H1139 C1144 0.949 . S
H1140 C1146 0.950 . S
H1141 C1147 0.950 . S
H1142 C1148 0.949 . S
C1143 H1138 0.950 . S
C1143 C1145 1.327 . S
C1143 C1149 1.429 . S
C1144 C1136 1.574 . S
C1144 H1139 0.949 . S
C1144 C1150 1.368 . S
C1145 C1129 1.349 . S
C1145 H1137 0.950 . S
C1145 C1143 1.327 . S
C1146 C1134 1.349 . S
C1146 H1140 0.950 . S
C1146 C1147 1.327 . S
C1147 H1141 0.950 . S
C1147 C1146 1.327 . S
C1147 C1151 1.429 . S
C1148 C1131 1.574 . S
C1148 H1142 0.949 . S
C1148 C1152 1.368 . S
C1149 C1130 1.429 . S
C1149 C1143 1.429 . S
C1149 C1150 1.523 . S
C1150 C1131 1.368 . S
C1150 C1144 1.368 . S
C1150 C1149 1.523 . S
C1151 C1135 1.429 . S
C1151 C1147 1.429 . S
C1151 C1152 1.523 . S
C1152 C1136 1.368 . S
C1152 C1148 1.368 . S
C1152 C1151 1.523 . S
H1153 C1128 0.950 . S
H1154 C1130 0.950 . S
H1155 C1131 0.949 . S
H1156 C1133 0.950 . S
H1157 C1135 0.950 . S
C1158 C1159 1.349 . S
C1158 C1160 1.327 . S
C1158 H1183 0.950 . S
C1159 C1158 1.349 . S
C1159 C1175 1.349 . S
C1160 C1158 1.327 . S
C1160 C1179 1.429 . S
C1160 H1184 0.950 . S
C1161 C1178 1.574 . S
C1161 C1180 1.368 . S
C1161 H1185 0.949 . S
H1162 C1166 0.949 . S
C1163 C1164 1.349 . S
C1163 C1165 1.327 . S
C1163 H1186 0.950 . S
C1164 C1163 1.349 . S
C1164 C1176 1.349 . S
C1165 C1163 1.327 . S
C1165 C1181 1.429 . S
C1165 H1187 0.950 . S
C1166 H1162 0.949 . S
C1166 C1174 1.574 . S
C1166 C1182 1.368 . S
H1167 C1175 0.950 . S
H1168 C1173 0.950 . S
H1169 C1174 0.949 . S
H1170 C1176 0.950 . S
H1171 C1177 0.950 . S
H1172 C1178 0.949 . S
C1173 H1168 0.950 . S
C1173 C1175 1.327 . S
C1173 C1179 1.429 . S
C1174 C1166 1.574 . S
C1174 H1169 0.949 . S
C1174 C1180 1.368 . S
C1175 C1159 1.349 . S
C1175 H1167 0.950 . S
C1175 C1173 1.327 . S
C1176 C1164 1.349 . S
C1176 H1170 0.950 . S
C1176 C1177 1.327 . S
C1177 H1171 0.950 . S
C1177 C1176 1.327 . S
C1177 C1181 1.429 . S
C1178 C1161 1.574 . S
C1178 H1172 0.949 . S
C1178 C1182 1.368 . S
C1179 C1160 1.429 . S
C1179 C1173 1.429 . S
C1179 C1180 1.523 . S
C1180 C1161 1.368 . S
C1180 C1174 1.368 . S
C1180 C1179 1.523 . S
C1181 C1165 1.429 . S
C1181 C1177 1.429 . S
C1181 C1182 1.523 . S
C1182 C1166 1.368 . S
C1182 C1178 1.368 . S
C1182 C1181 1.523 . S
H1183 C1158 0.950 . S
H1184 C1160 0.950 . S
H1185 C1161 0.949 . S
H1186 C1163 0.950 . S
H1187 C1165 0.950 . S
C1188 C1189 1.349 . S
C1188 C1190 1.327 . S
C1188 H1213 0.950 . S
C1189 C1188 1.349 . S
C1189 C1205 1.349 . S
C1190 C1188 1.327 . S
C1190 C1209 1.429 . S
C1190 H1214 0.950 . S
C1191 C1208 1.574 . S
C1191 C1210 1.368 . S
C1191 H1215 0.949 . S
H1192 C1196 0.949 . S
C1193 C1194 1.349 . S
C1193 C1195 1.327 . S
C1193 H1216 0.950 . S
C1194 C1193 1.349 . S
C1194 C1206 1.349 . S
C1195 C1193 1.327 . S
C1195 C1211 1.429 . S
C1195 H1217 0.950 . S
C1196 H1192 0.949 . S
C1196 C1204 1.574 . S
C1196 C1212 1.368 . S
H1197 C1205 0.950 . S
H1198 C1203 0.950 . S
H1199 C1204 0.949 . S
H1200 C1206 0.950 . S
H1201 C1207 0.950 . S
H1202 C1208 0.949 . S
C1203 H1198 0.950 . S
C1203 C1205 1.327 . S
C1203 C1209 1.429 . S
C1204 C1196 1.574 . S
C1204 H1199 0.949 . S
C1204 C1210 1.368 . S
C1205 C1189 1.349 . S
C1205 H1197 0.950 . S
C1205 C1203 1.327 . S
C1206 C1194 1.349 . S
C1206 H1200 0.950 . S
C1206 C1207 1.327 . S
C1207 H1201 0.950 . S
C1207 C1206 1.327 . S
C1207 C1211 1.429 . S
C1208 C1191 1.574 . S
C1208 H1202 0.949 . S
C1208 C1212 1.368 . S
C1209 C1190 1.429 . S
C1209 C1203 1.429 . S
C1209 C1210 1.523 . S
C1210 C1191 1.368 . S
C1210 C1204 1.368 . S
C1210 C1209 1.523 . S
C1211 C1195 1.429 . S
C1211 C1207 1.429 . S
C1211 C1212 1.523 . S
C1212 C1196 1.368 . S
C1212 C1208 1.368 . S
C1212 C1211 1.523 . S
H1213 C1188 0.950 . S
H1214 C1190 0.950 . S
H1215 C1191 0.949 . S
H1216 C1193 0.950 . S
H1217 C1195 0.950 . S
C1218 C1219 1.349 . S
C1218 C1220 1.327 . S
C1218 H1243 0.950 . S
C1219 C1218 1.349 . S
C1219 C1235 1.349 . S
C1220 C1218 1.327 . S
C1220 C1239 1.429 . S
C1220 H1244 0.950 . S
C1221 C1238 1.574 . S
C1221 C1240 1.368 . S
C1221 H1245 0.949 . S
H1222 C1226 0.949 . S
C1223 C1224 1.349 . S
C1223 C1225 1.327 . S
C1223 H1246 0.950 . S
C1224 C1223 1.349 . S
C1224 C1236 1.349 . S
C1225 C1223 1.327 . S
C1225 C1241 1.429 . S
C1225 H1247 0.950 . S
C1226 H1222 0.949 . S
C1226 C1234 1.574 . S
C1226 C1242 1.368 . S
H1227 C1235 0.950 . S
H1228 C1233 0.950 . S
H1229 C1234 0.949 . S
H1230 C1236 0.950 . S
H1231 C1237 0.950 . S
H1232 C1238 0.949 . S
C1233 H1228 0.950 . S
C1233 C1235 1.327 . S
C1233 C1239 1.429 . S
C1234 C1226 1.574 . S
C1234 H1229 0.949 . S
C1234 C1240 1.368 . S
C1235 C1219 1.349 . S
C1235 H1227 0.950 . S
C1235 C1233 1.327 . S
C1236 C1224 1.349 . S
C1236 H1230 0.950 . S
C1236 C1237 1.327 . S
C1237 H1231 0.950 . S
C1237 C1236 1.327 . S
C1237 C1241 1.429 . S
C1238 C1221 1.574 . S
C1238 H1232 0.949 . S
C1238 C1242 1.368 . S
C1239 C1220 1.429 . S
C1239 C1233 1.429 . S
C1239 C1240 1.523 . S
C1240 C1221 1.368 . S
C1240 C1234 1.368 . S
C1240 C1239 1.523 . S
C1241 C1225 1.429 . S
C1241 C1237 1.429 . S
C1241 C1242 1.523 . S
C1242 C1226 1.368 . S
C1242 C1238 1.368 . S
C1242 C1241 1.523 . S
H1243 C1218 0.950 . S
H1244 C1220 0.950 . S
H1245 C1221 0.949 . S
H1246 C1223 0.950 . S
H1247 C1225 0.950 . S
C1248 C1249 1.349 . S
C1248 C1250 1.327 . S
C1248 H1273 0.950 . S
C1249 C1248 1.349 . S
C1249 C1265 1.349 . S
C1250 C1248 1.327 . S
C1250 C1269 1.429 . S
C1250 H1274 0.950 . S
C1251 C1268 1.574 . S
C1251 C1270 1.368 . S
C1251 H1275 0.949 . S
H1252 C1256 0.949 . S
C1253 C1254 1.349 . S
C1253 C1255 1.327 . S
C1253 H1276 0.950 . S
C1254 C1253 1.349 . S
C1254 C1266 1.349 . S
C1255 C1253 1.327 . S
C1255 C1271 1.429 . S
C1255 H1277 0.950 . S
C1256 H1252 0.949 . S
C1256 C1264 1.574 . S
C1256 C1272 1.368 . S
H1257 C1265 0.950 . S
H1258 C1263 0.950 . S
H1259 C1264 0.949 . S
H1260 C1266 0.950 . S
H1261 C1267 0.950 . S
H1262 C1268 0.949 . S
C1263 H1258 0.950 . S
C1263 C1265 1.327 . S
C1263 C1269 1.429 . S
C1264 C1256 1.574 . S
C1264 H1259 0.949 . S
C1264 C1270 1.368 . S
C1265 C1249 1.349 . S
C1265 H1257 0.950 . S
C1265 C1263 1.327 . S
C1266 C1254 1.349 . S
C1266 H1260 0.950 . S
C1266 C1267 1.327 . S
C1267 H1261 0.950 . S
C1267 C1266 1.327 . S
C1267 C1271 1.429 . S
C1268 C1251 1.574 . S
C1268 H1262 0.949 . S
C1268 C1272 1.368 . S
C1269 C1250 1.429 . S
C1269 C1263 1.429 . S
C1269 C1270 1.523 . S
C1270 C1251 1.368 . S
C1270 C1264 1.368 . S
C1270 C1269 1.523 . S
C1271 C1255 1.429 . S
C1271 C1267 1.429 . S
C1271 C1272 1.523 . S
C1272 C1256 1.368 . S
C1272 C1268 1.368 . S
C1272 C1271 1.523 . S
H1273 C1248 0.950 . S
H1274 C1250 0.950 . S
H1275 C1251 0.949 . S
H1276 C1253 0.950 . S
H1277 C1255 0.950 . S
C1278 C1279 1.349 . S
C1278 C1280 1.327 . S
C1278 H1303 0.950 . S
C1279 C1278 1.349 . S
C1279 C1295 1.349 . S
C1280 C1278 1.327 . S
C1280 C1299 1.429 . S
C1280 H1304 0.950 . S
C1281 C1298 1.574 . S
C1281 C1300 1.368 . S
C1281 H1305 0.949 . S
H1282 C1286 0.949 . S
C1283 C1284 1.349 . S
C1283 C1285 1.327 . S
C1283 H1306 0.950 . S
C1284 C1283 1.349 . S
C1284 C1296 1.349 . S
C1285 C1283 1.327 . S
C1285 C1301 1.429 . S
C1285 H1307 0.950 . S
C1286 H1282 0.949 . S
C1286 C1294 1.574 . S
C1286 C1302 1.368 . S
H1287 C1295 0.950 . S
H1288 C1293 0.950 . S
H1289 C1294 0.949 . S
H1290 C1296 0.950 . S
H1291 C1297 0.950 . S
H1292 C1298 0.949 . S
C1293 H1288 0.950 . S
C1293 C1295 1.327 . S
C1293 C1299 1.429 . S
C1294 C1286 1.574 . S
C1294 H1289 0.949 . S
C1294 C1300 1.368 . S
C1295 C1279 1.349 . S
C1295 H1287 0.950 . S
C1295 C1293 1.327 . S
C1296 C1284 1.349 . S
C1296 H1290 0.950 . S
C1296 C1297 1.327 . S
C1297 H1291 0.950 . S
C1297 C1296 1.327 . S
C1297 C1301 1.429 . S
C1298 C1281 1.574 . S
C1298 H1292 0.949 . S
C1298 C1302 1.368 . S
C1299 C1280 1.429 . S
C1299 C1293 1.429 . S
C1299 C1300 1.523 . S
C1300 C1281 1.368 . S
C1300 C1294 1.368 . S
C1300 C1299 1.523 . S
C1301 C1285 1.429 . S
C1301 C1297 1.429 . S
C1301 C1302 1.523 . S
C1302 C1286 1.368 . S
C1302 C1298 1.368 . S
C1302 C1301 1.523 . S
H1303 C1278 0.950 . S
H1304 C1280 0.950 . S
H1305 C1281 0.949 . S
H1306 C1283 0.950 . S
H1307 C1285 0.950 . S
C1308 C1309 1.349 . S
C1308 C1310 1.327 . S
C1308 H1333 0.950 . S
C1309 C1308 1.349 . S
C1309 C1325 1.349 . S
C1310 C1308 1.327 . S
C1310 C1329 1.429 . S
C1310 H1334 0.950 . S
C1311 C1328 1.574 . S
C1311 C1330 1.368 . S
C1311 H1335 0.949 . S
H1312 C1316 0.949 . S
C1313 C1314 1.349 . S
C1313 C1315 1.327 . S
C1313 H1336 0.950 . S
C1314 C1313 1.349 . S
C1314 C1326 1.349 . S
C1315 C1313 1.327 . S
C1315 C1331 1.429 . S
C1315 H1337 0.950 . S
C1316 H1312 0.949 . S
C1316 C1324 1.574 . S
C1316 C1332 1.368 . S
H1317 C1325 0.950 . S
H1318 C1323 0.950 . S
H1319 C1324 0.949 . S
H1320 C1326 0.950 . S
H1321 C1327 0.950 . S
H1322 C1328 0.949 . S
C1323 H1318 0.950 . S
C1323 C1325 1.327 . S
C1323 C1329 1.429 . S
C1324 C1316 1.574 . S
C1324 H1319 0.949 . S
C1324 C1330 1.368 . S
C1325 C1309 1.349 . S
C1325 H1317 0.950 . S
C1325 C1323 1.327 . S
C1326 C1314 1.349 . S
C1326 H1320 0.950 . S
C1326 C1327 1.327 . S
C1327 H1321 0.950 . S
C1327 C1326 1.327 . S
C1327 C1331 1.429 . S
C1328 C1311 1.574 . S
C1328 H1322 0.949 . S
C1328 C1332 1.368 . S
C1329 C1310 1.429 . S
C1329 C1323 1.429 . S
C1329 C1330 1.523 . S
C1330 C1311 1.368 . S
C1330 C1324 1.368 . S
C1330 C1329 1.523 . S
C1331 C1315 1.429 . S
C1331 C1327 1.429 . S
C1331 C1332 1.523 . S
C1332 C1316 1.368 . S
C1332 C1328 1.368 . S
C1332 C1331 1.523 . S
H1333 C1308 0.950 . S
H1334 C1310 0.950 . S
H1335 C1311 0.949 . S
H1336 C1313 0.950 . S
H1337 C1315 0.950 . S
C1338 C1339 1.349 . S
C1338 C1340 1.327 . S
C1338 H1363 0.950 . S
C1339 C1338 1.349 . S
C1339 C1355 1.349 . S
C1340 C1338 1.327 . S
C1340 C1359 1.429 . S
C1340 H1364 0.950 . S
C1341 C1358 1.574 . S
C1341 C1360 1.368 . S
C1341 H1365 0.949 . S
H1342 C1346 0.949 . S
C1343 C1344 1.349 . S
C1343 C1345 1.327 . S
C1343 H1366 0.950 . S
C1344 C1343 1.349 . S
C1344 C1356 1.349 . S
C1345 C1343 1.327 . S
C1345 C1361 1.429 . S
C1345 H1367 0.950 . S
C1346 H1342 0.949 . S
C1346 C1354 1.574 . S
C1346 C1362 1.368 . S
H1347 C1355 0.950 . S
H1348 C1353 0.950 . S
H1349 C1354 0.949 . S
H1350 C1356 0.950 . S
H1351 C1357 0.950 . S
H1352 C1358 0.949 . S
C1353 H1348 0.950 . S
C1353 C1355 1.327 . S
C1353 C1359 1.429 . S
C1354 C1346 1.574 . S
C1354 H1349 0.949 . S
C1354 C1360 1.368 . S
C1355 C1339 1.349 . S
C1355 H1347 0.950 . S
C1355 C1353 1.327 . S
C1356 C1344 1.349 . S
C1356 H1350 0.950 . S
C1356 C1357 1.327 . S
C1357 H1351 0.950 . S
C1357 C1356 1.327 . S
C1357 C1361 1.429 . S
C1358 C1341 1.574 . S
C1358 H1352 0.949 . S
C1358 C1362 1.368 . S
C1359 C1340 1.429 . S
C1359 C1353 1.429 . S
C1359 C1360 1.523 . S
C1360 C1341 1.368 . S
C1360 C1354 1.368 . S
C1360 C1359 1.523 . S
C1361 C1345 1.429 . S
C1361 C1357 1.429 . S
C1361 C1362 1.523 . S
C1362 C1346 1.368 . S
C1362 C1358 1.368 . S
C1362 C1361 1.523 . S
H1363 C1338 0.950 . S
H1364 C1340 0.950 . S
H1365 C1341 0.949 . S
H1366 C1343 0.950 . S
H1367 C1345 0.950 . S
C1368 C1369 1.349 . S
C1368 C1370 1.327 . S
C1368 H1393 0.950 . S
C1369 C1368 1.349 . S
C1369 C1385 1.349 . S
C1370 C1368 1.327 . S
C1370 C1389 1.429 . S
C1370 H1394 0.950 . S
C1371 C1388 1.574 . S
C1371 C1390 1.368 . S
C1371 H1395 0.949 . S
H1372 C1376 0.949 . S
C1373 C1374 1.349 . S
C1373 C1375 1.327 . S
C1373 H1396 0.950 . S
C1374 C1373 1.349 . S
C1374 C1386 1.349 . S
C1375 C1373 1.327 . S
C1375 C1391 1.429 . S
C1375 H1397 0.950 . S
C1376 H1372 0.949 . S
C1376 C1384 1.574 . S
C1376 C1392 1.368 . S
H1377 C1385 0.950 . S
H1378 C1383 0.950 . S
H1379 C1384 0.949 . S
H1380 C1386 0.950 . S
H1381 C1387 0.950 . S
H1382 C1388 0.949 . S
C1383 H1378 0.950 . S
C1383 C1385 1.327 . S
C1383 C1389 1.429 . S
C1384 C1376 1.574 . S
C1384 H1379 0.949 . S
C1384 C1390 1.368 . S
C1385 C1369 1.349 . S
C1385 H1377 0.950 . S
C1385 C1383 1.327 . S
C1386 C1374 1.349 . S
C1386 H1380 0.950 . S
C1386 C1387 1.327 . S
C1387 H1381 0.950 . S
C1387 C1386 1.327 . S
C1387 C1391 1.429 . S
C1388 C1371 1.574 . S
C1388 H1382 0.949 . S
C1388 C1392 1.368 . S
C1389 C1370 1.429 . S
C1389 C1383 1.429 . S
C1389 C1390 1.523 . S
C1390 C1371 1.368 . S
C1390 C1384 1.368 . S
C1390 C1389 1.523 . S
C1391 C1375 1.429 . S
C1391 C1387 1.429 . S
C1391 C1392 1.523 . S
C1392 C1376 1.368 . S
C1392 C1388 1.368 . S
C1392 C1391 1.523 . S
H1393 C1368 0.950 . S
H1394 C1370 0.950 . S
H1395 C1371 0.949 . S
H1396 C1373 0.950 . S
H1397 C1375 0.950 . S
C1398 C1399 1.349 . S
C1398 C1400 1.327 . S
C1398 H1423 0.950 . S
C1399 C1398 1.349 . S
C1399 C1415 1.349 . S
C1400 C1398 1.327 . S
C1400 C1419 1.429 . S
C1400 H1424 0.950 . S
C1401 C1418 1.574 . S
C1401 C1420 1.368 . S
C1401 H1425 0.949 . S
H1402 C1406 0.949 . S
C1403 C1404 1.349 . S
C1403 C1405 1.327 . S
C1403 H1426 0.950 . S
C1404 C1403 1.349 . S
C1404 C1416 1.349 . S
C1405 C1403 1.327 . S
C1405 C1421 1.429 . S
C1405 H1427 0.950 . S
C1406 H1402 0.949 . S
C1406 C1414 1.574 . S
C1406 C1422 1.368 . S
H1407 C1415 0.950 . S
H1408 C1413 0.950 . S
H1409 C1414 0.949 . S
H1410 C1416 0.950 . S
H1411 C1417 0.950 . S
H1412 C1418 0.949 . S
C1413 H1408 0.950 . S
C1413 C1415 1.327 . S
C1413 C1419 1.429 . S
C1414 C1406 1.574 . S
C1414 H1409 0.949 . S
C1414 C1420 1.368 . S
C1415 C1399 1.349 . S
C1415 H1407 0.950 . S
C1415 C1413 1.327 . S
C1416 C1404 1.349 . S
C1416 H1410 0.950 . S
C1416 C1417 1.327 . S
C1417 H1411 0.950 . S
C1417 C1416 1.327 . S
C1417 C1421 1.429 . S
C1418 C1401 1.574 . S
C1418 H1412 0.949 . S
C1418 C1422 1.368 . S
C1419 C1400 1.429 . S
C1419 C1413 1.429 . S
C1419 C1420 1.523 . S
C1420 C1401 1.368 . S
C1420 C1414 1.368 . S
C1420 C1419 1.523 . S
C1421 C1405 1.429 . S
C1421 C1417 1.429 . S
C1421 C1422 1.523 . S
C1422 C1406 1.368 . S
C1422 C1418 1.368 . S
C1422 C1421 1.523 . S
H1423 C1398 0.950 . S
H1424 C1400 0.950 . S
H1425 C1401 0.949 . S
H1426 C1403 0.950 . S
H1427 C1405 0.950 . S
C1428 C1429 1.349 . S
C1428 C1430 1.327 . S
C1428 H1453 0.950 . S
C1429 C1428 1.349 . S
C1429 C1445 1.349 . S
C1430 C1428 1.327 . S
C1430 C1449 1.429 . S
C1430 H1454 0.950 . S
C1431 C1448 1.574 . S
C1431 C1450 1.368 . S
C1431 H1455 0.949 . S
H1432 C1436 0.949 . S
C1433 C1434 1.349 . S
C1433 C1435 1.327 . S
C1433 H1456 0.950 . S
C1434 C1433 1.349 . S
C1434 C1446 1.349 . S
C1435 C1433 1.327 . S
C1435 C1451 1.429 . S
C1435 H1457 0.950 . S
C1436 H1432 0.949 . S
C1436 C1444 1.574 . S
C1436 C1452 1.368 . S
H1437 C1445 0.950 . S
H1438 C1443 0.950 . S
H1439 C1444 0.949 . S
H1440 C1446 0.950 . S
H1441 C1447 0.950 . S
H1442 C1448 0.949 . S
C1443 H1438 0.950 . S
C1443 C1445 1.327 . S
C1443 C1449 1.429 . S
C1444 C1436 1.574 . S
C1444 H1439 0.949 . S
C1444 C1450 1.368 . S
C1445 C1429 1.349 . S
C1445 H1437 0.950 . S
C1445 C1443 1.327 . S
C1446 C1434 1.349 . S
C1446 H1440 0.950 . S
C1446 C1447 1.327 . S
C1447 H1441 0.950 . S
C1447 C1446 1.327 . S
C1447 C1451 1.429 . S
C1448 C1431 1.574 . S
C1448 H1442 0.949 . S
C1448 C1452 1.368 . S
C1449 C1430 1.429 . S
C1449 C1443 1.429 . S
C1449 C1450 1.523 . S
C1450 C1431 1.368 . S
C1450 C1444 1.368 . S
C1450 C1449 1.523 . S
C1451 C1435 1.429 . S
C1451 C1447 1.429 . S
C1451 C1452 1.523 . S
C1452 C1436 1.368 . S
C1452 C1448 1.368 . S
C1452 C1451 1.523 . S
H1453 C1428 0.950 . S
H1454 C1430 0.950 . S
H1455 C1431 0.949 . S
H1456 C1433 0.950 . S
H1457 C1435 0.950 . S
C1458 C1459 1.349 . S
C1458 C1460 1.327 . S
C1458 H1483 0.950 . S
C1459 C1458 1.349 . S
C1459 C1475 1.349 . S
C1460 C1458 1.327 . S
C1460 C1479 1.429 . S
C1460 H1484 0.950 . S
C1461 C1478 1.574 . S
C1461 C1480 1.368 . S
C1461 H1485 0.949 . S
H1462 C1466 0.949 . S
C1463 C1464 1.349 . S
C1463 C1465 1.327 . S
C1463 H1486 0.950 . S
C1464 C1463 1.349 . S
C1464 C1476 1.349 . S
C1465 C1463 1.327 . S
C1465 C1481 1.429 . S
C1465 H1487 0.950 . S
C1466 H1462 0.949 . S
C1466 C1474 1.574 . S
C1466 C1482 1.368 . S
H1467 C1475 0.950 . S
H1468 C1473 0.950 . S
H1469 C1474 0.949 . S
H1470 C1476 0.950 . S
H1471 C1477 0.950 . S
H1472 C1478 0.949 . S
C1473 H1468 0.950 . S
C1473 C1475 1.327 . S
C1473 C1479 1.429 . S
C1474 C1466 1.574 . S
C1474 H1469 0.949 . S
C1474 C1480 1.368 . S
C1475 C1459 1.349 . S
C1475 H1467 0.950 . S
C1475 C1473 1.327 . S
C1476 C1464 1.349 . S
C1476 H1470 0.950 . S
C1476 C1477 1.327 . S
C1477 H1471 0.950 . S
C1477 C1476 1.327 . S
C1477 C1481 1.429 . S
C1478 C1461 1.574 . S
C1478 H1472 0.949 . S
C1478 C1482 1.368 . S
C1479 C1460 1.429 . S
C1479 C1473 1.429 . S
C1479 C1480 1.523 . S
C1480 C1461 1.368 . S
C1480 C1474 1.368 . S
C1480 C1479 1.523 . S
C1481 C1465 1.429 . S
C1481 C1477 1.429 . S
C1481 C1482 1.523 . S
C1482 C1466 1.368 . S
C1482 C1478 1.368 . S
C1482 C1481 1.523 . S
H1483 C1458 0.950 . S
H1484 C1460 0.950 . S
H1485 C1461 0.949 . S
H1486 C1463 0.950 . S
H1487 C1465 0.950 . S
C1488 C1489 1.349 . S
C1488 C1490 1.327 . S
C1488 H1513 0.950 . S
C1489 C1488 1.349 . S
C1489 C1505 1.349 . S
C1490 C1488 1.327 . S
C1490 C1509 1.429 . S
C1490 H1514 0.950 . S
C1491 C1508 1.574 . S
C1491 C1510 1.368 . S
C1491 H1515 0.949 . S
H1492 C1496 0.949 . S
C1493 C1494 1.349 . S
C1493 C1495 1.327 . S
C1493 H1516 0.950 . S
C1494 C1493 1.349 . S
C1494 C1506 1.349 . S
C1495 C1493 1.327 . S
C1495 C1511 1.429 . S
C1495 H1517 0.950 . S
C1496 H1492 0.949 . S
C1496 C1504 1.574 . S
C1496 C1512 1.368 . S
H1497 C1505 0.950 . S
H1498 C1503 0.950 . S
H1499 C1504 0.949 . S
H1500 C1506 0.950 . S
H1501 C1507 0.950 . S
H1502 C1508 0.949 . S
C1503 H1498 0.950 . S
C1503 C1505 1.327 . S
C1503 C1509 1.429 . S
C1504 C1496 1.574 . S
C1504 H1499 0.949 . S
C1504 C1510 1.368 . S
C1505 C1489 1.349 . S
C1505 H1497 0.950 . S
C1505 C1503 1.327 . S
C1506 C1494 1.349 . S
C1506 H1500 0.950 . S
C1506 C1507 1.327 . S
C1507 H1501 0.950 . S
C1507 C1506 1.327 . S
C1507 C1511 1.429 . S
C1508 C1491 1.574 . S
C1508 H1502 0.949 . S
C1508 C1512 1.368 . S
C1509 C1490 1.429 . S
C1509 C1503 1.429 . S
C1509 C1510 1.523 . S
C1510 C1491 1.368 . S
C1510 C1504 1.368 . S
C1510 C1509 1.523 . S
C1511 C1495 1.429 . S
C1511 C1507 1.429 . S
C1511 C1512 1.523 . S
C1512 C1496 1.368 . S
C1512 C1508 1.368 . S
C1512 C1511 1.523 . S
H1513 C1488 0.950 . S
H1514 C1490 0.950 . S
H1515 C1491 0.949 . S
H1516 C1493 0.950 . S
H1517 C1495 0.950 . S
C1518 C1519 1.349 . S
C1518 C1520 1.327 . S
C1518 H1543 0.950 . S
C1519 C1518 1.349 . S
C1519 C1535 1.349 . S
C1520 C1518 1.327 . S
C1520 C1539 1.429 . S
C1520 H1544 0.950 . S
C1521 C1538 1.574 . S
C1521 C1540 1.368 . S
C1521 H1545 0.949 . S
H1522 C1526 0.949 . S
C1523 C1524 1.349 . S
C1523 C1525 1.327 . S
C1523 H1546 0.950 . S
C1524 C1523 1.349 . S
C1524 C1536 1.349 . S
C1525 C1523 1.327 . S
C1525 C1541 1.429 . S
C1525 H1547 0.950 . S
C1526 H1522 0.949 . S
C1526 C1534 1.574 . S
C1526 C1542 1.368 . S
H1527 C1535 0.950 . S
H1528 C1533 0.950 . S
H1529 C1534 0.949 . S
H1530 C1536 0.950 . S
H1531 C1537 0.950 . S
H1532 C1538 0.949 . S
C1533 H1528 0.950 . S
C1533 C1535 1.327 . S
C1533 C1539 1.429 . S
C1534 C1526 1.574 . S
C1534 H1529 0.949 . S
C1534 C1540 1.368 . S
C1535 C1519 1.349 . S
C1535 H1527 0.950 . S
C1535 C1533 1.327 . S
C1536 C1524 1.349 . S
C1536 H1530 0.950 . S
C1536 C1537 1.327 . S
C1537 H1531 0.950 . S
C1537 C1536 1.327 . S
C1537 C1541 1.429 . S
C1538 C1521 1.574 . S
C1538 H1532 0.949 . S
C1538 C1542 1.368 . S
C1539 C1520 1.429 . S
C1539 C1533 1.429 . S
C1539 C1540 1.523 . S
C1540 C1521 1.368 . S
C1540 C1534 1.368 . S
C1540 C1539 1.523 . S
C1541 C1525 1.429 . S
C1541 C1537 1.429 . S
C1541 C1542 1.523 . S
C1542 C1526 1.368 . S
C1542 C1538 1.368 . S
C1542 C1541 1.523 . S
H1543 C1518 0.950 . S
H1544 C1520 0.950 . S
H1545 C1521 0.949 . S
H1546 C1523 0.950 . S
H1547 C1525 0.950 . S
C1548 C1549 1.349 . S
C1548 C1550 1.327 . S
C1548 H1573 0.950 . S
C1549 C1548 1.349 . S
C1549 C1565 1.349 . S
C1550 C1548 1.327 . S
C1550 C1569 1.429 . S
C1550 H1574 0.950 . S
C1551 C1568 1.574 . S
C1551 C1570 1.368 . S
C1551 H1575 0.949 . S
H1552 C1556 0.949 . S
C1553 C1554 1.349 . S
C1553 C1555 1.327 . S
C1553 H1576 0.950 . S
C1554 C1553 1.349 . S
C1554 C1566 1.349 . S
C1555 C1553 1.327 . S
C1555 C1571 1.429 . S
C1555 H1577 0.950 . S
C1556 H1552 0.949 . S
C1556 C1564 1.574 . S
C1556 C1572 1.368 . S
H1557 C1565 0.950 . S
H1558 C1563 0.950 . S
H1559 C1564 0.949 . S
H1560 C1566 0.950 . S
H1561 C1567 0.950 . S
H1562 C1568 0.949 . S
C1563 H1558 0.950 . S
C1563 C1565 1.327 . S
C1563 C1569 1.429 . S
C1564 C1556 1.574 . S
C1564 H1559 0.949 . S
C1564 C1570 1.368 . S
C1565 C1549 1.349 . S
C1565 H1557 0.950 . S
C1565 C1563 1.327 . S
C1566 C1554 1.349 . S
C1566 H1560 0.950 . S
C1566 C1567 1.327 . S
C1567 H1561 0.950 . S
C1567 C1566 1.327 . S
C1567 C1571 1.429 . S
C1568 C1551 1.574 . S
C1568 H1562 0.949 . S
C1568 C1572 1.368 . S
C1569 C1550 1.429 . S
C1569 C1563 1.429 . S
C1569 C1570 1.523 . S
C1570 C1551 1.368 . S
C1570 C1564 1.368 . S
C1570 C1569 1.523 . S
C1571 C1555 1.429 . S
C1571 C1567 1.429 . S
C1571 C1572 1.523 . S
C1572 C1556 1.368 . S
C1572 C1568 1.368 . S
C1572 C1571 1.523 . S
H1573 C1548 0.950 . S
H1574 C1550 0.950 . S
H1575 C1551 0.949 . S
H1576 C1553 0.950 . S
H1577 C1555 0.950 . S
C1578 C1579 1.349 . S
C1578 C1580 1.327 . S
C1578 H1603 0.950 . S
C1579 C1578 1.349 . S
C1579 C1595 1.349 . S
C1580 C1578 1.327 . S
C1580 C1599 1.429 . S
C1580 H1604 0.950 . S
C1581 C1598 1.574 . S
C1581 C1600 1.368 1_545 S
C1581 H1605 0.949 . S
H1582 C1586 0.949 . S
C1583 C1584 1.349 . S
C1583 C1585 1.327 . S
C1583 H1606 0.950 . S
C1584 C1583 1.349 . S
C1584 C1596 1.349 . S
C1585 C1583 1.327 . S
C1585 C1601 1.429 . S
C1585 H1607 0.950 . S
C1586 H1582 0.949 . S
C1586 C1594 1.574 . S
C1586 C1602 1.368 1_565 S
H1587 C1595 0.950 . S
H1588 C1593 0.950 . S
H1589 C1594 0.949 . S
H1590 C1596 0.950 . S
H1591 C1597 0.950 . S
H1592 C1598 0.949 . S
C1593 H1588 0.950 . S
C1593 C1595 1.327 . S
C1593 C1599 1.429 . S
C1594 C1586 1.574 . S
C1594 H1589 0.949 . S
C1594 C1600 1.368 . S
C1595 C1579 1.349 . S
C1595 H1587 0.950 . S
C1595 C1593 1.327 . S
C1596 C1584 1.349 . S
C1596 H1590 0.950 . S
C1596 C1597 1.327 . S
C1597 H1591 0.950 . S
C1597 C1596 1.327 . S
C1597 C1601 1.429 . S
C1598 C1581 1.574 . S
C1598 H1592 0.949 . S
C1598 C1602 1.368 . S
C1599 C1580 1.429 . S
C1599 C1593 1.429 . S
C1599 C1600 1.523 . S
C1600 C1581 1.368 1_565 S
C1600 C1594 1.368 . S
C1600 C1599 1.523 . S
C1601 C1585 1.429 . S
C1601 C1597 1.429 . S
C1601 C1602 1.523 . S
C1602 C1586 1.368 1_545 S
C1602 C1598 1.368 . S
C1602 C1601 1.523 . S
H1603 C1578 0.950 . S
H1604 C1580 0.950 . S
H1605 C1581 0.949 . S
H1606 C1583 0.950 . S
H1607 C1585 0.950 . S
C1608 C1609 1.349 . S
C1608 C1610 1.327 . S
C1608 H1633 0.950 . S
C1609 C1608 1.349 . S
C1609 C1625 1.349 . S
C1610 C1608 1.327 . S
C1610 C1629 1.429 . S
C1610 H1634 0.950 . S
C1611 C1628 1.574 1_655 S
C1611 C1630 1.368 . S
C1611 H1635 0.949 . S
H1612 C1616 0.949 . S
C1613 C1614 1.349 . S
C1613 C1615 1.327 . S
C1613 H1636 0.950 . S
C1614 C1613 1.349 . S
C1614 C1626 1.349 . S
C1615 C1613 1.327 . S
C1615 C1631 1.429 . S
C1615 H1637 0.950 . S
C1616 H1612 0.949 . S
C1616 C1624 1.574 1_455 S
C1616 C1632 1.368 . S
H1617 C1625 0.950 . S
H1618 C1623 0.950 . S
H1619 C1624 0.949 . S
H1620 C1626 0.950 . S
H1621 C1627 0.950 . S
H1622 C1628 0.949 . S
C1623 H1618 0.950 . S
C1623 C1625 1.327 . S
C1623 C1629 1.429 . S
C1624 C1616 1.574 1_655 S
C1624 H1619 0.949 . S
C1624 C1630 1.368 . S
C1625 C1609 1.349 . S
C1625 H1617 0.950 . S
C1625 C1623 1.327 . S
C1626 C1614 1.349 . S
C1626 H1620 0.950 . S
C1626 C1627 1.327 . S
C1627 H1621 0.950 . S
C1627 C1626 1.327 . S
C1627 C1631 1.429 . S
C1628 C1611 1.574 1_455 S
C1628 H1622 0.949 . S
C1628 C1632 1.368 . S
C1629 C1610 1.429 . S
C1629 C1623 1.429 . S
C1629 C1630 1.523 . S
C1630 C1611 1.368 . S
C1630 C1624 1.368 . S
C1630 C1629 1.523 . S
C1631 C1615 1.429 . S
C1631 C1627 1.429 . S
C1631 C1632 1.523 . S
C1632 C1616 1.368 . S
C1632 C1628 1.368 . S
C1632 C1631 1.523 . S
H1633 C1608 0.950 . S
H1634 C1610 0.950 . S
H1635 C1611 0.949 . S
H1636 C1613 0.950 . S
H1637 C1615 0.950 . S
C1638 C1639 1.349 . S
C1638 C1640 1.327 . S
C1638 H1663 0.950 . S
C1639 C1638 1.349 . S
C1639 C1655 1.349 . S
C1640 C1638 1.327 . S
C1640 C1659 1.429 . S
C1640 H1664 0.950 . S
C1641 C1658 1.574 . S
C1641 C1660 1.368 . S
C1641 H1665 0.949 . S
H1642 C1646 0.949 . S
C1643 C1644 1.349 . S
C1643 C1645 1.327 . S
C1643 H1666 0.950 . S
C1644 C1643 1.349 . S
C1644 C1656 1.349 . S
C1645 C1643 1.327 . S
C1645 C1661 1.429 . S
C1645 H1667 0.950 . S
C1646 H1642 0.949 . S
C1646 C1654 1.574 . S
C1646 C1662 1.368 . S
H1647 C1655 0.950 . S
H1648 C1653 0.950 . S
H1649 C1654 0.949 . S
H1650 C1656 0.950 . S
H1651 C1657 0.950 . S
H1652 C1658 0.949 . S
C1653 H1648 0.950 . S
C1653 C1655 1.327 . S
C1653 C1659 1.429 . S
C1654 C1646 1.574 . S
C1654 H1649 0.949 . S
C1654 C1660 1.368 . S
C1655 C1639 1.349 . S
C1655 H1647 0.950 . S
C1655 C1653 1.327 . S
C1656 C1644 1.349 . S
C1656 H1650 0.950 . S
C1656 C1657 1.327 . S
C1657 H1651 0.950 . S
C1657 C1656 1.327 . S
C1657 C1661 1.429 . S
C1658 C1641 1.574 . S
C1658 H1652 0.949 . S
C1658 C1662 1.368 . S
C1659 C1640 1.429 . S
C1659 C1653 1.429 . S
C1659 C1660 1.523 . S
C1660 C1641 1.368 . S
C1660 C1654 1.368 . S
C1660 C1659 1.523 . S
C1661 C1645 1.429 . S
C1661 C1657 1.429 . S
C1661 C1662 1.523 . S
C1662 C1646 1.368 . S
C1662 C1658 1.368 . S
C1662 C1661 1.523 . S
H1663 C1638 0.950 . S
H1664 C1640 0.950 . S
H1665 C1641 0.949 . S
H1666 C1643 0.950 . S
H1667 C1645 0.950 . S
C1668 C1669 1.349 . S
C1668 C1670 1.327 . S
C1668 H1693 0.950 . S
C1669 C1668 1.349 . S
C1669 C1685 1.349 . S
C1670 C1668 1.327 . S
C1670 C1689 1.429 . S
C1670 H1694 0.950 . S
C1671 C1688 1.597 . S
C1671 C1690 1.368 . S
C1671 H1695 0.949 . S
H1672 C1676 0.949 . S
C1673 C1674 1.349 . S
C1673 C1675 1.327 . S
C1673 H1696 0.950 . S
C1674 C1673 1.349 . S
C1674 C1686 1.349 . S
C1675 C1673 1.327 . S
C1675 C1691 1.429 . S
C1675 H1697 0.950 . S
C1676 H1672 0.949 . S
C1676 C1684 1.597 . S
C1676 C1692 1.368 . S
H1677 C1685 0.950 . S
H1678 C1683 0.950 . S
H1679 C1684 0.948 . S
H1680 C1686 0.950 . S
H1681 C1687 0.950 . S
H1682 C1688 0.948 . S
C1683 H1678 0.950 . S
C1683 C1685 1.327 . S
C1683 C1689 1.429 . S
C1684 C1676 1.597 . S
C1684 H1679 0.948 . S
C1684 C1690 1.333 1_565 S
C1685 C1669 1.349 . S
C1685 H1677 0.950 . S
C1685 C1683 1.327 . S
C1686 C1674 1.349 . S
C1686 H1680 0.950 . S
C1686 C1687 1.327 . S
C1687 H1681 0.950 . S
C1687 C1686 1.327 . S
C1687 C1691 1.429 . S
C1688 C1671 1.597 . S
C1688 H1682 0.948 . S
C1688 C1692 1.333 1_545 S
C1689 C1670 1.429 . S
C1689 C1683 1.429 . S
C1689 C1690 1.523 . S
C1690 C1671 1.368 . S
C1690 C1684 1.333 1_545 S
C1690 C1689 1.523 . S
C1691 C1675 1.429 . S
C1691 C1687 1.429 . S
C1691 C1692 1.523 . S
C1692 C1676 1.368 . S
C1692 C1688 1.333 1_565 S
C1692 C1691 1.523 . S
H1693 C1668 0.950 . S
H1694 C1670 0.950 . S
H1695 C1671 0.949 . S
H1696 C1673 0.950 . S
H1697 C1675 0.950 . S
C1698 C1699 1.349 . S
C1698 C1700 1.327 . S
C1698 H1723 0.950 . S
C1699 C1698 1.349 . S
C1699 C1715 1.349 . S
C1700 C1698 1.327 . S
C1700 C1719 1.429 . S
C1700 H1724 0.950 . S
C1701 C1718 1.574 1_655 S
C1701 C1720 1.368 . S
C1701 H1725 0.949 . S
H1702 C1706 0.949 . S
C1703 C1704 1.349 . S
C1703 C1705 1.327 . S
C1703 H1726 0.950 . S
C1704 C1703 1.349 . S
C1704 C1716 1.349 . S
C1705 C1703 1.327 . S
C1705 C1721 1.429 . S
C1705 H1727 0.950 . S
C1706 H1702 0.949 . S
C1706 C1714 1.574 1_455 S
C1706 C1722 1.368 . S
H1707 C1715 0.950 . S
H1708 C1713 0.950 . S
H1709 C1714 0.949 . S
H1710 C1716 0.950 . S
H1711 C1717 0.950 . S
H1712 C1718 0.949 . S
C1713 H1708 0.950 . S
C1713 C1715 1.327 . S
C1713 C1719 1.429 . S
C1714 C1706 1.574 1_655 S
C1714 H1709 0.949 . S
C1714 C1720 1.368 . S
C1715 C1699 1.349 . S
C1715 H1707 0.950 . S
C1715 C1713 1.327 . S
C1716 C1704 1.349 . S
C1716 H1710 0.950 . S
C1716 C1717 1.327 . S
C1717 H1711 0.950 . S
C1717 C1716 1.327 . S
C1717 C1721 1.429 . S
C1718 C1701 1.574 1_455 S
C1718 H1712 0.949 . S
C1718 C1722 1.368 . S
C1719 C1700 1.429 . S
C1719 C1713 1.429 . S
C1719 C1720 1.523 . S
C1720 C1701 1.368 . S
C1720 C1714 1.368 . S
C1720 C1719 1.523 . S
C1721 C1705 1.429 . S
C1721 C1717 1.429 . S
C1721 C1722 1.523 . S
C1722 C1706 1.368 . S
C1722 C1718 1.368 . S
C1722 C1721 1.523 . S
H1723 C1698 0.950 . S
H1724 C1700 0.950 . S
H1725 C1701 0.949 . S
H1726 C1703 0.950 . S
H1727 C1705 0.950 . S
C1728 C1729 1.349 . S
C1728 C1730 1.327 . S
C1728 H1753 0.950 . S
C1729 C1728 1.349 . S
C1729 C1745 1.349 . S
C1730 C1728 1.327 . S
C1730 C1749 1.429 . S
C1730 H1754 0.950 . S
C1731 C1748 1.574 . S
C1731 C1750 1.368 . S
C1731 H1755 0.949 . S
H1732 C1736 0.949 . S
C1733 C1734 1.349 . S
C1733 C1735 1.327 . S
C1733 H1756 0.950 . S
C1734 C1733 1.349 . S
C1734 C1746 1.349 . S
C1735 C1733 1.327 . S
C1735 C1751 1.429 . S
C1735 H1757 0.950 . S
C1736 H1732 0.949 . S
C1736 C1744 1.574 . S
C1736 C1752 1.368 . S
H1737 C1745 0.950 . S
H1738 C1743 0.950 . S
H1739 C1744 0.949 . S
H1740 C1746 0.950 . S
H1741 C1747 0.950 . S
H1742 C1748 0.949 . S
C1743 H1738 0.950 . S
C1743 C1745 1.327 . S
C1743 C1749 1.429 . S
C1744 C1736 1.574 . S
C1744 H1739 0.949 . S
C1744 C1750 1.368 . S
C1745 C1729 1.349 . S
C1745 H1737 0.950 . S
C1745 C1743 1.327 . S
C1746 C1734 1.349 . S
C1746 H1740 0.950 . S
C1746 C1747 1.327 . S
C1747 H1741 0.950 . S
C1747 C1746 1.327 . S
C1747 C1751 1.429 . S
C1748 C1731 1.574 . S
C1748 H1742 0.949 . S
C1748 C1752 1.368 . S
C1749 C1730 1.429 . S
C1749 C1743 1.429 . S
C1749 C1750 1.523 . S
C1750 C1731 1.368 . S
C1750 C1744 1.368 . S
C1750 C1749 1.523 . S
C1751 C1735 1.429 . S
C1751 C1747 1.429 . S
C1751 C1752 1.523 . S
C1752 C1736 1.368 . S
C1752 C1748 1.368 . S
C1752 C1751 1.523 . S
H1753 C1728 0.950 . S
H1754 C1730 0.950 . S
H1755 C1731 0.949 . S
H1756 C1733 0.950 . S
H1757 C1735 0.950 . S
C1758 C1759 1.349 . S
C1758 C1760 1.327 . S
C1758 H1783 0.950 . S
C1759 C1758 1.349 . S
C1759 C1775 1.349 . S
C1760 C1758 1.327 . S
C1760 C1779 1.429 . S
C1760 H1784 0.950 . S
C1761 C1778 1.574 . S
C1761 C1780 1.368 . S
C1761 H1785 0.949 . S
H1762 C1766 0.949 . S
C1763 C1764 1.349 . S
C1763 C1765 1.327 . S
C1763 H1786 0.950 . S
C1764 C1763 1.349 . S
C1764 C1776 1.349 . S
C1765 C1763 1.327 . S
C1765 C1781 1.429 . S
C1765 H1787 0.950 . S
C1766 H1762 0.949 . S
C1766 C1774 1.574 . S
C1766 C1782 1.368 . S
H1767 C1775 0.950 . S
H1768 C1773 0.950 . S
H1769 C1774 0.949 . S
H1770 C1776 0.950 . S
H1771 C1777 0.950 . S
H1772 C1778 0.949 . S
C1773 H1768 0.950 . S
C1773 C1775 1.327 . S
C1773 C1779 1.429 . S
C1774 C1766 1.574 . S
C1774 H1769 0.949 . S
C1774 C1780 1.368 . S
C1775 C1759 1.349 . S
C1775 H1767 0.950 . S
C1775 C1773 1.327 . S
C1776 C1764 1.349 . S
C1776 H1770 0.950 . S
C1776 C1777 1.327 . S
C1777 H1771 0.950 . S
C1777 C1776 1.327 . S
C1777 C1781 1.429 . S
C1778 C1761 1.574 . S
C1778 H1772 0.949 . S
C1778 C1782 1.368 . S
C1779 C1760 1.429 . S
C1779 C1773 1.429 . S
C1779 C1780 1.523 . S
C1780 C1761 1.368 . S
C1780 C1774 1.368 . S
C1780 C1779 1.523 . S
C1781 C1765 1.429 . S
C1781 C1777 1.429 . S
C1781 C1782 1.523 . S
C1782 C1766 1.368 . S
C1782 C1778 1.368 . S
C1782 C1781 1.523 . S
H1783 C1758 0.950 . S
H1784 C1760 0.950 . S
H1785 C1761 0.949 . S
H1786 C1763 0.950 . S
H1787 C1765 0.950 . S
C1788 C1789 1.349 . S
C1788 C1790 1.327 . S
C1788 H1813 0.950 . S
C1789 C1788 1.349 . S
C1789 C1805 1.349 . S
C1790 C1788 1.327 . S
C1790 C1809 1.429 . S
C1790 H1814 0.950 . S
C1791 C1808 1.574 . S
C1791 C1810 1.368 . S
C1791 H1815 0.949 . S
H1792 C1796 0.949 . S
C1793 C1794 1.349 . S
C1793 C1795 1.327 . S
C1793 H1816 0.950 . S
C1794 C1793 1.349 . S
C1794 C1806 1.349 . S
C1795 C1793 1.327 . S
C1795 C1811 1.429 . S
C1795 H1817 0.950 . S
C1796 H1792 0.949 . S
C1796 C1804 1.574 . S
C1796 C1812 1.368 . S
H1797 C1805 0.950 . S
H1798 C1803 0.950 . S
H1799 C1804 0.949 . S
H1800 C1806 0.950 . S
H1801 C1807 0.950 . S
H1802 C1808 0.949 . S
C1803 H1798 0.950 . S
C1803 C1805 1.327 . S
C1803 C1809 1.429 . S
C1804 C1796 1.574 . S
C1804 H1799 0.949 . S
C1804 C1810 1.368 . S
C1805 C1789 1.349 . S
C1805 H1797 0.950 . S
C1805 C1803 1.327 . S
C1806 C1794 1.349 . S
C1806 H1800 0.950 . S
C1806 C1807 1.327 . S
C1807 H1801 0.950 . S
C1807 C1806 1.327 . S
C1807 C1811 1.429 . S
C1808 C1791 1.574 . S
C1808 H1802 0.949 . S
C1808 C1812 1.368 . S
C1809 C1790 1.429 . S
C1809 C1803 1.429 . S
C1809 C1810 1.523 . S
C1810 C1791 1.368 . S
C1810 C1804 1.368 . S
C1810 C1809 1.523 . S
C1811 C1795 1.429 . S
C1811 C1807 1.429 . S
C1811 C1812 1.523 . S
C1812 C1796 1.368 . S
C1812 C1808 1.368 . S
C1812 C1811 1.523 . S
H1813 C1788 0.950 . S
H1814 C1790 0.950 . S
H1815 C1791 0.949 . S
H1816 C1793 0.950 . S
H1817 C1795 0.950 . S
C1818 C1819 1.349 . S
C1818 C1820 1.327 . S
C1818 H1843 0.950 . S
C1819 C1818 1.349 . S
C1819 C1835 1.349 1_554 S
C1820 C1818 1.327 . S
C1820 C1839 1.429 . S
C1820 H1844 0.950 . S
C1821 C1838 1.574 . S
C1821 C1840 1.368 . S
C1821 H1845 0.949 . S
H1822 C1826 0.949 . S
C1823 C1824 1.349 . S
C1823 C1825 1.327 . S
C1823 H1846 0.950 . S
C1824 C1823 1.349 . S
C1824 C1836 1.349 . S
C1825 C1823 1.327 . S
C1825 C1841 1.429 . S
C1825 H1847 0.950 . S
C1826 H1822 0.949 . S
C1826 C1834 1.574 . S
C1826 C1842 1.368 . S
H1827 C1835 0.950 . S
H1828 C1833 0.950 . S
H1829 C1834 0.949 . S
H1830 C1836 0.950 . S
H1831 C1837 0.950 . S
H1832 C1838 0.949 . S
C1833 H1828 0.950 . S
C1833 C1835 1.327 1_554 S
C1833 C1839 1.429 . S
C1834 C1826 1.574 . S
C1834 H1829 0.949 . S
C1834 C1840 1.368 . S
C1835 C1819 1.349 1_556 S
C1835 H1827 0.950 . S
C1835 C1833 1.327 1_556 S
C1836 C1824 1.349 . S
C1836 H1830 0.950 . S
C1836 C1837 1.327 . S
C1837 H1831 0.950 . S
C1837 C1836 1.327 . S
C1837 C1841 1.429 . S
C1838 C1821 1.574 . S
C1838 H1832 0.949 . S
C1838 C1842 1.368 . S
C1839 C1820 1.429 . S
C1839 C1833 1.429 . S
C1839 C1840 1.523 . S
C1840 C1821 1.368 . S
C1840 C1834 1.368 . S
C1840 C1839 1.523 . S
C1841 C1825 1.429 . S
C1841 C1837 1.429 . S
C1841 C1842 1.523 . S
C1842 C1826 1.368 . S
C1842 C1838 1.368 . S
C1842 C1841 1.523 . S
H1843 C1818 0.950 . S
H1844 C1820 0.950 . S
H1845 C1821 0.949 . S
H1846 C1823 0.950 . S
H1847 C1825 0.950 . S
C1848 C1849 1.349 . S
C1848 C1850 1.327 . S
C1848 H1873 0.950 . S
C1849 C1848 1.349 . S
C1849 C1865 1.349 . S
C1850 C1848 1.327 . S
C1850 C1869 1.429 . S
C1850 H1874 0.950 . S
C1851 C1868 1.574 . S
C1851 C1870 1.368 . S
C1851 H1875 0.949 . S
H1852 C1856 0.949 . S
C1853 C1854 1.349 . S
C1853 C1855 1.327 . S
C1853 H1876 0.950 . S
C1854 C1853 1.349 . S
C1854 C1866 1.349 . S
C1855 C1853 1.327 . S
C1855 C1871 1.429 . S
C1855 H1877 0.950 . S
C1856 H1852 0.949 . S
C1856 C1864 1.574 . S
C1856 C1872 1.368 . S
H1857 C1865 0.950 1_556 S
H1858 C1863 0.950 . S
H1859 C1864 0.949 . S
H1860 C1866 0.950 . S
H1861 C1867 0.950 . S
H1862 C1868 0.949 . S
C1863 H1858 0.950 . S
C1863 C1865 1.327 . S
C1863 C1869 1.429 . S
C1864 C1856 1.574 . S
C1864 H1859 0.949 . S
C1864 C1870 1.368 . S
C1865 C1849 1.349 . S
C1865 H1857 0.950 1_554 S
C1865 C1863 1.327 . S
C1866 C1854 1.349 . S
C1866 H1860 0.950 . S
C1866 C1867 1.327 . S
C1867 H1861 0.950 . S
C1867 C1866 1.327 . S
C1867 C1871 1.429 . S
C1868 C1851 1.574 . S
C1868 H1862 0.949 . S
C1868 C1872 1.368 . S
C1869 C1850 1.429 . S
C1869 C1863 1.429 . S
C1869 C1870 1.523 . S
C1870 C1851 1.368 . S
C1870 C1864 1.368 . S
C1870 C1869 1.523 . S
C1871 C1855 1.429 . S
C1871 C1867 1.429 . S
C1871 C1872 1.523 . S
C1872 C1856 1.368 . S
C1872 C1868 1.368 . S
C1872 C1871 1.523 . S
H1873 C1848 0.950 . S
H1874 C1850 0.950 . S
H1875 C1851 0.949 . S
H1876 C1853 0.950 . S
H1877 C1855 0.950 . S
C1878 C1879 1.349 . S
C1878 C1880 1.327 . S
C1878 H1903 0.950 1_554 S
C1879 C1878 1.349 . S
C1879 C1895 1.349 . S
C1880 C1878 1.327 . S
C1880 C1899 1.429 . S
C1880 H1904 0.950 . S
C1881 C1898 1.574 . S
C1881 C1900 1.368 . S
C1881 H1905 0.949 . S
H1882 C1886 0.949 . S
C1883 C1884 1.349 . S
C1883 C1885 1.327 . S
C1883 H1906 0.950 . S
C1884 C1883 1.349 . S
C1884 C1896 1.349 . S
C1885 C1883 1.327 . S
C1885 C1901 1.429 . S
C1885 H1907 0.950 . S
C1886 H1882 0.949 . S
C1886 C1894 1.574 . S
C1886 C1902 1.368 . S
H1887 C1895 0.950 . S
H1888 C1893 0.950 . S
H1889 C1894 0.949 . S
H1890 C1896 0.950 . S
H1891 C1897 0.950 . S
H1892 C1898 0.949 . S
C1893 H1888 0.950 . S
C1893 C1895 1.327 . S
C1893 C1899 1.429 . S
C1894 C1886 1.574 . S
C1894 H1889 0.949 . S
C1894 C1900 1.368 . S
C1895 C1879 1.349 . S
C1895 H1887 0.950 . S
C1895 C1893 1.327 . S
C1896 C1884 1.349 . S
C1896 H1890 0.950 . S
C1896 C1897 1.327 . S
C1897 H1891 0.950 . S
C1897 C1896 1.327 . S
C1897 C1901 1.429 . S
C1898 C1881 1.574 . S
C1898 H1892 0.949 . S
C1898 C1902 1.368 . S
C1899 C1880 1.429 . S
C1899 C1893 1.429 . S
C1899 C1900 1.523 . S
C1900 C1881 1.368 . S
C1900 C1894 1.368 . S
C1900 C1899 1.523 . S
C1901 C1885 1.429 . S
C1901 C1897 1.429 . S
C1901 C1902 1.523 . S
C1902 C1886 1.368 . S
C1902 C1898 1.368 . S
C1902 C1901 1.523 . S
H1903 C1878 0.950 1_556 S
H1904 C1880 0.950 . S
H1905 C1881 0.949 . S
H1906 C1883 0.950 . S
H1907 C1885 0.950 . S
C1908 C1909 1.349 . S
C1908 C1910 1.327 . S
C1908 H1933 0.950 . S
C1909 C1908 1.349 . S
C1909 C1925 1.349 . S
C1910 C1908 1.327 . S
C1910 C1929 1.429 . S
C1910 H1934 0.950 . S
C1911 C1928 1.574 . S
C1911 C1930 1.368 . S
C1911 H1935 0.949 . S
H1912 C1916 0.949 . S
C1913 C1914 1.349 . S
C1913 C1915 1.327 . S
C1913 H1936 0.950 . S
C1914 C1913 1.349 . S
C1914 C1926 1.349 . S
C1915 C1913 1.327 . S
C1915 C1931 1.429 . S
C1915 H1937 0.950 . S
C1916 H1912 0.949 . S
C1916 C1924 1.574 . S
C1916 C1932 1.368 . S
H1917 C1925 0.950 . S
H1918 C1923 0.950 . S
H1919 C1924 0.949 . S
H1920 C1926 0.950 . S
H1921 C1927 0.950 . S
H1922 C1928 0.949 . S
C1923 H1918 0.950 . S
C1923 C1925 1.327 . S
C1923 C1929 1.429 . S
C1924 C1916 1.574 . S
C1924 H1919 0.949 . S
C1924 C1930 1.368 . S
C1925 C1909 1.349 . S
C1925 H1917 0.950 . S
C1925 C1923 1.327 . S
C1926 C1914 1.349 . S
C1926 H1920 0.950 . S
C1926 C1927 1.327 . S
C1927 H1921 0.950 . S
C1927 C1926 1.327 . S
C1927 C1931 1.429 . S
C1928 C1911 1.574 . S
C1928 H1922 0.949 . S
C1928 C1932 1.368 . S
C1929 C1910 1.429 . S
C1929 C1923 1.429 . S
C1929 C1930 1.523 . S
C1930 C1911 1.368 . S
C1930 C1924 1.368 . S
C1930 C1929 1.523 . S
C1931 C1915 1.429 . S
C1931 C1927 1.429 . S
C1931 C1932 1.523 . S
C1932 C1916 1.368 . S
C1932 C1928 1.368 . S
C1932 C1931 1.523 . S
H1933 C1908 0.950 . S
H1934 C1910 0.950 . S
H1935 C1911 0.949 . S
H1936 C1913 0.950 . S
H1937 C1915 0.950 . S
C1938 C1939 1.349 . S
C1938 C1940 1.327 . S
C1938 H1963 0.950 . S
C1939 C1938 1.349 . S
C1939 C1955 1.349 . S
C1940 C1938 1.327 . S
C1940 C1959 1.429 . S
C1940 H1964 0.950 . S
C1941 C1958 1.574 . S
C1941 C1960 1.368 . S
C1941 H1965 0.949 . S
H1942 C1946 0.949 . S
C1943 C1944 1.349 . S
C1943 C1945 1.327 . S
C1943 H1966 0.950 1_556 S
C1944 C1943 1.349 . S
C1944 C1956 1.349 . S
C1945 C1943 1.327 . S
C1945 C1961 1.429 . S
C1945 H1967 0.950 . S
C1946 H1942 0.949 . S
C1946 C1954 1.574 . S
C1946 C1962 1.368 . S
H1947 C1955 0.950 . S
H1948 C1953 0.950 . S
H1949 C1954 0.949 . S
H1950 C1956 0.950 . S
H1951 C1957 0.950 . S
H1952 C1958 0.949 . S
C1953 H1948 0.950 . S
C1953 C1955 1.327 . S
C1953 C1959 1.429 . S
C1954 C1946 1.574 . S
C1954 H1949 0.949 . S
C1954 C1960 1.368 . S
C1955 C1939 1.349 . S
C1955 H1947 0.950 . S
C1955 C1953 1.327 . S
C1956 C1944 1.349 . S
C1956 H1950 0.950 . S
C1956 C1957 1.327 . S
C1957 H1951 0.950 . S
C1957 C1956 1.327 . S
C1957 C1961 1.429 . S
C1958 C1941 1.574 . S
C1958 H1952 0.949 . S
C1958 C1962 1.368 . S
C1959 C1940 1.429 . S
C1959 C1953 1.429 . S
C1959 C1960 1.523 . S
C1960 C1941 1.368 . S
C1960 C1954 1.368 . S
C1960 C1959 1.523 . S
C1961 C1945 1.429 . S
C1961 C1957 1.429 . S
C1961 C1962 1.523 . S
C1962 C1946 1.368 . S
C1962 C1958 1.368 . S
C1962 C1961 1.523 . S
H1963 C1938 0.950 . S
H1964 C1940 0.950 . S
H1965 C1941 0.949 . S
H1966 C1943 0.950 1_554 S
H1967 C1945 0.950 . S
C1968 C1969 1.349 . S
C1968 C1970 1.327 . S
C1968 H1993 0.950 . S
C1969 C1968 1.349 . S
C1969 C1985 1.359 . S
C1970 C1968 1.327 . S
C1970 C1989 1.429 . S
C1970 H1994 0.950 . S
C1971 C1988 1.574 . S
C1971 C1990 1.368 . S
C1971 H1995 0.949 . S
H1972 C1976 0.949 . S
C1973 C1974 1.349 . S
C1973 C1975 1.327 . S
C1973 H1996 0.950 . S
C1974 C1973 1.349 . S
C1974 C1986 1.349 . S
C1975 C1973 1.327 . S
C1975 C1991 1.429 . S
C1975 H1997 0.950 . S
C1976 H1972 0.949 . S
C1976 C1984 1.574 . S
C1976 C1992 1.368 . S
H1977 C1985 0.910 1_554 S
H1978 C1983 0.950 . S
H1979 C1984 0.949 . S
H1980 C1986 0.950 . S
H1981 C1987 0.950 . S
H1982 C1988 0.949 . S
C1983 H1978 0.950 . S
C1983 C1985 1.357 . S
C1983 C1989 1.429 . S
C1984 C1976 1.574 . S
C1984 H1979 0.949 . S
C1984 C1990 1.368 . S
C1985 C1969 1.359 . S
C1985 H1977 0.910 1_556 S
C1985 C1983 1.357 . S
C1986 C1974 1.349 . S
C1986 H1980 0.950 . S
C1986 C1987 1.327 . S
C1987 H1981 0.950 . S
C1987 C1986 1.327 . S
C1987 C1991 1.429 . S
C1988 C1971 1.574 . S
C1988 H1982 0.949 . S
C1988 C1992 1.368 . S
C1989 C1970 1.429 . S
C1989 C1983 1.429 . S
C1989 C1990 1.523 . S
C1990 C1971 1.368 . S
C1990 C1984 1.368 . S
C1990 C1989 1.523 . S
C1991 C1975 1.429 . S
C1991 C1987 1.429 . S
C1991 C1992 1.523 . S
C1992 C1976 1.368 . S
C1992 C1988 1.368 . S
C1992 C1991 1.523 . S
H1993 C1968 0.950 . S
H1994 C1970 0.950 . S
H1995 C1971 0.949 . S
H1996 C1973 0.950 . S
H1997 C1975 0.950 . S
C1998 C1999 1.349 . S
C1998 C2000 1.327 . S
C1998 H2023 0.950 . S
C1999 C1998 1.349 . S
C1999 C2015 1.349 . S
C2000 C1998 1.327 . S
C2000 C2019 1.429 . S
C2000 H2024 0.950 . S
C2001 C2018 1.574 . S
C2001 C2020 1.368 . S
C2001 H2025 0.949 . S
H2002 C2006 0.949 . S
C2003 C2004 1.349 . S
C2003 C2005 1.327 . S
C2003 H2026 0.950 . S
C2004 C2003 1.349 . S
C2004 C2016 1.349 . S
C2005 C2003 1.327 . S
C2005 C2021 1.429 . S
C2005 H2027 0.950 . S
C2006 H2002 0.949 . S
C2006 C2014 1.574 . S
C2006 C2022 1.368 . S
H2007 C2015 0.950 . S
H2008 C2013 0.950 . S
H2009 C2014 0.949 . S
H2010 C2016 0.950 . S
H2011 C2017 0.950 . S
H2012 C2018 0.949 . S
C2013 H2008 0.950 . S
C2013 C2015 1.327 . S
C2013 C2019 1.429 . S
C2014 C2006 1.574 . S
C2014 H2009 0.949 . S
C2014 C2020 1.368 . S
C2015 C1999 1.349 . S
C2015 H2007 0.950 . S
C2015 C2013 1.327 . S
C2016 C2004 1.349 . S
C2016 H2010 0.950 . S
C2016 C2017 1.327 . S
C2017 H2011 0.950 . S
C2017 C2016 1.327 . S
C2017 C2021 1.429 . S
C2018 C2001 1.574 . S
C2018 H2012 0.949 . S
C2018 C2022 1.368 . S
C2019 C2000 1.429 . S
C2019 C2013 1.429 . S
C2019 C2020 1.523 . S
C2020 C2001 1.368 . S
C2020 C2014 1.368 . S
C2020 C2019 1.523 . S
C2021 C2005 1.429 . S
C2021 C2017 1.429 . S
C2021 C2022 1.523 . S
C2022 C2006 1.368 . S
C2022 C2018 1.368 . S
C2022 C2021 1.523 . S
H2023 C1998 0.950 . S
H2024 C2000 0.950 . S
H2025 C2001 0.949 . S
H2026 C2003 0.950 . S
H2027 C2005 0.950 . S
C2028 C2029 1.349 . S
C2028 C2030 1.327 . S
C2028 H2053 0.950 . S
C2029 C2028 1.349 . S
C2029 C2045 1.349 . S
C2030 C2028 1.327 . S
C2030 C2049 1.429 . S
C2030 H2054 0.950 . S
C2031 C2048 1.574 . S
C2031 C2050 1.368 . S
C2031 H2055 0.949 . S
H2032 C2036 0.949 . S
C2033 C2034 1.349 . S
C2033 C2035 1.327 . S
C2033 H2056 0.950 . S
C2034 C2033 1.349 . S
C2034 C2046 1.349 . S
C2035 C2033 1.327 . S
C2035 C2051 1.429 . S
C2035 H2057 0.950 . S
C2036 H2032 0.949 . S
C2036 C2044 1.574 . S
C2036 C2052 1.368 . S
H2037 C2045 0.950 . S
H2038 C2043 0.950 . S
H2039 C2044 0.949 . S
H2040 C2046 0.950 . S
H2041 C2047 0.950 . S
H2042 C2048 0.949 . S
C2043 H2038 0.950 . S
C2043 C2045 1.327 . S
C2043 C2049 1.429 . S
C2044 C2036 1.574 . S
C2044 H2039 0.949 . S
C2044 C2050 1.368 . S
C2045 C2029 1.349 . S
C2045 H2037 0.950 . S
C2045 C2043 1.327 . S
C2046 C2034 1.349 . S
C2046 H2040 0.950 . S
C2046 C2047 1.327 . S
C2047 H2041 0.950 . S
C2047 C2046 1.327 . S
C2047 C2051 1.429 . S
C2048 C2031 1.574 . S
C2048 H2042 0.949 . S
C2048 C2052 1.368 . S
C2049 C2030 1.429 . S
C2049 C2043 1.429 . S
C2049 C2050 1.523 . S
C2050 C2031 1.368 . S
C2050 C2044 1.368 . S
C2050 C2049 1.523 . S
C2051 C2035 1.429 . S
C2051 C2047 1.429 . S
C2051 C2052 1.523 . S
C2052 C2036 1.368 . S
C2052 C2048 1.368 . S
C2052 C2051 1.523 . S
H2053 C2028 0.950 . S
H2054 C2030 0.950 . S
H2055 C2031 0.949 . S
H2056 C2033 0.950 . S
H2057 C2035 0.950 . S
C2058 C2059 1.349 . S
C2058 C2060 1.327 . S
C2058 H2083 0.950 . S
C2059 C2058 1.349 . S
C2059 C2075 1.349 . S
C2060 C2058 1.327 . S
C2060 C2079 1.429 . S
C2060 H2084 0.950 . S
C2061 C2078 1.574 . S
C2061 C2080 1.368 . S
C2061 H2085 0.949 . S
H2062 C2066 0.949 . S
C2063 C2064 1.349 . S
C2063 C2065 1.327 . S
C2063 H2086 0.950 . S
C2064 C2063 1.349 . S
C2064 C2076 1.349 . S
C2065 C2063 1.327 . S
C2065 C2081 1.429 . S
C2065 H2087 0.950 . S
C2066 H2062 0.949 . S
C2066 C2074 1.574 . S
C2066 C2082 1.368 . S
H2067 C2075 0.950 . S
H2068 C2073 0.950 . S
H2069 C2074 0.949 . S
H2070 C2076 0.950 . S
H2071 C2077 0.950 . S
H2072 C2078 0.949 . S
C2073 H2068 0.950 . S
C2073 C2075 1.327 . S
C2073 C2079 1.429 . S
C2074 C2066 1.574 . S
C2074 H2069 0.949 . S
C2074 C2080 1.368 . S
C2075 C2059 1.349 . S
C2075 H2067 0.950 . S
C2075 C2073 1.327 . S
C2076 C2064 1.349 . S
C2076 H2070 0.950 . S
C2076 C2077 1.327 . S
C2077 H2071 0.950 . S
C2077 C2076 1.327 . S
C2077 C2081 1.429 . S
C2078 C2061 1.574 . S
C2078 H2072 0.949 . S
C2078 C2082 1.368 . S
C2079 C2060 1.429 . S
C2079 C2073 1.429 . S
C2079 C2080 1.523 . S
C2080 C2061 1.368 . S
C2080 C2074 1.368 . S
C2080 C2079 1.523 . S
C2081 C2065 1.429 . S
C2081 C2077 1.429 . S
C2081 C2082 1.523 . S
C2082 C2066 1.368 . S
C2082 C2078 1.368 . S
C2082 C2081 1.523 . S
H2083 C2058 0.950 . S
H2084 C2060 0.950 . S
H2085 C2061 0.949 . S
H2086 C2063 0.950 . S
H2087 C2065 0.950 . S
C2088 C2089 1.349 . S
C2088 C2090 1.327 . S
C2088 H2113 0.950 . S
C2089 C2088 1.349 . S
C2089 C2105 1.349 . S
C2090 C2088 1.327 . S
C2090 C2109 1.429 . S
C2090 H2114 0.950 . S
C2091 C2108 1.574 . S
C2091 C2110 1.368 . S
C2091 H2115 0.949 . S
H2092 C2096 0.949 . S
C2093 C2094 1.349 . S
C2093 C2095 1.327 . S
C2093 H2116 0.950 . S
C2094 C2093 1.349 . S
C2094 C2106 1.349 . S
C2095 C2093 1.327 . S
C2095 C2111 1.429 . S
C2095 H2117 0.950 . S
C2096 H2092 0.949 . S
C2096 C2104 1.574 . S
C2096 C2112 1.368 . S
H2097 C2105 0.950 . S
H2098 C2103 0.950 . S
H2099 C2104 0.949 . S
H2100 C2106 0.950 . S
H2101 C2107 0.950 . S
H2102 C2108 0.949 . S
C2103 H2098 0.950 . S
C2103 C2105 1.327 . S
C2103 C2109 1.429 . S
C2104 C2096 1.574 . S
C2104 H2099 0.949 . S
C2104 C2110 1.368 . S
C2105 C2089 1.349 . S
C2105 H2097 0.950 . S
C2105 C2103 1.327 . S
C2106 C2094 1.349 . S
C2106 H2100 0.950 . S
C2106 C2107 1.327 . S
C2107 H2101 0.950 . S
C2107 C2106 1.327 . S
C2107 C2111 1.429 . S
C2108 C2091 1.574 . S
C2108 H2102 0.949 . S
C2108 C2112 1.368 . S
C2109 C2090 1.429 . S
C2109 C2103 1.429 . S
C2109 C2110 1.523 . S
C2110 C2091 1.368 . S
C2110 C2104 1.368 . S
C2110 C2109 1.523 . S
C2111 C2095 1.429 . S
C2111 C2107 1.429 . S
C2111 C2112 1.523 . S
C2112 C2096 1.368 . S
C2112 C2108 1.368 . S
C2112 C2111 1.523 . S
H2113 C2088 0.950 . S
H2114 C2090 0.950 . S
H2115 C2091 0.949 . S
H2116 C2093 0.950 . S
H2117 C2095 0.950 . S
C2118 C2119 1.349 . S
C2118 C2120 1.327 . S
C2118 H2143 0.950 . S
C2119 C2118 1.349 . S
C2119 C2135 1.349 . S
C2120 C2118 1.327 . S
C2120 C2139 1.429 . S
C2120 H2144 0.950 . S
C2121 C2138 1.574 . S
C2121 C2140 1.368 . S
C2121 H2145 0.949 . S
H2122 C2126 0.949 . S
C2123 C2124 1.349 . S
C2123 C2125 1.327 . S
C2123 H2146 0.950 . S
C2124 C2123 1.349 . S
C2124 C2136 1.349 . S
C2125 C2123 1.327 . S
C2125 C2141 1.429 . S
C2125 H2147 0.950 . S
C2126 H2122 0.949 . S
C2126 C2134 1.574 . S
C2126 C2142 1.368 . S
H2127 C2135 0.950 . S
H2128 C2133 0.950 . S
H2129 C2134 0.949 . S
H2130 C2136 0.950 . S
H2131 C2137 0.950 . S
H2132 C2138 0.949 . S
C2133 H2128 0.950 . S
C2133 C2135 1.327 . S
C2133 C2139 1.429 . S
C2134 C2126 1.574 . S
C2134 H2129 0.949 . S
C2134 C2140 1.368 . S
C2135 C2119 1.349 . S
C2135 H2127 0.950 . S
C2135 C2133 1.327 . S
C2136 C2124 1.349 . S
C2136 H2130 0.950 . S
C2136 C2137 1.327 . S
C2137 H2131 0.950 . S
C2137 C2136 1.327 . S
C2137 C2141 1.429 . S
C2138 C2121 1.574 . S
C2138 H2132 0.949 . S
C2138 C2142 1.368 . S
C2139 C2120 1.429 . S
C2139 C2133 1.429 . S
C2139 C2140 1.523 . S
C2140 C2121 1.368 . S
C2140 C2134 1.368 . S
C2140 C2139 1.523 . S
C2141 C2125 1.429 . S
C2141 C2137 1.429 . S
C2141 C2142 1.523 . S
C2142 C2126 1.368 . S
C2142 C2138 1.368 . S
C2142 C2141 1.523 . S
H2143 C2118 0.950 . S
H2144 C2120 0.950 . S
H2145 C2121 0.949 . S
H2146 C2123 0.950 . S
H2147 C2125 0.950 . S
C2148 C2149 1.349 . S
C2148 C2150 1.327 . S
C2148 H2173 0.950 . S
C2149 C2148 1.349 . S
C2149 C2165 1.349 . S
C2150 C2148 1.327 . S
C2150 C2169 1.429 . S
C2150 H2174 0.950 . S
C2151 C2168 1.574 . S
C2151 C2170 1.368 . S
C2151 H2175 0.949 . S
H2152 C2156 0.949 . S
C2153 C2154 1.349 . S
C2153 C2155 1.327 . S
C2153 H2176 0.950 . S
C2154 C2153 1.349 . S
C2154 C2166 1.349 . S
C2155 C2153 1.327 . S
C2155 C2171 1.429 . S
C2155 H2177 0.950 . S
C2156 H2152 0.949 . S
C2156 C2164 1.574 . S
C2156 C2172 1.368 . S
H2157 C2165 0.950 . S
H2158 C2163 0.950 . S
H2159 C2164 0.949 . S
H2160 C2166 0.950 . S
H2161 C2167 0.950 . S
H2162 C2168 0.949 . S
C2163 H2158 0.950 . S
C2163 C2165 1.327 . S
C2163 C2169 1.429 . S
C2164 C2156 1.574 . S
C2164 H2159 0.949 . S
C2164 C2170 1.368 . S
C2165 C2149 1.349 . S
C2165 H2157 0.950 . S
C2165 C2163 1.327 . S
C2166 C2154 1.349 . S
C2166 H2160 0.950 . S
C2166 C2167 1.327 . S
C2167 H2161 0.950 . S
C2167 C2166 1.327 . S
C2167 C2171 1.429 . S
C2168 C2151 1.574 . S
C2168 H2162 0.949 . S
C2168 C2172 1.368 . S
C2169 C2150 1.429 . S
C2169 C2163 1.429 . S
C2169 C2170 1.523 . S
C2170 C2151 1.368 . S
C2170 C2164 1.368 . S
C2170 C2169 1.523 . S
C2171 C2155 1.429 . S
C2171 C2167 1.429 . S
C2171 C2172 1.523 . S
C2172 C2156 1.368 . S
C2172 C2168 1.368 . S
C2172 C2171 1.523 . S
H2173 C2148 0.950 . S
H2174 C2150 0.950 . S
H2175 C2151 0.949 . S
H2176 C2153 0.950 . S
H2177 C2155 0.950 . S
C2178 C2179 1.349 . S
C2178 C2180 1.327 . S
C2178 H2203 0.950 . S
C2179 C2178 1.349 . S
C2179 C2195 1.349 . S
C2180 C2178 1.327 . S
C2180 C2199 1.429 . S
C2180 H2204 0.950 . S
C2181 C2198 1.574 . S
C2181 C2200 1.368 . S
C2181 H2205 0.949 . S
H2182 C2186 0.949 . S
C2183 C2184 1.349 . S
C2183 C2185 1.327 . S
C2183 H2206 0.950 . S
C2184 C2183 1.349 . S
C2184 C2196 1.349 . S
C2185 C2183 1.327 . S
C2185 C2201 1.429 . S
C2185 H2207 0.950 . S
C2186 H2182 0.949 . S
C2186 C2194 1.574 . S
C2186 C2202 1.368 . S
H2187 C2195 0.950 . S
H2188 C2193 0.950 . S
H2189 C2194 0.949 . S
H2190 C2196 0.950 . S
H2191 C2197 0.950 . S
H2192 C2198 0.949 . S
C2193 H2188 0.950 . S
C2193 C2195 1.327 . S
C2193 C2199 1.429 . S
C2194 C2186 1.574 . S
C2194 H2189 0.949 . S
C2194 C2200 1.368 . S
C2195 C2179 1.349 . S
C2195 H2187 0.950 . S
C2195 C2193 1.327 . S
C2196 C2184 1.349 . S
C2196 H2190 0.950 . S
C2196 C2197 1.327 . S
C2197 H2191 0.950 . S
C2197 C2196 1.327 . S
C2197 C2201 1.429 . S
C2198 C2181 1.574 . S
C2198 H2192 0.949 . S
C2198 C2202 1.368 . S
C2199 C2180 1.429 . S
C2199 C2193 1.429 . S
C2199 C2200 1.523 . S
C2200 C2181 1.368 . S
C2200 C2194 1.368 . S
C2200 C2199 1.523 . S
C2201 C2185 1.429 . S
C2201 C2197 1.429 . S
C2201 C2202 1.523 . S
C2202 C2186 1.368 . S
C2202 C2198 1.368 . S
C2202 C2201 1.523 . S
H2203 C2178 0.950 . S
H2204 C2180 0.950 . S
H2205 C2181 0.949 . S
H2206 C2183 0.950 . S
H2207 C2185 0.950 . S
C2208 C2209 1.349 . S
C2208 C2210 1.327 . S
C2208 H2233 0.950 . S
C2209 C2208 1.349 . S
C2209 C2225 1.349 . S
C2210 C2208 1.327 . S
C2210 C2229 1.429 . S
C2210 H2234 0.950 . S
C2211 C2228 1.574 . S
C2211 C2230 1.368 . S
C2211 H2235 0.949 . S
H2212 C2216 0.949 . S
C2213 C2214 1.349 . S
C2213 C2215 1.327 . S
C2213 H2236 0.950 . S
C2214 C2213 1.349 . S
C2214 C2226 1.349 . S
C2215 C2213 1.327 . S
C2215 C2231 1.429 . S
C2215 H2237 0.950 . S
C2216 H2212 0.949 . S
C2216 C2224 1.574 . S
C2216 C2232 1.368 . S
H2217 C2225 0.950 . S
H2218 C2223 0.950 . S
H2219 C2224 0.949 . S
H2220 C2226 0.950 . S
H2221 C2227 0.950 . S
H2222 C2228 0.949 . S
C2223 H2218 0.950 . S
C2223 C2225 1.327 . S
C2223 C2229 1.429 . S
C2224 C2216 1.574 . S
C2224 H2219 0.949 . S
C2224 C2230 1.368 . S
C2225 C2209 1.349 . S
C2225 H2217 0.950 . S
C2225 C2223 1.327 . S
C2226 C2214 1.349 . S
C2226 H2220 0.950 . S
C2226 C2227 1.327 . S
C2227 H2221 0.950 . S
C2227 C2226 1.327 . S
C2227 C2231 1.429 . S
C2228 C2211 1.574 . S
C2228 H2222 0.949 . S
C2228 C2232 1.368 . S
C2229 C2210 1.429 . S
C2229 C2223 1.429 . S
C2229 C2230 1.523 . S
C2230 C2211 1.368 . S
C2230 C2224 1.368 . S
C2230 C2229 1.523 . S
C2231 C2215 1.429 . S
C2231 C2227 1.429 . S
C2231 C2232 1.523 . S
C2232 C2216 1.368 . S
C2232 C2228 1.368 . S
C2232 C2231 1.523 . S
H2233 C2208 0.950 . S
H2234 C2210 0.950 . S
H2235 C2211 0.949 . S
H2236 C2213 0.950 . S
H2237 C2215 0.950 . S
C2238 C2239 1.349 . S
C2238 C2240 1.327 . S
C2238 H2263 0.950 . S
C2239 C2238 1.349 . S
C2239 C2255 1.349 . S
C2240 C2238 1.327 . S
C2240 C2259 1.429 . S
C2240 H2264 0.950 . S
C2241 C2258 1.574 . S
C2241 C2260 1.368 . S
C2241 H2265 0.949 . S
H2242 C2246 0.949 . S
C2243 C2244 1.349 . S
C2243 C2245 1.327 . S
C2243 H2266 0.950 . S
C2244 C2243 1.349 . S
C2244 C2256 1.349 . S
C2245 C2243 1.327 . S
C2245 C2261 1.429 . S
C2245 H2267 0.950 . S
C2246 H2242 0.949 . S
C2246 C2254 1.574 . S
C2246 C2262 1.368 . S
H2247 C2255 0.950 . S
H2248 C2253 0.950 . S
H2249 C2254 0.949 . S
H2250 C2256 0.950 . S
H2251 C2257 0.950 . S
H2252 C2258 0.949 . S
C2253 H2248 0.950 . S
C2253 C2255 1.327 . S
C2253 C2259 1.429 . S
C2254 C2246 1.574 . S
C2254 H2249 0.949 . S
C2254 C2260 1.368 . S
C2255 C2239 1.349 . S
C2255 H2247 0.950 . S
C2255 C2253 1.327 . S
C2256 C2244 1.349 . S
C2256 H2250 0.950 . S
C2256 C2257 1.327 . S
C2257 H2251 0.950 . S
C2257 C2256 1.327 . S
C2257 C2261 1.429 . S
C2258 C2241 1.574 . S
C2258 H2252 0.949 . S
C2258 C2262 1.368 . S
C2259 C2240 1.429 . S
C2259 C2253 1.429 . S
C2259 C2260 1.523 . S
C2260 C2241 1.368 . S
C2260 C2254 1.368 . S
C2260 C2259 1.523 . S
C2261 C2245 1.429 . S
C2261 C2257 1.429 . S
C2261 C2262 1.523 . S
C2262 C2246 1.368 . S
C2262 C2258 1.368 . S
C2262 C2261 1.523 . S
H2263 C2238 0.950 . S
H2264 C2240 0.950 . S
H2265 C2241 0.949 . S
H2266 C2243 0.950 . S
H2267 C2245 0.950 . S
C2268 C2269 1.349 . S
C2268 C2270 1.327 . S
C2268 H2293 0.950 . S
C2269 C2268 1.349 . S
C2269 C2285 1.349 . S
C2270 C2268 1.327 . S
C2270 C2289 1.429 . S
C2270 H2294 0.950 . S
C2271 C2288 1.574 . S
C2271 C2290 1.368 . S
C2271 H2295 0.949 . S
H2272 C2276 0.949 . S
C2273 C2274 1.349 . S
C2273 C2275 1.327 . S
C2273 H2296 0.950 . S
C2274 C2273 1.349 . S
C2274 C2286 1.349 . S
C2275 C2273 1.327 . S
C2275 C2291 1.429 . S
C2275 H2297 0.950 . S
C2276 H2272 0.949 . S
C2276 C2284 1.574 . S
C2276 C2292 1.368 . S
H2277 C2285 0.950 . S
H2278 C2283 0.950 . S
H2279 C2284 0.949 . S
H2280 C2286 0.950 . S
H2281 C2287 0.950 . S
H2282 C2288 0.949 . S
C2283 H2278 0.950 . S
C2283 C2285 1.327 . S
C2283 C2289 1.429 . S
C2284 C2276 1.574 . S
C2284 H2279 0.949 . S
C2284 C2290 1.368 . S
C2285 C2269 1.349 . S
C2285 H2277 0.950 . S
C2285 C2283 1.327 . S
C2286 C2274 1.349 . S
C2286 H2280 0.950 . S
C2286 C2287 1.327 . S
C2287 H2281 0.950 . S
C2287 C2286 1.327 . S
C2287 C2291 1.429 . S
C2288 C2271 1.574 . S
C2288 H2282 0.949 . S
C2288 C2292 1.368 . S
C2289 C2270 1.429 . S
C2289 C2283 1.429 . S
C2289 C2290 1.523 . S
C2290 C2271 1.368 . S
C2290 C2284 1.368 . S
C2290 C2289 1.523 . S
C2291 C2275 1.429 . S
C2291 C2287 1.429 . S
C2291 C2292 1.523 . S
C2292 C2276 1.368 . S
C2292 C2288 1.368 . S
C2292 C2291 1.523 . S
H2293 C2268 0.950 . S
H2294 C2270 0.950 . S
H2295 C2271 0.949 . S
H2296 C2273 0.950 . S
H2297 C2275 0.950 . S
C2298 C2299 1.349 . S
C2298 C2300 1.327 . S
C2298 H2323 0.950 . S
C2299 C2298 1.349 . S
C2299 C2315 1.349 . S
C2300 C2298 1.327 . S
C2300 C2319 1.429 . S
C2300 H2324 0.950 . S
C2301 C2318 1.574 . S
C2301 C2320 1.368 . S
C2301 H2325 0.949 . S
H2302 C2306 0.949 . S
C2303 C2304 1.349 . S
C2303 C2305 1.327 . S
C2303 H2326 0.950 . S
C2304 C2303 1.349 . S
C2304 C2316 1.349 . S
C2305 C2303 1.327 . S
C2305 C2321 1.429 . S
C2305 H2327 0.950 . S
C2306 H2302 0.949 . S
C2306 C2314 1.574 . S
C2306 C2322 1.368 . S
H2307 C2315 0.950 . S
H2308 C2313 0.950 . S
H2309 C2314 0.949 . S
H2310 C2316 0.950 . S
H2311 C2317 0.950 . S
H2312 C2318 0.949 . S
C2313 H2308 0.950 . S
C2313 C2315 1.327 . S
C2313 C2319 1.429 . S
C2314 C2306 1.574 . S
C2314 H2309 0.949 . S
C2314 C2320 1.368 . S
C2315 C2299 1.349 . S
C2315 H2307 0.950 . S
C2315 C2313 1.327 . S
C2316 C2304 1.349 . S
C2316 H2310 0.950 . S
C2316 C2317 1.327 . S
C2317 H2311 0.950 . S
C2317 C2316 1.327 . S
C2317 C2321 1.429 . S
C2318 C2301 1.574 . S
C2318 H2312 0.949 . S
C2318 C2322 1.368 . S
C2319 C2300 1.429 . S
C2319 C2313 1.429 . S
C2319 C2320 1.523 . S
C2320 C2301 1.368 . S
C2320 C2314 1.368 . S
C2320 C2319 1.523 . S
C2321 C2305 1.429 . S
C2321 C2317 1.429 . S
C2321 C2322 1.523 . S
C2322 C2306 1.368 . S
C2322 C2318 1.368 . S
C2322 C2321 1.523 . S
H2323 C2298 0.950 . S
H2324 C2300 0.950 . S
H2325 C2301 0.949 . S
H2326 C2303 0.950 . S
H2327 C2305 0.950 . S
C2328 C2329 1.349 . S
C2328 C2330 1.327 . S
C2328 H2353 0.950 . S
C2329 C2328 1.349 . S
C2329 C2345 1.349 . S
C2330 C2328 1.327 . S
C2330 C2349 1.429 . S
C2330 H2354 0.950 . S
C2331 C2348 1.574 . S
C2331 C2350 1.368 . S
C2331 H2355 0.949 . S
H2332 C2336 0.949 . S
C2333 C2334 1.349 . S
C2333 C2335 1.327 . S
C2333 H2356 0.950 . S
C2334 C2333 1.349 . S
C2334 C2346 1.349 . S
C2335 C2333 1.327 . S
C2335 C2351 1.429 . S
C2335 H2357 0.950 . S
C2336 H2332 0.949 . S
C2336 C2344 1.574 . S
C2336 C2352 1.368 . S
H2337 C2345 0.950 . S
H2338 C2343 0.950 . S
H2339 C2344 0.949 . S
H2340 C2346 0.950 . S
H2341 C2347 0.950 . S
H2342 C2348 0.949 . S
C2343 H2338 0.950 . S
C2343 C2345 1.327 . S
C2343 C2349 1.429 . S
C2344 C2336 1.574 . S
C2344 H2339 0.949 . S
C2344 C2350 1.368 . S
C2345 C2329 1.349 . S
C2345 H2337 0.950 . S
C2345 C2343 1.327 . S
C2346 C2334 1.349 . S
C2346 H2340 0.950 . S
C2346 C2347 1.327 . S
C2347 H2341 0.950 . S
C2347 C2346 1.327 . S
C2347 C2351 1.429 . S
C2348 C2331 1.574 . S
C2348 H2342 0.949 . S
C2348 C2352 1.368 . S
C2349 C2330 1.429 . S
C2349 C2343 1.429 . S
C2349 C2350 1.523 . S
C2350 C2331 1.368 . S
C2350 C2344 1.368 . S
C2350 C2349 1.523 . S
C2351 C2335 1.429 . S
C2351 C2347 1.429 . S
C2351 C2352 1.523 . S
C2352 C2336 1.368 . S
C2352 C2348 1.368 . S
C2352 C2351 1.523 . S
H2353 C2328 0.950 . S
H2354 C2330 0.950 . S
H2355 C2331 0.949 . S
H2356 C2333 0.950 . S
H2357 C2335 0.950 . S
C2358 C2359 1.349 . S
C2358 C2360 1.327 . S
C2358 H2383 0.950 . S
C2359 C2358 1.349 . S
C2359 C2375 1.349 . S
C2360 C2358 1.327 . S
C2360 C2379 1.429 . S
C2360 H2384 0.950 . S
C2361 C2378 1.574 . S
C2361 C2380 1.368 . S
C2361 H2385 0.949 . S
H2362 C2366 0.949 . S
C2363 C2364 1.349 . S
C2363 C2365 1.327 . S
C2363 H2386 0.950 . S
C2364 C2363 1.349 . S
C2364 C2376 1.349 . S
C2365 C2363 1.327 . S
C2365 C2381 1.429 . S
C2365 H2387 0.950 . S
C2366 H2362 0.949 . S
C2366 C2374 1.574 . S
C2366 C2382 1.368 . S
H2367 C2375 0.950 . S
H2368 C2373 0.950 . S
H2369 C2374 0.949 . S
H2370 C2376 0.950 . S
H2371 C2377 0.950 . S
H2372 C2378 0.949 . S
C2373 H2368 0.950 . S
C2373 C2375 1.327 . S
C2373 C2379 1.429 . S
C2374 C2366 1.574 . S
C2374 H2369 0.949 . S
C2374 C2380 1.368 . S
C2375 C2359 1.349 . S
C2375 H2367 0.950 . S
C2375 C2373 1.327 . S
C2376 C2364 1.349 . S
C2376 H2370 0.950 . S
C2376 C2377 1.327 . S
C2377 H2371 0.950 . S
C2377 C2376 1.327 . S
C2377 C2381 1.429 . S
C2378 C2361 1.574 . S
C2378 H2372 0.949 . S
C2378 C2382 1.368 . S
C2379 C2360 1.429 . S
C2379 C2373 1.429 . S
C2379 C2380 1.523 . S
C2380 C2361 1.368 . S
C2380 C2374 1.368 . S
C2380 C2379 1.523 . S
C2381 C2365 1.429 . S
C2381 C2377 1.429 . S
C2381 C2382 1.523 . S
C2382 C2366 1.368 . S
C2382 C2378 1.368 . S
C2382 C2381 1.523 . S
H2383 C2358 0.950 . S
H2384 C2360 0.950 . S
H2385 C2361 0.949 . S
H2386 C2363 0.950 . S
H2387 C2365 0.950 . S
C2388 C2389 1.349 . S
C2388 C2390 1.327 . S
C2388 H2413 0.950 . S
C2389 C2388 1.349 . S
C2389 C2405 1.349 . S
C2390 C2388 1.327 . S
C2390 C2409 1.429 . S
C2390 H2414 0.950 . S
C2391 C2408 1.574 . S
C2391 C2410 1.368 . S
C2391 H2415 0.949 . S
H2392 C2396 0.949 . S
C2393 C2394 1.349 . S
C2393 C2395 1.327 . S
C2393 H2416 0.950 . S
C2394 C2393 1.349 . S
C2394 C2406 1.349 . S
C2395 C2393 1.327 . S
C2395 C2411 1.429 . S
C2395 H2417 0.950 . S
C2396 H2392 0.949 . S
C2396 C2404 1.574 . S
C2396 C2412 1.368 . S
H2397 C2405 0.950 . S
H2398 C2403 0.950 . S
H2399 C2404 0.949 . S
H2400 C2406 0.950 . S
H2401 C2407 0.950 . S
H2402 C2408 0.949 . S
C2403 H2398 0.950 . S
C2403 C2405 1.327 . S
C2403 C2409 1.429 . S
C2404 C2396 1.574 . S
C2404 H2399 0.949 . S
C2404 C2410 1.368 . S
C2405 C2389 1.349 . S
C2405 H2397 0.950 . S
C2405 C2403 1.327 . S
C2406 C2394 1.349 . S
C2406 H2400 0.950 . S
C2406 C2407 1.327 . S
C2407 H2401 0.950 . S
C2407 C2406 1.327 . S
C2407 C2411 1.429 . S
C2408 C2391 1.574 . S
C2408 H2402 0.949 . S
C2408 C2412 1.368 . S
C2409 C2390 1.429 . S
C2409 C2403 1.429 . S
C2409 C2410 1.523 . S
C2410 C2391 1.368 . S
C2410 C2404 1.368 . S
C2410 C2409 1.523 . S
C2411 C2395 1.429 . S
C2411 C2407 1.429 . S
C2411 C2412 1.523 . S
C2412 C2396 1.368 . S
C2412 C2408 1.368 . S
C2412 C2411 1.523 . S
H2413 C2388 0.950 . S
H2414 C2390 0.950 . S
H2415 C2391 0.949 . S
H2416 C2393 0.950 . S
H2417 C2395 0.950 . S
C2418 C2419 1.349 . S
C2418 C2420 1.327 . S
C2418 H2443 0.950 . S
C2419 C2418 1.349 . S
C2419 C2435 1.349 . S
C2420 C2418 1.327 . S
C2420 C2439 1.429 . S
C2420 H2444 0.950 . S
C2421 C2438 1.574 . S
C2421 C2440 1.368 . S
C2421 H2445 0.949 . S
H2422 C2426 0.949 . S
C2423 C2424 1.349 . S
C2423 C2425 1.327 . S
C2423 H2446 0.950 . S
C2424 C2423 1.349 . S
C2424 C2436 1.349 . S
C2425 C2423 1.327 . S
C2425 C2441 1.429 . S
C2425 H2447 0.950 . S
C2426 H2422 0.949 . S
C2426 C2434 1.574 . S
C2426 C2442 1.368 . S
H2427 C2435 0.950 . S
H2428 C2433 0.950 . S
H2429 C2434 0.949 . S
H2430 C2436 0.950 . S
H2431 C2437 0.950 . S
H2432 C2438 0.949 . S
C2433 H2428 0.950 . S
C2433 C2435 1.327 . S
C2433 C2439 1.429 . S
C2434 C2426 1.574 . S
C2434 H2429 0.949 . S
C2434 C2440 1.368 . S
C2435 C2419 1.349 . S
C2435 H2427 0.950 . S
C2435 C2433 1.327 . S
C2436 C2424 1.349 . S
C2436 H2430 0.950 . S
C2436 C2437 1.327 . S
C2437 H2431 0.950 . S
C2437 C2436 1.327 . S
C2437 C2441 1.429 . S
C2438 C2421 1.574 . S
C2438 H2432 0.949 . S
C2438 C2442 1.368 . S
C2439 C2420 1.429 . S
C2439 C2433 1.429 . S
C2439 C2440 1.523 . S
C2440 C2421 1.368 . S
C2440 C2434 1.368 . S
C2440 C2439 1.523 . S
C2441 C2425 1.429 . S
C2441 C2437 1.429 . S
C2441 C2442 1.523 . S
C2442 C2426 1.368 . S
C2442 C2438 1.368 . S
C2442 C2441 1.523 . S
H2443 C2418 0.950 . S
H2444 C2420 0.950 . S
H2445 C2421 0.949 . S
H2446 C2423 0.950 . S
H2447 C2425 0.950 . S
C2448 C2449 1.349 . S
C2448 C2450 1.327 . S
C2448 H2473 0.950 . S
C2449 C2448 1.349 . S
C2449 C2465 1.349 . S
C2450 C2448 1.327 . S
C2450 C2469 1.429 . S
C2450 H2474 0.950 . S
C2451 C2468 1.574 1_455 S
C2451 C2470 1.368 . S
C2451 H2475 0.949 . S
H2452 C2456 0.949 . S
C2453 C2454 1.349 . S
C2453 C2455 1.327 . S
C2453 H2476 0.950 . S
C2454 C2453 1.349 . S
C2454 C2466 1.349 . S
C2455 C2453 1.327 . S
C2455 C2471 1.429 . S
C2455 H2477 0.950 . S
C2456 H2452 0.949 . S
C2456 C2464 1.574 1_655 S
C2456 C2472 1.368 . S
H2457 C2465 0.950 . S
H2458 C2463 0.950 . S
H2459 C2464 0.949 . S
H2460 C2466 0.950 . S
H2461 C2467 0.950 . S
H2462 C2468 0.949 . S
C2463 H2458 0.950 . S
C2463 C2465 1.327 . S
C2463 C2469 1.429 . S
C2464 C2456 1.574 1_455 S
C2464 H2459 0.949 . S
C2464 C2470 1.368 . S
C2465 C2449 1.349 . S
C2465 H2457 0.950 . S
C2465 C2463 1.327 . S
C2466 C2454 1.349 . S
C2466 H2460 0.950 . S
C2466 C2467 1.327 . S
C2467 H2461 0.950 . S
C2467 C2466 1.327 . S
C2467 C2471 1.429 . S
C2468 C2451 1.574 1_655 S
C2468 H2462 0.949 . S
C2468 C2472 1.368 . S
C2469 C2450 1.429 . S
C2469 C2463 1.429 . S
C2469 C2470 1.523 . S
C2470 C2451 1.368 . S
C2470 C2464 1.368 . S
C2470 C2469 1.523 . S
C2471 C2455 1.429 . S
C2471 C2467 1.429 . S
C2471 C2472 1.523 . S
C2472 C2456 1.368 . S
C2472 C2468 1.368 . S
C2472 C2471 1.523 . S
H2473 C2448 0.950 . S
H2474 C2450 0.950 . S
H2475 C2451 0.949 . S
H2476 C2453 0.950 . S
H2477 C2455 0.950 . S
C2478 C2479 1.349 . S
C2478 C2480 1.327 . S
C2478 H2503 0.950 . S
C2479 C2478 1.349 . S
C2479 C2495 1.349 . S
C2480 C2478 1.327 . S
C2480 C2499 1.429 . S
C2480 H2504 0.950 . S
C2481 C2498 1.574 . S
C2481 C2500 1.368 . S
C2481 H2505 0.949 . S
H2482 C2486 0.949 . S
C2483 C2484 1.349 . S
C2483 C2485 1.327 . S
C2483 H2506 0.950 . S
C2484 C2483 1.349 . S
C2484 C2496 1.349 . S
C2485 C2483 1.327 . S
C2485 C2501 1.429 . S
C2485 H2507 0.950 . S
C2486 H2482 0.949 . S
C2486 C2494 1.574 . S
C2486 C2502 1.368 . S
H2487 C2495 0.950 . S
H2488 C2493 0.950 . S
H2489 C2494 0.949 . S
H2490 C2496 0.950 . S
H2491 C2497 0.950 . S
H2492 C2498 0.949 . S
C2493 H2488 0.950 . S
C2493 C2495 1.327 . S
C2493 C2499 1.429 . S
C2494 C2486 1.574 . S
C2494 H2489 0.949 . S
C2494 C2500 1.368 . S
C2495 C2479 1.349 . S
C2495 H2487 0.950 . S
C2495 C2493 1.327 . S
C2496 C2484 1.349 . S
C2496 H2490 0.950 . S
C2496 C2497 1.327 . S
C2497 H2491 0.950 . S
C2497 C2496 1.327 . S
C2497 C2501 1.429 . S
C2498 C2481 1.574 . S
C2498 H2492 0.949 . S
C2498 C2502 1.368 . S
C2499 C2480 1.429 . S
C2499 C2493 1.429 . S
C2499 C2500 1.523 . S
C2500 C2481 1.368 . S
C2500 C2494 1.368 . S
C2500 C2499 1.523 . S
C2501 C2485 1.429 . S
C2501 C2497 1.429 . S
C2501 C2502 1.523 . S
C2502 C2486 1.368 . S
C2502 C2498 1.368 . S
C2502 C2501 1.523 . S
H2503 C2478 0.950 . S
H2504 C2480 0.950 . S
H2505 C2481 0.949 . S
H2506 C2483 0.950 . S
H2507 C2485 0.950 . S
C2508 C2509 1.349 . S
C2508 C2510 1.327 . S
C2508 H2533 0.950 . S
C2509 C2508 1.349 . S
C2509 C2525 1.349 . S
C2510 C2508 1.327 . S
C2510 C2529 1.429 . S
C2510 H2534 0.950 . S
C2511 C2528 1.574 1_545 S
C2511 C2530 1.368 . S
C2511 H2535 0.949 . S
H2512 C2516 0.949 . S
C2513 C2514 1.349 . S
C2513 C2515 1.327 . S
C2513 H2536 0.950 . S
C2514 C2513 1.349 . S
C2514 C2526 1.349 . S
C2515 C2513 1.327 . S
C2515 C2531 1.429 . S
C2515 H2537 0.950 . S
C2516 H2512 0.949 . S
C2516 C2524 1.574 1_565 S
C2516 C2532 1.368 . S
H2517 C2525 0.950 . S
H2518 C2523 0.950 . S
H2519 C2524 0.949 . S
H2520 C2526 0.950 . S
H2521 C2527 0.950 . S
H2522 C2528 0.949 . S
C2523 H2518 0.950 . S
C2523 C2525 1.327 . S
C2523 C2529 1.429 . S
C2524 C2516 1.574 1_545 S
C2524 H2519 0.949 . S
C2524 C2530 1.368 . S
C2525 C2509 1.349 . S
C2525 H2517 0.950 . S
C2525 C2523 1.327 . S
C2526 C2514 1.349 . S
C2526 H2520 0.950 . S
C2526 C2527 1.327 . S
C2527 H2521 0.950 . S
C2527 C2526 1.327 . S
C2527 C2531 1.429 . S
C2528 C2511 1.574 1_565 S
C2528 H2522 0.949 . S
C2528 C2532 1.368 . S
C2529 C2510 1.429 . S
C2529 C2523 1.429 . S
C2529 C2530 1.523 . S
C2530 C2511 1.368 . S
C2530 C2524 1.368 . S
C2530 C2529 1.523 . S
C2531 C2515 1.429 . S
C2531 C2527 1.429 . S
C2531 C2532 1.523 . S
C2532 C2516 1.368 . S
C2532 C2528 1.368 . S
C2532 C2531 1.523 . S
H2533 C2508 0.950 . S
H2534 C2510 0.950 . S
H2535 C2511 0.949 . S
H2536 C2513 0.950 . S
H2537 C2515 0.950 . S
C2538 C2539 1.349 . S
C2538 C2540 1.327 . S
C2538 H2563 0.950 . S
C2539 C2538 1.349 . S
C2539 C2555 1.349 . S
C2540 C2538 1.327 . S
C2540 C2559 1.429 . S
C2540 H2564 0.950 . S
C2541 C2558 1.574 1_545 S
C2541 C2560 1.368 1_554 S
C2541 H2565 0.949 . S
H2542 C2546 0.949 . S
C2543 C2544 1.349 . S
C2543 C2545 1.327 . S
C2543 H2566 0.950 . S
C2544 C2543 1.349 . S
C2544 C2556 1.349 . S
C2545 C2543 1.327 . S
C2545 C2561 1.429 . S
C2545 H2567 0.950 . S
C2546 H2542 0.949 . S
C2546 C2554 1.574 1_565 S
C2546 C2562 1.368 1_556 S
H2547 C2555 0.950 . S
H2548 C2553 0.950 1_554 S
H2549 C2554 0.949 . S
H2550 C2556 0.950 . S
H2551 C2557 0.950 1_556 S
H2552 C2558 0.949 . S
C2553 H2548 0.950 1_556 S
C2553 C2555 1.327 . S
C2553 C2559 1.429 . S
C2554 C2546 1.574 1_545 S
C2554 H2549 0.949 . S
C2554 C2560 1.368 . S
C2555 C2539 1.349 . S
C2555 H2547 0.950 . S
C2555 C2553 1.327 . S
C2556 C2544 1.349 . S
C2556 H2550 0.950 . S
C2556 C2557 1.327 . S
C2557 H2551 0.950 1_554 S
C2557 C2556 1.327 . S
C2557 C2561 1.429 . S
C2558 C2541 1.574 1_565 S
C2558 H2552 0.949 . S
C2558 C2562 1.368 . S
C2559 C2540 1.429 . S
C2559 C2553 1.429 . S
C2559 C2560 1.523 . S
C2560 C2541 1.368 1_556 S
C2560 C2554 1.368 . S
C2560 C2559 1.523 . S
C2561 C2545 1.429 . S
C2561 C2557 1.429 . S
C2561 C2562 1.523 . S
C2562 C2546 1.368 1_554 S
C2562 C2558 1.368 . S
C2562 C2561 1.523 . S
H2563 C2538 0.950 . S
H2564 C2540 0.950 . S
H2565 C2541 0.949 . S
H2566 C2543 0.950 . S
H2567 C2545 0.950 . S
C2568 C2569 1.349 . S
C2568 C2570 1.327 . S
C2568 H2593 0.950 1_556 S
C2569 C2568 1.349 . S
C2569 C2585 1.349 . S
C2570 C2568 1.327 . S
C2570 C2589 1.429 . S
C2570 H2594 0.950 1_556 S
C2571 C2588 1.574 1_655 S
C2571 C2590 1.368 . S
C2571 H2595 0.949 . S
H2572 C2576 0.949 . S
C2573 C2574 1.349 . S
C2573 C2575 1.327 . S
C2573 H2596 0.950 1_554 S
C2574 C2573 1.349 . S
C2574 C2586 1.349 . S
C2575 C2573 1.327 . S
C2575 C2591 1.429 . S
C2575 H2597 0.950 1_554 S
C2576 H2572 0.949 . S
C2576 C2584 1.574 1_455 S
C2576 C2592 1.368 . S
H2577 C2585 0.950 . S
H2578 C2583 0.950 . S
H2579 C2584 0.949 . S
H2580 C2586 0.950 . S
H2581 C2587 0.950 . S
H2582 C2588 0.949 . S
C2583 H2578 0.950 . S
C2583 C2585 1.327 . S
C2583 C2589 1.429 . S
C2584 C2576 1.574 1_655 S
C2584 H2579 0.949 . S
C2584 C2590 1.368 1_554 S
C2585 C2569 1.349 . S
C2585 H2577 0.950 . S
C2585 C2583 1.327 . S
C2586 C2574 1.349 . S
C2586 H2580 0.950 . S
C2586 C2587 1.327 . S
C2587 H2581 0.950 . S
C2587 C2586 1.327 . S
C2587 C2591 1.429 . S
C2588 C2571 1.574 1_455 S
C2588 H2582 0.949 . S
C2588 C2592 1.368 1_556 S
C2589 C2570 1.429 . S
C2589 C2583 1.429 . S
C2589 C2590 1.523 . S
C2590 C2571 1.368 . S
C2590 C2584 1.368 1_556 S
C2590 C2589 1.523 . S
C2591 C2575 1.429 . S
C2591 C2587 1.429 . S
C2591 C2592 1.523 . S
C2592 C2576 1.368 . S
C2592 C2588 1.368 1_554 S
C2592 C2591 1.523 . S
H2593 C2568 0.950 1_554 S
H2594 C2570 0.950 1_554 S
H2595 C2571 0.949 . S
H2596 C2573 0.950 1_556 S
H2597 C2575 0.950 1_556 S
C2598 C2599 1.349 . S
C2598 C2600 1.327 . S
C2598 H2623 0.950 . S
C2599 C2598 1.349 . S
C2599 C2615 1.349 . S
C2600 C2598 1.327 . S
C2600 C2619 1.429 . S
C2600 H2624 0.950 1_556 S
C2601 C2618 1.574 . S
C2601 C2620 1.368 . S
C2601 H2625 0.949 . S
H2602 C2606 0.949 . S
C2603 C2604 1.349 . S
C2603 C2605 1.327 . S
C2603 H2626 0.950 . S
C2604 C2603 1.349 . S
C2604 C2616 1.349 . S
C2605 C2603 1.327 . S
C2605 C2621 1.429 . S
C2605 H2627 0.950 1_554 S
C2606 H2602 0.949 . S
C2606 C2614 1.574 . S
C2606 C2622 1.368 . S
H2607 C2615 0.950 . S
H2608 C2613 0.950 . S
H2609 C2614 0.949 . S
H2610 C2616 0.950 . S
H2611 C2617 0.950 . S
H2612 C2618 0.949 . S
C2613 H2608 0.950 . S
C2613 C2615 1.327 . S
C2613 C2619 1.429 . S
C2614 C2606 1.574 . S
C2614 H2609 0.949 . S
C2614 C2620 1.368 1_554 S
C2615 C2599 1.349 . S
C2615 H2607 0.950 . S
C2615 C2613 1.327 . S
C2616 C2604 1.349 . S
C2616 H2610 0.950 . S
C2616 C2617 1.327 . S
C2617 H2611 0.950 . S
C2617 C2616 1.327 . S
C2617 C2621 1.429 . S
C2618 C2601 1.574 . S
C2618 H2612 0.949 . S
C2618 C2622 1.368 1_556 S
C2619 C2600 1.429 . S
C2619 C2613 1.429 . S
C2619 C2620 1.523 . S
C2620 C2601 1.368 . S
C2620 C2614 1.368 1_556 S
C2620 C2619 1.523 . S
C2621 C2605 1.429 . S
C2621 C2617 1.429 . S
C2621 C2622 1.523 . S
C2622 C2606 1.368 . S
C2622 C2618 1.368 1_554 S
C2622 C2621 1.523 . S
H2623 C2598 0.950 . S
H2624 C2600 0.950 1_554 S
H2625 C2601 0.949 . S
H2626 C2603 0.950 . S
H2627 C2605 0.950 1_556 S
C469 C10 0.945 . S
C474 C96 0.919 . S
C499 C23 0.945 . S
C504 C109 0.919 . S
C529 C83 0.919 . S
C534 C36 0.944 . S
C559 C148 0.919 . S
C564 C49 0.945 . S
C589 C62 0.944 . S
C594 C122 0.919 . S
C619 C75 0.945 . S
C624 C135 0.919 . S
C649 C18 0.919 . S
C654 C88 0.945 . S
C679 C31 0.919 . S
C684 C101 0.945 . S
C709 C114 0.944 . S
C714 C5 0.919 . S
C739 C127 0.945 . S
C744 C70 0.919 . S
C769 C44 0.919 . S
C774 C140 0.944 . S
C799 C153 0.945 . S
C804 C57 0.919 . S
C829 C252 0.919 . S
C834 C166 0.945 . S
C859 C179 0.945 . S
C864 C265 0.919 . S
C889 C192 0.944 . S
C894 C239 0.919 . S
C919 C304 0.919 . S
C924 C205 0.945 . S
C949 C218 0.944 . S
C954 C278 0.918 . S
C979 C291 0.919 . S
C984 C231 0.945 . S
C1009 C174 0.919 . S
C1014 C244 0.945 . S
C1039 C257 0.945 . S
C1044 C187 0.919 . S
C1069 C161 0.919 . S
C1074 C270 0.944 . S
C1099 C283 0.945 . S
C1104 C226 0.919 . S
C1129 C296 0.944 . S
C1134 C200 0.919 . S
C1159 C309 0.945 . S
C1164 C213 0.919 . S
C1189 C408 0.919 . S
C1194 C322 0.945 . S
C1219 C421 0.919 . S
C1224 C335 0.945 . S
C1249 C395 0.919 . S
C1254 C348 0.944 . S
C1279 C361 0.945 . S
C1284 C460 0.919 . S
C1309 C374 0.944 . S
C1314 C434 0.919 . S
C1339 C447 0.919 . S
C1344 C387 0.945 . S
C1369 C400 0.945 . S
C1374 C330 0.919 . S
C1399 C343 0.919 . S
C1404 C413 0.945 . S
C1429 C317 0.919 . S
C1434 C426 0.944 . S
C1459 C439 0.945 . S
C1464 C382 0.919 . S
C1489 C452 0.944 . S
C1494 C356 0.918 . S
C1519 C465 0.945 . S
C1524 C369 0.919 . S
C1549 C47 1.186 . S
C1554 C8 1.186 . S
C1579 C60 1.186 . S
C1584 C21 1.186 . S
C1609 C34 1.186 . S
C1614 C73 1.186 . S
C1639 C125 1.186 . S
C1644 C86 1.186 . S
C1669 C138 1.186 . S
C1674 C99 1.186 . S
C1699 C151 1.186 . S
C1704 C112 1.186 . S
C1729 C203 1.186 . S
C1734 C164 1.186 . S
C1759 C216 1.186 . S
C1764 C177 1.186 . S
C1789 C190 1.186 . S
C1794 C229 1.186 . S
C1819 C281 1.186 1_554 S
C1824 C242 1.186 . S
C1849 C294 1.186 1_554 S
C1854 C255 1.186 . S
C1879 C307 1.186 1_554 S
C1884 C268 1.186 . S
C1909 C359 1.186 1_556 S
C1914 C320 1.186 . S
C1939 C333 1.186 . S
C1944 C372 1.186 1_556 S
C1969 C385 1.186 1_556 S
C1974 C346 1.186 . S
C1999 C398 1.186 . S
C2004 C437 1.186 . S
C2029 C411 1.186 . S
C2034 C450 1.186 . S
C2059 C424 1.186 . S
C2064 C463 1.186 . S
C2089 C0 1.397 . S
C2094 C234 1.397 . S
C2119 C247 1.397 . S
C2124 C13 1.397 . S
C2149 C260 1.397 . S
C2154 C26 1.397 . S
C2179 C429 1.397 . S
C2184 C39 1.397 . S
C2209 C442 1.397 . S
C2214 C52 1.397 . S
C2239 C455 1.397 . S
C2244 C65 1.397 . S
C2269 C78 1.397 . S
C2274 C312 1.397 . S
C2299 C325 1.397 . S
C2304 C91 1.397 . S
C2329 C338 1.397 . S
C2334 C104 1.397 . S
C2359 C117 1.397 . S
C2364 C195 1.397 . S
C2389 C130 1.397 . S
C2394 C208 1.397 . S
C2419 C143 1.397 . S
C2424 C221 1.397 . S
C2449 C390 1.397 . S
C2454 C156 1.397 . S
C2479 C403 1.398 . S
C2484 C169 1.398 . S
C2509 C182 1.397 . S
C2514 C416 1.397 . S
C2539 C273 1.398 . S
C2544 C351 1.398 . S
C2569 C286 1.397 . S
C2574 C364 1.397 . S
C2599 C299 1.398 . S
C2604 C377 1.398 . S
