# Generated by pormake.
# Topology fcp, (5)-cn, num edge types: 1
# Building blocks:
#     Node 0, Type 0, BuildingBlock: BEQFEK_clean_sbu_0, # of connection points: 5
#     Node 1, Type 0, BuildingBlock: BEQFEK_clean_sbu_0, # of connection points: 5
#     Node 2, Type 0, BuildingBlock: BEQFEK_clean_sbu_0, # of connection points: 5
#     Node 3, Type 0, BuildingBlock: BEQFEK_clean_sbu_0, # of connection points: 5
#     Node 4, Type 0, BuildingBlock: BEQFEK_clean_sbu_0, # of connection points: 5
#     Node 5, Type 0, BuildingBlock: BEQFEK_clean_sbu_0, # of connection points: 5
#     Node 6, Type 0, BuildingBlock: BEQFEK_clean_sbu_0, # of connection points: 5
#     Node 7, Type 0, BuildingBlock: BEQFEK_clean_sbu_0, # of connection points: 5
#     Node 8, Type 0, BuildingBlock: BEQFEK_clean_sbu_0, # of connection points: 5
#     Node 9, Type 0, BuildingBlock: BEQFEK_clean_sbu_0, # of connection points: 5
#     Node 10, Type 0, BuildingBlock: BEQFEK_clean_sbu_0, # of connection points: 5
#     Node 11, Type 0, BuildingBlock: BEQFEK_clean_sbu_0, # of connection points: 5
#     Node 12, Type 0, BuildingBlock: BEQFEK_clean_sbu_0, # of connection points: 5
#     Node 13, Type 0, BuildingBlock: BEQFEK_clean_sbu_0, # of connection points: 5
#     Node 14, Type 0, BuildingBlock: BEQFEK_clean_sbu_0, # of connection points: 5
#     Node 15, Type 0, BuildingBlock: BEQFEK_clean_sbu_0, # of connection points: 5
#     Node 16, Type 0, BuildingBlock: BEQFEK_clean_sbu_0, # of connection points: 5
#     Node 17, Type 0, BuildingBlock: BEQFEK_clean_sbu_0, # of connection points: 5
#     Node 18, Type 0, BuildingBlock: BEQFEK_clean_sbu_0, # of connection points: 5
#     Node 19, Type 0, BuildingBlock: BEQFEK_clean_sbu_0, # of connection points: 5
#     Node 20, Type 0, BuildingBlock: BEQFEK_clean_sbu_0, # of connection points: 5
#     Node 21, Type 0, BuildingBlock: BEQFEK_clean_sbu_0, # of connection points: 5
#     Node 22, Type 0, BuildingBlock: BEQFEK_clean_sbu_0, # of connection points: 5
#     Node 23, Type 0, BuildingBlock: BEQFEK_clean_sbu_0, # of connection points: 5
#     Edge 24, Type (0, 0), BuildingBlock: ZUJKAS_clean_linker_0, # of connection points: 2
#     Edge 25, Type (0, 0), BuildingBlock: ZUJKAS_clean_linker_0, # of connection points: 2
#     Edge 26, Type (0, 0), BuildingBlock: ZUJKAS_clean_linker_0, # of connection points: 2
#     Edge 27, Type (0, 0), BuildingBlock: ZUJKAS_clean_linker_0, # of connection points: 2
#     Edge 28, Type (0, 0), BuildingBlock: ZUJKAS_clean_linker_0, # of connection points: 2
#     Edge 29, Type (0, 0), BuildingBlock: ZUJKAS_clean_linker_0, # of connection points: 2
#     Edge 30, Type (0, 0), BuildingBlock: ZUJKAS_clean_linker_0, # of connection points: 2
#     Edge 31, Type (0, 0), BuildingBlock: ZUJKAS_clean_linker_0, # of connection points: 2
#     Edge 32, Type (0, 0), BuildingBlock: ZUJKAS_clean_linker_0, # of connection points: 2
#     Edge 33, Type (0, 0), BuildingBlock: ZUJKAS_clean_linker_0, # of connection points: 2
#     Edge 34, Type (0, 0), BuildingBlock: ZUJKAS_clean_linker_0, # of connection points: 2
#     Edge 35, Type (0, 0), BuildingBlock: ZUJKAS_clean_linker_0, # of connection points: 2
#     Edge 36, Type (0, 0), BuildingBlock: ZUJKAS_clean_linker_0, # of connection points: 2
#     Edge 37, Type (0, 0), BuildingBlock: ZUJKAS_clean_linker_0, # of connection points: 2
#     Edge 38, Type (0, 0), BuildingBlock: ZUJKAS_clean_linker_0, # of connection points: 2
#     Edge 39, Type (0, 0), BuildingBlock: ZUJKAS_clean_linker_0, # of connection points: 2
#     Edge 40, Type (0, 0), BuildingBlock: ZUJKAS_clean_linker_0, # of connection points: 2
#     Edge 41, Type (0, 0), BuildingBlock: ZUJKAS_clean_linker_0, # of connection points: 2
#     Edge 42, Type (0, 0), BuildingBlock: ZUJKAS_clean_linker_0, # of connection points: 2
#     Edge 43, Type (0, 0), BuildingBlock: ZUJKAS_clean_linker_0, # of connection points: 2
#     Edge 44, Type (0, 0), BuildingBlock: ZUJKAS_clean_linker_0, # of connection points: 2
#     Edge 45, Type (0, 0), BuildingBlock: ZUJKAS_clean_linker_0, # of connection points: 2
#     Edge 46, Type (0, 0), BuildingBlock: ZUJKAS_clean_linker_0, # of connection points: 2
#     Edge 47, Type (0, 0), BuildingBlock: ZUJKAS_clean_linker_0, # of connection points: 2
#     Edge 48, Type (0, 0), BuildingBlock: ZUJKAS_clean_linker_0, # of connection points: 2
#     Edge 49, Type (0, 0), BuildingBlock: ZUJKAS_clean_linker_0, # of connection points: 2
#     Edge 50, Type (0, 0), BuildingBlock: ZUJKAS_clean_linker_0, # of connection points: 2
#     Edge 51, Type (0, 0), BuildingBlock: ZUJKAS_clean_linker_0, # of connection points: 2
#     Edge 52, Type (0, 0), BuildingBlock: ZUJKAS_clean_linker_0, # of connection points: 2
#     Edge 53, Type (0, 0), BuildingBlock: ZUJKAS_clean_linker_0, # of connection points: 2
#     Edge 54, Type (0, 0), BuildingBlock: ZUJKAS_clean_linker_0, # of connection points: 2
#     Edge 55, Type (0, 0), BuildingBlock: ZUJKAS_clean_linker_0, # of connection points: 2
#     Edge 56, Type (0, 0), BuildingBlock: ZUJKAS_clean_linker_0, # of connection points: 2
#     Edge 57, Type (0, 0), BuildingBlock: ZUJKAS_clean_linker_0, # of connection points: 2
#     Edge 58, Type (0, 0), BuildingBlock: ZUJKAS_clean_linker_0, # of connection points: 2
#     Edge 59, Type (0, 0), BuildingBlock: ZUJKAS_clean_linker_0, # of connection points: 2
#     Edge 60, Type (0, 0), BuildingBlock: ZUJKAS_clean_linker_0, # of connection points: 2
#     Edge 61, Type (0, 0), BuildingBlock: ZUJKAS_clean_linker_0, # of connection points: 2
#     Edge 62, Type (0, 0), BuildingBlock: ZUJKAS_clean_linker_0, # of connection points: 2
#     Edge 63, Type (0, 0), BuildingBlock: ZUJKAS_clean_linker_0, # of connection points: 2
#     Edge 64, Type (0, 0), BuildingBlock: ZUJKAS_clean_linker_0, # of connection points: 2
#     Edge 65, Type (0, 0), BuildingBlock: ZUJKAS_clean_linker_0, # of connection points: 2
#     Edge 66, Type (0, 0), BuildingBlock: ZUJKAS_clean_linker_0, # of connection points: 2
#     Edge 67, Type (0, 0), BuildingBlock: ZUJKAS_clean_linker_0, # of connection points: 2
#     Edge 68, Type (0, 0), BuildingBlock: ZUJKAS_clean_linker_0, # of connection points: 2
#     Edge 69, Type (0, 0), BuildingBlock: ZUJKAS_clean_linker_0, # of connection points: 2
#     Edge 70, Type (0, 0), BuildingBlock: ZUJKAS_clean_linker_0, # of connection points: 2
#     Edge 71, Type (0, 0), BuildingBlock: ZUJKAS_clean_linker_0, # of connection points: 2
#     Edge 72, Type (0, 0), BuildingBlock: ZUJKAS_clean_linker_0, # of connection points: 2
#     Edge 73, Type (0, 0), BuildingBlock: ZUJKAS_clean_linker_0, # of connection points: 2
#     Edge 74, Type (0, 0), BuildingBlock: ZUJKAS_clean_linker_0, # of connection points: 2
#     Edge 75, Type (0, 0), BuildingBlock: ZUJKAS_clean_linker_0, # of connection points: 2
#     Edge 76, Type (0, 0), BuildingBlock: ZUJKAS_clean_linker_0, # of connection points: 2
#     Edge 77, Type (0, 0), BuildingBlock: ZUJKAS_clean_linker_0, # of connection points: 2
#     Edge 78, Type (0, 0), BuildingBlock: ZUJKAS_clean_linker_0, # of connection points: 2
#     Edge 79, Type (0, 0), BuildingBlock: ZUJKAS_clean_linker_0, # of connection points: 2
#     Edge 80, Type (0, 0), BuildingBlock: ZUJKAS_clean_linker_0, # of connection points: 2
#     Edge 81, Type (0, 0), BuildingBlock: ZUJKAS_clean_linker_0, # of connection points: 2
#     Edge 82, Type (0, 0), BuildingBlock: ZUJKAS_clean_linker_0, # of connection points: 2
#     Edge 83, Type (0, 0), BuildingBlock: ZUJKAS_clean_linker_0, # of connection points: 2
# Relax obj value: 0.273
# Max RMSD: 0.212
# Mean RMSD: 0.212
data_MOF--net-fcp--node1-BEQFEK_clean_sbu_0--edge1-ZUJKAS_clean_linker_0
_symmetry_space_group_name_H-M    P1
_symmetry_Int_Tables_number       1
_symmetry_cell_setting            triclinic
loop_
_symmetry_equiv_pos_as_xyz
'x, y, z'
_cell_length_a     65.045938
_cell_length_b     65.04533
_cell_length_c     65.046536
_cell_angle_alpha  89.996015
_cell_angle_beta   90.003973
_cell_angle_gamma 89.982565
loop_
_atom_site_label
_atom_site_type_symbol
_atom_site_fract_x
_atom_site_fract_y
_atom_site_fract_z
_atom_type_partial_charge
Co0 Co 0.04929 0.339 0.15973 0.0
Co1 Co 0.09309 0.33272 0.14074 0.0
C2 C 0.07378 0.30152 0.16901 0.0
O3 O 0.05735 0.31197 0.17062 0.0
O4 O 0.0888 0.30785 0.15817 0.0
C5 C 0.00921 0.33149 0.17648 0.0
O6 O 0.01481 0.31211 0.17572 0.0
C7 C 0.12477 0.31175 0.11652 0.0
C8 C 0.14951 0.33501 0.11605 0.0
C9 C 0.14489 0.31504 0.11021 0.0
N10 N 0.11791 0.32894 0.12571 0.0
N11 N 0.13266 0.34289 0.12509 0.0
C12 C 0.11284 0.29209 0.11554 0.0
H13 H 0.09805 0.29346 0.12384 0.0
H14 H 0.10934 0.28835 0.09929 0.0
H15 H 0.12209 0.27931 0.12205 0.0
C16 C 0.03811 0.34197 0.11576 0.0
N17 N 0.05202 0.33965 0.13088 0.0
N18 N 0.07044 0.33749 0.12278 0.0
C19 C 0.06887 0.33879 0.10216 0.0
C20 C 0.0483 0.34157 0.097 0.0
C21 C 0.01541 0.34313 0.11938 0.0
H22 H 0.01097 0.33203 0.13152 0.0
H23 H 0.00657 0.33968 0.10522 0.0
H24 H 0.01142 0.35879 0.12484 0.0
O25 O 0.06656 0.36026 0.17291 0.0
O26 O 0.09753 0.35635 0.15928 0.0
H27 H 0.08281 0.3451 0.07261 0.0
H28 H 0.09194 0.32233 0.08558 0.0
C29 C 0.08684 0.33845 0.08779 0.0
H30 H 0.09976 0.34733 0.09444 0.0
H31 H 0.13151 0.3575 0.1316 0.0
O32 O 0.02103 0.34516 0.16906 0.0
C33 C 0.08534 0.36552 0.17152 0.0
Co34 Co 0.84316 0.44504 0.33706 0.0
Co35 Co 0.83478 0.40202 0.35722 0.0
C36 C 0.80511 0.42144 0.32752 0.0
O37 O 0.81633 0.43731 0.32555 0.0
O38 O 0.81045 0.40662 0.33915 0.0
C39 C 0.83632 0.48502 0.31997 0.0
O40 O 0.81685 0.47987 0.32143 0.0
C41 C 0.81244 0.37114 0.38155 0.0
C42 C 0.83603 0.34694 0.38492 0.0
C43 C 0.81562 0.35141 0.38921 0.0
N44 N 0.83009 0.3778 0.37308 0.0
N45 N 0.8442 0.36339 0.37543 0.0
C46 C 0.79271 0.383 0.38097 0.0
H47 H 0.79425 0.39713 0.37166 0.0
H48 H 0.78854 0.38781 0.39677 0.0
H49 H 0.78015 0.37324 0.37479 0.0
C50 C 0.84514 0.45742 0.38079 0.0
N51 N 0.84285 0.44315 0.36599 0.0
N52 N 0.83983 0.42506 0.37454 0.0
C53 C 0.8405 0.42719 0.39514 0.0
C54 C 0.84377 0.44779 0.3998 0.0
C55 C 0.84718 0.47995 0.37657 0.0
H56 H 0.83614 0.4845 0.36441 0.0
H57 H 0.84422 0.48932 0.3905 0.0
H58 H 0.86292 0.48315 0.37083 0.0
O59 O 0.86426 0.42681 0.32508 0.0
O60 O 0.85864 0.39633 0.33925 0.0
H61 H 0.84819 0.39647 0.40424 0.0
H62 H 0.84487 0.41401 0.42542 0.0
C63 C 0.83907 0.40966 0.40998 0.0
H64 H 0.82279 0.40478 0.41133 0.0
H65 H 0.85919 0.36448 0.36988 0.0
O66 O 0.84996 0.47295 0.32707 0.0
C67 C 0.86866 0.40786 0.32704 0.0
Co68 Co 0.94707 0.6542 0.16038 0.0
Co69 Co 0.90394 0.66326 0.14113 0.0
C70 C 0.92438 0.69276 0.1702 0.0
O71 O 0.94001 0.68118 0.17199 0.0
O72 O 0.90931 0.68771 0.15876 0.0
C73 C 0.98747 0.66075 0.17628 0.0
O74 O 0.98273 0.68025 0.17401 0.0
C75 C 0.8735 0.68733 0.11906 0.0
C76 C 0.84949 0.66446 0.11179 0.0
C77 C 0.85425 0.68517 0.1102 0.0
N78 N 0.87972 0.66886 0.1258 0.0
N79 N 0.86537 0.65519 0.12133 0.0
C80 C 0.88634 0.70637 0.12037 0.0
H81 H 0.90292 0.70232 0.12008 0.0
H82 H 0.88276 0.717 0.10751 0.0
H83 H 0.88307 0.71433 0.13509 0.0
C84 C 0.95864 0.65185 0.11643 0.0
N85 N 0.94471 0.65444 0.1315 0.0
N86 N 0.92651 0.6578 0.12331 0.0
C87 C 0.92824 0.65717 0.10267 0.0
C88 C 0.94867 0.65346 0.09761 0.0
C89 C 0.98119 0.64933 0.12023 0.0
H90 H 0.98626 0.66052 0.13203 0.0
H91 H 0.99035 0.65174 0.10605 0.0
H92 H 0.98413 0.63365 0.12628 0.0
O93 O 0.92876 0.63337 0.17266 0.0
O94 O 0.89805 0.6395 0.15921 0.0
H95 H 0.91454 0.65401 0.07245 0.0
H96 H 0.90549 0.67548 0.08761 0.0
C97 C 0.91047 0.65918 0.08818 0.0
H98 H 0.89741 0.6498 0.0938 0.0
H99 H 0.86627 0.63962 0.1251 0.0
O100 O 0.975 0.6471 0.16994 0.0
C101 C 0.9097 0.62925 0.17113 0.0
Co102 Co 0.15333 0.55021 0.33734 0.0
Co103 Co 0.16302 0.59304 0.35718 0.0
C104 C 0.19155 0.57323 0.32677 0.0
O105 O 0.17991 0.55763 0.32495 0.0
O106 O 0.18692 0.58799 0.33877 0.0
C107 C 0.15908 0.51015 0.32014 0.0
O108 O 0.17864 0.51511 0.32091 0.0
C109 C 0.18744 0.6233 0.37927 0.0
C110 C 0.16443 0.6468 0.38775 0.0
C111 C 0.18524 0.64229 0.38871 0.0
N112 N 0.16888 0.61701 0.37283 0.0
N113 N 0.15515 0.63106 0.37802 0.0
C114 C 0.2066 0.61074 0.37718 0.0
H115 H 0.21424 0.6146 0.36244 0.0
H116 H 0.20276 0.59412 0.377 0.0
H117 H 0.21742 0.61402 0.38997 0.0
C118 C 0.15231 0.53788 0.38108 0.0
N119 N 0.15447 0.5521 0.36623 0.0
N120 N 0.15813 0.57011 0.37467 0.0
C121 C 0.15818 0.56797 0.39528 0.0
C122 C 0.15456 0.54746 0.40003 0.0
C123 C 0.1495 0.51542 0.37694 0.0
H124 H 0.16045 0.51046 0.36486 0.0
H125 H 0.15204 0.50599 0.39092 0.0
H126 H 0.1337 0.51275 0.37109 0.0
O127 O 0.13216 0.56872 0.32607 0.0
O128 O 0.1388 0.59921 0.33981 0.0
H129 H 0.15109 0.59855 0.40517 0.0
H130 H 0.15633 0.58097 0.42592 0.0
C131 C 0.16076 0.58541 0.41007 0.0
H132 H 0.17705 0.59045 0.41002 0.0
H133 H 0.1395 0.63003 0.37464 0.0
O134 O 0.14582 0.52239 0.32764 0.0
C135 C 0.12817 0.58777 0.32802 0.0
Co136 Co 0.04586 0.6535 0.83569 0.0
Co137 Co 0.08877 0.662 0.85578 0.0
C138 C 0.07001 0.69094 0.82509 0.0
O139 O 0.05397 0.67993 0.82332 0.0
O140 O 0.08458 0.68573 0.83705 0.0
C141 C 0.0053 0.66186 0.82126 0.0
O142 O 0.01047 0.68104 0.8249 0.0
C143 C 0.12036 0.68608 0.87612 0.0
C144 C 0.14281 0.66259 0.88596 0.0
C145 C 0.13948 0.68363 0.88519 0.0
N146 N 0.11289 0.66745 0.8714 0.0
N147 N 0.12627 0.65341 0.87749 0.0
C148 C 0.10883 0.70572 0.87278 0.0
H149 H 0.09202 0.7029 0.87358 0.0
H150 H 0.11325 0.71739 0.88442 0.0
H151 H 0.1125 0.71182 0.8573 0.0
C152 C 0.03339 0.65216 0.87944 0.0
N153 N 0.04763 0.65448 0.86462 0.0
N154 N 0.06565 0.65791 0.87316 0.0
C155 C 0.06346 0.65783 0.89376 0.0
C156 C 0.04293 0.6542 0.8984 0.0
C157 C 0.01127 0.64735 0.87537 0.0
H158 H 0.01016 0.63497 0.86369 0.0
H159 H 0.00361 0.66122 0.86904 0.0
H160 H 0.00317 0.64244 0.88956 0.0
O161 O 0.06373 0.63168 0.82448 0.0
O162 O 0.09422 0.63742 0.83868 0.0
H163 H 0.09259 0.65015 0.90689 0.0
H164 H 0.07511 0.66249 0.9247 0.0
C165 C 0.08055 0.66212 0.90856 0.0
H166 H 0.08759 0.67717 0.90481 0.0
H167 H 0.12437 0.63763 0.87535 0.0
O168 O 0.01776 0.64755 0.82594 0.0
C169 C 0.08263 0.6271 0.82675 0.0
Co170 Co 0.15321 0.44513 0.66016 0.0
Co171 Co 0.1643 0.40322 0.63882 0.0
C172 C 0.19299 0.42345 0.6685 0.0
O173 O 0.18039 0.43808 0.6715 0.0
O174 O 0.189 0.40896 0.65595 0.0
C175 C 0.15883 0.48506 0.67765 0.0
O176 O 0.17845 0.48065 0.67572 0.0
C177 C 0.18688 0.36995 0.61801 0.0
C178 C 0.16168 0.35292 0.60283 0.0
C179 C 0.18278 0.35304 0.60562 0.0
N180 N 0.16904 0.37959 0.62198 0.0
N181 N 0.15404 0.3693 0.61292 0.0
C182 C 0.20679 0.37551 0.62814 0.0
H183 H 0.20473 0.37476 0.64505 0.0
H184 H 0.21094 0.39154 0.62403 0.0
H185 H 0.21951 0.36501 0.62403 0.0
C186 C 0.15072 0.45869 0.61694 0.0
N187 N 0.15348 0.44402 0.63125 0.0
N188 N 0.15813 0.42654 0.62216 0.0
C189 C 0.15864 0.42961 0.60167 0.0
C190 C 0.15391 0.45007 0.59769 0.0
C191 C 0.14683 0.48081 0.62193 0.0
H192 H 0.13202 0.48217 0.63029 0.0
H193 H 0.15913 0.48646 0.6323 0.0
H194 H 0.14643 0.49058 0.60797 0.0
O195 O 0.13299 0.42592 0.67159 0.0
O196 O 0.14113 0.39601 0.65744 0.0
H197 H 0.15146 0.40101 0.58733 0.0
H198 H 0.16342 0.41911 0.5703 0.0
C199 C 0.16333 0.41317 0.58626 0.0
H200 H 0.17846 0.40616 0.58983 0.0
H201 H 0.13854 0.37333 0.61384 0.0
O202 O 0.14551 0.47255 0.67075 0.0
C203 C 0.13011 0.4067 0.66958 0.0
Co204 Co 0.94961 0.34308 0.83555 0.0
Co205 Co 0.90702 0.3333 0.85577 0.0
C206 C 0.92639 0.30485 0.82516 0.0
O207 O 0.94195 0.31651 0.82326 0.0
O208 O 0.91172 0.30946 0.83725 0.0
C209 C 0.9902 0.33523 0.82109 0.0
O210 O 0.98526 0.31603 0.82489 0.0
C211 C 0.87581 0.30898 0.87668 0.0
C212 C 0.85372 0.3325 0.88725 0.0
C213 C 0.85704 0.31147 0.88647 0.0
N214 N 0.88309 0.32762 0.87162 0.0
N215 N 0.8699 0.34165 0.8781 0.0
C216 C 0.88729 0.28936 0.87315 0.0
H217 H 0.90411 0.29224 0.87332 0.0
H218 H 0.88336 0.2778 0.88507 0.0
H219 H 0.88307 0.28309 0.85788 0.0
C220 C 0.96227 0.34463 0.8792 0.0
N221 N 0.948 0.34205 0.86446 0.0
N222 N 0.93014 0.33803 0.87308 0.0
C223 C 0.93249 0.33796 0.89367 0.0
C224 C 0.95294 0.34212 0.89821 0.0
C225 C 0.98424 0.35003 0.87502 0.0
H226 H 0.98498 0.36233 0.86324 0.0
H227 H 0.99227 0.33632 0.86882 0.0
H228 H 0.99223 0.35529 0.88915 0.0
O229 O 0.93129 0.36451 0.82442 0.0
O230 O 0.90094 0.35766 0.83843 0.0
H231 H 0.90333 0.34458 0.90729 0.0
H232 H 0.9213 0.33228 0.92462 0.0
C233 C 0.91568 0.33289 0.90854 0.0
H234 H 0.90899 0.31774 0.90454 0.0
H235 H 0.87174 0.35744 0.87591 0.0
O236 O 0.97759 0.34944 0.82567 0.0
C237 C 0.91224 0.36843 0.82661 0.0
Co238 Co 0.84305 0.55023 0.65984 0.0
Co239 Co 0.83246 0.59215 0.63817 0.0
C240 C 0.80275 0.57151 0.6667 0.0
O241 O 0.81525 0.55683 0.66997 0.0
O242 O 0.80728 0.58616 0.6545 0.0
C243 C 0.83716 0.50988 0.67651 0.0
O244 O 0.8176 0.51374 0.67329 0.0
C245 C 0.81127 0.6275 0.61942 0.0
C246 C 0.83543 0.64051 0.59938 0.0
C247 C 0.81517 0.64309 0.60538 0.0
N248 N 0.82827 0.61589 0.62122 0.0
N249 N 0.84271 0.62386 0.60934 0.0
C250 C 0.7927 0.62503 0.63275 0.0
H251 H 0.79766 0.62334 0.64896 0.0
H252 H 0.78432 0.6109 0.62815 0.0
H253 H 0.78222 0.63843 0.63185 0.0
C254 C 0.84762 0.53684 0.61677 0.0
N255 N 0.84406 0.55147 0.63095 0.0
N256 N 0.83929 0.56882 0.62167 0.0
C257 C 0.83932 0.56562 0.60118 0.0
C258 C 0.84476 0.54532 0.59742 0.0
C259 C 0.85363 0.51522 0.62183 0.0
H260 H 0.86552 0.51528 0.63406 0.0
H261 H 0.83999 0.50689 0.6278 0.0
H262 H 0.85968 0.50702 0.60815 0.0
O263 O 0.8625 0.56961 0.67225 0.0
O264 O 0.85493 0.59944 0.65761 0.0
H265 H 0.84492 0.59153 0.58182 0.0
H266 H 0.82709 0.57326 0.57119 0.0
C267 C 0.83211 0.58093 0.58558 0.0
H268 H 0.8191 0.58999 0.59181 0.0
H269 H 0.85759 0.61797 0.60809 0.0
O270 O 0.85055 0.52288 0.67072 0.0
C271 C 0.86542 0.58883 0.67029 0.0
Co272 Co 0.16186 0.04698 0.34053 0.0
Co273 Co 0.14187 0.09025 0.33311 0.0
C274 C 0.17039 0.07103 0.30241 0.0
O275 O 0.17252 0.05496 0.31333 0.0
O276 O 0.15909 0.08589 0.30828 0.0
C277 C 0.17676 0.00637 0.33208 0.0
O278 O 0.17356 0.01154 0.31282 0.0
C279 C 0.11962 0.12254 0.3112 0.0
C280 C 0.11322 0.1449 0.33598 0.0
C281 C 0.11127 0.14179 0.315 0.0
N282 N 0.12614 0.11463 0.32914 0.0
N283 N 0.12204 0.12794 0.34393 0.0
C284 C 0.1237 0.11275 0.29077 0.0
H285 H 0.13921 0.11742 0.28543 0.0
H286 H 0.1234 0.09576 0.29227 0.0
H287 H 0.11239 0.11758 0.27902 0.0
C288 C 0.11814 0.03503 0.34395 0.0
N289 N 0.13298 0.04917 0.34128 0.0
N290 N 0.12449 0.06728 0.33821 0.0
C291 C 0.10388 0.06523 0.33888 0.0
C292 C 0.09919 0.04471 0.34252 0.0
C293 C 0.12221 0.01276 0.34806 0.0
H294 H 0.13424 0.01126 0.36005 0.0
H295 H 0.1281 0.00545 0.33382 0.0
H296 H 0.10812 0.00462 0.35317 0.0
O297 O 0.1747 0.06475 0.36148 0.0
O298 O 0.16061 0.09541 0.35654 0.0
H299 H 0.09132 0.09473 0.34614 0.0
H300 H 0.0729 0.07711 0.33496 0.0
C301 C 0.08911 0.08236 0.33461 0.0
H302 H 0.09239 0.08889 0.31922 0.0
H303 H 0.12599 0.12578 0.35933 0.0
O304 O 0.17166 0.01879 0.34628 0.0
C305 C 0.17301 0.08368 0.36611 0.0
Co306 Co 0.54843 0.33727 0.15351 0.0
Co307 Co 0.59132 0.35713 0.16269 0.0
C308 C 0.57173 0.32677 0.19151 0.0
O309 O 0.55589 0.32501 0.18019 0.0
O310 O 0.58647 0.33863 0.18651 0.0
C311 C 0.50816 0.32068 0.15967 0.0
O312 O 0.51304 0.32201 0.17922 0.0
C313 C 0.62225 0.37818 0.18713 0.0
C314 C 0.64556 0.38679 0.16399 0.0
C315 C 0.64149 0.38707 0.18491 0.0
N316 N 0.61541 0.37262 0.16848 0.0
N317 N 0.62933 0.37794 0.15466 0.0
C318 C 0.6101 0.37561 0.20649 0.0
H319 H 0.59339 0.37631 0.20307 0.0
H320 H 0.61417 0.38768 0.21784 0.0
H321 H 0.61353 0.36037 0.21328 0.0
C322 C 0.5362 0.38109 0.15205 0.0
N323 N 0.55036 0.3662 0.15442 0.0
N324 N 0.56839 0.37463 0.15801 0.0
C325 C 0.56632 0.39524 0.15788 0.0
C326 C 0.54584 0.40003 0.15413 0.0
C327 C 0.51376 0.37701 0.14905 0.0
H328 H 0.50857 0.36533 0.16032 0.0
H329 H 0.50439 0.39113 0.15099 0.0
H330 H 0.51127 0.37064 0.13342 0.0
O331 O 0.56684 0.32578 0.13226 0.0
O332 O 0.59728 0.33983 0.13842 0.0
H333 H 0.57938 0.42589 0.15624 0.0
H334 H 0.58924 0.40959 0.17651 0.0
C335 C 0.58384 0.40995 0.16034 0.0
H336 H 0.59677 0.40514 0.15034 0.0
H337 H 0.62796 0.37507 0.13893 0.0
O338 O 0.52055 0.32762 0.14624 0.0
C339 C 0.58582 0.32787 0.12802 0.0
Co340 Co 0.83698 0.94857 0.34154 0.0
Co341 Co 0.85682 0.90538 0.33373 0.0
C342 C 0.82779 0.92484 0.30349 0.0
O343 O 0.82565 0.94077 0.31459 0.0
O344 O 0.83937 0.91008 0.30908 0.0
C345 C 0.82108 0.98881 0.33379 0.0
O346 O 0.8232 0.98343 0.31444 0.0
C347 C 0.87917 0.87476 0.3102 0.0
C348 C 0.88606 0.85082 0.33326 0.0
C349 C 0.8878 0.85541 0.31252 0.0
N350 N 0.87238 0.88117 0.32859 0.0
N351 N 0.87666 0.86687 0.34238 0.0
C352 C 0.87806 0.88746 0.29105 0.0
H353 H 0.87837 0.90407 0.29496 0.0
H354 H 0.891 0.88374 0.28057 0.0
H355 H 0.86341 0.88417 0.28298 0.0
C356 C 0.88083 0.96055 0.34404 0.0
N357 N 0.86592 0.94642 0.34166 0.0
N358 N 0.87433 0.92824 0.33881 0.0
C359 C 0.89494 0.93018 0.33954 0.0
C360 C 0.89977 0.95074 0.34281 0.0
C361 C 0.8768 0.98313 0.34598 0.0
H362 H 0.86538 0.98788 0.33426 0.0
H363 H 0.89098 0.99235 0.34391 0.0
H364 H 0.87014 0.98632 0.36136 0.0
O365 O 0.82463 0.93058 0.36267 0.0
O366 O 0.8385 0.89987 0.35739 0.0
H367 H 0.92526 0.91684 0.34322 0.0
H368 H 0.91041 0.9073 0.32176 0.0
C369 C 0.90963 0.91253 0.33798 0.0
H370 H 0.90404 0.89955 0.3475 0.0
H371 H 0.87275 0.86787 0.35791 0.0
O372 O 0.82728 0.9767 0.34782 0.0
C373 C 0.82632 0.91162 0.36721 0.0
Co374 Co 0.446 0.66136 0.15148 0.0
Co375 Co 0.40433 0.64006 0.16332 0.0
C376 C 0.42483 0.66996 0.19157 0.0
O377 O 0.43934 0.67279 0.17879 0.0
O378 O 0.41029 0.65741 0.18777 0.0
C379 C 0.4867 0.67636 0.15768 0.0
O380 O 0.48272 0.6723 0.17706 0.0
C381 C 0.36961 0.62162 0.18567 0.0
C382 C 0.35602 0.60116 0.1622 0.0
C383 C 0.354 0.60746 0.18243 0.0
N384 N 0.3807 0.62323 0.16832 0.0
N385 N 0.37239 0.61109 0.15429 0.0
C386 C 0.37262 0.63516 0.20402 0.0
H387 H 0.37372 0.65136 0.19887 0.0
H388 H 0.38721 0.63094 0.21178 0.0
H389 H 0.35973 0.63408 0.21511 0.0
C390 C 0.45939 0.61809 0.14818 0.0
N391 N 0.44487 0.63241 0.15168 0.0
N392 N 0.42762 0.62332 0.15709 0.0
C393 C 0.4308 0.60283 0.15764 0.0
C394 C 0.45097 0.59885 0.15185 0.0
C395 C 0.48074 0.62289 0.14108 0.0
H396 H 0.48027 0.63521 0.12931 0.0
H397 H 0.48987 0.62855 0.15433 0.0
H398 H 0.48838 0.60913 0.13451 0.0
O399 O 0.42665 0.67286 0.13142 0.0
O400 O 0.39695 0.65854 0.14003 0.0
H401 H 0.40475 0.58342 0.15297 0.0
H402 H 0.42325 0.57326 0.17088 0.0
C403 C 0.41554 0.58751 0.16552 0.0
H404 H 0.40669 0.59416 0.17846 0.0
H405 H 0.3779 0.6096 0.1393 0.0
O406 O 0.47347 0.67181 0.14404 0.0
C407 C 0.4074 0.67072 0.12882 0.0
Co408 Co 0.16159 0.94802 0.65293 0.0
Co409 Co 0.1407 0.90621 0.6646 0.0
C410 C 0.17154 0.92573 0.6922 0.0
O411 O 0.17396 0.94051 0.67964 0.0
O412 O 0.15885 0.91128 0.68858 0.0
C413 C 0.17626 0.98864 0.66012 0.0
O414 O 0.17214 0.98414 0.67937 0.0
C415 C 0.12065 0.87329 0.68783 0.0
C416 C 0.10651 0.85464 0.66323 0.0
C417 C 0.10955 0.85545 0.68429 0.0
N418 N 0.12431 0.88245 0.6697 0.0
N419 N 0.1157 0.87131 0.65505 0.0
C420 C 0.1268 0.88213 0.70815 0.0
H421 H 0.12619 0.89917 0.70755 0.0
H422 H 0.11656 0.87658 0.72062 0.0
H423 H 0.1428 0.87739 0.71163 0.0
C424 C 0.11812 0.96117 0.65053 0.0
N425 N 0.13265 0.94686 0.65395 0.0
N426 N 0.1238 0.92948 0.65931 0.0
C427 C 0.10329 0.93231 0.65992 0.0
C428 C 0.09897 0.95247 0.65425 0.0
C429 C 0.12261 0.98244 0.64297 0.0
H430 H 0.13523 0.98196 0.63152 0.0
H431 H 0.12772 0.99205 0.65611 0.0
H432 H 0.10886 0.98957 0.63584 0.0
O433 O 0.17232 0.92928 0.6319 0.0
O434 O 0.15838 0.89939 0.64053 0.0
H435 H 0.08615 0.90472 0.65509 0.0
H436 H 0.07326 0.92329 0.67127 0.0
C437 C 0.08835 0.91643 0.66729 0.0
H438 H 0.0946 0.90864 0.6811 0.0
H439 H 0.1164 0.8749 0.63943 0.0
O440 O 0.17185 0.97573 0.64614 0.0
C441 C 0.17006 0.91008 0.62902 0.0
Co442 Co 0.44434 0.33612 0.84523 0.0
Co443 Co 0.40232 0.35759 0.83518 0.0
C444 C 0.42177 0.32753 0.80614 0.0
O445 O 0.43698 0.32494 0.81813 0.0
O446 O 0.4072 0.3398 0.81071 0.0
C447 C 0.4843 0.31917 0.83868 0.0
O448 O 0.47974 0.32199 0.8192 0.0
C449 C 0.37181 0.3811 0.81187 0.0
C450 C 0.34929 0.38926 0.83598 0.0
C451 C 0.35295 0.39065 0.81503 0.0
N452 N 0.37886 0.37442 0.8301 0.0
N453 N 0.36549 0.3796 0.84449 0.0
C454 C 0.38179 0.37585 0.79181 0.0
H455 H 0.37536 0.3611 0.78617 0.0
H456 H 0.39862 0.37409 0.79391 0.0
H457 H 0.379 0.38766 0.77994 0.0
C458 C 0.45798 0.37935 0.84792 0.0
N459 N 0.44332 0.36504 0.84512 0.0
N460 N 0.42573 0.37415 0.84102 0.0
C461 C 0.42862 0.39466 0.84115 0.0
C462 C 0.44916 0.39864 0.8455 0.0
C463 C 0.4802 0.37436 0.85122 0.0
H464 H 0.48546 0.36381 0.83891 0.0
H465 H 0.49001 0.38829 0.85109 0.0
H466 H 0.48198 0.36624 0.86611 0.0
O467 O 0.42522 0.32455 0.8656 0.0
O468 O 0.3953 0.33932 0.85857 0.0
H469 H 0.3986 0.40641 0.84761 0.0
H470 H 0.41708 0.42596 0.84107 0.0
C471 C 0.41191 0.41009 0.83763 0.0
H472 H 0.40678 0.40921 0.82139 0.0
H473 H 0.36706 0.37585 0.86 0.0
O474 O 0.47184 0.32538 0.85239 0.0
C475 C 0.40611 0.32683 0.86907 0.0
Co476 Co 0.83609 0.04849 0.65451 0.0
Co477 Co 0.85634 0.09121 0.66363 0.0
C478 C 0.82703 0.07161 0.69319 0.0
O479 O 0.82502 0.05586 0.68179 0.0
O480 O 0.83856 0.08652 0.68795 0.0
C481 C 0.8209 0.0079 0.66185 0.0
O482 O 0.82478 0.01227 0.68118 0.0
C483 C 0.87687 0.12381 0.68658 0.0
C484 C 0.88906 0.14372 0.66192 0.0
C485 C 0.88735 0.14202 0.68308 0.0
N486 N 0.87232 0.11527 0.66836 0.0
N487 N 0.87973 0.12717 0.65365 0.0
C488 C 0.87233 0.11394 0.70687 0.0
H489 H 0.87304 0.09695 0.70542 0.0
H490 H 0.88343 0.11904 0.71878 0.0
H491 H 0.8566 0.11827 0.7118 0.0
C492 C 0.87973 0.03615 0.65104 0.0
N493 N 0.86499 0.05031 0.65421 0.0
N494 N 0.87359 0.06811 0.65848 0.0
C495 C 0.89418 0.06578 0.65846 0.0
C496 C 0.89877 0.04545 0.65366 0.0
C497 C 0.87547 0.01436 0.64504 0.0
H498 H 0.86276 0.01387 0.6337 0.0
H499 H 0.87055 0.00563 0.65886 0.0
H500 H 0.88926 0.0069 0.63832 0.0
O501 O 0.82385 0.06689 0.63383 0.0
O502 O 0.83816 0.09722 0.63989 0.0
H503 H 0.9096 0.09411 0.65224 0.0
H504 H 0.92463 0.07622 0.66733 0.0
C505 C 0.90897 0.08233 0.66456 0.0
H506 H 0.90352 0.08986 0.67883 0.0
H507 H 0.87816 0.12415 0.63798 0.0
O508 O 0.8259 0.0207 0.64797 0.0
C509 C 0.82584 0.08591 0.62974 0.0
Co510 Co 0.54884 0.65882 0.843 0.0
Co511 Co 0.5915 0.63882 0.83309 0.0
C512 C 0.57105 0.66841 0.80409 0.0
O513 O 0.55556 0.67038 0.81583 0.0
O514 O 0.58601 0.65675 0.80893 0.0
C515 C 0.50821 0.67466 0.83724 0.0
O516 O 0.51244 0.67239 0.81763 0.0
C517 C 0.62225 0.61763 0.80852 0.0
C518 C 0.64533 0.60835 0.83163 0.0
C519 C 0.64135 0.60839 0.81069 0.0
N520 N 0.61544 0.62309 0.82721 0.0
N521 N 0.62921 0.61735 0.84101 0.0
C522 C 0.61006 0.62036 0.78919 0.0
H523 H 0.59336 0.61985 0.79263 0.0
H524 H 0.61395 0.60825 0.77781 0.0
H525 H 0.61364 0.63558 0.78242 0.0
C526 C 0.53671 0.61515 0.84589 0.0
N527 N 0.5508 0.62995 0.8428 0.0
N528 N 0.56871 0.62141 0.83879 0.0
C529 C 0.56658 0.60081 0.83927 0.0
C530 C 0.54621 0.59618 0.84376 0.0
C531 C 0.51472 0.61928 0.85126 0.0
H532 H 0.51398 0.63087 0.86375 0.0
H533 H 0.50678 0.62579 0.83764 0.0
H534 H 0.50667 0.60511 0.85627 0.0
O535 O 0.56766 0.67079 0.86347 0.0
O536 O 0.59802 0.65676 0.85686 0.0
H537 H 0.59613 0.58787 0.84554 0.0
H538 H 0.57808 0.56982 0.83445 0.0
C539 C 0.58346 0.58599 0.83428 0.0
H540 H 0.58964 0.5895 0.8188 0.0
H541 H 0.62782 0.62003 0.85677 0.0
O542 O 0.52114 0.66859 0.85057 0.0
C543 C 0.58674 0.66889 0.86729 0.0
Co544 Co 0.34073 0.15983 0.04728 0.0
Co545 Co 0.33301 0.1401 0.09048 0.0
C546 C 0.30221 0.16817 0.0709 0.0
O547 O 0.31342 0.17032 0.05503 0.0
O548 O 0.30792 0.15699 0.08592 0.0
C549 C 0.33218 0.17414 0.00657 0.0
O550 O 0.31297 0.1705 0.01164 0.0
C551 C 0.3115 0.11771 0.12289 0.0
C552 C 0.33652 0.11145 0.14504 0.0
C553 C 0.31554 0.10931 0.14206 0.0
N554 N 0.32931 0.12442 0.11488 0.0
N555 N 0.34425 0.12039 0.12805 0.0
C556 C 0.29095 0.12162 0.11328 0.0
H557 H 0.29228 0.12117 0.09628 0.0
H558 H 0.27931 0.1103 0.11834 0.0
H559 H 0.28559 0.13715 0.11785 0.0
C560 C 0.34451 0.11612 0.0355 0.0
N561 N 0.34163 0.13101 0.04956 0.0
N562 N 0.33838 0.12259 0.06766 0.0
C563 C 0.33912 0.10197 0.0657 0.0
C564 C 0.34301 0.09721 0.04525 0.0
C565 C 0.34886 0.12011 0.01327 0.0
H566 H 0.36072 0.13228 0.01185 0.0
H567 H 0.33464 0.12575 0.00573 0.0
H568 H 0.35426 0.10603 0.00529 0.0
O569 O 0.36162 0.17284 0.06497 0.0
O570 O 0.35633 0.15899 0.09566 0.0
H571 H 0.34616 0.08942 0.09526 0.0
H572 H 0.33502 0.07103 0.0776 0.0
C573 C 0.33469 0.08724 0.08282 0.0
H574 H 0.31927 0.09059 0.08925 0.0
H575 H 0.35959 0.12447 0.12577 0.0
O576 O 0.34643 0.16947 0.0191 0.0
C577 C 0.36606 0.17127 0.08395 0.0
Co578 Co 0.33969 0.83546 0.94786 0.0
Co579 Co 0.33318 0.85589 0.90461 0.0
C580 C 0.30254 0.82636 0.92266 0.0
O581 O 0.31308 0.82424 0.93898 0.0
O582 O 0.30858 0.83802 0.90814 0.0
C583 C 0.3308 0.81888 0.98767 0.0
O584 O 0.3116 0.82059 0.98165 0.0
C585 C 0.31246 0.8805 0.87274 0.0
C586 C 0.33733 0.88404 0.84989 0.0
C587 C 0.31672 0.88836 0.85328 0.0
N588 N 0.3297 0.87189 0.88026 0.0
N589 N 0.34457 0.87433 0.86665 0.0
C590 C 0.29216 0.87996 0.88358 0.0
H591 H 0.29286 0.87034 0.89756 0.0
H592 H 0.28798 0.89572 0.88853 0.0
H593 H 0.28001 0.87417 0.87309 0.0
C594 C 0.34199 0.87912 0.96041 0.0
N595 N 0.3398 0.86441 0.94604 0.0
N596 N 0.33748 0.87306 0.92789 0.0
C597 C 0.33845 0.89363 0.9301 0.0
C598 C 0.34124 0.89818 0.95079 0.0
C599 C 0.34348 0.87482 0.98296 0.0
H600 H 0.33169 0.86331 0.98733 0.0
H601 H 0.34118 0.88889 0.9923 0.0
H602 H 0.35881 0.86816 0.98639 0.0
O603 O 0.36144 0.82331 0.9305 0.0
O604 O 0.35707 0.8377 0.8999 0.0
H605 H 0.34346 0.92395 0.91721 0.0
H606 H 0.32181 0.90992 0.90694 0.0
C607 C 0.33784 0.90854 0.91257 0.0
H608 H 0.34754 0.9028 0.8998 0.0
H609 H 0.35948 0.86873 0.8685 0.0
O610 O 0.34508 0.8255 0.97608 0.0
C611 C 0.36656 0.82534 0.91173 0.0
Co612 Co 0.3374 0.15159 0.55016 0.0
Co613 Co 0.35763 0.16377 0.59233 0.0
C614 C 0.32761 0.19145 0.57121 0.0
O615 O 0.32531 0.17865 0.55662 0.0
O616 O 0.33991 0.18787 0.58601 0.0
C617 C 0.32221 0.15723 0.50946 0.0
O618 O 0.32518 0.17676 0.51363 0.0
C619 C 0.37631 0.18709 0.62629 0.0
C620 C 0.39383 0.163 0.64265 0.0
C621 C 0.38916 0.18376 0.643 0.0
N622 N 0.3739 0.1692 0.61624 0.0
N623 N 0.38432 0.15484 0.62616 0.0
C624 C 0.36436 0.20612 0.62133 0.0
H625 H 0.34775 0.20231 0.62134 0.0
H626 H 0.36859 0.21156 0.60573 0.0
H627 H 0.36678 0.21861 0.63263 0.0
C628 C 0.38094 0.1491 0.53772 0.0
N629 N 0.36627 0.15233 0.55192 0.0
N630 N 0.3749 0.15782 0.56939 0.0
C631 C 0.39544 0.15866 0.56668 0.0
C632 C 0.39991 0.15303 0.54658 0.0
C633 C 0.37661 0.1437 0.51578 0.0
H634 H 0.36774 0.15637 0.50858 0.0
H635 H 0.39092 0.1412 0.50686 0.0
H636 H 0.36696 0.12965 0.5152 0.0
O637 O 0.32594 0.13136 0.56934 0.0
O638 O 0.33943 0.14019 0.59938 0.0
H639 H 0.41104 0.15232 0.59481 0.0
H640 H 0.42619 0.16676 0.57683 0.0
C641 C 0.41047 0.16463 0.58305 0.0
H642 H 0.40534 0.17903 0.59059 0.0
H643 H 0.38479 0.13943 0.62177 0.0
O644 O 0.32761 0.14374 0.52252 0.0
C645 C 0.32771 0.12878 0.58863 0.0
Co646 Co 0.65491 0.16101 0.94733 0.0
Co647 Co 0.6637 0.1404 0.9047 0.0
C648 C 0.69349 0.1698 0.92391 0.0
O649 O 0.68194 0.17215 0.93951 0.0
O650 O 0.68839 0.15792 0.90921 0.0
C651 C 0.6619 0.17746 0.98762 0.0
O652 O 0.68142 0.17531 0.98289 0.0
C653 C 0.68575 0.11738 0.87293 0.0
C654 C 0.66095 0.11073 0.85068 0.0
C655 C 0.6819 0.10868 0.85385 0.0
N656 N 0.66787 0.1242 0.88069 0.0
N657 N 0.65305 0.11992 0.86746 0.0
C658 C 0.70622 0.1214 0.88264 0.0
H659 H 0.70458 0.12258 0.89958 0.0
H660 H 0.71744 0.10916 0.87892 0.0
H661 H 0.71234 0.13617 0.87669 0.0
C662 C 0.65191 0.11756 0.96011 0.0
N663 N 0.65481 0.13214 0.94574 0.0
N664 N 0.65842 0.12334 0.92788 0.0
C665 C 0.65788 0.10276 0.93033 0.0
C666 C 0.65376 0.09845 0.95084 0.0
C667 C 0.64699 0.12204 0.98213 0.0
H668 H 0.63461 0.13375 0.98294 0.0
H669 H 0.66081 0.12854 0.98972 0.0
H670 H 0.64202 0.10803 0.99048 0.0
O671 O 0.6339 0.1729 0.92913 0.0
O672 O 0.64002 0.15869 0.89877 0.0
H673 H 0.65115 0.08949 0.90103 0.0
H674 H 0.6623 0.07159 0.9192 0.0
C675 C 0.66254 0.08768 0.91359 0.0
H676 H 0.67798 0.09099 0.90718 0.0
H677 H 0.63768 0.12401 0.86952 0.0
O678 O 0.64828 0.17115 0.97513 0.0
C679 C 0.62976 0.17088 0.91013 0.0
Co680 Co 0.66051 0.84582 0.55053 0.0
Co681 Co 0.64006 0.83354 0.5924 0.0
C682 C 0.67185 0.80693 0.57267 0.0
O683 O 0.67362 0.81936 0.55768 0.0
O684 O 0.65927 0.81037 0.58726 0.0
C685 C 0.67581 0.8399 0.50988 0.0
O686 O 0.67266 0.8204 0.51411 0.0
C687 C 0.61981 0.80884 0.62408 0.0
C688 C 0.60602 0.83257 0.64409 0.0
C689 C 0.60865 0.81153 0.64204 0.0
N690 N 0.62386 0.82741 0.61603 0.0
N691 N 0.61549 0.84155 0.628 0.0
C692 C 0.62546 0.78896 0.61398 0.0
H693 H 0.64099 0.7843 0.61921 0.0
H694 H 0.62576 0.79083 0.59703 0.0
H695 H 0.61439 0.77666 0.61813 0.0
C696 C 0.61693 0.84695 0.53744 0.0
N697 N 0.63161 0.84391 0.5517 0.0
N698 N 0.62296 0.83843 0.56915 0.0
C699 C 0.60243 0.83751 0.56646 0.0
C700 C 0.59791 0.84297 0.54629 0.0
C701 C 0.62116 0.85438 0.51608 0.0
H702 H 0.6332 0.86644 0.51644 0.0
H703 H 0.62699 0.84137 0.50671 0.0
H704 H 0.60712 0.86071 0.50875 0.0
O705 O 0.67067 0.86694 0.56958 0.0
O706 O 0.65675 0.85814 0.59945 0.0
H707 H 0.58625 0.84212 0.59467 0.0
H708 H 0.57226 0.82696 0.57603 0.0
C709 C 0.58767 0.83022 0.58254 0.0
H710 H 0.59364 0.81598 0.58971 0.0
H711 H 0.61646 0.85733 0.62532 0.0
O712 O 0.67056 0.85346 0.52293 0.0
C713 C 0.66823 0.86986 0.58876 0.0
Co714 Co 0.65422 0.83704 0.04784 0.0
Co715 Co 0.6632 0.85667 0.09088 0.0
C716 C 0.69298 0.82786 0.07042 0.0
O717 O 0.68141 0.82584 0.05482 0.0
O718 O 0.68782 0.83931 0.08544 0.0
C719 C 0.66063 0.82078 0.00753 0.0
O720 O 0.68015 0.82301 0.01219 0.0
C721 C 0.68721 0.87857 0.12148 0.0
C722 C 0.66434 0.88539 0.14563 0.0
C723 C 0.68508 0.88693 0.14097 0.0
N724 N 0.66871 0.8721 0.11507 0.0
N725 N 0.65503 0.87637 0.12947 0.0
C726 C 0.7063 0.8773 0.10871 0.0
H727 H 0.70233 0.87813 0.09213 0.0
H728 H 0.7171 0.8899 0.1127 0.0
H729 H 0.714 0.86238 0.11159 0.0
C730 C 0.65129 0.88088 0.0361 0.0
N731 N 0.65405 0.86593 0.05011 0.0
N732 N 0.65742 0.87427 0.06823 0.0
C733 C 0.65665 0.89488 0.06638 0.0
C734 C 0.6528 0.89978 0.04593 0.0
C735 C 0.64876 0.87693 0.01357 0.0
H736 H 0.66006 0.8652 0.00855 0.0
H737 H 0.65101 0.89107 0.00432 0.0
H738 H 0.63314 0.8707 0.01071 0.0
O739 O 0.63374 0.82451 0.06636 0.0
O740 O 0.6398 0.83823 0.09697 0.0
H741 H 0.64945 0.90398 0.09718 0.0
H742 H 0.65362 0.92521 0.07988 0.0
C743 C 0.65877 0.90949 0.08403 0.0
H744 H 0.67509 0.91004 0.08893 0.0
H745 H 0.63946 0.87263 0.12851 0.0
O746 O 0.64703 0.82725 0.01998 0.0
C747 C 0.62972 0.82606 0.08544 0.0
Co748 Co 0.33611 0.8437 0.44686 0.0
Co749 Co 0.35732 0.83156 0.40523 0.0
C750 C 0.32873 0.80279 0.42668 0.0
O751 O 0.32571 0.81583 0.44092 0.0
O752 O 0.34088 0.80664 0.41182 0.0
C753 C 0.32095 0.83797 0.48764 0.0
O754 O 0.32578 0.81865 0.48428 0.0
C755 C 0.37618 0.80932 0.37061 0.0
C756 C 0.39582 0.83327 0.35664 0.0
C757 C 0.39009 0.81285 0.35483 0.0
N758 N 0.37415 0.82672 0.38157 0.0
N759 N 0.38584 0.84101 0.37306 0.0
C760 C 0.36329 0.79057 0.37396 0.0
H761 H 0.34693 0.7952 0.37511 0.0
H762 H 0.36783 0.78317 0.38865 0.0
H763 H 0.36469 0.77934 0.36123 0.0
C764 C 0.37935 0.8485 0.45977 0.0
N765 N 0.36501 0.84447 0.44544 0.0
N766 N 0.37407 0.83874 0.42827 0.0
C767 C 0.39458 0.83841 0.43137 0.0
C768 C 0.39862 0.84477 0.45137 0.0
C769 C 0.37452 0.85601 0.48098 0.0
H770 H 0.36165 0.86717 0.48037 0.0
H771 H 0.36964 0.84279 0.49059 0.0
H772 H 0.38807 0.86345 0.48818 0.0
O773 O 0.32375 0.86287 0.4272 0.0
O774 O 0.33799 0.85413 0.3975 0.0
H775 H 0.41406 0.84214 0.4052 0.0
H776 H 0.42396 0.82456 0.42416 0.0
C777 C 0.4098 0.82994 0.41632 0.0
H778 H 0.40298 0.81686 0.4078 0.0
H779 H 0.38694 0.85608 0.37844 0.0
O780 O 0.32535 0.8514 0.47415 0.0
C781 C 0.32557 0.86516 0.40788 0.0
Co782 Co 0.66076 0.15207 0.44729 0.0
Co783 Co 0.64037 0.1634 0.40509 0.0
C784 C 0.6697 0.19193 0.42586 0.0
O785 O 0.6723 0.17934 0.44059 0.0
O786 O 0.65755 0.18792 0.41105 0.0
C787 C 0.67531 0.15853 0.48817 0.0
O788 O 0.67177 0.17794 0.48388 0.0
C789 C 0.62027 0.18673 0.3723 0.0
C790 C 0.6078 0.16218 0.35244 0.0
C791 C 0.60994 0.18332 0.35397 0.0
N792 N 0.62438 0.16849 0.38104 0.0
N793 N 0.61674 0.15386 0.36918 0.0
C794 C 0.62534 0.207 0.3819 0.0
H795 H 0.62432 0.20586 0.39889 0.0
H796 H 0.61473 0.2192 0.37644 0.0
H797 H 0.64128 0.21128 0.37767 0.0
C798 C 0.6171 0.14876 0.45958 0.0
N799 N 0.63182 0.15218 0.44547 0.0
N800 N 0.62317 0.15721 0.42788 0.0
C801 C 0.6026 0.15746 0.43033 0.0
C802 C 0.59806 0.15204 0.4505 0.0
C803 C 0.62136 0.14204 0.48117 0.0
H804 H 0.63379 0.13037 0.48124 0.0
H805 H 0.62667 0.15547 0.49025 0.0
H806 H 0.60746 0.13545 0.48853 0.0
O807 O 0.67274 0.13184 0.42839 0.0
O808 O 0.65902 0.14009 0.3983 0.0
H809 H 0.5867 0.15258 0.40201 0.0
H810 H 0.57231 0.16751 0.42053 0.0
C811 C 0.58783 0.16451 0.41415 0.0
H812 H 0.59362 0.17884 0.40697 0.0
H813 H 0.618 0.13818 0.37231 0.0
O814 O 0.67061 0.14483 0.47506 0.0
C815 C 0.671 0.12902 0.40913 0.0
H816 H 0.1827 0.48495 0.29618 0.0
H817 H 0.17062 0.45955 0.27124 0.0
H818 H 0.10811 0.46989 0.29075 0.0
H819 H 0.11996 0.49553 0.31553 0.0
H820 H 0.14697 0.42334 0.27458 0.0
H821 H 0.10698 0.48352 0.22906 0.0
H822 H 0.12529 0.48957 0.24901 0.0
H823 H 0.09941 0.48244 0.25559 0.0
C824 C 0.16641 0.48163 0.29538 0.0
C825 C 0.15225 0.49246 0.30762 0.0
C826 C 0.15954 0.46713 0.2811 0.0
C827 C 0.13846 0.46326 0.27885 0.0
C828 C 0.12442 0.47306 0.29194 0.0
H829 H 0.06373 0.38879 0.19905 0.0
H830 H 0.07746 0.41266 0.22455 0.0
C831 C 0.13124 0.48761 0.30617 0.0
C832 C 0.13109 0.44961 0.26224 0.0
H833 H 0.10149 0.44894 0.2189 0.0
C834 C 0.13711 0.42891 0.26234 0.0
C835 C 0.11834 0.45704 0.24624 0.0
C836 C 0.11225 0.4794 0.24478 0.0
C837 C 0.13023 0.41525 0.24712 0.0
C838 C 0.11728 0.42264 0.2313 0.0
C839 C 0.11142 0.44338 0.23109 0.0
C840 C 0.10913 0.40894 0.21512 0.0
C841 C 0.13644 0.39293 0.24837 0.0
C842 C 0.12238 0.39942 0.20103 0.0
C843 C 0.1146 0.38579 0.18636 0.0
C844 C 0.09341 0.38149 0.18556 0.0
C845 C 0.08013 0.39166 0.19928 0.0
C846 C 0.08793 0.4053 0.21388 0.0
H847 H 0.14274 0.3889 0.26373 0.0
H848 H 0.12313 0.38276 0.24506 0.0
H849 H 0.14849 0.38979 0.23672 0.0
H850 H 0.13876 0.40238 0.20153 0.0
H851 H 0.12525 0.37829 0.17599 0.0
H852 H 0.99388 0.37023 0.18173 0.0
H853 H 0.96895 0.3814 0.20749 0.0
H854 H 0.95999 0.31852 0.22643 0.0
H855 H 0.98481 0.3071 0.20056 0.0
H856 H 0.9231 0.34312 0.22444 0.0
H857 H 0.9857 0.38029 0.26905 0.0
H858 H 0.98416 0.38825 0.24265 0.0
H859 H 0.99061 0.36207 0.2487 0.0
C860 C 0.98639 0.35872 0.19113 0.0
C861 C 0.99154 0.3378 0.1893 0.0
C862 C 0.97224 0.36515 0.20591 0.0
C863 C 0.96308 0.35081 0.21913 0.0
C864 C 0.9671 0.32981 0.21646 0.0
H865 H 0.87951 0.36727 0.32337 0.0
H866 H 0.90303 0.35217 0.29816 0.0
C867 C 0.98125 0.32333 0.20164 0.0
C868 C 0.95016 0.35789 0.23642 0.0
H869 H 0.95155 0.38683 0.28015 0.0
C870 C 0.92929 0.35255 0.23673 0.0
C871 C 0.95842 0.37004 0.25245 0.0
C872 C 0.98099 0.37538 0.25338 0.0
C873 C 0.91622 0.35973 0.25232 0.0
C874 C 0.92441 0.37226 0.26811 0.0
C875 C 0.94537 0.37724 0.26799 0.0
C876 C 0.91126 0.38126 0.28429 0.0
C877 C 0.89364 0.35446 0.25142 0.0
C878 C 0.90881 0.40264 0.28533 0.0
C879 C 0.89554 0.41133 0.29975 0.0
C880 C 0.88451 0.39878 0.31348 0.0
C881 C 0.88769 0.37738 0.31297 0.0
C882 C 0.90099 0.3687 0.29848 0.0
H883 H 0.88913 0.34825 0.23616 0.0
H884 H 0.89017 0.34263 0.26321 0.0
H885 H 0.88409 0.36821 0.25479 0.0
H886 H 0.91677 0.41258 0.27458 0.0
H887 H 0.89354 0.42786 0.29976 0.0
H888 H 0.81157 0.51033 0.29724 0.0
H889 H 0.82246 0.53564 0.27163 0.0
H890 H 0.88585 0.5249 0.2878 0.0
H891 H 0.87519 0.49945 0.31327 0.0
H892 H 0.84735 0.57191 0.27397 0.0
H893 H 0.88263 0.51085 0.22586 0.0
H894 H 0.86516 0.50526 0.24668 0.0
H895 H 0.89159 0.51134 0.25197 0.0
C896 C 0.82781 0.51356 0.29558 0.0
C897 C 0.84254 0.50267 0.30709 0.0
C898 C 0.83399 0.528 0.28092 0.0
C899 C 0.85495 0.53173 0.27755 0.0
C900 C 0.86961 0.52186 0.2899 0.0
H901 H 0.93015 0.60361 0.19735 0.0
H902 H 0.91535 0.57978 0.22223 0.0
C903 C 0.86347 0.50741 0.30452 0.0
C904 C 0.86159 0.54524 0.26054 0.0
H905 H 0.88921 0.54537 0.21594 0.0
C906 C 0.85637 0.56614 0.26118 0.0
C907 C 0.8732 0.53753 0.24384 0.0
C908 C 0.87834 0.51499 0.24186 0.0
C909 C 0.86316 0.57977 0.24588 0.0
C910 C 0.87518 0.57212 0.22944 0.0
C911 C 0.88002 0.55114 0.2286 0.0
C912 C 0.88383 0.58583 0.21353 0.0
C913 C 0.85805 0.60232 0.24779 0.0
C914 C 0.87097 0.59668 0.20004 0.0
C915 C 0.87938 0.61034 0.18572 0.0
C916 C 0.90079 0.6133 0.18468 0.0
C917 C 0.9136 0.60179 0.19777 0.0
C918 C 0.90519 0.58816 0.21202 0.0
H919 H 0.85224 0.60627 0.26335 0.0
H920 H 0.87177 0.61191 0.24445 0.0
H921 H 0.84596 0.60632 0.23644 0.0
H922 H 0.85445 0.59476 0.20074 0.0
H923 H 0.86908 0.61889 0.17582 0.0
H924 H 0.10123 0.56778 0.30282 0.0
H925 H 0.07776 0.58299 0.27786 0.0
H926 H 0.09508 0.64368 0.29811 0.0
H927 H 0.11886 0.62862 0.32313 0.0
H928 H 0.04437 0.61091 0.28328 0.0
H929 H 0.10745 0.64355 0.23549 0.0
H930 H 0.11197 0.62424 0.25492 0.0
H931 H 0.10746 0.65047 0.26226 0.0
C932 C 0.09997 0.58437 0.30215 0.0
C933 C 0.11209 0.59699 0.31485 0.0
C934 C 0.08653 0.59302 0.28786 0.0
C935 C 0.08502 0.61442 0.28593 0.0
C936 C 0.09636 0.62711 0.29916 0.0
H937 H 0.01322 0.68586 0.19808 0.0
H938 H 0.03785 0.67545 0.22456 0.0
C939 C 0.10981 0.61847 0.31353 0.0
C940 C 0.07188 0.62324 0.26966 0.0
H941 H 0.07352 0.64916 0.22402 0.0
C942 C 0.0507 0.61936 0.27037 0.0
C943 C 0.08027 0.63425 0.25288 0.0
C944 C 0.10304 0.6383 0.25114 0.0
C945 C 0.03763 0.62608 0.25463 0.0
C946 C 0.04608 0.6366 0.23758 0.0
C947 C 0.06718 0.64096 0.23709 0.0
C948 C 0.03317 0.64285 0.21999 0.0
C949 C 0.01487 0.62193 0.2564 0.0
C950 C 0.02317 0.62792 0.2081 0.0
C951 C 0.00913 0.63377 0.19298 0.0
C952 C 0.00494 0.65469 0.18946 0.0
C953 C 0.01604 0.66962 0.20047 0.0
C954 C 0.03007 0.66373 0.21564 0.0
H955 H 0.01029 0.61852 0.2725 0.0
H956 H 0.00577 0.63526 0.25082 0.0
H957 H 0.01087 0.6084 0.24681 0.0
H958 H 0.02574 0.61172 0.21098 0.0
H959 H 0.00099 0.62189 0.18463 0.0
H960 H 0.11961 0.49811 0.68503 0.0
H961 H 0.10848 0.52327 0.71058 0.0
H962 H 0.17172 0.53588 0.72598 0.0
H963 H 0.18306 0.51092 0.70027 0.0
H964 H 0.11763 0.51935 0.75255 0.0
H965 H 0.14638 0.59347 0.72118 0.0
H966 H 0.14372 0.57068 0.70555 0.0
H967 H 0.16516 0.57328 0.72276 0.0
C968 C 0.13119 0.50651 0.69355 0.0
C969 C 0.15223 0.50245 0.69069 0.0
C970 C 0.12479 0.52084 0.70818 0.0
C971 C 0.13928 0.53145 0.7201 0.0
C972 C 0.16031 0.52807 0.71671 0.0
H973 H 0.12325 0.61672 0.82247 0.0
H974 H 0.13803 0.59212 0.79811 0.0
C975 C 0.16674 0.51375 0.70204 0.0
C976 C 0.1323 0.54474 0.73715 0.0
H977 H 0.13242 0.59412 0.7548 0.0
C978 C 0.12083 0.53571 0.75305 0.0
C979 C 0.13672 0.566 0.73781 0.0
C980 C 0.14852 0.57653 0.72086 0.0
C981 C 0.11354 0.54742 0.76959 0.0
C982 C 0.11759 0.56875 0.77005 0.0
C983 C 0.12941 0.57773 0.75438 0.0
C984 C 0.10868 0.58226 0.78599 0.0
C985 C 0.10165 0.53687 0.78649 0.0
C986 C 0.0873 0.58466 0.78731 0.0
C987 C 0.07881 0.59865 0.80116 0.0
C988 C 0.09156 0.6106 0.8139 0.0
C989 C 0.11299 0.60772 0.81294 0.0
C990 C 0.12147 0.59374 0.79899 0.0
H991 H 0.1048 0.52009 0.78687 0.0
H992 H 0.10546 0.54353 0.80174 0.0
H993 H 0.08495 0.53902 0.78377 0.0
H994 H 0.0772 0.57616 0.77716 0.0
H995 H 0.06226 0.60049 0.80146 0.0
H996 H 0.01619 0.30831 0.80186 0.0
H997 H 0.0433 0.31668 0.77713 0.0
H998 H 0.03222 0.38133 0.78678 0.0
H999 H 0.00531 0.37318 0.81158 0.0
H1000 H 0.03615 0.33897 0.74089 0.0
H1001 H 0.09494 0.37725 0.7891 0.0
H1002 H 0.07503 0.36111 0.7998 0.0
H1003 H 0.06959 0.38739 0.79307 0.0
C1004 C 0.01983 0.32431 0.79906 0.0
C1005 C 0.00856 0.3401 0.80863 0.0
C1006 C 0.03527 0.32904 0.78488 0.0
C1007 C 0.03984 0.3496 0.78027 0.0
C1008 C 0.02917 0.36536 0.7904 0.0
H1009 H 0.10192 0.42506 0.69458 0.0
H1010 H 0.08024 0.40872 0.72039 0.0
C1011 C 0.01371 0.36067 0.8045 0.0
C1012 C 0.05438 0.35475 0.76359 0.0
H1013 H 0.09652 0.38397 0.75284 0.0
C1014 C 0.04958 0.34851 0.74349 0.0
C1015 C 0.07184 0.36716 0.7671 0.0
C1016 C 0.0783 0.37346 0.78847 0.0
C1017 C 0.06119 0.35532 0.72662 0.0
C1018 C 0.07811 0.36848 0.73008 0.0
C1019 C 0.0834 0.374 0.75026 0.0
C1020 C 0.08986 0.37776 0.71301 0.0
C1021 C 0.05474 0.34922 0.70519 0.0
C1022 C 0.10212 0.36566 0.70004 0.0
C1023 C 0.11454 0.37496 0.68513 0.0
C1024 C 0.11497 0.39651 0.68315 0.0
C1025 C 0.10205 0.40845 0.69573 0.0
C1026 C 0.08967 0.39915 0.71053 0.0
H1027 H 0.03929 0.34193 0.70496 0.0
H1028 H 0.05454 0.36284 0.6949 0.0
H1029 H 0.066 0.33806 0.69888 0.0
H1030 H 0.10263 0.34912 0.7019 0.0
H1031 H 0.12437 0.36533 0.67576 0.0
H1032 H 0.93197 0.39642 0.80235 0.0
H1033 H 0.91658 0.42054 0.77814 0.0
H1034 H 0.85602 0.40141 0.7971 0.0
H1035 H 0.87128 0.377 0.8214 0.0
H1036 H 0.86286 0.40069 0.75386 0.0
H1037 H 0.88621 0.47509 0.78829 0.0
H1038 H 0.90702 0.45716 0.78548 0.0
H1039 H 0.88615 0.45131 0.80264 0.0
C1040 C 0.91537 0.3975 0.80163 0.0
C1041 C 0.90286 0.38474 0.81381 0.0
C1042 C 0.90661 0.41138 0.78784 0.0
C1043 C 0.88519 0.41285 0.78599 0.0
C1044 C 0.8726 0.40052 0.79841 0.0
H1045 H 0.81233 0.48334 0.69769 0.0
H1046 H 0.82285 0.45843 0.72383 0.0
C1047 C 0.88135 0.38666 0.81232 0.0
C1048 C 0.87613 0.42631 0.77008 0.0
H1049 H 0.87494 0.47598 0.75338 0.0
C1050 C 0.86524 0.41719 0.75383 0.0
C1051 C 0.87934 0.44779 0.77015 0.0
C1052 C 0.89015 0.45848 0.78767 0.0
C1053 C 0.85817 0.42894 0.73716 0.0
C1054 C 0.86188 0.45034 0.73698 0.0
C1055 C 0.87229 0.45951 0.7535 0.0
C1056 C 0.85545 0.46362 0.71968 0.0
C1057 C 0.84745 0.41829 0.71956 0.0
C1058 C 0.8703 0.47461 0.70858 0.0
C1059 C 0.86436 0.48889 0.69372 0.0
C1060 C 0.84342 0.49253 0.68978 0.0
C1061 C 0.82858 0.48084 0.7003 0.0
C1062 C 0.83456 0.46656 0.71522 0.0
H1063 H 0.8499 0.40139 0.7199 0.0
H1064 H 0.83068 0.42124 0.7206 0.0
H1065 H 0.85294 0.42434 0.70457 0.0
H1066 H 0.88651 0.47251 0.71182 0.0
H1067 H 0.87619 0.49759 0.68586 0.0
H1068 H 0.99021 0.62398 0.81144 0.0
H1069 H 0.96336 0.61603 0.78647 0.0
H1070 H 0.95204 0.68075 0.7776 0.0
H1071 H 0.97909 0.68894 0.80248 0.0
H1072 H 0.92082 0.62738 0.78411 0.0
H1073 H 0.96753 0.65899 0.71962 0.0
H1074 H 0.97845 0.65352 0.74454 0.0
H1075 H 0.96265 0.67587 0.74098 0.0
C1076 C 0.98185 0.63656 0.8044 0.0
C1077 C 0.98695 0.6571 0.80875 0.0
C1078 C 0.96651 0.63197 0.79014 0.0
C1079 C 0.95604 0.64782 0.77995 0.0
C1080 C 0.96024 0.66834 0.78507 0.0
H1081 H 0.87176 0.63025 0.67564 0.0
H1082 H 0.89285 0.64675 0.70219 0.0
C1083 C 0.9756 0.67296 0.79939 0.0
C1084 C 0.94151 0.64264 0.76328 0.0
H1085 H 0.93614 0.64328 0.71105 0.0
C1086 C 0.92403 0.63104 0.76815 0.0
C1087 C 0.94578 0.64752 0.74251 0.0
C1088 C 0.96467 0.65954 0.73645 0.0
C1089 C 0.91091 0.62372 0.75272 0.0
C1090 C 0.91566 0.62781 0.7319 0.0
C1091 C 0.93265 0.64015 0.72705 0.0
C1092 C 0.90399 0.61815 0.71499 0.0
C1093 C 0.89221 0.61141 0.7588 0.0
C1094 C 0.90397 0.5967 0.71299 0.0
C1095 C 0.89206 0.58726 0.6979 0.0
C1096 C 0.88 0.5991 0.68441 0.0
C1097 C 0.88084 0.62069 0.68581 0.0
C1098 C 0.8928 0.63014 0.70099 0.0
H1099 H 0.88756 0.61461 0.77492 0.0
H1100 H 0.87901 0.61478 0.7485 0.0
H1101 H 0.89581 0.59478 0.75758 0.0
H1102 H 0.91292 0.58723 0.72337 0.0
H1103 H 0.89196 0.57062 0.69715 0.0
H1104 H 0.17833 0.12425 0.37626 0.0
H1105 H 0.2046 0.13876 0.39897 0.0
H1106 H 0.22569 0.07769 0.41384 0.0
H1107 H 0.19978 0.06303 0.39104 0.0
H1108 H 0.21263 0.13277 0.44089 0.0
H1109 H 0.27779 0.10615 0.39277 0.0
H1110 H 0.25157 0.10637 0.38366 0.0
H1111 H 0.26048 0.08592 0.40001 0.0
C1112 C 0.18844 0.11388 0.38449 0.0
C1113 C 0.1871 0.09247 0.38166 0.0
C1114 C 0.20346 0.12222 0.39741 0.0
C1115 C 0.21737 0.1093 0.40763 0.0
C1116 C 0.21544 0.08793 0.40563 0.0
H1117 H 0.31368 0.11831 0.4962 0.0
H1118 H 0.28893 0.10825 0.46979 0.0
C1119 C 0.20051 0.07958 0.3927 0.0
C1120 C 0.23402 0.11807 0.42037 0.0
H1121 H 0.28618 0.11854 0.42628 0.0
C1122 C 0.22872 0.12989 0.4376 0.0
C1123 C 0.25498 0.11432 0.41591 0.0
C1124 C 0.2616 0.10267 0.39697 0.0
C1125 C 0.24386 0.13738 0.45102 0.0
C1126 C 0.26477 0.13312 0.44686 0.0
C1127 C 0.2701 0.12172 0.42938 0.0
C1128 C 0.28123 0.13942 0.46116 0.0
C1129 C 0.23735 0.14913 0.46994 0.0
C1130 C 0.28558 0.16027 0.46444 0.0
C1131 C 0.29976 0.1661 0.47948 0.0
C1132 C 0.30976 0.15112 0.49147 0.0
C1133 C 0.30614 0.13022 0.48733 0.0
C1134 C 0.29202 0.12443 0.47226 0.0
H1135 H 0.22056 0.14789 0.47282 0.0
H1136 H 0.24571 0.14345 0.4837 0.0
H1137 H 0.24119 0.16562 0.46792 0.0
H1138 H 0.2776 0.17203 0.45575 0.0
H1139 H 0.30227 0.18233 0.48223 0.0
H1140 H 0.6266 0.3234 0.11832 0.0
H1141 H 0.64172 0.29873 0.09425 0.0
H1142 H 0.58113 0.27755 0.07772 0.0
H1143 H 0.56584 0.30216 0.10151 0.0
H1144 H 0.63631 0.25547 0.09649 0.0
H1145 H 0.60928 0.28683 0.02194 0.0
H1146 H 0.60959 0.30188 0.04528 0.0
H1147 H 0.58919 0.28381 0.04063 0.0
C1148 C 0.61646 0.31375 0.10931 0.0
C1149 C 0.595 0.31475 0.11185 0.0
C1150 C 0.62515 0.29962 0.09564 0.0
C1151 C 0.61252 0.28647 0.08414 0.0
C1152 C 0.59111 0.28781 0.08623 0.0
H1153 H 0.62301 0.18457 0.00164 0.0
H1154 H 0.61232 0.2103 0.02679 0.0
C1155 C 0.58242 0.30184 0.09991 0.0
C1156 C 0.62161 0.27043 0.07087 0.0
H1157 H 0.62191 0.2524 0.02166 0.0
C1158 C 0.6334 0.25487 0.08008 0.0
C1159 C 0.61771 0.26977 0.04951 0.0
C1160 C 0.60591 0.28656 0.03869 0.0
C1161 C 0.64078 0.23818 0.06856 0.0
C1162 C 0.63643 0.23727 0.0473 0.0
C1163 C 0.62505 0.25309 0.03803 0.0
C1164 C 0.64325 0.21995 0.03427 0.0
C1165 C 0.65256 0.22133 0.0793 0.0
C1166 C 0.66421 0.21655 0.03057 0.0
C1167 C 0.67041 0.20179 0.01624 0.0
C1168 C 0.65569 0.19037 0.00526 0.0
C1169 C 0.63474 0.19317 0.00976 0.0
C1170 C 0.62858 0.20788 0.02409 0.0
H1171 H 0.65073 0.22207 0.09627 0.0
H1172 H 0.64745 0.20597 0.07388 0.0
H1173 H 0.66916 0.22291 0.07569 0.0
H1174 H 0.67575 0.22592 0.03809 0.0
H1175 H 0.68666 0.20005 0.01307 0.0
H1176 H 0.68418 0.87871 0.49628 0.0
H1177 H 0.70885 0.88866 0.46981 0.0
H1178 H 0.72069 0.8248 0.45649 0.0
H1179 H 0.6961 0.81463 0.48309 0.0
H1180 H 0.7562 0.84853 0.46504 0.0
H1181 H 0.70672 0.88617 0.40667 0.0
H1182 H 0.70245 0.89516 0.43242 0.0
H1183 H 0.69664 0.86892 0.42596 0.0
C1184 C 0.69173 0.86675 0.48748 0.0
C1185 C 0.68825 0.84587 0.49184 0.0
C1186 C 0.70576 0.87248 0.47229 0.0
C1187 C 0.71646 0.85745 0.46113 0.0
C1188 C 0.7125 0.8366 0.46491 0.0
H1189 H 0.82023 0.87099 0.3766 0.0
H1190 H 0.79422 0.85663 0.39964 0.0
C1191 C 0.6984 0.83084 0.48006 0.0
C1192 C 0.73301 0.8636 0.44683 0.0
H1193 H 0.74276 0.89257 0.40426 0.0
C1194 C 0.75329 0.85795 0.45159 0.0
C1195 C 0.72909 0.87593 0.42939 0.0
C1196 C 0.70753 0.88177 0.42315 0.0
C1197 C 0.7699 0.86498 0.43977 0.0
C1198 C 0.76602 0.87769 0.42257 0.0
C1199 C 0.74568 0.88292 0.41754 0.0
C1200 C 0.78279 0.88618 0.40978 0.0
C1201 C 0.79148 0.8594 0.44622 0.0
C1202 C 0.78496 0.90754 0.40786 0.0
C1203 C 0.79967 0.9158 0.39463 0.0
C1204 C 0.81249 0.90284 0.383 0.0
C1205 C 0.8107 0.88141 0.38543 0.0
C1206 C 0.79588 0.87316 0.39863 0.0
H1207 H 0.79206 0.85382 0.46236 0.0
H1208 H 0.7973 0.84694 0.43613 0.0
H1209 H 0.80196 0.87279 0.44468 0.0
H1210 H 0.77499 0.91784 0.41636 0.0
H1211 H 0.80065 0.93236 0.39317 0.0
H1212 H 0.30456 0.79752 0.01267 0.0
H1213 H 0.31384 0.77333 0.03996 0.0
H1214 H 0.37794 0.7877 0.031 0.0
H1215 H 0.36886 0.81203 0.00396 0.0
H1216 H 0.33833 0.73894 0.03371 0.0
H1217 H 0.37236 0.7892 0.09334 0.0
H1218 H 0.35633 0.79903 0.07291 0.0
H1219 H 0.38309 0.7937 0.06834 0.0
C1220 C 0.3206 0.79587 0.01681 0.0
C1221 C 0.33599 0.80665 0.0061 0.0
C1222 C 0.32586 0.782 0.03237 0.0
C1223 C 0.34654 0.77887 0.0376 0.0
C1224 C 0.36185 0.79018 0.02747 0.0
H1225 H 0.42512 0.69678 0.10115 0.0
H1226 H 0.40803 0.72197 0.0793 0.0
C1227 C 0.35663 0.80401 0.01192 0.0
C1228 C 0.35241 0.7625 0.05224 0.0
H1229 H 0.38125 0.75337 0.09505 0.0
C1230 C 0.34741 0.74207 0.04734 0.0
C1231 C 0.36423 0.76669 0.06998 0.0
C1232 C 0.36915 0.78837 0.07659 0.0
C1233 C 0.35486 0.72561 0.05915 0.0
C1234 C 0.36742 0.7298 0.07636 0.0
C1235 C 0.37173 0.75025 0.08172 0.0
C1236 C 0.37727 0.71325 0.08839 0.0
C1237 C 0.35007 0.70388 0.05262 0.0
C1238 C 0.36555 0.69976 0.10046 0.0
C1239 C 0.37528 0.68523 0.11299 0.0
C1240 C 0.39688 0.6841 0.11372 0.0
C1241 C 0.40847 0.69724 0.10105 0.0
C1242 C 0.39875 0.7117 0.08857 0.0
H1243 H 0.34312 0.70323 0.03703 0.0
H1244 H 0.36424 0.69434 0.05272 0.0
H1245 H 0.33906 0.69698 0.06367 0.0
H1246 H 0.34894 0.7009 0.10068 0.0
H1247 H 0.3659 0.6754 0.12262 0.0
H1248 H 0.30255 0.81221 0.5154 0.0
H1249 H 0.27555 0.82111 0.5401 0.0
H1250 H 0.28125 0.88502 0.52346 0.0
H1251 H 0.30807 0.87634 0.4987 0.0
H1252 H 0.27427 0.84977 0.57401 0.0
H1253 H 0.22036 0.87032 0.51119 0.0
H1254 H 0.24356 0.85569 0.50685 0.0
H1255 H 0.24475 0.88317 0.50965 0.0
C1256 C 0.29828 0.8282 0.51722 0.0
C1257 C 0.30726 0.84355 0.50489 0.0
C1258 C 0.28283 0.83323 0.53129 0.0
C1259 C 0.27613 0.85363 0.53318 0.0
C1260 C 0.28593 0.86912 0.52184 0.0
H1261 H 0.19305 0.92842 0.59914 0.0
H1262 H 0.21721 0.91203 0.57564 0.0
C1263 C 0.30134 0.86413 0.50779 0.0
C1264 C 0.25842 0.8588 0.54642 0.0
H1265 H 0.21068 0.88051 0.54507 0.0
C1266 C 0.26024 0.85623 0.56774 0.0
C1267 C 0.24011 0.86702 0.53806 0.0
C1268 C 0.23693 0.86905 0.51517 0.0
C1269 C 0.24457 0.86277 0.58107 0.0
C1270 C 0.22661 0.87179 0.57273 0.0
C1271 C 0.2245 0.87361 0.55137 0.0
C1272 C 0.2107 0.88111 0.58597 0.0
C1273 C 0.2477 0.86087 0.60398 0.0
C1274 C 0.1986 0.86902 0.5991 0.0
C1275 C 0.18466 0.87834 0.61257 0.0
C1276 C 0.18269 0.89989 0.61309 0.0
C1277 C 0.19426 0.91181 0.59925 0.0
C1278 C 0.20808 0.90249 0.58579 0.0
H1279 H 0.26373 0.85651 0.60795 0.0
H1280 H 0.24393 0.87559 0.61175 0.0
H1281 H 0.23722 0.84889 0.61013 0.0
H1282 H 0.20022 0.85245 0.59919 0.0
H1283 H 0.17595 0.86873 0.623 0.0
H1284 H 0.42458 0.29977 0.89528 0.0
H1285 H 0.40804 0.2735 0.91627 0.0
H1286 H 0.34842 0.29573 0.89769 0.0
H1287 H 0.36482 0.3223 0.87661 0.0
H1288 H 0.35253 0.28573 0.94076 0.0
H1289 H 0.37958 0.22297 0.88977 0.0
H1290 H 0.3997 0.23988 0.89823 0.0
H1291 H 0.37955 0.24964 0.88201 0.0
C1292 C 0.40794 0.29927 0.89577 0.0
C1293 C 0.39603 0.31301 0.88406 0.0
C1294 C 0.39854 0.28416 0.90769 0.0
C1295 C 0.37707 0.28241 0.90807 0.0
C1296 C 0.36504 0.29674 0.89735 0.0
H1297 H 0.30529 0.19397 0.98095 0.0
H1298 H 0.31381 0.21943 0.95454 0.0
C1299 C 0.37445 0.31193 0.88539 0.0
C1300 C 0.36739 0.2653 0.91941 0.0
H1301 H 0.36679 0.21295 0.92272 0.0
C1302 C 0.35533 0.2698 0.93669 0.0
C1303 C 0.37102 0.24458 0.91389 0.0
C1304 C 0.383 0.23892 0.89485 0.0
C1305 C 0.34775 0.25404 0.94933 0.0
C1306 C 0.35214 0.23334 0.94427 0.0
C1307 C 0.3635 0.22885 0.92653 0.0
C1308 C 0.34671 0.21628 0.95824 0.0
C1309 C 0.33602 0.25967 0.96854 0.0
C1310 C 0.36241 0.20546 0.96827 0.0
C1311 C 0.35764 0.19088 0.98324 0.0
C1312 C 0.33705 0.18684 0.98839 0.0
C1313 C 0.32131 0.1968 0.9774 0.0
C1314 C 0.32612 0.21145 0.96242 0.0
H1315 H 0.33694 0.27638 0.97199 0.0
H1316 H 0.31959 0.25556 0.96653 0.0
H1317 H 0.34199 0.25098 0.98197 0.0
H1318 H 0.3784 0.2089 0.96511 0.0
H1319 H 0.37012 0.18336 0.99132 0.0
H1320 H 0.80015 0.06609 0.60315 0.0
H1321 H 0.77446 0.08141 0.58053 0.0
H1322 H 0.79399 0.14202 0.59896 0.0
H1323 H 0.82003 0.12685 0.6215 0.0
H1324 H 0.74241 0.10673 0.59406 0.0
H1325 H 0.7913 0.14628 0.53609 0.0
H1326 H 0.80121 0.12664 0.55302 0.0
H1327 H 0.79691 0.15222 0.56248 0.0
C1328 C 0.79924 0.08269 0.60219 0.0
C1329 C 0.81213 0.09525 0.61418 0.0
C1330 C 0.7845 0.0914 0.58929 0.0
C1331 C 0.78239 0.11281 0.58805 0.0
C1332 C 0.7956 0.12545 0.59949 0.0
H1333 H 0.69514 0.18424 0.51489 0.0
H1334 H 0.71969 0.17453 0.54171 0.0
C1335 C 0.81044 0.11674 0.61238 0.0
C1336 C 0.76553 0.1217 0.57566 0.0
H1337 H 0.75543 0.1511 0.53342 0.0
C1338 C 0.74523 0.11649 0.58083 0.0
C1339 C 0.7693 0.13455 0.55856 0.0
C1340 C 0.79084 0.14017 0.55203 0.0
C1341 C 0.72857 0.12354 0.56913 0.0
C1342 C 0.73237 0.13591 0.55169 0.0
C1343 C 0.75261 0.14164 0.54687 0.0
C1344 C 0.71578 0.1418 0.53734 0.0
C1345 C 0.70705 0.11766 0.57547 0.0
C1346 C 0.70527 0.12658 0.52628 0.0
C1347 C 0.69128 0.13204 0.51097 0.0
C1348 C 0.68763 0.15285 0.50638 0.0
C1349 C 0.69756 0.16808 0.51809 0.0
C1350 C 0.71164 0.16258 0.53336 0.0
H1351 H 0.70632 0.1134 0.592 0.0
H1352 H 0.69608 0.13043 0.57258 0.0
H1353 H 0.70202 0.10415 0.56635 0.0
H1354 H 0.7085 0.11046 0.52891 0.0
H1355 H 0.68389 0.11994 0.50223 0.0
H1356 H 0.62172 0.81255 0.99407 0.0
H1357 H 0.61142 0.78626 0.96931 0.0
H1358 H 0.67508 0.77234 0.95721 0.0
H1359 H 0.68562 0.79877 0.98182 0.0
H1360 H 0.64902 0.77298 0.92156 0.0
H1361 H 0.61763 0.72475 0.98459 0.0
H1362 H 0.60764 0.75049 0.98395 0.0
H1363 H 0.63445 0.74634 0.98922 0.0
C1364 C 0.63356 0.80413 0.98593 0.0
C1365 C 0.65449 0.80755 0.99011 0.0
C1366 C 0.62763 0.78905 0.97189 0.0
C1367 C 0.64251 0.77708 0.96188 0.0
C1368 C 0.6634 0.78132 0.96498 0.0
H1369 H 0.62768 0.67382 0.87626 0.0
H1370 H 0.64293 0.69895 0.89982 0.0
C1371 C 0.66937 0.79645 0.97901 0.0
C1372 C 0.63617 0.75954 0.94892 0.0
H1373 H 0.61007 0.71407 0.95047 0.0
C1374 C 0.64067 0.75998 0.92784 0.0
C1375 C 0.62545 0.74259 0.9573 0.0
C1376 C 0.62115 0.74084 0.98004 0.0
C1377 C 0.63391 0.74425 0.91471 0.0
C1378 C 0.62268 0.72758 0.92303 0.0
C1379 C 0.61867 0.72691 0.94419 0.0
C1380 C 0.61376 0.7114 0.90984 0.0
C1381 C 0.63812 0.74595 0.89196 0.0
C1382 C 0.59235 0.70961 0.90834 0.0
C1383 C 0.5836 0.69527 0.89505 0.0
C1384 C 0.59612 0.68235 0.88304 0.0
C1385 C 0.61761 0.68359 0.88523 0.0
C1386 C 0.62636 0.69802 0.89855 0.0
H1387 H 0.64354 0.76155 0.88759 0.0
H1388 H 0.65021 0.73472 0.88763 0.0
H1389 H 0.62409 0.7423 0.88295 0.0
H1390 H 0.58239 0.71973 0.91707 0.0
H1391 H 0.567 0.69467 0.89385 0.0
H1392 H 0.49416 0.31451 0.12057 0.0
H1393 H 0.46846 0.28955 0.10937 0.0
H1394 H 0.45678 0.27296 0.17248 0.0
H1395 H 0.4823 0.29806 0.1839 0.0
H1396 H 0.47244 0.24743 0.1177 0.0
H1397 H 0.39877 0.2783 0.14811 0.0
H1398 H 0.42152 0.29397 0.14536 0.0
H1399 H 0.41925 0.27642 0.16655 0.0
C1400 C 0.48584 0.30587 0.13212 0.0
C1401 C 0.49036 0.30818 0.15313 0.0
C1402 C 0.47119 0.29159 0.12567 0.0
C1403 C 0.46071 0.27948 0.1401 0.0
C1404 C 0.46449 0.28238 0.16113 0.0
H1405 H 0.37649 0.17622 0.1245 0.0
H1406 H 0.4005 0.20134 0.13898 0.0
C1407 C 0.47913 0.2967 0.16761 0.0
C1408 C 0.44727 0.26259 0.133 0.0
H1409 H 0.39792 0.24483 0.13373 0.0
C1410 C 0.45613 0.24687 0.12115 0.0
C1411 C 0.42609 0.26183 0.13776 0.0
C1412 C 0.41574 0.2786 0.15 0.0
C1413 C 0.44433 0.23041 0.11384 0.0
C1414 C 0.42307 0.22984 0.11826 0.0
C1415 C 0.41426 0.24534 0.13042 0.0
C1416 C 0.40952 0.21385 0.10952 0.0
C1417 C 0.45473 0.21367 0.1016 0.0
C1418 C 0.40677 0.21258 0.08819 0.0
C1419 C 0.39312 0.1983 0.07986 0.0
C1420 C 0.38187 0.18506 0.09274 0.0
C1421 C 0.38496 0.18613 0.11413 0.0
C1422 C 0.39861 0.2005 0.12245 0.0
H1423 H 0.47159 0.21337 0.10435 0.0
H1424 H 0.44827 0.19834 0.10544 0.0
H1425 H 0.45217 0.21649 0.08497 0.0
H1426 H 0.41483 0.22299 0.07799 0.0
H1427 H 0.39109 0.19795 0.06334 0.0
H1428 H 0.37836 0.82141 0.87146 0.0
H1429 H 0.40218 0.79609 0.85708 0.0
H1430 H 0.41461 0.77293 0.91793 0.0
H1431 H 0.39099 0.79819 0.93252 0.0
H1432 H 0.45012 0.7788 0.89214 0.0
H1433 H 0.38814 0.73368 0.85411 0.0
H1434 H 0.38888 0.76072 0.84841 0.0
H1435 H 0.38293 0.75232 0.87401 0.0
C1436 C 0.38631 0.81108 0.88183 0.0
C1437 C 0.38264 0.81172 0.90315 0.0
C1438 C 0.39979 0.79655 0.87355 0.0
C1439 C 0.40979 0.78245 0.88644 0.0
C1440 C 0.40687 0.78361 0.90775 0.0
H1441 H 0.49437 0.68109 0.87633 0.0
H1442 H 0.46941 0.7068 0.88757 0.0
C1443 C 0.39337 0.79807 0.91604 0.0
C1444 C 0.4231 0.76621 0.87781 0.0
H1445 H 0.42221 0.72211 0.84934 0.0
C1446 C 0.44406 0.76641 0.88275 0.0
C1447 C 0.41506 0.75016 0.86554 0.0
C1448 C 0.3925 0.749 0.86027 0.0
C1449 C 0.4573 0.75094 0.87572 0.0
C1450 C 0.44919 0.73462 0.86383 0.0
C1451 C 0.42829 0.7346 0.85857 0.0
C1452 C 0.46228 0.71741 0.85686 0.0
C1453 C 0.47988 0.75232 0.88087 0.0
C1454 C 0.46559 0.7141 0.83582 0.0
C1455 C 0.4797 0.69926 0.82931 0.0
C1456 C 0.4907 0.68755 0.84378 0.0
C1457 C 0.48633 0.69003 0.86481 0.0
C1458 C 0.47217 0.70479 0.87127 0.0
H1459 H 0.4844 0.76821 0.88524 0.0
H1460 H 0.48327 0.74208 0.89409 0.0
H1461 H 0.4895 0.74734 0.86768 0.0
H1462 H 0.45791 0.72358 0.82448 0.0
H1463 H 0.48268 0.69768 0.813 0.0
H1464 H 0.19471 0.01553 0.6867 0.0
H1465 H 0.2194 0.04261 0.6781 0.0
H1466 H 0.2114 0.02949 0.6136 0.0
H1467 H 0.18663 0.00264 0.62197 0.0
H1468 H 0.25621 0.03533 0.657 0.0
H1469 H 0.20825 0.0922 0.61559 0.0
H1470 H 0.19738 0.07262 0.63201 0.0
H1471 H 0.20493 0.06651 0.6061 0.0
C1472 C 0.19787 0.01871 0.67067 0.0
C1473 C 0.18876 0.0069 0.65501 0.0
C1474 C 0.21202 0.03413 0.6658 0.0
C1475 C 0.21707 0.03813 0.64523 0.0
C1476 C 0.20743 0.02689 0.62957 0.0
H1477 H 0.30384 0.09962 0.57029 0.0
H1478 H 0.27802 0.07782 0.58646 0.0
C1479 C 0.19335 0.01147 0.63439 0.0
C1480 C 0.2337 0.05272 0.64003 0.0
H1481 H 0.24466 0.09409 0.60978 0.0
C1482 C 0.25369 0.04841 0.64696 0.0
C1483 C 0.23029 0.06973 0.62697 0.0
C1484 C 0.20901 0.07568 0.61989 0.0
C1485 C 0.27057 0.06005 0.64025 0.0
C1486 C 0.26723 0.0765 0.62647 0.0
C1487 C 0.24714 0.08132 0.62023 0.0
C1488 C 0.28437 0.08829 0.61737 0.0
C1489 C 0.29191 0.05411 0.64714 0.0
C1490 C 0.2968 0.10107 0.6295 0.0
C1491 C 0.31171 0.11355 0.62031 0.0
C1492 C 0.31425 0.11354 0.59882 0.0
C1493 C 0.30225 0.1001 0.58686 0.0
C1494 C 0.28744 0.08765 0.59606 0.0
H1495 H 0.29217 0.03885 0.65481 0.0
H1496 H 0.30262 0.05377 0.63385 0.0
H1497 H 0.29768 0.06574 0.65821 0.0
H1498 H 0.29448 0.10193 0.64597 0.0
H1499 H 0.32062 0.1238 0.62994 0.0
H1500 H 0.51041 0.29818 0.81323 0.0
H1501 H 0.53578 0.27223 0.82319 0.0
H1502 H 0.5232 0.28429 0.88714 0.0
H1503 H 0.4977 0.31008 0.87741 0.0
H1504 H 0.57135 0.27367 0.84905 0.0
H1505 H 0.51052 0.22242 0.8799 0.0
H1506 H 0.50492 0.24414 0.86355 0.0
H1507 H 0.51012 0.24795 0.89043 0.0
C1508 C 0.51323 0.29553 0.82942 0.0
C1509 C 0.50184 0.30599 0.84454 0.0
C1510 C 0.5277 0.28067 0.83506 0.0
C1511 C 0.53095 0.27606 0.85586 0.0
C1512 C 0.52053 0.28735 0.87099 0.0
H1513 H 0.60299 0.19617 0.93021 0.0
H1514 H 0.57881 0.22053 0.91511 0.0
C1515 C 0.50606 0.30215 0.86539 0.0
C1516 C 0.54463 0.25895 0.86183 0.0
H1517 H 0.54512 0.21318 0.88746 0.0
C1518 C 0.56565 0.26033 0.85726 0.0
C1519 C 0.53701 0.24153 0.87238 0.0
C1520 C 0.51438 0.23875 0.8767 0.0
C1521 C 0.57946 0.24509 0.8638 0.0
C1522 C 0.5719 0.22799 0.87491 0.0
C1523 C 0.55081 0.22636 0.87897 0.0
C1524 C 0.58581 0.21232 0.88366 0.0
C1525 C 0.6021 0.24774 0.8595 0.0
C1526 C 0.59733 0.19929 0.87092 0.0
C1527 C 0.61118 0.18525 0.8795 0.0
C1528 C 0.61369 0.18409 0.90096 0.0
C1529 C 0.60154 0.19673 0.91363 0.0
C1530 C 0.5877 0.21066 0.90505 0.0
H1531 H 0.60578 0.26347 0.85396 0.0
H1532 H 0.61128 0.24458 0.87355 0.0
H1533 H 0.6069 0.23661 0.8475 0.0
H1534 H 0.59578 0.20016 0.85436 0.0
H1535 H 0.62025 0.17571 0.86931 0.0
H1536 H 0.80083 0.9818 0.6881 0.0
H1537 H 0.77373 0.95726 0.6792 0.0
H1538 H 0.78281 0.97039 0.61486 0.0
H1539 H 0.80978 0.99498 0.62354 0.0
H1540 H 0.74148 0.97577 0.63012 0.0
H1541 H 0.77495 0.89974 0.65098 0.0
H1542 H 0.77674 0.9199 0.66984 0.0
H1543 H 0.79072 0.92208 0.64617 0.0
C1544 C 0.79739 0.97913 0.67203 0.0
C1545 C 0.80735 0.99046 0.65653 0.0
C1546 C 0.78192 0.96508 0.66699 0.0
C1547 C 0.77632 0.96207 0.64639 0.0
C1548 C 0.78693 0.97257 0.63086 0.0
H1549 H 0.69084 0.90008 0.57053 0.0
H1550 H 0.71489 0.92361 0.58697 0.0
C1551 C 0.80236 0.98658 0.63585 0.0
C1552 C 0.7583 0.94938 0.64097 0.0
H1553 H 0.74091 0.89998 0.63855 0.0
C1554 C 0.74129 0.95921 0.63205 0.0
C1555 C 0.75805 0.92786 0.64381 0.0
C1556 C 0.7761 0.91665 0.6531 0.0
C1557 C 0.72416 0.94798 0.62539 0.0
C1558 C 0.72426 0.92636 0.6274 0.0
C1559 C 0.74093 0.91659 0.63705 0.0
C1560 C 0.70814 0.91346 0.61793 0.0
C1561 C 0.70619 0.95934 0.6161 0.0
C1562 C 0.69635 0.89997 0.62992 0.0
C1563 C 0.68253 0.88642 0.62054 0.0
C1564 C 0.68054 0.886 0.599 0.0
C1565 C 0.69197 0.9 0.58714 0.0
C1566 C 0.70567 0.91355 0.59652 0.0
H1567 H 0.70566 0.97558 0.62138 0.0
H1568 H 0.7078 0.95942 0.59912 0.0
H1569 H 0.6914 0.95178 0.62004 0.0
H1570 H 0.69816 0.89963 0.64647 0.0
H1571 H 0.67402 0.87578 0.63011 0.0
H1572 H 0.51395 0.69535 0.18349 0.0
H1573 H 0.54066 0.72013 0.17403 0.0
H1574 H 0.52662 0.71099 0.1099 0.0
H1575 H 0.50002 0.68615 0.11912 0.0
H1576 H 0.57008 0.71287 0.12028 0.0
H1577 H 0.52434 0.77813 0.15169 0.0
H1578 H 0.52909 0.75686 0.16871 0.0
H1579 H 0.51312 0.75328 0.1465 0.0
C1580 C 0.51675 0.69837 0.16736 0.0
C1581 C 0.50473 0.68895 0.15205 0.0
C1582 C 0.53192 0.71262 0.16202 0.0
C1583 C 0.53528 0.7176 0.14132 0.0
C1584 C 0.5241 0.70741 0.12597 0.0
H1585 H 0.6039 0.79982 0.06528 0.0
H1586 H 0.58145 0.77385 0.08033 0.0
C1587 C 0.50892 0.69324 0.13128 0.0
C1588 C 0.54976 0.73407 0.13551 0.0
H1589 H 0.55598 0.78618 0.13612 0.0
C1590 C 0.56711 0.72889 0.12384 0.0
C1591 C 0.54578 0.75491 0.14028 0.0
C1592 C 0.52702 0.76127 0.15236 0.0
C1593 C 0.58054 0.74408 0.11657 0.0
C1594 C 0.57619 0.76498 0.12073 0.0
C1595 C 0.55917 0.77013 0.13292 0.0
C1596 C 0.5887 0.78172 0.11182 0.0
C1597 C 0.59928 0.73762 0.1045 0.0
C1598 C 0.59941 0.7954 0.12459 0.0
C1599 C 0.61215 0.81044 0.11604 0.0
C1600 C 0.61432 0.81204 0.09457 0.0
C1601 C 0.60277 0.79889 0.08187 0.0
C1602 C 0.59003 0.78394 0.09043 0.0
H1603 H 0.60351 0.72137 0.10768 0.0
H1604 H 0.59595 0.73899 0.08783 0.0
H1605 H 0.61266 0.74758 0.10812 0.0
H1606 H 0.59836 0.79404 0.14116 0.0
H1607 H 0.62079 0.82035 0.12626 0.0
H1608 H 0.18595 0.9914 0.37019 0.0
H1609 H 0.21066 0.96445 0.37868 0.0
H1610 H 0.22065 0.95291 0.31417 0.0
H1611 H 0.19606 0.98006 0.30545 0.0
H1612 H 0.21283 0.92198 0.36768 0.0
H1613 H 0.27839 0.96761 0.33679 0.0
H1614 H 0.25351 0.97887 0.34173 0.0
H1615 H 0.25731 0.96291 0.31954 0.0
C1616 C 0.19319 0.98299 0.35778 0.0
C1617 C 0.18922 0.98804 0.33714 0.0
C1618 C 0.2073 0.96759 0.36267 0.0
C1619 C 0.21773 0.95701 0.34705 0.0
C1620 C 0.21301 0.9612 0.32643 0.0
H1621 H 0.32045 0.87097 0.36632 0.0
H1622 H 0.29435 0.89232 0.34938 0.0
C1623 C 0.19885 0.97661 0.3215 0.0
C1624 C 0.23414 0.94228 0.35258 0.0
H1625 H 0.28629 0.93605 0.35255 0.0
C1626 C 0.22887 0.92492 0.3642 0.0
C1627 C 0.25504 0.94619 0.34794 0.0
C1628 C 0.26154 0.96495 0.33594 0.0
C1629 C 0.24401 0.91157 0.37175 0.0
C1630 C 0.26495 0.91595 0.36785 0.0
C1631 C 0.2702 0.93282 0.35552 0.0
C1632 C 0.28157 0.90402 0.37776 0.0
C1633 C 0.2375 0.89303 0.38408 0.0
C1634 C 0.28342 0.9042 0.39921 0.0
C1635 C 0.29825 0.89215 0.4089 0.0
C1636 C 0.31163 0.87973 0.3973 0.0
C1637 C 0.31036 0.88031 0.3757 0.0
C1638 C 0.29544 0.89243 0.366 0.0
H1639 H 0.22132 0.88868 0.3808 0.0
H1640 H 0.24758 0.87964 0.38081 0.0
H1641 H 0.2387 0.89666 0.40071 0.0
H1642 H 0.27313 0.91343 0.40851 0.0
H1643 H 0.29889 0.89226 0.42554 0.0
H1644 H 0.80016 0.01452 0.3079 0.0
H1645 H 0.77567 0.04142 0.3175 0.0
H1646 H 0.78893 0.03071 0.38158 0.0
H1647 H 0.81354 0.00402 0.37218 0.0
H1648 H 0.74084 0.03404 0.34147 0.0
H1649 H 0.79021 0.09336 0.3774 0.0
H1650 H 0.80036 0.07345 0.36092 0.0
H1651 H 0.79474 0.06807 0.38746 0.0
C1652 C 0.7982 0.0182 0.32402 0.0
C1653 C 0.80874 0.00708 0.33929 0.0
C1654 C 0.78416 0.03352 0.32946 0.0
C1655 C 0.78062 0.03813 0.35022 0.0
C1656 C 0.79171 0.02764 0.36545 0.0
H1657 H 0.69683 0.10165 0.42766 0.0
H1658 H 0.7224 0.07968 0.41129 0.0
C1659 C 0.80571 0.0123 0.36004 0.0
C1660 C 0.76405 0.05252 0.35617 0.0
H1661 H 0.75424 0.09497 0.38531 0.0
C1662 C 0.74374 0.04756 0.35078 0.0
C1663 C 0.76796 0.0701 0.3683 0.0
C1664 C 0.78952 0.0767 0.3737 0.0
C1665 C 0.7271 0.05921 0.35807 0.0
C1666 C 0.73099 0.07634 0.37083 0.0
C1667 C 0.75134 0.0817 0.37562 0.0
C1668 C 0.71421 0.0884 0.38027 0.0
C1669 C 0.70549 0.05262 0.35283 0.0
C1670 C 0.7009 0.1003 0.36817 0.0
C1671 C 0.68615 0.11288 0.37748 0.0
C1672 C 0.68463 0.11384 0.39905 0.0
C1673 C 0.6976 0.10135 0.41103 0.0
C1674 C 0.71227 0.08881 0.40172 0.0
H1675 H 0.70503 0.03694 0.34607 0.0
H1676 H 0.69559 0.0529 0.36673 0.0
H1677 H 0.69889 0.0635 0.34148 0.0
H1678 H 0.70235 0.10035 0.35158 0.0
H1679 H 0.67647 0.12237 0.36781 0.0
H1680 H 0.98578 0.32004 0.91146 0.0
H1681 H 0.00196 0.32113 0.94551 0.0
H1682 H 0.95868 0.36769 0.96454 0.0
H1683 H 0.94229 0.36633 0.93058 0.0
H1684 H 0.02054 0.35304 0.96558 0.0
H1685 H 0.95312 0.32548 0.01005 0.0
H1686 H 0.9544 0.32383 0.98239 0.0
H1687 H 0.94793 0.34777 0.99463 0.0
C1688 C 0.97977 0.33046 0.92298 0.0
C1689 C 0.96276 0.34298 0.91862 0.0
C1690 C 0.98897 0.33108 0.94237 0.0
C1691 C 0.98129 0.34423 0.95766 0.0
C1692 C 0.96452 0.35706 0.95314 0.0
H1693 H 0.0206 0.36973 0.083 0.0
H1694 H 0.00462 0.37119 0.04884 0.0
C1695 C 0.95524 0.35635 0.93378 0.0
C1696 C 0.99109 0.3447 0.97821 0.0
H1697 H 0.98177 0.33723 0.02933 0.0
C1698 C 0.01209 0.34953 0.97951 0.0
C1699 C 0.98 0.3401 0.99636 0.0
C1700 C 0.95767 0.33381 0.99584 0.0
C1701 C 0.02227 0.35004 -0.00148 0.0
C1702 C 0.01116 0.34547 0.01661 0.0
C1703 C 0.99016 0.34081 0.01537 0.0
C1704 C 0.0212 0.34492 0.03697 0.0
C1705 C 0.04476 0.35564 -0.00082 0.0
C1706 C 0.03565 0.32958 0.04153 0.0
C1707 C 0.04459 0.32859 0.06103 0.0
C1708 C 0.03922 0.34296 0.07622 0.0
C1709 C 0.02484 0.35838 0.07158 0.0
C1710 C 0.0158 0.35929 0.05211 0.0
H1711 H 0.04996 0.36289 0.98462 0.0
H1712 H 0.04792 0.36634 0.01211 0.0
H1713 H 0.05399 0.34152 0.0017 0.0
H1714 H 0.03975 0.31817 0.03011 0.0
H1715 H 0.05541 0.31637 0.06435 0.0
H1716 H 0.8725 0.4747 0.41413 0.0
H1717 H 0.87359 0.49117 0.4481 0.0
H1718 H 0.81866 0.45855 0.46574 0.0
H1719 H 0.81716 0.44252 0.43164 0.0
H1720 H 0.83592 0.51463 0.46725 0.0
H1721 H 0.86643 0.44775 0.51124 0.0
H1722 H 0.87121 0.45104 0.48406 0.0
H1723 H 0.84628 0.44319 0.49277 0.0
C1724 C 0.86062 0.47118 0.42525 0.0
C1725 C 0.84475 0.45738 0.42036 0.0
C1726 C 0.86131 0.48048 0.44459 0.0
C1727 C 0.84629 0.47589 0.45934 0.0
C1728 C 0.83048 0.46206 0.45455 0.0
H1729 H 0.82505 0.51027 0.58597 0.0
H1730 H 0.82566 0.49368 0.55212 0.0
C1731 C 0.82969 0.4529 0.43516 0.0
C1732 C 0.84679 0.48596 0.47963 0.0
H1733 H 0.85727 0.47724 0.53024 0.0
C1734 C 0.84066 0.50656 0.48106 0.0
C1735 C 0.85282 0.47521 0.49748 0.0
C1736 C 0.85968 0.45308 0.49648 0.0
C1737 C 0.84008 0.5167 0.50008 0.0
C1738 C 0.84636 0.50603 0.518 0.0
C1739 C 0.85253 0.48539 0.51649 0.0
C1740 C 0.84636 0.51591 0.5385 0.0
C1741 C 0.83217 0.5385 0.50087 0.0
C1742 C 0.85806 0.53368 0.54213 0.0
C1743 C 0.85761 0.54319 0.56138 0.0
C1744 C 0.84574 0.53486 0.57734 0.0
C1745 C 0.83443 0.51684 0.57388 0.0
C1746 C 0.83474 0.50742 0.55459 0.0
H1747 H 0.82266 0.54226 0.48719 0.0
H1748 H 0.82282 0.54117 0.5149 0.0
H1749 H 0.8454 0.54926 0.50113 0.0
H1750 H 0.86754 0.54019 0.5301 0.0
H1751 H 0.86658 0.557 0.56383 0.0
H1752 H 0.01105 0.67711 0.91247 0.0
H1753 H 0.9952 0.67582 0.94667 0.0
H1754 H 0.03693 0.62727 0.96415 0.0
H1755 H 0.05303 0.62887 0.93007 0.0
H1756 H 0.97562 0.64434 0.96611 0.0
H1757 H 0.0445 0.66789 0.01065 0.0
H1758 H 0.0431 0.67024 0.98305 0.0
H1759 H 0.04864 0.64577 0.99469 0.0
C1760 C 0.01679 0.66622 0.9237 0.0
C1761 C 0.03329 0.65321 0.91888 0.0
C1762 C 0.00778 0.66549 0.94316 0.0
C1763 C 0.01513 0.6517 0.95806 0.0
C1764 C 0.03138 0.63838 0.95307 0.0
H1765 H 0.97442 0.62402 0.08258 0.0
H1766 H 0.9904 0.6228 0.04839 0.0
C1767 C 0.04049 0.63923 0.93364 0.0
C1768 C 0.00551 0.65108 0.97868 0.0
H1769 H 0.01555 0.65681 0.0299 0.0
C1770 C 0.98433 0.64711 0.98005 0.0
C1771 C 0.01694 0.65473 0.99684 0.0
C1772 C 0.03951 0.66009 0.9963 0.0
C1773 C 0.9743 0.64658 -0.00087 0.0
C1774 C 0.98573 0.65019 0.01721 0.0
C1775 C 0.00691 0.65396 0.01592 0.0
C1776 C 0.97586 0.65071 0.03763 0.0
C1777 C 0.95157 0.64201 -0.00012 0.0
C1778 C 0.9626 0.6669 0.04282 0.0
C1779 C 0.9537 0.66774 0.06233 0.0
C1780 C 0.95788 0.65236 0.07688 0.0
C1781 C 0.97111 0.63612 0.07163 0.0
C1782 C 0.98014 0.63537 0.05216 0.0
H1783 H 0.94582 0.63572 0.98508 0.0
H1784 H 0.9481 0.63087 0.01234 0.0
H1785 H 0.94305 0.65642 0.00323 0.0
H1786 H 0.95938 0.67902 0.03185 0.0
H1787 H 0.94378 0.68057 0.06614 0.0
H1788 H 0.18487 0.45194 0.56975 0.0
H1789 H 0.18449 0.4692 0.53621 0.0
H1790 H 0.12225 0.48932 0.54724 0.0
H1791 H 0.12258 0.47192 0.58077 0.0
H1792 H 0.15641 0.46203 0.5031 0.0
H1793 H 0.15389 0.54256 0.53168 0.0
H1794 H 0.16139 0.5212 0.54777 0.0
H1795 H 0.13472 0.52562 0.54214 0.0
C1796 C 0.17112 0.46 0.56492 0.0
C1797 C 0.15372 0.46062 0.57764 0.0
C1798 C 0.17093 0.46987 0.54586 0.0
C1799 C 0.15341 0.48066 0.5394 0.0
C1800 C 0.13601 0.48131 0.55213 0.0
H1801 H 0.12498 0.52231 0.41562 0.0
H1802 H 0.12445 0.50585 0.44958 0.0
C1803 C 0.13619 0.47138 0.57117 0.0
C1804 C 0.15325 0.49083 0.5191 0.0
H1805 H 0.15037 0.53773 0.49574 0.0
C1806 C 0.15509 0.47857 0.50145 0.0
C1807 C 0.15172 0.51242 0.51711 0.0
C1808 C 0.15048 0.5263 0.53565 0.0
C1809 C 0.15522 0.48735 0.48176 0.0
C1810 C 0.15329 0.5089 0.47976 0.0
C1811 C 0.15167 0.52119 0.49741 0.0
C1812 C 0.15337 0.519 0.45943 0.0
C1813 C 0.15778 0.47358 0.46327 0.0
C1814 C 0.16963 0.53207 0.45398 0.0
C1815 C 0.16999 0.54136 0.43464 0.0
C1816 C 0.154 0.53785 0.42058 0.0
C1817 C 0.13759 0.52502 0.42617 0.0
C1818 C 0.13727 0.51565 0.44549 0.0
H1819 H 0.16333 0.45802 0.46761 0.0
H1820 H 0.14273 0.47187 0.45542 0.0
H1821 H 0.16876 0.48042 0.45213 0.0
H1822 H 0.18217 0.53482 0.46459 0.0
H1823 H 0.18288 0.55108 0.43056 0.0
H1824 H 0.93122 0.94578 0.31574 0.0
H1825 H 0.96542 0.96151 0.31711 0.0
H1826 H 0.94851 0.99343 0.37276 0.0
H1827 H 0.91457 0.97706 0.37184 0.0
H1828 H 0.97516 0.00235 0.31587 0.0
H1829 H 0.00305 0.96762 0.38869 0.0
H1830 H 0.98059 0.95826 0.37535 0.0
H1831 H 0.97899 0.98091 0.39112 0.0
C1832 C 0.93496 0.95592 0.32841 0.0
C1833 C 0.9204 0.96016 0.34375 0.0
C1834 C 0.95441 0.96497 0.32912 0.0
C1835 C 0.9596 0.9784 0.34519 0.0
C1836 C 0.94498 0.98277 0.36046 0.0
H1837 H 0.06738 0.05445 0.36786 0.0
H1838 H 0.03304 0.03863 0.36866 0.0
C1839 C 0.92556 0.97362 0.35981 0.0
C1840 C 0.98006 0.98836 0.34549 0.0
H1841 H 0.02376 0.99393 0.37408 0.0
C1842 C 0.98582 0.00044 0.32856 0.0
C1843 C 0.9939 0.98586 0.3621 0.0
C1844 C 0.98895 0.97231 0.38027 0.0
C1845 C 0.005 0.01024 0.32785 0.0
C1846 C 0.01879 0.00773 0.34443 0.0
C1847 C 0.01304 0.99581 0.36144 0.0
C1848 C 0.03947 0.01708 0.34415 0.0
C1849 C 0.01034 0.02338 0.3095 0.0
C1850 C 0.05438 0.00996 0.33029 0.0
C1851 C 0.07388 0.0189 0.32987 0.0
C1852 C 0.07869 0.03509 0.34327 0.0
C1853 C 0.06385 0.04207 0.35729 0.0
C1854 C 0.04437 0.03304 0.35779 0.0
H1855 H 0.99659 0.02706 0.30005 0.0
H1856 H 0.01768 0.03797 0.31447 0.0
H1857 H 0.02148 0.015 0.29965 0.0
H1858 H 0.0509 0.99749 0.31981 0.0
H1859 H 0.08514 0.01333 0.31893 0.0
H1860 H 0.54896 0.43102 0.18201 0.0
H1861 H 0.533 0.46522 0.18023 0.0
H1862 H 0.50521 0.44934 0.1222 0.0
H1863 H 0.52142 0.41523 0.12373 0.0
H1864 H 0.53436 0.49396 0.1359 0.0
H1865 H 0.46058 0.47048 0.17275 0.0
H1866 H 0.48461 0.45866 0.18014 0.0
H1867 H 0.47379 0.45329 0.1554 0.0
C1868 C 0.53958 0.43494 0.16882 0.0
C1869 C 0.53636 0.42062 0.153 0.0
C1870 C 0.53047 0.45437 0.16785 0.0
C1871 C 0.51799 0.45964 0.1511 0.0
C1872 C 0.51481 0.44542 0.13524 0.0
H1873 H 0.43763 0.56451 0.13214 0.0
H1874 H 0.45439 0.53073 0.13095 0.0
C1875 C 0.52396 0.42601 0.13617 0.0
C1876 C 0.50809 0.47999 0.15032 0.0
H1877 H 0.46408 0.50525 0.16339 0.0
C1878 C 0.51899 0.49652 0.14186 0.0
C1879 C 0.48804 0.48303 0.15799 0.0
C1880 C 0.47592 0.46551 0.16713 0.0
C1881 C 0.51028 0.51623 0.14091 0.0
C1882 C 0.49033 0.51943 0.14902 0.0
C1883 C 0.47938 0.50276 0.15725 0.0
C1884 C 0.48058 0.53999 0.14928 0.0
C1885 C 0.52235 0.53336 0.13096 0.0
C1886 C 0.48967 0.55627 0.16013 0.0
C1887 C 0.48014 0.57551 0.16079 0.0
C1888 C 0.46131 0.57867 0.15076 0.0
C1889 C 0.45215 0.56236 0.14003 0.0
C1890 C 0.4617 0.54314 0.13931 0.0
H1891 H 0.53452 0.5273 0.12062 0.0
H1892 H 0.51213 0.54366 0.12196 0.0
H1893 H 0.52993 0.54265 0.14309 0.0
H1894 H 0.50397 0.55402 0.16836 0.0
H1895 H 0.48729 0.5878 0.16946 0.0
H1896 H 0.06433 0.93798 0.63569 0.0
H1897 H 0.03035 0.95417 0.63472 0.0
H1898 H 0.05418 0.00622 0.66827 0.0
H1899 H 0.08787 0.98953 0.67021 0.0
H1900 H 0.01844 0.99367 0.68381 0.0
H1901 H 0.01094 0.00104 0.5993 0.0
H1902 H 0.0156 0.97507 0.60732 0.0
H1903 H 0.03491 0.99442 0.6116 0.0
C1904 C 0.06224 0.95284 0.64292 0.0
C1905 C 0.07865 0.96256 0.653 0.0
C1906 C 0.04293 0.96219 0.64212 0.0
C1907 C 0.03983 0.98159 0.65107 0.0
C1908 C 0.05627 0.99132 0.66111 0.0
H1909 H 0.9324 0.05904 0.63278 0.0
H1910 H 0.96689 0.04381 0.63245 0.0
C1911 C 0.07551 0.98187 0.6621 0.0
C1912 C 0.01926 0.99136 0.65079 0.0
H1913 H 0.98054 0.00698 0.61898 0.0
C1914 C 0.0102 0.99669 0.66963 0.0
C1915 C 0.00866 0.99555 0.63225 0.0
C1916 C 0.01811 0.99142 0.61147 0.0
C1917 C 0.99069 0.00582 0.67049 0.0
C1918 C 0.9797 0.00915 0.65201 0.0
C1919 C 0.98889 0.00415 0.63314 0.0
C1920 C 0.95876 0.01808 0.65194 0.0
C1921 C 0.98225 0.01215 0.69116 0.0
C1922 C 0.9427 0.00847 0.6627 0.0
C1923 C 0.92315 0.01732 0.66315 0.0
C1924 C 0.91927 0.03573 0.65259 0.0
C1925 C 0.93515 0.04499 0.64129 0.0
C1926 C 0.95476 0.03625 0.641 0.0
H1927 H 0.9947 0.01415 0.70269 0.0
H1928 H 0.97347 0.02675 0.69005 0.0
H1929 H 0.97175 -0.0 0.6969 0.0
H1930 H 0.94532 0.99419 0.67083 0.0
H1931 H 0.91115 0.00993 0.67202 0.0
H1932 H 0.51364 0.58232 0.82173 0.0
H1933 H 0.49771 0.54811 0.82336 0.0
H1934 H 0.54121 0.52998 0.86999 0.0
H1935 H 0.55718 0.56423 0.86841 0.0
H1936 H 0.52537 0.50618 0.82055 0.0
H1937 H 0.47626 0.51953 0.88956 0.0
H1938 H 0.48295 0.54024 0.87229 0.0
H1939 H 0.50213 0.52954 0.88889 0.0
C1940 C 0.51968 0.57102 0.83237 0.0
C1941 C 0.53657 0.57572 0.84494 0.0
C1942 C 0.51066 0.55157 0.83325 0.0
C1943 C 0.51832 0.5367 0.84682 0.0
C1944 C 0.53513 0.54138 0.85948 0.0
H1945 H 0.47293 0.41426 0.87616 0.0
H1946 H 0.49078 0.44753 0.87663 0.0
C1947 C 0.54423 0.56081 0.85852 0.0
C1948 C 0.50892 0.51612 0.84746 0.0
H1949 H 0.47429 0.48696 0.87388 0.0
C1950 C 0.51423 0.50189 0.8322 0.0
C1951 C 0.49458 0.5107 0.8628 0.0
C1952 C 0.48849 0.52573 0.87937 0.0
C1953 C 0.50544 0.48221 0.83184 0.0
C1954 C 0.49064 0.47692 0.84687 0.0
C1955 C 0.48559 0.49111 0.86234 0.0
C1956 C 0.47994 0.45687 0.84659 0.0
C1957 C 0.51227 0.46718 0.81553 0.0
C1958 C 0.46775 0.45129 0.82968 0.0
C1959 C 0.45771 0.43234 0.82936 0.0
C1960 C 0.45956 0.41877 0.84602 0.0
C1961 C 0.47148 0.42446 0.86308 0.0
C1962 C 0.48157 0.44342 0.86338 0.0
H1963 H 0.52751 0.47141 0.80906 0.0
H1964 H 0.51319 0.45132 0.82178 0.0
H1965 H 0.50096 0.46724 0.80276 0.0
H1966 H 0.46596 0.46163 0.81675 0.0
H1967 H 0.44863 0.4282 0.81603 0.0
H1968 H 0.31989 0.08305 0.01358 0.0
H1969 H 0.32098 0.04878 0.9979 0.0
H1970 H 0.36964 0.03129 0.0395 0.0
H1971 H 0.3683 0.0655 0.05539 0.0
H1972 H 0.35276 0.02913 0.97838 0.0
H1973 H 0.32835 0.98512 0.04736 0.0
H1974 H 0.32609 0.01272 0.04572 0.0
H1975 H 0.3505 0.00107 0.05141 0.0
C1976 C 0.33079 0.07183 0.01932 0.0
C1977 C 0.34392 0.07669 0.03571 0.0
C1978 C 0.3314 0.05232 0.01041 0.0
C1979 C 0.34515 0.0374 0.01777 0.0
C1980 C 0.35857 0.04241 0.03393 0.0
H1981 H 0.37006 0.91191 0.97791 0.0
H1982 H 0.37188 0.94596 0.99415 0.0
C1983 C 0.35787 0.0619 0.04292 0.0
C1984 C 0.34561 0.01675 0.00825 0.0
H1985 H 0.33887 0.96568 0.01838 0.0
C1986 C 0.34969 0.01526 0.98711 0.0
C1987 C 0.34161 -0.00131 0.01971 0.0
C1988 C 0.3362 -0.00059 0.04227 0.0
C1989 C 0.34994 0.99616 0.97712 0.0
C1990 C 0.34587 0.97817 0.98856 0.0
C1991 C 0.34205 0.97958 0.00972 0.0
C1992 C 0.34489 0.95776 0.97869 0.0
C1993 C 0.3547 0.99531 0.95443 0.0
C1994 C 0.32899 0.95318 0.96488 0.0
C1995 C 0.32782 0.93377 0.95581 0.0
C1996 C 0.34255 0.91869 0.96041 0.0
C1997 C 0.35845 0.92328 0.97428 0.0
C1998 C 0.35954 0.94267 0.98346 0.0
H1999 H 0.36178 0.00981 0.94885 0.0
H2000 H 0.36524 0.98233 0.95095 0.0
H2001 H 0.34022 0.99278 0.94576 0.0
H2002 H 0.31737 0.96457 0.96129 0.0
H2003 H 0.31527 0.93047 0.94537 0.0
H2004 H 0.41881 0.11981 0.52988 0.0
H2005 H 0.45276 0.11868 0.51328 0.0
H2006 H 0.46018 0.18368 0.52412 0.0
H2007 H 0.42624 0.18481 0.54068 0.0
H2008 H 0.46902 0.16842 0.48203 0.0
H2009 H 0.50941 0.12595 0.54444 0.0
H2010 H 0.48533 0.11543 0.53575 0.0
H2011 H 0.48569 0.13977 0.54871 0.0
C2012 C 0.42778 0.13379 0.52868 0.0
C2013 C 0.42019 0.15236 0.53658 0.0
C2014 C 0.44709 0.13313 0.51932 0.0
C2015 C 0.45896 0.15107 0.5177 0.0
C2016 C 0.45123 0.16969 0.52535 0.0
H2017 H 0.58641 0.17015 0.48635 0.0
H2018 H 0.55236 0.1693 0.50249 0.0
C2019 C 0.43198 0.17032 0.53481 0.0
C2020 C 0.47938 0.15049 0.50785 0.0
H2021 H 0.52838 0.13288 0.51424 0.0
C2022 C 0.48202 0.16062 0.489 0.0
C2023 C 0.49623 0.14044 0.51716 0.0
C2024 C 0.4942 0.12987 0.53771 0.0
C2025 C 0.50117 0.16085 0.4791 0.0
C2026 C 0.51797 0.15059 0.4883 0.0
C2027 C 0.51537 0.14059 0.50722 0.0
C2028 C 0.53855 0.15057 0.47874 0.0
C2029 C 0.50342 0.17235 0.45908 0.0
C2030 C 0.54202 0.14006 0.46023 0.0
C2031 C 0.56146 0.14037 0.45112 0.0
C2032 C 0.57765 0.15122 0.46039 0.0
C2033 C 0.57419 0.16153 0.47903 0.0
C2034 C 0.55479 0.16112 0.48819 0.0
H2035 H 0.4901 0.1826 0.45604 0.0
H2036 H 0.51769 0.18173 0.45912 0.0
H2037 H 0.50457 0.16114 0.44626 0.0
H2038 H 0.5297 0.1316 0.45288 0.0
H2039 H 0.56387 0.13212 0.43686 0.0
H2040 H 0.62852 0.06668 0.94082 0.0
H2041 H 0.62643 0.03292 0.95762 0.0
H2042 H 0.67452 0.05093 -0.00035 0.0
H2043 H 0.67633 0.08473 0.98309 0.0
H2044 H 0.65594 0.00349 0.96161 0.0
H2045 H 0.63087 0.02992 0.03864 0.0
H2046 H 0.63035 0.04642 0.01634 0.0
H2047 H 0.65401 0.04225 0.03009 0.0
C2048 C 0.63857 0.06334 0.95369 0.0
C2049 C 0.65252 0.07815 0.96081 0.0
C2050 C 0.63735 0.04416 0.96327 0.0
C2051 C 0.65005 0.03957 0.98011 0.0
C2052 C 0.66419 0.05434 0.98704 0.0
H2053 H 0.67986 0.93135 0.05032 0.0
H2054 H 0.67818 0.96543 0.03426 0.0
C2055 C 0.66531 0.07355 0.97754 0.0
C2056 C 0.64905 0.0191 0.99 0.0
H2057 H 0.64242 0.99512 0.03623 0.0
C2058 C 0.65278 0.00163 0.97788 0.0
C2059 C 0.64488 0.01675 0.01123 0.0
C2060 C 0.6396 0.03482 0.0248 0.0
C2061 C 0.65302 0.9819 0.98656 0.0
C2062 C 0.64932 0.97964 0.00783 0.0
C2063 C 0.64534 0.99702 0.01992 0.0
C2064 C 0.6499 0.95931 0.01787 0.0
C2065 C 0.6577 0.96361 0.97308 0.0
C2066 C 0.63439 0.94483 0.01412 0.0
C2067 C 0.63521 0.92549 0.02343 0.0
C2068 C 0.65158 0.92041 0.03655 0.0
C2069 C 0.66699 0.93502 0.04042 0.0
C2070 C 0.66609 0.95439 0.03122 0.0
H2071 H 0.66335 0.96826 0.95765 0.0
H2072 H 0.66942 0.95362 0.98046 0.0
H2073 H 0.64352 0.95434 0.97103 0.0
H2074 H 0.62167 0.9485 0.00401 0.0
H2075 H 0.62305 0.91452 0.02042 0.0
H2076 H 0.40909 0.82907 0.48878 0.0
H2077 H 0.44274 0.83037 0.50562 0.0
H2078 H 0.46756 0.86304 0.45349 0.0
H2079 H 0.43369 0.86251 0.43702 0.0
H2080 H 0.47872 0.81393 0.4924 0.0
H2081 H 0.48682 0.89834 0.50114 0.0
H2082 H 0.46268 0.88626 0.49472 0.0
H2083 H 0.48179 0.89047 0.47518 0.0
C2084 C 0.42165 0.83688 0.48113 0.0
C2085 C 0.41882 0.84587 0.46172 0.0
C2086 C 0.44087 0.83748 0.49067 0.0
C2087 C 0.45757 0.84708 0.48095 0.0
C2088 C 0.45478 0.85596 0.46148 0.0
H2089 H 0.58627 0.82596 0.50986 0.0
H2090 H 0.55223 0.82731 0.49374 0.0
C2091 C 0.43552 0.85546 0.45199 0.0
C2092 C 0.47809 0.847 0.49083 0.0
H2093 H 0.51678 0.87825 0.50755 0.0
C2094 C 0.48701 0.82799 0.4958 0.0
C2095 C 0.48875 0.86538 0.49547 0.0
C2096 C 0.47946 0.88627 0.49155 0.0
C2097 C 0.50646 0.82684 0.50504 0.0
C2098 C 0.51745 0.84518 0.50897 0.0
C2099 C 0.5084 0.86421 0.50429 0.0
C2100 C 0.53823 0.84496 0.51825 0.0
C2101 C 0.51486 0.80599 0.51085 0.0
C2102 C 0.54181 0.85506 0.53698 0.0
C2103 C 0.56129 0.85459 0.546 0.0
C2104 C 0.57748 0.844 0.53643 0.0
C2105 C 0.57401 0.83425 0.5175 0.0
C2106 C 0.55455 0.83482 0.50842 0.0
H2107 H 0.50246 0.79431 0.51207 0.0
H2108 H 0.52577 0.80079 0.49881 0.0
H2109 H 0.52322 0.80665 0.52572 0.0
H2110 H 0.52946 0.86312 0.54473 0.0
H2111 H 0.56371 0.86247 0.56046 0.0
H2112 H 0.10841 0.27829 0.17511 0.0
H2113 H 0.11236 0.249 0.19833 0.0
H2114 H 0.04785 0.25205 0.21339 0.0
H2115 H 0.04382 0.28156 0.19062 0.0
H2116 H 0.07184 0.25133 0.2473 0.0
H2117 H 0.0954 0.18914 0.19404 0.0
H2118 H 0.11107 0.21174 0.1919 0.0
H2119 H 0.08427 0.21298 0.18516 0.0
C2120 C 0.09499 0.27254 0.18311 0.0
C2121 C 0.07583 0.28235 0.18109 0.0
C2122 C 0.09725 0.25571 0.19629 0.0
C2123 C 0.08035 0.24823 0.20743 0.0
C2124 C 0.06108 0.25757 0.20491 0.0
H2125 H 0.08308 0.1379 0.28408 0.0
H2126 H 0.07423 0.16364 0.25793 0.0
C2127 C 0.05882 0.27444 0.19187 0.0
C2128 C 0.08305 0.23182 0.22298 0.0
H2129 H 0.10049 0.18282 0.22992 0.0
C2130 C 0.07793 0.23628 0.24347 0.0
C2131 C 0.09078 0.21215 0.21791 0.0
C2132 C 0.09551 0.20611 0.19602 0.0
C2133 C 0.08083 0.22177 0.25913 0.0
C2134 C 0.08947 0.20245 0.25422 0.0
C2135 C 0.09405 0.19775 0.23365 0.0
C2136 C 0.09435 0.18709 0.27027 0.0
C2137 C 0.07454 0.22725 0.28078 0.0
C2138 C 0.10857 0.19179 0.2858 0.0
C2139 C 0.11368 0.17712 0.3006 0.0
C2140 C 0.10492 0.15743 0.29989 0.0
C2141 C 0.09046 0.15281 0.28456 0.0
C2142 C 0.0853 0.16751 0.26976 0.0
H2143 H 0.06296 0.23981 0.28097 0.0
H2144 H 0.06806 0.21372 0.28893 0.0
H2145 H 0.08823 0.23263 0.28941 0.0
H2146 H 0.11598 0.20669 0.28626 0.0
H2147 H 0.1249 0.18099 0.3123 0.0
H2148 H 0.79112 0.44844 0.29857 0.0
H2149 H 0.76124 0.44465 0.27623 0.0
H2150 H 0.74622 0.38719 0.30565 0.0
H2151 H 0.77614 0.39079 0.32823 0.0
H2152 H 0.7557 0.40953 0.24935 0.0
H2153 H 0.69101 0.42038 0.30421 0.0
H2154 H 0.71673 0.42947 0.30944 0.0
H2155 H 0.71078 0.40265 0.31194 0.0
C2156 C 0.78136 0.43509 0.30053 0.0
C2157 C 0.78607 0.41987 0.31517 0.0
C2158 C 0.7643 0.43298 0.28772 0.0
C2159 C 0.75151 0.41575 0.28943 0.0
C2160 C 0.75581 0.40074 0.30432 0.0
H2161 H 0.64953 0.36702 0.2209 0.0
H2162 H 0.6757 0.37544 0.24639 0.0
C2163 C 0.77295 0.40278 0.31712 0.0
C2164 C 0.73459 0.4128 0.2746 0.0
H2165 H 0.68241 0.40963 0.27048 0.0
C2166 C 0.73965 0.40967 0.25389 0.0
C2167 C 0.71376 0.4129 0.28072 0.0
C2168 C 0.70762 0.41667 0.30275 0.0
C2169 C 0.72439 0.40618 0.23909 0.0
C2170 C 0.7035 0.40638 0.24514 0.0
C2171 C 0.69844 0.40962 0.26588 0.0
C2172 C 0.68673 0.40238 0.2303 0.0
C2173 C 0.73084 0.40163 0.21726 0.0
C2174 C 0.68398 0.41499 0.213 0.0
C2175 C 0.66897 0.41022 0.19838 0.0
C2176 C 0.6562 0.39304 0.20111 0.0
C2177 C 0.65866 0.38074 0.2187 0.0
C2178 C 0.67374 0.38542 0.2332 0.0
H2179 H 0.74721 0.39683 0.21635 0.0
H2180 H 0.72118 0.38933 0.21044 0.0
H2181 H 0.72899 0.41572 0.20781 0.0
H2182 H 0.69361 0.42836 0.21067 0.0
H2183 H 0.66739 0.41988 0.18491 0.0
H2184 H 0.92028 0.82909 0.31423 0.0
H2185 H 0.93057 0.80367 0.2883 0.0
H2186 H 0.88055 0.82321 0.24937 0.0
H2187 H 0.87036 0.8485 0.27501 0.0
H2188 H 0.90788 0.77182 0.27472 0.0
H2189 H 0.92728 0.82183 0.20865 0.0
H2190 H 0.92447 0.83168 0.23445 0.0
H2191 H 0.90216 0.8271 0.21871 0.0
C2192 C 0.91175 0.82815 0.29995 0.0
C2193 C 0.8949 0.84116 0.29636 0.0
C2194 C 0.91763 0.81368 0.28518 0.0
C2195 C 0.90664 0.81191 0.26668 0.0
C2196 C 0.88973 0.82482 0.26317 0.0
H2197 H 0.8932 0.72114 0.17166 0.0
H2198 H 0.89049 0.7509 0.19455 0.0
C2199 C 0.88395 0.83934 0.27784 0.0
C2200 C 0.91165 0.79543 0.2518 0.0
H2201 H 0.9213 0.78619 0.201 0.0
C2202 C 0.91111 0.77498 0.25867 0.0
C2203 C 0.91579 0.7996 0.23084 0.0
C2204 C 0.91767 0.82126 0.22276 0.0
C2205 C 0.91395 0.75856 0.24502 0.0
C2206 C 0.91752 0.76274 0.22401 0.0
C2207 C 0.91842 0.78313 0.21714 0.0
C2208 C 0.92003 0.74595 0.20898 0.0
C2209 C 0.91254 0.73681 0.25299 0.0
C2210 C 0.93775 0.73373 0.20928 0.0
C2211 C 0.93941 0.71681 0.19621 0.0
C2212 C 0.92332 0.71179 0.18262 0.0
C2213 C 0.90586 0.72455 0.18191 0.0
C2214 C 0.90427 0.74155 0.19496 0.0
H2215 H 0.90655 0.73618 0.26897 0.0
H2216 H 0.90241 0.72744 0.24295 0.0
H2217 H 0.92806 0.72972 0.2528 0.0
H2218 H 0.95012 0.73705 0.21994 0.0
H2219 H 0.95311 0.70739 0.19713 0.0
H2220 H 0.31329 0.60169 0.17472 0.0
H2221 H 0.28628 0.59327 0.19967 0.0
H2222 H 0.33179 0.58966 0.24779 0.0
H2223 H 0.35885 0.59722 0.22277 0.0
H2224 H 0.303 0.55915 0.25068 0.0
H2225 H 0.2656 0.63531 0.24129 0.0
H2226 H 0.26794 0.62102 0.21779 0.0
H2227 H 0.29069 0.62964 0.23092 0.0
C2228 C 0.31748 0.59891 0.1906 0.0
C2229 C 0.33799 0.60078 0.19703 0.0
C2230 C 0.30207 0.59428 0.20483 0.0
C2231 C 0.307 0.59146 0.22567 0.0
C2232 C 0.32764 0.59211 0.23184 0.0
H2233 H 0.22091 0.60344 0.32672 0.0
H2234 H 0.25014 0.60684 0.30338 0.0
C2235 C 0.34303 0.59663 0.21761 0.0
C2236 C 0.29066 0.58838 0.24118 0.0
H2237 H 0.24826 0.61103 0.26214 0.0
C2238 C 0.29103 0.57048 0.25323 0.0
C2239 C 0.27534 0.6034 0.24473 0.0
C2240 C 0.27491 0.62352 0.23316 0.0
C2241 C 0.27624 0.56705 0.26856 0.0
C2242 C 0.26048 0.58173 0.27158 0.0
C2243 C 0.2603 0.59974 0.25971 0.0
C2244 C 0.24382 0.5787 0.28678 0.0
C2245 C 0.27789 0.54793 0.28161 0.0
C2246 C 0.23065 0.56171 0.28524 0.0
C2247 C 0.21406 0.55962 0.29868 0.0
C2248 C 0.21014 0.57466 0.31373 0.0
C2249 C 0.22352 0.59155 0.31538 0.0
C2250 C 0.2402 0.59354 0.30202 0.0
H2251 H 0.29379 0.5417 0.28163 0.0
H2252 H 0.27321 0.55103 0.29773 0.0
H2253 H 0.26759 0.53591 0.27526 0.0
H2254 H 0.23286 0.55034 0.27328 0.0
H2255 H 0.204 0.54648 0.29685 0.0
H2256 H 0.10364 0.7159 0.82125 0.0
H2257 H 0.10796 0.74504 0.79801 0.0
H2258 H 0.04615 0.7366 0.77557 0.0
H2259 H 0.04147 0.7077 0.79909 0.0
H2260 H 0.10509 0.74265 0.75536 0.0
H2261 H 0.04861 0.79855 0.78679 0.0
H2262 H 0.05755 0.7766 0.80126 0.0
H2263 H 0.03846 0.7734 0.78156 0.0
C2264 C 0.0908 0.72046 0.81169 0.0
C2265 C 0.07217 0.70951 0.81213 0.0
C2266 C 0.09334 0.73706 0.79835 0.0
C2267 C 0.0773 0.74309 0.78526 0.0
C2268 C 0.05858 0.73244 0.78585 0.0
H2269 H 0.07405 0.83327 0.68559 0.0
H2270 H 0.06523 0.80549 0.70968 0.0
C2271 C 0.056 0.71584 0.79922 0.0
C2272 C 0.08073 0.75961 0.77004 0.0
H2273 H 0.06449 0.80726 0.75513 0.0
C2274 C 0.09625 0.7568 0.75533 0.0
C2275 C 0.06902 0.77793 0.76998 0.0
C2276 C 0.05258 0.78196 0.78583 0.0
C2277 C 0.10044 0.77188 0.74055 0.0
C2278 C 0.08898 0.79033 0.74068 0.0
C2279 C 0.0732 0.79303 0.75513 0.0
C2280 C 0.09387 0.80734 0.7265 0.0
C2281 C 0.11705 0.76794 0.72483 0.0
C2282 C 0.11274 0.81757 0.72821 0.0
C2283 C 0.11775 0.83333 0.71459 0.0
C2284 C 0.10386 0.83929 0.69917 0.0
C2285 C 0.08493 0.82904 0.69747 0.0
C2286 C 0.07988 0.81327 0.71119 0.0
H2287 H 0.12083 0.75132 0.72361 0.0
H2288 H 0.11234 0.77365 0.70944 0.0
H2289 H 0.13122 0.77625 0.72943 0.0
H2290 H 0.12368 0.81323 0.74 0.0
H2291 H 0.13272 0.84048 0.71586 0.0
H2292 H 0.31241 0.38129 0.81437 0.0
H2293 H 0.2874 0.38925 0.78748 0.0
H2294 H 0.33406 0.42209 0.75366 0.0
H2295 H 0.3587 0.4155 0.78137 0.0
H2296 H 0.29852 0.44161 0.7515 0.0
H2297 H 0.28518 0.35961 0.73352 0.0
H2298 H 0.27975 0.36512 0.75996 0.0
H2299 H 0.30558 0.36796 0.75034 0.0
C2300 C 0.31727 0.39034 0.80127 0.0
C2301 C 0.33772 0.397 0.79946 0.0
C2302 C 0.30306 0.39466 0.7858 0.0
C2303 C 0.3091 0.4055 0.76815 0.0
C2304 C 0.32921 0.41323 0.7669 0.0
H2305 H 0.2281 0.40134 0.66098 0.0
H2306 H 0.25848 0.39863 0.683 0.0
C2307 C 0.34337 0.40916 0.78255 0.0
C2308 C 0.29439 0.40875 0.75107 0.0
H2309 H 0.26062 0.38346 0.71994 0.0
C2310 C 0.29039 0.42889 0.74443 0.0
C2311 C 0.28418 0.39211 0.74145 0.0
C2312 C 0.28906 0.36999 0.74653 0.0
C2313 C 0.2758 0.4329 0.72905 0.0
C2314 C 0.26447 0.41636 0.72057 0.0
C2315 C 0.26911 0.39617 0.72661 0.0
C2316 C 0.24706 0.41958 0.70621 0.0
C2317 C 0.27281 0.4548 0.722 0.0
C2318 C 0.23058 0.4323 0.71188 0.0
C2319 C 0.21337 0.43407 0.69923 0.0
C2320 C 0.21204 0.42274 0.68087 0.0
C2321 C 0.2286 0.41014 0.67509 0.0
C2322 C 0.24599 0.40862 0.68763 0.0
H2323 H 0.28708 0.46395 0.7241 0.0
H2324 H 0.26822 0.45554 0.70558 0.0
H2325 H 0.2606 0.46211 0.73141 0.0
H2326 H 0.23072 0.4404 0.72643 0.0
H2327 H 0.20077 0.44375 0.70424 0.0
H2328 H 0.89458 0.27735 0.82283 0.0
H2329 H 0.89147 0.24792 0.79974 0.0
H2330 H 0.95152 0.26079 0.77483 0.0
H2331 H 0.95488 0.29024 0.7979 0.0
H2332 H 0.91937 0.25629 0.7452 0.0
H2333 H 0.92134 0.19158 0.80084 0.0
H2334 H 0.9036 0.21179 0.80721 0.0
H2335 H 0.93073 0.21697 0.80704 0.0
C2336 C 0.90729 0.27376 0.81272 0.0
C2337 C 0.925 0.28614 0.81229 0.0
C2338 C 0.90549 0.25689 0.79956 0.0
C2339 C 0.92137 0.2521 0.78579 0.0
C2340 C 0.93917 0.26422 0.78547 0.0
H2341 H 0.92267 0.16448 0.68313 0.0
H2342 H 0.93296 0.19095 0.70801 0.0
C2343 C 0.94103 0.28104 0.79867 0.0
C2344 C 0.91876 0.23529 0.77076 0.0
H2345 H 0.91049 0.18368 0.76678 0.0
C2346 C 0.91766 0.24036 0.74983 0.0
C2347 C 0.91651 0.21461 0.77697 0.0
C2348 C 0.91827 0.20831 0.79922 0.0
C2349 C 0.91354 0.22534 0.73493 0.0
C2350 C 0.91093 0.20467 0.74116 0.0
C2351 C 0.91252 0.19955 0.76207 0.0
C2352 C 0.90534 0.18831 0.7264 0.0
C2353 C 0.91116 0.23187 0.71278 0.0
C2354 C 0.88667 0.17782 0.72879 0.0
C2355 C 0.88091 0.16266 0.7148 0.0
C2356 C 0.89382 0.15759 0.69825 0.0
C2357 C 0.91251 0.16809 0.69583 0.0
C2358 C 0.91834 0.18322 0.70994 0.0
H2359 H 0.90889 0.24874 0.71132 0.0
H2360 H 0.92527 0.2277 0.70416 0.0
H2361 H 0.89793 0.22393 0.70548 0.0
H2362 H 0.87636 0.18164 0.74131 0.0
H2363 H 0.86611 0.1553 0.71667 0.0
H2364 H 0.66771 0.57584 0.81105 0.0
H2365 H 0.69376 0.56713 0.7851 0.0
H2366 H 0.67426 0.61867 0.74824 0.0
H2367 H 0.64885 0.62778 0.77419 0.0
H2368 H 0.68892 0.55923 0.7407 0.0
H2369 H 0.73663 0.62777 0.75867 0.0
H2370 H 0.71696 0.61832 0.77582 0.0
H2371 H 0.71002 0.63318 0.75359 0.0
C2372 C 0.66892 0.58517 0.79731 0.0
C2373 C 0.65595 0.60221 0.79443 0.0
C2374 C 0.68371 0.58016 0.78253 0.0
C2375 C 0.6859 0.59232 0.76486 0.0
C2376 C 0.67279 0.60914 0.76182 0.0
H2377 H 0.77182 0.60007 0.66418 0.0
H2378 H 0.74211 0.60351 0.68683 0.0
C2379 C 0.65804 0.61413 0.77654 0.0
C2380 C 0.70239 0.58803 0.74986 0.0
H2381 H 0.74596 0.60856 0.7292 0.0
C2382 C 0.70147 0.56992 0.7382 0.0
C2383 C 0.71868 0.60206 0.74674 0.0
C2384 C 0.72082 0.62135 0.75947 0.0
C2385 C 0.71626 0.56569 0.72304 0.0
C2386 C 0.73244 0.57984 0.71979 0.0
C2387 C 0.73341 0.59785 0.73162 0.0
C2388 C 0.74891 0.57621 0.70457 0.0
C2389 C 0.71422 0.54639 0.71035 0.0
C2390 C 0.7624 0.55956 0.70689 0.0
C2391 C 0.77942 0.55755 0.69397 0.0
C2392 C 0.78337 0.57228 0.6786 0.0
C2393 C 0.76937 0.58853 0.67588 0.0
C2394 C 0.75235 0.59051 0.6888 0.0
H2395 H 0.69837 0.54006 0.71098 0.0
H2396 H 0.71832 0.54934 0.69404 0.0
H2397 H 0.72488 0.53454 0.71643 0.0
H2398 H 0.76024 0.54857 0.71921 0.0
H2399 H 0.78988 0.54485 0.69655 0.0
H2400 H 0.19187 0.04093 0.28244 0.0
H2401 H 0.21508 0.04505 0.25322 0.0
H2402 H 0.20023 0.1096 0.25029 0.0
H2403 H 0.17665 0.1056 0.27927 0.0
H2404 H 0.20307 0.09137 0.21183 0.0
H2405 H 0.27094 0.07271 0.26022 0.0
H2406 H 0.25149 0.05314 0.2599 0.0
H2407 H 0.2459 0.07783 0.27098 0.0
C2408 C 0.19337 0.05598 0.27547 0.0
C2409 C 0.18257 0.073 0.28333 0.0
C2410 C 0.20672 0.05831 0.25883 0.0
C2411 C 0.2097 0.07771 0.24994 0.0
C2412 C 0.19821 0.09452 0.25706 0.0
H2413 H 0.31278 0.12327 0.18111 0.0
H2414 H 0.28671 0.11452 0.20683 0.0
C2415 C 0.18474 0.09219 0.27361 0.0
C2416 C 0.22541 0.08072 0.23379 0.0
H2417 H 0.277 0.07768 0.22475 0.0
C2418 C 0.21923 0.08833 0.21458 0.0
C2419 C 0.24651 0.07701 0.23762 0.0
C2420 C 0.25419 0.06991 0.25834 0.0
C2421 C 0.23363 0.09235 0.19903 0.0
C2422 C 0.25467 0.08825 0.20273 0.0
C2423 C 0.26082 0.0806 0.22193 0.0
C2424 C 0.27071 0.09283 0.18729 0.0
C2425 C 0.22627 0.10156 0.17904 0.0
C2426 C 0.27064 0.08313 0.16802 0.0
C2427 C 0.28548 0.08817 0.15333 0.0
C2428 C 0.30058 0.10291 0.15777 0.0
C2429 C 0.30116 0.11195 0.17733 0.0
C2430 C 0.28629 0.107 0.19197 0.0
H2431 H 0.21064 0.10829 0.18051 0.0
H2432 H 0.23696 0.11372 0.17363 0.0
H2433 H 0.22565 0.08936 0.16714 0.0
H2434 H 0.2591 0.0717 0.16434 0.0
H2435 H 0.28518 0.08053 0.13853 0.0
H2436 H 0.57526 0.18409 0.33047 0.0
H2437 H 0.56665 0.20873 0.3031 0.0
H2438 H 0.62369 0.24071 0.31396 0.0
H2439 H 0.63255 0.21604 0.34078 0.0
H2440 H 0.56422 0.25403 0.30616 0.0
H2441 H 0.62376 0.22627 0.25158 0.0
H2442 H 0.61498 0.21113 0.27314 0.0
H2443 H 0.63301 0.23168 0.27704 0.0
C2444 C 0.58588 0.19644 0.32701 0.0
C2445 C 0.60434 0.19845 0.33802 0.0
C2446 C 0.58094 0.21048 0.31147 0.0
C2447 C 0.59459 0.22643 0.30655 0.0
C2448 C 0.61301 0.22843 0.31753 0.0
H2449 H 0.60439 0.32393 0.21789 0.0
H2450 H 0.60844 0.30032 0.24679 0.0
C2451 C 0.61791 0.2145 0.33305 0.0
C2452 C 0.58985 0.24098 0.28979 0.0
H2453 H 0.60727 0.25774 0.24329 0.0
C2454 C 0.57348 0.25478 0.29231 0.0
C2455 C 0.60203 0.24185 0.27183 0.0
C2456 C 0.61933 0.22684 0.26807 0.0
C2457 C 0.56936 0.26996 0.27752 0.0
C2458 C 0.58176 0.27102 0.25969 0.0
C2459 C 0.5979 0.25696 0.25706 0.0
C2460 C 0.57835 0.28656 0.24345 0.0
C2461 C 0.55219 0.28509 0.28136 0.0
C2462 C 0.56001 0.28672 0.23212 0.0
C2463 C 0.55759 0.30028 0.21565 0.0
C2464 C 0.57355 0.3138 0.21011 0.0
C2465 C 0.59174 0.31385 0.22179 0.0
C2466 C 0.59412 0.30032 0.23827 0.0
H2467 H 0.54764 0.28546 0.29782 0.0
H2468 H 0.55674 0.30083 0.27656 0.0
H2469 H 0.53854 0.28051 0.27222 0.0
H2470 H 0.54782 0.27594 0.23562 0.0
H2471 H 0.5434 0.29976 0.20695 0.0
H2472 H 0.82732 0.89283 0.27612 0.0
H2473 H 0.80513 0.88877 0.24611 0.0
H2474 H 0.77778 0.94798 0.2581 0.0
H2475 H 0.80024 0.95246 0.28778 0.0
H2476 H 0.76334 0.88736 0.24731 0.0
H2477 H 0.78856 0.95129 0.19681 0.0
H2478 H 0.80356 0.94258 0.21849 0.0
H2479 H 0.78192 0.95937 0.22234 0.0
C2480 C 0.81689 0.90518 0.27217 0.0
C2481 C 0.81562 0.923 0.28435 0.0
C2482 C 0.80418 0.90281 0.25503 0.0
C2483 C 0.79001 0.91819 0.24974 0.0
C2484 C 0.78894 0.93613 0.26163 0.0
H2485 H 0.68394 0.91859 0.16832 0.0
H2486 H 0.70988 0.92725 0.19443 0.0
C2487 C 0.80171 0.93858 0.2787 0.0
C2488 C 0.77519 0.91469 0.23283 0.0
H2489 H 0.7573 0.93443 0.18756 0.0
C2490 C 0.76213 0.89758 0.23418 0.0
C2491 C 0.77358 0.92813 0.21579 0.0
C2492 C 0.78778 0.94627 0.21312 0.0
C2493 C 0.74735 0.89363 0.21904 0.0
C2494 C 0.74569 0.90709 0.20209 0.0
C2495 C 0.75865 0.92424 0.2007 0.0
C2496 C 0.73088 0.90309 0.18542 0.0
C2497 C 0.73344 0.8752 0.22129 0.0
C2498 C 0.73436 0.88686 0.17172 0.0
C2499 C 0.7197 0.88196 0.15688 0.0
C2500 C 0.70137 0.89331 0.15542 0.0
C2501 C 0.69804 0.90975 0.16902 0.0
C2502 C 0.7128 0.91472 0.18385 0.0
H2503 H 0.73439 0.86829 0.23688 0.0
H2504 H 0.71722 0.87956 0.21816 0.0
H2505 H 0.73792 0.86333 0.20988 0.0
H2506 H 0.74821 0.87767 0.17286 0.0
H2507 H 0.72241 0.86874 0.14716 0.0
H2508 H 0.45021 0.70179 0.20201 0.0
H2509 H 0.44689 0.72503 0.23124 0.0
H2510 H 0.39487 0.6903 0.25321 0.0
H2511 H 0.39786 0.6671 0.22386 0.0
H2512 H 0.3871 0.73163 0.25042 0.0
H2513 H 0.46031 0.71801 0.29199 0.0
H2514 H 0.46366 0.72399 0.26525 0.0
H2515 H 0.45071 0.70068 0.27254 0.0
C2516 C 0.43822 0.69887 0.21319 0.0
C2517 C 0.42419 0.68261 0.21048 0.0
C2518 C 0.43644 0.71213 0.22997 0.0
C2519 C 0.42076 0.70927 0.24448 0.0
C2520 C 0.40711 0.69274 0.24217 0.0
H2521 H 0.40194 0.77294 0.35972 0.0
H2522 H 0.41017 0.7481 0.33264 0.0
C2523 C 0.40883 0.6795 0.22536 0.0
C2524 C 0.41759 0.72443 0.26114 0.0
H2525 H 0.44075 0.74726 0.30233 0.0
C2526 C 0.39879 0.73498 0.26183 0.0
C2527 C 0.43283 0.72866 0.27605 0.0
C2528 C 0.45294 0.71711 0.2766 0.0
C2529 C 0.39487 0.74984 0.27692 0.0
C2530 C 0.41034 0.75454 0.29146 0.0
C2531 C 0.42905 0.7438 0.29096 0.0
C2532 C 0.40697 0.76998 0.30778 0.0
C2533 C 0.37405 0.7601 0.27741 0.0
C2534 C 0.40309 0.79062 0.30279 0.0
C2535 C 0.39816 0.80475 0.3182 0.0
C2536 C 0.39698 0.79838 0.33879 0.0
C2537 C 0.40206 0.77802 0.34386 0.0
C2538 C 0.40695 0.7639 0.32846 0.0
H2539 H 0.36243 0.75133 0.26848 0.0
H2540 H 0.36846 0.7618 0.29345 0.0
H2541 H 0.3753 0.77567 0.27056 0.0
H2542 H 0.40351 0.7957 0.28693 0.0
H2543 H 0.39463 0.82047 0.31397 0.0
H2544 H 0.31961 0.88333 0.81199 0.0
H2545 H 0.29477 0.89314 0.78571 0.0
H2546 H 0.25592 0.92003 0.83225 0.0
H2547 H 0.28137 0.91164 0.85839 0.0
H2548 H 0.25664 0.87915 0.78267 0.0
H2549 H 0.25454 0.96407 0.78912 0.0
H2550 H 0.27423 0.9487 0.80121 0.0
H2551 H 0.24936 0.95136 0.81304 0.0
C2552 C 0.30597 0.89167 0.81664 0.0
C2553 C 0.30223 0.8961 0.83746 0.0
C2554 C 0.29173 0.89717 0.80158 0.0
C2555 C 0.27346 0.90729 0.80699 0.0
C2556 C 0.26999 0.9124 0.82766 0.0
H2557 H 0.16586 0.90264 0.72696 0.0
H2558 H 0.18939 0.89905 0.75606 0.0
C2559 C 0.28438 0.90711 0.84272 0.0
C2560 C 0.25756 0.91115 0.79114 0.0
H2561 H 0.22822 0.94855 0.76889 0.0
C2562 C 0.25048 0.89434 0.77961 0.0
C2563 C 0.24966 0.931 0.78707 0.0
C2564 C 0.25748 0.94984 0.79812 0.0
C2565 C 0.23578 0.89681 0.76406 0.0
C2566 C 0.22739 0.91655 0.76041 0.0
C2567 C 0.23447 0.93339 0.77193 0.0
C2568 C 0.21209 0.92017 0.74395 0.0
C2569 C 0.2299 0.87833 0.7513 0.0
C2570 C 0.21653 0.93403 0.72805 0.0
C2571 C 0.20297 0.93636 0.71159 0.0
C2572 C 0.18476 0.92473 0.71066 0.0
C2573 C 0.17993 0.91149 0.72703 0.0
C2574 C 0.1934 0.90938 0.74364 0.0
H2575 H 0.24164 0.86595 0.75229 0.0
H2576 H 0.21515 0.87198 0.75705 0.0
H2577 H 0.22788 0.88256 0.73488 0.0
H2578 H 0.23081 0.9426 0.72804 0.0
H2579 H 0.20712 0.94674 0.69925 0.0
H2580 H 0.44731 0.29635 0.79441 0.0
H2581 H 0.4436 0.27359 0.76493 0.0
H2582 H 0.39004 0.30743 0.74527 0.0
H2583 H 0.39326 0.32999 0.77516 0.0
H2584 H 0.383 0.26693 0.74596 0.0
H2585 H 0.45607 0.28151 0.70488 0.0
H2586 H 0.46015 0.27445 0.73122 0.0
H2587 H 0.44689 0.298 0.72522 0.0
C2588 C 0.43487 0.29918 0.7837 0.0
C2589 C 0.42055 0.31503 0.78717 0.0
C2590 C 0.43288 0.28621 0.76674 0.0
C2591 C 0.41675 0.28901 0.75272 0.0
C2592 C 0.40268 0.30507 0.75587 0.0
H2593 H 0.40302 0.22299 0.63746 0.0
H2594 H 0.40995 0.24865 0.66412 0.0
C2595 C 0.40455 0.31797 0.77294 0.0
C2596 C 0.41365 0.27419 0.73573 0.0
H2597 H 0.43761 0.25117 0.6951 0.0
C2598 C 0.39488 0.26362 0.73473 0.0
C2599 C 0.42909 0.27002 0.72098 0.0
C2600 C 0.44909 0.28175 0.72047 0.0
C2601 C 0.39124 0.2487 0.71962 0.0
C2602 C 0.40704 0.24382 0.70549 0.0
C2603 C 0.42565 0.2547 0.70618 0.0
C2604 C 0.40424 0.22789 0.68949 0.0
C2605 C 0.37037 0.23857 0.71877 0.0
C2606 C 0.39947 0.20755 0.69494 0.0
C2607 C 0.39513 0.19301 0.67974 0.0
C2608 C 0.39556 0.19861 0.65891 0.0
C2609 C 0.40175 0.21856 0.65347 0.0
C2610 C 0.40592 0.23313 0.66865 0.0
H2611 H 0.35848 0.24794 0.72669 0.0
H2612 H 0.36541 0.23601 0.70264 0.0
H2613 H 0.37115 0.22344 0.72661 0.0
H2614 H 0.39873 0.20302 0.71094 0.0
H2615 H 0.39079 0.17759 0.6843 0.0
H2616 H 0.8055 0.04102 0.71237 0.0
H2617 H 0.78228 0.04439 0.74172 0.0
H2618 H 0.79672 0.10897 0.74592 0.0
H2619 H 0.82027 0.1057 0.71686 0.0
H2620 H 0.79434 0.09027 0.78388 0.0
H2621 H 0.72616 0.07146 0.736 0.0
H2622 H 0.74577 0.05204 0.73601 0.0
H2623 H 0.75104 0.07684 0.72502 0.0
C2624 C 0.80388 0.05592 0.71964 0.0
C2625 C 0.81461 0.07314 0.71216 0.0
C2626 C 0.79053 0.05782 0.73635 0.0
C2627 C 0.78747 0.07701 0.74568 0.0
C2628 C 0.79881 0.09403 0.73884 0.0
H2629 H 0.6847 0.12223 0.81468 0.0
H2630 H 0.71075 0.11321 0.78905 0.0
C2631 C 0.81229 0.09213 0.72224 0.0
C2632 C 0.77188 0.07962 0.76203 0.0
H2633 H 0.72037 0.07638 0.77148 0.0
C2634 C 0.77817 0.08716 0.78124 0.0
C2635 C 0.75078 0.07581 0.75839 0.0
C2636 C 0.74294 0.06877 0.7377 0.0
C2637 C 0.76388 0.09112 0.79691 0.0
C2638 C 0.74282 0.08701 0.79335 0.0
C2639 C 0.73657 0.07932 0.7742 0.0
C2640 C 0.72683 0.09179 0.80882 0.0
C2641 C 0.77137 0.10035 0.81684 0.0
C2642 C 0.72699 0.08237 0.82824 0.0
C2643 C 0.71217 0.0876 0.84291 0.0
C2644 C 0.69699 0.10222 0.83828 0.0
C2645 C 0.69637 0.111 0.8186 0.0
C2646 C 0.71122 0.10589 0.804 0.0
H2647 H 0.787 0.10705 0.81527 0.0
H2648 H 0.76073 0.11254 0.82229 0.0
H2649 H 0.77204 0.08817 0.82876 0.0
H2650 H 0.73854 0.071 0.83204 0.0
H2651 H 0.7125 0.08014 0.85778 0.0
H2652 H 0.54183 0.69446 0.78868 0.0
H2653 H 0.54483 0.7172 0.75894 0.0
H2654 H 0.60568 0.6938 0.74697 0.0
H2655 H 0.60292 0.67102 0.77667 0.0
H2656 H 0.57581 0.74761 0.75479 0.0
H2657 H 0.57727 0.69192 0.69016 0.0
H2658 H 0.56774 0.68533 0.7154 0.0
H2659 H 0.59494 0.68621 0.71062 0.0
C2660 C 0.55577 0.69392 0.77959 0.0
C2661 C 0.57214 0.68085 0.78506 0.0
C2662 C 0.55742 0.70693 0.7626 0.0
C2663 C 0.57536 0.70698 0.75067 0.0
C2664 C 0.59155 0.69368 0.75578 0.0
H2665 H 0.63056 0.77831 0.65528 0.0
H2666 H 0.62045 0.75301 0.68107 0.0
C2667 C 0.58995 0.6807 0.7728 0.0
C2668 C 0.57783 0.72206 0.73386 0.0
H2669 H 0.58729 0.72631 0.68247 0.0
C2670 C 0.57808 0.74302 0.73892 0.0
C2671 C 0.58084 0.71593 0.71325 0.0
C2672 C 0.58002 0.69363 0.70693 0.0
C2673 C 0.58206 0.75805 0.72399 0.0
C2674 C 0.5854 0.75191 0.7034 0.0
C2675 C 0.5847 0.73095 0.69827 0.0
C2676 C 0.59083 0.76689 0.68716 0.0
C2677 C 0.58351 0.78026 0.73057 0.0
C2678 C 0.57741 0.78295 0.68188 0.0
C2679 C 0.58316 0.79744 0.66708 0.0
C2680 C 0.60222 0.79581 0.65707 0.0
C2681 C 0.6155 0.77959 0.66225 0.0
C2682 C 0.60982 0.76521 0.6771 0.0
H2683 H 0.5854 0.78179 0.74748 0.0
H2684 H 0.59663 0.78805 0.7229 0.0
H2685 H 0.56919 0.78839 0.72613 0.0
H2686 H 0.56255 0.78432 0.68925 0.0
H2687 H 0.57269 0.80985 0.66337 0.0
H2688 H 0.27813 0.17447 0.10485 0.0
H2689 H 0.24858 0.19747 0.10779 0.0
H2690 H 0.25295 0.21167 0.04316 0.0
H2691 H 0.28274 0.18907 0.04014 0.0
H2692 H 0.25177 0.2458 0.06639 0.0
H2693 H 0.18907 0.19334 0.09005 0.0
H2694 H 0.21132 0.19115 0.1062 0.0
H2695 H 0.21303 0.18412 0.07949 0.0
C2696 C 0.27258 0.18218 0.09118 0.0
C2697 C 0.28285 0.18 0.07229 0.0
C2698 C 0.2556 0.19524 0.09286 0.0
C2699 C 0.24843 0.2061 0.07564 0.0
C2700 C 0.25821 0.20338 0.05662 0.0
H2701 H 0.1393 0.28494 0.08103 0.0
H2702 H 0.16398 0.25845 0.07068 0.0
C2703 C 0.27524 0.19046 0.05495 0.0
C2704 C 0.23206 0.22176 0.07786 0.0
H2705 H 0.18332 0.22939 0.09571 0.0
C2706 C 0.23671 0.24216 0.07256 0.0
C2707 C 0.21235 0.21695 0.08566 0.0
C2708 C 0.20605 0.19516 0.09048 0.0
C2709 C 0.22245 0.25802 0.07558 0.0
C2710 C 0.2032 0.25339 0.08452 0.0
C2711 C 0.19821 0.2329 0.08906 0.0
C2712 C 0.18844 0.26973 0.09019 0.0
C2713 C 0.22818 0.27959 0.06925 0.0
C2714 C 0.19405 0.28477 0.10458 0.0
C2715 C 0.17996 0.29976 0.11062 0.0
C2716 C 0.1599 0.29978 0.10262 0.0
C2717 C 0.1544 0.28491 0.08796 0.0
C2718 C 0.16854 0.2699 0.08188 0.0
H2719 H 0.24034 0.27957 0.05725 0.0
H2720 H 0.21463 0.2881 0.0633 0.0
H2721 H 0.23424 0.28798 0.08281 0.0
H2722 H 0.20922 0.28467 0.11145 0.0
H2723 H 0.18459 0.31098 0.12201 0.0
H2724 H 0.27555 0.8267 0.89029 0.0
H2725 H 0.24565 0.80441 0.8853 0.0
H2726 H 0.25704 0.77576 0.94401 0.0
H2727 H 0.28664 0.79808 0.94932 0.0
H2728 H 0.24694 0.76209 0.88342 0.0
H2729 H 0.19565 0.78723 0.94673 0.0
H2730 H 0.21737 0.80228 0.93824 0.0
H2731 H 0.22112 0.7807 0.95512 0.0
C2732 C 0.27153 0.81585 0.90227 0.0
C2733 C 0.28351 0.81416 0.92019 0.0
C2734 C 0.25445 0.80314 0.89939 0.0
C2735 C 0.249 0.78864 0.91441 0.0
C2736 C 0.2607 0.78717 0.93244 0.0
H2737 H 0.16559 0.68439 0.91793 0.0
H2738 H 0.19214 0.71023 0.92548 0.0
C2739 C 0.27772 0.79987 0.93537 0.0
C2740 C 0.2321 0.77394 0.91055 0.0
H2741 H 0.18683 0.75578 0.92998 0.0
C2742 C 0.23371 0.76083 0.89349 0.0
C2743 C 0.21495 0.77225 0.92382 0.0
C2744 C 0.21202 0.78649 0.9419 0.0
C2745 C 0.21877 0.74583 0.88952 0.0
C2746 C 0.20171 0.74409 0.90284 0.0
C2747 C 0.20004 0.75717 0.91989 0.0
C2748 C 0.1852 0.72903 0.89894 0.0
C2749 C 0.2215 0.73172 0.87131 0.0
C2750 C 0.17251 0.73129 0.88169 0.0
C2751 C 0.15744 0.71668 0.87741 0.0
C2752 C 0.15466 0.69966 0.89043 0.0
C2753 C 0.16733 0.69748 0.90777 0.0
C2754 C 0.1824 0.71219 0.91211 0.0
H2755 H 0.23748 0.7321 0.86527 0.0
H2756 H 0.21759 0.71563 0.87549 0.0
H2757 H 0.21098 0.7366 0.85879 0.0
H2758 H 0.17447 0.74422 0.87138 0.0
H2759 H 0.14844 0.71842 0.86353 0.0
H2760 H 0.33115 0.22514 0.59633 0.0
H2761 H 0.30722 0.25394 0.59932 0.0
H2762 H 0.27039 0.22863 0.55034 0.0
H2763 H 0.29438 0.19997 0.54698 0.0
H2764 H 0.27422 0.27074 0.54766 0.0
H2765 H 0.25111 0.24683 0.62625 0.0
H2766 H 0.27819 0.2514 0.62352 0.0
H2767 H 0.26631 0.23066 0.60962 0.0
C2768 C 0.31803 0.22572 0.58613 0.0
C2769 C 0.31451 0.21005 0.57167 0.0
C2770 C 0.30434 0.24217 0.58789 0.0
C2771 C 0.2868 0.24313 0.57537 0.0
C2772 C 0.28378 0.22809 0.56024 0.0
H2773 H 0.17685 0.31176 0.60566 0.0
H2774 H 0.2015 0.28501 0.59594 0.0
C2775 C 0.29752 0.21171 0.55837 0.0
C2776 C 0.27113 0.2593 0.57857 0.0
H2777 H 0.23788 0.27854 0.61426 0.0
C2778 C 0.26623 0.27247 0.56219 0.0
C2779 C 0.26046 0.2612 0.59743 0.0
C2780 C 0.2641 0.24666 0.61516 0.0
C2781 C 0.25112 0.28775 0.56428 0.0
C2782 C 0.241 0.29012 0.58339 0.0
C2783 C 0.24575 0.27677 0.59965 0.0
C2784 C 0.22545 0.30635 0.58705 0.0
C2785 C 0.24588 0.3009 0.5459 0.0
C2786 C 0.23061 0.32719 0.58491 0.0
C2787 C 0.21647 0.34244 0.59023 0.0
C2788 C 0.19717 0.3371 0.5983 0.0
C2789 C 0.19173 0.31627 0.59969 0.0
C2790 C 0.2058 0.30101 0.59421 0.0
H2791 H 0.25025 0.29325 0.53127 0.0
H2792 H 0.2292 0.30451 0.54543 0.0
H2793 H 0.25451 0.31558 0.54688 0.0
H2794 H 0.24576 0.33167 0.57967 0.0
H2795 H 0.22075 0.35842 0.58835 0.0
H2796 H 0.83243 0.31153 0.92032 0.0
H2797 H 0.80668 0.2857 0.93002 0.0
H2798 H 0.82179 0.25038 0.87597 0.0
H2799 H 0.84733 0.27598 0.86627 0.0
H2800 H 0.77291 0.2744 0.90785 0.0
H2801 H 0.82282 0.20649 0.92024 0.0
H2802 H 0.83287 0.23232 0.91884 0.0
H2803 H 0.82684 0.2184 0.8957 0.0
C2804 C 0.83041 0.29808 0.91071 0.0
C2805 C 0.8423 0.29544 0.89289 0.0
C2806 C 0.81576 0.28336 0.91626 0.0
C2807 C 0.81272 0.26586 0.90399 0.0
C2808 C 0.82441 0.26337 0.88605 0.0
H2809 H 0.72139 0.17083 0.89229 0.0
H2810 H 0.75109 0.19368 0.88883 0.0
C2811 C 0.83908 0.278 0.88057 0.0
C2812 C 0.79627 0.25096 0.909 0.0
H2813 H 0.78677 0.19987 0.91654 0.0
C2814 C 0.77596 0.25815 0.91002 0.0
C2815 C 0.80032 0.22976 0.91172 0.0
C2816 C 0.82192 0.22129 0.91177 0.0
C2817 C 0.75949 0.2446 0.91308 0.0
C2818 C 0.76351 0.22337 0.9154 0.0
C2819 C 0.78381 0.21618 0.91467 0.0
C2820 C 0.74668 0.20843 0.9183 0.0
C2821 C 0.73785 0.25299 0.91321 0.0
C2822 C 0.7348 0.20886 0.93625 0.0
C2823 C 0.71788 0.19585 0.93831 0.0
C2824 C 0.71256 0.18213 0.92243 0.0
C2825 C 0.72502 0.18122 0.90478 0.0
C2826 C 0.74199 0.19424 0.90277 0.0
H2827 H 0.73713 0.26897 0.90719 0.0
H2828 H 0.72751 0.24314 0.90386 0.0
H2829 H 0.73195 0.25308 0.92921 0.0
H2830 H 0.7384 0.21955 0.94851 0.0
H2831 H 0.70873 0.1969 0.95218 0.0
H2832 H 0.70241 0.79629 0.54577 0.0
H2833 H 0.72674 0.76789 0.54883 0.0
H2834 H 0.69677 0.74797 0.60451 0.0
H2835 H 0.67266 0.77662 0.60189 0.0
H2836 H 0.73832 0.7509 0.60877 0.0
H2837 H 0.7191 0.70682 0.53832 0.0
H2838 H 0.72496 0.73337 0.53361 0.0
H2839 H 0.70261 0.72671 0.54845 0.0
C2840 C 0.70081 0.78576 0.55857 0.0
C2841 C 0.68552 0.78875 0.5736 0.0
C2842 C 0.71468 0.76944 0.5602 0.0
C2843 C 0.71339 0.75568 0.57674 0.0
C2844 C 0.69796 0.7584 0.59157 0.0
H2845 H 0.77471 0.63968 0.59492 0.0
H2846 H 0.75074 0.6676 0.58706 0.0
C2847 C 0.68416 0.77476 0.59002 0.0
C2848 C 0.72884 0.73916 0.5793 0.0
H2849 H 0.74928 0.69665 0.55629 0.0
C2850 C 0.7407 0.73901 0.59732 0.0
C2851 C 0.73179 0.72362 0.56439 0.0
C2852 C 0.71882 0.72246 0.54519 0.0
C2853 C 0.75547 0.72372 0.60086 0.0
C2854 C 0.75878 0.70845 0.58572 0.0
C2855 C 0.74688 0.70855 0.56773 0.0
C2856 C 0.77372 0.69159 0.58889 0.0
C2857 C 0.76699 0.72375 0.62101 0.0
C2858 C 0.79469 0.69577 0.59187 0.0
C2859 C 0.80833 0.67987 0.59668 0.0
C2860 C 0.80116 0.65961 0.59859 0.0
C2861 C 0.78045 0.6553 0.59431 0.0
C2862 C 0.76681 0.67118 0.5896 0.0
H2863 H 0.75917 0.73335 0.63279 0.0
H2864 H 0.76864 0.70789 0.62713 0.0
H2865 H 0.78261 0.73014 0.61855 0.0
H2866 H 0.80042 0.71137 0.59086 0.0
H2867 H 0.82433 0.68351 0.59955 0.0
H2868 H 0.8285 0.68339 0.0773 0.0
H2869 H 0.80352 0.70945 0.06629 0.0
H2870 H 0.82255 0.74872 0.11623 0.0
H2871 H 0.84743 0.72295 0.12713 0.0
H2872 H 0.77144 0.72348 0.08842 0.0
H2873 H 0.82223 0.78894 0.06896 0.0
H2874 H 0.83183 0.76309 0.07219 0.0
H2875 H 0.82705 0.77909 0.09426 0.0
C2876 C 0.82755 0.69776 0.08566 0.0
C2877 C 0.84028 0.7014 0.1027 0.0
C2878 C 0.81333 0.71261 0.07938 0.0
C2879 C 0.81155 0.73124 0.09014 0.0
C2880 C 0.82419 0.73481 0.10723 0.0
H2881 H 0.721 0.82638 0.10191 0.0
H2882 H 0.75073 0.80353 0.10492 0.0
C2883 C 0.83847 0.72006 0.11343 0.0
C2884 C 0.79527 0.74618 0.08471 0.0
H2885 H 0.78655 0.79692 0.07431 0.0
C2886 C 0.77477 0.73946 0.08503 0.0
C2887 C 0.79966 0.76705 0.08036 0.0
C2888 C 0.82141 0.77493 0.07871 0.0
C2889 C 0.75849 0.7532 0.08179 0.0
C2890 C 0.76288 0.77413 0.07802 0.0
C2891 C 0.78334 0.78084 0.07732 0.0
C2892 C 0.74625 0.78926 0.07524 0.0
C2893 C 0.73667 0.74543 0.08299 0.0
C2894 C 0.7343 0.78904 0.05734 0.0
C2895 C 0.71738 0.8021 0.0555 0.0
C2896 C 0.71211 0.81559 0.07159 0.0
C2897 C 0.72462 0.81625 0.08922 0.0
C2898 C 0.74161 0.80321 0.09099 0.0
H2899 H 0.73583 0.72944 0.08896 0.0
H2900 H 0.72729 0.75555 0.09304 0.0
H2901 H 0.72971 0.74571 0.06741 0.0
H2902 H 0.73779 0.77841 0.04499 0.0
H2903 H 0.70815 0.80122 0.04167 0.0
H2904 H 0.18371 0.66706 0.42235 0.0
H2905 H 0.20949 0.69224 0.43348 0.0
H2906 H 0.24836 0.67495 0.38261 0.0
H2907 H 0.22281 0.64987 0.37151 0.0
H2908 H 0.27008 0.68018 0.41915 0.0
H2909 H 0.2184 0.74642 0.40329 0.0
H2910 H 0.20827 0.72785 0.42103 0.0
H2911 H 0.21267 0.72068 0.3947 0.0
C2912 C 0.19787 0.66854 0.4137 0.0
C2913 C 0.20142 0.65628 0.39629 0.0
C2914 C 0.21251 0.68294 0.42001 0.0
C2915 C 0.23073 0.68557 0.40874 0.0
C2916 C 0.23446 0.67305 0.39159 0.0
H2917 H 0.33108 0.7705 0.39961 0.0
H2918 H 0.3083 0.74073 0.39767 0.0
C2919 C 0.21991 0.65859 0.38537 0.0
C2920 C 0.24558 0.7019 0.41416 0.0
H2921 H 0.25098 0.75399 0.41716 0.0
C2922 C 0.26591 0.69632 0.41882 0.0
C2923 C 0.24008 0.72294 0.4136 0.0
C2924 C 0.21873 0.72992 0.40772 0.0
C2925 C 0.28093 0.71127 0.42291 0.0
C2926 C 0.27544 0.73226 0.42211 0.0
C2927 C 0.25506 0.73783 0.41784 0.0
C2928 C 0.29072 0.74887 0.42472 0.0
C2929 C 0.30251 0.70451 0.42807 0.0
C2930 C 0.28839 0.76325 0.44058 0.0
C2931 C 0.30132 0.78033 0.44169 0.0
C2932 C 0.31669 0.78347 0.42678 0.0
C2933 C 0.3194 0.76863 0.41128 0.0
C2934 C 0.30648 0.75151 0.41024 0.0
H2935 H 0.30298 0.68822 0.43318 0.0
H2936 H 0.3123 0.70598 0.41418 0.0
H2937 H 0.3092 0.71434 0.44032 0.0
H2938 H 0.27623 0.7615 0.45183 0.0
H2939 H 0.29879 0.7914 0.45387 0.0
H2940 H 0.70525 0.19975 0.4466 0.0
H2941 H 0.72758 0.22965 0.44317 0.0
H2942 H 0.6844 0.25728 0.40104 0.0
H2943 H 0.66226 0.22706 0.40393 0.0
H2944 H 0.72159 0.25819 0.38573 0.0
H2945 H 0.72569 0.28676 0.46561 0.0
H2946 H 0.73265 0.26014 0.4642 0.0
H2947 H 0.70693 0.26799 0.45753 0.0
C2948 C 0.70033 0.21233 0.43684 0.0
C2949 C 0.68205 0.21099 0.42539 0.0
C2950 C 0.71306 0.2295 0.43503 0.0
C2951 C 0.70753 0.24587 0.42211 0.0
C2952 C 0.68895 0.24484 0.41116 0.0
H2953 H 0.78101 0.35806 0.41307 0.0
H2954 H 0.75389 0.33335 0.42089 0.0
C2955 C 0.67634 0.22754 0.41275 0.0
C2956 C 0.72204 0.26306 0.41851 0.0
H2957 H 0.75269 0.29805 0.44283 0.0
C2958 C 0.72817 0.26708 0.39822 0.0
C2959 C 0.73044 0.27486 0.43475 0.0
C2960 C 0.72341 0.27237 0.45671 0.0
C2961 C 0.74297 0.28206 0.39376 0.0
C2962 C 0.75239 0.29288 0.41012 0.0
C2963 C 0.74572 0.28945 0.43035 0.0
C2964 C 0.76929 0.30765 0.40642 0.0
C2965 C 0.74826 0.28621 0.37154 0.0
C2966 C 0.78726 0.30125 0.39637 0.0
C2967 C 0.80252 0.31546 0.39139 0.0
C2968 C 0.8002 0.33633 0.39653 0.0
C2969 C 0.78283 0.34241 0.40788 0.0
C2970 C 0.76744 0.3282 0.41268 0.0
H2971 H 0.73554 0.28158 0.36112 0.0
H2972 H 0.75166 0.30274 0.36895 0.0
H2973 H 0.76205 0.27713 0.36726 0.0
H2974 H 0.78932 0.28531 0.39201 0.0
H2975 H 0.81585 0.31017 0.38293 0.0
loop_
_geom_bond_atom_site_label_1
_geom_bond_atom_site_label_2
_geom_bond_distance
_geom_bond_site_symmetry_2
_ccdc_geom_bond_type
Co0 O3 1.970 . S
Co0 N17 1.989 . S
Co0 O25 1.967 . S
Co0 O32 1.920 . S
Co1 O4 1.966 . S
Co1 N10 2.022 . S
Co1 N18 1.993 . S
Co1 O26 1.941 . S
C2 O3 1.258 . S
C2 O4 1.263 . S
O3 Co0 1.970 . S
O3 C2 1.258 . S
O4 Co1 1.966 . S
O4 C2 1.263 . S
C5 O6 1.235 . S
C5 O32 1.289 . S
O6 C5 1.235 . S
C7 C9 1.400 . S
C7 N10 1.351 . S
C7 C12 1.501 . S
C8 C9 1.387 . S
C8 N11 1.341 . S
C9 C7 1.400 . S
C9 C8 1.387 . S
N10 Co1 2.022 . S
N10 C7 1.351 . S
N10 N11 1.365 . S
N11 C8 1.341 . S
N11 N10 1.365 . S
N11 H31 0.862 . S
C12 C7 1.501 . S
C12 H13 0.961 . S
C12 H14 0.961 . S
C12 H15 0.960 . S
H13 C12 0.961 . S
H14 C12 0.961 . S
H15 C12 0.960 . S
C16 N17 1.342 . S
C16 C20 1.401 . S
C16 C21 1.499 . S
N17 Co0 1.989 . S
N17 C16 1.342 . S
N17 N18 1.388 . S
N18 Co1 1.993 . S
N18 N17 1.388 . S
N18 C19 1.346 . S
C19 N18 1.346 . S
C19 C20 1.396 . S
C19 C29 1.510 . S
C20 C16 1.401 . S
C20 C19 1.396 . S
C21 C16 1.499 . S
C21 H22 0.959 . S
C21 H23 0.960 . S
C21 H24 0.961 . S
H22 C21 0.959 . S
H23 C21 0.960 . S
H24 C21 0.961 . S
O25 Co0 1.967 . S
O25 C33 1.258 . S
O26 Co1 1.941 . S
O26 C33 1.266 . S
H27 C29 0.959 . S
H28 C29 0.961 . S
C29 C19 1.510 . S
C29 H27 0.959 . S
C29 H28 0.961 . S
C29 H30 0.960 . S
H30 C29 0.960 . S
H31 N11 0.862 . S
O32 Co0 1.920 . S
O32 C5 1.289 . S
C33 O25 1.258 . S
C33 O26 1.266 . S
Co34 O37 1.970 . S
Co34 N51 1.989 . S
Co34 O59 1.967 . S
Co34 O66 1.920 . S
Co35 O38 1.966 . S
Co35 N44 2.022 . S
Co35 N52 1.993 . S
Co35 O60 1.941 . S
C36 O37 1.258 . S
C36 O38 1.263 . S
O37 Co34 1.970 . S
O37 C36 1.258 . S
O38 Co35 1.966 . S
O38 C36 1.263 . S
C39 O40 1.235 . S
C39 O66 1.289 . S
O40 C39 1.235 . S
C41 C43 1.400 . S
C41 N44 1.351 . S
C41 C46 1.501 . S
C42 C43 1.387 . S
C42 N45 1.341 . S
C43 C41 1.400 . S
C43 C42 1.387 . S
N44 Co35 2.022 . S
N44 C41 1.351 . S
N44 N45 1.365 . S
N45 C42 1.341 . S
N45 N44 1.365 . S
N45 H65 0.862 . S
C46 C41 1.501 . S
C46 H47 0.961 . S
C46 H48 0.961 . S
C46 H49 0.960 . S
H47 C46 0.961 . S
H48 C46 0.961 . S
H49 C46 0.960 . S
C50 N51 1.342 . S
C50 C54 1.401 . S
C50 C55 1.499 . S
N51 Co34 1.989 . S
N51 C50 1.342 . S
N51 N52 1.388 . S
N52 Co35 1.993 . S
N52 N51 1.388 . S
N52 C53 1.346 . S
C53 N52 1.346 . S
C53 C54 1.396 . S
C53 C63 1.510 . S
C54 C50 1.401 . S
C54 C53 1.396 . S
C55 C50 1.499 . S
C55 H56 0.959 . S
C55 H57 0.960 . S
C55 H58 0.961 . S
H56 C55 0.959 . S
H57 C55 0.960 . S
H58 C55 0.961 . S
O59 Co34 1.967 . S
O59 C67 1.258 . S
O60 Co35 1.941 . S
O60 C67 1.266 . S
H61 C63 0.959 . S
H62 C63 0.961 . S
C63 C53 1.510 . S
C63 H61 0.959 . S
C63 H62 0.961 . S
C63 H64 0.960 . S
H64 C63 0.960 . S
H65 N45 0.862 . S
O66 Co34 1.920 . S
O66 C39 1.289 . S
C67 O59 1.258 . S
C67 O60 1.266 . S
Co68 O71 1.970 . S
Co68 N85 1.989 . S
Co68 O93 1.967 . S
Co68 O100 1.920 . S
Co69 O72 1.966 . S
Co69 N78 2.022 . S
Co69 N86 1.993 . S
Co69 O94 1.941 . S
C70 O71 1.258 . S
C70 O72 1.263 . S
O71 Co68 1.970 . S
O71 C70 1.258 . S
O72 Co69 1.966 . S
O72 C70 1.263 . S
C73 O74 1.235 . S
C73 O100 1.289 . S
O74 C73 1.235 . S
C75 C77 1.400 . S
C75 N78 1.351 . S
C75 C80 1.501 . S
C76 C77 1.387 . S
C76 N79 1.341 . S
C77 C75 1.400 . S
C77 C76 1.387 . S
N78 Co69 2.022 . S
N78 C75 1.351 . S
N78 N79 1.365 . S
N79 C76 1.341 . S
N79 N78 1.365 . S
N79 H99 0.862 . S
C80 C75 1.501 . S
C80 H81 0.961 . S
C80 H82 0.961 . S
C80 H83 0.960 . S
H81 C80 0.961 . S
H82 C80 0.961 . S
H83 C80 0.960 . S
C84 N85 1.342 . S
C84 C88 1.401 . S
C84 C89 1.499 . S
N85 Co68 1.989 . S
N85 C84 1.342 . S
N85 N86 1.388 . S
N86 Co69 1.993 . S
N86 N85 1.388 . S
N86 C87 1.346 . S
C87 N86 1.346 . S
C87 C88 1.396 . S
C87 C97 1.510 . S
C88 C84 1.401 . S
C88 C87 1.396 . S
C89 C84 1.499 . S
C89 H90 0.959 . S
C89 H91 0.960 . S
C89 H92 0.961 . S
H90 C89 0.959 . S
H91 C89 0.960 . S
H92 C89 0.961 . S
O93 Co68 1.967 . S
O93 C101 1.258 . S
O94 Co69 1.941 . S
O94 C101 1.266 . S
H95 C97 0.959 . S
H96 C97 0.961 . S
C97 C87 1.510 . S
C97 H95 0.959 . S
C97 H96 0.961 . S
C97 H98 0.960 . S
H98 C97 0.960 . S
H99 N79 0.862 . S
O100 Co68 1.920 . S
O100 C73 1.289 . S
C101 O93 1.258 . S
C101 O94 1.266 . S
Co102 O105 1.970 . S
Co102 N119 1.989 . S
Co102 O127 1.967 . S
Co102 O134 1.920 . S
Co103 O106 1.966 . S
Co103 N112 2.022 . S
Co103 N120 1.993 . S
Co103 O128 1.941 . S
C104 O105 1.258 . S
C104 O106 1.263 . S
O105 Co102 1.970 . S
O105 C104 1.258 . S
O106 Co103 1.966 . S
O106 C104 1.263 . S
C107 O108 1.235 . S
C107 O134 1.289 . S
O108 C107 1.235 . S
C109 C111 1.400 . S
C109 N112 1.351 . S
C109 C114 1.501 . S
C110 C111 1.387 . S
C110 N113 1.341 . S
C111 C109 1.400 . S
C111 C110 1.387 . S
N112 Co103 2.022 . S
N112 C109 1.351 . S
N112 N113 1.365 . S
N113 C110 1.341 . S
N113 N112 1.365 . S
N113 H133 0.862 . S
C114 C109 1.501 . S
C114 H115 0.961 . S
C114 H116 0.961 . S
C114 H117 0.960 . S
H115 C114 0.961 . S
H116 C114 0.961 . S
H117 C114 0.960 . S
C118 N119 1.342 . S
C118 C122 1.401 . S
C118 C123 1.499 . S
N119 Co102 1.989 . S
N119 C118 1.342 . S
N119 N120 1.388 . S
N120 Co103 1.993 . S
N120 N119 1.388 . S
N120 C121 1.346 . S
C121 N120 1.346 . S
C121 C122 1.396 . S
C121 C131 1.510 . S
C122 C118 1.401 . S
C122 C121 1.396 . S
C123 C118 1.499 . S
C123 H124 0.959 . S
C123 H125 0.960 . S
C123 H126 0.961 . S
H124 C123 0.959 . S
H125 C123 0.960 . S
H126 C123 0.961 . S
O127 Co102 1.967 . S
O127 C135 1.258 . S
O128 Co103 1.941 . S
O128 C135 1.266 . S
H129 C131 0.959 . S
H130 C131 0.961 . S
C131 C121 1.510 . S
C131 H129 0.959 . S
C131 H130 0.961 . S
C131 H132 0.960 . S
H132 C131 0.960 . S
H133 N113 0.862 . S
O134 Co102 1.920 . S
O134 C107 1.289 . S
C135 O127 1.258 . S
C135 O128 1.266 . S
Co136 O139 1.970 . S
Co136 N153 1.989 . S
Co136 O161 1.967 . S
Co136 O168 1.920 . S
Co137 O140 1.966 . S
Co137 N146 2.022 . S
Co137 N154 1.993 . S
Co137 O162 1.941 . S
C138 O139 1.258 . S
C138 O140 1.263 . S
O139 Co136 1.970 . S
O139 C138 1.258 . S
O140 Co137 1.966 . S
O140 C138 1.263 . S
C141 O142 1.235 . S
C141 O168 1.289 . S
O142 C141 1.235 . S
C143 C145 1.400 . S
C143 N146 1.351 . S
C143 C148 1.501 . S
C144 C145 1.387 . S
C144 N147 1.341 . S
C145 C143 1.400 . S
C145 C144 1.387 . S
N146 Co137 2.022 . S
N146 C143 1.351 . S
N146 N147 1.365 . S
N147 C144 1.341 . S
N147 N146 1.365 . S
N147 H167 0.862 . S
C148 C143 1.501 . S
C148 H149 0.961 . S
C148 H150 0.961 . S
C148 H151 0.960 . S
H149 C148 0.961 . S
H150 C148 0.961 . S
H151 C148 0.960 . S
C152 N153 1.342 . S
C152 C156 1.401 . S
C152 C157 1.499 . S
N153 Co136 1.989 . S
N153 C152 1.342 . S
N153 N154 1.388 . S
N154 Co137 1.993 . S
N154 N153 1.388 . S
N154 C155 1.346 . S
C155 N154 1.346 . S
C155 C156 1.396 . S
C155 C165 1.510 . S
C156 C152 1.401 . S
C156 C155 1.396 . S
C157 C152 1.499 . S
C157 H158 0.959 . S
C157 H159 0.960 . S
C157 H160 0.961 . S
H158 C157 0.959 . S
H159 C157 0.960 . S
H160 C157 0.961 . S
O161 Co136 1.967 . S
O161 C169 1.258 . S
O162 Co137 1.941 . S
O162 C169 1.266 . S
H163 C165 0.959 . S
H164 C165 0.961 . S
C165 C155 1.510 . S
C165 H163 0.959 . S
C165 H164 0.961 . S
C165 H166 0.960 . S
H166 C165 0.960 . S
H167 N147 0.862 . S
O168 Co136 1.920 . S
O168 C141 1.289 . S
C169 O161 1.258 . S
C169 O162 1.266 . S
Co170 O173 1.970 . S
Co170 N187 1.989 . S
Co170 O195 1.967 . S
Co170 O202 1.920 . S
Co171 O174 1.966 . S
Co171 N180 2.022 . S
Co171 N188 1.993 . S
Co171 O196 1.941 . S
C172 O173 1.258 . S
C172 O174 1.263 . S
O173 Co170 1.970 . S
O173 C172 1.258 . S
O174 Co171 1.966 . S
O174 C172 1.263 . S
C175 O176 1.235 . S
C175 O202 1.289 . S
O176 C175 1.235 . S
C177 C179 1.400 . S
C177 N180 1.351 . S
C177 C182 1.501 . S
C178 C179 1.387 . S
C178 N181 1.341 . S
C179 C177 1.400 . S
C179 C178 1.387 . S
N180 Co171 2.022 . S
N180 C177 1.351 . S
N180 N181 1.365 . S
N181 C178 1.341 . S
N181 N180 1.365 . S
N181 H201 0.862 . S
C182 C177 1.501 . S
C182 H183 0.961 . S
C182 H184 0.961 . S
C182 H185 0.960 . S
H183 C182 0.961 . S
H184 C182 0.961 . S
H185 C182 0.960 . S
C186 N187 1.342 . S
C186 C190 1.401 . S
C186 C191 1.499 . S
N187 Co170 1.989 . S
N187 C186 1.342 . S
N187 N188 1.388 . S
N188 Co171 1.993 . S
N188 N187 1.388 . S
N188 C189 1.346 . S
C189 N188 1.346 . S
C189 C190 1.396 . S
C189 C199 1.510 . S
C190 C186 1.401 . S
C190 C189 1.396 . S
C191 C186 1.499 . S
C191 H192 0.959 . S
C191 H193 0.960 . S
C191 H194 0.961 . S
H192 C191 0.959 . S
H193 C191 0.960 . S
H194 C191 0.961 . S
O195 Co170 1.967 . S
O195 C203 1.258 . S
O196 Co171 1.941 . S
O196 C203 1.266 . S
H197 C199 0.959 . S
H198 C199 0.961 . S
C199 C189 1.510 . S
C199 H197 0.959 . S
C199 H198 0.961 . S
C199 H200 0.960 . S
H200 C199 0.960 . S
H201 N181 0.862 . S
O202 Co170 1.920 . S
O202 C175 1.289 . S
C203 O195 1.258 . S
C203 O196 1.266 . S
Co204 O207 1.970 . S
Co204 N221 1.989 . S
Co204 O229 1.967 . S
Co204 O236 1.920 . S
Co205 O208 1.966 . S
Co205 N214 2.022 . S
Co205 N222 1.993 . S
Co205 O230 1.941 . S
C206 O207 1.258 . S
C206 O208 1.263 . S
O207 Co204 1.970 . S
O207 C206 1.258 . S
O208 Co205 1.966 . S
O208 C206 1.263 . S
C209 O210 1.235 . S
C209 O236 1.289 . S
O210 C209 1.235 . S
C211 C213 1.400 . S
C211 N214 1.351 . S
C211 C216 1.501 . S
C212 C213 1.387 . S
C212 N215 1.341 . S
C213 C211 1.400 . S
C213 C212 1.387 . S
N214 Co205 2.022 . S
N214 C211 1.351 . S
N214 N215 1.365 . S
N215 C212 1.341 . S
N215 N214 1.365 . S
N215 H235 0.862 . S
C216 C211 1.501 . S
C216 H217 0.961 . S
C216 H218 0.961 . S
C216 H219 0.960 . S
H217 C216 0.961 . S
H218 C216 0.961 . S
H219 C216 0.960 . S
C220 N221 1.342 . S
C220 C224 1.401 . S
C220 C225 1.499 . S
N221 Co204 1.989 . S
N221 C220 1.342 . S
N221 N222 1.388 . S
N222 Co205 1.993 . S
N222 N221 1.388 . S
N222 C223 1.346 . S
C223 N222 1.346 . S
C223 C224 1.396 . S
C223 C233 1.510 . S
C224 C220 1.401 . S
C224 C223 1.396 . S
C225 C220 1.499 . S
C225 H226 0.959 . S
C225 H227 0.960 . S
C225 H228 0.961 . S
H226 C225 0.959 . S
H227 C225 0.960 . S
H228 C225 0.961 . S
O229 Co204 1.967 . S
O229 C237 1.258 . S
O230 Co205 1.941 . S
O230 C237 1.266 . S
H231 C233 0.959 . S
H232 C233 0.961 . S
C233 C223 1.510 . S
C233 H231 0.959 . S
C233 H232 0.961 . S
C233 H234 0.960 . S
H234 C233 0.960 . S
H235 N215 0.862 . S
O236 Co204 1.920 . S
O236 C209 1.289 . S
C237 O229 1.258 . S
C237 O230 1.266 . S
Co238 O241 1.970 . S
Co238 N255 1.989 . S
Co238 O263 1.967 . S
Co238 O270 1.920 . S
Co239 O242 1.966 . S
Co239 N248 2.022 . S
Co239 N256 1.993 . S
Co239 O264 1.941 . S
C240 O241 1.258 . S
C240 O242 1.263 . S
O241 Co238 1.970 . S
O241 C240 1.258 . S
O242 Co239 1.966 . S
O242 C240 1.263 . S
C243 O244 1.235 . S
C243 O270 1.289 . S
O244 C243 1.235 . S
C245 C247 1.400 . S
C245 N248 1.351 . S
C245 C250 1.501 . S
C246 C247 1.387 . S
C246 N249 1.341 . S
C247 C245 1.400 . S
C247 C246 1.387 . S
N248 Co239 2.022 . S
N248 C245 1.351 . S
N248 N249 1.365 . S
N249 C246 1.341 . S
N249 N248 1.365 . S
N249 H269 0.862 . S
C250 C245 1.501 . S
C250 H251 0.961 . S
C250 H252 0.961 . S
C250 H253 0.960 . S
H251 C250 0.961 . S
H252 C250 0.961 . S
H253 C250 0.960 . S
C254 N255 1.342 . S
C254 C258 1.401 . S
C254 C259 1.499 . S
N255 Co238 1.989 . S
N255 C254 1.342 . S
N255 N256 1.388 . S
N256 Co239 1.993 . S
N256 N255 1.388 . S
N256 C257 1.346 . S
C257 N256 1.346 . S
C257 C258 1.396 . S
C257 C267 1.510 . S
C258 C254 1.401 . S
C258 C257 1.396 . S
C259 C254 1.499 . S
C259 H260 0.959 . S
C259 H261 0.960 . S
C259 H262 0.961 . S
H260 C259 0.959 . S
H261 C259 0.960 . S
H262 C259 0.961 . S
O263 Co238 1.967 . S
O263 C271 1.258 . S
O264 Co239 1.941 . S
O264 C271 1.266 . S
H265 C267 0.959 . S
H266 C267 0.961 . S
C267 C257 1.510 . S
C267 H265 0.959 . S
C267 H266 0.961 . S
C267 H268 0.960 . S
H268 C267 0.960 . S
H269 N249 0.862 . S
O270 Co238 1.920 . S
O270 C243 1.289 . S
C271 O263 1.258 . S
C271 O264 1.266 . S
Co272 O275 1.970 . S
Co272 N289 1.989 . S
Co272 O297 1.967 . S
Co272 O304 1.920 . S
Co273 O276 1.966 . S
Co273 N282 2.022 . S
Co273 N290 1.993 . S
Co273 O298 1.941 . S
C274 O275 1.258 . S
C274 O276 1.263 . S
O275 Co272 1.970 . S
O275 C274 1.258 . S
O276 Co273 1.966 . S
O276 C274 1.263 . S
C277 O278 1.235 . S
C277 O304 1.289 . S
O278 C277 1.235 . S
C279 C281 1.400 . S
C279 N282 1.351 . S
C279 C284 1.501 . S
C280 C281 1.387 . S
C280 N283 1.341 . S
C281 C279 1.400 . S
C281 C280 1.387 . S
N282 Co273 2.022 . S
N282 C279 1.351 . S
N282 N283 1.365 . S
N283 C280 1.341 . S
N283 N282 1.365 . S
N283 H303 0.862 . S
C284 C279 1.501 . S
C284 H285 0.961 . S
C284 H286 0.961 . S
C284 H287 0.960 . S
H285 C284 0.961 . S
H286 C284 0.961 . S
H287 C284 0.960 . S
C288 N289 1.342 . S
C288 C292 1.401 . S
C288 C293 1.499 . S
N289 Co272 1.989 . S
N289 C288 1.342 . S
N289 N290 1.388 . S
N290 Co273 1.993 . S
N290 N289 1.388 . S
N290 C291 1.346 . S
C291 N290 1.346 . S
C291 C292 1.396 . S
C291 C301 1.510 . S
C292 C288 1.401 . S
C292 C291 1.396 . S
C293 C288 1.499 . S
C293 H294 0.959 . S
C293 H295 0.960 . S
C293 H296 0.961 . S
H294 C293 0.959 . S
H295 C293 0.960 . S
H296 C293 0.961 . S
O297 Co272 1.967 . S
O297 C305 1.258 . S
O298 Co273 1.941 . S
O298 C305 1.266 . S
H299 C301 0.959 . S
H300 C301 0.961 . S
C301 C291 1.510 . S
C301 H299 0.959 . S
C301 H300 0.961 . S
C301 H302 0.960 . S
H302 C301 0.960 . S
H303 N283 0.862 . S
O304 Co272 1.920 . S
O304 C277 1.289 . S
C305 O297 1.258 . S
C305 O298 1.266 . S
Co306 O309 1.970 . S
Co306 N323 1.989 . S
Co306 O331 1.967 . S
Co306 O338 1.920 . S
Co307 O310 1.966 . S
Co307 N316 2.022 . S
Co307 N324 1.993 . S
Co307 O332 1.941 . S
C308 O309 1.258 . S
C308 O310 1.263 . S
O309 Co306 1.970 . S
O309 C308 1.258 . S
O310 Co307 1.966 . S
O310 C308 1.263 . S
C311 O312 1.235 . S
C311 O338 1.289 . S
O312 C311 1.235 . S
C313 C315 1.400 . S
C313 N316 1.351 . S
C313 C318 1.501 . S
C314 C315 1.387 . S
C314 N317 1.341 . S
C315 C313 1.400 . S
C315 C314 1.387 . S
N316 Co307 2.022 . S
N316 C313 1.351 . S
N316 N317 1.365 . S
N317 C314 1.341 . S
N317 N316 1.365 . S
N317 H337 0.862 . S
C318 C313 1.501 . S
C318 H319 0.961 . S
C318 H320 0.961 . S
C318 H321 0.960 . S
H319 C318 0.961 . S
H320 C318 0.961 . S
H321 C318 0.960 . S
C322 N323 1.342 . S
C322 C326 1.401 . S
C322 C327 1.499 . S
N323 Co306 1.989 . S
N323 C322 1.342 . S
N323 N324 1.388 . S
N324 Co307 1.993 . S
N324 N323 1.388 . S
N324 C325 1.346 . S
C325 N324 1.346 . S
C325 C326 1.396 . S
C325 C335 1.510 . S
C326 C322 1.401 . S
C326 C325 1.396 . S
C327 C322 1.499 . S
C327 H328 0.959 . S
C327 H329 0.960 . S
C327 H330 0.961 . S
H328 C327 0.959 . S
H329 C327 0.960 . S
H330 C327 0.961 . S
O331 Co306 1.967 . S
O331 C339 1.258 . S
O332 Co307 1.941 . S
O332 C339 1.266 . S
H333 C335 0.959 . S
H334 C335 0.961 . S
C335 C325 1.510 . S
C335 H333 0.959 . S
C335 H334 0.961 . S
C335 H336 0.960 . S
H336 C335 0.960 . S
H337 N317 0.862 . S
O338 Co306 1.920 . S
O338 C311 1.289 . S
C339 O331 1.258 . S
C339 O332 1.266 . S
Co340 O343 1.970 . S
Co340 N357 1.989 . S
Co340 O365 1.967 . S
Co340 O372 1.920 . S
Co341 O344 1.966 . S
Co341 N350 2.022 . S
Co341 N358 1.993 . S
Co341 O366 1.941 . S
C342 O343 1.258 . S
C342 O344 1.263 . S
O343 Co340 1.970 . S
O343 C342 1.258 . S
O344 Co341 1.966 . S
O344 C342 1.263 . S
C345 O346 1.235 . S
C345 O372 1.289 . S
O346 C345 1.235 . S
C347 C349 1.400 . S
C347 N350 1.351 . S
C347 C352 1.501 . S
C348 C349 1.387 . S
C348 N351 1.341 . S
C349 C347 1.400 . S
C349 C348 1.387 . S
N350 Co341 2.022 . S
N350 C347 1.351 . S
N350 N351 1.365 . S
N351 C348 1.341 . S
N351 N350 1.365 . S
N351 H371 0.862 . S
C352 C347 1.501 . S
C352 H353 0.961 . S
C352 H354 0.961 . S
C352 H355 0.960 . S
H353 C352 0.961 . S
H354 C352 0.961 . S
H355 C352 0.960 . S
C356 N357 1.342 . S
C356 C360 1.401 . S
C356 C361 1.499 . S
N357 Co340 1.989 . S
N357 C356 1.342 . S
N357 N358 1.388 . S
N358 Co341 1.993 . S
N358 N357 1.388 . S
N358 C359 1.346 . S
C359 N358 1.346 . S
C359 C360 1.396 . S
C359 C369 1.510 . S
C360 C356 1.401 . S
C360 C359 1.396 . S
C361 C356 1.499 . S
C361 H362 0.959 . S
C361 H363 0.960 . S
C361 H364 0.961 . S
H362 C361 0.959 . S
H363 C361 0.960 . S
H364 C361 0.961 . S
O365 Co340 1.967 . S
O365 C373 1.258 . S
O366 Co341 1.941 . S
O366 C373 1.266 . S
H367 C369 0.959 . S
H368 C369 0.961 . S
C369 C359 1.510 . S
C369 H367 0.959 . S
C369 H368 0.961 . S
C369 H370 0.960 . S
H370 C369 0.960 . S
H371 N351 0.862 . S
O372 Co340 1.920 . S
O372 C345 1.289 . S
C373 O365 1.258 . S
C373 O366 1.266 . S
Co374 O377 1.970 . S
Co374 N391 1.989 . S
Co374 O399 1.967 . S
Co374 O406 1.920 . S
Co375 O378 1.966 . S
Co375 N384 2.022 . S
Co375 N392 1.993 . S
Co375 O400 1.941 . S
C376 O377 1.258 . S
C376 O378 1.263 . S
O377 Co374 1.970 . S
O377 C376 1.258 . S
O378 Co375 1.966 . S
O378 C376 1.263 . S
C379 O380 1.235 . S
C379 O406 1.289 . S
O380 C379 1.235 . S
C381 C383 1.400 . S
C381 N384 1.351 . S
C381 C386 1.501 . S
C382 C383 1.387 . S
C382 N385 1.341 . S
C383 C381 1.400 . S
C383 C382 1.387 . S
N384 Co375 2.022 . S
N384 C381 1.351 . S
N384 N385 1.365 . S
N385 C382 1.341 . S
N385 N384 1.365 . S
N385 H405 0.862 . S
C386 C381 1.501 . S
C386 H387 0.961 . S
C386 H388 0.961 . S
C386 H389 0.960 . S
H387 C386 0.961 . S
H388 C386 0.961 . S
H389 C386 0.960 . S
C390 N391 1.342 . S
C390 C394 1.401 . S
C390 C395 1.499 . S
N391 Co374 1.989 . S
N391 C390 1.342 . S
N391 N392 1.388 . S
N392 Co375 1.993 . S
N392 N391 1.388 . S
N392 C393 1.346 . S
C393 N392 1.346 . S
C393 C394 1.396 . S
C393 C403 1.510 . S
C394 C390 1.401 . S
C394 C393 1.396 . S
C395 C390 1.499 . S
C395 H396 0.959 . S
C395 H397 0.960 . S
C395 H398 0.961 . S
H396 C395 0.959 . S
H397 C395 0.960 . S
H398 C395 0.961 . S
O399 Co374 1.967 . S
O399 C407 1.258 . S
O400 Co375 1.941 . S
O400 C407 1.266 . S
H401 C403 0.959 . S
H402 C403 0.961 . S
C403 C393 1.510 . S
C403 H401 0.959 . S
C403 H402 0.961 . S
C403 H404 0.960 . S
H404 C403 0.960 . S
H405 N385 0.862 . S
O406 Co374 1.920 . S
O406 C379 1.289 . S
C407 O399 1.258 . S
C407 O400 1.266 . S
Co408 O411 1.970 . S
Co408 N425 1.989 . S
Co408 O433 1.967 . S
Co408 O440 1.920 . S
Co409 O412 1.966 . S
Co409 N418 2.022 . S
Co409 N426 1.993 . S
Co409 O434 1.941 . S
C410 O411 1.258 . S
C410 O412 1.263 . S
O411 Co408 1.970 . S
O411 C410 1.258 . S
O412 Co409 1.966 . S
O412 C410 1.263 . S
C413 O414 1.235 . S
C413 O440 1.289 . S
O414 C413 1.235 . S
C415 C417 1.400 . S
C415 N418 1.351 . S
C415 C420 1.501 . S
C416 C417 1.387 . S
C416 N419 1.341 . S
C417 C415 1.400 . S
C417 C416 1.387 . S
N418 Co409 2.022 . S
N418 C415 1.351 . S
N418 N419 1.365 . S
N419 C416 1.341 . S
N419 N418 1.365 . S
N419 H439 0.862 . S
C420 C415 1.501 . S
C420 H421 0.961 . S
C420 H422 0.961 . S
C420 H423 0.960 . S
H421 C420 0.961 . S
H422 C420 0.961 . S
H423 C420 0.960 . S
C424 N425 1.342 . S
C424 C428 1.401 . S
C424 C429 1.499 . S
N425 Co408 1.989 . S
N425 C424 1.342 . S
N425 N426 1.388 . S
N426 Co409 1.993 . S
N426 N425 1.388 . S
N426 C427 1.346 . S
C427 N426 1.346 . S
C427 C428 1.396 . S
C427 C437 1.510 . S
C428 C424 1.401 . S
C428 C427 1.396 . S
C429 C424 1.499 . S
C429 H430 0.959 . S
C429 H431 0.960 . S
C429 H432 0.961 . S
H430 C429 0.959 . S
H431 C429 0.960 . S
H432 C429 0.961 . S
O433 Co408 1.967 . S
O433 C441 1.258 . S
O434 Co409 1.941 . S
O434 C441 1.266 . S
H435 C437 0.959 . S
H436 C437 0.961 . S
C437 C427 1.510 . S
C437 H435 0.959 . S
C437 H436 0.961 . S
C437 H438 0.960 . S
H438 C437 0.960 . S
H439 N419 0.862 . S
O440 Co408 1.920 . S
O440 C413 1.289 . S
C441 O433 1.258 . S
C441 O434 1.266 . S
Co442 O445 1.970 . S
Co442 N459 1.989 . S
Co442 O467 1.967 . S
Co442 O474 1.920 . S
Co443 O446 1.966 . S
Co443 N452 2.022 . S
Co443 N460 1.993 . S
Co443 O468 1.941 . S
C444 O445 1.258 . S
C444 O446 1.263 . S
O445 Co442 1.970 . S
O445 C444 1.258 . S
O446 Co443 1.966 . S
O446 C444 1.263 . S
C447 O448 1.235 . S
C447 O474 1.289 . S
O448 C447 1.235 . S
C449 C451 1.400 . S
C449 N452 1.351 . S
C449 C454 1.501 . S
C450 C451 1.387 . S
C450 N453 1.341 . S
C451 C449 1.400 . S
C451 C450 1.387 . S
N452 Co443 2.022 . S
N452 C449 1.351 . S
N452 N453 1.365 . S
N453 C450 1.341 . S
N453 N452 1.365 . S
N453 H473 0.862 . S
C454 C449 1.501 . S
C454 H455 0.961 . S
C454 H456 0.961 . S
C454 H457 0.960 . S
H455 C454 0.961 . S
H456 C454 0.961 . S
H457 C454 0.960 . S
C458 N459 1.342 . S
C458 C462 1.401 . S
C458 C463 1.499 . S
N459 Co442 1.989 . S
N459 C458 1.342 . S
N459 N460 1.388 . S
N460 Co443 1.993 . S
N460 N459 1.388 . S
N460 C461 1.346 . S
C461 N460 1.346 . S
C461 C462 1.396 . S
C461 C471 1.510 . S
C462 C458 1.401 . S
C462 C461 1.396 . S
C463 C458 1.499 . S
C463 H464 0.959 . S
C463 H465 0.960 . S
C463 H466 0.961 . S
H464 C463 0.959 . S
H465 C463 0.960 . S
H466 C463 0.961 . S
O467 Co442 1.967 . S
O467 C475 1.258 . S
O468 Co443 1.941 . S
O468 C475 1.266 . S
H469 C471 0.959 . S
H470 C471 0.961 . S
C471 C461 1.510 . S
C471 H469 0.959 . S
C471 H470 0.961 . S
C471 H472 0.960 . S
H472 C471 0.960 . S
H473 N453 0.862 . S
O474 Co442 1.920 . S
O474 C447 1.289 . S
C475 O467 1.258 . S
C475 O468 1.266 . S
Co476 O479 1.970 . S
Co476 N493 1.989 . S
Co476 O501 1.967 . S
Co476 O508 1.920 . S
Co477 O480 1.966 . S
Co477 N486 2.022 . S
Co477 N494 1.993 . S
Co477 O502 1.941 . S
C478 O479 1.258 . S
C478 O480 1.263 . S
O479 Co476 1.970 . S
O479 C478 1.258 . S
O480 Co477 1.966 . S
O480 C478 1.263 . S
C481 O482 1.235 . S
C481 O508 1.289 . S
O482 C481 1.235 . S
C483 C485 1.400 . S
C483 N486 1.351 . S
C483 C488 1.501 . S
C484 C485 1.387 . S
C484 N487 1.341 . S
C485 C483 1.400 . S
C485 C484 1.387 . S
N486 Co477 2.022 . S
N486 C483 1.351 . S
N486 N487 1.365 . S
N487 C484 1.341 . S
N487 N486 1.365 . S
N487 H507 0.862 . S
C488 C483 1.501 . S
C488 H489 0.961 . S
C488 H490 0.961 . S
C488 H491 0.960 . S
H489 C488 0.961 . S
H490 C488 0.961 . S
H491 C488 0.960 . S
C492 N493 1.342 . S
C492 C496 1.401 . S
C492 C497 1.499 . S
N493 Co476 1.989 . S
N493 C492 1.342 . S
N493 N494 1.388 . S
N494 Co477 1.993 . S
N494 N493 1.388 . S
N494 C495 1.346 . S
C495 N494 1.346 . S
C495 C496 1.396 . S
C495 C505 1.510 . S
C496 C492 1.401 . S
C496 C495 1.396 . S
C497 C492 1.499 . S
C497 H498 0.959 . S
C497 H499 0.960 . S
C497 H500 0.961 . S
H498 C497 0.959 . S
H499 C497 0.960 . S
H500 C497 0.961 . S
O501 Co476 1.967 . S
O501 C509 1.258 . S
O502 Co477 1.941 . S
O502 C509 1.266 . S
H503 C505 0.959 . S
H504 C505 0.961 . S
C505 C495 1.510 . S
C505 H503 0.959 . S
C505 H504 0.961 . S
C505 H506 0.960 . S
H506 C505 0.960 . S
H507 N487 0.862 . S
O508 Co476 1.920 . S
O508 C481 1.289 . S
C509 O501 1.258 . S
C509 O502 1.266 . S
Co510 O513 1.970 . S
Co510 N527 1.989 . S
Co510 O535 1.967 . S
Co510 O542 1.920 . S
Co511 O514 1.966 . S
Co511 N520 2.022 . S
Co511 N528 1.993 . S
Co511 O536 1.941 . S
C512 O513 1.258 . S
C512 O514 1.263 . S
O513 Co510 1.970 . S
O513 C512 1.258 . S
O514 Co511 1.966 . S
O514 C512 1.263 . S
C515 O516 1.235 . S
C515 O542 1.289 . S
O516 C515 1.235 . S
C517 C519 1.400 . S
C517 N520 1.351 . S
C517 C522 1.501 . S
C518 C519 1.387 . S
C518 N521 1.341 . S
C519 C517 1.400 . S
C519 C518 1.387 . S
N520 Co511 2.022 . S
N520 C517 1.351 . S
N520 N521 1.365 . S
N521 C518 1.341 . S
N521 N520 1.365 . S
N521 H541 0.862 . S
C522 C517 1.501 . S
C522 H523 0.961 . S
C522 H524 0.961 . S
C522 H525 0.960 . S
H523 C522 0.961 . S
H524 C522 0.961 . S
H525 C522 0.960 . S
C526 N527 1.342 . S
C526 C530 1.401 . S
C526 C531 1.499 . S
N527 Co510 1.989 . S
N527 C526 1.342 . S
N527 N528 1.388 . S
N528 Co511 1.993 . S
N528 N527 1.388 . S
N528 C529 1.346 . S
C529 N528 1.346 . S
C529 C530 1.396 . S
C529 C539 1.510 . S
C530 C526 1.401 . S
C530 C529 1.396 . S
C531 C526 1.499 . S
C531 H532 0.959 . S
C531 H533 0.960 . S
C531 H534 0.961 . S
H532 C531 0.959 . S
H533 C531 0.960 . S
H534 C531 0.961 . S
O535 Co510 1.967 . S
O535 C543 1.258 . S
O536 Co511 1.941 . S
O536 C543 1.266 . S
H537 C539 0.959 . S
H538 C539 0.961 . S
C539 C529 1.510 . S
C539 H537 0.959 . S
C539 H538 0.961 . S
C539 H540 0.960 . S
H540 C539 0.960 . S
H541 N521 0.862 . S
O542 Co510 1.920 . S
O542 C515 1.289 . S
C543 O535 1.258 . S
C543 O536 1.266 . S
Co544 O547 1.970 . S
Co544 N561 1.989 . S
Co544 O569 1.967 . S
Co544 O576 1.920 . S
Co545 O548 1.966 . S
Co545 N554 2.022 . S
Co545 N562 1.993 . S
Co545 O570 1.941 . S
C546 O547 1.258 . S
C546 O548 1.263 . S
O547 Co544 1.970 . S
O547 C546 1.258 . S
O548 Co545 1.966 . S
O548 C546 1.263 . S
C549 O550 1.235 . S
C549 O576 1.289 . S
O550 C549 1.235 . S
C551 C553 1.400 . S
C551 N554 1.351 . S
C551 C556 1.501 . S
C552 C553 1.387 . S
C552 N555 1.341 . S
C553 C551 1.400 . S
C553 C552 1.387 . S
N554 Co545 2.022 . S
N554 C551 1.351 . S
N554 N555 1.365 . S
N555 C552 1.341 . S
N555 N554 1.365 . S
N555 H575 0.862 . S
C556 C551 1.501 . S
C556 H557 0.961 . S
C556 H558 0.961 . S
C556 H559 0.960 . S
H557 C556 0.961 . S
H558 C556 0.961 . S
H559 C556 0.960 . S
C560 N561 1.342 . S
C560 C564 1.401 . S
C560 C565 1.499 . S
N561 Co544 1.989 . S
N561 C560 1.342 . S
N561 N562 1.388 . S
N562 Co545 1.993 . S
N562 N561 1.388 . S
N562 C563 1.346 . S
C563 N562 1.346 . S
C563 C564 1.396 . S
C563 C573 1.510 . S
C564 C560 1.401 . S
C564 C563 1.396 . S
C565 C560 1.499 . S
C565 H566 0.959 . S
C565 H567 0.960 . S
C565 H568 0.961 . S
H566 C565 0.959 . S
H567 C565 0.960 . S
H568 C565 0.961 . S
O569 Co544 1.967 . S
O569 C577 1.258 . S
O570 Co545 1.941 . S
O570 C577 1.266 . S
H571 C573 0.959 . S
H572 C573 0.961 . S
C573 C563 1.510 . S
C573 H571 0.959 . S
C573 H572 0.961 . S
C573 H574 0.960 . S
H574 C573 0.960 . S
H575 N555 0.862 . S
O576 Co544 1.920 . S
O576 C549 1.289 . S
C577 O569 1.258 . S
C577 O570 1.266 . S
Co578 O581 1.970 . S
Co578 N595 1.989 . S
Co578 O603 1.967 . S
Co578 O610 1.920 . S
Co579 O582 1.966 . S
Co579 N588 2.022 . S
Co579 N596 1.993 . S
Co579 O604 1.941 . S
C580 O581 1.258 . S
C580 O582 1.263 . S
O581 Co578 1.970 . S
O581 C580 1.258 . S
O582 Co579 1.966 . S
O582 C580 1.263 . S
C583 O584 1.235 . S
C583 O610 1.289 . S
O584 C583 1.235 . S
C585 C587 1.400 . S
C585 N588 1.351 . S
C585 C590 1.501 . S
C586 C587 1.387 . S
C586 N589 1.341 . S
C587 C585 1.400 . S
C587 C586 1.387 . S
N588 Co579 2.022 . S
N588 C585 1.351 . S
N588 N589 1.365 . S
N589 C586 1.341 . S
N589 N588 1.365 . S
N589 H609 0.862 . S
C590 C585 1.501 . S
C590 H591 0.961 . S
C590 H592 0.961 . S
C590 H593 0.960 . S
H591 C590 0.961 . S
H592 C590 0.961 . S
H593 C590 0.960 . S
C594 N595 1.342 . S
C594 C598 1.401 . S
C594 C599 1.499 . S
N595 Co578 1.989 . S
N595 C594 1.342 . S
N595 N596 1.388 . S
N596 Co579 1.993 . S
N596 N595 1.388 . S
N596 C597 1.346 . S
C597 N596 1.346 . S
C597 C598 1.396 . S
C597 C607 1.510 . S
C598 C594 1.401 . S
C598 C597 1.396 . S
C599 C594 1.499 . S
C599 H600 0.959 . S
C599 H601 0.960 . S
C599 H602 0.961 . S
H600 C599 0.959 . S
H601 C599 0.960 . S
H602 C599 0.961 . S
O603 Co578 1.967 . S
O603 C611 1.258 . S
O604 Co579 1.941 . S
O604 C611 1.266 . S
H605 C607 0.959 . S
H606 C607 0.961 . S
C607 C597 1.510 . S
C607 H605 0.959 . S
C607 H606 0.961 . S
C607 H608 0.960 . S
H608 C607 0.960 . S
H609 N589 0.862 . S
O610 Co578 1.920 . S
O610 C583 1.289 . S
C611 O603 1.258 . S
C611 O604 1.266 . S
Co612 O615 1.970 . S
Co612 N629 1.989 . S
Co612 O637 1.967 . S
Co612 O644 1.920 . S
Co613 O616 1.966 . S
Co613 N622 2.022 . S
Co613 N630 1.993 . S
Co613 O638 1.941 . S
C614 O615 1.258 . S
C614 O616 1.263 . S
O615 Co612 1.970 . S
O615 C614 1.258 . S
O616 Co613 1.966 . S
O616 C614 1.263 . S
C617 O618 1.235 . S
C617 O644 1.289 . S
O618 C617 1.235 . S
C619 C621 1.400 . S
C619 N622 1.351 . S
C619 C624 1.501 . S
C620 C621 1.387 . S
C620 N623 1.341 . S
C621 C619 1.400 . S
C621 C620 1.387 . S
N622 Co613 2.022 . S
N622 C619 1.351 . S
N622 N623 1.365 . S
N623 C620 1.341 . S
N623 N622 1.365 . S
N623 H643 0.862 . S
C624 C619 1.501 . S
C624 H625 0.961 . S
C624 H626 0.961 . S
C624 H627 0.960 . S
H625 C624 0.961 . S
H626 C624 0.961 . S
H627 C624 0.960 . S
C628 N629 1.342 . S
C628 C632 1.401 . S
C628 C633 1.499 . S
N629 Co612 1.989 . S
N629 C628 1.342 . S
N629 N630 1.388 . S
N630 Co613 1.993 . S
N630 N629 1.388 . S
N630 C631 1.346 . S
C631 N630 1.346 . S
C631 C632 1.396 . S
C631 C641 1.510 . S
C632 C628 1.401 . S
C632 C631 1.396 . S
C633 C628 1.499 . S
C633 H634 0.959 . S
C633 H635 0.960 . S
C633 H636 0.961 . S
H634 C633 0.959 . S
H635 C633 0.960 . S
H636 C633 0.961 . S
O637 Co612 1.967 . S
O637 C645 1.258 . S
O638 Co613 1.941 . S
O638 C645 1.266 . S
H639 C641 0.959 . S
H640 C641 0.961 . S
C641 C631 1.510 . S
C641 H639 0.959 . S
C641 H640 0.961 . S
C641 H642 0.960 . S
H642 C641 0.960 . S
H643 N623 0.862 . S
O644 Co612 1.920 . S
O644 C617 1.289 . S
C645 O637 1.258 . S
C645 O638 1.266 . S
Co646 O649 1.970 . S
Co646 N663 1.989 . S
Co646 O671 1.967 . S
Co646 O678 1.920 . S
Co647 O650 1.966 . S
Co647 N656 2.022 . S
Co647 N664 1.993 . S
Co647 O672 1.941 . S
C648 O649 1.258 . S
C648 O650 1.263 . S
O649 Co646 1.970 . S
O649 C648 1.258 . S
O650 Co647 1.966 . S
O650 C648 1.263 . S
C651 O652 1.235 . S
C651 O678 1.289 . S
O652 C651 1.235 . S
C653 C655 1.400 . S
C653 N656 1.351 . S
C653 C658 1.501 . S
C654 C655 1.387 . S
C654 N657 1.341 . S
C655 C653 1.400 . S
C655 C654 1.387 . S
N656 Co647 2.022 . S
N656 C653 1.351 . S
N656 N657 1.365 . S
N657 C654 1.341 . S
N657 N656 1.365 . S
N657 H677 0.862 . S
C658 C653 1.501 . S
C658 H659 0.961 . S
C658 H660 0.961 . S
C658 H661 0.960 . S
H659 C658 0.961 . S
H660 C658 0.961 . S
H661 C658 0.960 . S
C662 N663 1.342 . S
C662 C666 1.401 . S
C662 C667 1.499 . S
N663 Co646 1.989 . S
N663 C662 1.342 . S
N663 N664 1.388 . S
N664 Co647 1.993 . S
N664 N663 1.388 . S
N664 C665 1.346 . S
C665 N664 1.346 . S
C665 C666 1.396 . S
C665 C675 1.510 . S
C666 C662 1.401 . S
C666 C665 1.396 . S
C667 C662 1.499 . S
C667 H668 0.959 . S
C667 H669 0.960 . S
C667 H670 0.961 . S
H668 C667 0.959 . S
H669 C667 0.960 . S
H670 C667 0.961 . S
O671 Co646 1.967 . S
O671 C679 1.258 . S
O672 Co647 1.941 . S
O672 C679 1.266 . S
H673 C675 0.959 . S
H674 C675 0.961 . S
C675 C665 1.510 . S
C675 H673 0.959 . S
C675 H674 0.961 . S
C675 H676 0.960 . S
H676 C675 0.960 . S
H677 N657 0.862 . S
O678 Co646 1.920 . S
O678 C651 1.289 . S
C679 O671 1.258 . S
C679 O672 1.266 . S
Co680 O683 1.970 . S
Co680 N697 1.989 . S
Co680 O705 1.967 . S
Co680 O712 1.920 . S
Co681 O684 1.966 . S
Co681 N690 2.022 . S
Co681 N698 1.993 . S
Co681 O706 1.941 . S
C682 O683 1.258 . S
C682 O684 1.263 . S
O683 Co680 1.970 . S
O683 C682 1.258 . S
O684 Co681 1.966 . S
O684 C682 1.263 . S
C685 O686 1.235 . S
C685 O712 1.289 . S
O686 C685 1.235 . S
C687 C689 1.400 . S
C687 N690 1.351 . S
C687 C692 1.501 . S
C688 C689 1.387 . S
C688 N691 1.341 . S
C689 C687 1.400 . S
C689 C688 1.387 . S
N690 Co681 2.022 . S
N690 C687 1.351 . S
N690 N691 1.365 . S
N691 C688 1.341 . S
N691 N690 1.365 . S
N691 H711 0.862 . S
C692 C687 1.501 . S
C692 H693 0.961 . S
C692 H694 0.961 . S
C692 H695 0.960 . S
H693 C692 0.961 . S
H694 C692 0.961 . S
H695 C692 0.960 . S
C696 N697 1.342 . S
C696 C700 1.401 . S
C696 C701 1.499 . S
N697 Co680 1.989 . S
N697 C696 1.342 . S
N697 N698 1.388 . S
N698 Co681 1.993 . S
N698 N697 1.388 . S
N698 C699 1.346 . S
C699 N698 1.346 . S
C699 C700 1.396 . S
C699 C709 1.510 . S
C700 C696 1.401 . S
C700 C699 1.396 . S
C701 C696 1.499 . S
C701 H702 0.959 . S
C701 H703 0.960 . S
C701 H704 0.961 . S
H702 C701 0.959 . S
H703 C701 0.960 . S
H704 C701 0.961 . S
O705 Co680 1.967 . S
O705 C713 1.258 . S
O706 Co681 1.941 . S
O706 C713 1.266 . S
H707 C709 0.959 . S
H708 C709 0.961 . S
C709 C699 1.510 . S
C709 H707 0.959 . S
C709 H708 0.961 . S
C709 H710 0.960 . S
H710 C709 0.960 . S
H711 N691 0.862 . S
O712 Co680 1.920 . S
O712 C685 1.289 . S
C713 O705 1.258 . S
C713 O706 1.266 . S
Co714 O717 1.970 . S
Co714 N731 1.989 . S
Co714 O739 1.967 . S
Co714 O746 1.920 . S
Co715 O718 1.966 . S
Co715 N724 2.022 . S
Co715 N732 1.993 . S
Co715 O740 1.941 . S
C716 O717 1.258 . S
C716 O718 1.263 . S
O717 Co714 1.970 . S
O717 C716 1.258 . S
O718 Co715 1.966 . S
O718 C716 1.263 . S
C719 O720 1.235 . S
C719 O746 1.289 . S
O720 C719 1.235 . S
C721 C723 1.400 . S
C721 N724 1.351 . S
C721 C726 1.501 . S
C722 C723 1.387 . S
C722 N725 1.341 . S
C723 C721 1.400 . S
C723 C722 1.387 . S
N724 Co715 2.022 . S
N724 C721 1.351 . S
N724 N725 1.365 . S
N725 C722 1.341 . S
N725 N724 1.365 . S
N725 H745 0.862 . S
C726 C721 1.501 . S
C726 H727 0.961 . S
C726 H728 0.961 . S
C726 H729 0.960 . S
H727 C726 0.961 . S
H728 C726 0.961 . S
H729 C726 0.960 . S
C730 N731 1.342 . S
C730 C734 1.401 . S
C730 C735 1.499 . S
N731 Co714 1.989 . S
N731 C730 1.342 . S
N731 N732 1.388 . S
N732 Co715 1.993 . S
N732 N731 1.388 . S
N732 C733 1.346 . S
C733 N732 1.346 . S
C733 C734 1.396 . S
C733 C743 1.510 . S
C734 C730 1.401 . S
C734 C733 1.396 . S
C735 C730 1.499 . S
C735 H736 0.959 . S
C735 H737 0.960 . S
C735 H738 0.961 . S
H736 C735 0.959 . S
H737 C735 0.960 . S
H738 C735 0.961 . S
O739 Co714 1.967 . S
O739 C747 1.258 . S
O740 Co715 1.941 . S
O740 C747 1.266 . S
H741 C743 0.959 . S
H742 C743 0.961 . S
C743 C733 1.510 . S
C743 H741 0.959 . S
C743 H742 0.961 . S
C743 H744 0.960 . S
H744 C743 0.960 . S
H745 N725 0.862 . S
O746 Co714 1.920 . S
O746 C719 1.289 . S
C747 O739 1.258 . S
C747 O740 1.266 . S
Co748 O751 1.970 . S
Co748 N765 1.989 . S
Co748 O773 1.967 . S
Co748 O780 1.920 . S
Co749 O752 1.966 . S
Co749 N758 2.022 . S
Co749 N766 1.993 . S
Co749 O774 1.941 . S
C750 O751 1.258 . S
C750 O752 1.263 . S
O751 Co748 1.970 . S
O751 C750 1.258 . S
O752 Co749 1.966 . S
O752 C750 1.263 . S
C753 O754 1.235 . S
C753 O780 1.289 . S
O754 C753 1.235 . S
C755 C757 1.400 . S
C755 N758 1.351 . S
C755 C760 1.501 . S
C756 C757 1.387 . S
C756 N759 1.341 . S
C757 C755 1.400 . S
C757 C756 1.387 . S
N758 Co749 2.022 . S
N758 C755 1.351 . S
N758 N759 1.365 . S
N759 C756 1.341 . S
N759 N758 1.365 . S
N759 H779 0.862 . S
C760 C755 1.501 . S
C760 H761 0.961 . S
C760 H762 0.961 . S
C760 H763 0.960 . S
H761 C760 0.961 . S
H762 C760 0.961 . S
H763 C760 0.960 . S
C764 N765 1.342 . S
C764 C768 1.401 . S
C764 C769 1.499 . S
N765 Co748 1.989 . S
N765 C764 1.342 . S
N765 N766 1.388 . S
N766 Co749 1.993 . S
N766 N765 1.388 . S
N766 C767 1.346 . S
C767 N766 1.346 . S
C767 C768 1.396 . S
C767 C777 1.510 . S
C768 C764 1.401 . S
C768 C767 1.396 . S
C769 C764 1.499 . S
C769 H770 0.959 . S
C769 H771 0.960 . S
C769 H772 0.961 . S
H770 C769 0.959 . S
H771 C769 0.960 . S
H772 C769 0.961 . S
O773 Co748 1.967 . S
O773 C781 1.258 . S
O774 Co749 1.941 . S
O774 C781 1.266 . S
H775 C777 0.959 . S
H776 C777 0.961 . S
C777 C767 1.510 . S
C777 H775 0.959 . S
C777 H776 0.961 . S
C777 H778 0.960 . S
H778 C777 0.960 . S
H779 N759 0.862 . S
O780 Co748 1.920 . S
O780 C753 1.289 . S
C781 O773 1.258 . S
C781 O774 1.266 . S
Co782 O785 1.970 . S
Co782 N799 1.989 . S
Co782 O807 1.967 . S
Co782 O814 1.920 . S
Co783 O786 1.966 . S
Co783 N792 2.022 . S
Co783 N800 1.993 . S
Co783 O808 1.941 . S
C784 O785 1.258 . S
C784 O786 1.263 . S
O785 Co782 1.970 . S
O785 C784 1.258 . S
O786 Co783 1.966 . S
O786 C784 1.263 . S
C787 O788 1.235 . S
C787 O814 1.289 . S
O788 C787 1.235 . S
C789 C791 1.400 . S
C789 N792 1.351 . S
C789 C794 1.501 . S
C790 C791 1.387 . S
C790 N793 1.341 . S
C791 C789 1.400 . S
C791 C790 1.387 . S
N792 Co783 2.022 . S
N792 C789 1.351 . S
N792 N793 1.365 . S
N793 C790 1.341 . S
N793 N792 1.365 . S
N793 H813 0.862 . S
C794 C789 1.501 . S
C794 H795 0.961 . S
C794 H796 0.961 . S
C794 H797 0.960 . S
H795 C794 0.961 . S
H796 C794 0.961 . S
H797 C794 0.960 . S
C798 N799 1.342 . S
C798 C802 1.401 . S
C798 C803 1.499 . S
N799 Co782 1.989 . S
N799 C798 1.342 . S
N799 N800 1.388 . S
N800 Co783 1.993 . S
N800 N799 1.388 . S
N800 C801 1.346 . S
C801 N800 1.346 . S
C801 C802 1.396 . S
C801 C811 1.510 . S
C802 C798 1.401 . S
C802 C801 1.396 . S
C803 C798 1.499 . S
C803 H804 0.959 . S
C803 H805 0.960 . S
C803 H806 0.961 . S
H804 C803 0.959 . S
H805 C803 0.960 . S
H806 C803 0.961 . S
O807 Co782 1.967 . S
O807 C815 1.258 . S
O808 Co783 1.941 . S
O808 C815 1.266 . S
H809 C811 0.959 . S
H810 C811 0.961 . S
C811 C801 1.510 . S
C811 H809 0.959 . S
C811 H810 0.961 . S
C811 H812 0.960 . S
H812 C811 0.960 . S
H813 N793 0.862 . S
O814 Co782 1.920 . S
O814 C787 1.289 . S
C815 O807 1.258 . S
C815 O808 1.266 . S
H816 C824 0.929 . S
H817 C826 0.930 . S
H818 C828 0.930 . S
H819 C831 0.929 . S
H820 C834 0.930 . S
H821 C836 0.960 . S
H822 C836 0.960 . S
H823 C836 0.960 . S
C824 H816 0.929 . S
C824 C825 1.377 . S
C824 C826 1.384 . S
C825 C824 1.377 . S
C825 C831 1.390 . S
C826 H817 0.930 . S
C826 C824 1.384 . S
C826 C827 1.372 . S
C827 C826 1.372 . S
C827 C828 1.400 . S
C827 C832 1.490 . S
C828 H818 0.930 . S
C828 C827 1.400 . S
C828 C831 1.386 . S
H829 C845 0.930 . S
H830 C846 0.931 . S
C831 H819 0.929 . S
C831 C825 1.390 . S
C831 C828 1.386 . S
C832 C827 1.490 . S
C832 C834 1.395 . S
C832 C835 1.403 . S
H833 C839 0.930 . S
C834 H820 0.930 . S
C834 C832 1.395 . S
C834 C837 1.403 . S
C835 C832 1.403 . S
C835 C836 1.524 . S
C835 C839 1.400 . S
C836 H821 0.960 . S
C836 H822 0.960 . S
C836 H823 0.960 . S
C836 C835 1.524 . S
C837 C834 1.403 . S
C837 C838 1.392 . S
C837 C841 1.495 . S
C838 C837 1.392 . S
C838 C839 1.385 . S
C838 C840 1.478 . S
C839 H833 0.930 . S
C839 C835 1.400 . S
C839 C838 1.385 . S
C840 C838 1.478 . S
C840 C842 1.381 . S
C840 C846 1.383 . S
C841 C837 1.495 . S
C841 H847 0.959 . S
C841 H848 0.961 . S
C841 H849 0.960 . S
C842 C840 1.381 . S
C842 C843 1.394 . S
C842 H850 0.930 . S
C843 C842 1.394 . S
C843 C844 1.383 . S
C843 H851 0.929 . S
C844 C843 1.383 . S
C844 C845 1.377 . S
C845 H829 0.930 . S
C845 C844 1.377 . S
C845 C846 1.379 . S
C846 H830 0.931 . S
C846 C840 1.383 . S
C846 C845 1.379 . S
H847 C841 0.959 . S
H848 C841 0.961 . S
H849 C841 0.960 . S
H850 C842 0.930 . S
H851 C843 0.929 . S
H852 C860 0.929 . S
H853 C862 0.930 . S
H854 C864 0.930 . S
H855 C867 0.929 . S
H856 C870 0.930 . S
H857 C872 0.960 . S
H858 C872 0.960 . S
H859 C872 0.960 . S
C860 H852 0.929 . S
C860 C861 1.377 1_655 S
C860 C862 1.384 . S
C861 C860 1.377 1_455 S
C861 C867 1.390 . S
C862 H853 0.930 . S
C862 C860 1.384 . S
C862 C863 1.372 . S
C863 C862 1.372 . S
C863 C864 1.400 . S
C863 C868 1.490 . S
C864 H854 0.930 . S
C864 C863 1.400 . S
C864 C867 1.386 1_655 S
H865 C881 0.930 . S
H866 C882 0.931 . S
C867 H855 0.929 . S
C867 C861 1.390 . S
C867 C864 1.386 1_455 S
C868 C863 1.490 . S
C868 C870 1.395 . S
C868 C871 1.403 . S
H869 C875 0.930 . S
C870 H856 0.930 . S
C870 C868 1.395 . S
C870 C873 1.403 . S
C871 C868 1.403 . S
C871 C872 1.524 . S
C871 C875 1.400 . S
C872 H857 0.960 . S
C872 H858 0.960 . S
C872 H859 0.960 . S
C872 C871 1.524 . S
C873 C870 1.403 . S
C873 C874 1.392 . S
C873 C877 1.495 . S
C874 C873 1.392 . S
C874 C875 1.385 . S
C874 C876 1.478 . S
C875 H869 0.930 . S
C875 C871 1.400 . S
C875 C874 1.385 . S
C876 C874 1.478 . S
C876 C878 1.381 . S
C876 C882 1.383 . S
C877 C873 1.495 . S
C877 H883 0.959 . S
C877 H884 0.961 . S
C877 H885 0.960 . S
C878 C876 1.381 . S
C878 C879 1.394 . S
C878 H886 0.930 . S
C879 C878 1.394 . S
C879 C880 1.383 . S
C879 H887 0.929 . S
C880 C879 1.383 . S
C880 C881 1.377 . S
C881 H865 0.930 . S
C881 C880 1.377 . S
C881 C882 1.379 . S
C882 H866 0.931 . S
C882 C876 1.383 . S
C882 C881 1.379 . S
H883 C877 0.959 . S
H884 C877 0.961 . S
H885 C877 0.960 . S
H886 C878 0.930 . S
H887 C879 0.929 . S
H888 C896 0.929 . S
H889 C898 0.930 . S
H890 C900 0.930 . S
H891 C903 0.929 . S
H892 C906 0.930 . S
H893 C908 0.960 . S
H894 C908 0.960 . S
H895 C908 0.960 . S
C896 H888 0.929 . S
C896 C897 1.377 . S
C896 C898 1.384 . S
C897 C896 1.377 . S
C897 C903 1.390 . S
C898 H889 0.930 . S
C898 C896 1.384 . S
C898 C899 1.372 . S
C899 C898 1.372 . S
C899 C900 1.400 . S
C899 C904 1.490 . S
C900 H890 0.930 . S
C900 C899 1.400 . S
C900 C903 1.386 . S
H901 C917 0.930 . S
H902 C918 0.931 . S
C903 H891 0.929 . S
C903 C897 1.390 . S
C903 C900 1.386 . S
C904 C899 1.490 . S
C904 C906 1.395 . S
C904 C907 1.403 . S
H905 C911 0.930 . S
C906 H892 0.930 . S
C906 C904 1.395 . S
C906 C909 1.403 . S
C907 C904 1.403 . S
C907 C908 1.524 . S
C907 C911 1.400 . S
C908 H893 0.960 . S
C908 H894 0.960 . S
C908 H895 0.960 . S
C908 C907 1.524 . S
C909 C906 1.403 . S
C909 C910 1.392 . S
C909 C913 1.495 . S
C910 C909 1.392 . S
C910 C911 1.385 . S
C910 C912 1.478 . S
C911 H905 0.930 . S
C911 C907 1.400 . S
C911 C910 1.385 . S
C912 C910 1.478 . S
C912 C914 1.381 . S
C912 C918 1.383 . S
C913 C909 1.495 . S
C913 H919 0.959 . S
C913 H920 0.961 . S
C913 H921 0.960 . S
C914 C912 1.381 . S
C914 C915 1.394 . S
C914 H922 0.930 . S
C915 C914 1.394 . S
C915 C916 1.383 . S
C915 H923 0.929 . S
C916 C915 1.383 . S
C916 C917 1.377 . S
C917 H901 0.930 . S
C917 C916 1.377 . S
C917 C918 1.379 . S
C918 H902 0.931 . S
C918 C912 1.383 . S
C918 C917 1.379 . S
H919 C913 0.959 . S
H920 C913 0.961 . S
H921 C913 0.960 . S
H922 C914 0.930 . S
H923 C915 0.929 . S
H924 C932 0.929 . S
H925 C934 0.930 . S
H926 C936 0.930 . S
H927 C939 0.929 . S
H928 C942 0.930 . S
H929 C944 0.960 . S
H930 C944 0.960 . S
H931 C944 0.960 . S
C932 H924 0.929 . S
C932 C933 1.377 . S
C932 C934 1.384 . S
C933 C932 1.377 . S
C933 C939 1.390 . S
C934 H925 0.930 . S
C934 C932 1.384 . S
C934 C935 1.372 . S
C935 C934 1.372 . S
C935 C936 1.400 . S
C935 C940 1.490 . S
C936 H926 0.930 . S
C936 C935 1.400 . S
C936 C939 1.386 . S
H937 C953 0.930 . S
H938 C954 0.931 . S
C939 H927 0.929 . S
C939 C933 1.390 . S
C939 C936 1.386 . S
C940 C935 1.490 . S
C940 C942 1.395 . S
C940 C943 1.403 . S
H941 C947 0.930 . S
C942 H928 0.930 . S
C942 C940 1.395 . S
C942 C945 1.403 . S
C943 C940 1.403 . S
C943 C944 1.524 . S
C943 C947 1.400 . S
C944 H929 0.960 . S
C944 H930 0.960 . S
C944 H931 0.960 . S
C944 C943 1.524 . S
C945 C942 1.403 . S
C945 C946 1.392 . S
C945 C949 1.495 . S
C946 C945 1.392 . S
C946 C947 1.385 . S
C946 C948 1.478 . S
C947 H941 0.930 . S
C947 C943 1.400 . S
C947 C946 1.385 . S
C948 C946 1.478 . S
C948 C950 1.381 . S
C948 C954 1.383 . S
C949 C945 1.495 . S
C949 H955 0.959 . S
C949 H956 0.961 . S
C949 H957 0.960 . S
C950 C948 1.381 . S
C950 C951 1.394 . S
C950 H958 0.930 . S
C951 C950 1.394 . S
C951 C952 1.383 1_455 S
C951 H959 0.929 1_455 S
C952 C951 1.383 1_655 S
C952 C953 1.377 1_655 S
C953 H937 0.930 . S
C953 C952 1.377 1_455 S
C953 C954 1.379 . S
C954 H938 0.931 . S
C954 C948 1.383 . S
C954 C953 1.379 . S
H955 C949 0.959 . S
H956 C949 0.961 . S
H957 C949 0.960 . S
H958 C950 0.930 . S
H959 C951 0.929 1_655 S
H960 C968 0.929 . S
H961 C970 0.930 . S
H962 C972 0.930 . S
H963 C975 0.929 . S
H964 C978 0.930 . S
H965 C980 0.960 . S
H966 C980 0.960 . S
H967 C980 0.960 . S
C968 H960 0.929 . S
C968 C969 1.377 . S
C968 C970 1.384 . S
C969 C968 1.377 . S
C969 C975 1.390 . S
C970 H961 0.930 . S
C970 C968 1.384 . S
C970 C971 1.372 . S
C971 C970 1.372 . S
C971 C972 1.400 . S
C971 C976 1.490 . S
C972 H962 0.930 . S
C972 C971 1.400 . S
C972 C975 1.386 . S
H973 C989 0.930 . S
H974 C990 0.931 . S
C975 H963 0.929 . S
C975 C969 1.390 . S
C975 C972 1.386 . S
C976 C971 1.490 . S
C976 C978 1.395 . S
C976 C979 1.403 . S
H977 C983 0.930 . S
C978 H964 0.930 . S
C978 C976 1.395 . S
C978 C981 1.403 . S
C979 C976 1.403 . S
C979 C980 1.524 . S
C979 C983 1.400 . S
C980 H965 0.960 . S
C980 H966 0.960 . S
C980 H967 0.960 . S
C980 C979 1.524 . S
C981 C978 1.403 . S
C981 C982 1.392 . S
C981 C985 1.495 . S
C982 C981 1.392 . S
C982 C983 1.385 . S
C982 C984 1.478 . S
C983 H977 0.930 . S
C983 C979 1.400 . S
C983 C982 1.385 . S
C984 C982 1.478 . S
C984 C986 1.381 . S
C984 C990 1.383 . S
C985 C981 1.495 . S
C985 H991 0.959 . S
C985 H992 0.961 . S
C985 H993 0.960 . S
C986 C984 1.381 . S
C986 C987 1.394 . S
C986 H994 0.930 . S
C987 C986 1.394 . S
C987 C988 1.383 . S
C987 H995 0.929 . S
C988 C987 1.383 . S
C988 C989 1.377 . S
C989 H973 0.930 . S
C989 C988 1.377 . S
C989 C990 1.379 . S
C990 H974 0.931 . S
C990 C984 1.383 . S
C990 C989 1.379 . S
H991 C985 0.959 . S
H992 C985 0.961 . S
H993 C985 0.960 . S
H994 C986 0.930 . S
H995 C987 0.929 . S
H996 C1004 0.929 . S
H997 C1006 0.930 . S
H998 C1008 0.930 . S
H999 C1011 0.963 . S
H1000 C1014 0.930 . S
H1001 C1016 0.960 . S
H1002 C1016 0.960 . S
H1003 C1016 0.960 . S
C1004 H996 0.929 . S
C1004 C1005 1.377 1_455 S
C1004 C1006 1.384 . S
C1005 C1004 1.377 1_655 S
C1005 C1011 1.393 . S
C1006 H997 0.930 . S
C1006 C1004 1.384 . S
C1006 C1007 1.372 . S
C1007 C1006 1.372 . S
C1007 C1008 1.400 . S
C1007 C1012 1.490 . S
C1008 H998 0.930 . S
C1008 C1007 1.400 . S
C1008 C1011 1.351 1_455 S
H1009 C1025 0.930 . S
H1010 C1026 0.931 . S
C1011 H999 0.963 . S
C1011 C1005 1.393 . S
C1011 C1008 1.351 1_655 S
C1012 C1007 1.490 . S
C1012 C1014 1.395 . S
C1012 C1015 1.403 . S
H1013 C1019 0.930 . S
C1014 H1000 0.930 . S
C1014 C1012 1.395 . S
C1014 C1017 1.403 . S
C1015 C1012 1.403 . S
C1015 C1016 1.524 . S
C1015 C1019 1.400 . S
C1016 H1001 0.960 . S
C1016 H1002 0.960 . S
C1016 H1003 0.960 . S
C1016 C1015 1.524 . S
C1017 C1014 1.403 . S
C1017 C1018 1.392 . S
C1017 C1021 1.495 . S
C1018 C1017 1.392 . S
C1018 C1019 1.385 . S
C1018 C1020 1.478 . S
C1019 H1013 0.930 . S
C1019 C1015 1.400 . S
C1019 C1018 1.385 . S
C1020 C1018 1.478 . S
C1020 C1022 1.381 . S
C1020 C1026 1.383 . S
C1021 C1017 1.495 . S
C1021 H1027 0.959 . S
C1021 H1028 0.961 . S
C1021 H1029 0.960 . S
C1022 C1020 1.381 . S
C1022 C1023 1.394 . S
C1022 H1030 0.930 . S
C1023 C1022 1.394 . S
C1023 C1024 1.383 . S
C1023 H1031 0.929 . S
C1024 C1023 1.383 . S
C1024 C1025 1.377 . S
C1025 H1009 0.930 . S
C1025 C1024 1.377 . S
C1025 C1026 1.379 . S
C1026 H1010 0.931 . S
C1026 C1020 1.383 . S
C1026 C1025 1.379 . S
H1027 C1021 0.959 . S
H1028 C1021 0.961 . S
H1029 C1021 0.960 . S
H1030 C1022 0.930 . S
H1031 C1023 0.929 . S
H1032 C1040 0.929 . S
H1033 C1042 0.930 . S
H1034 C1044 0.930 . S
H1035 C1047 0.929 . S
H1036 C1050 0.930 . S
H1037 C1052 0.960 . S
H1038 C1052 0.960 . S
H1039 C1052 0.960 . S
C1040 H1032 0.929 . S
C1040 C1041 1.377 . S
C1040 C1042 1.384 . S
C1041 C1040 1.377 . S
C1041 C1047 1.390 . S
C1042 H1033 0.930 . S
C1042 C1040 1.384 . S
C1042 C1043 1.372 . S
C1043 C1042 1.372 . S
C1043 C1044 1.400 . S
C1043 C1048 1.490 . S
C1044 H1034 0.930 . S
C1044 C1043 1.400 . S
C1044 C1047 1.386 . S
H1045 C1061 0.930 . S
H1046 C1062 0.931 . S
C1047 H1035 0.929 . S
C1047 C1041 1.390 . S
C1047 C1044 1.386 . S
C1048 C1043 1.490 . S
C1048 C1050 1.395 . S
C1048 C1051 1.403 . S
H1049 C1055 0.930 . S
C1050 H1036 0.930 . S
C1050 C1048 1.395 . S
C1050 C1053 1.403 . S
C1051 C1048 1.403 . S
C1051 C1052 1.524 . S
C1051 C1055 1.400 . S
C1052 H1037 0.960 . S
C1052 H1038 0.960 . S
C1052 H1039 0.960 . S
C1052 C1051 1.524 . S
C1053 C1050 1.403 . S
C1053 C1054 1.392 . S
C1053 C1057 1.495 . S
C1054 C1053 1.392 . S
C1054 C1055 1.385 . S
C1054 C1056 1.478 . S
C1055 H1049 0.930 . S
C1055 C1051 1.400 . S
C1055 C1054 1.385 . S
C1056 C1054 1.478 . S
C1056 C1058 1.381 . S
C1056 C1062 1.383 . S
C1057 C1053 1.495 . S
C1057 H1063 0.959 . S
C1057 H1064 0.961 . S
C1057 H1065 0.960 . S
C1058 C1056 1.381 . S
C1058 C1059 1.394 . S
C1058 H1066 0.930 . S
C1059 C1058 1.394 . S
C1059 C1060 1.383 . S
C1059 H1067 0.929 . S
C1060 C1059 1.383 . S
C1060 C1061 1.377 . S
C1061 H1045 0.930 . S
C1061 C1060 1.377 . S
C1061 C1062 1.379 . S
C1062 H1046 0.931 . S
C1062 C1056 1.383 . S
C1062 C1061 1.379 . S
H1063 C1057 0.959 . S
H1064 C1057 0.961 . S
H1065 C1057 0.960 . S
H1066 C1058 0.930 . S
H1067 C1059 0.929 . S
H1068 C1076 0.929 . S
H1069 C1078 0.930 . S
H1070 C1080 0.930 . S
H1071 C1083 0.929 . S
H1072 C1086 0.930 . S
H1073 C1088 0.960 . S
H1074 C1088 0.960 . S
H1075 C1088 0.960 . S
C1076 H1068 0.929 . S
C1076 C1077 1.377 . S
C1076 C1078 1.384 1_455 S
C1077 C1076 1.377 . S
C1077 C1083 1.390 1_455 S
C1078 H1069 0.930 . S
C1078 C1076 1.384 1_655 S
C1078 C1079 1.372 . S
C1079 C1078 1.372 . S
C1079 C1080 1.400 . S
C1079 C1084 1.490 . S
C1080 H1070 0.930 . S
C1080 C1079 1.400 . S
C1080 C1083 1.386 . S
H1081 C1097 0.930 . S
H1082 C1098 0.931 . S
C1083 H1071 0.929 . S
C1083 C1077 1.390 1_655 S
C1083 C1080 1.386 . S
C1084 C1079 1.490 . S
C1084 C1086 1.395 . S
C1084 C1087 1.403 . S
H1085 C1091 0.930 . S
C1086 H1072 0.930 . S
C1086 C1084 1.395 . S
C1086 C1089 1.403 . S
C1087 C1084 1.403 . S
C1087 C1088 1.524 . S
C1087 C1091 1.400 . S
C1088 H1073 0.960 . S
C1088 H1074 0.960 . S
C1088 H1075 0.960 . S
C1088 C1087 1.524 . S
C1089 C1086 1.403 . S
C1089 C1090 1.392 . S
C1089 C1093 1.495 . S
C1090 C1089 1.392 . S
C1090 C1091 1.385 . S
C1090 C1092 1.478 . S
C1091 H1085 0.930 . S
C1091 C1087 1.400 . S
C1091 C1090 1.385 . S
C1092 C1090 1.478 . S
C1092 C1094 1.381 . S
C1092 C1098 1.383 . S
C1093 C1089 1.495 . S
C1093 H1099 0.959 . S
C1093 H1100 0.961 . S
C1093 H1101 0.960 . S
C1094 C1092 1.381 . S
C1094 C1095 1.394 . S
C1094 H1102 0.930 . S
C1095 C1094 1.394 . S
C1095 C1096 1.383 . S
C1095 H1103 0.929 . S
C1096 C1095 1.383 . S
C1096 C1097 1.377 . S
C1097 H1081 0.930 . S
C1097 C1096 1.377 . S
C1097 C1098 1.379 . S
C1098 H1082 0.931 . S
C1098 C1092 1.383 . S
C1098 C1097 1.379 . S
H1099 C1093 0.959 . S
H1100 C1093 0.961 . S
H1101 C1093 0.960 . S
H1102 C1094 0.930 . S
H1103 C1095 0.929 . S
H1104 C1112 0.929 . S
H1105 C1114 0.930 . S
H1106 C1116 0.930 . S
H1107 C1119 0.929 . S
H1108 C1122 0.930 . S
H1109 C1124 0.960 . S
H1110 C1124 0.960 . S
H1111 C1124 0.960 . S
C1112 H1104 0.929 . S
C1112 C1113 1.377 . S
C1112 C1114 1.384 . S
C1113 C1112 1.377 . S
C1113 C1119 1.390 . S
C1114 H1105 0.930 . S
C1114 C1112 1.384 . S
C1114 C1115 1.372 . S
C1115 C1114 1.372 . S
C1115 C1116 1.400 . S
C1115 C1120 1.490 . S
C1116 H1106 0.930 . S
C1116 C1115 1.400 . S
C1116 C1119 1.386 . S
H1117 C1133 0.930 . S
H1118 C1134 0.931 . S
C1119 H1107 0.929 . S
C1119 C1113 1.390 . S
C1119 C1116 1.386 . S
C1120 C1115 1.490 . S
C1120 C1122 1.395 . S
C1120 C1123 1.403 . S
H1121 C1127 0.930 . S
C1122 H1108 0.930 . S
C1122 C1120 1.395 . S
C1122 C1125 1.403 . S
C1123 C1120 1.403 . S
C1123 C1124 1.524 . S
C1123 C1127 1.400 . S
C1124 H1109 0.960 . S
C1124 H1110 0.960 . S
C1124 H1111 0.960 . S
C1124 C1123 1.524 . S
C1125 C1122 1.403 . S
C1125 C1126 1.392 . S
C1125 C1129 1.495 . S
C1126 C1125 1.392 . S
C1126 C1127 1.385 . S
C1126 C1128 1.478 . S
C1127 H1121 0.930 . S
C1127 C1123 1.400 . S
C1127 C1126 1.385 . S
C1128 C1126 1.478 . S
C1128 C1130 1.381 . S
C1128 C1134 1.383 . S
C1129 C1125 1.495 . S
C1129 H1135 0.959 . S
C1129 H1136 0.961 . S
C1129 H1137 0.960 . S
C1130 C1128 1.381 . S
C1130 C1131 1.394 . S
C1130 H1138 0.930 . S
C1131 C1130 1.394 . S
C1131 C1132 1.383 . S
C1131 H1139 0.929 . S
C1132 C1131 1.383 . S
C1132 C1133 1.377 . S
C1133 H1117 0.930 . S
C1133 C1132 1.377 . S
C1133 C1134 1.379 . S
C1134 H1118 0.931 . S
C1134 C1128 1.383 . S
C1134 C1133 1.379 . S
H1135 C1129 0.959 . S
H1136 C1129 0.961 . S
H1137 C1129 0.960 . S
H1138 C1130 0.930 . S
H1139 C1131 0.929 . S
H1140 C1148 0.929 . S
H1141 C1150 0.930 . S
H1142 C1152 0.930 . S
H1143 C1155 0.929 . S
H1144 C1158 0.930 . S
H1145 C1160 0.960 . S
H1146 C1160 0.960 . S
H1147 C1160 0.960 . S
C1148 H1140 0.929 . S
C1148 C1149 1.377 . S
C1148 C1150 1.384 . S
C1149 C1148 1.377 . S
C1149 C1155 1.390 . S
C1150 H1141 0.930 . S
C1150 C1148 1.384 . S
C1150 C1151 1.372 . S
C1151 C1150 1.372 . S
C1151 C1152 1.400 . S
C1151 C1156 1.490 . S
C1152 H1142 0.930 . S
C1152 C1151 1.400 . S
C1152 C1155 1.386 . S
H1153 C1169 0.930 . S
H1154 C1170 0.931 . S
C1155 H1143 0.929 . S
C1155 C1149 1.390 . S
C1155 C1152 1.386 . S
C1156 C1151 1.490 . S
C1156 C1158 1.395 . S
C1156 C1159 1.403 . S
H1157 C1163 0.930 . S
C1158 H1144 0.930 . S
C1158 C1156 1.395 . S
C1158 C1161 1.403 . S
C1159 C1156 1.403 . S
C1159 C1160 1.524 . S
C1159 C1163 1.400 . S
C1160 H1145 0.960 . S
C1160 H1146 0.960 . S
C1160 H1147 0.960 . S
C1160 C1159 1.524 . S
C1161 C1158 1.403 . S
C1161 C1162 1.392 . S
C1161 C1165 1.495 . S
C1162 C1161 1.392 . S
C1162 C1163 1.385 . S
C1162 C1164 1.478 . S
C1163 H1157 0.930 . S
C1163 C1159 1.400 . S
C1163 C1162 1.385 . S
C1164 C1162 1.478 . S
C1164 C1166 1.381 . S
C1164 C1170 1.383 . S
C1165 C1161 1.495 . S
C1165 H1171 0.959 . S
C1165 H1172 0.961 . S
C1165 H1173 0.960 . S
C1166 C1164 1.381 . S
C1166 C1167 1.394 . S
C1166 H1174 0.930 . S
C1167 C1166 1.394 . S
C1167 C1168 1.383 1_554 S
C1167 H1175 0.929 . S
C1168 C1167 1.383 1_556 S
C1168 C1169 1.377 . S
C1169 H1153 0.930 . S
C1169 C1168 1.377 . S
C1169 C1170 1.379 1_556 S
C1170 H1154 0.931 . S
C1170 C1164 1.383 . S
C1170 C1169 1.379 1_554 S
H1171 C1165 0.959 . S
H1172 C1165 0.961 . S
H1173 C1165 0.960 . S
H1174 C1166 0.930 . S
H1175 C1167 0.929 . S
H1176 C1184 0.929 . S
H1177 C1186 0.930 . S
H1178 C1188 0.930 . S
H1179 C1191 0.929 . S
H1180 C1194 0.930 . S
H1181 C1196 0.960 . S
H1182 C1196 0.960 . S
H1183 C1196 0.960 . S
C1184 H1176 0.929 . S
C1184 C1185 1.377 . S
C1184 C1186 1.384 . S
C1185 C1184 1.377 . S
C1185 C1191 1.390 . S
C1186 H1177 0.930 . S
C1186 C1184 1.384 . S
C1186 C1187 1.372 . S
C1187 C1186 1.372 . S
C1187 C1188 1.400 . S
C1187 C1192 1.490 . S
C1188 H1178 0.930 . S
C1188 C1187 1.400 . S
C1188 C1191 1.386 . S
H1189 C1205 0.930 . S
H1190 C1206 0.931 . S
C1191 H1179 0.929 . S
C1191 C1185 1.390 . S
C1191 C1188 1.386 . S
C1192 C1187 1.490 . S
C1192 C1194 1.395 . S
C1192 C1195 1.403 . S
H1193 C1199 0.930 . S
C1194 H1180 0.930 . S
C1194 C1192 1.395 . S
C1194 C1197 1.403 . S
C1195 C1192 1.403 . S
C1195 C1196 1.524 . S
C1195 C1199 1.400 . S
C1196 H1181 0.960 . S
C1196 H1182 0.960 . S
C1196 H1183 0.960 . S
C1196 C1195 1.524 . S
C1197 C1194 1.403 . S
C1197 C1198 1.392 . S
C1197 C1201 1.495 . S
C1198 C1197 1.392 . S
C1198 C1199 1.385 . S
C1198 C1200 1.478 . S
C1199 H1193 0.930 . S
C1199 C1195 1.400 . S
C1199 C1198 1.385 . S
C1200 C1198 1.478 . S
C1200 C1202 1.381 . S
C1200 C1206 1.383 . S
C1201 C1197 1.495 . S
C1201 H1207 0.959 . S
C1201 H1208 0.961 . S
C1201 H1209 0.960 . S
C1202 C1200 1.381 . S
C1202 C1203 1.394 . S
C1202 H1210 0.930 . S
C1203 C1202 1.394 . S
C1203 C1204 1.383 . S
C1203 H1211 0.929 . S
C1204 C1203 1.383 . S
C1204 C1205 1.377 . S
C1205 H1189 0.930 . S
C1205 C1204 1.377 . S
C1205 C1206 1.379 . S
C1206 H1190 0.931 . S
C1206 C1200 1.383 . S
C1206 C1205 1.379 . S
H1207 C1201 0.959 . S
H1208 C1201 0.961 . S
H1209 C1201 0.960 . S
H1210 C1202 0.930 . S
H1211 C1203 0.929 . S
H1212 C1220 0.929 . S
H1213 C1222 0.930 . S
H1214 C1224 0.930 . S
H1215 C1227 0.929 . S
H1216 C1230 0.930 . S
H1217 C1232 0.960 . S
H1218 C1232 0.960 . S
H1219 C1232 0.960 . S
C1220 H1212 0.929 . S
C1220 C1221 1.377 1_554 S
C1220 C1222 1.384 . S
C1221 C1220 1.377 1_556 S
C1221 C1227 1.390 . S
C1222 H1213 0.930 . S
C1222 C1220 1.384 . S
C1222 C1223 1.372 . S
C1223 C1222 1.372 . S
C1223 C1224 1.400 . S
C1223 C1228 1.490 . S
C1224 H1214 0.930 . S
C1224 C1223 1.400 . S
C1224 C1227 1.386 1_554 S
H1225 C1241 0.930 . S
H1226 C1242 0.931 . S
C1227 H1215 0.929 . S
C1227 C1221 1.390 . S
C1227 C1224 1.386 1_556 S
C1228 C1223 1.490 . S
C1228 C1230 1.395 . S
C1228 C1231 1.403 . S
H1229 C1235 0.930 . S
C1230 H1216 0.930 . S
C1230 C1228 1.395 . S
C1230 C1233 1.403 . S
C1231 C1228 1.403 . S
C1231 C1232 1.524 . S
C1231 C1235 1.400 . S
C1232 H1217 0.960 . S
C1232 H1218 0.960 . S
C1232 H1219 0.960 . S
C1232 C1231 1.524 . S
C1233 C1230 1.403 . S
C1233 C1234 1.392 . S
C1233 C1237 1.495 . S
C1234 C1233 1.392 . S
C1234 C1235 1.385 . S
C1234 C1236 1.478 . S
C1235 H1229 0.930 . S
C1235 C1231 1.400 . S
C1235 C1234 1.385 . S
C1236 C1234 1.478 . S
C1236 C1238 1.381 . S
C1236 C1242 1.383 . S
C1237 C1233 1.495 . S
C1237 H1243 0.959 . S
C1237 H1244 0.961 . S
C1237 H1245 0.960 . S
C1238 C1236 1.381 . S
C1238 C1239 1.394 . S
C1238 H1246 0.930 . S
C1239 C1238 1.394 . S
C1239 C1240 1.383 . S
C1239 H1247 0.929 . S
C1240 C1239 1.383 . S
C1240 C1241 1.377 . S
C1241 H1225 0.930 . S
C1241 C1240 1.377 . S
C1241 C1242 1.379 . S
C1242 H1226 0.931 . S
C1242 C1236 1.383 . S
C1242 C1241 1.379 . S
H1243 C1237 0.959 . S
H1244 C1237 0.961 . S
H1245 C1237 0.960 . S
H1246 C1238 0.930 . S
H1247 C1239 0.929 . S
H1248 C1256 0.929 . S
H1249 C1258 0.930 . S
H1250 C1260 0.930 . S
H1251 C1263 0.929 . S
H1252 C1266 0.930 . S
H1253 C1268 0.960 . S
H1254 C1268 0.960 . S
H1255 C1268 0.960 . S
C1256 H1248 0.929 . S
C1256 C1257 1.377 . S
C1256 C1258 1.384 . S
C1257 C1256 1.377 . S
C1257 C1263 1.390 . S
C1258 H1249 0.930 . S
C1258 C1256 1.384 . S
C1258 C1259 1.372 . S
C1259 C1258 1.372 . S
C1259 C1260 1.400 . S
C1259 C1264 1.490 . S
C1260 H1250 0.930 . S
C1260 C1259 1.400 . S
C1260 C1263 1.386 . S
H1261 C1277 0.930 . S
H1262 C1278 0.931 . S
C1263 H1251 0.929 . S
C1263 C1257 1.390 . S
C1263 C1260 1.386 . S
C1264 C1259 1.490 . S
C1264 C1266 1.395 . S
C1264 C1267 1.403 . S
H1265 C1271 0.930 . S
C1266 H1252 0.930 . S
C1266 C1264 1.395 . S
C1266 C1269 1.403 . S
C1267 C1264 1.403 . S
C1267 C1268 1.524 . S
C1267 C1271 1.400 . S
C1268 H1253 0.960 . S
C1268 H1254 0.960 . S
C1268 H1255 0.960 . S
C1268 C1267 1.524 . S
C1269 C1266 1.403 . S
C1269 C1270 1.392 . S
C1269 C1273 1.495 . S
C1270 C1269 1.392 . S
C1270 C1271 1.385 . S
C1270 C1272 1.478 . S
C1271 H1265 0.930 . S
C1271 C1267 1.400 . S
C1271 C1270 1.385 . S
C1272 C1270 1.478 . S
C1272 C1274 1.381 . S
C1272 C1278 1.383 . S
C1273 C1269 1.495 . S
C1273 H1279 0.959 . S
C1273 H1280 0.961 . S
C1273 H1281 0.960 . S
C1274 C1272 1.381 . S
C1274 C1275 1.394 . S
C1274 H1282 0.930 . S
C1275 C1274 1.394 . S
C1275 C1276 1.383 . S
C1275 H1283 0.929 . S
C1276 C1275 1.383 . S
C1276 C1277 1.377 . S
C1277 H1261 0.930 . S
C1277 C1276 1.377 . S
C1277 C1278 1.379 . S
C1278 H1262 0.931 . S
C1278 C1272 1.383 . S
C1278 C1277 1.379 . S
H1279 C1273 0.959 . S
H1280 C1273 0.961 . S
H1281 C1273 0.960 . S
H1282 C1274 0.930 . S
H1283 C1275 0.929 . S
H1284 C1292 0.929 . S
H1285 C1294 0.930 . S
H1286 C1296 0.930 . S
H1287 C1299 0.929 . S
H1288 C1302 0.930 . S
H1289 C1304 0.960 . S
H1290 C1304 0.960 . S
H1291 C1304 0.960 . S
C1292 H1284 0.929 . S
C1292 C1293 1.377 . S
C1292 C1294 1.384 . S
C1293 C1292 1.377 . S
C1293 C1299 1.390 . S
C1294 H1285 0.930 . S
C1294 C1292 1.384 . S
C1294 C1295 1.372 . S
C1295 C1294 1.372 . S
C1295 C1296 1.400 . S
C1295 C1300 1.490 . S
C1296 H1286 0.930 . S
C1296 C1295 1.400 . S
C1296 C1299 1.386 . S
H1297 C1313 0.930 . S
H1298 C1314 0.931 . S
C1299 H1287 0.929 . S
C1299 C1293 1.390 . S
C1299 C1296 1.386 . S
C1300 C1295 1.490 . S
C1300 C1302 1.395 . S
C1300 C1303 1.403 . S
H1301 C1307 0.930 . S
C1302 H1288 0.930 . S
C1302 C1300 1.395 . S
C1302 C1305 1.403 . S
C1303 C1300 1.403 . S
C1303 C1304 1.524 . S
C1303 C1307 1.400 . S
C1304 H1289 0.960 . S
C1304 H1290 0.960 . S
C1304 H1291 0.960 . S
C1304 C1303 1.524 . S
C1305 C1302 1.403 . S
C1305 C1306 1.392 . S
C1305 C1309 1.495 . S
C1306 C1305 1.392 . S
C1306 C1307 1.385 . S
C1306 C1308 1.478 . S
C1307 H1301 0.930 . S
C1307 C1303 1.400 . S
C1307 C1306 1.385 . S
C1308 C1306 1.478 . S
C1308 C1310 1.381 . S
C1308 C1314 1.383 . S
C1309 C1305 1.495 . S
C1309 H1315 0.959 . S
C1309 H1316 0.961 . S
C1309 H1317 0.960 . S
C1310 C1308 1.381 . S
C1310 C1311 1.394 1_556 S
C1310 H1318 0.930 . S
C1311 C1310 1.394 1_554 S
C1311 C1312 1.383 . S
C1311 H1319 0.929 . S
C1312 C1311 1.383 . S
C1312 C1313 1.377 1_554 S
C1313 H1297 0.930 . S
C1313 C1312 1.377 1_556 S
C1313 C1314 1.379 . S
C1314 H1298 0.931 . S
C1314 C1308 1.383 . S
C1314 C1313 1.379 . S
H1315 C1309 0.959 . S
H1316 C1309 0.961 . S
H1317 C1309 0.960 . S
H1318 C1310 0.930 . S
H1319 C1311 0.929 . S
H1320 C1328 0.929 . S
H1321 C1330 0.930 . S
H1322 C1332 0.930 . S
H1323 C1335 0.929 . S
H1324 C1338 0.930 . S
H1325 C1340 0.960 . S
H1326 C1340 0.960 . S
H1327 C1340 0.960 . S
C1328 H1320 0.929 . S
C1328 C1329 1.377 . S
C1328 C1330 1.384 . S
C1329 C1328 1.377 . S
C1329 C1335 1.390 . S
C1330 H1321 0.930 . S
C1330 C1328 1.384 . S
C1330 C1331 1.372 . S
C1331 C1330 1.372 . S
C1331 C1332 1.400 . S
C1331 C1336 1.490 . S
C1332 H1322 0.930 . S
C1332 C1331 1.400 . S
C1332 C1335 1.386 . S
H1333 C1349 0.930 . S
H1334 C1350 0.931 . S
C1335 H1323 0.929 . S
C1335 C1329 1.390 . S
C1335 C1332 1.386 . S
C1336 C1331 1.490 . S
C1336 C1338 1.395 . S
C1336 C1339 1.403 . S
H1337 C1343 0.930 . S
C1338 H1324 0.930 . S
C1338 C1336 1.395 . S
C1338 C1341 1.403 . S
C1339 C1336 1.403 . S
C1339 C1340 1.524 . S
C1339 C1343 1.400 . S
C1340 H1325 0.960 . S
C1340 H1326 0.960 . S
C1340 H1327 0.960 . S
C1340 C1339 1.524 . S
C1341 C1338 1.403 . S
C1341 C1342 1.392 . S
C1341 C1345 1.495 . S
C1342 C1341 1.392 . S
C1342 C1343 1.385 . S
C1342 C1344 1.478 . S
C1343 H1337 0.930 . S
C1343 C1339 1.400 . S
C1343 C1342 1.385 . S
C1344 C1342 1.478 . S
C1344 C1346 1.381 . S
C1344 C1350 1.383 . S
C1345 C1341 1.495 . S
C1345 H1351 0.959 . S
C1345 H1352 0.961 . S
C1345 H1353 0.960 . S
C1346 C1344 1.381 . S
C1346 C1347 1.394 . S
C1346 H1354 0.930 . S
C1347 C1346 1.394 . S
C1347 C1348 1.383 . S
C1347 H1355 0.929 . S
C1348 C1347 1.383 . S
C1348 C1349 1.377 . S
C1349 H1333 0.930 . S
C1349 C1348 1.377 . S
C1349 C1350 1.379 . S
C1350 H1334 0.931 . S
C1350 C1344 1.383 . S
C1350 C1349 1.379 . S
H1351 C1345 0.959 . S
H1352 C1345 0.961 . S
H1353 C1345 0.960 . S
H1354 C1346 0.930 . S
H1355 C1347 0.929 . S
H1356 C1364 0.929 . S
H1357 C1366 0.930 . S
H1358 C1368 0.930 . S
H1359 C1371 0.929 . S
H1360 C1374 0.930 . S
H1361 C1376 0.960 . S
H1362 C1376 0.960 . S
H1363 C1376 0.960 . S
C1364 H1356 0.929 . S
C1364 C1365 1.377 1_556 S
C1364 C1366 1.384 . S
C1365 C1364 1.377 1_554 S
C1365 C1371 1.390 . S
C1366 H1357 0.930 . S
C1366 C1364 1.384 . S
C1366 C1367 1.372 . S
C1367 C1366 1.372 . S
C1367 C1368 1.400 . S
C1367 C1372 1.490 . S
C1368 H1358 0.930 . S
C1368 C1367 1.400 . S
C1368 C1371 1.386 1_556 S
H1369 C1385 0.930 . S
H1370 C1386 0.931 . S
C1371 H1359 0.929 . S
C1371 C1365 1.390 . S
C1371 C1368 1.386 1_554 S
C1372 C1367 1.490 . S
C1372 C1374 1.395 . S
C1372 C1375 1.403 . S
H1373 C1379 0.930 . S
C1374 H1360 0.930 . S
C1374 C1372 1.395 . S
C1374 C1377 1.403 . S
C1375 C1372 1.403 . S
C1375 C1376 1.524 . S
C1375 C1379 1.400 . S
C1376 H1361 0.960 . S
C1376 H1362 0.960 . S
C1376 H1363 0.960 . S
C1376 C1375 1.524 . S
C1377 C1374 1.403 . S
C1377 C1378 1.392 . S
C1377 C1381 1.495 . S
C1378 C1377 1.392 . S
C1378 C1379 1.385 . S
C1378 C1380 1.478 . S
C1379 H1373 0.930 . S
C1379 C1375 1.400 . S
C1379 C1378 1.385 . S
C1380 C1378 1.478 . S
C1380 C1382 1.381 . S
C1380 C1386 1.383 . S
C1381 C1377 1.495 . S
C1381 H1387 0.959 . S
C1381 H1388 0.961 . S
C1381 H1389 0.960 . S
C1382 C1380 1.381 . S
C1382 C1383 1.394 . S
C1382 H1390 0.930 . S
C1383 C1382 1.394 . S
C1383 C1384 1.383 . S
C1383 H1391 0.929 . S
C1384 C1383 1.383 . S
C1384 C1385 1.377 . S
C1385 H1369 0.930 . S
C1385 C1384 1.377 . S
C1385 C1386 1.379 . S
C1386 H1370 0.931 . S
C1386 C1380 1.383 . S
C1386 C1385 1.379 . S
H1387 C1381 0.959 . S
H1388 C1381 0.961 . S
H1389 C1381 0.960 . S
H1390 C1382 0.930 . S
H1391 C1383 0.929 . S
H1392 C1400 0.929 . S
H1393 C1402 0.930 . S
H1394 C1404 0.930 . S
H1395 C1407 0.929 . S
H1396 C1410 0.930 . S
H1397 C1412 0.960 . S
H1398 C1412 0.960 . S
H1399 C1412 0.960 . S
C1400 H1392 0.929 . S
C1400 C1401 1.377 . S
C1400 C1402 1.384 . S
C1401 C1400 1.377 . S
C1401 C1407 1.390 . S
C1402 H1393 0.930 . S
C1402 C1400 1.384 . S
C1402 C1403 1.372 . S
C1403 C1402 1.372 . S
C1403 C1404 1.400 . S
C1403 C1408 1.490 . S
C1404 H1394 0.930 . S
C1404 C1403 1.400 . S
C1404 C1407 1.386 . S
H1405 C1421 0.930 . S
H1406 C1422 0.931 . S
C1407 H1395 0.929 . S
C1407 C1401 1.390 . S
C1407 C1404 1.386 . S
C1408 C1403 1.490 . S
C1408 C1410 1.395 . S
C1408 C1411 1.403 . S
H1409 C1415 0.930 . S
C1410 H1396 0.930 . S
C1410 C1408 1.395 . S
C1410 C1413 1.403 . S
C1411 C1408 1.403 . S
C1411 C1412 1.524 . S
C1411 C1415 1.400 . S
C1412 H1397 0.960 . S
C1412 H1398 0.960 . S
C1412 H1399 0.960 . S
C1412 C1411 1.524 . S
C1413 C1410 1.403 . S
C1413 C1414 1.392 . S
C1413 C1417 1.495 . S
C1414 C1413 1.392 . S
C1414 C1415 1.385 . S
C1414 C1416 1.478 . S
C1415 H1409 0.930 . S
C1415 C1411 1.400 . S
C1415 C1414 1.385 . S
C1416 C1414 1.478 . S
C1416 C1418 1.381 . S
C1416 C1422 1.383 . S
C1417 C1413 1.495 . S
C1417 H1423 0.959 . S
C1417 H1424 0.961 . S
C1417 H1425 0.960 . S
C1418 C1416 1.381 . S
C1418 C1419 1.394 . S
C1418 H1426 0.930 . S
C1419 C1418 1.394 . S
C1419 C1420 1.383 . S
C1419 H1427 0.929 . S
C1420 C1419 1.383 . S
C1420 C1421 1.377 . S
C1421 H1405 0.930 . S
C1421 C1420 1.377 . S
C1421 C1422 1.379 . S
C1422 H1406 0.931 . S
C1422 C1416 1.383 . S
C1422 C1421 1.379 . S
H1423 C1417 0.959 . S
H1424 C1417 0.961 . S
H1425 C1417 0.960 . S
H1426 C1418 0.930 . S
H1427 C1419 0.929 . S
H1428 C1436 0.929 . S
H1429 C1438 0.930 . S
H1430 C1440 0.930 . S
H1431 C1443 0.929 . S
H1432 C1446 0.930 . S
H1433 C1448 0.960 . S
H1434 C1448 0.960 . S
H1435 C1448 0.960 . S
C1436 H1428 0.929 . S
C1436 C1437 1.377 . S
C1436 C1438 1.384 . S
C1437 C1436 1.377 . S
C1437 C1443 1.390 . S
C1438 H1429 0.930 . S
C1438 C1436 1.384 . S
C1438 C1439 1.372 . S
C1439 C1438 1.372 . S
C1439 C1440 1.400 . S
C1439 C1444 1.490 . S
C1440 H1430 0.930 . S
C1440 C1439 1.400 . S
C1440 C1443 1.386 . S
H1441 C1457 0.930 . S
H1442 C1458 0.931 . S
C1443 H1431 0.929 . S
C1443 C1437 1.390 . S
C1443 C1440 1.386 . S
C1444 C1439 1.490 . S
C1444 C1446 1.395 . S
C1444 C1447 1.403 . S
H1445 C1451 0.930 . S
C1446 H1432 0.930 . S
C1446 C1444 1.395 . S
C1446 C1449 1.403 . S
C1447 C1444 1.403 . S
C1447 C1448 1.524 . S
C1447 C1451 1.400 . S
C1448 H1433 0.960 . S
C1448 H1434 0.960 . S
C1448 H1435 0.960 . S
C1448 C1447 1.524 . S
C1449 C1446 1.403 . S
C1449 C1450 1.392 . S
C1449 C1453 1.495 . S
C1450 C1449 1.392 . S
C1450 C1451 1.385 . S
C1450 C1452 1.478 . S
C1451 H1445 0.930 . S
C1451 C1447 1.400 . S
C1451 C1450 1.385 . S
C1452 C1450 1.478 . S
C1452 C1454 1.381 . S
C1452 C1458 1.383 . S
C1453 C1449 1.495 . S
C1453 H1459 0.959 . S
C1453 H1460 0.961 . S
C1453 H1461 0.960 . S
C1454 C1452 1.381 . S
C1454 C1455 1.394 . S
C1454 H1462 0.930 . S
C1455 C1454 1.394 . S
C1455 C1456 1.383 . S
C1455 H1463 0.929 . S
C1456 C1455 1.383 . S
C1456 C1457 1.377 . S
C1457 H1441 0.930 . S
C1457 C1456 1.377 . S
C1457 C1458 1.379 . S
C1458 H1442 0.931 . S
C1458 C1452 1.383 . S
C1458 C1457 1.379 . S
H1459 C1453 0.959 . S
H1460 C1453 0.961 . S
H1461 C1453 0.960 . S
H1462 C1454 0.930 . S
H1463 C1455 0.929 . S
H1464 C1472 0.929 . S
H1465 C1474 0.930 . S
H1466 C1476 0.930 . S
H1467 C1479 0.929 . S
H1468 C1482 0.930 . S
H1469 C1484 0.960 . S
H1470 C1484 0.960 . S
H1471 C1484 0.960 . S
C1472 H1464 0.929 . S
C1472 C1473 1.377 1_545 S
C1472 C1474 1.384 . S
C1473 C1472 1.377 1_565 S
C1473 C1479 1.390 . S
C1474 H1465 0.930 . S
C1474 C1472 1.384 . S
C1474 C1475 1.372 . S
C1475 C1474 1.372 . S
C1475 C1476 1.400 . S
C1475 C1480 1.490 . S
C1476 H1466 0.930 . S
C1476 C1475 1.400 . S
C1476 C1479 1.386 1_545 S
H1477 C1493 0.930 . S
H1478 C1494 0.931 . S
C1479 H1467 0.929 . S
C1479 C1473 1.390 . S
C1479 C1476 1.386 1_565 S
C1480 C1475 1.490 . S
C1480 C1482 1.395 . S
C1480 C1483 1.403 . S
H1481 C1487 0.930 . S
C1482 H1468 0.930 . S
C1482 C1480 1.395 . S
C1482 C1485 1.403 . S
C1483 C1480 1.403 . S
C1483 C1484 1.524 . S
C1483 C1487 1.400 . S
C1484 H1469 0.960 . S
C1484 H1470 0.960 . S
C1484 H1471 0.960 . S
C1484 C1483 1.524 . S
C1485 C1482 1.403 . S
C1485 C1486 1.392 . S
C1485 C1489 1.495 . S
C1486 C1485 1.392 . S
C1486 C1487 1.385 . S
C1486 C1488 1.478 . S
C1487 H1481 0.930 . S
C1487 C1483 1.400 . S
C1487 C1486 1.385 . S
C1488 C1486 1.478 . S
C1488 C1490 1.381 . S
C1488 C1494 1.383 . S
C1489 C1485 1.495 . S
C1489 H1495 0.959 . S
C1489 H1496 0.961 . S
C1489 H1497 0.960 . S
C1490 C1488 1.381 . S
C1490 C1491 1.394 . S
C1490 H1498 0.930 . S
C1491 C1490 1.394 . S
C1491 C1492 1.383 . S
C1491 H1499 0.929 . S
C1492 C1491 1.383 . S
C1492 C1493 1.377 . S
C1493 H1477 0.930 . S
C1493 C1492 1.377 . S
C1493 C1494 1.379 . S
C1494 H1478 0.931 . S
C1494 C1488 1.383 . S
C1494 C1493 1.379 . S
H1495 C1489 0.959 . S
H1496 C1489 0.961 . S
H1497 C1489 0.960 . S
H1498 C1490 0.930 . S
H1499 C1491 0.929 . S
H1500 C1508 0.929 . S
H1501 C1510 0.930 . S
H1502 C1512 0.930 . S
H1503 C1515 0.929 . S
H1504 C1518 0.930 . S
H1505 C1520 0.960 . S
H1506 C1520 0.960 . S
H1507 C1520 0.960 . S
C1508 H1500 0.929 . S
C1508 C1509 1.377 . S
C1508 C1510 1.384 . S
C1509 C1508 1.377 . S
C1509 C1515 1.390 . S
C1510 H1501 0.930 . S
C1510 C1508 1.384 . S
C1510 C1511 1.372 . S
C1511 C1510 1.372 . S
C1511 C1512 1.400 . S
C1511 C1516 1.490 . S
C1512 H1502 0.930 . S
C1512 C1511 1.400 . S
C1512 C1515 1.386 . S
H1513 C1529 0.930 . S
H1514 C1530 0.931 . S
C1515 H1503 0.929 . S
C1515 C1509 1.390 . S
C1515 C1512 1.386 . S
C1516 C1511 1.490 . S
C1516 C1518 1.395 . S
C1516 C1519 1.403 . S
H1517 C1523 0.930 . S
C1518 H1504 0.930 . S
C1518 C1516 1.395 . S
C1518 C1521 1.403 . S
C1519 C1516 1.403 . S
C1519 C1520 1.524 . S
C1519 C1523 1.400 . S
C1520 H1505 0.960 . S
C1520 H1506 0.960 . S
C1520 H1507 0.960 . S
C1520 C1519 1.524 . S
C1521 C1518 1.403 . S
C1521 C1522 1.392 . S
C1521 C1525 1.495 . S
C1522 C1521 1.392 . S
C1522 C1523 1.385 . S
C1522 C1524 1.478 . S
C1523 H1517 0.930 . S
C1523 C1519 1.400 . S
C1523 C1522 1.385 . S
C1524 C1522 1.478 . S
C1524 C1526 1.381 . S
C1524 C1530 1.383 . S
C1525 C1521 1.495 . S
C1525 H1531 0.959 . S
C1525 H1532 0.961 . S
C1525 H1533 0.960 . S
C1526 C1524 1.381 . S
C1526 C1527 1.394 . S
C1526 H1534 0.930 . S
C1527 C1526 1.394 . S
C1527 C1528 1.383 . S
C1527 H1535 0.929 . S
C1528 C1527 1.383 . S
C1528 C1529 1.377 . S
C1529 H1513 0.930 . S
C1529 C1528 1.377 . S
C1529 C1530 1.379 . S
C1530 H1514 0.931 . S
C1530 C1524 1.383 . S
C1530 C1529 1.379 . S
H1531 C1525 0.959 . S
H1532 C1525 0.961 . S
H1533 C1525 0.960 . S
H1534 C1526 0.930 . S
H1535 C1527 0.929 . S
H1536 C1544 0.918 1_545 S
H1537 C1546 0.930 . S
H1538 C1548 0.930 . S
H1539 C1551 0.929 . S
H1540 C1554 0.930 . S
H1541 C1556 0.960 . S
H1542 C1556 0.960 . S
H1543 C1556 0.960 . S
C1544 H1536 0.918 1_565 S
C1544 C1545 1.375 1_565 S
C1544 C1546 1.398 . S
C1545 C1544 1.375 1_545 S
C1545 C1551 1.390 1_545 S
C1546 H1537 0.930 . S
C1546 C1544 1.398 . S
C1546 C1547 1.372 . S
C1547 C1546 1.372 . S
C1547 C1548 1.400 . S
C1547 C1552 1.490 . S
C1548 H1538 0.930 . S
C1548 C1547 1.400 . S
C1548 C1551 1.386 . S
H1549 C1565 0.930 . S
H1550 C1566 0.931 . S
C1551 H1539 0.929 . S
C1551 C1545 1.390 1_565 S
C1551 C1548 1.386 . S
C1552 C1547 1.490 . S
C1552 C1554 1.395 . S
C1552 C1555 1.403 . S
H1553 C1559 0.930 . S
C1554 H1540 0.930 . S
C1554 C1552 1.395 . S
C1554 C1557 1.403 . S
C1555 C1552 1.403 . S
C1555 C1556 1.524 . S
C1555 C1559 1.400 . S
C1556 H1541 0.960 . S
C1556 H1542 0.960 . S
C1556 H1543 0.960 . S
C1556 C1555 1.524 . S
C1557 C1554 1.403 . S
C1557 C1558 1.392 . S
C1557 C1561 1.495 . S
C1558 C1557 1.392 . S
C1558 C1559 1.385 . S
C1558 C1560 1.478 . S
C1559 H1553 0.930 . S
C1559 C1555 1.400 . S
C1559 C1558 1.385 . S
C1560 C1558 1.478 . S
C1560 C1562 1.381 . S
C1560 C1566 1.383 . S
C1561 C1557 1.495 . S
C1561 H1567 0.959 . S
C1561 H1568 0.961 . S
C1561 H1569 0.960 . S
C1562 C1560 1.381 . S
C1562 C1563 1.394 . S
C1562 H1570 0.930 . S
C1563 C1562 1.394 . S
C1563 C1564 1.383 . S
C1563 H1571 0.929 . S
C1564 C1563 1.383 . S
C1564 C1565 1.377 . S
C1565 H1549 0.930 . S
C1565 C1564 1.377 . S
C1565 C1566 1.379 . S
C1566 H1550 0.931 . S
C1566 C1560 1.383 . S
C1566 C1565 1.379 . S
H1567 C1561 0.959 . S
H1568 C1561 0.961 . S
H1569 C1561 0.960 . S
H1570 C1562 0.930 . S
H1571 C1563 0.929 . S
H1572 C1580 0.929 . S
H1573 C1582 0.930 . S
H1574 C1584 0.930 . S
H1575 C1587 0.929 . S
H1576 C1590 0.930 . S
H1577 C1592 0.960 . S
H1578 C1592 0.960 . S
H1579 C1592 0.960 . S
C1580 H1572 0.929 . S
C1580 C1581 1.377 . S
C1580 C1582 1.384 . S
C1581 C1580 1.377 . S
C1581 C1587 1.390 . S
C1582 H1573 0.930 . S
C1582 C1580 1.384 . S
C1582 C1583 1.372 . S
C1583 C1582 1.372 . S
C1583 C1584 1.400 . S
C1583 C1588 1.490 . S
C1584 H1574 0.930 . S
C1584 C1583 1.400 . S
C1584 C1587 1.386 . S
H1585 C1601 0.930 . S
H1586 C1602 0.931 . S
C1587 H1575 0.929 . S
C1587 C1581 1.390 . S
C1587 C1584 1.386 . S
C1588 C1583 1.490 . S
C1588 C1590 1.395 . S
C1588 C1591 1.403 . S
H1589 C1595 0.930 . S
C1590 H1576 0.930 . S
C1590 C1588 1.395 . S
C1590 C1593 1.403 . S
C1591 C1588 1.403 . S
C1591 C1592 1.524 . S
C1591 C1595 1.400 . S
C1592 H1577 0.960 . S
C1592 H1578 0.960 . S
C1592 H1579 0.960 . S
C1592 C1591 1.524 . S
C1593 C1590 1.403 . S
C1593 C1594 1.392 . S
C1593 C1597 1.495 . S
C1594 C1593 1.392 . S
C1594 C1595 1.385 . S
C1594 C1596 1.478 . S
C1595 H1589 0.930 . S
C1595 C1591 1.400 . S
C1595 C1594 1.385 . S
C1596 C1594 1.478 . S
C1596 C1598 1.381 . S
C1596 C1602 1.383 . S
C1597 C1593 1.495 . S
C1597 H1603 0.959 . S
C1597 H1604 0.961 . S
C1597 H1605 0.960 . S
C1598 C1596 1.381 . S
C1598 C1599 1.394 . S
C1598 H1606 0.930 . S
C1599 C1598 1.394 . S
C1599 C1600 1.383 . S
C1599 H1607 0.929 . S
C1600 C1599 1.383 . S
C1600 C1601 1.377 . S
C1601 H1585 0.930 . S
C1601 C1600 1.377 . S
C1601 C1602 1.379 . S
C1602 H1586 0.931 . S
C1602 C1596 1.383 . S
C1602 C1601 1.379 . S
H1603 C1597 0.959 . S
H1604 C1597 0.961 . S
H1605 C1597 0.960 . S
H1606 C1598 0.930 . S
H1607 C1599 0.929 . S
H1608 C1616 0.929 . S
H1609 C1618 0.930 . S
H1610 C1620 0.930 . S
H1611 C1623 0.929 . S
H1612 C1626 0.930 . S
H1613 C1628 0.960 . S
H1614 C1628 0.960 . S
H1615 C1628 0.960 . S
C1616 H1608 0.929 . S
C1616 C1617 1.377 . S
C1616 C1618 1.384 1_545 S
C1617 C1616 1.377 . S
C1617 C1623 1.390 1_545 S
C1618 H1609 0.930 . S
C1618 C1616 1.384 1_565 S
C1618 C1619 1.372 . S
C1619 C1618 1.372 . S
C1619 C1620 1.400 . S
C1619 C1624 1.490 . S
C1620 H1610 0.930 . S
C1620 C1619 1.400 . S
C1620 C1623 1.386 . S
H1621 C1637 0.930 . S
H1622 C1638 0.931 . S
C1623 H1611 0.929 . S
C1623 C1617 1.390 1_565 S
C1623 C1620 1.386 . S
C1624 C1619 1.490 . S
C1624 C1626 1.395 . S
C1624 C1627 1.403 . S
H1625 C1631 0.930 . S
C1626 H1612 0.930 . S
C1626 C1624 1.395 . S
C1626 C1629 1.403 . S
C1627 C1624 1.403 . S
C1627 C1628 1.524 . S
C1627 C1631 1.400 . S
C1628 H1613 0.960 . S
C1628 H1614 0.960 . S
C1628 H1615 0.960 . S
C1628 C1627 1.524 . S
C1629 C1626 1.403 . S
C1629 C1630 1.392 . S
C1629 C1633 1.495 . S
C1630 C1629 1.392 . S
C1630 C1631 1.385 . S
C1630 C1632 1.478 . S
C1631 H1625 0.930 . S
C1631 C1627 1.400 . S
C1631 C1630 1.385 . S
C1632 C1630 1.478 . S
C1632 C1634 1.381 . S
C1632 C1638 1.383 . S
C1633 C1629 1.495 . S
C1633 H1639 0.959 . S
C1633 H1640 0.961 . S
C1633 H1641 0.960 . S
C1634 C1632 1.381 . S
C1634 C1635 1.394 . S
C1634 H1642 0.930 . S
C1635 C1634 1.394 . S
C1635 C1636 1.383 . S
C1635 H1643 0.929 . S
C1636 C1635 1.383 . S
C1636 C1637 1.377 . S
C1637 H1621 0.930 . S
C1637 C1636 1.377 . S
C1637 C1638 1.379 . S
C1638 H1622 0.931 . S
C1638 C1632 1.383 . S
C1638 C1637 1.379 . S
H1639 C1633 0.959 . S
H1640 C1633 0.961 . S
H1641 C1633 0.960 . S
H1642 C1634 0.930 . S
H1643 C1635 0.929 . S
H1644 C1652 0.929 1_565 S
H1645 C1654 0.930 . S
H1646 C1656 0.930 . S
H1647 C1659 0.929 . S
H1648 C1662 0.930 . S
H1649 C1664 0.960 . S
H1650 C1664 0.960 . S
H1651 C1664 0.960 . S
C1652 H1644 0.929 1_545 S
C1652 C1653 1.377 1_545 S
C1652 C1654 1.384 . S
C1653 C1652 1.377 1_565 S
C1653 C1659 1.390 1_565 S
C1654 H1645 0.930 . S
C1654 C1652 1.384 . S
C1654 C1655 1.372 . S
C1655 C1654 1.372 . S
C1655 C1656 1.400 . S
C1655 C1660 1.490 . S
C1656 H1646 0.930 . S
C1656 C1655 1.400 . S
C1656 C1659 1.386 . S
H1657 C1673 0.930 . S
H1658 C1674 0.931 . S
C1659 H1647 0.929 . S
C1659 C1653 1.390 1_545 S
C1659 C1656 1.386 . S
C1660 C1655 1.490 . S
C1660 C1662 1.395 . S
C1660 C1663 1.403 . S
H1661 C1667 0.930 . S
C1662 H1648 0.930 . S
C1662 C1660 1.395 . S
C1662 C1665 1.403 . S
C1663 C1660 1.403 . S
C1663 C1664 1.524 . S
C1663 C1667 1.400 . S
C1664 H1649 0.960 . S
C1664 H1650 0.960 . S
C1664 H1651 0.960 . S
C1664 C1663 1.524 . S
C1665 C1662 1.403 . S
C1665 C1666 1.392 . S
C1665 C1669 1.495 . S
C1666 C1665 1.392 . S
C1666 C1667 1.385 . S
C1666 C1668 1.478 . S
C1667 H1661 0.930 . S
C1667 C1663 1.400 . S
C1667 C1666 1.385 . S
C1668 C1666 1.478 . S
C1668 C1670 1.381 . S
C1668 C1674 1.383 . S
C1669 C1665 1.495 . S
C1669 H1675 0.959 . S
C1669 H1676 0.961 . S
C1669 H1677 0.960 . S
C1670 C1668 1.381 . S
C1670 C1671 1.394 . S
C1670 H1678 0.930 . S
C1671 C1670 1.394 . S
C1671 C1672 1.383 . S
C1671 H1679 0.929 . S
C1672 C1671 1.383 . S
C1672 C1673 1.377 . S
C1673 H1657 0.930 . S
C1673 C1672 1.377 . S
C1673 C1674 1.379 . S
C1674 H1658 0.931 . S
C1674 C1668 1.383 . S
C1674 C1673 1.379 . S
H1675 C1669 0.959 . S
H1676 C1669 0.961 . S
H1677 C1669 0.960 . S
H1678 C1670 0.930 . S
H1679 C1671 0.929 . S
H1680 C1688 0.929 . S
H1681 C1690 0.930 1_455 S
H1682 C1692 0.930 . S
H1683 C1695 0.929 . S
H1684 C1698 0.930 . S
H1685 C1700 0.960 1_554 S
H1686 C1700 0.960 . S
H1687 C1700 0.960 . S
C1688 H1680 0.929 . S
C1688 C1689 1.377 . S
C1688 C1690 1.384 . S
C1689 C1688 1.377 . S
C1689 C1695 1.390 . S
C1690 H1681 0.930 1_655 S
C1690 C1688 1.384 . S
C1690 C1691 1.372 . S
C1691 C1690 1.372 . S
C1691 C1692 1.400 . S
C1691 C1696 1.490 . S
C1692 H1682 0.930 . S
C1692 C1691 1.400 . S
C1692 C1695 1.386 . S
H1693 C1709 0.930 . S
H1694 C1710 0.931 . S
C1695 H1683 0.929 . S
C1695 C1689 1.390 . S
C1695 C1692 1.386 . S
C1696 C1691 1.490 . S
C1696 C1698 1.395 1_655 S
C1696 C1699 1.403 . S
H1697 C1703 0.930 . S
C1698 H1684 0.930 . S
C1698 C1696 1.395 1_455 S
C1698 C1701 1.403 . S
C1699 C1696 1.403 . S
C1699 C1700 1.524 . S
C1699 C1703 1.400 1_556 S
C1700 H1685 0.960 1_556 S
C1700 H1686 0.960 . S
C1700 H1687 0.960 . S
C1700 C1699 1.524 . S
C1701 C1698 1.403 . S
C1701 C1702 1.392 1_556 S
C1701 C1705 1.495 1_556 S
C1702 C1701 1.392 1_554 S
C1702 C1703 1.385 1_455 S
C1702 C1704 1.478 . S
C1703 H1697 0.930 . S
C1703 C1699 1.400 1_554 S
C1703 C1702 1.385 1_655 S
C1704 C1702 1.478 . S
C1704 C1706 1.381 . S
C1704 C1710 1.383 . S
C1705 C1701 1.495 1_554 S
C1705 H1711 0.960 1_554 S
C1705 H1712 0.960 . S
C1705 H1713 0.959 . S
C1706 C1704 1.381 . S
C1706 C1707 1.394 . S
C1706 H1714 0.930 . S
C1707 C1706 1.394 . S
C1707 C1708 1.383 . S
C1707 H1715 0.929 . S
C1708 C1707 1.383 . S
C1708 C1709 1.377 . S
C1709 H1693 0.930 . S
C1709 C1708 1.377 . S
C1709 C1710 1.379 . S
C1710 H1694 0.931 . S
C1710 C1704 1.383 . S
C1710 C1709 1.379 . S
H1711 C1705 0.960 1_556 S
H1712 C1705 0.960 . S
H1713 C1705 0.959 . S
H1714 C1706 0.930 . S
H1715 C1707 0.929 . S
H1716 C1724 0.929 . S
H1717 C1726 0.930 . S
H1718 C1728 0.930 . S
H1719 C1731 0.929 . S
H1720 C1734 0.930 . S
H1721 C1736 0.960 . S
H1722 C1736 0.960 . S
H1723 C1736 0.960 . S
C1724 H1716 0.929 . S
C1724 C1725 1.377 . S
C1724 C1726 1.384 . S
C1725 C1724 1.377 . S
C1725 C1731 1.390 . S
C1726 H1717 0.930 . S
C1726 C1724 1.384 . S
C1726 C1727 1.372 . S
C1727 C1726 1.372 . S
C1727 C1728 1.400 . S
C1727 C1732 1.490 . S
C1728 H1718 0.930 . S
C1728 C1727 1.400 . S
C1728 C1731 1.386 . S
H1729 C1745 0.930 . S
H1730 C1746 0.931 . S
C1731 H1719 0.929 . S
C1731 C1725 1.390 . S
C1731 C1728 1.386 . S
C1732 C1727 1.490 . S
C1732 C1734 1.395 . S
C1732 C1735 1.403 . S
H1733 C1739 0.930 . S
C1734 H1720 0.930 . S
C1734 C1732 1.395 . S
C1734 C1737 1.403 . S
C1735 C1732 1.403 . S
C1735 C1736 1.524 . S
C1735 C1739 1.400 . S
C1736 H1721 0.960 . S
C1736 H1722 0.960 . S
C1736 H1723 0.960 . S
C1736 C1735 1.524 . S
C1737 C1734 1.403 . S
C1737 C1738 1.392 . S
C1737 C1741 1.495 . S
C1738 C1737 1.392 . S
C1738 C1739 1.385 . S
C1738 C1740 1.478 . S
C1739 H1733 0.930 . S
C1739 C1735 1.400 . S
C1739 C1738 1.385 . S
C1740 C1738 1.478 . S
C1740 C1742 1.381 . S
C1740 C1746 1.383 . S
C1741 C1737 1.495 . S
C1741 H1747 0.959 . S
C1741 H1748 0.961 . S
C1741 H1749 0.960 . S
C1742 C1740 1.381 . S
C1742 C1743 1.394 . S
C1742 H1750 0.930 . S
C1743 C1742 1.394 . S
C1743 C1744 1.383 . S
C1743 H1751 0.929 . S
C1744 C1743 1.383 . S
C1744 C1745 1.377 . S
C1745 H1729 0.930 . S
C1745 C1744 1.377 . S
C1745 C1746 1.379 . S
C1746 H1730 0.931 . S
C1746 C1740 1.383 . S
C1746 C1745 1.379 . S
H1747 C1741 0.959 . S
H1748 C1741 0.961 . S
H1749 C1741 0.960 . S
H1750 C1742 0.930 . S
H1751 C1743 0.929 . S
H1752 C1760 0.929 . S
H1753 C1762 0.928 . S
H1754 C1764 0.930 . S
H1755 C1767 0.929 . S
H1756 C1770 0.930 . S
H1757 C1772 0.960 1_554 S
H1758 C1772 0.960 . S
H1759 C1772 0.960 . S
C1760 H1752 0.929 . S
C1760 C1761 1.377 . S
C1760 C1762 1.384 . S
C1761 C1760 1.377 . S
C1761 C1767 1.390 . S
C1762 H1753 0.928 . S
C1762 C1760 1.384 . S
C1762 C1763 1.372 . S
C1763 C1762 1.372 . S
C1763 C1764 1.400 . S
C1763 C1768 1.490 . S
C1764 H1754 0.930 . S
C1764 C1763 1.400 . S
C1764 C1767 1.386 . S
H1765 C1781 0.930 . S
H1766 C1782 0.931 . S
C1767 H1755 0.929 . S
C1767 C1761 1.390 . S
C1767 C1764 1.386 . S
C1768 C1763 1.490 . S
C1768 C1770 1.395 1_455 S
C1768 C1771 1.403 . S
H1769 C1775 0.930 . S
C1770 H1756 0.930 . S
C1770 C1768 1.395 1_655 S
C1770 C1773 1.419 . S
C1771 C1768 1.403 . S
C1771 C1772 1.524 . S
C1771 C1775 1.400 1_556 S
C1772 H1757 0.960 1_556 S
C1772 H1758 0.960 . S
C1772 H1759 0.960 . S
C1772 C1771 1.524 . S
C1773 C1770 1.419 . S
C1773 C1774 1.377 1_556 S
C1773 C1777 1.495 . S
C1774 C1773 1.377 1_554 S
C1774 C1775 1.385 1_655 S
C1774 C1776 1.478 . S
C1775 H1769 0.930 . S
C1775 C1771 1.400 1_554 S
C1775 C1774 1.385 1_455 S
C1776 C1774 1.478 . S
C1776 C1778 1.381 . S
C1776 C1782 1.383 . S
C1777 C1773 1.495 . S
C1777 H1783 0.984 . S
C1777 H1784 0.946 1_556 S
C1777 H1785 0.950 1_556 S
C1778 C1776 1.381 . S
C1778 C1779 1.394 . S
C1778 H1786 0.930 . S
C1779 C1778 1.394 . S
C1779 C1780 1.383 . S
C1779 H1787 0.929 . S
C1780 C1779 1.383 . S
C1780 C1781 1.377 . S
C1781 H1765 0.930 . S
C1781 C1780 1.377 . S
C1781 C1782 1.379 . S
C1782 H1766 0.931 . S
C1782 C1776 1.383 . S
C1782 C1781 1.379 . S
H1783 C1777 0.984 . S
H1784 C1777 0.946 1_554 S
H1785 C1777 0.950 1_554 S
H1786 C1778 0.930 . S
H1787 C1779 0.929 . S
H1788 C1796 0.929 . S
H1789 C1798 0.930 . S
H1790 C1800 0.930 . S
H1791 C1803 0.929 . S
H1792 C1806 0.930 . S
H1793 C1808 0.960 . S
H1794 C1808 0.960 . S
H1795 C1808 0.960 . S
C1796 H1788 0.929 . S
C1796 C1797 1.377 . S
C1796 C1798 1.384 . S
C1797 C1796 1.377 . S
C1797 C1803 1.390 . S
C1798 H1789 0.930 . S
C1798 C1796 1.384 . S
C1798 C1799 1.372 . S
C1799 C1798 1.372 . S
C1799 C1800 1.400 . S
C1799 C1804 1.490 . S
C1800 H1790 0.930 . S
C1800 C1799 1.400 . S
C1800 C1803 1.386 . S
H1801 C1817 0.930 . S
H1802 C1818 0.931 . S
C1803 H1791 0.929 . S
C1803 C1797 1.390 . S
C1803 C1800 1.386 . S
C1804 C1799 1.490 . S
C1804 C1806 1.395 . S
C1804 C1807 1.403 . S
H1805 C1811 0.930 . S
C1806 H1792 0.930 . S
C1806 C1804 1.395 . S
C1806 C1809 1.403 . S
C1807 C1804 1.403 . S
C1807 C1808 1.524 . S
C1807 C1811 1.400 . S
C1808 H1793 0.960 . S
C1808 H1794 0.960 . S
C1808 H1795 0.960 . S
C1808 C1807 1.524 . S
C1809 C1806 1.403 . S
C1809 C1810 1.392 . S
C1809 C1813 1.495 . S
C1810 C1809 1.392 . S
C1810 C1811 1.385 . S
C1810 C1812 1.478 . S
C1811 H1805 0.930 . S
C1811 C1807 1.400 . S
C1811 C1810 1.385 . S
C1812 C1810 1.478 . S
C1812 C1814 1.381 . S
C1812 C1818 1.383 . S
C1813 C1809 1.495 . S
C1813 H1819 0.959 . S
C1813 H1820 0.961 . S
C1813 H1821 0.960 . S
C1814 C1812 1.381 . S
C1814 C1815 1.394 . S
C1814 H1822 0.930 . S
C1815 C1814 1.394 . S
C1815 C1816 1.383 . S
C1815 H1823 0.929 . S
C1816 C1815 1.383 . S
C1816 C1817 1.377 . S
C1817 H1801 0.930 . S
C1817 C1816 1.377 . S
C1817 C1818 1.379 . S
C1818 H1802 0.931 . S
C1818 C1812 1.383 . S
C1818 C1817 1.379 . S
H1819 C1813 0.959 . S
H1820 C1813 0.961 . S
H1821 C1813 0.960 . S
H1822 C1814 0.930 . S
H1823 C1815 0.929 . S
H1824 C1832 0.929 . S
H1825 C1834 0.930 . S
H1826 C1836 0.930 . S
H1827 C1839 0.929 . S
H1828 C1842 0.930 . S
H1829 C1844 0.960 1_455 S
H1830 C1844 0.960 . S
H1831 C1844 0.960 . S
C1832 H1824 0.929 . S
C1832 C1833 1.377 . S
C1832 C1834 1.384 . S
C1833 C1832 1.377 . S
C1833 C1839 1.390 . S
C1834 H1825 0.930 . S
C1834 C1832 1.384 . S
C1834 C1835 1.372 . S
C1835 C1834 1.372 . S
C1835 C1836 1.400 . S
C1835 C1840 1.490 . S
C1836 H1826 0.930 . S
C1836 C1835 1.400 . S
C1836 C1839 1.386 . S
H1837 C1853 0.930 . S
H1838 C1854 0.931 . S
C1839 H1827 0.929 . S
C1839 C1833 1.390 . S
C1839 C1836 1.386 . S
C1840 C1835 1.490 . S
C1840 C1842 1.378 1_565 S
C1840 C1843 1.403 . S
H1841 C1847 0.930 . S
C1842 H1828 0.930 . S
C1842 C1840 1.378 1_545 S
C1842 C1845 1.420 1_655 S
C1843 C1840 1.403 . S
C1843 C1844 1.524 . S
C1843 C1847 1.401 1_655 S
C1844 H1829 0.960 1_655 S
C1844 H1830 0.960 . S
C1844 H1831 0.960 . S
C1844 C1843 1.524 . S
C1845 C1842 1.420 1_455 S
C1845 C1846 1.392 . S
C1845 C1849 1.495 . S
C1846 C1845 1.392 . S
C1846 C1847 1.384 1_545 S
C1846 C1848 1.478 . S
C1847 H1841 0.930 . S
C1847 C1843 1.401 1_455 S
C1847 C1846 1.384 1_565 S
C1848 C1846 1.478 . S
C1848 C1850 1.381 . S
C1848 C1854 1.383 . S
C1849 C1845 1.495 . S
C1849 H1855 0.945 1_455 S
C1849 H1856 0.961 . S
C1849 H1857 0.960 . S
C1850 C1848 1.381 . S
C1850 C1851 1.394 . S
C1850 H1858 0.930 . S
C1851 C1850 1.394 . S
C1851 C1852 1.383 . S
C1851 H1859 0.929 . S
C1852 C1851 1.383 . S
C1852 C1853 1.377 . S
C1853 H1837 0.930 . S
C1853 C1852 1.377 . S
C1853 C1854 1.379 . S
C1854 H1838 0.931 . S
C1854 C1848 1.383 . S
C1854 C1853 1.379 . S
H1855 C1849 0.945 1_655 S
H1856 C1849 0.961 . S
H1857 C1849 0.960 . S
H1858 C1850 0.930 . S
H1859 C1851 0.929 . S
H1860 C1868 0.929 . S
H1861 C1870 0.930 . S
H1862 C1872 0.930 . S
H1863 C1875 0.929 . S
H1864 C1878 0.930 . S
H1865 C1880 0.960 . S
H1866 C1880 0.960 . S
H1867 C1880 0.960 . S
C1868 H1860 0.929 . S
C1868 C1869 1.377 . S
C1868 C1870 1.384 . S
C1869 C1868 1.377 . S
C1869 C1875 1.390 . S
C1870 H1861 0.930 . S
C1870 C1868 1.384 . S
C1870 C1871 1.372 . S
C1871 C1870 1.372 . S
C1871 C1872 1.400 . S
C1871 C1876 1.490 . S
C1872 H1862 0.930 . S
C1872 C1871 1.400 . S
C1872 C1875 1.386 . S
H1873 C1889 0.930 . S
H1874 C1890 0.931 . S
C1875 H1863 0.929 . S
C1875 C1869 1.390 . S
C1875 C1872 1.386 . S
C1876 C1871 1.490 . S
C1876 C1878 1.395 . S
C1876 C1879 1.403 . S
H1877 C1883 0.930 . S
C1878 H1864 0.930 . S
C1878 C1876 1.395 . S
C1878 C1881 1.403 . S
C1879 C1876 1.403 . S
C1879 C1880 1.524 . S
C1879 C1883 1.400 . S
C1880 H1865 0.960 . S
C1880 H1866 0.960 . S
C1880 H1867 0.960 . S
C1880 C1879 1.524 . S
C1881 C1878 1.403 . S
C1881 C1882 1.392 . S
C1881 C1885 1.495 . S
C1882 C1881 1.392 . S
C1882 C1883 1.385 . S
C1882 C1884 1.478 . S
C1883 H1877 0.930 . S
C1883 C1879 1.400 . S
C1883 C1882 1.385 . S
C1884 C1882 1.478 . S
C1884 C1886 1.381 . S
C1884 C1890 1.383 . S
C1885 C1881 1.495 . S
C1885 H1891 0.959 . S
C1885 H1892 0.961 . S
C1885 H1893 0.960 . S
C1886 C1884 1.381 . S
C1886 C1887 1.394 . S
C1886 H1894 0.930 . S
C1887 C1886 1.394 . S
C1887 C1888 1.383 . S
C1887 H1895 0.929 . S
C1888 C1887 1.383 . S
C1888 C1889 1.377 . S
C1889 H1873 0.930 . S
C1889 C1888 1.377 . S
C1889 C1890 1.379 . S
C1890 H1874 0.931 . S
C1890 C1884 1.383 . S
C1890 C1889 1.379 . S
H1891 C1885 0.959 . S
H1892 C1885 0.961 . S
H1893 C1885 0.960 . S
H1894 C1886 0.930 . S
H1895 C1887 0.929 . S
H1896 C1904 0.929 . S
H1897 C1906 0.930 . S
H1898 C1908 0.930 1_545 S
H1899 C1911 0.929 . S
H1900 C1914 0.930 . S
H1901 C1916 0.960 . S
H1902 C1916 0.960 1_565 S
H1903 C1916 0.960 . S
C1904 H1896 0.929 . S
C1904 C1905 1.377 . S
C1904 C1906 1.384 . S
C1905 C1904 1.377 . S
C1905 C1911 1.390 . S
C1906 H1897 0.930 . S
C1906 C1904 1.384 . S
C1906 C1907 1.372 . S
C1907 C1906 1.372 . S
C1907 C1908 1.400 . S
C1907 C1912 1.490 . S
C1908 H1898 0.930 1_565 S
C1908 C1907 1.400 . S
C1908 C1911 1.386 . S
H1909 C1925 0.930 . S
H1910 C1926 0.931 . S
C1911 H1899 0.929 . S
C1911 C1905 1.390 . S
C1911 C1908 1.386 . S
C1912 C1907 1.490 . S
C1912 C1914 1.395 . S
C1912 C1915 1.403 1_565 S
H1913 C1919 0.930 . S
C1914 H1900 0.930 . S
C1914 C1912 1.395 . S
C1914 C1917 1.403 1_455 S
C1915 C1912 1.403 1_545 S
C1915 C1916 1.524 . S
C1915 C1919 1.400 1_455 S
C1916 H1901 0.960 . S
C1916 H1902 0.960 1_545 S
C1916 H1903 0.960 . S
C1916 C1915 1.524 . S
C1917 C1914 1.403 1_655 S
C1917 C1918 1.392 1_565 S
C1917 C1921 1.495 . S
C1918 C1917 1.392 1_545 S
C1918 C1919 1.385 . S
C1918 C1920 1.478 . S
C1919 H1913 0.930 . S
C1919 C1915 1.400 1_655 S
C1919 C1918 1.385 . S
C1920 C1918 1.478 . S
C1920 C1922 1.381 . S
C1920 C1926 1.383 . S
C1921 C1917 1.495 . S
C1921 H1927 0.959 . S
C1921 H1928 0.922 1_565 S
C1921 H1929 0.960 . S
C1922 C1920 1.381 . S
C1922 C1923 1.394 . S
C1922 H1930 0.930 1_545 S
C1923 C1922 1.394 . S
C1923 C1924 1.383 . S
C1923 H1931 0.929 . S
C1924 C1923 1.383 . S
C1924 C1925 1.377 . S
C1925 H1909 0.930 . S
C1925 C1924 1.377 . S
C1925 C1926 1.379 . S
C1926 H1910 0.931 . S
C1926 C1920 1.383 . S
C1926 C1925 1.379 . S
H1927 C1921 0.959 . S
H1928 C1921 0.922 1_545 S
H1929 C1921 0.960 . S
H1930 C1922 0.930 1_565 S
H1931 C1923 0.929 . S
H1932 C1940 0.929 . S
H1933 C1942 0.930 . S
H1934 C1944 0.930 . S
H1935 C1947 0.929 . S
H1936 C1950 0.930 . S
H1937 C1952 0.960 . S
H1938 C1952 0.960 . S
H1939 C1952 0.960 . S
C1940 H1932 0.929 . S
C1940 C1941 1.377 . S
C1940 C1942 1.384 . S
C1941 C1940 1.377 . S
C1941 C1947 1.390 . S
C1942 H1933 0.930 . S
C1942 C1940 1.384 . S
C1942 C1943 1.372 . S
C1943 C1942 1.372 . S
C1943 C1944 1.400 . S
C1943 C1948 1.490 . S
C1944 H1934 0.930 . S
C1944 C1943 1.400 . S
C1944 C1947 1.386 . S
H1945 C1961 0.930 . S
H1946 C1962 0.931 . S
C1947 H1935 0.929 . S
C1947 C1941 1.390 . S
C1947 C1944 1.386 . S
C1948 C1943 1.490 . S
C1948 C1950 1.395 . S
C1948 C1951 1.403 . S
H1949 C1955 0.930 . S
C1950 H1936 0.930 . S
C1950 C1948 1.395 . S
C1950 C1953 1.403 . S
C1951 C1948 1.403 . S
C1951 C1952 1.524 . S
C1951 C1955 1.400 . S
C1952 H1937 0.960 . S
C1952 H1938 0.960 . S
C1952 H1939 0.960 . S
C1952 C1951 1.524 . S
C1953 C1950 1.403 . S
C1953 C1954 1.392 . S
C1953 C1957 1.495 . S
C1954 C1953 1.392 . S
C1954 C1955 1.385 . S
C1954 C1956 1.478 . S
C1955 H1949 0.930 . S
C1955 C1951 1.400 . S
C1955 C1954 1.385 . S
C1956 C1954 1.478 . S
C1956 C1958 1.381 . S
C1956 C1962 1.383 . S
C1957 C1953 1.495 . S
C1957 H1963 0.959 . S
C1957 H1964 0.961 . S
C1957 H1965 0.960 . S
C1958 C1956 1.381 . S
C1958 C1959 1.394 . S
C1958 H1966 0.930 . S
C1959 C1958 1.394 . S
C1959 C1960 1.383 . S
C1959 H1967 0.929 . S
C1960 C1959 1.383 . S
C1960 C1961 1.377 . S
C1961 H1945 0.930 . S
C1961 C1960 1.377 . S
C1961 C1962 1.379 . S
C1962 H1946 0.931 . S
C1962 C1956 1.383 . S
C1962 C1961 1.379 . S
H1963 C1957 0.959 . S
H1964 C1957 0.961 . S
H1965 C1957 0.960 . S
H1966 C1958 0.930 . S
H1967 C1959 0.929 . S
H1968 C1976 0.929 . S
H1969 C1978 0.930 1_556 S
H1970 C1980 0.930 . S
H1971 C1983 0.929 . S
H1972 C1986 0.930 . S
H1973 C1988 0.960 1_565 S
H1974 C1988 0.960 . S
H1975 C1988 0.960 . S
C1976 H1968 0.929 . S
C1976 C1977 1.377 . S
C1976 C1978 1.384 . S
C1977 C1976 1.377 . S
C1977 C1983 1.390 . S
C1978 H1969 0.930 1_554 S
C1978 C1976 1.384 . S
C1978 C1979 1.372 . S
C1979 C1978 1.372 . S
C1979 C1980 1.400 . S
C1979 C1984 1.490 . S
C1980 H1970 0.930 . S
C1980 C1979 1.400 . S
C1980 C1983 1.386 . S
H1981 C1997 0.930 . S
H1982 C1998 0.931 . S
C1983 H1971 0.929 . S
C1983 C1977 1.390 . S
C1983 C1980 1.386 . S
C1984 C1979 1.490 . S
C1984 C1986 1.395 1_554 S
C1984 C1987 1.403 . S
H1985 C1991 0.930 . S
C1986 H1972 0.930 . S
C1986 C1984 1.395 1_556 S
C1986 C1989 1.393 1_545 S
C1987 C1984 1.403 . S
C1987 C1988 1.524 . S
C1987 C1991 1.400 1_545 S
C1988 H1973 0.960 1_545 S
C1988 H1974 0.960 . S
C1988 H1975 0.960 . S
C1988 C1987 1.524 . S
C1989 C1986 1.393 1_565 S
C1989 C1990 1.402 . S
C1989 C1993 1.495 . S
C1990 C1989 1.402 . S
C1990 C1991 1.385 1_556 S
C1990 C1992 1.478 . S
C1991 H1985 0.930 . S
C1991 C1987 1.400 1_565 S
C1991 C1990 1.385 1_554 S
C1992 C1990 1.478 . S
C1992 C1994 1.381 . S
C1992 C1998 1.383 . S
C1993 C1989 1.495 . S
C1993 H1999 0.915 1_565 S
C1993 H2000 0.993 . S
C1993 H2001 0.976 . S
C1994 C1992 1.381 . S
C1994 C1995 1.394 . S
C1994 H2002 0.930 . S
C1995 C1994 1.394 . S
C1995 C1996 1.383 . S
C1995 H2003 0.929 . S
C1996 C1995 1.383 . S
C1996 C1997 1.377 . S
C1997 H1981 0.930 . S
C1997 C1996 1.377 . S
C1997 C1998 1.379 . S
C1998 H1982 0.931 . S
C1998 C1992 1.383 . S
C1998 C1997 1.379 . S
H1999 C1993 0.915 1_545 S
H2000 C1993 0.993 . S
H2001 C1993 0.976 . S
H2002 C1994 0.930 . S
H2003 C1995 0.929 . S
H2004 C2012 0.929 . S
H2005 C2014 0.930 . S
H2006 C2016 0.930 . S
H2007 C2019 0.929 . S
H2008 C2022 0.930 . S
H2009 C2024 0.960 . S
H2010 C2024 0.960 . S
H2011 C2024 0.960 . S
C2012 H2004 0.929 . S
C2012 C2013 1.377 . S
C2012 C2014 1.384 . S
C2013 C2012 1.377 . S
C2013 C2019 1.390 . S
C2014 H2005 0.930 . S
C2014 C2012 1.384 . S
C2014 C2015 1.372 . S
C2015 C2014 1.372 . S
C2015 C2016 1.400 . S
C2015 C2020 1.490 . S
C2016 H2006 0.930 . S
C2016 C2015 1.400 . S
C2016 C2019 1.386 . S
H2017 C2033 0.930 . S
H2018 C2034 0.931 . S
C2019 H2007 0.929 . S
C2019 C2013 1.390 . S
C2019 C2016 1.386 . S
C2020 C2015 1.490 . S
C2020 C2022 1.395 . S
C2020 C2023 1.403 . S
H2021 C2027 0.930 . S
C2022 H2008 0.930 . S
C2022 C2020 1.395 . S
C2022 C2025 1.403 . S
C2023 C2020 1.403 . S
C2023 C2024 1.524 . S
C2023 C2027 1.400 . S
C2024 H2009 0.960 . S
C2024 H2010 0.960 . S
C2024 H2011 0.960 . S
C2024 C2023 1.524 . S
C2025 C2022 1.403 . S
C2025 C2026 1.392 . S
C2025 C2029 1.495 . S
C2026 C2025 1.392 . S
C2026 C2027 1.385 . S
C2026 C2028 1.478 . S
C2027 H2021 0.930 . S
C2027 C2023 1.400 . S
C2027 C2026 1.385 . S
C2028 C2026 1.478 . S
C2028 C2030 1.381 . S
C2028 C2034 1.383 . S
C2029 C2025 1.495 . S
C2029 H2035 0.959 . S
C2029 H2036 0.961 . S
C2029 H2037 0.960 . S
C2030 C2028 1.381 . S
C2030 C2031 1.394 . S
C2030 H2038 0.930 . S
C2031 C2030 1.394 . S
C2031 C2032 1.383 . S
C2031 H2039 0.929 . S
C2032 C2031 1.383 . S
C2032 C2033 1.377 . S
C2033 H2017 0.930 . S
C2033 C2032 1.377 . S
C2033 C2034 1.379 . S
C2034 H2018 0.931 . S
C2034 C2028 1.383 . S
C2034 C2033 1.379 . S
H2035 C2029 0.959 . S
H2036 C2029 0.961 . S
H2037 C2029 0.960 . S
H2038 C2030 0.930 . S
H2039 C2031 0.929 . S
H2040 C2048 0.929 . S
H2041 C2050 0.930 . S
H2042 C2052 0.930 . S
H2043 C2055 0.929 . S
H2044 C2058 0.930 . S
H2045 C2060 0.960 . S
H2046 C2060 0.960 . S
H2047 C2060 0.960 . S
C2048 H2040 0.929 . S
C2048 C2049 1.377 . S
C2048 C2050 1.384 . S
C2049 C2048 1.377 . S
C2049 C2055 1.390 . S
C2050 H2041 0.930 . S
C2050 C2048 1.384 . S
C2050 C2051 1.372 . S
C2051 C2050 1.372 . S
C2051 C2052 1.400 . S
C2051 C2056 1.490 . S
C2052 H2042 0.930 . S
C2052 C2051 1.400 . S
C2052 C2055 1.386 . S
H2053 C2069 0.930 . S
H2054 C2070 0.931 . S
C2055 H2043 0.929 . S
C2055 C2049 1.390 . S
C2055 C2052 1.386 . S
C2056 C2051 1.490 . S
C2056 C2058 1.395 . S
C2056 C2059 1.403 1_556 S
H2057 C2063 0.930 . S
C2058 H2044 0.930 . S
C2058 C2056 1.395 . S
C2058 C2061 1.403 1_545 S
C2059 C2056 1.403 1_554 S
C2059 C2060 1.524 . S
C2059 C2063 1.400 1_545 S
C2060 H2045 0.960 . S
C2060 H2046 0.960 . S
C2060 H2047 0.960 . S
C2060 C2059 1.524 . S
C2061 C2058 1.403 1_565 S
C2061 C2062 1.392 1_556 S
C2061 C2065 1.495 . S
C2062 C2061 1.392 1_554 S
C2062 C2063 1.385 . S
C2062 C2064 1.478 . S
C2063 H2057 0.930 . S
C2063 C2059 1.400 1_565 S
C2063 C2062 1.385 . S
C2064 C2062 1.478 . S
C2064 C2066 1.381 . S
C2064 C2070 1.383 . S
C2065 C2061 1.495 . S
C2065 H2071 0.959 . S
C2065 H2072 0.961 . S
C2065 H2073 0.960 . S
C2066 C2064 1.381 . S
C2066 C2067 1.394 . S
C2066 H2074 0.930 . S
C2067 C2066 1.394 . S
C2067 C2068 1.383 . S
C2067 H2075 0.929 . S
C2068 C2067 1.383 . S
C2068 C2069 1.377 . S
C2069 H2053 0.930 . S
C2069 C2068 1.377 . S
C2069 C2070 1.379 . S
C2070 H2054 0.931 . S
C2070 C2064 1.383 . S
C2070 C2069 1.379 . S
H2071 C2065 0.959 . S
H2072 C2065 0.961 . S
H2073 C2065 0.960 . S
H2074 C2066 0.930 . S
H2075 C2067 0.929 . S
H2076 C2084 0.929 . S
H2077 C2086 0.930 . S
H2078 C2088 0.930 . S
H2079 C2091 0.929 . S
H2080 C2094 0.930 . S
H2081 C2096 0.960 . S
H2082 C2096 0.960 . S
H2083 C2096 0.960 . S
C2084 H2076 0.929 . S
C2084 C2085 1.377 . S
C2084 C2086 1.384 . S
C2085 C2084 1.377 . S
C2085 C2091 1.390 . S
C2086 H2077 0.930 . S
C2086 C2084 1.384 . S
C2086 C2087 1.372 . S
C2087 C2086 1.372 . S
C2087 C2088 1.400 . S
C2087 C2092 1.490 . S
C2088 H2078 0.930 . S
C2088 C2087 1.400 . S
C2088 C2091 1.386 . S
H2089 C2105 0.930 . S
H2090 C2106 0.931 . S
C2091 H2079 0.929 . S
C2091 C2085 1.390 . S
C2091 C2088 1.386 . S
C2092 C2087 1.490 . S
C2092 C2094 1.395 . S
C2092 C2095 1.403 . S
H2093 C2099 0.930 . S
C2094 H2080 0.930 . S
C2094 C2092 1.395 . S
C2094 C2097 1.403 . S
C2095 C2092 1.403 . S
C2095 C2096 1.524 . S
C2095 C2099 1.400 . S
C2096 H2081 0.960 . S
C2096 H2082 0.960 . S
C2096 H2083 0.960 . S
C2096 C2095 1.524 . S
C2097 C2094 1.403 . S
C2097 C2098 1.392 . S
C2097 C2101 1.495 . S
C2098 C2097 1.392 . S
C2098 C2099 1.385 . S
C2098 C2100 1.478 . S
C2099 H2093 0.930 . S
C2099 C2095 1.400 . S
C2099 C2098 1.385 . S
C2100 C2098 1.478 . S
C2100 C2102 1.381 . S
C2100 C2106 1.383 . S
C2101 C2097 1.495 . S
C2101 H2107 0.959 . S
C2101 H2108 0.961 . S
C2101 H2109 0.960 . S
C2102 C2100 1.381 . S
C2102 C2103 1.394 . S
C2102 H2110 0.930 . S
C2103 C2102 1.394 . S
C2103 C2104 1.383 . S
C2103 H2111 0.929 . S
C2104 C2103 1.383 . S
C2104 C2105 1.377 . S
C2105 H2089 0.930 . S
C2105 C2104 1.377 . S
C2105 C2106 1.379 . S
C2106 H2090 0.931 . S
C2106 C2100 1.383 . S
C2106 C2105 1.379 . S
H2107 C2101 0.959 . S
H2108 C2101 0.961 . S
H2109 C2101 0.960 . S
H2110 C2102 0.930 . S
H2111 C2103 0.929 . S
H2112 C2120 0.929 . S
H2113 C2122 0.930 . S
H2114 C2124 0.930 . S
H2115 C2127 0.929 . S
H2116 C2130 0.930 . S
H2117 C2132 0.960 . S
H2118 C2132 0.960 . S
H2119 C2132 0.960 . S
C2120 H2112 0.929 . S
C2120 C2121 1.377 . S
C2120 C2122 1.384 . S
C2121 C2120 1.377 . S
C2121 C2127 1.390 . S
C2122 H2113 0.930 . S
C2122 C2120 1.384 . S
C2122 C2123 1.372 . S
C2123 C2122 1.372 . S
C2123 C2124 1.400 . S
C2123 C2128 1.490 . S
C2124 H2114 0.930 . S
C2124 C2123 1.400 . S
C2124 C2127 1.386 . S
H2125 C2141 0.930 . S
H2126 C2142 0.931 . S
C2127 H2115 0.929 . S
C2127 C2121 1.390 . S
C2127 C2124 1.386 . S
C2128 C2123 1.490 . S
C2128 C2130 1.395 . S
C2128 C2131 1.403 . S
H2129 C2135 0.930 . S
C2130 H2116 0.930 . S
C2130 C2128 1.395 . S
C2130 C2133 1.403 . S
C2131 C2128 1.403 . S
C2131 C2132 1.524 . S
C2131 C2135 1.400 . S
C2132 H2117 0.960 . S
C2132 H2118 0.960 . S
C2132 H2119 0.960 . S
C2132 C2131 1.524 . S
C2133 C2130 1.403 . S
C2133 C2134 1.392 . S
C2133 C2137 1.495 . S
C2134 C2133 1.392 . S
C2134 C2135 1.385 . S
C2134 C2136 1.478 . S
C2135 H2129 0.930 . S
C2135 C2131 1.400 . S
C2135 C2134 1.385 . S
C2136 C2134 1.478 . S
C2136 C2138 1.381 . S
C2136 C2142 1.383 . S
C2137 C2133 1.495 . S
C2137 H2143 0.959 . S
C2137 H2144 0.961 . S
C2137 H2145 0.960 . S
C2138 C2136 1.381 . S
C2138 C2139 1.394 . S
C2138 H2146 0.930 . S
C2139 C2138 1.394 . S
C2139 C2140 1.383 . S
C2139 H2147 0.929 . S
C2140 C2139 1.383 . S
C2140 C2141 1.377 . S
C2141 H2125 0.930 . S
C2141 C2140 1.377 . S
C2141 C2142 1.379 . S
C2142 H2126 0.931 . S
C2142 C2136 1.383 . S
C2142 C2141 1.379 . S
H2143 C2137 0.959 . S
H2144 C2137 0.961 . S
H2145 C2137 0.960 . S
H2146 C2138 0.930 . S
H2147 C2139 0.929 . S
H2148 C2156 0.929 . S
H2149 C2158 0.930 . S
H2150 C2160 0.930 . S
H2151 C2163 0.929 . S
H2152 C2166 0.930 . S
H2153 C2168 0.960 . S
H2154 C2168 0.960 . S
H2155 C2168 0.960 . S
C2156 H2148 0.929 . S
C2156 C2157 1.377 . S
C2156 C2158 1.384 . S
C2157 C2156 1.377 . S
C2157 C2163 1.390 . S
C2158 H2149 0.930 . S
C2158 C2156 1.384 . S
C2158 C2159 1.372 . S
C2159 C2158 1.372 . S
C2159 C2160 1.400 . S
C2159 C2164 1.490 . S
C2160 H2150 0.930 . S
C2160 C2159 1.400 . S
C2160 C2163 1.386 . S
H2161 C2177 0.930 . S
H2162 C2178 0.931 . S
C2163 H2151 0.929 . S
C2163 C2157 1.390 . S
C2163 C2160 1.386 . S
C2164 C2159 1.490 . S
C2164 C2166 1.395 . S
C2164 C2167 1.403 . S
H2165 C2171 0.930 . S
C2166 H2152 0.930 . S
C2166 C2164 1.395 . S
C2166 C2169 1.403 . S
C2167 C2164 1.403 . S
C2167 C2168 1.524 . S
C2167 C2171 1.400 . S
C2168 H2153 0.960 . S
C2168 H2154 0.960 . S
C2168 H2155 0.960 . S
C2168 C2167 1.524 . S
C2169 C2166 1.403 . S
C2169 C2170 1.392 . S
C2169 C2173 1.495 . S
C2170 C2169 1.392 . S
C2170 C2171 1.385 . S
C2170 C2172 1.478 . S
C2171 H2165 0.930 . S
C2171 C2167 1.400 . S
C2171 C2170 1.385 . S
C2172 C2170 1.478 . S
C2172 C2174 1.381 . S
C2172 C2178 1.383 . S
C2173 C2169 1.495 . S
C2173 H2179 0.959 . S
C2173 H2180 0.961 . S
C2173 H2181 0.960 . S
C2174 C2172 1.381 . S
C2174 C2175 1.394 . S
C2174 H2182 0.930 . S
C2175 C2174 1.394 . S
C2175 C2176 1.383 . S
C2175 H2183 0.929 . S
C2176 C2175 1.383 . S
C2176 C2177 1.377 . S
C2177 H2161 0.930 . S
C2177 C2176 1.377 . S
C2177 C2178 1.379 . S
C2178 H2162 0.931 . S
C2178 C2172 1.383 . S
C2178 C2177 1.379 . S
H2179 C2173 0.959 . S
H2180 C2173 0.961 . S
H2181 C2173 0.960 . S
H2182 C2174 0.930 . S
H2183 C2175 0.929 . S
H2184 C2192 0.929 . S
H2185 C2194 0.930 . S
H2186 C2196 0.930 . S
H2187 C2199 0.929 . S
H2188 C2202 0.930 . S
H2189 C2204 0.960 . S
H2190 C2204 0.960 . S
H2191 C2204 0.960 . S
C2192 H2184 0.929 . S
C2192 C2193 1.377 . S
C2192 C2194 1.384 . S
C2193 C2192 1.377 . S
C2193 C2199 1.390 . S
C2194 H2185 0.930 . S
C2194 C2192 1.384 . S
C2194 C2195 1.372 . S
C2195 C2194 1.372 . S
C2195 C2196 1.400 . S
C2195 C2200 1.490 . S
C2196 H2186 0.930 . S
C2196 C2195 1.400 . S
C2196 C2199 1.386 . S
H2197 C2213 0.930 . S
H2198 C2214 0.931 . S
C2199 H2187 0.929 . S
C2199 C2193 1.390 . S
C2199 C2196 1.386 . S
C2200 C2195 1.490 . S
C2200 C2202 1.395 . S
C2200 C2203 1.403 . S
H2201 C2207 0.930 . S
C2202 H2188 0.930 . S
C2202 C2200 1.395 . S
C2202 C2205 1.403 . S
C2203 C2200 1.403 . S
C2203 C2204 1.524 . S
C2203 C2207 1.400 . S
C2204 H2189 0.960 . S
C2204 H2190 0.960 . S
C2204 H2191 0.960 . S
C2204 C2203 1.524 . S
C2205 C2202 1.403 . S
C2205 C2206 1.392 . S
C2205 C2209 1.495 . S
C2206 C2205 1.392 . S
C2206 C2207 1.385 . S
C2206 C2208 1.478 . S
C2207 H2201 0.930 . S
C2207 C2203 1.400 . S
C2207 C2206 1.385 . S
C2208 C2206 1.478 . S
C2208 C2210 1.381 . S
C2208 C2214 1.383 . S
C2209 C2205 1.495 . S
C2209 H2215 0.959 . S
C2209 H2216 0.961 . S
C2209 H2217 0.960 . S
C2210 C2208 1.381 . S
C2210 C2211 1.394 . S
C2210 H2218 0.930 . S
C2211 C2210 1.394 . S
C2211 C2212 1.383 . S
C2211 H2219 0.929 . S
C2212 C2211 1.383 . S
C2212 C2213 1.377 . S
C2213 H2197 0.930 . S
C2213 C2212 1.377 . S
C2213 C2214 1.379 . S
C2214 H2198 0.931 . S
C2214 C2208 1.383 . S
C2214 C2213 1.379 . S
H2215 C2209 0.959 . S
H2216 C2209 0.961 . S
H2217 C2209 0.960 . S
H2218 C2210 0.930 . S
H2219 C2211 0.929 . S
H2220 C2228 0.929 . S
H2221 C2230 0.930 . S
H2222 C2232 0.930 . S
H2223 C2235 0.929 . S
H2224 C2238 0.930 . S
H2225 C2240 0.960 . S
H2226 C2240 0.960 . S
H2227 C2240 0.960 . S
C2228 H2220 0.929 . S
C2228 C2229 1.377 . S
C2228 C2230 1.384 . S
C2229 C2228 1.377 . S
C2229 C2235 1.390 . S
C2230 H2221 0.930 . S
C2230 C2228 1.384 . S
C2230 C2231 1.372 . S
C2231 C2230 1.372 . S
C2231 C2232 1.400 . S
C2231 C2236 1.490 . S
C2232 H2222 0.930 . S
C2232 C2231 1.400 . S
C2232 C2235 1.386 . S
H2233 C2249 0.930 . S
H2234 C2250 0.931 . S
C2235 H2223 0.929 . S
C2235 C2229 1.390 . S
C2235 C2232 1.386 . S
C2236 C2231 1.490 . S
C2236 C2238 1.395 . S
C2236 C2239 1.403 . S
H2237 C2243 0.930 . S
C2238 H2224 0.930 . S
C2238 C2236 1.395 . S
C2238 C2241 1.403 . S
C2239 C2236 1.403 . S
C2239 C2240 1.524 . S
C2239 C2243 1.400 . S
C2240 H2225 0.960 . S
C2240 H2226 0.960 . S
C2240 H2227 0.960 . S
C2240 C2239 1.524 . S
C2241 C2238 1.403 . S
C2241 C2242 1.392 . S
C2241 C2245 1.495 . S
C2242 C2241 1.392 . S
C2242 C2243 1.385 . S
C2242 C2244 1.478 . S
C2243 H2237 0.930 . S
C2243 C2239 1.400 . S
C2243 C2242 1.385 . S
C2244 C2242 1.478 . S
C2244 C2246 1.381 . S
C2244 C2250 1.383 . S
C2245 C2241 1.495 . S
C2245 H2251 0.959 . S
C2245 H2252 0.961 . S
C2245 H2253 0.960 . S
C2246 C2244 1.381 . S
C2246 C2247 1.394 . S
C2246 H2254 0.930 . S
C2247 C2246 1.394 . S
C2247 C2248 1.383 . S
C2247 H2255 0.929 . S
C2248 C2247 1.383 . S
C2248 C2249 1.377 . S
C2249 H2233 0.930 . S
C2249 C2248 1.377 . S
C2249 C2250 1.379 . S
C2250 H2234 0.931 . S
C2250 C2244 1.383 . S
C2250 C2249 1.379 . S
H2251 C2245 0.959 . S
H2252 C2245 0.961 . S
H2253 C2245 0.960 . S
H2254 C2246 0.930 . S
H2255 C2247 0.929 . S
H2256 C2264 0.929 . S
H2257 C2266 0.930 . S
H2258 C2268 0.930 . S
H2259 C2271 0.929 . S
H2260 C2274 0.930 . S
H2261 C2276 0.960 . S
H2262 C2276 0.960 . S
H2263 C2276 0.960 . S
C2264 H2256 0.929 . S
C2264 C2265 1.377 . S
C2264 C2266 1.384 . S
C2265 C2264 1.377 . S
C2265 C2271 1.390 . S
C2266 H2257 0.930 . S
C2266 C2264 1.384 . S
C2266 C2267 1.372 . S
C2267 C2266 1.372 . S
C2267 C2268 1.400 . S
C2267 C2272 1.490 . S
C2268 H2258 0.930 . S
C2268 C2267 1.400 . S
C2268 C2271 1.386 . S
H2269 C2285 0.930 . S
H2270 C2286 0.931 . S
C2271 H2259 0.929 . S
C2271 C2265 1.390 . S
C2271 C2268 1.386 . S
C2272 C2267 1.490 . S
C2272 C2274 1.395 . S
C2272 C2275 1.403 . S
H2273 C2279 0.930 . S
C2274 H2260 0.930 . S
C2274 C2272 1.395 . S
C2274 C2277 1.403 . S
C2275 C2272 1.403 . S
C2275 C2276 1.524 . S
C2275 C2279 1.400 . S
C2276 H2261 0.960 . S
C2276 H2262 0.960 . S
C2276 H2263 0.960 . S
C2276 C2275 1.524 . S
C2277 C2274 1.403 . S
C2277 C2278 1.392 . S
C2277 C2281 1.495 . S
C2278 C2277 1.392 . S
C2278 C2279 1.385 . S
C2278 C2280 1.478 . S
C2279 H2273 0.930 . S
C2279 C2275 1.400 . S
C2279 C2278 1.385 . S
C2280 C2278 1.478 . S
C2280 C2282 1.381 . S
C2280 C2286 1.383 . S
C2281 C2277 1.495 . S
C2281 H2287 0.959 . S
C2281 H2288 0.961 . S
C2281 H2289 0.960 . S
C2282 C2280 1.381 . S
C2282 C2283 1.394 . S
C2282 H2290 0.930 . S
C2283 C2282 1.394 . S
C2283 C2284 1.383 . S
C2283 H2291 0.929 . S
C2284 C2283 1.383 . S
C2284 C2285 1.377 . S
C2285 H2269 0.930 . S
C2285 C2284 1.377 . S
C2285 C2286 1.379 . S
C2286 H2270 0.931 . S
C2286 C2280 1.383 . S
C2286 C2285 1.379 . S
H2287 C2281 0.959 . S
H2288 C2281 0.961 . S
H2289 C2281 0.960 . S
H2290 C2282 0.930 . S
H2291 C2283 0.929 . S
H2292 C2300 0.929 . S
H2293 C2302 0.930 . S
H2294 C2304 0.930 . S
H2295 C2307 0.929 . S
H2296 C2310 0.930 . S
H2297 C2312 0.960 . S
H2298 C2312 0.960 . S
H2299 C2312 0.960 . S
C2300 H2292 0.929 . S
C2300 C2301 1.377 . S
C2300 C2302 1.384 . S
C2301 C2300 1.377 . S
C2301 C2307 1.390 . S
C2302 H2293 0.930 . S
C2302 C2300 1.384 . S
C2302 C2303 1.372 . S
C2303 C2302 1.372 . S
C2303 C2304 1.400 . S
C2303 C2308 1.490 . S
C2304 H2294 0.930 . S
C2304 C2303 1.400 . S
C2304 C2307 1.386 . S
H2305 C2321 0.930 . S
H2306 C2322 0.931 . S
C2307 H2295 0.929 . S
C2307 C2301 1.390 . S
C2307 C2304 1.386 . S
C2308 C2303 1.490 . S
C2308 C2310 1.395 . S
C2308 C2311 1.403 . S
H2309 C2315 0.930 . S
C2310 H2296 0.930 . S
C2310 C2308 1.395 . S
C2310 C2313 1.403 . S
C2311 C2308 1.403 . S
C2311 C2312 1.524 . S
C2311 C2315 1.400 . S
C2312 H2297 0.960 . S
C2312 H2298 0.960 . S
C2312 H2299 0.960 . S
C2312 C2311 1.524 . S
C2313 C2310 1.403 . S
C2313 C2314 1.392 . S
C2313 C2317 1.495 . S
C2314 C2313 1.392 . S
C2314 C2315 1.385 . S
C2314 C2316 1.478 . S
C2315 H2309 0.930 . S
C2315 C2311 1.400 . S
C2315 C2314 1.385 . S
C2316 C2314 1.478 . S
C2316 C2318 1.381 . S
C2316 C2322 1.383 . S
C2317 C2313 1.495 . S
C2317 H2323 0.959 . S
C2317 H2324 0.961 . S
C2317 H2325 0.960 . S
C2318 C2316 1.381 . S
C2318 C2319 1.394 . S
C2318 H2326 0.930 . S
C2319 C2318 1.394 . S
C2319 C2320 1.383 . S
C2319 H2327 0.929 . S
C2320 C2319 1.383 . S
C2320 C2321 1.377 . S
C2321 H2305 0.930 . S
C2321 C2320 1.377 . S
C2321 C2322 1.379 . S
C2322 H2306 0.931 . S
C2322 C2316 1.383 . S
C2322 C2321 1.379 . S
H2323 C2317 0.959 . S
H2324 C2317 0.961 . S
H2325 C2317 0.960 . S
H2326 C2318 0.930 . S
H2327 C2319 0.929 . S
H2328 C2336 0.929 . S
H2329 C2338 0.930 . S
H2330 C2340 0.930 . S
H2331 C2343 0.929 . S
H2332 C2346 0.930 . S
H2333 C2348 0.960 . S
H2334 C2348 0.960 . S
H2335 C2348 0.960 . S
C2336 H2328 0.929 . S
C2336 C2337 1.377 . S
C2336 C2338 1.384 . S
C2337 C2336 1.377 . S
C2337 C2343 1.390 . S
C2338 H2329 0.930 . S
C2338 C2336 1.384 . S
C2338 C2339 1.372 . S
C2339 C2338 1.372 . S
C2339 C2340 1.400 . S
C2339 C2344 1.490 . S
C2340 H2330 0.930 . S
C2340 C2339 1.400 . S
C2340 C2343 1.386 . S
H2341 C2357 0.930 . S
H2342 C2358 0.931 . S
C2343 H2331 0.929 . S
C2343 C2337 1.390 . S
C2343 C2340 1.386 . S
C2344 C2339 1.490 . S
C2344 C2346 1.395 . S
C2344 C2347 1.403 . S
H2345 C2351 0.930 . S
C2346 H2332 0.930 . S
C2346 C2344 1.395 . S
C2346 C2349 1.403 . S
C2347 C2344 1.403 . S
C2347 C2348 1.524 . S
C2347 C2351 1.400 . S
C2348 H2333 0.960 . S
C2348 H2334 0.960 . S
C2348 H2335 0.960 . S
C2348 C2347 1.524 . S
C2349 C2346 1.403 . S
C2349 C2350 1.392 . S
C2349 C2353 1.495 . S
C2350 C2349 1.392 . S
C2350 C2351 1.385 . S
C2350 C2352 1.478 . S
C2351 H2345 0.930 . S
C2351 C2347 1.400 . S
C2351 C2350 1.385 . S
C2352 C2350 1.478 . S
C2352 C2354 1.381 . S
C2352 C2358 1.383 . S
C2353 C2349 1.495 . S
C2353 H2359 0.959 . S
C2353 H2360 0.961 . S
C2353 H2361 0.960 . S
C2354 C2352 1.381 . S
C2354 C2355 1.394 . S
C2354 H2362 0.930 . S
C2355 C2354 1.394 . S
C2355 C2356 1.383 . S
C2355 H2363 0.929 . S
C2356 C2355 1.383 . S
C2356 C2357 1.377 . S
C2357 H2341 0.930 . S
C2357 C2356 1.377 . S
C2357 C2358 1.379 . S
C2358 H2342 0.931 . S
C2358 C2352 1.383 . S
C2358 C2357 1.379 . S
H2359 C2353 0.959 . S
H2360 C2353 0.961 . S
H2361 C2353 0.960 . S
H2362 C2354 0.930 . S
H2363 C2355 0.929 . S
H2364 C2372 0.929 . S
H2365 C2374 0.930 . S
H2366 C2376 0.930 . S
H2367 C2379 0.929 . S
H2368 C2382 0.930 . S
H2369 C2384 0.960 . S
H2370 C2384 0.960 . S
H2371 C2384 0.960 . S
C2372 H2364 0.929 . S
C2372 C2373 1.377 . S
C2372 C2374 1.384 . S
C2373 C2372 1.377 . S
C2373 C2379 1.390 . S
C2374 H2365 0.930 . S
C2374 C2372 1.384 . S
C2374 C2375 1.372 . S
C2375 C2374 1.372 . S
C2375 C2376 1.400 . S
C2375 C2380 1.490 . S
C2376 H2366 0.930 . S
C2376 C2375 1.400 . S
C2376 C2379 1.386 . S
H2377 C2393 0.930 . S
H2378 C2394 0.931 . S
C2379 H2367 0.929 . S
C2379 C2373 1.390 . S
C2379 C2376 1.386 . S
C2380 C2375 1.490 . S
C2380 C2382 1.395 . S
C2380 C2383 1.403 . S
H2381 C2387 0.930 . S
C2382 H2368 0.930 . S
C2382 C2380 1.395 . S
C2382 C2385 1.403 . S
C2383 C2380 1.403 . S
C2383 C2384 1.524 . S
C2383 C2387 1.400 . S
C2384 H2369 0.960 . S
C2384 H2370 0.960 . S
C2384 H2371 0.960 . S
C2384 C2383 1.524 . S
C2385 C2382 1.403 . S
C2385 C2386 1.392 . S
C2385 C2389 1.495 . S
C2386 C2385 1.392 . S
C2386 C2387 1.385 . S
C2386 C2388 1.478 . S
C2387 H2381 0.930 . S
C2387 C2383 1.400 . S
C2387 C2386 1.385 . S
C2388 C2386 1.478 . S
C2388 C2390 1.381 . S
C2388 C2394 1.383 . S
C2389 C2385 1.495 . S
C2389 H2395 0.959 . S
C2389 H2396 0.961 . S
C2389 H2397 0.960 . S
C2390 C2388 1.381 . S
C2390 C2391 1.394 . S
C2390 H2398 0.930 . S
C2391 C2390 1.394 . S
C2391 C2392 1.383 . S
C2391 H2399 0.929 . S
C2392 C2391 1.383 . S
C2392 C2393 1.377 . S
C2393 H2377 0.930 . S
C2393 C2392 1.377 . S
C2393 C2394 1.379 . S
C2394 H2378 0.931 . S
C2394 C2388 1.383 . S
C2394 C2393 1.379 . S
H2395 C2389 0.959 . S
H2396 C2389 0.961 . S
H2397 C2389 0.960 . S
H2398 C2390 0.930 . S
H2399 C2391 0.929 . S
H2400 C2408 0.929 . S
H2401 C2410 0.930 . S
H2402 C2412 0.930 . S
H2403 C2415 0.929 . S
H2404 C2418 0.930 . S
H2405 C2420 0.960 . S
H2406 C2420 0.960 . S
H2407 C2420 0.960 . S
C2408 H2400 0.929 . S
C2408 C2409 1.377 . S
C2408 C2410 1.384 . S
C2409 C2408 1.377 . S
C2409 C2415 1.390 . S
C2410 H2401 0.930 . S
C2410 C2408 1.384 . S
C2410 C2411 1.372 . S
C2411 C2410 1.372 . S
C2411 C2412 1.400 . S
C2411 C2416 1.490 . S
C2412 H2402 0.930 . S
C2412 C2411 1.400 . S
C2412 C2415 1.386 . S
H2413 C2429 0.930 . S
H2414 C2430 0.931 . S
C2415 H2403 0.929 . S
C2415 C2409 1.390 . S
C2415 C2412 1.386 . S
C2416 C2411 1.490 . S
C2416 C2418 1.395 . S
C2416 C2419 1.403 . S
H2417 C2423 0.930 . S
C2418 H2404 0.930 . S
C2418 C2416 1.395 . S
C2418 C2421 1.403 . S
C2419 C2416 1.403 . S
C2419 C2420 1.524 . S
C2419 C2423 1.400 . S
C2420 H2405 0.960 . S
C2420 H2406 0.960 . S
C2420 H2407 0.960 . S
C2420 C2419 1.524 . S
C2421 C2418 1.403 . S
C2421 C2422 1.392 . S
C2421 C2425 1.495 . S
C2422 C2421 1.392 . S
C2422 C2423 1.385 . S
C2422 C2424 1.478 . S
C2423 H2417 0.930 . S
C2423 C2419 1.400 . S
C2423 C2422 1.385 . S
C2424 C2422 1.478 . S
C2424 C2426 1.381 . S
C2424 C2430 1.383 . S
C2425 C2421 1.495 . S
C2425 H2431 0.959 . S
C2425 H2432 0.961 . S
C2425 H2433 0.960 . S
C2426 C2424 1.381 . S
C2426 C2427 1.394 . S
C2426 H2434 0.930 . S
C2427 C2426 1.394 . S
C2427 C2428 1.383 . S
C2427 H2435 0.929 . S
C2428 C2427 1.383 . S
C2428 C2429 1.377 . S
C2429 H2413 0.930 . S
C2429 C2428 1.377 . S
C2429 C2430 1.379 . S
C2430 H2414 0.931 . S
C2430 C2424 1.383 . S
C2430 C2429 1.379 . S
H2431 C2425 0.959 . S
H2432 C2425 0.961 . S
H2433 C2425 0.960 . S
H2434 C2426 0.930 . S
H2435 C2427 0.929 . S
H2436 C2444 0.929 . S
H2437 C2446 0.930 . S
H2438 C2448 0.930 . S
H2439 C2451 0.929 . S
H2440 C2454 0.930 . S
H2441 C2456 0.960 . S
H2442 C2456 0.960 . S
H2443 C2456 0.960 . S
C2444 H2436 0.929 . S
C2444 C2445 1.377 . S
C2444 C2446 1.384 . S
C2445 C2444 1.377 . S
C2445 C2451 1.390 . S
C2446 H2437 0.930 . S
C2446 C2444 1.384 . S
C2446 C2447 1.372 . S
C2447 C2446 1.372 . S
C2447 C2448 1.400 . S
C2447 C2452 1.490 . S
C2448 H2438 0.930 . S
C2448 C2447 1.400 . S
C2448 C2451 1.386 . S
H2449 C2465 0.930 . S
H2450 C2466 0.931 . S
C2451 H2439 0.929 . S
C2451 C2445 1.390 . S
C2451 C2448 1.386 . S
C2452 C2447 1.490 . S
C2452 C2454 1.395 . S
C2452 C2455 1.403 . S
H2453 C2459 0.930 . S
C2454 H2440 0.930 . S
C2454 C2452 1.395 . S
C2454 C2457 1.403 . S
C2455 C2452 1.403 . S
C2455 C2456 1.524 . S
C2455 C2459 1.400 . S
C2456 H2441 0.960 . S
C2456 H2442 0.960 . S
C2456 H2443 0.960 . S
C2456 C2455 1.524 . S
C2457 C2454 1.403 . S
C2457 C2458 1.392 . S
C2457 C2461 1.495 . S
C2458 C2457 1.392 . S
C2458 C2459 1.385 . S
C2458 C2460 1.478 . S
C2459 H2453 0.930 . S
C2459 C2455 1.400 . S
C2459 C2458 1.385 . S
C2460 C2458 1.478 . S
C2460 C2462 1.381 . S
C2460 C2466 1.383 . S
C2461 C2457 1.495 . S
C2461 H2467 0.959 . S
C2461 H2468 0.961 . S
C2461 H2469 0.960 . S
C2462 C2460 1.381 . S
C2462 C2463 1.394 . S
C2462 H2470 0.930 . S
C2463 C2462 1.394 . S
C2463 C2464 1.383 . S
C2463 H2471 0.929 . S
C2464 C2463 1.383 . S
C2464 C2465 1.377 . S
C2465 H2449 0.930 . S
C2465 C2464 1.377 . S
C2465 C2466 1.379 . S
C2466 H2450 0.931 . S
C2466 C2460 1.383 . S
C2466 C2465 1.379 . S
H2467 C2461 0.959 . S
H2468 C2461 0.961 . S
H2469 C2461 0.960 . S
H2470 C2462 0.930 . S
H2471 C2463 0.929 . S
H2472 C2480 0.929 . S
H2473 C2482 0.930 . S
H2474 C2484 0.930 . S
H2475 C2487 0.929 . S
H2476 C2490 0.930 . S
H2477 C2492 0.960 . S
H2478 C2492 0.960 . S
H2479 C2492 0.960 . S
C2480 H2472 0.929 . S
C2480 C2481 1.377 . S
C2480 C2482 1.384 . S
C2481 C2480 1.377 . S
C2481 C2487 1.390 . S
C2482 H2473 0.930 . S
C2482 C2480 1.384 . S
C2482 C2483 1.372 . S
C2483 C2482 1.372 . S
C2483 C2484 1.400 . S
C2483 C2488 1.490 . S
C2484 H2474 0.930 . S
C2484 C2483 1.400 . S
C2484 C2487 1.386 . S
H2485 C2501 0.930 . S
H2486 C2502 0.931 . S
C2487 H2475 0.929 . S
C2487 C2481 1.390 . S
C2487 C2484 1.386 . S
C2488 C2483 1.490 . S
C2488 C2490 1.395 . S
C2488 C2491 1.403 . S
H2489 C2495 0.930 . S
C2490 H2476 0.930 . S
C2490 C2488 1.395 . S
C2490 C2493 1.403 . S
C2491 C2488 1.403 . S
C2491 C2492 1.524 . S
C2491 C2495 1.400 . S
C2492 H2477 0.960 . S
C2492 H2478 0.960 . S
C2492 H2479 0.960 . S
C2492 C2491 1.524 . S
C2493 C2490 1.403 . S
C2493 C2494 1.392 . S
C2493 C2497 1.495 . S
C2494 C2493 1.392 . S
C2494 C2495 1.385 . S
C2494 C2496 1.478 . S
C2495 H2489 0.930 . S
C2495 C2491 1.400 . S
C2495 C2494 1.385 . S
C2496 C2494 1.478 . S
C2496 C2498 1.381 . S
C2496 C2502 1.383 . S
C2497 C2493 1.495 . S
C2497 H2503 0.959 . S
C2497 H2504 0.961 . S
C2497 H2505 0.960 . S
C2498 C2496 1.381 . S
C2498 C2499 1.394 . S
C2498 H2506 0.930 . S
C2499 C2498 1.394 . S
C2499 C2500 1.383 . S
C2499 H2507 0.929 . S
C2500 C2499 1.383 . S
C2500 C2501 1.377 . S
C2501 H2485 0.930 . S
C2501 C2500 1.377 . S
C2501 C2502 1.379 . S
C2502 H2486 0.931 . S
C2502 C2496 1.383 . S
C2502 C2501 1.379 . S
H2503 C2497 0.959 . S
H2504 C2497 0.961 . S
H2505 C2497 0.960 . S
H2506 C2498 0.930 . S
H2507 C2499 0.929 . S
H2508 C2516 0.929 . S
H2509 C2518 0.930 . S
H2510 C2520 0.930 . S
H2511 C2523 0.929 . S
H2512 C2526 0.930 . S
H2513 C2528 0.960 . S
H2514 C2528 0.960 . S
H2515 C2528 0.960 . S
C2516 H2508 0.929 . S
C2516 C2517 1.377 . S
C2516 C2518 1.384 . S
C2517 C2516 1.377 . S
C2517 C2523 1.390 . S
C2518 H2509 0.930 . S
C2518 C2516 1.384 . S
C2518 C2519 1.372 . S
C2519 C2518 1.372 . S
C2519 C2520 1.400 . S
C2519 C2524 1.490 . S
C2520 H2510 0.930 . S
C2520 C2519 1.400 . S
C2520 C2523 1.386 . S
H2521 C2537 0.930 . S
H2522 C2538 0.931 . S
C2523 H2511 0.929 . S
C2523 C2517 1.390 . S
C2523 C2520 1.386 . S
C2524 C2519 1.490 . S
C2524 C2526 1.395 . S
C2524 C2527 1.403 . S
H2525 C2531 0.930 . S
C2526 H2512 0.930 . S
C2526 C2524 1.395 . S
C2526 C2529 1.403 . S
C2527 C2524 1.403 . S
C2527 C2528 1.524 . S
C2527 C2531 1.400 . S
C2528 H2513 0.960 . S
C2528 H2514 0.960 . S
C2528 H2515 0.960 . S
C2528 C2527 1.524 . S
C2529 C2526 1.403 . S
C2529 C2530 1.392 . S
C2529 C2533 1.495 . S
C2530 C2529 1.392 . S
C2530 C2531 1.385 . S
C2530 C2532 1.478 . S
C2531 H2525 0.930 . S
C2531 C2527 1.400 . S
C2531 C2530 1.385 . S
C2532 C2530 1.478 . S
C2532 C2534 1.381 . S
C2532 C2538 1.383 . S
C2533 C2529 1.495 . S
C2533 H2539 0.959 . S
C2533 H2540 0.961 . S
C2533 H2541 0.960 . S
C2534 C2532 1.381 . S
C2534 C2535 1.394 . S
C2534 H2542 0.930 . S
C2535 C2534 1.394 . S
C2535 C2536 1.383 . S
C2535 H2543 0.929 . S
C2536 C2535 1.383 . S
C2536 C2537 1.377 . S
C2537 H2521 0.930 . S
C2537 C2536 1.377 . S
C2537 C2538 1.379 . S
C2538 H2522 0.931 . S
C2538 C2532 1.383 . S
C2538 C2537 1.379 . S
H2539 C2533 0.959 . S
H2540 C2533 0.961 . S
H2541 C2533 0.960 . S
H2542 C2534 0.930 . S
H2543 C2535 0.929 . S
H2544 C2552 0.929 . S
H2545 C2554 0.930 . S
H2546 C2556 0.930 . S
H2547 C2559 0.929 . S
H2548 C2562 0.930 . S
H2549 C2564 0.960 . S
H2550 C2564 0.960 . S
H2551 C2564 0.960 . S
C2552 H2544 0.929 . S
C2552 C2553 1.377 . S
C2552 C2554 1.384 . S
C2553 C2552 1.377 . S
C2553 C2559 1.390 . S
C2554 H2545 0.930 . S
C2554 C2552 1.384 . S
C2554 C2555 1.372 . S
C2555 C2554 1.372 . S
C2555 C2556 1.400 . S
C2555 C2560 1.490 . S
C2556 H2546 0.930 . S
C2556 C2555 1.400 . S
C2556 C2559 1.386 . S
H2557 C2573 0.930 . S
H2558 C2574 0.931 . S
C2559 H2547 0.929 . S
C2559 C2553 1.390 . S
C2559 C2556 1.386 . S
C2560 C2555 1.490 . S
C2560 C2562 1.395 . S
C2560 C2563 1.403 . S
H2561 C2567 0.930 . S
C2562 H2548 0.930 . S
C2562 C2560 1.395 . S
C2562 C2565 1.403 . S
C2563 C2560 1.403 . S
C2563 C2564 1.524 . S
C2563 C2567 1.400 . S
C2564 H2549 0.960 . S
C2564 H2550 0.960 . S
C2564 H2551 0.960 . S
C2564 C2563 1.524 . S
C2565 C2562 1.403 . S
C2565 C2566 1.392 . S
C2565 C2569 1.495 . S
C2566 C2565 1.392 . S
C2566 C2567 1.385 . S
C2566 C2568 1.478 . S
C2567 H2561 0.930 . S
C2567 C2563 1.400 . S
C2567 C2566 1.385 . S
C2568 C2566 1.478 . S
C2568 C2570 1.381 . S
C2568 C2574 1.383 . S
C2569 C2565 1.495 . S
C2569 H2575 0.959 . S
C2569 H2576 0.961 . S
C2569 H2577 0.960 . S
C2570 C2568 1.381 . S
C2570 C2571 1.394 . S
C2570 H2578 0.930 . S
C2571 C2570 1.394 . S
C2571 C2572 1.383 . S
C2571 H2579 0.929 . S
C2572 C2571 1.383 . S
C2572 C2573 1.377 . S
C2573 H2557 0.930 . S
C2573 C2572 1.377 . S
C2573 C2574 1.379 . S
C2574 H2558 0.931 . S
C2574 C2568 1.383 . S
C2574 C2573 1.379 . S
H2575 C2569 0.959 . S
H2576 C2569 0.961 . S
H2577 C2569 0.960 . S
H2578 C2570 0.930 . S
H2579 C2571 0.929 . S
H2580 C2588 0.929 . S
H2581 C2590 0.930 . S
H2582 C2592 0.930 . S
H2583 C2595 0.929 . S
H2584 C2598 0.930 . S
H2585 C2600 0.960 . S
H2586 C2600 0.960 . S
H2587 C2600 0.960 . S
C2588 H2580 0.929 . S
C2588 C2589 1.377 . S
C2588 C2590 1.384 . S
C2589 C2588 1.377 . S
C2589 C2595 1.390 . S
C2590 H2581 0.930 . S
C2590 C2588 1.384 . S
C2590 C2591 1.372 . S
C2591 C2590 1.372 . S
C2591 C2592 1.400 . S
C2591 C2596 1.490 . S
C2592 H2582 0.930 . S
C2592 C2591 1.400 . S
C2592 C2595 1.386 . S
H2593 C2609 0.930 . S
H2594 C2610 0.931 . S
C2595 H2583 0.929 . S
C2595 C2589 1.390 . S
C2595 C2592 1.386 . S
C2596 C2591 1.490 . S
C2596 C2598 1.395 . S
C2596 C2599 1.403 . S
H2597 C2603 0.930 . S
C2598 H2584 0.930 . S
C2598 C2596 1.395 . S
C2598 C2601 1.403 . S
C2599 C2596 1.403 . S
C2599 C2600 1.524 . S
C2599 C2603 1.400 . S
C2600 H2585 0.960 . S
C2600 H2586 0.960 . S
C2600 H2587 0.960 . S
C2600 C2599 1.524 . S
C2601 C2598 1.403 . S
C2601 C2602 1.392 . S
C2601 C2605 1.495 . S
C2602 C2601 1.392 . S
C2602 C2603 1.385 . S
C2602 C2604 1.478 . S
C2603 H2597 0.930 . S
C2603 C2599 1.400 . S
C2603 C2602 1.385 . S
C2604 C2602 1.478 . S
C2604 C2606 1.381 . S
C2604 C2610 1.383 . S
C2605 C2601 1.495 . S
C2605 H2611 0.959 . S
C2605 H2612 0.961 . S
C2605 H2613 0.960 . S
C2606 C2604 1.381 . S
C2606 C2607 1.394 . S
C2606 H2614 0.930 . S
C2607 C2606 1.394 . S
C2607 C2608 1.383 . S
C2607 H2615 0.929 . S
C2608 C2607 1.383 . S
C2608 C2609 1.377 . S
C2609 H2593 0.930 . S
C2609 C2608 1.377 . S
C2609 C2610 1.379 . S
C2610 H2594 0.931 . S
C2610 C2604 1.383 . S
C2610 C2609 1.379 . S
H2611 C2605 0.959 . S
H2612 C2605 0.961 . S
H2613 C2605 0.960 . S
H2614 C2606 0.930 . S
H2615 C2607 0.929 . S
H2616 C2624 0.929 . S
H2617 C2626 0.930 . S
H2618 C2628 0.930 . S
H2619 C2631 0.929 . S
H2620 C2634 0.930 . S
H2621 C2636 0.960 . S
H2622 C2636 0.960 . S
H2623 C2636 0.960 . S
C2624 H2616 0.929 . S
C2624 C2625 1.377 . S
C2624 C2626 1.384 . S
C2625 C2624 1.377 . S
C2625 C2631 1.390 . S
C2626 H2617 0.930 . S
C2626 C2624 1.384 . S
C2626 C2627 1.372 . S
C2627 C2626 1.372 . S
C2627 C2628 1.400 . S
C2627 C2632 1.490 . S
C2628 H2618 0.930 . S
C2628 C2627 1.400 . S
C2628 C2631 1.386 . S
H2629 C2645 0.930 . S
H2630 C2646 0.931 . S
C2631 H2619 0.929 . S
C2631 C2625 1.390 . S
C2631 C2628 1.386 . S
C2632 C2627 1.490 . S
C2632 C2634 1.395 . S
C2632 C2635 1.403 . S
H2633 C2639 0.930 . S
C2634 H2620 0.930 . S
C2634 C2632 1.395 . S
C2634 C2637 1.403 . S
C2635 C2632 1.403 . S
C2635 C2636 1.524 . S
C2635 C2639 1.400 . S
C2636 H2621 0.960 . S
C2636 H2622 0.960 . S
C2636 H2623 0.960 . S
C2636 C2635 1.524 . S
C2637 C2634 1.403 . S
C2637 C2638 1.392 . S
C2637 C2641 1.495 . S
C2638 C2637 1.392 . S
C2638 C2639 1.385 . S
C2638 C2640 1.478 . S
C2639 H2633 0.930 . S
C2639 C2635 1.400 . S
C2639 C2638 1.385 . S
C2640 C2638 1.478 . S
C2640 C2642 1.381 . S
C2640 C2646 1.383 . S
C2641 C2637 1.495 . S
C2641 H2647 0.959 . S
C2641 H2648 0.961 . S
C2641 H2649 0.960 . S
C2642 C2640 1.381 . S
C2642 C2643 1.394 . S
C2642 H2650 0.930 . S
C2643 C2642 1.394 . S
C2643 C2644 1.383 . S
C2643 H2651 0.929 . S
C2644 C2643 1.383 . S
C2644 C2645 1.377 . S
C2645 H2629 0.930 . S
C2645 C2644 1.377 . S
C2645 C2646 1.379 . S
C2646 H2630 0.931 . S
C2646 C2640 1.383 . S
C2646 C2645 1.379 . S
H2647 C2641 0.959 . S
H2648 C2641 0.961 . S
H2649 C2641 0.960 . S
H2650 C2642 0.930 . S
H2651 C2643 0.929 . S
H2652 C2660 0.929 . S
H2653 C2662 0.930 . S
H2654 C2664 0.930 . S
H2655 C2667 0.929 . S
H2656 C2670 0.930 . S
H2657 C2672 0.960 . S
H2658 C2672 0.960 . S
H2659 C2672 0.960 . S
C2660 H2652 0.929 . S
C2660 C2661 1.377 . S
C2660 C2662 1.384 . S
C2661 C2660 1.377 . S
C2661 C2667 1.390 . S
C2662 H2653 0.930 . S
C2662 C2660 1.384 . S
C2662 C2663 1.372 . S
C2663 C2662 1.372 . S
C2663 C2664 1.400 . S
C2663 C2668 1.490 . S
C2664 H2654 0.930 . S
C2664 C2663 1.400 . S
C2664 C2667 1.386 . S
H2665 C2681 0.930 . S
H2666 C2682 0.931 . S
C2667 H2655 0.929 . S
C2667 C2661 1.390 . S
C2667 C2664 1.386 . S
C2668 C2663 1.490 . S
C2668 C2670 1.395 . S
C2668 C2671 1.403 . S
H2669 C2675 0.930 . S
C2670 H2656 0.930 . S
C2670 C2668 1.395 . S
C2670 C2673 1.403 . S
C2671 C2668 1.403 . S
C2671 C2672 1.524 . S
C2671 C2675 1.400 . S
C2672 H2657 0.960 . S
C2672 H2658 0.960 . S
C2672 H2659 0.960 . S
C2672 C2671 1.524 . S
C2673 C2670 1.403 . S
C2673 C2674 1.392 . S
C2673 C2677 1.495 . S
C2674 C2673 1.392 . S
C2674 C2675 1.385 . S
C2674 C2676 1.478 . S
C2675 H2669 0.930 . S
C2675 C2671 1.400 . S
C2675 C2674 1.385 . S
C2676 C2674 1.478 . S
C2676 C2678 1.381 . S
C2676 C2682 1.383 . S
C2677 C2673 1.495 . S
C2677 H2683 0.959 . S
C2677 H2684 0.961 . S
C2677 H2685 0.960 . S
C2678 C2676 1.381 . S
C2678 C2679 1.394 . S
C2678 H2686 0.930 . S
C2679 C2678 1.394 . S
C2679 C2680 1.383 . S
C2679 H2687 0.929 . S
C2680 C2679 1.383 . S
C2680 C2681 1.377 . S
C2681 H2665 0.930 . S
C2681 C2680 1.377 . S
C2681 C2682 1.379 . S
C2682 H2666 0.931 . S
C2682 C2676 1.383 . S
C2682 C2681 1.379 . S
H2683 C2677 0.959 . S
H2684 C2677 0.961 . S
H2685 C2677 0.960 . S
H2686 C2678 0.930 . S
H2687 C2679 0.929 . S
H2688 C2696 0.929 . S
H2689 C2698 0.930 . S
H2690 C2700 0.930 . S
H2691 C2703 0.929 . S
H2692 C2706 0.930 . S
H2693 C2708 0.960 . S
H2694 C2708 0.960 . S
H2695 C2708 0.960 . S
C2696 H2688 0.929 . S
C2696 C2697 1.377 . S
C2696 C2698 1.384 . S
C2697 C2696 1.377 . S
C2697 C2703 1.390 . S
C2698 H2689 0.930 . S
C2698 C2696 1.384 . S
C2698 C2699 1.372 . S
C2699 C2698 1.372 . S
C2699 C2700 1.400 . S
C2699 C2704 1.490 . S
C2700 H2690 0.930 . S
C2700 C2699 1.400 . S
C2700 C2703 1.386 . S
H2701 C2717 0.930 . S
H2702 C2718 0.931 . S
C2703 H2691 0.929 . S
C2703 C2697 1.390 . S
C2703 C2700 1.386 . S
C2704 C2699 1.490 . S
C2704 C2706 1.395 . S
C2704 C2707 1.403 . S
H2705 C2711 0.930 . S
C2706 H2692 0.930 . S
C2706 C2704 1.395 . S
C2706 C2709 1.403 . S
C2707 C2704 1.403 . S
C2707 C2708 1.524 . S
C2707 C2711 1.400 . S
C2708 H2693 0.960 . S
C2708 H2694 0.960 . S
C2708 H2695 0.960 . S
C2708 C2707 1.524 . S
C2709 C2706 1.403 . S
C2709 C2710 1.392 . S
C2709 C2713 1.495 . S
C2710 C2709 1.392 . S
C2710 C2711 1.385 . S
C2710 C2712 1.478 . S
C2711 H2705 0.930 . S
C2711 C2707 1.400 . S
C2711 C2710 1.385 . S
C2712 C2710 1.478 . S
C2712 C2714 1.381 . S
C2712 C2718 1.383 . S
C2713 C2709 1.495 . S
C2713 H2719 0.959 . S
C2713 H2720 0.961 . S
C2713 H2721 0.960 . S
C2714 C2712 1.381 . S
C2714 C2715 1.394 . S
C2714 H2722 0.930 . S
C2715 C2714 1.394 . S
C2715 C2716 1.383 . S
C2715 H2723 0.929 . S
C2716 C2715 1.383 . S
C2716 C2717 1.377 . S
C2717 H2701 0.930 . S
C2717 C2716 1.377 . S
C2717 C2718 1.379 . S
C2718 H2702 0.931 . S
C2718 C2712 1.383 . S
C2718 C2717 1.379 . S
H2719 C2713 0.959 . S
H2720 C2713 0.961 . S
H2721 C2713 0.960 . S
H2722 C2714 0.930 . S
H2723 C2715 0.929 . S
H2724 C2732 0.929 . S
H2725 C2734 0.930 . S
H2726 C2736 0.930 . S
H2727 C2739 0.929 . S
H2728 C2742 0.930 . S
H2729 C2744 0.960 . S
H2730 C2744 0.960 . S
H2731 C2744 0.960 . S
C2732 H2724 0.929 . S
C2732 C2733 1.377 . S
C2732 C2734 1.384 . S
C2733 C2732 1.377 . S
C2733 C2739 1.390 . S
C2734 H2725 0.930 . S
C2734 C2732 1.384 . S
C2734 C2735 1.372 . S
C2735 C2734 1.372 . S
C2735 C2736 1.400 . S
C2735 C2740 1.490 . S
C2736 H2726 0.930 . S
C2736 C2735 1.400 . S
C2736 C2739 1.386 . S
H2737 C2753 0.930 . S
H2738 C2754 0.931 . S
C2739 H2727 0.929 . S
C2739 C2733 1.390 . S
C2739 C2736 1.386 . S
C2740 C2735 1.490 . S
C2740 C2742 1.395 . S
C2740 C2743 1.403 . S
H2741 C2747 0.930 . S
C2742 H2728 0.930 . S
C2742 C2740 1.395 . S
C2742 C2745 1.403 . S
C2743 C2740 1.403 . S
C2743 C2744 1.524 . S
C2743 C2747 1.400 . S
C2744 H2729 0.960 . S
C2744 H2730 0.960 . S
C2744 H2731 0.960 . S
C2744 C2743 1.524 . S
C2745 C2742 1.403 . S
C2745 C2746 1.392 . S
C2745 C2749 1.495 . S
C2746 C2745 1.392 . S
C2746 C2747 1.385 . S
C2746 C2748 1.478 . S
C2747 H2741 0.930 . S
C2747 C2743 1.400 . S
C2747 C2746 1.385 . S
C2748 C2746 1.478 . S
C2748 C2750 1.381 . S
C2748 C2754 1.383 . S
C2749 C2745 1.495 . S
C2749 H2755 0.959 . S
C2749 H2756 0.961 . S
C2749 H2757 0.960 . S
C2750 C2748 1.381 . S
C2750 C2751 1.394 . S
C2750 H2758 0.930 . S
C2751 C2750 1.394 . S
C2751 C2752 1.383 . S
C2751 H2759 0.929 . S
C2752 C2751 1.383 . S
C2752 C2753 1.377 . S
C2753 H2737 0.930 . S
C2753 C2752 1.377 . S
C2753 C2754 1.379 . S
C2754 H2738 0.931 . S
C2754 C2748 1.383 . S
C2754 C2753 1.379 . S
H2755 C2749 0.959 . S
H2756 C2749 0.961 . S
H2757 C2749 0.960 . S
H2758 C2750 0.930 . S
H2759 C2751 0.929 . S
H2760 C2768 0.929 . S
H2761 C2770 0.930 . S
H2762 C2772 0.930 . S
H2763 C2775 0.929 . S
H2764 C2778 0.930 . S
H2765 C2780 0.960 . S
H2766 C2780 0.960 . S
H2767 C2780 0.960 . S
C2768 H2760 0.929 . S
C2768 C2769 1.377 . S
C2768 C2770 1.384 . S
C2769 C2768 1.377 . S
C2769 C2775 1.390 . S
C2770 H2761 0.930 . S
C2770 C2768 1.384 . S
C2770 C2771 1.372 . S
C2771 C2770 1.372 . S
C2771 C2772 1.400 . S
C2771 C2776 1.490 . S
C2772 H2762 0.930 . S
C2772 C2771 1.400 . S
C2772 C2775 1.386 . S
H2773 C2789 0.930 . S
H2774 C2790 0.931 . S
C2775 H2763 0.929 . S
C2775 C2769 1.390 . S
C2775 C2772 1.386 . S
C2776 C2771 1.490 . S
C2776 C2778 1.395 . S
C2776 C2779 1.403 . S
H2777 C2783 0.930 . S
C2778 H2764 0.930 . S
C2778 C2776 1.395 . S
C2778 C2781 1.403 . S
C2779 C2776 1.403 . S
C2779 C2780 1.524 . S
C2779 C2783 1.400 . S
C2780 H2765 0.960 . S
C2780 H2766 0.960 . S
C2780 H2767 0.960 . S
C2780 C2779 1.524 . S
C2781 C2778 1.403 . S
C2781 C2782 1.392 . S
C2781 C2785 1.495 . S
C2782 C2781 1.392 . S
C2782 C2783 1.385 . S
C2782 C2784 1.478 . S
C2783 H2777 0.930 . S
C2783 C2779 1.400 . S
C2783 C2782 1.385 . S
C2784 C2782 1.478 . S
C2784 C2786 1.381 . S
C2784 C2790 1.383 . S
C2785 C2781 1.495 . S
C2785 H2791 0.959 . S
C2785 H2792 0.961 . S
C2785 H2793 0.960 . S
C2786 C2784 1.381 . S
C2786 C2787 1.394 . S
C2786 H2794 0.930 . S
C2787 C2786 1.394 . S
C2787 C2788 1.383 . S
C2787 H2795 0.929 . S
C2788 C2787 1.383 . S
C2788 C2789 1.377 . S
C2789 H2773 0.930 . S
C2789 C2788 1.377 . S
C2789 C2790 1.379 . S
C2790 H2774 0.931 . S
C2790 C2784 1.383 . S
C2790 C2789 1.379 . S
H2791 C2785 0.959 . S
H2792 C2785 0.961 . S
H2793 C2785 0.960 . S
H2794 C2786 0.930 . S
H2795 C2787 0.929 . S
H2796 C2804 0.929 . S
H2797 C2806 0.930 . S
H2798 C2808 0.930 . S
H2799 C2811 0.929 . S
H2800 C2814 0.930 . S
H2801 C2816 0.960 . S
H2802 C2816 0.960 . S
H2803 C2816 0.960 . S
C2804 H2796 0.929 . S
C2804 C2805 1.377 . S
C2804 C2806 1.384 . S
C2805 C2804 1.377 . S
C2805 C2811 1.390 . S
C2806 H2797 0.930 . S
C2806 C2804 1.384 . S
C2806 C2807 1.372 . S
C2807 C2806 1.372 . S
C2807 C2808 1.400 . S
C2807 C2812 1.490 . S
C2808 H2798 0.930 . S
C2808 C2807 1.400 . S
C2808 C2811 1.386 . S
H2809 C2825 0.930 . S
H2810 C2826 0.931 . S
C2811 H2799 0.929 . S
C2811 C2805 1.390 . S
C2811 C2808 1.386 . S
C2812 C2807 1.490 . S
C2812 C2814 1.395 . S
C2812 C2815 1.403 . S
H2813 C2819 0.930 . S
C2814 H2800 0.930 . S
C2814 C2812 1.395 . S
C2814 C2817 1.403 . S
C2815 C2812 1.403 . S
C2815 C2816 1.524 . S
C2815 C2819 1.400 . S
C2816 H2801 0.960 . S
C2816 H2802 0.960 . S
C2816 H2803 0.960 . S
C2816 C2815 1.524 . S
C2817 C2814 1.403 . S
C2817 C2818 1.392 . S
C2817 C2821 1.495 . S
C2818 C2817 1.392 . S
C2818 C2819 1.385 . S
C2818 C2820 1.478 . S
C2819 H2813 0.930 . S
C2819 C2815 1.400 . S
C2819 C2818 1.385 . S
C2820 C2818 1.478 . S
C2820 C2822 1.381 . S
C2820 C2826 1.383 . S
C2821 C2817 1.495 . S
C2821 H2827 0.959 . S
C2821 H2828 0.961 . S
C2821 H2829 0.960 . S
C2822 C2820 1.381 . S
C2822 C2823 1.394 . S
C2822 H2830 0.930 . S
C2823 C2822 1.394 . S
C2823 C2824 1.383 . S
C2823 H2831 0.929 . S
C2824 C2823 1.383 . S
C2824 C2825 1.377 . S
C2825 H2809 0.930 . S
C2825 C2824 1.377 . S
C2825 C2826 1.379 . S
C2826 H2810 0.931 . S
C2826 C2820 1.383 . S
C2826 C2825 1.379 . S
H2827 C2821 0.959 . S
H2828 C2821 0.961 . S
H2829 C2821 0.960 . S
H2830 C2822 0.930 . S
H2831 C2823 0.929 . S
H2832 C2840 0.929 . S
H2833 C2842 0.930 . S
H2834 C2844 0.930 . S
H2835 C2847 0.929 . S
H2836 C2850 0.930 . S
H2837 C2852 0.960 . S
H2838 C2852 0.960 . S
H2839 C2852 0.960 . S
C2840 H2832 0.929 . S
C2840 C2841 1.377 . S
C2840 C2842 1.384 . S
C2841 C2840 1.377 . S
C2841 C2847 1.390 . S
C2842 H2833 0.930 . S
C2842 C2840 1.384 . S
C2842 C2843 1.372 . S
C2843 C2842 1.372 . S
C2843 C2844 1.400 . S
C2843 C2848 1.490 . S
C2844 H2834 0.930 . S
C2844 C2843 1.400 . S
C2844 C2847 1.386 . S
H2845 C2861 0.930 . S
H2846 C2862 0.931 . S
C2847 H2835 0.929 . S
C2847 C2841 1.390 . S
C2847 C2844 1.386 . S
C2848 C2843 1.490 . S
C2848 C2850 1.395 . S
C2848 C2851 1.403 . S
H2849 C2855 0.930 . S
C2850 H2836 0.930 . S
C2850 C2848 1.395 . S
C2850 C2853 1.403 . S
C2851 C2848 1.403 . S
C2851 C2852 1.524 . S
C2851 C2855 1.400 . S
C2852 H2837 0.960 . S
C2852 H2838 0.960 . S
C2852 H2839 0.960 . S
C2852 C2851 1.524 . S
C2853 C2850 1.403 . S
C2853 C2854 1.392 . S
C2853 C2857 1.495 . S
C2854 C2853 1.392 . S
C2854 C2855 1.385 . S
C2854 C2856 1.478 . S
C2855 H2849 0.930 . S
C2855 C2851 1.400 . S
C2855 C2854 1.385 . S
C2856 C2854 1.478 . S
C2856 C2858 1.381 . S
C2856 C2862 1.383 . S
C2857 C2853 1.495 . S
C2857 H2863 0.959 . S
C2857 H2864 0.961 . S
C2857 H2865 0.960 . S
C2858 C2856 1.381 . S
C2858 C2859 1.394 . S
C2858 H2866 0.930 . S
C2859 C2858 1.394 . S
C2859 C2860 1.383 . S
C2859 H2867 0.929 . S
C2860 C2859 1.383 . S
C2860 C2861 1.377 . S
C2861 H2845 0.930 . S
C2861 C2860 1.377 . S
C2861 C2862 1.379 . S
C2862 H2846 0.931 . S
C2862 C2856 1.383 . S
C2862 C2861 1.379 . S
H2863 C2857 0.959 . S
H2864 C2857 0.961 . S
H2865 C2857 0.960 . S
H2866 C2858 0.930 . S
H2867 C2859 0.929 . S
H2868 C2876 0.929 . S
H2869 C2878 0.930 . S
H2870 C2880 0.930 . S
H2871 C2883 0.929 . S
H2872 C2886 0.930 . S
H2873 C2888 0.960 . S
H2874 C2888 0.960 . S
H2875 C2888 0.960 . S
C2876 H2868 0.929 . S
C2876 C2877 1.377 . S
C2876 C2878 1.384 . S
C2877 C2876 1.377 . S
C2877 C2883 1.390 . S
C2878 H2869 0.930 . S
C2878 C2876 1.384 . S
C2878 C2879 1.372 . S
C2879 C2878 1.372 . S
C2879 C2880 1.400 . S
C2879 C2884 1.490 . S
C2880 H2870 0.930 . S
C2880 C2879 1.400 . S
C2880 C2883 1.386 . S
H2881 C2897 0.930 . S
H2882 C2898 0.931 . S
C2883 H2871 0.929 . S
C2883 C2877 1.390 . S
C2883 C2880 1.386 . S
C2884 C2879 1.490 . S
C2884 C2886 1.395 . S
C2884 C2887 1.403 . S
H2885 C2891 0.930 . S
C2886 H2872 0.930 . S
C2886 C2884 1.395 . S
C2886 C2889 1.403 . S
C2887 C2884 1.403 . S
C2887 C2888 1.524 . S
C2887 C2891 1.400 . S
C2888 H2873 0.960 . S
C2888 H2874 0.960 . S
C2888 H2875 0.960 . S
C2888 C2887 1.524 . S
C2889 C2886 1.403 . S
C2889 C2890 1.392 . S
C2889 C2893 1.495 . S
C2890 C2889 1.392 . S
C2890 C2891 1.385 . S
C2890 C2892 1.478 . S
C2891 H2885 0.930 . S
C2891 C2887 1.400 . S
C2891 C2890 1.385 . S
C2892 C2890 1.478 . S
C2892 C2894 1.381 . S
C2892 C2898 1.383 . S
C2893 C2889 1.495 . S
C2893 H2899 0.959 . S
C2893 H2900 0.961 . S
C2893 H2901 0.960 . S
C2894 C2892 1.381 . S
C2894 C2895 1.394 . S
C2894 H2902 0.930 . S
C2895 C2894 1.394 . S
C2895 C2896 1.383 . S
C2895 H2903 0.929 . S
C2896 C2895 1.383 . S
C2896 C2897 1.377 . S
C2897 H2881 0.930 . S
C2897 C2896 1.377 . S
C2897 C2898 1.379 . S
C2898 H2882 0.931 . S
C2898 C2892 1.383 . S
C2898 C2897 1.379 . S
H2899 C2893 0.959 . S
H2900 C2893 0.961 . S
H2901 C2893 0.960 . S
H2902 C2894 0.930 . S
H2903 C2895 0.929 . S
H2904 C2912 0.929 . S
H2905 C2914 0.930 . S
H2906 C2916 0.930 . S
H2907 C2919 0.929 . S
H2908 C2922 0.930 . S
H2909 C2924 0.960 . S
H2910 C2924 0.960 . S
H2911 C2924 0.960 . S
C2912 H2904 0.929 . S
C2912 C2913 1.377 . S
C2912 C2914 1.384 . S
C2913 C2912 1.377 . S
C2913 C2919 1.390 . S
C2914 H2905 0.930 . S
C2914 C2912 1.384 . S
C2914 C2915 1.372 . S
C2915 C2914 1.372 . S
C2915 C2916 1.400 . S
C2915 C2920 1.490 . S
C2916 H2906 0.930 . S
C2916 C2915 1.400 . S
C2916 C2919 1.386 . S
H2917 C2933 0.930 . S
H2918 C2934 0.931 . S
C2919 H2907 0.929 . S
C2919 C2913 1.390 . S
C2919 C2916 1.386 . S
C2920 C2915 1.490 . S
C2920 C2922 1.395 . S
C2920 C2923 1.403 . S
H2921 C2927 0.930 . S
C2922 H2908 0.930 . S
C2922 C2920 1.395 . S
C2922 C2925 1.403 . S
C2923 C2920 1.403 . S
C2923 C2924 1.524 . S
C2923 C2927 1.400 . S
C2924 H2909 0.960 . S
C2924 H2910 0.960 . S
C2924 H2911 0.960 . S
C2924 C2923 1.524 . S
C2925 C2922 1.403 . S
C2925 C2926 1.392 . S
C2925 C2929 1.495 . S
C2926 C2925 1.392 . S
C2926 C2927 1.385 . S
C2926 C2928 1.478 . S
C2927 H2921 0.930 . S
C2927 C2923 1.400 . S
C2927 C2926 1.385 . S
C2928 C2926 1.478 . S
C2928 C2930 1.381 . S
C2928 C2934 1.383 . S
C2929 C2925 1.495 . S
C2929 H2935 0.959 . S
C2929 H2936 0.961 . S
C2929 H2937 0.960 . S
C2930 C2928 1.381 . S
C2930 C2931 1.394 . S
C2930 H2938 0.930 . S
C2931 C2930 1.394 . S
C2931 C2932 1.383 . S
C2931 H2939 0.929 . S
C2932 C2931 1.383 . S
C2932 C2933 1.377 . S
C2933 H2917 0.930 . S
C2933 C2932 1.377 . S
C2933 C2934 1.379 . S
C2934 H2918 0.931 . S
C2934 C2928 1.383 . S
C2934 C2933 1.379 . S
H2935 C2929 0.959 . S
H2936 C2929 0.961 . S
H2937 C2929 0.960 . S
H2938 C2930 0.930 . S
H2939 C2931 0.929 . S
H2940 C2948 0.929 . S
H2941 C2950 0.930 . S
H2942 C2952 0.930 . S
H2943 C2955 0.929 . S
H2944 C2958 0.930 . S
H2945 C2960 0.960 . S
H2946 C2960 0.960 . S
H2947 C2960 0.960 . S
C2948 H2940 0.929 . S
C2948 C2949 1.377 . S
C2948 C2950 1.384 . S
C2949 C2948 1.377 . S
C2949 C2955 1.390 . S
C2950 H2941 0.930 . S
C2950 C2948 1.384 . S
C2950 C2951 1.372 . S
C2951 C2950 1.372 . S
C2951 C2952 1.400 . S
C2951 C2956 1.490 . S
C2952 H2942 0.930 . S
C2952 C2951 1.400 . S
C2952 C2955 1.386 . S
H2953 C2969 0.930 . S
H2954 C2970 0.931 . S
C2955 H2943 0.929 . S
C2955 C2949 1.390 . S
C2955 C2952 1.386 . S
C2956 C2951 1.490 . S
C2956 C2958 1.395 . S
C2956 C2959 1.403 . S
H2957 C2963 0.930 . S
C2958 H2944 0.930 . S
C2958 C2956 1.395 . S
C2958 C2961 1.403 . S
C2959 C2956 1.403 . S
C2959 C2960 1.524 . S
C2959 C2963 1.400 . S
C2960 H2945 0.960 . S
C2960 H2946 0.960 . S
C2960 H2947 0.960 . S
C2960 C2959 1.524 . S
C2961 C2958 1.403 . S
C2961 C2962 1.392 . S
C2961 C2965 1.495 . S
C2962 C2961 1.392 . S
C2962 C2963 1.385 . S
C2962 C2964 1.478 . S
C2963 H2957 0.930 . S
C2963 C2959 1.400 . S
C2963 C2962 1.385 . S
C2964 C2962 1.478 . S
C2964 C2966 1.381 . S
C2964 C2970 1.383 . S
C2965 C2961 1.495 . S
C2965 H2971 0.959 . S
C2965 H2972 0.961 . S
C2965 H2973 0.960 . S
C2966 C2964 1.381 . S
C2966 C2967 1.394 . S
C2966 H2974 0.930 . S
C2967 C2966 1.394 . S
C2967 C2968 1.383 . S
C2967 H2975 0.929 . S
C2968 C2967 1.383 . S
C2968 C2969 1.377 . S
C2969 H2953 0.930 . S
C2969 C2968 1.377 . S
C2969 C2970 1.379 . S
C2970 H2954 0.931 . S
C2970 C2964 1.383 . S
C2970 C2969 1.379 . S
H2971 C2965 0.959 . S
H2972 C2965 0.961 . S
H2973 C2965 0.960 . S
H2974 C2966 0.930 . S
H2975 C2967 0.929 . S
C825 C107 1.150 . S
C844 C33 1.160 . S
C861 C5 1.153 . S
C880 C67 1.140 . S
C897 C39 1.148 . S
C916 C101 1.154 . S
C933 C135 1.149 . S
C952 C73 1.141 . S
C969 C175 1.152 . S
C988 C169 1.144 . S
C1005 C209 1.152 . S
C1024 C203 1.166 . S
C1041 C237 1.151 . S
C1060 C243 1.152 . S
C1077 C141 1.146 . S
C1096 C271 1.145 . S
C1113 C305 1.151 . S
C1132 C617 1.131 . S
C1149 C339 1.155 . S
C1168 C651 1.164 . S
C1185 C685 1.151 . S
C1204 C373 1.163 . S
C1221 C583 1.154 . S
C1240 C407 1.160 . S
C1257 C753 1.147 . S
C1276 C441 1.134 . S
C1293 C475 1.152 . S
C1312 C549 1.129 . S
C1329 C509 1.155 . S
C1348 C787 1.166 . S
C1365 C719 1.154 . S
C1384 C543 1.147 . S
C1401 C311 1.154 . S
C1420 C577 1.156 . S
C1437 C611 1.155 . S
C1456 C515 1.152 . S
C1473 C413 1.154 . S
C1492 C645 1.153 . S
C1509 C447 1.146 . S
C1528 C679 1.140 . S
C1545 C481 1.149 . S
C1564 C713 1.164 . S
C1581 C379 1.148 . S
C1600 C747 1.133 . S
C1617 C277 1.148 . S
C1636 C781 1.134 . S
C1653 C345 1.149 . S
C1672 C815 1.165 . S
C1689 C224 2.113 . S
C1708 C20 2.116 . S
C1725 C54 2.116 . S
C1744 C258 2.113 . S
C1761 C156 2.113 . S
C1780 C88 2.116 . S
C1797 C190 2.113 . S
C1816 C122 2.104 . S
C1833 C360 2.115 . S
C1852 C292 2.105 . S
C1869 C326 2.113 . S
C1888 C394 2.110 . S
C1905 C428 2.116 . S
C1924 C496 2.102 . S
C1941 C530 2.113 . S
C1960 C462 2.104 . S
C1977 C564 2.113 . S
C1996 C598 2.117 . S
C2013 C632 2.116 . S
C2032 C802 2.112 . S
C2049 C666 2.115 . S
C2068 C734 2.108 . S
C2085 C768 2.115 . S
C2104 C700 2.104 . S
C2121 C2 1.064 . S
C2140 C281 1.015 . S
C2157 C36 1.061 . S
C2176 C315 0.994 . S
C2193 C349 1.040 . S
C2212 C70 1.074 . S
C2229 C383 1.025 . S
C2248 C104 1.053 . S
C2265 C138 1.061 . S
C2284 C417 0.993 . S
C2301 C451 1.025 . S
C2320 C172 1.057 . S
C2337 C206 1.062 . S
C2356 C485 0.998 . S
C2373 C519 1.025 . S
C2392 C240 1.051 . S
C2409 C274 1.061 . S
C2428 C553 1.049 . S
C2445 C791 1.028 . S
C2464 C308 1.047 . S
C2481 C342 1.060 . S
C2500 C723 0.993 . S
C2517 C376 1.063 . S
C2536 C757 0.999 . S
C2553 C587 1.030 . S
C2572 C410 1.068 . S
C2589 C444 1.062 . S
C2608 C621 0.992 . S
C2625 C478 1.062 . S
C2644 C655 1.060 . S
C2661 C512 1.060 . S
C2680 C689 1.024 . S
C2697 C546 1.064 . S
C2716 C9 1.021 . S
C2733 C580 1.061 . S
C2752 C145 0.992 . S
C2769 C614 1.062 . S
C2788 C179 1.067 . S
C2805 C213 1.041 . S
C2824 C648 1.072 . S
C2841 C682 1.062 . S
C2860 C247 0.992 . S
C2877 C77 1.037 . S
C2896 C716 1.075 . S
C2913 C111 1.032 . S
C2932 C750 1.046 . S
C2949 C784 1.064 . S
C2968 C43 1.002 . S
