# Generated by pormake.
# Topology yfg, (5)-cn, num edge types: 1
# Building blocks:
#     Node 0, Type 0, BuildingBlock: BEQFEK_clean_sbu_0, # of connection points: 5
#     Node 1, Type 0, BuildingBlock: BEQFEK_clean_sbu_0, # of connection points: 5
#     Node 2, Type 0, BuildingBlock: BEQFEK_clean_sbu_0, # of connection points: 5
#     Node 3, Type 0, BuildingBlock: BEQFEK_clean_sbu_0, # of connection points: 5
#     Node 4, Type 0, BuildingBlock: BEQFEK_clean_sbu_0, # of connection points: 5
#     Node 5, Type 0, BuildingBlock: BEQFEK_clean_sbu_0, # of connection points: 5
#     Node 6, Type 0, BuildingBlock: BEQFEK_clean_sbu_0, # of connection points: 5
#     Node 7, Type 0, BuildingBlock: BEQFEK_clean_sbu_0, # of connection points: 5
#     Edge 8, Type (0, 0), BuildingBlock: XUDNAN_clean_linker_2, # of connection points: 2
#     Edge 9, Type (0, 0), BuildingBlock: XUDNAN_clean_linker_2, # of connection points: 2
#     Edge 10, Type (0, 0), BuildingBlock: XUDNAN_clean_linker_2, # of connection points: 2
#     Edge 11, Type (0, 0), BuildingBlock: XUDNAN_clean_linker_2, # of connection points: 2
#     Edge 12, Type (0, 0), BuildingBlock: XUDNAN_clean_linker_2, # of connection points: 2
#     Edge 13, Type (0, 0), BuildingBlock: XUDNAN_clean_linker_2, # of connection points: 2
#     Edge 14, Type (0, 0), BuildingBlock: XUDNAN_clean_linker_2, # of connection points: 2
#     Edge 15, Type (0, 0), BuildingBlock: XUDNAN_clean_linker_2, # of connection points: 2
#     Edge 16, Type (0, 0), BuildingBlock: XUDNAN_clean_linker_2, # of connection points: 2
#     Edge 17, Type (0, 0), BuildingBlock: XUDNAN_clean_linker_2, # of connection points: 2
#     Edge 18, Type (0, 0), BuildingBlock: XUDNAN_clean_linker_2, # of connection points: 2
#     Edge 19, Type (0, 0), BuildingBlock: XUDNAN_clean_linker_2, # of connection points: 2
#     Edge 20, Type (0, 0), BuildingBlock: XUDNAN_clean_linker_2, # of connection points: 2
#     Edge 21, Type (0, 0), BuildingBlock: XUDNAN_clean_linker_2, # of connection points: 2
#     Edge 22, Type (0, 0), BuildingBlock: XUDNAN_clean_linker_2, # of connection points: 2
#     Edge 23, Type (0, 0), BuildingBlock: XUDNAN_clean_linker_2, # of connection points: 2
#     Edge 24, Type (0, 0), BuildingBlock: XUDNAN_clean_linker_2, # of connection points: 2
#     Edge 25, Type (0, 0), BuildingBlock: XUDNAN_clean_linker_2, # of connection points: 2
#     Edge 26, Type (0, 0), BuildingBlock: XUDNAN_clean_linker_2, # of connection points: 2
#     Edge 27, Type (0, 0), BuildingBlock: XUDNAN_clean_linker_2, # of connection points: 2
# Relax obj value: 0.515
# Max RMSD: 0.218
# Mean RMSD: 0.218
data_MOF--net-yfg--node1-BEQFEK_clean_sbu_0--edge1-XUDNAN_clean_linker_2
_symmetry_space_group_name_H-M    P1
_symmetry_Int_Tables_number       1
_symmetry_cell_setting            triclinic
loop_
_symmetry_equiv_pos_as_xyz
'x, y, z'
_cell_length_a     33.354682
_cell_length_b     33.36706
_cell_length_c     44.687761
_cell_angle_alpha  90.098717
_cell_angle_beta   89.92959
_cell_angle_gamma 90.02442
loop_
_atom_site_label
_atom_site_type_symbol
_atom_site_fract_x
_atom_site_fract_y
_atom_site_fract_z
_atom_type_partial_charge
Co0 Co 0.22583 0.46703 0.09271 0.0
Co1 Co 0.25993 0.46725 0.02747 0.0
C2 C 0.28007 0.53211 0.07206 0.0
O3 O 0.25913 0.5156 0.09231 0.0
O4 O 0.28236 0.51714 0.04588 0.0
C5 C 0.1854 0.50002 0.14238 0.0
O6 O 0.19328 0.53368 0.12835 0.0
C7 C 0.27 0.50338 0.96946 0.0
C8 C 0.29762 0.4556 0.94213 0.0
C9 C 0.28619 0.49559 0.94137 0.0
N10 N 0.27243 0.47 0.986 0.0
N11 N 0.28856 0.44131 0.96952 0.0
C12 C 0.25097 0.54125 0.98057 0.0
H13 H 0.22813 0.53436 -0.0021 0.0
H14 H 0.23686 0.55798 0.9619 0.0
H15 H 0.27416 0.5604 0.99113 0.0
C16 C 0.14967 0.46012 0.06023 0.0
N17 N 0.18968 0.46491 0.06063 0.0
N18 N 0.20362 0.46335 0.0331 0.0
C19 C 0.17275 0.45695 0.01422 0.0
C20 C 0.13765 0.45506 0.03087 0.0
C21 C 0.12409 0.45649 0.08766 0.0
H22 H 0.13745 0.4342 0.10308 0.0
H23 H 0.12312 0.48585 0.09931 0.0
H24 H 0.09304 0.44709 0.08223 0.0
O25 O 0.26186 0.42048 0.09145 0.0
O26 O 0.28767 0.42036 0.04554 0.0
H27 H 0.20079 0.42959 0.97621 0.0
H28 H 0.14849 0.44219 0.97055 0.0
C29 C 0.17698 0.45187 0.98109 0.0
H30 H 0.1861 0.48082 0.97104 0.0
H31 H 0.29445 0.4124 0.97723 0.0
O32 O 0.19647 0.46695 0.13095 0.0
C33 C 0.28507 0.40545 0.07174 0.0
Co34 Co 0.53168 0.22998 0.34446 0.0
Co35 Co 0.5201 0.26104 0.27909 0.0
C36 C 0.45895 0.27725 0.32642 0.0
O37 O 0.48044 0.25999 0.346 0.0
O38 O 0.46998 0.27901 0.29918 0.0
C39 C 0.50455 0.18999 0.39582 0.0
O40 O 0.46999 0.19523 0.38234 0.0
C41 C 0.48005 0.2688 0.222 0.0
C42 C 0.52735 0.29251 0.19227 0.0
C43 C 0.48716 0.28176 0.19292 0.0
N44 N 0.51416 0.27218 0.23766 0.0
N45 N 0.54247 0.28612 0.21979 0.0
C46 C 0.44232 0.25145 0.23477 0.0
H47 H 0.44937 0.23086 0.25352 0.0
H48 H 0.42518 0.23509 0.21733 0.0
H49 H 0.42348 0.27601 0.24381 0.0
C50 C 0.53371 0.15199 0.31268 0.0
N51 N 0.53242 0.19236 0.3128 0.0
N52 N 0.52844 0.20532 0.28516 0.0
C53 C 0.52721 0.17346 0.26658 0.0
C54 C 0.53002 0.13876 0.28342 0.0
C55 C 0.53421 0.12668 0.34031 0.0
H56 H 0.50477 0.12913 0.3517 0.0
H57 H 0.53979 0.09467 0.33514 0.0
H58 H 0.55776 0.13762 0.35578 0.0
O59 O 0.57555 0.26934 0.3404 0.0
O60 O 0.56504 0.294 0.29489 0.0
H61 H 0.53266 0.14726 0.22256 0.0
H62 H 0.49109 0.18088 0.22748 0.0
C63 C 0.52294 0.17568 0.23329 0.0
H64 H 0.54126 0.20063 0.22434 0.0
H65 H 0.57191 0.29175 0.22647 0.0
O66 O 0.5365 0.20224 0.3833 0.0
C67 C 0.58427 0.29381 0.31952 0.0
Co68 Co 0.77593 0.51493 0.59436 0.0
Co69 Co 0.73981 0.50995 0.52965 0.0
C70 C 0.7272 0.44434 0.57411 0.0
O71 O 0.74673 0.46358 0.59384 0.0
O72 O 0.72302 0.45802 0.54773 0.0
C73 C 0.82592 0.48363 0.63889 0.0
O74 O 0.82635 0.45307 0.62031 0.0
C75 C 0.71121 0.48064 0.47125 0.0
C76 C 0.72461 0.53179 0.44155 0.0
C77 C 0.71089 0.4926 0.44145 0.0
N78 N 0.72615 0.51071 0.48792 0.0
N79 N 0.73323 0.5415 0.4701 0.0
C80 C 0.69366 0.44317 0.48428 0.0
H81 H 0.67696 0.45052 0.50501 0.0
H82 H 0.71821 0.42206 0.4899 0.0
H83 H 0.6724 0.4285 0.46868 0.0
C84 C 0.84964 0.53059 0.56036 0.0
N85 N 0.81042 0.52137 0.56152 0.0
N86 N 0.79644 0.51713 0.53416 0.0
C87 C 0.82722 0.52159 0.51473 0.0
C88 C 0.86152 0.53074 0.53078 0.0
C89 C 0.87514 0.53987 0.58703 0.0
H90 H 0.88404 0.51141 0.59792 0.0
H91 H 0.90284 0.55615 0.58062 0.0
H92 H 0.85794 0.55813 0.60335 0.0
O93 O 0.73625 0.55772 0.59525 0.0
O94 O 0.7088 0.55404 0.55003 0.0
H95 H 0.81484 0.54659 0.47182 0.0
H96 H 0.8539 0.5097 0.47165 0.0
C97 C 0.82435 0.51754 0.48148 0.0
H98 H 0.80224 0.49408 0.47547 0.0
H99 H 0.7448 0.56891 0.47736 0.0
O100 O 0.80643 0.51496 0.63191 0.0
C101 C 0.71068 0.56963 0.57612 0.0
Co102 Co 0.46471 0.77165 0.84461 0.0
Co103 Co 0.47498 0.73436 0.78057 0.0
C104 C 0.53815 0.72536 0.82768 0.0
O105 O 0.51705 0.74436 0.84664 0.0
O106 O 0.52605 0.71974 0.80099 0.0
C107 C 0.49023 0.81712 0.89434 0.0
O108 O 0.52513 0.81288 0.88107 0.0
C109 C 0.51407 0.71825 0.72355 0.0
C110 C 0.4649 0.69438 0.69567 0.0
C111 C 0.50575 0.70222 0.69549 0.0
N112 N 0.48001 0.7192 0.73956 0.0
N113 N 0.4506 0.70521 0.72272 0.0
C114 C 0.55321 0.73413 0.73488 0.0
H115 H 0.54804 0.75806 0.75171 0.0
H116 H 0.57165 0.74612 0.71623 0.0
H117 H 0.56987 0.70954 0.74594 0.0
C118 C 0.45769 0.84557 0.80918 0.0
N119 N 0.46116 0.80552 0.8111 0.0
N120 N 0.4655 0.7904 0.78405 0.0
C121 C 0.46532 0.82071 0.76409 0.0
C122 C 0.46032 0.85645 0.77945 0.0
C123 C 0.455 0.87332 0.83544 0.0
H124 H 0.43241 0.862 0.85156 0.0
H125 H 0.48453 0.87452 0.84678 0.0
H126 H 0.44664 0.90409 0.82841 0.0
O127 O 0.423 0.73043 0.8434 0.0
O128 O 0.43042 0.70223 0.79867 0.0
H129 H 0.45327 0.7917 0.72227 0.0
H130 H 0.46583 0.8443 0.71909 0.0
C131 C 0.47243 0.81606 0.73122 0.0
H132 H 0.50421 0.80792 0.72729 0.0
H133 H 0.42095 0.70233 0.72989 0.0
O134 O 0.45907 0.80243 0.88218 0.0
C135 C 0.41298 0.70425 0.82406 0.0
Co136 Co 0.22395 0.54079 0.39909 0.0
Co137 Co 0.25965 0.51951 0.46181 0.0
C138 C 0.2658 0.46161 0.41233 0.0
O139 O 0.24809 0.48686 0.39567 0.0
O140 O 0.27223 0.4691 0.43986 0.0
C141 C 0.17038 0.51862 0.35467 0.0
O142 O 0.16526 0.48907 0.3737 0.0
C143 C 0.28857 0.48367 0.51806 0.0
C144 C 0.27368 0.53121 0.55074 0.0
C145 C 0.2886 0.49258 0.54851 0.0
N146 N 0.2729 0.51502 0.50328 0.0
N147 N 0.26482 0.5436 0.52289 0.0
C148 C 0.30659 0.448 0.50274 0.0
H149 H 0.32129 0.45747 0.48165 0.0
H150 H 0.28254 0.42624 0.49719 0.0
H151 H 0.32944 0.43323 0.51696 0.0
C152 C 0.1518 0.55576 0.4351 0.0
N153 N 0.19043 0.54481 0.43245 0.0
N154 N 0.20381 0.53228 0.45849 0.0
C155 C 0.17303 0.53272 0.47819 0.0
C156 C 0.13956 0.54823 0.46403 0.0
C157 C 0.12668 0.57214 0.41024 0.0
H158 H 0.14556 0.58924 0.39431 0.0
H159 H 0.11216 0.54694 0.3982 0.0
H160 H 0.10267 0.59188 0.41912 0.0
O161 O 0.26721 0.57991 0.40135 0.0
O162 O 0.2949 0.56262 0.44467 0.0
H163 H 0.18292 0.54197 0.52487 0.0
H164 H 0.14499 0.50559 0.51663 0.0
C165 C 0.17472 0.51714 0.50953 0.0
H166 H 0.19725 0.49286 0.51135 0.0
H167 H 0.25241 0.57129 0.51729 0.0
O168 O 0.1938 0.54719 0.36165 0.0
C169 C 0.29445 0.58403 0.42102 0.0
Co170 Co 0.4543 0.21688 0.6513 0.0
Co171 Co 0.47535 0.25898 0.71182 0.0
C172 C 0.53176 0.2633 0.6613 0.0
O173 O 0.50675 0.2432 0.64601 0.0
O174 O 0.5247 0.27196 0.68855 0.0
C175 C 0.48084 0.16386 0.608 0.0
O176 O 0.51048 0.16207 0.6273 0.0
C177 C 0.51589 0.28168 0.76724 0.0
C178 C 0.46553 0.30193 0.79567 0.0
C179 C 0.50684 0.29741 0.79529 0.0
N180 N 0.48161 0.27756 0.75183 0.0
N181 N 0.45159 0.28957 0.76894 0.0
C182 C 0.55586 0.26843 0.75556 0.0
H183 H 0.55209 0.24351 0.73934 0.0
H184 H 0.57563 0.25855 0.77408 0.0
H185 H 0.57033 0.29377 0.74365 0.0
C186 C 0.44739 0.14646 0.69084 0.0
N187 N 0.45327 0.1859 0.68637 0.0
N188 N 0.46429 0.20285 0.71167 0.0
C189 C 0.46691 0.17428 0.73289 0.0
C190 C 0.45638 0.1377 0.72034 0.0
C191 C 0.43714 0.1171 0.66665 0.0
H192 H 0.41891 0.13177 0.6491 0.0
H193 H 0.46521 0.10547 0.65654 0.0
H194 H 0.42018 0.09126 0.6757 0.0
O195 O 0.41308 0.25877 0.65213 0.0
O196 O 0.43045 0.29034 0.69396 0.0
H197 H 0.47768 0.15397 0.77817 0.0
H198 H 0.51235 0.1911 0.76416 0.0
C199 C 0.48058 0.18141 0.76433 0.0
H200 H 0.46239 0.20559 0.77458 0.0
H201 H 0.4216 0.28951 0.7623 0.0
O202 O 0.44981 0.18411 0.61476 0.0
C203 C 0.40844 0.28732 0.67075 0.0
Co204 Co 0.78298 0.47615 0.89981 0.0
Co205 Co 0.74038 0.48875 0.96178 0.0
C206 C 0.73878 0.55139 0.91305 0.0
O207 O 0.76103 0.53017 0.89629 0.0
O208 O 0.72812 0.53908 0.93886 0.0
C209 C 0.83289 0.49444 0.85041 0.0
O210 O 0.83075 0.5308 0.8616 0.0
C211 C 0.72519 0.53021 0.01834 0.0
C212 C 0.70527 0.48114 0.04804 0.0
C213 C 0.71387 0.52177 0.04761 0.0
N214 N 0.72433 0.49595 0.00251 0.0
N215 N 0.7122 0.46676 0.02032 0.0
C216 C 0.7335 0.57027 0.00452 0.0
H217 H 0.71122 0.57581 0.98663 0.0
H218 H 0.76367 0.56992 0.99402 0.0
H219 H 0.73126 0.59534 0.02064 0.0
C220 C 0.8514 0.45851 0.9381 0.0
N221 N 0.81316 0.46998 0.93448 0.0
N222 N 0.79622 0.47539 0.96077 0.0
C223 C 0.82374 0.46774 0.98219 0.0
C224 C 0.8593 0.4564 0.9684 0.0
C225 C 0.87998 0.45109 0.91282 0.0
H226 H 0.88245 0.47866 0.89914 0.0
H227 H 0.91038 0.44294 0.92072 0.0
H228 H 0.86813 0.4268 0.89834 0.0
O229 O 0.73804 0.43849 0.8996 0.0
O230 O 0.70746 0.44493 0.94355 0.0
H231 H 0.79142 0.44798 0.02071 0.0
H232 H 0.84278 0.4616 0.02829 0.0
C233 C 0.81572 0.46936 0.0151 0.0
H234 H 0.80563 0.49992 0.02132 0.0
H235 H 0.70906 0.43695 0.01362 0.0
O236 O 0.81546 0.46577 0.86381 0.0
C237 C 0.71027 0.42875 0.91773 0.0
Co238 Co 0.5397 0.78207 0.15024 0.0
Co239 Co 0.52062 0.73746 0.21021 0.0
C240 C 0.46881 0.72462 0.15841 0.0
O241 O 0.49246 0.74728 0.14385 0.0
O242 O 0.47415 0.71813 0.18621 0.0
C243 C 0.50796 0.83195 0.10688 0.0
O244 O 0.47753 0.82923 0.12549 0.0
C245 C 0.48728 0.70405 0.26628 0.0
C246 C 0.5369 0.71634 0.29777 0.0
C247 C 0.49812 0.70166 0.29631 0.0
N248 N 0.51786 0.72054 0.25102 0.0
N249 N 0.54758 0.72727 0.26991 0.0
C250 C 0.44978 0.68883 0.25179 0.0
H251 H 0.4294 0.71441 0.24732 0.0
H252 H 0.43424 0.66649 0.26602 0.0
H253 H 0.45722 0.67438 0.23015 0.0
C254 C 0.53422 0.85267 0.18945 0.0
N255 N 0.53363 0.81285 0.1849 0.0
N256 N 0.52309 0.79469 0.20981 0.0
C257 C 0.51517 0.82282 0.23077 0.0
C258 C 0.52242 0.86021 0.21851 0.0
C259 C 0.54462 0.88325 0.16626 0.0
H260 H 0.56645 0.87075 0.15001 0.0
H261 H 0.51699 0.89214 0.15419 0.0
H262 H 0.55739 0.91051 0.17687 0.0
O263 O 0.58739 0.74829 0.15291 0.0
O264 O 0.56996 0.71222 0.19272 0.0
H265 H 0.52272 0.805 0.27623 0.0
H266 H 0.48388 0.84161 0.27077 0.0
C267 C 0.49818 0.81447 0.26111 0.0
H268 H 0.47581 0.78995 0.25973 0.0
H269 H 0.57483 0.74036 0.26388 0.0
O270 O 0.54099 0.81547 0.11391 0.0
C271 C 0.59381 0.71976 0.17111 0.0
H272 H 0.17996 0.57201 0.30893 0.0
H273 H 0.12716 0.45679 0.33072 0.0
H274 H 0.11373 0.4448 0.27727 0.0
H275 H 0.11356 0.5941 0.24131 0.0
H276 H 0.15522 0.61662 0.22186 0.0
H277 H 0.15173 0.62043 0.26204 0.0
H278 H 0.22273 0.5896 0.26679 0.0
H279 H 0.22628 0.58523 0.22685 0.0
H280 H 0.23279 0.54148 0.24994 0.0
H281 H 0.12063 0.43833 0.22228 0.0
H282 H 0.143 0.44028 0.16957 0.0
H283 H 0.18895 0.56052 0.18305 0.0
C284 C 0.16418 0.54495 0.30257 0.0
C285 C 0.15468 0.51532 0.32393 0.0
C286 C 0.13462 0.47999 0.31473 0.0
C287 C 0.12674 0.47295 0.2844 0.0
C288 C 0.13843 0.50185 0.2637 0.0
C289 C 0.15602 0.53755 0.27242 0.0
C290 C 0.1703 0.56142 0.24568 0.0
C291 C 0.14625 0.60045 0.24254 0.0
C292 C 0.21569 0.56988 0.24744 0.0
C293 C 0.16045 0.53238 0.22075 0.0
C294 C 0.14147 0.49847 0.23152 0.0
C295 C 0.13428 0.46522 0.21337 0.0
C296 C 0.14733 0.46645 0.18358 0.0
C297 C 0.16721 0.50073 0.17234 0.0
C298 C 0.17282 0.53441 0.19094 0.0
H299 H 0.44343 0.18579 0.43592 0.0
H300 H 0.5689 0.15577 0.42384 0.0
H301 H 0.5721 0.13233 0.47624 0.0
H302 H 0.45474 0.22903 0.50406 0.0
H303 H 0.40772 0.21241 0.51963 0.0
H304 H 0.4129 0.21806 0.47988 0.0
H305 H 0.39103 0.14415 0.47225 0.0
H306 H 0.38588 0.13825 0.51217 0.0
H307 H 0.41768 0.10469 0.49123 0.0
H308 H 0.5643 0.12141 0.53098 0.0
H309 H 0.54833 0.12963 0.58445 0.0
H310 H 0.42835 0.16902 0.5612 0.0
C311 C 0.47121 0.17304 0.44403 0.0
C312 C 0.50581 0.17214 0.42589 0.0
C313 C 0.54202 0.15651 0.43746 0.0
C314 C 0.544 0.14282 0.46706 0.0
C315 C 0.50951 0.14503 0.48467 0.0
C316 C 0.4738 0.15986 0.47358 0.0
C317 C 0.44283 0.16477 0.49807 0.0
C318 C 0.42877 0.20866 0.50055 0.0
C319 C 0.40725 0.13625 0.49313 0.0
C320 C 0.46732 0.15231 0.52494 0.0
C321 C 0.50529 0.13988 0.51664 0.0
C322 C 0.53445 0.13038 0.53774 0.0
C323 C 0.52507 0.13518 0.56809 0.0
C324 C 0.48709 0.15004 0.57697 0.0
C325 C 0.45747 0.15718 0.55511 0.0
H326 H 0.83485 0.54289 0.68041 0.0
H327 H 0.85655 0.4163 0.66519 0.0
H328 H 0.87531 0.40831 0.71818 0.0
H329 H 0.91465 0.55712 0.74095 0.0
H330 H 0.88241 0.59123 0.76099 0.0
H331 H 0.8806 0.58902 0.72069 0.0
H332 H 0.80416 0.57537 0.72316 0.0
H333 H 0.80573 0.57729 0.76324 0.0
H334 H 0.78599 0.53349 0.74473 0.0
H335 H 0.87563 0.41069 0.77356 0.0
H336 H 0.86011 0.42403 0.82669 0.0
H337 H 0.84092 0.54947 0.80613 0.0
C338 C 0.8449 0.51378 0.688 0.0
C339 C 0.84417 0.48021 0.66879 0.0
C340 C 0.85706 0.44249 0.67953 0.0
C341 C 0.86794 0.43769 0.70958 0.0
C342 C 0.86654 0.47108 0.72834 0.0
C343 C 0.85602 0.5086 0.71784 0.0
C344 C 0.85164 0.53845 0.74314 0.0
C345 C 0.88429 0.57087 0.74133 0.0
C346 C 0.80939 0.55719 0.74359 0.0
C347 C 0.85834 0.5112 0.76965 0.0
C348 C 0.86776 0.47263 0.76067 0.0
C349 C 0.8696 0.44099 0.78096 0.0
C350 C 0.86053 0.44877 0.81103 0.0
C351 C 0.84979 0.48784 0.8204 0.0
C352 C 0.85016 0.51958 0.79965 0.0
H353 H 0.55069 0.82402 0.93475 0.0
H354 H 0.42404 0.84793 0.92229 0.0
H355 H 0.41855 0.86844 0.97529 0.0
H356 H 0.54042 0.77625 0.00047 0.0
H357 H 0.58592 0.79424 0.01759 0.0
H358 H 0.58231 0.79138 0.97758 0.0
H359 H 0.60001 0.86685 0.97352 0.0
H360 H 0.60378 0.86993 0.01371 0.0
H361 H 0.57067 0.90322 0.99383 0.0
H362 H 0.42418 0.87521 0.03046 0.0
H363 H 0.43906 0.86349 0.0837 0.0
H364 H 0.56176 0.83301 0.06064 0.0
C365 C 0.52216 0.83505 0.94291 0.0
C366 C 0.48787 0.83485 0.92448 0.0
C367 C 0.4507 0.84811 0.93611 0.0
C368 C 0.4474 0.86009 0.96609 0.0
C369 C 0.48155 0.85863 0.98403 0.0
C370 C 0.51828 0.84648 0.97284 0.0
C371 C 0.5488 0.84142 -0.00243 0.0
C372 C 0.56528 0.79827 -0.00166 0.0
C373 C 0.58283 0.8722 0.99447 0.0
C374 C 0.52294 0.85042 0.02458 0.0
C375 C 0.48459 0.86146 0.01625 0.0
C376 C 0.4543 0.86741 0.03727 0.0
C377 C 0.46304 0.86057 0.06749 0.0
C378 C 0.50158 0.8473 0.0763 0.0
C379 C 0.53218 0.84363 0.05463 0.0
H380 H 0.07289 0.50336 0.03645 0.0
H381 H 0.11095 0.38755 0.003 0.0
H382 H 0.04088 0.37194 0.9885 0.0
H383 H 0.976 0.47178 0.06586 0.0
H384 H 0.951 0.51719 0.05459 0.0
H385 H 0.00357 0.51818 0.06386 0.0
H386 H 0.02011 0.54886 0.012 0.0
H387 H 0.96762 0.54853 0.00281 0.0
H388 H 0.00308 0.52375 0.97859 0.0
H389 H 0.96772 0.37025 0.97634 0.0
H390 H 0.89752 0.38521 0.96236 0.0
H391 H 0.90745 0.50247 0.00337 0.0
C392 C 0.06622 0.47476 0.02607 0.0
C393 C 0.09676 0.4466 0.02056 0.0
C394 C 0.08759 0.40947 0.00699 0.0
C395 C 0.048 0.40028 -0.00097 0.0
C396 C 0.0183 0.42862 0.00497 0.0
C397 C 0.027 0.46526 0.01791 0.0
C398 C 0.99011 0.49142 0.02022 0.0
C399 C 0.97956 0.50014 0.05309 0.0
C400 C 0.99556 0.53043 0.00233 0.0
C401 C 0.95939 0.46415 0.00592 0.0
C402 C 0.97613 0.42778 -0.00223 0.0
C403 C 0.95418 0.39843 0.98284 0.0
C404 C 0.91447 0.40706 0.9751 0.0
C405 C 0.89754 0.44475 0.98209 0.0
C406 C 0.91979 0.47318 -0.00162 0.0
H407 H 0.57735 0.07222 0.28805 0.0
H408 H 0.46194 0.11373 0.25629 0.0
H409 H 0.44504 0.04492 0.23989 0.0
H410 H 0.59584 0.00394 0.22841 0.0
H411 H 0.61965 0.96676 0.25157 0.0
H412 H 0.62157 0.01881 0.26211 0.0
H413 H 0.59053 0.00126 0.31368 0.0
H414 H 0.58822 0.94914 0.30317 0.0
H415 H 0.54345 0.97478 0.31521 0.0
H416 H 0.44184 0.97293 0.22526 0.0
H417 H 0.45414 0.90227 0.21078 0.0
H418 H 0.57122 0.90708 0.25236 0.0
C419 C 0.54846 0.06652 0.27785 0.0
C420 C 0.52077 0.09779 0.2734 0.0
C421 C 0.48345 0.08985 0.25967 0.0
C422 C 0.47353 0.05096 0.25053 0.0
C423 C 0.50135 0.02055 0.25537 0.0
C424 C 0.53813 0.02784 0.26856 0.0
C425 C 0.56332 0.99016 0.26985 0.0
C426 C 0.60239 0.99523 0.25191 0.0
C427 C 0.57187 0.97813 0.30242 0.0
C428 C 0.53519 0.96071 0.25491 0.0
C429 C 0.49943 0.9788 0.24701 0.0
C430 C 0.46945 0.95825 0.23165 0.0
C431 C 0.47654 0.9183 0.22364 0.0
C432 C 0.51316 0.89968 0.23109 0.0
C433 C 0.54263 0.9208 0.24717 0.0
H434 H 0.08364 0.49039 0.47303 0.0
H435 H 0.10469 0.61805 0.4807 0.0
H436 H 0.03446 0.628 0.49747 0.0
H437 H 0.98372 0.4977 0.44415 0.0
H438 H 0.96525 0.4546 0.46416 0.0
H439 H 0.01735 0.45743 0.4537 0.0
H440 H 0.03832 0.44747 0.50904 0.0
H441 H 0.98631 0.44413 0.51962 0.0
H442 H 0.01846 0.48051 0.53736 0.0
H443 H 0.96245 0.6237 0.51316 0.0
H444 H 0.89325 0.60525 0.5281 0.0
H445 H 0.91874 0.48058 0.50894 0.0
C446 C 0.07334 0.52027 0.47864 0.0
C447 C 0.09904 0.55353 0.47609 0.0
C448 C 0.08503 0.59238 0.48297 0.0
C449 C 0.04536 0.59823 0.49233 0.0
C450 C 0.02039 0.56484 0.49439 0.0
C451 C 0.0338 0.5266 0.48782 0.0
C452 C 0.00077 0.49591 0.49153 0.0
C453 C 0.99122 0.4752 0.4616 0.0
C454 C 0.01162 0.4652 0.51584 0.0
C455 C 0.96674 0.5228 0.50142 0.0
C456 C 0.97867 0.56247 0.50285 0.0
C457 C 0.95269 0.59281 0.51199 0.0
C458 C 0.91361 0.58219 0.5203 0.0
C459 C 0.90117 0.54175 0.51924 0.0
C460 C 0.92779 0.51176 0.50946 0.0
H461 H 0.40237 0.07724 0.72844 0.0
H462 H 0.52784 0.10806 0.73852 0.0
H463 H 0.54293 0.03825 0.75343 0.0
H464 H 0.39717 0.00777 0.79112 0.0
H465 H 0.36353 0.97404 0.77205 0.0
H466 H 0.36281 0.02675 0.76345 0.0
H467 H 0.37465 0.0101 0.70743 0.0
H468 H 0.37602 0.95737 0.71593 0.0
H469 H 0.41758 0.98051 0.69678 0.0
H470 H 0.54469 0.96508 0.76496 0.0
H471 H 0.53198 0.89369 0.77691 0.0
H472 H 0.40545 0.91033 0.75929 0.0
C473 C 0.43288 0.06916 0.73409 0.0
C474 C 0.46405 0.09756 0.7325 0.0
C475 C 0.50366 0.08646 0.73999 0.0
C476 C 0.51249 0.04697 0.74822 0.0
C477 C 0.48124 0.01927 0.74887 0.0
C478 C 0.44216 0.02991 0.74238 0.0
C479 C 0.41418 0.99433 0.74474 0.0
C480 C 0.38256 0.00114 0.76931 0.0
C481 C 0.39445 0.98504 0.71441 0.0
C482 C 0.44368 0.96199 0.75347 0.0
C483 C 0.48224 0.977 0.75555 0.0
C484 C 0.51467 0.95294 0.7634 0.0
C485 C 0.50731 0.91259 0.76993 0.0
C486 C 0.46798 0.89707 0.76851 0.0
C487 C 0.43583 0.92179 0.75999 0.0
H488 H 0.41551 0.66727 0.17888 0.0
H489 H 0.44914 0.73485 0.09966 0.0
H490 H 0.40085 0.69624 0.06981 0.0
H491 H 0.40638 0.5742 0.14369 0.0
H492 H 0.3634 0.55761 0.1648 0.0
H493 H 0.39776 0.59312 0.18097 0.0
H494 H 0.33928 0.64269 0.19031 0.0
H495 H 0.30464 0.60718 0.17428 0.0
H496 H 0.30764 0.65734 0.15953 0.0
H497 H 0.35523 0.64549 0.04709 0.0
H498 H 0.31145 0.58836 0.03398 0.0
H499 H 0.3046 0.55552 0.1278 0.0
C500 C 0.41214 0.67449 0.1554 0.0
C501 C 0.43631 0.70409 0.14171 0.0
C502 C 0.43116 0.7123 0.11079 0.0
C503 C 0.40369 0.69057 0.09355 0.0
C504 C 0.38112 0.66097 0.10752 0.0
C505 C 0.38457 0.6532 0.1378 0.0
C506 C 0.35792 0.61847 0.14689 0.0
C507 C 0.38286 0.58381 0.15984 0.0
C508 C 0.32544 0.63226 0.16906 0.0
C509 C 0.33991 0.60739 0.11685 0.0
C510 C 0.35365 0.63233 0.09445 0.0
C511 C 0.34359 0.6262 0.0645 0.0
C512 C 0.31883 0.59362 0.05724 0.0
C513 C 0.30419 0.56783 0.07986 0.0
C514 C 0.31462 0.57521 0.11006 0.0
H515 H 0.43978 0.30499 0.38231 0.0
H516 H 0.39415 0.29605 0.29167 0.0
H517 H 0.3339 0.33407 0.30664 0.0
H518 H 0.34142 0.30142 0.42195 0.0
H519 H 0.35699 0.33817 0.44917 0.0
H520 H 0.39338 0.30479 0.4327 0.0
H521 H 0.43569 0.36576 0.41558 0.0
H522 H 0.39958 0.39919 0.43202 0.0
H523 H 0.41259 0.40409 0.39304 0.0
H524 H 0.28255 0.37835 0.32971 0.0
H525 H 0.246 0.43011 0.35798 0.0
H526 H 0.32552 0.41238 0.43366 0.0
C527 C 0.4166 0.31014 0.36581 0.0
C528 C 0.42143 0.29724 0.33586 0.0
C529 C 0.39102 0.30555 0.31472 0.0
C530 C 0.35656 0.32687 0.32308 0.0
C531 C 0.35302 0.33975 0.35267 0.0
C532 C 0.38227 0.33186 0.37371 0.0
C533 C 0.37338 0.35298 0.40306 0.0
C534 C 0.36584 0.32251 0.42821 0.0
C535 C 0.40731 0.38224 0.41139 0.0
C536 C 0.33524 0.37507 0.39491 0.0
C537 C 0.32362 0.36629 0.36593 0.0
C538 C 0.29102 0.38507 0.35254 0.0
C539 C 0.27049 0.41452 0.36881 0.0
C540 C 0.28281 0.42527 0.3981 0.0
C541 C 0.31491 0.40435 0.41157 0.0
H542 H 0.58603 0.31933 0.68185 0.0
H543 H 0.55808 0.24413 0.60521 0.0
H544 H 0.61117 0.27728 0.57617 0.0
H545 H 0.60043 0.40667 0.64269 0.0
H546 H 0.64165 0.42531 0.66475 0.0
H547 H 0.60576 0.39174 0.68125 0.0
H548 H 0.66287 0.34305 0.69595 0.0
H549 H 0.69911 0.37666 0.6796 0.0
H550 H 0.69697 0.3251 0.6676 0.0
H551 H 0.65913 0.32532 0.55286 0.0
H552 H 0.70202 0.3825 0.53824 0.0
H553 H 0.70146 0.42467 0.63013 0.0
C554 C 0.59187 0.30905 0.65926 0.0
C555 C 0.56777 0.27916 0.64587 0.0
C556 C 0.576 0.26702 0.61603 0.0
C557 C 0.60624 0.28558 0.5993 0.0
C558 C 0.62848 0.3159 0.61277 0.0
C559 C 0.62215 0.32719 0.64221 0.0
C560 C 0.64819 0.3627 0.65054 0.0
C561 C 0.62246 0.39872 0.66037 0.0
C562 C 0.6786 0.35117 0.67486 0.0
C563 C 0.66884 0.37051 0.62088 0.0
C564 C 0.65726 0.34301 0.59943 0.0
C565 C 0.66924 0.34647 0.56961 0.0
C566 C 0.69342 0.37911 0.56146 0.0
C567 C 0.70551 0.40765 0.58309 0.0
C568 C 0.69358 0.40273 0.61324 0.0
H569 H 0.67527 0.59565 0.93459 0.0
H570 H 0.76064 0.5889 0.8613 0.0
H571 H 0.72226 0.63968 0.83377 0.0
H572 H 0.59144 0.59976 0.89249 0.0
H573 H 0.56383 0.63514 0.91501 0.0
H574 H 0.60174 0.60442 0.93195 0.0
H575 H 0.63843 0.66763 0.95156 0.0
H576 H 0.60019 0.69871 0.93506 0.0
H577 H 0.65216 0.70678 0.92575 0.0
H578 H 0.66831 0.67977 0.80998 0.0
H579 H 0.60563 0.71302 0.79408 0.0
H580 H 0.55654 0.69704 0.88316 0.0
C581 C 0.68677 0.60602 0.9133 0.0
C582 C 0.72095 0.58817 0.90015 0.0
C583 C 0.73452 0.60202 0.8719 0.0
C584 C 0.71295 0.63097 0.85603 0.0
C585 C 0.67822 0.64641 0.86889 0.0
C586 C 0.66564 0.63518 0.89718 0.0
C587 C 0.62538 0.65374 0.90467 0.0
C588 C 0.59376 0.62132 0.91141 0.0
C589 C 0.62929 0.68349 0.93081 0.0
C590 C 0.61644 0.67527 0.87561 0.0
C591 C 0.64744 0.67091 0.85534 0.0
C592 C 0.64428 0.6844 0.8259 0.0
C593 C 0.60849 0.70288 0.81697 0.0
C594 C 0.57655 0.70789 0.83747 0.0
C595 C 0.58092 0.69442 0.86724 0.0
H596 H 0.28774 0.36856 0.12591 0.0
H597 H 0.34706 0.37179 0.03946 0.0
H598 H 0.40164 0.32967 0.05962 0.0
H599 H 0.37012 0.38555 0.16655 0.0
H600 H 0.35685 0.35417 0.19784 0.0
H601 H 0.31821 0.37526 0.17487 0.0
H602 H 0.28975 0.30422 0.16454 0.0
H603 H 0.3284 0.28283 0.18772 0.0
H604 H 0.32222 0.26583 0.1497 0.0
H605 H 0.45537 0.29821 0.09189 0.0
H606 H 0.50188 0.27948 0.13268 0.0
H607 H 0.40773 0.30232 0.19745 0.0
C608 C 0.31143 0.35932 0.11081 0.0
C609 C 0.31307 0.37347 0.0811 0.0
C610 C 0.34499 0.36109 0.06228 0.0
C611 C 0.37612 0.33712 0.07354 0.0
C612 C 0.3746 0.32555 0.10351 0.0
C613 C 0.34272 0.33595 0.12175 0.0
C614 C 0.35041 0.32498 0.15401 0.0
C615 C 0.34884 0.3622 0.17448 0.0
C616 C 0.32094 0.29253 0.1646 0.0
C617 C 0.39241 0.30856 0.15141 0.0
C618 C 0.40565 0.30814 0.1221 0.0
C619 C 0.4449 0.29745 0.11482 0.0
C620 C 0.47116 0.28712 0.13812 0.0
C621 C 0.45815 0.28798 0.16831 0.0
C622 C 0.41822 0.29882 0.17476 0.0
H623 H 0.64425 0.29404 0.36108 0.0
H624 H 0.58696 0.36805 0.2939 0.0
H625 H 0.6226 0.42735 0.31341 0.0
H626 H 0.63525 0.35648 0.41863 0.0
H627 H 0.68315 0.34757 0.43601 0.0
H628 H 0.6609 0.3095 0.41295 0.0
H629 H 0.7242 0.30749 0.37931 0.0
H630 H 0.74719 0.34509 0.40271 0.0
H631 H 0.74286 0.35322 0.36298 0.0
H632 H 0.6513 0.47995 0.34739 0.0
H633 H 0.6764 0.52021 0.38998 0.0
H634 H 0.72073 0.41185 0.43192 0.0
C635 C 0.64048 0.32245 0.34974 0.0
C636 C 0.61289 0.32648 0.32602 0.0
C637 C 0.60829 0.36418 0.31192 0.0
C638 C 0.62836 0.39809 0.32289 0.0
C639 C 0.65375 0.39352 0.34739 0.0
C640 C 0.66082 0.35639 0.36008 0.0
C641 C 0.6865 0.35997 0.38785 0.0
C642 C 0.66515 0.34235 0.41546 0.0
C643 C 0.72763 0.34028 0.3829 0.0
C644 C 0.69022 0.40503 0.39004 0.0
C645 C 0.67156 0.42393 0.36637 0.0
C646 C 0.66694 0.46548 0.36561 0.0
C647 C 0.68112 0.4881 0.38994 0.0
C648 C 0.69937 0.46904 0.41469 0.0
C649 C 0.70555 0.42722 0.41391 0.0
H650 H 0.58255 0.67411 0.70151 0.0
H651 H 0.49183 0.70082 0.63512 0.0
H652 H 0.53745 0.67618 0.5953 0.0
H653 H 0.67033 0.70293 0.65563 0.0
H654 H 0.70019 0.66308 0.6712 0.0
H655 H 0.66157 0.68637 0.69346 0.0
H656 H 0.62932 0.61678 0.70279 0.0
H657 H 0.66756 0.59334 0.68048 0.0
H658 H 0.61548 0.58599 0.67125 0.0
H659 H 0.59155 0.64212 0.56364 0.0
H660 H 0.64779 0.60153 0.54373 0.0
H661 H 0.70295 0.60231 0.63169 0.0
C662 C 0.57273 0.67677 0.6786 0.0
C663 C 0.53409 0.69082 0.67138 0.0
C664 C 0.52163 0.69076 0.64108 0.0
C665 C 0.54738 0.677 0.61834 0.0
C666 C 0.58551 0.66361 0.62632 0.0
C667 C 0.5981 0.66369 0.65578 0.0
C668 C 0.63915 0.64521 0.65911 0.0
C669 C 0.66961 0.67626 0.67051 0.0
C670 C 0.63775 0.60815 0.6796 0.0
C671 C 0.64744 0.63373 0.62701 0.0
C672 C 0.61641 0.64466 0.60827 0.0
C673 C 0.61632 0.63406 0.57804 0.0
C674 C 0.6484 0.61103 0.56691 0.0
C675 C 0.67998 0.59887 0.58605 0.0
C676 C 0.67968 0.61143 0.61625 0.0
H677 H 0.3075 0.57461 0.9469 0.0
H678 H 0.29064 0.48046 0.88116 0.0
H679 H 0.31372 0.52683 0.8414 0.0
H680 H 0.27501 0.65934 0.89859 0.0
H681 H 0.31188 0.69207 0.91513 0.0
H682 H 0.28952 0.65269 0.93711 0.0
H683 H 0.36027 0.6253 0.94953 0.0
H684 H 0.38284 0.66418 0.92746 0.0
H685 H 0.3939 0.61241 0.91939 0.0
H686 H 0.34647 0.58197 0.81023 0.0
H687 H 0.38596 0.63943 0.79121 0.0
H688 H 0.37588 0.69707 0.87806 0.0
C689 C 0.30637 0.56406 0.92409 0.0
C690 C 0.29571 0.52425 0.91708 0.0
C691 C 0.29801 0.51112 0.88696 0.0
C692 C 0.31089 0.53728 0.86424 0.0
C693 C 0.32105 0.5765 0.87206 0.0
C694 C 0.31853 0.58979 0.90131 0.0
C695 C 0.33424 0.63198 0.90467 0.0
C696 C 0.30065 0.66072 0.91444 0.0
C697 C 0.36992 0.63351 0.92653 0.0
C698 C 0.3473 0.64008 0.87292 0.0
C699 C 0.33927 0.60801 0.85425 0.0
C700 C 0.35216 0.60756 0.82452 0.0
C701 C 0.37457 0.64033 0.81391 0.0
C702 C 0.3839 0.67292 0.83307 0.0
C703 C 0.36893 0.673 0.86263 0.0
H704 H 0.29751 0.64375 0.37952 0.0
H705 H 0.37017 0.58069 0.44468 0.0
H706 H 0.43106 0.61174 0.42345 0.0
H707 H 0.35686 0.62869 0.32025 0.0
H708 H 0.35044 0.67682 0.30267 0.0
H709 H 0.3119 0.65744 0.32674 0.0
H710 H 0.31538 0.72109 0.35993 0.0
H711 H 0.35334 0.74131 0.33548 0.0
H712 H 0.36291 0.73696 0.37503 0.0
H713 H 0.48421 0.63845 0.38885 0.0
H714 H 0.52472 0.66336 0.34636 0.0
H715 H 0.41724 0.71163 0.3055 0.0
C716 C 0.32608 0.63763 0.39006 0.0
C717 C 0.32912 0.60983 0.41373 0.0
C718 C 0.36707 0.60222 0.42672 0.0
C719 C 0.40186 0.61964 0.41475 0.0
C720 C 0.398 0.64518 0.39026 0.0
C721 C 0.36092 0.65495 0.37853 0.0
C722 C 0.36496 0.68 0.35049 0.0
C723 C 0.34486 0.65949 0.32347 0.0
C724 C 0.34816 0.72236 0.35555 0.0
C725 C 0.41004 0.68073 0.34722 0.0
C726 C 0.42866 0.66096 0.37053 0.0
C727 C 0.46998 0.65472 0.37083 0.0
C728 C 0.49271 0.66878 0.34657 0.0
C729 C 0.47397 0.6884 0.32224 0.0
C730 C 0.43231 0.69549 0.32319 0.0
H731 H 0.28321 0.41043 0.55349 0.0
H732 H 0.31976 0.51719 0.60187 0.0
H733 H 0.34339 0.4749 0.64361 0.0
H734 H 0.25628 0.34769 0.61849 0.0
H735 H 0.27738 0.30327 0.60173 0.0
H736 H 0.25634 0.34189 0.57837 0.0
H737 H 0.32335 0.34724 0.54912 0.0
H738 H 0.34428 0.3084 0.57209 0.0
H739 H 0.36918 0.35622 0.5694 0.0
H740 H 0.37027 0.42117 0.67708 0.0
H741 H 0.4036 0.36122 0.69738 0.0
H742 H 0.35356 0.28969 0.62525 0.0
C743 C 0.29656 0.42504 0.57264 0.0
C744 C 0.30074 0.4671 0.57402 0.0
C745 C 0.31657 0.48495 0.60024 0.0
C746 C 0.32988 0.4612 0.62411 0.0
C747 C 0.32679 0.41968 0.62149 0.0
C748 C 0.31062 0.40178 0.59634 0.0
C749 C 0.315 0.35668 0.59736 0.0
C750 C 0.27379 0.33618 0.5991 0.0
C751 C 0.33942 0.34125 0.57041 0.0
C752 C 0.3378 0.3521 0.6264 0.0
C753 C 0.34324 0.38865 0.64043 0.0
C754 C 0.36577 0.39231 0.66652 0.0
C755 C 0.38454 0.358 0.67792 0.0
C756 C 0.38129 0.32072 0.66286 0.0
C757 C 0.35641 0.31765 0.6374 0.0
H758 H 0.70114 0.40113 0.86091 0.0
H759 H 0.64689 0.39575 0.94919 0.0
H760 H 0.59054 0.35626 0.92814 0.0
H761 H 0.6126 0.41884 0.82258 0.0
H762 H 0.62673 0.3904 0.7899 0.0
H763 H 0.66474 0.4132 0.81277 0.0
H764 H 0.69906 0.34408 0.8196 0.0
H765 H 0.66107 0.32102 0.79668 0.0
H766 H 0.67037 0.30248 0.83389 0.0
H767 H 0.53736 0.32195 0.89579 0.0
H768 H 0.49282 0.29663 0.85562 0.0
H769 H 0.58198 0.32988 0.78946 0.0
C770 C 0.678 0.39097 0.87614 0.0
C771 C 0.67866 0.40125 0.90681 0.0
C772 C 0.64717 0.38797 0.92565 0.0
C773 C 0.6151 0.36553 0.91389 0.0
C774 C 0.61505 0.35684 0.88331 0.0
C775 C 0.64582 0.36922 0.86479 0.0
C776 C 0.63751 0.35939 0.83239 0.0
C777 C 0.63525 0.39773 0.81331 0.0
C778 C 0.66887 0.32998 0.81992 0.0
C779 C 0.597 0.33974 0.83538 0.0
C780 C 0.58454 0.33809 0.86487 0.0
C781 C 0.54714 0.32263 0.8727 0.0
C782 C 0.52202 0.30848 0.84976 0.0
C783 C 0.53444 0.31001 0.81944 0.0
C784 C 0.57229 0.32621 0.81236 0.0
H785 H 0.5848 0.63995 0.16546 0.0
H786 H 0.67154 0.73561 0.15628 0.0
H787 H 0.71895 0.68856 0.13209 0.0
H788 H 0.65781 0.55183 0.17107 0.0
H789 H 0.62566 0.52147 0.14787 0.0
H790 H 0.60421 0.55844 0.17264 0.0
H791 H 0.56714 0.59041 0.12772 0.0
H792 H 0.58874 0.55409 0.10283 0.0
H793 H 0.59564 0.6068 0.09568 0.0
H794 H 0.75201 0.6348 0.10215 0.0
H795 H 0.76535 0.58161 0.06491 0.0
H796 H 0.65323 0.52396 0.08834 0.0
C797 C 0.61467 0.65025 0.15979 0.0
C798 C 0.62532 0.69081 0.1635 0.0
C799 C 0.66352 0.70426 0.15424 0.0
C800 C 0.69056 0.67773 0.14057 0.0
C801 C 0.67853 0.63813 0.13596 0.0
C802 C 0.64136 0.62444 0.14525 0.0
C803 C 0.63231 0.58333 0.13248 0.0
C804 C 0.62987 0.55191 0.15751 0.0
C805 C 0.5937 0.58374 0.11355 0.0
C806 C 0.66912 0.57698 0.11326 0.0
C807 C 0.69608 0.6082 0.11645 0.0
C808 C 0.73115 0.6102 0.09954 0.0
C809 C 0.73816 0.58026 0.07813 0.0
C810 C 0.70949 0.54975 0.07306 0.0
C811 C 0.67546 0.54719 0.0917 0.0
loop_
_geom_bond_atom_site_label_1
_geom_bond_atom_site_label_2
_geom_bond_distance
_geom_bond_site_symmetry_2
_ccdc_geom_bond_type
Co0 O3 1.970 . S
Co0 N17 1.989 . S
Co0 O25 1.967 . S
Co0 O32 1.920 . S
Co1 O4 1.966 . S
Co1 N10 2.022 1_554 S
Co1 N18 1.993 . S
Co1 O26 1.941 . S
C2 O3 1.258 . S
C2 O4 1.263 . S
O3 Co0 1.970 . S
O3 C2 1.258 . S
O4 Co1 1.966 . S
O4 C2 1.263 . S
C5 O6 1.235 . S
C5 O32 1.289 . S
O6 C5 1.235 . S
C7 C9 1.400 . S
C7 N10 1.351 . S
C7 C12 1.501 . S
C8 C9 1.387 . S
C8 N11 1.341 . S
C9 C7 1.400 . S
C9 C8 1.387 . S
N10 Co1 2.022 1_556 S
N10 C7 1.351 . S
N10 N11 1.365 . S
N11 C8 1.341 . S
N11 N10 1.365 . S
N11 H31 0.862 . S
C12 C7 1.501 . S
C12 H13 0.961 1_556 S
C12 H14 0.961 . S
C12 H15 0.960 . S
H13 C12 0.961 1_554 S
H14 C12 0.961 . S
H15 C12 0.960 . S
C16 N17 1.342 . S
C16 C20 1.401 . S
C16 C21 1.499 . S
N17 Co0 1.989 . S
N17 C16 1.342 . S
N17 N18 1.388 . S
N18 Co1 1.993 . S
N18 N17 1.388 . S
N18 C19 1.346 . S
C19 N18 1.346 . S
C19 C20 1.396 . S
C19 C29 1.510 1_554 S
C20 C16 1.401 . S
C20 C19 1.396 . S
C21 C16 1.499 . S
C21 H22 0.959 . S
C21 H23 0.960 . S
C21 H24 0.961 . S
H22 C21 0.959 . S
H23 C21 0.960 . S
H24 C21 0.961 . S
O25 Co0 1.967 . S
O25 C33 1.258 . S
O26 Co1 1.941 . S
O26 C33 1.266 . S
H27 C29 0.959 . S
H28 C29 0.961 . S
C29 C19 1.510 1_556 S
C29 H27 0.959 . S
C29 H28 0.961 . S
C29 H30 0.960 . S
H30 C29 0.960 . S
H31 N11 0.862 . S
O32 Co0 1.920 . S
O32 C5 1.289 . S
C33 O25 1.258 . S
C33 O26 1.266 . S
Co34 O37 1.970 . S
Co34 N51 1.989 . S
Co34 O59 1.967 . S
Co34 O66 1.920 . S
Co35 O38 1.966 . S
Co35 N44 2.022 . S
Co35 N52 1.993 . S
Co35 O60 1.941 . S
C36 O37 1.258 . S
C36 O38 1.263 . S
O37 Co34 1.970 . S
O37 C36 1.258 . S
O38 Co35 1.966 . S
O38 C36 1.263 . S
C39 O40 1.235 . S
C39 O66 1.289 . S
O40 C39 1.235 . S
C41 C43 1.400 . S
C41 N44 1.351 . S
C41 C46 1.501 . S
C42 C43 1.387 . S
C42 N45 1.341 . S
C43 C41 1.400 . S
C43 C42 1.387 . S
N44 Co35 2.022 . S
N44 C41 1.351 . S
N44 N45 1.365 . S
N45 C42 1.341 . S
N45 N44 1.365 . S
N45 H65 0.862 . S
C46 C41 1.501 . S
C46 H47 0.961 . S
C46 H48 0.961 . S
C46 H49 0.960 . S
H47 C46 0.961 . S
H48 C46 0.961 . S
H49 C46 0.960 . S
C50 N51 1.342 . S
C50 C54 1.401 . S
C50 C55 1.499 . S
N51 Co34 1.989 . S
N51 C50 1.342 . S
N51 N52 1.388 . S
N52 Co35 1.993 . S
N52 N51 1.388 . S
N52 C53 1.346 . S
C53 N52 1.346 . S
C53 C54 1.396 . S
C53 C63 1.510 . S
C54 C50 1.401 . S
C54 C53 1.396 . S
C55 C50 1.499 . S
C55 H56 0.959 . S
C55 H57 0.960 . S
C55 H58 0.961 . S
H56 C55 0.959 . S
H57 C55 0.960 . S
H58 C55 0.961 . S
O59 Co34 1.967 . S
O59 C67 1.258 . S
O60 Co35 1.941 . S
O60 C67 1.266 . S
H61 C63 0.959 . S
H62 C63 0.961 . S
C63 C53 1.510 . S
C63 H61 0.959 . S
C63 H62 0.961 . S
C63 H64 0.960 . S
H64 C63 0.960 . S
H65 N45 0.862 . S
O66 Co34 1.920 . S
O66 C39 1.289 . S
C67 O59 1.258 . S
C67 O60 1.266 . S
Co68 O71 1.970 . S
Co68 N85 1.989 . S
Co68 O93 1.967 . S
Co68 O100 1.920 . S
Co69 O72 1.966 . S
Co69 N78 2.022 . S
Co69 N86 1.993 . S
Co69 O94 1.941 . S
C70 O71 1.258 . S
C70 O72 1.263 . S
O71 Co68 1.970 . S
O71 C70 1.258 . S
O72 Co69 1.966 . S
O72 C70 1.263 . S
C73 O74 1.235 . S
C73 O100 1.289 . S
O74 C73 1.235 . S
C75 C77 1.400 . S
C75 N78 1.351 . S
C75 C80 1.501 . S
C76 C77 1.387 . S
C76 N79 1.341 . S
C77 C75 1.400 . S
C77 C76 1.387 . S
N78 Co69 2.022 . S
N78 C75 1.351 . S
N78 N79 1.365 . S
N79 C76 1.341 . S
N79 N78 1.365 . S
N79 H99 0.862 . S
C80 C75 1.501 . S
C80 H81 0.961 . S
C80 H82 0.961 . S
C80 H83 0.960 . S
H81 C80 0.961 . S
H82 C80 0.961 . S
H83 C80 0.960 . S
C84 N85 1.342 . S
C84 C88 1.401 . S
C84 C89 1.499 . S
N85 Co68 1.989 . S
N85 C84 1.342 . S
N85 N86 1.388 . S
N86 Co69 1.993 . S
N86 N85 1.388 . S
N86 C87 1.346 . S
C87 N86 1.346 . S
C87 C88 1.396 . S
C87 C97 1.510 . S
C88 C84 1.401 . S
C88 C87 1.396 . S
C89 C84 1.499 . S
C89 H90 0.959 . S
C89 H91 0.960 . S
C89 H92 0.961 . S
H90 C89 0.959 . S
H91 C89 0.960 . S
H92 C89 0.961 . S
O93 Co68 1.967 . S
O93 C101 1.258 . S
O94 Co69 1.941 . S
O94 C101 1.266 . S
H95 C97 0.959 . S
H96 C97 0.961 . S
C97 C87 1.510 . S
C97 H95 0.959 . S
C97 H96 0.961 . S
C97 H98 0.960 . S
H98 C97 0.960 . S
H99 N79 0.862 . S
O100 Co68 1.920 . S
O100 C73 1.289 . S
C101 O93 1.258 . S
C101 O94 1.266 . S
Co102 O105 1.970 . S
Co102 N119 1.989 . S
Co102 O127 1.967 . S
Co102 O134 1.920 . S
Co103 O106 1.966 . S
Co103 N112 2.022 . S
Co103 N120 1.993 . S
Co103 O128 1.941 . S
C104 O105 1.258 . S
C104 O106 1.263 . S
O105 Co102 1.970 . S
O105 C104 1.258 . S
O106 Co103 1.966 . S
O106 C104 1.263 . S
C107 O108 1.235 . S
C107 O134 1.289 . S
O108 C107 1.235 . S
C109 C111 1.400 . S
C109 N112 1.351 . S
C109 C114 1.501 . S
C110 C111 1.387 . S
C110 N113 1.341 . S
C111 C109 1.400 . S
C111 C110 1.387 . S
N112 Co103 2.022 . S
N112 C109 1.351 . S
N112 N113 1.365 . S
N113 C110 1.341 . S
N113 N112 1.365 . S
N113 H133 0.862 . S
C114 C109 1.501 . S
C114 H115 0.961 . S
C114 H116 0.961 . S
C114 H117 0.960 . S
H115 C114 0.961 . S
H116 C114 0.961 . S
H117 C114 0.960 . S
C118 N119 1.342 . S
C118 C122 1.401 . S
C118 C123 1.499 . S
N119 Co102 1.989 . S
N119 C118 1.342 . S
N119 N120 1.388 . S
N120 Co103 1.993 . S
N120 N119 1.388 . S
N120 C121 1.346 . S
C121 N120 1.346 . S
C121 C122 1.396 . S
C121 C131 1.510 . S
C122 C118 1.401 . S
C122 C121 1.396 . S
C123 C118 1.499 . S
C123 H124 0.959 . S
C123 H125 0.960 . S
C123 H126 0.961 . S
H124 C123 0.959 . S
H125 C123 0.960 . S
H126 C123 0.961 . S
O127 Co102 1.967 . S
O127 C135 1.258 . S
O128 Co103 1.941 . S
O128 C135 1.266 . S
H129 C131 0.959 . S
H130 C131 0.961 . S
C131 C121 1.510 . S
C131 H129 0.959 . S
C131 H130 0.961 . S
C131 H132 0.960 . S
H132 C131 0.960 . S
H133 N113 0.862 . S
O134 Co102 1.920 . S
O134 C107 1.289 . S
C135 O127 1.258 . S
C135 O128 1.266 . S
Co136 O139 1.970 . S
Co136 N153 1.989 . S
Co136 O161 1.967 . S
Co136 O168 1.920 . S
Co137 O140 1.966 . S
Co137 N146 2.022 . S
Co137 N154 1.993 . S
Co137 O162 1.941 . S
C138 O139 1.258 . S
C138 O140 1.263 . S
O139 Co136 1.970 . S
O139 C138 1.258 . S
O140 Co137 1.966 . S
O140 C138 1.263 . S
C141 O142 1.235 . S
C141 O168 1.289 . S
O142 C141 1.235 . S
C143 C145 1.400 . S
C143 N146 1.351 . S
C143 C148 1.501 . S
C144 C145 1.387 . S
C144 N147 1.341 . S
C145 C143 1.400 . S
C145 C144 1.387 . S
N146 Co137 2.022 . S
N146 C143 1.351 . S
N146 N147 1.365 . S
N147 C144 1.341 . S
N147 N146 1.365 . S
N147 H167 0.862 . S
C148 C143 1.501 . S
C148 H149 0.961 . S
C148 H150 0.961 . S
C148 H151 0.960 . S
H149 C148 0.961 . S
H150 C148 0.961 . S
H151 C148 0.960 . S
C152 N153 1.342 . S
C152 C156 1.401 . S
C152 C157 1.499 . S
N153 Co136 1.989 . S
N153 C152 1.342 . S
N153 N154 1.388 . S
N154 Co137 1.993 . S
N154 N153 1.388 . S
N154 C155 1.346 . S
C155 N154 1.346 . S
C155 C156 1.396 . S
C155 C165 1.510 . S
C156 C152 1.401 . S
C156 C155 1.396 . S
C157 C152 1.499 . S
C157 H158 0.959 . S
C157 H159 0.960 . S
C157 H160 0.961 . S
H158 C157 0.959 . S
H159 C157 0.960 . S
H160 C157 0.961 . S
O161 Co136 1.967 . S
O161 C169 1.258 . S
O162 Co137 1.941 . S
O162 C169 1.266 . S
H163 C165 0.959 . S
H164 C165 0.961 . S
C165 C155 1.510 . S
C165 H163 0.959 . S
C165 H164 0.961 . S
C165 H166 0.960 . S
H166 C165 0.960 . S
H167 N147 0.862 . S
O168 Co136 1.920 . S
O168 C141 1.289 . S
C169 O161 1.258 . S
C169 O162 1.266 . S
Co170 O173 1.970 . S
Co170 N187 1.989 . S
Co170 O195 1.967 . S
Co170 O202 1.920 . S
Co171 O174 1.966 . S
Co171 N180 2.022 . S
Co171 N188 1.993 . S
Co171 O196 1.941 . S
C172 O173 1.258 . S
C172 O174 1.263 . S
O173 Co170 1.970 . S
O173 C172 1.258 . S
O174 Co171 1.966 . S
O174 C172 1.263 . S
C175 O176 1.235 . S
C175 O202 1.289 . S
O176 C175 1.235 . S
C177 C179 1.400 . S
C177 N180 1.351 . S
C177 C182 1.501 . S
C178 C179 1.387 . S
C178 N181 1.341 . S
C179 C177 1.400 . S
C179 C178 1.387 . S
N180 Co171 2.022 . S
N180 C177 1.351 . S
N180 N181 1.365 . S
N181 C178 1.341 . S
N181 N180 1.365 . S
N181 H201 0.862 . S
C182 C177 1.501 . S
C182 H183 0.961 . S
C182 H184 0.961 . S
C182 H185 0.960 . S
H183 C182 0.961 . S
H184 C182 0.961 . S
H185 C182 0.960 . S
C186 N187 1.342 . S
C186 C190 1.401 . S
C186 C191 1.499 . S
N187 Co170 1.989 . S
N187 C186 1.342 . S
N187 N188 1.388 . S
N188 Co171 1.993 . S
N188 N187 1.388 . S
N188 C189 1.346 . S
C189 N188 1.346 . S
C189 C190 1.396 . S
C189 C199 1.510 . S
C190 C186 1.401 . S
C190 C189 1.396 . S
C191 C186 1.499 . S
C191 H192 0.959 . S
C191 H193 0.960 . S
C191 H194 0.961 . S
H192 C191 0.959 . S
H193 C191 0.960 . S
H194 C191 0.961 . S
O195 Co170 1.967 . S
O195 C203 1.258 . S
O196 Co171 1.941 . S
O196 C203 1.266 . S
H197 C199 0.959 . S
H198 C199 0.961 . S
C199 C189 1.510 . S
C199 H197 0.959 . S
C199 H198 0.961 . S
C199 H200 0.960 . S
H200 C199 0.960 . S
H201 N181 0.862 . S
O202 Co170 1.920 . S
O202 C175 1.289 . S
C203 O195 1.258 . S
C203 O196 1.266 . S
Co204 O207 1.970 . S
Co204 N221 1.989 . S
Co204 O229 1.967 . S
Co204 O236 1.920 . S
Co205 O208 1.966 . S
Co205 N214 2.022 1_556 S
Co205 N222 1.993 . S
Co205 O230 1.941 . S
C206 O207 1.258 . S
C206 O208 1.263 . S
O207 Co204 1.970 . S
O207 C206 1.258 . S
O208 Co205 1.966 . S
O208 C206 1.263 . S
C209 O210 1.235 . S
C209 O236 1.289 . S
O210 C209 1.235 . S
C211 C213 1.400 . S
C211 N214 1.351 . S
C211 C216 1.501 . S
C212 C213 1.387 . S
C212 N215 1.341 . S
C213 C211 1.400 . S
C213 C212 1.387 . S
N214 Co205 2.022 1_554 S
N214 C211 1.351 . S
N214 N215 1.365 . S
N215 C212 1.341 . S
N215 N214 1.365 . S
N215 H235 0.862 . S
C216 C211 1.501 . S
C216 H217 0.961 1_554 S
C216 H218 0.961 . S
C216 H219 0.960 . S
H217 C216 0.961 1_556 S
H218 C216 0.961 . S
H219 C216 0.960 . S
C220 N221 1.342 . S
C220 C224 1.401 . S
C220 C225 1.499 . S
N221 Co204 1.989 . S
N221 C220 1.342 . S
N221 N222 1.388 . S
N222 Co205 1.993 . S
N222 N221 1.388 . S
N222 C223 1.346 . S
C223 N222 1.346 . S
C223 C224 1.396 . S
C223 C233 1.510 1_556 S
C224 C220 1.401 . S
C224 C223 1.396 . S
C225 C220 1.499 . S
C225 H226 0.959 . S
C225 H227 0.960 . S
C225 H228 0.961 . S
H226 C225 0.959 . S
H227 C225 0.960 . S
H228 C225 0.961 . S
O229 Co204 1.967 . S
O229 C237 1.258 . S
O230 Co205 1.941 . S
O230 C237 1.266 . S
H231 C233 0.959 . S
H232 C233 0.961 . S
C233 C223 1.510 1_554 S
C233 H231 0.959 . S
C233 H232 0.961 . S
C233 H234 0.960 . S
H234 C233 0.960 . S
H235 N215 0.862 . S
O236 Co204 1.920 . S
O236 C209 1.289 . S
C237 O229 1.258 . S
C237 O230 1.266 . S
Co238 O241 1.970 . S
Co238 N255 1.989 . S
Co238 O263 1.967 . S
Co238 O270 1.920 . S
Co239 O242 1.966 . S
Co239 N248 2.022 . S
Co239 N256 1.993 . S
Co239 O264 1.941 . S
C240 O241 1.258 . S
C240 O242 1.263 . S
O241 Co238 1.970 . S
O241 C240 1.258 . S
O242 Co239 1.966 . S
O242 C240 1.263 . S
C243 O244 1.235 . S
C243 O270 1.289 . S
O244 C243 1.235 . S
C245 C247 1.400 . S
C245 N248 1.351 . S
C245 C250 1.501 . S
C246 C247 1.387 . S
C246 N249 1.341 . S
C247 C245 1.400 . S
C247 C246 1.387 . S
N248 Co239 2.022 . S
N248 C245 1.351 . S
N248 N249 1.365 . S
N249 C246 1.341 . S
N249 N248 1.365 . S
N249 H269 0.862 . S
C250 C245 1.501 . S
C250 H251 0.961 . S
C250 H252 0.961 . S
C250 H253 0.960 . S
H251 C250 0.961 . S
H252 C250 0.961 . S
H253 C250 0.960 . S
C254 N255 1.342 . S
C254 C258 1.401 . S
C254 C259 1.499 . S
N255 Co238 1.989 . S
N255 C254 1.342 . S
N255 N256 1.388 . S
N256 Co239 1.993 . S
N256 N255 1.388 . S
N256 C257 1.346 . S
C257 N256 1.346 . S
C257 C258 1.396 . S
C257 C267 1.510 . S
C258 C254 1.401 . S
C258 C257 1.396 . S
C259 C254 1.499 . S
C259 H260 0.959 . S
C259 H261 0.960 . S
C259 H262 0.961 . S
H260 C259 0.959 . S
H261 C259 0.960 . S
H262 C259 0.961 . S
O263 Co238 1.967 . S
O263 C271 1.258 . S
O264 Co239 1.941 . S
O264 C271 1.266 . S
H265 C267 0.959 . S
H266 C267 0.961 . S
C267 C257 1.510 . S
C267 H265 0.959 . S
C267 H266 0.961 . S
C267 H268 0.960 . S
H268 C267 0.960 . S
H269 N249 0.862 . S
O270 Co238 1.920 . S
O270 C243 1.289 . S
C271 O263 1.258 . S
C271 O264 1.266 . S
H272 C284 0.930 . S
H273 C286 0.930 . S
H274 C287 0.930 . S
H275 C291 0.959 . S
H276 C291 0.959 . S
H277 C291 0.961 . S
H278 C292 0.960 . S
H279 C292 0.961 . S
H280 C292 0.959 . S
H281 C295 0.929 . S
H282 C296 0.931 . S
H283 C298 0.930 . S
C284 H272 0.930 . S
C284 C285 1.399 . S
C284 C289 1.399 . S
C285 C284 1.399 . S
C285 C286 1.376 . S
C286 H273 0.930 . S
C286 C285 1.376 . S
C286 C287 1.388 . S
C287 H274 0.930 . S
C287 C286 1.388 . S
C287 C288 1.390 . S
C288 C287 1.390 . S
C288 C289 1.394 . S
C288 C294 1.465 . S
C289 C284 1.399 . S
C289 C288 1.394 . S
C289 C290 1.516 . S
C290 C289 1.516 . S
C290 C291 1.502 . S
C290 C292 1.561 . S
C290 C293 1.526 . S
C291 H275 0.959 . S
C291 H276 0.959 . S
C291 H277 0.961 . S
C291 C290 1.502 . S
C292 H278 0.960 . S
C292 H279 0.961 . S
C292 H280 0.959 . S
C292 C290 1.561 . S
C293 C290 1.526 . S
C293 C294 1.396 . S
C293 C298 1.390 . S
C294 C288 1.465 . S
C294 C293 1.396 . S
C294 C295 1.399 . S
C295 H281 0.929 . S
C295 C294 1.399 . S
C295 C296 1.385 . S
C296 H282 0.931 . S
C296 C295 1.385 . S
C296 C297 1.389 . S
C297 C296 1.389 . S
C297 C298 1.387 . S
C298 H283 0.930 . S
C298 C293 1.390 . S
C298 C297 1.387 . S
H299 C311 0.930 . S
H300 C313 0.930 . S
H301 C314 0.930 . S
H302 C318 0.959 . S
H303 C318 0.959 . S
H304 C318 0.961 . S
H305 C319 0.960 . S
H306 C319 0.961 . S
H307 C319 0.959 . S
H308 C322 0.929 . S
H309 C323 0.931 . S
H310 C325 0.930 . S
C311 H299 0.930 . S
C311 C312 1.399 . S
C311 C316 1.399 . S
C312 C311 1.399 . S
C312 C313 1.376 . S
C313 H300 0.930 . S
C313 C312 1.376 . S
C313 C314 1.388 . S
C314 H301 0.930 . S
C314 C313 1.388 . S
C314 C315 1.390 . S
C315 C314 1.390 . S
C315 C316 1.394 . S
C315 C321 1.465 . S
C316 C311 1.399 . S
C316 C315 1.394 . S
C316 C317 1.516 . S
C317 C316 1.516 . S
C317 C318 1.502 . S
C317 C319 1.561 . S
C317 C320 1.526 . S
C318 H302 0.959 . S
C318 H303 0.959 . S
C318 H304 0.961 . S
C318 C317 1.502 . S
C319 H305 0.960 . S
C319 H306 0.961 . S
C319 H307 0.959 . S
C319 C317 1.561 . S
C320 C317 1.526 . S
C320 C321 1.396 . S
C320 C325 1.390 . S
C321 C315 1.465 . S
C321 C320 1.396 . S
C321 C322 1.399 . S
C322 H308 0.929 . S
C322 C321 1.399 . S
C322 C323 1.385 . S
C323 H309 0.931 . S
C323 C322 1.385 . S
C323 C324 1.389 . S
C324 C323 1.389 . S
C324 C325 1.387 . S
C325 H310 0.930 . S
C325 C320 1.390 . S
C325 C324 1.387 . S
H326 C338 0.930 . S
H327 C340 0.930 . S
H328 C341 0.930 . S
H329 C345 0.959 . S
H330 C345 0.959 . S
H331 C345 0.961 . S
H332 C346 0.960 . S
H333 C346 0.961 . S
H334 C346 0.959 . S
H335 C349 0.929 . S
H336 C350 0.931 . S
H337 C352 0.930 . S
C338 H326 0.930 . S
C338 C339 1.399 . S
C338 C343 1.399 . S
C339 C338 1.399 . S
C339 C340 1.376 . S
C340 H327 0.930 . S
C340 C339 1.376 . S
C340 C341 1.388 . S
C341 H328 0.930 . S
C341 C340 1.388 . S
C341 C342 1.390 . S
C342 C341 1.390 . S
C342 C343 1.394 . S
C342 C348 1.465 . S
C343 C338 1.399 . S
C343 C342 1.394 . S
C343 C344 1.516 . S
C344 C343 1.516 . S
C344 C345 1.502 . S
C344 C346 1.561 . S
C344 C347 1.526 . S
C345 H329 0.959 . S
C345 H330 0.959 . S
C345 H331 0.961 . S
C345 C344 1.502 . S
C346 H332 0.960 . S
C346 H333 0.961 . S
C346 H334 0.959 . S
C346 C344 1.561 . S
C347 C344 1.526 . S
C347 C348 1.396 . S
C347 C352 1.390 . S
C348 C342 1.465 . S
C348 C347 1.396 . S
C348 C349 1.399 . S
C349 H335 0.929 . S
C349 C348 1.399 . S
C349 C350 1.385 . S
C350 H336 0.931 . S
C350 C349 1.385 . S
C350 C351 1.389 . S
C351 C350 1.389 . S
C351 C352 1.387 . S
C352 H337 0.930 . S
C352 C347 1.390 . S
C352 C351 1.387 . S
H353 C365 0.930 . S
H354 C367 0.930 . S
H355 C368 0.930 . S
H356 C372 0.959 . S
H357 C372 0.959 . S
H358 C372 0.961 1_556 S
H359 C373 0.969 . S
H360 C373 0.953 1_554 S
H361 C373 0.959 1_554 S
H362 C376 0.929 . S
H363 C377 0.931 . S
H364 C379 0.930 . S
C365 H353 0.930 . S
C365 C366 1.399 . S
C365 C370 1.399 . S
C366 C365 1.399 . S
C366 C367 1.376 . S
C367 H354 0.930 . S
C367 C366 1.376 . S
C367 C368 1.388 . S
C368 H355 0.930 . S
C368 C367 1.388 . S
C368 C369 1.390 . S
C369 C368 1.390 . S
C369 C370 1.394 . S
C369 C375 1.465 1_556 S
C370 C365 1.399 . S
C370 C369 1.394 . S
C370 C371 1.491 1_556 S
C371 C370 1.491 1_554 S
C371 C372 1.504 . S
C371 C373 1.560 1_554 S
C371 C374 1.550 . S
C372 H356 0.959 . S
C372 H357 0.959 . S
C372 H358 0.961 1_554 S
C372 C371 1.504 . S
C373 H359 0.969 . S
C373 H360 0.953 1_556 S
C373 H361 0.959 1_556 S
C373 C371 1.560 1_556 S
C374 C371 1.550 . S
C374 C375 1.396 . S
C374 C379 1.390 . S
C375 C369 1.465 1_554 S
C375 C374 1.396 . S
C375 C376 1.399 . S
C376 H362 0.929 . S
C376 C375 1.399 . S
C376 C377 1.385 . S
C377 H363 0.931 . S
C377 C376 1.385 . S
C377 C378 1.389 . S
C378 C377 1.389 . S
C378 C379 1.387 . S
C379 H364 0.930 . S
C379 C374 1.390 . S
C379 C378 1.387 . S
H380 C392 0.930 . S
H381 C394 0.930 . S
H382 C395 0.930 . S
H383 C399 0.959 . S
H384 C399 0.959 . S
H385 C399 0.961 1_455 S
H386 C400 0.966 1_554 S
H387 C400 0.951 1_654 S
H388 C400 0.960 . S
H389 C403 0.929 . S
H390 C404 0.931 . S
H391 C406 0.930 1_554 S
C392 H380 0.930 . S
C392 C393 1.399 . S
C392 C397 1.399 . S
C393 C392 1.399 . S
C393 C394 1.376 1_554 S
C394 H381 0.930 . S
C394 C393 1.376 1_556 S
C394 C395 1.388 . S
C395 H382 0.930 . S
C395 C394 1.388 . S
C395 C396 1.390 . S
C396 C395 1.390 . S
C396 C397 1.394 1_556 S
C396 C402 1.465 1_455 S
C397 C392 1.399 . S
C397 C396 1.394 1_554 S
C397 C398 1.516 1_455 S
C398 C397 1.516 1_655 S
C398 C399 1.502 . S
C398 C400 1.560 1_654 S
C398 C401 1.523 1_554 S
C399 H383 0.959 . S
C399 H384 0.959 . S
C399 H385 0.961 1_655 S
C399 C398 1.502 . S
C400 H386 0.966 1_556 S
C400 H387 0.951 1_456 S
C400 H388 0.960 . S
C400 C398 1.560 1_456 S
C401 C398 1.523 1_556 S
C401 C402 1.399 . S
C401 C406 1.390 . S
C402 C396 1.465 1_655 S
C402 C401 1.399 . S
C402 C403 1.399 . S
C403 H389 0.929 . S
C403 C402 1.399 . S
C403 C404 1.385 . S
C404 H390 0.931 . S
C404 C403 1.385 . S
C404 C405 1.389 . S
C405 C404 1.389 . S
C405 C406 1.387 . S
C406 H391 0.930 1_556 S
C406 C401 1.390 . S
C406 C405 1.387 . S
H407 C419 0.930 . S
H408 C421 0.930 . S
H409 C422 0.930 . S
H410 C426 0.959 . S
H411 C426 0.959 . S
H412 C426 0.961 1_545 S
H413 C427 0.960 1_545 S
H414 C427 0.961 . S
H415 C427 0.959 . S
H416 C430 0.929 . S
H417 C431 0.931 . S
H418 C433 0.930 . S
C419 H407 0.930 . S
C419 C420 1.399 . S
C419 C424 1.399 . S
C420 C419 1.399 . S
C420 C421 1.376 . S
C421 H408 0.930 . S
C421 C420 1.376 . S
C421 C422 1.388 . S
C422 H409 0.930 . S
C422 C421 1.388 . S
C422 C423 1.390 . S
C423 C422 1.390 . S
C423 C424 1.394 . S
C423 C429 1.465 1_545 S
C424 C419 1.399 . S
C424 C423 1.394 . S
C424 C425 1.516 1_545 S
C425 C424 1.516 1_565 S
C425 C426 1.502 . S
C425 C427 1.561 . S
C425 C428 1.526 . S
C426 H410 0.959 . S
C426 H411 0.959 . S
C426 H412 0.961 1_565 S
C426 C425 1.502 . S
C427 H413 0.960 1_565 S
C427 H414 0.961 . S
C427 H415 0.959 . S
C427 C425 1.561 . S
C428 C425 1.526 . S
C428 C429 1.396 . S
C428 C433 1.390 . S
C429 C423 1.465 1_565 S
C429 C428 1.396 . S
C429 C430 1.399 . S
C430 H416 0.929 . S
C430 C429 1.399 . S
C430 C431 1.385 . S
C431 H417 0.931 . S
C431 C430 1.385 . S
C431 C432 1.389 . S
C432 C431 1.389 . S
C432 C433 1.387 . S
C433 H418 0.930 . S
C433 C428 1.390 . S
C433 C432 1.387 . S
H434 C446 0.930 . S
H435 C448 0.930 . S
H436 C449 0.930 . S
H437 C453 0.959 . S
H438 C453 0.959 . S
H439 C453 0.961 1_455 S
H440 C454 0.960 1_455 S
H441 C454 0.961 . S
H442 C454 0.959 1_455 S
H443 C457 0.929 . S
H444 C458 0.931 . S
H445 C460 0.930 . S
C446 H434 0.930 . S
C446 C447 1.399 . S
C446 C451 1.399 . S
C447 C446 1.399 . S
C447 C448 1.376 . S
C448 H435 0.930 . S
C448 C447 1.376 . S
C448 C449 1.388 . S
C449 H436 0.930 . S
C449 C448 1.388 . S
C449 C450 1.390 . S
C450 C449 1.390 . S
C450 C451 1.394 . S
C450 C456 1.465 1_455 S
C451 C446 1.399 . S
C451 C450 1.394 . S
C451 C452 1.516 1_455 S
C452 C451 1.516 1_655 S
C452 C453 1.502 . S
C452 C454 1.561 . S
C452 C455 1.526 . S
C453 H437 0.959 . S
C453 H438 0.959 . S
C453 H439 0.961 1_655 S
C453 C452 1.502 . S
C454 H440 0.960 1_655 S
C454 H441 0.961 . S
C454 H442 0.959 1_655 S
C454 C452 1.561 . S
C455 C452 1.526 . S
C455 C456 1.396 . S
C455 C460 1.390 . S
C456 C450 1.465 1_655 S
C456 C455 1.396 . S
C456 C457 1.399 . S
C457 H443 0.929 . S
C457 C456 1.399 . S
C457 C458 1.385 . S
C458 H444 0.931 . S
C458 C457 1.385 . S
C458 C459 1.389 . S
C459 C458 1.389 . S
C459 C460 1.387 . S
C460 H445 0.930 . S
C460 C455 1.390 . S
C460 C459 1.387 . S
H461 C473 0.930 . S
H462 C475 0.930 . S
H463 C476 0.930 . S
H464 C480 0.959 . S
H465 C480 0.959 . S
H466 C480 0.961 1_545 S
H467 C481 0.960 1_545 S
H468 C481 0.961 . S
H469 C481 0.959 . S
H470 C484 0.929 . S
H471 C485 0.931 . S
H472 C487 0.930 . S
C473 H461 0.930 . S
C473 C474 1.399 . S
C473 C478 1.399 . S
C474 C473 1.399 . S
C474 C475 1.376 . S
C475 H462 0.930 . S
C475 C474 1.376 . S
C475 C476 1.388 . S
C476 H463 0.930 . S
C476 C475 1.388 . S
C476 C477 1.390 . S
C477 C476 1.390 . S
C477 C478 1.394 . S
C477 C483 1.465 1_545 S
C478 C473 1.399 . S
C478 C477 1.394 . S
C478 C479 1.516 1_545 S
C479 C478 1.516 1_565 S
C479 C480 1.502 . S
C479 C481 1.561 . S
C479 C482 1.526 . S
C480 H464 0.959 . S
C480 H465 0.959 . S
C480 H466 0.961 1_565 S
C480 C479 1.502 . S
C481 H467 0.960 1_565 S
C481 H468 0.961 . S
C481 H469 0.959 . S
C481 C479 1.561 . S
C482 C479 1.526 . S
C482 C483 1.396 . S
C482 C487 1.390 . S
C483 C477 1.465 1_565 S
C483 C482 1.396 . S
C483 C484 1.399 . S
C484 H470 0.929 . S
C484 C483 1.399 . S
C484 C485 1.385 . S
C485 H471 0.931 . S
C485 C484 1.385 . S
C485 C486 1.389 . S
C486 C485 1.389 . S
C486 C487 1.387 . S
C487 H472 0.930 . S
C487 C482 1.390 . S
C487 C486 1.387 . S
H488 C500 0.930 . S
H489 C502 0.930 . S
H490 C503 0.930 . S
H491 C507 0.959 . S
H492 C507 0.959 . S
H493 C507 0.961 . S
H494 C508 0.960 . S
H495 C508 0.961 . S
H496 C508 0.959 . S
H497 C511 0.929 . S
H498 C512 0.931 . S
H499 C514 0.930 . S
C500 H488 0.930 . S
C500 C501 1.399 . S
C500 C505 1.399 . S
C501 C500 1.399 . S
C501 C502 1.376 . S
C502 H489 0.930 . S
C502 C501 1.376 . S
C502 C503 1.388 . S
C503 H490 0.930 . S
C503 C502 1.388 . S
C503 C504 1.390 . S
C504 C503 1.390 . S
C504 C505 1.394 . S
C504 C510 1.465 . S
C505 C500 1.399 . S
C505 C504 1.394 . S
C505 C506 1.516 . S
C506 C505 1.516 . S
C506 C507 1.502 . S
C506 C508 1.561 . S
C506 C509 1.526 . S
C507 H491 0.959 . S
C507 H492 0.959 . S
C507 H493 0.961 . S
C507 C506 1.502 . S
C508 H494 0.960 . S
C508 H495 0.961 . S
C508 H496 0.959 . S
C508 C506 1.561 . S
C509 C506 1.526 . S
C509 C510 1.396 . S
C509 C514 1.390 . S
C510 C504 1.465 . S
C510 C509 1.396 . S
C510 C511 1.399 . S
C511 H497 0.929 . S
C511 C510 1.399 . S
C511 C512 1.385 . S
C512 H498 0.931 . S
C512 C511 1.385 . S
C512 C513 1.389 . S
C513 C512 1.389 . S
C513 C514 1.387 . S
C514 H499 0.930 . S
C514 C509 1.390 . S
C514 C513 1.387 . S
H515 C527 0.930 . S
H516 C529 0.930 . S
H517 C530 0.930 . S
H518 C534 0.959 . S
H519 C534 0.959 . S
H520 C534 0.961 . S
H521 C535 0.960 . S
H522 C535 0.961 . S
H523 C535 0.959 . S
H524 C538 0.929 . S
H525 C539 0.931 . S
H526 C541 0.930 . S
C527 H515 0.930 . S
C527 C528 1.399 . S
C527 C532 1.399 . S
C528 C527 1.399 . S
C528 C529 1.376 . S
C529 H516 0.930 . S
C529 C528 1.376 . S
C529 C530 1.388 . S
C530 H517 0.930 . S
C530 C529 1.388 . S
C530 C531 1.390 . S
C531 C530 1.390 . S
C531 C532 1.394 . S
C531 C537 1.465 . S
C532 C527 1.399 . S
C532 C531 1.394 . S
C532 C533 1.516 . S
C533 C532 1.516 . S
C533 C534 1.502 . S
C533 C535 1.561 . S
C533 C536 1.526 . S
C534 H518 0.959 . S
C534 H519 0.959 . S
C534 H520 0.961 . S
C534 C533 1.502 . S
C535 H521 0.960 . S
C535 H522 0.961 . S
C535 H523 0.959 . S
C535 C533 1.561 . S
C536 C533 1.526 . S
C536 C537 1.396 . S
C536 C541 1.390 . S
C537 C531 1.465 . S
C537 C536 1.396 . S
C537 C538 1.399 . S
C538 H524 0.929 . S
C538 C537 1.399 . S
C538 C539 1.385 . S
C539 H525 0.931 . S
C539 C538 1.385 . S
C539 C540 1.389 . S
C540 C539 1.389 . S
C540 C541 1.387 . S
C541 H526 0.930 . S
C541 C536 1.390 . S
C541 C540 1.387 . S
H542 C554 0.930 . S
H543 C556 0.930 . S
H544 C557 0.930 . S
H545 C561 0.959 . S
H546 C561 0.959 . S
H547 C561 0.961 . S
H548 C562 0.960 . S
H549 C562 0.961 . S
H550 C562 0.959 . S
H551 C565 0.929 . S
H552 C566 0.931 . S
H553 C568 0.930 . S
C554 H542 0.930 . S
C554 C555 1.399 . S
C554 C559 1.399 . S
C555 C554 1.399 . S
C555 C556 1.376 . S
C556 H543 0.930 . S
C556 C555 1.376 . S
C556 C557 1.388 . S
C557 H544 0.930 . S
C557 C556 1.388 . S
C557 C558 1.390 . S
C558 C557 1.390 . S
C558 C559 1.394 . S
C558 C564 1.465 . S
C559 C554 1.399 . S
C559 C558 1.394 . S
C559 C560 1.516 . S
C560 C559 1.516 . S
C560 C561 1.502 . S
C560 C562 1.561 . S
C560 C563 1.526 . S
C561 H545 0.959 . S
C561 H546 0.959 . S
C561 H547 0.961 . S
C561 C560 1.502 . S
C562 H548 0.960 . S
C562 H549 0.961 . S
C562 H550 0.959 . S
C562 C560 1.561 . S
C563 C560 1.526 . S
C563 C564 1.396 . S
C563 C568 1.390 . S
C564 C558 1.465 . S
C564 C563 1.396 . S
C564 C565 1.399 . S
C565 H551 0.929 . S
C565 C564 1.399 . S
C565 C566 1.385 . S
C566 H552 0.931 . S
C566 C565 1.385 . S
C566 C567 1.389 . S
C567 C566 1.389 . S
C567 C568 1.387 . S
C568 H553 0.930 . S
C568 C563 1.390 . S
C568 C567 1.387 . S
H569 C581 0.930 . S
H570 C583 0.930 . S
H571 C584 0.930 . S
H572 C588 0.959 . S
H573 C588 0.959 . S
H574 C588 0.961 . S
H575 C589 0.960 . S
H576 C589 0.961 . S
H577 C589 0.959 . S
H578 C592 0.929 . S
H579 C593 0.931 . S
H580 C595 0.930 . S
C581 H569 0.930 . S
C581 C582 1.399 . S
C581 C586 1.399 . S
C582 C581 1.399 . S
C582 C583 1.376 . S
C583 H570 0.930 . S
C583 C582 1.376 . S
C583 C584 1.388 . S
C584 H571 0.930 . S
C584 C583 1.388 . S
C584 C585 1.390 . S
C585 C584 1.390 . S
C585 C586 1.394 . S
C585 C591 1.465 . S
C586 C581 1.399 . S
C586 C585 1.394 . S
C586 C587 1.516 . S
C587 C586 1.516 . S
C587 C588 1.502 . S
C587 C589 1.561 . S
C587 C590 1.526 . S
C588 H572 0.959 . S
C588 H573 0.959 . S
C588 H574 0.961 . S
C588 C587 1.502 . S
C589 H575 0.960 . S
C589 H576 0.961 . S
C589 H577 0.959 . S
C589 C587 1.561 . S
C590 C587 1.526 . S
C590 C591 1.396 . S
C590 C595 1.390 . S
C591 C585 1.465 . S
C591 C590 1.396 . S
C591 C592 1.399 . S
C592 H578 0.929 . S
C592 C591 1.399 . S
C592 C593 1.385 . S
C593 H579 0.931 . S
C593 C592 1.385 . S
C593 C594 1.389 . S
C594 C593 1.389 . S
C594 C595 1.387 . S
C595 H580 0.930 . S
C595 C590 1.390 . S
C595 C594 1.387 . S
H596 C608 0.930 . S
H597 C610 0.930 . S
H598 C611 0.930 . S
H599 C615 0.959 . S
H600 C615 0.959 . S
H601 C615 0.961 . S
H602 C616 0.960 . S
H603 C616 0.961 . S
H604 C616 0.959 . S
H605 C619 0.929 . S
H606 C620 0.931 . S
H607 C622 0.930 . S
C608 H596 0.930 . S
C608 C609 1.399 . S
C608 C613 1.399 . S
C609 C608 1.399 . S
C609 C610 1.376 . S
C610 H597 0.930 . S
C610 C609 1.376 . S
C610 C611 1.388 . S
C611 H598 0.930 . S
C611 C610 1.388 . S
C611 C612 1.390 . S
C612 C611 1.390 . S
C612 C613 1.394 . S
C612 C618 1.465 . S
C613 C608 1.399 . S
C613 C612 1.394 . S
C613 C614 1.516 . S
C614 C613 1.516 . S
C614 C615 1.502 . S
C614 C616 1.561 . S
C614 C617 1.526 . S
C615 H599 0.959 . S
C615 H600 0.959 . S
C615 H601 0.961 . S
C615 C614 1.502 . S
C616 H602 0.960 . S
C616 H603 0.961 . S
C616 H604 0.959 . S
C616 C614 1.561 . S
C617 C614 1.526 . S
C617 C618 1.396 . S
C617 C622 1.390 . S
C618 C612 1.465 . S
C618 C617 1.396 . S
C618 C619 1.399 . S
C619 H605 0.929 . S
C619 C618 1.399 . S
C619 C620 1.385 . S
C620 H606 0.931 . S
C620 C619 1.385 . S
C620 C621 1.389 . S
C621 C620 1.389 . S
C621 C622 1.387 . S
C622 H607 0.930 . S
C622 C617 1.390 . S
C622 C621 1.387 . S
H623 C635 0.930 . S
H624 C637 0.930 . S
H625 C638 0.930 . S
H626 C642 0.959 . S
H627 C642 0.959 . S
H628 C642 0.961 . S
H629 C643 0.960 . S
H630 C643 0.961 . S
H631 C643 0.959 . S
H632 C646 0.929 . S
H633 C647 0.931 . S
H634 C649 0.930 . S
C635 H623 0.930 . S
C635 C636 1.399 . S
C635 C640 1.399 . S
C636 C635 1.399 . S
C636 C637 1.376 . S
C637 H624 0.930 . S
C637 C636 1.376 . S
C637 C638 1.388 . S
C638 H625 0.930 . S
C638 C637 1.388 . S
C638 C639 1.390 . S
C639 C638 1.390 . S
C639 C640 1.394 . S
C639 C645 1.465 . S
C640 C635 1.399 . S
C640 C639 1.394 . S
C640 C641 1.516 . S
C641 C640 1.516 . S
C641 C642 1.502 . S
C641 C643 1.561 . S
C641 C644 1.526 . S
C642 H626 0.959 . S
C642 H627 0.959 . S
C642 H628 0.961 . S
C642 C641 1.502 . S
C643 H629 0.960 . S
C643 H630 0.961 . S
C643 H631 0.959 . S
C643 C641 1.561 . S
C644 C641 1.526 . S
C644 C645 1.396 . S
C644 C649 1.390 . S
C645 C639 1.465 . S
C645 C644 1.396 . S
C645 C646 1.399 . S
C646 H632 0.929 . S
C646 C645 1.399 . S
C646 C647 1.385 . S
C647 H633 0.931 . S
C647 C646 1.385 . S
C647 C648 1.389 . S
C648 C647 1.389 . S
C648 C649 1.387 . S
C649 H634 0.930 . S
C649 C644 1.390 . S
C649 C648 1.387 . S
H650 C662 0.930 . S
H651 C664 0.930 . S
H652 C665 0.930 . S
H653 C669 0.959 . S
H654 C669 0.959 . S
H655 C669 0.961 . S
H656 C670 0.960 . S
H657 C670 0.961 . S
H658 C670 0.959 . S
H659 C673 0.929 . S
H660 C674 0.931 . S
H661 C676 0.930 . S
C662 H650 0.930 . S
C662 C663 1.399 . S
C662 C667 1.399 . S
C663 C662 1.399 . S
C663 C664 1.376 . S
C664 H651 0.930 . S
C664 C663 1.376 . S
C664 C665 1.388 . S
C665 H652 0.930 . S
C665 C664 1.388 . S
C665 C666 1.390 . S
C666 C665 1.390 . S
C666 C667 1.394 . S
C666 C672 1.465 . S
C667 C662 1.399 . S
C667 C666 1.394 . S
C667 C668 1.516 . S
C668 C667 1.516 . S
C668 C669 1.502 . S
C668 C670 1.561 . S
C668 C671 1.526 . S
C669 H653 0.959 . S
C669 H654 0.959 . S
C669 H655 0.961 . S
C669 C668 1.502 . S
C670 H656 0.960 . S
C670 H657 0.961 . S
C670 H658 0.959 . S
C670 C668 1.561 . S
C671 C668 1.526 . S
C671 C672 1.396 . S
C671 C676 1.390 . S
C672 C666 1.465 . S
C672 C671 1.396 . S
C672 C673 1.399 . S
C673 H659 0.929 . S
C673 C672 1.399 . S
C673 C674 1.385 . S
C674 H660 0.931 . S
C674 C673 1.385 . S
C674 C675 1.389 . S
C675 C674 1.389 . S
C675 C676 1.387 . S
C676 H661 0.930 . S
C676 C671 1.390 . S
C676 C675 1.387 . S
H677 C689 0.930 . S
H678 C691 0.930 . S
H679 C692 0.930 . S
H680 C696 0.959 . S
H681 C696 0.959 . S
H682 C696 0.961 . S
H683 C697 0.960 . S
H684 C697 0.961 . S
H685 C697 0.959 . S
H686 C700 0.929 . S
H687 C701 0.931 . S
H688 C703 0.930 . S
C689 H677 0.930 . S
C689 C690 1.399 . S
C689 C694 1.399 . S
C690 C689 1.399 . S
C690 C691 1.376 . S
C691 H678 0.930 . S
C691 C690 1.376 . S
C691 C692 1.388 . S
C692 H679 0.930 . S
C692 C691 1.388 . S
C692 C693 1.390 . S
C693 C692 1.390 . S
C693 C694 1.394 . S
C693 C699 1.465 . S
C694 C689 1.399 . S
C694 C693 1.394 . S
C694 C695 1.516 . S
C695 C694 1.516 . S
C695 C696 1.502 . S
C695 C697 1.561 . S
C695 C698 1.526 . S
C696 H680 0.959 . S
C696 H681 0.959 . S
C696 H682 0.961 . S
C696 C695 1.502 . S
C697 H683 0.960 . S
C697 H684 0.961 . S
C697 H685 0.959 . S
C697 C695 1.561 . S
C698 C695 1.526 . S
C698 C699 1.396 . S
C698 C703 1.390 . S
C699 C693 1.465 . S
C699 C698 1.396 . S
C699 C700 1.399 . S
C700 H686 0.929 . S
C700 C699 1.399 . S
C700 C701 1.385 . S
C701 H687 0.931 . S
C701 C700 1.385 . S
C701 C702 1.389 . S
C702 C701 1.389 . S
C702 C703 1.387 . S
C703 H688 0.930 . S
C703 C698 1.390 . S
C703 C702 1.387 . S
H704 C716 0.930 . S
H705 C718 0.930 . S
H706 C719 0.930 . S
H707 C723 0.959 . S
H708 C723 0.959 . S
H709 C723 0.961 . S
H710 C724 0.960 . S
H711 C724 0.961 . S
H712 C724 0.959 . S
H713 C727 0.929 . S
H714 C728 0.931 . S
H715 C730 0.930 . S
C716 H704 0.930 . S
C716 C717 1.399 . S
C716 C721 1.399 . S
C717 C716 1.399 . S
C717 C718 1.376 . S
C718 H705 0.930 . S
C718 C717 1.376 . S
C718 C719 1.388 . S
C719 H706 0.930 . S
C719 C718 1.388 . S
C719 C720 1.390 . S
C720 C719 1.390 . S
C720 C721 1.394 . S
C720 C726 1.465 . S
C721 C716 1.399 . S
C721 C720 1.394 . S
C721 C722 1.516 . S
C722 C721 1.516 . S
C722 C723 1.502 . S
C722 C724 1.561 . S
C722 C725 1.526 . S
C723 H707 0.959 . S
C723 H708 0.959 . S
C723 H709 0.961 . S
C723 C722 1.502 . S
C724 H710 0.960 . S
C724 H711 0.961 . S
C724 H712 0.959 . S
C724 C722 1.561 . S
C725 C722 1.526 . S
C725 C726 1.396 . S
C725 C730 1.390 . S
C726 C720 1.465 . S
C726 C725 1.396 . S
C726 C727 1.399 . S
C727 H713 0.929 . S
C727 C726 1.399 . S
C727 C728 1.385 . S
C728 H714 0.931 . S
C728 C727 1.385 . S
C728 C729 1.389 . S
C729 C728 1.389 . S
C729 C730 1.387 . S
C730 H715 0.930 . S
C730 C725 1.390 . S
C730 C729 1.387 . S
H731 C743 0.930 . S
H732 C745 0.930 . S
H733 C746 0.930 . S
H734 C750 0.959 . S
H735 C750 0.959 . S
H736 C750 0.961 . S
H737 C751 0.960 . S
H738 C751 0.961 . S
H739 C751 0.959 . S
H740 C754 0.929 . S
H741 C755 0.931 . S
H742 C757 0.930 . S
C743 H731 0.930 . S
C743 C744 1.399 . S
C743 C748 1.399 . S
C744 C743 1.399 . S
C744 C745 1.376 . S
C745 H732 0.930 . S
C745 C744 1.376 . S
C745 C746 1.388 . S
C746 H733 0.930 . S
C746 C745 1.388 . S
C746 C747 1.390 . S
C747 C746 1.390 . S
C747 C748 1.394 . S
C747 C753 1.465 . S
C748 C743 1.399 . S
C748 C747 1.394 . S
C748 C749 1.516 . S
C749 C748 1.516 . S
C749 C750 1.502 . S
C749 C751 1.561 . S
C749 C752 1.526 . S
C750 H734 0.959 . S
C750 H735 0.959 . S
C750 H736 0.961 . S
C750 C749 1.502 . S
C751 H737 0.960 . S
C751 H738 0.961 . S
C751 H739 0.959 . S
C751 C749 1.561 . S
C752 C749 1.526 . S
C752 C753 1.396 . S
C752 C757 1.390 . S
C753 C747 1.465 . S
C753 C752 1.396 . S
C753 C754 1.399 . S
C754 H740 0.929 . S
C754 C753 1.399 . S
C754 C755 1.385 . S
C755 H741 0.931 . S
C755 C754 1.385 . S
C755 C756 1.389 . S
C756 C755 1.389 . S
C756 C757 1.387 . S
C757 H742 0.930 . S
C757 C752 1.390 . S
C757 C756 1.387 . S
H758 C770 0.930 . S
H759 C772 0.930 . S
H760 C773 0.930 . S
H761 C777 0.959 . S
H762 C777 0.959 . S
H763 C777 0.961 . S
H764 C778 0.960 . S
H765 C778 0.961 . S
H766 C778 0.959 . S
H767 C781 0.929 . S
H768 C782 0.931 . S
H769 C784 0.930 . S
C770 H758 0.930 . S
C770 C771 1.399 . S
C770 C775 1.399 . S
C771 C770 1.399 . S
C771 C772 1.376 . S
C772 H759 0.930 . S
C772 C771 1.376 . S
C772 C773 1.388 . S
C773 H760 0.930 . S
C773 C772 1.388 . S
C773 C774 1.390 . S
C774 C773 1.390 . S
C774 C775 1.394 . S
C774 C780 1.465 . S
C775 C770 1.399 . S
C775 C774 1.394 . S
C775 C776 1.516 . S
C776 C775 1.516 . S
C776 C777 1.502 . S
C776 C778 1.561 . S
C776 C779 1.526 . S
C777 H761 0.959 . S
C777 H762 0.959 . S
C777 H763 0.961 . S
C777 C776 1.502 . S
C778 H764 0.960 . S
C778 H765 0.961 . S
C778 H766 0.959 . S
C778 C776 1.561 . S
C779 C776 1.526 . S
C779 C780 1.396 . S
C779 C784 1.390 . S
C780 C774 1.465 . S
C780 C779 1.396 . S
C780 C781 1.399 . S
C781 H767 0.929 . S
C781 C780 1.399 . S
C781 C782 1.385 . S
C782 H768 0.931 . S
C782 C781 1.385 . S
C782 C783 1.389 . S
C783 C782 1.389 . S
C783 C784 1.387 . S
C784 H769 0.930 . S
C784 C779 1.390 . S
C784 C783 1.387 . S
H785 C797 0.930 . S
H786 C799 0.930 . S
H787 C800 0.930 . S
H788 C804 0.959 . S
H789 C804 0.959 . S
H790 C804 0.961 . S
H791 C805 0.960 . S
H792 C805 0.961 . S
H793 C805 0.959 . S
H794 C808 0.929 . S
H795 C809 0.931 . S
H796 C811 0.930 . S
C797 H785 0.930 . S
C797 C798 1.399 . S
C797 C802 1.399 . S
C798 C797 1.399 . S
C798 C799 1.376 . S
C799 H786 0.930 . S
C799 C798 1.376 . S
C799 C800 1.388 . S
C800 H787 0.930 . S
C800 C799 1.388 . S
C800 C801 1.390 . S
C801 C800 1.390 . S
C801 C802 1.394 . S
C801 C807 1.465 . S
C802 C797 1.399 . S
C802 C801 1.394 . S
C802 C803 1.516 . S
C803 C802 1.516 . S
C803 C804 1.502 . S
C803 C805 1.561 . S
C803 C806 1.526 . S
C804 H788 0.959 . S
C804 H789 0.959 . S
C804 H790 0.961 . S
C804 C803 1.502 . S
C805 H791 0.960 . S
C805 H792 0.961 . S
C805 H793 0.959 . S
C805 C803 1.561 . S
C806 C803 1.526 . S
C806 C807 1.396 . S
C806 C811 1.390 . S
C807 C801 1.465 . S
C807 C806 1.396 . S
C807 C808 1.399 . S
C808 H794 0.929 . S
C808 C807 1.399 . S
C808 C809 1.385 . S
C809 H795 0.931 . S
C809 C808 1.385 . S
C809 C810 1.389 . S
C810 C809 1.389 . S
C810 C811 1.387 . S
C811 H796 0.930 . S
C811 C806 1.390 . S
C811 C810 1.387 . S
C285 C141 1.208 . S
C297 C5 1.245 . S
C312 C39 1.235 . S
C324 C175 1.209 . S
C339 C73 1.208 . S
C351 C209 1.243 . S
C366 C107 1.240 . S
C378 C243 1.208 . S
C393 C20 1.204 . S
C405 C224 1.175 . S
C420 C54 1.177 . S
C432 C258 1.147 . S
C447 C156 1.204 . S
C459 C88 1.172 . S
C474 C190 1.171 . S
C486 C122 1.146 . S
C501 C240 0.880 . S
C513 C2 0.906 . S
C528 C36 0.916 . S
C540 C138 0.864 . S
C555 C172 0.883 . S
C567 C70 0.904 . S
C582 C206 0.867 . S
C594 C104 0.914 . S
C609 C33 1.419 . S
C621 C43 1.408 . S
C636 C67 1.402 . S
C648 C77 1.382 . S
C663 C111 1.408 . S
C675 C101 1.419 . S
C690 C9 1.407 . S
C702 C135 1.418 . S
C717 C169 1.358 . S
C729 C247 1.353 . S
C744 C145 1.376 . S
C756 C203 1.396 . S
C771 C237 1.417 . S
C783 C179 1.419 . S
C798 C271 1.374 . S
C810 C213 1.390 . S
